# Generated by pormake.
# Topology ctn, (3,4)-cn, num edge types: 1
# Building blocks:
#     Node 0, Type 0, BuildingBlock: BELTOD_clean_linker_0, # of connection points: 3
#     Node 1, Type 0, BuildingBlock: BELTOD_clean_linker_0, # of connection points: 3
#     Node 2, Type 0, BuildingBlock: BELTOD_clean_linker_0, # of connection points: 3
#     Node 3, Type 0, BuildingBlock: BELTOD_clean_linker_0, # of connection points: 3
#     Node 4, Type 0, BuildingBlock: BELTOD_clean_linker_0, # of connection points: 3
#     Node 5, Type 0, BuildingBlock: BELTOD_clean_linker_0, # of connection points: 3
#     Node 6, Type 0, BuildingBlock: BELTOD_clean_linker_0, # of connection points: 3
#     Node 7, Type 0, BuildingBlock: BELTOD_clean_linker_0, # of connection points: 3
#     Node 8, Type 0, BuildingBlock: BELTOD_clean_linker_0, # of connection points: 3
#     Node 9, Type 0, BuildingBlock: BELTOD_clean_linker_0, # of connection points: 3
#     Node 10, Type 0, BuildingBlock: BELTOD_clean_linker_0, # of connection points: 3
#     Node 11, Type 0, BuildingBlock: BELTOD_clean_linker_0, # of connection points: 3
#     Node 12, Type 0, BuildingBlock: BELTOD_clean_linker_0, # of connection points: 3
#     Node 13, Type 0, BuildingBlock: BELTOD_clean_linker_0, # of connection points: 3
#     Node 14, Type 0, BuildingBlock: BELTOD_clean_linker_0, # of connection points: 3
#     Node 15, Type 0, BuildingBlock: BELTOD_clean_linker_0, # of connection points: 3
#     Node 16, Type 1, BuildingBlock: UXUYUI_clean_sbu_0, # of connection points: 4
#     Node 17, Type 1, BuildingBlock: UXUYUI_clean_sbu_0, # of connection points: 4
#     Node 18, Type 1, BuildingBlock: UXUYUI_clean_sbu_0, # of connection points: 4
#     Node 19, Type 1, BuildingBlock: UXUYUI_clean_sbu_0, # of connection points: 4
#     Node 20, Type 1, BuildingBlock: UXUYUI_clean_sbu_0, # of connection points: 4
#     Node 21, Type 1, BuildingBlock: UXUYUI_clean_sbu_0, # of connection points: 4
#     Node 22, Type 1, BuildingBlock: UXUYUI_clean_sbu_0, # of connection points: 4
#     Node 23, Type 1, BuildingBlock: UXUYUI_clean_sbu_0, # of connection points: 4
#     Node 24, Type 1, BuildingBlock: UXUYUI_clean_sbu_0, # of connection points: 4
#     Node 25, Type 1, BuildingBlock: UXUYUI_clean_sbu_0, # of connection points: 4
#     Node 26, Type 1, BuildingBlock: UXUYUI_clean_sbu_0, # of connection points: 4
#     Node 27, Type 1, BuildingBlock: UXUYUI_clean_sbu_0, # of connection points: 4
#     Edge 28, Type (0, 1), BuildingBlock: XIVTED_clean_linker_0, # of connection points: 2
#     Edge 29, Type (0, 1), BuildingBlock: XIVTED_clean_linker_0, # of connection points: 2
#     Edge 30, Type (0, 1), BuildingBlock: XIVTED_clean_linker_0, # of connection points: 2
#     Edge 31, Type (0, 1), BuildingBlock: XIVTED_clean_linker_0, # of connection points: 2
#     Edge 32, Type (0, 1), BuildingBlock: XIVTED_clean_linker_0, # of connection points: 2
#     Edge 33, Type (0, 1), BuildingBlock: XIVTED_clean_linker_0, # of connection points: 2
#     Edge 34, Type (0, 1), BuildingBlock: XIVTED_clean_linker_0, # of connection points: 2
#     Edge 35, Type (0, 1), BuildingBlock: XIVTED_clean_linker_0, # of connection points: 2
#     Edge 36, Type (0, 1), BuildingBlock: XIVTED_clean_linker_0, # of connection points: 2
#     Edge 37, Type (0, 1), BuildingBlock: XIVTED_clean_linker_0, # of connection points: 2
#     Edge 38, Type (0, 1), BuildingBlock: XIVTED_clean_linker_0, # of connection points: 2
#     Edge 39, Type (0, 1), BuildingBlock: XIVTED_clean_linker_0, # of connection points: 2
#     Edge 40, Type (0, 1), BuildingBlock: XIVTED_clean_linker_0, # of connection points: 2
#     Edge 41, Type (0, 1), BuildingBlock: XIVTED_clean_linker_0, # of connection points: 2
#     Edge 42, Type (0, 1), BuildingBlock: XIVTED_clean_linker_0, # of connection points: 2
#     Edge 43, Type (0, 1), BuildingBlock: XIVTED_clean_linker_0, # of connection points: 2
#     Edge 44, Type (0, 1), BuildingBlock: XIVTED_clean_linker_0, # of connection points: 2
#     Edge 45, Type (0, 1), BuildingBlock: XIVTED_clean_linker_0, # of connection points: 2
#     Edge 46, Type (0, 1), BuildingBlock: XIVTED_clean_linker_0, # of connection points: 2
#     Edge 47, Type (0, 1), BuildingBlock: XIVTED_clean_linker_0, # of connection points: 2
#     Edge 48, Type (0, 1), BuildingBlock: XIVTED_clean_linker_0, # of connection points: 2
#     Edge 49, Type (0, 1), BuildingBlock: XIVTED_clean_linker_0, # of connection points: 2
#     Edge 50, Type (0, 1), BuildingBlock: XIVTED_clean_linker_0, # of connection points: 2
#     Edge 51, Type (0, 1), BuildingBlock: XIVTED_clean_linker_0, # of connection points: 2
#     Edge 52, Type (0, 1), BuildingBlock: XIVTED_clean_linker_0, # of connection points: 2
#     Edge 53, Type (0, 1), BuildingBlock: XIVTED_clean_linker_0, # of connection points: 2
#     Edge 54, Type (0, 1), BuildingBlock: XIVTED_clean_linker_0, # of connection points: 2
#     Edge 55, Type (0, 1), BuildingBlock: XIVTED_clean_linker_0, # of connection points: 2
#     Edge 56, Type (0, 1), BuildingBlock: XIVTED_clean_linker_0, # of connection points: 2
#     Edge 57, Type (0, 1), BuildingBlock: XIVTED_clean_linker_0, # of connection points: 2
#     Edge 58, Type (0, 1), BuildingBlock: XIVTED_clean_linker_0, # of connection points: 2
#     Edge 59, Type (0, 1), BuildingBlock: XIVTED_clean_linker_0, # of connection points: 2
#     Edge 60, Type (0, 1), BuildingBlock: XIVTED_clean_linker_0, # of connection points: 2
#     Edge 61, Type (0, 1), BuildingBlock: XIVTED_clean_linker_0, # of connection points: 2
#     Edge 62, Type (0, 1), BuildingBlock: XIVTED_clean_linker_0, # of connection points: 2
#     Edge 63, Type (0, 1), BuildingBlock: XIVTED_clean_linker_0, # of connection points: 2
#     Edge 64, Type (0, 1), BuildingBlock: XIVTED_clean_linker_0, # of connection points: 2
#     Edge 65, Type (0, 1), BuildingBlock: XIVTED_clean_linker_0, # of connection points: 2
#     Edge 66, Type (0, 1), BuildingBlock: XIVTED_clean_linker_0, # of connection points: 2
#     Edge 67, Type (0, 1), BuildingBlock: XIVTED_clean_linker_0, # of connection points: 2
#     Edge 68, Type (0, 1), BuildingBlock: XIVTED_clean_linker_0, # of connection points: 2
#     Edge 69, Type (0, 1), BuildingBlock: XIVTED_clean_linker_0, # of connection points: 2
#     Edge 70, Type (0, 1), BuildingBlock: XIVTED_clean_linker_0, # of connection points: 2
#     Edge 71, Type (0, 1), BuildingBlock: XIVTED_clean_linker_0, # of connection points: 2
#     Edge 72, Type (0, 1), BuildingBlock: XIVTED_clean_linker_0, # of connection points: 2
#     Edge 73, Type (0, 1), BuildingBlock: XIVTED_clean_linker_0, # of connection points: 2
#     Edge 74, Type (0, 1), BuildingBlock: XIVTED_clean_linker_0, # of connection points: 2
#     Edge 75, Type (0, 1), BuildingBlock: XIVTED_clean_linker_0, # of connection points: 2
# Relax obj value: 0.001
# Max RMSD: 0.018
# Mean RMSD: 0.012
data_MOF--net-ctn--node1-UXUYUI_clean_sbu_0--node2-BELTOD_clean_linker_0--edge1-XIVTED_clean_linker_0
_symmetry_space_group_name_H-M    P1
_symmetry_Int_Tables_number       1
_symmetry_cell_setting            triclinic
loop_
_symmetry_equiv_pos_as_xyz
'x, y, z'
_cell_length_a     75.906599
_cell_length_b     76.437421
_cell_length_c     75.757024
_cell_angle_alpha  89.347297
_cell_angle_beta   90.098884
_cell_angle_gamma 90.756276
loop_
_atom_site_label
_atom_site_type_symbol
_atom_site_fract_x
_atom_site_fract_y
_atom_site_fract_z
_atom_type_partial_charge
P0 P 0.06178 0.0583 0.06893 0.0
H1 H 0.06083 0.04339 0.10429 0.0
H2 H 0.03695 0.03269 0.12313 0.0
H3 H 0.99995 0.04094 0.08047 0.0
H4 H 0.02399 0.05211 0.06182 0.0
H5 H 0.09873 0.05777 0.05934 0.0
H6 H 0.11746 0.0355 0.04684 0.0
H7 H 0.07249 0.0004 0.04305 0.0
H8 H 0.05388 0.02276 0.05617 0.0
H9 H 0.05416 0.09544 0.07019 0.0
H10 H 0.05131 0.05435 0.03172 0.0
O11 O 0.07472 0.06953 0.08273 0.0
H12 H 0.04488 0.11667 0.04784 0.0
H13 H 0.04211 0.07561 0.00916 0.0
C14 C 0.04411 0.04888 0.08183 0.0
C15 C 0.04758 0.04284 0.09898 0.0
C16 C 0.0339 0.03657 0.10969 0.0
C17 C 0.01646 0.03604 0.10338 0.0
C18 C 0.01316 0.04147 0.08587 0.0
C19 C 0.0269 0.0478 0.07516 0.0
C20 C 0.07504 0.04176 0.05902 0.0
C21 C 0.09291 0.04526 0.05587 0.0
C22 C 0.10357 0.03254 0.04852 0.0
C23 C 0.09652 0.01609 0.04392 0.0
C24 C 0.07842 0.0128 0.04669 0.0
C25 C 0.06775 0.02558 0.05414 0.0
C26 C 0.05382 0.07343 0.05249 0.0
C27 C 0.05157 0.091 0.0569 0.0
C28 C 0.04631 0.10313 0.0441 0.0
C29 C 0.04301 0.09787 0.02667 0.0
C30 C 0.04455 0.08006 0.02247 0.0
C31 C 0.04992 0.06793 0.03531 0.0
P32 P 0.31056 0.6932 0.19289 0.0
H33 H 0.32832 0.71511 0.16685 0.0
H34 H 0.31904 0.7398 0.14872 0.0
H35 H 0.26829 0.73867 0.17462 0.0
H36 H 0.27754 0.71346 0.19229 0.0
H37 H 0.33927 0.67608 0.2112 0.0
H38 H 0.35732 0.68401 0.23653 0.0
H39 H 0.32698 0.73101 0.24289 0.0
H40 H 0.30924 0.72312 0.21703 0.0
H41 H 0.298 0.65966 0.17939 0.0
H42 H 0.28344 0.69537 0.22041 0.0
O43 O 0.32382 0.68205 0.17967 0.0
H44 H 0.27458 0.63945 0.18875 0.0
H45 H 0.25956 0.67523 0.22959 0.0
C46 C 0.30352 0.7122 0.18065 0.0
C47 C 0.31518 0.72016 0.16862 0.0
C48 C 0.30989 0.73444 0.15837 0.0
C49 C 0.29286 0.74127 0.16013 0.0
C50 C 0.28138 0.73358 0.17268 0.0
C51 C 0.28669 0.71918 0.18287 0.0
C52 C 0.32319 0.69919 0.21204 0.0
C53 C 0.33654 0.68812 0.218 0.0
C54 C 0.34674 0.69261 0.23264 0.0
C55 C 0.34365 0.70818 0.2418 0.0
C56 C 0.32991 0.71907 0.23599 0.0
C57 C 0.31972 0.71456 0.22126 0.0
C58 C 0.29253 0.67897 0.19929 0.0
C59 C 0.28973 0.66321 0.19038 0.0
C60 C 0.27636 0.65163 0.19574 0.0
C61 C 0.26536 0.65575 0.20994 0.0
C62 C 0.26785 0.67179 0.21857 0.0
C63 C 0.28147 0.68325 0.21336 0.0
P64 P 0.98705 0.48991 0.01187 0.0
H65 H 0.99389 0.47863 0.97593 0.0
H66 H 0.99265 0.45024 0.96178 0.0
H67 H 0.97417 0.42655 0.0106 0.0
H68 H 0.97633 0.45505 0.02489 0.0
H69 H 0.97716 0.5265 0.00944 0.0
H70 H 0.94893 0.54129 0.01041 0.0
H71 H 0.92238 0.4914 0.01821 0.0
H72 H 0.95071 0.47668 0.01666 0.0
H73 H 0.02308 0.48558 0.0238 0.0
H74 H 0.97172 0.48889 0.04764 0.0
O75 O 0.0007 0.50256 0.9999 0.0
H76 H 0.03661 0.48396 0.05301 0.0
H77 H 0.98509 0.4869 0.07697 0.0
C78 C 0.98543 0.46888 0.00151 0.0
C79 C 0.98965 0.46731 0.98362 0.0
C80 C 0.98874 0.45103 0.97548 0.0
C81 C 0.98328 0.43599 0.98499 0.0
C82 C 0.97873 0.43774 0.00291 0.0
C83 C 0.97984 0.45404 0.01109 0.0
C84 C 0.96601 0.50047 0.01259 0.0
C85 C 0.96525 0.51873 0.01121 0.0
C86 C 0.94908 0.52719 0.01196 0.0
C87 C 0.93333 0.51755 0.01436 0.0
C88 C 0.9342 0.49922 0.01603 0.0
C89 C 0.95041 0.49076 0.01519 0.0
C90 C 0.99647 0.48771 0.03357 0.0
C91 C 0.01471 0.48588 0.03535 0.0
C92 C 0.02241 0.4848 0.05208 0.0
C93 C 0.01195 0.48539 0.06737 0.0
C94 C 0.99356 0.48672 0.06548 0.0
C95 C 0.98588 0.4878 0.04871 0.0
P96 P 0.69206 0.80692 0.19664 0.0
H97 H 0.72433 0.8174 0.17848 0.0
H98 H 0.74875 0.83691 0.18643 0.0
H99 H 0.72539 0.84424 0.23778 0.0
H100 H 0.70138 0.82432 0.22994 0.0
H101 H 0.67365 0.78774 0.1692 0.0
H102 H 0.68159 0.76282 0.15115 0.0
H103 H 0.7309 0.7587 0.17941 0.0
H104 H 0.72285 0.78382 0.19739 0.0
H105 H 0.66309 0.82467 0.2136 0.0
H106 H 0.69074 0.77612 0.22029 0.0
O107 O 0.68069 0.82005 0.1832 0.0
H108 H 0.64369 0.81673 0.23812 0.0
H109 H 0.67145 0.76812 0.2451 0.0
C110 C 0.71118 0.81917 0.20369 0.0
C111 C 0.72469 0.82291 0.19159 0.0
C112 C 0.73855 0.83422 0.1961 0.0
C113 C 0.73901 0.84224 0.21272 0.0
C114 C 0.72562 0.83812 0.22496 0.0
C115 C 0.7118 0.82673 0.22046 0.0
C116 C 0.69786 0.78788 0.18428 0.0
C117 C 0.68616 0.78146 0.17152 0.0
C118 C 0.69066 0.76711 0.16131 0.0
C119 C 0.70694 0.75883 0.16376 0.0
C120 C 0.7184 0.76497 0.177 0.0
C121 C 0.71382 0.77931 0.18729 0.0
C122 C 0.67809 0.80082 0.21491 0.0
C123 C 0.66496 0.81226 0.22035 0.0
C124 C 0.65398 0.80777 0.23449 0.0
C125 C 0.656 0.79176 0.24355 0.0
C126 C 0.66941 0.78043 0.23823 0.0
C127 C 0.68045 0.78499 0.22408 0.0
P128 P 0.05738 0.94136 0.44519 0.0
H129 H 0.09422 0.94006 0.45516 0.0
H130 H 0.11535 0.96229 0.465 0.0
H131 H 0.07408 0.00071 0.46474 0.0
H132 H 0.05292 0.97826 0.45513 0.0
H133 H 0.05137 0.90369 0.44542 0.0
H134 H 0.04295 0.88277 0.46857 0.0
H135 H 0.03858 0.92506 0.5056 0.0
H136 H 0.04705 0.94604 0.48221 0.0
H137 H 0.05594 0.96122 0.41252 0.0
H138 H 0.01915 0.94335 0.45232 0.0
O139 O 0.06873 0.93009 0.43039 0.0
H140 H 0.03173 0.97279 0.39494 0.0
H141 H 0.99479 0.95531 0.43502 0.0
C142 C 0.07215 0.95763 0.45404 0.0
C143 C 0.08971 0.95326 0.4573 0.0
C144 C 0.10178 0.96599 0.46285 0.0
C145 C 0.09645 0.98333 0.46537 0.0
C146 C 0.07859 0.98747 0.46292 0.0
C147 C 0.06651 0.97468 0.45731 0.0
C148 C 0.0502 0.92634 0.46223 0.0
C149 C 0.04865 0.90848 0.45852 0.0
C150 C 0.04387 0.89653 0.47177 0.0
C151 C 0.04035 0.90225 0.48896 0.0
C152 C 0.04123 0.92028 0.49248 0.0
C153 C 0.04616 0.93225 0.47919 0.0
C154 C 0.03932 0.95124 0.43356 0.0
C155 C 0.04263 0.95998 0.41756 0.0
C156 C 0.02875 0.96672 0.40759 0.0
C157 C 0.01126 0.96495 0.41352 0.0
C158 C 0.00807 0.95667 0.42993 0.0
C159 C 0.022 0.94988 0.43989 0.0
P160 P 0.23407 0.73575 0.76863 0.0
H161 H 0.25754 0.73546 0.7991 0.0
H162 H 0.25598 0.74912 0.82805 0.0
H163 H 0.2037 0.76745 0.81563 0.0
H164 H 0.20567 0.75435 0.78657 0.0
H165 H 0.25844 0.71982 0.74414 0.0
H166 H 0.27211 0.69114 0.74322 0.0
H167 H 0.24442 0.67588 0.7909 0.0
H168 H 0.23104 0.70485 0.79188 0.0
H169 H 0.2211 0.75199 0.73602 0.0
H170 H 0.20132 0.71653 0.77622 0.0
O171 O 0.24728 0.74997 0.75804 0.0
H172 H 0.19275 0.75069 0.72086 0.0
H173 H 0.17283 0.715 0.76096 0.0
C174 C 0.23161 0.74357 0.7908 0.0
C175 C 0.24564 0.74218 0.80276 0.0
C176 C 0.24469 0.74995 0.81934 0.0
C177 C 0.2297 0.75941 0.82422 0.0
C178 C 0.21553 0.76046 0.81227 0.0
C179 C 0.21655 0.75276 0.79567 0.0
C180 C 0.24407 0.71456 0.76829 0.0
C181 C 0.25541 0.71035 0.75446 0.0
C182 C 0.26308 0.69386 0.75386 0.0
C183 C 0.2594 0.6812 0.76701 0.0
C184 C 0.24776 0.68542 0.78072 0.0
C185 C 0.24007 0.70194 0.78128 0.0
C186 C 0.21325 0.73441 0.75728 0.0
C187 C 0.21067 0.74385 0.74156 0.0
C188 C 0.19446 0.74302 0.73283 0.0
C189 C 0.18053 0.73273 0.73969 0.0
C190 C 0.18323 0.72319 0.75544 0.0
C191 C 0.19951 0.72397 0.76411 0.0
P192 P 0.98496 0.51525 0.48776 0.0
H193 H 0.01476 0.53458 0.47288 0.0
H194 H 0.02761 0.5358 0.44333 0.0
H195 H 0.98479 0.50342 0.42398 0.0
H196 H 0.97241 0.50181 0.4536 0.0
H197 H 0.99355 0.52518 0.52379 0.0
H198 H 0.99226 0.55274 0.53948 0.0
H199 H 0.97137 0.57792 0.49264 0.0
H200 H 0.9735 0.55029 0.47679 0.0
H201 H 0.97416 0.47962 0.49761 0.0
H202 H 0.94926 0.52672 0.47891 0.0
O203 O 0.99969 0.50275 0.4981 0.0
H204 H 0.94572 0.46445 0.49788 0.0
H205 H 0.92068 0.5115 0.47882 0.0
C206 C 0.99256 0.51828 0.46543 0.0
C207 C 0.00802 0.52798 0.46219 0.0
C208 C 0.01531 0.52871 0.44526 0.0
C209 C 0.00728 0.51965 0.43125 0.0
C210 C 0.99147 0.51034 0.4345 0.0
C211 C 0.98425 0.50956 0.45145 0.0
C212 C 0.98386 0.53577 0.49907 0.0
C213 C 0.98882 0.53666 0.51685 0.0
C214 C 0.98787 0.55244 0.52588 0.0
C215 C 0.98165 0.56763 0.51738 0.0
C216 C 0.97648 0.56659 0.49955 0.0
C217 C 0.97758 0.55078 0.49048 0.0
C218 C 0.96378 0.50437 0.4885 0.0
C219 C 0.96255 0.48674 0.49362 0.0
C220 C 0.94627 0.47802 0.49362 0.0
C221 C 0.9309 0.48674 0.48835 0.0
C222 C 0.93221 0.50446 0.48319 0.0
C223 C 0.94854 0.51318 0.48321 0.0
P224 P 0.80437 0.81015 0.81226 0.0
H225 H 0.838 0.82408 0.79963 0.0
H226 H 0.85816 0.81493 0.77654 0.0
H227 H 0.8215 0.77396 0.76169 0.0
H228 H 0.80131 0.78318 0.78501 0.0
H229 H 0.79147 0.84288 0.82635 0.0
H230 H 0.7678 0.86229 0.81755 0.0
H231 H 0.75518 0.82846 0.77384 0.0
H232 H 0.77933 0.80918 0.7826 0.0
H233 H 0.82034 0.77776 0.82413 0.0
H234 H 0.76888 0.80094 0.82545 0.0
O235 O 0.81686 0.8205 0.82711 0.0
H236 H 0.80969 0.75356 0.84268 0.0
H237 H 0.75797 0.77656 0.84358 0.0
C238 C 0.81832 0.80411 0.79421 0.0
C239 C 0.83426 0.81314 0.79142 0.0
C240 C 0.8458 0.80787 0.77824 0.0
C241 C 0.8415 0.7936 0.76746 0.0
C242 C 0.82514 0.78502 0.76979 0.0
C243 C 0.81364 0.79023 0.78312 0.0
C244 C 0.78734 0.82474 0.80496 0.0
C245 C 0.78376 0.83969 0.81476 0.0
C246 C 0.77006 0.85071 0.80981 0.0
C247 C 0.75952 0.8469 0.79503 0.0
C248 C 0.76318 0.83188 0.78517 0.0
C249 C 0.77695 0.82083 0.79017 0.0
C250 C 0.79538 0.79104 0.82323 0.0
C251 C 0.80662 0.7774 0.82805 0.0
C252 C 0.80048 0.76353 0.83863 0.0
C253 C 0.78296 0.7631 0.84468 0.0
C254 C 0.77159 0.77658 0.83935 0.0
C255 C 0.77778 0.79048 0.82881 0.0
P256 P 0.30393 0.31248 0.30896 0.0
H257 H 0.32541 0.3308 0.28281 0.0
H258 H 0.34404 0.3208 0.25874 0.0
H259 H 0.32763 0.26743 0.26964 0.0
H260 H 0.30901 0.27752 0.29369 0.0
H261 H 0.27779 0.32978 0.33009 0.0
H262 H 0.2536 0.34935 0.3228 0.0
H263 H 0.26462 0.3432 0.26726 0.0
H264 H 0.28841 0.3232 0.27468 0.0
H265 H 0.32301 0.29423 0.33674 0.0
H266 H 0.27173 0.29085 0.31238 0.0
O267 O 0.31739 0.32573 0.3202 0.0
H268 H 0.31507 0.27021 0.3568 0.0
H269 H 0.26371 0.26654 0.33227 0.0
C270 C 0.31599 0.30492 0.29014 0.0
C271 C 0.3257 0.31697 0.27989 0.0
C272 C 0.33626 0.31124 0.26608 0.0
C273 C 0.33738 0.29331 0.26236 0.0
C274 C 0.3272 0.28131 0.27235 0.0
C275 C 0.31651 0.28708 0.28608 0.0
C276 C 0.28494 0.32511 0.30297 0.0
C277 C 0.27483 0.33248 0.31634 0.0
C278 C 0.2611 0.34377 0.31214 0.0
C279 C 0.25729 0.34803 0.29444 0.0
C280 C 0.26711 0.34012 0.28102 0.0
C281 C 0.28083 0.32875 0.28526 0.0
C282 C 0.29782 0.29455 0.32339 0.0
C283 C 0.31001 0.2883 0.33574 0.0
C284 C 0.3055 0.27445 0.34709 0.0
C285 C 0.28872 0.26647 0.3462 0.0
C286 C 0.27664 0.27257 0.3335 0.0
C287 C 0.2812 0.28644 0.32211 0.0
P288 P 0.48811 0.98962 0.5117 0.0
H289 H 0.51284 0.97225 0.48853 0.0
H290 H 0.51294 0.94341 0.47511 0.0
H291 H 0.46318 0.93091 0.50019 0.0
H292 H 0.46307 0.96001 0.51342 0.0
H293 H 0.47147 0.01275 0.48596 0.0
H294 H 0.44298 0.02719 0.48514 0.0
H295 H 0.42872 0.00173 0.53442 0.0
H296 H 0.45718 0.98702 0.53491 0.0
H297 H 0.50994 0.96418 0.53082 0.0
H298 H 0.48489 0.01326 0.54143 0.0
O299 O 0.50201 0.00264 0.50045 0.0
H300 H 0.52317 0.96435 0.56019 0.0
H301 H 0.4975 0.01322 0.57106 0.0
C302 C 0.48778 0.96839 0.50168 0.0
C303 C 0.50188 0.96337 0.49105 0.0
C304 C 0.502 0.94679 0.48351 0.0
C305 C 0.48805 0.93485 0.48656 0.0
C306 C 0.47399 0.93989 0.49738 0.0
C307 C 0.47392 0.9565 0.50497 0.0
C308 C 0.46657 0.99917 0.51071 0.0
C309 C 0.4622 0.01025 0.49657 0.0
C310 C 0.44593 0.01856 0.49617 0.0
C311 C 0.43366 0.01584 0.50986 0.0
C312 C 0.43783 0.0041 0.52365 0.0
C313 C 0.45414 0.99578 0.52402 0.0
C314 C 0.49609 0.98851 0.53407 0.0
C315 C 0.50694 0.9748 0.53961 0.0
C316 C 0.51448 0.97489 0.55647 0.0
C317 C 0.5114 0.98878 0.56806 0.0
C318 C 0.50034 0.00241 0.56245 0.0
C319 C 0.49293 0.00235 0.54557 0.0
P320 P 0.19451 0.30392 0.69619 0.0
H321 H 0.21993 0.32602 0.67769 0.0
H322 H 0.24286 0.34639 0.68762 0.0
H323 H 0.23046 0.33327 0.74186 0.0
H324 H 0.20753 0.31286 0.73181 0.0
H325 H 0.17655 0.27403 0.68086 0.0
H326 H 0.18672 0.24953 0.66329 0.0
H327 H 0.24059 0.26688 0.67081 0.0
H328 H 0.23034 0.29134 0.68831 0.0
H329 H 0.1623 0.32014 0.70838 0.0
H330 H 0.19364 0.27549 0.72261 0.0
O331 O 0.18349 0.31502 0.68072 0.0
H332 H 0.1411 0.3123 0.73143 0.0
H333 H 0.17232 0.26742 0.7457 0.0
C334 C 0.21195 0.31805 0.70398 0.0
C335 C 0.22221 0.32747 0.69171 0.0
C336 C 0.23538 0.33902 0.69741 0.0
C337 C 0.23844 0.34145 0.71553 0.0
C338 C 0.22828 0.33179 0.72782 0.0
C339 C 0.2152 0.32009 0.72208 0.0
C340 C 0.20264 0.28455 0.68583 0.0
C341 C 0.19057 0.27237 0.67897 0.0
C342 C 0.19641 0.25834 0.66899 0.0
C343 C 0.21447 0.25632 0.66557 0.0
C344 C 0.22658 0.26822 0.67302 0.0
C345 C 0.22071 0.28221 0.68309 0.0
C346 C 0.1793 0.29817 0.71356 0.0
C347 C 0.16456 0.30857 0.71641 0.0
C348 C 0.15242 0.30405 0.72957 0.0
C349 C 0.15491 0.28912 0.74025 0.0
C350 C 0.17005 0.27901 0.73771 0.0
C351 C 0.18216 0.28353 0.72446 0.0
P352 P 0.80779 0.19693 0.69585 0.0
H353 H 0.82544 0.21966 0.67041 0.0
H354 H 0.81563 0.24442 0.65242 0.0
H355 H 0.76479 0.24178 0.67795 0.0
H356 H 0.77479 0.21705 0.69606 0.0
H357 H 0.84185 0.18369 0.70734 0.0
H358 H 0.86124 0.19096 0.73189 0.0
H359 H 0.82448 0.23004 0.74893 0.0
H360 H 0.80527 0.22291 0.72388 0.0
H361 H 0.77557 0.18465 0.67879 0.0
H362 H 0.80052 0.17893 0.7297 0.0
O363 O 0.81896 0.18486 0.68159 0.0
H364 H 0.75222 0.16417 0.68803 0.0
H365 H 0.77725 0.15854 0.739 0.0
C366 C 0.8007 0.21624 0.68418 0.0
C367 C 0.81223 0.22449 0.67222 0.0
C368 C 0.80663 0.23872 0.66204 0.0
C369 C 0.78937 0.24494 0.66365 0.0
C370 C 0.77807 0.23708 0.67622 0.0
C371 C 0.78376 0.22294 0.68655 0.0
C372 C 0.82228 0.20296 0.71365 0.0
C373 C 0.83802 0.19394 0.71624 0.0
C374 C 0.84902 0.19799 0.73043 0.0
C375 C 0.84441 0.21105 0.74245 0.0
C376 C 0.82855 0.22007 0.73981 0.0
C377 C 0.81754 0.216 0.72553 0.0
C378 C 0.7896 0.1836 0.70364 0.0
C379 C 0.77583 0.17927 0.69207 0.0
C380 C 0.76249 0.16758 0.69738 0.0
C381 C 0.76289 0.15976 0.71426 0.0
C382 C 0.77665 0.16427 0.72588 0.0
C383 C 0.7899 0.17605 0.72059 0.0
P384 P 0.5615 0.55919 0.56936 0.0
H385 H 0.56018 0.54569 0.60525 0.0
H386 H 0.53639 0.53406 0.62362 0.0
H387 H 0.50051 0.53817 0.57939 0.0
H388 H 0.52445 0.55036 0.56121 0.0
H389 H 0.59918 0.55838 0.56282 0.0
H390 H 0.61849 0.53642 0.55069 0.0
H391 H 0.57338 0.5026 0.54129 0.0
H392 H 0.55417 0.52457 0.55416 0.0
H393 H 0.55148 0.59566 0.57099 0.0
H394 H 0.55267 0.55536 0.53166 0.0
O395 O 0.5739 0.57086 0.58327 0.0
H396 H 0.54175 0.61675 0.54869 0.0
H397 H 0.54306 0.57648 0.50916 0.0
C398 C 0.54397 0.54923 0.58202 0.0
C399 C 0.54719 0.54406 0.5995 0.0
C400 C 0.53357 0.53724 0.60994 0.0
C401 C 0.51645 0.53522 0.60303 0.0
C402 C 0.51344 0.53983 0.58523 0.0
C403 C 0.52713 0.54674 0.5748 0.0
C404 C 0.57532 0.54294 0.55971 0.0
C405 C 0.59345 0.54621 0.55822 0.0
C406 C 0.60447 0.53367 0.55107 0.0
C407 C 0.59754 0.51767 0.54498 0.0
C408 C 0.57922 0.51463 0.54612 0.0
C409 C 0.56821 0.52719 0.55341 0.0
C410 C 0.5532 0.57409 0.55288 0.0
C411 C 0.54967 0.59137 0.55753 0.0
C412 C 0.54416 0.60342 0.54476 0.0
C413 C 0.54189 0.59834 0.52711 0.0
C414 C 0.54469 0.58078 0.52265 0.0
C415 C 0.5503 0.56873 0.53546 0.0
P416 P 0.55691 0.44057 0.94591 0.0
H417 H 0.59493 0.44454 0.94162 0.0
H418 H 0.61614 0.46643 0.95166 0.0
H419 H 0.57425 0.49425 0.97729 0.0
H420 H 0.55293 0.4724 0.96663 0.0
H421 H 0.56921 0.40623 0.9571 0.0
H422 H 0.56162 0.38699 0.98191 0.0
H423 H 0.52519 0.4254 0.00094 0.0
H424 H 0.53289 0.44469 0.97591 0.0
H425 H 0.55291 0.47089 0.92269 0.0
H426 H 0.51942 0.43049 0.94517 0.0
O427 O 0.56649 0.42845 0.93055 0.0
H428 H 0.52836 0.48135 0.90485 0.0
H429 H 0.49456 0.44142 0.9282 0.0
C430 C 0.57234 0.457 0.95319 0.0
C431 C 0.59027 0.4554 0.94929 0.0
C432 C 0.60243 0.46787 0.95521 0.0
C433 C 0.59694 0.4821 0.96536 0.0
C434 C 0.57891 0.48359 0.96933 0.0
C435 C 0.56672 0.47109 0.96333 0.0
C436 C 0.5513 0.42669 0.96446 0.0
C437 C 0.55955 0.41052 0.96656 0.0
C438 C 0.55531 0.39958 0.98084 0.0
C439 C 0.54275 0.40465 0.99334 0.0
C440 C 0.53474 0.42105 0.99138 0.0
C441 C 0.53914 0.43208 0.97713 0.0
C442 C 0.53792 0.4502 0.9356 0.0
C443 C 0.54011 0.46463 0.92422 0.0
C444 C 0.526 0.47063 0.91404 0.0
C445 C 0.5094 0.46224 0.91502 0.0
C446 C 0.50718 0.44807 0.92688 0.0
C447 C 0.52136 0.44195 0.93686 0.0
P448 P 0.73589 0.23761 0.26497 0.0
H449 H 0.76171 0.25953 0.28299 0.0
H450 H 0.7618 0.27413 0.31149 0.0
H451 H 0.71021 0.25227 0.32275 0.0
H452 H 0.71024 0.23761 0.29424 0.0
H453 H 0.75295 0.21635 0.23873 0.0
H454 H 0.76562 0.18721 0.23965 0.0
H455 H 0.74992 0.18145 0.29427 0.0
H456 H 0.7376 0.21088 0.2933 0.0
H457 H 0.71899 0.25898 0.23777 0.0
H458 H 0.70507 0.21471 0.27096 0.0
O459 O 0.74897 0.24958 0.25173 0.0
H460 H 0.6899 0.25768 0.22392 0.0
H461 H 0.67568 0.21364 0.25738 0.0
C462 C 0.73581 0.2478 0.28629 0.0
C463 C 0.75037 0.25793 0.29154 0.0
C464 C 0.7504 0.2663 0.30783 0.0
C465 C 0.73593 0.26451 0.31929 0.0
C466 C 0.72157 0.25387 0.31423 0.0
C467 C 0.72152 0.24558 0.29786 0.0
C468 C 0.7447 0.2159 0.26603 0.0
C469 C 0.75229 0.20883 0.25092 0.0
C470 C 0.75939 0.19208 0.25143 0.0
C471 C 0.75885 0.18197 0.26706 0.0
C472 C 0.75082 0.18899 0.28211 0.0
C473 C 0.74373 0.2058 0.28157 0.0
C474 C 0.71422 0.23686 0.2553 0.0
C475 C 0.70967 0.24899 0.2421 0.0
C476 C 0.69307 0.24823 0.23417 0.0
C477 C 0.6806 0.23552 0.23955 0.0
C478 C 0.68504 0.22361 0.25306 0.0
C479 C 0.7018 0.22419 0.26078 0.0
P480 P 0.48361 0.01776 0.98636 0.0
H481 H 0.51997 0.01386 0.97504 0.0
H482 H 0.53424 0.01571 0.94631 0.0
H483 H 0.48454 0.02944 0.92221 0.0
H484 H 0.47023 0.027 0.95113 0.0
H485 H 0.47246 0.0264 0.02171 0.0
H486 H 0.47175 0.05374 0.03806 0.0
H487 H 0.49124 0.08172 0.99203 0.0
H488 H 0.49152 0.05436 0.97567 0.0
H489 H 0.47353 0.98216 0.97784 0.0
H490 H 0.44707 0.03023 0.98951 0.0
O491 O 0.49596 0.00472 0.99898 0.0
H492 H 0.44518 0.96675 0.97659 0.0
H493 H 0.41865 0.01481 0.98883 0.0
C494 C 0.49401 0.01996 0.96512 0.0
C495 C 0.51213 0.01722 0.96357 0.0
C496 C 0.52031 0.01847 0.94712 0.0
C497 C 0.51055 0.02271 0.93188 0.0
C498 C 0.4924 0.02587 0.9336 0.0
C499 C 0.48421 0.02455 0.95012 0.0
C500 C 0.48211 0.03833 0.99755 0.0
C501 C 0.47646 0.03845 0.01513 0.0
C502 C 0.47618 0.05408 0.02447 0.0
C503 C 0.4816 0.06992 0.01641 0.0
C504 C 0.48685 0.06979 0.9986 0.0
C505 C 0.48711 0.05411 0.98924 0.0
C506 C 0.46241 0.00721 0.98412 0.0
C507 C 0.46159 0.98938 0.98016 0.0
C508 C 0.44537 0.98058 0.97955 0.0
C509 C 0.42964 0.98948 0.9829 0.0
C510 C 0.43049 0.00757 0.98615 0.0
C511 C 0.44676 0.01638 0.98669 0.0
Li512 Li 0.26435 0.88694 0.997 0.0
Li513 Li 0.25056 0.86497 0.01711 0.0
Li514 Li 0.24552 0.86484 0.98485 0.0
Li515 Li 0.23243 0.88787 0.00321 0.0
C516 C 0.2743 0.84687 0.99006 0.0
N517 N 0.28566 0.81711 0.97339 0.0
C518 C 0.27286 0.83058 0.99853 0.0
C519 C 0.28164 0.84805 0.97316 0.0
C520 C 0.27867 0.81568 0.98987 0.0
C521 C 0.28725 0.83284 0.96494 0.0
C522 C 0.2529 0.89535 0.03697 0.0
C523 C 0.23911 0.89726 0.06551 0.0
N524 N 0.25436 0.90395 0.07225 0.0
C525 C 0.26841 0.90232 0.04414 0.0
C526 C 0.2381 0.89286 0.04769 0.0
C527 C 0.26889 0.90656 0.06203 0.0
C528 C 0.28481 0.91834 0.99748 0.0
N529 N 0.2851 0.90093 0.99402 0.0
C530 C 0.31576 0.90266 0.98711 0.0
C531 C 0.30014 0.89301 0.98891 0.0
C532 C 0.31595 0.92066 0.99069 0.0
C533 C 0.30015 0.92854 0.9958 0.0
H534 H 0.27268 0.92425 0.00174 0.0
H535 H 0.30005 0.87913 0.98641 0.0
C536 C 0.24351 0.83706 0.04124 0.0
N537 N 0.25409 0.85118 0.03785 0.0
C538 C 0.24676 0.82626 0.05587 0.0
C539 C 0.27146 0.84499 0.06344 0.0
C540 C 0.26791 0.85523 0.04853 0.0
C541 C 0.26099 0.83009 0.06719 0.0
H542 H 0.23285 0.8339 0.03229 0.0
H543 H 0.27636 0.86629 0.04532 0.0
C544 C 0.25106 0.90419 0.9705 0.0
N545 N 0.26537 0.93255 0.95239 0.0
C546 C 0.24455 0.92097 0.9732 0.0
C547 C 0.26476 0.90182 0.95848 0.0
C548 C 0.25197 0.93514 0.96393 0.0
C549 C 0.27185 0.91633 0.9495 0.0
C550 C 0.21088 0.8577 0.00639 0.0
C551 C 0.20071 0.85295 0.99177 0.0
C552 C 0.20319 0.85798 0.02313 0.0
C553 C 0.18288 0.84879 0.99413 0.0
C554 C 0.18532 0.85375 0.02493 0.0
N555 N 0.17562 0.84929 0.01051 0.0
C556 C 0.2381 0.8327 0.96762 0.0
C557 C 0.24209 0.85731 0.94868 0.0
C558 C 0.23572 0.82175 0.95313 0.0
N559 N 0.24138 0.85008 0.96512 0.0
C560 C 0.23977 0.84689 0.93384 0.0
C561 C 0.23658 0.82883 0.93593 0.0
H562 H 0.23744 0.82733 0.98088 0.0
H563 H 0.24458 0.87118 0.94707 0.0
C564 C 0.21628 0.91797 0.01604 0.0
N565 N 0.21303 0.90313 0.00679 0.0
C566 C 0.20288 0.92993 0.0189 0.0
C567 C 0.18293 0.91118 0.00265 0.0
C568 C 0.19681 0.8997 0.99989 0.0
C569 C 0.18592 0.92656 0.01222 0.0
H570 H 0.22938 0.92064 0.02103 0.0
H571 H 0.19465 0.88819 0.99203 0.0
O572 O 0.26838 0.86157 0.99818 0.0
O573 O 0.25224 0.89103 0.01952 0.0
O574 O 0.2442 0.8902 0.97972 0.0
O575 O 0.22837 0.86172 0.00436 0.0
H576 H 0.26723 0.82942 0.01159 0.0
H577 H 0.28273 0.86053 0.96635 0.0
H578 H 0.27757 0.80298 0.99624 0.0
H579 H 0.29281 0.83354 0.95181 0.0
H580 H 0.22777 0.89538 0.07398 0.0
H581 H 0.27997 0.90434 0.03598 0.0
H582 H 0.22596 0.88764 0.04229 0.0
H583 H 0.28083 0.9119 0.06778 0.0
H584 H 0.32757 0.89609 0.98294 0.0
H585 H 0.29974 0.94233 0.99889 0.0
H586 H 0.23852 0.81476 0.05793 0.0
H587 H 0.28241 0.84868 0.07184 0.0
H588 H 0.23393 0.92304 0.98241 0.0
H589 H 0.27006 0.88896 0.95633 0.0
H590 H 0.24711 0.9482 0.96595 0.0
H591 H 0.28256 0.91471 0.94028 0.0
H592 H 0.20646 0.85266 0.97873 0.0
H593 H 0.21093 0.86137 0.03461 0.0
H594 H 0.17482 0.84518 0.98292 0.0
H595 H 0.17917 0.85397 0.03779 0.0
H596 H 0.23308 0.80795 0.95537 0.0
H597 H 0.24077 0.8529 0.92086 0.0
H598 H 0.20572 0.94163 0.02638 0.0
H599 H 0.1701 0.90827 0.99704 0.0
Li600 Li 0.10922 0.50705 0.2668 0.0
Li601 Li 0.1311 0.48818 0.25392 0.0
Li602 Li 0.1322 0.52005 0.24917 0.0
Li603 Li 0.10946 0.50192 0.23433 0.0
C604 C 0.13513 0.5077 0.28933 0.0
N605 N 0.13404 0.50915 0.32574 0.0
C606 C 0.13696 0.49244 0.29947 0.0
C607 C 0.13282 0.52371 0.29771 0.0
C608 C 0.13637 0.49345 0.31786 0.0
C609 C 0.13227 0.52416 0.31613 0.0
C610 C 0.09795 0.46913 0.24908 0.0
C611 C 0.09406 0.44633 0.22761 0.0
N612 N 0.08265 0.43788 0.23872 0.0
C613 C 0.0861 0.46029 0.26023 0.0
C614 C 0.1019 0.46215 0.2326 0.0
C615 C 0.07855 0.44447 0.25478 0.0
C616 C 0.08627 0.52509 0.28989 0.0
N617 N 0.09439 0.50969 0.28683 0.0
C618 C 0.08236 0.49719 0.3133 0.0
C619 C 0.09253 0.49581 0.29807 0.0
C620 C 0.0739 0.51299 0.31695 0.0
C621 C 0.07592 0.52705 0.30496 0.0
H622 H 0.08784 0.53587 0.28066 0.0
H623 H 0.0992 0.48373 0.29532 0.0
C624 C 0.16251 0.47272 0.26402 0.0
N625 N 0.14608 0.46851 0.25812 0.0
C626 C 0.17466 0.45966 0.2678 0.0
C627 C 0.15281 0.43802 0.25948 0.0
C628 C 0.14106 0.45153 0.25585 0.0
C629 C 0.16986 0.442 0.26562 0.0
H630 H 0.16615 0.48629 0.2659 0.0
H631 H 0.12794 0.44833 0.25146 0.0
C632 C 0.1058 0.54137 0.24214 0.0
N633 N 0.10581 0.57603 0.23139 0.0
C634 C 0.10145 0.5458 0.22473 0.0
C635 C 0.11001 0.55457 0.25412 0.0
C636 C 0.10156 0.5634 0.21955 0.0
C637 C 0.11 0.57201 0.24841 0.0
C638 C 0.15038 0.49444 0.22491 0.0
C639 C 0.16677 0.50095 0.23036 0.0
C640 C 0.14959 0.48045 0.21319 0.0
C641 C 0.18211 0.49324 0.22414 0.0
C642 C 0.16523 0.47309 0.20727 0.0
N643 N 0.18103 0.47958 0.21283 0.0
C644 C 0.15896 0.54416 0.25914 0.0
C645 C 0.14796 0.54825 0.2301 0.0
C646 C 0.17113 0.55783 0.2567 0.0
N647 N 0.14771 0.53967 0.24592 0.0
C648 C 0.15971 0.56219 0.22719 0.0
C649 C 0.17161 0.56701 0.24055 0.0
H650 H 0.15875 0.53688 0.27145 0.0
H651 H 0.13919 0.54409 0.21965 0.0
C652 C 0.07788 0.4971 0.21496 0.0
N653 N 0.09563 0.49925 0.21363 0.0
C654 C 0.06764 0.49486 0.19978 0.0
C655 C 0.09418 0.49713 0.18224 0.0
C656 C 0.10388 0.4994 0.19773 0.0
C657 C 0.07581 0.49479 0.18314 0.0
H658 H 0.07172 0.49701 0.22783 0.0
H659 H 0.11801 0.50129 0.1971 0.0
O660 O 0.13527 0.50694 0.27131 0.0
O661 O 0.10511 0.48483 0.25407 0.0
O662 O 0.10597 0.5242 0.2474 0.0
O663 O 0.1352 0.50158 0.23114 0.0
H664 H 0.13857 0.47991 0.29322 0.0
H665 H 0.13126 0.53563 0.29006 0.0
H666 H 0.13768 0.48173 0.32588 0.0
H667 H 0.13037 0.53644 0.32278 0.0
H668 H 0.09705 0.44076 0.21492 0.0
H669 H 0.08272 0.4656 0.27294 0.0
H670 H 0.111 0.46882 0.22383 0.0
H671 H 0.06939 0.43746 0.26329 0.0
H672 H 0.08142 0.48609 0.32227 0.0
H673 H 0.06945 0.53939 0.3071 0.0
H674 H 0.18771 0.46338 0.27231 0.0
H675 H 0.14845 0.42459 0.25786 0.0
H676 H 0.09813 0.53576 0.2153 0.0
H677 H 0.1135 0.55136 0.26761 0.0
H678 H 0.09829 0.56702 0.20611 0.0
H679 H 0.11337 0.58234 0.2575 0.0
H680 H 0.16768 0.51165 0.23953 0.0
H681 H 0.13706 0.4753 0.20869 0.0
H682 H 0.19488 0.49808 0.22836 0.0
H683 H 0.1648 0.46222 0.19825 0.0
H684 H 0.18011 0.56116 0.26731 0.0
H685 H 0.15988 0.56877 0.21445 0.0
H686 H 0.05354 0.49295 0.20108 0.0
H687 H 0.10098 0.49744 0.16968 0.0
Li688 Li 0.73496 0.61339 0.00291 0.0
Li689 Li 0.74735 0.6361 0.02217 0.0
Li690 Li 0.75145 0.63715 0.98932 0.0
Li691 Li 0.76796 0.61611 0.00732 0.0
C692 C 0.71145 0.63944 0.00225 0.0
N693 N 0.6751 0.64022 0.00052 0.0
C694 C 0.70167 0.64418 0.01703 0.0
C695 C 0.70275 0.6353 0.98654 0.0
C696 C 0.6833 0.64445 0.0159 0.0
C697 C 0.68437 0.6357 0.98595 0.0
C698 C 0.74953 0.60342 0.04149 0.0
C699 C 0.76541 0.59603 0.06811 0.0
N700 N 0.75034 0.58922 0.07521 0.0
C701 C 0.73426 0.59611 0.04896 0.0
C702 C 0.76529 0.60318 0.05106 0.0
C703 C 0.73491 0.5891 0.06606 0.0
C704 C 0.71806 0.58446 0.98746 0.0
N705 N 0.71608 0.5969 0.99995 0.0
C706 C 0.68761 0.58535 0.00755 0.0
C707 C 0.70132 0.59745 0.01007 0.0
C708 C 0.68929 0.57238 0.99472 0.0
C709 C 0.70478 0.572 0.98463 0.0
H710 H 0.72999 0.58419 0.97971 0.0
H711 H 0.70018 0.60725 0.02016 0.0
C712 C 0.74994 0.66669 0.04231 0.0
N713 N 0.74358 0.64998 0.04261 0.0
C714 C 0.74727 0.67766 0.05664 0.0
C715 C 0.73128 0.65413 0.07127 0.0
C716 C 0.73431 0.64361 0.05667 0.0
C717 C 0.73777 0.67144 0.07138 0.0
H718 H 0.75695 0.67157 0.03081 0.0
H719 H 0.72894 0.63049 0.05644 0.0
C720 C 0.7578 0.61112 0.96771 0.0
N721 N 0.76501 0.61103 0.93198 0.0
C722 C 0.7751 0.60921 0.96182 0.0
C723 C 0.74414 0.61276 0.95543 0.0
C724 C 0.77848 0.60925 0.9437 0.0
C725 C 0.74806 0.61275 0.93742 0.0
C726 C 0.78393 0.64884 0.0157 0.0
C727 C 0.79557 0.65916 0.00565 0.0
C728 C 0.78758 0.64563 0.03352 0.0
C729 C 0.81085 0.66585 0.01353 0.0
C730 C 0.80298 0.65257 0.04093 0.0
N731 N 0.81421 0.66243 0.03086 0.0
C732 C 0.73941 0.66141 0.96338 0.0
C733 C 0.76941 0.65358 0.96101 0.0
C734 C 0.74097 0.67254 0.94869 0.0
N735 N 0.75352 0.65221 0.96919 0.0
C736 C 0.77155 0.66448 0.94624 0.0
C737 C 0.75722 0.67421 0.93993 0.0
H738 H 0.72697 0.66021 0.97021 0.0
H739 H 0.78046 0.64625 0.96602 0.0
C740 C 0.7885 0.58662 0.01543 0.0
N741 N 0.78933 0.60345 0.00944 0.0
C742 C 0.80383 0.57678 0.01693 0.0
C743 C 0.82053 0.60172 0.00589 0.0
C744 C 0.80488 0.61102 0.00451 0.0
C745 C 0.82014 0.58436 0.01219 0.0
H746 H 0.77591 0.58085 0.01903 0.0
H747 H 0.80515 0.62419 0.99922 0.0
O748 O 0.72944 0.63902 0.00315 0.0
O749 O 0.74913 0.6102 0.02469 0.0
O750 O 0.75427 0.61145 0.9854 0.0
O751 O 0.76896 0.64211 0.00813 0.0
H752 H 0.70817 0.64755 0.02925 0.0
H753 H 0.71011 0.63168 0.97497 0.0
H754 H 0.67556 0.64802 0.02725 0.0
H755 H 0.67746 0.63241 0.97391 0.0
H756 H 0.77752 0.59581 0.07566 0.0
H757 H 0.72199 0.59599 0.04171 0.0
H758 H 0.77738 0.60825 0.04535 0.0
H759 H 0.72314 0.58354 0.07204 0.0
H760 H 0.67597 0.58595 0.01576 0.0
H761 H 0.70655 0.56228 0.97451 0.0
H762 H 0.75221 0.691 0.05598 0.0
H763 H 0.72392 0.64877 0.08236 0.0
H764 H 0.78582 0.60788 0.97114 0.0
H765 H 0.73067 0.61411 0.95977 0.0
H766 H 0.79182 0.6079 0.93895 0.0
H767 H 0.73764 0.61412 0.92778 0.0
H768 H 0.79288 0.66193 0.99188 0.0
H769 H 0.77852 0.63808 0.0416 0.0
H770 H 0.82002 0.67378 0.00588 0.0
H771 H 0.80596 0.65016 0.05471 0.0
H772 H 0.72956 0.6797 0.94421 0.0
H773 H 0.78439 0.66557 0.94009 0.0
H774 H 0.80295 0.56346 0.0219 0.0
H775 H 0.83276 0.60794 0.00174 0.0
Li776 Li 0.85962 0.01893 0.25926 0.0
Li777 Li 0.88222 0.99946 0.2739 0.0
Li778 Li 0.88272 0.00541 0.24081 0.0
Li779 Li 0.85995 0.98838 0.25448 0.0
C780 C 0.89505 0.03588 0.26681 0.0
N781 N 0.91419 0.06395 0.27975 0.0
C782 C 0.89548 0.03906 0.28495 0.0
C783 C 0.9044 0.04694 0.25527 0.0
C784 C 0.90522 0.05333 0.29122 0.0
C785 C 0.91397 0.06108 0.26206 0.0
C786 C 0.84306 0.99011 0.28401 0.0
C787 C 0.83295 0.96474 0.30049 0.0
N788 N 0.81606 0.96849 0.29595 0.0
C789 C 0.8256 0.99377 0.27958 0.0
C790 C 0.84679 0.97552 0.29459 0.0
C791 C 0.81214 0.98265 0.28572 0.0
C792 C 0.82934 0.0392 0.25401 0.0
N793 N 0.84544 0.03927 0.2619 0.0
C794 C 0.84097 0.06826 0.27239 0.0
C795 C 0.85132 0.05336 0.27109 0.0
C796 C 0.82435 0.06866 0.26421 0.0
C797 C 0.81853 0.0538 0.25499 0.0
H798 H 0.82491 0.02779 0.24686 0.0
H799 H 0.86407 0.05317 0.27732 0.0
C800 C 0.91468 0.99503 0.29067 0.0
N801 N 0.89711 0.99619 0.29371 0.0
C802 C 0.92638 0.9929 0.30474 0.0
C803 C 0.90164 0.99313 0.32481 0.0
C804 C 0.89043 0.99541 0.31034 0.0
C805 C 0.91988 0.99186 0.32209 0.0
H806 H 0.91958 0.99579 0.27727 0.0
H807 H 0.87641 0.9967 0.31238 0.0
C808 C 0.8542 0.01911 0.22314 0.0
N809 N 0.84891 0.0439 0.19687 0.0
C810 C 0.84252 0.01566 0.20929 0.0
C811 C 0.86319 0.03518 0.22361 0.0
C812 C 0.84003 0.02835 0.19614 0.0
C813 C 0.86033 0.04754 0.21022 0.0
C814 C 0.88812 0.96769 0.24608 0.0
C815 C 0.88255 0.96533 0.22867 0.0
C816 C 0.89619 0.95398 0.25522 0.0
C817 C 0.8851 0.94919 0.22068 0.0
C818 C 0.89851 0.93803 0.24675 0.0
N819 N 0.89296 0.93599 0.22981 0.0
C820 C 0.91587 0.0114 0.22556 0.0
C821 C 0.89312 0.00702 0.20453 0.0
C822 C 0.92831 0.01351 0.21212 0.0
N823 N 0.89865 0.00835 0.22156 0.0
C824 C 0.9051 0.00917 0.19067 0.0
C825 C 0.92297 0.01246 0.19439 0.0
H826 H 0.91991 0.01221 0.23923 0.0
H827 H 0.87945 0.00415 0.20166 0.0
C828 C 0.83091 0.97064 0.23981 0.0
N829 N 0.84504 0.96841 0.25059 0.0
C830 C 0.81975 0.95654 0.23596 0.0
C831 C 0.83772 0.9381 0.25462 0.0
C832 C 0.84854 0.95258 0.2581 0.0
C833 C 0.82316 0.93995 0.24329 0.0
H834 H 0.8283 0.98341 0.23422 0.0
H835 H 0.85977 0.95118 0.26677 0.0
O836 O 0.88586 0.02179 0.26041 0.0
O837 O 0.85644 0.00061 0.27778 0.0
O838 O 0.85672 0.00671 0.23607 0.0
O839 O 0.88546 0.98327 0.25427 0.0
H840 H 0.88817 0.03075 0.29406 0.0
H841 H 0.90425 0.04466 0.24119 0.0
H842 H 0.90561 0.05598 0.30522 0.0
H843 H 0.92125 0.06976 0.25327 0.0
H844 H 0.83565 0.95334 0.30858 0.0
H845 H 0.8225 0.00496 0.27135 0.0
H846 H 0.86025 0.97237 0.29795 0.0
H847 H 0.79857 0.98526 0.2823 0.0
H848 H 0.84612 0.07946 0.27944 0.0
H849 H 0.80573 0.0534 0.24868 0.0
H850 H 0.94033 0.9918 0.30206 0.0
H851 H 0.89613 0.99261 0.33799 0.0
H852 H 0.83549 0.00328 0.20867 0.0
H853 H 0.87223 0.03817 0.23419 0.0
H854 H 0.83104 0.02584 0.18534 0.0
H855 H 0.86719 0.06003 0.21046 0.0
H856 H 0.87609 0.97577 0.22152 0.0
H857 H 0.90051 0.95563 0.26873 0.0
H858 H 0.88078 0.94713 0.20724 0.0
H859 H 0.90469 0.92727 0.25366 0.0
H860 H 0.94193 0.01616 0.21557 0.0
H861 H 0.90048 0.00799 0.1772 0.0
H862 H 0.8085 0.95865 0.22744 0.0
H863 H 0.84091 0.92555 0.26048 0.0
Li864 Li 0.25023 0.13586 0.52072 0.0
Li865 Li 0.23571 0.11408 0.50207 0.0
Li866 Li 0.26851 0.11506 0.50616 0.0
Li867 Li 0.25402 0.13725 0.48767 0.0
C868 C 0.24553 0.10808 0.54125 0.0
N869 N 0.23653 0.10524 0.57649 0.0
C870 C 0.22831 0.10349 0.5461 0.0
C871 C 0.25821 0.11106 0.5543 0.0
C872 C 0.22401 0.10215 0.56399 0.0
C873 C 0.25339 0.10962 0.57205 0.0
C874 C 0.21626 0.14567 0.49596 0.0
C875 C 0.19627 0.15197 0.47198 0.0
N876 N 0.18419 0.15765 0.48377 0.0
C877 C 0.20372 0.1518 0.50781 0.0
C878 C 0.21257 0.14595 0.47788 0.0
C879 C 0.18756 0.15771 0.5014 0.0
C880 C 0.26095 0.16061 0.54621 0.0
N881 N 0.24752 0.14978 0.5413 0.0
C882 C 0.22982 0.15951 0.56525 0.0
C883 C 0.23218 0.14898 0.55052 0.0
C884 C 0.24339 0.17099 0.57058 0.0
C885 C 0.2592 0.17131 0.56091 0.0
H886 H 0.27297 0.1611 0.53861 0.0
H887 H 0.2217 0.14027 0.54635 0.0
C888 C 0.22062 0.08178 0.49474 0.0
N889 N 0.21623 0.09837 0.499 0.0
C890 C 0.20755 0.06925 0.49143 0.0
C891 C 0.18556 0.09096 0.49744 0.0
C892 C 0.19911 0.10309 0.50066 0.0
C893 C 0.18971 0.07381 0.49256 0.0
H894 H 0.23436 0.07835 0.49372 0.0
H895 H 0.19589 0.11624 0.50435 0.0
C896 C 0.2897 0.14269 0.50744 0.0
N897 N 0.32602 0.14525 0.50868 0.0
C898 C 0.29913 0.14847 0.49261 0.0
C899 C 0.29872 0.1384 0.52296 0.0
C900 C 0.3175 0.14964 0.49349 0.0
C901 C 0.31709 0.13971 0.5233 0.0
C902 C 0.25192 0.10537 0.46757 0.0
C903 C 0.26557 0.09739 0.45841 0.0
C904 C 0.23527 0.10651 0.45976 0.0
C905 C 0.26243 0.09105 0.44146 0.0
C906 C 0.23264 0.09999 0.4428 0.0
N907 N 0.24617 0.09248 0.43406 0.0
C908 C 0.29191 0.09027 0.52149 0.0
C909 C 0.30121 0.103 0.49434 0.0
C910 C 0.30733 0.0805 0.52255 0.0
N911 N 0.28922 0.1013 0.50757 0.0
C912 C 0.3168 0.09356 0.49489 0.0
C913 C 0.32007 0.08216 0.50917 0.0
H914 H 0.28212 0.08911 0.53179 0.0
H915 H 0.2987 0.11182 0.4834 0.0
C916 C 0.25054 0.16886 0.46857 0.0
N917 N 0.25686 0.15235 0.46766 0.0
C918 C 0.25299 0.18062 0.4545 0.0
C919 C 0.2685 0.15816 0.43886 0.0
C920 C 0.26575 0.14686 0.45322 0.0
C921 C 0.26218 0.17535 0.4394 0.0
H922 H 0.24377 0.17297 0.48034 0.0
H923 H 0.27103 0.13382 0.45297 0.0
O924 O 0.24992 0.1097 0.5238 0.0
O925 O 0.2322 0.13992 0.50205 0.0
O926 O 0.27173 0.14115 0.50673 0.0
O927 O 0.2548 0.11158 0.48424 0.0
H928 H 0.21833 0.10114 0.53616 0.0
H929 H 0.2716 0.1146 0.55077 0.0
H930 H 0.21071 0.0987 0.56795 0.0
H931 H 0.26304 0.112 0.5823 0.0
H932 H 0.19326 0.1522 0.45802 0.0
H933 H 0.20638 0.15193 0.52182 0.0
H934 H 0.22224 0.14179 0.46843 0.0
H935 H 0.17771 0.16237 0.51045 0.0
H936 H 0.21731 0.15896 0.57209 0.0
H937 H 0.27012 0.17975 0.56463 0.0
H938 H 0.2114 0.05611 0.48807 0.0
H939 H 0.17201 0.09509 0.49839 0.0
H940 H 0.29237 0.15192 0.48051 0.0
H941 H 0.29163 0.1339 0.53455 0.0
H942 H 0.32497 0.15401 0.48208 0.0
H943 H 0.32426 0.13629 0.53518 0.0
H944 H 0.27848 0.09614 0.4643 0.0
H945 H 0.2244 0.11211 0.46679 0.0
H946 H 0.27292 0.08495 0.4342 0.0
H947 H 0.21982 0.10081 0.43662 0.0
H948 H 0.30937 0.07198 0.53387 0.0
H949 H 0.32611 0.09507 0.48415 0.0
H950 H 0.24815 0.19382 0.45565 0.0
H951 H 0.27556 0.15348 0.42747 0.0
Li952 Li 0.38272 0.49935 0.77339 0.0
Li953 Li 0.36062 0.51815 0.75871 0.0
Li954 Li 0.3605 0.4866 0.75548 0.0
Li955 Li 0.38438 0.50418 0.7412 0.0
C956 C 0.34224 0.49223 0.78411 0.0
N957 N 0.31209 0.47553 0.79642 0.0
C958 C 0.32592 0.50036 0.78258 0.0
C959 C 0.34325 0.47568 0.79208 0.0
C960 C 0.31082 0.49169 0.78885 0.0
C961 C 0.32786 0.46743 0.79815 0.0
C962 C 0.39395 0.5368 0.76573 0.0
C963 C 0.40841 0.56454 0.75982 0.0
N964 N 0.40894 0.56772 0.77744 0.0
C965 C 0.39473 0.5403 0.78379 0.0
C966 C 0.40093 0.54897 0.75364 0.0
C967 C 0.40232 0.55602 0.78944 0.0
C968 C 0.41472 0.5012 0.79227 0.0
N969 N 0.39736 0.49681 0.7937 0.0
C970 C 0.40146 0.48735 0.82357 0.0
C971 C 0.39054 0.49022 0.809 0.0
C972 C 0.41951 0.49149 0.8224 0.0
C973 C 0.42608 0.49869 0.80655 0.0
H974 H 0.41977 0.50639 0.7799 0.0
H975 H 0.37667 0.48699 0.80981 0.0
C976 C 0.33189 0.54021 0.7499 0.0
N977 N 0.34621 0.53853 0.76058 0.0
C978 C 0.32133 0.555 0.75085 0.0
C979 C 0.33997 0.56581 0.77428 0.0
C980 C 0.35015 0.5508 0.77287 0.0
C981 C 0.3254 0.56814 0.76308 0.0
H982 H 0.32851 0.52998 0.74072 0.0
H983 H 0.36111 0.54894 0.7817 0.0
C984 C 0.39927 0.47208 0.76177 0.0
N985 N 0.42643 0.45386 0.7775 0.0
C986 C 0.41652 0.47425 0.75564 0.0
C987 C 0.39581 0.46047 0.77577 0.0
C988 C 0.43008 0.46495 0.76379 0.0
C989 C 0.40973 0.45144 0.7836 0.0
C990 C 0.35503 0.51495 0.72193 0.0
C991 C 0.34364 0.50899 0.70873 0.0
C992 C 0.36313 0.5314 0.7202 0.0
C993 C 0.34054 0.51963 0.69396 0.0
C994 C 0.3597 0.54165 0.70524 0.0
N995 N 0.34856 0.5356 0.69254 0.0
C996 C 0.32793 0.46989 0.74848 0.0
C997 C 0.35173 0.45049 0.75263 0.0
C998 C 0.31629 0.45585 0.74592 0.0
N999 N 0.34523 0.46697 0.75192 0.0
C1000 C 0.34059 0.43607 0.75001 0.0
C1001 C 0.32261 0.43865 0.74663 0.0
H1002 H 0.32319 0.48316 0.74771 0.0
H1003 H 0.36558 0.44854 0.75513 0.0
C1004 C 0.41616 0.51387 0.72475 0.0
N1005 N 0.39987 0.50699 0.72164 0.0
C1006 C 0.42827 0.51583 0.71101 0.0
C1007 C 0.40648 0.50392 0.69099 0.0
C1008 C 0.39487 0.50196 0.70519 0.0
C1009 C 0.42347 0.51082 0.69386 0.0
H1010 H 0.41982 0.51763 0.738 0.0
H1011 H 0.38191 0.49631 0.70312 0.0
O1012 O 0.35713 0.50039 0.77776 0.0
O1013 O 0.38689 0.52132 0.75991 0.0
O1014 O 0.38589 0.48145 0.75427 0.0
O1015 O 0.35828 0.50459 0.73638 0.0
H1016 H 0.32487 0.51317 0.77652 0.0
H1017 H 0.35574 0.46915 0.79332 0.0
H1018 H 0.29809 0.49779 0.78767 0.0
H1019 H 0.32843 0.45456 0.8042 0.0
H1020 H 0.41383 0.57408 0.7506 0.0
H1021 H 0.38928 0.53112 0.79334 0.0
H1022 H 0.40064 0.54643 0.73962 0.0
H1023 H 0.40291 0.55893 0.80337 0.0
H1024 H 0.39585 0.48195 0.83561 0.0
H1025 H 0.43995 0.50189 0.80505 0.0
H1026 H 0.30997 0.55601 0.74225 0.0
H1027 H 0.34365 0.57557 0.7839 0.0
H1028 H 0.41945 0.48307 0.74477 0.0
H1029 H 0.38257 0.45867 0.78075 0.0
H1030 H 0.4435 0.46658 0.75923 0.0
H1031 H 0.40725 0.44256 0.79456 0.0
H1032 H 0.33728 0.49627 0.7099 0.0
H1033 H 0.3719 0.53621 0.73032 0.0
H1034 H 0.33176 0.51519 0.68363 0.0
H1035 H 0.36587 0.55441 0.70374 0.0
H1036 H 0.30258 0.45843 0.74307 0.0
H1037 H 0.34598 0.42303 0.75074 0.0
H1038 H 0.44119 0.52134 0.71374 0.0
H1039 H 0.40236 0.49977 0.67798 0.0
Li1040 Li 0.76447 0.38579 0.4985 0.0
Li1041 Li 0.74855 0.3642 0.51662 0.0
Li1042 Li 0.74377 0.36489 0.48403 0.0
Li1043 Li 0.73139 0.38728 0.50342 0.0
C1044 C 0.7801 0.35422 0.48819 0.0
N1045 N 0.8088 0.34294 0.46924 0.0
C1046 C 0.79224 0.34292 0.49603 0.0
C1047 C 0.78249 0.35963 0.47068 0.0
C1048 C 0.8067 0.33741 0.48625 0.0
C1049 C 0.79708 0.35382 0.46132 0.0
C1050 C 0.75441 0.39011 0.53826 0.0
C1051 C 0.74423 0.38861 0.56837 0.0
N1052 N 0.76122 0.38944 0.57408 0.0
C1053 C 0.77176 0.39109 0.54441 0.0
C1054 C 0.74051 0.38899 0.55031 0.0
C1055 C 0.77493 0.39069 0.56258 0.0
C1056 C 0.78508 0.41583 0.49 0.0
N1057 N 0.78573 0.39907 0.49615 0.0
C1058 C 0.81699 0.40124 0.49953 0.0
C1059 C 0.80123 0.39175 0.50109 0.0
C1060 C 0.8168 0.41852 0.49298 0.0
C1061 C 0.80054 0.42583 0.48825 0.0
H1062 H 0.77253 0.42141 0.48642 0.0
H1063 H 0.80134 0.3786 0.50645 0.0
C1064 C 0.73779 0.34215 0.54558 0.0
N1065 N 0.75169 0.34963 0.53694 0.0
C1066 C 0.74053 0.33196 0.56076 0.0
C1067 C 0.77185 0.33723 0.5577 0.0
C1068 C 0.76848 0.34734 0.54266 0.0
C1069 C 0.75777 0.32937 0.56703 0.0
H1070 H 0.72456 0.34415 0.54077 0.0
H1071 H 0.77928 0.35353 0.53556 0.0
C1072 C 0.74387 0.39875 0.46521 0.0
N1073 N 0.74102 0.4152 0.43265 0.0
C1074 C 0.72752 0.40458 0.4592 0.0
C1075 C 0.75883 0.40158 0.45475 0.0
C1076 C 0.72633 0.41277 0.44267 0.0
C1077 C 0.7571 0.40984 0.43831 0.0
C1078 C 0.70831 0.35975 0.50425 0.0
C1079 C 0.69873 0.35389 0.48964 0.0
C1080 C 0.69948 0.36377 0.51983 0.0
C1081 C 0.68041 0.35232 0.49082 0.0
C1082 C 0.68114 0.36205 0.52048 0.0
N1083 N 0.67207 0.35641 0.50608 0.0
C1084 C 0.74693 0.33477 0.46297 0.0
C1085 C 0.73131 0.35784 0.44923 0.0
C1086 C 0.74564 0.32475 0.44769 0.0
N1087 N 0.74013 0.35114 0.46333 0.0
C1088 C 0.72976 0.34832 0.43368 0.0
C1089 C 0.7372 0.33164 0.43268 0.0
H1090 H 0.75369 0.32963 0.47444 0.0
H1091 H 0.72548 0.37058 0.44998 0.0
C1092 C 0.71577 0.41695 0.51767 0.0
N1093 N 0.71254 0.40331 0.50672 0.0
C1094 C 0.70277 0.42929 0.52077 0.0
C1095 C 0.68326 0.41334 0.50131 0.0
C1096 C 0.69673 0.40143 0.49839 0.0
C1097 C 0.68624 0.42751 0.51259 0.0
H1098 H 0.72849 0.41827 0.52399 0.0
H1099 H 0.69457 0.39078 0.48938 0.0
O1100 O 0.76596 0.35985 0.49766 0.0
O1101 O 0.75106 0.39 0.52052 0.0
O1102 O 0.74528 0.39084 0.48147 0.0
O1103 O 0.72625 0.36134 0.50332 0.0
H1104 H 0.79054 0.33847 0.50953 0.0
H1105 H 0.77304 0.36803 0.46432 0.0
H1106 H 0.81623 0.32873 0.49217 0.0
H1107 H 0.79906 0.35791 0.44775 0.0
H1108 H 0.73361 0.38763 0.57785 0.0
H1109 H 0.78265 0.39196 0.53525 0.0
H1110 H 0.72701 0.3883 0.54575 0.0
H1111 H 0.78829 0.39132 0.56753 0.0
H1112 H 0.82915 0.39521 0.5037 0.0
H1113 H 0.79978 0.43906 0.48307 0.0
H1114 H 0.72925 0.32635 0.56759 0.0
H1115 H 0.78537 0.3354 0.56181 0.0
H1116 H 0.71583 0.4026 0.4671 0.0
H1117 H 0.77169 0.39761 0.45929 0.0
H1118 H 0.71372 0.4172 0.43782 0.0
H1119 H 0.76857 0.41205 0.43007 0.0
H1120 H 0.70535 0.35062 0.47752 0.0
H1121 H 0.70667 0.36841 0.53123 0.0
H1122 H 0.67282 0.34785 0.47961 0.0
H1123 H 0.67413 0.36524 0.53241 0.0
H1124 H 0.75161 0.31196 0.44748 0.0
H1125 H 0.72279 0.35398 0.42255 0.0
H1126 H 0.70555 0.43999 0.52964 0.0
H1127 H 0.67077 0.41165 0.49456 0.0
Li1128 Li 0.63251 0.9847 0.75341 0.0
Li1129 Li 0.61111 0.00409 0.76756 0.0
Li1130 Li 0.61144 0.9996 0.73457 0.0
Li1131 Li 0.63426 0.01756 0.74862 0.0
C1132 C 0.6025 0.96519 0.75744 0.0
N1133 N 0.59528 0.93033 0.76481 0.0
C1134 C 0.59631 0.96008 0.77411 0.0
C1135 C 0.60474 0.9526 0.74444 0.0
C1136 C 0.5928 0.94239 0.7776 0.0
C1137 C 0.60111 0.93503 0.74844 0.0
C1138 C 0.64299 0.00759 0.78727 0.0
C1139 C 0.64846 0.02864 0.81019 0.0
N1140 N 0.65471 0.01566 0.82081 0.0
C1141 C 0.64968 0.9945 0.79834 0.0
C1142 C 0.64256 0.02484 0.79317 0.0
C1143 C 0.65545 0.99883 0.81528 0.0
C1144 C 0.66007 0.9614 0.74589 0.0
N1145 N 0.64634 0.96426 0.75694 0.0
C1146 C 0.65368 0.93904 0.77425 0.0
C1147 C 0.64298 0.95342 0.77091 0.0
C1148 C 0.66818 0.9359 0.76326 0.0
C1149 C 0.67119 0.94723 0.74879 0.0
H1150 H 0.66268 0.9704 0.73507 0.0
H1151 H 0.63227 0.95618 0.77977 0.0
C1152 C 0.58172 0.01644 0.78674 0.0
N1153 N 0.59692 0.00728 0.78806 0.0
C1154 C 0.5715 0.01939 0.80174 0.0
C1155 C 0.59257 0.00308 0.81906 0.0
C1156 C 0.60225 0.00032 0.80374 0.0
C1157 C 0.57705 0.01285 0.81821 0.0
H1158 H 0.57762 0.02161 0.77406 0.0
H1159 H 0.61395 0.99248 0.80437 0.0
C1160 C 0.63992 0.99553 0.71388 0.0
N1161 N 0.64427 0.98995 0.67818 0.0
C1162 C 0.64577 0.00915 0.70281 0.0
C1163 C 0.63657 0.979 0.70684 0.0
C1164 C 0.64781 0.00609 0.68479 0.0
C1165 C 0.63876 0.97646 0.68875 0.0
C1166 C 0.6048 0.03908 0.74869 0.0
C1167 C 0.59939 0.04807 0.7335 0.0
C1168 C 0.60623 0.048 0.76464 0.0
C1169 C 0.59593 0.06594 0.73442 0.0
C1170 C 0.60263 0.06586 0.76504 0.0
N1171 N 0.59763 0.0744 0.75004 0.0
C1172 C 0.58473 0.9852 0.71243 0.0
C1173 C 0.6004 0.00957 0.70047 0.0
C1174 C 0.57454 0.98391 0.6971 0.0
N1175 N 0.5974 0.99785 0.71378 0.0
C1176 C 0.5906 0.00873 0.68491 0.0
C1177 C 0.57742 0.9958 0.68305 0.0
H1178 H 0.58245 0.97618 0.7233 0.0
H1179 H 0.61047 0.01957 0.70193 0.0
C1180 C 0.66471 0.03805 0.75551 0.0
N1181 N 0.64985 0.03713 0.74551 0.0
C1182 C 0.67661 0.05198 0.75332 0.0
C1183 C 0.65799 0.06355 0.73021 0.0
C1184 C 0.64637 0.04946 0.73296 0.0
C1185 C 0.67339 0.06496 0.74046 0.0
H1186 H 0.66743 0.02786 0.7651 0.0
H1187 H 0.6348 0.04814 0.72475 0.0
O1188 O 0.6061 0.98245 0.75384 0.0
O1189 O 0.63718 0.00353 0.77067 0.0
O1190 O 0.63759 0.99835 0.73152 0.0
O1191 O 0.60831 0.02157 0.748 0.0
H1192 H 0.59431 0.96965 0.78428 0.0
H1193 H 0.60923 0.95633 0.73139 0.0
H1194 H 0.58811 0.93825 0.79048 0.0
H1195 H 0.60289 0.92514 0.73852 0.0
H1196 H 0.64816 0.04194 0.81492 0.0
H1197 H 0.65031 0.98113 0.79396 0.0
H1198 H 0.63797 0.03523 0.78464 0.0
H1199 H 0.66054 0.9888 0.82402 0.0
H1200 H 0.65069 0.93059 0.78545 0.0
H1201 H 0.68237 0.94555 0.74015 0.0
H1202 H 0.5596 0.02697 0.80054 0.0
H1203 H 0.59708 0.99745 0.83143 0.0
H1204 H 0.64858 0.02199 0.70805 0.0
H1205 H 0.63235 0.96825 0.71525 0.0
H1206 H 0.6522 0.01655 0.67605 0.0
H1207 H 0.63612 0.96375 0.68311 0.0
H1208 H 0.59797 0.04137 0.72109 0.0
H1209 H 0.60986 0.04118 0.77663 0.0
H1210 H 0.59187 0.07308 0.72273 0.0
H1211 H 0.60374 0.07292 0.7773 0.0
H1212 H 0.56436 0.97389 0.69637 0.0
H1213 H 0.59349 0.01802 0.67438 0.0
H1214 H 0.6882 0.05254 0.76166 0.0
H1215 H 0.65512 0.07297 0.71985 0.0
Li1216 Li 0.01573 0.25366 0.87138 0.0
Li1217 Li 0.99707 0.26814 0.89319 0.0
Li1218 Li 0.00258 0.23577 0.89561 0.0
Li1219 Li 0.98293 0.24813 0.873 0.0
C1220 C 0.03676 0.25544 0.90264 0.0
N1221 N 0.07142 0.2547 0.91384 0.0
C1222 C 0.04507 0.2707 0.9086 0.0
C1223 C 0.046 0.23975 0.90266 0.0
C1224 C 0.06263 0.27008 0.91412 0.0
C1225 C 0.06353 0.23965 0.9083 0.0
C1226 C 0.99411 0.28747 0.86365 0.0
C1227 C 0.97651 0.3135 0.86403 0.0
N1228 N 0.99046 0.32295 0.85766 0.0
C1229 C 0.00823 0.2974 0.85696 0.0
C1230 C 0.97807 0.29552 0.86708 0.0
C1231 C 0.00613 0.31534 0.85406 0.0
C1232 C 0.03355 0.24868 0.83956 0.0
N1233 N 0.03509 0.25643 0.85555 0.0
C1234 C 0.06302 0.2689 0.84744 0.0
C1235 C 0.04942 0.26645 0.85966 0.0
C1236 C 0.06175 0.26113 0.83076 0.0
C1237 C 0.0468 0.25081 0.82693 0.0
H1238 H 0.0219 0.24097 0.83654 0.0
H1239 H 0.05011 0.27293 0.87222 0.0
C1240 C 0.98171 0.29023 0.91859 0.0
N1241 N 0.99457 0.28917 0.9062 0.0
C1242 C 0.97948 0.3057 0.92796 0.0
C1243 C 0.00377 0.31865 0.91161 0.0
C1244 C 0.00571 0.30287 0.90279 0.0
C1245 C 0.99049 0.3202 0.92435 0.0
H1246 H 0.97314 0.27909 0.92117 0.0
H1247 H 0.01604 0.30157 0.89312 0.0
C1248 C 0.0083 0.21527 0.86472 0.0
N1249 N 0.02049 0.18312 0.85421 0.0
C1250 C 0.99649 0.20244 0.85876 0.0
C1251 C 0.02633 0.21184 0.86505 0.0
C1252 C 0.0029 0.18624 0.85359 0.0
C1253 C 0.03223 0.19548 0.85976 0.0
C1254 C 0.96306 0.24416 0.90175 0.0
C1255 C 0.95861 0.2273 0.9077 0.0
C1256 C 0.94978 0.25621 0.89829 0.0
C1257 C 0.94086 0.22271 0.90987 0.0
C1258 C 0.93219 0.25111 0.90059 0.0
N1259 N 0.92813 0.2346 0.90627 0.0
C1260 C 0.01317 0.22143 0.92794 0.0
C1261 C 0.00329 0.2 0.90774 0.0
C1262 C 0.01701 0.20851 0.94048 0.0
N1263 N 0.00667 0.21698 0.91186 0.0
C1264 C 0.00699 0.18663 0.91987 0.0
C1265 C 0.0141 0.19079 0.93647 0.0
H1266 H 0.01547 0.23507 0.93097 0.0
H1267 H 0.99772 0.19677 0.89506 0.0
C1268 C 0.95852 0.25536 0.84588 0.0
N1269 N 0.96256 0.24366 0.85886 0.0
C1270 C 0.9443 0.25221 0.83459 0.0
C1271 C 0.93849 0.22509 0.85033 0.0
C1272 C 0.9529 0.22872 0.86125 0.0
C1273 C 0.93411 0.23683 0.83664 0.0
H1274 H 0.9666 0.26697 0.84401 0.0
H1275 H 0.95652 0.21949 0.87149 0.0
O1276 O 0.01955 0.25585 0.89724 0.0
O1277 O 0.99599 0.26993 0.86679 0.0
O1278 O 0.00221 0.23122 0.86979 0.0
O1279 O 0.98035 0.24884 0.8994 0.0
H1280 H 0.03808 0.28292 0.90887 0.0
H1281 H 0.03968 0.22772 0.89857 0.0
H1282 H 0.06925 0.28182 0.91864 0.0
H1283 H 0.07084 0.22759 0.90834 0.0
H1284 H 0.96421 0.31993 0.86675 0.0
H1285 H 0.0207 0.29136 0.85416 0.0
H1286 H 0.967 0.288 0.87215 0.0
H1287 H 0.01697 0.32322 0.84899 0.0
H1288 H 0.07414 0.27724 0.85083 0.0
H1289 H 0.04533 0.24447 0.81429 0.0
H1290 H 0.96906 0.30643 0.93767 0.0
H1291 H 0.01268 0.32946 0.90864 0.0
H1292 H 0.98251 0.20492 0.85823 0.0
H1293 H 0.03571 0.22174 0.86913 0.0
H1294 H 0.9939 0.17615 0.84907 0.0
H1295 H 0.04616 0.19265 0.85999 0.0
H1296 H 0.96873 0.21784 0.9105 0.0
H1297 H 0.95302 0.26934 0.89379 0.0
H1298 H 0.9372 0.20969 0.91438 0.0
H1299 H 0.92176 0.26027 0.89786 0.0
H1300 H 0.0221 0.21241 0.95322 0.0
H1301 H 0.00459 0.17317 0.91614 0.0
H1302 H 0.94167 0.26149 0.82403 0.0
H1303 H 0.93095 0.21315 0.85256 0.0
Li1304 Li 0.51495 0.75327 0.37134 0.0
Li1305 Li 0.49572 0.76744 0.39264 0.0
Li1306 Li 0.50113 0.73529 0.39516 0.0
Li1307 Li 0.48195 0.74763 0.37209 0.0
C1308 C 0.53501 0.75254 0.40313 0.0
N1309 N 0.56889 0.74697 0.41515 0.0
C1310 C 0.54429 0.76588 0.41171 0.0
C1311 C 0.54289 0.73631 0.40087 0.0
C1312 C 0.56144 0.76284 0.41762 0.0
C1313 C 0.56004 0.73375 0.40699 0.0
C1314 C 0.49318 0.78712 0.36407 0.0
C1315 C 0.47491 0.81268 0.36448 0.0
N1316 N 0.4892 0.82285 0.36039 0.0
C1317 C 0.50766 0.79779 0.35973 0.0
C1318 C 0.47663 0.79458 0.36633 0.0
C1319 C 0.50539 0.81583 0.35797 0.0
C1320 C 0.53476 0.74898 0.34026 0.0
N1321 N 0.53496 0.75642 0.35647 0.0
C1322 C 0.56318 0.76951 0.35073 0.0
C1323 C 0.54874 0.76659 0.36183 0.0
C1324 C 0.56337 0.76201 0.33388 0.0
C1325 C 0.54893 0.75154 0.32873 0.0
H1326 H 0.52347 0.74121 0.33622 0.0
H1327 H 0.54841 0.77272 0.37459 0.0
C1328 C 0.47879 0.79152 0.41536 0.0
N1329 N 0.49338 0.78852 0.40553 0.0
C1330 C 0.47732 0.80707 0.42475 0.0
C1331 C 0.50594 0.81608 0.41374 0.0
C1332 C 0.50686 0.80037 0.40461 0.0
C1333 C 0.49105 0.81959 0.42405 0.0
H1334 H 0.46835 0.78179 0.41602 0.0
H1335 H 0.5183 0.79764 0.39667 0.0
C1336 C 0.50609 0.71463 0.36359 0.0
N1337 N 0.51521 0.68192 0.35166 0.0
C1338 C 0.49301 0.70252 0.35883 0.0
C1339 C 0.52382 0.71018 0.36199 0.0
C1340 C 0.49788 0.68603 0.35292 0.0
C1341 C 0.52816 0.69356 0.35601 0.0
C1342 C 0.46163 0.74344 0.40107 0.0
C1343 C 0.45749 0.72693 0.40816 0.0
C1344 C 0.4481 0.755 0.39683 0.0
C1345 C 0.43984 0.72218 0.41071 0.0
C1346 C 0.43061 0.74974 0.39954 0.0
N1347 N 0.42687 0.73358 0.40636 0.0
C1348 C 0.51001 0.72126 0.42807 0.0
C1349 C 0.50283 0.69943 0.40722 0.0
C1350 C 0.51372 0.70852 0.44084 0.0
N1351 N 0.5049 0.71654 0.41158 0.0
C1352 C 0.50645 0.68624 0.41957 0.0
C1353 C 0.51214 0.6907 0.43662 0.0
H1354 H 0.51134 0.73497 0.43125 0.0
H1355 H 0.49845 0.69594 0.39418 0.0
C1356 C 0.4591 0.75398 0.34339 0.0
N1357 N 0.46184 0.7432 0.35749 0.0
C1358 C 0.445 0.75088 0.3319 0.0
C1359 C 0.43664 0.72577 0.34981 0.0
C1360 C 0.45099 0.72927 0.36083 0.0
C1361 C 0.43356 0.73654 0.33497 0.0
H1362 H 0.46806 0.76482 0.34086 0.0
H1363 H 0.45356 0.72071 0.37194 0.0
O1364 O 0.51821 0.75535 0.39725 0.0
O1365 O 0.49521 0.76948 0.36622 0.0
O1366 O 0.50152 0.73089 0.36929 0.0
O1367 O 0.47883 0.7483 0.39845 0.0
H1368 H 0.53835 0.77848 0.41375 0.0
H1369 H 0.53577 0.72572 0.39467 0.0
H1370 H 0.5688 0.77308 0.4242 0.0
H1371 H 0.56628 0.72124 0.40532 0.0
H1372 H 0.46221 0.81865 0.36631 0.0
H1373 H 0.52054 0.79222 0.35791 0.0
H1374 H 0.46528 0.78648 0.36959 0.0
H1375 H 0.5165 0.82427 0.35473 0.0
H1376 H 0.57405 0.77758 0.35531 0.0
H1377 H 0.54835 0.74576 0.31576 0.0
H1378 H 0.46571 0.80912 0.4327 0.0
H1379 H 0.51673 0.82543 0.41259 0.0
H1380 H 0.47925 0.70573 0.35983 0.0
H1381 H 0.53416 0.71948 0.36513 0.0
H1382 H 0.48788 0.6765 0.34932 0.0
H1383 H 0.54183 0.68995 0.35476 0.0
H1384 H 0.4678 0.71786 0.41159 0.0
H1385 H 0.45107 0.76782 0.39136 0.0
H1386 H 0.43643 0.70942 0.41611 0.0
H1387 H 0.42001 0.75851 0.39621 0.0
H1388 H 0.51771 0.71262 0.4539 0.0
H1389 H 0.50514 0.6727 0.41566 0.0
H1390 H 0.4434 0.75937 0.32049 0.0
H1391 H 0.42811 0.7147 0.35288 0.0
Li1392 Li 0.9996 0.76216 0.61836 0.0
Li1393 Li 0.98059 0.74918 0.64144 0.0
Li1394 Li 0.01348 0.74376 0.64141 0.0
Li1395 Li 0.99361 0.72956 0.62015 0.0
C1396 C 0.00491 0.78296 0.64845 0.0
N1397 N 0.0136 0.81712 0.65674 0.0
C1398 C 0.99197 0.79427 0.65448 0.0
C1399 C 0.02232 0.78895 0.6469 0.0
C1400 C 0.99662 0.81152 0.65853 0.0
C1401 C 0.02644 0.80628 0.65109 0.0
C1402 C 0.95979 0.75291 0.61217 0.0
C1403 C 0.92904 0.74457 0.61161 0.0
N1404 N 0.92492 0.761 0.60603 0.0
C1405 C 0.95528 0.76966 0.60625 0.0
C1406 C 0.9466 0.74021 0.6147 0.0
C1407 C 0.93757 0.77351 0.60328 0.0
C1408 C 0.01147 0.77768 0.58689 0.0
N1409 N 0.00357 0.7814 0.60245 0.0
C1410 C 0.00273 0.8118 0.59465 0.0
C1411 C 0.99887 0.79803 0.60636 0.0
C1412 C 0.01135 0.80841 0.57866 0.0
C1413 C 0.01552 0.79101 0.57478 0.0
H1414 H 0.01473 0.7643 0.58392 0.0
H1415 H 0.99211 0.80065 0.61854 0.0
C1416 C 0.9588 0.74241 0.67083 0.0
N1417 N 0.9608 0.75301 0.65642 0.0
C1418 C 0.94511 0.7451 0.68273 0.0
C1419 C 0.9356 0.76949 0.6647 0.0
C1420 C 0.94956 0.7664 0.65321 0.0
C1421 C 0.93334 0.75887 0.67979 0.0
H1422 H 0.96805 0.73202 0.67326 0.0
H1423 H 0.95169 0.775 0.642 0.0
C1424 C 0.03337 0.74202 0.61053 0.0
N1425 N 0.06845 0.74139 0.6009 0.0
C1426 C 0.04082 0.72651 0.60466 0.0
C1427 C 0.04369 0.75727 0.6112 0.0
C1428 C 0.0586 0.72644 0.59995 0.0
C1429 C 0.06141 0.75668 0.60636 0.0
C1430 C 0.98987 0.71003 0.65001 0.0
C1431 C 0.00302 0.69899 0.65639 0.0
C1432 C 0.97285 0.7034 0.64732 0.0
C1433 C 0.99897 0.68137 0.65967 0.0
C1434 C 0.96933 0.6857 0.65074 0.0
N1435 N 0.98236 0.67514 0.65677 0.0
C1436 C 0.03748 0.75139 0.66918 0.0
C1437 C 0.04541 0.72764 0.65115 0.0
C1438 C 0.05301 0.74972 0.67896 0.0
N1439 N 0.03416 0.74062 0.65537 0.0
C1440 C 0.0611 0.72554 0.66051 0.0
C1441 C 0.06517 0.7368 0.67452 0.0
H1442 H 0.02815 0.76138 0.67251 0.0
H1443 H 0.04219 0.71887 0.6405 0.0
C1444 C 0.97808 0.70829 0.59367 0.0
N1445 N 0.99035 0.7088 0.60676 0.0
C1446 C 0.97577 0.69316 0.58367 0.0
C1447 C 0.99869 0.6794 0.60089 0.0
C1448 C 0.00072 0.69484 0.61036 0.0
C1449 C 0.98609 0.67844 0.58734 0.0
H1450 H 0.97017 0.71965 0.59092 0.0
H1451 H 0.01069 0.69575 0.62052 0.0
O1452 O 0.00056 0.76604 0.64438 0.0
O1453 O 0.97705 0.74893 0.61517 0.0
O1454 O 0.016 0.74229 0.61533 0.0
O1455 O 0.99364 0.72727 0.64651 0.0
H1456 H 0.97848 0.78984 0.65592 0.0
H1457 H 0.03258 0.78029 0.6427 0.0
H1458 H 0.98671 0.82044 0.6631 0.0
H1459 H 0.03985 0.8111 0.6499 0.0
H1460 H 0.91869 0.73489 0.61361 0.0
H1461 H 0.96532 0.77961 0.6041 0.0
H1462 H 0.94988 0.72712 0.61898 0.0
H1463 H 0.93387 0.78644 0.59882 0.0
H1464 H 0.99927 0.82499 0.59825 0.0
H1465 H 0.02177 0.78767 0.56245 0.0
H1466 H 0.94379 0.73656 0.69417 0.0
H1467 H 0.92703 0.78045 0.66211 0.0
H1468 H 0.033 0.71462 0.60388 0.0
H1469 H 0.03804 0.76948 0.61525 0.0
H1470 H 0.06457 0.71449 0.59551 0.0
H1471 H 0.06955 0.76838 0.60687 0.0
H1472 H 0.01622 0.70394 0.65869 0.0
H1473 H 0.96248 0.71183 0.64264 0.0
H1474 H 0.00904 0.67264 0.6645 0.0
H1475 H 0.95623 0.68037 0.64862 0.0
H1476 H 0.05563 0.75872 0.68962 0.0
H1477 H 0.06991 0.71515 0.65688 0.0
H1478 H 0.9659 0.6929 0.57334 0.0
H1479 H 0.00712 0.66844 0.60392 0.0
Li1480 Li 0.50113 0.26269 0.11945 0.0
Li1481 Li 0.48155 0.25002 0.14208 0.0
Li1482 Li 0.51337 0.24487 0.14288 0.0
Li1483 Li 0.4943 0.23127 0.12055 0.0
C1484 C 0.5022 0.28494 0.14581 0.0
N1485 N 0.5042 0.32106 0.14549 0.0
C1486 C 0.48711 0.29476 0.14883 0.0
C1487 C 0.51832 0.29348 0.14273 0.0
C1488 C 0.4884 0.31301 0.14861 0.0
C1489 C 0.51905 0.31176 0.14257 0.0
C1490 C 0.46884 0.24501 0.10208 0.0
C1491 C 0.44729 0.22548 0.08923 0.0
N1492 N 0.45173 0.23162 0.07289 0.0
C1493 C 0.47315 0.25118 0.08518 0.0
C1494 C 0.45576 0.23211 0.10416 0.0
C1495 C 0.46435 0.24424 0.07058 0.0
C1496 C 0.52046 0.28251 0.09443 0.0
N1497 N 0.50547 0.28229 0.10419 0.0
C1498 C 0.49731 0.31019 0.09238 0.0
C1499 C 0.49379 0.2956 0.10317 0.0
C1500 C 0.51292 0.31095 0.0824 0.0
C1501 C 0.52447 0.29675 0.08343 0.0
H1502 H 0.5293 0.27157 0.0951 0.0
H1503 H 0.4818 0.29494 0.11085 0.0
C1504 C 0.4644 0.25719 0.17399 0.0
N1505 N 0.46159 0.25428 0.15654 0.0
C1506 C 0.45022 0.26013 0.18523 0.0
C1507 C 0.43055 0.25758 0.16022 0.0
C1508 C 0.44512 0.25451 0.14949 0.0
C1509 C 0.43302 0.26036 0.17837 0.0
H1510 H 0.47769 0.25722 0.17917 0.0
H1511 H 0.44329 0.25235 0.13553 0.0
C1512 C 0.53452 0.23812 0.11608 0.0
N1513 N 0.56924 0.22771 0.11557 0.0
C1514 C 0.53864 0.22081 0.11223 0.0
C1515 C 0.54808 0.25016 0.11959 0.0
C1516 C 0.55627 0.2158 0.11203 0.0
C1517 C 0.56554 0.24463 0.11931 0.0
C1518 C 0.48547 0.22114 0.16082 0.0
C1519 C 0.49339 0.2222 0.17744 0.0
C1520 C 0.46847 0.21405 0.15927 0.0
C1521 C 0.4841 0.21626 0.19229 0.0
C1522 C 0.4596 0.20829 0.17444 0.0
N1523 N 0.46753 0.20951 0.1905 0.0
C1524 C 0.53932 0.25504 0.16779 0.0
C1525 C 0.54176 0.22595 0.15761 0.0
C1526 C 0.55466 0.25328 0.17783 0.0
N1527 N 0.5334 0.24157 0.15772 0.0
C1528 C 0.55732 0.22373 0.16719 0.0
C1529 C 0.56401 0.23758 0.17732 0.0
H1530 H 0.53227 0.26722 0.16784 0.0
H1531 H 0.53654 0.21535 0.14977 0.0
C1532 C 0.49554 0.21165 0.08916 0.0
N1533 N 0.49106 0.21095 0.10652 0.0
C1534 C 0.4938 0.19679 0.0787 0.0
C1535 C 0.48291 0.18077 0.10422 0.0
C1536 C 0.48483 0.19594 0.11416 0.0
C1537 C 0.48752 0.18103 0.08625 0.0
H1538 H 0.5007 0.22372 0.08351 0.0
H1539 H 0.48153 0.1957 0.12802 0.0
O1540 O 0.50117 0.26707 0.14571 0.0
O1541 O 0.47756 0.25137 0.1165 0.0
O1542 O 0.51732 0.24322 0.11659 0.0
O1543 O 0.49423 0.22717 0.14616 0.0
H1544 H 0.47452 0.28838 0.15114 0.0
H1545 H 0.5301 0.28608 0.14029 0.0
H1546 H 0.47682 0.32078 0.15085 0.0
H1547 H 0.53141 0.31854 0.14009 0.0
H1548 H 0.43724 0.2154 0.09063 0.0
H1549 H 0.48329 0.26111 0.08332 0.0
H1550 H 0.45237 0.22709 0.11715 0.0
H1551 H 0.4676 0.24883 0.05741 0.0
H1552 H 0.48805 0.32083 0.09206 0.0
H1553 H 0.53642 0.29653 0.07565 0.0
H1554 H 0.45273 0.2625 0.19908 0.0
H1555 H 0.4175 0.2576 0.15444 0.0
H1556 H 0.52833 0.21128 0.10959 0.0
H1557 H 0.54513 0.26357 0.12273 0.0
H1558 H 0.55964 0.20243 0.10914 0.0
H1559 H 0.57615 0.25377 0.12213 0.0
H1560 H 0.50651 0.22769 0.1789 0.0
H1561 H 0.46208 0.21327 0.14652 0.0
H1562 H 0.49003 0.21708 0.20525 0.0
H1563 H 0.44638 0.20291 0.17345 0.0
H1564 H 0.55944 0.26426 0.18546 0.0
H1565 H 0.56407 0.21135 0.16665 0.0
H1566 H 0.49775 0.19754 0.06499 0.0
H1567 H 0.47784 0.16898 0.11054 0.0
H1568 H 0.21627 0.79186 0.83049 0.0
H1569 H 0.24927 0.79576 0.93071 0.0
H1570 H 0.24238 0.74895 0.85673 0.0
H1571 H 0.21879 0.83614 0.90526 0.0
H1572 H 0.24643 0.77805 0.90413 0.0
H1573 H 0.21661 0.80788 0.85807 0.0
C1574 C 0.22189 0.78568 0.8421 0.0
C1575 C 0.22927 0.76896 0.84123 0.0
C1576 C 0.24031 0.79076 0.9044 0.0
C1577 C 0.23002 0.7875 0.87293 0.0
C1578 C 0.24184 0.80084 0.91961 0.0
C1579 C 0.23434 0.81753 0.92021 0.0
C1580 C 0.23124 0.7974 0.88965 0.0
C1581 C 0.22507 0.82351 0.90531 0.0
C1582 C 0.22219 0.79492 0.85785 0.0
C1583 C 0.23673 0.76187 0.85668 0.0
N1584 N 0.22384 0.81349 0.89066 0.0
N1585 N 0.23696 0.7712 0.87187 0.0
H1586 H 0.00953 0.49176 0.40896 0.0
H1587 H 0.0717 0.54132 0.33885 0.0
H1588 H 0.02488 0.54614 0.41336 0.0
H1589 H 0.05158 0.4887 0.33223 0.0
H1590 H 0.05449 0.54356 0.36596 0.0
H1591 H 0.02463 0.49063 0.38066 0.0
C1592 C 0.01589 0.50355 0.4039 0.0
C1593 C 0.01586 0.5191 0.41361 0.0
C1594 C 0.05381 0.53155 0.35854 0.0
C1595 C 0.03356 0.51776 0.38122 0.0
C1596 C 0.06356 0.53028 0.343 0.0
C1597 C 0.06315 0.51477 0.33323 0.0
C1598 C 0.04359 0.51718 0.36442 0.0
C1599 C 0.05255 0.50082 0.33944 0.0
C1600 C 0.02464 0.50284 0.38776 0.0
C1601 C 0.02471 0.53381 0.40647 0.0
N1602 N 0.04325 0.50235 0.35464 0.0
N1603 N 0.03324 0.53277 0.39075 0.0
H1604 H 0.76156 0.76676 0.8735 0.0
H1605 H 0.77553 0.66905 0.90924 0.0
H1606 H 0.79094 0.72806 0.84524 0.0
H1607 H 0.74402 0.70722 0.93583 0.0
H1608 H 0.78032 0.69 0.88503 0.0
H1609 H 0.75363 0.74458 0.89554 0.0
C1610 C 0.76615 0.75354 0.87176 0.0
C1611 C 0.77699 0.74932 0.85745 0.0
C1612 C 0.77228 0.69376 0.89612 0.0
C1613 C 0.76822 0.72385 0.88296 0.0
C1614 C 0.76961 0.68184 0.90999 0.0
C1615 C 0.75943 0.68641 0.92465 0.0
C1616 C 0.76478 0.71044 0.89692 0.0
C1617 C 0.75183 0.70306 0.92475 0.0
C1618 C 0.76172 0.74089 0.88446 0.0
C1619 C 0.78279 0.732 0.85616 0.0
N1620 N 0.75475 0.71449 0.91116 0.0
N1621 N 0.77841 0.71994 0.86879 0.0
H1622 H 0.00962 0.99457 0.39268 0.0
H1623 H 0.91588 0.96973 0.35056 0.0
H1624 H 0.97914 0.94884 0.40816 0.0
H1625 H 0.9517 0.0081 0.32798 0.0
H1626 H 0.9369 0.96467 0.37456 0.0
H1627 H 0.9865 0.00237 0.37168 0.0
C1628 C 0.99806 0.98618 0.39172 0.0
C1629 C 0.99646 0.9709 0.40211 0.0
C1630 C 0.94012 0.97424 0.36439 0.0
C1631 C 0.96982 0.9799 0.37817 0.0
C1632 C 0.92809 0.97721 0.35075 0.0
C1633 C 0.9321 0.98927 0.33719 0.0
C1634 C 0.95623 0.9835 0.36456 0.0
C1635 C 0.9482 0.99849 0.33802 0.0
C1636 C 0.98484 0.99069 0.37975 0.0
C1637 C 0.98094 0.9608 0.40055 0.0
N1638 N 0.95967 0.9954 0.35144 0.0
N1639 N 0.96829 0.96542 0.38873 0.0
H1640 H 0.20332 0.22204 0.66357 0.0
H1641 H 0.25499 0.20498 0.57378 0.0
H1642 H 0.23902 0.25952 0.6393 0.0
H1643 H 0.2258 0.16457 0.60181 0.0
H1644 H 0.24969 0.22488 0.59803 0.0
H1645 H 0.21159 0.20059 0.6414 0.0
C1646 C 0.21296 0.22572 0.65363 0.0
C1647 C 0.22045 0.24262 0.65327 0.0
C1648 C 0.24452 0.21162 0.59894 0.0
C1649 C 0.22995 0.21817 0.62784 0.0
C1650 C 0.24764 0.20019 0.58511 0.0
C1651 C 0.24083 0.18301 0.58567 0.0
C1652 C 0.23439 0.20596 0.61345 0.0
C1653 C 0.23108 0.17775 0.60062 0.0
C1654 C 0.21773 0.21346 0.64102 0.0
C1655 C 0.23303 0.24661 0.64021 0.0
N1656 N 0.22808 0.1892 0.61386 0.0
N1657 N 0.23727 0.23454 0.62795 0.0
H1658 H 0.51719 0.51001 0.62918 0.0
H1659 H 0.41789 0.52439 0.66069 0.0
H1660 H 0.48218 0.5465 0.6036 0.0
H1661 H 0.45808 0.50146 0.69359 0.0
H1662 H 0.43969 0.52846 0.63707 0.0
H1663 H 0.49395 0.50259 0.6503 0.0
C1664 C 0.50462 0.51646 0.62796 0.0
C1665 C 0.50178 0.52911 0.61469 0.0
C1666 C 0.4437 0.52248 0.64944 0.0
C1667 C 0.47498 0.52043 0.63875 0.0
C1668 C 0.43126 0.52008 0.66287 0.0
C1669 C 0.43624 0.5127 0.67915 0.0
C1670 C 0.46116 0.51724 0.65225 0.0
C1671 C 0.45376 0.50743 0.68133 0.0
C1672 C 0.49134 0.51215 0.64 0.0
C1673 C 0.485 0.53662 0.61351 0.0
N1674 N 0.46558 0.5098 0.66804 0.0
N1675 N 0.47227 0.53224 0.62545 0.0
H1676 H 0.75802 0.24614 0.64579 0.0
H1677 H 0.78252 0.3345 0.59306 0.0
H1678 H 0.80634 0.27538 0.65372 0.0
H1679 H 0.74073 0.29901 0.57745 0.0
H1680 H 0.78909 0.31518 0.61803 0.0
H1681 H 0.74897 0.26786 0.62371 0.0
C1682 C 0.76661 0.25727 0.64307 0.0
C1683 C 0.78301 0.25891 0.65154 0.0
C1684 C 0.77844 0.31167 0.60918 0.0
C1685 C 0.77281 0.28371 0.62617 0.0
C1686 C 0.77473 0.32264 0.59483 0.0
C1687 C 0.76115 0.31832 0.58296 0.0
C1688 C 0.76846 0.29627 0.61178 0.0
C1689 C 0.75123 0.30299 0.58628 0.0
C1690 C 0.7615 0.26958 0.63037 0.0
C1691 C 0.7937 0.27349 0.64734 0.0
N1692 N 0.75513 0.29249 0.60032 0.0
N1693 N 0.78844 0.28529 0.63492 0.0
H1694 H 0.51786 0.96166 0.59132 0.0
H1695 H 0.56463 0.02292 0.66299 0.0
H1696 H 0.52533 0.01746 0.58479 0.0
H1697 H 0.56575 0.96648 0.66555 0.0
H1698 H 0.54808 0.02115 0.63546 0.0
H1699 H 0.53333 0.96315 0.61963 0.0
C1700 C 0.52276 0.97422 0.59579 0.0
C1701 C 0.52025 0.98946 0.5856 0.0
C1702 C 0.55194 0.00914 0.64203 0.0
C1703 C 0.53779 0.99127 0.61812 0.0
C1704 C 0.56149 0.01014 0.65774 0.0
C1705 C 0.56675 0.99482 0.66659 0.0
C1706 C 0.5475 0.99271 0.63508 0.0
C1707 C 0.56187 0.97864 0.6593 0.0
C1708 C 0.53153 0.97506 0.612 0.0
C1709 C 0.52667 0.0054 0.59226 0.0
N1710 N 0.55256 0.97801 0.64396 0.0
N1711 N 0.53513 0.00587 0.60806 0.0
H1712 H 0.85287 0.24324 0.75625 0.0
H1713 H 0.92476 0.20491 0.82299 0.0
H1714 H 0.86279 0.18812 0.76335 0.0
H1715 H 0.91033 0.25937 0.82141 0.0
H1716 H 0.90177 0.19859 0.80144 0.0
H1717 H 0.87344 0.24953 0.78033 0.0
C1718 C 0.85923 0.23244 0.76296 0.0
C1719 C 0.85618 0.21512 0.75763 0.0
C1720 C 0.90355 0.21192 0.80586 0.0
C1721 C 0.87992 0.22226 0.78508 0.0
C1722 C 0.91664 0.21554 0.8183 0.0
C1723 C 0.91956 0.23273 0.82408 0.0
C1724 C 0.89331 0.22558 0.79901 0.0
C1725 C 0.90877 0.24597 0.81716 0.0
C1726 C 0.87105 0.23605 0.77666 0.0
C1727 C 0.86498 0.20169 0.76672 0.0
N1728 N 0.89619 0.24213 0.80495 0.0
N1729 N 0.87649 0.20555 0.77991 0.0
H1730 H 0.516 0.91281 0.48336 0.0
H1731 H 0.46228 0.84051 0.42873 0.0
H1732 H 0.46061 0.91676 0.47123 0.0
H1733 H 0.51735 0.83648 0.44226 0.0
H1734 H 0.46107 0.868 0.44487 0.0
H1735 H 0.51649 0.88452 0.4688 0.0
C1736 C 0.50394 0.90774 0.47759 0.0
C1737 C 0.48827 0.91725 0.47843 0.0
C1738 C 0.47341 0.86108 0.44432 0.0
C1739 C 0.48868 0.8847 0.46182 0.0
C1740 C 0.47409 0.84533 0.43519 0.0
C1741 C 0.48996 0.83617 0.43406 0.0
C1742 C 0.48871 0.86775 0.45242 0.0
C1743 C 0.5049 0.8432 0.44251 0.0
C1744 C 0.5042 0.89153 0.46935 0.0
C1745 C 0.47296 0.90984 0.47101 0.0
N1746 N 0.5039 0.85855 0.45128 0.0
N1747 N 0.47357 0.89405 0.46295 0.0
H1748 H 0.16033 0.27755 0.7743 0.0
H1749 H 0.05724 0.26778 0.79548 0.0
H1750 H 0.11905 0.28903 0.73685 0.0
H1751 H 0.09772 0.26194 0.83511 0.0
H1752 H 0.07998 0.27362 0.7734 0.0
H1753 H 0.13785 0.26984 0.79635 0.0
C1754 C 0.14655 0.27835 0.77069 0.0
C1755 C 0.14156 0.28404 0.75374 0.0
C1756 C 0.08392 0.27104 0.78692 0.0
C1757 C 0.1158 0.27532 0.77888 0.0
C1758 C 0.07093 0.26757 0.79952 0.0
C1759 C 0.07557 0.26433 0.81719 0.0
C1760 C 0.10174 0.27123 0.79195 0.0
C1761 C 0.09353 0.26455 0.82168 0.0
C1762 C 0.13373 0.27405 0.7833 0.0
C1763 C 0.12351 0.28498 0.74983 0.0
N1764 N 0.10597 0.26793 0.80914 0.0
N1765 N 0.11131 0.28067 0.76229 0.0
H1766 H 0.51796 0.59527 0.49996 0.0
H1767 H 0.53909 0.69098 0.46077 0.0
H1768 H 0.55538 0.63143 0.52294 0.0
H1769 H 0.49562 0.65888 0.44262 0.0
H1770 H 0.54619 0.66848 0.48257 0.0
H1771 H 0.51071 0.61748 0.47759 0.0
C1772 C 0.52468 0.60785 0.50026 0.0
C1773 C 0.53723 0.61153 0.51339 0.0
C1774 C 0.53508 0.66635 0.47384 0.0
C1775 C 0.529 0.63697 0.4879 0.0
C1776 C 0.53093 0.67926 0.46143 0.0
C1777 C 0.51665 0.67692 0.44986 0.0
C1778 C 0.52494 0.65086 0.47471 0.0
C1779 C 0.50686 0.66121 0.45112 0.0
C1780 C 0.52047 0.62054 0.48756 0.0
C1781 C 0.54543 0.6281 0.51324 0.0
N1782 N 0.51118 0.64879 0.46332 0.0
N1783 N 0.5412 0.64017 0.5007 0.0
H1784 H 0.83561 0.78454 0.73291 0.0
H1785 H 0.93611 0.75914 0.71577 0.0
H1786 H 0.87669 0.78846 0.77213 0.0
H1787 H 0.89882 0.76742 0.67353 0.0
H1788 H 0.91336 0.76645 0.73709 0.0
H1789 H 0.85755 0.77499 0.7114 0.0
C1790 C 0.84922 0.7833 0.737 0.0
C1791 C 0.85438 0.78741 0.75428 0.0
C1792 C 0.91012 0.76664 0.72316 0.0
C1793 C 0.87945 0.77648 0.72985 0.0
C1794 C 0.92307 0.76233 0.71098 0.0
C1795 C 0.91936 0.76267 0.69283 0.0
C1796 C 0.89325 0.77121 0.7172 0.0
C1797 C 0.90229 0.76717 0.68739 0.0
C1798 C 0.86172 0.77794 0.72472 0.0
C1799 C 0.87219 0.78567 0.75888 0.0
N1800 N 0.88984 0.77125 0.69953 0.0
N1801 N 0.88406 0.78032 0.74676 0.0
H1802 H 0.01442 0.90347 0.51421 0.0
H1803 H 0.0413 0.81209 0.55873 0.0
H1804 H 0.05705 0.87157 0.49604 0.0
H1805 H 0.99239 0.83785 0.57013 0.0
H1806 H 0.0486 0.83534 0.53763 0.0
H1807 H 0.0076 0.88122 0.5369 0.0
C1808 C 0.02239 0.89184 0.51507 0.0
C1809 C 0.03624 0.88929 0.50315 0.0
C1810 C 0.03626 0.83592 0.54474 0.0
C1811 C 0.02854 0.86386 0.52899 0.0
C1812 C 0.03202 0.82257 0.55673 0.0
C1813 C 0.01611 0.82286 0.56615 0.0
C1814 C 0.02458 0.8498 0.54212 0.0
C1815 C 0.00486 0.8371 0.5633 0.0
C1816 C 0.01844 0.87912 0.52794 0.0
C1817 C 0.04609 0.87394 0.50477 0.0
N1818 N 0.0093 0.84998 0.55151 0.0
N1819 N 0.04206 0.86184 0.51743 0.0
H1820 H 0.14747 0.73389 0.75422 0.0
H1821 H 0.09788 0.73086 0.66082 0.0
H1822 H 0.17419 0.73032 0.70418 0.0
H1823 H 0.07119 0.73932 0.71019 0.0
H1824 H 0.12576 0.72879 0.67676 0.0
H1825 H 0.11921 0.73399 0.73861 0.0
C1826 C 0.14739 0.73299 0.73996 0.0
C1827 C 0.16323 0.73216 0.73049 0.0
C1828 C 0.11381 0.73107 0.68413 0.0
C1829 C 0.13095 0.73241 0.71253 0.0
C1830 C 0.09786 0.73214 0.67504 0.0
C1831 C 0.08215 0.73526 0.68417 0.0
C1832 C 0.11412 0.73307 0.70254 0.0
C1833 C 0.083 0.7371 0.70259 0.0
C1834 C 0.13126 0.73316 0.73105 0.0
C1835 C 0.16233 0.73123 0.71201 0.0
N1836 N 0.09871 0.73597 0.71116 0.0
N1837 N 0.14648 0.73139 0.70365 0.0
H1838 H 0.9885 0.60105 0.50495 0.0
H1839 H 0.98386 0.64479 0.59979 0.0
H1840 H 0.97278 0.57267 0.55211 0.0
H1841 H 0.98359 0.67512 0.55142 0.0
H1842 H 0.98158 0.618 0.58254 0.0
H1843 H 0.98814 0.62822 0.52164 0.0
C1844 C 0.98481 0.6005 0.51875 0.0
C1845 C 0.98077 0.58443 0.52711 0.0
C1846 C 0.98192 0.63052 0.57569 0.0
C1847 C 0.9807 0.61553 0.54637 0.0
C1848 C 0.98332 0.64579 0.58552 0.0
C1849 C 0.98396 0.66218 0.57701 0.0
C1850 C 0.98139 0.6316 0.55717 0.0
C1851 C 0.98301 0.66274 0.5585 0.0
C1852 C 0.9847 0.61603 0.52828 0.0
C1853 C 0.97637 0.58462 0.54513 0.0
N1854 N 0.98192 0.64766 0.54918 0.0
N1855 N 0.97657 0.59987 0.55415 0.0
H1856 H 0.7527 0.86765 0.19074 0.0
H1857 H 0.81137 0.91353 0.26541 0.0
H1858 H 0.7564 0.84775 0.24417 0.0
H1859 H 0.80883 0.93151 0.21125 0.0
H1860 H 0.79202 0.88885 0.25789 0.0
H1861 H 0.77408 0.8905 0.19795 0.0
C1862 C 0.75817 0.86793 0.20395 0.0
C1863 C 0.75273 0.85568 0.21685 0.0
C1864 C 0.79573 0.89818 0.24765 0.0
C1865 C 0.77706 0.88217 0.22533 0.0
C1866 C 0.80685 0.91224 0.25191 0.0
C1867 C 0.81167 0.92469 0.23896 0.0
C1868 C 0.78939 0.89655 0.2303 0.0
C1869 C 0.80523 0.92243 0.22174 0.0
C1870 C 0.7703 0.8811 0.20811 0.0
C1871 C 0.76003 0.85702 0.23385 0.0
N1872 N 0.79442 0.90868 0.21794 0.0
N1873 N 0.77179 0.87005 0.23761 0.0
H1874 H 0.77823 0.16715 0.29385 0.0
H1875 H 0.80387 0.08303 0.23804 0.0
H1876 H 0.75822 0.15668 0.24159 0.0
H1877 H 0.81973 0.09074 0.29218 0.0
H1878 H 0.78659 0.10967 0.23935 0.0
H1879 H 0.79293 0.13891 0.29382 0.0
C1880 C 0.77675 0.15885 0.28244 0.0
C1881 C 0.76702 0.16438 0.26766 0.0
C1882 C 0.79379 0.1055 0.25097 0.0
C1883 C 0.78408 0.1321 0.26743 0.0
C1884 C 0.8036 0.09021 0.25027 0.0
C1885 C 0.81333 0.0846 0.26501 0.0
C1886 C 0.79372 0.11535 0.26651 0.0
C1887 C 0.81268 0.09468 0.28039 0.0
C1888 C 0.78525 0.14276 0.28239 0.0
C1889 C 0.76582 0.15313 0.25316 0.0
N1890 N 0.8031 0.10957 0.28072 0.0
N1891 N 0.77431 0.13759 0.25338 0.0
H1892 H 0.39716 0.9997 0.9705 0.0
H1893 H 0.34873 0.91089 0.00175 0.0
H1894 H 0.42311 0.95706 0.99733 0.0
H1895 H 0.32128 0.95392 0.97726 0.0
H1896 H 0.37617 0.92765 0.99961 0.0
H1897 H 0.36926 0.98331 0.97247 0.0
C1898 C 0.397 0.98693 0.97684 0.0
C1899 C 0.41256 0.97973 0.98368 0.0
C1900 C 0.36417 0.93347 0.99469 0.0
C1901 C 0.38071 0.96086 0.98587 0.0
C1902 C 0.34849 0.92384 0.99581 0.0
C1903 C 0.33267 0.93096 0.98958 0.0
C1904 C 0.36414 0.95039 0.98727 0.0
C1905 C 0.33314 0.94797 0.98235 0.0
C1906 C 0.38108 0.97755 0.97789 0.0
C1907 C 0.41156 0.96304 0.99158 0.0
N1908 N 0.34863 0.95709 0.98134 0.0
N1909 N 0.39595 0.95421 0.99245 0.0
H1910 H 0.233 0.34787 0.26736 0.0
H1911 H 0.19264 0.44034 0.29365 0.0
H1912 H 0.25086 0.37866 0.31149 0.0
H1913 H 0.17574 0.4114 0.2479 0.0
H1914 H 0.21356 0.41736 0.30063 0.0
H1915 H 0.21146 0.37047 0.26024 0.0
C1916 C 0.23242 0.35937 0.27554 0.0
C1917 C 0.24375 0.36131 0.2901 0.0
C1918 C 0.20529 0.416 0.28906 0.0
C1919 C 0.21905 0.38717 0.28208 0.0
C1920 C 0.1934 0.4292 0.28499 0.0
C1921 C 0.18246 0.42788 0.27009 0.0
C1922 C 0.20632 0.4013 0.27817 0.0
C1923 C 0.1838 0.41291 0.2596 0.0
C1924 C 0.22007 0.37224 0.27151 0.0
C1925 C 0.24224 0.37642 0.30033 0.0
N1926 N 0.19554 0.40023 0.26381 0.0
N1927 N 0.23017 0.38874 0.29612 0.0
H1928 H 0.09381 0.01012 0.4892 0.0
H1929 H 0.1895 0.04952 0.46628 0.0
H1930 H 0.12922 0.98806 0.45117 0.0
H1931 H 0.1577 0.0685 0.50903 0.0
H1932 H 0.16671 0.02782 0.45979 0.0
H1933 H 0.11612 0.03265 0.49576 0.0
C1934 C 0.10624 0.01004 0.48221 0.0
C1935 C 0.1097 0.99711 0.4697 0.0
C1936 C 0.16469 0.0367 0.47061 0.0
C1937 C 0.13524 0.02278 0.47714 0.0
C1938 C 0.17777 0.04906 0.4744 0.0
C1939 C 0.17562 0.0608 0.48833 0.0
C1940 C 0.14922 0.03603 0.48076 0.0
C1941 C 0.15989 0.05982 0.49808 0.0
C1942 C 0.11899 0.02284 0.48601 0.0
C1943 C 0.12608 0.99757 0.46112 0.0
N1944 N 0.1473 0.04762 0.49414 0.0
N1945 N 0.13819 0.01018 0.46498 0.0
H1946 H 0.76836 0.12842 0.731 0.0
H1947 H 0.66671 0.09936 0.73188 0.0
H1948 H 0.72709 0.1603 0.70899 0.0
H1949 H 0.70954 0.06393 0.74196 0.0
H1950 H 0.68821 0.12282 0.72616 0.0
H1951 H 0.74646 0.10579 0.73829 0.0
C1952 C 0.75465 0.13073 0.72786 0.0
C1953 C 0.74954 0.14628 0.71938 0.0
C1954 C 0.69287 0.10991 0.72966 0.0
C1955 C 0.7244 0.12033 0.72754 0.0
C1956 C 0.68061 0.09646 0.73284 0.0
C1957 C 0.68626 0.07956 0.73741 0.0
C1958 C 0.71094 0.10651 0.73114 0.0
C1959 C 0.70448 0.07676 0.73877 0.0
C1960 C 0.74217 0.11775 0.7319 0.0
C1961 C 0.73162 0.14844 0.71538 0.0
N1962 N 0.71613 0.09007 0.73566 0.0
N1963 N 0.71969 0.13561 0.71951 0.0
H1964 H 0.4286 0.05022 0.50104 0.0
H1965 H 0.32472 0.04796 0.5196 0.0
H1966 H 0.40051 0.00396 0.51917 0.0
H1967 H 0.35339 0.09357 0.50073 0.0
H1968 H 0.35229 0.03171 0.52027 0.0
H1969 H 0.40108 0.06627 0.50119 0.0
C1970 C 0.41661 0.04338 0.50493 0.0
C1971 C 0.41688 0.02566 0.50999 0.0
C1972 C 0.35254 0.04528 0.516 0.0
C1973 C 0.38524 0.0441 0.51044 0.0
C1974 C 0.33682 0.0546 0.5157 0.0
C1975 C 0.33671 0.07215 0.51003 0.0
C1976 C 0.36829 0.05358 0.51062 0.0
C1977 C 0.35277 0.07999 0.50493 0.0
C1978 C 0.40089 0.0526 0.50513 0.0
C1979 C 0.40096 0.01763 0.51529 0.0
N1980 N 0.36787 0.07066 0.50534 0.0
N1981 N 0.38578 0.0269 0.51534 0.0
H1982 H 0.62712 0.52256 0.52455 0.0
H1983 H 0.65145 0.42123 0.52028 0.0
H1984 H 0.59542 0.48187 0.54927 0.0
H1985 H 0.68924 0.46318 0.51213 0.0
H1986 H 0.62882 0.44294 0.52648 0.0
H1987 H 0.64808 0.50051 0.51543 0.0
C1988 C 0.62454 0.509 0.5281 0.0
C1989 C 0.60954 0.50415 0.53794 0.0
C1990 C 0.64206 0.44736 0.52329 0.0
C1991 C 0.63342 0.47876 0.5272 0.0
C1992 C 0.65493 0.43501 0.51967 0.0
C1993 C 0.67225 0.44044 0.51579 0.0
C1994 C 0.64649 0.46526 0.52277 0.0
C1995 C 0.6761 0.45844 0.51529 0.0
C1996 C 0.6365 0.49641 0.52281 0.0
C1997 C 0.6067 0.48627 0.54164 0.0
N1998 N 0.66332 0.4702 0.51871 0.0
N1999 N 0.61857 0.47423 0.53633 0.0
H2000 H 0.72535 0.25239 0.35194 0.0
H2001 H 0.74274 0.34423 0.3992 0.0
H2002 H 0.74591 0.29843 0.32524 0.0
H2003 H 0.73043 0.29657 0.42794 0.0
H2004 H 0.742 0.32791 0.37171 0.0
H2005 H 0.72522 0.2686 0.37967 0.0
C2006 C 0.72977 0.26592 0.3519 0.0
C2007 C 0.73571 0.27406 0.33626 0.0
C2008 C 0.73945 0.321 0.38401 0.0
C2009 C 0.73563 0.29265 0.36791 0.0
C2010 C 0.73975 0.33034 0.39971 0.0
C2011 C 0.73659 0.32177 0.4159 0.0
C2012 C 0.73588 0.30292 0.38442 0.0
C2013 C 0.73309 0.30368 0.41577 0.0
C2014 C 0.72978 0.27513 0.36774 0.0
C2015 C 0.74145 0.29157 0.33701 0.0
N2016 N 0.73278 0.29486 0.40027 0.0
N2017 N 0.74122 0.30027 0.35254 0.0
H2018 H 0.49756 0.01143 0.89998 0.0
H2019 H 0.58963 0.02302 0.85034 0.0
H2020 H 0.54359 0.03536 0.92362 0.0
H2021 H 0.54128 0.01015 0.82312 0.0
H2022 H 0.57291 0.02708 0.87746 0.0
H2023 H 0.51307 0.01073 0.87174 0.0
C2024 C 0.51083 0.01674 0.89922 0.0
C2025 C 0.5193 0.02334 0.9143 0.0
C2026 C 0.56592 0.02346 0.86555 0.0
C2027 C 0.53724 0.02227 0.88203 0.0
C2028 C 0.57547 0.02104 0.85009 0.0
C2029 C 0.56684 0.01614 0.83449 0.0
C2030 C 0.54757 0.02079 0.86551 0.0
C2031 C 0.54844 0.01401 0.83485 0.0
C2032 C 0.51972 0.01624 0.88309 0.0
C2033 C 0.53663 0.0298 0.91249 0.0
N2034 N 0.53942 0.0162 0.85016 0.0
N2035 N 0.54504 0.02898 0.89672 0.0
H2036 H 0.25732 0.26105 0.36351 0.0
H2037 H 0.29236 0.1793 0.41983 0.0
H2038 H 0.30903 0.23909 0.35746 0.0
H2039 H 0.24006 0.20008 0.42528 0.0
H2040 H 0.29818 0.20041 0.39611 0.0
H2041 H 0.25021 0.23811 0.38521 0.0
C2042 C 0.26713 0.25131 0.3666 0.0
C2043 C 0.28385 0.25208 0.3587 0.0
C2044 C 0.2854 0.20033 0.40244 0.0
C2045 C 0.27585 0.22588 0.38371 0.0
C2046 C 0.28202 0.18818 0.41593 0.0
C2047 C 0.26568 0.18788 0.4246 0.0
C2048 C 0.27238 0.21234 0.39753 0.0
C2049 C 0.25293 0.19997 0.41915 0.0
C2050 C 0.26309 0.23827 0.37908 0.0
C2051 C 0.29609 0.23921 0.36342 0.0
N2052 N 0.25656 0.21172 0.406 0.0
N2053 N 0.29187 0.22671 0.37563 0.0
H2054 H 0.50081 0.49531 0.9031 0.0
H2055 H 0.4206 0.46197 0.84304 0.0
H2056 H 0.48485 0.44105 0.8989 0.0
H2057 H 0.44584 0.51244 0.83577 0.0
H2058 H 0.4413 0.45544 0.86689 0.0
H2059 H 0.47816 0.50303 0.88147 0.0
C2060 C 0.49258 0.48501 0.89769 0.0
C2061 C 0.49486 0.46746 0.90288 0.0
C2062 C 0.44228 0.46797 0.86012 0.0
C2063 C 0.46871 0.47631 0.8783 0.0
C2064 C 0.43039 0.47175 0.84659 0.0
C2065 C 0.43153 0.48776 0.83739 0.0
C2066 C 0.45534 0.48033 0.86461 0.0
C2067 C 0.44464 0.49986 0.84241 0.0
C2068 C 0.4796 0.48946 0.88539 0.0
C2069 C 0.48349 0.45477 0.89561 0.0
N2070 N 0.45604 0.4959 0.85569 0.0
N2071 N 0.47096 0.45944 0.8837 0.0
H2072 H 0.68646 0.73142 0.15219 0.0
H2073 H 0.76005 0.69541 0.08681 0.0
H2074 H 0.73909 0.7532 0.14849 0.0
H2075 H 0.70716 0.67422 0.09029 0.0
H2076 H 0.75324 0.71554 0.11062 0.0
H2077 H 0.69446 0.70913 0.13091 0.0
C2078 C 0.69972 0.73149 0.14693 0.0
C2079 C 0.71208 0.74429 0.15204 0.0
C2080 C 0.74315 0.70643 0.10624 0.0
C2081 C 0.72137 0.71874 0.12768 0.0
C2082 C 0.747 0.69498 0.09257 0.0
C2083 C 0.73414 0.68314 0.08646 0.0
C2084 C 0.72628 0.70609 0.11384 0.0
C2085 C 0.71755 0.68299 0.09466 0.0
C2086 C 0.7043 0.71872 0.13482 0.0
C2087 C 0.72916 0.74353 0.14502 0.0
N2088 N 0.71409 0.69435 0.10784 0.0
N2089 N 0.73326 0.73106 0.13311 0.0
H2090 H 0.01604 0.00979 0.12852 0.0
H2091 H 0.91931 0.03124 0.16358 0.0
H2092 H 0.98338 0.05001 0.10573 0.0
H2093 H 0.95619 0.99905 0.19215 0.0
H2094 H 0.9412 0.03556 0.1402 0.0
H2095 H 0.99282 0.00305 0.14989 0.0
C2096 C 0.00399 0.01721 0.12797 0.0
C2097 C 0.00178 0.03063 0.11536 0.0
C2098 C 0.94449 0.02752 0.15157 0.0
C2099 C 0.97501 0.0228 0.13974 0.0
C2100 C 0.93196 0.02497 0.16487 0.0
C2101 C 0.93596 0.01483 0.17989 0.0
C2102 C 0.96109 0.01976 0.15321 0.0
C2103 C 0.95264 0.00717 0.18094 0.0
C2104 C 0.9907 0.0133 0.14016 0.0
C2105 C 0.98567 0.03948 0.11508 0.0
N2106 N 0.96458 0.00979 0.16779 0.0
N2107 N 0.97295 0.03547 0.12713 0.0
H2108 H 0.26026 0.7462 0.145 0.0
H2109 H 0.29373 0.82179 0.08014 0.0
H2110 H 0.31218 0.76975 0.14838 0.0
H2111 H 0.23836 0.81103 0.08877 0.0
H2112 H 0.30077 0.80187 0.10431 0.0
H2113 H 0.25187 0.76902 0.12385 0.0
C2114 C 0.26984 0.75627 0.14152 0.0
C2115 C 0.28704 0.75589 0.14842 0.0
C2116 C 0.28707 0.80396 0.101 0.0
C2117 C 0.27758 0.78184 0.12388 0.0
C2118 C 0.28299 0.81546 0.08722 0.0
C2119 C 0.26537 0.81824 0.08232 0.0
C2120 C 0.27349 0.7949 0.10988 0.0
C2121 C 0.25214 0.80915 0.09181 0.0
C2122 C 0.26505 0.76924 0.12934 0.0
C2123 C 0.29891 0.76921 0.14314 0.0
N2124 N 0.25648 0.79781 0.10505 0.0
N2125 N 0.29401 0.78151 0.13109 0.0
H2126 H 0.03985 0.46575 0.07884 0.0
H2127 H 0.04393 0.50918 0.17455 0.0
H2128 H 0.00321 0.50457 0.09645 0.0
H2129 H 0.0837 0.47488 0.15443 0.0
H2130 H 0.02734 0.50569 0.14707 0.0
H2131 H 0.05467 0.4671 0.10743 0.0
C2132 C 0.03491 0.47457 0.08871 0.0
C2133 C 0.02032 0.48515 0.08514 0.0
C2134 C 0.03968 0.49889 0.14868 0.0
C2135 C 0.03717 0.48665 0.11804 0.0
C2136 C 0.04911 0.5008 0.16441 0.0
C2137 C 0.06528 0.49238 0.16677 0.0
C2138 C 0.04642 0.48841 0.13523 0.0
C2139 C 0.07143 0.48184 0.15309 0.0
C2140 C 0.04335 0.47528 0.10507 0.0
C2141 C 0.01431 0.49605 0.09862 0.0
N2142 N 0.06201 0.48017 0.13792 0.0
N2143 N 0.0228 0.49658 0.11442 0.0
H2144 H 0.35634 0.74083 0.25063 0.0
H2145 H 0.42148 0.70423 0.32455 0.0
H2146 H 0.3571 0.68676 0.2677 0.0
H2147 H 0.41237 0.75942 0.31655 0.0
H2148 H 0.39819 0.69771 0.30341 0.0
H2149 H 0.37688 0.74811 0.27443 0.0
C2150 C 0.36063 0.73051 0.25948 0.0
C2151 C 0.35506 0.71311 0.25701 0.0
C2152 C 0.4012 0.71125 0.30635 0.0
C2153 C 0.37886 0.72134 0.28409 0.0
C2154 C 0.41447 0.71501 0.31854 0.0
C2155 C 0.41897 0.73244 0.32244 0.0
C2156 C 0.39239 0.72498 0.29779 0.0
C2157 C 0.4096 0.7458 0.31381 0.0
C2158 C 0.37246 0.73468 0.27301 0.0
C2159 C 0.3613 0.70028 0.2688 0.0
N2160 N 0.39682 0.74179 0.30184 0.0
N2161 N 0.37294 0.70463 0.28172 0.0
H2162 H 0.97385 0.42849 0.95079 0.0
H2163 H 0.9866 0.32524 0.95987 0.0
H2164 H 0.99121 0.40367 0.99919 0.0
H2165 H 0.98909 0.35313 0.9101 0.0
H2166 H 0.98356 0.35324 0.97506 0.0
H2167 H 0.97478 0.40023 0.93622 0.0
C2168 C 0.97792 0.41715 0.95838 0.0
C2169 C 0.98265 0.41861 0.97626 0.0
C2170 C 0.98475 0.3532 0.96081 0.0
C2171 C 0.98333 0.38605 0.95964 0.0
C2172 C 0.98639 0.33726 0.95215 0.0
C2173 C 0.98817 0.33692 0.93373 0.0
C2174 C 0.98463 0.36885 0.95094 0.0
C2175 C 0.98794 0.35285 0.92435 0.0
C2176 C 0.97835 0.40099 0.95004 0.0
C2177 C 0.98729 0.40325 0.98546 0.0
N2178 N 0.98615 0.36817 0.93305 0.0
N2179 N 0.98753 0.38763 0.97704 0.0
H2180 H 0.64388 0.81265 0.26994 0.0
H2181 H 0.57921 0.73932 0.31109 0.0
H2182 H 0.64045 0.7598 0.25066 0.0
H2183 H 0.58136 0.79293 0.32838 0.0
H2184 H 0.60282 0.74597 0.29004 0.0
H2185 H 0.62234 0.80503 0.29272 0.0
C2186 C 0.63859 0.79943 0.27049 0.0
C2187 C 0.64389 0.78689 0.25826 0.0
C2188 C 0.59817 0.75626 0.2985 0.0
C2189 C 0.61923 0.77801 0.28443 0.0
C2190 C 0.58462 0.75249 0.31046 0.0
C2191 C 0.57823 0.76559 0.32152 0.0
C2192 C 0.60539 0.77326 0.29753 0.0
C2193 C 0.58598 0.78235 0.3203 0.0
C2194 C 0.62633 0.79506 0.28356 0.0
C2195 C 0.63684 0.76986 0.25987 0.0
N2196 N 0.59908 0.7857 0.30849 0.0
N2197 N 0.6248 0.76595 0.27264 0.0
H2198 H 0.01776 0.09573 0.00065 0.0
H2199 H 0.04248 0.18957 0.95888 0.0
H2200 H 0.05827 0.13002 0.02121 0.0
H2201 H 0.99613 0.15998 0.94372 0.0
H2202 H 0.04946 0.16686 0.98051 0.0
H2203 H 0.01078 0.11799 0.97823 0.0
C2204 C 0.02522 0.1079 0.00041 0.0
C2205 C 0.03855 0.11106 0.01288 0.0
C2206 C 0.03775 0.16533 0.97247 0.0
C2207 C 0.03064 0.13656 0.98733 0.0
C2208 C 0.03368 0.17837 0.96016 0.0
C2209 C 0.0186 0.1768 0.94949 0.0
C2210 C 0.02674 0.1505 0.97414 0.0
C2211 C 0.00798 0.16171 0.95151 0.0
C2212 C 0.02117 0.12063 0.98768 0.0
C2213 C 0.04771 0.12713 0.01204 0.0
N2214 N 0.01224 0.14915 0.9636 0.0
N2215 N 0.04361 0.13923 0.99949 0.0
H2216 H 0.34347 0.30707 0.22927 0.0
H2217 H 0.42653 0.24666 0.2113 0.0
H2218 H 0.3599 0.26571 0.26461 0.0
H2219 H 0.40498 0.28183 0.17215 0.0
H2220 H 0.40218 0.25351 0.23102 0.0
H2221 H 0.3658 0.29804 0.20808 0.0
C2222 C 0.35174 0.29605 0.23253 0.0
C2223 C 0.34985 0.28716 0.24876 0.0
C2224 C 0.40271 0.25966 0.21808 0.0
C2225 C 0.37546 0.27678 0.2246 0.0
C2226 C 0.41666 0.25583 0.20686 0.0
C2227 C 0.41783 0.26375 0.1901 0.0
C2228 C 0.38988 0.27165 0.21258 0.0
C2229 C 0.40452 0.27534 0.18492 0.0
C2230 C 0.36443 0.29085 0.22041 0.0
C2231 C 0.36078 0.27284 0.25221 0.0
N2232 N 0.39118 0.27904 0.19617 0.0
N2233 N 0.3732 0.26819 0.24031 0.0
H2234 H 0.50976 0.39639 0.00587 0.0
H2235 H 0.54512 0.32668 0.0768 0.0
H2236 H 0.56477 0.38549 0.0144 0.0
H2237 H 0.49041 0.33033 0.06168 0.0
H2238 H 0.5522 0.35069 0.05646 0.0
H2239 H 0.50211 0.37491 0.02897 0.0
C2240 C 0.52023 0.38962 0.01274 0.0
C2241 C 0.53792 0.39264 0.00814 0.0
C2242 C 0.53864 0.34628 0.05762 0.0
C2243 C 0.52928 0.36801 0.03444 0.0
C2244 C 0.53458 0.33249 0.06917 0.0
C2245 C 0.51716 0.32629 0.07084 0.0
C2246 C 0.52518 0.35406 0.04765 0.0
C2247 C 0.50401 0.3347 0.06093 0.0
C2248 C 0.51585 0.37728 0.02583 0.0
C2249 C 0.55095 0.38338 0.01735 0.0
N2250 N 0.5083 0.34809 0.0497 0.0
N2251 N 0.54636 0.37147 0.03002 0.0
H2252 H 0.64811 0.23394 0.25517 0.0
H2253 H 0.5951 0.22564 0.16443 0.0
H2254 H 0.67344 0.23513 0.20426 0.0
H2255 H 0.57152 0.24584 0.21164 0.0
H2256 H 0.62345 0.22409 0.17985 0.0
H2257 H 0.6193 0.23345 0.24033 0.0
C2258 C 0.64757 0.23398 0.24088 0.0
C2259 C 0.66311 0.23465 0.23089 0.0
C2260 C 0.61205 0.22881 0.18684 0.0
C2261 C 0.63039 0.23397 0.21392 0.0
C2262 C 0.59589 0.22959 0.1781 0.0
C2263 C 0.581 0.23589 0.1868 0.0
C2264 C 0.61329 0.23413 0.20448 0.0
C2265 C 0.58275 0.24103 0.20445 0.0
C2266 C 0.63118 0.23379 0.23245 0.0
C2267 C 0.66175 0.23478 0.21241 0.0
N2268 N 0.5986 0.23997 0.21276 0.0
N2269 N 0.64567 0.23437 0.20452 0.0
H2270 H 0.4927 0.07417 0.05051 0.0
H2271 H 0.47626 0.17745 0.05194 0.0
H2272 H 0.4723 0.10314 0.00588 0.0
H2273 H 0.49607 0.14766 0.09628 0.0
H2274 H 0.47476 0.15058 0.03471 0.0
H2275 H 0.49379 0.10109 0.06741 0.0
C2276 C 0.48831 0.08617 0.04429 0.0
C2277 C 0.4823 0.08634 0.02675 0.0
C2278 C 0.47941 0.14993 0.04822 0.0
C2279 C 0.48376 0.11738 0.04603 0.0
C2280 C 0.48035 0.16528 0.05804 0.0
C2281 C 0.48626 0.16483 0.07562 0.0
C2282 C 0.48447 0.134 0.056 0.0
C2283 C 0.49117 0.14863 0.08289 0.0
C2284 C 0.48905 0.10159 0.05393 0.0
C2285 C 0.47716 0.1024 0.0193 0.0
N2286 N 0.49018 0.1339 0.07305 0.0
N2287 N 0.47799 0.11727 0.02899 0.0
H2288 H 0.27185 0.34694 0.70283 0.0
H2289 H 0.28914 0.43323 0.75931 0.0
H2290 H 0.23533 0.36575 0.74162 0.0
H2291 H 0.32864 0.40971 0.72663 0.0
H2292 H 0.26915 0.40873 0.75293 0.0
H2293 H 0.29284 0.36987 0.71137 0.0
C2294 C 0.26827 0.35589 0.71318 0.0
C2295 C 0.25179 0.35448 0.72147 0.0
C2296 C 0.28222 0.40888 0.74723 0.0
C2297 C 0.27574 0.38078 0.73132 0.0
C2298 C 0.2936 0.42291 0.75078 0.0
C2299 C 0.31056 0.42355 0.74344 0.0
C2300 C 0.28778 0.39544 0.73612 0.0
C2301 C 0.31574 0.40969 0.73269 0.0
C2302 C 0.28029 0.36892 0.7181 0.0
C2303 C 0.24794 0.36627 0.73497 0.0
N2304 N 0.30436 0.39627 0.72926 0.0
N2305 N 0.25977 0.37901 0.73938 0.0
H2306 H 0.26521 0.66074 0.73813 0.0
H2307 H 0.31525 0.58592 0.79263 0.0
H2308 H 0.2729 0.6619 0.79457 0.0
H2309 H 0.31095 0.58706 0.7358 0.0
H2310 H 0.29839 0.61288 0.79381 0.0
H2311 H 0.28047 0.63285 0.73725 0.0
C2312 C 0.27014 0.65516 0.75034 0.0
C2313 C 0.26786 0.66377 0.76644 0.0
C2314 C 0.3011 0.60721 0.78109 0.0
C2315 C 0.28523 0.63168 0.76554 0.0
C2316 C 0.31082 0.59185 0.78039 0.0
C2317 C 0.31462 0.58421 0.76408 0.0
C2318 C 0.2951 0.61504 0.76536 0.0
C2319 C 0.3082 0.59235 0.74868 0.0
C2320 C 0.27879 0.63917 0.74984 0.0
C2321 C 0.27422 0.65569 0.78189 0.0
N2322 N 0.29882 0.60732 0.74971 0.0
N2323 N 0.28268 0.64015 0.78104 0.0
H2324 H 0.89853 0.49875 0.49854 0.0
H2325 H 0.84885 0.4074 0.48127 0.0
H2326 H 0.92388 0.4532 0.47768 0.0
H2327 H 0.82276 0.45311 0.50079 0.0
H2328 H 0.87635 0.42422 0.47947 0.0
H2329 H 0.87049 0.48262 0.49876 0.0
C2330 C 0.89819 0.48541 0.49389 0.0
C2331 C 0.91364 0.47731 0.48817 0.0
C2332 C 0.86461 0.43061 0.48411 0.0
C2333 C 0.88158 0.4587 0.48856 0.0
C2334 C 0.84891 0.42097 0.48523 0.0
C2335 C 0.83346 0.42882 0.49127 0.0
C2336 C 0.86495 0.44825 0.4891 0.0
C2337 C 0.83429 0.44656 0.49591 0.0
C2338 C 0.88219 0.47617 0.49411 0.0
C2339 C 0.91241 0.4599 0.4825 0.0
N2340 N 0.84978 0.45565 0.4948 0.0
N2341 N 0.89669 0.45119 0.48287 0.0
H2342 H 0.73616 0.86266 0.81706 0.0
H2343 H 0.68544 0.91437 0.74022 0.0
H2344 H 0.74905 0.85774 0.76188 0.0
H2345 H 0.67943 0.92459 0.79582 0.0
H2346 H 0.70681 0.89169 0.74756 0.0
H2347 H 0.71318 0.88329 0.80915 0.0
C2348 C 0.7342 0.86596 0.80326 0.0
C2349 C 0.74473 0.8586 0.79014 0.0
C2350 C 0.70073 0.89886 0.75813 0.0
C2351 C 0.7182 0.88215 0.78094 0.0
C2352 C 0.68859 0.91188 0.75396 0.0
C2353 C 0.68058 0.92147 0.7674 0.0
C2354 C 0.70488 0.89537 0.77589 0.0
C2355 C 0.685 0.91741 0.78498 0.0
C2356 C 0.721 0.8777 0.79874 0.0
C2357 C 0.74122 0.86303 0.77244 0.0
N2358 N 0.69685 0.90473 0.78868 0.0
N2359 N 0.72831 0.8746 0.76836 0.0
H2360 H 0.63037 0.47646 0.97778 0.0
H2361 H 0.65368 0.5777 0.99247 0.0
H2362 H 0.59347 0.51784 0.9673 0.0
H2363 H 0.69254 0.53708 0.99058 0.0
H2364 H 0.63058 0.55573 0.98689 0.0
H2365 H 0.65243 0.49834 0.98608 0.0
C2366 C 0.6269 0.49015 0.97717 0.0
C2367 C 0.61006 0.49529 0.9716 0.0
C2368 C 0.64416 0.55164 0.98773 0.0
C2369 C 0.63529 0.52046 0.98139 0.0
C2370 C 0.65733 0.56414 0.99101 0.0
C2371 C 0.67506 0.55921 0.99189 0.0
C2372 C 0.64875 0.53406 0.98551 0.0
C2373 C 0.67906 0.54149 0.98976 0.0
C2374 C 0.6395 0.50264 0.982 0.0
C2375 C 0.60623 0.51324 0.97158 0.0
N2376 N 0.66603 0.52957 0.98668 0.0
N2377 N 0.61876 0.52518 0.97632 0.0
H2378 H 0.26923 0.62108 0.21737 0.0
H2379 H 0.16681 0.59968 0.22617 0.0
H2380 H 0.23031 0.66166 0.21583 0.0
H2381 H 0.20689 0.56589 0.24738 0.0
H2382 H 0.18958 0.62198 0.21983 0.0
H2383 H 0.24626 0.5999 0.22594 0.0
C2384 C 0.25581 0.6255 0.21885 0.0
C2385 C 0.2516 0.64309 0.21585 0.0
C2386 C 0.19334 0.60972 0.22599 0.0
C2387 C 0.22527 0.61896 0.22553 0.0
C2388 C 0.1804 0.59699 0.22952 0.0
C2389 C 0.18501 0.58095 0.23732 0.0
C2390 C 0.21103 0.60623 0.23 0.0
C2391 C 0.20277 0.57814 0.2415 0.0
C2392 C 0.24275 0.61345 0.22383 0.0
C2393 C 0.23407 0.6482 0.21811 0.0
N2394 N 0.21515 0.59059 0.23764 0.0
N2395 N 0.22148 0.63615 0.22265 0.0
H2396 H 0.90157 0.50702 1.00024 0.0
H2397 H 0.85226 0.59532 0.02465 0.0
H2398 H 0.92576 0.54887 0.02989 0.0
H2399 H 0.8256 0.5503 0.00279 0.0
H2400 H 0.87953 0.57872 0.02594 0.0
H2401 H 0.87373 0.52269 0.00063 0.0
C2402 C 0.90102 0.51942 0.00697 0.0
C2403 C 0.91611 0.52664 0.01498 0.0
C2404 C 0.86771 0.57244 0.02092 0.0
C2405 C 0.88428 0.5448 0.01523 0.0
C2406 C 0.85216 0.58194 0.02008 0.0
C2407 C 0.83664 0.5742 0.01355 0.0
C2408 C 0.86781 0.55507 0.01505 0.0
C2409 C 0.83722 0.55673 0.00806 0.0
C2410 C 0.88512 0.52841 0.0071 0.0
C2411 C 0.9146 0.54291 0.02325 0.0
N2412 N 0.85257 0.54779 0.00884 0.0
N2413 N 0.89902 0.55145 0.0231 0.0
H2414 H 0.12408 0.02023 0.02073 0.0
H2415 H 0.15207 0.91967 0.02305 0.0
H2416 H 0.09575 0.98063 0.05076 0.0
H2417 H 0.18712 0.96209 0.00791 0.0
H2418 H 0.12896 0.94099 0.02892 0.0
H2419 H 0.14495 0.99813 0.01155 0.0
C2420 C 0.12222 0.0069 0.02542 0.0
C2421 C 0.10823 0.00238 0.03678 0.0
C2422 C 0.1417 0.9456 0.02426 0.0
C2423 C 0.13201 0.97691 0.02603 0.0
C2424 C 0.15484 0.93345 0.02083 0.0
C2425 C 0.17155 0.93916 0.01511 0.0
C2426 C 0.14525 0.96353 0.02172 0.0
C2427 C 0.17449 0.95716 0.01254 0.0
C2428 C 0.13412 0.99427 0.02009 0.0
C2429 C 0.10625 0.98474 0.04195 0.0
N2430 N 0.16148 0.9687 0.01585 0.0
N2431 N 0.11807 0.97267 0.03661 0.0
loop_
_geom_bond_atom_site_label_1
_geom_bond_atom_site_label_2
_geom_bond_distance
_geom_bond_site_symmetry_2
_ccdc_geom_bond_type
P0 O11 1.490 . S
P0 C14 1.812 . S
P0 C20 1.803 . S
P0 C26 1.819 . S
H1 C15 0.941 . S
H2 C16 0.939 . S
H3 C18 0.940 1_655 S
H4 C19 0.940 . S
H5 C21 0.939 . S
H6 C22 0.942 . S
H7 C24 0.940 . S
H8 C25 0.939 . S
H9 C27 0.941 . S
H10 C31 0.939 . S
O11 P0 1.490 . S
H12 C28 0.939 . S
H13 C30 0.940 1_556 S
C14 P0 1.812 . S
C14 C15 1.389 . S
C14 C19 1.391 . S
C15 H1 0.941 . S
C15 C14 1.389 . S
C15 C16 1.397 . S
C16 H2 0.939 . S
C16 C15 1.397 . S
C16 C17 1.378 . S
C17 C16 1.378 . S
C17 C18 1.378 . S
C18 H3 0.940 1_455 S
C18 C17 1.378 . S
C18 C19 1.396 . S
C19 H4 0.940 . S
C19 C14 1.391 . S
C19 C18 1.396 . S
C20 P0 1.803 . S
C20 C21 1.378 . S
C20 C25 1.400 . S
C21 H5 0.939 . S
C21 C20 1.378 . S
C21 C22 1.361 . S
C22 H6 0.942 . S
C22 C21 1.361 . S
C22 C23 1.376 . S
C23 C22 1.376 . S
C23 C24 1.403 1_545 S
C24 H7 0.940 . S
C24 C23 1.403 1_565 S
C24 C25 1.389 1_565 S
C25 H8 0.939 . S
C25 C20 1.400 . S
C25 C24 1.389 1_545 S
C26 P0 1.819 . S
C26 C27 1.391 . S
C26 C31 1.391 . S
C27 H9 0.941 . S
C27 C26 1.391 . S
C27 C28 1.396 . S
C28 H12 0.939 . S
C28 C27 1.396 . S
C28 C29 1.397 . S
C29 C28 1.397 . S
C29 C30 1.385 . S
C30 H13 0.940 1_554 S
C30 C29 1.385 . S
C30 C31 1.388 . S
C31 H10 0.939 . S
C31 C26 1.391 . S
C31 C30 1.388 . S
P32 O43 1.490 . S
P32 C46 1.812 . S
P32 C52 1.803 . S
P32 C58 1.819 . S
H33 C47 0.941 . S
H34 C48 0.939 . S
H35 C50 0.940 . S
H36 C51 0.940 . S
H37 C53 0.939 . S
H38 C54 0.942 . S
H39 C56 0.940 . S
H40 C57 0.939 . S
H41 C59 0.941 . S
H42 C63 0.939 . S
O43 P32 1.490 . S
H44 C60 0.939 . S
H45 C62 0.940 . S
C46 P32 1.812 . S
C46 C47 1.389 . S
C46 C51 1.391 . S
C47 H33 0.941 . S
C47 C46 1.389 . S
C47 C48 1.397 . S
C48 H34 0.939 . S
C48 C47 1.397 . S
C48 C49 1.378 . S
C49 C48 1.378 . S
C49 C50 1.378 . S
C50 H35 0.940 . S
C50 C49 1.378 . S
C50 C51 1.396 . S
C51 H36 0.940 . S
C51 C46 1.391 . S
C51 C50 1.396 . S
C52 P32 1.803 . S
C52 C53 1.378 . S
C52 C57 1.400 . S
C53 H37 0.939 . S
C53 C52 1.378 . S
C53 C54 1.361 . S
C54 H38 0.942 . S
C54 C53 1.361 . S
C54 C55 1.369 . S
C55 C54 1.369 . S
C55 C56 1.404 . S
C56 H39 0.940 . S
C56 C55 1.404 . S
C56 C57 1.389 . S
C57 H40 0.939 . S
C57 C52 1.400 . S
C57 C56 1.389 . S
C58 P32 1.819 . S
C58 C59 1.391 . S
C58 C63 1.391 . S
C59 H41 0.941 . S
C59 C58 1.391 . S
C59 C60 1.396 . S
C60 H44 0.939 . S
C60 C59 1.396 . S
C60 C61 1.397 . S
C61 C60 1.397 . S
C61 C62 1.385 . S
C62 H45 0.940 . S
C62 C61 1.385 . S
C62 C63 1.388 . S
C63 H42 0.939 . S
C63 C58 1.391 . S
C63 C62 1.388 . S
P64 O75 1.490 . S
P64 C78 1.812 . S
P64 C84 1.803 . S
P64 C90 1.819 . S
H65 C79 0.941 . S
H66 C80 0.939 . S
H67 C82 0.940 . S
H68 C83 0.940 . S
H69 C85 0.939 . S
H70 C86 0.942 . S
H71 C88 0.940 . S
H72 C89 0.939 . S
H73 C91 0.941 . S
H74 C95 0.939 . S
O75 P64 1.490 . S
H76 C92 0.939 . S
H77 C94 0.940 . S
C78 P64 1.812 . S
C78 C79 1.389 1_554 S
C78 C83 1.391 . S
C79 H65 0.941 . S
C79 C78 1.389 1_556 S
C79 C80 1.397 . S
C80 H66 0.939 . S
C80 C79 1.397 . S
C80 C81 1.378 . S
C81 C80 1.378 . S
C81 C82 1.378 1_556 S
C82 H67 0.940 . S
C82 C81 1.378 1_554 S
C82 C83 1.396 . S
C83 H68 0.940 . S
C83 C78 1.391 . S
C83 C82 1.396 . S
C84 P64 1.803 . S
C84 C85 1.378 . S
C84 C89 1.400 . S
C85 H69 0.939 . S
C85 C84 1.378 . S
C85 C86 1.361 . S
C86 H70 0.942 . S
C86 C85 1.361 . S
C86 C87 1.369 . S
C87 C86 1.369 . S
C87 C88 1.404 . S
C88 H71 0.940 . S
C88 C87 1.404 . S
C88 C89 1.389 . S
C89 H72 0.939 . S
C89 C84 1.400 . S
C89 C88 1.389 . S
C90 P64 1.819 . S
C90 C91 1.391 1_655 S
C90 C95 1.391 . S
C91 H73 0.941 . S
C91 C90 1.391 1_455 S
C91 C92 1.396 . S
C92 H76 0.939 . S
C92 C91 1.396 . S
C92 C93 1.397 . S
C93 C92 1.397 . S
C93 C94 1.385 1_455 S
C94 H77 0.940 . S
C94 C93 1.385 1_655 S
C94 C95 1.388 . S
C95 H74 0.939 . S
C95 C90 1.391 . S
C95 C94 1.388 . S
P96 O107 1.490 . S
P96 C110 1.812 . S
P96 C116 1.803 . S
P96 C122 1.819 . S
H97 C111 0.941 . S
H98 C112 0.939 . S
H99 C114 0.940 . S
H100 C115 0.940 . S
H101 C117 0.939 . S
H102 C118 0.942 . S
H103 C120 0.940 . S
H104 C121 0.939 . S
H105 C123 0.941 . S
H106 C127 0.939 . S
O107 P96 1.490 . S
H108 C124 0.939 . S
H109 C126 0.940 . S
C110 P96 1.812 . S
C110 C111 1.389 . S
C110 C115 1.391 . S
C111 H97 0.941 . S
C111 C110 1.389 . S
C111 C112 1.397 . S
C112 H98 0.939 . S
C112 C111 1.397 . S
C112 C113 1.378 . S
C113 C112 1.378 . S
C113 C114 1.378 . S
C114 H99 0.940 . S
C114 C113 1.378 . S
C114 C115 1.396 . S
C115 H100 0.940 . S
C115 C110 1.391 . S
C115 C114 1.396 . S
C116 P96 1.803 . S
C116 C117 1.378 . S
C116 C121 1.400 . S
C117 H101 0.939 . S
C117 C116 1.378 . S
C117 C118 1.361 . S
C118 H102 0.942 . S
C118 C117 1.361 . S
C118 C119 1.369 . S
C119 C118 1.369 . S
C119 C120 1.404 . S
C120 H103 0.940 . S
C120 C119 1.404 . S
C120 C121 1.389 . S
C121 H104 0.939 . S
C121 C116 1.400 . S
C121 C120 1.389 . S
C122 P96 1.819 . S
C122 C123 1.391 . S
C122 C127 1.391 . S
C123 H105 0.941 . S
C123 C122 1.391 . S
C123 C124 1.396 . S
C124 H108 0.939 . S
C124 C123 1.396 . S
C124 C125 1.397 . S
C125 C124 1.397 . S
C125 C126 1.385 . S
C126 H109 0.940 . S
C126 C125 1.385 . S
C126 C127 1.388 . S
C127 H106 0.939 . S
C127 C122 1.391 . S
C127 C126 1.388 . S
P128 O139 1.490 . S
P128 C142 1.812 . S
P128 C148 1.803 . S
P128 C154 1.819 . S
H129 C143 0.941 . S
H130 C144 0.939 . S
H131 C146 0.940 . S
H132 C147 0.940 . S
H133 C149 0.939 . S
H134 C150 0.942 . S
H135 C152 0.940 . S
H136 C153 0.939 . S
H137 C155 0.941 . S
H138 C159 0.939 . S
O139 P128 1.490 . S
H140 C156 0.939 . S
H141 C158 0.940 . S
C142 P128 1.812 . S
C142 C143 1.389 . S
C142 C147 1.391 . S
C143 H129 0.941 . S
C143 C142 1.389 . S
C143 C144 1.397 . S
C144 H130 0.939 . S
C144 C143 1.397 . S
C144 C145 1.378 1_565 S
C145 C144 1.378 1_545 S
C145 C146 1.378 . S
C146 H131 0.940 . S
C146 C145 1.378 . S
C146 C147 1.396 1_545 S
C147 H132 0.940 . S
C147 C142 1.391 . S
C147 C146 1.396 1_565 S
C148 P128 1.803 . S
C148 C149 1.378 . S
C148 C153 1.400 . S
C149 H133 0.939 . S
C149 C148 1.378 . S
C149 C150 1.361 . S
C150 H134 0.942 . S
C150 C149 1.361 . S
C150 C151 1.369 . S
C151 C150 1.369 . S
C151 C152 1.404 . S
C152 H135 0.940 . S
C152 C151 1.404 . S
C152 C153 1.389 . S
C153 H136 0.939 . S
C153 C148 1.400 . S
C153 C152 1.389 . S
C154 P128 1.819 . S
C154 C155 1.391 . S
C154 C159 1.391 . S
C155 H137 0.941 . S
C155 C154 1.391 . S
C155 C156 1.396 . S
C156 H140 0.939 . S
C156 C155 1.396 . S
C156 C157 1.450 . S
C157 C156 1.450 . S
C157 C158 1.377 1_455 S
C158 H141 0.940 . S
C158 C157 1.377 1_655 S
C158 C159 1.388 1_655 S
C159 H138 0.939 . S
C159 C154 1.391 . S
C159 C158 1.388 1_455 S
P160 O171 1.490 . S
P160 C174 1.812 . S
P160 C180 1.803 . S
P160 C186 1.819 . S
H161 C175 0.941 . S
H162 C176 0.939 . S
H163 C178 0.940 . S
H164 C179 0.940 . S
H165 C181 0.939 . S
H166 C182 0.942 . S
H167 C184 0.940 . S
H168 C185 0.939 . S
H169 C187 0.941 . S
H170 C191 0.939 . S
O171 P160 1.490 . S
H172 C188 0.939 . S
H173 C190 0.940 . S
C174 P160 1.812 . S
C174 C175 1.389 . S
C174 C179 1.391 . S
C175 H161 0.941 . S
C175 C174 1.389 . S
C175 C176 1.397 . S
C176 H162 0.939 . S
C176 C175 1.397 . S
C176 C177 1.378 . S
C177 C176 1.378 . S
C177 C178 1.378 . S
C178 H163 0.940 . S
C178 C177 1.378 . S
C178 C179 1.396 . S
C179 H164 0.940 . S
C179 C174 1.391 . S
C179 C178 1.396 . S
C180 P160 1.803 . S
C180 C181 1.378 . S
C180 C185 1.400 . S
C181 H165 0.939 . S
C181 C180 1.378 . S
C181 C182 1.361 . S
C182 H166 0.942 . S
C182 C181 1.361 . S
C182 C183 1.369 . S
C183 C182 1.369 . S
C183 C184 1.404 . S
C184 H167 0.940 . S
C184 C183 1.404 . S
C184 C185 1.389 . S
C185 H168 0.939 . S
C185 C180 1.400 . S
C185 C184 1.389 . S
C186 P160 1.819 . S
C186 C187 1.391 . S
C186 C191 1.391 . S
C187 H169 0.941 . S
C187 C186 1.391 . S
C187 C188 1.396 . S
C188 H172 0.939 . S
C188 C187 1.396 . S
C188 C189 1.397 . S
C189 C188 1.397 . S
C189 C190 1.385 . S
C190 H173 0.940 . S
C190 C189 1.385 . S
C190 C191 1.388 . S
C191 H170 0.939 . S
C191 C186 1.391 . S
C191 C190 1.388 . S
P192 O203 1.490 . S
P192 C206 1.812 . S
P192 C212 1.803 . S
P192 C218 1.819 . S
H193 C207 0.941 . S
H194 C208 0.939 . S
H195 C210 0.940 . S
H196 C211 0.940 . S
H197 C213 0.939 . S
H198 C214 0.942 . S
H199 C216 0.940 . S
H200 C217 0.939 . S
H201 C219 0.941 . S
H202 C223 0.939 . S
O203 P192 1.490 . S
H204 C220 0.939 . S
H205 C222 0.940 . S
C206 P192 1.812 . S
C206 C207 1.389 1_655 S
C206 C211 1.391 . S
C207 H193 0.941 . S
C207 C206 1.389 1_455 S
C207 C208 1.397 . S
C208 H194 0.939 . S
C208 C207 1.397 . S
C208 C209 1.378 . S
C209 C208 1.378 . S
C209 C210 1.378 1_455 S
C210 H195 0.940 . S
C210 C209 1.378 1_655 S
C210 C211 1.396 . S
C211 H196 0.940 . S
C211 C206 1.391 . S
C211 C210 1.396 . S
C212 P192 1.803 . S
C212 C213 1.378 . S
C212 C217 1.400 . S
C213 H197 0.939 . S
C213 C212 1.378 . S
C213 C214 1.361 . S
C214 H198 0.942 . S
C214 C213 1.361 . S
C214 C215 1.369 . S
C215 C214 1.369 . S
C215 C216 1.404 . S
C216 H199 0.940 . S
C216 C215 1.404 . S
C216 C217 1.389 . S
C217 H200 0.939 . S
C217 C212 1.400 . S
C217 C216 1.389 . S
C218 P192 1.819 . S
C218 C219 1.391 . S
C218 C223 1.391 . S
C219 H201 0.941 . S
C219 C218 1.391 . S
C219 C220 1.396 . S
C220 H204 0.939 . S
C220 C219 1.396 . S
C220 C221 1.397 . S
C221 C220 1.397 . S
C221 C222 1.385 . S
C222 H205 0.940 . S
C222 C221 1.385 . S
C222 C223 1.388 . S
C223 H202 0.939 . S
C223 C218 1.391 . S
C223 C222 1.388 . S
P224 O235 1.490 . S
P224 C238 1.812 . S
P224 C244 1.803 . S
P224 C250 1.819 . S
H225 C239 0.941 . S
H226 C240 0.939 . S
H227 C242 0.940 . S
H228 C243 0.940 . S
H229 C245 0.939 . S
H230 C246 0.942 . S
H231 C248 0.940 . S
H232 C249 0.939 . S
H233 C251 0.941 . S
H234 C255 0.939 . S
O235 P224 1.490 . S
H236 C252 0.939 . S
H237 C254 0.940 . S
C238 P224 1.812 . S
C238 C239 1.389 . S
C238 C243 1.391 . S
C239 H225 0.941 . S
C239 C238 1.389 . S
C239 C240 1.397 . S
C240 H226 0.939 . S
C240 C239 1.397 . S
C240 C241 1.378 . S
C241 C240 1.378 . S
C241 C242 1.378 . S
C242 H227 0.940 . S
C242 C241 1.378 . S
C242 C243 1.396 . S
C243 H228 0.940 . S
C243 C238 1.391 . S
C243 C242 1.396 . S
C244 P224 1.803 . S
C244 C245 1.378 . S
C244 C249 1.400 . S
C245 H229 0.939 . S
C245 C244 1.378 . S
C245 C246 1.361 . S
C246 H230 0.942 . S
C246 C245 1.361 . S
C246 C247 1.369 . S
C247 C246 1.369 . S
C247 C248 1.404 . S
C248 H231 0.940 . S
C248 C247 1.404 . S
C248 C249 1.389 . S
C249 H232 0.939 . S
C249 C244 1.400 . S
C249 C248 1.389 . S
C250 P224 1.819 . S
C250 C251 1.391 . S
C250 C255 1.391 . S
C251 H233 0.941 . S
C251 C250 1.391 . S
C251 C252 1.396 . S
C252 H236 0.939 . S
C252 C251 1.396 . S
C252 C253 1.397 . S
C253 C252 1.397 . S
C253 C254 1.385 . S
C254 H237 0.940 . S
C254 C253 1.385 . S
C254 C255 1.388 . S
C255 H234 0.939 . S
C255 C250 1.391 . S
C255 C254 1.388 . S
P256 O267 1.490 . S
P256 C270 1.812 . S
P256 C276 1.803 . S
P256 C282 1.819 . S
H257 C271 0.941 . S
H258 C272 0.939 . S
H259 C274 0.940 . S
H260 C275 0.940 . S
H261 C277 0.939 . S
H262 C278 0.942 . S
H263 C280 0.940 . S
H264 C281 0.939 . S
H265 C283 0.941 . S
H266 C287 0.939 . S
O267 P256 1.490 . S
H268 C284 0.939 . S
H269 C286 0.940 . S
C270 P256 1.812 . S
C270 C271 1.389 . S
C270 C275 1.391 . S
C271 H257 0.941 . S
C271 C270 1.389 . S
C271 C272 1.397 . S
C272 H258 0.939 . S
C272 C271 1.397 . S
C272 C273 1.378 . S
C273 C272 1.378 . S
C273 C274 1.378 . S
C274 H259 0.940 . S
C274 C273 1.378 . S
C274 C275 1.396 . S
C275 H260 0.940 . S
C275 C270 1.391 . S
C275 C274 1.396 . S
C276 P256 1.803 . S
C276 C277 1.378 . S
C276 C281 1.400 . S
C277 H261 0.939 . S
C277 C276 1.378 . S
C277 C278 1.361 . S
C278 H262 0.942 . S
C278 C277 1.361 . S
C278 C279 1.369 . S
C279 C278 1.369 . S
C279 C280 1.404 . S
C280 H263 0.940 . S
C280 C279 1.404 . S
C280 C281 1.389 . S
C281 H264 0.939 . S
C281 C276 1.400 . S
C281 C280 1.389 . S
C282 P256 1.819 . S
C282 C283 1.391 . S
C282 C287 1.391 . S
C283 H265 0.941 . S
C283 C282 1.391 . S
C283 C284 1.396 . S
C284 H268 0.939 . S
C284 C283 1.396 . S
C284 C285 1.397 . S
C285 C284 1.397 . S
C285 C286 1.385 . S
C286 H269 0.940 . S
C286 C285 1.385 . S
C286 C287 1.388 . S
C287 H266 0.939 . S
C287 C282 1.391 . S
C287 C286 1.388 . S
P288 O299 1.490 . S
P288 C302 1.812 . S
P288 C308 1.803 . S
P288 C314 1.819 . S
H289 C303 0.941 . S
H290 C304 0.939 . S
H291 C306 0.940 . S
H292 C307 0.940 . S
H293 C309 0.939 . S
H294 C310 0.942 . S
H295 C312 0.940 . S
H296 C313 0.939 . S
H297 C315 0.941 . S
H298 C319 0.939 . S
O299 P288 1.490 . S
H300 C316 0.939 . S
H301 C318 0.940 . S
C302 P288 1.812 . S
C302 C303 1.389 . S
C302 C307 1.391 . S
C303 H289 0.941 . S
C303 C302 1.389 . S
C303 C304 1.397 . S
C304 H290 0.939 . S
C304 C303 1.397 . S
C304 C305 1.378 . S
C305 C304 1.378 . S
C305 C306 1.378 . S
C306 H291 0.940 . S
C306 C305 1.378 . S
C306 C307 1.396 . S
C307 H292 0.940 . S
C307 C302 1.391 . S
C307 C306 1.396 . S
C308 P288 1.803 . S
C308 C309 1.378 1_565 S
C308 C313 1.400 . S
C309 H293 0.939 . S
C309 C308 1.378 1_545 S
C309 C310 1.361 . S
C310 H294 0.942 . S
C310 C309 1.361 . S
C310 C311 1.369 . S
C311 C310 1.369 . S
C311 C312 1.404 1_545 S
C312 H295 0.940 . S
C312 C311 1.404 1_565 S
C312 C313 1.389 . S
C313 H296 0.939 . S
C313 C308 1.400 . S
C313 C312 1.389 . S
C314 P288 1.819 . S
C314 C315 1.391 . S
C314 C319 1.391 . S
C315 H297 0.941 . S
C315 C314 1.391 . S
C315 C316 1.396 . S
C316 H300 0.939 . S
C316 C315 1.396 . S
C316 C317 1.397 . S
C317 C316 1.397 . S
C317 C318 1.385 . S
C318 H301 0.940 . S
C318 C317 1.385 . S
C318 C319 1.388 . S
C319 H298 0.939 . S
C319 C314 1.391 . S
C319 C318 1.388 . S
P320 O331 1.490 . S
P320 C334 1.812 . S
P320 C340 1.803 . S
P320 C346 1.819 . S
H321 C335 0.941 . S
H322 C336 0.939 . S
H323 C338 0.940 . S
H324 C339 0.940 . S
H325 C341 0.939 . S
H326 C342 0.942 . S
H327 C344 0.940 . S
H328 C345 0.939 . S
H329 C347 0.941 . S
H330 C351 0.939 . S
O331 P320 1.490 . S
H332 C348 0.939 . S
H333 C350 0.940 . S
C334 P320 1.812 . S
C334 C335 1.389 . S
C334 C339 1.391 . S
C335 H321 0.941 . S
C335 C334 1.389 . S
C335 C336 1.397 . S
C336 H322 0.939 . S
C336 C335 1.397 . S
C336 C337 1.378 . S
C337 C336 1.378 . S
C337 C338 1.378 . S
C338 H323 0.940 . S
C338 C337 1.378 . S
C338 C339 1.396 . S
C339 H324 0.940 . S
C339 C334 1.391 . S
C339 C338 1.396 . S
C340 P320 1.803 . S
C340 C341 1.378 . S
C340 C345 1.400 . S
C341 H325 0.939 . S
C341 C340 1.378 . S
C341 C342 1.361 . S
C342 H326 0.942 . S
C342 C341 1.361 . S
C342 C343 1.369 . S
C343 C342 1.369 . S
C343 C344 1.404 . S
C344 H327 0.940 . S
C344 C343 1.404 . S
C344 C345 1.389 . S
C345 H328 0.939 . S
C345 C340 1.400 . S
C345 C344 1.389 . S
C346 P320 1.819 . S
C346 C347 1.391 . S
C346 C351 1.391 . S
C347 H329 0.941 . S
C347 C346 1.391 . S
C347 C348 1.396 . S
C348 H332 0.939 . S
C348 C347 1.396 . S
C348 C349 1.397 . S
C349 C348 1.397 . S
C349 C350 1.385 . S
C350 H333 0.940 . S
C350 C349 1.385 . S
C350 C351 1.388 . S
C351 H330 0.939 . S
C351 C346 1.391 . S
C351 C350 1.388 . S
P352 O363 1.490 . S
P352 C366 1.812 . S
P352 C372 1.803 . S
P352 C378 1.819 . S
H353 C367 0.941 . S
H354 C368 0.939 . S
H355 C370 0.940 . S
H356 C371 0.940 . S
H357 C373 0.939 . S
H358 C374 0.942 . S
H359 C376 0.940 . S
H360 C377 0.939 . S
H361 C379 0.941 . S
H362 C383 0.939 . S
O363 P352 1.490 . S
H364 C380 0.939 . S
H365 C382 0.940 . S
C366 P352 1.812 . S
C366 C367 1.389 . S
C366 C371 1.391 . S
C367 H353 0.941 . S
C367 C366 1.389 . S
C367 C368 1.397 . S
C368 H354 0.939 . S
C368 C367 1.397 . S
C368 C369 1.378 . S
C369 C368 1.378 . S
C369 C370 1.378 . S
C370 H355 0.940 . S
C370 C369 1.378 . S
C370 C371 1.396 . S
C371 H356 0.940 . S
C371 C366 1.391 . S
C371 C370 1.396 . S
C372 P352 1.803 . S
C372 C373 1.378 . S
C372 C377 1.400 . S
C373 H357 0.939 . S
C373 C372 1.378 . S
C373 C374 1.361 . S
C374 H358 0.942 . S
C374 C373 1.361 . S
C374 C375 1.369 . S
C375 C374 1.369 . S
C375 C376 1.404 . S
C376 H359 0.940 . S
C376 C375 1.404 . S
C376 C377 1.389 . S
C377 H360 0.939 . S
C377 C372 1.400 . S
C377 C376 1.389 . S
C378 P352 1.819 . S
C378 C379 1.391 . S
C378 C383 1.391 . S
C379 H361 0.941 . S
C379 C378 1.391 . S
C379 C380 1.396 . S
C380 H364 0.939 . S
C380 C379 1.396 . S
C380 C381 1.397 . S
C381 C380 1.397 . S
C381 C382 1.385 . S
C382 H365 0.940 . S
C382 C381 1.385 . S
C382 C383 1.388 . S
C383 H362 0.939 . S
C383 C378 1.391 . S
C383 C382 1.388 . S
P384 O395 1.490 . S
P384 C398 1.812 . S
P384 C404 1.803 . S
P384 C410 1.819 . S
H385 C399 0.941 . S
H386 C400 0.939 . S
H387 C402 0.940 . S
H388 C403 0.940 . S
H389 C405 0.939 . S
H390 C406 0.942 . S
H391 C408 0.940 . S
H392 C409 0.939 . S
H393 C411 0.941 . S
H394 C415 0.939 . S
O395 P384 1.490 . S
H396 C412 0.939 . S
H397 C414 0.940 . S
C398 P384 1.812 . S
C398 C399 1.389 . S
C398 C403 1.391 . S
C399 H385 0.941 . S
C399 C398 1.389 . S
C399 C400 1.397 . S
C400 H386 0.939 . S
C400 C399 1.397 . S
C400 C401 1.378 . S
C401 C400 1.378 . S
C401 C402 1.378 . S
C402 H387 0.940 . S
C402 C401 1.378 . S
C402 C403 1.396 . S
C403 H388 0.940 . S
C403 C398 1.391 . S
C403 C402 1.396 . S
C404 P384 1.803 . S
C404 C405 1.378 . S
C404 C409 1.400 . S
C405 H389 0.939 . S
C405 C404 1.378 . S
C405 C406 1.361 . S
C406 H390 0.942 . S
C406 C405 1.361 . S
C406 C407 1.369 . S
C407 C406 1.369 . S
C407 C408 1.404 . S
C408 H391 0.940 . S
C408 C407 1.404 . S
C408 C409 1.389 . S
C409 H392 0.939 . S
C409 C404 1.400 . S
C409 C408 1.389 . S
C410 P384 1.819 . S
C410 C411 1.391 . S
C410 C415 1.391 . S
C411 H393 0.941 . S
C411 C410 1.391 . S
C411 C412 1.396 . S
C412 H396 0.939 . S
C412 C411 1.396 . S
C412 C413 1.397 . S
C413 C412 1.397 . S
C413 C414 1.385 . S
C414 H397 0.940 . S
C414 C413 1.385 . S
C414 C415 1.388 . S
C415 H394 0.939 . S
C415 C410 1.391 . S
C415 C414 1.388 . S
P416 O427 1.490 . S
P416 C430 1.812 . S
P416 C436 1.803 . S
P416 C442 1.819 . S
H417 C431 0.941 . S
H418 C432 0.939 . S
H419 C434 0.940 . S
H420 C435 0.940 . S
H421 C437 0.939 . S
H422 C438 0.942 . S
H423 C440 0.940 . S
H424 C441 0.939 . S
H425 C443 0.941 . S
H426 C447 0.939 . S
O427 P416 1.490 . S
H428 C444 0.939 . S
H429 C446 0.940 . S
C430 P416 1.812 . S
C430 C431 1.389 . S
C430 C435 1.391 . S
C431 H417 0.941 . S
C431 C430 1.389 . S
C431 C432 1.397 . S
C432 H418 0.939 . S
C432 C431 1.397 . S
C432 C433 1.378 . S
C433 C432 1.378 . S
C433 C434 1.378 . S
C434 H419 0.940 . S
C434 C433 1.378 . S
C434 C435 1.396 . S
C435 H420 0.940 . S
C435 C430 1.391 . S
C435 C434 1.396 . S
C436 P416 1.803 . S
C436 C437 1.378 . S
C436 C441 1.400 . S
C437 H421 0.939 . S
C437 C436 1.378 . S
C437 C438 1.361 . S
C438 H422 0.942 . S
C438 C437 1.361 . S
C438 C439 1.369 1_556 S
C439 C438 1.369 1_554 S
C439 C440 1.404 . S
C440 H423 0.940 . S
C440 C439 1.404 . S
C440 C441 1.389 1_554 S
C441 H424 0.939 . S
C441 C436 1.400 . S
C441 C440 1.389 1_556 S
C442 P416 1.819 . S
C442 C443 1.391 . S
C442 C447 1.391 . S
C443 H425 0.941 . S
C443 C442 1.391 . S
C443 C444 1.396 . S
C444 H428 0.939 . S
C444 C443 1.396 . S
C444 C445 1.397 . S
C445 C444 1.397 . S
C445 C446 1.385 . S
C446 H429 0.940 . S
C446 C445 1.385 . S
C446 C447 1.388 . S
C447 H426 0.939 . S
C447 C442 1.391 . S
C447 C446 1.388 . S
P448 O459 1.490 . S
P448 C462 1.812 . S
P448 C468 1.803 . S
P448 C474 1.819 . S
H449 C463 0.941 . S
H450 C464 0.939 . S
H451 C466 0.940 . S
H452 C467 0.940 . S
H453 C469 0.939 . S
H454 C470 0.942 . S
H455 C472 0.940 . S
H456 C473 0.939 . S
H457 C475 0.941 . S
H458 C479 0.939 . S
O459 P448 1.490 . S
H460 C476 0.939 . S
H461 C478 0.940 . S
C462 P448 1.812 . S
C462 C463 1.389 . S
C462 C467 1.391 . S
C463 H449 0.941 . S
C463 C462 1.389 . S
C463 C464 1.397 . S
C464 H450 0.939 . S
C464 C463 1.397 . S
C464 C465 1.378 . S
C465 C464 1.378 . S
C465 C466 1.378 . S
C466 H451 0.940 . S
C466 C465 1.378 . S
C466 C467 1.396 . S
C467 H452 0.940 . S
C467 C462 1.391 . S
C467 C466 1.396 . S
C468 P448 1.803 . S
C468 C469 1.378 . S
C468 C473 1.400 . S
C469 H453 0.939 . S
C469 C468 1.378 . S
C469 C470 1.361 . S
C470 H454 0.942 . S
C470 C469 1.361 . S
C470 C471 1.369 . S
C471 C470 1.369 . S
C471 C472 1.404 . S
C472 H455 0.940 . S
C472 C471 1.404 . S
C472 C473 1.389 . S
C473 H456 0.939 . S
C473 C468 1.400 . S
C473 C472 1.389 . S
C474 P448 1.819 . S
C474 C475 1.391 . S
C474 C479 1.391 . S
C475 H457 0.941 . S
C475 C474 1.391 . S
C475 C476 1.396 . S
C476 H460 0.939 . S
C476 C475 1.396 . S
C476 C477 1.397 . S
C477 C476 1.397 . S
C477 C478 1.385 . S
C478 H461 0.940 . S
C478 C477 1.385 . S
C478 C479 1.388 . S
C479 H458 0.939 . S
C479 C474 1.391 . S
C479 C478 1.388 . S
P480 O491 1.490 . S
P480 C494 1.812 . S
P480 C500 1.803 . S
P480 C506 1.819 . S
H481 C495 0.941 . S
H482 C496 0.939 . S
H483 C498 0.940 . S
H484 C499 0.940 . S
H485 C501 0.939 . S
H486 C502 0.942 . S
H487 C504 0.940 . S
H488 C505 0.939 . S
H489 C507 0.941 . S
H490 C511 0.939 . S
O491 P480 1.490 . S
H492 C508 0.939 . S
H493 C510 0.940 . S
C494 P480 1.812 . S
C494 C495 1.389 . S
C494 C499 1.391 . S
C495 H481 0.941 . S
C495 C494 1.389 . S
C495 C496 1.397 . S
C496 H482 0.939 . S
C496 C495 1.397 . S
C496 C497 1.378 . S
C497 C496 1.378 . S
C497 C498 1.378 . S
C498 H483 0.940 . S
C498 C497 1.378 . S
C498 C499 1.396 . S
C499 H484 0.940 . S
C499 C494 1.391 . S
C499 C498 1.396 . S
C500 P480 1.803 . S
C500 C501 1.378 1_556 S
C500 C505 1.400 . S
C501 H485 0.939 . S
C501 C500 1.378 1_554 S
C501 C502 1.361 . S
C502 H486 0.942 . S
C502 C501 1.361 . S
C502 C503 1.369 . S
C503 C502 1.369 . S
C503 C504 1.404 1_554 S
C504 H487 0.940 . S
C504 C503 1.404 1_556 S
C504 C505 1.389 . S
C505 H488 0.939 . S
C505 C500 1.400 . S
C505 C504 1.389 . S
C506 P480 1.819 . S
C506 C507 1.391 1_545 S
C506 C511 1.391 . S
C507 H489 0.941 . S
C507 C506 1.391 1_565 S
C507 C508 1.396 . S
C508 H492 0.939 . S
C508 C507 1.396 . S
C508 C509 1.397 . S
C509 C508 1.397 . S
C509 C510 1.385 1_565 S
C510 H493 0.940 . S
C510 C509 1.385 1_545 S
C510 C511 1.388 . S
C511 H490 0.939 . S
C511 C506 1.391 . S
C511 C510 1.388 . S
Li512 N529 1.990 . S
Li512 O572 1.956 . S
Li512 O573 1.970 1_556 S
Li512 O574 1.961 . S
Li513 N537 1.990 . S
Li513 O572 1.970 1_554 S
Li513 O573 1.956 . S
Li513 O575 1.961 . S
Li514 N559 1.990 . S
Li514 O572 1.961 . S
Li514 O574 1.956 . S
Li514 O575 1.970 1_556 S
Li515 N565 1.990 . S
Li515 O573 1.961 . S
Li515 O574 1.970 1_554 S
Li515 O575 1.956 . S
C516 C518 1.348 1_556 S
C516 C519 1.356 . S
C516 O572 1.325 . S
N517 C520 1.314 1_556 S
N517 C521 1.279 . S
C518 C516 1.348 1_554 S
C518 C520 1.353 . S
C518 H576 0.929 . S
C519 C516 1.356 . S
C519 C521 1.358 . S
C519 H577 0.930 . S
C520 N517 1.314 1_554 S
C520 C518 1.353 . S
C520 H578 0.930 . S
C521 N517 1.279 . S
C521 C519 1.358 . S
C521 H579 0.930 . S
C522 C525 1.348 . S
C522 C526 1.356 . S
C522 O573 1.325 . S
C523 N524 1.279 . S
C523 C526 1.358 . S
C523 H580 0.930 . S
N524 C523 1.279 . S
N524 C527 1.314 . S
C525 C522 1.348 . S
C525 C527 1.353 . S
C525 H581 0.929 . S
C526 C522 1.356 . S
C526 C523 1.358 . S
C526 H582 0.930 . S
C527 N524 1.314 . S
C527 C525 1.353 . S
C527 H583 0.930 . S
C528 N529 1.314 . S
C528 C533 1.353 . S
C528 H534 0.930 . S
N529 Li512 1.990 . S
N529 C528 1.314 . S
N529 C531 1.279 . S
C530 C531 1.358 . S
C530 C532 1.356 . S
C530 H584 0.930 . S
C531 N529 1.279 . S
C531 C530 1.358 . S
C531 H535 0.930 . S
C532 C530 1.356 . S
C532 C533 1.348 . S
C533 C528 1.353 . S
C533 C532 1.348 . S
C533 H585 0.929 . S
H534 C528 0.930 . S
H535 C531 0.930 . S
C536 N537 1.314 . S
C536 C538 1.353 . S
C536 H542 0.930 . S
N537 Li513 1.990 . S
N537 C536 1.314 . S
N537 C540 1.279 . S
C538 C536 1.353 . S
C538 C541 1.348 . S
C538 H586 0.929 . S
C539 C540 1.358 . S
C539 C541 1.356 . S
C539 H587 0.930 . S
C540 N537 1.279 . S
C540 C539 1.358 . S
C540 H543 0.930 . S
C541 C538 1.348 . S
C541 C539 1.356 . S
H542 C536 0.930 . S
H543 C540 0.930 . S
C544 C546 1.348 . S
C544 C547 1.356 . S
C544 O574 1.325 . S
N545 C548 1.314 . S
N545 C549 1.279 . S
C546 C544 1.348 . S
C546 C548 1.353 . S
C546 H588 0.929 . S
C547 C544 1.356 . S
C547 C549 1.358 . S
C547 H589 0.930 . S
C548 N545 1.314 . S
C548 C546 1.353 . S
C548 H590 0.930 . S
C549 N545 1.279 . S
C549 C547 1.358 . S
C549 H591 0.930 . S
C550 C551 1.348 1_554 S
C550 C552 1.356 . S
C550 O575 1.325 . S
C551 C550 1.348 1_556 S
C551 C553 1.353 . S
C551 H592 0.929 . S
C552 C550 1.356 . S
C552 C554 1.358 . S
C552 H593 0.930 . S
C553 C551 1.353 . S
C553 N555 1.314 1_556 S
C553 H594 0.930 . S
C554 C552 1.358 . S
C554 N555 1.279 . S
C554 H595 0.930 . S
N555 C553 1.314 1_554 S
N555 C554 1.279 . S
C556 C558 1.353 . S
C556 N559 1.314 . S
C556 H562 0.930 . S
C557 N559 1.279 . S
C557 C560 1.358 . S
C557 H563 0.930 . S
C558 C556 1.353 . S
C558 C561 1.348 . S
C558 H596 0.929 . S
N559 Li514 1.990 . S
N559 C556 1.314 . S
N559 C557 1.279 . S
C560 C557 1.358 . S
C560 C561 1.356 . S
C560 H597 0.930 . S
C561 C558 1.348 . S
C561 C560 1.356 . S
H562 C556 0.930 . S
H563 C557 0.930 . S
C564 N565 1.314 . S
C564 C566 1.353 . S
C564 H570 0.930 . S
N565 Li515 1.990 . S
N565 C564 1.314 . S
N565 C568 1.279 . S
C566 C564 1.353 . S
C566 C569 1.348 . S
C566 H598 0.929 . S
C567 C568 1.358 . S
C567 C569 1.356 . S
C567 H599 0.930 . S
C568 N565 1.279 . S
C568 C567 1.358 . S
C568 H571 0.930 . S
C569 C566 1.348 . S
C569 C567 1.356 . S
H570 C564 0.930 . S
H571 C568 0.930 . S
O572 Li512 1.956 . S
O572 Li513 1.970 1_556 S
O572 Li514 1.961 . S
O572 C516 1.325 . S
O573 Li512 1.970 1_554 S
O573 Li513 1.956 . S
O573 Li515 1.961 . S
O573 C522 1.325 . S
O574 Li512 1.961 . S
O574 Li514 1.956 . S
O574 Li515 1.970 1_556 S
O574 C544 1.325 . S
O575 Li513 1.961 . S
O575 Li514 1.970 1_554 S
O575 Li515 1.956 . S
O575 C550 1.325 . S
H576 C518 0.929 . S
H577 C519 0.930 . S
H578 C520 0.930 . S
H579 C521 0.930 . S
H580 C523 0.930 . S
H581 C525 0.929 . S
H582 C526 0.930 . S
H583 C527 0.930 . S
H584 C530 0.930 . S
H585 C533 0.929 . S
H586 C538 0.929 . S
H587 C539 0.930 . S
H588 C546 0.929 . S
H589 C547 0.930 . S
H590 C548 0.930 . S
H591 C549 0.930 . S
H592 C551 0.929 . S
H593 C552 0.930 . S
H594 C553 0.930 . S
H595 C554 0.930 . S
H596 C558 0.929 . S
H597 C560 0.930 . S
H598 C566 0.929 . S
H599 C567 0.930 . S
Li600 N617 1.990 . S
Li600 O660 1.956 . S
Li600 O661 1.970 . S
Li600 O662 1.961 . S
Li601 N625 1.990 . S
Li601 O660 1.970 . S
Li601 O661 1.956 . S
Li601 O663 1.961 . S
Li602 N647 1.990 . S
Li602 O660 1.961 . S
Li602 O662 1.956 . S
Li602 O663 1.970 . S
Li603 N653 1.990 . S
Li603 O661 1.961 . S
Li603 O662 1.970 . S
Li603 O663 1.956 . S
C604 C606 1.348 . S
C604 C607 1.356 . S
C604 O660 1.325 . S
N605 C608 1.314 . S
N605 C609 1.279 . S
C606 C604 1.348 . S
C606 C608 1.353 . S
C606 H664 0.929 . S
C607 C604 1.356 . S
C607 C609 1.358 . S
C607 H665 0.930 . S
C608 N605 1.314 . S
C608 C606 1.353 . S
C608 H666 0.930 . S
C609 N605 1.279 . S
C609 C607 1.358 . S
C609 H667 0.930 . S
C610 C613 1.348 . S
C610 C614 1.356 . S
C610 O661 1.325 . S
C611 N612 1.279 . S
C611 C614 1.358 . S
C611 H668 0.930 . S
N612 C611 1.279 . S
N612 C615 1.314 . S
C613 C610 1.348 . S
C613 C615 1.353 . S
C613 H669 0.929 . S
C614 C610 1.356 . S
C614 C611 1.358 . S
C614 H670 0.930 . S
C615 N612 1.314 . S
C615 C613 1.353 . S
C615 H671 0.930 . S
C616 N617 1.314 . S
C616 C621 1.353 . S
C616 H622 0.930 . S
N617 Li600 1.990 . S
N617 C616 1.314 . S
N617 C619 1.279 . S
C618 C619 1.358 . S
C618 C620 1.356 . S
C618 H672 0.930 . S
C619 N617 1.279 . S
C619 C618 1.358 . S
C619 H623 0.930 . S
C620 C618 1.356 . S
C620 C621 1.348 . S
C621 C616 1.353 . S
C621 C620 1.348 . S
C621 H673 0.929 . S
H622 C616 0.930 . S
H623 C619 0.930 . S
C624 N625 1.314 . S
C624 C626 1.353 . S
C624 H630 0.930 . S
N625 Li601 1.990 . S
N625 C624 1.314 . S
N625 C628 1.279 . S
C626 C624 1.353 . S
C626 C629 1.348 . S
C626 H674 0.929 . S
C627 C628 1.358 . S
C627 C629 1.356 . S
C627 H675 0.930 . S
C628 N625 1.279 . S
C628 C627 1.358 . S
C628 H631 0.930 . S
C629 C626 1.348 . S
C629 C627 1.356 . S
H630 C624 0.930 . S
H631 C628 0.930 . S
C632 C634 1.348 . S
C632 C635 1.356 . S
C632 O662 1.325 . S
N633 C636 1.314 . S
N633 C637 1.279 . S
C634 C632 1.348 . S
C634 C636 1.353 . S
C634 H676 0.929 . S
C635 C632 1.356 . S
C635 C637 1.358 . S
C635 H677 0.930 . S
C636 N633 1.314 . S
C636 C634 1.353 . S
C636 H678 0.930 . S
C637 N633 1.279 . S
C637 C635 1.358 . S
C637 H679 0.930 . S
C638 C639 1.348 . S
C638 C640 1.356 . S
C638 O663 1.325 . S
C639 C638 1.348 . S
C639 C641 1.353 . S
C639 H680 0.929 . S
C640 C638 1.356 . S
C640 C642 1.358 . S
C640 H681 0.930 . S
C641 C639 1.353 . S
C641 N643 1.314 . S
C641 H682 0.930 . S
C642 C640 1.358 . S
C642 N643 1.279 . S
C642 H683 0.930 . S
N643 C641 1.314 . S
N643 C642 1.279 . S
C644 C646 1.353 . S
C644 N647 1.314 . S
C644 H650 0.930 . S
C645 N647 1.279 . S
C645 C648 1.358 . S
C645 H651 0.930 . S
C646 C644 1.353 . S
C646 C649 1.348 . S
C646 H684 0.929 . S
N647 Li602 1.990 . S
N647 C644 1.314 . S
N647 C645 1.279 . S
C648 C645 1.358 . S
C648 C649 1.356 . S
C648 H685 0.930 . S
C649 C646 1.348 . S
C649 C648 1.356 . S
H650 C644 0.930 . S
H651 C645 0.930 . S
C652 N653 1.314 . S
C652 C654 1.353 . S
C652 H658 0.930 . S
N653 Li603 1.990 . S
N653 C652 1.314 . S
N653 C656 1.279 . S
C654 C652 1.353 . S
C654 C657 1.348 . S
C654 H686 0.929 . S
C655 C656 1.358 . S
C655 C657 1.356 . S
C655 H687 0.930 . S
C656 N653 1.279 . S
C656 C655 1.358 . S
C656 H659 0.930 . S
C657 C654 1.348 . S
C657 C655 1.356 . S
H658 C652 0.930 . S
H659 C656 0.930 . S
O660 Li600 1.956 . S
O660 Li601 1.970 . S
O660 Li602 1.961 . S
O660 C604 1.325 . S
O661 Li600 1.970 . S
O661 Li601 1.956 . S
O661 Li603 1.961 . S
O661 C610 1.325 . S
O662 Li600 1.961 . S
O662 Li602 1.956 . S
O662 Li603 1.970 . S
O662 C632 1.325 . S
O663 Li601 1.961 . S
O663 Li602 1.970 . S
O663 Li603 1.956 . S
O663 C638 1.325 . S
H664 C606 0.929 . S
H665 C607 0.930 . S
H666 C608 0.930 . S
H667 C609 0.930 . S
H668 C611 0.930 . S
H669 C613 0.929 . S
H670 C614 0.930 . S
H671 C615 0.930 . S
H672 C618 0.930 . S
H673 C621 0.929 . S
H674 C626 0.929 . S
H675 C627 0.930 . S
H676 C634 0.929 . S
H677 C635 0.930 . S
H678 C636 0.930 . S
H679 C637 0.930 . S
H680 C639 0.929 . S
H681 C640 0.930 . S
H682 C641 0.930 . S
H683 C642 0.930 . S
H684 C646 0.929 . S
H685 C648 0.930 . S
H686 C654 0.929 . S
H687 C655 0.930 . S
Li688 N705 1.990 . S
Li688 O748 1.956 . S
Li688 O749 1.970 1_556 S
Li688 O750 1.961 . S
Li689 N713 1.990 . S
Li689 O748 1.970 1_554 S
Li689 O749 1.956 . S
Li689 O751 1.961 . S
Li690 N735 1.990 . S
Li690 O748 1.961 . S
Li690 O750 1.956 . S
Li690 O751 1.970 1_556 S
Li691 N741 1.990 . S
Li691 O749 1.961 . S
Li691 O750 1.970 1_554 S
Li691 O751 1.956 . S
C692 C694 1.348 1_556 S
C692 C695 1.356 . S
C692 O748 1.325 . S
N693 C696 1.314 1_556 S
N693 C697 1.279 . S
C694 C692 1.348 1_554 S
C694 C696 1.353 . S
C694 H752 0.929 . S
C695 C692 1.356 . S
C695 C697 1.358 . S
C695 H753 0.930 . S
C696 N693 1.314 1_554 S
C696 C694 1.353 . S
C696 H754 0.930 . S
C697 N693 1.279 . S
C697 C695 1.358 . S
C697 H755 0.930 . S
C698 C701 1.348 . S
C698 C702 1.356 . S
C698 O749 1.325 . S
C699 N700 1.279 . S
C699 C702 1.358 . S
C699 H756 0.930 . S
N700 C699 1.279 . S
N700 C703 1.314 . S
C701 C698 1.348 . S
C701 C703 1.353 . S
C701 H757 0.929 . S
C702 C698 1.356 . S
C702 C699 1.358 . S
C702 H758 0.930 . S
C703 N700 1.314 . S
C703 C701 1.353 . S
C703 H759 0.930 . S
C704 N705 1.314 . S
C704 C709 1.353 . S
C704 H710 0.930 . S
N705 Li688 1.990 . S
N705 C704 1.314 . S
N705 C707 1.279 . S
C706 C707 1.358 . S
C706 C708 1.356 . S
C706 H760 0.930 . S
C707 N705 1.279 . S
C707 C706 1.358 . S
C707 H711 0.930 . S
C708 C706 1.356 . S
C708 C709 1.348 . S
C709 C704 1.353 . S
C709 C708 1.348 . S
C709 H761 0.929 . S
H710 C704 0.930 . S
H711 C707 0.930 . S
C712 N713 1.314 . S
C712 C714 1.353 . S
C712 H718 0.930 . S
N713 Li689 1.990 . S
N713 C712 1.314 . S
N713 C716 1.279 . S
C714 C712 1.353 . S
C714 C717 1.348 . S
C714 H762 0.929 . S
C715 C716 1.358 . S
C715 C717 1.356 . S
C715 H763 0.930 . S
C716 N713 1.279 . S
C716 C715 1.358 . S
C716 H719 0.930 . S
C717 C714 1.348 . S
C717 C715 1.356 . S
H718 C712 0.930 . S
H719 C716 0.930 . S
C720 C722 1.348 . S
C720 C723 1.356 . S
C720 O750 1.325 . S
N721 C724 1.314 . S
N721 C725 1.279 . S
C722 C720 1.348 . S
C722 C724 1.353 . S
C722 H764 0.929 . S
C723 C720 1.356 . S
C723 C725 1.358 . S
C723 H765 0.930 . S
C724 N721 1.314 . S
C724 C722 1.353 . S
C724 H766 0.930 . S
C725 N721 1.279 . S
C725 C723 1.358 . S
C725 H767 0.930 . S
C726 C727 1.348 1_554 S
C726 C728 1.356 . S
C726 O751 1.325 . S
C727 C726 1.348 1_556 S
C727 C729 1.353 . S
C727 H768 0.929 . S
C728 C726 1.356 . S
C728 C730 1.358 . S
C728 H769 0.930 . S
C729 C727 1.353 . S
C729 N731 1.314 1_556 S
C729 H770 0.930 . S
C730 C728 1.358 . S
C730 N731 1.279 . S
C730 H771 0.930 . S
N731 C729 1.314 1_554 S
N731 C730 1.279 . S
C732 C734 1.353 . S
C732 N735 1.314 . S
C732 H738 0.930 . S
C733 N735 1.279 . S
C733 C736 1.358 . S
C733 H739 0.930 . S
C734 C732 1.353 . S
C734 C737 1.348 . S
C734 H772 0.929 . S
N735 Li690 1.990 . S
N735 C732 1.314 . S
N735 C733 1.279 . S
C736 C733 1.358 . S
C736 C737 1.356 . S
C736 H773 0.930 . S
C737 C734 1.348 . S
C737 C736 1.356 . S
H738 C732 0.930 . S
H739 C733 0.930 . S
C740 N741 1.314 . S
C740 C742 1.353 . S
C740 H746 0.930 . S
N741 Li691 1.990 . S
N741 C740 1.314 . S
N741 C744 1.279 . S
C742 C740 1.353 . S
C742 C745 1.348 . S
C742 H774 0.929 . S
C743 C744 1.358 . S
C743 C745 1.356 . S
C743 H775 0.930 . S
C744 N741 1.279 . S
C744 C743 1.358 . S
C744 H747 0.930 . S
C745 C742 1.348 . S
C745 C743 1.356 . S
H746 C740 0.930 . S
H747 C744 0.930 . S
O748 Li688 1.956 . S
O748 Li689 1.970 1_556 S
O748 Li690 1.961 . S
O748 C692 1.325 . S
O749 Li688 1.970 1_554 S
O749 Li689 1.956 . S
O749 Li691 1.961 . S
O749 C698 1.325 . S
O750 Li688 1.961 . S
O750 Li690 1.956 . S
O750 Li691 1.970 1_556 S
O750 C720 1.325 . S
O751 Li689 1.961 . S
O751 Li690 1.970 1_554 S
O751 Li691 1.956 . S
O751 C726 1.325 . S
H752 C694 0.929 . S
H753 C695 0.930 . S
H754 C696 0.930 . S
H755 C697 0.930 . S
H756 C699 0.930 . S
H757 C701 0.929 . S
H758 C702 0.930 . S
H759 C703 0.930 . S
H760 C706 0.930 . S
H761 C709 0.929 . S
H762 C714 0.929 . S
H763 C715 0.930 . S
H764 C722 0.929 . S
H765 C723 0.930 . S
H766 C724 0.930 . S
H767 C725 0.930 . S
H768 C727 0.929 . S
H769 C728 0.930 . S
H770 C729 0.930 . S
H771 C730 0.930 . S
H772 C734 0.929 . S
H773 C736 0.930 . S
H774 C742 0.929 . S
H775 C743 0.930 . S
Li776 N793 1.990 . S
Li776 O836 1.956 . S
Li776 O837 1.970 . S
Li776 O838 1.961 . S
Li777 N801 1.990 . S
Li777 O836 1.973 1_565 S
Li777 O837 1.956 1_565 S
Li777 O839 1.959 . S
Li778 N823 1.990 . S
Li778 O836 1.961 . S
Li778 O838 1.956 . S
Li778 O839 1.970 1_545 S
Li779 N829 1.990 . S
Li779 O837 1.961 1_565 S
Li779 O838 1.970 1_565 S
Li779 O839 1.956 . S
C780 C782 1.348 . S
C780 C783 1.356 . S
C780 O836 1.325 . S
N781 C784 1.314 . S
N781 C785 1.279 . S
C782 C780 1.348 . S
C782 C784 1.353 . S
C782 H840 0.929 . S
C783 C780 1.356 . S
C783 C785 1.358 . S
C783 H841 0.930 . S
C784 N781 1.314 . S
C784 C782 1.353 . S
C784 H842 0.930 . S
C785 N781 1.279 . S
C785 C783 1.358 . S
C785 H843 0.930 . S
C786 C789 1.348 1_565 S
C786 C790 1.356 . S
C786 O837 1.325 1_565 S
C787 N788 1.279 . S
C787 C790 1.358 . S
C787 H844 0.930 . S
N788 C787 1.279 . S
N788 C791 1.314 1_565 S
C789 C786 1.348 1_545 S
C789 C791 1.353 . S
C789 H845 0.929 . S
C790 C786 1.356 . S
C790 C787 1.358 . S
C790 H846 0.930 . S
C791 N788 1.314 1_545 S
C791 C789 1.353 . S
C791 H847 0.930 . S
C792 N793 1.314 . S
C792 C797 1.353 . S
C792 H798 0.930 . S
N793 Li776 1.990 . S
N793 C792 1.314 . S
N793 C795 1.279 . S
C794 C795 1.358 . S
C794 C796 1.356 . S
C794 H848 0.930 . S
C795 N793 1.279 . S
C795 C794 1.358 . S
C795 H799 0.930 . S
C796 C794 1.356 . S
C796 C797 1.348 . S
C797 C792 1.353 . S
C797 C796 1.348 . S
C797 H849 0.929 . S
H798 C792 0.930 . S
H799 C795 0.930 . S
C800 N801 1.314 . S
C800 C802 1.353 . S
C800 H806 0.930 . S
N801 Li777 1.990 . S
N801 C800 1.314 . S
N801 C804 1.279 . S
C802 C800 1.353 . S
C802 C805 1.348 . S
C802 H850 0.929 . S
C803 C804 1.358 . S
C803 C805 1.356 . S
C803 H851 0.930 . S
C804 N801 1.279 . S
C804 C803 1.358 . S
C804 H807 0.932 . S
C805 C802 1.348 . S
C805 C803 1.356 . S
H806 C800 0.930 . S
H807 C804 0.932 . S
C808 C810 1.348 1_545 S
C808 C811 1.356 . S
C808 O838 1.325 . S
N809 C812 1.314 1_545 S
N809 C813 1.279 . S
C810 C808 1.348 1_565 S
C810 C812 1.353 . S
C810 H852 0.929 . S
C811 C808 1.356 . S
C811 C813 1.358 . S
C811 H853 0.930 . S
C812 N809 1.314 1_565 S
C812 C810 1.353 . S
C812 H854 0.930 . S
C813 N809 1.279 . S
C813 C811 1.358 . S
C813 H855 0.930 . S
C814 C815 1.348 . S
C814 C816 1.356 . S
C814 O839 1.325 . S
C815 C814 1.348 . S
C815 C817 1.353 . S
C815 H856 0.929 . S
C816 C814 1.356 . S
C816 C818 1.358 . S
C816 H857 0.930 . S
C817 C815 1.353 . S
C817 N819 1.314 . S
C817 H858 0.930 . S
C818 C816 1.358 . S
C818 N819 1.279 . S
C818 H859 0.930 . S
N819 C817 1.314 . S
N819 C818 1.279 . S
C820 C822 1.353 . S
C820 N823 1.314 . S
C820 H826 0.930 . S
C821 N823 1.279 . S
C821 C824 1.358 . S
C821 H827 0.930 . S
C822 C820 1.353 . S
C822 C825 1.348 . S
C822 H860 0.929 . S
N823 Li778 1.990 . S
N823 C820 1.314 . S
N823 C821 1.279 . S
C824 C821 1.358 . S
C824 C825 1.356 . S
C824 H861 0.930 . S
C825 C822 1.348 . S
C825 C824 1.356 . S
H826 C820 0.930 . S
H827 C821 0.930 . S
C828 N829 1.314 . S
C828 C830 1.353 . S
C828 H834 0.930 . S
N829 Li779 1.990 . S
N829 C828 1.314 . S
N829 C832 1.279 . S
C830 C828 1.353 . S
C830 C833 1.348 . S
C830 H862 0.929 . S
C831 C832 1.358 . S
C831 C833 1.356 . S
C831 H863 0.930 . S
C832 N829 1.279 . S
C832 C831 1.358 . S
C832 H835 0.930 . S
C833 C830 1.348 . S
C833 C831 1.356 . S
H834 C828 0.930 . S
H835 C832 0.930 . S
O836 Li776 1.956 . S
O836 Li777 1.973 1_545 S
O836 Li778 1.961 . S
O836 C780 1.325 . S
O837 Li776 1.970 . S
O837 Li777 1.956 1_545 S
O837 Li779 1.961 1_545 S
O837 C786 1.325 1_545 S
O838 Li776 1.961 . S
O838 Li778 1.956 . S
O838 Li779 1.970 1_545 S
O838 C808 1.325 . S
O839 Li777 1.959 . S
O839 Li778 1.970 1_565 S
O839 Li779 1.956 . S
O839 C814 1.325 . S
H840 C782 0.929 . S
H841 C783 0.930 . S
H842 C784 0.930 . S
H843 C785 0.930 . S
H844 C787 0.930 . S
H845 C789 0.929 . S
H846 C790 0.930 . S
H847 C791 0.930 . S
H848 C794 0.930 . S
H849 C797 0.929 . S
H850 C802 0.929 . S
H851 C803 0.930 . S
H852 C810 0.929 . S
H853 C811 0.930 . S
H854 C812 0.930 . S
H855 C813 0.930 . S
H856 C815 0.929 . S
H857 C816 0.930 . S
H858 C817 0.930 . S
H859 C818 0.930 . S
H860 C822 0.929 . S
H861 C824 0.930 . S
H862 C830 0.929 . S
H863 C831 0.930 . S
Li864 N881 1.990 . S
Li864 O924 1.956 . S
Li864 O925 1.970 . S
Li864 O926 1.961 . S
Li865 N889 1.990 . S
Li865 O924 1.970 . S
Li865 O925 1.956 . S
Li865 O927 1.961 . S
Li866 N911 1.990 . S
Li866 O924 1.961 . S
Li866 O926 1.956 . S
Li866 O927 1.970 . S
Li867 N917 1.990 . S
Li867 O925 1.961 . S
Li867 O926 1.970 . S
Li867 O927 1.956 . S
C868 C870 1.348 . S
C868 C871 1.356 . S
C868 O924 1.325 . S
N869 C872 1.314 . S
N869 C873 1.279 . S
C870 C868 1.348 . S
C870 C872 1.353 . S
C870 H928 0.929 . S
C871 C868 1.356 . S
C871 C873 1.358 . S
C871 H929 0.930 . S
C872 N869 1.314 . S
C872 C870 1.353 . S
C872 H930 0.930 . S
C873 N869 1.279 . S
C873 C871 1.358 . S
C873 H931 0.930 . S
C874 C877 1.348 . S
C874 C878 1.356 . S
C874 O925 1.325 . S
C875 N876 1.279 . S
C875 C878 1.358 . S
C875 H932 0.930 . S
N876 C875 1.279 . S
N876 C879 1.314 . S
C877 C874 1.348 . S
C877 C879 1.353 . S
C877 H933 0.929 . S
C878 C874 1.356 . S
C878 C875 1.358 . S
C878 H934 0.930 . S
C879 N876 1.314 . S
C879 C877 1.353 . S
C879 H935 0.930 . S
C880 N881 1.314 . S
C880 C885 1.353 . S
C880 H886 0.930 . S
N881 Li864 1.990 . S
N881 C880 1.314 . S
N881 C883 1.279 . S
C882 C883 1.358 . S
C882 C884 1.356 . S
C882 H936 0.930 . S
C883 N881 1.279 . S
C883 C882 1.358 . S
C883 H887 0.930 . S
C884 C882 1.356 . S
C884 C885 1.348 . S
C885 C880 1.353 . S
C885 C884 1.348 . S
C885 H937 0.929 . S
H886 C880 0.930 . S
H887 C883 0.930 . S
C888 N889 1.314 . S
C888 C890 1.353 . S
C888 H894 0.930 . S
N889 Li865 1.990 . S
N889 C888 1.314 . S
N889 C892 1.279 . S
C890 C888 1.353 . S
C890 C893 1.348 . S
C890 H938 0.929 . S
C891 C892 1.358 . S
C891 C893 1.356 . S
C891 H939 0.930 . S
C892 N889 1.279 . S
C892 C891 1.358 . S
C892 H895 0.930 . S
C893 C890 1.348 . S
C893 C891 1.356 . S
H894 C888 0.930 . S
H895 C892 0.930 . S
C896 C898 1.348 . S
C896 C899 1.356 . S
C896 O926 1.325 . S
N897 C900 1.314 . S
N897 C901 1.279 . S
C898 C896 1.348 . S
C898 C900 1.353 . S
C898 H940 0.929 . S
C899 C896 1.356 . S
C899 C901 1.358 . S
C899 H941 0.930 . S
C900 N897 1.314 . S
C900 C898 1.353 . S
C900 H942 0.930 . S
C901 N897 1.279 . S
C901 C899 1.358 . S
C901 H943 0.930 . S
C902 C903 1.348 . S
C902 C904 1.356 . S
C902 O927 1.325 . S
C903 C902 1.348 . S
C903 C905 1.353 . S
C903 H944 0.929 . S
C904 C902 1.356 . S
C904 C906 1.358 . S
C904 H945 0.930 . S
C905 C903 1.353 . S
C905 N907 1.314 . S
C905 H946 0.930 . S
C906 C904 1.358 . S
C906 N907 1.279 . S
C906 H947 0.930 . S
N907 C905 1.314 . S
N907 C906 1.279 . S
C908 C910 1.353 . S
C908 N911 1.314 . S
C908 H914 0.930 . S
C909 N911 1.279 . S
C909 C912 1.358 . S
C909 H915 0.930 . S
C910 C908 1.353 . S
C910 C913 1.348 . S
C910 H948 0.929 . S
N911 Li866 1.990 . S
N911 C908 1.314 . S
N911 C909 1.279 . S
C912 C909 1.358 . S
C912 C913 1.356 . S
C912 H949 0.930 . S
C913 C910 1.348 . S
C913 C912 1.356 . S
H914 C908 0.930 . S
H915 C909 0.930 . S
C916 N917 1.314 . S
C916 C918 1.353 . S
C916 H922 0.930 . S
N917 Li867 1.990 . S
N917 C916 1.314 . S
N917 C920 1.279 . S
C918 C916 1.353 . S
C918 C921 1.348 . S
C918 H950 0.929 . S
C919 C920 1.358 . S
C919 C921 1.356 . S
C919 H951 0.930 . S
C920 N917 1.279 . S
C920 C919 1.358 . S
C920 H923 0.930 . S
C921 C918 1.348 . S
C921 C919 1.356 . S
H922 C916 0.930 . S
H923 C920 0.930 . S
O924 Li864 1.956 . S
O924 Li865 1.970 . S
O924 Li866 1.961 . S
O924 C868 1.325 . S
O925 Li864 1.970 . S
O925 Li865 1.956 . S
O925 Li867 1.961 . S
O925 C874 1.325 . S
O926 Li864 1.961 . S
O926 Li866 1.956 . S
O926 Li867 1.970 . S
O926 C896 1.325 . S
O927 Li865 1.961 . S
O927 Li866 1.970 . S
O927 Li867 1.956 . S
O927 C902 1.325 . S
H928 C870 0.929 . S
H929 C871 0.930 . S
H930 C872 0.930 . S
H931 C873 0.930 . S
H932 C875 0.930 . S
H933 C877 0.929 . S
H934 C878 0.930 . S
H935 C879 0.930 . S
H936 C882 0.930 . S
H937 C885 0.929 . S
H938 C890 0.929 . S
H939 C891 0.930 . S
H940 C898 0.929 . S
H941 C899 0.930 . S
H942 C900 0.930 . S
H943 C901 0.930 . S
H944 C903 0.929 . S
H945 C904 0.930 . S
H946 C905 0.930 . S
H947 C906 0.930 . S
H948 C910 0.929 . S
H949 C912 0.930 . S
H950 C918 0.929 . S
H951 C919 0.930 . S
Li952 N969 1.990 . S
Li952 O1012 1.956 . S
Li952 O1013 1.970 . S
Li952 O1014 1.961 . S
Li953 N977 1.990 . S
Li953 O1012 1.970 . S
Li953 O1013 1.956 . S
Li953 O1015 1.961 . S
Li954 N999 1.990 . S
Li954 O1012 1.961 . S
Li954 O1014 1.956 . S
Li954 O1015 1.970 . S
Li955 N1005 1.990 . S
Li955 O1013 1.961 . S
Li955 O1014 1.970 . S
Li955 O1015 1.956 . S
C956 C958 1.348 . S
C956 C959 1.356 . S
C956 O1012 1.325 . S
N957 C960 1.314 . S
N957 C961 1.279 . S
C958 C956 1.348 . S
C958 C960 1.353 . S
C958 H1016 0.929 . S
C959 C956 1.356 . S
C959 C961 1.358 . S
C959 H1017 0.930 . S
C960 N957 1.314 . S
C960 C958 1.353 . S
C960 H1018 0.930 . S
C961 N957 1.279 . S
C961 C959 1.358 . S
C961 H1019 0.930 . S
C962 C965 1.348 . S
C962 C966 1.356 . S
C962 O1013 1.325 . S
C963 N964 1.279 . S
C963 C966 1.358 . S
C963 H1020 0.930 . S
N964 C963 1.279 . S
N964 C967 1.314 . S
C965 C962 1.348 . S
C965 C967 1.353 . S
C965 H1021 0.929 . S
C966 C962 1.356 . S
C966 C963 1.358 . S
C966 H1022 0.930 . S
C967 N964 1.314 . S
C967 C965 1.353 . S
C967 H1023 0.930 . S
C968 N969 1.314 . S
C968 C973 1.353 . S
C968 H974 0.930 . S
N969 Li952 1.990 . S
N969 C968 1.314 . S
N969 C971 1.279 . S
C970 C971 1.358 . S
C970 C972 1.356 . S
C970 H1024 0.930 . S
C971 N969 1.279 . S
C971 C970 1.358 . S
C971 H975 0.930 . S
C972 C970 1.356 . S
C972 C973 1.348 . S
C973 C968 1.353 . S
C973 C972 1.348 . S
C973 H1025 0.929 . S
H974 C968 0.930 . S
H975 C971 0.930 . S
C976 N977 1.314 . S
C976 C978 1.353 . S
C976 H982 0.930 . S
N977 Li953 1.990 . S
N977 C976 1.314 . S
N977 C980 1.279 . S
C978 C976 1.353 . S
C978 C981 1.348 . S
C978 H1026 0.929 . S
C979 C980 1.358 . S
C979 C981 1.356 . S
C979 H1027 0.930 . S
C980 N977 1.279 . S
C980 C979 1.358 . S
C980 H983 0.930 . S
C981 C978 1.348 . S
C981 C979 1.356 . S
H982 C976 0.930 . S
H983 C980 0.930 . S
C984 C986 1.348 . S
C984 C987 1.356 . S
C984 O1014 1.325 . S
N985 C988 1.314 . S
N985 C989 1.279 . S
C986 C984 1.348 . S
C986 C988 1.353 . S
C986 H1028 0.929 . S
C987 C984 1.356 . S
C987 C989 1.358 . S
C987 H1029 0.930 . S
C988 N985 1.314 . S
C988 C986 1.353 . S
C988 H1030 0.930 . S
C989 N985 1.279 . S
C989 C987 1.358 . S
C989 H1031 0.930 . S
C990 C991 1.348 . S
C990 C992 1.356 . S
C990 O1015 1.325 . S
C991 C990 1.348 . S
C991 C993 1.353 . S
C991 H1032 0.929 . S
C992 C990 1.356 . S
C992 C994 1.358 . S
C992 H1033 0.930 . S
C993 C991 1.353 . S
C993 N995 1.314 . S
C993 H1034 0.930 . S
C994 C992 1.358 . S
C994 N995 1.279 . S
C994 H1035 0.930 . S
N995 C993 1.314 . S
N995 C994 1.279 . S
C996 C998 1.353 . S
C996 N999 1.314 . S
C996 H1002 0.930 . S
C997 N999 1.279 . S
C997 C1000 1.358 . S
C997 H1003 0.930 . S
C998 C996 1.353 . S
C998 C1001 1.348 . S
C998 H1036 0.929 . S
N999 Li954 1.990 . S
N999 C996 1.314 . S
N999 C997 1.279 . S
C1000 C997 1.358 . S
C1000 C1001 1.356 . S
C1000 H1037 0.930 . S
C1001 C998 1.348 . S
C1001 C1000 1.356 . S
H1002 C996 0.930 . S
H1003 C997 0.930 . S
C1004 N1005 1.314 . S
C1004 C1006 1.353 . S
C1004 H1010 0.930 . S
N1005 Li955 1.990 . S
N1005 C1004 1.314 . S
N1005 C1008 1.279 . S
C1006 C1004 1.353 . S
C1006 C1009 1.348 . S
C1006 H1038 0.929 . S
C1007 C1008 1.358 . S
C1007 C1009 1.356 . S
C1007 H1039 0.930 . S
C1008 N1005 1.279 . S
C1008 C1007 1.358 . S
C1008 H1011 0.930 . S
C1009 C1006 1.348 . S
C1009 C1007 1.356 . S
H1010 C1004 0.930 . S
H1011 C1008 0.930 . S
O1012 Li952 1.956 . S
O1012 Li953 1.970 . S
O1012 Li954 1.961 . S
O1012 C956 1.325 . S
O1013 Li952 1.970 . S
O1013 Li953 1.956 . S
O1013 Li955 1.961 . S
O1013 C962 1.325 . S
O1014 Li952 1.961 . S
O1014 Li954 1.956 . S
O1014 Li955 1.970 . S
O1014 C984 1.325 . S
O1015 Li953 1.961 . S
O1015 Li954 1.970 . S
O1015 Li955 1.956 . S
O1015 C990 1.325 . S
H1016 C958 0.929 . S
H1017 C959 0.930 . S
H1018 C960 0.930 . S
H1019 C961 0.930 . S
H1020 C963 0.930 . S
H1021 C965 0.929 . S
H1022 C966 0.930 . S
H1023 C967 0.930 . S
H1024 C970 0.930 . S
H1025 C973 0.929 . S
H1026 C978 0.929 . S
H1027 C979 0.930 . S
H1028 C986 0.929 . S
H1029 C987 0.930 . S
H1030 C988 0.930 . S
H1031 C989 0.930 . S
H1032 C991 0.929 . S
H1033 C992 0.930 . S
H1034 C993 0.930 . S
H1035 C994 0.930 . S
H1036 C998 0.929 . S
H1037 C1000 0.930 . S
H1038 C1006 0.929 . S
H1039 C1007 0.930 . S
Li1040 N1057 1.990 . S
Li1040 O1100 1.956 . S
Li1040 O1101 1.970 . S
Li1040 O1102 1.961 . S
Li1041 N1065 1.990 . S
Li1041 O1100 1.970 . S
Li1041 O1101 1.956 . S
Li1041 O1103 1.961 . S
Li1042 N1087 1.990 . S
Li1042 O1100 1.961 . S
Li1042 O1102 1.956 . S
Li1042 O1103 1.970 . S
Li1043 N1093 1.990 . S
Li1043 O1101 1.961 . S
Li1043 O1102 1.970 . S
Li1043 O1103 1.956 . S
C1044 C1046 1.348 . S
C1044 C1047 1.356 . S
C1044 O1100 1.325 . S
N1045 C1048 1.314 . S
N1045 C1049 1.279 . S
C1046 C1044 1.348 . S
C1046 C1048 1.353 . S
C1046 H1104 0.929 . S
C1047 C1044 1.356 . S
C1047 C1049 1.358 . S
C1047 H1105 0.930 . S
C1048 N1045 1.314 . S
C1048 C1046 1.353 . S
C1048 H1106 0.930 . S
C1049 N1045 1.279 . S
C1049 C1047 1.358 . S
C1049 H1107 0.930 . S
C1050 C1053 1.348 . S
C1050 C1054 1.356 . S
C1050 O1101 1.325 . S
C1051 N1052 1.279 . S
C1051 C1054 1.358 . S
C1051 H1108 0.930 . S
N1052 C1051 1.279 . S
N1052 C1055 1.314 . S
C1053 C1050 1.348 . S
C1053 C1055 1.353 . S
C1053 H1109 0.929 . S
C1054 C1050 1.356 . S
C1054 C1051 1.358 . S
C1054 H1110 0.930 . S
C1055 N1052 1.314 . S
C1055 C1053 1.353 . S
C1055 H1111 0.930 . S
C1056 N1057 1.314 . S
C1056 C1061 1.353 . S
C1056 H1062 0.930 . S
N1057 Li1040 1.990 . S
N1057 C1056 1.314 . S
N1057 C1059 1.279 . S
C1058 C1059 1.358 . S
C1058 C1060 1.356 . S
C1058 H1112 0.930 . S
C1059 N1057 1.279 . S
C1059 C1058 1.358 . S
C1059 H1063 0.930 . S
C1060 C1058 1.356 . S
C1060 C1061 1.348 . S
C1061 C1056 1.353 . S
C1061 C1060 1.348 . S
C1061 H1113 0.929 . S
H1062 C1056 0.930 . S
H1063 C1059 0.930 . S
C1064 N1065 1.314 . S
C1064 C1066 1.353 . S
C1064 H1070 0.930 . S
N1065 Li1041 1.990 . S
N1065 C1064 1.314 . S
N1065 C1068 1.279 . S
C1066 C1064 1.353 . S
C1066 C1069 1.348 . S
C1066 H1114 0.929 . S
C1067 C1068 1.358 . S
C1067 C1069 1.356 . S
C1067 H1115 0.930 . S
C1068 N1065 1.279 . S
C1068 C1067 1.358 . S
C1068 H1071 0.930 . S
C1069 C1066 1.348 . S
C1069 C1067 1.356 . S
H1070 C1064 0.930 . S
H1071 C1068 0.930 . S
C1072 C1074 1.348 . S
C1072 C1075 1.356 . S
C1072 O1102 1.325 . S
N1073 C1076 1.314 . S
N1073 C1077 1.279 . S
C1074 C1072 1.348 . S
C1074 C1076 1.353 . S
C1074 H1116 0.929 . S
C1075 C1072 1.356 . S
C1075 C1077 1.358 . S
C1075 H1117 0.930 . S
C1076 N1073 1.314 . S
C1076 C1074 1.353 . S
C1076 H1118 0.930 . S
C1077 N1073 1.279 . S
C1077 C1075 1.358 . S
C1077 H1119 0.930 . S
C1078 C1079 1.348 . S
C1078 C1080 1.356 . S
C1078 O1103 1.325 . S
C1079 C1078 1.348 . S
C1079 C1081 1.353 . S
C1079 H1120 0.929 . S
C1080 C1078 1.356 . S
C1080 C1082 1.358 . S
C1080 H1121 0.930 . S
C1081 C1079 1.353 . S
C1081 N1083 1.314 . S
C1081 H1122 0.930 . S
C1082 C1080 1.358 . S
C1082 N1083 1.279 . S
C1082 H1123 0.930 . S
N1083 C1081 1.314 . S
N1083 C1082 1.279 . S
C1084 C1086 1.353 . S
C1084 N1087 1.314 . S
C1084 H1090 0.930 . S
C1085 N1087 1.279 . S
C1085 C1088 1.358 . S
C1085 H1091 0.930 . S
C1086 C1084 1.353 . S
C1086 C1089 1.348 . S
C1086 H1124 0.929 . S
N1087 Li1042 1.990 . S
N1087 C1084 1.314 . S
N1087 C1085 1.279 . S
C1088 C1085 1.358 . S
C1088 C1089 1.356 . S
C1088 H1125 0.930 . S
C1089 C1086 1.348 . S
C1089 C1088 1.356 . S
H1090 C1084 0.930 . S
H1091 C1085 0.930 . S
C1092 N1093 1.314 . S
C1092 C1094 1.353 . S
C1092 H1098 0.930 . S
N1093 Li1043 1.990 . S
N1093 C1092 1.314 . S
N1093 C1096 1.279 . S
C1094 C1092 1.353 . S
C1094 C1097 1.348 . S
C1094 H1126 0.929 . S
C1095 C1096 1.358 . S
C1095 C1097 1.356 . S
C1095 H1127 0.930 . S
C1096 N1093 1.279 . S
C1096 C1095 1.358 . S
C1096 H1099 0.930 . S
C1097 C1094 1.348 . S
C1097 C1095 1.356 . S
H1098 C1092 0.930 . S
H1099 C1096 0.930 . S
O1100 Li1040 1.956 . S
O1100 Li1041 1.970 . S
O1100 Li1042 1.961 . S
O1100 C1044 1.325 . S
O1101 Li1040 1.970 . S
O1101 Li1041 1.956 . S
O1101 Li1043 1.961 . S
O1101 C1050 1.325 . S
O1102 Li1040 1.961 . S
O1102 Li1042 1.956 . S
O1102 Li1043 1.970 . S
O1102 C1072 1.325 . S
O1103 Li1041 1.961 . S
O1103 Li1042 1.970 . S
O1103 Li1043 1.956 . S
O1103 C1078 1.325 . S
H1104 C1046 0.929 . S
H1105 C1047 0.930 . S
H1106 C1048 0.930 . S
H1107 C1049 0.930 . S
H1108 C1051 0.930 . S
H1109 C1053 0.929 . S
H1110 C1054 0.930 . S
H1111 C1055 0.930 . S
H1112 C1058 0.930 . S
H1113 C1061 0.929 . S
H1114 C1066 0.929 . S
H1115 C1067 0.930 . S
H1116 C1074 0.929 . S
H1117 C1075 0.930 . S
H1118 C1076 0.930 . S
H1119 C1077 0.930 . S
H1120 C1079 0.929 . S
H1121 C1080 0.930 . S
H1122 C1081 0.930 . S
H1123 C1082 0.930 . S
H1124 C1086 0.929 . S
H1125 C1088 0.930 . S
H1126 C1094 0.929 . S
H1127 C1095 0.930 . S
Li1128 N1145 1.990 . S
Li1128 O1188 1.956 . S
Li1128 O1189 1.970 1_565 S
Li1128 O1190 1.960 . S
Li1129 N1153 1.990 . S
Li1129 O1188 1.970 1_545 S
Li1129 O1189 1.956 . S
Li1129 O1191 1.961 . S
Li1130 N1175 1.995 . S
Li1130 O1188 1.978 . S
Li1130 O1190 1.956 . S
Li1130 O1191 1.947 1_565 S
Li1131 N1181 1.990 . S
Li1131 O1189 1.961 . S
Li1131 O1190 1.971 1_545 S
Li1131 O1191 1.956 . S
C1132 C1134 1.348 . S
C1132 C1135 1.356 . S
C1132 O1188 1.325 . S
N1133 C1136 1.314 . S
N1133 C1137 1.279 . S
C1134 C1132 1.348 . S
C1134 C1136 1.353 . S
C1134 H1192 0.929 . S
C1135 C1132 1.356 . S
C1135 C1137 1.358 . S
C1135 H1193 0.930 . S
C1136 N1133 1.314 . S
C1136 C1134 1.353 . S
C1136 H1194 0.930 . S
C1137 N1133 1.279 . S
C1137 C1135 1.358 . S
C1137 H1195 0.930 . S
C1138 C1141 1.348 1_545 S
C1138 C1142 1.356 . S
C1138 O1189 1.325 . S
C1139 N1140 1.279 . S
C1139 C1142 1.358 . S
C1139 H1196 0.930 . S
N1140 C1139 1.279 . S
N1140 C1143 1.314 1_545 S
C1141 C1138 1.348 1_565 S
C1141 C1143 1.353 . S
C1141 H1197 0.929 . S
C1142 C1138 1.356 . S
C1142 C1139 1.358 . S
C1142 H1198 0.930 . S
C1143 N1140 1.314 1_565 S
C1143 C1141 1.353 . S
C1143 H1199 0.930 . S
C1144 N1145 1.314 . S
C1144 C1149 1.353 . S
C1144 H1150 0.930 . S
N1145 Li1128 1.990 . S
N1145 C1144 1.314 . S
N1145 C1147 1.279 . S
C1146 C1147 1.358 . S
C1146 C1148 1.356 . S
C1146 H1200 0.930 . S
C1147 N1145 1.279 . S
C1147 C1146 1.358 . S
C1147 H1151 0.930 . S
C1148 C1146 1.356 . S
C1148 C1149 1.348 . S
C1149 C1144 1.353 . S
C1149 C1148 1.348 . S
C1149 H1201 0.929 . S
H1150 C1144 0.930 . S
H1151 C1147 0.930 . S
C1152 N1153 1.314 . S
C1152 C1154 1.353 . S
C1152 H1158 0.930 . S
N1153 Li1129 1.990 . S
N1153 C1152 1.314 . S
N1153 C1156 1.279 . S
C1154 C1152 1.353 . S
C1154 C1157 1.348 . S
C1154 H1202 0.929 . S
C1155 C1156 1.358 . S
C1155 C1157 1.356 . S
C1155 H1203 0.930 . S
C1156 N1153 1.279 . S
C1156 C1155 1.358 . S
C1156 H1159 0.930 . S
C1157 C1154 1.348 . S
C1157 C1155 1.356 . S
H1158 C1152 0.930 . S
H1159 C1156 0.930 . S
C1160 C1162 1.348 1_565 S
C1160 C1163 1.356 . S
C1160 O1190 1.325 . S
N1161 C1164 1.314 1_565 S
N1161 C1165 1.279 . S
C1162 C1160 1.348 1_545 S
C1162 C1164 1.353 . S
C1162 H1204 0.929 . S
C1163 C1160 1.356 . S
C1163 C1165 1.358 . S
C1163 H1205 0.930 . S
C1164 N1161 1.314 1_545 S
C1164 C1162 1.353 . S
C1164 H1206 0.930 . S
C1165 N1161 1.279 . S
C1165 C1163 1.358 . S
C1165 H1207 0.930 . S
C1166 C1167 1.348 . S
C1166 C1168 1.356 . S
C1166 O1191 1.325 . S
C1167 C1166 1.348 . S
C1167 C1169 1.353 . S
C1167 H1208 0.929 . S
C1168 C1166 1.356 . S
C1168 C1170 1.358 . S
C1168 H1209 0.930 . S
C1169 C1167 1.353 . S
C1169 N1171 1.314 . S
C1169 H1210 0.930 . S
C1170 C1168 1.358 . S
C1170 N1171 1.279 . S
C1170 H1211 0.930 . S
N1171 C1169 1.314 . S
N1171 C1170 1.279 . S
C1172 C1174 1.353 . S
C1172 N1175 1.314 . S
C1172 H1178 0.930 . S
C1173 N1175 1.279 . S
C1173 C1176 1.358 . S
C1173 H1179 0.932 1_565 S
C1174 C1172 1.353 . S
C1174 C1177 1.348 . S
C1174 H1212 0.929 . S
N1175 Li1130 1.995 . S
N1175 C1172 1.314 . S
N1175 C1173 1.279 . S
C1176 C1173 1.358 . S
C1176 C1177 1.356 . S
C1176 H1213 0.930 . S
C1177 C1174 1.348 . S
C1177 C1176 1.356 . S
H1178 C1172 0.930 . S
H1179 C1173 0.932 1_545 S
C1180 N1181 1.314 . S
C1180 C1182 1.353 . S
C1180 H1186 0.930 . S
N1181 Li1131 1.990 . S
N1181 C1180 1.314 . S
N1181 C1184 1.279 . S
C1182 C1180 1.353 . S
C1182 C1185 1.348 . S
C1182 H1214 0.929 . S
C1183 C1184 1.358 . S
C1183 C1185 1.356 . S
C1183 H1215 0.930 . S
C1184 N1181 1.279 . S
C1184 C1183 1.358 . S
C1184 H1187 0.930 . S
C1185 C1182 1.348 . S
C1185 C1183 1.356 . S
H1186 C1180 0.930 . S
H1187 C1184 0.930 . S
O1188 Li1128 1.956 . S
O1188 Li1129 1.970 1_565 S
O1188 Li1130 1.978 . S
O1188 C1132 1.325 . S
O1189 Li1128 1.970 1_545 S
O1189 Li1129 1.956 . S
O1189 Li1131 1.961 . S
O1189 C1138 1.325 . S
O1190 Li1128 1.960 . S
O1190 Li1130 1.956 . S
O1190 Li1131 1.971 1_565 S
O1190 C1160 1.325 . S
O1191 Li1129 1.961 . S
O1191 Li1130 1.947 1_545 S
O1191 Li1131 1.956 . S
O1191 C1166 1.325 . S
H1192 C1134 0.929 . S
H1193 C1135 0.930 . S
H1194 C1136 0.930 . S
H1195 C1137 0.930 . S
H1196 C1139 0.930 . S
H1197 C1141 0.929 . S
H1198 C1142 0.930 . S
H1199 C1143 0.930 . S
H1200 C1146 0.930 . S
H1201 C1149 0.929 . S
H1202 C1154 0.929 . S
H1203 C1155 0.930 . S
H1204 C1162 0.929 . S
H1205 C1163 0.930 . S
H1206 C1164 0.930 . S
H1207 C1165 0.930 . S
H1208 C1167 0.929 . S
H1209 C1168 0.930 . S
H1210 C1169 0.930 . S
H1211 C1170 0.930 . S
H1212 C1174 0.929 . S
H1213 C1176 0.930 . S
H1214 C1182 0.929 . S
H1215 C1183 0.930 . S
Li1216 N1233 1.990 . S
Li1216 O1276 1.956 . S
Li1216 O1277 1.970 . S
Li1216 O1278 1.961 . S
Li1217 N1241 1.990 1_455 S
Li1217 O1276 1.970 . S
Li1217 O1277 1.956 . S
Li1217 O1279 1.961 1_455 S
Li1218 N1263 1.990 . S
Li1218 O1276 1.961 . S
Li1218 O1278 1.956 . S
Li1218 O1279 1.970 1_455 S
Li1219 N1269 1.990 . S
Li1219 O1277 1.961 1_655 S
Li1219 O1278 1.970 1_655 S
Li1219 O1279 1.956 . S
C1220 C1222 1.348 . S
C1220 C1223 1.356 . S
C1220 O1276 1.325 . S
N1221 C1224 1.314 . S
N1221 C1225 1.279 . S
C1222 C1220 1.348 . S
C1222 C1224 1.353 . S
C1222 H1280 0.929 . S
C1223 C1220 1.356 . S
C1223 C1225 1.358 . S
C1223 H1281 0.930 . S
C1224 N1221 1.314 . S
C1224 C1222 1.353 . S
C1224 H1282 0.930 . S
C1225 N1221 1.279 . S
C1225 C1223 1.358 . S
C1225 H1283 0.930 . S
C1226 C1229 1.361 . S
C1226 C1230 1.341 1_455 S
C1226 O1277 1.327 . S
C1227 N1228 1.279 . S
C1227 C1230 1.358 . S
C1227 H1284 0.930 . S
N1228 C1227 1.279 . S
N1228 C1231 1.314 1_655 S
C1229 C1226 1.361 . S
C1229 C1231 1.353 . S
C1229 H1285 0.929 . S
C1230 C1226 1.341 1_655 S
C1230 C1227 1.358 . S
C1230 H1286 0.930 . S
C1231 N1228 1.314 1_455 S
C1231 C1229 1.353 . S
C1231 H1287 0.930 . S
C1232 N1233 1.314 . S
C1232 C1237 1.353 . S
C1232 H1238 0.930 . S
N1233 Li1216 1.990 . S
N1233 C1232 1.314 . S
N1233 C1235 1.279 . S
C1234 C1235 1.358 . S
C1234 C1236 1.356 . S
C1234 H1288 0.930 . S
C1235 N1233 1.279 . S
C1235 C1234 1.358 . S
C1235 H1239 0.930 . S
C1236 C1234 1.356 . S
C1236 C1237 1.348 . S
C1237 C1232 1.353 . S
C1237 C1236 1.348 . S
C1237 H1289 0.929 . S
H1238 C1232 0.930 . S
H1239 C1235 0.930 . S
C1240 N1241 1.314 . S
C1240 C1242 1.353 . S
C1240 H1246 0.930 . S
N1241 Li1217 1.990 1_655 S
N1241 C1240 1.314 . S
N1241 C1244 1.280 . S
C1242 C1240 1.353 . S
C1242 C1245 1.348 . S
C1242 H1290 0.929 . S
C1243 C1244 1.360 . S
C1243 C1245 1.356 . S
C1243 H1291 0.935 . S
C1244 N1241 1.280 . S
C1244 C1243 1.360 . S
C1244 H1247 0.928 1_655 S
C1245 C1242 1.348 . S
C1245 C1243 1.356 . S
H1246 C1240 0.930 . S
H1247 C1244 0.928 1_455 S
C1248 C1250 1.348 1_455 S
C1248 C1251 1.356 . S
C1248 O1278 1.325 . S
N1249 C1252 1.303 1_455 S
N1249 C1253 1.279 . S
C1250 C1248 1.348 1_655 S
C1250 C1252 1.356 . S
C1250 H1292 0.929 . S
C1251 C1248 1.356 . S
C1251 C1253 1.358 . S
C1251 H1293 0.930 . S
C1252 N1249 1.303 1_655 S
C1252 C1250 1.356 . S
C1252 H1294 0.940 . S
C1253 N1249 1.279 . S
C1253 C1251 1.358 . S
C1253 H1295 0.930 . S
C1254 C1255 1.348 . S
C1254 C1256 1.356 . S
C1254 O1279 1.325 . S
C1255 C1254 1.348 . S
C1255 C1257 1.353 . S
C1255 H1296 0.929 . S
C1256 C1254 1.356 . S
C1256 C1258 1.358 . S
C1256 H1297 0.930 . S
C1257 C1255 1.353 . S
C1257 N1259 1.314 . S
C1257 H1298 0.930 . S
C1258 C1256 1.358 . S
C1258 N1259 1.279 . S
C1258 H1299 0.930 . S
N1259 C1257 1.314 . S
N1259 C1258 1.279 . S
C1260 C1262 1.353 . S
C1260 N1263 1.314 . S
C1260 H1266 0.930 . S
C1261 N1263 1.279 . S
C1261 C1264 1.358 . S
C1261 H1267 0.930 . S
C1262 C1260 1.353 . S
C1262 C1265 1.348 . S
C1262 H1300 0.929 . S
N1263 Li1218 1.990 . S
N1263 C1260 1.314 . S
N1263 C1261 1.279 . S
C1264 C1261 1.358 . S
C1264 C1265 1.356 . S
C1264 H1301 0.930 . S
C1265 C1262 1.348 . S
C1265 C1264 1.356 . S
H1266 C1260 0.930 . S
H1267 C1261 0.930 . S
C1268 N1269 1.314 . S
C1268 C1270 1.353 . S
C1268 H1274 0.930 . S
N1269 Li1219 1.990 . S
N1269 C1268 1.314 . S
N1269 C1272 1.279 . S
C1270 C1268 1.353 . S
C1270 C1273 1.348 . S
C1270 H1302 0.929 . S
C1271 C1272 1.358 . S
C1271 C1273 1.356 . S
C1271 H1303 0.930 . S
C1272 N1269 1.279 . S
C1272 C1271 1.358 . S
C1272 H1275 0.930 . S
C1273 C1270 1.348 . S
C1273 C1271 1.356 . S
H1274 C1268 0.930 . S
H1275 C1272 0.930 . S
O1276 Li1216 1.956 . S
O1276 Li1217 1.970 . S
O1276 Li1218 1.961 . S
O1276 C1220 1.325 . S
O1277 Li1216 1.970 . S
O1277 Li1217 1.956 . S
O1277 Li1219 1.961 1_455 S
O1277 C1226 1.327 . S
O1278 Li1216 1.961 . S
O1278 Li1218 1.956 . S
O1278 Li1219 1.970 1_455 S
O1278 C1248 1.325 . S
O1279 Li1217 1.961 1_655 S
O1279 Li1218 1.970 1_655 S
O1279 Li1219 1.956 . S
O1279 C1254 1.325 . S
H1280 C1222 0.929 . S
H1281 C1223 0.930 . S
H1282 C1224 0.930 . S
H1283 C1225 0.930 . S
H1284 C1227 0.930 . S
H1285 C1229 0.929 . S
H1286 C1230 0.930 . S
H1287 C1231 0.930 . S
H1288 C1234 0.930 . S
H1289 C1237 0.929 . S
H1290 C1242 0.929 . S
H1291 C1243 0.935 . S
H1292 C1250 0.929 . S
H1293 C1251 0.930 . S
H1294 C1252 0.940 . S
H1295 C1253 0.930 . S
H1296 C1255 0.929 . S
H1297 C1256 0.930 . S
H1298 C1257 0.930 . S
H1299 C1258 0.930 . S
H1300 C1262 0.929 . S
H1301 C1264 0.930 . S
H1302 C1270 0.929 . S
H1303 C1271 0.930 . S
Li1304 N1321 1.990 . S
Li1304 O1364 1.956 . S
Li1304 O1365 1.970 . S
Li1304 O1366 1.961 . S
Li1305 N1329 1.990 . S
Li1305 O1364 1.970 . S
Li1305 O1365 1.956 . S
Li1305 O1367 1.961 . S
Li1306 N1351 1.990 . S
Li1306 O1364 1.961 . S
Li1306 O1366 1.956 . S
Li1306 O1367 1.970 . S
Li1307 N1357 1.990 . S
Li1307 O1365 1.961 . S
Li1307 O1366 1.970 . S
Li1307 O1367 1.956 . S
C1308 C1310 1.348 . S
C1308 C1311 1.356 . S
C1308 O1364 1.325 . S
N1309 C1312 1.314 . S
N1309 C1313 1.279 . S
C1310 C1308 1.348 . S
C1310 C1312 1.353 . S
C1310 H1368 0.929 . S
C1311 C1308 1.356 . S
C1311 C1313 1.358 . S
C1311 H1369 0.930 . S
C1312 N1309 1.314 . S
C1312 C1310 1.353 . S
C1312 H1370 0.930 . S
C1313 N1309 1.279 . S
C1313 C1311 1.358 . S
C1313 H1371 0.930 . S
C1314 C1317 1.348 . S
C1314 C1318 1.356 . S
C1314 O1365 1.325 . S
C1315 N1316 1.279 . S
C1315 C1318 1.358 . S
C1315 H1372 0.930 . S
N1316 C1315 1.279 . S
N1316 C1319 1.314 . S
C1317 C1314 1.348 . S
C1317 C1319 1.353 . S
C1317 H1373 0.929 . S
C1318 C1314 1.356 . S
C1318 C1315 1.358 . S
C1318 H1374 0.930 . S
C1319 N1316 1.314 . S
C1319 C1317 1.353 . S
C1319 H1375 0.930 . S
C1320 N1321 1.314 . S
C1320 C1325 1.353 . S
C1320 H1326 0.930 . S
N1321 Li1304 1.990 . S
N1321 C1320 1.314 . S
N1321 C1323 1.279 . S
C1322 C1323 1.358 . S
C1322 C1324 1.356 . S
C1322 H1376 0.930 . S
C1323 N1321 1.279 . S
C1323 C1322 1.358 . S
C1323 H1327 0.930 . S
C1324 C1322 1.356 . S
C1324 C1325 1.348 . S
C1325 C1320 1.353 . S
C1325 C1324 1.348 . S
C1325 H1377 0.929 . S
H1326 C1320 0.930 . S
H1327 C1323 0.930 . S
C1328 N1329 1.314 . S
C1328 C1330 1.353 . S
C1328 H1334 0.930 . S
N1329 Li1305 1.990 . S
N1329 C1328 1.314 . S
N1329 C1332 1.279 . S
C1330 C1328 1.353 . S
C1330 C1333 1.348 . S
C1330 H1378 0.929 . S
C1331 C1332 1.358 . S
C1331 C1333 1.356 . S
C1331 H1379 0.930 . S
C1332 N1329 1.279 . S
C1332 C1331 1.358 . S
C1332 H1335 0.930 . S
C1333 C1330 1.348 . S
C1333 C1331 1.356 . S
H1334 C1328 0.930 . S
H1335 C1332 0.930 . S
C1336 C1338 1.348 . S
C1336 C1339 1.356 . S
C1336 O1366 1.325 . S
N1337 C1340 1.314 . S
N1337 C1341 1.279 . S
C1338 C1336 1.348 . S
C1338 C1340 1.353 . S
C1338 H1380 0.929 . S
C1339 C1336 1.356 . S
C1339 C1341 1.358 . S
C1339 H1381 0.930 . S
C1340 N1337 1.314 . S
C1340 C1338 1.353 . S
C1340 H1382 0.930 . S
C1341 N1337 1.279 . S
C1341 C1339 1.358 . S
C1341 H1383 0.930 . S
C1342 C1343 1.348 . S
C1342 C1344 1.356 . S
C1342 O1367 1.325 . S
C1343 C1342 1.348 . S
C1343 C1345 1.353 . S
C1343 H1384 0.929 . S
C1344 C1342 1.356 . S
C1344 C1346 1.358 . S
C1344 H1385 0.930 . S
C1345 C1343 1.353 . S
C1345 N1347 1.314 . S
C1345 H1386 0.930 . S
C1346 C1344 1.358 . S
C1346 N1347 1.279 . S
C1346 H1387 0.930 . S
N1347 C1345 1.314 . S
N1347 C1346 1.279 . S
C1348 C1350 1.353 . S
C1348 N1351 1.314 . S
C1348 H1354 0.930 . S
C1349 N1351 1.279 . S
C1349 C1352 1.358 . S
C1349 H1355 0.930 . S
C1350 C1348 1.353 . S
C1350 C1353 1.348 . S
C1350 H1388 0.929 . S
N1351 Li1306 1.990 . S
N1351 C1348 1.314 . S
N1351 C1349 1.279 . S
C1352 C1349 1.358 . S
C1352 C1353 1.356 . S
C1352 H1389 0.930 . S
C1353 C1350 1.348 . S
C1353 C1352 1.356 . S
H1354 C1348 0.930 . S
H1355 C1349 0.930 . S
C1356 N1357 1.314 . S
C1356 C1358 1.353 . S
C1356 H1362 0.930 . S
N1357 Li1307 1.990 . S
N1357 C1356 1.314 . S
N1357 C1360 1.279 . S
C1358 C1356 1.353 . S
C1358 C1361 1.348 . S
C1358 H1390 0.929 . S
C1359 C1360 1.358 . S
C1359 C1361 1.356 . S
C1359 H1391 0.930 . S
C1360 N1357 1.279 . S
C1360 C1359 1.358 . S
C1360 H1363 0.930 . S
C1361 C1358 1.348 . S
C1361 C1359 1.356 . S
H1362 C1356 0.930 . S
H1363 C1360 0.930 . S
O1364 Li1304 1.956 . S
O1364 Li1305 1.970 . S
O1364 Li1306 1.961 . S
O1364 C1308 1.325 . S
O1365 Li1304 1.970 . S
O1365 Li1305 1.956 . S
O1365 Li1307 1.961 . S
O1365 C1314 1.325 . S
O1366 Li1304 1.961 . S
O1366 Li1306 1.956 . S
O1366 Li1307 1.970 . S
O1366 C1336 1.325 . S
O1367 Li1305 1.961 . S
O1367 Li1306 1.970 . S
O1367 Li1307 1.956 . S
O1367 C1342 1.325 . S
H1368 C1310 0.929 . S
H1369 C1311 0.930 . S
H1370 C1312 0.930 . S
H1371 C1313 0.930 . S
H1372 C1315 0.930 . S
H1373 C1317 0.929 . S
H1374 C1318 0.930 . S
H1375 C1319 0.930 . S
H1376 C1322 0.930 . S
H1377 C1325 0.929 . S
H1378 C1330 0.929 . S
H1379 C1331 0.930 . S
H1380 C1338 0.929 . S
H1381 C1339 0.930 . S
H1382 C1340 0.930 . S
H1383 C1341 0.930 . S
H1384 C1343 0.929 . S
H1385 C1344 0.930 . S
H1386 C1345 0.930 . S
H1387 C1346 0.930 . S
H1388 C1350 0.929 . S
H1389 C1352 0.930 . S
H1390 C1358 0.929 . S
H1391 C1359 0.930 . S
Li1392 N1409 1.990 . S
Li1392 O1452 1.956 . S
Li1392 O1453 1.970 1_455 S
Li1392 O1454 1.961 . S
Li1393 N1417 1.990 . S
Li1393 O1452 1.970 1_655 S
Li1393 O1453 1.956 . S
Li1393 O1455 1.961 . S
Li1394 N1439 1.990 . S
Li1394 O1452 1.961 . S
Li1394 O1454 1.956 . S
Li1394 O1455 1.970 1_455 S
Li1395 N1445 1.990 . S
Li1395 O1453 1.961 . S
Li1395 O1454 1.970 1_655 S
Li1395 O1455 1.956 . S
C1396 C1398 1.348 1_455 S
C1396 C1399 1.356 . S
C1396 O1452 1.325 . S
N1397 C1400 1.314 1_455 S
N1397 C1401 1.279 . S
C1398 C1396 1.348 1_655 S
C1398 C1400 1.353 . S
C1398 H1456 0.929 . S
C1399 C1396 1.356 . S
C1399 C1401 1.358 . S
C1399 H1457 0.930 . S
C1400 N1397 1.314 1_655 S
C1400 C1398 1.353 . S
C1400 H1458 0.930 . S
C1401 N1397 1.279 . S
C1401 C1399 1.358 . S
C1401 H1459 0.930 . S
C1402 C1405 1.348 . S
C1402 C1406 1.356 . S
C1402 O1453 1.325 . S
C1403 N1404 1.279 . S
C1403 C1406 1.358 . S
C1403 H1460 0.930 . S
N1404 C1403 1.279 . S
N1404 C1407 1.314 . S
C1405 C1402 1.348 . S
C1405 C1407 1.353 . S
C1405 H1461 0.929 . S
C1406 C1402 1.356 . S
C1406 C1403 1.358 . S
C1406 H1462 0.930 . S
C1407 N1404 1.314 . S
C1407 C1405 1.353 . S
C1407 H1463 0.930 . S
C1408 N1409 1.314 . S
C1408 C1413 1.353 . S
C1408 H1414 0.930 . S
N1409 Li1392 1.990 . S
N1409 C1408 1.314 . S
N1409 C1411 1.279 . S
C1410 C1411 1.358 . S
C1410 C1412 1.356 . S
C1410 H1464 0.930 . S
C1411 N1409 1.279 . S
C1411 C1410 1.358 . S
C1411 H1415 0.930 . S
C1412 C1410 1.356 . S
C1412 C1413 1.348 . S
C1413 C1408 1.353 . S
C1413 C1412 1.348 . S
C1413 H1465 0.929 . S
H1414 C1408 0.930 . S
H1415 C1411 0.930 . S
C1416 N1417 1.314 . S
C1416 C1418 1.353 . S
C1416 H1422 0.930 . S
N1417 Li1393 1.990 . S
N1417 C1416 1.314 . S
N1417 C1420 1.279 . S
C1418 C1416 1.353 . S
C1418 C1421 1.348 . S
C1418 H1466 0.929 . S
C1419 C1420 1.358 . S
C1419 C1421 1.356 . S
C1419 H1467 0.930 . S
C1420 N1417 1.279 . S
C1420 C1419 1.358 . S
C1420 H1423 0.930 . S
C1421 C1418 1.348 . S
C1421 C1419 1.356 . S
H1422 C1416 0.930 . S
H1423 C1420 0.930 . S
C1424 C1426 1.348 . S
C1424 C1427 1.356 . S
C1424 O1454 1.325 . S
N1425 C1428 1.314 . S
N1425 C1429 1.279 . S
C1426 C1424 1.348 . S
C1426 C1428 1.353 . S
C1426 H1468 0.929 . S
C1427 C1424 1.356 . S
C1427 C1429 1.358 . S
C1427 H1469 0.930 . S
C1428 N1425 1.314 . S
C1428 C1426 1.353 . S
C1428 H1470 0.930 . S
C1429 N1425 1.279 . S
C1429 C1427 1.358 . S
C1429 H1471 0.930 . S
C1430 C1431 1.348 1_655 S
C1430 C1432 1.356 . S
C1430 O1455 1.325 . S
C1431 C1430 1.348 1_455 S
C1431 C1433 1.353 . S
C1431 H1472 0.929 . S
C1432 C1430 1.356 . S
C1432 C1434 1.358 . S
C1432 H1473 0.930 . S
C1433 C1431 1.353 . S
C1433 N1435 1.314 1_455 S
C1433 H1474 0.930 . S
C1434 C1432 1.358 . S
C1434 N1435 1.279 . S
C1434 H1475 0.930 . S
N1435 C1433 1.314 1_655 S
N1435 C1434 1.279 . S
C1436 C1438 1.353 . S
C1436 N1439 1.314 . S
C1436 H1442 0.930 . S
C1437 N1439 1.279 . S
C1437 C1440 1.358 . S
C1437 H1443 0.930 . S
C1438 C1436 1.353 . S
C1438 C1441 1.348 . S
C1438 H1476 0.929 . S
N1439 Li1394 1.990 . S
N1439 C1436 1.314 . S
N1439 C1437 1.279 . S
C1440 C1437 1.358 . S
C1440 C1441 1.356 . S
C1440 H1477 0.930 . S
C1441 C1438 1.348 . S
C1441 C1440 1.356 . S
H1442 C1436 0.930 . S
H1443 C1437 0.930 . S
C1444 N1445 1.314 . S
C1444 C1446 1.353 . S
C1444 H1450 0.930 . S
N1445 Li1395 1.990 . S
N1445 C1444 1.314 . S
N1445 C1448 1.279 . S
C1446 C1444 1.353 . S
C1446 C1449 1.348 . S
C1446 H1478 0.929 . S
C1447 C1448 1.358 . S
C1447 C1449 1.356 . S
C1447 H1479 0.930 . S
C1448 N1445 1.279 . S
C1448 C1447 1.358 . S
C1448 H1451 0.930 . S
C1449 C1446 1.348 . S
C1449 C1447 1.356 . S
H1450 C1444 0.930 . S
H1451 C1448 0.930 . S
O1452 Li1392 1.956 . S
O1452 Li1393 1.970 1_455 S
O1452 Li1394 1.961 . S
O1452 C1396 1.325 . S
O1453 Li1392 1.970 1_655 S
O1453 Li1393 1.956 . S
O1453 Li1395 1.961 . S
O1453 C1402 1.325 . S
O1454 Li1392 1.961 . S
O1454 Li1394 1.956 . S
O1454 Li1395 1.970 1_455 S
O1454 C1424 1.325 . S
O1455 Li1393 1.961 . S
O1455 Li1394 1.970 1_655 S
O1455 Li1395 1.956 . S
O1455 C1430 1.325 . S
H1456 C1398 0.929 . S
H1457 C1399 0.930 . S
H1458 C1400 0.930 . S
H1459 C1401 0.930 . S
H1460 C1403 0.930 . S
H1461 C1405 0.929 . S
H1462 C1406 0.930 . S
H1463 C1407 0.930 . S
H1464 C1410 0.930 . S
H1465 C1413 0.929 . S
H1466 C1418 0.929 . S
H1467 C1419 0.930 . S
H1468 C1426 0.929 . S
H1469 C1427 0.930 . S
H1470 C1428 0.930 . S
H1471 C1429 0.930 . S
H1472 C1431 0.929 . S
H1473 C1432 0.930 . S
H1474 C1433 0.930 . S
H1475 C1434 0.930 . S
H1476 C1438 0.929 . S
H1477 C1440 0.930 . S
H1478 C1446 0.929 . S
H1479 C1447 0.930 . S
Li1480 N1497 1.990 . S
Li1480 O1540 1.956 . S
Li1480 O1541 1.970 . S
Li1480 O1542 1.961 . S
Li1481 N1505 1.990 . S
Li1481 O1540 1.970 . S
Li1481 O1541 1.956 . S
Li1481 O1543 1.961 . S
Li1482 N1527 1.990 . S
Li1482 O1540 1.961 . S
Li1482 O1542 1.956 . S
Li1482 O1543 1.970 . S
Li1483 N1533 1.990 . S
Li1483 O1541 1.961 . S
Li1483 O1542 1.970 . S
Li1483 O1543 1.956 . S
C1484 C1486 1.348 . S
C1484 C1487 1.356 . S
C1484 O1540 1.325 . S
N1485 C1488 1.314 . S
N1485 C1489 1.279 . S
C1486 C1484 1.348 . S
C1486 C1488 1.353 . S
C1486 H1544 0.929 . S
C1487 C1484 1.356 . S
C1487 C1489 1.358 . S
C1487 H1545 0.930 . S
C1488 N1485 1.314 . S
C1488 C1486 1.353 . S
C1488 H1546 0.930 . S
C1489 N1485 1.279 . S
C1489 C1487 1.358 . S
C1489 H1547 0.930 . S
C1490 C1493 1.348 . S
C1490 C1494 1.356 . S
C1490 O1541 1.325 . S
C1491 N1492 1.279 . S
C1491 C1494 1.358 . S
C1491 H1548 0.930 . S
N1492 C1491 1.279 . S
N1492 C1495 1.314 . S
C1493 C1490 1.348 . S
C1493 C1495 1.353 . S
C1493 H1549 0.929 . S
C1494 C1490 1.356 . S
C1494 C1491 1.358 . S
C1494 H1550 0.930 . S
C1495 N1492 1.314 . S
C1495 C1493 1.353 . S
C1495 H1551 0.930 . S
C1496 N1497 1.314 . S
C1496 C1501 1.353 . S
C1496 H1502 0.930 . S
N1497 Li1480 1.990 . S
N1497 C1496 1.314 . S
N1497 C1499 1.279 . S
C1498 C1499 1.358 . S
C1498 C1500 1.356 . S
C1498 H1552 0.930 . S
C1499 N1497 1.279 . S
C1499 C1498 1.358 . S
C1499 H1503 0.930 . S
C1500 C1498 1.356 . S
C1500 C1501 1.348 . S
C1501 C1496 1.353 . S
C1501 C1500 1.348 . S
C1501 H1553 0.929 . S
H1502 C1496 0.930 . S
H1503 C1499 0.930 . S
C1504 N1505 1.314 . S
C1504 C1506 1.353 . S
C1504 H1510 0.930 . S
N1505 Li1481 1.990 . S
N1505 C1504 1.314 . S
N1505 C1508 1.279 . S
C1506 C1504 1.353 . S
C1506 C1509 1.348 . S
C1506 H1554 0.929 . S
C1507 C1508 1.358 . S
C1507 C1509 1.356 . S
C1507 H1555 0.930 . S
C1508 N1505 1.279 . S
C1508 C1507 1.358 . S
C1508 H1511 0.930 . S
C1509 C1506 1.348 . S
C1509 C1507 1.356 . S
H1510 C1504 0.930 . S
H1511 C1508 0.930 . S
C1512 C1514 1.348 . S
C1512 C1515 1.356 . S
C1512 O1542 1.325 . S
N1513 C1516 1.314 . S
N1513 C1517 1.279 . S
C1514 C1512 1.348 . S
C1514 C1516 1.353 . S
C1514 H1556 0.929 . S
C1515 C1512 1.356 . S
C1515 C1517 1.358 . S
C1515 H1557 0.930 . S
C1516 N1513 1.314 . S
C1516 C1514 1.353 . S
C1516 H1558 0.930 . S
C1517 N1513 1.279 . S
C1517 C1515 1.358 . S
C1517 H1559 0.930 . S
C1518 C1519 1.348 . S
C1518 C1520 1.356 . S
C1518 O1543 1.325 . S
C1519 C1518 1.348 . S
C1519 C1521 1.353 . S
C1519 H1560 0.929 . S
C1520 C1518 1.356 . S
C1520 C1522 1.358 . S
C1520 H1561 0.930 . S
C1521 C1519 1.353 . S
C1521 N1523 1.314 . S
C1521 H1562 0.930 . S
C1522 C1520 1.358 . S
C1522 N1523 1.279 . S
C1522 H1563 0.930 . S
N1523 C1521 1.314 . S
N1523 C1522 1.279 . S
C1524 C1526 1.353 . S
C1524 N1527 1.314 . S
C1524 H1530 0.930 . S
C1525 N1527 1.279 . S
C1525 C1528 1.358 . S
C1525 H1531 0.930 . S
C1526 C1524 1.353 . S
C1526 C1529 1.348 . S
C1526 H1564 0.929 . S
N1527 Li1482 1.990 . S
N1527 C1524 1.314 . S
N1527 C1525 1.279 . S
C1528 C1525 1.358 . S
C1528 C1529 1.356 . S
C1528 H1565 0.930 . S
C1529 C1526 1.348 . S
C1529 C1528 1.356 . S
H1530 C1524 0.930 . S
H1531 C1525 0.930 . S
C1532 N1533 1.314 . S
C1532 C1534 1.353 . S
C1532 H1538 0.930 . S
N1533 Li1483 1.990 . S
N1533 C1532 1.314 . S
N1533 C1536 1.279 . S
C1534 C1532 1.353 . S
C1534 C1537 1.348 . S
C1534 H1566 0.929 . S
C1535 C1536 1.358 . S
C1535 C1537 1.356 . S
C1535 H1567 0.930 . S
C1536 N1533 1.279 . S
C1536 C1535 1.358 . S
C1536 H1539 0.930 . S
C1537 C1534 1.348 . S
C1537 C1535 1.356 . S
H1538 C1532 0.930 . S
H1539 C1536 0.930 . S
O1540 Li1480 1.956 . S
O1540 Li1481 1.970 . S
O1540 Li1482 1.961 . S
O1540 C1484 1.325 . S
O1541 Li1480 1.970 . S
O1541 Li1481 1.956 . S
O1541 Li1483 1.961 . S
O1541 C1490 1.325 . S
O1542 Li1480 1.961 . S
O1542 Li1482 1.956 . S
O1542 Li1483 1.970 . S
O1542 C1512 1.325 . S
O1543 Li1481 1.961 . S
O1543 Li1482 1.970 . S
O1543 Li1483 1.956 . S
O1543 C1518 1.325 . S
H1544 C1486 0.929 . S
H1545 C1487 0.930 . S
H1546 C1488 0.930 . S
H1547 C1489 0.930 . S
H1548 C1491 0.930 . S
H1549 C1493 0.929 . S
H1550 C1494 0.930 . S
H1551 C1495 0.930 . S
H1552 C1498 0.930 . S
H1553 C1501 0.929 . S
H1554 C1506 0.929 . S
H1555 C1507 0.930 . S
H1556 C1514 0.929 . S
H1557 C1515 0.930 . S
H1558 C1516 0.930 . S
H1559 C1517 0.930 . S
H1560 C1519 0.929 . S
H1561 C1520 0.930 . S
H1562 C1521 0.930 . S
H1563 C1522 0.930 . S
H1564 C1526 0.929 . S
H1565 C1528 0.930 . S
H1566 C1534 0.929 . S
H1567 C1535 0.930 . S
H1568 C1574 0.930 . S
H1569 C1578 0.930 . S
H1570 C1583 0.929 . S
H1571 C1581 0.929 . S
H1572 C1576 0.929 . S
H1573 C1582 0.929 . S
C1574 H1568 0.930 . S
C1574 C1575 1.367 . S
C1574 C1582 1.378 . S
C1575 C1574 1.367 . S
C1575 C1583 1.433 . S
C1576 H1572 0.929 . S
C1576 C1578 1.378 . S
C1576 C1580 1.350 . S
C1577 C1580 1.463 . S
C1577 C1582 1.350 . S
C1577 N1585 1.427 . S
C1578 H1569 0.930 . S
C1578 C1576 1.378 . S
C1578 C1579 1.367 . S
C1579 C1578 1.367 . S
C1579 C1581 1.433 . S
C1580 C1576 1.350 . S
C1580 C1577 1.463 . S
C1580 N1584 1.427 . S
C1581 H1571 0.929 . S
C1581 C1579 1.433 . S
C1581 N1584 1.384 . S
C1582 H1573 0.929 . S
C1582 C1574 1.378 . S
C1582 C1577 1.350 . S
C1583 H1570 0.929 . S
C1583 C1575 1.433 . S
C1583 N1585 1.384 . S
N1584 C1580 1.427 . S
N1584 C1581 1.384 . S
N1585 C1577 1.427 . S
N1585 C1583 1.384 . S
H1586 C1592 0.930 . S
H1587 C1596 0.930 . S
H1588 C1601 0.929 . S
H1589 C1599 0.929 . S
H1590 C1594 0.929 . S
H1591 C1600 0.929 . S
C1592 H1586 0.930 . S
C1592 C1593 1.367 . S
C1592 C1600 1.378 . S
C1593 C1592 1.367 . S
C1593 C1601 1.433 . S
C1594 H1590 0.929 . S
C1594 C1596 1.378 . S
C1594 C1598 1.350 . S
C1595 C1598 1.463 . S
C1595 C1600 1.350 . S
C1595 N1603 1.427 . S
C1596 H1587 0.930 . S
C1596 C1594 1.378 . S
C1596 C1597 1.367 . S
C1597 C1596 1.367 . S
C1597 C1599 1.433 . S
C1598 C1594 1.350 . S
C1598 C1595 1.463 . S
C1598 N1602 1.427 . S
C1599 H1589 0.929 . S
C1599 C1597 1.433 . S
C1599 N1602 1.384 . S
C1600 H1591 0.929 . S
C1600 C1592 1.378 . S
C1600 C1595 1.350 . S
C1601 H1588 0.929 . S
C1601 C1593 1.433 . S
C1601 N1603 1.384 . S
N1602 C1598 1.427 . S
N1602 C1599 1.384 . S
N1603 C1595 1.427 . S
N1603 C1601 1.384 . S
H1604 C1610 0.930 . S
H1605 C1614 0.930 . S
H1606 C1619 0.929 . S
H1607 C1617 0.929 . S
H1608 C1612 0.929 . S
H1609 C1618 0.929 . S
C1610 H1604 0.930 . S
C1610 C1611 1.367 . S
C1610 C1618 1.378 . S
C1611 C1610 1.367 . S
C1611 C1619 1.433 . S
C1612 H1608 0.929 . S
C1612 C1614 1.378 . S
C1612 C1616 1.350 . S
C1613 C1616 1.463 . S
C1613 C1618 1.350 . S
C1613 N1621 1.427 . S
C1614 H1605 0.930 . S
C1614 C1612 1.378 . S
C1614 C1615 1.367 . S
C1615 C1614 1.367 . S
C1615 C1617 1.433 . S
C1616 C1612 1.350 . S
C1616 C1613 1.463 . S
C1616 N1620 1.427 . S
C1617 H1607 0.929 . S
C1617 C1615 1.433 . S
C1617 N1620 1.384 . S
C1618 H1609 0.929 . S
C1618 C1610 1.378 . S
C1618 C1613 1.350 . S
C1619 H1606 0.929 . S
C1619 C1611 1.433 . S
C1619 N1621 1.384 . S
N1620 C1616 1.427 . S
N1620 C1617 1.384 . S
N1621 C1613 1.427 . S
N1621 C1619 1.384 . S
H1622 C1628 0.930 1_545 S
H1623 C1632 0.930 . S
H1624 C1637 0.929 . S
H1625 C1635 0.929 . S
H1626 C1630 0.929 . S
H1627 C1636 0.901 1_545 S
C1628 H1622 0.930 1_565 S
C1628 C1629 1.367 . S
C1628 C1636 1.381 . S
C1629 C1628 1.367 . S
C1629 C1637 1.433 . S
C1630 H1626 0.929 . S
C1630 C1632 1.378 . S
C1630 C1634 1.350 . S
C1631 C1634 1.463 . S
C1631 C1636 1.375 . S
C1631 N1639 1.427 . S
C1632 H1623 0.930 . S
C1632 C1630 1.378 . S
C1632 C1633 1.367 . S
C1633 C1632 1.367 . S
C1633 C1635 1.433 1_565 S
C1634 C1630 1.350 . S
C1634 C1631 1.463 . S
C1634 N1638 1.427 1_565 S
C1635 H1625 0.929 . S
C1635 C1633 1.433 1_545 S
C1635 N1638 1.384 . S
C1636 H1627 0.901 1_565 S
C1636 C1628 1.381 . S
C1636 C1631 1.375 . S
C1637 H1624 0.929 . S
C1637 C1629 1.433 . S
C1637 N1639 1.384 . S
N1638 C1634 1.427 1_545 S
N1638 C1635 1.384 . S
N1639 C1631 1.427 . S
N1639 C1637 1.384 . S
H1640 C1646 0.930 . S
H1641 C1650 0.930 . S
H1642 C1655 0.929 . S
H1643 C1653 0.929 . S
H1644 C1648 0.929 . S
H1645 C1654 0.929 . S
C1646 H1640 0.930 . S
C1646 C1647 1.367 . S
C1646 C1654 1.378 . S
C1647 C1646 1.367 . S
C1647 C1655 1.433 . S
C1648 H1644 0.929 . S
C1648 C1650 1.378 . S
C1648 C1652 1.350 . S
C1649 C1652 1.463 . S
C1649 C1654 1.350 . S
C1649 N1657 1.427 . S
C1650 H1641 0.930 . S
C1650 C1648 1.378 . S
C1650 C1651 1.367 . S
C1651 C1650 1.367 . S
C1651 C1653 1.433 . S
C1652 C1648 1.350 . S
C1652 C1649 1.463 . S
C1652 N1656 1.427 . S
C1653 H1643 0.929 . S
C1653 C1651 1.433 . S
C1653 N1656 1.384 . S
C1654 H1645 0.929 . S
C1654 C1646 1.378 . S
C1654 C1649 1.350 . S
C1655 H1642 0.929 . S
C1655 C1647 1.433 . S
C1655 N1657 1.384 . S
N1656 C1652 1.427 . S
N1656 C1653 1.384 . S
N1657 C1649 1.427 . S
N1657 C1655 1.384 . S
H1658 C1664 0.930 . S
H1659 C1668 0.930 . S
H1660 C1673 0.929 . S
H1661 C1671 0.929 . S
H1662 C1666 0.929 . S
H1663 C1672 0.929 . S
C1664 H1658 0.930 . S
C1664 C1665 1.367 . S
C1664 C1672 1.378 . S
C1665 C1664 1.367 . S
C1665 C1673 1.433 . S
C1666 H1662 0.929 . S
C1666 C1668 1.378 . S
C1666 C1670 1.350 . S
C1667 C1670 1.463 . S
C1667 C1672 1.350 . S
C1667 N1675 1.427 . S
C1668 H1659 0.930 . S
C1668 C1666 1.378 . S
C1668 C1669 1.367 . S
C1669 C1668 1.367 . S
C1669 C1671 1.433 . S
C1670 C1666 1.350 . S
C1670 C1667 1.463 . S
C1670 N1674 1.427 . S
C1671 H1661 0.929 . S
C1671 C1669 1.433 . S
C1671 N1674 1.384 . S
C1672 H1663 0.929 . S
C1672 C1664 1.378 . S
C1672 C1667 1.350 . S
C1673 H1660 0.929 . S
C1673 C1665 1.433 . S
C1673 N1675 1.384 . S
N1674 C1670 1.427 . S
N1674 C1671 1.384 . S
N1675 C1667 1.427 . S
N1675 C1673 1.384 . S
H1676 C1682 0.930 . S
H1677 C1686 0.930 . S
H1678 C1691 0.929 . S
H1679 C1689 0.929 . S
H1680 C1684 0.929 . S
H1681 C1690 0.929 . S
C1682 H1676 0.930 . S
C1682 C1683 1.367 . S
C1682 C1690 1.378 . S
C1683 C1682 1.367 . S
C1683 C1691 1.433 . S
C1684 H1680 0.929 . S
C1684 C1686 1.378 . S
C1684 C1688 1.350 . S
C1685 C1688 1.463 . S
C1685 C1690 1.350 . S
C1685 N1693 1.427 . S
C1686 H1677 0.930 . S
C1686 C1684 1.378 . S
C1686 C1687 1.367 . S
C1687 C1686 1.367 . S
C1687 C1689 1.433 . S
C1688 C1684 1.350 . S
C1688 C1685 1.463 . S
C1688 N1692 1.427 . S
C1689 H1679 0.929 . S
C1689 C1687 1.433 . S
C1689 N1692 1.384 . S
C1690 H1681 0.929 . S
C1690 C1682 1.378 . S
C1690 C1685 1.350 . S
C1691 H1678 0.929 . S
C1691 C1683 1.433 . S
C1691 N1693 1.384 . S
N1692 C1688 1.427 . S
N1692 C1689 1.384 . S
N1693 C1685 1.427 . S
N1693 C1691 1.384 . S
H1694 C1700 0.930 . S
H1695 C1704 0.930 . S
H1696 C1709 0.929 1_545 S
H1697 C1707 0.929 . S
H1698 C1702 0.929 . S
H1699 C1708 0.929 . S
C1700 H1694 0.930 . S
C1700 C1701 1.367 . S
C1700 C1708 1.378 . S
C1701 C1700 1.367 . S
C1701 C1709 1.433 . S
C1702 H1698 0.929 . S
C1702 C1704 1.378 . S
C1702 C1706 1.350 1_545 S
C1703 C1706 1.463 . S
C1703 C1708 1.350 . S
C1703 N1711 1.398 1_565 S
C1704 H1695 0.930 . S
C1704 C1702 1.378 . S
C1704 C1705 1.367 1_545 S
C1705 C1704 1.367 1_565 S
C1705 C1707 1.433 . S
C1706 C1702 1.350 1_565 S
C1706 C1703 1.463 . S
C1706 N1710 1.427 . S
C1707 H1697 0.929 . S
C1707 C1705 1.433 . S
C1707 N1710 1.384 . S
C1708 H1699 0.929 . S
C1708 C1700 1.378 . S
C1708 C1703 1.350 . S
C1709 H1696 0.929 1_565 S
C1709 C1701 1.433 . S
C1709 N1711 1.381 1_565 S
N1710 C1706 1.427 . S
N1710 C1707 1.384 . S
N1711 C1703 1.398 1_545 S
N1711 C1709 1.381 1_545 S
H1712 C1718 0.930 . S
H1713 C1722 0.930 . S
H1714 C1727 0.929 . S
H1715 C1725 0.929 . S
H1716 C1720 0.929 . S
H1717 C1726 0.929 . S
C1718 H1712 0.930 . S
C1718 C1719 1.367 . S
C1718 C1726 1.378 . S
C1719 C1718 1.367 . S
C1719 C1727 1.433 . S
C1720 H1716 0.929 . S
C1720 C1722 1.378 . S
C1720 C1724 1.350 . S
C1721 C1724 1.463 . S
C1721 C1726 1.350 . S
C1721 N1729 1.427 . S
C1722 H1713 0.930 . S
C1722 C1720 1.378 . S
C1722 C1723 1.367 . S
C1723 C1722 1.367 . S
C1723 C1725 1.433 . S
C1724 C1720 1.350 . S
C1724 C1721 1.463 . S
C1724 N1728 1.427 . S
C1725 H1715 0.929 . S
C1725 C1723 1.433 . S
C1725 N1728 1.384 . S
C1726 H1717 0.929 . S
C1726 C1718 1.378 . S
C1726 C1721 1.350 . S
C1727 H1714 0.929 . S
C1727 C1719 1.433 . S
C1727 N1729 1.384 . S
N1728 C1724 1.427 . S
N1728 C1725 1.384 . S
N1729 C1721 1.427 . S
N1729 C1727 1.384 . S
H1730 C1736 0.930 . S
H1731 C1740 0.930 . S
H1732 C1745 0.929 . S
H1733 C1743 0.929 . S
H1734 C1738 0.929 . S
H1735 C1744 0.929 . S
C1736 H1730 0.930 . S
C1736 C1737 1.367 . S
C1736 C1744 1.378 . S
C1737 C1736 1.367 . S
C1737 C1745 1.433 . S
C1738 H1734 0.929 . S
C1738 C1740 1.378 . S
C1738 C1742 1.350 . S
C1739 C1742 1.463 . S
C1739 C1744 1.350 . S
C1739 N1747 1.427 . S
C1740 H1731 0.930 . S
C1740 C1738 1.378 . S
C1740 C1741 1.367 . S
C1741 C1740 1.367 . S
C1741 C1743 1.433 . S
C1742 C1738 1.350 . S
C1742 C1739 1.463 . S
C1742 N1746 1.427 . S
C1743 H1733 0.929 . S
C1743 C1741 1.433 . S
C1743 N1746 1.384 . S
C1744 H1735 0.929 . S
C1744 C1736 1.378 . S
C1744 C1739 1.350 . S
C1745 H1732 0.929 . S
C1745 C1737 1.433 . S
C1745 N1747 1.384 . S
N1746 C1742 1.427 . S
N1746 C1743 1.384 . S
N1747 C1739 1.427 . S
N1747 C1745 1.384 . S
H1748 C1754 0.930 . S
H1749 C1758 0.930 . S
H1750 C1763 0.929 . S
H1751 C1761 0.929 . S
H1752 C1756 0.929 . S
H1753 C1762 0.929 . S
C1754 H1748 0.930 . S
C1754 C1755 1.367 . S
C1754 C1762 1.378 . S
C1755 C1754 1.367 . S
C1755 C1763 1.433 . S
C1756 H1752 0.929 . S
C1756 C1758 1.378 . S
C1756 C1760 1.350 . S
C1757 C1760 1.463 . S
C1757 C1762 1.350 . S
C1757 N1765 1.427 . S
C1758 H1749 0.930 . S
C1758 C1756 1.378 . S
C1758 C1759 1.367 . S
C1759 C1758 1.367 . S
C1759 C1761 1.433 . S
C1760 C1756 1.350 . S
C1760 C1757 1.463 . S
C1760 N1764 1.427 . S
C1761 H1751 0.929 . S
C1761 C1759 1.433 . S
C1761 N1764 1.384 . S
C1762 H1753 0.929 . S
C1762 C1754 1.378 . S
C1762 C1757 1.350 . S
C1763 H1750 0.929 . S
C1763 C1755 1.433 . S
C1763 N1765 1.384 . S
N1764 C1760 1.427 . S
N1764 C1761 1.384 . S
N1765 C1757 1.427 . S
N1765 C1763 1.384 . S
H1766 C1772 0.930 . S
H1767 C1776 0.930 . S
H1768 C1781 0.929 . S
H1769 C1779 0.929 . S
H1770 C1774 0.929 . S
H1771 C1780 0.929 . S
C1772 H1766 0.930 . S
C1772 C1773 1.367 . S
C1772 C1780 1.378 . S
C1773 C1772 1.367 . S
C1773 C1781 1.433 . S
C1774 H1770 0.929 . S
C1774 C1776 1.378 . S
C1774 C1778 1.350 . S
C1775 C1778 1.463 . S
C1775 C1780 1.350 . S
C1775 N1783 1.427 . S
C1776 H1767 0.930 . S
C1776 C1774 1.378 . S
C1776 C1777 1.367 . S
C1777 C1776 1.367 . S
C1777 C1779 1.433 . S
C1778 C1774 1.350 . S
C1778 C1775 1.463 . S
C1778 N1782 1.427 . S
C1779 H1769 0.929 . S
C1779 C1777 1.433 . S
C1779 N1782 1.384 . S
C1780 H1771 0.929 . S
C1780 C1772 1.378 . S
C1780 C1775 1.350 . S
C1781 H1768 0.929 . S
C1781 C1773 1.433 . S
C1781 N1783 1.384 . S
N1782 C1778 1.427 . S
N1782 C1779 1.384 . S
N1783 C1775 1.427 . S
N1783 C1781 1.384 . S
H1784 C1790 0.930 . S
H1785 C1794 0.930 . S
H1786 C1799 0.929 . S
H1787 C1797 0.929 . S
H1788 C1792 0.929 . S
H1789 C1798 0.929 . S
C1790 H1784 0.930 . S
C1790 C1791 1.367 . S
C1790 C1798 1.378 . S
C1791 C1790 1.367 . S
C1791 C1799 1.433 . S
C1792 H1788 0.929 . S
C1792 C1794 1.378 . S
C1792 C1796 1.350 . S
C1793 C1796 1.463 . S
C1793 C1798 1.350 . S
C1793 N1801 1.427 . S
C1794 H1785 0.930 . S
C1794 C1792 1.378 . S
C1794 C1795 1.367 . S
C1795 C1794 1.367 . S
C1795 C1797 1.433 . S
C1796 C1792 1.350 . S
C1796 C1793 1.463 . S
C1796 N1800 1.427 . S
C1797 H1787 0.929 . S
C1797 C1795 1.433 . S
C1797 N1800 1.384 . S
C1798 H1789 0.929 . S
C1798 C1790 1.378 . S
C1798 C1793 1.350 . S
C1799 H1786 0.929 . S
C1799 C1791 1.433 . S
C1799 N1801 1.384 . S
N1800 C1796 1.427 . S
N1800 C1797 1.384 . S
N1801 C1793 1.427 . S
N1801 C1799 1.384 . S
H1802 C1808 0.930 . S
H1803 C1812 0.930 . S
H1804 C1817 0.929 . S
H1805 C1815 0.929 1_655 S
H1806 C1810 0.929 . S
H1807 C1816 0.929 1_655 S
C1808 H1802 0.930 . S
C1808 C1809 1.367 . S
C1808 C1816 1.378 . S
C1809 C1808 1.367 . S
C1809 C1817 1.433 . S
C1810 H1806 0.929 . S
C1810 C1812 1.378 . S
C1810 C1814 1.350 . S
C1811 C1814 1.463 . S
C1811 C1816 1.350 . S
C1811 N1819 1.427 . S
C1812 H1803 0.930 . S
C1812 C1810 1.378 . S
C1812 C1813 1.367 . S
C1813 C1812 1.367 . S
C1813 C1815 1.433 . S
C1814 C1810 1.350 . S
C1814 C1811 1.463 . S
C1814 N1818 1.427 . S
C1815 H1805 0.929 1_455 S
C1815 C1813 1.433 . S
C1815 N1818 1.384 . S
C1816 H1807 0.929 1_455 S
C1816 C1808 1.378 . S
C1816 C1811 1.350 . S
C1817 H1804 0.929 . S
C1817 C1809 1.433 . S
C1817 N1819 1.384 . S
N1818 C1814 1.427 . S
N1818 C1815 1.384 . S
N1819 C1811 1.427 . S
N1819 C1817 1.384 . S
H1820 C1826 0.930 . S
H1821 C1830 0.930 . S
H1822 C1835 0.929 . S
H1823 C1833 0.929 . S
H1824 C1828 0.929 . S
H1825 C1834 0.929 . S
C1826 H1820 0.930 . S
C1826 C1827 1.367 . S
C1826 C1834 1.378 . S
C1827 C1826 1.367 . S
C1827 C1835 1.433 . S
C1828 H1824 0.929 . S
C1828 C1830 1.378 . S
C1828 C1832 1.350 . S
C1829 C1832 1.463 . S
C1829 C1834 1.350 . S
C1829 N1837 1.427 . S
C1830 H1821 0.930 . S
C1830 C1828 1.378 . S
C1830 C1831 1.367 . S
C1831 C1830 1.367 . S
C1831 C1833 1.433 . S
C1832 C1828 1.350 . S
C1832 C1829 1.463 . S
C1832 N1836 1.427 . S
C1833 H1823 0.929 . S
C1833 C1831 1.433 . S
C1833 N1836 1.384 . S
C1834 H1825 0.929 . S
C1834 C1826 1.378 . S
C1834 C1829 1.350 . S
C1835 H1822 0.929 . S
C1835 C1827 1.433 . S
C1835 N1837 1.384 . S
N1836 C1832 1.427 . S
N1836 C1833 1.384 . S
N1837 C1829 1.427 . S
N1837 C1835 1.384 . S
H1838 C1844 0.930 1_455 S
H1839 C1848 0.930 . S
H1840 C1853 0.929 . S
H1841 C1851 0.929 . S
H1842 C1846 0.929 . S
H1843 C1852 0.929 1_455 S
C1844 H1838 0.930 1_655 S
C1844 C1845 1.367 . S
C1844 C1852 1.378 . S
C1845 C1844 1.367 . S
C1845 C1853 1.433 . S
C1846 H1842 0.929 . S
C1846 C1848 1.378 . S
C1846 C1850 1.350 . S
C1847 C1850 1.463 . S
C1847 C1852 1.350 . S
C1847 N1855 1.427 . S
C1848 H1839 0.930 . S
C1848 C1846 1.378 . S
C1848 C1849 1.367 . S
C1849 C1848 1.367 . S
C1849 C1851 1.433 1_655 S
C1850 C1846 1.350 . S
C1850 C1847 1.463 . S
C1850 N1854 1.388 1_655 S
C1851 H1841 0.929 . S
C1851 C1849 1.433 1_455 S
C1851 N1854 1.389 . S
C1852 H1843 0.929 1_655 S
C1852 C1844 1.378 . S
C1852 C1847 1.350 . S
C1853 H1840 0.929 . S
C1853 C1845 1.433 . S
C1853 N1855 1.384 . S
N1854 C1850 1.388 1_455 S
N1854 C1851 1.389 . S
N1855 C1847 1.427 . S
N1855 C1853 1.384 . S
H1856 C1862 0.930 . S
H1857 C1866 0.930 . S
H1858 C1871 0.929 . S
H1859 C1869 0.929 . S
H1860 C1864 0.929 . S
H1861 C1870 0.929 . S
C1862 H1856 0.930 . S
C1862 C1863 1.367 . S
C1862 C1870 1.378 . S
C1863 C1862 1.367 . S
C1863 C1871 1.433 . S
C1864 H1860 0.929 . S
C1864 C1866 1.378 . S
C1864 C1868 1.350 . S
C1865 C1868 1.463 . S
C1865 C1870 1.350 . S
C1865 N1873 1.427 . S
C1866 H1857 0.930 . S
C1866 C1864 1.378 . S
C1866 C1867 1.367 . S
C1867 C1866 1.367 . S
C1867 C1869 1.433 . S
C1868 C1864 1.350 . S
C1868 C1865 1.463 . S
C1868 N1872 1.427 . S
C1869 H1859 0.929 . S
C1869 C1867 1.433 . S
C1869 N1872 1.384 . S
C1870 H1861 0.929 . S
C1870 C1862 1.378 . S
C1870 C1865 1.350 . S
C1871 H1858 0.929 . S
C1871 C1863 1.433 . S
C1871 N1873 1.384 . S
N1872 C1868 1.427 . S
N1872 C1869 1.384 . S
N1873 C1865 1.427 . S
N1873 C1871 1.384 . S
H1874 C1880 0.930 . S
H1875 C1884 0.930 . S
H1876 C1889 0.929 . S
H1877 C1887 0.929 . S
H1878 C1882 0.929 . S
H1879 C1888 0.929 . S
C1880 H1874 0.930 . S
C1880 C1881 1.367 . S
C1880 C1888 1.378 . S
C1881 C1880 1.367 . S
C1881 C1889 1.433 . S
C1882 H1878 0.929 . S
C1882 C1884 1.378 . S
C1882 C1886 1.350 . S
C1883 C1886 1.463 . S
C1883 C1888 1.350 . S
C1883 N1891 1.427 . S
C1884 H1875 0.930 . S
C1884 C1882 1.378 . S
C1884 C1885 1.367 . S
C1885 C1884 1.367 . S
C1885 C1887 1.433 . S
C1886 C1882 1.350 . S
C1886 C1883 1.463 . S
C1886 N1890 1.427 . S
C1887 H1877 0.929 . S
C1887 C1885 1.433 . S
C1887 N1890 1.384 . S
C1888 H1879 0.929 . S
C1888 C1880 1.378 . S
C1888 C1883 1.350 . S
C1889 H1876 0.929 . S
C1889 C1881 1.433 . S
C1889 N1891 1.384 . S
N1890 C1886 1.427 . S
N1890 C1887 1.384 . S
N1891 C1883 1.427 . S
N1891 C1889 1.384 . S
H1892 C1898 0.930 1_545 S
H1893 C1902 0.930 . S
H1894 C1907 0.929 . S
H1895 C1905 0.929 . S
H1896 C1900 0.929 . S
H1897 C1906 0.929 . S
C1898 H1892 0.930 1_565 S
C1898 C1899 1.367 . S
C1898 C1906 1.378 . S
C1899 C1898 1.367 . S
C1899 C1907 1.433 . S
C1900 H1896 0.929 . S
C1900 C1902 1.378 . S
C1900 C1904 1.350 . S
C1901 C1904 1.463 . S
C1901 C1906 1.350 . S
C1901 N1909 1.427 . S
C1902 H1893 0.930 . S
C1902 C1900 1.378 . S
C1902 C1903 1.367 . S
C1903 C1902 1.367 . S
C1903 C1905 1.433 . S
C1904 C1900 1.350 . S
C1904 C1901 1.463 . S
C1904 N1908 1.427 . S
C1905 H1895 0.929 . S
C1905 C1903 1.433 . S
C1905 N1908 1.384 . S
C1906 H1897 0.929 . S
C1906 C1898 1.378 . S
C1906 C1901 1.350 . S
C1907 H1894 0.929 . S
C1907 C1899 1.433 . S
C1907 N1909 1.384 . S
N1908 C1904 1.427 . S
N1908 C1905 1.384 . S
N1909 C1901 1.427 . S
N1909 C1907 1.384 . S
H1910 C1916 0.930 . S
H1911 C1920 0.930 . S
H1912 C1925 0.929 . S
H1913 C1923 0.929 . S
H1914 C1918 0.929 . S
H1915 C1924 0.929 . S
C1916 H1910 0.930 . S
C1916 C1917 1.367 . S
C1916 C1924 1.378 . S
C1917 C1916 1.367 . S
C1917 C1925 1.433 . S
C1918 H1914 0.929 . S
C1918 C1920 1.378 . S
C1918 C1922 1.350 . S
C1919 C1922 1.463 . S
C1919 C1924 1.350 . S
C1919 N1927 1.427 . S
C1920 H1911 0.930 . S
C1920 C1918 1.378 . S
C1920 C1921 1.367 . S
C1921 C1920 1.367 . S
C1921 C1923 1.433 . S
C1922 C1918 1.350 . S
C1922 C1919 1.463 . S
C1922 N1926 1.427 . S
C1923 H1913 0.929 . S
C1923 C1921 1.433 . S
C1923 N1926 1.384 . S
C1924 H1915 0.929 . S
C1924 C1916 1.378 . S
C1924 C1919 1.350 . S
C1925 H1912 0.929 . S
C1925 C1917 1.433 . S
C1925 N1927 1.384 . S
N1926 C1922 1.427 . S
N1926 C1923 1.384 . S
N1927 C1919 1.427 . S
N1927 C1925 1.384 . S
H1928 C1934 0.930 . S
H1929 C1938 0.930 . S
H1930 C1943 0.929 . S
H1931 C1941 0.929 . S
H1932 C1936 0.929 . S
H1933 C1942 0.929 . S
C1934 H1928 0.930 . S
C1934 C1935 1.367 . S
C1934 C1942 1.378 . S
C1935 C1934 1.367 . S
C1935 C1943 1.433 . S
C1936 H1932 0.929 . S
C1936 C1938 1.378 . S
C1936 C1940 1.350 . S
C1937 C1940 1.463 . S
C1937 C1942 1.350 . S
C1937 N1945 1.427 . S
C1938 H1929 0.930 . S
C1938 C1936 1.378 . S
C1938 C1939 1.367 . S
C1939 C1938 1.367 . S
C1939 C1941 1.433 . S
C1940 C1936 1.350 . S
C1940 C1937 1.463 . S
C1940 N1944 1.427 . S
C1941 H1931 0.929 . S
C1941 C1939 1.433 . S
C1941 N1944 1.384 . S
C1942 H1933 0.929 . S
C1942 C1934 1.378 . S
C1942 C1937 1.350 . S
C1943 H1930 0.929 . S
C1943 C1935 1.433 . S
C1943 N1945 1.384 . S
N1944 C1940 1.427 . S
N1944 C1941 1.384 . S
N1945 C1937 1.427 . S
N1945 C1943 1.384 . S
H1946 C1952 0.930 . S
H1947 C1956 0.930 . S
H1948 C1961 0.929 . S
H1949 C1959 0.929 . S
H1950 C1954 0.929 . S
H1951 C1960 0.929 . S
C1952 H1946 0.930 . S
C1952 C1953 1.367 . S
C1952 C1960 1.378 . S
C1953 C1952 1.367 . S
C1953 C1961 1.433 . S
C1954 H1950 0.929 . S
C1954 C1956 1.378 . S
C1954 C1958 1.350 . S
C1955 C1958 1.463 . S
C1955 C1960 1.350 . S
C1955 N1963 1.427 . S
C1956 H1947 0.930 . S
C1956 C1954 1.378 . S
C1956 C1957 1.367 . S
C1957 C1956 1.367 . S
C1957 C1959 1.433 . S
C1958 C1954 1.350 . S
C1958 C1955 1.463 . S
C1958 N1962 1.427 . S
C1959 H1949 0.929 . S
C1959 C1957 1.433 . S
C1959 N1962 1.384 . S
C1960 H1951 0.929 . S
C1960 C1952 1.378 . S
C1960 C1955 1.350 . S
C1961 H1948 0.929 . S
C1961 C1953 1.433 . S
C1961 N1963 1.384 . S
N1962 C1958 1.427 . S
N1962 C1959 1.384 . S
N1963 C1955 1.427 . S
N1963 C1961 1.384 . S
H1964 C1970 0.930 . S
H1965 C1974 0.930 . S
H1966 C1979 0.929 . S
H1967 C1977 0.929 . S
H1968 C1972 0.929 . S
H1969 C1978 0.929 . S
C1970 H1964 0.930 . S
C1970 C1971 1.367 . S
C1970 C1978 1.378 . S
C1971 C1970 1.367 . S
C1971 C1979 1.433 . S
C1972 H1968 0.929 . S
C1972 C1974 1.378 . S
C1972 C1976 1.350 . S
C1973 C1976 1.463 . S
C1973 C1978 1.350 . S
C1973 N1981 1.427 . S
C1974 H1965 0.930 . S
C1974 C1972 1.378 . S
C1974 C1975 1.367 . S
C1975 C1974 1.367 . S
C1975 C1977 1.433 . S
C1976 C1972 1.350 . S
C1976 C1973 1.463 . S
C1976 N1980 1.427 . S
C1977 H1967 0.929 . S
C1977 C1975 1.433 . S
C1977 N1980 1.384 . S
C1978 H1969 0.929 . S
C1978 C1970 1.378 . S
C1978 C1973 1.350 . S
C1979 H1966 0.929 . S
C1979 C1971 1.433 . S
C1979 N1981 1.384 . S
N1980 C1976 1.427 . S
N1980 C1977 1.384 . S
N1981 C1973 1.427 . S
N1981 C1979 1.384 . S
H1982 C1988 0.930 . S
H1983 C1992 0.930 . S
H1984 C1997 0.929 . S
H1985 C1995 0.929 . S
H1986 C1990 0.929 . S
H1987 C1996 0.929 . S
C1988 H1982 0.930 . S
C1988 C1989 1.367 . S
C1988 C1996 1.378 . S
C1989 C1988 1.367 . S
C1989 C1997 1.433 . S
C1990 H1986 0.929 . S
C1990 C1992 1.378 . S
C1990 C1994 1.350 . S
C1991 C1994 1.463 . S
C1991 C1996 1.350 . S
C1991 N1999 1.427 . S
C1992 H1983 0.930 . S
C1992 C1990 1.378 . S
C1992 C1993 1.367 . S
C1993 C1992 1.367 . S
C1993 C1995 1.433 . S
C1994 C1990 1.350 . S
C1994 C1991 1.463 . S
C1994 N1998 1.427 . S
C1995 H1985 0.929 . S
C1995 C1993 1.433 . S
C1995 N1998 1.384 . S
C1996 H1987 0.929 . S
C1996 C1988 1.378 . S
C1996 C1991 1.350 . S
C1997 H1984 0.929 . S
C1997 C1989 1.433 . S
C1997 N1999 1.384 . S
N1998 C1994 1.427 . S
N1998 C1995 1.384 . S
N1999 C1991 1.427 . S
N1999 C1997 1.384 . S
H2000 C2006 0.930 . S
H2001 C2010 0.930 . S
H2002 C2015 0.929 . S
H2003 C2013 0.929 . S
H2004 C2008 0.929 . S
H2005 C2014 0.929 . S
C2006 H2000 0.930 . S
C2006 C2007 1.367 . S
C2006 C2014 1.378 . S
C2007 C2006 1.367 . S
C2007 C2015 1.433 . S
C2008 H2004 0.929 . S
C2008 C2010 1.378 . S
C2008 C2012 1.350 . S
C2009 C2012 1.463 . S
C2009 C2014 1.350 . S
C2009 N2017 1.427 . S
C2010 H2001 0.930 . S
C2010 C2008 1.378 . S
C2010 C2011 1.367 . S
C2011 C2010 1.367 . S
C2011 C2013 1.433 . S
C2012 C2008 1.350 . S
C2012 C2009 1.463 . S
C2012 N2016 1.427 . S
C2013 H2003 0.929 . S
C2013 C2011 1.433 . S
C2013 N2016 1.384 . S
C2014 H2005 0.929 . S
C2014 C2006 1.378 . S
C2014 C2009 1.350 . S
C2015 H2002 0.929 . S
C2015 C2007 1.433 . S
C2015 N2017 1.384 . S
N2016 C2012 1.427 . S
N2016 C2013 1.384 . S
N2017 C2009 1.427 . S
N2017 C2015 1.384 . S
H2018 C2024 0.930 1_565 S
H2019 C2028 0.930 . S
H2020 C2033 0.929 . S
H2021 C2031 0.937 . S
H2022 C2026 0.929 . S
H2023 C2032 0.929 1_565 S
C2024 H2018 0.930 1_545 S
C2024 C2025 1.367 . S
C2024 C2032 1.378 . S
C2025 C2024 1.367 . S
C2025 C2033 1.433 . S
C2026 H2022 0.929 . S
C2026 C2028 1.378 . S
C2026 C2030 1.350 . S
C2027 C2030 1.463 . S
C2027 C2032 1.350 . S
C2027 N2035 1.427 . S
C2028 H2019 0.930 . S
C2028 C2026 1.378 . S
C2028 C2029 1.367 . S
C2029 C2028 1.367 . S
C2029 C2031 1.426 1_545 S
C2030 C2026 1.350 . S
C2030 C2027 1.463 . S
C2030 N2034 1.427 . S
C2031 H2021 0.937 . S
C2031 C2029 1.426 1_565 S
C2031 N2034 1.382 1_565 S
C2032 H2023 0.929 1_545 S
C2032 C2024 1.378 . S
C2032 C2027 1.350 . S
C2033 H2020 0.929 . S
C2033 C2025 1.433 . S
C2033 N2035 1.384 . S
N2034 C2030 1.427 . S
N2034 C2031 1.382 1_545 S
N2035 C2027 1.427 . S
N2035 C2033 1.384 . S
H2036 C2042 0.930 . S
H2037 C2046 0.930 . S
H2038 C2051 0.929 . S
H2039 C2049 0.929 . S
H2040 C2044 0.929 . S
H2041 C2050 0.929 . S
C2042 H2036 0.930 . S
C2042 C2043 1.367 . S
C2042 C2050 1.378 . S
C2043 C2042 1.367 . S
C2043 C2051 1.433 . S
C2044 H2040 0.929 . S
C2044 C2046 1.378 . S
C2044 C2048 1.350 . S
C2045 C2048 1.463 . S
C2045 C2050 1.350 . S
C2045 N2053 1.427 . S
C2046 H2037 0.930 . S
C2046 C2044 1.378 . S
C2046 C2047 1.367 . S
C2047 C2046 1.367 . S
C2047 C2049 1.433 . S
C2048 C2044 1.350 . S
C2048 C2045 1.463 . S
C2048 N2052 1.427 . S
C2049 H2039 0.929 . S
C2049 C2047 1.433 . S
C2049 N2052 1.384 . S
C2050 H2041 0.929 . S
C2050 C2042 1.378 . S
C2050 C2045 1.350 . S
C2051 H2038 0.929 . S
C2051 C2043 1.433 . S
C2051 N2053 1.384 . S
N2052 C2048 1.427 . S
N2052 C2049 1.384 . S
N2053 C2045 1.427 . S
N2053 C2051 1.384 . S
H2054 C2060 0.930 . S
H2055 C2064 0.930 . S
H2056 C2069 0.929 . S
H2057 C2067 0.929 . S
H2058 C2062 0.929 . S
H2059 C2068 0.929 . S
C2060 H2054 0.930 . S
C2060 C2061 1.367 . S
C2060 C2068 1.378 . S
C2061 C2060 1.367 . S
C2061 C2069 1.433 . S
C2062 H2058 0.929 . S
C2062 C2064 1.378 . S
C2062 C2066 1.350 . S
C2063 C2066 1.463 . S
C2063 C2068 1.350 . S
C2063 N2071 1.427 . S
C2064 H2055 0.930 . S
C2064 C2062 1.378 . S
C2064 C2065 1.367 . S
C2065 C2064 1.367 . S
C2065 C2067 1.433 . S
C2066 C2062 1.350 . S
C2066 C2063 1.463 . S
C2066 N2070 1.427 . S
C2067 H2057 0.929 . S
C2067 C2065 1.433 . S
C2067 N2070 1.384 . S
C2068 H2059 0.929 . S
C2068 C2060 1.378 . S
C2068 C2063 1.350 . S
C2069 H2056 0.929 . S
C2069 C2061 1.433 . S
C2069 N2071 1.384 . S
N2070 C2066 1.427 . S
N2070 C2067 1.384 . S
N2071 C2063 1.427 . S
N2071 C2069 1.384 . S
H2072 C2078 0.930 . S
H2073 C2082 0.930 . S
H2074 C2087 0.929 . S
H2075 C2085 0.929 . S
H2076 C2080 0.929 . S
H2077 C2086 0.929 . S
C2078 H2072 0.930 . S
C2078 C2079 1.367 . S
C2078 C2086 1.378 . S
C2079 C2078 1.367 . S
C2079 C2087 1.433 . S
C2080 H2076 0.929 . S
C2080 C2082 1.378 . S
C2080 C2084 1.350 . S
C2081 C2084 1.463 . S
C2081 C2086 1.350 . S
C2081 N2089 1.427 . S
C2082 H2073 0.930 . S
C2082 C2080 1.378 . S
C2082 C2083 1.367 . S
C2083 C2082 1.367 . S
C2083 C2085 1.433 . S
C2084 C2080 1.350 . S
C2084 C2081 1.463 . S
C2084 N2088 1.427 . S
C2085 H2075 0.929 . S
C2085 C2083 1.433 . S
C2085 N2088 1.384 . S
C2086 H2077 0.929 . S
C2086 C2078 1.378 . S
C2086 C2081 1.350 . S
C2087 H2074 0.929 . S
C2087 C2079 1.433 . S
C2087 N2089 1.384 . S
N2088 C2084 1.427 . S
N2088 C2085 1.384 . S
N2089 C2081 1.427 . S
N2089 C2087 1.384 . S
H2090 C2096 0.930 1_455 S
H2091 C2100 0.930 . S
H2092 C2105 0.929 . S
H2093 C2103 0.929 1_565 S
H2094 C2098 0.929 . S
H2095 C2104 0.929 . S
C2096 H2090 0.930 1_655 S
C2096 C2097 1.367 . S
C2096 C2104 1.378 . S
C2097 C2096 1.367 . S
C2097 C2105 1.433 . S
C2098 H2094 0.929 . S
C2098 C2100 1.378 . S
C2098 C2102 1.350 . S
C2099 C2102 1.463 . S
C2099 C2104 1.350 . S
C2099 N2107 1.427 . S
C2100 H2091 0.930 . S
C2100 C2098 1.378 . S
C2100 C2101 1.367 . S
C2101 C2100 1.367 . S
C2101 C2103 1.433 . S
C2102 C2098 1.350 . S
C2102 C2099 1.463 . S
C2102 N2106 1.427 . S
C2103 H2093 0.929 1_545 S
C2103 C2101 1.433 . S
C2103 N2106 1.384 . S
C2104 H2095 0.929 . S
C2104 C2096 1.378 . S
C2104 C2099 1.350 . S
C2105 H2092 0.929 . S
C2105 C2097 1.433 . S
C2105 N2107 1.384 . S
N2106 C2102 1.427 . S
N2106 C2103 1.384 . S
N2107 C2099 1.427 . S
N2107 C2105 1.384 . S
H2108 C2114 0.930 . S
H2109 C2118 0.930 . S
H2110 C2123 0.929 . S
H2111 C2121 0.929 . S
H2112 C2116 0.929 . S
H2113 C2122 0.929 . S
C2114 H2108 0.930 . S
C2114 C2115 1.367 . S
C2114 C2122 1.378 . S
C2115 C2114 1.367 . S
C2115 C2123 1.433 . S
C2116 H2112 0.929 . S
C2116 C2118 1.378 . S
C2116 C2120 1.350 . S
C2117 C2120 1.463 . S
C2117 C2122 1.350 . S
C2117 N2125 1.427 . S
C2118 H2109 0.930 . S
C2118 C2116 1.378 . S
C2118 C2119 1.367 . S
C2119 C2118 1.367 . S
C2119 C2121 1.433 . S
C2120 C2116 1.350 . S
C2120 C2117 1.463 . S
C2120 N2124 1.427 . S
C2121 H2111 0.929 . S
C2121 C2119 1.433 . S
C2121 N2124 1.384 . S
C2122 H2113 0.929 . S
C2122 C2114 1.378 . S
C2122 C2117 1.350 . S
C2123 H2110 0.929 . S
C2123 C2115 1.433 . S
C2123 N2125 1.384 . S
N2124 C2120 1.427 . S
N2124 C2121 1.384 . S
N2125 C2117 1.427 . S
N2125 C2123 1.384 . S
H2126 C2132 0.930 . S
H2127 C2136 0.930 . S
H2128 C2141 0.929 . S
H2129 C2139 0.929 . S
H2130 C2134 0.929 . S
H2131 C2140 0.929 . S
C2132 H2126 0.930 . S
C2132 C2133 1.367 . S
C2132 C2140 1.378 . S
C2133 C2132 1.367 . S
C2133 C2141 1.433 . S
C2134 H2130 0.929 . S
C2134 C2136 1.378 . S
C2134 C2138 1.350 . S
C2135 C2138 1.463 . S
C2135 C2140 1.350 . S
C2135 N2143 1.427 . S
C2136 H2127 0.930 . S
C2136 C2134 1.378 . S
C2136 C2137 1.367 . S
C2137 C2136 1.367 . S
C2137 C2139 1.433 . S
C2138 C2134 1.350 . S
C2138 C2135 1.463 . S
C2138 N2142 1.427 . S
C2139 H2129 0.929 . S
C2139 C2137 1.433 . S
C2139 N2142 1.384 . S
C2140 H2131 0.929 . S
C2140 C2132 1.378 . S
C2140 C2135 1.350 . S
C2141 H2128 0.929 . S
C2141 C2133 1.433 . S
C2141 N2143 1.384 . S
N2142 C2138 1.427 . S
N2142 C2139 1.384 . S
N2143 C2135 1.427 . S
N2143 C2141 1.384 . S
H2144 C2150 0.930 . S
H2145 C2154 0.930 . S
H2146 C2159 0.929 . S
H2147 C2157 0.929 . S
H2148 C2152 0.929 . S
H2149 C2158 0.929 . S
C2150 H2144 0.930 . S
C2150 C2151 1.367 . S
C2150 C2158 1.378 . S
C2151 C2150 1.367 . S
C2151 C2159 1.433 . S
C2152 H2148 0.929 . S
C2152 C2154 1.378 . S
C2152 C2156 1.350 . S
C2153 C2156 1.463 . S
C2153 C2158 1.350 . S
C2153 N2161 1.427 . S
C2154 H2145 0.930 . S
C2154 C2152 1.378 . S
C2154 C2155 1.367 . S
C2155 C2154 1.367 . S
C2155 C2157 1.433 . S
C2156 C2152 1.350 . S
C2156 C2153 1.463 . S
C2156 N2160 1.427 . S
C2157 H2147 0.929 . S
C2157 C2155 1.433 . S
C2157 N2160 1.384 . S
C2158 H2149 0.929 . S
C2158 C2150 1.378 . S
C2158 C2153 1.350 . S
C2159 H2146 0.929 . S
C2159 C2151 1.433 . S
C2159 N2161 1.384 . S
N2160 C2156 1.427 . S
N2160 C2157 1.384 . S
N2161 C2153 1.427 . S
N2161 C2159 1.384 . S
H2162 C2168 0.930 . S
H2163 C2172 0.930 1_455 S
H2164 C2177 0.929 1_554 S
H2165 C2175 0.929 . S
H2166 C2170 0.929 . S
H2167 C2176 0.929 . S
C2168 H2162 0.930 . S
C2168 C2169 1.367 . S
C2168 C2176 1.378 . S
C2169 C2168 1.367 . S
C2169 C2177 1.433 . S
C2170 H2166 0.929 . S
C2170 C2172 1.378 . S
C2170 C2174 1.350 . S
C2171 C2174 1.463 . S
C2171 C2176 1.350 . S
C2171 N2179 1.427 . S
C2172 H2163 0.930 1_655 S
C2172 C2170 1.378 . S
C2172 C2173 1.367 . S
C2173 C2172 1.367 . S
C2173 C2175 1.433 . S
C2174 C2170 1.350 . S
C2174 C2171 1.463 . S
C2174 N2178 1.427 . S
C2175 H2165 0.929 . S
C2175 C2173 1.433 . S
C2175 N2178 1.384 . S
C2176 H2167 0.929 . S
C2176 C2168 1.378 . S
C2176 C2171 1.350 . S
C2177 H2164 0.929 1_556 S
C2177 C2169 1.433 . S
C2177 N2179 1.384 . S
N2178 C2174 1.427 . S
N2178 C2175 1.384 . S
N2179 C2171 1.427 . S
N2179 C2177 1.384 . S
H2180 C2186 0.930 . S
H2181 C2190 0.930 . S
H2182 C2195 0.929 . S
H2183 C2193 0.929 . S
H2184 C2188 0.929 . S
H2185 C2194 0.929 . S
C2186 H2180 0.930 . S
C2186 C2187 1.367 . S
C2186 C2194 1.378 . S
C2187 C2186 1.367 . S
C2187 C2195 1.433 . S
C2188 H2184 0.929 . S
C2188 C2190 1.378 . S
C2188 C2192 1.350 . S
C2189 C2192 1.463 . S
C2189 C2194 1.350 . S
C2189 N2197 1.427 . S
C2190 H2181 0.930 . S
C2190 C2188 1.378 . S
C2190 C2191 1.367 . S
C2191 C2190 1.367 . S
C2191 C2193 1.433 . S
C2192 C2188 1.350 . S
C2192 C2189 1.463 . S
C2192 N2196 1.427 . S
C2193 H2183 0.929 . S
C2193 C2191 1.433 . S
C2193 N2196 1.384 . S
C2194 H2185 0.929 . S
C2194 C2186 1.378 . S
C2194 C2189 1.350 . S
C2195 H2182 0.929 . S
C2195 C2187 1.433 . S
C2195 N2197 1.384 . S
N2196 C2192 1.427 . S
N2196 C2193 1.384 . S
N2197 C2189 1.427 . S
N2197 C2195 1.384 . S
H2198 C2204 0.930 . S
H2199 C2208 0.930 . S
H2200 C2213 0.929 1_554 S
H2201 C2211 0.929 . S
H2202 C2206 0.929 . S
H2203 C2212 0.929 . S
C2204 H2198 0.930 . S
C2204 C2205 1.367 . S
C2204 C2212 1.378 . S
C2205 C2204 1.367 . S
C2205 C2213 1.433 . S
C2206 H2202 0.929 . S
C2206 C2208 1.378 . S
C2206 C2210 1.350 . S
C2207 C2210 1.463 . S
C2207 C2212 1.350 . S
C2207 N2215 1.427 . S
C2208 H2199 0.930 . S
C2208 C2206 1.378 . S
C2208 C2209 1.367 . S
C2209 C2208 1.367 . S
C2209 C2211 1.433 . S
C2210 C2206 1.350 . S
C2210 C2207 1.463 . S
C2210 N2214 1.427 . S
C2211 H2201 0.929 . S
C2211 C2209 1.433 . S
C2211 N2214 1.384 . S
C2212 H2203 0.929 . S
C2212 C2204 1.378 . S
C2212 C2207 1.350 . S
C2213 H2200 0.929 1_556 S
C2213 C2205 1.433 . S
C2213 N2215 1.384 . S
N2214 C2210 1.427 . S
N2214 C2211 1.384 . S
N2215 C2207 1.427 . S
N2215 C2213 1.384 . S
H2216 C2222 0.930 . S
H2217 C2226 0.930 . S
H2218 C2231 0.929 . S
H2219 C2229 0.929 . S
H2220 C2224 0.929 . S
H2221 C2230 0.929 . S
C2222 H2216 0.930 . S
C2222 C2223 1.367 . S
C2222 C2230 1.378 . S
C2223 C2222 1.367 . S
C2223 C2231 1.433 . S
C2224 H2220 0.929 . S
C2224 C2226 1.378 . S
C2224 C2228 1.350 . S
C2225 C2228 1.463 . S
C2225 C2230 1.350 . S
C2225 N2233 1.427 . S
C2226 H2217 0.930 . S
C2226 C2224 1.378 . S
C2226 C2227 1.367 . S
C2227 C2226 1.367 . S
C2227 C2229 1.433 . S
C2228 C2224 1.350 . S
C2228 C2225 1.463 . S
C2228 N2232 1.427 . S
C2229 H2219 0.929 . S
C2229 C2227 1.433 . S
C2229 N2232 1.384 . S
C2230 H2221 0.929 . S
C2230 C2222 1.378 . S
C2230 C2225 1.350 . S
C2231 H2218 0.929 . S
C2231 C2223 1.433 . S
C2231 N2233 1.384 . S
N2232 C2228 1.427 . S
N2232 C2229 1.384 . S
N2233 C2225 1.427 . S
N2233 C2231 1.384 . S
H2234 C2240 0.930 . S
H2235 C2244 0.930 . S
H2236 C2249 0.929 . S
H2237 C2247 0.929 . S
H2238 C2242 0.929 . S
H2239 C2248 0.929 . S
C2240 H2234 0.930 . S
C2240 C2241 1.367 . S
C2240 C2248 1.378 . S
C2241 C2240 1.367 . S
C2241 C2249 1.433 . S
C2242 H2238 0.929 . S
C2242 C2244 1.378 . S
C2242 C2246 1.350 . S
C2243 C2246 1.463 . S
C2243 C2248 1.350 . S
C2243 N2251 1.427 . S
C2244 H2235 0.930 . S
C2244 C2242 1.378 . S
C2244 C2245 1.367 . S
C2245 C2244 1.367 . S
C2245 C2247 1.433 . S
C2246 C2242 1.350 . S
C2246 C2243 1.463 . S
C2246 N2250 1.427 . S
C2247 H2237 0.929 . S
C2247 C2245 1.433 . S
C2247 N2250 1.384 . S
C2248 H2239 0.929 . S
C2248 C2240 1.378 . S
C2248 C2243 1.350 . S
C2249 H2236 0.929 . S
C2249 C2241 1.433 . S
C2249 N2251 1.384 . S
N2250 C2246 1.427 . S
N2250 C2247 1.384 . S
N2251 C2243 1.427 . S
N2251 C2249 1.384 . S
H2252 C2258 0.930 . S
H2253 C2262 0.930 . S
H2254 C2267 0.929 . S
H2255 C2265 0.929 . S
H2256 C2260 0.929 . S
H2257 C2266 0.929 . S
C2258 H2252 0.930 . S
C2258 C2259 1.367 . S
C2258 C2266 1.378 . S
C2259 C2258 1.367 . S
C2259 C2267 1.433 . S
C2260 H2256 0.929 . S
C2260 C2262 1.378 . S
C2260 C2264 1.350 . S
C2261 C2264 1.463 . S
C2261 C2266 1.350 . S
C2261 N2269 1.427 . S
C2262 H2253 0.930 . S
C2262 C2260 1.378 . S
C2262 C2263 1.367 . S
C2263 C2262 1.367 . S
C2263 C2265 1.433 . S
C2264 C2260 1.350 . S
C2264 C2261 1.463 . S
C2264 N2268 1.427 . S
C2265 H2255 0.929 . S
C2265 C2263 1.433 . S
C2265 N2268 1.384 . S
C2266 H2257 0.929 . S
C2266 C2258 1.378 . S
C2266 C2261 1.350 . S
C2267 H2254 0.929 . S
C2267 C2259 1.433 . S
C2267 N2269 1.384 . S
N2268 C2264 1.427 . S
N2268 C2265 1.384 . S
N2269 C2261 1.427 . S
N2269 C2267 1.384 . S
H2270 C2276 0.930 . S
H2271 C2280 0.930 . S
H2272 C2285 0.929 . S
H2273 C2283 0.929 . S
H2274 C2278 0.929 . S
H2275 C2284 0.929 . S
C2276 H2270 0.930 . S
C2276 C2277 1.367 . S
C2276 C2284 1.378 . S
C2277 C2276 1.367 . S
C2277 C2285 1.433 . S
C2278 H2274 0.929 . S
C2278 C2280 1.378 . S
C2278 C2282 1.350 . S
C2279 C2282 1.463 . S
C2279 C2284 1.350 . S
C2279 N2287 1.427 . S
C2280 H2271 0.930 . S
C2280 C2278 1.378 . S
C2280 C2281 1.367 . S
C2281 C2280 1.367 . S
C2281 C2283 1.433 . S
C2282 C2278 1.350 . S
C2282 C2279 1.463 . S
C2282 N2286 1.427 . S
C2283 H2273 0.929 . S
C2283 C2281 1.433 . S
C2283 N2286 1.384 . S
C2284 H2275 0.929 . S
C2284 C2276 1.378 . S
C2284 C2279 1.350 . S
C2285 H2272 0.929 . S
C2285 C2277 1.433 . S
C2285 N2287 1.384 . S
N2286 C2282 1.427 . S
N2286 C2283 1.384 . S
N2287 C2279 1.427 . S
N2287 C2285 1.384 . S
H2288 C2294 0.930 . S
H2289 C2298 0.930 . S
H2290 C2303 0.929 . S
H2291 C2301 0.929 . S
H2292 C2296 0.929 . S
H2293 C2302 0.929 . S
C2294 H2288 0.930 . S
C2294 C2295 1.367 . S
C2294 C2302 1.378 . S
C2295 C2294 1.367 . S
C2295 C2303 1.433 . S
C2296 H2292 0.929 . S
C2296 C2298 1.378 . S
C2296 C2300 1.350 . S
C2297 C2300 1.463 . S
C2297 C2302 1.350 . S
C2297 N2305 1.427 . S
C2298 H2289 0.930 . S
C2298 C2296 1.378 . S
C2298 C2299 1.367 . S
C2299 C2298 1.367 . S
C2299 C2301 1.433 . S
C2300 C2296 1.350 . S
C2300 C2297 1.463 . S
C2300 N2304 1.427 . S
C2301 H2291 0.929 . S
C2301 C2299 1.433 . S
C2301 N2304 1.384 . S
C2302 H2293 0.929 . S
C2302 C2294 1.378 . S
C2302 C2297 1.350 . S
C2303 H2290 0.929 . S
C2303 C2295 1.433 . S
C2303 N2305 1.384 . S
N2304 C2300 1.427 . S
N2304 C2301 1.384 . S
N2305 C2297 1.427 . S
N2305 C2303 1.384 . S
H2306 C2312 0.930 . S
H2307 C2316 0.930 . S
H2308 C2321 0.929 . S
H2309 C2319 0.929 . S
H2310 C2314 0.929 . S
H2311 C2320 0.929 . S
C2312 H2306 0.930 . S
C2312 C2313 1.367 . S
C2312 C2320 1.378 . S
C2313 C2312 1.367 . S
C2313 C2321 1.433 . S
C2314 H2310 0.929 . S
C2314 C2316 1.378 . S
C2314 C2318 1.350 . S
C2315 C2318 1.463 . S
C2315 C2320 1.350 . S
C2315 N2323 1.427 . S
C2316 H2307 0.930 . S
C2316 C2314 1.378 . S
C2316 C2317 1.367 . S
C2317 C2316 1.367 . S
C2317 C2319 1.433 . S
C2318 C2314 1.350 . S
C2318 C2315 1.463 . S
C2318 N2322 1.427 . S
C2319 H2309 0.929 . S
C2319 C2317 1.433 . S
C2319 N2322 1.384 . S
C2320 H2311 0.929 . S
C2320 C2312 1.378 . S
C2320 C2315 1.350 . S
C2321 H2308 0.929 . S
C2321 C2313 1.433 . S
C2321 N2323 1.384 . S
N2322 C2318 1.427 . S
N2322 C2319 1.384 . S
N2323 C2315 1.427 . S
N2323 C2321 1.384 . S
H2324 C2330 0.930 . S
H2325 C2334 0.930 . S
H2326 C2339 0.929 . S
H2327 C2337 0.929 . S
H2328 C2332 0.929 . S
H2329 C2338 0.929 . S
C2330 H2324 0.930 . S
C2330 C2331 1.367 . S
C2330 C2338 1.378 . S
C2331 C2330 1.367 . S
C2331 C2339 1.433 . S
C2332 H2328 0.929 . S
C2332 C2334 1.378 . S
C2332 C2336 1.350 . S
C2333 C2336 1.463 . S
C2333 C2338 1.350 . S
C2333 N2341 1.427 . S
C2334 H2325 0.930 . S
C2334 C2332 1.378 . S
C2334 C2335 1.367 . S
C2335 C2334 1.367 . S
C2335 C2337 1.433 . S
C2336 C2332 1.350 . S
C2336 C2333 1.463 . S
C2336 N2340 1.427 . S
C2337 H2327 0.929 . S
C2337 C2335 1.433 . S
C2337 N2340 1.384 . S
C2338 H2329 0.929 . S
C2338 C2330 1.378 . S
C2338 C2333 1.350 . S
C2339 H2326 0.929 . S
C2339 C2331 1.433 . S
C2339 N2341 1.384 . S
N2340 C2336 1.427 . S
N2340 C2337 1.384 . S
N2341 C2333 1.427 . S
N2341 C2339 1.384 . S
H2342 C2348 0.930 . S
H2343 C2352 0.930 . S
H2344 C2357 0.929 . S
H2345 C2355 0.929 . S
H2346 C2350 0.929 . S
H2347 C2356 0.929 . S
C2348 H2342 0.930 . S
C2348 C2349 1.367 . S
C2348 C2356 1.378 . S
C2349 C2348 1.367 . S
C2349 C2357 1.433 . S
C2350 H2346 0.929 . S
C2350 C2352 1.378 . S
C2350 C2354 1.350 . S
C2351 C2354 1.463 . S
C2351 C2356 1.350 . S
C2351 N2359 1.427 . S
C2352 H2343 0.930 . S
C2352 C2350 1.378 . S
C2352 C2353 1.367 . S
C2353 C2352 1.367 . S
C2353 C2355 1.433 . S
C2354 C2350 1.350 . S
C2354 C2351 1.463 . S
C2354 N2358 1.427 . S
C2355 H2345 0.929 . S
C2355 C2353 1.433 . S
C2355 N2358 1.384 . S
C2356 H2347 0.929 . S
C2356 C2348 1.378 . S
C2356 C2351 1.350 . S
C2357 H2344 0.929 . S
C2357 C2349 1.433 . S
C2357 N2359 1.384 . S
N2358 C2354 1.427 . S
N2358 C2355 1.384 . S
N2359 C2351 1.427 . S
N2359 C2357 1.384 . S
H2360 C2366 0.930 . S
H2361 C2370 0.930 . S
H2362 C2375 0.929 . S
H2363 C2373 0.929 1_554 S
H2364 C2368 0.929 . S
H2365 C2374 0.958 . S
C2366 H2360 0.930 . S
C2366 C2367 1.367 . S
C2366 C2374 1.378 . S
C2367 C2366 1.367 . S
C2367 C2375 1.433 . S
C2368 H2364 0.929 . S
C2368 C2370 1.378 . S
C2368 C2372 1.350 . S
C2369 C2372 1.463 . S
C2369 C2374 1.350 . S
C2369 N2377 1.427 . S
C2370 H2361 0.930 . S
C2370 C2368 1.378 . S
C2370 C2371 1.367 . S
C2371 C2370 1.367 . S
C2371 C2373 1.433 . S
C2372 C2368 1.350 . S
C2372 C2369 1.463 . S
C2372 N2376 1.427 . S
C2373 H2363 0.929 1_556 S
C2373 C2371 1.433 . S
C2373 N2376 1.384 . S
C2374 H2365 0.958 . S
C2374 C2366 1.378 . S
C2374 C2369 1.350 . S
C2375 H2362 0.929 . S
C2375 C2367 1.433 . S
C2375 N2377 1.384 . S
N2376 C2372 1.427 . S
N2376 C2373 1.384 . S
N2377 C2369 1.427 . S
N2377 C2375 1.384 . S
H2378 C2384 0.930 . S
H2379 C2388 0.930 . S
H2380 C2393 0.929 . S
H2381 C2391 0.929 . S
H2382 C2386 0.929 . S
H2383 C2392 0.929 . S
C2384 H2378 0.930 . S
C2384 C2385 1.367 . S
C2384 C2392 1.378 . S
C2385 C2384 1.367 . S
C2385 C2393 1.433 . S
C2386 H2382 0.929 . S
C2386 C2388 1.378 . S
C2386 C2390 1.350 . S
C2387 C2390 1.463 . S
C2387 C2392 1.350 . S
C2387 N2395 1.427 . S
C2388 H2379 0.930 . S
C2388 C2386 1.378 . S
C2388 C2389 1.367 . S
C2389 C2388 1.367 . S
C2389 C2391 1.433 . S
C2390 C2386 1.350 . S
C2390 C2387 1.463 . S
C2390 N2394 1.427 . S
C2391 H2381 0.929 . S
C2391 C2389 1.433 . S
C2391 N2394 1.384 . S
C2392 H2383 0.929 . S
C2392 C2384 1.378 . S
C2392 C2387 1.350 . S
C2393 H2380 0.929 . S
C2393 C2385 1.433 . S
C2393 N2395 1.384 . S
N2394 C2390 1.427 . S
N2394 C2391 1.384 . S
N2395 C2387 1.427 . S
N2395 C2393 1.384 . S
H2396 C2402 0.930 1_556 S
H2397 C2406 0.930 . S
H2398 C2411 0.929 . S
H2399 C2409 0.929 . S
H2400 C2404 0.929 . S
H2401 C2410 0.929 1_556 S
C2402 H2396 0.930 1_554 S
C2402 C2403 1.367 . S
C2402 C2410 1.378 . S
C2403 C2402 1.367 . S
C2403 C2411 1.433 . S
C2404 H2400 0.929 . S
C2404 C2406 1.378 . S
C2404 C2408 1.350 . S
C2405 C2408 1.463 . S
C2405 C2410 1.350 . S
C2405 N2413 1.427 . S
C2406 H2397 0.930 . S
C2406 C2404 1.378 . S
C2406 C2407 1.367 . S
C2407 C2406 1.367 . S
C2407 C2409 1.433 1_554 S
C2408 C2404 1.350 . S
C2408 C2405 1.463 . S
C2408 N2412 1.472 . S
C2409 H2399 0.929 . S
C2409 C2407 1.433 1_556 S
C2409 N2412 1.380 1_556 S
C2410 H2401 0.929 1_554 S
C2410 C2402 1.378 . S
C2410 C2405 1.350 . S
C2411 H2398 0.929 . S
C2411 C2403 1.433 . S
C2411 N2413 1.384 . S
N2412 C2408 1.472 . S
N2412 C2409 1.380 1_554 S
N2413 C2405 1.427 . S
N2413 C2411 1.384 . S
H2414 C2420 0.930 1_545 S
H2415 C2424 0.930 . S
H2416 C2429 0.929 . S
H2417 C2427 0.929 1_556 S
H2418 C2422 0.929 . S
H2419 C2428 0.929 . S
C2420 H2414 0.930 1_565 S
C2420 C2421 1.367 . S
C2420 C2428 1.378 . S
C2421 C2420 1.367 . S
C2421 C2429 1.433 . S
C2422 H2418 0.929 . S
C2422 C2424 1.378 . S
C2422 C2426 1.350 . S
C2423 C2426 1.463 . S
C2423 C2428 1.350 . S
C2423 N2431 1.427 . S
C2424 H2415 0.930 . S
C2424 C2422 1.378 . S
C2424 C2425 1.367 . S
C2425 C2424 1.367 . S
C2425 C2427 1.433 . S
C2426 C2422 1.350 . S
C2426 C2423 1.463 . S
C2426 N2430 1.427 . S
C2427 H2417 0.929 1_554 S
C2427 C2425 1.433 . S
C2427 N2430 1.384 . S
C2428 H2419 0.929 . S
C2428 C2420 1.378 . S
C2428 C2423 1.350 . S
C2429 H2416 0.929 . S
C2429 C2421 1.433 . S
C2429 N2431 1.384 . S
N2430 C2426 1.427 . S
N2430 C2427 1.384 . S
N2431 C2423 1.427 . S
N2431 C2429 1.384 . S
C1579 C561 1.468 . S
C1575 C177 1.455 . S
C1597 C620 1.536 . S
C1593 C209 1.523 . S
C1611 C253 1.412 . S
C1615 C737 1.465 . S
C1633 C805 1.534 . S
C1629 C157 1.451 1_655 S
C1651 C884 1.527 . S
C1647 C343 1.488 . S
C1669 C1009 1.507 . S
C1665 C401 1.469 . S
C1683 C369 1.487 . S
C1687 C1069 1.526 . S
C1705 C1177 1.516 . S
C1701 C317 1.501 . S
C1719 C375 1.485 . S
C1723 C1273 1.520 . S
C1741 C1333 1.562 . S
C1737 C305 1.548 . S
C1755 C349 1.503 . S
C1759 C1236 1.545 . S
C1777 C1353 1.521 . S
C1773 C413 1.477 . S
C1791 C241 1.449 . S
C1795 C1421 1.484 . S
C1809 C151 1.454 . S
C1813 C1412 1.492 . S
C1827 C189 1.498 . S
C1831 C1441 1.510 . S
C1845 C215 1.498 . S
C1849 C1449 1.514 . S
C1863 C113 1.450 . S
C1867 C833 1.494 . S
C1881 C471 1.473 . S
C1885 C796 1.486 . S
C1903 C532 1.525 . S
C1899 C509 1.511 . S
C1921 C629 1.510 . S
C1917 C279 1.473 . S
C1935 C145 1.439 . S
C1939 C893 1.476 . S
C1957 C1185 1.556 . S
C1953 C381 1.504 . S
C1975 C913 1.539 . S
C1971 C311 1.525 . S
C1993 C1097 1.498 . S
C1989 C407 1.458 . S
C2011 C1089 1.468 . S
C2007 C465 1.457 . S
C2025 C497 1.523 . S
C2029 C1157 1.535 . S
C2043 C285 1.417 . S
C2047 C921 1.466 . S
C2065 C972 1.534 . S
C2061 C445 1.486 . S
C2079 C119 1.481 . S
C2083 C717 1.525 . S
C2101 C825 1.507 . S
C2097 C17 1.466 1_655 S
C2119 C541 1.526 . S
C2115 C49 1.489 . S
C2137 C657 1.516 . S
C2133 C93 1.499 . S
C2151 C55 1.482 . S
C2155 C1361 1.520 . S
C2169 C81 1.548 . S
C2173 C1245 1.563 . S
C2187 C125 1.500 . S
C2191 C1324 1.545 . S
C2205 C29 1.477 1_556 S
C2209 C1265 1.521 . S
C2227 C1509 1.484 . S
C2223 C273 1.445 . S
C2245 C1500 1.492 . S
C2241 C439 1.454 . S
C2263 C1529 1.510 . S
C2259 C477 1.498 . S
C2277 C503 1.495 . S
C2281 C1537 1.515 . S
C2295 C337 1.457 . S
C2299 C1001 1.496 . S
C2317 C981 1.488 . S
C2313 C183 1.469 . S
C2335 C1060 1.525 . S
C2331 C221 1.507 . S
C2353 C1148 1.508 . S
C2349 C247 1.461 . S
C2367 C433 1.432 . S
C2371 C708 1.475 . S
C2389 C649 1.556 . S
C2385 C61 1.503 . S
C2403 C87 1.523 . S
C2407 C745 1.538 . S
C2425 C569 1.498 . S
C2421 C23 1.455 1_565 S
