# Generated by pormake.
# Topology anh, (6,3)-cn, num edge types: 1
# Building blocks:
#     Node 0, Type 0, BuildingBlock: PAMTOO_clean_sbu_0, # of connection points: 6
#     Node 1, Type 0, BuildingBlock: PAMTOO_clean_sbu_0, # of connection points: 6
#     Node 2, Type 0, BuildingBlock: PAMTOO_clean_sbu_0, # of connection points: 6
#     Node 3, Type 1, BuildingBlock: QEWDON_clean_linker_0, # of connection points: 3
#     Node 4, Type 1, BuildingBlock: QEWDON_clean_linker_0, # of connection points: 3
#     Node 5, Type 1, BuildingBlock: QEWDON_clean_linker_0, # of connection points: 3
#     Node 6, Type 1, BuildingBlock: QEWDON_clean_linker_0, # of connection points: 3
#     Node 7, Type 1, BuildingBlock: QEWDON_clean_linker_0, # of connection points: 3
#     Node 8, Type 1, BuildingBlock: QEWDON_clean_linker_0, # of connection points: 3
#     Edge 9, Type (0, 1), BuildingBlock: AJUNOK_clean_linker_0, # of connection points: 2
#     Edge 10, Type (0, 1), BuildingBlock: AJUNOK_clean_linker_0, # of connection points: 2
#     Edge 11, Type (0, 1), BuildingBlock: AJUNOK_clean_linker_0, # of connection points: 2
#     Edge 12, Type (0, 1), BuildingBlock: AJUNOK_clean_linker_0, # of connection points: 2
#     Edge 13, Type (0, 1), BuildingBlock: AJUNOK_clean_linker_0, # of connection points: 2
#     Edge 14, Type (0, 1), BuildingBlock: AJUNOK_clean_linker_0, # of connection points: 2
#     Edge 15, Type (0, 1), BuildingBlock: AJUNOK_clean_linker_0, # of connection points: 2
#     Edge 16, Type (0, 1), BuildingBlock: AJUNOK_clean_linker_0, # of connection points: 2
#     Edge 17, Type (0, 1), BuildingBlock: AJUNOK_clean_linker_0, # of connection points: 2
#     Edge 18, Type (0, 1), BuildingBlock: AJUNOK_clean_linker_0, # of connection points: 2
#     Edge 19, Type (0, 1), BuildingBlock: AJUNOK_clean_linker_0, # of connection points: 2
#     Edge 20, Type (0, 1), BuildingBlock: AJUNOK_clean_linker_0, # of connection points: 2
#     Edge 21, Type (0, 1), BuildingBlock: AJUNOK_clean_linker_0, # of connection points: 2
#     Edge 22, Type (0, 1), BuildingBlock: AJUNOK_clean_linker_0, # of connection points: 2
#     Edge 23, Type (0, 1), BuildingBlock: AJUNOK_clean_linker_0, # of connection points: 2
#     Edge 24, Type (0, 1), BuildingBlock: AJUNOK_clean_linker_0, # of connection points: 2
#     Edge 25, Type (0, 1), BuildingBlock: AJUNOK_clean_linker_0, # of connection points: 2
#     Edge 26, Type (0, 1), BuildingBlock: AJUNOK_clean_linker_0, # of connection points: 2
# Relax obj value: 0.185
# Max RMSD: 0.169
# Mean RMSD: 0.121
data_MOF--net-anh--node1-PAMTOO_clean_sbu_0--node2-QEWDON_clean_linker_0--edge1-AJUNOK_clean_linker_0
_symmetry_space_group_name_H-M    P1
_symmetry_Int_Tables_number       1
_symmetry_cell_setting            triclinic
loop_
_symmetry_equiv_pos_as_xyz
'x, y, z'
_cell_length_a     23.778967
_cell_length_b     23.041422
_cell_length_c     36.046632
_cell_angle_alpha  95.014369
_cell_angle_beta   98.298384
_cell_angle_gamma 96.988538
loop_
_atom_site_label
_atom_site_type_symbol
_atom_site_fract_x
_atom_site_fract_y
_atom_site_fract_z
_atom_type_partial_charge
Dy0 Dy 0.12338 0.66127 0.13286 0.0
Dy1 Dy 1.10271 0.51847 0.12538 0.0
C2 C 1.11215 0.58899 0.05534 0.0
O3 O 1.02929 0.64132 0.13964 0.0
O4 O 1.01322 0.54495 0.11413 0.0
O5 O 0.13569 0.73916 0.10444 0.0
O6 O 0.13402 0.74739 0.16452 0.0
O7 O 1.09136 0.54863 0.18403 0.0
O8 O 0.15037 0.63568 0.19016 0.0
O9 O 0.19997 0.5394 0.13765 0.0
O10 O 0.21153 0.63604 0.12539 0.0
O11 O 1.11539 0.43572 0.14692 0.0
O12 O 1.06195 0.4371 0.09291 0.0
C13 C 0.99333 0.59303 0.12644 0.0
O14 O 1.08704 0.62689 0.07377 0.0
O15 O 0.13123 0.54576 0.07239 0.0
C16 C 0.20036 0.81498 0.14183 0.0
C17 C 0.30645 0.88851 0.15751 0.0
C18 C 0.29744 0.84116 0.12915 0.0
C19 C 0.24503 0.80448 0.1215 0.0
C20 C 0.20867 0.86352 0.1693 0.0
C21 C 0.26132 0.90008 0.17708 0.0
C22 C 0.14619 0.77428 0.13571 0.0
C23 C 0.1227 0.5934 0.20519 0.0
C24 C 0.23346 0.58699 0.13184 0.0
C25 C 1.02857 0.3701 0.13294 0.0
C26 C 0.92571 0.31475 0.15204 0.0
C27 C 0.96255 0.35649 0.17807 0.0
C28 C 1.0133 0.38407 0.16858 0.0
C29 C 0.99317 0.32649 0.10752 0.0
C30 C 0.94206 0.29915 0.11692 0.0
C31 C 1.07667 0.40593 0.12041 0.0
H32 H 0.33116 0.83232 0.11311 0.0
H33 H 0.23988 0.76749 0.10002 0.0
H34 H 0.17483 0.87243 0.18527 0.0
H35 H 0.26732 0.93642 0.1991 0.0
H36 H 0.95112 0.36929 0.20535 0.0
H37 H 1.0393 0.41803 0.18863 0.0
H38 H 1.0037 0.31561 0.07971 0.0
H39 H 0.91398 0.26811 0.09595 0.0
Dy40 Dy 0.60646 0.05039 0.49995 0.0
Dy41 Dy 0.74618 0.06494 0.50366 0.0
C42 C 0.68921 0.06886 0.57676 0.0
O43 O 0.62855 0.14369 0.48817 0.0
O44 O 0.72389 0.15635 0.5137 0.0
O45 O 0.53566 0.02948 0.52995 0.0
O46 O 0.51992 0.05417 0.47301 0.0
O47 O 0.70691 0.08052 0.44571 0.0
O48 O 0.62275 0.02017 0.44285 0.0
O49 O 0.72098 0.96707 0.49261 0.0
O50 O 0.63021 0.96083 0.50853 0.0
O51 O 0.82179 0.05428 0.47823 0.0
O52 O 0.83003 0.10079 0.53408 0.0
C53 C 0.67725 0.17804 0.50043 0.0
O54 O 0.64935 0.09188 0.55636 0.0
O55 O 0.72681 0.04314 0.56036 0.0
C56 C 0.45223 0.98151 0.49105 0.0
C57 C 0.36874 0.88094 0.47528 0.0
C58 C 0.37549 0.91634 0.50983 0.0
C59 C 0.41664 0.96634 0.51753 0.0
C60 C 0.44602 0.94588 0.45664 0.0
C61 C 0.40451 0.89622 0.4488 0.0
C62 C 0.4973 0.03265 0.50071 0.0
C63 C 0.66059 0.04953 0.42606 0.0
C64 C 0.67435 0.93596 0.49995 0.0
C65 C 0.88536 0.14358 0.49235 0.0
C66 C 0.92955 0.25696 0.47733 0.0
C67 C 0.88348 0.22372 0.45266 0.0
C68 C 0.86132 0.16782 0.46024 0.0
C69 C 0.93361 0.1752 0.51575 0.0
C70 C 0.95566 0.23142 0.50826 0.0
C71 C 0.85484 0.09066 0.50461 0.0
H72 H 0.34951 0.90498 0.53114 0.0
H73 H 0.42125 0.99279 0.54444 0.0
H74 H 0.47337 0.95613 0.43587 0.0
H75 H 0.40013 0.86993 0.42186 0.0
H76 H 0.86325 0.24183 0.4282 0.0
H77 H 0.82369 0.14479 0.44186 0.0
H78 H 0.95239 0.1577 0.54089 0.0
H79 H 0.99119 0.25613 0.52775 0.0
Dy80 Dy 0.72177 0.54036 0.82491 0.0
Dy81 Dy 0.58347 0.51696 0.80088 0.0
C82 C 0.66638 0.52564 0.74037 0.0
O83 O 0.70011 0.63011 0.81309 0.0
O84 O 0.60292 0.61452 0.81381 0.0
O85 O 0.80579 0.57606 0.81564 0.0
O86 O 0.79621 0.52592 0.86329 0.0
O87 O 0.60067 0.51025 0.86327 0.0
O88 O 0.68447 0.57343 0.87436 0.0
O89 O 0.60876 0.42654 0.79635 0.0
O90 O 0.6975 0.4459 0.83284 0.0
O91 O 0.49711 0.52432 0.81071 0.0
O92 O 0.51195 0.48262 0.75737 0.0
C93 C 0.65046 0.64998 0.81329 0.0
O94 O 0.70336 0.5048 0.76436 0.0
O95 O 0.62291 0.54727 0.75207 0.0
C96 C 0.87386 0.51231 0.83118 0.0
C97 C 0.96623 0.46176 0.8078 0.0
C98 C 0.91619 0.46254 0.78202 0.0
C99 C 0.87007 0.48733 0.79376 0.0
C100 C 0.92084 0.50544 0.85774 0.0
C101 C 0.96651 0.47986 0.84624 0.0
C102 C 0.83131 0.54888 0.8422 0.0
C103 C 0.63967 0.54693 0.88635 0.0
C104 C 0.65391 0.4086 0.81499 0.0
C105 C 0.44544 0.54987 0.756 0.0
C106 C 0.39297 0.64738 0.73487 0.0
C107 C 0.45132 0.6462 0.73302 0.0
C108 C 0.47734 0.59768 0.74343 0.0
C109 C 0.38639 0.54886 0.75507 0.0
C110 C 0.36023 0.59722 0.74445 0.0
C111 C 0.47562 0.50678 0.77555 0.0
H112 H 0.91497 0.44929 0.75229 0.0
H113 H 0.83323 0.49069 0.77312 0.0
H114 H 0.92401 0.52347 0.88688 0.0
H115 H 1.00471 0.48072 0.86682 0.0
H116 H 0.47756 0.68445 0.72624 0.0
H117 H 0.52321 0.59935 0.74421 0.0
H118 H 0.36134 0.51262 0.76504 0.0
H119 H 0.31545 0.59741 0.74712 0.0
H120 H 0.65123 0.14806 0.26284 0.0
C121 C 0.61758 0.11499 0.24761 0.0
C122 C 0.59559 0.06755 0.2658 0.0
C123 C 0.59322 0.12232 0.21062 0.0
H124 H 0.53229 0.99044 0.25994 0.0
C125 C 0.5501 0.02673 0.24608 0.0
C126 C 0.52472 0.03419 0.20961 0.0
C127 C 0.54657 0.08185 0.19196 0.0
C128 C 0.61353 0.17424 0.19216 0.0
H129 H 0.52674 0.08771 0.16374 0.0
C130 C 0.67235 0.1904 0.19139 0.0
C131 C 0.69089 0.23846 0.17248 0.0
C132 C 0.57357 0.2074 0.17455 0.0
H133 H 0.52812 0.19631 0.17512 0.0
C134 C 0.59184 0.2555 0.15631 0.0
H135 H 0.70346 0.16534 0.20515 0.0
C136 C 0.65003 0.27092 0.15515 0.0
H137 H 0.66307 0.30787 0.14024 0.0
H138 H 0.56073 0.28074 0.14283 0.0
H139 H 0.6593 0.5888 0.56661 0.0
C140 C 0.66657 0.54583 0.55511 0.0
C141 C 0.6784 0.50359 0.57993 0.0
C142 C 0.66219 0.53214 0.51578 0.0
H143 H 0.69135 0.41351 0.58446 0.0
C144 C 0.68497 0.44689 0.56539 0.0
C145 C 0.68009 0.43147 0.52657 0.0
C146 C 0.66942 0.47434 0.50183 0.0
C147 C 0.64568 0.57657 0.48946 0.0
H148 H 0.66661 0.46228 0.47185 0.0
C149 C 0.66173 0.63809 0.49945 0.0
C150 C 0.64136 0.67894 0.47547 0.0
C151 C 0.61028 0.55749 0.45464 0.0
H152 H 0.59546 0.5113 0.44618 0.0
C153 C 0.59144 0.5978 0.43061 0.0
H154 H 0.68891 0.65442 0.52596 0.0
C155 C 0.60643 0.65796 0.441 0.0
H156 H 0.5903 0.68837 0.42212 0.0
H157 H 0.56402 0.58229 0.40407 0.0
H158 H 0.20562 0.71937 0.9163 0.0
C159 C 0.19394 0.6806 0.89607 0.0
C160 C 0.17244 0.62702 0.90799 0.0
C161 C 0.20024 0.68391 0.85807 0.0
H162 H 0.13599 0.53773 0.891 0.0
C163 C 0.15701 0.57713 0.8818 0.0
C164 C 0.16234 0.57931 0.84365 0.0
C165 C 0.18497 0.63276 0.83227 0.0
C166 C 0.22049 0.74056 0.84424 0.0
H167 H 0.18737 0.63524 0.80266 0.0
C168 C 0.25551 0.74027 0.81625 0.0
C169 C 0.27056 0.79103 0.79925 0.0
C170 C 0.20281 0.79407 0.85665 0.0
H171 H 0.17519 0.79591 0.878 0.0
C172 C 0.21939 0.84558 0.84056 0.0
H173 H 0.2711 0.69985 0.80713 0.0
C174 C 0.25305 0.84415 0.81169 0.0
H175 H 0.26503 0.88391 0.7991 0.0
H176 H 0.20537 0.88649 0.85013 0.0
H177 H 1.06522 0.5662 0.37573 0.0
C178 C 1.10238 0.59595 0.38994 0.0
C179 C 0.14213 0.62202 0.36881 0.0
C180 C 1.10842 0.61153 0.42915 0.0
H181 H 0.21938 0.68303 0.37144 0.0
C182 C 0.18873 0.6624 0.38747 0.0
C183 C 0.19459 0.67921 0.4262 0.0
C184 C 0.15476 0.65328 0.44698 0.0
C185 C 1.06444 0.58794 0.45133 0.0
H186 H 0.15956 0.66621 0.47704 0.0
C187 C 1.04416 0.52732 0.44807 0.0
C188 C 1.00374 0.5056 0.47027 0.0
C189 C 1.0432 0.62656 0.47661 0.0
H190 H 1.05738 0.67345 0.47932 0.0
C191 C 1.00338 0.60523 0.49864 0.0
H192 H 1.06027 0.49712 0.42872 0.0
C193 C 0.98409 0.54521 0.49578 0.0
H194 H 0.95436 0.52966 0.51401 0.0
H195 H 0.98775 0.63532 0.51826 0.0
H196 H 0.66092 0.99935 0.74425 0.0
C197 C 0.66729 0.0436 0.75842 0.0
C198 C 0.68262 0.09094 0.73811 0.0
C199 C 0.65518 0.0537 0.79552 0.0
H200 H 0.69729 0.18525 0.73915 0.0
C201 C 0.68713 0.14867 0.75517 0.0
C202 C 0.67414 0.16009 0.79139 0.0
C203 C 0.65933 0.11279 0.81178 0.0
C204 C 0.63221 1.00344 0.81553 0.0
H205 H 0.64995 0.12258 0.83998 0.0
C206 C 0.64744 0.94595 0.80939 0.0
C207 C 0.62195 0.8989 0.82677 0.0
C208 C 0.5917 1.01228 0.83973 0.0
H209 H 0.57671 0.05442 0.84425 0.0
C210 C 0.568 0.96635 0.85771 0.0
H211 H 0.67797 0.93735 0.79072 0.0
C212 C 0.5828 0.91022 0.85128 0.0
H213 H 0.56302 0.87518 0.86527 0.0
H214 H 0.53705 0.97411 0.87623 0.0
H215 H 0.57566 0.56887 0.05965 0.0
C216 C 0.62018 0.57463 0.0726 0.0
C217 C 0.66207 0.57532 0.04878 0.0
C218 C 0.63544 0.58083 0.11225 0.0
H219 H 0.75183 0.5787 0.04505 0.0
C220 C 0.72029 0.57966 0.06399 0.0
C221 C 0.73884 0.58524 0.10288 0.0
C222 C 0.69623 0.58732 0.12704 0.0
C223 C 0.58802 0.57698 0.13739 0.0
H224 H 0.71113 0.59342 0.15703 0.0
C225 C 0.5285 0.58387 0.12501 0.0
C226 C 0.48566 0.57526 0.14918 0.0
C227 C 0.60192 0.56259 0.17451 0.0
H228 H 0.64454 0.55446 0.1856 0.0
C229 C 0.56087 0.55622 0.19831 0.0
H230 H 0.51491 0.59487 0.09689 0.0
C231 C 0.50393 0.56227 0.18595 0.0
H232 H 0.4736 0.55633 0.20549 0.0
H233 H 0.57326 0.54535 0.2267 0.0
C234 C 0.3219 0.53408 0.14334 0.0
C235 C 0.29781 0.58443 0.13263 0.0
C236 C 0.38146 0.53062 0.14613 0.0
C237 C 0.42127 0.577 0.13816 0.0
H238 H 0.29467 0.49697 0.1506 0.0
H239 H 0.39684 0.49132 0.15577 0.0
S240 S 0.38194 0.7176 0.10626 0.0
N241 N 0.31994 0.68123 0.11187 0.0
N242 N 0.431 0.67441 0.11737 0.0
C243 C 0.39786 0.62681 0.12602 0.0
C244 C 0.33684 0.63061 0.12329 0.0
C245 C 1.00569 0.34129 0.47393 0.0
C246 C 0.9474 0.31963 0.47257 0.0
C247 C 1.02344 0.40112 0.47166 0.0
C248 C 0.98357 0.44155 0.46836 0.0
H249 H 1.03787 0.31184 0.47714 0.0
H250 H 1.06887 0.41616 0.47379 0.0
S251 S 0.82576 0.40698 0.46281 0.0
N252 N 0.84981 0.34333 0.46743 0.0
N253 N 0.88294 0.45519 0.46228 0.0
C254 C 0.92503 0.42015 0.46611 0.0
C255 C 0.90701 0.35939 0.46842 0.0
C256 C 0.59205 0.73282 0.80562 0.0
C257 C 0.6465 0.71429 0.81338 0.0
C258 C 0.58529 0.79251 0.8082 0.0
C259 C 0.63256 0.83682 0.81869 0.0
H260 H 0.55376 0.70095 0.79811 0.0
H261 H 0.54228 0.80414 0.80284 0.0
S262 S 0.78475 0.81315 0.84034 0.0
N263 N 0.7492 0.74604 0.83048 0.0
N264 N 0.73605 0.85849 0.83554 0.0
C265 C 0.68753 0.81947 0.8251 0.0
C266 C 0.69458 0.75827 0.82244 0.0
C267 C 0.89054 0.53979 0.11015 0.0
C268 C 0.92831 0.59185 0.1244 0.0
C269 C 0.83 0.53736 0.10581 0.0
C270 C 0.80301 0.58648 0.11594 0.0
H271 H 0.90774 0.50035 0.10128 0.0
H272 H 0.80381 0.49673 0.09316 0.0
S273 S 0.8802 0.73359 0.15552 0.0
N274 N 0.93237 0.69408 0.14956 0.0
N275 N 0.81952 0.68904 0.14138 0.0
C276 C 0.83984 0.63842 0.13117 0.0
C277 C 0.90181 0.64117 0.13544 0.0
C278 C 0.33875 0.77501 0.45044 0.0
C279 C 0.32456 0.82817 0.46652 0.0
C280 C 0.29692 0.72597 0.43903 0.0
C281 C 0.23947 0.72809 0.4436 0.0
H282 H 0.38241 0.77157 0.44607 0.0
H283 H 0.30929 0.68646 0.42576 0.0
S284 S 0.17968 0.85641 0.48385 0.0
N285 N 0.24869 0.87981 0.48626 0.0
N286 N 0.17035 0.78716 0.46533 0.0
C287 C 0.22492 0.78023 0.46061 0.0
C288 C 0.26739 0.83037 0.47197 0.0
C289 C 0.71217 0.32473 0.81745 0.0
C290 C 0.65794 0.34444 0.81398 0.0
C291 C 0.7174 0.26453 0.81239 0.0
C292 C 0.66868 0.22168 0.80472 0.0
H293 H 0.75098 0.35611 0.8223 0.0
H294 H 0.75977 0.25147 0.81311 0.0
S295 S 0.51721 0.24907 0.79564 0.0
N296 N 0.5546 0.31541 0.80419 0.0
N297 N 0.56478 0.20248 0.7955 0.0
C298 C 0.61442 0.24042 0.80298 0.0
C299 C 0.60895 0.3017 0.80741 0.0
C300 C 0.6143 0.83716 0.49419 0.0
C301 C 0.66903 0.8702 0.49696 0.0
C302 C 0.6064 0.77548 0.48873 0.0
C303 C 0.65287 0.74373 0.48636 0.0
H304 H 0.57659 0.85901 0.49507 0.0
H305 H 0.56321 0.75234 0.48555 0.0
S306 S 0.80533 0.80757 0.49387 0.0
N307 N 0.77106 0.86542 0.4983 0.0
N308 N 0.7558 0.7493 0.48845 0.0
C309 C 0.70805 0.77561 0.49036 0.0
C310 C 0.7162 0.83877 0.49548 0.0
C311 C 1.03772 0.51171 0.77516 0.0
C312 C 1.02231 0.46323 0.79451 0.0
C313 C 1.09127 0.54592 0.78603 0.0
C314 C 0.13069 0.53079 0.8155 0.0
H315 H 1.00515 0.53033 0.75751 0.0
H316 H 1.09688 0.58884 0.77598 0.0
S317 S 0.12224 0.38811 0.85566 0.0
N318 N 1.05804 0.38795 0.83089 0.0
N319 N 0.16084 0.45007 0.8493 0.0
C320 C 0.12185 0.47301 0.82545 0.0
C321 C 1.06667 0.4392 0.81526 0.0
C322 C 0.36818 0.98625 0.16961 0.0
C323 C 0.36344 0.92462 0.16768 0.0
C324 C 0.42125 0.02133 0.18141 0.0
C325 C 0.47123 0.99596 0.19208 0.0
H326 H 0.33044 1.00749 0.16241 0.0
H327 H 0.42278 0.06872 0.18361 0.0
S328 S 0.48208 0.83669 0.19081 0.0
N329 N 0.4134 0.8396 0.17647 0.0
N330 N 0.51323 0.90567 0.1985 0.0
C331 C 0.46735 0.93438 0.18934 0.0
C332 C 0.41343 0.89867 0.17713 0.0
C333 C 0.72817 0.28022 0.52189 0.0
C334 C 0.67941 0.24344 0.502 0.0
C335 C 0.72947 0.34147 0.52756 0.0
C336 C 0.68254 0.36891 0.51309 0.0
H337 H 0.76504 0.26158 0.5346 0.0
H338 H 0.76679 0.36748 0.54465 0.0
S339 S 0.54692 0.29443 0.45565 0.0
N340 N 0.58454 0.24034 0.46518 0.0
N341 N 0.58752 0.35546 0.47586 0.0
C342 C 0.63493 0.33341 0.49127 0.0
C343 C 0.63322 0.27078 0.48576 0.0
C344 C 0.39672 0.74923 0.76435 0.0
C345 C 0.36937 0.70394 0.73647 0.0
C346 C 0.36512 0.78944 0.78045 0.0
C347 C 0.30564 0.78494 0.76908 0.0
H348 H 0.44044 0.74844 0.77767 0.0
H349 H 0.38535 0.81729 0.80583 0.0
S350 S 0.21922 0.68833 0.68831 0.0
N351 N 0.28376 0.66779 0.69118 0.0
N352 N 0.2243 0.74343 0.72172 0.0
C353 C 0.28087 0.7481 0.73623 0.0
C354 C 0.3128 0.70698 0.71996 0.0
C355 C 0.83333 0.33292 0.17322 0.0
C356 C 0.86781 0.29263 0.16004 0.0
C357 C 0.77686 0.31462 0.17819 0.0
C358 C 0.75253 0.25527 0.17025 0.0
H359 H 0.84947 0.3794 0.17863 0.0
H360 H 0.75169 0.34744 0.18781 0.0
S361 S 0.82554 0.13177 0.13684 0.0
N362 N 0.87456 0.19023 0.14089 0.0
N363 N 0.76773 0.15588 0.14947 0.0
C364 C 0.78695 0.21418 0.15803 0.0
C365 C 0.84464 0.23288 0.15297 0.0
C366 C 0.16343 0.56573 0.00126 0.0
C367 C 0.1265 0.59999 0.01765 0.0
C368 C 0.18013 0.57664 0.96658 0.0
C369 C 0.16077 0.62234 0.94693 0.0
H370 H 0.17981 0.53012 0.01527 0.0
H371 H 0.20782 0.54848 0.95471 0.0
S372 S 1.06288 0.72443 0.97684 0.0
N373 N 1.0709 0.68177 0.0112 0.0
N374 N 1.10221 0.70159 0.94577 0.0
C375 C 0.12433 0.65734 0.96297 0.0
C376 C 1.10711 0.64625 -0.00168 0.0
C377 C 0.58882 0.04474 0.3681 0.0
C378 C 0.64664 0.05333 0.38507 0.0
C379 C 0.57325 0.05021 0.32985 0.0
C380 C 0.6148 0.0634 0.30657 0.0
H381 H 0.55492 0.03494 0.38465 0.0
H382 H 0.52794 0.04467 0.31855 0.0
S383 S 0.77251 0.08807 0.33697 0.0
N384 N 0.74597 0.07551 0.37586 0.0
N385 N 0.71668 0.08369 0.30326 0.0
C386 C 0.67296 0.07187 0.32308 0.0
C387 C 0.68886 0.06718 0.36244 0.0
C388 C 0.62942 0.54105 0.67367 0.0
C389 C 0.67286 0.52431 0.6999 0.0
C390 C 0.63275 0.53704 0.635 0.0
C391 C 0.67966 0.51621 0.62112 0.0
H392 H 0.59169 0.55598 0.68285 0.0
H393 H 0.59727 0.54807 0.6157 0.0
S394 S 0.80769 0.47285 0.67781 0.0
N395 N 0.76633 0.4901 0.70899 0.0
N396 N 0.77262 0.48337 0.63651 0.0
C397 C 0.72452 0.50186 0.64704 0.0
C398 C 0.72111 0.50569 0.68634 0.0
C399 C 0.6529 0.10736 0.63407 0.0
C400 C 0.69003 0.07271 0.61817 0.0
C401 C 0.65053 0.1118 0.67262 0.0
C402 C 0.68517 0.0819 0.69719 0.0
H403 H 0.62517 0.13167 0.61669 0.0
H404 H 0.62113 0.13906 0.68333 0.0
S405 S 0.789 0.98441 0.67051 0.0
N406 N 0.76179 1.00686 0.63027 0.0
N407 N 0.75726 1.01578 0.70331 0.0
C408 C 0.72206 0.04644 0.68198 0.0
C409 C 0.7247 0.04192 0.64239 0.0
C410 C 0.61136 0.51341 0.94653 0.0
C411 C 0.63582 0.55792 0.92701 0.0
C412 C 0.61671 0.52039 -0.01383 0.0
C413 C 0.64638 0.57215 0.00728 0.0
H414 H 0.59087 0.47181 0.93136 0.0
H415 H 0.6003 0.48403 0.00046 0.0
S416 S 0.70962 0.70516 0.96943 0.0
N417 N 0.68441 0.65822 0.93174 0.0
N418 N 0.69453 0.67073 0.0058 0.0
C419 C 0.66733 0.61826 -0.01208 0.0
C420 C 0.662 0.61131 0.94787 0.0
C421 C 0.1368 0.65437 0.2671 0.0
C422 C 0.12511 0.59837 0.24664 0.0
C423 C 0.14036 0.66123 0.3063 0.0
C424 C 0.13334 0.61235 0.3269 0.0
H425 H 0.14297 0.6935 0.25274 0.0
H426 H 0.14903 0.70545 0.32064 0.0
S427 S 1.10197 0.45598 0.28675 0.0
N428 N 1.10546 0.49293 0.2497 0.0
N429 N 1.11375 0.50586 0.32381 0.0
C430 C 0.12071 0.55603 0.30681 0.0
C431 C 0.11637 0.54903 0.26662 0.0
loop_
_geom_bond_atom_site_label_1
_geom_bond_atom_site_label_2
_geom_bond_distance
_geom_bond_site_symmetry_2
_ccdc_geom_bond_type
Dy0 O3 2.307 1_455 S
Dy0 O5 2.395 . S
Dy0 O6 2.379 . S
Dy0 O8 2.339 . S
Dy0 O10 2.298 . S
Dy0 O14 2.275 . S
Dy0 C22 2.738 . S
Dy1 O4 2.298 . S
Dy1 O7 2.275 1_655 S
Dy1 O9 2.307 1_655 S
Dy1 O11 2.395 . S
Dy1 O12 2.379 . S
Dy1 O15 2.339 . S
Dy1 C31 2.738 . S
C2 O14 1.254 . S
C2 O15 1.257 1_455 S
O3 Dy0 2.307 1_655 S
O3 C13 1.266 . S
O4 Dy1 2.298 . S
O4 C13 1.236 . S
O5 Dy0 2.395 . S
O5 C22 1.255 . S
O6 Dy0 2.379 . S
O6 C22 1.249 . S
O7 Dy1 2.275 1_455 S
O7 C23 1.254 . S
O8 Dy0 2.339 . S
O8 C23 1.257 . S
O9 Dy1 2.307 1_455 S
O9 C24 1.266 . S
O10 Dy0 2.298 . S
O10 C24 1.236 . S
O11 Dy1 2.395 . S
O11 C31 1.255 . S
O12 Dy1 2.379 . S
O12 C31 1.249 . S
C13 O3 1.266 . S
C13 O4 1.236 . S
O14 Dy0 2.275 . S
O14 C2 1.254 . S
O15 Dy1 2.339 . S
O15 C2 1.257 1_655 S
C16 C19 1.344 . S
C16 C20 1.328 . S
C16 C22 1.516 . S
C17 C18 1.304 . S
C17 C21 1.323 . S
C18 C17 1.304 . S
C18 C19 1.371 . S
C18 H32 0.930 . S
C19 C16 1.344 . S
C19 C18 1.371 . S
C19 H33 0.931 . S
C20 C16 1.328 . S
C20 C21 1.433 . S
C20 H34 0.931 . S
C21 C17 1.323 . S
C21 C20 1.433 . S
C21 H35 0.933 . S
C22 Dy0 2.738 . S
C22 O5 1.255 . S
C22 O6 1.249 . S
C22 C16 1.516 . S
C23 O7 1.254 . S
C23 O8 1.257 . S
C24 O9 1.266 . S
C24 O10 1.236 . S
C25 C28 1.344 . S
C25 C29 1.328 . S
C25 C31 1.516 . S
C26 C27 1.304 . S
C26 C30 1.323 . S
C27 C26 1.304 . S
C27 C28 1.371 . S
C27 H36 0.930 . S
C28 C25 1.344 . S
C28 C27 1.371 . S
C28 H37 0.931 . S
C29 C25 1.328 . S
C29 C30 1.433 . S
C29 H38 0.931 . S
C30 C26 1.323 . S
C30 C29 1.433 . S
C30 H39 0.933 . S
C31 Dy1 2.738 . S
C31 O11 1.255 . S
C31 O12 1.249 . S
C31 C25 1.516 . S
H32 C18 0.930 . S
H33 C19 0.931 . S
H34 C20 0.931 . S
H35 C21 0.933 . S
H36 C27 0.930 . S
H37 C28 0.931 . S
H38 C29 0.931 . S
H39 C30 0.933 . S
Dy40 O43 2.307 . S
Dy40 O45 2.395 1_545 S
Dy40 O46 2.379 1_545 S
Dy40 O48 2.339 . S
Dy40 O50 2.298 1_545 S
Dy40 O54 2.275 . S
Dy40 C62 2.738 1_545 S
Dy41 O44 2.298 . S
Dy41 O47 2.275 . S
Dy41 O49 2.307 1_545 S
Dy41 O51 2.395 . S
Dy41 O52 2.379 . S
Dy41 O55 2.339 . S
Dy41 C71 2.738 . S
C42 O54 1.254 . S
C42 O55 1.257 . S
O43 Dy40 2.307 . S
O43 C53 1.266 . S
O44 Dy41 2.298 . S
O44 C53 1.236 . S
O45 Dy40 2.395 1_565 S
O45 C62 1.255 . S
O46 Dy40 2.379 1_565 S
O46 C62 1.249 . S
O47 Dy41 2.275 . S
O47 C63 1.254 . S
O48 Dy40 2.339 . S
O48 C63 1.257 . S
O49 Dy41 2.307 1_565 S
O49 C64 1.266 . S
O50 Dy40 2.298 1_565 S
O50 C64 1.236 . S
O51 Dy41 2.395 . S
O51 C71 1.255 . S
O52 Dy41 2.379 . S
O52 C71 1.249 . S
C53 O43 1.266 . S
C53 O44 1.236 . S
O54 Dy40 2.275 . S
O54 C42 1.254 . S
O55 Dy41 2.339 . S
O55 C42 1.257 . S
C56 C59 1.344 . S
C56 C60 1.328 . S
C56 C62 1.516 . S
C57 C58 1.304 . S
C57 C61 1.323 . S
C58 C57 1.304 . S
C58 C59 1.371 . S
C58 H72 0.930 . S
C59 C56 1.344 . S
C59 C58 1.371 . S
C59 H73 0.931 . S
C60 C56 1.328 . S
C60 C61 1.433 . S
C60 H74 0.931 . S
C61 C57 1.323 . S
C61 C60 1.433 . S
C61 H75 0.933 . S
C62 Dy40 2.738 1_565 S
C62 O45 1.255 . S
C62 O46 1.249 . S
C62 C56 1.516 . S
C63 O47 1.254 . S
C63 O48 1.257 . S
C64 O49 1.266 . S
C64 O50 1.236 . S
C65 C68 1.344 . S
C65 C69 1.328 . S
C65 C71 1.516 . S
C66 C67 1.304 . S
C66 C70 1.323 . S
C67 C66 1.304 . S
C67 C68 1.371 . S
C67 H76 0.930 . S
C68 C65 1.344 . S
C68 C67 1.371 . S
C68 H77 0.931 . S
C69 C65 1.328 . S
C69 C70 1.433 . S
C69 H78 0.931 . S
C70 C66 1.323 . S
C70 C69 1.433 . S
C70 H79 0.933 . S
C71 Dy41 2.738 . S
C71 O51 1.255 . S
C71 O52 1.249 . S
C71 C65 1.516 . S
H72 C58 0.930 . S
H73 C59 0.931 . S
H74 C60 0.931 . S
H75 C61 0.933 . S
H76 C67 0.930 . S
H77 C68 0.931 . S
H78 C69 0.931 . S
H79 C70 0.933 . S
Dy80 O83 2.307 . S
Dy80 O85 2.395 . S
Dy80 O86 2.379 . S
Dy80 O88 2.339 . S
Dy80 O90 2.298 . S
Dy80 O94 2.275 . S
Dy80 C102 2.738 . S
Dy81 O84 2.298 . S
Dy81 O87 2.275 . S
Dy81 O89 2.307 . S
Dy81 O91 2.395 . S
Dy81 O92 2.379 . S
Dy81 O95 2.339 . S
Dy81 C111 2.738 . S
C82 O94 1.254 . S
C82 O95 1.257 . S
O83 Dy80 2.307 . S
O83 C93 1.266 . S
O84 Dy81 2.298 . S
O84 C93 1.236 . S
O85 Dy80 2.395 . S
O85 C102 1.255 . S
O86 Dy80 2.379 . S
O86 C102 1.249 . S
O87 Dy81 2.275 . S
O87 C103 1.254 . S
O88 Dy80 2.339 . S
O88 C103 1.257 . S
O89 Dy81 2.307 . S
O89 C104 1.266 . S
O90 Dy80 2.298 . S
O90 C104 1.236 . S
O91 Dy81 2.395 . S
O91 C111 1.255 . S
O92 Dy81 2.379 . S
O92 C111 1.249 . S
C93 O83 1.266 . S
C93 O84 1.236 . S
O94 Dy80 2.275 . S
O94 C82 1.254 . S
O95 Dy81 2.339 . S
O95 C82 1.257 . S
C96 C99 1.344 . S
C96 C100 1.328 . S
C96 C102 1.516 . S
C97 C98 1.304 . S
C97 C101 1.323 . S
C98 C97 1.304 . S
C98 C99 1.371 . S
C98 H112 0.930 . S
C99 C96 1.344 . S
C99 C98 1.371 . S
C99 H113 0.931 . S
C100 C96 1.328 . S
C100 C101 1.433 . S
C100 H114 0.931 . S
C101 C97 1.323 . S
C101 C100 1.433 . S
C101 H115 0.933 . S
C102 Dy80 2.738 . S
C102 O85 1.255 . S
C102 O86 1.249 . S
C102 C96 1.516 . S
C103 O87 1.254 . S
C103 O88 1.257 . S
C104 O89 1.266 . S
C104 O90 1.236 . S
C105 C108 1.344 . S
C105 C109 1.328 . S
C105 C111 1.516 . S
C106 C107 1.304 . S
C106 C110 1.323 . S
C107 C106 1.304 . S
C107 C108 1.371 . S
C107 H116 0.930 . S
C108 C105 1.344 . S
C108 C107 1.371 . S
C108 H117 0.931 . S
C109 C105 1.328 . S
C109 C110 1.433 . S
C109 H118 0.931 . S
C110 C106 1.323 . S
C110 C109 1.433 . S
C110 H119 0.933 . S
C111 Dy81 2.738 . S
C111 O91 1.255 . S
C111 O92 1.249 . S
C111 C105 1.516 . S
H112 C98 0.930 . S
H113 C99 0.931 . S
H114 C100 0.931 . S
H115 C101 0.933 . S
H116 C107 0.930 . S
H117 C108 0.931 . S
H118 C109 0.931 . S
H119 C110 0.933 . S
H120 C121 0.949 . S
C121 H120 0.949 . S
C121 C122 1.395 . S
C121 C123 1.391 . S
C122 C121 1.395 . S
C122 C125 1.390 . S
C123 C121 1.391 . S
C123 C127 1.387 . S
C123 C128 1.491 . S
H124 C125 0.950 1_565 S
C125 C122 1.390 . S
C125 H124 0.950 1_545 S
C125 C126 1.378 . S
C126 C125 1.378 . S
C126 C127 1.409 . S
C127 C123 1.387 . S
C127 C126 1.409 . S
C127 H129 0.951 . S
C128 C123 1.491 . S
C128 C130 1.382 . S
C128 C132 1.404 . S
H129 C127 0.951 . S
C130 C128 1.382 . S
C130 C131 1.390 . S
C130 H135 0.949 . S
C131 C130 1.390 . S
C131 C136 1.399 . S
C132 C128 1.404 . S
C132 H133 0.950 . S
C132 C134 1.375 . S
H133 C132 0.950 . S
C134 C132 1.375 . S
C134 C136 1.382 . S
C134 H138 0.950 . S
H135 C130 0.949 . S
C136 C131 1.399 . S
C136 C134 1.382 . S
C136 H137 0.952 . S
H137 C136 0.952 . S
H138 C134 0.950 . S
H139 C140 0.949 . S
C140 H139 0.949 . S
C140 C141 1.395 . S
C140 C142 1.391 . S
C141 C140 1.395 . S
C141 C144 1.390 . S
C142 C140 1.391 . S
C142 C146 1.387 . S
C142 C147 1.491 . S
H143 C144 0.950 . S
C144 C141 1.390 . S
C144 H143 0.950 . S
C144 C145 1.378 . S
C145 C144 1.378 . S
C145 C146 1.409 . S
C146 C142 1.387 . S
C146 C145 1.409 . S
C146 H148 0.951 . S
C147 C142 1.491 . S
C147 C149 1.382 . S
C147 C151 1.404 . S
H148 C146 0.951 . S
C149 C147 1.382 . S
C149 C150 1.390 . S
C149 H154 0.949 . S
C150 C149 1.390 . S
C150 C155 1.399 . S
C151 C147 1.404 . S
C151 H152 0.950 . S
C151 C153 1.375 . S
H152 C151 0.950 . S
C153 C151 1.375 . S
C153 C155 1.382 . S
C153 H157 0.950 . S
H154 C149 0.949 . S
C155 C150 1.399 . S
C155 C153 1.382 . S
C155 H156 0.952 . S
H156 C155 0.952 . S
H157 C153 0.950 . S
H158 C159 0.949 . S
C159 H158 0.949 . S
C159 C160 1.395 . S
C159 C161 1.391 . S
C160 C159 1.395 . S
C160 C163 1.390 1_455 S
C161 C159 1.391 . S
C161 C165 1.387 1_455 S
C161 C166 1.491 . S
H162 C163 0.950 . S
C163 C160 1.390 1_655 S
C163 H162 0.950 . S
C163 C164 1.378 . S
C164 C163 1.378 . S
C164 C165 1.409 . S
C165 C161 1.387 1_655 S
C165 C164 1.409 . S
C165 H167 0.951 . S
C166 C161 1.491 . S
C166 C168 1.382 . S
C166 C170 1.404 . S
H167 C165 0.951 . S
C168 C166 1.382 . S
C168 C169 1.390 . S
C168 H173 0.949 . S
C169 C168 1.390 . S
C169 C174 1.399 . S
C170 C166 1.404 . S
C170 H171 0.950 . S
C170 C172 1.375 . S
H171 C170 0.950 . S
C172 C170 1.375 . S
C172 C174 1.382 . S
C172 H176 0.950 . S
H173 C168 0.949 . S
C174 C169 1.399 . S
C174 C172 1.382 . S
C174 H175 0.952 . S
H175 C174 0.952 . S
H176 C172 0.950 . S
H177 C178 0.949 1_655 S
C178 H177 0.949 1_455 S
C178 C179 1.395 . S
C178 C180 1.391 . S
C179 C178 1.395 . S
C179 C182 1.390 . S
C180 C178 1.391 . S
C180 C184 1.387 . S
C180 C185 1.491 1_455 S
H181 C182 0.950 . S
C182 C179 1.390 . S
C182 H181 0.950 . S
C182 C183 1.378 . S
C183 C182 1.378 . S
C183 C184 1.409 . S
C184 C180 1.387 . S
C184 C183 1.409 . S
C184 H186 0.951 . S
C185 C180 1.491 1_655 S
C185 C187 1.382 . S
C185 C189 1.404 . S
H186 C184 0.951 . S
C187 C185 1.382 . S
C187 C188 1.390 . S
C187 H192 0.949 . S
C188 C187 1.390 . S
C188 C193 1.399 . S
C189 C185 1.404 . S
C189 H190 0.950 . S
C189 C191 1.375 . S
H190 C189 0.950 . S
C191 C189 1.375 . S
C191 C193 1.382 . S
C191 H195 0.950 . S
H192 C187 0.949 . S
C193 C188 1.399 . S
C193 C191 1.382 . S
C193 H194 0.952 . S
H194 C193 0.952 . S
H195 C191 0.950 . S
H196 C197 0.949 1_565 S
C197 H196 0.949 1_545 S
C197 C198 1.395 . S
C197 C199 1.391 . S
C198 C197 1.395 . S
C198 C201 1.390 . S
C199 C197 1.391 . S
C199 C203 1.387 . S
C199 C204 1.491 1_545 S
H200 C201 0.950 . S
C201 C198 1.390 . S
C201 H200 0.950 . S
C201 C202 1.378 . S
C202 C201 1.378 . S
C202 C203 1.409 . S
C203 C199 1.387 . S
C203 C202 1.409 . S
C203 H205 0.951 . S
C204 C199 1.491 1_565 S
C204 C206 1.382 . S
C204 C208 1.404 . S
H205 C203 0.951 . S
C206 C204 1.382 . S
C206 C207 1.390 . S
C206 H211 0.949 . S
C207 C206 1.390 . S
C207 C212 1.399 . S
C208 C204 1.404 . S
C208 H209 0.950 . S
C208 C210 1.375 . S
H209 C208 0.950 . S
C210 C208 1.375 . S
C210 C212 1.382 . S
C210 H214 0.950 . S
H211 C206 0.949 . S
C212 C207 1.399 . S
C212 C210 1.382 . S
C212 H213 0.952 . S
H213 C212 0.952 . S
H214 C210 0.950 . S
H215 C216 0.949 . S
C216 H215 0.949 . S
C216 C217 1.395 . S
C216 C218 1.391 . S
C217 C216 1.395 . S
C217 C220 1.390 . S
C218 C216 1.391 . S
C218 C222 1.387 . S
C218 C223 1.491 . S
H219 C220 0.950 . S
C220 C217 1.390 . S
C220 H219 0.950 . S
C220 C221 1.378 . S
C221 C220 1.378 . S
C221 C222 1.409 . S
C222 C218 1.387 . S
C222 C221 1.409 . S
C222 H224 0.951 . S
C223 C218 1.491 . S
C223 C225 1.382 . S
C223 C227 1.404 . S
H224 C222 0.951 . S
C225 C223 1.382 . S
C225 C226 1.390 . S
C225 H230 0.949 . S
C226 C225 1.390 . S
C226 C231 1.399 . S
C227 C223 1.404 . S
C227 H228 0.950 . S
C227 C229 1.375 . S
H228 C227 0.950 . S
C229 C227 1.375 . S
C229 C231 1.382 . S
C229 H233 0.950 . S
H230 C225 0.949 . S
C231 C226 1.399 . S
C231 C229 1.382 . S
C231 H232 0.952 . S
H232 C231 0.952 . S
H233 C229 0.950 . S
C234 C235 1.369 . S
C234 C236 1.419 . S
C234 H238 0.930 . S
C235 C234 1.369 . S
C235 C244 1.429 . S
C236 C234 1.419 . S
C236 C237 1.363 . S
C236 H239 0.929 . S
C237 C236 1.363 . S
C237 C243 1.428 . S
H238 C234 0.930 . S
H239 C236 0.929 . S
S240 N241 1.613 . S
S240 N242 1.610 . S
N241 S240 1.613 . S
N241 C244 1.350 . S
N242 S240 1.610 . S
N242 C243 1.351 . S
C243 C237 1.428 . S
C243 N242 1.351 . S
C243 C244 1.434 . S
C244 C235 1.429 . S
C244 N241 1.350 . S
C244 C243 1.434 . S
C245 C246 1.369 . S
C245 C247 1.419 . S
C245 H249 0.930 . S
C246 C245 1.369 . S
C246 C255 1.429 . S
C247 C245 1.419 . S
C247 C248 1.363 . S
C247 H250 0.929 . S
C248 C247 1.363 . S
C248 C254 1.428 . S
H249 C245 0.930 . S
H250 C247 0.929 . S
S251 N252 1.613 . S
S251 N253 1.610 . S
N252 S251 1.613 . S
N252 C255 1.350 . S
N253 S251 1.610 . S
N253 C254 1.351 . S
C254 C248 1.428 . S
C254 N253 1.351 . S
C254 C255 1.434 . S
C255 C246 1.429 . S
C255 N252 1.350 . S
C255 C254 1.434 . S
C256 C257 1.369 . S
C256 C258 1.419 . S
C256 H260 0.930 . S
C257 C256 1.369 . S
C257 C266 1.429 . S
C258 C256 1.419 . S
C258 C259 1.363 . S
C258 H261 0.929 . S
C259 C258 1.363 . S
C259 C265 1.428 . S
H260 C256 0.930 . S
H261 C258 0.929 . S
S262 N263 1.613 . S
S262 N264 1.610 . S
N263 S262 1.613 . S
N263 C266 1.350 . S
N264 S262 1.610 . S
N264 C265 1.351 . S
C265 C259 1.428 . S
C265 N264 1.351 . S
C265 C266 1.434 . S
C266 C257 1.429 . S
C266 N263 1.350 . S
C266 C265 1.434 . S
C267 C268 1.369 . S
C267 C269 1.419 . S
C267 H271 0.930 . S
C268 C267 1.369 . S
C268 C277 1.429 . S
C269 C267 1.419 . S
C269 C270 1.363 . S
C269 H272 0.929 . S
C270 C269 1.363 . S
C270 C276 1.428 . S
H271 C267 0.930 . S
H272 C269 0.929 . S
S273 N274 1.613 . S
S273 N275 1.610 . S
N274 S273 1.613 . S
N274 C277 1.350 . S
N275 S273 1.610 . S
N275 C276 1.351 . S
C276 C270 1.428 . S
C276 N275 1.351 . S
C276 C277 1.434 . S
C277 C268 1.429 . S
C277 N274 1.350 . S
C277 C276 1.434 . S
C278 C279 1.369 . S
C278 C280 1.419 . S
C278 H282 0.930 . S
C279 C278 1.369 . S
C279 C288 1.429 . S
C280 C278 1.419 . S
C280 C281 1.363 . S
C280 H283 0.929 . S
C281 C280 1.363 . S
C281 C287 1.428 . S
H282 C278 0.930 . S
H283 C280 0.929 . S
S284 N285 1.613 . S
S284 N286 1.610 . S
N285 S284 1.613 . S
N285 C288 1.350 . S
N286 S284 1.610 . S
N286 C287 1.351 . S
C287 C281 1.428 . S
C287 N286 1.351 . S
C287 C288 1.434 . S
C288 C279 1.429 . S
C288 N285 1.350 . S
C288 C287 1.434 . S
C289 C290 1.369 . S
C289 C291 1.419 . S
C289 H293 0.930 . S
C290 C289 1.369 . S
C290 C299 1.429 . S
C291 C289 1.419 . S
C291 C292 1.363 . S
C291 H294 0.929 . S
C292 C291 1.363 . S
C292 C298 1.428 . S
H293 C289 0.930 . S
H294 C291 0.929 . S
S295 N296 1.613 . S
S295 N297 1.610 . S
N296 S295 1.613 . S
N296 C299 1.350 . S
N297 S295 1.610 . S
N297 C298 1.351 . S
C298 C292 1.428 . S
C298 N297 1.351 . S
C298 C299 1.434 . S
C299 C290 1.429 . S
C299 N296 1.350 . S
C299 C298 1.434 . S
C300 C301 1.369 . S
C300 C302 1.419 . S
C300 H304 0.930 . S
C301 C300 1.369 . S
C301 C310 1.429 . S
C302 C300 1.419 . S
C302 C303 1.363 . S
C302 H305 0.929 . S
C303 C302 1.363 . S
C303 C309 1.428 . S
H304 C300 0.930 . S
H305 C302 0.929 . S
S306 N307 1.613 . S
S306 N308 1.610 . S
N307 S306 1.613 . S
N307 C310 1.350 . S
N308 S306 1.610 . S
N308 C309 1.351 . S
C309 C303 1.428 . S
C309 N308 1.351 . S
C309 C310 1.434 . S
C310 C301 1.429 . S
C310 N307 1.350 . S
C310 C309 1.434 . S
C311 C312 1.369 . S
C311 C313 1.419 . S
C311 H315 0.930 . S
C312 C311 1.369 . S
C312 C321 1.429 . S
C313 C311 1.419 . S
C313 C314 1.363 . S
C313 H316 0.929 . S
C314 C313 1.363 . S
C314 C320 1.428 . S
H315 C311 0.930 . S
H316 C313 0.929 . S
S317 N318 1.613 . S
S317 N319 1.610 . S
N318 S317 1.613 . S
N318 C321 1.350 . S
N319 S317 1.610 . S
N319 C320 1.351 . S
C320 C314 1.428 . S
C320 N319 1.351 . S
C320 C321 1.434 . S
C321 C312 1.429 . S
C321 N318 1.350 . S
C321 C320 1.434 . S
C322 C323 1.369 . S
C322 C324 1.419 1_565 S
C322 H326 0.930 1_565 S
C323 C322 1.369 . S
C323 C332 1.429 . S
C324 C322 1.419 1_545 S
C324 C325 1.363 1_545 S
C324 H327 0.929 . S
C325 C324 1.363 1_565 S
C325 C331 1.428 . S
H326 C322 0.930 1_545 S
H327 C324 0.929 . S
S328 N329 1.613 . S
S328 N330 1.610 . S
N329 S328 1.613 . S
N329 C332 1.350 . S
N330 S328 1.610 . S
N330 C331 1.351 . S
C331 C325 1.428 . S
C331 N330 1.351 . S
C331 C332 1.434 . S
C332 C323 1.429 . S
C332 N329 1.350 . S
C332 C331 1.434 . S
C333 C334 1.369 . S
C333 C335 1.419 . S
C333 H337 0.930 . S
C334 C333 1.369 . S
C334 C343 1.429 . S
C335 C333 1.419 . S
C335 C336 1.363 . S
C335 H338 0.929 . S
C336 C335 1.363 . S
C336 C342 1.428 . S
H337 C333 0.930 . S
H338 C335 0.929 . S
S339 N340 1.613 . S
S339 N341 1.610 . S
N340 S339 1.613 . S
N340 C343 1.350 . S
N341 S339 1.610 . S
N341 C342 1.351 . S
C342 C336 1.428 . S
C342 N341 1.351 . S
C342 C343 1.434 . S
C343 C334 1.429 . S
C343 N340 1.350 . S
C343 C342 1.434 . S
C344 C345 1.369 . S
C344 C346 1.419 . S
C344 H348 0.930 . S
C345 C344 1.369 . S
C345 C354 1.429 . S
C346 C344 1.419 . S
C346 C347 1.363 . S
C346 H349 0.929 . S
C347 C346 1.363 . S
C347 C353 1.428 . S
H348 C344 0.930 . S
H349 C346 0.929 . S
S350 N351 1.613 . S
S350 N352 1.610 . S
N351 S350 1.613 . S
N351 C354 1.350 . S
N352 S350 1.610 . S
N352 C353 1.351 . S
C353 C347 1.428 . S
C353 N352 1.351 . S
C353 C354 1.434 . S
C354 C345 1.429 . S
C354 N351 1.350 . S
C354 C353 1.434 . S
C355 C356 1.369 . S
C355 C357 1.419 . S
C355 H359 0.930 . S
C356 C355 1.369 . S
C356 C365 1.429 . S
C357 C355 1.419 . S
C357 C358 1.363 . S
C357 H360 0.929 . S
C358 C357 1.363 . S
C358 C364 1.428 . S
H359 C355 0.930 . S
H360 C357 0.929 . S
S361 N362 1.613 . S
S361 N363 1.610 . S
N362 S361 1.613 . S
N362 C365 1.350 . S
N363 S361 1.610 . S
N363 C364 1.351 . S
C364 C358 1.428 . S
C364 N363 1.351 . S
C364 C365 1.434 . S
C365 C356 1.429 . S
C365 N362 1.350 . S
C365 C364 1.434 . S
C366 C367 1.369 . S
C366 C368 1.419 . S
C366 H370 0.930 . S
C367 C366 1.369 . S
C367 C376 1.429 1_455 S
C368 C366 1.419 . S
C368 C369 1.363 1_554 S
C368 H371 0.931 . S
C369 C368 1.363 1_556 S
C369 C375 1.428 1_455 S
H370 C366 0.930 . S
H371 C368 0.931 . S
S372 N373 1.613 1_556 S
S372 N374 1.610 . S
N373 S372 1.613 1_554 S
N373 C376 1.350 . S
N374 S372 1.610 . S
N374 C375 1.351 . S
C375 C369 1.428 1_655 S
C375 N374 1.351 . S
C375 C376 1.434 1_556 S
C376 C367 1.429 1_655 S
C376 N373 1.350 . S
C376 C375 1.434 1_554 S
C377 C378 1.369 . S
C377 C379 1.419 . S
C377 H381 0.930 . S
C378 C377 1.369 . S
C378 C387 1.429 . S
C379 C377 1.419 . S
C379 C380 1.363 . S
C379 H382 0.929 . S
C380 C379 1.363 . S
C380 C386 1.428 . S
H381 C377 0.930 . S
H382 C379 0.929 . S
S383 N384 1.613 . S
S383 N385 1.610 . S
N384 S383 1.613 . S
N384 C387 1.350 . S
N385 S383 1.610 . S
N385 C386 1.351 . S
C386 C380 1.428 . S
C386 N385 1.351 . S
C386 C387 1.434 . S
C387 C378 1.429 . S
C387 N384 1.350 . S
C387 C386 1.434 . S
C388 C389 1.369 . S
C388 C390 1.419 . S
C388 H392 0.930 . S
C389 C388 1.369 . S
C389 C398 1.429 . S
C390 C388 1.419 . S
C390 C391 1.363 . S
C390 H393 0.929 . S
C391 C390 1.363 . S
C391 C397 1.428 . S
H392 C388 0.930 . S
H393 C390 0.929 . S
S394 N395 1.613 . S
S394 N396 1.610 . S
N395 S394 1.613 . S
N395 C398 1.350 . S
N396 S394 1.610 . S
N396 C397 1.351 . S
C397 C391 1.428 . S
C397 N396 1.351 . S
C397 C398 1.434 . S
C398 C389 1.429 . S
C398 N395 1.350 . S
C398 C397 1.434 . S
C399 C400 1.369 . S
C399 C401 1.419 . S
C399 H403 0.930 . S
C400 C399 1.369 . S
C400 C409 1.429 . S
C401 C399 1.419 . S
C401 C402 1.363 . S
C401 H404 0.929 . S
C402 C401 1.363 . S
C402 C408 1.428 . S
H403 C399 0.930 . S
H404 C401 0.929 . S
S405 N406 1.613 . S
S405 N407 1.610 . S
N406 S405 1.613 . S
N406 C409 1.350 1_565 S
N407 S405 1.610 . S
N407 C408 1.351 1_565 S
C408 C402 1.428 . S
C408 N407 1.351 1_545 S
C408 C409 1.434 . S
C409 C400 1.429 . S
C409 N406 1.350 1_545 S
C409 C408 1.434 . S
C410 C411 1.369 . S
C410 C412 1.419 1_556 S
C410 H414 0.930 . S
C411 C410 1.369 . S
C411 C420 1.429 . S
C412 C410 1.419 1_554 S
C412 C413 1.363 . S
C412 H415 0.929 . S
C413 C412 1.363 . S
C413 C419 1.428 1_554 S
H414 C410 0.930 . S
H415 C412 0.929 . S
S416 N417 1.613 . S
S416 N418 1.610 1_556 S
N417 S416 1.613 . S
N417 C420 1.350 . S
N418 S416 1.610 1_554 S
N418 C419 1.351 1_554 S
C419 C413 1.428 1_556 S
C419 N418 1.351 1_556 S
C419 C420 1.434 . S
C420 C411 1.429 . S
C420 N417 1.350 . S
C420 C419 1.434 . S
C421 C422 1.369 . S
C421 C423 1.419 . S
C421 H425 0.930 1_455 S
C422 C421 1.369 . S
C422 C431 1.429 . S
C423 C421 1.419 . S
C423 C424 1.363 . S
C423 H426 0.929 1_455 S
C424 C423 1.363 . S
C424 C430 1.428 . S
H425 C421 0.930 1_655 S
H426 C423 0.929 1_655 S
S427 N428 1.613 . S
S427 N429 1.610 . S
N428 S427 1.613 . S
N428 C431 1.350 . S
N429 S427 1.610 . S
N429 C430 1.351 . S
C430 C424 1.428 . S
C430 N429 1.351 . S
C430 C431 1.434 . S
C431 C422 1.429 . S
C431 N428 1.350 . S
C431 C430 1.434 . S
C235 C24 3.128 . S
C237 C226 3.063 . S
C246 C66 1.269 . S
C248 C188 1.196 . S
C257 C93 1.949 . S
C259 C207 1.892 . S
C268 C13 3.095 . S
C270 C221 3.055 . S
C281 C183 1.114 . S
C279 C57 1.120 . S
C292 C202 1.889 . S
C290 C104 1.917 . S
C301 C64 2.055 . S
C303 C150 1.987 . S
C312 C97 0.685 . S
C314 C164 0.624 . S
C323 C17 1.335 . S
C325 C126 1.385 1_565 S
C336 C145 1.777 . S
C334 C53 1.815 . S
C347 C169 0.690 . S
C345 C106 0.603 . S
C356 C26 1.293 . S
C358 C131 1.272 . S
C369 C160 1.259 . S
C367 C2 1.220 . S
C378 C63 1.518 . S
C380 C122 1.502 . S
C389 C82 1.484 . S
C391 C141 1.519 . S
C402 C198 1.502 . S
C400 C42 1.471 . S
C413 C217 1.762 . S
C411 C103 1.755 . S
C422 C23 1.601 . S
C424 C179 1.586 . S
