# Generated by pormake.
# Topology pyr, (3,6)-cn, num edge types: 1
# Building blocks:
#     Node 0, Type 0, BuildingBlock: QEWDON_clean_linker_0, # of connection points: 3
#     Node 1, Type 0, BuildingBlock: QEWDON_clean_linker_0, # of connection points: 3
#     Node 2, Type 0, BuildingBlock: QEWDON_clean_linker_0, # of connection points: 3
#     Node 3, Type 0, BuildingBlock: QEWDON_clean_linker_0, # of connection points: 3
#     Node 4, Type 0, BuildingBlock: QEWDON_clean_linker_0, # of connection points: 3
#     Node 5, Type 0, BuildingBlock: QEWDON_clean_linker_0, # of connection points: 3
#     Node 6, Type 0, BuildingBlock: QEWDON_clean_linker_0, # of connection points: 3
#     Node 7, Type 0, BuildingBlock: QEWDON_clean_linker_0, # of connection points: 3
#     Node 8, Type 1, BuildingBlock: JUFBIX_clean_sbu_0, # of connection points: 6
#     Node 9, Type 1, BuildingBlock: JUFBIX_clean_sbu_0, # of connection points: 6
#     Node 10, Type 1, BuildingBlock: JUFBIX_clean_sbu_0, # of connection points: 6
#     Node 11, Type 1, BuildingBlock: JUFBIX_clean_sbu_0, # of connection points: 6
#     Edge 12, Type (0, 1), None
#     Edge 13, Type (0, 1), None
#     Edge 14, Type (0, 1), None
#     Edge 15, Type (0, 1), None
#     Edge 16, Type (0, 1), None
#     Edge 17, Type (0, 1), None
#     Edge 18, Type (0, 1), None
#     Edge 19, Type (0, 1), None
#     Edge 20, Type (0, 1), None
#     Edge 21, Type (0, 1), None
#     Edge 22, Type (0, 1), None
#     Edge 23, Type (0, 1), None
#     Edge 24, Type (0, 1), None
#     Edge 25, Type (0, 1), None
#     Edge 26, Type (0, 1), None
#     Edge 27, Type (0, 1), None
#     Edge 28, Type (0, 1), None
#     Edge 29, Type (0, 1), None
#     Edge 30, Type (0, 1), None
#     Edge 31, Type (0, 1), None
#     Edge 32, Type (0, 1), None
#     Edge 33, Type (0, 1), None
#     Edge 34, Type (0, 1), None
#     Edge 35, Type (0, 1), None
# Relax obj value: 0.331
# Max RMSD: 0.314
# Mean RMSD: 0.183
data_MOF--net-pyr--node1-JUFBIX_clean_sbu_0--node2-QEWDON_clean_linker_0--edge1-none
_symmetry_space_group_name_H-M    P1
_symmetry_Int_Tables_number       1
_symmetry_cell_setting            triclinic
loop_
_symmetry_equiv_pos_as_xyz
'x, y, z'
_cell_length_a     16.693149
_cell_length_b     15.574491
_cell_length_c     17.583771
_cell_angle_alpha  82.704257
_cell_angle_beta   82.841457
_cell_angle_gamma 103.11184
loop_
_atom_site_label
_atom_site_type_symbol
_atom_site_fract_x
_atom_site_fract_y
_atom_site_fract_z
_atom_type_partial_charge
H0 H 0.36609 0.27529 0.19409 0.0
C1 C 0.33522 0.22648 0.24477 0.0
C2 C 0.37674 0.16351 0.27642 0.0
C3 C 0.25695 0.23094 0.28318 0.0
H4 H 0.37782 0.07706 0.38479 0.0
C5 C 0.34255 0.11634 0.354 0.0
C6 C 0.26161 0.11957 0.39063 0.0
C7 C 0.21557 0.16334 0.34522 0.0
C8 C 0.23161 0.31681 0.28572 0.0
H9 H 0.1527 0.16374 0.3698 0.0
C10 C 0.20685 0.36663 0.2233 0.0
C11 C 0.16884 0.43708 0.23838 0.0
C12 C 0.22124 0.34154 0.36024 0.0
H13 H 0.2408 0.30636 0.40905 0.0
C14 C 0.18085 0.40687 0.37523 0.0
H15 H 0.21401 0.34901 0.16565 0.0
C16 C 0.15591 0.45466 0.31526 0.0
H17 H 0.1282 0.50791 0.32988 0.0
H18 H 0.17043 0.42201 0.43355 0.0
H19 H 0.65421 0.09711 0.80643 0.0
C20 C 0.62716 0.02892 0.8011 0.0
C21 C 0.55 0.98247 0.84627 0.0
C22 C 0.6617 0.99356 0.73971 0.0
H23 H 0.4475 0.86223 0.85501 0.0
C24 C 0.51038 0.89663 0.82802 0.0
C25 C 0.55622 0.85681 0.77392 0.0
C26 C 0.64042 0.90138 0.74795 0.0
C27 C 0.65605 0.03227 0.65954 0.0
H28 H 0.6808 0.87132 0.71243 0.0
C29 C 0.57691 0.044 0.64806 0.0
C30 C 0.53945 0.00883 0.58859 0.0
C31 C 0.70616 0.01148 0.59773 0.0
H32 H 0.76672 1.0004 0.6047 0.0
C33 C 0.67131 0.98523 0.5338 0.0
H34 H 0.53623 0.05856 0.69507 0.0
C35 C 0.58745 0.98084 0.53013 0.0
H36 H 0.55883 0.95072 0.48477 0.0
H37 H 0.70718 0.95917 0.49139 0.0
H38 H 0.88882 0.59203 0.99151 0.0
C39 C 0.84841 0.52741 1.01824 0.0
C40 C 0.87788 0.47163 1.06963 0.0
C41 C 0.76585 0.50662 1.0064 0.0
H42 H 0.84343 0.34315 0.1475 0.0
C43 C 0.82232 0.38718 0.10607 0.0
C44 C 0.73948 0.36011 1.08672 0.0
C45 C 0.71307 0.42242 1.03728 0.0
C46 C 0.73452 0.57727 0.96573 0.0
H47 H 0.64958 0.40689 1.02548 0.0
C48 C 0.687 0.55937 0.90701 0.0
C49 C 0.66265 0.6286 0.8655 0.0
C50 C 0.7551 0.66443 0.98398 0.0
H51 H 0.79072 0.67934 1.03022 0.0
C52 C 0.73025 0.73326 0.94237 0.0
H53 H 0.67111 0.49273 0.89213 0.0
C54 C 0.68445 0.71549 0.88286 0.0
H55 H 0.66525 0.76919 0.85103 0.0
H56 H 0.74661 0.80024 0.9561 0.0
H57 H 0.12685 0.72558 0.62469 0.0
C58 C 0.06436 0.72434 0.61294 0.0
C59 C 1.0427 0.80399 0.58961 0.0
C60 C 1.00928 0.64299 0.60981 0.0
H61 H 0.94923 0.86457 0.54681 0.0
C62 C 0.96584 0.80273 0.56535 0.0
C63 C 0.90736 0.72307 0.56968 0.0
C64 C 0.92758 0.64275 0.59575 0.0
C65 C 1.04543 0.57623 0.57632 0.0
H66 H 0.88413 0.58019 0.59321 0.0
C67 C 0.06943 0.603 0.49644 0.0
C68 C 1.01908 0.55774 0.4494 0.0
C69 C 1.01041 0.48534 0.60375 0.0
H70 H 0.99361 0.46079 0.66526 0.0
C71 C 0.98571 0.42878 0.55071 0.0
H72 H 0.10381 0.67146 0.47504 0.0
C73 C 0.98266 0.46607 0.47435 0.0
H74 H 0.94914 0.42531 0.43746 0.0
H75 H 0.9608 0.35885 0.57136 0.0
H76 H 0.95418 0.87613 1.07313 0.0
C77 C 0.9843 0.89221 1.01307 0.0
C78 C 1.04101 0.84364 0.98534 0.0
C79 C 0.96943 0.96456 0.96459 0.0
H80 H 0.12707 0.83456 0.88405 0.0
C81 C 0.08298 0.8701 0.90652 0.0
C82 C 0.06792 0.94217 0.85642 0.0
C83 C 1.00994 0.98675 0.88688 0.0
C84 C 0.92413 0.02875 0.99563 0.0
H85 H 0.99847 0.04295 0.85053 0.0
C86 C 0.83924 1.00488 1.03217 0.0
C87 C 0.79994 0.07256 1.05291 0.0
C88 C 0.96811 0.11918 0.98316 0.0
H89 H 1.03301 0.13942 0.9564 0.0
C90 C 0.92947 0.18486 1.00361 0.0
H91 H 0.80428 0.9357 1.04282 0.0
C92 C 0.84627 0.1619 1.03757 0.0
H93 H 0.81804 0.2146 1.05278 0.0
H94 H 0.9642 0.25414 0.99282 0.0
H95 H 0.81899 0.27312 0.64374 0.0
C96 C 0.80702 0.25918 0.58677 0.0
C97 C 0.85859 0.215 0.54555 0.0
C98 C 0.73591 0.27758 0.55948 0.0
H99 H 0.88068 0.15864 0.44342 0.0
C100 C 0.84117 0.19363 0.47384 0.0
C101 C 0.7669 0.20416 0.44774 0.0
C102 C 0.71604 0.24935 0.48961 0.0
C103 C 0.67139 0.29951 0.61549 0.0
H104 H 0.65675 0.2539 0.47276 0.0
C105 C 0.63833 0.37498 0.60211 0.0
C106 C 0.57637 0.38908 0.65916 0.0
C107 C 0.64353 0.2418 0.68625 0.0
H108 H 0.6732 0.18903 0.69997 0.0
C109 C 0.57824 0.2511 0.73914 0.0
H110 H 0.66322 0.42392 0.55013 0.0
C111 C 0.54386 0.32354 0.72528 0.0
H112 H 0.49595 0.33142 0.76956 0.0
H113 H 0.55612 0.20369 0.79231 0.0
H114 H 0.47899 0.81662 0.3229 0.0
C115 C 0.43044 0.79898 0.28807 0.0
C116 C 0.43241 0.85556 0.21862 0.0
C117 C 0.36803 0.71932 0.31199 0.0
H118 H 0.37082 0.87346 0.11704 0.0
C119 C 0.37047 0.83027 0.1705 0.0
C120 C 0.30557 0.75138 0.19311 0.0
C121 C 0.30502 0.69789 0.26483 0.0
C122 C 0.37098 0.65588 0.38373 0.0
H123 H 0.25462 0.63868 0.28397 0.0
C124 C 0.40355 0.68433 0.45037 0.0
C125 C 0.40469 0.62082 0.51573 0.0
C126 C 0.34567 0.56352 0.38321 0.0
H127 H 0.32775 0.53858 0.33158 0.0
C128 C 0.34638 0.50177 0.44772 0.0
H129 H 0.42799 0.75461 0.45176 0.0
C130 C 0.37331 0.52998 0.51395 0.0
H131 H 0.37535 0.47989 0.56203 0.0
H132 H 0.32869 0.43112 0.44596 0.0
H133 H 0.14525 0.34271 0.90758 0.0
C134 C 0.16017 0.30605 0.8615 0.0
C135 C 0.24385 0.30854 0.83906 0.0
C136 C 0.10822 0.29759 0.80484 0.0
H137 H 0.32862 0.25622 0.7648 0.0
C138 C 0.26476 0.26017 0.77992 0.0
C139 C 0.2066 0.23251 0.73139 0.0
C140 C 0.12952 0.25666 0.74219 0.0
C141 C 0.06513 0.36937 0.79208 0.0
H142 H 0.08787 0.24952 0.69951 0.0
C143 C 0.11718 0.45604 0.77554 0.0
C144 C 0.09182 0.52362 0.8084 0.0
C145 C 0.98002 0.35681 0.81864 0.0
H146 H 0.93886 0.29039 0.83172 0.0
C147 C 0.94973 0.43067 0.83434 0.0
H148 H 0.18345 0.4649 0.7578 0.0
C149 C 1.006 0.51332 0.83221 0.0
H150 H 0.98432 0.56518 0.85795 0.0
H151 H 0.88439 0.42167 0.85649 0.0
Co152 Co 0.11357 0.06146 0.61326 0.0
C153 C 0.09478 0.8899 0.59585 0.0
Co154 Co 0.2201 0.00936 0.63639 0.0
C155 C 0.98841 0.15753 0.5576 0.0
C156 C 0.95013 0.07924 0.67052 0.0
N157 N 1.01363 0.10115 0.60996 0.0
N158 N 0.91377 0.17267 0.58512 0.0
C159 C 0.89077 0.12386 0.65626 0.0
H160 H 1.02376 0.18686 0.50072 0.0
H161 H 0.94455 0.03173 0.72231 0.0
C162 C 0.22192 0.18061 0.6685 0.0
N163 N 0.31745 0.97381 0.64086 0.0
C164 C 0.39484 0.02615 0.61514 0.0
C165 C 0.32643 0.88934 0.64674 0.0
N166 N 0.45081 0.97764 0.60183 0.0
C167 C 0.40853 0.89163 0.62269 0.0
C168 C 0.22433 0.08803 0.47629 0.0
O169 O 0.16721 0.17256 0.62496 0.0
O170 O 0.26237 0.1202 0.67632 0.0
O171 O 0.26699 0.06302 0.52624 0.0
O172 O 0.15016 0.09264 0.50187 0.0
O173 O 0.17105 0.90128 0.60298 0.0
H174 H 0.27606 0.82979 0.66368 0.0
H175 H 0.40943 0.0984 0.60319 0.0
O176 O 1.05927 0.95268 0.60083 0.0
O177 O 0.08085 0.02539 0.72721 0.0
O178 O 0.1754 0.95217 0.74413 0.0
C179 C 0.11022 0.97376 0.77245 0.0
H180 H 0.83227 0.11669 0.69376 0.0
H181 H 0.43549 0.83474 0.62158 0.0
Co182 Co 0.56083 0.11057 0.10342 0.0
C183 C 0.49634 0.94335 0.19822 0.0
Co184 Co 0.61013 0.09999 0.21455 0.0
C185 C 0.5599 0.08652 0.94413 0.0
C186 C 0.43687 0.05612 1.00613 0.0
N187 N 0.51554 0.10251 1.00857 0.0
N188 N 0.51501 0.0259 0.90655 0.0
C189 C 0.43667 0.00812 0.94472 0.0
H190 H 0.62686 0.11017 0.93058 0.0
H191 H 0.38536 0.04557 1.053 0.0
C192 C 0.67844 0.26915 0.11503 0.0
N193 N 0.65792 0.0972 0.30382 0.0
C194 C 0.67486 0.16264 0.34762 0.0
C195 C 0.70867 0.04401 0.32068 0.0
N196 N 0.73621 0.15358 0.38926 0.0
C197 C 0.75857 0.08007 0.37027 0.0
C198 C 0.71292 0.05667 0.09363 0.0
O199 O 0.62624 0.23509 1.07228 0.0
O200 O 0.67797 0.22388 0.18098 0.0
O201 O 0.70254 0.0615 0.16512 0.0
O202 O 0.65721 0.07382 1.05566 0.0
O203 O 0.54311 0.97589 0.24541 0.0
H204 H 0.71351 0.98593 0.29433 0.0
H205 H 0.64677 0.21889 0.34496 0.0
O206 O 0.49977 0.99065 0.1337 0.0
O207 O 0.46396 0.14791 0.15732 0.0
O208 O 0.51607 0.1377 0.26611 0.0
C209 C 0.45653 0.15123 0.23082 0.0
H210 H 0.38433 0.95898 0.93312 0.0
H211 H 0.80625 0.05177 0.39222 0.0
Co212 Co 0.58788 0.6548 0.64957 0.0
C213 C 0.45091 0.64245 0.58057 0.0
Co214 Co 0.47835 0.59551 0.73815 0.0
C215 C 0.75609 0.67649 0.6006 0.0
C216 C 0.71561 0.77415 0.52852 0.0
N217 N 0.68851 0.70682 0.58861 0.0
N218 N 0.82528 0.72479 0.55452 0.0
C219 C 0.80077 0.78696 0.50835 0.0
H220 H 0.75575 0.62179 0.64534 0.0
H221 H 0.67607 0.81086 0.50188 0.0
C222 C 0.61382 0.61159 0.80422 0.0
N223 N 0.3832 0.5274 0.80267 0.0
C224 C 0.34168 0.45093 0.78305 0.0
C225 C 0.36319 0.51611 0.8808 0.0
N226 N 0.30156 0.38996 0.84494 0.0
C227 C 0.31134 0.43176 0.90689 0.0
C228 C 0.55517 0.47642 0.65912 0.0
O229 O 0.64649 0.64256 0.7348 0.0
O230 O 0.53625 0.58191 0.82082 0.0
O231 O 0.49798 0.48504 0.7099 0.0
O232 O 0.60369 0.54618 0.62051 0.0
O233 O 0.417 0.60916 0.65081 0.0
H234 H 0.38972 0.56283 0.91692 0.0
H235 H 0.34406 0.43824 0.72373 0.0
O236 O 0.52963 0.67029 0.5653 0.0
O237 O 0.57471 0.76384 0.67954 0.0
O238 O 0.46558 0.70823 0.77081 0.0
C239 C 0.52624 0.77407 0.73841 0.0
H240 H 0.84163 0.83932 0.46497 0.0
H241 H 0.28411 0.40299 0.96639 0.0
Co242 Co 0.13638 0.61541 1.06075 0.0
C243 C 0.95979 0.51637 0.09164 0.0
Co244 Co 1.05856 0.64132 0.16029 0.0
C245 C 0.15249 0.54227 0.92564 0.0
C246 C 0.21799 0.67945 0.90461 0.0
N247 N 0.18794 0.60825 0.96209 0.0
N248 N 0.14928 0.57168 0.85115 0.0
C249 C 0.19193 0.65757 0.83632 0.0
H250 H 0.1169 0.47733 0.95598 0.0
H251 H 0.24308 0.74684 0.9144 0.0
C252 C 0.23347 0.72512 0.14824 0.0
N253 N 1.00564 0.64837 0.25626 0.0
C254 C 0.98853 0.57953 0.31558 0.0
C255 C 1.01474 0.72234 0.28955 0.0
N256 N 0.9984 0.60779 0.38324 0.0
C257 C 1.01006 0.6975 0.36802 0.0
C258 C 0.14069 0.49609 0.1794 0.0
O259 O 0.24088 0.69082 1.0858 0.0
O260 O 0.15996 0.71747 0.1829 0.0
O261 O 0.09406 0.54305 0.20514 0.0
O262 O 0.16948 0.51194 0.10748 0.0
O263 O 0.95777 0.56211 0.14594 0.0
H264 H 1.03652 0.78984 0.25823 0.0
H265 H 0.98242 0.51062 0.308 0.0
O266 O 1.0281 0.53511 1.04366 0.0
O267 O 0.105 0.7208 1.01121 0.0
O268 O 1.02494 0.74409 0.10992 0.0
C269 C 1.05744 0.76654 1.03831 0.0
H270 H 0.19595 0.70307 0.78327 0.0
H271 H 1.02373 0.74312 0.4089 0.0
loop_
_geom_bond_atom_site_label_1
_geom_bond_atom_site_label_2
_geom_bond_distance
_geom_bond_site_symmetry_2
_ccdc_geom_bond_type
H0 C1 0.949 . S
C1 H0 0.949 . S
C1 C2 1.395 . S
C1 C3 1.391 . S
C2 C1 1.395 . S
C2 C5 1.390 . S
C3 C1 1.391 . S
C3 C7 1.387 . S
C3 C8 1.491 . S
H4 C5 0.950 . S
C5 C2 1.390 . S
C5 H4 0.950 . S
C5 C6 1.378 . S
C6 C5 1.378 . S
C6 C7 1.409 . S
C7 C3 1.387 . S
C7 C6 1.409 . S
C7 H9 0.951 . S
C8 C3 1.491 . S
C8 C10 1.382 . S
C8 C12 1.404 . S
H9 C7 0.951 . S
C10 C8 1.382 . S
C10 C11 1.390 . S
C10 H15 0.949 . S
C11 C10 1.390 . S
C11 C16 1.399 . S
C12 C8 1.404 . S
C12 H13 0.950 . S
C12 C14 1.375 . S
H13 C12 0.950 . S
C14 C12 1.375 . S
C14 C16 1.382 . S
C14 H18 0.950 . S
H15 C10 0.949 . S
C16 C11 1.399 . S
C16 C14 1.382 . S
C16 H17 0.952 . S
H17 C16 0.952 . S
H18 C14 0.950 . S
H19 C20 0.949 . S
C20 H19 0.949 . S
C20 C21 1.395 . S
C20 C22 1.391 . S
C21 C20 1.395 . S
C21 C24 1.390 . S
C22 C20 1.391 . S
C22 C26 1.387 . S
C22 C27 1.491 . S
H23 C24 0.950 . S
C24 C21 1.390 . S
C24 H23 0.950 . S
C24 C25 1.378 . S
C25 C24 1.378 . S
C25 C26 1.409 . S
C26 C22 1.387 . S
C26 C25 1.409 . S
C26 H28 0.951 . S
C27 C22 1.491 . S
C27 C29 1.382 . S
C27 C31 1.404 . S
H28 C26 0.951 . S
C29 C27 1.382 . S
C29 C30 1.390 . S
C29 H34 0.949 1_565 S
C30 C29 1.390 . S
C30 C35 1.399 . S
C31 C27 1.404 . S
C31 H32 0.950 . S
C31 C33 1.375 . S
H32 C31 0.950 . S
C33 C31 1.375 . S
C33 C35 1.382 . S
C33 H37 0.950 . S
H34 C29 0.949 1_545 S
C35 C30 1.399 . S
C35 C33 1.382 . S
C35 H36 0.952 . S
H36 C35 0.952 . S
H37 C33 0.950 . S
H38 C39 0.949 . S
C39 H38 0.949 . S
C39 C40 1.395 1_556 S
C39 C41 1.391 . S
C40 C39 1.395 1_554 S
C40 C43 1.390 . S
C41 C39 1.391 . S
C41 C45 1.393 . S
C41 C46 1.491 . S
H42 C43 0.950 . S
C43 C40 1.390 . S
C43 H42 0.950 . S
C43 C44 1.378 . S
C44 C43 1.378 . S
C44 C45 1.402 1_554 S
C45 C41 1.393 . S
C45 C44 1.402 1_556 S
C45 H47 0.953 . S
C46 C41 1.491 . S
C46 C48 1.382 . S
C46 C50 1.404 . S
H47 C45 0.953 . S
C48 C46 1.382 . S
C48 C49 1.390 . S
C48 H53 0.949 . S
C49 C48 1.390 . S
C49 C54 1.399 . S
C50 C46 1.404 . S
C50 H51 0.950 . S
C50 C52 1.375 . S
H51 C50 0.950 . S
C52 C50 1.375 . S
C52 C54 1.382 . S
C52 H56 0.950 . S
H53 C48 0.949 . S
C54 C49 1.399 . S
C54 C52 1.382 . S
C54 H55 0.952 . S
H55 C54 0.952 . S
H56 C52 0.950 . S
H57 C58 0.949 . S
C58 H57 0.949 . S
C58 C59 1.395 . S
C58 C60 1.391 1_455 S
C59 C58 1.395 . S
C59 C62 1.390 1_455 S
C60 C58 1.391 1_655 S
C60 C64 1.387 . S
C60 C65 1.491 . S
H61 C62 0.950 . S
C62 C59 1.390 1_655 S
C62 H61 0.950 . S
C62 C63 1.378 . S
C63 C62 1.378 . S
C63 C64 1.409 . S
C64 C60 1.387 . S
C64 C63 1.409 . S
C64 H66 0.951 . S
C65 C60 1.491 . S
C65 C67 1.382 1_655 S
C65 C69 1.404 . S
H66 C64 0.951 . S
C67 C65 1.382 1_455 S
C67 C68 1.390 . S
C67 H72 0.949 . S
C68 C67 1.390 . S
C68 C73 1.399 1_455 S
C69 C65 1.404 . S
C69 H70 0.950 . S
C69 C71 1.375 . S
H70 C69 0.950 . S
C71 C69 1.375 . S
C71 C73 1.382 . S
C71 H75 0.950 . S
H72 C67 0.949 . S
C73 C68 1.399 1_655 S
C73 C71 1.382 . S
C73 H74 0.952 . S
H74 C73 0.952 . S
H75 C71 0.950 . S
H76 C77 0.949 . S
C77 H76 0.949 . S
C77 C78 1.395 1_655 S
C77 C79 1.391 . S
C78 C77 1.395 1_455 S
C78 C81 1.390 . S
C79 C77 1.391 . S
C79 C83 1.387 1_565 S
C79 C84 1.491 . S
H80 C81 0.950 . S
C81 C78 1.390 . S
C81 H80 0.950 . S
C81 C82 1.378 . S
C82 C81 1.378 . S
C82 C83 1.409 1_465 S
C83 C79 1.387 1_545 S
C83 C82 1.409 1_645 S
C83 H85 0.951 . S
C84 C79 1.491 . S
C84 C86 1.382 1_565 S
C84 C88 1.404 . S
H85 C83 0.951 . S
C86 C84 1.382 1_545 S
C86 C87 1.390 . S
C86 H91 0.949 1_556 S
C87 C86 1.390 . S
C87 C92 1.399 . S
C88 C84 1.404 . S
C88 H89 0.950 . S
C88 C90 1.375 1_565 S
H89 C88 0.950 . S
C90 C88 1.375 1_545 S
C90 C92 1.382 . S
C90 H94 0.950 . S
H91 C86 0.949 1_554 S
C92 C87 1.399 . S
C92 C90 1.382 . S
C92 H93 0.952 . S
H93 C92 0.952 . S
H94 C90 0.950 . S
H95 C96 0.949 . S
C96 H95 0.949 . S
C96 C97 1.395 . S
C96 C98 1.391 . S
C97 C96 1.395 . S
C97 C100 1.390 . S
C98 C96 1.391 . S
C98 C102 1.387 . S
C98 C103 1.491 . S
H99 C100 0.950 . S
C100 C97 1.390 . S
C100 H99 0.950 . S
C100 C101 1.378 . S
C101 C100 1.378 . S
C101 C102 1.409 . S
C102 C98 1.387 . S
C102 C101 1.409 . S
C102 H104 0.951 . S
C103 C98 1.491 . S
C103 C105 1.382 . S
C103 C107 1.404 . S
H104 C102 0.951 . S
C105 C103 1.382 . S
C105 C106 1.390 . S
C105 H110 0.949 . S
C106 C105 1.390 . S
C106 C111 1.399 . S
C107 C103 1.404 . S
C107 H108 0.950 . S
C107 C109 1.375 . S
H108 C107 0.950 . S
C109 C107 1.375 . S
C109 C111 1.382 . S
C109 H113 0.950 . S
H110 C105 0.949 . S
C111 C106 1.399 . S
C111 C109 1.382 . S
C111 H112 0.952 . S
H112 C111 0.952 . S
H113 C109 0.950 . S
H114 C115 0.949 . S
C115 H114 0.949 . S
C115 C116 1.395 . S
C115 C117 1.391 . S
C116 C115 1.395 . S
C116 C119 1.390 . S
C117 C115 1.391 . S
C117 C121 1.387 . S
C117 C122 1.491 . S
H118 C119 0.950 . S
C119 C116 1.390 . S
C119 H118 0.950 . S
C119 C120 1.378 . S
C120 C119 1.378 . S
C120 C121 1.409 . S
C121 C117 1.387 . S
C121 C120 1.409 . S
C121 H123 0.951 . S
C122 C117 1.491 . S
C122 C124 1.382 . S
C122 C126 1.404 . S
H123 C121 0.951 . S
C124 C122 1.382 . S
C124 C125 1.390 . S
C124 H129 0.949 . S
C125 C124 1.390 . S
C125 C130 1.399 . S
C126 C122 1.404 . S
C126 H127 0.950 . S
C126 C128 1.375 . S
H127 C126 0.950 . S
C128 C126 1.375 . S
C128 C130 1.382 . S
C128 H132 0.950 . S
H129 C124 0.949 . S
C130 C125 1.399 . S
C130 C128 1.382 . S
C130 H131 0.952 . S
H131 C130 0.952 . S
H132 C128 0.950 . S
H133 C134 0.949 . S
C134 H133 0.949 . S
C134 C135 1.395 . S
C134 C136 1.391 . S
C135 C134 1.395 . S
C135 C138 1.390 . S
C136 C134 1.391 . S
C136 C140 1.387 . S
C136 C141 1.491 . S
H137 C138 0.950 . S
C138 C135 1.390 . S
C138 H137 0.950 . S
C138 C139 1.378 . S
C139 C138 1.378 . S
C139 C140 1.409 . S
C140 C136 1.387 . S
C140 C139 1.409 . S
C140 H142 0.951 . S
C141 C136 1.491 . S
C141 C143 1.382 . S
C141 C145 1.404 . S
H142 C140 0.951 . S
C143 C141 1.382 . S
C143 C144 1.390 . S
C143 H148 0.949 . S
C144 C143 1.390 . S
C144 C149 1.399 . S
C145 C141 1.404 . S
C145 H146 0.950 . S
C145 C147 1.375 . S
H146 C145 0.950 . S
C147 C145 1.375 . S
C147 C149 1.382 . S
C147 H151 0.950 1_455 S
H148 C143 0.949 . S
C149 C144 1.399 . S
C149 C147 1.382 . S
C149 H150 0.952 1_455 S
H150 C149 0.952 1_655 S
H151 C147 0.950 1_655 S
Co152 N157 2.057 . S
Co152 O169 2.021 1_655 S
Co152 O172 2.062 1_655 S
Co152 O176 2.117 1_545 S
Co152 O177 2.020 . S
C153 O173 1.259 1_655 S
C153 O176 1.258 . S
Co154 N163 2.057 . S
Co154 O170 2.117 . S
Co154 O171 2.020 . S
Co154 O173 2.021 1_545 S
Co154 O178 2.062 . S
C155 N157 1.316 . S
C155 N158 1.347 . S
C155 H160 0.931 . S
C156 N157 1.375 . S
C156 C159 1.350 . S
C156 H161 0.930 1_545 S
N157 Co152 2.057 . S
N157 C155 1.316 . S
N157 C156 1.375 . S
N158 C155 1.347 . S
N158 C159 1.373 . S
C159 C156 1.350 . S
C159 N158 1.373 . S
C159 H180 0.931 1_545 S
H160 C155 0.931 . S
H161 C156 0.930 1_565 S
C162 O169 1.259 . S
C162 O170 1.258 . S
N163 Co154 2.057 . S
N163 C164 1.316 1_545 S
N163 C165 1.375 . S
C164 N163 1.316 1_565 S
C164 N166 1.347 1_565 S
C164 H175 0.931 . S
C165 N163 1.375 . S
C165 C167 1.350 . S
C165 H174 0.930 . S
N166 C164 1.347 1_545 S
N166 C167 1.373 . S
C167 C165 1.350 . S
C167 N166 1.373 . S
C167 H181 0.931 . S
C168 O171 1.256 . S
C168 O172 1.255 . S
O169 Co152 2.021 1_455 S
O169 C162 1.259 . S
O170 Co154 2.117 . S
O170 C162 1.258 . S
O171 Co154 2.020 . S
O171 C168 1.256 . S
O172 Co152 2.062 1_455 S
O172 C168 1.255 . S
O173 C153 1.259 1_455 S
O173 Co154 2.021 1_565 S
H174 C165 0.930 . S
H175 C164 0.931 . S
O176 Co152 2.117 1_565 S
O176 C153 1.258 . S
O177 Co152 2.020 . S
O177 C179 1.256 . S
O178 Co154 2.062 . S
O178 C179 1.255 1_455 S
C179 O177 1.256 . S
C179 O178 1.255 1_655 S
H180 C159 0.931 1_565 S
H181 C167 0.931 . S
Co182 N187 2.057 1_544 S
Co182 O199 2.021 1_554 S
Co182 O202 2.062 . S
Co182 O206 2.117 1_545 S
Co182 O207 2.020 . S
C183 O203 1.259 . S
C183 O206 1.258 . S
Co184 N193 2.057 . S
Co184 O200 2.117 . S
Co184 O201 2.020 . S
Co184 O203 2.021 1_545 S
Co184 O208 2.062 . S
C185 N187 1.316 1_545 S
C185 N188 1.347 1_545 S
C185 H190 0.931 . S
C186 N187 1.375 . S
C186 C189 1.350 . S
C186 H191 0.930 . S
N187 Co182 2.057 1_566 S
N187 C185 1.316 1_565 S
N187 C186 1.375 . S
N188 C185 1.347 1_565 S
N188 C189 1.373 . S
C189 C186 1.350 . S
C189 N188 1.373 . S
C189 H210 0.931 . S
H190 C185 0.931 . S
H191 C186 0.930 . S
C192 O199 1.259 1_554 S
C192 O200 1.258 . S
N193 Co184 2.057 . S
N193 C194 1.316 . S
N193 C195 1.375 . S
C194 N193 1.316 . S
C194 N196 1.347 . S
C194 H205 0.931 . S
C195 N193 1.375 . S
C195 C197 1.350 . S
C195 H204 0.930 . S
N196 C194 1.347 . S
N196 C197 1.373 . S
C197 C195 1.350 . S
C197 N196 1.373 . S
C197 H211 0.931 . S
C198 O201 1.256 . S
C198 O202 1.255 . S
O199 Co182 2.021 1_556 S
O199 C192 1.259 1_556 S
O200 Co184 2.117 . S
O200 C192 1.258 . S
O201 Co184 2.020 . S
O201 C198 1.256 . S
O202 Co182 2.062 . S
O202 C198 1.255 . S
O203 C183 1.259 . S
O203 Co184 2.021 1_565 S
H204 C195 0.930 . S
H205 C194 0.931 . S
O206 Co182 2.117 1_565 S
O206 C183 1.258 . S
O207 Co182 2.020 . S
O207 C209 1.256 . S
O208 Co184 2.062 . S
O208 C209 1.255 . S
C209 O207 1.256 . S
C209 O208 1.255 . S
H210 C189 0.931 . S
H211 C197 0.931 . S
Co212 N217 2.057 . S
Co212 O229 2.021 . S
Co212 O232 2.062 . S
Co212 O236 2.117 . S
Co212 O237 2.020 . S
C213 O233 1.259 . S
C213 O236 1.258 . S
Co214 N223 2.057 . S
Co214 O230 2.117 . S
Co214 O231 2.020 . S
Co214 O233 2.021 . S
Co214 O238 2.062 . S
C215 N217 1.316 . S
C215 N218 1.347 . S
C215 H220 0.931 . S
C216 N217 1.375 . S
C216 C219 1.350 . S
C216 H221 0.930 . S
N217 Co212 2.057 . S
N217 C215 1.316 . S
N217 C216 1.375 . S
N218 C215 1.347 . S
N218 C219 1.373 . S
C219 C216 1.350 . S
C219 N218 1.373 . S
C219 H240 0.931 . S
H220 C215 0.931 . S
H221 C216 0.930 . S
C222 O229 1.259 . S
C222 O230 1.258 . S
N223 Co214 2.057 . S
N223 C224 1.316 . S
N223 C225 1.375 . S
C224 N223 1.316 . S
C224 N226 1.347 . S
C224 H235 0.931 . S
C225 N223 1.375 . S
C225 C227 1.350 . S
C225 H234 0.930 . S
N226 C224 1.347 . S
N226 C227 1.373 . S
C227 C225 1.350 . S
C227 N226 1.373 . S
C227 H241 0.931 . S
C228 O231 1.256 . S
C228 O232 1.255 . S
O229 Co212 2.021 . S
O229 C222 1.259 . S
O230 Co214 2.117 . S
O230 C222 1.258 . S
O231 Co214 2.020 . S
O231 C228 1.256 . S
O232 Co212 2.062 . S
O232 C228 1.255 . S
O233 C213 1.259 . S
O233 Co214 2.021 . S
H234 C225 0.930 . S
H235 C224 0.931 . S
O236 Co212 2.117 . S
O236 C213 1.258 . S
O237 Co212 2.020 . S
O237 C239 1.256 . S
O238 Co214 2.062 . S
O238 C239 1.255 . S
C239 O237 1.256 . S
C239 O238 1.255 . S
H240 C219 0.931 . S
H241 C227 0.931 . S
Co242 N247 2.057 . S
Co242 O259 2.021 . S
Co242 O262 2.062 1_556 S
Co242 O266 2.117 1_455 S
Co242 O267 2.020 . S
C243 O263 1.259 . S
C243 O266 1.258 1_554 S
Co244 N253 2.057 . S
Co244 O260 2.117 . S
Co244 O261 2.020 . S
Co244 O263 2.021 1_455 S
Co244 O268 2.062 . S
C245 N247 1.316 . S
C245 N248 1.347 . S
C245 H250 0.931 . S
C246 N247 1.375 . S
C246 C249 1.350 . S
C246 H251 0.930 1_455 S
N247 Co242 2.057 . S
N247 C245 1.316 . S
N247 C246 1.375 . S
N248 C245 1.347 . S
N248 C249 1.373 . S
C249 C246 1.350 . S
C249 N248 1.373 . S
C249 H270 0.931 . S
H250 C245 0.931 . S
H251 C246 0.930 1_655 S
C252 O259 1.259 1_554 S
C252 O260 1.258 . S
N253 Co244 2.057 . S
N253 C254 1.316 1_455 S
N253 C255 1.375 . S
C254 N253 1.316 1_655 S
C254 N256 1.347 . S
C254 H265 0.931 . S
C255 N253 1.375 . S
C255 C257 1.350 . S
C255 H264 0.930 . S
N256 C254 1.347 . S
N256 C257 1.366 1_655 S
C257 C255 1.350 . S
C257 N256 1.366 1_455 S
C257 H271 0.931 . S
C258 O261 1.256 . S
C258 O262 1.255 . S
O259 Co242 2.021 . S
O259 C252 1.259 1_556 S
O260 Co244 2.117 . S
O260 C252 1.258 . S
O261 Co244 2.020 . S
O261 C258 1.256 . S
O262 Co242 2.062 1_554 S
O262 C258 1.255 . S
O263 C243 1.259 . S
O263 Co244 2.021 1_655 S
H264 C255 0.930 . S
H265 C254 0.931 . S
O266 Co242 2.117 1_655 S
O266 C243 1.258 1_556 S
O267 Co242 2.020 . S
O267 C269 1.256 . S
O268 Co244 2.062 . S
O268 C269 1.255 1_554 S
C269 O267 1.256 . S
C269 O268 1.255 1_556 S
H270 C249 0.931 . S
H271 C257 0.931 . S
C6 C168 3.683 . S
C21 N188 2.239 . S
C222 C49 1.776 . S
C68 N256 0.961 1_455 S
C209 C2 4.083 . S
N166 C30 0.450 1_545 S
C243 C40 2.600 . S
N218 C63 0.993 . S
C11 C258 1.840 . S
C192 C44 2.480 . S
C59 C153 1.065 1_455 S
C25 C239 2.093 . S
C179 C82 3.466 1_645 S
C101 N196 1.121 . S
C125 C213 2.494 . S
C144 N248 1.615 . S
C87 C198 2.327 1_556 S
N158 C97 1.839 . S
C252 C120 2.433 . S
N226 C135 2.324 . S
C78 C269 2.717 . S
C183 C116 1.820 . S
C162 C139 1.661 . S
C106 C228 1.346 . S
