# Generated by pormake.
# Topology zzz, (3,6)-cn, num edge types: 1
# Building blocks:
#     Node 0, Type 0, BuildingBlock: BETDAH_clean_linker_0, # of connection points: 3
#     Node 1, Type 0, BuildingBlock: BETDAH_clean_linker_0, # of connection points: 3
#     Node 2, Type 0, BuildingBlock: BETDAH_clean_linker_0, # of connection points: 3
#     Node 3, Type 0, BuildingBlock: BETDAH_clean_linker_0, # of connection points: 3
#     Node 4, Type 0, BuildingBlock: BETDAH_clean_linker_0, # of connection points: 3
#     Node 5, Type 0, BuildingBlock: BETDAH_clean_linker_0, # of connection points: 3
#     Node 6, Type 0, BuildingBlock: BETDAH_clean_linker_0, # of connection points: 3
#     Node 7, Type 0, BuildingBlock: BETDAH_clean_linker_0, # of connection points: 3
#     Node 8, Type 1, BuildingBlock: KUMBUR_clean_sbu_1, # of connection points: 6
#     Node 9, Type 1, BuildingBlock: KUMBUR_clean_sbu_1, # of connection points: 6
#     Node 10, Type 1, BuildingBlock: KUMBUR_clean_sbu_1, # of connection points: 6
#     Node 11, Type 1, BuildingBlock: KUMBUR_clean_sbu_1, # of connection points: 6
#     Edge 12, Type (0, 1), None
#     Edge 13, Type (0, 1), None
#     Edge 14, Type (0, 1), None
#     Edge 15, Type (0, 1), None
#     Edge 16, Type (0, 1), None
#     Edge 17, Type (0, 1), None
#     Edge 18, Type (0, 1), None
#     Edge 19, Type (0, 1), None
#     Edge 20, Type (0, 1), None
#     Edge 21, Type (0, 1), None
#     Edge 22, Type (0, 1), None
#     Edge 23, Type (0, 1), None
#     Edge 24, Type (0, 1), None
#     Edge 25, Type (0, 1), None
#     Edge 26, Type (0, 1), None
#     Edge 27, Type (0, 1), None
#     Edge 28, Type (0, 1), None
#     Edge 29, Type (0, 1), None
#     Edge 30, Type (0, 1), None
#     Edge 31, Type (0, 1), None
#     Edge 32, Type (0, 1), None
#     Edge 33, Type (0, 1), None
#     Edge 34, Type (0, 1), None
#     Edge 35, Type (0, 1), None
# Relax obj value: 0.441
# Max RMSD: 0.168
# Mean RMSD: 0.090
data_MOF--net-zzz--node1-KUMBUR_clean_sbu_1--node2-BETDAH_clean_linker_0--edge1-none
_symmetry_space_group_name_H-M    P1
_symmetry_Int_Tables_number       1
_symmetry_cell_setting            triclinic
loop_
_symmetry_equiv_pos_as_xyz
'x, y, z'
_cell_length_a     23.621997
_cell_length_b     23.607095
_cell_length_c     7.5672244
_cell_angle_alpha  89.703257
_cell_angle_beta   90.91042
_cell_angle_gamma 92.555088
loop_
_atom_site_label
_atom_site_type_symbol
_atom_site_fract_x
_atom_site_fract_y
_atom_site_fract_z
_atom_type_partial_charge
H0 H 0.86624 0.39953 0.53684 0.0
H1 H 0.72694 0.44083 0.18881 0.0
H2 H 0.77859 0.55355 0.60248 0.0
C3 C 0.83245 0.42749 0.50456 0.0
C4 C 0.83226 0.48001 0.59278 0.0
C5 C 0.79531 0.41343 0.35814 0.0
C6 C 0.75208 0.44875 0.30697 0.0
C7 C 0.73876 0.49469 0.40275 0.0
C8 C 0.78217 0.5133 0.54083 0.0
N9 N 0.68439 0.5216 0.35367 0.0
C10 C 0.63609 0.51172 0.22571 0.0
H11 H 0.12326 0.88128 0.59274 0.0
H12 H 0.09303 0.73944 0.24469 0.0
H13 H 0.95715 0.80263 0.54017 0.0
C14 C 0.09476 0.84628 0.55333 0.0
C15 C 0.03777 0.84776 0.60168 0.0
C16 C 0.11394 0.80897 0.42328 0.0
C17 C 0.07878 0.76494 0.35241 0.0
C18 C 0.02336 0.75604 0.39875 0.0
C19 C 0.00161 0.80088 0.51918 0.0
N20 N 0.99106 0.70594 0.31533 0.0
C21 C 0.00393 0.65509 0.20534 0.0
H22 H 0.61901 0.96362 0.30076 0.0
H23 H 0.78222 0.97629 0.11758 0.0
H24 H 0.75568 0.00863 0.66624 0.0
C25 C 0.66212 0.97562 0.33691 0.0
C26 C 0.67547 0.9866 0.51342 0.0
C27 C 0.70283 0.98999 0.20487 0.0
C28 C 0.7555 0.97204 0.23007 0.0
C29 C 0.77976 0.98896 0.38564 0.0
C30 C 0.739 0.99539 0.53836 0.0
N31 N 0.8395 0.01001 0.37037 0.0
C32 C 0.88265 0.01301 0.23007 0.0
H33 H 0.48906 0.67352 0.40893 0.0
H34 H 0.48102 0.77442 0.14414 0.0
H35 H 0.56036 0.77884 0.85755 0.0
C36 C 0.48752 0.6612 0.53673 0.0
C37 C 0.51515 0.68781 0.72822 0.0
C38 C 0.47222 0.69614 0.33912 0.0
C39 C 0.48918 0.76209 0.27981 0.0
C40 C 0.5176 0.80919 0.41411 0.0
C41 C 0.5364 0.76277 0.74239 0.0
N42 N 0.55064 0.85322 0.30951 0.0
C43 C 0.53708 0.88159 0.14465 0.0
H44 H 0.15729 0.60521 0.03472 0.0
H45 H 0.27119 0.53884 0.50285 0.0
H46 H 0.27437 0.4704 0.77878 0.0
C47 C 0.18375 0.57128 0.07527 0.0
C48 C 0.19903 0.53097 0.90681 0.0
C49 C 0.20662 0.57276 0.28576 0.0
C50 C 0.25605 0.5292 0.36836 0.0
C51 C 0.30515 0.47148 0.10283 0.0
C52 C 0.26142 0.48697 0.90266 0.0
N53 N 0.37583 0.48283 0.09807 0.0
C54 C 0.42825 0.51999 0.25129 0.0
H55 H 0.9275 0.15391 0.06169 0.0
H56 H 0.99135 0.27928 0.49429 0.0
H57 H 0.05427 0.28952 0.76696 0.0
C58 C 0.95897 0.18813 0.08307 0.0
C59 C 0.99689 0.20772 0.90836 0.0
C60 C 0.95959 0.21153 0.28907 0.0
C61 C 0.00189 0.26477 0.36185 0.0
C62 C 0.05614 0.32157 0.09114 0.0
C63 C 0.03905 0.27577 0.89348 0.0
N64 N 0.04324 0.39197 0.08808 0.0
C65 C 0.00299 0.43802 0.24406 0.0
H66 H 0.37047 0.97062 0.03916 0.0
H67 H 0.25363 0.02142 0.48019 0.0
H68 H 0.22757 0.07763 0.75158 0.0
C69 C 0.33624 0.99724 0.06162 0.0
C70 C 0.31065 0.02922 0.88407 0.0
C71 C 0.31739 0.99737 0.27026 0.0
C72 C 0.26587 0.0338 0.34554 0.0
C73 C 0.20503 0.08128 0.07966 0.0
C74 C 0.24486 0.06631 0.87783 0.0
N75 N 0.13553 0.0628 0.08355 0.0
C76 C 0.09018 0.02002 0.24526 0.0
H77 H 0.58084 0.37491 0.97036 0.0
H78 H 0.60381 0.19301 0.13481 0.0
H79 H 0.38869 0.29109 0.02595 0.0
C80 C 0.55409 0.34076 1.01906 0.0
C81 C 0.4825 0.34285 0.99841 0.0
C82 C 0.5966 0.28979 0.07207 0.0
C83 C 0.57207 0.2227 0.09564 0.0
C84 C 0.45685 0.21333 0.08706 0.0
C85 C 0.4336 0.28411 0.03382 0.0
N86 N 0.41648 0.17279 0.19685 0.0
C87 C 0.4232 0.13248 0.35207 0.0
Tb88 Tb 0.9492 0.01372 0.67717 0.0
C89 C 0.17554 0.06756 0.36915 0.0
N90 N 0.18109 0.00493 0.2317 0.0
C91 C 0.29722 0.08679 0.13104 0.0
C92 C 0.2237 0.12215 0.38003 0.0
C93 C 0.2344 0.9969 0.10068 0.0
C94 C 0.2774 0.13248 0.26298 0.0
C95 C 0.12521 0.14738 0.51419 0.0
C96 C 0.12722 0.11159 0.36577 0.0
C97 C 0.17351 0.1651 0.60648 0.0
C98 C 0.22327 0.15921 0.5224 0.0
Tb99 Tb 0.07478 0.01993 0.97218 0.0
N100 N 0.07878 0.1119 0.23813 0.0
C101 C 0.07515 0.16828 0.55604 0.0
C102 C 0.02903 0.11892 0.31385 0.0
C103 C 0.028 0.14406 0.47714 0.0
H104 H 0.2369 0.96135 1.01087 0.0
H105 H 0.99108 0.1447 0.54243 0.0
H106 H 0.86123 0.945 0.99929 0.0
H107 H 0.00055 0.86638 0.12386 0.0
H108 H 0.99117 0.10114 0.25314 0.0
H109 H 0.07268 0.19899 0.65934 0.0
H110 H 0.02361 0.93042 0.35763 0.0
H111 H 0.33764 0.10123 0.07388 0.0
H112 H 0.17211 0.19183 0.72226 0.0
H113 H 0.26033 0.185 0.56228 0.0
H114 H 0.76975 0.89328 0.99888 0.0
H115 H 0.30432 0.1703 0.28258 0.0
H116 H 0.90283 0.83559 0.06372 0.0
N117 N 0.87344 0.94387 0.72331 0.0
C118 C 0.85431 0.91335 0.58091 0.0
C119 C 0.79292 0.90083 0.87987 0.0
C120 C 0.80122 0.88202 0.57718 0.0
C121 C 0.84465 0.93276 0.87639 0.0
C122 C 0.76984 0.87765 0.72841 0.0
N123 N 0.93951 0.94168 0.44924 0.0
C124 C 0.98028 0.92157 0.34022 0.0
C125 C 0.87246 0.87646 0.29452 0.0
C126 C 0.88885 0.9114 0.44033 0.0
C127 C 0.91281 0.8635 0.17332 0.0
C128 C 0.96768 0.88301 0.20325 0.0
H129 H 0.72941 0.85406 0.73196 0.0
H130 H 0.73974 0.83402 0.41547 0.0
H131 H 0.80475 0.82515 0.17048 0.0
O132 O 0.9277 0.07417 0.48557 0.0
O133 O 0.96954 0.92211 0.71693 0.0
O134 O 0.06223 0.94116 0.77981 0.0
O135 O 0.86864 0.04937 0.68735 0.0
O136 O 0.04623 0.03065 0.60201 0.0
O137 O 0.05701 0.03227 0.63205 0.0
O138 O 0.06905 0.93492 0.02651 0.0
O139 O 0.06246 0.11477 0.88572 0.0
O140 O 0.96816 0.10031 0.82443 0.0
O141 O 0.14459 0.97541 0.88676 0.0
O142 O 0.98775 0.00717 0.12298 0.0
O143 O 0.91507 0.02743 0.93481 0.0
C144 C 0.02149 0.90429 0.71166 0.0
C145 C 0.86624 0.14713 0.60068 0.0
C146 C 0.90626 0.20449 0.38123 0.0
C147 C 0.85382 0.21035 0.29653 0.0
C148 C 0.81167 0.16017 0.54469 0.0
C149 C 0.80547 0.19398 0.39063 0.0
C150 C 0.90544 0.1896 0.55745 0.0
C151 C 0.07587 0.00471 0.47253 0.0
C152 C 0.88159 0.08706 0.56811 0.0
C153 C 0.78102 0.85586 0.42187 0.0
C154 C 0.81743 0.85212 0.28072 0.0
C155 C 0.01145 0.13884 0.86029 0.0
C156 C 0.15343 0.88628 0.04283 0.0
C157 C 0.15943 0.829 0.30619 0.0
C158 C 0.18995 0.7892 0.21436 0.0
C159 C 0.17805 0.84366 0.94626 0.0
C160 C 0.14852 0.88043 0.22462 0.0
C161 C 0.19786 0.7961 0.03326 0.0
C162 C 0.93209 0.0173 0.09382 0.0
C163 C 0.11956 0.92829 0.95381 0.0
H164 H 0.85031 0.2272 0.1636 0.0
H165 H 0.77617 0.13531 0.59461 0.0
H166 H 0.7649 0.20081 0.33144 0.0
H167 H 0.9396 0.20129 0.64358 0.0
H168 H 0.19875 0.74894 0.27518 0.0
H169 H 0.17988 0.84565 0.80421 0.0
H170 H 0.12496 0.91116 0.29447 0.0
H171 H 0.21489 0.76227 0.9589 0.0
Tb172 Tb 0.51389 0.05067 0.85043 0.0
C173 C 0.46228 0.82381 0.66933 0.0
N174 N 0.51726 0.86325 0.67275 0.0
C175 C 0.60672 0.78972 0.53998 0.0
C176 C 0.46041 0.75868 0.58296 0.0
C177 C 0.58159 0.84917 0.63291 0.0
C178 C 0.56101 0.73416 0.48704 0.0
C179 C 0.36089 0.80779 0.71995 0.0
C180 C 0.41005 0.84514 0.71603 0.0
C181 C 0.36165 0.75163 0.68108 0.0
C182 C 0.40793 0.72721 0.62146 0.0
Tb183 Tb 0.48371 0.96136 0.64876 0.0
N184 N 0.4041 0.90239 0.73082 0.0
C185 C 0.30765 0.828 0.74597 0.0
C186 C 0.34933 0.91956 0.74503 0.0
C187 C 0.30211 0.88434 0.76212 0.0
H188 H 0.61408 0.88153 0.6529 0.0
H189 H 0.26054 0.90172 0.76105 0.0
H190 H 0.51673 0.17795 0.29595 0.0
H191 H 0.71665 0.15615 0.79862 0.0
H192 H 0.33565 0.95684 0.69157 0.0
H193 H 0.26975 0.80073 0.73948 0.0
H194 H 0.65567 0.07732 0.71106 0.0
H195 H 0.65167 0.78649 0.52007 0.0
H196 H 0.32294 0.72583 0.67871 0.0
H197 H 0.39694 0.68319 0.59464 0.0
H198 H 0.50082 0.21721 0.489 0.0
H199 H 0.57994 0.69627 0.45908 0.0
H200 H 0.68049 0.25012 0.7427 0.0
N201 N 0.51603 0.13959 1.00824 0.0
C202 C 0.51843 0.18392 0.8596 0.0
C203 C 0.51454 0.21094 0.34261 0.0
C204 C 0.51433 0.25302 0.8956 0.0
C205 C 0.51938 0.14615 0.21843 0.0
C206 C 0.51158 0.27406 0.22567 0.0
N207 N 0.57796 0.11903 0.74413 0.0
C208 C 0.63552 0.11459 0.73723 0.0
C209 C 0.59597 0.21698 0.684 0.0
C210 C 0.55871 0.17174 0.73675 0.0
C211 C 0.65289 0.21317 0.72649 0.0
C212 C 0.67249 0.16103 0.76652 0.0
H213 H 0.51758 0.31095 0.29677 0.0
H214 H 0.52211 0.32677 0.72294 0.0
H215 H 0.59846 0.30061 0.581 0.0
O216 O 0.57902 0.0093 0.96262 0.0
O217 O 0.46149 0.10656 0.6637 0.0
O218 O 0.46083 0.03758 0.46436 0.0
O219 O 0.5188 0.04988 0.12481 0.0
O220 O 0.57144 0.00797 0.6361 0.0
O221 O 0.57204 0.00603 0.63319 0.0
O222 O 0.48036 0.98757 0.37799 0.0
O223 O 0.53567 0.91732 0.84064 0.0
O224 O 0.49169 0.97034 1.01735 0.0
O225 O 0.47988 0.9042 0.46613 0.0
O226 O 0.42049 0.01611 0.81191 0.0
O227 O 0.42028 0.01763 0.8141 0.0
C228 C 0.44754 0.09093 0.49965 0.0
C229 C 0.6182 0.07373 0.15243 0.0
C230 C 0.71034 0.05106 0.15248 0.0
C231 C 0.72503 0.09199 0.27837 0.0
C232 C 0.62606 0.10248 0.31382 0.0
C233 C 0.68147 0.12032 0.35783 0.0
C234 C 0.66686 0.06442 0.05431 0.0
C235 C 0.62394 0.98494 0.6552 0.0
C236 C 0.57094 0.03501 0.11039 0.0
C237 C 0.52843 0.28383 0.73902 0.0
C238 C 0.5755 0.2692 0.65328 0.0
C239 C 0.51732 0.92119 0.99758 0.0
C240 C 0.41274 0.91907 0.28969 0.0
C241 C 0.32087 0.94175 0.34621 0.0
C242 C 0.30015 0.89433 0.24968 0.0
C243 C 0.3961 0.87371 0.18041 0.0
C244 C 0.37469 0.94381 0.39388 0.0
C245 C 0.33831 0.86037 0.16532 0.0
C246 C 0.37057 0.04322 0.77863 0.0
C247 C 0.4675 0.93512 0.34026 0.0
H248 H 0.76772 0.09458 0.32499 0.0
H249 H 0.59266 0.10765 0.40621 0.0
H250 H 0.69071 0.15159 0.45513 0.0
H251 H 0.66738 0.03763 0.94069 0.0
H252 H 0.25641 0.88966 0.21579 0.0
H253 H 0.42589 0.85016 0.10756 0.0
H254 H 0.38787 0.97648 0.48563 0.0
H255 H 0.32315 0.82752 0.07892 0.0
Tb256 Tb 0.5659 0.50468 0.69059 0.0
C257 C 0.34187 0.4837 0.38671 0.0
N258 N 0.34005 0.54701 0.24221 0.0
C259 C 0.21478 0.47764 0.16516 0.0
C260 C 0.28868 0.43554 0.40941 0.0
C261 C 0.28449 0.55865 0.11348 0.0
C262 C 0.23291 0.43051 0.29703 0.0
C263 C 0.38695 0.39253 0.51595 0.0
C264 C 0.38574 0.43238 0.37631 0.0
C265 C 0.33946 0.37858 0.61183 0.0
C266 C 0.28943 0.39425 0.54183 0.0
Tb267 Tb 0.43698 0.52123 0.97356 0.0
N268 N 0.43034 0.42683 0.24045 0.0
C269 C 0.43537 0.36441 0.54785 0.0
C270 C 0.48026 0.41029 0.30252 0.0
C271 C 0.48384 0.38252 0.46175 0.0
H272 H 0.28215 0.5884 1.00857 0.0
H273 H 0.52471 0.36963 0.49963 0.0
H274 H 0.68749 0.49221 0.9455 0.0
H275 H 0.55791 0.65402 0.13156 0.0
H276 H 0.51749 0.42161 0.2307 0.0
H277 H 0.43536 0.33184 0.64797 0.0
H278 H 0.51877 0.5847 0.33864 0.0
H279 H 0.17867 0.4593 0.095 0.0
H280 H 0.33972 0.34691 0.71622 0.0
H281 H 0.25187 0.36994 0.57887 0.0
H282 H 0.75967 0.55533 0.06624 0.0
H283 H 0.20695 0.39167 0.3024 0.0
H284 H 0.65685 0.68024 0.12933 0.0
N285 N 0.65084 0.55434 0.77696 0.0
C286 C 0.66959 0.59876 0.67469 0.0
C287 C 0.73403 0.57049 0.95944 0.0
C288 C 0.71818 0.63262 0.71763 0.0
C289 C 0.68936 0.53525 0.89771 0.0
C290 C 0.74705 0.62137 0.8715 0.0
N291 N 0.59273 0.57826 0.49105 0.0
C292 C 0.5618 0.59575 0.35011 0.0
C293 C 0.66832 0.64347 0.38831 0.0
C294 C 0.64296 0.60729 0.51877 0.0
C295 C 0.64024 0.65125 0.22927 0.0
C296 C 0.58473 0.63186 0.21897 0.0
H297 H 0.78349 0.64858 0.90339 0.0
H298 H 0.77683 0.69891 0.63306 0.0
H299 H 0.73528 0.70507 0.33241 0.0
O300 O 0.57696 0.45604 0.46725 0.0
O301 O 0.55482 0.59619 0.71752 0.0
O302 O 0.49807 0.60338 0.95259 0.0
O303 O 0.63462 0.44942 0.68835 0.0
O304 O 0.46866 0.50568 0.61131 0.0
O305 O 0.45829 0.50565 0.64004 0.0
O306 O 0.43082 0.59489 0.81959 0.0
O307 O 0.42862 0.43039 0.88832 0.0
O308 O 0.52285 0.43285 0.85076 0.0
O309 O 0.35736 0.54964 0.87125 0.0
O310 O 0.52892 0.52643 0.1136 0.0
O311 O 0.59023 0.47779 0.95336 0.0
C312 C 0.53053 0.62997 0.82628 0.0
C313 C 0.65036 0.38494 0.44645 0.0
C314 C 0.63628 0.31204 0.21637 0.0
C315 C 0.67439 0.27815 0.30739 0.0
C316 C 0.6913 0.3524 0.52957 0.0
C317 C 0.70542 0.30059 0.4538 0.0
C318 C 0.62987 0.36756 0.28391 0.0
C319 C 0.44471 0.53588 0.47702 0.0
C320 C 0.61904 0.42936 0.5371 0.0
C321 C 0.74067 0.67219 0.59686 0.0
C322 C 0.71754 0.67535 0.42778 0.0
C323 C 0.4755 0.40336 0.90216 0.0
C324 C 0.37114 0.64341 0.99094 0.0
C325 C 0.41401 0.6878 0.24594 0.0
C326 C 0.37107 0.72717 0.24654 0.0
C327 C 0.32672 0.68017 0.99772 0.0
C328 C 0.40909 0.64425 0.13276 0.0
C329 C 0.32461 0.71905 0.13419 0.0
C330 C 0.58156 0.50421 0.098 0.0
C331 C 0.37886 0.60023 0.85309 0.0
H332 H 0.68213 0.23634 0.25994 0.0
H333 H 0.71034 0.36573 0.65428 0.0
H334 H 0.73781 0.27627 0.51644 0.0
H335 H 0.60532 0.39854 0.22113 0.0
H336 H 0.37324 0.76422 0.32889 0.0
H337 H 0.29202 0.67473 0.90851 0.0
H338 H 0.43831 0.61335 0.15518 0.0
H339 H 0.28873 0.74437 0.14815 0.0
Tb340 Tb 0.00217 0.57059 0.69215 0.0
C341 C 0.04453 0.35517 0.37589 0.0
N342 N 0.98159 0.34685 0.2327 0.0
C343 C 0.05312 0.23042 0.15789 0.0
C344 C 0.09443 0.30793 0.39779 0.0
C345 C 0.96977 0.29067 0.10676 0.0
C346 C 0.10048 0.2534 0.28734 0.0
C347 C 0.12778 0.40947 0.5238 0.0
C348 C 0.09178 0.40517 0.37448 0.0
C349 C 0.14193 0.36241 0.62046 0.0
C350 C 0.13302 0.31177 0.53847 0.0
Tb351 Tb 0.00531 0.45268 0.97271 0.0
N352 N 0.09545 0.45259 0.2452 0.0
C353 C 0.15402 0.46026 0.55934 0.0
C354 C 0.10695 0.5037 0.31721 0.0
C355 C 0.13384 0.50787 0.48111 0.0
H356 H 0.93831 0.28655 1.00209 0.0
H357 H 0.14398 0.5478 0.54111 0.0
H358 H 0.92472 0.63249 1.02203 0.0
H359 H 0.85193 0.52551 0.1312 0.0
H360 H 0.09363 0.54016 0.24753 0.0
H361 H 0.18784 0.46274 0.65405 0.0
H362 H 0.91925 0.50028 0.34553 0.0
H363 H 0.07175 0.19624 0.08859 0.0
H364 H 0.16958 0.36551 0.73609 0.0
H365 H 0.15813 0.27682 0.57866 0.0
H366 H 0.90689 0.73516 0.06497 0.0
H367 H 0.13952 0.23127 0.29571 0.0
H368 H 0.81883 0.62322 0.13081 0.0
N369 N 0.93983 0.64036 0.75713 0.0
C370 C 0.91693 0.66565 0.61579 0.0
C371 C 0.9097 0.71644 0.93683 0.0
C372 C 0.89241 0.71858 0.62793 0.0
C373 C 0.92683 0.66088 0.91653 0.0
C374 C 0.89338 0.74645 0.78895 0.0
N375 N 0.93253 0.58164 0.46783 0.0
C376 C 0.91012 0.54299 0.34766 0.0
C377 C 0.87057 0.6505 0.33997 0.0
C378 C 0.90916 0.63331 0.46944 0.0
C379 C 0.84911 0.61084 0.22334 0.0
C380 C 0.86869 0.55676 0.22451 0.0
H381 H 0.87648 0.78813 0.80189 0.0
H382 H 0.8471 0.78034 0.49488 0.0
H383 H 0.82483 0.72093 0.2329 0.0
O384 O 0.04409 0.59105 0.46643 0.0
O385 O 0.90915 0.54933 0.72887 0.0
O386 O 0.92477 0.45819 0.77863 0.0
O387 O 0.03334 0.65457 0.66907 0.0
O388 O 0.01573 0.47715 0.60675 0.0
O389 O 0.01711 0.46954 0.63311 0.0
O390 O 0.92081 0.44965 1.00797 0.0
O391 O 0.10049 0.46526 0.89088 0.0
O392 O 0.09337 0.55849 0.81552 0.0
O393 O 0.965 0.37881 0.86547 0.0
O394 O 0.99324 0.54334 0.11744 0.0
O395 O 0.03527 0.60831 0.93919 0.0
C396 C 0.88866 0.49713 0.71389 0.0
C397 C 0.11743 0.65938 0.5145 0.0
C398 C 0.19681 0.62518 0.37854 0.0
C399 C 0.2327 0.64795 0.51206 0.0
C400 C 0.15013 0.68204 0.65434 0.0
C401 C 0.20874 0.68123 0.64176 0.0
C402 C 0.14291 0.64422 0.36226 0.0
C403 C 0.988 0.449 0.47221 0.0
C404 C 0.05869 0.64177 0.52595 0.0
C405 C 0.86458 0.74029 0.48261 0.0
C406 C 0.85167 0.7058 0.33879 0.0
C407 C 0.12836 0.51618 0.86195 0.0
C408 C 0.87503 0.36128 1.0022 0.0
C409 C 0.80846 0.36882 0.22986 0.0
C410 C 0.76757 0.34471 0.11115 0.0
C411 C 0.83664 0.33156 0.89178 0.0
C412 C 0.86379 0.36886 0.1798 0.0
C413 C 0.78243 0.32059 0.95232 0.0
C414 C 0.01541 0.59809 0.09474 0.0
C415 C 0.91698 0.39911 0.92615 0.0
H416 H 0.27727 0.63914 0.51843 0.0
H417 H 0.13107 0.69903 0.77079 0.0
H418 H 0.23374 0.70361 0.73779 0.0
H419 H 0.11566 0.63255 0.25253 0.0
H420 H 0.72461 0.35345 0.12157 0.0
H421 H 0.84617 0.32331 0.75501 0.0
H422 H 0.89469 0.39214 0.26008 0.0
H423 H 0.75021 0.30272 0.86462 0.0
loop_
_geom_bond_atom_site_label_1
_geom_bond_atom_site_label_2
_geom_bond_distance
_geom_bond_site_symmetry_2
_ccdc_geom_bond_type
H0 C3 0.929 . S
H1 C6 0.929 . S
H2 C8 0.930 . S
C3 H0 0.929 . S
C3 C4 1.398 . S
C3 C5 1.396 . S
C4 C3 1.398 . S
C4 C8 1.407 . S
C5 C3 1.396 . S
C5 C6 1.394 . S
C6 H1 0.929 . S
C6 C5 1.394 . S
C6 C7 1.382 . S
C7 C6 1.382 . S
C7 C8 1.392 . S
C7 N9 1.420 . S
C8 H2 0.930 . S
C8 C4 1.407 . S
C8 C7 1.392 . S
N9 C7 1.420 . S
N9 C10 1.244 . S
C10 N9 1.244 . S
H11 C14 0.929 . S
H12 C17 0.929 . S
H13 C19 0.930 . S
C14 H11 0.929 . S
C14 C15 1.398 . S
C14 C16 1.396 . S
C15 C14 1.398 . S
C15 C19 1.407 1_655 S
C16 C14 1.396 . S
C16 C17 1.394 1_655 S
C17 H12 0.929 . S
C17 C16 1.394 1_455 S
C17 C18 1.382 . S
C18 C17 1.382 . S
C18 C19 1.392 . S
C18 N20 1.420 . S
C19 H13 0.930 . S
C19 C15 1.407 1_455 S
C19 C18 1.392 . S
N20 C18 1.420 . S
N20 C21 1.244 1_455 S
C21 N20 1.244 1_655 S
H22 C25 0.929 . S
H23 C28 0.929 . S
H24 C30 0.930 . S
C25 H22 0.929 . S
C25 C26 1.398 . S
C25 C27 1.396 . S
C26 C25 1.398 . S
C26 C30 1.407 1_565 S
C27 C25 1.396 . S
C27 C28 1.394 1_565 S
C28 H23 0.929 . S
C28 C27 1.394 1_545 S
C28 C29 1.382 . S
C29 C28 1.382 . S
C29 C30 1.392 . S
C29 N31 1.420 . S
C30 H24 0.930 . S
C30 C26 1.407 1_545 S
C30 C29 1.392 . S
N31 C29 1.420 . S
N31 C32 1.244 1_545 S
C32 N31 1.244 1_565 S
H33 C36 0.929 . S
H34 C39 0.929 . S
H35 C41 0.930 . S
C36 H33 0.929 . S
C36 C37 1.398 . S
C36 C38 1.396 . S
C37 C36 1.398 . S
C37 C41 1.407 . S
C38 C36 1.396 . S
C38 C39 1.394 . S
C39 H34 0.929 . S
C39 C38 1.394 . S
C39 C40 1.382 . S
C40 C39 1.382 . S
C40 C41 1.392 . S
C40 N42 1.420 . S
C41 H35 0.930 . S
C41 C37 1.407 . S
C41 C40 1.392 . S
N42 C40 1.420 . S
N42 C43 1.244 . S
C43 N42 1.244 . S
H44 C47 0.929 . S
H45 C50 0.929 . S
H46 C52 0.930 . S
C47 H44 0.929 . S
C47 C48 1.398 . S
C47 C49 1.396 1_556 S
C48 C47 1.398 . S
C48 C52 1.407 . S
C49 C47 1.396 1_554 S
C49 C50 1.394 . S
C50 H45 0.929 . S
C50 C49 1.394 . S
C50 C51 1.382 . S
C51 C50 1.382 . S
C51 C52 1.392 1_554 S
C51 N53 1.420 . S
C52 H46 0.930 . S
C52 C48 1.407 . S
C52 C51 1.392 1_556 S
N53 C51 1.420 . S
N53 C54 1.244 . S
C54 N53 1.244 . S
H55 C58 0.929 . S
H56 C61 0.929 . S
H57 C63 0.930 . S
C58 H55 0.929 . S
C58 C59 1.398 . S
C58 C60 1.396 1_556 S
C59 C58 1.398 . S
C59 C63 1.407 . S
C60 C58 1.396 1_554 S
C60 C61 1.394 . S
C61 H56 0.929 . S
C61 C60 1.394 . S
C61 C62 1.382 . S
C62 C61 1.382 . S
C62 C63 1.392 1_554 S
C62 N64 1.420 . S
C63 H57 0.930 . S
C63 C59 1.407 . S
C63 C62 1.392 1_556 S
N64 C62 1.420 . S
N64 C65 1.244 . S
C65 N64 1.244 . S
H66 C69 0.929 . S
H67 C72 0.929 . S
H68 C74 0.930 . S
C69 H66 0.929 . S
C69 C70 1.398 . S
C69 C71 1.396 1_556 S
C70 C69 1.398 . S
C70 C74 1.407 . S
C71 C69 1.396 1_554 S
C71 C72 1.394 . S
C72 H67 0.929 . S
C72 C71 1.394 . S
C72 C73 1.382 . S
C73 C72 1.382 . S
C73 C74 1.392 1_554 S
C73 N75 1.420 . S
C74 H68 0.930 . S
C74 C70 1.407 . S
C74 C73 1.392 1_556 S
N75 C73 1.420 . S
N75 C76 1.244 . S
C76 N75 1.244 . S
H77 C80 0.929 . S
H78 C83 0.929 . S
H79 C85 0.930 . S
C80 H77 0.929 . S
C80 C81 1.398 . S
C80 C82 1.396 1_556 S
C81 C80 1.398 . S
C81 C85 1.407 . S
C82 C80 1.396 1_554 S
C82 C83 1.394 . S
C83 H78 0.929 . S
C83 C82 1.394 . S
C83 C84 1.382 . S
C84 C83 1.382 . S
C84 C85 1.392 1_554 S
C84 N86 1.420 . S
C85 H79 0.930 . S
C85 C81 1.407 . S
C85 C84 1.392 1_556 S
N86 C84 1.420 . S
N86 C87 1.244 . S
C87 N86 1.244 . S
Tb88 N117 2.617 . S
Tb88 N123 2.572 1_545 S
Tb88 O132 2.465 . S
Tb88 O133 2.387 1_545 S
Tb88 O135 2.428 . S
Tb88 O136 2.308 1_655 S
Tb88 O140 2.349 . S
Tb88 O143 2.393 . S
Tb88 C152 2.802 . S
C89 N90 1.379 . S
C89 C92 1.416 . S
C89 C96 1.424 . S
N90 C89 1.379 . S
N90 C93 1.334 1_554 S
N90 Tb99 2.617 1_544 S
C91 C93 1.390 . S
C91 C94 1.339 1_556 S
C91 H111 0.930 . S
C92 C89 1.416 . S
C92 C94 1.416 . S
C92 C98 1.448 . S
C93 N90 1.334 1_556 S
C93 C91 1.390 . S
C93 H104 0.930 1_545 S
C94 C91 1.339 1_554 S
C94 C92 1.416 . S
C94 H115 0.930 . S
C95 C96 1.413 . S
C95 C97 1.427 . S
C95 C101 1.416 . S
C96 C89 1.424 . S
C96 C95 1.413 . S
C96 N100 1.361 . S
C97 C95 1.427 . S
C97 C98 1.328 . S
C97 H112 0.929 . S
C98 C92 1.448 . S
C98 C97 1.328 . S
C98 H113 0.930 . S
Tb99 N90 2.617 1_566 S
Tb99 N100 2.572 1_566 S
Tb99 O134 2.349 . S
Tb99 O137 2.393 . S
Tb99 O138 2.465 1_556 S
Tb99 O139 2.387 1_565 S
Tb99 O141 2.428 1_556 S
Tb99 O142 2.313 1_456 S
Tb99 C163 2.802 1_556 S
N100 C96 1.361 . S
N100 Tb99 2.572 1_544 S
N100 C102 1.340 . S
C101 C95 1.416 . S
C101 C103 1.332 . S
C101 H109 0.931 . S
C102 N100 1.340 . S
C102 C103 1.407 . S
C102 H108 0.930 . S
C103 C101 1.332 . S
C103 C102 1.407 . S
C103 H105 0.929 . S
H104 C93 0.930 1_565 S
H105 C103 0.929 . S
H106 C121 0.930 . S
H107 C128 0.929 . S
H108 C102 0.930 . S
H109 C101 0.931 . S
H110 C124 0.930 1_455 S
H111 C91 0.930 . S
H112 C97 0.929 . S
H113 C98 0.930 . S
H114 C119 0.930 . S
H115 C94 0.930 . S
H116 C127 0.931 1_556 S
N117 Tb88 2.617 . S
N117 C118 1.379 1_545 S
N117 C121 1.334 . S
C118 N117 1.379 1_565 S
C118 C120 1.416 . S
C118 C126 1.424 . S
C119 H114 0.930 . S
C119 C121 1.390 1_565 S
C119 C122 1.339 . S
C120 C118 1.416 . S
C120 C122 1.416 . S
C120 C153 1.448 . S
C121 H106 0.930 . S
C121 N117 1.334 . S
C121 C119 1.390 1_545 S
C122 C119 1.339 . S
C122 C120 1.416 . S
C122 H129 0.930 . S
N123 Tb88 2.572 1_565 S
N123 C124 1.340 . S
N123 C126 1.361 . S
C124 H110 0.930 1_655 S
C124 N123 1.340 . S
C124 C128 1.407 . S
C125 C126 1.413 . S
C125 C127 1.416 . S
C125 C154 1.427 . S
C126 C118 1.424 . S
C126 N123 1.361 . S
C126 C125 1.413 . S
C127 H116 0.931 1_554 S
C127 C125 1.416 . S
C127 C128 1.332 . S
C128 H107 0.929 . S
C128 C124 1.407 . S
C128 C127 1.332 . S
H129 C122 0.930 . S
H130 C153 0.930 . S
H131 C154 0.929 . S
O132 Tb88 2.465 . S
O132 C152 1.264 . S
O133 Tb88 2.387 1_565 S
O133 C144 1.264 . S
O134 Tb99 2.349 . S
O134 C144 1.243 1_455 S
O135 Tb88 2.428 . S
O135 C152 1.256 . S
O136 Tb88 2.308 1_455 S
O136 C151 1.266 . S
O137 Tb99 2.393 . S
O137 C151 1.248 1_565 S
O138 Tb99 2.465 1_554 S
O138 C163 1.264 . S
O139 Tb99 2.387 1_545 S
O139 C155 1.264 . S
O140 Tb88 2.349 . S
O140 C155 1.243 1_655 S
O141 Tb99 2.428 1_554 S
O141 C163 1.256 . S
O142 Tb99 2.313 1_654 S
O142 C162 1.264 1_565 S
O143 Tb88 2.393 . S
O143 C162 1.248 1_556 S
C144 O133 1.264 . S
C144 O134 1.243 1_655 S
C145 C148 1.399 . S
C145 C150 1.383 . S
C145 C152 1.496 . S
C146 C147 1.399 . S
C146 C150 1.389 . S
C147 C146 1.399 . S
C147 C149 1.380 . S
C147 H164 0.929 . S
C148 C145 1.399 . S
C148 C149 1.392 . S
C148 H165 0.929 . S
C149 C147 1.380 . S
C149 C148 1.392 . S
C149 H166 0.929 . S
C150 C145 1.383 . S
C150 C146 1.389 . S
C150 H167 0.931 . S
C151 O136 1.266 . S
C151 O137 1.248 1_545 S
C152 Tb88 2.802 . S
C152 O132 1.264 . S
C152 O135 1.256 . S
C152 C145 1.496 . S
C153 C120 1.448 . S
C153 H130 0.930 . S
C153 C154 1.328 . S
C154 C125 1.427 . S
C154 H131 0.929 . S
C154 C153 1.328 . S
C155 O139 1.264 . S
C155 O140 1.243 1_455 S
C156 C159 1.399 . S
C156 C160 1.383 . S
C156 C163 1.496 . S
C157 C158 1.399 . S
C157 C160 1.389 . S
C158 C157 1.399 . S
C158 C161 1.380 . S
C158 H168 0.929 . S
C159 C156 1.399 . S
C159 C161 1.392 . S
C159 H169 0.929 . S
C160 C156 1.383 . S
C160 C157 1.389 . S
C160 H170 0.931 . S
C161 C158 1.380 . S
C161 C159 1.392 . S
C161 H171 0.929 . S
C162 O142 1.264 1_545 S
C162 O143 1.248 1_554 S
C163 Tb99 2.802 1_554 S
C163 O138 1.264 . S
C163 O141 1.256 . S
C163 C156 1.496 . S
H164 C147 0.929 . S
H165 C148 0.929 . S
H166 C149 0.929 . S
H167 C150 0.931 . S
H168 C158 0.929 . S
H169 C159 0.929 . S
H170 C160 0.931 . S
H171 C161 0.929 . S
Tb172 N201 2.617 1_556 S
Tb172 N207 2.572 . S
Tb172 O216 2.465 1_556 S
Tb172 O217 2.387 . S
Tb172 O219 2.428 1_556 S
Tb172 O220 2.308 . S
Tb172 O224 2.349 1_546 S
Tb172 O227 2.393 1_556 S
Tb172 C236 2.802 1_556 S
C173 N174 1.379 . S
C173 C176 1.416 . S
C173 C180 1.424 . S
N174 C173 1.379 . S
N174 C177 1.334 . S
N174 Tb183 2.617 . S
C175 C177 1.390 . S
C175 C178 1.339 . S
C175 H195 0.930 . S
C176 C173 1.416 . S
C176 C178 1.416 . S
C176 C182 1.448 . S
C177 N174 1.334 . S
C177 C175 1.390 . S
C177 H188 0.930 . S
C178 C175 1.339 . S
C178 C176 1.416 . S
C178 H199 0.930 . S
C179 C180 1.413 . S
C179 C181 1.427 . S
C179 C185 1.416 . S
C180 C173 1.424 . S
C180 C179 1.413 . S
C180 N184 1.361 . S
C181 C179 1.427 . S
C181 C182 1.328 . S
C181 H196 0.929 . S
C182 C176 1.448 . S
C182 C181 1.328 . S
C182 H197 0.930 . S
Tb183 N174 2.617 . S
Tb183 N184 2.572 . S
Tb183 O218 2.349 1_565 S
Tb183 O221 2.393 . S
Tb183 O222 2.465 . S
Tb183 O223 2.387 . S
Tb183 O225 2.428 . S
Tb183 O226 2.308 . S
Tb183 C247 2.802 . S
N184 C180 1.361 . S
N184 Tb183 2.572 . S
N184 C186 1.340 . S
C185 C179 1.416 . S
C185 C187 1.332 . S
C185 H193 0.931 . S
C186 N184 1.340 . S
C186 C187 1.407 . S
C186 H192 0.930 . S
C187 C185 1.332 . S
C187 C186 1.407 . S
C187 H189 0.929 . S
H188 C177 0.930 . S
H189 C187 0.929 . S
H190 C205 0.930 . S
H191 C212 0.929 . S
H192 C186 0.930 . S
H193 C185 0.931 . S
H194 C208 0.930 . S
H195 C175 0.930 . S
H196 C181 0.929 . S
H197 C182 0.930 . S
H198 C203 0.930 . S
H199 C178 0.930 . S
H200 C211 0.931 . S
N201 Tb172 2.617 1_554 S
N201 C202 1.379 . S
N201 C205 1.334 . S
C202 N201 1.379 . S
C202 C204 1.416 . S
C202 C210 1.424 1_554 S
C203 H198 0.930 . S
C203 C205 1.390 . S
C203 C206 1.339 . S
C204 C202 1.416 . S
C204 C206 1.416 . S
C204 C237 1.448 1_554 S
C205 H190 0.930 . S
C205 N201 1.334 . S
C205 C203 1.390 . S
C206 C203 1.339 . S
C206 C204 1.416 . S
C206 H213 0.930 . S
N207 Tb172 2.572 . S
N207 C208 1.340 . S
N207 C210 1.361 . S
C208 H194 0.930 . S
C208 N207 1.340 . S
C208 C212 1.407 . S
C209 C210 1.413 . S
C209 C211 1.416 . S
C209 C238 1.427 . S
C210 C202 1.424 1_556 S
C210 N207 1.361 . S
C210 C209 1.413 . S
C211 H200 0.931 . S
C211 C209 1.416 . S
C211 C212 1.332 . S
C212 H191 0.929 . S
C212 C208 1.407 . S
C212 C211 1.332 . S
H213 C206 0.930 . S
H214 C237 0.930 . S
H215 C238 0.929 . S
O216 Tb172 2.465 1_554 S
O216 C236 1.264 . S
O217 Tb172 2.387 . S
O217 C228 1.264 . S
O218 Tb183 2.349 1_545 S
O218 C228 1.243 . S
O219 Tb172 2.428 1_554 S
O219 C236 1.256 . S
O220 Tb172 2.308 . S
O220 C235 1.266 1_545 S
O221 Tb183 2.393 . S
O221 C235 1.248 . S
O222 Tb183 2.465 . S
O222 C247 1.264 . S
O223 Tb183 2.387 . S
O223 C239 1.264 1_556 S
O224 Tb172 2.349 1_564 S
O224 C239 1.243 . S
O225 Tb183 2.428 . S
O225 C247 1.256 . S
O226 Tb183 2.308 . S
O226 C246 1.266 1_565 S
O227 Tb172 2.393 1_554 S
O227 C246 1.248 1_554 S
C228 O217 1.264 . S
C228 O218 1.243 . S
C229 C232 1.399 . S
C229 C234 1.383 . S
C229 C236 1.496 . S
C230 C231 1.399 . S
C230 C234 1.389 . S
C231 C230 1.399 . S
C231 C233 1.380 . S
C231 H248 0.929 . S
C232 C229 1.399 . S
C232 C233 1.392 . S
C232 H249 0.929 . S
C233 C231 1.380 . S
C233 C232 1.392 . S
C233 H250 0.929 . S
C234 C229 1.383 . S
C234 C230 1.389 . S
C234 H251 0.931 . S
C235 O220 1.266 1_565 S
C235 O221 1.248 . S
C236 Tb172 2.802 1_554 S
C236 O216 1.264 . S
C236 O219 1.256 . S
C236 C229 1.496 . S
C237 C204 1.448 1_556 S
C237 H214 0.930 . S
C237 C238 1.328 . S
C238 C209 1.427 . S
C238 H215 0.929 . S
C238 C237 1.328 . S
C239 O223 1.264 1_554 S
C239 O224 1.243 . S
C240 C243 1.399 . S
C240 C244 1.383 . S
C240 C247 1.496 . S
C241 C242 1.399 1_554 S
C241 C244 1.389 . S
C242 C241 1.399 1_556 S
C242 C245 1.380 . S
C242 H252 0.929 . S
C243 C240 1.399 . S
C243 C245 1.392 1_554 S
C243 H253 0.929 . S
C244 C240 1.383 . S
C244 C241 1.389 . S
C244 H254 0.931 . S
C245 C242 1.380 . S
C245 C243 1.392 1_556 S
C245 H255 0.929 . S
C246 O226 1.266 1_545 S
C246 O227 1.248 1_556 S
C247 Tb183 2.802 . S
C247 O222 1.264 . S
C247 O225 1.256 . S
C247 C240 1.496 . S
H248 C231 0.929 . S
H249 C232 0.929 . S
H250 C233 0.929 . S
H251 C234 0.931 . S
H252 C242 0.929 . S
H253 C243 0.929 . S
H254 C244 0.931 . S
H255 C245 0.929 . S
Tb256 N285 2.617 . S
Tb256 N291 2.572 . S
Tb256 O300 2.465 . S
Tb256 O301 2.387 . S
Tb256 O303 2.428 . S
Tb256 O304 2.308 . S
Tb256 O308 2.349 . S
Tb256 O311 2.393 . S
Tb256 C320 2.802 . S
C257 N258 1.379 . S
C257 C260 1.416 . S
C257 C264 1.424 . S
N258 C257 1.379 . S
N258 C261 1.334 1_554 S
N258 Tb267 2.617 1_554 S
C259 C261 1.390 . S
C259 C262 1.339 1_556 S
C259 H279 0.930 . S
C260 C257 1.416 . S
C260 C262 1.416 . S
C260 C266 1.448 . S
C261 N258 1.334 1_556 S
C261 C259 1.390 . S
C261 H272 0.930 . S
C262 C259 1.339 1_554 S
C262 C260 1.416 . S
C262 H283 0.930 . S
C263 C264 1.413 . S
C263 C265 1.427 . S
C263 C269 1.416 . S
C264 C257 1.424 . S
C264 C263 1.413 . S
C264 N268 1.361 . S
C265 C263 1.427 . S
C265 C266 1.328 . S
C265 H280 0.929 . S
C266 C260 1.448 . S
C266 C265 1.328 . S
C266 H281 0.930 . S
Tb267 N258 2.617 1_556 S
Tb267 N268 2.572 1_556 S
Tb267 O302 2.349 . S
Tb267 O305 2.393 . S
Tb267 O306 2.465 1_556 S
Tb267 O307 2.387 . S
Tb267 O309 2.428 1_556 S
Tb267 O310 2.308 1_556 S
Tb267 C331 2.802 1_556 S
N268 C264 1.361 . S
N268 Tb267 2.572 1_554 S
N268 C270 1.340 . S
C269 C263 1.416 . S
C269 C271 1.332 . S
C269 H277 0.931 . S
C270 N268 1.340 . S
C270 C271 1.407 . S
C270 H276 0.930 . S
C271 C269 1.332 . S
C271 C270 1.407 . S
C271 H273 0.929 . S
H272 C261 0.930 . S
H273 C271 0.929 . S
H274 C289 0.930 . S
H275 C296 0.929 . S
H276 C270 0.930 . S
H277 C269 0.931 . S
H278 C292 0.930 . S
H279 C259 0.930 . S
H280 C265 0.929 . S
H281 C266 0.930 . S
H282 C287 0.930 . S
H283 C262 0.930 . S
H284 C295 0.931 1_556 S
N285 Tb256 2.617 . S
N285 C286 1.379 . S
N285 C289 1.334 . S
C286 N285 1.379 . S
C286 C288 1.416 . S
C286 C294 1.424 . S
C287 H282 0.930 . S
C287 C289 1.390 . S
C287 C290 1.339 . S
C288 C286 1.416 . S
C288 C290 1.416 . S
C288 C321 1.448 . S
C289 H274 0.930 . S
C289 N285 1.334 . S
C289 C287 1.390 . S
C290 C287 1.339 . S
C290 C288 1.416 . S
C290 H297 0.930 . S
N291 Tb256 2.572 . S
N291 C292 1.340 . S
N291 C294 1.361 . S
C292 H278 0.930 . S
C292 N291 1.340 . S
C292 C296 1.407 . S
C293 C294 1.413 . S
C293 C295 1.416 . S
C293 C322 1.427 . S
C294 C286 1.424 . S
C294 N291 1.361 . S
C294 C293 1.413 . S
C295 H284 0.931 1_554 S
C295 C293 1.416 . S
C295 C296 1.332 . S
C296 H275 0.929 . S
C296 C292 1.407 . S
C296 C295 1.332 . S
H297 C290 0.930 . S
H298 C321 0.930 . S
H299 C322 0.929 . S
O300 Tb256 2.465 . S
O300 C320 1.264 . S
O301 Tb256 2.387 . S
O301 C312 1.264 . S
O302 Tb267 2.349 . S
O302 C312 1.243 . S
O303 Tb256 2.428 . S
O303 C320 1.256 . S
O304 Tb256 2.308 . S
O304 C319 1.266 . S
O305 Tb267 2.393 . S
O305 C319 1.248 . S
O306 Tb267 2.465 1_554 S
O306 C331 1.264 . S
O307 Tb267 2.387 . S
O307 C323 1.264 . S
O308 Tb256 2.349 . S
O308 C323 1.243 . S
O309 Tb267 2.428 1_554 S
O309 C331 1.256 . S
O310 Tb267 2.308 1_554 S
O310 C330 1.266 . S
O311 Tb256 2.393 . S
O311 C330 1.248 1_556 S
C312 O301 1.264 . S
C312 O302 1.243 . S
C313 C316 1.399 . S
C313 C318 1.383 . S
C313 C320 1.496 . S
C314 C315 1.399 . S
C314 C318 1.389 . S
C315 C314 1.399 . S
C315 C317 1.380 . S
C315 H332 0.929 . S
C316 C313 1.399 . S
C316 C317 1.392 . S
C316 H333 0.929 . S
C317 C315 1.380 . S
C317 C316 1.392 . S
C317 H334 0.929 . S
C318 C313 1.383 . S
C318 C314 1.389 . S
C318 H335 0.931 . S
C319 O304 1.266 . S
C319 O305 1.248 . S
C320 Tb256 2.802 . S
C320 O300 1.264 . S
C320 O303 1.256 . S
C320 C313 1.496 . S
C321 C288 1.448 . S
C321 H298 0.930 . S
C321 C322 1.328 . S
C322 C293 1.427 . S
C322 H299 0.929 . S
C322 C321 1.328 . S
C323 O307 1.264 . S
C323 O308 1.243 . S
C324 C327 1.399 . S
C324 C328 1.383 . S
C324 C331 1.496 . S
C325 C326 1.399 . S
C325 C328 1.389 . S
C326 C325 1.399 . S
C326 C329 1.380 . S
C326 H336 0.929 . S
C327 C324 1.399 . S
C327 C329 1.392 . S
C327 H337 0.929 . S
C328 C324 1.383 . S
C328 C325 1.389 . S
C328 H338 0.931 . S
C329 C326 1.380 . S
C329 C327 1.392 . S
C329 H339 0.929 . S
C330 O310 1.266 . S
C330 O311 1.248 1_554 S
C331 Tb267 2.802 1_554 S
C331 O306 1.264 . S
C331 O309 1.256 . S
C331 C324 1.496 . S
H332 C315 0.929 . S
H333 C316 0.929 . S
H334 C317 0.929 . S
H335 C318 0.931 . S
H336 C326 0.929 . S
H337 C327 0.929 . S
H338 C328 0.931 . S
H339 C329 0.929 . S
Tb340 N369 2.617 . S
Tb340 N375 2.572 1_455 S
Tb340 O384 2.465 . S
Tb340 O385 2.387 1_455 S
Tb340 O387 2.428 . S
Tb340 O388 2.308 . S
Tb340 O392 2.349 . S
Tb340 O395 2.393 . S
Tb340 C404 2.802 . S
C341 N342 1.379 . S
C341 C344 1.416 . S
C341 C348 1.424 . S
N342 C341 1.379 . S
N342 C345 1.335 1_454 S
N342 Tb351 2.617 1_454 S
C343 C345 1.390 1_455 S
C343 C346 1.339 1_556 S
C343 H363 0.930 . S
C344 C341 1.416 . S
C344 C346 1.416 . S
C344 C350 1.448 . S
C345 N342 1.335 1_656 S
C345 C343 1.390 1_655 S
C345 H356 0.930 . S
C346 C343 1.339 1_554 S
C346 C344 1.416 . S
C346 H367 0.930 . S
C347 C348 1.413 . S
C347 C349 1.427 . S
C347 C353 1.416 . S
C348 C341 1.424 . S
C348 C347 1.413 . S
C348 N352 1.361 . S
C349 C347 1.427 . S
C349 C350 1.328 . S
C349 H364 0.929 . S
C350 C344 1.448 . S
C350 C349 1.328 . S
C350 H365 0.930 . S
Tb351 N342 2.617 1_656 S
Tb351 N352 2.572 1_656 S
Tb351 O386 2.349 . S
Tb351 O389 2.393 . S
Tb351 O390 2.465 1_556 S
Tb351 O391 2.387 1_655 S
Tb351 O393 2.428 1_556 S
Tb351 O394 2.312 1_556 S
Tb351 C415 2.802 1_556 S
N352 C348 1.361 . S
N352 Tb351 2.572 1_454 S
N352 C354 1.340 . S
C353 C347 1.416 . S
C353 C355 1.332 . S
C353 H361 0.931 . S
C354 N352 1.340 . S
C354 C355 1.407 . S
C354 H360 0.930 . S
C355 C353 1.332 . S
C355 C354 1.407 . S
C355 H357 0.929 . S
H356 C345 0.930 . S
H357 C355 0.929 . S
H358 C373 0.930 . S
H359 C380 0.929 . S
H360 C354 0.930 . S
H361 C353 0.931 . S
H362 C376 0.935 . S
H363 C343 0.930 . S
H364 C349 0.929 . S
H365 C350 0.930 . S
H366 C371 0.930 . S
H367 C346 0.930 . S
H368 C379 0.931 1_556 S
N369 Tb340 2.617 . S
N369 C370 1.379 1_455 S
N369 C373 1.334 . S
C370 N369 1.379 1_655 S
C370 C372 1.416 . S
C370 C378 1.424 . S
C371 H366 0.930 . S
C371 C373 1.390 1_655 S
C371 C374 1.339 . S
C372 C370 1.416 . S
C372 C374 1.416 . S
C372 C405 1.448 . S
C373 H358 0.930 . S
C373 N369 1.334 . S
C373 C371 1.390 1_455 S
C374 C371 1.339 . S
C374 C372 1.416 . S
C374 H381 0.930 . S
N375 Tb340 2.572 1_655 S
N375 C376 1.340 . S
N375 C378 1.361 . S
C376 H362 0.935 . S
C376 N375 1.340 . S
C376 C380 1.407 . S
C377 C378 1.413 . S
C377 C379 1.416 . S
C377 C406 1.427 . S
C378 C370 1.424 . S
C378 N375 1.361 . S
C378 C377 1.413 . S
C379 H368 0.931 1_554 S
C379 C377 1.416 . S
C379 C380 1.332 . S
C380 H359 0.929 . S
C380 C376 1.407 . S
C380 C379 1.332 . S
H381 C374 0.930 . S
H382 C405 0.930 . S
H383 C406 0.929 . S
O384 Tb340 2.465 . S
O384 C404 1.264 . S
O385 Tb340 2.387 1_655 S
O385 C396 1.264 . S
O386 Tb351 2.349 . S
O386 C396 1.243 . S
O387 Tb340 2.428 . S
O387 C404 1.256 . S
O388 Tb340 2.308 . S
O388 C403 1.266 . S
O389 Tb351 2.393 . S
O389 C403 1.248 1_655 S
O390 Tb351 2.465 1_554 S
O390 C415 1.264 . S
O391 Tb351 2.387 1_455 S
O391 C407 1.264 . S
O392 Tb340 2.349 . S
O392 C407 1.243 . S
O393 Tb351 2.428 1_554 S
O393 C415 1.256 . S
O394 Tb351 2.312 1_554 S
O394 C414 1.264 1_655 S
O395 Tb340 2.393 . S
O395 C414 1.248 1_556 S
C396 O385 1.264 . S
C396 O386 1.243 . S
C397 C400 1.399 . S
C397 C402 1.383 . S
C397 C404 1.496 . S
C398 C399 1.399 . S
C398 C402 1.389 . S
C399 C398 1.399 . S
C399 C401 1.380 . S
C399 H416 0.929 . S
C400 C397 1.399 . S
C400 C401 1.392 . S
C400 H417 0.929 . S
C401 C399 1.380 . S
C401 C400 1.392 . S
C401 H418 0.929 . S
C402 C397 1.383 . S
C402 C398 1.389 . S
C402 H419 0.931 . S
C403 O388 1.266 . S
C403 O389 1.248 1_455 S
C404 Tb340 2.802 . S
C404 O384 1.264 . S
C404 O387 1.256 . S
C404 C397 1.496 . S
C405 C372 1.448 . S
C405 H382 0.930 . S
C405 C406 1.328 . S
C406 C377 1.427 . S
C406 H383 0.929 . S
C406 C405 1.328 . S
C407 O391 1.264 . S
C407 O392 1.243 . S
C408 C411 1.399 . S
C408 C412 1.383 . S
C408 C415 1.496 . S
C409 C410 1.399 . S
C409 C412 1.389 . S
C410 C409 1.399 . S
C410 C413 1.380 . S
C410 H420 0.929 . S
C411 C408 1.399 . S
C411 C413 1.392 . S
C411 H421 0.929 . S
C412 C408 1.383 . S
C412 C409 1.389 . S
C412 H422 0.931 . S
C413 C410 1.380 . S
C413 C411 1.392 . S
C413 H423 0.929 . S
C414 O394 1.264 1_455 S
C414 O395 1.248 1_554 S
C415 Tb351 2.802 1_554 S
C415 O390 1.264 . S
C415 O393 1.256 . S
C415 C408 1.496 . S
H416 C399 0.929 . S
H417 C400 0.929 . S
H418 C401 0.929 . S
H419 C402 0.931 . S
H420 C410 0.929 . S
H421 C411 0.929 . S
H422 C412 0.931 . S
H423 C413 0.929 . S
C76 C151 3.391 . S
C228 C87 3.363 . S
C319 C54 3.406 . S
C403 C65 3.372 . S
C162 C32 3.395 1_545 S
C43 C239 3.363 . S
C10 C330 3.411 . S
C21 C414 3.378 1_655 S
C146 C60 1.986 1_655 S
C241 C71 1.846 1_565 S
C314 C82 2.032 . S
C49 C398 1.992 . S
C16 C157 1.936 1_655 S
C230 C27 1.801 1_545 S
C325 C38 1.983 . S
C5 C409 1.942 . S
C59 C155 3.379 . S
C70 C246 3.508 . S
C323 C81 3.401 . S
C407 C48 3.405 . S
C15 C144 3.387 . S
C235 C26 3.512 . S
C312 C37 3.408 . S
C4 C396 3.412 . S
