# Generated by pormake.
# Topology anh, (6,3)-cn, num edge types: 1
# Building blocks:
#     Node 0, Type 0, BuildingBlock: MIFKUJ_clean_sbu_0, # of connection points: 6
#     Node 1, Type 0, BuildingBlock: MIFKUJ_clean_sbu_0, # of connection points: 6
#     Node 2, Type 0, BuildingBlock: MIFKUJ_clean_sbu_0, # of connection points: 6
#     Node 3, Type 1, BuildingBlock: MIDCAF_clean_linker_0, # of connection points: 3
#     Node 4, Type 1, BuildingBlock: MIDCAF_clean_linker_0, # of connection points: 3
#     Node 5, Type 1, BuildingBlock: MIDCAF_clean_linker_0, # of connection points: 3
#     Node 6, Type 1, BuildingBlock: MIDCAF_clean_linker_0, # of connection points: 3
#     Node 7, Type 1, BuildingBlock: MIDCAF_clean_linker_0, # of connection points: 3
#     Node 8, Type 1, BuildingBlock: MIDCAF_clean_linker_0, # of connection points: 3
#     Edge 9, Type (0, 1), BuildingBlock: KIFKEQ_clean_linker_1, # of connection points: 2
#     Edge 10, Type (0, 1), BuildingBlock: KIFKEQ_clean_linker_1, # of connection points: 2
#     Edge 11, Type (0, 1), BuildingBlock: KIFKEQ_clean_linker_1, # of connection points: 2
#     Edge 12, Type (0, 1), BuildingBlock: KIFKEQ_clean_linker_1, # of connection points: 2
#     Edge 13, Type (0, 1), BuildingBlock: KIFKEQ_clean_linker_1, # of connection points: 2
#     Edge 14, Type (0, 1), BuildingBlock: KIFKEQ_clean_linker_1, # of connection points: 2
#     Edge 15, Type (0, 1), BuildingBlock: KIFKEQ_clean_linker_1, # of connection points: 2
#     Edge 16, Type (0, 1), BuildingBlock: KIFKEQ_clean_linker_1, # of connection points: 2
#     Edge 17, Type (0, 1), BuildingBlock: KIFKEQ_clean_linker_1, # of connection points: 2
#     Edge 18, Type (0, 1), BuildingBlock: KIFKEQ_clean_linker_1, # of connection points: 2
#     Edge 19, Type (0, 1), BuildingBlock: KIFKEQ_clean_linker_1, # of connection points: 2
#     Edge 20, Type (0, 1), BuildingBlock: KIFKEQ_clean_linker_1, # of connection points: 2
#     Edge 21, Type (0, 1), BuildingBlock: KIFKEQ_clean_linker_1, # of connection points: 2
#     Edge 22, Type (0, 1), BuildingBlock: KIFKEQ_clean_linker_1, # of connection points: 2
#     Edge 23, Type (0, 1), BuildingBlock: KIFKEQ_clean_linker_1, # of connection points: 2
#     Edge 24, Type (0, 1), BuildingBlock: KIFKEQ_clean_linker_1, # of connection points: 2
#     Edge 25, Type (0, 1), BuildingBlock: KIFKEQ_clean_linker_1, # of connection points: 2
#     Edge 26, Type (0, 1), BuildingBlock: KIFKEQ_clean_linker_1, # of connection points: 2
# Relax obj value: 0.135
# Max RMSD: 0.184
# Mean RMSD: 0.144
data_MOF--net-anh--node1-MIFKUJ_clean_sbu_0--node2-MIDCAF_clean_linker_0--edge1-KIFKEQ_clean_linker_1
_symmetry_space_group_name_H-M    P1
_symmetry_Int_Tables_number       1
_symmetry_cell_setting            triclinic
loop_
_symmetry_equiv_pos_as_xyz
'x, y, z'
_cell_length_a     37.567749
_cell_length_b     37.362613
_cell_length_c     64.734237
_cell_angle_alpha  93.740377
_cell_angle_beta   90.772397
_cell_angle_gamma 120.00558
loop_
_atom_site_label
_atom_site_type_symbol
_atom_site_fract_x
_atom_site_fract_y
_atom_site_fract_z
_atom_type_partial_charge
Zn0 Zn 0.05979 0.57199 0.16373 0.0
Zn1 Zn 0.94873 0.47675 0.15952 0.0
C2 C 0.10567 0.52752 0.16945 0.0
O3 O 0.0694 0.494 0.16988 0.0
C4 C 0.87835 0.48333 0.15535 0.0
O5 O 0.87302 0.45514 0.14048 0.0
O6 O 0.08652 0.63359 0.16238 0.0
O7 O 0.03201 0.5456 0.13571 0.0
O8 O 0.96887 0.49121 0.13127 0.0
C9 C 0.10576 0.64954 0.14641 0.0
O10 O 0.10535 0.625 0.13081 0.0
O11 O 0.10782 0.56214 0.16731 0.0
C12 C 0.90037 0.39603 0.17368 0.0
O13 O 0.9151 0.41715 0.19177 0.0
O14 O 0.91141 0.41493 0.15731 0.0
O15 O 0.99216 0.4896 0.18195 0.0
O16 O 0.02658 0.55715 0.18929 0.0
O17 O 0.91164 0.50048 0.16665 0.0
C18 C 0.00178 0.5186 0.12402 0.0
C19 C 0.00414 0.52086 0.19491 0.0
Zn20 Zn 0.53544 0.06376 0.50134 0.0
Zn21 Zn 0.52172 0.95926 0.49973 0.0
C22 C 0.61991 0.12094 0.50944 0.0
O23 O 0.60398 0.12673 0.5264 0.0
C24 C 0.45202 0.88384 0.48218 0.0
O25 O 0.48004 0.88618 0.46954 0.0
O26 O 0.5216 0.10893 0.50053 0.0
O27 O 0.49952 0.02152 0.4785 0.0
O28 O 0.53542 0.99017 0.47386 0.0
C29 C 0.53162 0.12998 0.4848 0.0
O30 O 0.54956 0.12069 0.46979 0.0
O31 O 0.59623 0.09242 0.49572 0.0
C32 C 0.58189 0.93514 0.51231 0.0
O33 O 0.59143 0.96204 0.52848 0.0
O34 O 0.55445 0.93017 0.49893 0.0
O35 O 0.52887 0.9872 0.52857 0.0
O36 O 0.52772 0.04612 0.53009 0.0
O37 O 0.46212 0.9129 0.4964 0.0
C38 C 0.51538 0.0059 0.46649 0.0
C39 C 0.52874 0.01727 0.53892 0.0
Zn40 Zn 0.57674 0.53942 0.83499 0.0
Zn41 Zn 0.48901 0.54514 0.83124 0.0
C42 C 0.56436 0.46102 0.84558 0.0
O43 O 0.59082 0.48603 0.86055 0.0
C44 C 0.52208 0.62915 0.81869 0.0
O45 O 0.51111 0.60977 0.80005 0.0
O46 O 0.63768 0.56186 0.83561 0.0
O47 O 0.56798 0.56017 0.80875 0.0
O48 O 0.50065 0.5227 0.8047 0.0
C49 C 0.65014 0.54563 0.82175 0.0
O50 O 0.62315 0.51536 0.8087 0.0
O51 O 0.5512 0.47631 0.83247 0.0
C52 C 0.39937 0.49773 0.83385 0.0
O53 O 0.40566 0.47322 0.84512 0.0
O54 O 0.42984 0.52884 0.82696 0.0
O55 O 0.49533 0.52477 0.85843 0.0
O56 O 0.56331 0.55745 0.86233 0.0
O57 O 0.51794 0.60836 0.8342 0.0
C58 C 0.53566 0.54026 0.79702 0.0
C59 C 0.52812 0.54048 0.87001 0.0
C60 C 0.34549 0.93754 0.1996 0.0
C61 C 0.34507 0.92762 0.17826 0.0
C62 C 0.38225 0.94684 0.16815 0.0
C63 C 0.41931 0.97401 0.17936 0.0
H64 H 0.5441 0.07014 0.17518 0.0
H65 H 0.60957 0.11618 0.16032 0.0
H66 H 0.67301 0.13509 0.2197 0.0
H67 H 0.6085 0.08894 0.23435 0.0
H68 H 0.55856 0.07575 0.27452 0.0
H69 H 0.55977 0.07163 0.31189 0.0
H70 H 0.43438 0.96981 0.30665 0.0
H71 H 0.43296 0.97363 0.26918 0.0
H72 H 0.38158 0.97025 0.22734 0.0
H73 H 0.31752 0.92289 0.20794 0.0
H74 H 0.38281 0.94002 0.15168 0.0
H75 H 0.44759 0.98733 0.17124 0.0
N76 N 0.4953 0.02942 0.20413 0.0
N77 N 0.53099 0.04934 0.23664 0.0
N78 N 0.45958 0.00564 0.23432 0.0
C79 C 0.53136 0.05082 0.21574 0.0
C80 C 0.49533 0.02684 0.24605 0.0
C81 C 0.45922 0.00681 0.21339 0.0
C82 C 0.57091 0.07611 0.20602 0.0
C83 C 0.57211 0.08373 0.18497 0.0
C84 C 0.60957 0.11018 0.17647 0.0
C85 C 0.6465 0.12925 0.18882 0.0
C86 C 0.64531 0.12041 0.20963 0.0
C87 C 0.60807 0.09421 0.21811 0.0
C88 C 0.49566 0.02497 0.26882 0.0
C89 C 0.53117 0.05247 0.28128 0.0
C90 C 0.53184 0.05032 0.30271 0.0
C91 C 0.49718 0.02041 0.31213 0.0
C92 C 0.46165 0.99295 0.29974 0.0
C93 C 0.4608 0.99533 0.2783 0.0
C94 C 0.41989 0.98214 0.20092 0.0
C95 C 0.38241 0.96441 0.21079 0.0
C96 C 0.52318 0.3985 0.52816 0.0
C97 C 0.5386 0.39811 0.50857 0.0
C98 C 0.56327 0.436 0.49995 0.0
C99 C 0.57327 0.47359 0.51105 0.0
H100 H 0.59346 0.5991 0.50682 0.0
H101 H 0.60841 0.6645 0.4933 0.0
H102 H 0.6551 0.72766 0.55424 0.0
H103 H 0.64101 0.66302 0.56761 0.0
H104 H 0.58968 0.60955 0.60524 0.0
H105 H 0.58049 0.60642 0.64241 0.0
H106 H 0.5526 0.47909 0.63733 0.0
H107 H 0.56193 0.48201 0.60018 0.0
H108 H 0.52168 0.43483 0.55455 0.0
H109 H 0.50461 0.36994 0.53539 0.0
H110 H 0.57543 0.43658 0.48483 0.0
H111 H 0.59314 0.50236 0.50427 0.0
N112 N 0.58837 0.54992 0.53529 0.0
N113 N 0.59695 0.58408 0.56831 0.0
N114 N 0.56929 0.51227 0.56476 0.0
C115 C 0.60067 0.58563 0.5475 0.0
C116 C 0.58137 0.54756 0.57707 0.0
C117 C 0.57265 0.51308 0.54392 0.0
C118 C 0.61537 0.62568 0.53838 0.0
C119 C 0.60774 0.62712 0.51721 0.0
C120 C 0.61614 0.66453 0.50948 0.0
C121 C 0.63261 0.70118 0.52273 0.0
C122 C 0.64278 0.70013 0.54355 0.0
C123 C 0.63423 0.66285 0.55128 0.0
C124 C 0.57655 0.54603 0.5997 0.0
C125 C 0.5817 0.58088 0.61202 0.0
C126 C 0.57617 0.57906 0.63329 0.0
C127 C 0.56575 0.54249 0.64271 0.0
C128 C 0.56094 0.50777 0.63047 0.0
C129 C 0.56611 0.50944 0.60918 0.0
C130 C 0.55921 0.47384 0.53105 0.0
C131 C 0.53341 0.43585 0.53927 0.0
C132 C 0.93663 0.59914 0.86608 0.0
C133 C 0.93282 0.59831 0.8444 0.0
C134 C 0.95842 0.58898 0.83226 0.0
C135 C 0.98576 0.57886 0.84161 0.0
H136 H 0.09241 0.55974 0.83487 0.0
H137 H 0.14069 0.54244 0.81816 0.0
H138 H 0.12865 0.4644 0.86709 0.0
H139 H 0.08076 0.4813 0.88359 0.0
H140 H 0.08887 0.54543 0.93137 0.0
H141 H 0.0847 0.54124 0.96873 0.0
H142 H 0.96362 0.52816 0.96461 0.0
H143 H 0.96901 0.53474 0.92757 0.0
H144 H 0.96488 0.58945 0.89208 0.0
H145 H 0.91699 0.60522 0.87602 0.0
H146 H 0.95666 0.58852 0.81553 0.0
H147 H 0.00416 0.57059 0.83184 0.0
N148 N 0.03669 0.55127 0.86248 0.0
N149 N 0.05563 0.5328 0.89305 0.0
N150 N 0.0111 0.55941 0.89422 0.0
C151 C 0.05786 0.53587 0.87225 0.0
C152 C 0.0323 0.54452 0.9041 0.0
C153 C 0.01316 0.56313 0.87349 0.0
C154 C 0.08328 0.52234 0.86068 0.0
C155 C 0.09961 0.53835 0.84182 0.0
C156 C 0.12725 0.52855 0.8323 0.0
C157 C 0.1384 0.50209 0.84134 0.0
C158 C 0.1203 0.48446 0.8596 0.0
C159 C 0.0932 0.49458 0.86919 0.0
C160 C 0.02937 0.54063 0.92661 0.0
C161 C 0.06142 0.54167 0.93851 0.0
C162 C 0.05887 0.53901 0.95992 0.0
C163 C 0.02384 0.53445 0.9698 0.0
C164 C 0.99151 0.53267 0.9577 0.0
C165 C 0.99444 0.53615 0.9364 0.0
C166 C 0.98804 0.57801 0.86326 0.0
C167 C 0.96395 0.58943 0.87535 0.0
C168 C 0.17342 0.59037 0.45136 0.0
C169 C 0.17582 0.61898 0.4673 0.0
C170 C 0.14063 0.60913 0.47853 0.0
C171 C 0.10293 0.57295 0.47268 0.0
H172 H 0.97845 0.44725 0.48633 0.0
H173 H 0.92127 0.38797 0.5014 0.0
H174 H 0.87664 0.32629 0.44009 0.0
H175 H 0.9328 0.38434 0.42519 0.0
H176 H 0.94841 0.45385 0.38947 0.0
H177 H 0.94139 0.4571 0.35209 0.0
H178 H 0.07351 0.53065 0.35003 0.0
H179 H 0.08074 0.52788 0.38726 0.0
H180 H 0.13477 0.53462 0.4323 0.0
H181 H 0.20016 0.59653 0.44275 0.0
H182 H 0.14163 0.63058 0.49092 0.0
H183 H 0.07553 0.56741 0.4805 0.0
N184 N 0.02924 0.48519 0.45547 0.0
N185 N 0.9893 0.45872 0.424 0.0
N186 N 0.05518 0.51653 0.42457 0.0
C187 C 0.99366 0.45632 0.44468 0.0
C188 C 0.01978 0.48874 0.41388 0.0
C189 C 0.06018 0.51531 0.44524 0.0
C190 C 0.96023 0.4208 0.45454 0.0
C191 C 0.95651 0.42089 0.47614 0.0
C192 C 0.92373 0.38706 0.48475 0.0
C193 C 0.8946 0.35231 0.47193 0.0
C194 C 0.89883 0.3522 0.45044 0.0
C195 C 0.93099 0.38589 0.44189 0.0
C196 C 0.01513 0.49059 0.39132 0.0
C197 C 0.97594 0.4707 0.38104 0.0
C198 C 0.97187 0.47272 0.3597 0.0
C199 C 0.00692 0.49401 0.34826 0.0
C200 C 0.04603 0.51377 0.35851 0.0
C201 C 0.0501 0.51233 0.37984 0.0
C202 C 0.10017 0.5464 0.45555 0.0
C203 C 0.13606 0.55471 0.44551 0.0
C204 C 0.49633 0.14538 0.80192 0.0
C205 C 0.52289 0.17169 0.81854 0.0
C206 C 0.54736 0.15915 0.82915 0.0
C207 C 0.54734 0.12261 0.82224 0.0
H208 H 0.51937 0.97667 0.83084 0.0
H209 H 0.52548 0.91904 0.84327 0.0
H210 H 0.59386 0.92052 0.78984 0.0
H211 H 0.58895 0.97787 0.77809 0.0
H212 H 0.54024 0.97767 0.73542 0.0
H213 H 0.5381 0.97349 0.69774 0.0
H214 H 0.52077 0.0795 0.69863 0.0
H215 H 0.52187 0.0832 0.7363 0.0
H216 H 0.47686 0.09087 0.78155 0.0
H217 H 0.47625 0.15338 0.79375 0.0
H218 H 0.56816 0.1787 0.84204 0.0
H219 H 0.56826 0.11499 0.82985 0.0
N220 N 0.53794 0.03984 0.80433 0.0
N221 N 0.54195 0.00864 0.77232 0.0
N222 N 0.52652 0.06179 0.77286 0.0
C223 C 0.54439 0.01117 0.79336 0.0
C224 C 0.53306 0.03368 0.76194 0.0
C225 C 0.52889 0.0653 0.79392 0.0
C226 C 0.55341 0.9817 0.80341 0.0
C227 C 0.53661 0.96525 0.82214 0.0
C228 C 0.53974 0.93193 0.8291 0.0
C229 C 0.56004 0.91476 0.81755 0.0
C230 C 0.57854 0.93296 0.79942 0.0
C231 C 0.57536 0.96584 0.79253 0.0
C232 C 0.53124 0.0308 0.73896 0.0
C233 C 0.53587 1.00008 0.72763 0.0
C234 C 0.53489 0.9978 0.70599 0.0
C235 C 0.52937 0.02622 0.69517 0.0
C236 C 0.52453 0.05679 0.70648 0.0
C237 C 0.52539 0.05902 0.72812 0.0
C238 C 0.52295 0.09819 0.8046 0.0
C239 C 0.49647 0.10931 0.79502 0.0
C240 C 0.65177 0.5666 0.13673 0.0
C241 C 0.64759 0.54424 0.15404 0.0
C242 C 0.60921 0.52464 0.16315 0.0
C243 C 0.57532 0.52569 0.15447 0.0
H244 H 0.46269 0.54472 0.1634 0.0
H245 H 0.3997 0.53814 0.17771 0.0
H246 H 0.33601 0.48809 0.11766 0.0
H247 H 0.39784 0.49392 0.10361 0.0
H248 H 0.44702 0.51694 0.064 0.0
H249 H 0.44888 0.51628 0.02643 0.0
H250 H 0.57886 0.55771 0.03093 0.0
H251 H 0.57693 0.55743 0.06845 0.0
H252 H 0.62211 0.58344 0.11413 0.0
H253 H 0.68062 0.58167 0.12914 0.0
H254 H 0.60508 0.50743 0.1766 0.0
H255 H 0.54577 0.50887 0.16126 0.0
N256 N 0.5075 0.53346 0.13418 0.0
N257 N 0.47586 0.5289 0.10176 0.0
N258 N 0.54368 0.54268 0.10378 0.0
C259 C 0.47397 0.5275 0.12266 0.0
C260 C 0.5105 0.53649 0.09219 0.0
C261 C 0.54259 0.54116 0.12468 0.0
C262 C 0.43548 0.52013 0.13233 0.0
C263 C 0.43501 0.53173 0.15339 0.0
C264 C 0.39903 0.52823 0.16154 0.0
C265 C 0.36276 0.51256 0.14883 0.0
C266 C 0.36309 0.49972 0.128 0.0
C267 C 0.39885 0.50347 0.11987 0.0
C268 C 0.51181 0.53715 0.06932 0.0
C269 C 0.47606 0.52599 0.05702 0.0
C270 C 0.47714 0.52579 0.03545 0.0
C271 C 0.514 0.53687 0.02565 0.0
C272 C 0.5498 0.54835 0.03795 0.0
C273 C 0.54872 0.54842 0.05951 0.0
C274 C 0.57912 0.54586 0.13635 0.0
C275 C 0.61801 0.56728 0.12798 0.0
H276 H 0.1131 0.45947 0.17526 0.0
H277 H 0.18466 0.58956 0.1652 0.0
H278 H 0.17536 0.45441 0.17432 0.0
H279 H 0.24652 0.58427 0.16369 0.0
H280 H 0.35792 0.57199 0.17384 0.0
H281 H 0.2961 0.57452 0.18245 0.0
H282 H 0.22092 0.45469 0.14883 0.0
H283 H 0.28243 0.45141 0.14108 0.0
C284 C 0.14211 0.48702 0.17291 0.0
C285 C 0.14379 0.52485 0.17017 0.0
C286 C 0.17781 0.48409 0.17229 0.0
C287 C 0.21606 0.51887 0.16884 0.0
C288 C 0.21782 0.55695 0.16668 0.0
C289 C 0.18219 0.55991 0.16738 0.0
C290 C 0.32813 0.54573 0.16875 0.0
C291 C 0.32518 0.51168 0.15659 0.0
C292 C 0.29268 0.54741 0.17345 0.0
C293 C 0.25344 0.51507 0.16612 0.0
C294 C 0.25048 0.48009 0.15487 0.0
C295 C 0.28585 0.47839 0.15022 0.0
H296 H 0.67865 0.18086 0.53675 0.0
H297 H 0.65955 0.12896 0.47326 0.0
H298 H 0.74785 0.23459 0.52971 0.0
H299 H 0.7285 0.18337 0.46605 0.0
H300 H 0.86471 0.26967 0.46182 0.0
H301 H 0.80113 0.21132 0.47228 0.0
H302 H 0.77915 0.29592 0.51129 0.0
H303 H 0.84312 0.35417 0.50099 0.0
C304 C 0.6893 0.18074 0.5213 0.0
C305 C 0.66344 0.15066 0.50554 0.0
C306 C 0.72895 0.21178 0.51723 0.0
C307 C 0.74377 0.21368 0.49727 0.0
C308 C 0.71837 0.1827 0.48168 0.0
C309 C 0.67871 0.15151 0.48577 0.0
C310 C 0.84642 0.27573 0.47276 0.0
C311 C 0.8588 0.31659 0.48047 0.0
C312 C 0.80987 0.24229 0.4787 0.0
C313 C 0.78464 0.24882 0.49246 0.0
C314 C 0.79794 0.28958 0.50083 0.0
C315 C 0.83465 0.32305 0.49495 0.0
H316 H 0.51484 0.67131 0.85317 0.0
H317 H 0.55533 0.68714 0.79061 0.0
H318 H 0.52726 0.74252 0.85632 0.0
H319 H 0.56855 0.75835 0.79395 0.0
H320 H 0.62149 0.89547 0.81364 0.0
H321 H 0.61604 0.8281 0.81612 0.0
H322 H 0.49291 0.77902 0.83699 0.0
H323 H 0.4974 0.84596 0.83367 0.0
C324 C 0.52712 0.69021 0.84025 0.0
C325 C 0.53414 0.67361 0.82163 0.0
C326 C 0.53394 0.73084 0.84202 0.0
C327 C 0.54888 0.75597 0.82539 0.0
C328 C 0.55733 0.73983 0.80709 0.0
C329 C 0.54966 0.69902 0.80515 0.0
C330 C 0.59318 0.87045 0.81879 0.0
C331 C 0.55959 0.8762 0.82305 0.0
C332 C 0.5902 0.83187 0.82029 0.0
C333 C 0.55391 0.7982 0.82652 0.0
C334 C 0.52135 0.8045 0.83221 0.0
C335 C 0.52405 0.84301 0.8304 0.0
H336 H 0.80009 0.44079 0.13863 0.0
H337 H 0.88126 0.54805 0.17994 0.0
H338 H 0.74533 0.45663 0.14297 0.0
H339 H 0.82566 0.56399 0.18437 0.0
H340 H 0.73035 0.6013 0.15819 0.0
H341 H 0.78682 0.58714 0.16206 0.0
H342 H 0.69914 0.45852 0.16905 0.0
H343 H 0.64273 0.47234 0.16458 0.0
C344 C 0.80625 0.46774 0.14875 0.0
C345 C 0.84519 0.49327 0.15886 0.0
C346 C 0.77459 0.47658 0.15141 0.0
C347 C 0.78096 0.51138 0.16416 0.0
C348 C 0.81984 0.53697 0.17442 0.0
C349 C 0.85161 0.52781 0.17192 0.0
C350 C 0.72317 0.57012 0.16085 0.0
C351 C 0.68195 0.53785 0.16079 0.0
C352 C 0.75557 0.56209 0.16324 0.0
C353 C 0.74744 0.52158 0.16555 0.0
C354 C 0.70638 0.48996 0.16697 0.0
C355 C 0.67402 0.49799 0.16464 0.0
H356 H 0.42202 0.81737 0.45354 0.0
H357 H 0.38727 0.86582 0.5071 0.0
H358 H 0.35461 0.7552 0.45107 0.0
H359 H 0.31898 0.80341 0.50435 0.0
H360 H 0.21805 0.66223 0.50405 0.0
H361 H 0.28385 0.72792 0.50829 0.0
H362 H 0.28427 0.73454 0.44191 0.0
H363 H 0.21948 0.66938 0.43776 0.0
C364 C 0.39988 0.81494 0.46472 0.0
C365 C 0.4101 0.84674 0.48046 0.0
C366 C 0.36104 0.77927 0.46324 0.0
C367 C 0.33118 0.77434 0.47743 0.0
C368 C 0.34134 0.80607 0.49326 0.0
C369 C 0.38036 0.84195 0.49473 0.0
C370 C 0.23219 0.67802 0.49045 0.0
C371 C 0.21404 0.6602 0.47056 0.0
C372 C 0.26978 0.71564 0.49285 0.0
C373 C 0.28973 0.73617 0.4754 0.0
C374 C 0.27044 0.71908 0.45565 0.0
C375 C 0.23323 0.68167 0.45327 0.0
H376 H 0.59365 0.42215 0.86903 0.0
H377 H 0.51156 0.3998 0.81625 0.0
H378 H 0.58176 0.35198 0.86329 0.0
H379 H 0.49853 0.32887 0.81086 0.0
H380 H 0.52662 0.22613 0.79137 0.0
H381 H 0.53322 0.29377 0.79876 0.0
H382 H 0.53489 0.27962 0.86442 0.0
H383 H 0.52885 0.21168 0.85691 0.0
C384 C 0.57255 0.40207 0.85635 0.0
C385 C 0.55376 0.41684 0.84302 0.0
C386 C 0.56551 0.36157 0.85313 0.0
C387 C 0.53934 0.33454 0.83653 0.0
C388 C 0.51951 0.34894 0.82358 0.0
C389 C 0.52671 0.38958 0.82675 0.0
C390 C 0.52788 0.23714 0.80741 0.0
C391 C 0.52684 0.21318 0.82354 0.0
C392 C 0.53156 0.27605 0.81166 0.0
C393 C 0.53424 0.29231 0.8322 0.0
C394 C 0.53332 0.2684 0.8484 0.0
C395 C 0.52982 0.22939 0.84412 0.0
H396 H 0.57533 0.88324 0.47899 0.0
H397 H 0.62805 0.92439 0.54167 0.0
H398 H 0.59634 0.8312 0.4775 0.0
H399 H 0.64807 0.87155 0.54039 0.0
H400 H 0.69364 0.78223 0.53132 0.0
H401 H 0.68956 0.84414 0.52564 0.0
H402 H 0.57057 0.76718 0.49356 0.0
H403 H 0.57475 0.7058 0.49913 0.0
C404 C 0.59176 0.88143 0.4924 0.0
C405 C 0.59951 0.90753 0.51057 0.0
C406 C 0.60369 0.85152 0.49155 0.0
C407 C 0.62342 0.84684 0.5089 0.0
C408 C 0.63327 0.87454 0.52667 0.0
C409 C 0.62154 0.90468 0.52747 0.0
C410 C 0.66696 0.77873 0.52275 0.0
C411 C 0.63438 0.7391 0.51581 0.0
C412 C 0.66458 0.81413 0.51955 0.0
C413 C 0.62957 0.81059 0.50934 0.0
C414 C 0.59825 0.77117 0.50125 0.0
C415 C 0.60065 0.73585 0.50443 0.0
H416 H 0.7155 0.6233 0.83119 0.0
H417 H 0.68354 0.49852 0.80984 0.0
H418 H 0.78837 0.64502 0.83045 0.0
H419 H 0.75574 0.51879 0.81067 0.0
H420 H 0.88461 0.55672 0.80902 0.0
H421 H 0.82008 0.55187 0.79845 0.0
H422 H 0.83752 0.64128 0.84929 0.0
H423 H 0.90391 0.64954 0.85822 0.0
C424 C 0.72424 0.60052 0.82648 0.0
C425 C 0.69413 0.55923 0.82075 0.0
C426 C 0.76599 0.61282 0.82612 0.0
C427 C 0.77845 0.58373 0.82068 0.0
C428 C 0.74789 0.54253 0.8145 0.0
C429 C 0.70628 0.53062 0.81427 0.0
C430 C 0.87552 0.57663 0.81741 0.0
C431 C 0.89897 0.60258 0.83491 0.0
C432 C 0.83791 0.57321 0.8116 0.0
C433 C 0.82239 0.59482 0.82348 0.0
C434 C 0.84787 0.62379 0.83971 0.0
C435 C 0.88593 0.62807 0.84512 0.0
H436 H 0.15526 0.69322 0.11601 0.0
H437 H 0.11909 0.70853 0.17757 0.0
H438 H 0.20901 0.76608 0.11888 0.0
H439 H 0.17318 0.7809 0.18058 0.0
H440 H 0.26644 0.91366 0.18112 0.0
H441 H 0.20276 0.85039 0.16913 0.0
H442 H 0.27373 0.80157 0.13945 0.0
H443 H 0.33698 0.86451 0.15133 0.0
C444 C 0.15832 0.71225 0.13002 0.0
C445 C 0.13336 0.69492 0.14671 0.0
C446 C 0.18921 0.75396 0.13168 0.0
C447 C 0.19571 0.77917 0.15004 0.0
C448 C 0.16883 0.7625 0.16614 0.0
C449 C 0.13795 0.72084 0.16448 0.0
C450 C 0.2683 0.88966 0.17171 0.0
C451 C 0.30673 0.89384 0.1674 0.0
C452 C 0.23188 0.85346 0.16486 0.0
C453 C 0.23319 0.82074 0.15357 0.0
C454 C 0.27154 0.82631 0.14792 0.0
C455 C 0.30791 0.86248 0.15475 0.0
H456 H 0.55903 0.18742 0.45611 0.0
H457 H 0.49199 0.15498 0.51204 0.0
H458 H 0.5553 0.25091 0.45686 0.0
H459 H 0.48864 0.21842 0.51286 0.0
H460 H 0.46724 0.32309 0.50466 0.0
H461 H 0.46016 0.25555 0.49481 0.0
H462 H 0.58813 0.31579 0.48013 0.0
H463 H 0.59523 0.38318 0.49003 0.0
C464 C 0.54311 0.19358 0.46843 0.0
C465 C 0.5261 0.16637 0.48413 0.0
C466 C 0.5411 0.22998 0.46887 0.0
C467 C 0.52173 0.23965 0.48491 0.0
C468 C 0.5033 0.21157 0.50013 0.0
C469 C 0.50552 0.17537 0.49976 0.0
C470 C 0.49365 0.32188 0.49899 0.0
C471 C 0.53194 0.35837 0.49839 0.0
C472 C 0.48961 0.28326 0.49339 0.0
C473 C 0.52374 0.28038 0.48701 0.0
C474 C 0.56118 0.31701 0.48486 0.0
C475 C 0.56525 0.35567 0.4905 0.0
H476 H 0.32968 0.44741 0.85346 0.0
H477 H 0.37477 0.53365 0.80598 0.0
H478 H 0.26323 0.44379 0.85032 0.0
H479 H 0.308 0.52902 0.80235 0.0
H480 H 0.21271 0.56151 0.82948 0.0
H481 H 0.27305 0.55512 0.82352 0.0
H482 H 0.20115 0.4233 0.82968 0.0
H483 H 0.14069 0.43 0.83599 0.0
C484 C 0.32513 0.46492 0.84207 0.0
C485 C 0.35761 0.4913 0.83022 0.0
C486 C 0.28693 0.46264 0.84014 0.0
C487 C 0.28039 0.48641 0.82618 0.0
C488 C 0.31226 0.51095 0.81352 0.0
C489 C 0.35049 0.5135 0.81557 0.0
C490 C 0.20947 0.53097 0.82894 0.0
C491 C 0.17212 0.49632 0.83337 0.0
C492 C 0.24411 0.52725 0.82553 0.0
C493 C 0.24207 0.48874 0.82637 0.0
C494 C 0.20393 0.45354 0.82937 0.0
C495 C 0.1693 0.45732 0.83287 0.0
H496 H 0.84964 0.34852 0.14021 0.0
H497 H 0.87756 0.34408 0.20466 0.0
H498 H 0.79067 0.27821 0.13971 0.0
H499 H 0.81875 0.27408 0.20412 0.0
H500 H 0.72362 0.14034 0.19563 0.0
H501 H 0.78903 0.20088 0.18867 0.0
H502 H 0.72357 0.25089 0.1572 0.0
H503 H 0.65826 0.19087 0.16441 0.0
C504 C 0.84362 0.3323 0.15416 0.0
C505 C 0.86799 0.35191 0.17255 0.0
C506 C 0.80981 0.29216 0.15386 0.0
C507 C 0.80011 0.27076 0.17187 0.0
C508 C 0.82574 0.28963 0.18994 0.0
C509 C 0.85924 0.32985 0.1903 0.0
C510 C 0.72323 0.16402 0.18699 0.0
C511 C 0.68575 0.16114 0.18087 0.0
C512 C 0.76064 0.19858 0.18299 0.0
C513 C 0.76132 0.23076 0.17263 0.0
C514 C 0.72398 0.2264 0.16509 0.0
C515 C 0.68654 0.19194 0.1692 0.0
H516 H 0.93919 0.49012 0.09448 0.0
H517 H 0.0716 0.54923 0.10256 0.0
H518 H 0.94486 0.49376 0.05695 0.0
H519 H 0.07698 0.55202 0.065 0.0
H520 H 0.05299 0.49706 0.99485 0.0
H521 H 0.04848 0.49331 0.0323 0.0
H522 H 0.982 0.55979 0.03377 0.0
H523 H 0.98835 0.5659 0.99659 0.0
C524 C 0.96941 0.50357 0.08822 0.0
C525 C 0.00498 0.51952 0.10139 0.0
C526 C 0.97261 0.50579 0.06683 0.0
C527 C 0.01133 0.52316 0.05826 0.0
C528 C 0.04683 0.53836 0.07134 0.0
C529 C 0.04372 0.53695 0.09276 0.0
C530 C 0.03802 0.51156 0.00313 0.0
C531 C 0.02099 0.53175 0.99259 0.0
C532 C 0.03524 0.5091 0.02453 0.0
C533 C 0.01471 0.52607 0.03572 0.0
C534 C 0.99753 0.54606 0.02533 0.0
C535 C 1.00099 0.54926 0.00402 0.0
H536 H 0.53586 0.96645 0.43592 0.0
H537 H 0.48574 0.04782 0.4458 0.0
H538 H 0.53033 0.96945 0.39852 0.0
H539 H 0.48026 0.05067 0.40844 0.0
H540 H 0.5257 0.08382 0.34257 0.0
H541 H 0.52935 0.07958 0.37998 0.0
H542 H 0.47468 0.94659 0.37024 0.0
H543 H 0.47151 0.95089 0.33278 0.0
C544 C 0.52365 0.98493 0.43013 0.0
C545 C 0.5114 0.00703 0.44383 0.0
C546 C 0.52027 0.98643 0.40873 0.0
C547 C 0.50493 0.01034 0.40062 0.0
C548 C 0.49257 0.03233 0.4143 0.0
C549 C 0.49556 0.03052 0.43567 0.0
C550 C 0.51459 0.05373 0.34844 0.0
C551 C 0.49836 0.01768 0.33481 0.0
C552 C 0.51636 0.05127 0.36982 0.0
C553 C 0.50229 0.01276 0.37797 0.0
C554 C 0.48602 0.9767 0.36435 0.0
C555 C 0.48387 0.97912 0.34297 0.0
H556 H 0.47413 0.51564 0.76697 0.0
H557 H 0.6048 0.56232 0.77577 0.0
H558 H 0.48038 0.51474 0.72942 0.0
H559 H 0.6109 0.56152 0.73834 0.0
H560 H 0.59627 0.51123 0.67035 0.0
H561 H 0.58752 0.50886 0.70766 0.0
H562 H 0.51407 0.5677 0.70326 0.0
H563 H 0.52232 0.56953 0.66588 0.0
C564 C 0.50412 0.5256 0.7609 0.0
C565 C 0.53898 0.5391 0.77431 0.0
C566 C 0.5077 0.52529 0.73944 0.0
C567 C 0.54611 0.53803 0.73102 0.0
C568 C 0.58085 0.55115 0.74442 0.0
C569 C 0.57737 0.55185 0.76585 0.0
C570 C 0.57799 0.52333 0.67735 0.0
C571 C 0.56003 0.54063 0.66526 0.0
C572 C 0.57326 0.52227 0.69869 0.0
C573 C 0.55018 0.53816 0.70831 0.0
C574 C 0.53175 0.55496 0.69619 0.0
C575 C 0.5368 0.55636 0.67487 0.0
H576 H 0.53473 0.96358 0.56369 0.0
H577 H 0.52361 0.07353 0.56609 0.0
H578 H 0.53448 0.96518 0.60141 0.0
H579 H 0.52385 0.07524 0.60375 0.0
H580 H 0.4788 0.03666 0.66846 0.0
H581 H 0.47883 0.03433 0.63073 0.0
H582 H 0.57872 0.00845 0.63208 0.0
H583 H 0.57903 0.01118 0.66983 0.0
C584 C 0.53231 0.98812 0.57223 0.0
C585 C 0.52907 0.01836 0.56183 0.0
C586 C 0.53239 0.98914 0.59385 0.0
C587 C 0.52905 0.02027 0.60552 0.0
C588 C 0.52592 0.05054 0.59515 0.0
C589 C 0.52602 0.04966 0.57356 0.0
C590 C 0.50102 0.03084 0.66073 0.0
C591 C 0.52895 0.02417 0.67217 0.0
C592 C 0.501 0.02946 0.63912 0.0
C593 C 0.52881 0.02126 0.62846 0.0
C594 C 0.55656 0.0143 0.63986 0.0
C595 C 0.55668 0.01582 0.66148 0.0
H596 H 0.59068 0.56316 0.89911 0.0
H597 H 0.45938 0.51462 0.89247 0.0
H598 H 0.58645 0.5616 0.93658 0.0
H599 H 0.45523 0.51265 0.93001 0.0
H600 H 0.47529 0.56231 -0.00096 0.0
H601 H 0.47778 0.562 0.96139 0.0
H602 H 0.55797 0.51028 0.96266 0.0
H603 H 0.55516 0.51011 0.00025 0.0
C604 C 0.56089 0.55209 0.90562 0.0
C605 C 0.52538 0.5391 0.89277 0.0
C606 C 0.55846 0.55095 0.92709 0.0
C607 C 0.52051 0.53697 0.93623 0.0
C608 C 0.48498 0.52398 0.92342 0.0
C609 C 0.48735 0.5249 0.90191 0.0
C610 C 0.49308 0.55043 0.99128 0.0
C611 C 0.51513 0.53635 0.00268 0.0
C612 C 0.49452 0.55028 0.96971 0.0
C613 C 0.51816 0.53622 0.95908 0.0
C614 C 0.53999 0.52191 0.97045 0.0
C615 C 0.53843 0.52189 0.99199 0.0
H616 H 0.99105 0.4527 0.21407 0.0
H617 H 0.0089 0.57588 0.22623 0.0
H618 H 0.98824 0.44429 0.25118 0.0
H619 H 0.00601 0.56728 0.26346 0.0
H620 H 0.95814 0.51572 0.32712 0.0
H621 H 0.9541 0.52075 0.28965 0.0
H622 H 0.043 0.48065 0.28122 0.0
H623 H 0.04715 0.47582 0.31855 0.0
C624 C 0.99387 0.47778 0.22464 0.0
C625 C 1.00023 0.51499 0.21727 0.0
C626 C 0.99252 0.47302 0.24587 0.0
C627 C 0.997 0.50517 0.26011 0.0
C628 C 0.00221 0.54194 0.25275 0.0
C629 C 0.00412 0.54694 0.2315 0.0
C630 C 0.97651 0.50772 0.31718 0.0
C631 C 0.00302 0.49548 0.32563 0.0
C632 C 0.9744 0.51083 0.29584 0.0
C633 C 0.99822 0.50104 0.28263 0.0
C634 C 0.0241 0.48805 0.29107 0.0
C635 C 0.02668 0.48557 0.31239 0.0
loop_
_geom_bond_atom_site_label_1
_geom_bond_atom_site_label_2
_geom_bond_distance
_geom_bond_site_symmetry_2
_ccdc_geom_bond_type
Zn0 O6 1.969 . S
Zn0 O7 1.965 . S
Zn0 O11 2.024 . S
Zn0 O16 1.969 . S
Zn1 O8 1.969 . S
Zn1 O14 1.969 . S
Zn1 O15 1.965 . S
Zn1 O17 2.024 . S
C2 O3 1.229 . S
C2 O11 1.058 . S
O3 C2 1.229 . S
C4 O5 1.229 . S
C4 O17 1.058 . S
O5 C4 1.229 . S
O6 Zn0 1.969 . S
O6 C9 1.267 . S
O7 Zn0 1.965 . S
O7 C18 1.260 1_455 S
O8 Zn1 1.969 . S
O8 C18 1.258 . S
C9 O6 1.267 . S
C9 O10 1.228 . S
O10 C9 1.228 . S
O11 Zn0 2.024 . S
O11 C2 1.058 . S
C12 O13 1.228 . S
C12 O14 1.267 . S
O13 C12 1.228 . S
O14 Zn1 1.969 . S
O14 C12 1.267 . S
O15 Zn1 1.965 . S
O15 C19 1.260 1_655 S
O16 Zn0 1.969 . S
O16 C19 1.258 . S
O17 Zn1 2.024 . S
O17 C4 1.058 . S
C18 O7 1.260 1_655 S
C18 O8 1.258 . S
C19 O15 1.260 1_455 S
C19 O16 1.258 . S
Zn20 O26 1.969 . S
Zn20 O27 1.965 . S
Zn20 O31 2.024 . S
Zn20 O36 1.969 . S
Zn21 O28 1.969 . S
Zn21 O34 1.969 . S
Zn21 O35 1.965 . S
Zn21 O37 2.024 . S
C22 O23 1.229 . S
C22 O31 1.058 . S
O23 C22 1.229 . S
C24 O25 1.229 . S
C24 O37 1.058 . S
O25 C24 1.229 . S
O26 Zn20 1.969 . S
O26 C29 1.267 . S
O27 Zn20 1.965 . S
O27 C38 1.260 . S
O28 Zn21 1.969 . S
O28 C38 1.258 1_565 S
C29 O26 1.267 . S
C29 O30 1.228 . S
O30 C29 1.228 . S
O31 Zn20 2.024 . S
O31 C22 1.058 . S
C32 O33 1.228 . S
C32 O34 1.267 . S
O33 C32 1.228 . S
O34 Zn21 1.969 . S
O34 C32 1.267 . S
O35 Zn21 1.965 . S
O35 C39 1.260 1_565 S
O36 Zn20 1.969 . S
O36 C39 1.258 . S
O37 Zn21 2.024 . S
O37 C24 1.058 . S
C38 O27 1.260 . S
C38 O28 1.258 1_545 S
C39 O35 1.260 1_545 S
C39 O36 1.258 . S
Zn40 O46 1.969 . S
Zn40 O47 1.965 . S
Zn40 O51 2.024 . S
Zn40 O56 1.969 . S
Zn41 O48 1.969 . S
Zn41 O54 1.969 . S
Zn41 O55 1.965 . S
Zn41 O57 2.024 . S
C42 O43 1.229 . S
C42 O51 1.058 . S
O43 C42 1.229 . S
C44 O45 1.229 . S
C44 O57 1.058 . S
O45 C44 1.229 . S
O46 Zn40 1.969 . S
O46 C49 1.267 . S
O47 Zn40 1.965 . S
O47 C58 1.260 . S
O48 Zn41 1.969 . S
O48 C58 1.258 . S
C49 O46 1.267 . S
C49 O50 1.228 . S
O50 C49 1.228 . S
O51 Zn40 2.024 . S
O51 C42 1.058 . S
C52 O53 1.228 . S
C52 O54 1.267 . S
O53 C52 1.228 . S
O54 Zn41 1.969 . S
O54 C52 1.267 . S
O55 Zn41 1.965 . S
O55 C59 1.260 . S
O56 Zn40 1.969 . S
O56 C59 1.258 . S
O57 Zn41 2.024 . S
O57 C44 1.058 . S
C58 O47 1.260 . S
C58 O48 1.258 . S
C59 O55 1.260 . S
C59 O56 1.258 . S
C60 C61 1.384 . S
C60 H73 0.947 . S
C60 C95 1.382 . S
C61 C60 1.384 . S
C61 C62 1.378 . S
C62 C61 1.378 . S
C62 C63 1.378 . S
C62 H74 0.952 . S
C63 C62 1.378 . S
C63 H75 0.950 . S
C63 C94 1.383 . S
H64 C83 0.947 . S
H65 C84 0.946 . S
H66 C86 0.953 . S
H67 C87 0.945 . S
H68 C89 0.952 . S
H69 C90 0.949 . S
H70 C92 0.950 . S
H71 C93 0.948 . S
H72 C95 0.951 . S
H73 C60 0.947 . S
H74 C62 0.952 . S
H75 C63 0.950 . S
N76 C79 1.382 . S
N76 C81 1.363 1_545 S
N77 C79 1.371 . S
N77 C80 1.372 . S
N78 C80 1.361 1_565 S
N78 C81 1.377 . S
C79 N76 1.382 . S
C79 N77 1.371 . S
C79 C82 1.480 . S
C80 N77 1.372 . S
C80 N78 1.361 1_545 S
C80 C88 1.457 . S
C81 N76 1.363 1_565 S
C81 N78 1.377 . S
C81 C94 1.479 . S
C82 C79 1.480 . S
C82 C83 1.383 . S
C82 C87 1.385 . S
C83 H64 0.947 . S
C83 C82 1.383 . S
C83 C84 1.388 . S
C84 H65 0.946 . S
C84 C83 1.388 . S
C84 C85 1.384 . S
C85 C84 1.384 . S
C85 C86 1.377 . S
C86 H66 0.953 . S
C86 C85 1.377 . S
C86 C87 1.369 . S
C87 H67 0.945 . S
C87 C82 1.385 . S
C87 C86 1.369 . S
C88 C80 1.457 . S
C88 C89 1.372 . S
C88 C93 1.364 1_545 S
C89 H68 0.952 . S
C89 C88 1.372 . S
C89 C90 1.389 . S
C90 H69 0.949 . S
C90 C89 1.389 . S
C90 C91 1.387 . S
C91 C90 1.387 . S
C91 C92 1.372 1_545 S
C92 H70 0.950 . S
C92 C91 1.372 1_565 S
C92 C93 1.379 . S
C93 H71 0.948 . S
C93 C88 1.364 1_565 S
C93 C92 1.379 . S
C94 C63 1.383 . S
C94 C81 1.479 . S
C94 C95 1.398 . S
C95 C60 1.382 . S
C95 H72 0.951 . S
C95 C94 1.398 . S
C96 C97 1.384 . S
C96 H109 0.947 . S
C96 C131 1.382 . S
C97 C96 1.384 . S
C97 C98 1.378 . S
C98 C97 1.378 . S
C98 C99 1.378 . S
C98 H110 0.952 . S
C99 C98 1.378 . S
C99 H111 0.950 . S
C99 C130 1.383 . S
H100 C119 0.947 . S
H101 C120 0.946 . S
H102 C122 0.953 . S
H103 C123 0.945 . S
H104 C125 0.952 . S
H105 C126 0.949 . S
H106 C128 0.950 . S
H107 C129 0.948 . S
H108 C131 0.951 . S
H109 C96 0.947 . S
H110 C98 0.952 . S
H111 C99 0.950 . S
N112 C115 1.382 . S
N112 C117 1.363 . S
N113 C115 1.371 . S
N113 C116 1.372 . S
N114 C116 1.361 . S
N114 C117 1.377 . S
C115 N112 1.382 . S
C115 N113 1.371 . S
C115 C118 1.480 . S
C116 N113 1.372 . S
C116 N114 1.361 . S
C116 C124 1.457 . S
C117 N112 1.363 . S
C117 N114 1.377 . S
C117 C130 1.479 . S
C118 C115 1.480 . S
C118 C119 1.383 . S
C118 C123 1.385 . S
C119 H100 0.947 . S
C119 C118 1.383 . S
C119 C120 1.388 . S
C120 H101 0.946 . S
C120 C119 1.388 . S
C120 C121 1.384 . S
C121 C120 1.384 . S
C121 C122 1.377 . S
C122 H102 0.953 . S
C122 C121 1.377 . S
C122 C123 1.369 . S
C123 H103 0.945 . S
C123 C118 1.385 . S
C123 C122 1.369 . S
C124 C116 1.457 . S
C124 C125 1.372 . S
C124 C129 1.364 . S
C125 H104 0.952 . S
C125 C124 1.372 . S
C125 C126 1.389 . S
C126 H105 0.949 . S
C126 C125 1.389 . S
C126 C127 1.387 . S
C127 C126 1.387 . S
C127 C128 1.372 . S
C128 H106 0.950 . S
C128 C127 1.372 . S
C128 C129 1.379 . S
C129 H107 0.948 . S
C129 C124 1.364 . S
C129 C128 1.379 . S
C130 C99 1.383 . S
C130 C117 1.479 . S
C130 C131 1.398 . S
C131 C96 1.382 . S
C131 H108 0.951 . S
C131 C130 1.398 . S
C132 C133 1.384 . S
C132 H145 0.947 . S
C132 C167 1.382 . S
C133 C132 1.384 . S
C133 C134 1.378 . S
C134 C133 1.378 . S
C134 C135 1.378 . S
C134 H146 0.952 . S
C135 C134 1.378 . S
C135 H147 0.950 . S
C135 C166 1.383 . S
H136 C155 0.947 . S
H137 C156 0.946 . S
H138 C158 0.953 . S
H139 C159 0.945 . S
H140 C161 0.952 . S
H141 C162 0.949 . S
H142 C164 0.950 . S
H143 C165 0.948 . S
H144 C167 0.951 . S
H145 C132 0.947 . S
H146 C134 0.952 . S
H147 C135 0.950 . S
N148 C151 1.382 . S
N148 C153 1.363 1_455 S
N149 C151 1.371 . S
N149 C152 1.372 . S
N150 C152 1.337 1_655 S
N150 C153 1.377 . S
C151 N148 1.382 . S
C151 N149 1.371 . S
C151 C154 1.480 . S
C152 N149 1.372 . S
C152 N150 1.337 1_455 S
C152 C160 1.457 . S
C153 N148 1.363 1_655 S
C153 N150 1.377 . S
C153 C166 1.479 . S
C154 C151 1.480 . S
C154 C155 1.383 . S
C154 C159 1.385 . S
C155 H136 0.947 . S
C155 C154 1.383 . S
C155 C156 1.388 . S
C156 H137 0.946 . S
C156 C155 1.388 . S
C156 C157 1.384 . S
C157 C156 1.384 . S
C157 C158 1.377 . S
C158 H138 0.953 . S
C158 C157 1.377 . S
C158 C159 1.369 . S
C159 H139 0.945 . S
C159 C154 1.385 . S
C159 C158 1.369 . S
C160 C152 1.457 . S
C160 C161 1.372 . S
C160 C165 1.364 1_455 S
C161 H140 0.952 . S
C161 C160 1.372 . S
C161 C162 1.389 . S
C162 H141 0.949 . S
C162 C161 1.389 . S
C162 C163 1.387 . S
C163 C162 1.387 . S
C163 C164 1.372 1_455 S
C164 H142 0.950 . S
C164 C163 1.372 1_655 S
C164 C165 1.379 . S
C165 H143 0.948 . S
C165 C160 1.364 1_655 S
C165 C164 1.379 . S
C166 C135 1.383 . S
C166 C153 1.479 . S
C166 C167 1.398 . S
C167 C132 1.382 . S
C167 H144 0.951 . S
C167 C166 1.398 . S
C168 C169 1.384 . S
C168 H181 0.947 . S
C168 C203 1.382 . S
C169 C168 1.384 . S
C169 C170 1.378 . S
C170 C169 1.378 . S
C170 C171 1.378 . S
C170 H182 0.952 . S
C171 C170 1.378 . S
C171 H183 0.950 . S
C171 C202 1.383 . S
H172 C191 0.947 . S
H173 C192 0.946 . S
H174 C194 0.953 . S
H175 C195 0.945 . S
H176 C197 0.952 . S
H177 C198 0.949 . S
H178 C200 0.950 . S
H179 C201 0.948 . S
H180 C203 0.951 . S
H181 C168 0.947 . S
H182 C170 0.952 . S
H183 C171 0.950 . S
N184 C187 1.382 1_455 S
N184 C189 1.363 . S
N185 C187 1.371 . S
N185 C188 1.372 1_655 S
N186 C188 1.361 . S
N186 C189 1.377 . S
C187 N184 1.382 1_655 S
C187 N185 1.371 . S
C187 C190 1.480 . S
C188 N185 1.372 1_455 S
C188 N186 1.361 . S
C188 C196 1.457 . S
C189 N184 1.363 . S
C189 N186 1.377 . S
C189 C202 1.479 . S
C190 C187 1.480 . S
C190 C191 1.383 . S
C190 C195 1.385 . S
C191 H172 0.947 . S
C191 C190 1.383 . S
C191 C192 1.388 . S
C192 H173 0.946 . S
C192 C191 1.388 . S
C192 C193 1.384 . S
C193 C192 1.384 . S
C193 C194 1.377 . S
C194 H174 0.953 . S
C194 C193 1.377 . S
C194 C195 1.369 . S
C195 H175 0.945 . S
C195 C190 1.385 . S
C195 C194 1.369 . S
C196 C188 1.457 . S
C196 C197 1.372 1_455 S
C196 C201 1.364 . S
C197 H176 0.952 . S
C197 C196 1.372 1_655 S
C197 C198 1.389 . S
C198 H177 0.949 . S
C198 C197 1.389 . S
C198 C199 1.387 1_655 S
C199 C198 1.387 1_455 S
C199 C200 1.372 . S
C200 H178 0.950 . S
C200 C199 1.372 . S
C200 C201 1.379 . S
C201 H179 0.948 . S
C201 C196 1.364 . S
C201 C200 1.379 . S
C202 C171 1.383 . S
C202 C189 1.479 . S
C202 C203 1.398 . S
C203 C168 1.382 . S
C203 H180 0.951 . S
C203 C202 1.398 . S
C204 C205 1.384 . S
C204 H217 0.947 . S
C204 C239 1.382 . S
C205 C204 1.384 . S
C205 C206 1.378 . S
C206 C205 1.378 . S
C206 C207 1.378 . S
C206 H218 0.952 . S
C207 C206 1.378 . S
C207 H219 0.950 . S
C207 C238 1.383 . S
H208 C227 0.947 . S
H209 C228 0.946 . S
H210 C230 0.953 . S
H211 C231 0.945 . S
H212 C233 0.952 . S
H213 C234 0.949 . S
H214 C236 0.950 . S
H215 C237 0.948 . S
H216 C239 0.951 . S
H217 C204 0.947 . S
H218 C206 0.952 . S
H219 C207 0.950 . S
N220 C223 1.382 1_545 S
N220 C225 1.363 . S
N221 C223 1.371 . S
N221 C224 1.372 1_565 S
N222 C224 1.361 . S
N222 C225 1.377 . S
C223 N220 1.382 1_565 S
C223 N221 1.371 . S
C223 C226 1.480 . S
C224 N221 1.372 1_545 S
C224 N222 1.361 . S
C224 C232 1.457 . S
C225 N220 1.363 . S
C225 N222 1.377 . S
C225 C238 1.479 . S
C226 C223 1.480 . S
C226 C227 1.383 . S
C226 C231 1.385 . S
C227 H208 0.947 . S
C227 C226 1.383 . S
C227 C228 1.388 . S
C228 H209 0.946 . S
C228 C227 1.388 . S
C228 C229 1.384 . S
C229 C228 1.384 . S
C229 C230 1.377 . S
C230 H210 0.953 . S
C230 C229 1.377 . S
C230 C231 1.369 . S
C231 H211 0.945 . S
C231 C226 1.385 . S
C231 C230 1.369 . S
C232 C224 1.457 . S
C232 C233 1.372 1_545 S
C232 C237 1.364 . S
C233 H212 0.952 . S
C233 C232 1.372 1_565 S
C233 C234 1.389 . S
C234 H213 0.949 . S
C234 C233 1.389 . S
C234 C235 1.387 1_565 S
C235 C234 1.387 1_545 S
C235 C236 1.372 . S
C236 H214 0.950 . S
C236 C235 1.372 . S
C236 C237 1.379 . S
C237 H215 0.948 . S
C237 C232 1.364 . S
C237 C236 1.379 . S
C238 C207 1.383 . S
C238 C225 1.479 . S
C238 C239 1.398 . S
C239 C204 1.382 . S
C239 H216 0.951 . S
C239 C238 1.398 . S
C240 C241 1.384 . S
C240 H253 0.947 . S
C240 C275 1.382 . S
C241 C240 1.384 . S
C241 C242 1.378 . S
C242 C241 1.378 . S
C242 C243 1.378 . S
C242 H254 0.952 . S
C243 C242 1.378 . S
C243 H255 0.950 . S
C243 C274 1.383 . S
H244 C263 0.947 . S
H245 C264 0.946 . S
H246 C266 0.953 . S
H247 C267 0.945 . S
H248 C269 0.952 . S
H249 C270 0.949 . S
H250 C272 0.950 . S
H251 C273 0.948 . S
H252 C275 0.951 . S
H253 C240 0.947 . S
H254 C242 0.952 . S
H255 C243 0.950 . S
N256 C259 1.382 . S
N256 C261 1.363 . S
N257 C259 1.371 . S
N257 C260 1.372 . S
N258 C260 1.361 . S
N258 C261 1.377 . S
C259 N256 1.382 . S
C259 N257 1.371 . S
C259 C262 1.480 . S
C260 N257 1.372 . S
C260 N258 1.361 . S
C260 C268 1.457 . S
C261 N256 1.363 . S
C261 N258 1.377 . S
C261 C274 1.479 . S
C262 C259 1.480 . S
C262 C263 1.383 . S
C262 C267 1.385 . S
C263 H244 0.947 . S
C263 C262 1.383 . S
C263 C264 1.388 . S
C264 H245 0.946 . S
C264 C263 1.388 . S
C264 C265 1.384 . S
C265 C264 1.384 . S
C265 C266 1.377 . S
C266 H246 0.953 . S
C266 C265 1.377 . S
C266 C267 1.369 . S
C267 H247 0.945 . S
C267 C262 1.385 . S
C267 C266 1.369 . S
C268 C260 1.457 . S
C268 C269 1.372 . S
C268 C273 1.364 . S
C269 H248 0.952 . S
C269 C268 1.372 . S
C269 C270 1.389 . S
C270 H249 0.949 . S
C270 C269 1.389 . S
C270 C271 1.387 . S
C271 C270 1.387 . S
C271 C272 1.372 . S
C272 H250 0.950 . S
C272 C271 1.372 . S
C272 C273 1.379 . S
C273 H251 0.948 . S
C273 C268 1.364 . S
C273 C272 1.379 . S
C274 C243 1.383 . S
C274 C261 1.479 . S
C274 C275 1.398 . S
C275 C240 1.382 . S
C275 H252 0.951 . S
C275 C274 1.398 . S
H276 C284 0.950 . S
H277 C289 0.950 . S
H278 C286 0.950 . S
H279 C288 0.950 . S
H280 C290 0.950 . S
H281 C292 0.950 . S
H282 C294 0.950 . S
H283 C295 0.950 . S
C284 H276 0.950 . S
C284 C285 1.386 . S
C284 C286 1.391 . S
C285 C284 1.386 . S
C285 C289 1.393 . S
C286 H278 0.950 . S
C286 C284 1.391 . S
C286 C287 1.400 . S
C287 C286 1.400 . S
C287 C288 1.398 . S
C287 C293 1.491 . S
C288 H279 0.950 . S
C288 C287 1.398 . S
C288 C289 1.391 . S
C289 H277 0.950 . S
C289 C285 1.393 . S
C289 C288 1.391 . S
C290 H280 0.950 . S
C290 C291 1.386 . S
C290 C292 1.391 . S
C291 C290 1.386 . S
C291 C295 1.393 . S
C292 H281 0.950 . S
C292 C290 1.391 . S
C292 C293 1.400 . S
C293 C287 1.491 . S
C293 C292 1.400 . S
C293 C294 1.398 . S
C294 H282 0.950 . S
C294 C293 1.398 . S
C294 C295 1.391 . S
C295 H283 0.950 . S
C295 C291 1.393 . S
C295 C294 1.391 . S
H296 C304 0.950 . S
H297 C309 0.950 . S
H298 C306 0.950 . S
H299 C308 0.950 . S
H300 C310 0.950 . S
H301 C312 0.950 . S
H302 C314 0.950 . S
H303 C315 0.950 . S
C304 H296 0.950 . S
C304 C305 1.386 . S
C304 C306 1.391 . S
C305 C304 1.386 . S
C305 C309 1.393 . S
C306 H298 0.950 . S
C306 C304 1.391 . S
C306 C307 1.400 . S
C307 C306 1.400 . S
C307 C308 1.398 . S
C307 C313 1.491 . S
C308 H299 0.950 . S
C308 C307 1.398 . S
C308 C309 1.391 . S
C309 H297 0.950 . S
C309 C305 1.393 . S
C309 C308 1.391 . S
C310 H300 0.950 . S
C310 C311 1.386 . S
C310 C312 1.391 . S
C311 C310 1.386 . S
C311 C315 1.393 . S
C312 H301 0.950 . S
C312 C310 1.391 . S
C312 C313 1.400 . S
C313 C307 1.491 . S
C313 C312 1.400 . S
C313 C314 1.398 . S
C314 H302 0.950 . S
C314 C313 1.398 . S
C314 C315 1.391 . S
C315 H303 0.950 . S
C315 C311 1.393 . S
C315 C314 1.391 . S
H316 C324 0.950 . S
H317 C329 0.950 . S
H318 C326 0.950 . S
H319 C328 0.950 . S
H320 C330 0.950 . S
H321 C332 0.950 . S
H322 C334 0.950 . S
H323 C335 0.950 . S
C324 H316 0.950 . S
C324 C325 1.386 . S
C324 C326 1.391 . S
C325 C324 1.386 . S
C325 C329 1.393 . S
C326 H318 0.950 . S
C326 C324 1.391 . S
C326 C327 1.400 . S
C327 C326 1.400 . S
C327 C328 1.398 . S
C327 C333 1.491 . S
C328 H319 0.950 . S
C328 C327 1.398 . S
C328 C329 1.391 . S
C329 H317 0.950 . S
C329 C325 1.393 . S
C329 C328 1.391 . S
C330 H320 0.950 . S
C330 C331 1.386 . S
C330 C332 1.391 . S
C331 C330 1.386 . S
C331 C335 1.393 . S
C332 H321 0.950 . S
C332 C330 1.391 . S
C332 C333 1.400 . S
C333 C327 1.491 . S
C333 C332 1.400 . S
C333 C334 1.398 . S
C334 H322 0.950 . S
C334 C333 1.398 . S
C334 C335 1.391 . S
C335 H323 0.950 . S
C335 C331 1.393 . S
C335 C334 1.391 . S
H336 C344 0.950 . S
H337 C349 0.950 . S
H338 C346 0.950 . S
H339 C348 0.950 . S
H340 C350 0.950 . S
H341 C352 0.950 . S
H342 C354 0.950 . S
H343 C355 0.950 . S
C344 H336 0.950 . S
C344 C345 1.386 . S
C344 C346 1.391 . S
C345 C344 1.386 . S
C345 C349 1.393 . S
C346 H338 0.950 . S
C346 C344 1.391 . S
C346 C347 1.400 . S
C347 C346 1.400 . S
C347 C348 1.398 . S
C347 C353 1.491 . S
C348 H339 0.950 . S
C348 C347 1.398 . S
C348 C349 1.391 . S
C349 H337 0.950 . S
C349 C345 1.393 . S
C349 C348 1.391 . S
C350 H340 0.950 . S
C350 C351 1.386 . S
C350 C352 1.391 . S
C351 C350 1.386 . S
C351 C355 1.393 . S
C352 H341 0.950 . S
C352 C350 1.391 . S
C352 C353 1.400 . S
C353 C347 1.491 . S
C353 C352 1.400 . S
C353 C354 1.398 . S
C354 H342 0.950 . S
C354 C353 1.398 . S
C354 C355 1.391 . S
C355 H343 0.950 . S
C355 C351 1.393 . S
C355 C354 1.391 . S
H356 C364 0.950 . S
H357 C369 0.950 . S
H358 C366 0.950 . S
H359 C368 0.950 . S
H360 C370 0.950 . S
H361 C372 0.950 . S
H362 C374 0.950 . S
H363 C375 0.950 . S
C364 H356 0.950 . S
C364 C365 1.386 . S
C364 C366 1.391 . S
C365 C364 1.386 . S
C365 C369 1.393 . S
C366 H358 0.950 . S
C366 C364 1.391 . S
C366 C367 1.400 . S
C367 C366 1.400 . S
C367 C368 1.398 . S
C367 C373 1.491 . S
C368 H359 0.950 . S
C368 C367 1.398 . S
C368 C369 1.391 . S
C369 H357 0.950 . S
C369 C365 1.393 . S
C369 C368 1.391 . S
C370 H360 0.950 . S
C370 C371 1.386 . S
C370 C372 1.391 . S
C371 C370 1.386 . S
C371 C375 1.393 . S
C372 H361 0.950 . S
C372 C370 1.391 . S
C372 C373 1.400 . S
C373 C367 1.491 . S
C373 C372 1.400 . S
C373 C374 1.398 . S
C374 H362 0.950 . S
C374 C373 1.398 . S
C374 C375 1.391 . S
C375 H363 0.950 . S
C375 C371 1.393 . S
C375 C374 1.391 . S
H376 C384 0.950 . S
H377 C389 0.950 . S
H378 C386 0.950 . S
H379 C388 0.950 . S
H380 C390 0.950 . S
H381 C392 0.950 . S
H382 C394 0.950 . S
H383 C395 0.950 . S
C384 H376 0.950 . S
C384 C385 1.386 . S
C384 C386 1.391 . S
C385 C384 1.386 . S
C385 C389 1.393 . S
C386 H378 0.950 . S
C386 C384 1.391 . S
C386 C387 1.400 . S
C387 C386 1.400 . S
C387 C388 1.398 . S
C387 C393 1.491 . S
C388 H379 0.950 . S
C388 C387 1.398 . S
C388 C389 1.391 . S
C389 H377 0.950 . S
C389 C385 1.393 . S
C389 C388 1.391 . S
C390 H380 0.950 . S
C390 C391 1.386 . S
C390 C392 1.391 . S
C391 C390 1.386 . S
C391 C395 1.393 . S
C392 H381 0.950 . S
C392 C390 1.391 . S
C392 C393 1.400 . S
C393 C387 1.491 . S
C393 C392 1.400 . S
C393 C394 1.398 . S
C394 H382 0.950 . S
C394 C393 1.398 . S
C394 C395 1.391 . S
C395 H383 0.950 . S
C395 C391 1.393 . S
C395 C394 1.391 . S
H396 C404 0.950 . S
H397 C409 0.950 . S
H398 C406 0.950 . S
H399 C408 0.950 . S
H400 C410 0.950 . S
H401 C412 0.950 . S
H402 C414 0.950 . S
H403 C415 0.950 . S
C404 H396 0.950 . S
C404 C405 1.386 . S
C404 C406 1.391 . S
C405 C404 1.386 . S
C405 C409 1.393 . S
C406 H398 0.950 . S
C406 C404 1.391 . S
C406 C407 1.400 . S
C407 C406 1.400 . S
C407 C408 1.398 . S
C407 C413 1.491 . S
C408 H399 0.950 . S
C408 C407 1.398 . S
C408 C409 1.391 . S
C409 H397 0.950 . S
C409 C405 1.393 . S
C409 C408 1.391 . S
C410 H400 0.950 . S
C410 C411 1.386 . S
C410 C412 1.391 . S
C411 C410 1.386 . S
C411 C415 1.393 . S
C412 H401 0.950 . S
C412 C410 1.391 . S
C412 C413 1.400 . S
C413 C407 1.491 . S
C413 C412 1.400 . S
C413 C414 1.398 . S
C414 H402 0.950 . S
C414 C413 1.398 . S
C414 C415 1.391 . S
C415 H403 0.950 . S
C415 C411 1.393 . S
C415 C414 1.391 . S
H416 C424 0.950 . S
H417 C429 0.950 . S
H418 C426 0.950 . S
H419 C428 0.950 . S
H420 C430 0.950 . S
H421 C432 0.950 . S
H422 C434 0.950 . S
H423 C435 0.950 . S
C424 H416 0.950 . S
C424 C425 1.386 . S
C424 C426 1.391 . S
C425 C424 1.386 . S
C425 C429 1.393 . S
C426 H418 0.950 . S
C426 C424 1.391 . S
C426 C427 1.400 . S
C427 C426 1.400 . S
C427 C428 1.398 . S
C427 C433 1.491 . S
C428 H419 0.950 . S
C428 C427 1.398 . S
C428 C429 1.391 . S
C429 H417 0.950 . S
C429 C425 1.393 . S
C429 C428 1.391 . S
C430 H420 0.950 . S
C430 C431 1.386 . S
C430 C432 1.391 . S
C431 C430 1.386 . S
C431 C435 1.393 . S
C432 H421 0.950 . S
C432 C430 1.391 . S
C432 C433 1.400 . S
C433 C427 1.491 . S
C433 C432 1.400 . S
C433 C434 1.398 . S
C434 H422 0.950 . S
C434 C433 1.398 . S
C434 C435 1.391 . S
C435 H423 0.950 . S
C435 C431 1.393 . S
C435 C434 1.391 . S
H436 C444 0.950 . S
H437 C449 0.950 . S
H438 C446 0.950 . S
H439 C448 0.950 . S
H440 C450 0.950 . S
H441 C452 0.950 . S
H442 C454 0.950 . S
H443 C455 0.950 . S
C444 H436 0.950 . S
C444 C445 1.386 . S
C444 C446 1.391 . S
C445 C444 1.386 . S
C445 C449 1.393 . S
C446 H438 0.950 . S
C446 C444 1.391 . S
C446 C447 1.400 . S
C447 C446 1.400 . S
C447 C448 1.398 . S
C447 C453 1.491 . S
C448 H439 0.950 . S
C448 C447 1.398 . S
C448 C449 1.391 . S
C449 H437 0.950 . S
C449 C445 1.393 . S
C449 C448 1.391 . S
C450 H440 0.950 . S
C450 C451 1.386 . S
C450 C452 1.391 . S
C451 C450 1.386 . S
C451 C455 1.393 . S
C452 H441 0.950 . S
C452 C450 1.391 . S
C452 C453 1.400 . S
C453 C447 1.491 . S
C453 C452 1.400 . S
C453 C454 1.398 . S
C454 H442 0.950 . S
C454 C453 1.398 . S
C454 C455 1.391 . S
C455 H443 0.950 . S
C455 C451 1.393 . S
C455 C454 1.391 . S
H456 C464 0.950 . S
H457 C469 0.950 . S
H458 C466 0.950 . S
H459 C468 0.950 . S
H460 C470 0.950 . S
H461 C472 0.950 . S
H462 C474 0.950 . S
H463 C475 0.950 . S
C464 H456 0.950 . S
C464 C465 1.386 . S
C464 C466 1.391 . S
C465 C464 1.386 . S
C465 C469 1.393 . S
C466 H458 0.950 . S
C466 C464 1.391 . S
C466 C467 1.400 . S
C467 C466 1.400 . S
C467 C468 1.398 . S
C467 C473 1.491 . S
C468 H459 0.950 . S
C468 C467 1.398 . S
C468 C469 1.391 . S
C469 H457 0.950 . S
C469 C465 1.393 . S
C469 C468 1.391 . S
C470 H460 0.950 . S
C470 C471 1.386 . S
C470 C472 1.391 . S
C471 C470 1.386 . S
C471 C475 1.393 . S
C472 H461 0.950 . S
C472 C470 1.391 . S
C472 C473 1.400 . S
C473 C467 1.491 . S
C473 C472 1.400 . S
C473 C474 1.398 . S
C474 H462 0.950 . S
C474 C473 1.398 . S
C474 C475 1.391 . S
C475 H463 0.950 . S
C475 C471 1.393 . S
C475 C474 1.391 . S
H476 C484 0.950 . S
H477 C489 0.950 . S
H478 C486 0.950 . S
H479 C488 0.950 . S
H480 C490 0.950 . S
H481 C492 0.950 . S
H482 C494 0.950 . S
H483 C495 0.950 . S
C484 H476 0.950 . S
C484 C485 1.386 . S
C484 C486 1.391 . S
C485 C484 1.386 . S
C485 C489 1.393 . S
C486 H478 0.950 . S
C486 C484 1.391 . S
C486 C487 1.400 . S
C487 C486 1.400 . S
C487 C488 1.398 . S
C487 C493 1.491 . S
C488 H479 0.950 . S
C488 C487 1.398 . S
C488 C489 1.391 . S
C489 H477 0.950 . S
C489 C485 1.393 . S
C489 C488 1.391 . S
C490 H480 0.950 . S
C490 C491 1.386 . S
C490 C492 1.391 . S
C491 C490 1.386 . S
C491 C495 1.393 . S
C492 H481 0.950 . S
C492 C490 1.391 . S
C492 C493 1.400 . S
C493 C487 1.491 . S
C493 C492 1.400 . S
C493 C494 1.398 . S
C494 H482 0.950 . S
C494 C493 1.398 . S
C494 C495 1.391 . S
C495 H483 0.950 . S
C495 C491 1.393 . S
C495 C494 1.391 . S
H496 C504 0.950 . S
H497 C509 0.950 . S
H498 C506 0.950 . S
H499 C508 0.950 . S
H500 C510 0.950 . S
H501 C512 0.950 . S
H502 C514 0.950 . S
H503 C515 0.950 . S
C504 H496 0.950 . S
C504 C505 1.386 . S
C504 C506 1.391 . S
C505 C504 1.386 . S
C505 C509 1.393 . S
C506 H498 0.950 . S
C506 C504 1.391 . S
C506 C507 1.400 . S
C507 C506 1.400 . S
C507 C508 1.398 . S
C507 C513 1.491 . S
C508 H499 0.950 . S
C508 C507 1.398 . S
C508 C509 1.391 . S
C509 H497 0.950 . S
C509 C505 1.393 . S
C509 C508 1.391 . S
C510 H500 0.950 . S
C510 C511 1.386 . S
C510 C512 1.391 . S
C511 C510 1.386 . S
C511 C515 1.393 . S
C512 H501 0.950 . S
C512 C510 1.391 . S
C512 C513 1.400 . S
C513 C507 1.491 . S
C513 C512 1.400 . S
C513 C514 1.398 . S
C514 H502 0.950 . S
C514 C513 1.398 . S
C514 C515 1.391 . S
C515 H503 0.950 . S
C515 C511 1.393 . S
C515 C514 1.391 . S
H516 C524 0.950 . S
H517 C529 0.950 . S
H518 C526 0.950 . S
H519 C528 0.950 . S
H520 C530 0.950 . S
H521 C532 0.950 . S
H522 C534 0.950 . S
H523 C535 0.950 . S
C524 H516 0.950 . S
C524 C525 1.386 1_655 S
C524 C526 1.391 . S
C525 C524 1.386 1_455 S
C525 C529 1.393 . S
C526 H518 0.950 . S
C526 C524 1.391 . S
C526 C527 1.400 1_655 S
C527 C526 1.400 1_455 S
C527 C528 1.398 . S
C527 C533 1.491 . S
C528 H519 0.950 . S
C528 C527 1.398 . S
C528 C529 1.391 . S
C529 H517 0.950 . S
C529 C525 1.393 . S
C529 C528 1.391 . S
C530 H520 0.950 . S
C530 C531 1.386 . S
C530 C532 1.391 . S
C531 C530 1.386 . S
C531 C535 1.393 1_455 S
C532 H521 0.950 . S
C532 C530 1.391 . S
C532 C533 1.400 . S
C533 C527 1.491 . S
C533 C532 1.400 . S
C533 C534 1.398 1_455 S
C534 H522 0.950 . S
C534 C533 1.398 1_655 S
C534 C535 1.391 . S
C535 H523 0.950 . S
C535 C531 1.393 1_655 S
C535 C534 1.391 . S
H536 C544 0.950 . S
H537 C549 0.950 . S
H538 C546 0.950 . S
H539 C548 0.950 . S
H540 C550 0.950 . S
H541 C552 0.950 . S
H542 C554 0.950 1_565 S
H543 C555 0.950 1_565 S
C544 H536 0.950 . S
C544 C545 1.386 1_565 S
C544 C546 1.391 . S
C545 C544 1.386 1_545 S
C545 C549 1.393 . S
C546 H538 0.950 . S
C546 C544 1.391 . S
C546 C547 1.400 1_565 S
C547 C546 1.400 1_545 S
C547 C548 1.398 . S
C547 C553 1.491 . S
C548 H539 0.950 . S
C548 C547 1.398 . S
C548 C549 1.391 . S
C549 H537 0.950 . S
C549 C545 1.393 . S
C549 C548 1.391 . S
C550 H540 0.950 . S
C550 C551 1.386 . S
C550 C552 1.391 . S
C551 C550 1.386 . S
C551 C555 1.393 . S
C552 H541 0.950 . S
C552 C550 1.391 . S
C552 C553 1.400 . S
C553 C547 1.491 . S
C553 C552 1.400 . S
C553 C554 1.398 . S
C554 H542 0.950 1_545 S
C554 C553 1.398 . S
C554 C555 1.391 . S
C555 H543 0.950 1_545 S
C555 C551 1.393 . S
C555 C554 1.391 . S
H556 C564 0.950 . S
H557 C569 0.950 . S
H558 C566 0.950 . S
H559 C568 0.950 . S
H560 C570 0.950 . S
H561 C572 0.950 . S
H562 C574 0.950 . S
H563 C575 0.950 . S
C564 H556 0.950 . S
C564 C565 1.386 . S
C564 C566 1.391 . S
C565 C564 1.386 . S
C565 C569 1.393 . S
C566 H558 0.950 . S
C566 C564 1.391 . S
C566 C567 1.400 . S
C567 C566 1.400 . S
C567 C568 1.398 . S
C567 C573 1.491 . S
C568 H559 0.950 . S
C568 C567 1.398 . S
C568 C569 1.391 . S
C569 H557 0.950 . S
C569 C565 1.393 . S
C569 C568 1.391 . S
C570 H560 0.950 . S
C570 C571 1.386 . S
C570 C572 1.391 . S
C571 C570 1.386 . S
C571 C575 1.393 . S
C572 H561 0.950 . S
C572 C570 1.391 . S
C572 C573 1.400 . S
C573 C567 1.491 . S
C573 C572 1.400 . S
C573 C574 1.398 . S
C574 H562 0.950 . S
C574 C573 1.398 . S
C574 C575 1.391 . S
C575 H563 0.950 . S
C575 C571 1.393 . S
C575 C574 1.391 . S
H576 C584 0.950 . S
H577 C589 0.950 . S
H578 C586 0.950 . S
H579 C588 0.950 . S
H580 C590 0.950 . S
H581 C592 0.950 . S
H582 C594 0.950 . S
H583 C595 0.950 . S
C584 H576 0.950 . S
C584 C585 1.386 1_565 S
C584 C586 1.391 . S
C585 C584 1.386 1_545 S
C585 C589 1.393 . S
C586 H578 0.950 . S
C586 C584 1.391 . S
C586 C587 1.400 1_565 S
C587 C586 1.400 1_545 S
C587 C588 1.398 . S
C587 C593 1.491 . S
C588 H579 0.950 . S
C588 C587 1.398 . S
C588 C589 1.391 . S
C589 H577 0.950 . S
C589 C585 1.393 . S
C589 C588 1.391 . S
C590 H580 0.950 . S
C590 C591 1.386 . S
C590 C592 1.391 . S
C591 C590 1.386 . S
C591 C595 1.393 1_545 S
C592 H581 0.950 . S
C592 C590 1.391 . S
C592 C593 1.400 . S
C593 C587 1.491 . S
C593 C592 1.400 . S
C593 C594 1.398 1_545 S
C594 H582 0.950 . S
C594 C593 1.398 1_565 S
C594 C595 1.391 . S
C595 H583 0.950 . S
C595 C591 1.393 1_565 S
C595 C594 1.391 . S
H596 C604 0.950 . S
H597 C609 0.950 . S
H598 C606 0.950 . S
H599 C608 0.950 . S
H600 C610 0.950 . S
H601 C612 0.950 . S
H602 C614 0.950 . S
H603 C615 0.950 . S
C604 H596 0.950 . S
C604 C605 1.386 . S
C604 C606 1.391 . S
C605 C604 1.386 . S
C605 C609 1.393 . S
C606 H598 0.950 . S
C606 C604 1.391 . S
C606 C607 1.400 . S
C607 C606 1.400 . S
C607 C608 1.398 . S
C607 C613 1.491 . S
C608 H599 0.950 . S
C608 C607 1.398 . S
C608 C609 1.391 . S
C609 H597 0.950 . S
C609 C605 1.393 . S
C609 C608 1.391 . S
C610 H600 0.950 . S
C610 C611 1.386 . S
C610 C612 1.391 . S
C611 C610 1.386 . S
C611 C615 1.393 . S
C612 H601 0.950 . S
C612 C610 1.391 . S
C612 C613 1.400 . S
C613 C607 1.491 . S
C613 C612 1.400 . S
C613 C614 1.398 . S
C614 H602 0.950 . S
C614 C613 1.398 . S
C614 C615 1.391 . S
C615 H603 0.950 . S
C615 C611 1.393 . S
C615 C614 1.391 . S
H616 C624 0.950 . S
H617 C629 0.950 . S
H618 C626 0.950 . S
H619 C628 0.950 . S
H620 C630 0.950 . S
H621 C632 0.950 . S
H622 C634 0.950 . S
H623 C635 0.950 . S
C624 H616 0.950 . S
C624 C625 1.404 . S
C624 C626 1.391 . S
C625 C624 1.404 . S
C625 C629 1.376 1_455 S
C626 H618 0.950 . S
C626 C624 1.391 . S
C626 C627 1.400 . S
C627 C626 1.400 . S
C627 C628 1.398 1_455 S
C627 C633 1.491 . S
C628 H619 0.950 . S
C628 C627 1.398 1_655 S
C628 C629 1.391 . S
C629 H617 0.950 . S
C629 C625 1.376 1_655 S
C629 C628 1.391 . S
C630 H620 0.950 . S
C630 C631 1.386 1_655 S
C630 C632 1.391 . S
C631 C630 1.386 1_455 S
C631 C635 1.393 . S
C632 H621 0.950 . S
C632 C630 1.391 . S
C632 C633 1.400 1_655 S
C633 C627 1.491 . S
C633 C632 1.400 1_455 S
C633 C634 1.398 . S
C634 H622 0.950 . S
C634 C633 1.398 . S
C634 C635 1.391 . S
C635 H623 0.950 . S
C635 C631 1.393 . S
C635 C634 1.391 . S
C285 C2 1.363 . S
C291 C265 1.424 . S
C305 C22 1.357 . S
C311 C193 1.405 . S
C325 C44 1.407 . S
C331 C229 1.441 . S
C345 C4 1.549 . S
C351 C241 1.625 . S
C371 C169 1.657 . S
C365 C24 1.575 . S
C391 C205 1.592 . S
C385 C42 1.526 . S
C405 C32 1.341 . S
C411 C121 1.312 . S
C425 C49 1.280 . S
C431 C133 1.296 . S
C445 C9 1.281 . S
C451 C61 1.271 . S
C471 C97 1.273 . S
C465 C29 1.249 . S
C491 C157 1.291 . S
C485 C52 1.254 . S
C505 C12 1.280 . S
C511 C85 1.283 . S
C531 C163 1.427 1_554 S
C525 C18 1.430 1_455 S
C545 C38 1.417 . S
C551 C91 1.434 . S
C565 C58 1.411 . S
C571 C127 1.441 . S
C591 C235 1.503 . S
C585 C39 1.481 . S
C611 C271 1.486 1_556 S
C605 C59 1.475 . S
C625 C19 1.469 . S
C631 C199 1.493 . S
