# Generated by pormake.
# Topology hwx, (6,3)-cn, num edge types: 1
# Building blocks:
#     Node 0, Type 0, BuildingBlock: OJICUG_clean_sbu_0, # of connection points: 6
#     Node 1, Type 0, BuildingBlock: OJICUG_clean_sbu_0, # of connection points: 6
#     Node 2, Type 0, BuildingBlock: OJICUG_clean_sbu_0, # of connection points: 6
#     Node 3, Type 0, BuildingBlock: OJICUG_clean_sbu_0, # of connection points: 6
#     Node 4, Type 1, BuildingBlock: QEWDON_clean_linker_0, # of connection points: 3
#     Node 5, Type 1, BuildingBlock: QEWDON_clean_linker_0, # of connection points: 3
#     Node 6, Type 1, BuildingBlock: QEWDON_clean_linker_0, # of connection points: 3
#     Node 7, Type 1, BuildingBlock: QEWDON_clean_linker_0, # of connection points: 3
#     Node 8, Type 1, BuildingBlock: QEWDON_clean_linker_0, # of connection points: 3
#     Node 9, Type 1, BuildingBlock: QEWDON_clean_linker_0, # of connection points: 3
#     Node 10, Type 1, BuildingBlock: QEWDON_clean_linker_0, # of connection points: 3
#     Node 11, Type 1, BuildingBlock: QEWDON_clean_linker_0, # of connection points: 3
#     Edge 12, Type (0, 1), BuildingBlock: MIFKUJ_clean_linker_0, # of connection points: 2
#     Edge 13, Type (0, 1), BuildingBlock: MIFKUJ_clean_linker_0, # of connection points: 2
#     Edge 14, Type (0, 1), BuildingBlock: MIFKUJ_clean_linker_0, # of connection points: 2
#     Edge 15, Type (0, 1), BuildingBlock: MIFKUJ_clean_linker_0, # of connection points: 2
#     Edge 16, Type (0, 1), BuildingBlock: MIFKUJ_clean_linker_0, # of connection points: 2
#     Edge 17, Type (0, 1), BuildingBlock: MIFKUJ_clean_linker_0, # of connection points: 2
#     Edge 18, Type (0, 1), BuildingBlock: MIFKUJ_clean_linker_0, # of connection points: 2
#     Edge 19, Type (0, 1), BuildingBlock: MIFKUJ_clean_linker_0, # of connection points: 2
#     Edge 20, Type (0, 1), BuildingBlock: MIFKUJ_clean_linker_0, # of connection points: 2
#     Edge 21, Type (0, 1), BuildingBlock: MIFKUJ_clean_linker_0, # of connection points: 2
#     Edge 22, Type (0, 1), BuildingBlock: MIFKUJ_clean_linker_0, # of connection points: 2
#     Edge 23, Type (0, 1), BuildingBlock: MIFKUJ_clean_linker_0, # of connection points: 2
#     Edge 24, Type (0, 1), BuildingBlock: MIFKUJ_clean_linker_0, # of connection points: 2
#     Edge 25, Type (0, 1), BuildingBlock: MIFKUJ_clean_linker_0, # of connection points: 2
#     Edge 26, Type (0, 1), BuildingBlock: MIFKUJ_clean_linker_0, # of connection points: 2
#     Edge 27, Type (0, 1), BuildingBlock: MIFKUJ_clean_linker_0, # of connection points: 2
#     Edge 28, Type (0, 1), BuildingBlock: MIFKUJ_clean_linker_0, # of connection points: 2
#     Edge 29, Type (0, 1), BuildingBlock: MIFKUJ_clean_linker_0, # of connection points: 2
#     Edge 30, Type (0, 1), BuildingBlock: MIFKUJ_clean_linker_0, # of connection points: 2
#     Edge 31, Type (0, 1), BuildingBlock: MIFKUJ_clean_linker_0, # of connection points: 2
#     Edge 32, Type (0, 1), BuildingBlock: MIFKUJ_clean_linker_0, # of connection points: 2
#     Edge 33, Type (0, 1), BuildingBlock: MIFKUJ_clean_linker_0, # of connection points: 2
#     Edge 34, Type (0, 1), BuildingBlock: MIFKUJ_clean_linker_0, # of connection points: 2
#     Edge 35, Type (0, 1), BuildingBlock: MIFKUJ_clean_linker_0, # of connection points: 2
# Relax obj value: 0.002
# Max RMSD: 0.105
# Mean RMSD: 0.079
data_MOF--net-hwx--node1-OJICUG_clean_sbu_0--node2-QEWDON_clean_linker_0--edge1-MIFKUJ_clean_linker_0
_symmetry_space_group_name_H-M    P1
_symmetry_Int_Tables_number       1
_symmetry_cell_setting            triclinic
loop_
_symmetry_equiv_pos_as_xyz
'x, y, z'
_cell_length_a     71.676757
_cell_length_b     71.697228
_cell_length_c     25.477344
_cell_angle_alpha  92.185138
_cell_angle_beta   92.194245
_cell_angle_gamma 89.994115
loop_
_atom_site_label
_atom_site_type_symbol
_atom_site_fract_x
_atom_site_fract_y
_atom_site_fract_z
_atom_type_partial_charge
Sc0 Sc 0.22919 0.23167 0.06857 0.0
Sc1 Sc 0.1963 0.20194 0.00232 0.0
Sc2 Sc 0.22491 0.23054 0.92966 0.0
O3 O 0.21683 0.2214 0.00017 0.0
C4 C 0.22564 0.26827 -0.00023 0.0
C5 C 0.18622 0.23011 0.09734 0.0
C6 C 0.18063 0.22699 0.91004 0.0
C7 C 0.22417 0.18856 0.09361 0.0
C8 C 0.264 0.22787 0.99504 0.0
C9 C 0.22009 0.18666 0.90594 0.0
O10 O 0.22861 0.26007 0.04277 0.0
O11 O 0.18229 0.21721 0.06312 0.0
O12 O 0.19656 0.23284 0.89758 0.0
O13 O 0.23172 0.20449 0.10235 0.0
O14 O 0.25433 0.22968 0.95256 0.0
O15 O 0.20832 0.18467 0.94144 0.0
O16 O 0.25683 0.22744 0.03988 0.0
O17 O 0.21139 0.18555 0.05843 0.0
O18 O 0.22752 0.20233 0.89718 0.0
O19 O 0.20257 0.23698 0.10419 0.0
O20 O 0.22312 0.25949 0.95568 0.0
O21 O 0.17846 0.2161 0.94741 0.0
Sc22 Sc 0.27001 0.73251 0.44137 0.0
Sc23 Sc 0.30119 0.70321 0.50932 0.0
Sc24 Sc 0.27375 0.73517 0.5806 0.0
O25 O 0.28164 0.72368 0.51044 0.0
C26 C 0.27481 0.77091 0.51 0.0
C27 C 0.31283 0.72804 0.41413 0.0
C28 C 0.31788 0.73025 0.60149 0.0
C29 C 0.27283 0.68848 0.4179 0.0
C30 C 0.23482 0.7319 0.51406 0.0
C31 C 0.27673 0.69186 0.60536 0.0
O32 O 0.27188 0.76166 0.46678 0.0
O33 O 0.31622 0.71606 0.44874 0.0
O34 O 0.30227 0.73763 0.61251 0.0
O35 O 0.26651 0.70452 0.40711 0.0
O36 O 0.24438 0.73435 0.55696 0.0
O37 O 0.28832 0.68838 0.56982 0.0
O38 O 0.24215 0.73035 0.46942 0.0
O39 O 0.28506 0.68592 0.45416 0.0
O40 O 0.27005 0.7081 0.61417 0.0
O41 O 0.29684 0.73539 0.40658 0.0
O42 O 0.27648 0.76322 0.55414 0.0
O43 O 0.31946 0.71787 0.56502 0.0
Sc44 Sc 0.77433 0.77634 0.95693 0.0
Sc45 Sc 0.80426 0.80744 0.02979 0.0
Sc46 Sc 0.77394 0.77839 0.09584 0.0
O47 O 0.78416 0.78735 0.02753 0.0
C48 C 0.73691 0.77909 0.02194 0.0
C49 C 0.7778 0.81965 0.93342 0.0
C50 C 0.77797 0.82239 0.12047 0.0
C51 C 0.8179 0.78056 0.93634 0.0
C52 C 0.77682 0.74023 0.02689 0.0
C53 C 0.81764 0.78264 0.12543 0.0
O54 O 0.74552 0.77798 0.97915 0.0
O55 O 0.79002 0.82294 0.97004 0.0
O56 O 0.77065 0.80661 0.12857 0.0
O57 O 0.80194 0.77325 0.92603 0.0
O58 O 0.77568 0.7493 0.07061 0.0
O59 O 0.82063 0.79424 0.09021 0.0
O60 O 0.77683 0.74808 0.9829 0.0
O61 O 0.82076 0.79293 0.97276 0.0
O62 O 0.8016 0.7757 0.13224 0.0
O63 O 0.7708 0.80351 0.92364 0.0
O64 O 0.7453 0.77957 0.06689 0.0
O65 O 0.79024 0.82448 0.0866 0.0
Sc66 Sc 0.72622 0.27834 0.57429 0.0
Sc67 Sc 0.69606 0.30848 0.50546 0.0
Sc68 Sc 0.7251 0.27763 0.43531 0.0
O69 O 0.71581 0.28811 0.50503 0.0
C70 C 0.76293 0.27941 0.50638 0.0
C71 C 0.72295 0.32188 0.6028 0.0
C72 C 0.72241 0.32152 0.41596 0.0
C73 C 0.68258 0.28281 0.59579 0.0
C74 C 0.72252 0.24081 0.50232 0.0
C75 C 0.68162 0.28248 0.40748 0.0
O76 O 0.7548 0.27924 0.54993 0.0
O77 O 0.71011 0.32456 0.56816 0.0
O78 O 0.72834 0.3052 0.40405 0.0
O79 O 0.69877 0.27638 0.60689 0.0
O80 O 0.72296 0.24908 0.45902 0.0
O81 O 0.67934 0.29522 0.44265 0.0
O82 O 0.72342 0.24953 0.54685 0.0
O83 O 0.6794 0.29411 0.55928 0.0
O84 O 0.69726 0.27457 0.40064 0.0
O85 O 0.73044 0.306 0.60912 0.0
O86 O 0.75403 0.27904 0.46216 0.0
O87 O 0.71095 0.32476 0.45199 0.0
H88 H 0.24964 0.5126 0.0744 0.0
C89 C 0.2465 0.52161 0.04199 0.0
C90 C 0.24023 0.53988 0.0523 0.0
C91 C 0.25015 0.5155 0.99026 0.0
H92 H 0.23297 0.56614 0.01932 0.0
C93 C 0.23729 0.55188 0.01075 0.0
C94 C 0.24167 0.54634 0.95931 0.0
C95 C 0.24773 0.52796 0.94912 0.0
C96 C 0.25934 0.49727 0.98038 0.0
H97 H 0.25167 0.52366 0.90982 0.0
C98 C 0.25093 0.48039 0.99354 0.0
C99 C 0.26034 0.46333 0.98537 0.0
C100 C 0.27708 0.49689 0.95875 0.0
H101 H 0.28383 0.50972 0.94862 0.0
C102 C 0.28644 0.48002 0.95099 0.0
H103 H 0.23721 0.48053 0.00999 0.0
C104 C 0.27818 0.46334 0.96436 0.0
H105 H 0.28561 0.45036 0.9575 0.0
H106 H 0.30014 0.47988 0.93455 0.0
H107 H 0.98806 0.72044 0.45305 0.0
C108 C 0.98105 0.72461 0.48857 0.0
C109 C 0.96452 0.73509 0.48519 0.0
C110 C 0.98795 0.71869 0.53761 0.0
H111 H 0.94193 0.74727 0.52819 0.0
C112 C 0.95506 0.73975 0.53094 0.0
C113 C 0.9616 0.7336 0.57971 0.0
C114 C 0.97807 0.7231 0.5831 0.0
C115 C 0.00406 0.7059 0.54041 0.0
H116 H 0.98286 0.71786 0.62064 0.0
C117 C 0.02235 0.71229 0.53357 0.0
C118 C 0.03746 0.69971 0.53518 0.0
C119 C 1.00098 0.68698 0.54927 0.0
H120 H 0.98698 0.68186 0.55464 0.0
C121 C 0.01588 0.67448 0.55052 0.0
H122 H 0.02478 0.72691 0.52686 0.0
C123 C 0.034 0.68075 0.54335 0.0
H124 H 0.04539 0.67083 0.54508 0.0
H125 H 0.01339 0.65989 0.55715 0.0
H126 H 0.78732 0.48885 0.95278 0.0
C127 C 0.7819 0.48307 0.98786 0.0
C128 C 0.77268 0.46581 0.98447 0.0
C129 C 0.7854 0.49216 0.03717 0.0
H130 H 0.7597 0.44443 0.02718 0.0
C131 C 0.7664 0.45802 0.03012 0.0
C132 C 0.76971 0.46688 0.07959 0.0
C133 C 0.77941 0.48396 0.08298 0.0
C134 C 0.79787 0.50855 0.0414 0.0
H135 H 0.78268 0.49065 0.1211 0.0
C136 C 0.79104 0.52673 0.03442 0.0
C137 C 0.80347 0.54201 0.03625 0.0
C138 C 0.81704 0.50574 0.05097 0.0
H139 H 0.82249 0.49182 0.05638 0.0
C140 C 0.82935 0.52083 0.05303 0.0
H141 H 0.77623 0.52893 0.02686 0.0
C142 C 0.82266 0.53884 0.04552 0.0
H143 H 0.83247 0.55036 0.04763 0.0
H144 H 0.84413 0.51855 0.06035 0.0
H145 H 0.00569 0.25175 0.56182 0.0
C146 C 0.01518 0.25649 0.53298 0.0
C147 C 0.03308 0.26287 0.54941 0.0
C148 C 0.01009 0.25499 0.47904 0.0
H149 H 0.05975 0.2722 0.52499 0.0
C150 C 0.04577 0.26788 0.51196 0.0
C151 C 0.04133 0.26558 0.45808 0.0
C152 C 0.02325 0.25968 0.44193 0.0
C153 C 0.99214 0.24611 0.46073 0.0
H154 H 0.01976 0.25759 0.40035 0.0
C155 C 0.97491 0.25194 0.48082 0.0
C156 C 0.95807 0.24334 0.4621 0.0
C157 C 0.99235 0.23147 0.42242 0.0
H158 H 0.00539 0.2265 0.40692 0.0
C159 C 0.97581 0.22296 0.40392 0.0
H160 H 0.97463 0.26313 0.51057 0.0
C161 C 0.95881 0.22886 0.4233 0.0
H162 H 0.94616 0.22224 0.40717 0.0
H163 H 0.97615 0.21178 0.37419 0.0
H164 H 0.75084 0.9991 0.45574 0.0
C165 C 0.74843 0.98989 0.48757 0.0
C166 C 0.74218 0.97151 0.4761 0.0
C167 C 0.75274 0.99595 0.53994 0.0
H168 H 0.73603 0.94501 0.50881 0.0
C169 C 0.7401 0.9594 0.51747 0.0
C170 C 0.74489 0.96498 0.56946 0.0
C171 C 0.75065 0.98343 0.58066 0.0
C172 C 0.76168 0.01441 0.55209 0.0
H173 H 0.7546 0.98772 0.62081 0.0
C174 C 0.75437 0.03101 0.53146 0.0
C175 C 0.76295 0.0484 0.54483 0.0
C176 C 0.77784 0.01536 0.58518 0.0
H177 H 0.78399 0.00282 0.60077 0.0
C178 C 0.78634 0.03242 0.5984 0.0
H179 H 0.74203 0.03037 0.50556 0.0
C180 C 0.77893 0.04881 0.57881 0.0
H181 H 0.78561 0.06189 0.59111 0.0
H182 H 0.79867 0.03297 0.6243 0.0
H183 H 0.51244 0.21962 0.06079 0.0
C184 C 0.51881 0.22532 0.02694 0.0
C185 C 0.53501 0.23624 0.03385 0.0
C186 C 0.51137 0.22099 0.97609 0.0
H187 H 0.55663 0.25061 0.99568 0.0
C188 C 0.54365 0.24291 0.98991 0.0
C189 C 0.53671 0.23832 0.93878 0.0
C190 C 0.52045 0.22735 0.93216 0.0
C191 C 0.49562 0.20779 0.9686 0.0
H192 H 0.51506 0.22341 0.89296 0.0
C193 C 0.4771 0.21352 0.97639 0.0
C194 C 0.46235 0.20051 0.97025 0.0
C195 C 0.49929 0.18912 0.95419 0.0
H196 H 0.51347 0.18452 0.94799 0.0
C197 C 0.48475 0.17621 0.94826 0.0
H198 H 0.47424 0.22795 0.98748 0.0
C199 C 0.46641 0.18181 0.95639 0.0
H200 H 0.45532 0.17156 0.95102 0.0
H201 H 0.48769 0.1618 0.93728 0.0
H202 H 0.28023 0.01985 0.5715 0.0
C203 C 0.27802 0.0264 0.53415 0.0
C204 C 0.26789 0.04322 0.53133 0.0
C205 C 0.28602 0.01834 0.48911 0.0
H206 H 0.25822 0.06458 0.47896 0.0
C207 C 0.26539 0.05134 0.48219 0.0
C208 C 0.27307 0.04327 0.43706 0.0
C209 C 0.28364 0.02692 0.44064 0.0
C210 C 0.29878 0.00229 0.49398 0.0
H211 H 0.29016 0.02102 0.40608 0.0
C212 C 0.29196 0.98404 0.49866 0.0
C213 C 0.3045 0.96902 0.50442 0.0
C214 C 0.31809 0.00545 0.49464 0.0
H215 H 0.32354 0.01942 0.49102 0.0
C216 C 0.33053 0.99066 0.50054 0.0
H217 H 0.27704 0.98157 0.4981 0.0
C218 C 0.32382 0.97257 0.50555 0.0
H219 H 0.33376 0.96128 0.50942 0.0
H220 H 0.34542 0.9932 0.50114 0.0
H221 H 0.49417 0.75161 0.94532 0.0
C222 C 0.48491 0.75429 0.9774 0.0
C223 C 0.46702 0.76174 0.96707 0.0
C224 C 0.49034 0.74911 0.02852 0.0
H225 H 0.44105 0.76992 0.00074 0.0
C226 C 0.45491 0.76444 0.00871 0.0
C227 C 0.45968 0.75856 0.05932 0.0
C228 C 0.47763 0.75135 0.06915 0.0
C229 C 0.50826 0.73921 0.0388 0.0
H230 H 0.48145 0.74652 0.10789 0.0
C231 C 0.52542 0.74622 0.02253 0.0
C232 C 0.54231 0.73683 0.03459 0.0
C233 C 0.50811 0.72253 0.06603 0.0
H234 H 0.49512 0.71663 0.07817 0.0
C235 C 0.52468 0.71321 0.0779 0.0
H236 H 0.5256 0.75899 0.00112 0.0
C237 C 0.54163 0.72033 0.06278 0.0
H238 H 0.55428 0.713 0.07411 0.0
H239 H 0.52439 0.70048 0.09936 0.0
H240 H 0.14922 0.2213 0.08633 0.0
H241 H 0.12405 0.23139 0.14191 0.0
H242 H 0.16275 0.265 0.23865 0.0
H243 H 0.18826 0.25507 0.18252 0.0
H244 H 0.12082 0.22425 0.24146 0.0
H245 H 0.13759 0.3021 0.2947 0.0
H246 H 0.15081 0.3297 0.25456 0.0
H247 H 0.13638 0.30638 0.10063 0.0
H248 H 0.12288 0.27876 0.1398 0.0
H249 H 0.07658 0.25173 0.4689 0.0
H250 H 0.10054 0.24993 0.40393 0.0
H251 H 0.06424 0.27805 0.29373 0.0
H252 H 0.04008 0.28041 0.35966 0.0
H253 H 0.10282 0.28915 0.29171 0.0
H254 H 0.0653 0.23372 0.28119 0.0
H255 H 0.04932 0.20675 0.31665 0.0
H256 H 0.10195 0.18527 0.37335 0.0
H257 H 0.11822 0.21229 0.33898 0.0
C258 C 0.15249 0.23092 0.11922 0.0
C259 C 0.17089 0.2372 0.13023 0.0
C260 C 0.13801 0.2367 0.15094 0.0
C261 C 0.14148 0.24894 0.19442 0.0
C262 C 0.15971 0.25569 0.20494 0.0
C263 C 0.1743 0.24991 0.17301 0.0
C264 C 0.12622 0.2534 0.2306 0.0
C265 C 0.11692 0.23846 0.25228 0.0
C266 C 0.1209 0.27193 0.24426 0.0
C267 C 0.12937 0.28828 0.22024 0.0
C268 C 0.13724 0.30286 0.25229 0.0
C269 C 0.14476 0.31852 0.2297 0.0
C270 C 0.14441 0.3198 0.1751 0.0
C271 C 0.13667 0.30536 0.14293 0.0
C272 C 0.12912 0.28967 0.1653 0.0
C273 C 0.07379 0.25805 0.43147 0.0
C274 C 0.05639 0.26633 0.41961 0.0
C275 C 0.08749 0.25686 0.3942 0.0
C276 C 0.0841 0.26372 0.34399 0.0
C277 C 0.0671 0.27269 0.3324 0.0
C278 C 0.05328 0.27389 0.36987 0.0
C279 C 0.09779 0.26 0.3028 0.0
C280 C 0.10679 0.27499 0.28053 0.0
C281 C 0.10267 0.2415 0.28768 0.0
C282 C 0.09296 0.22511 0.30789 0.0
C283 C 0.07345 0.22332 0.30156 0.0
C284 C 0.06434 0.20801 0.32143 0.0
C285 C 0.07461 0.19433 0.34733 0.0
C286 C 0.09401 0.19589 0.35331 0.0
C287 C 0.10319 0.21119 0.33361 0.0
H288 H 0.06753 0.18249 0.36268 0.0
H289 H 0.15007 0.33201 0.15772 0.0
H290 H 0.28832 0.65563 0.5974 0.0
H291 H 0.27947 0.62969 0.64989 0.0
H292 H 0.24303 0.66589 0.73801 0.0
H293 H 0.2517 0.69214 0.685 0.0
H294 H 0.28568 0.62604 0.75136 0.0
H295 H 0.2066 0.63889 0.78011 0.0
H296 H 0.17906 0.65094 0.73121 0.0
H297 H 0.20492 0.63789 0.58509 0.0
H298 H 0.23252 0.62559 0.63303 0.0
H299 H 0.25643 0.58124 0.9713 0.0
H300 H 0.25956 0.60447 0.90506 0.0
H301 H 0.23322 0.56702 0.78823 0.0
H302 H 0.22963 0.54357 0.85527 0.0
H303 H 0.22119 0.60477 0.78118 0.0
H304 H 0.27793 0.56987 0.78841 0.0
H305 H 0.30522 0.55506 0.8314 0.0
H306 H 0.32436 0.60857 0.89297 0.0
H307 H 0.29701 0.62368 0.85102 0.0
C308 C 0.27836 0.65818 0.62775 0.0
C309 C 0.27085 0.6761 0.63716 0.0
C310 C 0.2733 0.64326 0.65773 0.0
C311 C 0.26056 0.64581 0.69774 0.0
C312 C 0.25275 0.66356 0.70689 0.0
C313 C 0.25782 0.67858 0.67681 0.0
C314 C 0.25647 0.63008 0.73179 0.0
C315 C 0.27156 0.62141 0.75774 0.0
C316 C 0.23809 0.62377 0.7394 0.0
C317 C 0.22169 0.63146 0.71024 0.0
C318 C 0.2064 0.63856 0.73755 0.0
C319 C 0.19076 0.64542 0.71 0.0
C320 C 0.19022 0.64511 0.65509 0.0
C321 C 0.20536 0.6381 0.62762 0.0
C322 C 0.22103 0.63124 0.65498 0.0
C323 C 0.25092 0.57801 0.93182 0.0
C324 C 0.24262 0.56059 0.91863 0.0
C325 C 0.25287 0.59128 0.8939 0.0
C326 C 0.24672 0.58742 0.84175 0.0
C327 C 0.23802 0.57025 0.82838 0.0
C328 C 0.2361 0.55685 0.86651 0.0
C329 C 0.25037 0.60112 0.80128 0.0
C330 C 0.23526 0.60943 0.77444 0.0
C331 C 0.26877 0.6069 0.79189 0.0
C332 C 0.28533 0.59789 0.81691 0.0
C333 C 0.28788 0.57847 0.81145 0.0
C334 C 0.30337 0.57002 0.83559 0.0
C335 C 0.31649 0.58086 0.86499 0.0
C336 C 0.31417 0.60018 0.87021 0.0
C337 C 0.29868 0.6087 0.84623 0.0
H338 H 0.32848 0.57429 0.88363 0.0
H339 H 0.17808 0.65037 0.63383 0.0
H340 H 0.84943 0.80239 0.15034 0.0
H341 H 0.87632 0.79294 0.2044 0.0
H342 H 0.84958 0.74025 0.22964 0.0
H343 H 0.82216 0.75008 0.17739 0.0
H344 H 0.86551 0.7514 0.31604 0.0
H345 H 0.88641 0.74523 0.14171 0.0
H346 H 0.8921 0.75457 0.05154 0.0
H347 H 0.92833 0.79861 0.11232 0.0
H348 H 0.92263 0.78973 0.20294 0.0
H349 H 0.94893 0.71011 0.41444 0.0
H350 H 0.92632 0.71698 0.34296 0.0
H351 H 0.93606 0.77591 0.37129 0.0
H352 H 0.95822 0.76907 0.44399 0.0
H353 H 0.9298 0.75909 0.254 0.0
H354 H 0.90491 0.76439 0.43157 0.0
H355 H 0.90057 0.75113 0.51822 0.0
H356 H 0.8721 0.70388 0.44411 0.0
H357 H 0.8768 0.71657 0.35685 0.0
C358 C 0.84926 0.78878 0.16742 0.0
C359 C 0.8337 0.77693 0.1594 0.0
C360 C 0.86473 0.78333 0.19806 0.0
C361 C 0.86525 0.76567 0.22017 0.0
C362 C 0.84959 0.75391 0.21286 0.0
C363 C 0.83392 0.75953 0.18301 0.0
C364 C 0.88199 0.75972 0.25171 0.0
C365 C 0.8795 0.75287 0.30192 0.0
C366 C 0.90038 0.76158 0.23367 0.0
C367 C 0.90397 0.7669 0.17919 0.0
C368 C 0.89549 0.75699 0.13588 0.0
C369 C 0.89873 0.76218 0.08468 0.0
C370 C 0.91054 0.77719 0.07622 0.0
C371 C 0.91917 0.787 0.11894 0.0
C372 C 0.91596 0.78188 0.17024 0.0
C373 C 0.94673 0.72447 0.40399 0.0
C374 C 0.95533 0.73909 0.43411 0.0
C375 C 0.93381 0.72838 0.36342 0.0
C376 C 0.92957 0.74693 0.35208 0.0
C377 C 0.9393 0.76151 0.3793 0.0
C378 C 0.95193 0.75762 0.42064 0.0
C379 C 0.91312 0.75116 0.31783 0.0
C380 C 0.91572 0.75762 0.26746 0.0
C381 C 0.89482 0.74855 0.33509 0.0
C382 C 0.8914 0.74131 0.38766 0.0
C383 C 0.89788 0.75109 0.43371 0.0
C384 C 0.89534 0.7437 0.48294 0.0
C385 C 0.88608 0.72668 0.48666 0.0
C386 C 0.87929 0.71705 0.44116 0.0
C387 C 0.88191 0.72432 0.39181 0.0
H388 H 0.88414 0.72098 0.52481 0.0
H389 H 0.91302 0.78119 0.03654 0.0
H390 H 0.75071 0.32257 0.68004 0.0
H391 H 0.7606 0.34894 0.73788 0.0
H392 H 0.71968 0.38402 0.66198 0.0
H393 H 0.70986 0.35782 0.60331 0.0
H394 H 0.75227 0.40257 0.68096 0.0
H395 H 0.71094 0.36603 0.77862 0.0
H396 H 0.69891 0.33743 0.81624 0.0
H397 H 0.75034 0.33125 0.90592 0.0
H398 H 0.76279 0.35968 0.86822 0.0
H399 H 0.75081 0.47189 0.89637 0.0
H400 H 0.74405 0.44922 0.82304 0.0
H401 H 0.78433 0.41128 0.89014 0.0
H402 H 0.7908 0.43371 0.96327 0.0
H403 H 0.75091 0.3951 0.87352 0.0
H404 H 0.79194 0.43254 0.7752 0.0
H405 H 0.80304 0.46155 0.73775 0.0
H406 H 0.75101 0.46677 0.65032 0.0
H407 H 0.73948 0.43792 0.68785 0.0
C408 C 0.74381 0.33588 0.67545 0.0
C409 C 0.72935 0.33797 0.63725 0.0
C410 C 0.74948 0.35095 0.70863 0.0
C411 C 0.74071 0.36839 0.70468 0.0
C412 C 0.72663 0.37069 0.66575 0.0
C413 C 0.72097 0.35564 0.63243 0.0
C414 C 0.74583 0.38402 0.74237 0.0
C415 C 0.75179 0.40104 0.72308 0.0
C416 C 0.74533 0.38196 0.79729 0.0
C417 C 0.73787 0.36488 0.82019 0.0
C418 C 0.71974 0.35849 0.80604 0.0
C419 C 0.71284 0.34232 0.82743 0.0
C420 C 0.72388 0.3325 0.86334 0.0
C421 C 0.74182 0.33885 0.87804 0.0
C422 C 0.74881 0.355 0.8567 0.0
C423 C 0.75853 0.45891 0.89434 0.0
C424 C 0.77131 0.45443 0.93502 0.0
C425 C 0.75468 0.44598 0.85266 0.0
C426 C 0.76366 0.42852 0.85126 0.0
C427 C 0.77719 0.4246 0.89054 0.0
C428 C 0.78095 0.43742 0.93207 0.0
C429 C 0.75778 0.41355 0.81228 0.0
C430 C 0.75149 0.39666 0.83141 0.0
C431 C 0.75786 0.41583 0.75738 0.0
C432 C 0.76477 0.43317 0.73479 0.0
C433 C 0.7828 0.43996 0.74837 0.0
C434 C 0.78918 0.45636 0.72704 0.0
C435 C 0.77772 0.46603 0.6918 0.0
C436 C 0.75986 0.45928 0.6777 0.0
C437 C 0.7534 0.4429 0.69895 0.0
H438 H 0.78269 0.47871 0.67532 0.0
H439 H 0.7185 0.31999 0.87987 0.0
H440 H 0.67737 0.25022 0.3471 0.0
H441 H 0.6503 0.24043 0.29168 0.0
H442 H 0.622 0.2916 0.3344 0.0
H443 H 0.64873 0.30116 0.3914 0.0
H444 H 0.59807 0.26457 0.33253 0.0
H445 H 0.64348 0.28449 0.21386 0.0
H446 H 0.67411 0.28556 0.17321 0.0
H447 H 0.66917 0.22753 0.12661 0.0
H448 H 0.6386 0.22605 0.16764 0.0
H449 H 0.53905 0.26831 0.09375 0.0
H450 H 0.56152 0.27386 0.16806 0.0
H451 H 0.57708 0.21575 0.16024 0.0
H452 H 0.55421 0.21009 0.08709 0.0
H453 H 0.60664 0.24466 0.14641 0.0
H454 H 0.55876 0.22691 0.26199 0.0
H455 H 0.52751 0.22838 0.29909 0.0
H456 H 0.53653 0.28588 0.34661 0.0
H457 H 0.56775 0.28484 0.30902 0.0
C458 C 0.6654 0.25941 0.34464 0.0
C459 C 0.66529 0.27654 0.37339 0.0
C460 C 0.64993 0.25381 0.31282 0.0
C461 C 0.63418 0.2654 0.30812 0.0
C462 C 0.63395 0.2824 0.33734 0.0
C463 C 0.6493 0.28788 0.36976 0.0
C464 C 0.61806 0.25996 0.2722 0.0
C465 C 0.59996 0.26039 0.29171 0.0
C466 C 0.62046 0.25428 0.219 0.0
C467 C 0.63885 0.25511 0.19435 0.0
C468 C 0.64899 0.27192 0.19532 0.0
C469 C 0.66633 0.27261 0.17215 0.0
C470 C 0.67361 0.25661 0.14748 0.0
C471 C 0.66353 0.2399 0.14583 0.0
C472 C 0.64619 0.23913 0.16901 0.0
C473 C 0.54676 0.25664 0.10943 0.0
C474 C 0.5448 0.23874 0.08558 0.0
C475 C 0.55961 0.25981 0.15154 0.0
C476 C 0.57091 0.2452 0.16947 0.0
C477 C 0.56838 0.22715 0.14709 0.0
C478 C 0.55527 0.22391 0.10571 0.0
C479 C 0.58682 0.24925 0.20688 0.0
C480 C 0.60485 0.24868 0.18741 0.0
C481 C 0.5843 0.25517 0.25962 0.0
C482 C 0.56552 0.25585 0.28216 0.0
C483 C 0.55401 0.23993 0.27983 0.0
C484 C 0.53631 0.24067 0.30108 0.0
C485 C 0.53002 0.25723 0.32506 0.0
C486 C 0.54142 0.27307 0.32795 0.0
C487 C 0.55912 0.27241 0.30672 0.0
H488 H 0.51632 0.25777 0.34152 0.0
H489 H 0.68703 0.25717 0.12954 0.0
H490 H 0.21039 0.15029 0.92001 0.0
H491 H 0.21909 0.12264 0.86793 0.0
H492 H 0.25033 0.15704 0.76716 0.0
H493 H 0.24203 0.18479 0.81976 0.0
H494 H 0.21147 0.11196 0.77273 0.0
H495 H 0.2872 0.13394 0.71996 0.0
H496 H 0.31451 0.14993 0.76302 0.0
H497 H 0.29429 0.13801 0.91466 0.0
H498 H 0.26699 0.1218 0.87261 0.0
H499 H 0.23623 0.06454 0.54142 0.0
H500 H 0.22862 0.0856 0.61408 0.0
H501 H 0.27575 0.06517 0.70549 0.0
H502 H 0.28464 0.04541 0.63059 0.0
H503 H 0.27618 0.0994 0.71903 0.0
H504 H 0.22743 0.05606 0.73293 0.0
H505 H 0.20125 0.03525 0.70474 0.0
H506 H 0.16893 0.08243 0.65615 0.0
H507 H 0.19501 0.10351 0.68338 0.0
C508 C 0.21916 0.15204 0.88684 0.0
C509 C 0.22547 0.16985 0.87408 0.0
C510 C 0.22411 0.13616 0.85705 0.0
C511 C 0.23549 0.13768 0.81381 0.0
C512 C 0.24181 0.15543 0.8009 0.0
C513 C 0.23695 0.17133 0.83086 0.0
C514 C 0.24018 0.12084 0.78099 0.0
C515 C 0.22563 0.10916 0.76113 0.0
C516 C 0.25873 0.11666 0.76759 0.0
C517 C 0.27496 0.12677 0.79305 0.0
C518 C 0.28859 0.1347 0.76248 0.0
C519 C 0.30408 0.14379 0.78672 0.0
C520 C 0.30615 0.14494 0.84152 0.0
C521 C 0.29267 0.13713 0.87222 0.0
C522 C 0.27716 0.12803 0.84819 0.0
C523 C 0.2451 0.06451 0.57678 0.0
C524 C 0.26127 0.05337 0.57945 0.0
C525 C 0.24049 0.0764 0.61895 0.0
C526 C 0.25145 0.07695 0.66589 0.0
C527 C 0.26705 0.06511 0.66977 0.0
C528 C 0.27197 0.05355 0.62698 0.0
C529 C 0.24737 0.09083 0.70908 0.0
C530 C 0.26203 0.10202 0.7309 0.0
C531 C 0.22902 0.09396 0.72637 0.0
C532 C 0.21324 0.08136 0.70992 0.0
C533 C 0.21479 0.06199 0.71592 0.0
C534 C 0.19995 0.05015 0.70015 0.0
C535 C 0.18345 0.05751 0.6786 0.0
C536 C 0.18173 0.07674 0.67285 0.0
C537 C 0.19652 0.08865 0.68853 0.0
H538 H 0.17198 0.04831 0.66641 0.0
H539 H 0.3182 0.15189 0.86021 0.0
H540 H 0.31065 0.74016 0.31362 0.0
H541 H 0.33669 0.74724 0.2578 0.0
H542 H 0.37588 0.73598 0.3852 0.0
H543 H 0.35001 0.72839 0.44081 0.0
H544 H 0.38141 0.77133 0.31925 0.0
H545 H 0.37397 0.70371 0.31146 0.0
H546 H 0.35527 0.67491 0.29879 0.0
H547 H 0.33845 0.69063 0.14306 0.0
H548 H 0.35683 0.7197 0.15519 0.0
H549 H 0.46343 0.76465 0.16705 0.0
H550 H 0.43949 0.76087 0.23182 0.0
H551 H 0.39882 0.74759 0.10668 0.0
H552 H 0.42274 0.74972 0.04272 0.0
H553 H 0.39478 0.72454 0.17714 0.0
H554 H 0.40111 0.79127 0.17986 0.0
H555 H 0.41764 0.82144 0.18944 0.0
H556 H 0.4342 0.80972 0.34854 0.0
H557 H 0.41796 0.77934 0.33968 0.0
C558 C 0.3248 0.73936 0.32984 0.0
C559 C 0.32832 0.73357 0.38136 0.0
C560 C 0.33962 0.74341 0.29801 0.0
C561 C 0.35812 0.74212 0.3176 0.0
C562 C 0.36167 0.73709 0.36961 0.0
C563 C 0.34689 0.73264 0.40108 0.0
C564 C 0.37377 0.74476 0.28256 0.0
C565 C 0.38456 0.76106 0.28846 0.0
C566 C 0.37749 0.7315 0.24197 0.0
C567 C 0.36659 0.71396 0.23446 0.0
C568 C 0.36613 0.70111 0.27472 0.0
C569 C 0.35563 0.68472 0.2676 0.0
C570 C 0.34563 0.68097 0.22021 0.0
C571 C 0.34617 0.69357 0.17978 0.0
C572 C 0.35664 0.71 0.18675 0.0
C573 C 0.44941 0.76083 0.15338 0.0
C574 C 0.44507 0.75773 0.09938 0.0
C575 C 0.43566 0.7589 0.19045 0.0
C576 C 0.41723 0.75417 0.17419 0.0
C577 C 0.41288 0.75129 0.12038 0.0
C578 C 0.42661 0.75284 0.08359 0.0
C579 C 0.40249 0.7514 0.21272 0.0
C580 C 0.39181 0.73493 0.20775 0.0
C581 C 0.39871 0.76472 0.2535 0.0
C582 C 0.4085 0.78294 0.2589 0.0
C583 C 0.40841 0.79506 0.21675 0.0
C584 C 0.4177 0.81221 0.22207 0.0
C585 C 0.42701 0.81747 0.26951 0.0
C586 C 0.42701 0.80561 0.31178 0.0
C587 C 0.41776 0.78843 0.30665 0.0
H588 H 0.43419 0.83075 0.27356 0.0
H589 H 0.33751 0.66827 0.21476 0.0
H590 H 0.7536 0.81882 0.8469 0.0
H591 H 0.74577 0.84458 0.78959 0.0
H592 H 0.78041 0.88174 0.88823 0.0
H593 H 0.78844 0.85623 0.94531 0.0
H594 H 0.72978 0.87976 0.804 0.0
H595 H 0.80492 0.90875 0.80826 0.0
H596 H 0.83727 0.89774 0.82267 0.0
H597 H 0.82086 0.84241 0.76922 0.0
H598 H 0.78849 0.85315 0.7538 0.0
H599 H 0.73278 0.96704 0.67087 0.0
H600 H 0.73638 0.94316 0.7374 0.0
H601 H 0.76424 0.90717 0.62574 0.0
H602 H 0.76107 0.93087 0.56016 0.0
H603 H 0.78295 0.90895 0.71851 0.0
H604 H 0.71951 0.8992 0.65382 0.0
H605 H 0.68695 0.90845 0.63379 0.0
H606 H 0.67949 0.92224 0.79715 0.0
H607 H 0.71212 0.9133 0.81804 0.0
C608 C 0.75945 0.8325 0.85665 0.0
C609 C 0.77186 0.83535 0.90037 0.0
C610 C 0.75487 0.84722 0.82401 0.0
C611 C 0.76267 0.86499 0.83443 0.0
C612 C 0.77442 0.86807 0.87918 0.0
C613 C 0.77901 0.85341 0.91172 0.0
C614 C 0.75962 0.88002 0.79672 0.0
C615 C 0.74139 0.88622 0.78542 0.0
C616 C 0.77477 0.88828 0.77213 0.0
C617 C 0.79425 0.88172 0.78046 0.0
C618 C 0.80824 0.89425 0.79942 0.0
C619 C 0.82657 0.88806 0.80778 0.0
C620 C 0.8311 0.86938 0.79705 0.0
C621 C 0.81732 0.85686 0.77771 0.0
C622 C 0.79898 0.86299 0.76922 0.0
C623 C 0.73965 0.95402 0.66074 0.0
C624 C 0.74643 0.95073 0.61016 0.0
C625 C 0.74161 0.94037 0.69856 0.0
C626 C 0.75047 0.92335 0.68631 0.0
C627 C 0.75733 0.92017 0.63599 0.0
C628 C 0.75534 0.93368 0.59838 0.0
C629 C 0.75309 0.9088 0.72572 0.0
C630 C 0.77132 0.90268 0.73746 0.0
C631 C 0.73791 0.90044 0.74988 0.0
C632 C 0.7183 0.90578 0.7374 0.0
C633 C 0.71097 0.90436 0.6854 0.0
C634 C 0.6925 0.90951 0.67391 0.0
C635 C 0.68118 0.91598 0.71415 0.0
C636 C 0.68829 0.91726 0.766 0.0
C637 C 0.70677 0.91214 0.7777 0.0
H638 H 0.66687 0.91996 0.70518 0.0
H639 H 0.8453 0.86461 0.8036 0.0
H640 H 0.82056 0.7499 0.86904 0.0
H641 H 0.84689 0.7411 0.81475 0.0
H642 H 0.87749 0.7895 0.87565 0.0
H643 H 0.85141 0.79836 0.93017 0.0
H644 H 0.87749 0.78515 0.76623 0.0
H645 H 0.89011 0.749 0.91803 0.0
H646 H 0.88268 0.72678 0.98578 0.0
H647 H 0.87257 0.68371 0.86636 0.0
H648 H 0.87968 0.70575 0.79776 0.0
H649 H 0.96361 0.76201 0.65363 0.0
H650 H 0.94086 0.76923 0.72137 0.0
H651 H 0.90983 0.71949 0.67309 0.0
H652 H 0.93267 0.71225 0.60597 0.0
H653 H 0.91094 0.7248 0.77951 0.0
H654 H 0.8969 0.761 0.62769 0.0
H655 H 0.90358 0.78322 0.55917 0.0
H656 H 0.9156 0.82611 0.67776 0.0
H657 H 0.90924 0.80411 0.74707 0.0
C658 C 0.83291 0.75865 0.87099 0.0
C659 C 0.83386 0.77484 0.904 0.0
C660 C 0.84796 0.75356 0.84011 0.0
C661 C 0.86415 0.76463 0.84141 0.0
C662 C 0.86512 0.78078 0.87413 0.0
C663 C 0.8502 0.78577 0.90541 0.0
C664 C 0.87993 0.7596 0.80771 0.0
C665 C 0.885 0.77208 0.76963 0.0
C666 C 0.88943 0.74239 0.81154 0.0
C667 C 0.88525 0.72908 0.8527 0.0
C668 C 0.88615 0.73483 0.90616 0.0
C669 C 0.88203 0.72227 0.94473 0.0
C670 C 0.87711 0.70387 0.93037 0.0
C671 C 0.87636 0.69798 0.87741 0.0
C672 C 0.88045 0.71049 0.83867 0.0
C673 C 0.95213 0.75248 0.65856 0.0
C674 C 0.94984 0.73654 0.62537 0.0
C675 C 0.93911 0.75663 0.69682 0.0
C676 C 0.92354 0.74498 0.70187 0.0
C677 C 0.92174 0.72863 0.66999 0.0
C678 C 0.93475 0.72449 0.63181 0.0
C679 C 0.90851 0.75036 0.73796 0.0
C680 C 0.90352 0.73792 0.77634 0.0
C681 C 0.89901 0.7676 0.73429 0.0
C682 C 0.9028 0.78085 0.6926 0.0
C683 C 0.90112 0.77513 0.63918 0.0
C684 C 0.90482 0.78768 0.6002 0.0
C685 C 0.91007 0.80602 0.61412 0.0
C686 C 0.91157 0.81188 0.66705 0.0
C687 C 0.90791 0.79939 0.7062 0.0
H688 H 0.91292 0.81572 0.58387 0.0
H689 H 0.87392 0.69416 0.96029 0.0
H690 H 0.73644 0.32183 0.31715 0.0
H691 H 0.74596 0.3491 0.26964 0.0
H692 H 0.7338 0.38488 0.4041 0.0
H693 H 0.72359 0.35788 0.45068 0.0
H694 H 0.7206 0.40022 0.32318 0.0
H695 H 0.77983 0.37373 0.36754 0.0
H696 H 0.80371 0.34906 0.37356 0.0
H697 H 0.80339 0.34308 0.20519 0.0
H698 H 0.77931 0.36754 0.19816 0.0
H699 H 0.79134 0.46071 0.16819 0.0
H700 H 0.78459 0.4393 0.23791 0.0
H701 H 0.73018 0.4282 0.16506 0.0
H702 H 0.73661 0.44995 0.09673 0.0
H703 H 0.77927 0.40317 0.22681 0.0
H704 H 0.69953 0.41524 0.25156 0.0
H705 H 0.67727 0.44147 0.25356 0.0
H706 H 0.72181 0.47943 0.29934 0.0
H707 H 0.7443 0.45341 0.29835 0.0
C708 C 0.73591 0.33551 0.3366 0.0
C709 C 0.72917 0.3377 0.38754 0.0
C710 C 0.74145 0.3511 0.30954 0.0
C711 C 0.74079 0.36911 0.33342 0.0
C712 C 0.73436 0.37121 0.38464 0.0
C713 C 0.72854 0.35572 0.41127 0.0
C714 C 0.74607 0.38587 0.30452 0.0
C715 C 0.73348 0.40087 0.30233 0.0
C716 C 0.76309 0.38702 0.27833 0.0
C717 C 0.77766 0.37238 0.28236 0.0
C718 C 0.78476 0.36707 0.33181 0.0
C719 C 0.79835 0.35314 0.3354 0.0
C720 C 0.80503 0.34448 0.28979 0.0
C721 C 0.79818 0.34978 0.24049 0.0
C722 C 0.78458 0.3637 0.23668 0.0
C723 C 0.77772 0.45416 0.16814 0.0
C724 C 0.76451 0.45697 0.12702 0.0
C725 C 0.77396 0.44178 0.20762 0.0
C726 C 0.75687 0.43212 0.20681 0.0
C727 C 0.74336 0.43563 0.16708 0.0
C728 C 0.74709 0.448 0.12784 0.0
C729 C 0.7536 0.41727 0.24462 0.0
C730 C 0.76651 0.4026 0.24826 0.0
C731 C 0.73712 0.41664 0.27336 0.0
C732 C 0.72363 0.43237 0.27447 0.0
C733 C 0.70457 0.42917 0.2623 0.0
C734 C 0.69191 0.444 0.2632 0.0
C735 C 0.69813 0.46211 0.27643 0.0
C736 C 0.71702 0.46541 0.28892 0.0
C737 C 0.72974 0.45062 0.28811 0.0
H738 H 0.68831 0.47357 0.27709 0.0
H739 H 0.81555 0.33369 0.29266 0.0
H740 H 0.1772 0.2359 0.80659 0.0
H741 H 0.14866 0.2444 0.75746 0.0
H742 H 0.11754 0.24139 0.89873 0.0
H743 H 0.14579 0.23183 0.94701 0.0
H744 H 0.09769 0.22665 0.82686 0.0
H745 H 0.12976 0.28436 0.84089 0.0
H746 H 0.15603 0.30633 0.83566 0.0
H747 H 0.15661 0.29615 0.66855 0.0
H748 H 0.13051 0.27391 0.67285 0.0
H749 H 0.04254 0.29044 0.62216 0.0
H750 H 0.06319 0.28704 0.70023 0.0
H751 H 0.06359 0.22731 0.6706 0.0
H752 H 0.04207 0.23074 0.59525 0.0
H753 H 0.09624 0.27756 0.70049 0.0
H754 H 0.07828 0.20298 0.77038 0.0
H755 H 0.05031 0.18424 0.7858 0.0
H756 H 0.01794 0.23428 0.8044 0.0
H757 H 0.04576 0.25335 0.78983 0.0
C758 C 0.16427 0.23716 0.8271 0.0
C759 C 0.16371 0.23317 0.88054 0.0
C760 C 0.14796 0.24214 0.79911 0.0
C761 C 0.13088 0.24386 0.82443 0.0
C762 C 0.13044 0.24012 0.87808 0.0
C763 C 0.14662 0.2347 0.90571 0.0
C764 C 0.11339 0.24887 0.79462 0.0
C765 C 0.09735 0.23788 0.7995 0.0
C766 C 0.11259 0.26392 0.7602 0.0
C767 C 0.12825 0.27736 0.75727 0.0
C768 C 0.13556 0.28672 0.80306 0.0
C769 C 0.15042 0.29923 0.80026 0.0
C770 C 0.158 0.30261 0.75181 0.0
C771 C 0.15072 0.29351 0.70605 0.0
C772 C 0.13588 0.28097 0.70864 0.0
C773 C 0.04634 0.27657 0.63424 0.0
C774 C 0.04047 0.26081 0.60368 0.0
C775 C 0.05834 0.27461 0.67832 0.0
C776 C 0.06503 0.25689 0.69177 0.0
C777 C 0.05834 0.24109 0.66243 0.0
C778 C 0.046 0.24303 0.61924 0.0
C779 C 0.08064 0.25503 0.73167 0.0
C780 C 0.09641 0.26655 0.72853 0.0
C781 C 0.08089 0.24099 0.76933 0.0
C782 C 0.06411 0.2296 0.77866 0.0
C783 C 0.06523 0.21 0.77807 0.0
C784 C 0.04939 0.19932 0.78658 0.0
C785 C 0.03235 0.20806 0.79596 0.0
C786 C 0.03113 0.22752 0.79697 0.0
C787 C 0.04693 0.23827 0.78851 0.0
H788 H 0.0201 0.19976 0.8025 0.0
H789 H 0.1695 0.3123 0.74972 0.0
H790 H 0.26459 0.68502 0.31244 0.0
H791 H 0.25533 0.6566 0.26186 0.0
H792 H 0.25474 0.62639 0.40532 0.0
H793 H 0.26529 0.65446 0.45518 0.0
H794 H 0.26948 0.60552 0.34111 0.0
H795 H 0.21321 0.63948 0.32965 0.0
H796 H 0.1924 0.66628 0.31444 0.0
H797 H 0.20659 0.66549 0.15215 0.0
H798 H 0.2277 0.63885 0.16653 0.0
H799 H 0.21064 0.55128 0.10965 0.0
H800 H 0.21203 0.57241 0.18779 0.0
H801 H 0.2723 0.57091 0.18759 0.0
H802 H 0.27073 0.54887 0.11245 0.0
H803 H 0.22243 0.60503 0.19336 0.0
H804 H 0.29375 0.58499 0.29698 0.0
H805 H 0.31068 0.5565 0.32162 0.0
H806 H 0.25908 0.52598 0.3177 0.0
H807 H 0.24179 0.55434 0.29378 0.0
C808 C 0.26231 0.67232 0.33303 0.0
C809 C 0.26566 0.67188 0.38757 0.0
C810 C 0.25689 0.65608 0.30421 0.0
C811 C 0.254 0.63928 0.32967 0.0
C812 C 0.25692 0.63906 0.38451 0.0
C813 C 0.26289 0.65512 0.41304 0.0
C814 C 0.24894 0.62175 0.29893 0.0
C815 C 0.25906 0.60539 0.30911 0.0
C816 C 0.23487 0.62122 0.2583 0.0
C817 C 0.22214 0.63722 0.24928 0.0
C818 C 0.21198 0.64509 0.29078 0.0
C819 C 0.20012 0.66025 0.2823 0.0
C820 C 0.19819 0.6676 0.23238 0.0
C821 C 0.2081 0.65978 0.19081 0.0
C822 C 0.22 0.64463 0.19908 0.0
C823 C 0.22409 0.55482 0.12818 0.0
C824 C 0.24057 0.5482 0.10612 0.0
C825 C 0.22493 0.56708 0.17232 0.0
C826 C 0.24228 0.57329 0.19419 0.0
C827 C 0.25871 0.56601 0.173 0.0
C828 C 0.25785 0.55339 0.12989 0.0
C829 C 0.24336 0.58894 0.23456 0.0
C830 C 0.23256 0.605 0.22606 0.0
C831 C 0.25617 0.5889 0.27831 0.0
C832 C 0.26648 0.5718 0.29326 0.0
C833 C 0.28599 0.57224 0.3017 0.0
C834 C 0.29566 0.5561 0.31545 0.0
C835 C 0.28597 0.53943 0.32111 0.0
C836 C 0.26658 0.53888 0.31315 0.0
C837 C 0.25684 0.55499 0.29942 0.0
H838 H 0.29348 0.52695 0.33173 0.0
H839 H 0.189 0.67934 0.2259 0.0
H840 H 0.35201 0.71343 0.59991 0.0
H841 H 0.38019 0.72181 0.65174 0.0
H842 H 0.3515 0.76821 0.7248 0.0
H843 H 0.32291 0.75987 0.6729 0.0
H844 H 0.38956 0.77609 0.6929 0.0
H845 H 0.35569 0.73225 0.79226 0.0
H846 H 0.33887 0.70285 0.80493 0.0
H847 H 0.38772 0.67146 0.76536 0.0
H848 H 0.40475 0.70069 0.75167 0.0
H849 H 0.44584 0.79013 0.92762 0.0
H850 H 0.42398 0.78736 0.85209 0.0
H851 H 0.44815 0.73423 0.80741 0.0
H852 H 0.4694 0.73653 0.8846 0.0
H853 H 0.413 0.72998 0.81984 0.0
H854 H 0.44806 0.77337 0.72667 0.0
H855 H 0.46518 0.80244 0.71231 0.0
H856 H 0.41544 0.83437 0.73768 0.0
H857 H 0.39806 0.80552 0.75294 0.0
C858 C 0.3516 0.7255 0.62672 0.0
C859 C 0.33508 0.7359 0.63245 0.0
C860 C 0.36778 0.73026 0.65629 0.0
C861 C 0.3679 0.74557 0.69217 0.0
C862 C 0.35167 0.75636 0.69715 0.0
C863 C 0.33533 0.75149 0.66777 0.0
C864 C 0.38475 0.74949 0.72637 0.0
C865 C 0.39465 0.76616 0.72117 0.0
C866 C 0.39161 0.73624 0.76192 0.0
C867 C 0.38142 0.71865 0.77039 0.0
C868 C 0.36279 0.71907 0.7858 0.0
C869 C 0.35323 0.70244 0.79325 0.0
C870 C 0.3622 0.6853 0.7858 0.0
C871 C 0.38078 0.68475 0.77103 0.0
C872 C 0.39039 0.70134 0.76345 0.0
C873 C 0.44689 0.77813 0.90073 0.0
C874 C 0.45913 0.7634 0.91261 0.0
C875 C 0.43442 0.7766 0.85726 0.0
C876 C 0.43424 0.76048 0.82414 0.0
C877 C 0.4479 0.74673 0.83264 0.0
C878 C 0.46024 0.74817 0.87649 0.0
C879 C 0.41814 0.75665 0.78658 0.0
C880 C 0.4082 0.73994 0.7913 0.0
C881 C 0.41138 0.76986 0.75049 0.0
C882 C 0.42178 0.78727 0.74138 0.0
C883 C 0.4408 0.7866 0.72963 0.0
C884 C 0.45055 0.80304 0.72124 0.0
C885 C 0.44141 0.82025 0.7242 0.0
C886 C 0.4225 0.82104 0.73544 0.0
C887 C 0.41268 0.80464 0.74389 0.0
H888 H 0.44899 0.83296 0.71768 0.0
H889 H 0.35478 0.67244 0.79161 0.0
H890 H 0.79471 0.85659 0.12529 0.0
H891 H 0.78573 0.88448 0.17543 0.0
H892 H 0.7392 0.85496 0.23547 0.0
H893 H 0.74811 0.82665 0.18506 0.0
H894 H 0.73085 0.89254 0.20169 0.0
H895 H 0.77495 0.86022 0.3129 0.0
H896 H 0.80462 0.84421 0.33364 0.0
H897 H 0.83513 0.89372 0.30106 0.0
H898 H 0.80563 0.90995 0.27935 0.0
H899 H 0.71466 0.9492 0.43095 0.0
H900 H 0.71825 0.92715 0.35688 0.0
H901 H 0.7708 0.9528 0.32403 0.0
H902 H 0.76762 0.97436 0.3998 0.0
H903 H 0.77587 0.91775 0.33919 0.0
H904 H 0.73207 0.95118 0.23378 0.0
H905 H 0.70267 0.96743 0.21156 0.0
H906 H 0.67181 0.917 0.23104 0.0
H907 H 0.701 0.90049 0.25413 0.0
C908 C 0.78251 0.85591 0.14894 0.0
C909 C 0.77219 0.83926 0.15132 0.0
C910 C 0.7774 0.87194 0.17757 0.0
C911 C 0.76186 0.87176 0.20924 0.0
C912 C 0.75124 0.85535 0.21109 0.0
C913 C 0.75643 0.83917 0.18261 0.0
C914 C 0.75739 0.88856 0.24203 0.0
C915 C 0.74053 0.898 0.23226 0.0
C916 C 0.77033 0.89592 0.28064 0.0
C917 C 0.78809 0.88623 0.29398 0.0
C918 C 0.78799 0.86764 0.30972 0.0
C919 C 0.80478 0.85854 0.32173 0.0
C920 C 0.82176 0.86793 0.31853 0.0
C921 C 0.82197 0.88646 0.30344 0.0
C922 C 0.80522 0.89562 0.29132 0.0
C923 C 0.72667 0.95055 0.4068 0.0
C924 C 0.74098 0.96333 0.42163 0.0
C925 C 0.72868 0.93796 0.36421 0.0
C926 C 0.74489 0.93816 0.33497 0.0
C927 C 0.75823 0.95227 0.34624 0.0
C928 C 0.7563 0.96477 0.38921 0.0
C929 C 0.74926 0.92203 0.29901 0.0
C930 C 0.76615 0.91255 0.30835 0.0
C931 C 0.73634 0.91475 0.25994 0.0
C932 C 0.71874 0.92463 0.24611 0.0
C933 C 0.719 0.94359 0.23377 0.0
C934 C 0.70238 0.95284 0.22092 0.0
C935 C 0.68538 0.94327 0.22 0.0
C936 C 0.68499 0.92441 0.23181 0.0
C937 C 0.70158 0.91508 0.2447 0.0
H938 H 0.67253 0.95046 0.21004 0.0
H939 H 0.83474 0.86085 0.32785 0.0
H940 H 0.68313 0.27151 0.69731 0.0
H941 H 0.65635 0.26362 0.74899 0.0
H942 H 0.61927 0.27279 0.61494 0.0
H943 H 0.64586 0.28154 0.5641 0.0
H944 H 0.60438 0.2872 0.696 0.0
H945 H 0.63253 0.228 0.65736 0.0
H946 H 0.65877 0.20584 0.65393 0.0
H947 H 0.66489 0.20887 0.82238 0.0
H948 H 0.63898 0.23145 0.82674 0.0
H949 H 0.54524 0.21635 0.85268 0.0
H950 H 0.56729 0.22332 0.78505 0.0
H951 H 0.57634 0.27823 0.85675 0.0
H952 H 0.55381 0.27163 0.92301 0.0
H953 H 0.60323 0.22974 0.79827 0.0
H954 H 0.58938 0.30865 0.76834 0.0
H955 H 0.56277 0.33045 0.76577 0.0
H956 H 0.5255 0.28509 0.72225 0.0
H957 H 0.55192 0.26306 0.72383 0.0
C958 C 0.66927 0.27174 0.67886 0.0
C959 C 0.6666 0.2771 0.62665 0.0
C960 C 0.65396 0.26717 0.70836 0.0
C961 C 0.63574 0.26733 0.68571 0.0
C962 C 0.63313 0.27259 0.63343 0.0
C963 C 0.64836 0.27753 0.60433 0.0
C964 C 0.61936 0.26228 0.71653 0.0
C965 C 0.60413 0.2746 0.71821 0.0
C966 C 0.61877 0.24564 0.74472 0.0
C967 C 0.6339 0.23153 0.74233 0.0
C968 C 0.63951 0.22399 0.69366 0.0
C969 C 0.65435 0.21137 0.69156 0.0
C970 C 0.66351 0.20595 0.73792 0.0
C971 C 0.65779 0.21309 0.7865 0.0
C972 C 0.64304 0.22581 0.78881 0.0
C973 C 0.5515 0.23011 0.85307 0.0
C974 C 0.54778 0.24344 0.89326 0.0
C975 C 0.56427 0.234 0.81475 0.0
C976 C 0.57349 0.2513 0.8157 0.0
C977 C 0.56927 0.26486 0.85467 0.0
C978 C 0.55647 0.26102 0.8928 0.0
C979 C 0.58842 0.25481 0.77833 0.0
C980 C 0.60341 0.24224 0.77561 0.0
C981 C 0.5886 0.271 0.74823 0.0
C982 C 0.57263 0.28418 0.74665 0.0
C983 C 0.57552 0.30334 0.75798 0.0
C984 C 0.56047 0.31573 0.75675 0.0
C985 C 0.54245 0.30915 0.744 0.0
C986 C 0.53946 0.29017 0.7323 0.0
C987 C 0.55446 0.27771 0.73344 0.0
H988 H 0.53081 0.31877 0.7431 0.0
H989 H 0.67505 0.19624 0.73626 0.0
H990 H 0.2579 0.18398 0.14602 0.0
H991 H 0.26801 0.15727 0.1975 0.0
H992 H 0.21448 0.13096 0.16564 0.0
H993 H 0.2044 0.15731 0.11344 0.0
H994 H 0.22788 0.13269 0.27536 0.0
H995 H 0.24727 0.11442 0.1012 0.0
H996 H 0.2638 0.11901 0.01954 0.0
H997 H 0.31604 0.12283 0.10755 0.0
H998 H 0.29977 0.11855 0.1899 0.0
H999 H 0.24161 0.04545 0.37563 0.0
H1000 H 0.2352 0.06797 0.30733 0.0
H1001 H 0.29232 0.08705 0.32252 0.0
H1002 H 0.29884 0.06403 0.38985 0.0
H1003 H 0.2784 0.08953 0.22099 0.0
H1004 H 0.26041 0.10798 0.39397 0.0
H1005 H 0.24497 0.10391 0.47761 0.0
H1006 H 0.1915 0.1017 0.39562 0.0
H1007 H 0.20667 0.10532 0.31126 0.0
C1008 C 0.24829 0.17252 0.15008 0.0
C1009 C 0.23036 0.17275 0.12567 0.0
C1010 C 0.25411 0.15726 0.17925 0.0
C1011 C 0.24199 0.14217 0.18511 0.0
C1012 C 0.22403 0.14249 0.16144 0.0
C1013 C 0.21832 0.15753 0.13154 0.0
C1014 C 0.24786 0.1261 0.21654 0.0
C1015 C 0.23877 0.12312 0.26322 0.0
C1016 C 0.26245 0.114 0.2013 0.0
C1017 C 0.27228 0.11638 0.15179 0.0
C1018 C 0.26226 0.11641 0.10321 0.0
C1019 C 0.27158 0.11892 0.05678 0.0
C1020 C 0.29095 0.12127 0.05837 0.0
C1021 C 0.30104 0.12105 0.10639 0.0
C1022 C 0.29177 0.11856 0.15295 0.0
C1023 C 0.25292 0.05398 0.36279 0.0
C1024 C 0.2707 0.05306 0.38745 0.0
C1025 C 0.24925 0.06691 0.32416 0.0
C1026 C 0.26319 0.07946 0.31069 0.0
C1027 C 0.28137 0.07753 0.33238 0.0
C1028 C 0.2851 0.06439 0.37066 0.0
C1029 C 0.25816 0.09591 0.27943 0.0
C1030 C 0.26749 0.09906 0.23311 0.0
C1031 C 0.24394 0.1084 0.29535 0.0
C1032 C 0.2347 0.10675 0.3462 0.0
C1033 C 0.24537 0.10652 0.39372 0.0
C1034 C 0.23667 0.10428 0.44126 0.0
C1035 C 0.21727 0.10252 0.44191 0.0
C1036 C 0.20653 0.10304 0.39503 0.0
C1037 C 0.21517 0.10518 0.34733 0.0
H1038 H 0.21056 0.10077 0.47876 0.0
H1039 H 0.29814 0.12322 0.02239 0.0
H1040 H 0.24291 0.29188 0.07279 0.0
H1041 H 0.24426 0.32585 0.07328 0.0
H1042 H 0.20936 0.32563 0.93136 0.0
H1043 H 0.20874 0.29146 0.92932 0.0
H1044 H 0.23524 0.34918 0.92198 0.0
H1045 H 0.1939 0.33861 0.05801 0.0
H1046 H 0.18295 0.32466 0.13812 0.0
H1047 H 0.22754 0.35154 0.22938 0.0
H1048 H 0.23926 0.36507 0.14941 0.0
H1049 H 0.22787 0.44844 0.94318 0.0
H1050 H 0.21681 0.41617 0.94998 0.0
H1051 H 0.26261 0.40527 0.05919 0.0
H1052 H 0.27388 0.43731 0.0516 0.0
H1053 H 0.22647 0.38857 0.08355 0.0
H1054 H 0.26936 0.39455 0.94064 0.0
H1055 H 0.27931 0.40823 0.85885 0.0
H1056 H 0.22797 0.39046 0.77994 0.0
H1057 H 0.2176 0.37694 0.86162 0.0
C1058 C 0.2354 0.29906 0.04186 0.0
C1059 C 0.22567 0.28896 0.0011 0.0
C1060 C 0.23609 0.31854 0.04233 0.0
C1061 C 0.2266 0.32845 0.00294 0.0
C1062 C 0.21677 0.31837 0.9623 0.0
C1063 C 0.2164 0.29883 0.96121 0.0
C1064 C 0.22764 0.34924 0.00311 0.0
C1065 C 0.23291 0.35774 0.95713 0.0
C1066 C 0.22474 0.36059 0.04898 0.0
C1067 C 0.21755 0.35277 0.09749 0.0
C1068 C 0.20147 0.34146 0.09506 0.0
C1069 C 0.19511 0.33363 0.14049 0.0
C1070 C 0.20448 0.33728 0.18887 0.0
C1071 C 0.22028 0.34874 0.19188 0.0
C1072 C 0.22682 0.35646 0.14646 0.0
C1073 C 0.23526 0.43925 0.9696 0.0
C1074 C 0.2517 0.44526 0.99688 0.0
C1075 C 0.22899 0.42086 0.97332 0.0
C1076 C 0.23895 0.40834 0.00494 0.0
C1077 C 0.25469 0.41473 0.03477 0.0
C1078 C 0.26113 0.43297 0.03033 0.0
C1079 C 0.23428 0.38817 0.00289 0.0
C1080 C 0.22841 0.37987 0.04842 0.0
C1081 C 0.23628 0.377 0.9565 0.0
C1082 C 0.24261 0.38495 0.90734 0.0
C1083 C 0.26013 0.39371 0.90597 0.0
C1084 C 0.26586 0.40141 0.85962 0.0
C1085 C 0.25426 0.40027 0.81426 0.0
C1086 C 0.23693 0.39137 0.81513 0.0
C1087 C 0.23112 0.38369 0.86143 0.0
H1088 H 0.25871 0.40623 0.7784 0.0
H1089 H 0.1995 0.33122 0.22401 0.0
H1090 H 0.21229 0.74636 0.58989 0.0
H1091 H 0.1783 0.74392 0.59283 0.0
H1092 H 0.17695 0.71128 0.44682 0.0
H1093 H 0.21076 0.71445 0.44248 0.0
H1094 H 0.14931 0.7338 0.44451 0.0
H1095 H 0.1747 0.69288 0.57284 0.0
H1096 H 0.19408 0.68474 0.65055 0.0
H1097 H 0.1615 0.72114 0.74833 0.0
H1098 H 0.14247 0.73025 0.67077 0.0
H1099 H 0.06308 0.68536 0.46857 0.0
H1100 H 0.09609 0.69391 0.46466 0.0
H1101 H 0.089 0.73649 0.58639 0.0
H1102 H 0.0558 0.72812 0.58991 0.0
H1103 H 0.12009 0.71108 0.60353 0.0
H1104 H 0.09431 0.75086 0.47128 0.0
H1105 H 0.07546 0.75789 0.39151 0.0
H1106 H 0.10863 0.71996 0.29992 0.0
H1107 H 0.12753 0.71249 0.37932 0.0
C1108 C 0.20472 0.73869 0.5584 0.0
C1109 C 0.21423 0.73054 0.51607 0.0
C1110 C 0.18529 0.73725 0.56018 0.0
C1111 C 0.17501 0.72713 0.5205 0.0
C1112 C 0.1845 0.71917 0.47792 0.0
C1113 C 0.20386 0.72095 0.47556 0.0
C1114 C 0.15443 0.7246 0.52336 0.0
C1115 C 0.143 0.72865 0.47919 0.0
C1116 C 0.14604 0.71818 0.5689 0.0
C1117 C 0.15727 0.71243 0.61579 0.0
C1118 C 0.17175 0.69929 0.61081 0.0
C1119 C 0.18268 0.69449 0.65485 0.0
C1120 C 0.17896 0.70232 0.70438 0.0
C1121 C 0.16436 0.71507 0.70993 0.0
C1122 C 0.15355 0.72014 0.66588 0.0
C1123 C 0.06854 0.69667 0.49408 0.0
C1124 C 0.05693 0.70611 0.52949 0.0
C1125 C 0.08735 0.70156 0.49177 0.0
C1126 C 0.09497 0.71582 0.52524 0.0
C1127 C 0.08336 0.72544 0.56024 0.0
C1128 C 0.06443 0.72076 0.56196 0.0
C1129 C 0.1152 0.72016 0.52469 0.0
C1130 C 0.1265 0.71636 0.56917 0.0
C1131 C 0.12354 0.72647 0.47921 0.0
C1132 C 0.11223 0.73099 0.43136 0.0
C1133 C 0.09749 0.74389 0.43422 0.0
C1134 C 0.08681 0.74799 0.38905 0.0
C1135 C 0.09082 0.73935 0.3407 0.0
C1136 C 0.10554 0.72663 0.3374 0.0
C1137 C 0.11625 0.72248 0.38247 0.0
H1138 H 0.08254 0.74254 0.30577 0.0
H1139 H 0.1874 0.69851 0.73845 0.0
H1140 H 0.7923 0.71662 0.95391 0.0
H1141 H 0.79405 0.68261 0.95417 0.0
H1142 H 0.76477 0.68305 0.09918 0.0
H1143 H 0.76388 0.71716 0.10041 0.0
H1144 H 0.79047 0.65914 0.10624 0.0
H1145 H 0.74374 0.66985 0.97274 0.0
H1146 H 0.72985 0.68337 0.89273 0.0
H1147 H 0.7722 0.65736 0.80039 0.0
H1148 H 0.78651 0.64389 0.87997 0.0
H1149 H 0.77582 0.56044 0.08809 0.0
H1150 H 0.76787 0.59374 0.08435 0.0
H1151 H 0.80831 0.60043 0.96541 0.0
H1152 H 0.81638 0.5673 0.96936 0.0
H1153 H 0.77394 0.61996 0.94649 0.0
H1154 H 0.82111 0.61119 0.08572 0.0
H1155 H 0.8333 0.59727 0.16716 0.0
H1156 H 0.78674 0.61941 0.25042 0.0
H1157 H 0.77413 0.63323 0.1692 0.0
C1158 C 0.78622 0.70946 0.98581 0.0
C1159 C 0.7779 0.71958 0.02706 0.0
C1160 C 0.78709 0.68997 0.98575 0.0
C1161 C 0.77916 0.68011 0.02608 0.0
C1162 C 0.77096 0.69024 0.0675 0.0
C1163 C 0.77044 0.70977 0.06817 0.0
C1164 C 0.77989 0.65929 0.02583 0.0
C1165 C 0.78649 0.65063 0.07149 0.0
C1166 C 0.77491 0.64801 0.98048 0.0
C1167 C 0.76628 0.65598 0.93242 0.0
C1168 C 0.75016 0.66711 0.93542 0.0
C1169 C 0.74221 0.67475 0.89014 0.0
C1170 C 0.75016 0.67126 0.84152 0.0
C1171 C 0.76606 0.66007 0.83808 0.0
C1172 C 0.77409 0.6524 0.88326 0.0
C1173 C 0.78273 0.56898 0.0605 0.0
C1174 C 0.79678 0.56137 0.02922 0.0
C1175 C 0.77826 0.58797 0.05856 0.0
C1176 C 0.78762 0.59956 0.02487 0.0
C1177 C 0.80093 0.59174 0.99166 0.0
C1178 C 0.80558 0.57286 0.99411 0.0
C1179 C 0.78458 0.62006 0.02659 0.0
C1180 C 0.77763 0.62859 0.98124 0.0
C1181 C 0.78891 0.63121 0.07242 0.0
C1182 C 0.79658 0.62305 0.12129 0.0
C1183 C 0.8134 0.61295 0.12129 0.0
C1184 C 0.82039 0.60511 0.16742 0.0
C1185 C 0.81077 0.60741 0.2139 0.0
C1186 C 0.79416 0.61761 0.21437 0.0
C1187 C 0.78709 0.62546 0.16832 0.0
H1188 H 0.81621 0.60132 0.24958 0.0
H1189 H 0.74399 0.67719 0.80651 0.0
H1190 H 0.78544 0.27126 0.42426 0.0
H1191 H 0.81935 0.26849 0.42642 0.0
H1192 H 0.8216 0.28486 0.59128 0.0
H1193 H 0.78752 0.28702 0.58986 0.0
H1194 H 0.84751 0.29029 0.44398 0.0
H1195 H 0.85783 0.26327 0.65356 0.0
H1196 H 0.84033 0.24624 0.71827 0.0
H1197 H 0.80699 0.21961 0.59334 0.0
H1198 H 0.82444 0.2363 0.52794 0.0
H1199 H 0.94548 0.27916 0.4813 0.0
H1200 H 0.91359 0.28887 0.50065 0.0
H1201 H 0.89676 0.23112 0.50208 0.0
H1202 H 0.92861 0.22141 0.48557 0.0
H1203 H 0.87887 0.24931 0.57267 0.0
H1204 H 0.89106 0.25857 0.39052 0.0
H1205 H 0.90758 0.27163 0.31708 0.0
H1206 H 0.89421 0.32717 0.37252 0.0
H1207 H 0.8778 0.31441 0.44672 0.0
C1208 C 0.79311 0.27438 0.461 0.0
C1209 C 0.78368 0.27919 0.50702 0.0
C1210 C 0.81257 0.27284 0.46213 0.0
C1211 C 0.82311 0.27621 0.50916 0.0
C1212 C 0.8138 0.28179 0.55472 0.0
C1213 C 0.79429 0.28308 0.55381 0.0
C1214 C 0.84371 0.27316 0.51043 0.0
C1215 C 0.85437 0.28145 0.47244 0.0
C1216 C 0.85275 0.26145 0.54706 0.0
C1217 C 0.84228 0.25121 0.58599 0.0
C1218 C 0.84679 0.25375 0.63996 0.0
C1219 C 0.83688 0.24416 0.67673 0.0
C1220 C 0.82251 0.23191 0.65994 0.0
C1221 C 0.81807 0.22916 0.60631 0.0
C1222 C 0.82795 0.23869 0.56939 0.0
C1223 C 0.93508 0.26855 0.48704 0.0
C1224 C 0.93955 0.2495 0.48102 0.0
C1225 C 0.91679 0.27412 0.49754 0.0
C1226 C 0.9026 0.26074 0.50168 0.0
C1227 C 0.90735 0.24175 0.49877 0.0
C1228 C 0.92558 0.2362 0.48877 0.0
C1229 C 0.88262 0.26622 0.50574 0.0
C1230 C 0.87208 0.25843 0.54482 0.0
C1231 C 0.87356 0.27787 0.46898 0.0
C1232 C 0.88342 0.28555 0.42448 0.0
C1233 C 0.89177 0.27357 0.38725 0.0
C1234 C 0.90109 0.28091 0.34547 0.0
C1235 C 0.902 0.30022 0.34024 0.0
C1236 C 0.89354 0.31222 0.3767 0.0
C1237 C 0.88422 0.30494 0.41862 0.0
H1238 H 0.90921 0.30588 0.30785 0.0
H1239 H 0.81484 0.22451 0.68847 0.0
H1240 H 0.71421 0.21707 0.41758 0.0
H1241 H 0.71492 0.18297 0.41428 0.0
H1242 H 0.73051 0.18347 0.57963 0.0
H1243 H 0.72923 0.21745 0.58358 0.0
H1244 H 0.74163 0.16059 0.42547 0.0
H1245 H 0.71808 0.14447 0.63723 0.0
H1246 H 0.69421 0.15464 0.69933 0.0
H1247 H 0.66119 0.17728 0.5729 0.0
H1248 H 0.68471 0.16704 0.50986 0.0
H1249 H 0.78232 0.07871 0.51385 0.0
H1250 H 0.7703 0.10954 0.49566 0.0
H1251 H 0.71398 0.08962 0.51012 0.0
H1252 H 0.7261 0.05886 0.53233 0.0
H1253 H 0.7167 0.1204 0.56063 0.0
H1254 H 0.73214 0.10259 0.38818 0.0
H1255 H 0.75088 0.08963 0.31632 0.0
H1256 H 0.7922 0.13234 0.34804 0.0
H1257 H 0.77385 0.14543 0.42061 0.0
C1258 C 0.71758 0.20992 0.45342 0.0
C1259 C 0.7217 0.22006 0.50084 0.0
C1260 C 0.718 0.19039 0.45145 0.0
C1261 C 0.72262 0.18052 0.49675 0.0
C1262 C 0.72647 0.19063 0.5443 0.0
C1263 C 0.72586 0.21015 0.54644 0.0
C1264 C 0.72482 0.15981 0.49372 0.0
C1265 C 0.73605 0.1518 0.45485 0.0
C1266 C 0.71705 0.1481 0.53079 0.0
C1267 C 0.70324 0.15506 0.56884 0.0
C1268 C 0.70573 0.15162 0.62265 0.0
C1269 C 0.69225 0.15739 0.65801 0.0
C1270 C 0.67618 0.16654 0.64002 0.0
C1271 C 0.67365 0.17018 0.58674 0.0
C1272 C 0.68709 0.16444 0.5512 0.0
C1273 C 0.76735 0.08082 0.51325 0.0
C1274 C 0.75521 0.06629 0.52537 0.0
C1275 C 0.76045 0.09847 0.50192 0.0
C1276 C 0.74117 0.102 0.50087 0.0
C1277 C 0.72892 0.08731 0.51067 0.0
C1278 C 0.73586 0.06964 0.52282 0.0
C1279 C 0.73413 0.12136 0.49377 0.0
C1280 C 0.72205 0.12914 0.5308 0.0
C1281 C 0.74052 0.13271 0.45378 0.0
C1282 C 0.75164 0.12494 0.41007 0.0
C1283 C 0.74528 0.10916 0.38007 0.0
C1284 C 0.75583 0.10179 0.33917 0.0
C1285 C 0.77273 0.11014 0.32767 0.0
C1286 C 0.7791 0.12589 0.35699 0.0
C1287 C 0.76862 0.13331 0.39797 0.0
H1288 H 0.78087 0.10442 0.29598 0.0
H1289 H 0.66563 0.1707 0.66732 0.0
H1290 H 0.2866 0.24377 0.92522 0.0
H1291 H 0.32062 0.24183 0.92241 0.0
H1292 H 0.32166 0.2058 0.05449 0.0
H1293 H 0.28779 0.20868 0.05931 0.0
H1294 H 0.34881 0.22821 0.06781 0.0
H1295 H 0.32554 0.19107 0.91842 0.0
H1296 H 0.30722 0.18521 0.83552 0.0
H1297 H 0.33959 0.22606 0.76025 0.0
H1298 H 0.35761 0.23278 0.84322 0.0
H1299 H 0.43671 0.18403 0.02977 0.0
H1300 H 0.40345 0.19139 0.03509 0.0
H1301 H 0.41006 0.23668 0.9307 0.0
H1302 H 0.44349 0.22944 0.92562 0.0
H1303 H 0.37987 0.21172 0.90172 0.0
H1304 H 0.40354 0.24771 0.05257 0.0
H1305 H 0.4216 0.25292 0.13616 0.0
H1306 H 0.38877 0.21151 0.20795 0.0
H1307 H 0.37068 0.20586 0.12453 0.0
C1308 C 0.29412 0.23541 0.95356 0.0
C1309 C 0.28454 0.2263 0.99233 0.0
C1310 C 0.31358 0.23424 0.95182 0.0
C1311 C 0.32381 0.22336 0.98759 0.0
C1312 C 0.31419 0.21429 0.02641 0.0
C1313 C 0.2948 0.21588 0.02905 0.0
C1314 C 0.3445 0.22144 0.98501 0.0
C1315 C 0.35551 0.22438 0.0315 0.0
C1316 C 0.35346 0.21687 0.93746 0.0
C1317 C 0.34281 0.21257 0.88728 0.0
C1318 C 0.32867 0.19892 0.88433 0.0
C1319 C 0.31834 0.19543 0.83731 0.0
C1320 C 0.32229 0.20518 0.79263 0.0
C1321 C 0.33654 0.21851 0.7949 0.0
C1322 C 0.34678 0.22222 0.84197 0.0
C1323 C 0.43109 0.19567 0.00836 0.0
C1324 C 0.44265 0.20618 0.9773 0.0
C1325 C 0.41213 0.19989 0.01153 0.0
C1326 C 0.4043 0.21459 0.98332 0.0
C1327 C 0.41584 0.22528 0.95278 0.0
C1328 C 0.43492 0.22123 0.95021 0.0
C1329 C 0.38392 0.21826 0.98446 0.0
C1330 C 0.37305 0.21562 0.9378 0.0
C1331 C 0.37504 0.22282 0.03186 0.0
C1332 C 0.38586 0.22625 0.08214 0.0
C1333 C 0.40027 0.2396 0.08605 0.0
C1334 C 0.41049 0.24266 0.13343 0.0
C1335 C 0.40636 0.23252 0.1773 0.0
C1336 C 0.39197 0.21934 0.17391 0.0
C1337 C 0.38171 0.21622 0.12661 0.0
H1338 H 0.41429 0.23491 0.21396 0.0
H1339 H 0.3143 0.20242 0.75626 0.0
H1340 H 0.26227 0.79378 0.43246 0.0
H1341 H 0.26436 0.82778 0.43158 0.0
H1342 H 0.29319 0.82875 0.58351 0.0
H1343 H 0.29048 0.79483 0.58553 0.0
H1344 H 0.26955 0.85573 0.58256 0.0
H1345 H 0.31592 0.8342 0.46356 0.0
H1346 H 0.32802 0.81642 0.38736 0.0
H1347 H 0.29061 0.84563 0.28362 0.0
H1348 H 0.27812 0.86342 0.35932 0.0
H1349 H 0.31551 0.94368 0.57637 0.0
H1350 H 0.30714 0.9106 0.57718 0.0
H1351 H 0.2704 0.91707 0.44106 0.0
H1352 H 0.27873 0.95032 0.44022 0.0
H1353 H 0.2956 0.88702 0.43117 0.0
H1354 H 0.25154 0.91055 0.55426 0.0
H1355 H 0.24145 0.92852 0.63258 0.0
H1356 H 0.27726 0.89563 0.73134 0.0
H1357 H 0.28778 0.87762 0.65351 0.0
C1358 C 0.26909 0.80122 0.46566 0.0
C1359 C 0.27627 0.79155 0.50899 0.0
C1360 C 0.27034 0.82069 0.46503 0.0
C1361 C 0.2792 0.8309 0.50712 0.0
C1362 C 0.28627 0.82125 0.55055 0.0
C1363 C 0.28476 0.80182 0.55159 0.0
C1364 C 0.28112 0.8516 0.50612 0.0
C1365 C 0.27543 0.86252 0.54963 0.0
C1366 C 0.28841 0.86061 0.46274 0.0
C1367 C 0.29595 0.84999 0.41715 0.0
C1368 C 0.31018 0.83673 0.42453 0.0
C1369 C 0.31712 0.82667 0.38143 0.0
C1370 C 0.31005 0.82986 0.3307 0.0
C1371 C 0.29605 0.84316 0.32295 0.0
C1372 C 0.28905 0.85324 0.36593 0.0
C1373 C 0.30549 0.93809 0.54697 0.0
C1374 C 0.29778 0.94955 0.50819 0.0
C1375 C 0.30067 0.91922 0.54758 0.0
C1376 C 0.28812 0.91138 0.50926 0.0
C1377 C 0.2801 0.92286 0.47104 0.0
C1378 C 0.28475 0.94184 0.47081 0.0
C1379 C 0.28422 0.89102 0.50774 0.0
C1380 C 0.28957 0.88018 0.46381 0.0
C1381 C 0.27692 0.88208 0.55105 0.0
C1382 C 0.27056 0.89283 0.59796 0.0
C1383 C 0.25738 0.90724 0.59262 0.0
C1384 C 0.25156 0.91742 0.63695 0.0
C1385 C 0.25874 0.91324 0.68689 0.0
C1386 C 0.27172 0.89885 0.69263 0.0
C1387 C 0.2776 0.88865 0.64842 0.0
H1388 H 0.25422 0.92114 0.72116 0.0
H1389 H 0.31544 0.82206 0.29739 0.0
H1390 H 0.71362 0.76979 0.09923 0.0
H1391 H 0.67978 0.76636 0.09294 0.0
H1392 H 0.67917 0.7848 0.93358 0.0
H1393 H 0.71323 0.78746 0.93891 0.0
H1394 H 0.65138 0.78707 0.08037 0.0
H1395 H 0.64415 0.76388 0.86074 0.0
H1396 H 0.66276 0.74832 0.79227 0.0
H1397 H 0.69504 0.72029 0.91082 0.0
H1398 H 0.67648 0.7355 0.97987 0.0
H1399 H 0.55423 0.77345 0.03489 0.0
H1400 H 0.58585 0.78474 0.02155 0.0
H1401 H 0.60414 0.72809 0.9918 0.0
H1402 H 0.57248 0.71696 0.00085 0.0
H1403 H 0.62237 0.7482 0.93408 0.0
H1404 H 0.60852 0.75278 0.11797 0.0
H1405 H 0.59109 0.76346 0.19514 0.0
H1406 H 0.60303 0.82049 0.16273 0.0
H1407 H 0.62035 0.81012 0.08496 0.0
C1408 C 0.7063 0.77324 0.0629 0.0
C1409 C 0.71618 0.77873 0.01939 0.0
C1410 C 0.68689 0.77132 0.05938 0.0
C1411 C 0.67683 0.77504 0.01252 0.0
C1412 C 0.68659 0.7814 0.96979 0.0
C1413 C 0.70607 0.78299 0.97295 0.0
C1414 C 0.65631 0.77151 0.00821 0.0
C1415 C 0.64504 0.77867 0.04815 0.0
C1416 C 0.64794 0.76034 0.96664 0.0
C1417 C 0.65909 0.75102 0.92542 0.0
C1418 C 0.6552 0.75437 0.87213 0.0
C1419 C 0.66573 0.74561 0.83325 0.0
C1420 C 0.68012 0.73338 0.84721 0.0
C1421 C 0.68395 0.72982 0.90007 0.0
C1422 C 0.67344 0.73852 0.93909 0.0
C1423 C 0.56487 0.76345 0.02412 0.0
C1424 C 0.56081 0.74423 0.02004 0.0
C1425 C 0.58305 0.76991 0.0172 0.0
C1426 C 0.59761 0.75725 0.00711 0.0
C1427 C 0.5933 0.7382 -1e-05 0.0
C1428 C 0.57514 0.7318 0.0059 0.0
C1429 C 0.6175 0.76341 0.00688 0.0
C1430 C 0.62865 0.75684 0.96591 0.0
C1431 C 0.62591 0.77444 0.04869 0.0
C1432 C 0.61552 0.78069 0.09535 0.0
C1433 C 0.60731 0.7676 0.12712 0.0
C1434 C 0.59747 0.77359 0.17098 0.0
C1435 C 0.5959 0.79264 0.18373 0.0
C1436 C 0.60422 0.80574 0.15272 0.0
C1437 C 0.61405 0.79981 0.10877 0.0
H1438 H 0.58828 0.79726 0.21771 0.0
H1439 H 0.68826 0.72663 0.81705 0.0
loop_
_geom_bond_atom_site_label_1
_geom_bond_atom_site_label_2
_geom_bond_distance
_geom_bond_site_symmetry_2
_ccdc_geom_bond_type
Sc0 O3 2.025 . S
Sc0 O10 2.105 . S
Sc0 O13 2.105 . S
Sc0 O16 2.105 . S
Sc0 O19 2.105 . S
Sc1 O3 2.025 . S
Sc1 O11 2.105 . S
Sc1 O15 2.105 1_554 S
Sc1 O17 2.105 . S
Sc1 O21 2.105 1_554 S
Sc2 O3 2.025 1_556 S
Sc2 O12 2.105 . S
Sc2 O14 2.105 . S
Sc2 O18 2.105 . S
Sc2 O20 2.105 . S
O3 Sc0 2.025 . S
O3 Sc1 2.025 . S
O3 Sc2 2.025 1_554 S
C4 O10 1.268 . S
C4 O20 1.268 1_554 S
C5 O11 1.268 . S
C5 O19 1.268 . S
C6 O12 1.268 . S
C6 O21 1.268 . S
C7 O13 1.268 . S
C7 O17 1.268 . S
C8 O14 1.268 1_554 S
C8 O16 1.268 . S
C9 O15 1.268 . S
C9 O18 1.268 . S
O10 Sc0 2.105 . S
O10 C4 1.268 . S
O11 Sc1 2.105 . S
O11 C5 1.268 . S
O12 Sc2 2.105 . S
O12 C6 1.268 . S
O13 Sc0 2.105 . S
O13 C7 1.268 . S
O14 Sc2 2.105 . S
O14 C8 1.268 1_556 S
O15 Sc1 2.105 1_556 S
O15 C9 1.268 . S
O16 Sc0 2.105 . S
O16 C8 1.268 . S
O17 Sc1 2.105 . S
O17 C7 1.268 . S
O18 Sc2 2.105 . S
O18 C9 1.268 . S
O19 Sc0 2.105 . S
O19 C5 1.268 . S
O20 Sc2 2.105 . S
O20 C4 1.268 1_556 S
O21 Sc1 2.105 1_556 S
O21 C6 1.268 . S
Sc22 O25 2.025 . S
Sc22 O32 2.105 . S
Sc22 O35 2.105 . S
Sc22 O38 2.105 . S
Sc22 O41 2.105 . S
Sc23 O25 2.025 . S
Sc23 O33 2.105 . S
Sc23 O37 2.105 . S
Sc23 O39 2.105 . S
Sc23 O43 2.105 . S
Sc24 O25 2.025 . S
Sc24 O34 2.105 . S
Sc24 O36 2.105 . S
Sc24 O40 2.105 . S
Sc24 O42 2.105 . S
O25 Sc22 2.025 . S
O25 Sc23 2.025 . S
O25 Sc24 2.025 . S
C26 O32 1.268 . S
C26 O42 1.268 . S
C27 O33 1.268 . S
C27 O41 1.268 . S
C28 O34 1.268 . S
C28 O43 1.268 . S
C29 O35 1.268 . S
C29 O39 1.268 . S
C30 O36 1.268 . S
C30 O38 1.268 . S
C31 O37 1.268 . S
C31 O40 1.268 . S
O32 Sc22 2.105 . S
O32 C26 1.268 . S
O33 Sc23 2.105 . S
O33 C27 1.268 . S
O34 Sc24 2.105 . S
O34 C28 1.268 . S
O35 Sc22 2.105 . S
O35 C29 1.268 . S
O36 Sc24 2.105 . S
O36 C30 1.268 . S
O37 Sc23 2.105 . S
O37 C31 1.268 . S
O38 Sc22 2.105 . S
O38 C30 1.268 . S
O39 Sc23 2.105 . S
O39 C29 1.268 . S
O40 Sc24 2.105 . S
O40 C31 1.268 . S
O41 Sc22 2.105 . S
O41 C27 1.268 . S
O42 Sc24 2.105 . S
O42 C26 1.268 . S
O43 Sc23 2.105 . S
O43 C28 1.268 . S
Sc44 O47 2.025 1_556 S
Sc44 O54 2.105 . S
Sc44 O57 2.105 . S
Sc44 O60 2.105 . S
Sc44 O63 2.105 . S
Sc45 O47 2.025 . S
Sc45 O55 2.105 1_554 S
Sc45 O59 2.105 . S
Sc45 O61 2.105 1_554 S
Sc45 O65 2.105 . S
Sc46 O47 2.025 . S
Sc46 O56 2.105 . S
Sc46 O58 2.105 . S
Sc46 O62 2.105 . S
Sc46 O64 2.105 . S
O47 Sc44 2.025 1_554 S
O47 Sc45 2.025 . S
O47 Sc46 2.025 . S
C48 O54 1.268 1_554 S
C48 O64 1.268 . S
C49 O55 1.268 . S
C49 O63 1.268 . S
C50 O56 1.268 . S
C50 O65 1.268 . S
C51 O57 1.268 . S
C51 O61 1.268 . S
C52 O58 1.268 . S
C52 O60 1.268 1_554 S
C53 O59 1.268 . S
C53 O62 1.268 . S
O54 Sc44 2.105 . S
O54 C48 1.268 1_556 S
O55 Sc45 2.105 1_556 S
O55 C49 1.268 . S
O56 Sc46 2.105 . S
O56 C50 1.268 . S
O57 Sc44 2.105 . S
O57 C51 1.268 . S
O58 Sc46 2.105 . S
O58 C52 1.268 . S
O59 Sc45 2.105 . S
O59 C53 1.268 . S
O60 Sc44 2.105 . S
O60 C52 1.268 1_556 S
O61 Sc45 2.105 1_556 S
O61 C51 1.268 . S
O62 Sc46 2.105 . S
O62 C53 1.268 . S
O63 Sc44 2.105 . S
O63 C49 1.268 . S
O64 Sc46 2.105 . S
O64 C48 1.268 . S
O65 Sc45 2.105 . S
O65 C50 1.268 . S
Sc66 O69 2.025 . S
Sc66 O76 2.105 . S
Sc66 O79 2.105 . S
Sc66 O82 2.105 . S
Sc66 O85 2.105 . S
Sc67 O69 2.025 . S
Sc67 O77 2.105 . S
Sc67 O81 2.105 . S
Sc67 O83 2.105 . S
Sc67 O87 2.105 . S
Sc68 O69 2.025 . S
Sc68 O78 2.105 . S
Sc68 O80 2.105 . S
Sc68 O84 2.105 . S
Sc68 O86 2.105 . S
O69 Sc66 2.025 . S
O69 Sc67 2.025 . S
O69 Sc68 2.025 . S
C70 O76 1.268 . S
C70 O86 1.268 . S
C71 O77 1.268 . S
C71 O85 1.268 . S
C72 O78 1.268 . S
C72 O87 1.268 . S
C73 O79 1.268 . S
C73 O83 1.268 . S
C74 O80 1.268 . S
C74 O82 1.268 . S
C75 O81 1.268 . S
C75 O84 1.268 . S
O76 Sc66 2.105 . S
O76 C70 1.268 . S
O77 Sc67 2.105 . S
O77 C71 1.268 . S
O78 Sc68 2.105 . S
O78 C72 1.268 . S
O79 Sc66 2.105 . S
O79 C73 1.268 . S
O80 Sc68 2.105 . S
O80 C74 1.268 . S
O81 Sc67 2.105 . S
O81 C75 1.268 . S
O82 Sc66 2.105 . S
O82 C74 1.268 . S
O83 Sc67 2.105 . S
O83 C73 1.268 . S
O84 Sc68 2.105 . S
O84 C75 1.268 . S
O85 Sc66 2.105 . S
O85 C71 1.268 . S
O86 Sc68 2.105 . S
O86 C70 1.268 . S
O87 Sc67 2.105 . S
O87 C72 1.268 . S
H88 C89 0.949 . S
C89 H88 0.949 . S
C89 C90 1.395 . S
C89 C91 1.391 1_554 S
C90 C89 1.395 . S
C90 C93 1.399 . S
C91 C89 1.391 1_556 S
C91 C95 1.387 . S
C91 C96 1.491 . S
H92 C93 0.951 . S
C93 C90 1.399 . S
C93 H92 0.951 . S
C93 C94 1.368 1_554 S
C94 C93 1.368 1_556 S
C94 C95 1.409 . S
C95 C91 1.387 . S
C95 C94 1.409 . S
C95 H97 0.951 . S
C96 C91 1.491 . S
C96 C98 1.382 1_556 S
C96 C100 1.404 . S
H97 C95 0.951 . S
C98 C96 1.382 1_554 S
C98 C99 1.390 1_554 S
C98 H103 0.949 . S
C99 C98 1.390 1_556 S
C99 C104 1.399 . S
C100 C96 1.404 . S
C100 H101 0.950 . S
C100 C102 1.375 . S
H101 C100 0.950 . S
C102 C100 1.375 . S
C102 C104 1.382 . S
C102 H106 0.950 . S
H103 C98 0.949 . S
C104 C99 1.399 . S
C104 C102 1.382 . S
C104 H105 0.952 . S
H105 C104 0.952 . S
H106 C102 0.950 . S
H107 C108 0.949 . S
C108 H107 0.949 . S
C108 C109 1.395 . S
C108 C110 1.391 . S
C109 C108 1.395 . S
C109 C112 1.390 . S
C110 C108 1.391 . S
C110 C114 1.387 . S
C110 C115 1.491 1_655 S
H111 C112 0.950 . S
C112 C109 1.390 . S
C112 H111 0.950 . S
C112 C113 1.378 . S
C113 C112 1.378 . S
C113 C114 1.409 . S
C114 C110 1.387 . S
C114 C113 1.409 . S
C114 H116 0.951 . S
C115 C110 1.491 1_455 S
C115 C117 1.382 . S
C115 C119 1.404 . S
H116 C114 0.951 . S
C117 C115 1.382 . S
C117 C118 1.390 . S
C117 H122 0.949 . S
C118 C117 1.390 . S
C118 C123 1.399 . S
C119 C115 1.404 . S
C119 H120 0.950 . S
C119 C121 1.375 . S
H120 C119 0.950 . S
C121 C119 1.375 . S
C121 C123 1.382 . S
C121 H125 0.950 . S
H122 C117 0.949 . S
C123 C118 1.399 . S
C123 C121 1.382 . S
C123 H124 0.952 . S
H124 C123 0.952 . S
H125 C121 0.950 . S
H126 C127 0.949 . S
C127 H126 0.949 . S
C127 C128 1.395 . S
C127 C129 1.391 1_556 S
C128 C127 1.395 . S
C128 C131 1.390 1_556 S
C129 C127 1.391 1_554 S
C129 C133 1.387 . S
C129 C134 1.491 . S
H130 C131 0.950 . S
C131 C128 1.390 1_554 S
C131 H130 0.950 . S
C131 C132 1.378 . S
C132 C131 1.378 . S
C132 C133 1.409 . S
C133 C129 1.387 . S
C133 C132 1.409 . S
C133 H135 0.951 . S
C134 C129 1.491 . S
C134 C136 1.382 . S
C134 C138 1.404 . S
H135 C133 0.951 . S
C136 C134 1.382 . S
C136 C137 1.390 . S
C136 H141 0.949 1_554 S
C137 C136 1.390 . S
C137 C142 1.399 . S
C138 C134 1.404 . S
C138 H139 0.950 . S
C138 C140 1.375 . S
H139 C138 0.950 . S
C140 C138 1.375 . S
C140 C142 1.382 . S
C140 H144 0.950 . S
H141 C136 0.949 1_556 S
C142 C137 1.399 . S
C142 C140 1.382 . S
C142 H143 0.952 . S
H143 C142 0.952 . S
H144 C140 0.950 . S
H145 C146 0.949 . S
C146 H145 0.949 . S
C146 C147 1.395 . S
C146 C148 1.391 . S
C147 C146 1.395 . S
C147 C150 1.390 . S
C148 C146 1.391 . S
C148 C152 1.387 . S
C148 C153 1.491 1_455 S
H149 C150 0.950 . S
C150 C147 1.390 . S
C150 H149 0.950 . S
C150 C151 1.378 . S
C151 C150 1.378 . S
C151 C152 1.409 . S
C152 C148 1.387 . S
C152 C151 1.409 . S
C152 H154 0.951 . S
C153 C148 1.491 1_655 S
C153 C155 1.382 . S
C153 C157 1.404 . S
H154 C152 0.951 . S
C155 C153 1.382 . S
C155 C156 1.390 . S
C155 H160 0.949 . S
C156 C155 1.390 . S
C156 C161 1.399 . S
C157 C153 1.404 . S
C157 H158 0.950 . S
C157 C159 1.375 . S
H158 C157 0.950 . S
C159 C157 1.375 . S
C159 C161 1.382 . S
C159 H163 0.950 . S
H160 C155 0.949 . S
C161 C156 1.399 . S
C161 C159 1.382 . S
C161 H162 0.952 . S
H162 C161 0.952 . S
H163 C159 0.950 . S
H164 C165 0.949 . S
C165 H164 0.949 . S
C165 C166 1.395 . S
C165 C167 1.391 . S
C166 C165 1.395 . S
C166 C169 1.390 . S
C167 C165 1.391 . S
C167 C171 1.387 . S
C167 C172 1.491 1_565 S
H168 C169 0.950 . S
C169 C166 1.390 . S
C169 H168 0.950 . S
C169 C170 1.378 . S
C170 C169 1.378 . S
C170 C171 1.409 . S
C171 C167 1.387 . S
C171 C170 1.409 . S
C171 H173 0.951 . S
C172 C167 1.491 1_545 S
C172 C174 1.382 . S
C172 C176 1.404 . S
H173 C171 0.951 . S
C174 C172 1.382 . S
C174 C175 1.390 . S
C174 H179 0.949 . S
C175 C174 1.390 . S
C175 C180 1.399 . S
C176 C172 1.404 . S
C176 H177 0.950 . S
C176 C178 1.375 . S
H177 C176 0.950 . S
C178 C176 1.375 . S
C178 C180 1.382 . S
C178 H182 0.950 . S
H179 C174 0.949 . S
C180 C175 1.399 . S
C180 C178 1.382 . S
C180 H181 0.952 . S
H181 C180 0.952 . S
H182 C178 0.950 . S
H183 C184 0.949 . S
C184 H183 0.949 . S
C184 C185 1.395 . S
C184 C186 1.391 1_554 S
C185 C184 1.395 . S
C185 C188 1.403 . S
C186 C184 1.391 1_556 S
C186 C190 1.387 . S
C186 C191 1.491 . S
H187 C188 0.952 . S
C188 C185 1.403 . S
C188 H187 0.952 . S
C188 C189 1.363 1_554 S
C189 C188 1.363 1_556 S
C189 C190 1.409 . S
C190 C186 1.387 . S
C190 C189 1.409 . S
C190 H192 0.951 . S
C191 C186 1.491 . S
C191 C193 1.382 1_556 S
C191 C195 1.404 . S
H192 C190 0.951 . S
C193 C191 1.382 1_554 S
C193 C194 1.390 1_554 S
C193 H198 0.949 . S
C194 C193 1.390 1_556 S
C194 C199 1.399 . S
C195 C191 1.404 . S
C195 H196 0.950 . S
C195 C197 1.375 . S
H196 C195 0.950 . S
C197 C195 1.375 . S
C197 C199 1.382 . S
C197 H201 0.950 . S
H198 C193 0.949 . S
C199 C194 1.399 . S
C199 C197 1.382 . S
C199 H200 0.952 . S
H200 C199 0.952 . S
H201 C197 0.950 . S
H202 C203 0.949 . S
C203 H202 0.949 . S
C203 C204 1.395 . S
C203 C205 1.391 . S
C204 C203 1.395 . S
C204 C207 1.390 . S
C205 C203 1.391 . S
C205 C209 1.387 . S
C205 C210 1.491 1_545 S
H206 C207 0.950 . S
C207 C204 1.390 . S
C207 H206 0.950 . S
C207 C208 1.378 . S
C208 C207 1.378 . S
C208 C209 1.409 . S
C209 C205 1.387 . S
C209 C208 1.409 . S
C209 H211 0.951 . S
C210 C205 1.491 1_565 S
C210 C212 1.382 . S
C210 C214 1.404 . S
H211 C209 0.951 . S
C212 C210 1.382 . S
C212 C213 1.390 . S
C212 H217 0.949 . S
C213 C212 1.390 . S
C213 C218 1.399 . S
C214 C210 1.404 . S
C214 H215 0.950 . S
C214 C216 1.375 . S
H215 C214 0.950 . S
C216 C214 1.375 . S
C216 C218 1.382 . S
C216 H220 0.950 . S
H217 C212 0.949 . S
C218 C213 1.399 . S
C218 C216 1.382 . S
C218 H219 0.952 . S
H219 C218 0.952 . S
H220 C216 0.950 . S
H221 C222 0.949 . S
C222 H221 0.949 . S
C222 C223 1.395 . S
C222 C224 1.391 1_556 S
C223 C222 1.395 . S
C223 C226 1.390 1_556 S
C224 C222 1.391 1_554 S
C224 C228 1.387 . S
C224 C229 1.491 . S
H225 C226 0.950 . S
C226 C223 1.390 1_554 S
C226 H225 0.950 . S
C226 C227 1.378 . S
C227 C226 1.378 . S
C227 C228 1.409 . S
C228 C224 1.387 . S
C228 C227 1.409 . S
C228 H230 0.951 . S
C229 C224 1.491 . S
C229 C231 1.382 . S
C229 C233 1.404 . S
H230 C228 0.951 . S
C231 C229 1.382 . S
C231 C232 1.390 . S
C231 H236 0.949 1_554 S
C232 C231 1.390 . S
C232 C237 1.399 . S
C233 C229 1.404 . S
C233 H234 0.950 . S
C233 C235 1.375 . S
H234 C233 0.950 . S
C235 C233 1.375 . S
C235 C237 1.382 . S
C235 H239 0.950 . S
H236 C231 0.949 1_556 S
C237 C232 1.399 . S
C237 C235 1.382 . S
C237 H238 0.952 . S
H238 C237 0.952 . S
H239 C235 0.950 . S
H240 C258 0.951 . S
H241 C260 0.951 . S
H242 C262 0.950 . S
H243 C263 0.950 . S
H244 C265 0.950 . S
H245 C268 0.950 . S
H246 C269 0.950 . S
H247 C271 0.950 . S
H248 C272 0.950 . S
H249 C273 0.951 . S
H250 C275 0.951 . S
H251 C277 0.950 . S
H252 C278 0.950 . S
H253 C280 0.950 . S
H254 C283 0.950 . S
H255 C284 0.950 . S
H256 C286 0.950 . S
H257 C287 0.950 . S
C258 H240 0.951 . S
C258 C259 1.366 . S
C258 C260 1.388 . S
C259 C258 1.366 . S
C259 C263 1.385 . S
C260 H241 0.951 . S
C260 C258 1.388 . S
C260 C261 1.366 . S
C261 C260 1.366 . S
C261 C262 1.414 . S
C261 C264 1.499 . S
C262 H242 0.950 . S
C262 C261 1.414 . S
C262 C263 1.374 . S
C263 H243 0.950 . S
C263 C259 1.385 . S
C263 C262 1.374 . S
C264 C261 1.499 . S
C264 C265 1.373 . S
C264 C266 1.389 . S
C265 H244 0.950 . S
C265 C264 1.373 . S
C265 C281 1.377 . S
C266 C264 1.389 . S
C266 C267 1.524 . S
C266 C280 1.377 . S
C267 C266 1.524 . S
C267 C268 1.397 . S
C267 C272 1.363 . S
C268 H245 0.950 . S
C268 C267 1.397 . S
C268 C269 1.334 . S
C269 H246 0.950 . S
C269 C268 1.334 . S
C269 C270 1.287 . S
C270 C269 1.287 . S
C270 C271 1.524 . S
C270 H289 0.913 . S
C271 H247 0.950 . S
C271 C270 1.524 . S
C271 C272 1.415 . S
C272 H248 0.950 . S
C272 C267 1.363 . S
C272 C271 1.415 . S
C273 H249 0.951 . S
C273 C274 1.366 . S
C273 C275 1.388 . S
C274 C273 1.366 . S
C274 C278 1.385 . S
C275 H250 0.951 . S
C275 C273 1.388 . S
C275 C276 1.366 . S
C276 C275 1.366 . S
C276 C277 1.414 . S
C276 C279 1.499 . S
C277 H251 0.950 . S
C277 C276 1.414 . S
C277 C278 1.374 . S
C278 H252 0.950 . S
C278 C274 1.385 . S
C278 C277 1.374 . S
C279 C276 1.499 . S
C279 C280 1.373 . S
C279 C281 1.389 . S
C280 H253 0.950 . S
C280 C266 1.377 . S
C280 C279 1.373 . S
C281 C265 1.377 . S
C281 C279 1.389 . S
C281 C282 1.524 . S
C282 C281 1.524 . S
C282 C283 1.397 . S
C282 C287 1.363 . S
C283 H254 0.950 . S
C283 C282 1.397 . S
C283 C284 1.334 . S
C284 H255 0.950 . S
C284 C283 1.334 . S
C284 C285 1.287 . S
C285 C284 1.287 . S
C285 C286 1.524 . S
C285 H288 0.999 . S
C286 H256 0.950 . S
C286 C285 1.524 . S
C286 C287 1.415 . S
C287 H257 0.950 . S
C287 C282 1.363 . S
C287 C286 1.415 . S
H288 C285 0.999 . S
H289 C270 0.913 . S
H290 C308 0.951 . S
H291 C310 0.951 . S
H292 C312 0.950 . S
H293 C313 0.950 . S
H294 C315 0.950 . S
H295 C318 0.950 . S
H296 C319 0.950 . S
H297 C321 0.950 . S
H298 C322 0.950 . S
H299 C323 0.951 . S
H300 C325 0.951 . S
H301 C327 0.950 . S
H302 C328 0.950 . S
H303 C330 0.950 . S
H304 C333 0.950 . S
H305 C334 0.950 . S
H306 C336 0.950 . S
H307 C337 0.950 . S
C308 H290 0.951 . S
C308 C309 1.366 . S
C308 C310 1.388 . S
C309 C308 1.366 . S
C309 C313 1.385 . S
C310 H291 0.951 . S
C310 C308 1.388 . S
C310 C311 1.366 . S
C311 C310 1.366 . S
C311 C312 1.414 . S
C311 C314 1.499 . S
C312 H292 0.950 . S
C312 C311 1.414 . S
C312 C313 1.374 . S
C313 H293 0.950 . S
C313 C309 1.385 . S
C313 C312 1.374 . S
C314 C311 1.499 . S
C314 C315 1.373 . S
C314 C316 1.389 . S
C315 H294 0.950 . S
C315 C314 1.373 . S
C315 C331 1.377 . S
C316 C314 1.389 . S
C316 C317 1.524 . S
C316 C330 1.377 . S
C317 C316 1.524 . S
C317 C318 1.397 . S
C317 C322 1.363 . S
C318 H295 0.950 . S
C318 C317 1.397 . S
C318 C319 1.334 . S
C319 H296 0.950 . S
C319 C318 1.334 . S
C319 C320 1.287 . S
C320 C319 1.287 . S
C320 C321 1.524 . S
C320 H339 0.913 . S
C321 H297 0.950 . S
C321 C320 1.524 . S
C321 C322 1.415 . S
C322 H298 0.950 . S
C322 C317 1.363 . S
C322 C321 1.415 . S
C323 H299 0.951 . S
C323 C324 1.366 . S
C323 C325 1.388 . S
C324 C323 1.366 . S
C324 C328 1.385 . S
C325 H300 0.951 . S
C325 C323 1.388 . S
C325 C326 1.366 . S
C326 C325 1.366 . S
C326 C327 1.414 . S
C326 C329 1.499 . S
C327 H301 0.950 . S
C327 C326 1.414 . S
C327 C328 1.374 . S
C328 H302 0.950 . S
C328 C324 1.385 . S
C328 C327 1.374 . S
C329 C326 1.499 . S
C329 C330 1.373 . S
C329 C331 1.389 . S
C330 H303 0.950 . S
C330 C316 1.377 . S
C330 C329 1.373 . S
C331 C315 1.377 . S
C331 C329 1.389 . S
C331 C332 1.524 . S
C332 C331 1.524 . S
C332 C333 1.397 . S
C332 C337 1.363 . S
C333 H304 0.950 . S
C333 C332 1.397 . S
C333 C334 1.334 . S
C334 H305 0.950 . S
C334 C333 1.334 . S
C334 C335 1.287 . S
C335 C334 1.287 . S
C335 C336 1.524 . S
C335 H338 0.999 . S
C336 H306 0.950 . S
C336 C335 1.524 . S
C336 C337 1.415 . S
C337 H307 0.950 . S
C337 C332 1.363 . S
C337 C336 1.415 . S
H338 C335 0.999 . S
H339 C320 0.913 . S
H340 C358 0.951 . S
H341 C360 0.951 . S
H342 C362 0.950 . S
H343 C363 0.950 . S
H344 C365 0.950 . S
H345 C368 0.950 . S
H346 C369 0.950 . S
H347 C371 0.950 . S
H348 C372 0.950 . S
H349 C373 0.951 . S
H350 C375 0.951 . S
H351 C377 0.950 . S
H352 C378 0.950 . S
H353 C380 0.950 . S
H354 C383 0.950 . S
H355 C384 0.950 . S
H356 C386 0.950 . S
H357 C387 0.950 . S
C358 H340 0.951 . S
C358 C359 1.366 . S
C358 C360 1.388 . S
C359 C358 1.366 . S
C359 C363 1.385 . S
C360 H341 0.951 . S
C360 C358 1.388 . S
C360 C361 1.366 . S
C361 C360 1.366 . S
C361 C362 1.414 . S
C361 C364 1.499 . S
C362 H342 0.950 . S
C362 C361 1.414 . S
C362 C363 1.374 . S
C363 H343 0.950 . S
C363 C359 1.385 . S
C363 C362 1.374 . S
C364 C361 1.499 . S
C364 C365 1.373 . S
C364 C366 1.389 . S
C365 H344 0.950 . S
C365 C364 1.373 . S
C365 C381 1.377 . S
C366 C364 1.389 . S
C366 C367 1.524 . S
C366 C380 1.377 . S
C367 C366 1.524 . S
C367 C368 1.397 . S
C367 C372 1.363 . S
C368 H345 0.950 . S
C368 C367 1.397 . S
C368 C369 1.334 . S
C369 H346 0.950 . S
C369 C368 1.334 . S
C369 C370 1.287 . S
C370 C369 1.287 . S
C370 C371 1.524 . S
C370 H389 0.913 . S
C371 H347 0.950 . S
C371 C370 1.524 . S
C371 C372 1.415 . S
C372 H348 0.950 . S
C372 C367 1.363 . S
C372 C371 1.415 . S
C373 H349 0.951 . S
C373 C374 1.366 . S
C373 C375 1.388 . S
C374 C373 1.366 . S
C374 C378 1.385 . S
C375 H350 0.951 . S
C375 C373 1.388 . S
C375 C376 1.366 . S
C376 C375 1.366 . S
C376 C377 1.414 . S
C376 C379 1.499 . S
C377 H351 0.950 . S
C377 C376 1.414 . S
C377 C378 1.374 . S
C378 H352 0.950 . S
C378 C374 1.385 . S
C378 C377 1.374 . S
C379 C376 1.499 . S
C379 C380 1.373 . S
C379 C381 1.389 . S
C380 H353 0.950 . S
C380 C366 1.377 . S
C380 C379 1.373 . S
C381 C365 1.377 . S
C381 C379 1.389 . S
C381 C382 1.524 . S
C382 C381 1.524 . S
C382 C383 1.397 . S
C382 C387 1.363 . S
C383 H354 0.950 . S
C383 C382 1.397 . S
C383 C384 1.334 . S
C384 H355 0.950 . S
C384 C383 1.334 . S
C384 C385 1.287 . S
C385 C384 1.287 . S
C385 C386 1.524 . S
C385 H388 0.999 . S
C386 H356 0.950 . S
C386 C385 1.524 . S
C386 C387 1.415 . S
C387 H357 0.950 . S
C387 C382 1.363 . S
C387 C386 1.415 . S
H388 C385 0.999 . S
H389 C370 0.913 . S
H390 C408 0.951 . S
H391 C410 0.951 . S
H392 C412 0.950 . S
H393 C413 0.950 . S
H394 C415 0.950 . S
H395 C418 0.950 . S
H396 C419 0.950 . S
H397 C421 0.950 . S
H398 C422 0.950 . S
H399 C423 0.951 . S
H400 C425 0.951 . S
H401 C427 0.950 . S
H402 C428 0.950 . S
H403 C430 0.950 . S
H404 C433 0.950 . S
H405 C434 0.950 . S
H406 C436 0.950 . S
H407 C437 0.950 . S
C408 H390 0.951 . S
C408 C409 1.366 . S
C408 C410 1.388 . S
C409 C408 1.366 . S
C409 C413 1.385 . S
C410 H391 0.951 . S
C410 C408 1.388 . S
C410 C411 1.366 . S
C411 C410 1.366 . S
C411 C412 1.414 . S
C411 C414 1.499 . S
C412 H392 0.950 . S
C412 C411 1.414 . S
C412 C413 1.374 . S
C413 H393 0.950 . S
C413 C409 1.385 . S
C413 C412 1.374 . S
C414 C411 1.499 . S
C414 C415 1.373 . S
C414 C416 1.389 . S
C415 H394 0.950 . S
C415 C414 1.373 . S
C415 C431 1.377 . S
C416 C414 1.389 . S
C416 C417 1.524 . S
C416 C430 1.377 . S
C417 C416 1.524 . S
C417 C418 1.397 . S
C417 C422 1.363 . S
C418 H395 0.950 . S
C418 C417 1.397 . S
C418 C419 1.334 . S
C419 H396 0.950 . S
C419 C418 1.334 . S
C419 C420 1.287 . S
C420 C419 1.287 . S
C420 C421 1.524 . S
C420 H439 0.913 . S
C421 H397 0.950 . S
C421 C420 1.524 . S
C421 C422 1.415 . S
C422 H398 0.950 . S
C422 C417 1.363 . S
C422 C421 1.415 . S
C423 H399 0.951 . S
C423 C424 1.366 . S
C423 C425 1.388 . S
C424 C423 1.366 . S
C424 C428 1.385 . S
C425 H400 0.951 . S
C425 C423 1.388 . S
C425 C426 1.366 . S
C426 C425 1.366 . S
C426 C427 1.414 . S
C426 C429 1.499 . S
C427 H401 0.950 . S
C427 C426 1.414 . S
C427 C428 1.374 . S
C428 H402 0.950 . S
C428 C424 1.385 . S
C428 C427 1.374 . S
C429 C426 1.499 . S
C429 C430 1.373 . S
C429 C431 1.389 . S
C430 H403 0.950 . S
C430 C416 1.377 . S
C430 C429 1.373 . S
C431 C415 1.377 . S
C431 C429 1.389 . S
C431 C432 1.524 . S
C432 C431 1.524 . S
C432 C433 1.397 . S
C432 C437 1.363 . S
C433 H404 0.950 . S
C433 C432 1.397 . S
C433 C434 1.334 . S
C434 H405 0.950 . S
C434 C433 1.334 . S
C434 C435 1.287 . S
C435 C434 1.287 . S
C435 C436 1.524 . S
C435 H438 0.999 . S
C436 H406 0.950 . S
C436 C435 1.524 . S
C436 C437 1.415 . S
C437 H407 0.950 . S
C437 C432 1.363 . S
C437 C436 1.415 . S
H438 C435 0.999 . S
H439 C420 0.913 . S
H440 C458 0.951 . S
H441 C460 0.951 . S
H442 C462 0.950 . S
H443 C463 0.950 . S
H444 C465 0.950 . S
H445 C468 0.950 . S
H446 C469 0.950 . S
H447 C471 0.950 . S
H448 C472 0.950 . S
H449 C473 0.951 . S
H450 C475 0.951 . S
H451 C477 0.950 . S
H452 C478 0.950 . S
H453 C480 0.950 . S
H454 C483 0.950 . S
H455 C484 0.950 . S
H456 C486 0.950 . S
H457 C487 0.950 . S
C458 H440 0.951 . S
C458 C459 1.366 . S
C458 C460 1.388 . S
C459 C458 1.366 . S
C459 C463 1.385 . S
C460 H441 0.951 . S
C460 C458 1.388 . S
C460 C461 1.366 . S
C461 C460 1.366 . S
C461 C462 1.414 . S
C461 C464 1.499 . S
C462 H442 0.950 . S
C462 C461 1.414 . S
C462 C463 1.374 . S
C463 H443 0.950 . S
C463 C459 1.385 . S
C463 C462 1.374 . S
C464 C461 1.499 . S
C464 C465 1.373 . S
C464 C466 1.389 . S
C465 H444 0.950 . S
C465 C464 1.373 . S
C465 C481 1.377 . S
C466 C464 1.389 . S
C466 C467 1.524 . S
C466 C480 1.377 . S
C467 C466 1.524 . S
C467 C468 1.397 . S
C467 C472 1.363 . S
C468 H445 0.950 . S
C468 C467 1.397 . S
C468 C469 1.334 . S
C469 H446 0.950 . S
C469 C468 1.334 . S
C469 C470 1.287 . S
C470 C469 1.287 . S
C470 C471 1.524 . S
C470 H489 0.913 . S
C471 H447 0.950 . S
C471 C470 1.524 . S
C471 C472 1.415 . S
C472 H448 0.950 . S
C472 C467 1.363 . S
C472 C471 1.415 . S
C473 H449 0.951 . S
C473 C474 1.366 . S
C473 C475 1.388 . S
C474 C473 1.366 . S
C474 C478 1.385 . S
C475 H450 0.951 . S
C475 C473 1.388 . S
C475 C476 1.366 . S
C476 C475 1.366 . S
C476 C477 1.414 . S
C476 C479 1.499 . S
C477 H451 0.950 . S
C477 C476 1.414 . S
C477 C478 1.374 . S
C478 H452 0.950 . S
C478 C474 1.385 . S
C478 C477 1.374 . S
C479 C476 1.499 . S
C479 C480 1.373 . S
C479 C481 1.389 . S
C480 H453 0.950 . S
C480 C466 1.377 . S
C480 C479 1.373 . S
C481 C465 1.377 . S
C481 C479 1.389 . S
C481 C482 1.524 . S
C482 C481 1.524 . S
C482 C483 1.397 . S
C482 C487 1.363 . S
C483 H454 0.950 . S
C483 C482 1.397 . S
C483 C484 1.334 . S
C484 H455 0.950 . S
C484 C483 1.334 . S
C484 C485 1.287 . S
C485 C484 1.287 . S
C485 C486 1.524 . S
C485 H488 0.999 . S
C486 H456 0.950 . S
C486 C485 1.524 . S
C486 C487 1.415 . S
C487 H457 0.950 . S
C487 C482 1.363 . S
C487 C486 1.415 . S
H488 C485 0.999 . S
H489 C470 0.913 . S
H490 C508 0.951 . S
H491 C510 0.951 . S
H492 C512 0.950 . S
H493 C513 0.950 . S
H494 C515 0.950 . S
H495 C518 0.950 . S
H496 C519 0.950 . S
H497 C521 0.950 . S
H498 C522 0.950 . S
H499 C523 0.951 . S
H500 C525 0.951 . S
H501 C527 0.950 . S
H502 C528 0.950 . S
H503 C530 0.950 . S
H504 C533 0.950 . S
H505 C534 0.950 . S
H506 C536 0.950 . S
H507 C537 0.950 . S
C508 H490 0.951 . S
C508 C509 1.366 . S
C508 C510 1.388 . S
C509 C508 1.366 . S
C509 C513 1.385 . S
C510 H491 0.951 . S
C510 C508 1.388 . S
C510 C511 1.366 . S
C511 C510 1.366 . S
C511 C512 1.414 . S
C511 C514 1.499 . S
C512 H492 0.950 . S
C512 C511 1.414 . S
C512 C513 1.374 . S
C513 H493 0.950 . S
C513 C509 1.385 . S
C513 C512 1.374 . S
C514 C511 1.499 . S
C514 C515 1.373 . S
C514 C516 1.389 . S
C515 H494 0.950 . S
C515 C514 1.373 . S
C515 C531 1.377 . S
C516 C514 1.389 . S
C516 C517 1.524 . S
C516 C530 1.377 . S
C517 C516 1.524 . S
C517 C518 1.397 . S
C517 C522 1.363 . S
C518 H495 0.950 . S
C518 C517 1.397 . S
C518 C519 1.334 . S
C519 H496 0.950 . S
C519 C518 1.334 . S
C519 C520 1.287 . S
C520 C519 1.287 . S
C520 C521 1.524 . S
C520 H539 0.913 . S
C521 H497 0.950 . S
C521 C520 1.524 . S
C521 C522 1.415 . S
C522 H498 0.950 . S
C522 C517 1.363 . S
C522 C521 1.415 . S
C523 H499 0.951 . S
C523 C524 1.366 . S
C523 C525 1.388 . S
C524 C523 1.366 . S
C524 C528 1.385 . S
C525 H500 0.951 . S
C525 C523 1.388 . S
C525 C526 1.366 . S
C526 C525 1.366 . S
C526 C527 1.414 . S
C526 C529 1.499 . S
C527 H501 0.950 . S
C527 C526 1.414 . S
C527 C528 1.374 . S
C528 H502 0.950 . S
C528 C524 1.385 . S
C528 C527 1.374 . S
C529 C526 1.499 . S
C529 C530 1.373 . S
C529 C531 1.389 . S
C530 H503 0.950 . S
C530 C516 1.377 . S
C530 C529 1.373 . S
C531 C515 1.377 . S
C531 C529 1.389 . S
C531 C532 1.524 . S
C532 C531 1.524 . S
C532 C533 1.397 . S
C532 C537 1.363 . S
C533 H504 0.950 . S
C533 C532 1.397 . S
C533 C534 1.334 . S
C534 H505 0.950 . S
C534 C533 1.334 . S
C534 C535 1.287 . S
C535 C534 1.287 . S
C535 C536 1.524 . S
C535 H538 0.999 . S
C536 H506 0.950 . S
C536 C535 1.524 . S
C536 C537 1.415 . S
C537 H507 0.950 . S
C537 C532 1.363 . S
C537 C536 1.415 . S
H538 C535 0.999 . S
H539 C520 0.913 . S
H540 C558 0.951 . S
H541 C560 0.951 . S
H542 C562 0.950 . S
H543 C563 0.950 . S
H544 C565 0.950 . S
H545 C568 0.950 . S
H546 C569 0.950 . S
H547 C571 0.950 . S
H548 C572 0.950 . S
H549 C573 0.951 . S
H550 C575 0.951 . S
H551 C577 0.950 . S
H552 C578 0.950 . S
H553 C580 0.950 . S
H554 C583 0.950 . S
H555 C584 0.950 . S
H556 C586 0.950 . S
H557 C587 0.950 . S
C558 H540 0.951 . S
C558 C559 1.366 . S
C558 C560 1.388 . S
C559 C558 1.366 . S
C559 C563 1.385 . S
C560 H541 0.951 . S
C560 C558 1.388 . S
C560 C561 1.366 . S
C561 C560 1.366 . S
C561 C562 1.414 . S
C561 C564 1.499 . S
C562 H542 0.950 . S
C562 C561 1.414 . S
C562 C563 1.374 . S
C563 H543 0.950 . S
C563 C559 1.385 . S
C563 C562 1.374 . S
C564 C561 1.499 . S
C564 C565 1.373 . S
C564 C566 1.389 . S
C565 H544 0.950 . S
C565 C564 1.373 . S
C565 C581 1.377 . S
C566 C564 1.389 . S
C566 C567 1.524 . S
C566 C580 1.377 . S
C567 C566 1.524 . S
C567 C568 1.397 . S
C567 C572 1.363 . S
C568 H545 0.950 . S
C568 C567 1.397 . S
C568 C569 1.334 . S
C569 H546 0.950 . S
C569 C568 1.334 . S
C569 C570 1.287 . S
C570 C569 1.287 . S
C570 C571 1.524 . S
C570 H589 0.913 . S
C571 H547 0.950 . S
C571 C570 1.524 . S
C571 C572 1.415 . S
C572 H548 0.950 . S
C572 C567 1.363 . S
C572 C571 1.415 . S
C573 H549 0.951 . S
C573 C574 1.366 . S
C573 C575 1.388 . S
C574 C573 1.366 . S
C574 C578 1.385 . S
C575 H550 0.951 . S
C575 C573 1.388 . S
C575 C576 1.366 . S
C576 C575 1.366 . S
C576 C577 1.414 . S
C576 C579 1.499 . S
C577 H551 0.950 . S
C577 C576 1.414 . S
C577 C578 1.374 . S
C578 H552 0.950 . S
C578 C574 1.385 . S
C578 C577 1.374 . S
C579 C576 1.499 . S
C579 C580 1.373 . S
C579 C581 1.389 . S
C580 H553 0.950 . S
C580 C566 1.377 . S
C580 C579 1.373 . S
C581 C565 1.377 . S
C581 C579 1.389 . S
C581 C582 1.524 . S
C582 C581 1.524 . S
C582 C583 1.397 . S
C582 C587 1.363 . S
C583 H554 0.950 . S
C583 C582 1.397 . S
C583 C584 1.334 . S
C584 H555 0.950 . S
C584 C583 1.334 . S
C584 C585 1.287 . S
C585 C584 1.287 . S
C585 C586 1.524 . S
C585 H588 0.999 . S
C586 H556 0.950 . S
C586 C585 1.524 . S
C586 C587 1.415 . S
C587 H557 0.950 . S
C587 C582 1.363 . S
C587 C586 1.415 . S
H588 C585 0.999 . S
H589 C570 0.913 . S
H590 C608 0.951 . S
H591 C610 0.951 . S
H592 C612 0.950 . S
H593 C613 0.950 . S
H594 C615 0.950 . S
H595 C618 0.950 . S
H596 C619 0.950 . S
H597 C621 0.950 . S
H598 C622 0.950 . S
H599 C623 0.951 . S
H600 C625 0.951 . S
H601 C627 0.950 . S
H602 C628 0.950 . S
H603 C630 0.950 . S
H604 C633 0.950 . S
H605 C634 0.950 . S
H606 C636 0.950 . S
H607 C637 0.950 . S
C608 H590 0.951 . S
C608 C609 1.366 . S
C608 C610 1.388 . S
C609 C608 1.366 . S
C609 C613 1.385 . S
C610 H591 0.951 . S
C610 C608 1.388 . S
C610 C611 1.366 . S
C611 C610 1.366 . S
C611 C612 1.414 . S
C611 C614 1.499 . S
C612 H592 0.950 . S
C612 C611 1.414 . S
C612 C613 1.374 . S
C613 H593 0.950 . S
C613 C609 1.385 . S
C613 C612 1.374 . S
C614 C611 1.499 . S
C614 C615 1.373 . S
C614 C616 1.389 . S
C615 H594 0.950 . S
C615 C614 1.373 . S
C615 C631 1.377 . S
C616 C614 1.389 . S
C616 C617 1.524 . S
C616 C630 1.377 . S
C617 C616 1.524 . S
C617 C618 1.397 . S
C617 C622 1.363 . S
C618 H595 0.950 . S
C618 C617 1.397 . S
C618 C619 1.334 . S
C619 H596 0.950 . S
C619 C618 1.334 . S
C619 C620 1.287 . S
C620 C619 1.287 . S
C620 C621 1.524 . S
C620 H639 0.913 . S
C621 H597 0.950 . S
C621 C620 1.524 . S
C621 C622 1.415 . S
C622 H598 0.950 . S
C622 C617 1.363 . S
C622 C621 1.415 . S
C623 H599 0.951 . S
C623 C624 1.366 . S
C623 C625 1.388 . S
C624 C623 1.366 . S
C624 C628 1.385 . S
C625 H600 0.951 . S
C625 C623 1.388 . S
C625 C626 1.366 . S
C626 C625 1.366 . S
C626 C627 1.414 . S
C626 C629 1.499 . S
C627 H601 0.950 . S
C627 C626 1.414 . S
C627 C628 1.374 . S
C628 H602 0.950 . S
C628 C624 1.385 . S
C628 C627 1.374 . S
C629 C626 1.499 . S
C629 C630 1.373 . S
C629 C631 1.389 . S
C630 H603 0.950 . S
C630 C616 1.377 . S
C630 C629 1.373 . S
C631 C615 1.377 . S
C631 C629 1.389 . S
C631 C632 1.524 . S
C632 C631 1.524 . S
C632 C633 1.397 . S
C632 C637 1.363 . S
C633 H604 0.950 . S
C633 C632 1.397 . S
C633 C634 1.334 . S
C634 H605 0.950 . S
C634 C633 1.334 . S
C634 C635 1.287 . S
C635 C634 1.287 . S
C635 C636 1.524 . S
C635 H638 0.999 . S
C636 H606 0.950 . S
C636 C635 1.524 . S
C636 C637 1.415 . S
C637 H607 0.950 . S
C637 C632 1.363 . S
C637 C636 1.415 . S
H638 C635 0.999 . S
H639 C620 0.913 . S
H640 C658 0.951 . S
H641 C660 0.951 . S
H642 C662 0.950 . S
H643 C663 0.950 . S
H644 C665 0.950 . S
H645 C668 0.950 . S
H646 C669 0.950 . S
H647 C671 0.950 . S
H648 C672 0.950 . S
H649 C673 0.951 . S
H650 C675 0.951 . S
H651 C677 0.950 . S
H652 C678 0.950 . S
H653 C680 0.950 . S
H654 C683 0.950 . S
H655 C684 0.950 . S
H656 C686 0.950 . S
H657 C687 0.950 . S
C658 H640 0.951 . S
C658 C659 1.366 . S
C658 C660 1.388 . S
C659 C658 1.366 . S
C659 C663 1.385 . S
C660 H641 0.951 . S
C660 C658 1.388 . S
C660 C661 1.366 . S
C661 C660 1.366 . S
C661 C662 1.414 . S
C661 C664 1.499 . S
C662 H642 0.950 . S
C662 C661 1.414 . S
C662 C663 1.374 . S
C663 H643 0.950 . S
C663 C659 1.385 . S
C663 C662 1.374 . S
C664 C661 1.499 . S
C664 C665 1.373 . S
C664 C666 1.389 . S
C665 H644 0.950 . S
C665 C664 1.373 . S
C665 C681 1.377 . S
C666 C664 1.389 . S
C666 C667 1.524 . S
C666 C680 1.377 . S
C667 C666 1.524 . S
C667 C668 1.397 . S
C667 C672 1.363 . S
C668 H645 0.950 . S
C668 C667 1.397 . S
C668 C669 1.334 . S
C669 H646 0.950 . S
C669 C668 1.334 . S
C669 C670 1.287 . S
C670 C669 1.287 . S
C670 C671 1.524 . S
C670 H689 0.913 . S
C671 H647 0.950 . S
C671 C670 1.524 . S
C671 C672 1.415 . S
C672 H648 0.950 . S
C672 C667 1.363 . S
C672 C671 1.415 . S
C673 H649 0.951 . S
C673 C674 1.366 . S
C673 C675 1.388 . S
C674 C673 1.366 . S
C674 C678 1.385 . S
C675 H650 0.951 . S
C675 C673 1.388 . S
C675 C676 1.366 . S
C676 C675 1.366 . S
C676 C677 1.414 . S
C676 C679 1.499 . S
C677 H651 0.950 . S
C677 C676 1.414 . S
C677 C678 1.374 . S
C678 H652 0.950 . S
C678 C674 1.385 . S
C678 C677 1.374 . S
C679 C676 1.499 . S
C679 C680 1.373 . S
C679 C681 1.389 . S
C680 H653 0.950 . S
C680 C666 1.377 . S
C680 C679 1.373 . S
C681 C665 1.377 . S
C681 C679 1.389 . S
C681 C682 1.524 . S
C682 C681 1.524 . S
C682 C683 1.397 . S
C682 C687 1.363 . S
C683 H654 0.950 . S
C683 C682 1.397 . S
C683 C684 1.334 . S
C684 H655 0.950 . S
C684 C683 1.334 . S
C684 C685 1.287 . S
C685 C684 1.287 . S
C685 C686 1.524 . S
C685 H688 0.999 . S
C686 H656 0.950 . S
C686 C685 1.524 . S
C686 C687 1.415 . S
C687 H657 0.950 . S
C687 C682 1.363 . S
C687 C686 1.415 . S
H688 C685 0.999 . S
H689 C670 0.913 . S
H690 C708 0.951 . S
H691 C710 0.951 . S
H692 C712 0.950 . S
H693 C713 0.950 . S
H694 C715 0.950 . S
H695 C718 0.950 . S
H696 C719 0.950 . S
H697 C721 0.950 . S
H698 C722 0.950 . S
H699 C723 0.951 . S
H700 C725 0.951 . S
H701 C727 0.950 . S
H702 C728 0.950 . S
H703 C730 0.950 . S
H704 C733 0.950 . S
H705 C734 0.950 . S
H706 C736 0.950 . S
H707 C737 0.950 . S
C708 H690 0.951 . S
C708 C709 1.366 . S
C708 C710 1.388 . S
C709 C708 1.366 . S
C709 C713 1.385 . S
C710 H691 0.951 . S
C710 C708 1.388 . S
C710 C711 1.366 . S
C711 C710 1.366 . S
C711 C712 1.414 . S
C711 C714 1.499 . S
C712 H692 0.950 . S
C712 C711 1.414 . S
C712 C713 1.374 . S
C713 H693 0.950 . S
C713 C709 1.385 . S
C713 C712 1.374 . S
C714 C711 1.499 . S
C714 C715 1.373 . S
C714 C716 1.389 . S
C715 H694 0.950 . S
C715 C714 1.373 . S
C715 C731 1.377 . S
C716 C714 1.389 . S
C716 C717 1.524 . S
C716 C730 1.377 . S
C717 C716 1.524 . S
C717 C718 1.397 . S
C717 C722 1.363 . S
C718 H695 0.950 . S
C718 C717 1.397 . S
C718 C719 1.334 . S
C719 H696 0.950 . S
C719 C718 1.334 . S
C719 C720 1.287 . S
C720 C719 1.287 . S
C720 C721 1.524 . S
C720 H739 0.913 . S
C721 H697 0.950 . S
C721 C720 1.524 . S
C721 C722 1.415 . S
C722 H698 0.950 . S
C722 C717 1.363 . S
C722 C721 1.415 . S
C723 H699 0.951 . S
C723 C724 1.366 . S
C723 C725 1.388 . S
C724 C723 1.366 . S
C724 C728 1.385 . S
C725 H700 0.951 . S
C725 C723 1.388 . S
C725 C726 1.366 . S
C726 C725 1.366 . S
C726 C727 1.414 . S
C726 C729 1.499 . S
C727 H701 0.950 . S
C727 C726 1.414 . S
C727 C728 1.374 . S
C728 H702 0.950 . S
C728 C724 1.385 . S
C728 C727 1.374 . S
C729 C726 1.499 . S
C729 C730 1.373 . S
C729 C731 1.389 . S
C730 H703 0.950 . S
C730 C716 1.377 . S
C730 C729 1.373 . S
C731 C715 1.377 . S
C731 C729 1.389 . S
C731 C732 1.524 . S
C732 C731 1.524 . S
C732 C733 1.397 . S
C732 C737 1.363 . S
C733 H704 0.950 . S
C733 C732 1.397 . S
C733 C734 1.334 . S
C734 H705 0.950 . S
C734 C733 1.334 . S
C734 C735 1.287 . S
C735 C734 1.287 . S
C735 C736 1.524 . S
C735 H738 0.999 . S
C736 H706 0.950 . S
C736 C735 1.524 . S
C736 C737 1.415 . S
C737 H707 0.950 . S
C737 C732 1.363 . S
C737 C736 1.415 . S
H738 C735 0.999 . S
H739 C720 0.913 . S
H740 C758 0.951 . S
H741 C760 0.951 . S
H742 C762 0.950 . S
H743 C763 0.950 . S
H744 C765 0.950 . S
H745 C768 0.950 . S
H746 C769 0.950 . S
H747 C771 0.950 . S
H748 C772 0.950 . S
H749 C773 0.951 . S
H750 C775 0.951 . S
H751 C777 0.950 . S
H752 C778 0.950 . S
H753 C780 0.950 . S
H754 C783 0.950 . S
H755 C784 0.950 . S
H756 C786 0.950 . S
H757 C787 0.950 . S
C758 H740 0.951 . S
C758 C759 1.366 . S
C758 C760 1.388 . S
C759 C758 1.366 . S
C759 C763 1.385 . S
C760 H741 0.951 . S
C760 C758 1.388 . S
C760 C761 1.366 . S
C761 C760 1.366 . S
C761 C762 1.414 . S
C761 C764 1.499 . S
C762 H742 0.950 . S
C762 C761 1.414 . S
C762 C763 1.374 . S
C763 H743 0.950 . S
C763 C759 1.385 . S
C763 C762 1.374 . S
C764 C761 1.499 . S
C764 C765 1.373 . S
C764 C766 1.389 . S
C765 H744 0.950 . S
C765 C764 1.373 . S
C765 C781 1.377 . S
C766 C764 1.389 . S
C766 C767 1.524 . S
C766 C780 1.377 . S
C767 C766 1.524 . S
C767 C768 1.397 . S
C767 C772 1.363 . S
C768 H745 0.950 . S
C768 C767 1.397 . S
C768 C769 1.334 . S
C769 H746 0.950 . S
C769 C768 1.334 . S
C769 C770 1.287 . S
C770 C769 1.287 . S
C770 C771 1.524 . S
C770 H789 0.913 . S
C771 H747 0.950 . S
C771 C770 1.524 . S
C771 C772 1.415 . S
C772 H748 0.950 . S
C772 C767 1.363 . S
C772 C771 1.415 . S
C773 H749 0.951 . S
C773 C774 1.366 . S
C773 C775 1.388 . S
C774 C773 1.366 . S
C774 C778 1.385 . S
C775 H750 0.951 . S
C775 C773 1.388 . S
C775 C776 1.366 . S
C776 C775 1.366 . S
C776 C777 1.414 . S
C776 C779 1.499 . S
C777 H751 0.950 . S
C777 C776 1.414 . S
C777 C778 1.374 . S
C778 H752 0.950 . S
C778 C774 1.385 . S
C778 C777 1.374 . S
C779 C776 1.499 . S
C779 C780 1.373 . S
C779 C781 1.389 . S
C780 H753 0.950 . S
C780 C766 1.377 . S
C780 C779 1.373 . S
C781 C765 1.377 . S
C781 C779 1.389 . S
C781 C782 1.524 . S
C782 C781 1.524 . S
C782 C783 1.397 . S
C782 C787 1.363 . S
C783 H754 0.950 . S
C783 C782 1.397 . S
C783 C784 1.334 . S
C784 H755 0.950 . S
C784 C783 1.334 . S
C784 C785 1.287 . S
C785 C784 1.287 . S
C785 C786 1.524 . S
C785 H788 0.999 . S
C786 H756 0.950 . S
C786 C785 1.524 . S
C786 C787 1.415 . S
C787 H757 0.950 . S
C787 C782 1.363 . S
C787 C786 1.415 . S
H788 C785 0.999 . S
H789 C770 0.913 . S
H790 C808 0.951 . S
H791 C810 0.951 . S
H792 C812 0.950 . S
H793 C813 0.950 . S
H794 C815 0.950 . S
H795 C818 0.950 . S
H796 C819 0.950 . S
H797 C821 0.950 . S
H798 C822 0.950 . S
H799 C823 0.951 . S
H800 C825 0.951 . S
H801 C827 0.950 . S
H802 C828 0.950 . S
H803 C830 0.950 . S
H804 C833 0.950 . S
H805 C834 0.950 . S
H806 C836 0.950 . S
H807 C837 0.950 . S
C808 H790 0.951 . S
C808 C809 1.366 . S
C808 C810 1.388 . S
C809 C808 1.366 . S
C809 C813 1.385 . S
C810 H791 0.951 . S
C810 C808 1.388 . S
C810 C811 1.366 . S
C811 C810 1.366 . S
C811 C812 1.414 . S
C811 C814 1.499 . S
C812 H792 0.950 . S
C812 C811 1.414 . S
C812 C813 1.374 . S
C813 H793 0.950 . S
C813 C809 1.385 . S
C813 C812 1.374 . S
C814 C811 1.499 . S
C814 C815 1.373 . S
C814 C816 1.389 . S
C815 H794 0.950 . S
C815 C814 1.373 . S
C815 C831 1.377 . S
C816 C814 1.389 . S
C816 C817 1.524 . S
C816 C830 1.377 . S
C817 C816 1.524 . S
C817 C818 1.397 . S
C817 C822 1.363 . S
C818 H795 0.950 . S
C818 C817 1.397 . S
C818 C819 1.334 . S
C819 H796 0.950 . S
C819 C818 1.334 . S
C819 C820 1.287 . S
C820 C819 1.287 . S
C820 C821 1.524 . S
C820 H839 0.913 . S
C821 H797 0.950 . S
C821 C820 1.524 . S
C821 C822 1.415 . S
C822 H798 0.950 . S
C822 C817 1.363 . S
C822 C821 1.415 . S
C823 H799 0.951 . S
C823 C824 1.366 . S
C823 C825 1.388 . S
C824 C823 1.366 . S
C824 C828 1.385 . S
C825 H800 0.951 . S
C825 C823 1.388 . S
C825 C826 1.366 . S
C826 C825 1.366 . S
C826 C827 1.414 . S
C826 C829 1.499 . S
C827 H801 0.950 . S
C827 C826 1.414 . S
C827 C828 1.374 . S
C828 H802 0.950 . S
C828 C824 1.385 . S
C828 C827 1.374 . S
C829 C826 1.499 . S
C829 C830 1.373 . S
C829 C831 1.389 . S
C830 H803 0.950 . S
C830 C816 1.377 . S
C830 C829 1.373 . S
C831 C815 1.377 . S
C831 C829 1.389 . S
C831 C832 1.524 . S
C832 C831 1.524 . S
C832 C833 1.397 . S
C832 C837 1.363 . S
C833 H804 0.950 . S
C833 C832 1.397 . S
C833 C834 1.334 . S
C834 H805 0.950 . S
C834 C833 1.334 . S
C834 C835 1.287 . S
C835 C834 1.287 . S
C835 C836 1.524 . S
C835 H838 0.999 . S
C836 H806 0.950 . S
C836 C835 1.524 . S
C836 C837 1.415 . S
C837 H807 0.950 . S
C837 C832 1.363 . S
C837 C836 1.415 . S
H838 C835 0.999 . S
H839 C820 0.913 . S
H840 C858 0.951 . S
H841 C860 0.951 . S
H842 C862 0.950 . S
H843 C863 0.950 . S
H844 C865 0.950 . S
H845 C868 0.950 . S
H846 C869 0.950 . S
H847 C871 0.950 . S
H848 C872 0.950 . S
H849 C873 0.951 . S
H850 C875 0.951 . S
H851 C877 0.950 . S
H852 C878 0.950 . S
H853 C880 0.950 . S
H854 C883 0.950 . S
H855 C884 0.950 . S
H856 C886 0.950 . S
H857 C887 0.950 . S
C858 H840 0.951 . S
C858 C859 1.366 . S
C858 C860 1.388 . S
C859 C858 1.366 . S
C859 C863 1.385 . S
C860 H841 0.951 . S
C860 C858 1.388 . S
C860 C861 1.366 . S
C861 C860 1.366 . S
C861 C862 1.414 . S
C861 C864 1.499 . S
C862 H842 0.950 . S
C862 C861 1.414 . S
C862 C863 1.374 . S
C863 H843 0.950 . S
C863 C859 1.385 . S
C863 C862 1.374 . S
C864 C861 1.499 . S
C864 C865 1.373 . S
C864 C866 1.389 . S
C865 H844 0.950 . S
C865 C864 1.373 . S
C865 C881 1.377 . S
C866 C864 1.389 . S
C866 C867 1.524 . S
C866 C880 1.377 . S
C867 C866 1.524 . S
C867 C868 1.397 . S
C867 C872 1.363 . S
C868 H845 0.950 . S
C868 C867 1.397 . S
C868 C869 1.334 . S
C869 H846 0.950 . S
C869 C868 1.334 . S
C869 C870 1.287 . S
C870 C869 1.287 . S
C870 C871 1.524 . S
C870 H889 0.913 . S
C871 H847 0.950 . S
C871 C870 1.524 . S
C871 C872 1.415 . S
C872 H848 0.950 . S
C872 C867 1.363 . S
C872 C871 1.415 . S
C873 H849 0.951 . S
C873 C874 1.366 . S
C873 C875 1.388 . S
C874 C873 1.366 . S
C874 C878 1.385 . S
C875 H850 0.951 . S
C875 C873 1.388 . S
C875 C876 1.366 . S
C876 C875 1.366 . S
C876 C877 1.414 . S
C876 C879 1.499 . S
C877 H851 0.950 . S
C877 C876 1.414 . S
C877 C878 1.374 . S
C878 H852 0.950 . S
C878 C874 1.385 . S
C878 C877 1.374 . S
C879 C876 1.499 . S
C879 C880 1.373 . S
C879 C881 1.389 . S
C880 H853 0.950 . S
C880 C866 1.377 . S
C880 C879 1.373 . S
C881 C865 1.377 . S
C881 C879 1.389 . S
C881 C882 1.524 . S
C882 C881 1.524 . S
C882 C883 1.397 . S
C882 C887 1.363 . S
C883 H854 0.950 . S
C883 C882 1.397 . S
C883 C884 1.334 . S
C884 H855 0.950 . S
C884 C883 1.334 . S
C884 C885 1.287 . S
C885 C884 1.287 . S
C885 C886 1.524 . S
C885 H888 0.999 . S
C886 H856 0.950 . S
C886 C885 1.524 . S
C886 C887 1.415 . S
C887 H857 0.950 . S
C887 C882 1.363 . S
C887 C886 1.415 . S
H888 C885 0.999 . S
H889 C870 0.913 . S
H890 C908 0.951 . S
H891 C910 0.951 . S
H892 C912 0.950 . S
H893 C913 0.950 . S
H894 C915 0.950 . S
H895 C918 0.950 . S
H896 C919 0.950 . S
H897 C921 0.950 . S
H898 C922 0.950 . S
H899 C923 0.951 . S
H900 C925 0.951 . S
H901 C927 0.950 . S
H902 C928 0.950 . S
H903 C930 0.950 . S
H904 C933 0.950 . S
H905 C934 0.950 . S
H906 C936 0.950 . S
H907 C937 0.950 . S
C908 H890 0.951 . S
C908 C909 1.366 . S
C908 C910 1.388 . S
C909 C908 1.366 . S
C909 C913 1.385 . S
C910 H891 0.951 . S
C910 C908 1.388 . S
C910 C911 1.366 . S
C911 C910 1.366 . S
C911 C912 1.414 . S
C911 C914 1.499 . S
C912 H892 0.950 . S
C912 C911 1.414 . S
C912 C913 1.374 . S
C913 H893 0.950 . S
C913 C909 1.385 . S
C913 C912 1.374 . S
C914 C911 1.499 . S
C914 C915 1.373 . S
C914 C916 1.389 . S
C915 H894 0.950 . S
C915 C914 1.373 . S
C915 C931 1.377 . S
C916 C914 1.389 . S
C916 C917 1.524 . S
C916 C930 1.377 . S
C917 C916 1.524 . S
C917 C918 1.397 . S
C917 C922 1.363 . S
C918 H895 0.950 . S
C918 C917 1.397 . S
C918 C919 1.334 . S
C919 H896 0.950 . S
C919 C918 1.334 . S
C919 C920 1.287 . S
C920 C919 1.287 . S
C920 C921 1.524 . S
C920 H939 0.913 . S
C921 H897 0.950 . S
C921 C920 1.524 . S
C921 C922 1.415 . S
C922 H898 0.950 . S
C922 C917 1.363 . S
C922 C921 1.415 . S
C923 H899 0.951 . S
C923 C924 1.366 . S
C923 C925 1.388 . S
C924 C923 1.366 . S
C924 C928 1.385 . S
C925 H900 0.951 . S
C925 C923 1.388 . S
C925 C926 1.366 . S
C926 C925 1.366 . S
C926 C927 1.414 . S
C926 C929 1.499 . S
C927 H901 0.950 . S
C927 C926 1.414 . S
C927 C928 1.374 . S
C928 H902 0.950 . S
C928 C924 1.385 . S
C928 C927 1.374 . S
C929 C926 1.499 . S
C929 C930 1.373 . S
C929 C931 1.389 . S
C930 H903 0.950 . S
C930 C916 1.377 . S
C930 C929 1.373 . S
C931 C915 1.377 . S
C931 C929 1.389 . S
C931 C932 1.524 . S
C932 C931 1.524 . S
C932 C933 1.397 . S
C932 C937 1.363 . S
C933 H904 0.950 . S
C933 C932 1.397 . S
C933 C934 1.334 . S
C934 H905 0.950 . S
C934 C933 1.334 . S
C934 C935 1.287 . S
C935 C934 1.287 . S
C935 C936 1.524 . S
C935 H938 0.999 . S
C936 H906 0.950 . S
C936 C935 1.524 . S
C936 C937 1.415 . S
C937 H907 0.950 . S
C937 C932 1.363 . S
C937 C936 1.415 . S
H938 C935 0.999 . S
H939 C920 0.913 . S
H940 C958 0.951 . S
H941 C960 0.951 . S
H942 C962 0.950 . S
H943 C963 0.950 . S
H944 C965 0.950 . S
H945 C968 0.950 . S
H946 C969 0.950 . S
H947 C971 0.950 . S
H948 C972 0.950 . S
H949 C973 0.951 . S
H950 C975 0.951 . S
H951 C977 0.950 . S
H952 C978 0.950 . S
H953 C980 0.950 . S
H954 C983 0.950 . S
H955 C984 0.950 . S
H956 C986 0.950 . S
H957 C987 0.950 . S
C958 H940 0.951 . S
C958 C959 1.366 . S
C958 C960 1.388 . S
C959 C958 1.366 . S
C959 C963 1.385 . S
C960 H941 0.951 . S
C960 C958 1.388 . S
C960 C961 1.366 . S
C961 C960 1.366 . S
C961 C962 1.414 . S
C961 C964 1.499 . S
C962 H942 0.950 . S
C962 C961 1.414 . S
C962 C963 1.374 . S
C963 H943 0.950 . S
C963 C959 1.385 . S
C963 C962 1.374 . S
C964 C961 1.499 . S
C964 C965 1.373 . S
C964 C966 1.389 . S
C965 H944 0.950 . S
C965 C964 1.373 . S
C965 C981 1.377 . S
C966 C964 1.389 . S
C966 C967 1.524 . S
C966 C980 1.377 . S
C967 C966 1.524 . S
C967 C968 1.397 . S
C967 C972 1.363 . S
C968 H945 0.950 . S
C968 C967 1.397 . S
C968 C969 1.334 . S
C969 H946 0.950 . S
C969 C968 1.334 . S
C969 C970 1.287 . S
C970 C969 1.287 . S
C970 C971 1.524 . S
C970 H989 0.913 . S
C971 H947 0.950 . S
C971 C970 1.524 . S
C971 C972 1.415 . S
C972 H948 0.950 . S
C972 C967 1.363 . S
C972 C971 1.415 . S
C973 H949 0.951 . S
C973 C974 1.366 . S
C973 C975 1.388 . S
C974 C973 1.366 . S
C974 C978 1.385 . S
C975 H950 0.951 . S
C975 C973 1.388 . S
C975 C976 1.366 . S
C976 C975 1.366 . S
C976 C977 1.414 . S
C976 C979 1.499 . S
C977 H951 0.950 . S
C977 C976 1.414 . S
C977 C978 1.374 . S
C978 H952 0.950 . S
C978 C974 1.385 . S
C978 C977 1.374 . S
C979 C976 1.499 . S
C979 C980 1.373 . S
C979 C981 1.389 . S
C980 H953 0.950 . S
C980 C966 1.377 . S
C980 C979 1.373 . S
C981 C965 1.377 . S
C981 C979 1.389 . S
C981 C982 1.524 . S
C982 C981 1.524 . S
C982 C983 1.397 . S
C982 C987 1.363 . S
C983 H954 0.950 . S
C983 C982 1.397 . S
C983 C984 1.334 . S
C984 H955 0.950 . S
C984 C983 1.334 . S
C984 C985 1.287 . S
C985 C984 1.287 . S
C985 C986 1.524 . S
C985 H988 0.999 . S
C986 H956 0.950 . S
C986 C985 1.524 . S
C986 C987 1.415 . S
C987 H957 0.950 . S
C987 C982 1.363 . S
C987 C986 1.415 . S
H988 C985 0.999 . S
H989 C970 0.913 . S
H990 C1008 0.951 . S
H991 C1010 0.951 . S
H992 C1012 0.950 . S
H993 C1013 0.950 . S
H994 C1015 0.950 . S
H995 C1018 0.950 . S
H996 C1019 0.950 . S
H997 C1021 0.950 . S
H998 C1022 0.950 . S
H999 C1023 0.951 . S
H1000 C1025 0.951 . S
H1001 C1027 0.950 . S
H1002 C1028 0.950 . S
H1003 C1030 0.950 . S
H1004 C1033 0.950 . S
H1005 C1034 0.950 . S
H1006 C1036 0.950 . S
H1007 C1037 0.950 . S
C1008 H990 0.951 . S
C1008 C1009 1.366 . S
C1008 C1010 1.388 . S
C1009 C1008 1.366 . S
C1009 C1013 1.385 . S
C1010 H991 0.951 . S
C1010 C1008 1.388 . S
C1010 C1011 1.366 . S
C1011 C1010 1.366 . S
C1011 C1012 1.414 . S
C1011 C1014 1.499 . S
C1012 H992 0.950 . S
C1012 C1011 1.414 . S
C1012 C1013 1.374 . S
C1013 H993 0.950 . S
C1013 C1009 1.385 . S
C1013 C1012 1.374 . S
C1014 C1011 1.499 . S
C1014 C1015 1.373 . S
C1014 C1016 1.389 . S
C1015 H994 0.950 . S
C1015 C1014 1.373 . S
C1015 C1031 1.377 . S
C1016 C1014 1.389 . S
C1016 C1017 1.524 . S
C1016 C1030 1.377 . S
C1017 C1016 1.524 . S
C1017 C1018 1.397 . S
C1017 C1022 1.363 . S
C1018 H995 0.950 . S
C1018 C1017 1.397 . S
C1018 C1019 1.334 . S
C1019 H996 0.950 . S
C1019 C1018 1.334 . S
C1019 C1020 1.287 . S
C1020 C1019 1.287 . S
C1020 C1021 1.524 . S
C1020 H1039 0.913 . S
C1021 H997 0.950 . S
C1021 C1020 1.524 . S
C1021 C1022 1.415 . S
C1022 H998 0.950 . S
C1022 C1017 1.363 . S
C1022 C1021 1.415 . S
C1023 H999 0.951 . S
C1023 C1024 1.366 . S
C1023 C1025 1.388 . S
C1024 C1023 1.366 . S
C1024 C1028 1.385 . S
C1025 H1000 0.951 . S
C1025 C1023 1.388 . S
C1025 C1026 1.366 . S
C1026 C1025 1.366 . S
C1026 C1027 1.414 . S
C1026 C1029 1.499 . S
C1027 H1001 0.950 . S
C1027 C1026 1.414 . S
C1027 C1028 1.374 . S
C1028 H1002 0.950 . S
C1028 C1024 1.385 . S
C1028 C1027 1.374 . S
C1029 C1026 1.499 . S
C1029 C1030 1.373 . S
C1029 C1031 1.389 . S
C1030 H1003 0.950 . S
C1030 C1016 1.377 . S
C1030 C1029 1.373 . S
C1031 C1015 1.377 . S
C1031 C1029 1.389 . S
C1031 C1032 1.524 . S
C1032 C1031 1.524 . S
C1032 C1033 1.397 . S
C1032 C1037 1.363 . S
C1033 H1004 0.950 . S
C1033 C1032 1.397 . S
C1033 C1034 1.334 . S
C1034 H1005 0.950 . S
C1034 C1033 1.334 . S
C1034 C1035 1.287 . S
C1035 C1034 1.287 . S
C1035 C1036 1.524 . S
C1035 H1038 0.999 . S
C1036 H1006 0.950 . S
C1036 C1035 1.524 . S
C1036 C1037 1.415 . S
C1037 H1007 0.950 . S
C1037 C1032 1.363 . S
C1037 C1036 1.415 . S
H1038 C1035 0.999 . S
H1039 C1020 0.913 . S
H1040 C1058 0.951 . S
H1041 C1060 0.951 . S
H1042 C1062 0.950 . S
H1043 C1063 0.950 . S
H1044 C1065 0.950 . S
H1045 C1068 0.950 . S
H1046 C1069 0.950 . S
H1047 C1071 0.950 . S
H1048 C1072 0.950 . S
H1049 C1073 0.951 . S
H1050 C1075 0.951 . S
H1051 C1077 0.950 . S
H1052 C1078 0.950 . S
H1053 C1080 0.950 . S
H1054 C1083 0.950 . S
H1055 C1084 0.950 . S
H1056 C1086 0.950 . S
H1057 C1087 0.950 . S
C1058 H1040 0.951 . S
C1058 C1059 1.366 . S
C1058 C1060 1.388 . S
C1059 C1058 1.366 . S
C1059 C1063 1.385 1_554 S
C1060 H1041 0.951 . S
C1060 C1058 1.388 . S
C1060 C1061 1.366 . S
C1061 C1060 1.366 . S
C1061 C1062 1.414 1_554 S
C1061 C1064 1.499 . S
C1062 H1042 0.950 . S
C1062 C1061 1.414 1_556 S
C1062 C1063 1.374 . S
C1063 H1043 0.950 . S
C1063 C1059 1.385 1_556 S
C1063 C1062 1.374 . S
C1064 C1061 1.499 . S
C1064 C1065 1.373 1_554 S
C1064 C1066 1.389 . S
C1065 H1044 0.950 . S
C1065 C1064 1.373 1_556 S
C1065 C1081 1.377 . S
C1066 C1064 1.389 . S
C1066 C1067 1.524 . S
C1066 C1080 1.377 . S
C1067 C1066 1.524 . S
C1067 C1068 1.397 . S
C1067 C1072 1.363 . S
C1068 H1045 0.950 . S
C1068 C1067 1.397 . S
C1068 C1069 1.334 . S
C1069 H1046 0.950 . S
C1069 C1068 1.334 . S
C1069 C1070 1.287 . S
C1070 C1069 1.287 . S
C1070 C1071 1.524 . S
C1070 H1089 0.913 . S
C1071 H1047 0.950 . S
C1071 C1070 1.524 . S
C1071 C1072 1.415 . S
C1072 H1048 0.950 . S
C1072 C1067 1.363 . S
C1072 C1071 1.415 . S
C1073 H1049 0.951 . S
C1073 C1074 1.366 1_556 S
C1073 C1075 1.388 . S
C1074 C1073 1.366 1_554 S
C1074 C1078 1.385 . S
C1075 H1050 0.951 . S
C1075 C1073 1.388 . S
C1075 C1076 1.366 1_556 S
C1076 C1075 1.366 1_554 S
C1076 C1077 1.414 . S
C1076 C1079 1.499 . S
C1077 H1051 0.950 . S
C1077 C1076 1.414 . S
C1077 C1078 1.374 . S
C1078 H1052 0.950 . S
C1078 C1074 1.385 . S
C1078 C1077 1.374 . S
C1079 C1076 1.499 . S
C1079 C1080 1.373 . S
C1079 C1081 1.389 1_554 S
C1080 H1053 0.950 . S
C1080 C1066 1.377 . S
C1080 C1079 1.373 . S
C1081 C1065 1.377 . S
C1081 C1079 1.389 1_556 S
C1081 C1082 1.524 . S
C1082 C1081 1.524 . S
C1082 C1083 1.397 . S
C1082 C1087 1.363 . S
C1083 H1054 0.950 . S
C1083 C1082 1.397 . S
C1083 C1084 1.334 . S
C1084 H1055 0.950 . S
C1084 C1083 1.334 . S
C1084 C1085 1.287 . S
C1085 C1084 1.287 . S
C1085 C1086 1.524 . S
C1085 H1088 0.999 . S
C1086 H1056 0.950 . S
C1086 C1085 1.524 . S
C1086 C1087 1.415 . S
C1087 H1057 0.950 . S
C1087 C1082 1.363 . S
C1087 C1086 1.415 . S
H1088 C1085 0.999 . S
H1089 C1070 0.913 . S
H1090 C1108 0.951 . S
H1091 C1110 0.951 . S
H1092 C1112 0.950 . S
H1093 C1113 0.950 . S
H1094 C1115 0.950 . S
H1095 C1118 0.950 . S
H1096 C1119 0.950 . S
H1097 C1121 0.950 . S
H1098 C1122 0.950 . S
H1099 C1123 0.951 . S
H1100 C1125 0.951 . S
H1101 C1127 0.950 . S
H1102 C1128 0.950 . S
H1103 C1130 0.950 . S
H1104 C1133 0.950 . S
H1105 C1134 0.950 . S
H1106 C1136 0.950 . S
H1107 C1137 0.950 . S
C1108 H1090 0.951 . S
C1108 C1109 1.366 . S
C1108 C1110 1.388 . S
C1109 C1108 1.366 . S
C1109 C1113 1.385 . S
C1110 H1091 0.951 . S
C1110 C1108 1.388 . S
C1110 C1111 1.366 . S
C1111 C1110 1.366 . S
C1111 C1112 1.414 . S
C1111 C1114 1.499 . S
C1112 H1092 0.950 . S
C1112 C1111 1.414 . S
C1112 C1113 1.374 . S
C1113 H1093 0.950 . S
C1113 C1109 1.385 . S
C1113 C1112 1.374 . S
C1114 C1111 1.499 . S
C1114 C1115 1.373 . S
C1114 C1116 1.389 . S
C1115 H1094 0.950 . S
C1115 C1114 1.373 . S
C1115 C1131 1.377 . S
C1116 C1114 1.389 . S
C1116 C1117 1.524 . S
C1116 C1130 1.377 . S
C1117 C1116 1.524 . S
C1117 C1118 1.397 . S
C1117 C1122 1.363 . S
C1118 H1095 0.950 . S
C1118 C1117 1.397 . S
C1118 C1119 1.334 . S
C1119 H1096 0.950 . S
C1119 C1118 1.334 . S
C1119 C1120 1.287 . S
C1120 C1119 1.287 . S
C1120 C1121 1.524 . S
C1120 H1139 0.913 . S
C1121 H1097 0.950 . S
C1121 C1120 1.524 . S
C1121 C1122 1.415 . S
C1122 H1098 0.950 . S
C1122 C1117 1.363 . S
C1122 C1121 1.415 . S
C1123 H1099 0.951 . S
C1123 C1124 1.366 . S
C1123 C1125 1.388 . S
C1124 C1123 1.366 . S
C1124 C1128 1.385 . S
C1125 H1100 0.951 . S
C1125 C1123 1.388 . S
C1125 C1126 1.366 . S
C1126 C1125 1.366 . S
C1126 C1127 1.414 . S
C1126 C1129 1.499 . S
C1127 H1101 0.950 . S
C1127 C1126 1.414 . S
C1127 C1128 1.374 . S
C1128 H1102 0.950 . S
C1128 C1124 1.385 . S
C1128 C1127 1.374 . S
C1129 C1126 1.499 . S
C1129 C1130 1.373 . S
C1129 C1131 1.389 . S
C1130 H1103 0.950 . S
C1130 C1116 1.377 . S
C1130 C1129 1.373 . S
C1131 C1115 1.377 . S
C1131 C1129 1.389 . S
C1131 C1132 1.524 . S
C1132 C1131 1.524 . S
C1132 C1133 1.397 . S
C1132 C1137 1.363 . S
C1133 H1104 0.950 . S
C1133 C1132 1.397 . S
C1133 C1134 1.334 . S
C1134 H1105 0.950 . S
C1134 C1133 1.334 . S
C1134 C1135 1.287 . S
C1135 C1134 1.287 . S
C1135 C1136 1.524 . S
C1135 H1138 0.999 . S
C1136 H1106 0.950 . S
C1136 C1135 1.524 . S
C1136 C1137 1.415 . S
C1137 H1107 0.950 . S
C1137 C1132 1.363 . S
C1137 C1136 1.415 . S
H1138 C1135 0.999 . S
H1139 C1120 0.913 . S
H1140 C1158 0.951 1_556 S
H1141 C1160 0.951 1_556 S
H1142 C1162 0.950 . S
H1143 C1163 0.950 . S
H1144 C1165 0.950 . S
H1145 C1168 0.950 . S
H1146 C1169 0.950 . S
H1147 C1171 0.950 . S
H1148 C1172 0.950 . S
H1149 C1173 0.951 . S
H1150 C1175 0.951 . S
H1151 C1177 0.950 1_556 S
H1152 C1178 0.946 1_556 S
H1153 C1180 0.950 . S
H1154 C1183 0.950 . S
H1155 C1184 0.950 . S
H1156 C1186 0.950 . S
H1157 C1187 0.950 . S
C1158 H1140 0.951 1_554 S
C1158 C1159 1.366 . S
C1158 C1160 1.388 . S
C1159 C1158 1.366 . S
C1159 C1163 1.385 . S
C1160 H1141 0.951 1_554 S
C1160 C1158 1.388 . S
C1160 C1161 1.366 . S
C1161 C1160 1.366 . S
C1161 C1162 1.414 . S
C1161 C1164 1.499 . S
C1162 H1142 0.950 . S
C1162 C1161 1.414 . S
C1162 C1163 1.374 . S
C1163 H1143 0.950 . S
C1163 C1159 1.385 . S
C1163 C1162 1.374 . S
C1164 C1161 1.499 . S
C1164 C1165 1.373 . S
C1164 C1166 1.389 1_554 S
C1165 H1144 0.950 . S
C1165 C1164 1.373 . S
C1165 C1181 1.377 . S
C1166 C1164 1.389 1_556 S
C1166 C1167 1.524 . S
C1166 C1180 1.377 . S
C1167 C1166 1.524 . S
C1167 C1168 1.397 . S
C1167 C1172 1.363 . S
C1168 H1145 0.950 . S
C1168 C1167 1.397 . S
C1168 C1169 1.334 . S
C1169 H1146 0.950 . S
C1169 C1168 1.334 . S
C1169 C1170 1.287 . S
C1170 C1169 1.287 . S
C1170 C1171 1.524 . S
C1170 H1189 0.913 . S
C1171 H1147 0.950 . S
C1171 C1170 1.524 . S
C1171 C1172 1.415 . S
C1172 H1148 0.950 . S
C1172 C1167 1.363 . S
C1172 C1171 1.415 . S
C1173 H1149 0.951 . S
C1173 C1174 1.366 . S
C1173 C1175 1.388 . S
C1174 C1173 1.366 . S
C1174 C1178 1.389 . S
C1175 H1150 0.951 . S
C1175 C1173 1.388 . S
C1175 C1176 1.366 . S
C1176 C1175 1.366 . S
C1176 C1177 1.414 . S
C1176 C1179 1.499 . S
C1177 H1151 0.950 1_554 S
C1177 C1176 1.414 . S
C1177 C1178 1.373 . S
C1178 H1152 0.946 1_554 S
C1178 C1174 1.389 . S
C1178 C1177 1.373 . S
C1179 C1176 1.499 . S
C1179 C1180 1.373 1_554 S
C1179 C1181 1.389 . S
C1180 H1153 0.950 . S
C1180 C1166 1.377 . S
C1180 C1179 1.373 1_556 S
C1181 C1165 1.377 . S
C1181 C1179 1.389 . S
C1181 C1182 1.524 . S
C1182 C1181 1.524 . S
C1182 C1183 1.397 . S
C1182 C1187 1.363 . S
C1183 H1154 0.950 . S
C1183 C1182 1.397 . S
C1183 C1184 1.334 . S
C1184 H1155 0.950 . S
C1184 C1183 1.334 . S
C1184 C1185 1.287 . S
C1185 C1184 1.287 . S
C1185 C1186 1.524 . S
C1185 H1188 0.999 . S
C1186 H1156 0.950 . S
C1186 C1185 1.524 . S
C1186 C1187 1.415 . S
C1187 H1157 0.950 . S
C1187 C1182 1.363 . S
C1187 C1186 1.415 . S
H1188 C1185 0.999 . S
H1189 C1170 0.913 . S
H1190 C1208 0.951 . S
H1191 C1210 0.951 . S
H1192 C1212 0.950 . S
H1193 C1213 0.950 . S
H1194 C1215 0.950 . S
H1195 C1218 0.950 . S
H1196 C1219 0.950 . S
H1197 C1221 0.950 . S
H1198 C1222 0.950 . S
H1199 C1223 0.951 . S
H1200 C1225 0.951 . S
H1201 C1227 0.950 . S
H1202 C1228 0.950 . S
H1203 C1230 0.950 . S
H1204 C1233 0.950 . S
H1205 C1234 0.950 . S
H1206 C1236 0.950 . S
H1207 C1237 0.950 . S
C1208 H1190 0.951 . S
C1208 C1209 1.366 . S
C1208 C1210 1.388 . S
C1209 C1208 1.366 . S
C1209 C1213 1.385 . S
C1210 H1191 0.951 . S
C1210 C1208 1.388 . S
C1210 C1211 1.366 . S
C1211 C1210 1.366 . S
C1211 C1212 1.414 . S
C1211 C1214 1.499 . S
C1212 H1192 0.950 . S
C1212 C1211 1.414 . S
C1212 C1213 1.374 . S
C1213 H1193 0.950 . S
C1213 C1209 1.385 . S
C1213 C1212 1.374 . S
C1214 C1211 1.499 . S
C1214 C1215 1.373 . S
C1214 C1216 1.389 . S
C1215 H1194 0.950 . S
C1215 C1214 1.373 . S
C1215 C1231 1.377 . S
C1216 C1214 1.389 . S
C1216 C1217 1.524 . S
C1216 C1230 1.377 . S
C1217 C1216 1.524 . S
C1217 C1218 1.397 . S
C1217 C1222 1.363 . S
C1218 H1195 0.950 . S
C1218 C1217 1.397 . S
C1218 C1219 1.334 . S
C1219 H1196 0.950 . S
C1219 C1218 1.334 . S
C1219 C1220 1.287 . S
C1220 C1219 1.287 . S
C1220 C1221 1.524 . S
C1220 H1239 0.913 . S
C1221 H1197 0.950 . S
C1221 C1220 1.524 . S
C1221 C1222 1.415 . S
C1222 H1198 0.950 . S
C1222 C1217 1.363 . S
C1222 C1221 1.415 . S
C1223 H1199 0.951 . S
C1223 C1224 1.366 . S
C1223 C1225 1.388 . S
C1224 C1223 1.366 . S
C1224 C1228 1.385 . S
C1225 H1200 0.951 . S
C1225 C1223 1.388 . S
C1225 C1226 1.366 . S
C1226 C1225 1.366 . S
C1226 C1227 1.414 . S
C1226 C1229 1.499 . S
C1227 H1201 0.950 . S
C1227 C1226 1.414 . S
C1227 C1228 1.374 . S
C1228 H1202 0.950 . S
C1228 C1224 1.385 . S
C1228 C1227 1.374 . S
C1229 C1226 1.499 . S
C1229 C1230 1.373 . S
C1229 C1231 1.389 . S
C1230 H1203 0.950 . S
C1230 C1216 1.377 . S
C1230 C1229 1.373 . S
C1231 C1215 1.377 . S
C1231 C1229 1.389 . S
C1231 C1232 1.524 . S
C1232 C1231 1.524 . S
C1232 C1233 1.397 . S
C1232 C1237 1.363 . S
C1233 H1204 0.950 . S
C1233 C1232 1.397 . S
C1233 C1234 1.334 . S
C1234 H1205 0.950 . S
C1234 C1233 1.334 . S
C1234 C1235 1.287 . S
C1235 C1234 1.287 . S
C1235 C1236 1.524 . S
C1235 H1238 0.999 . S
C1236 H1206 0.950 . S
C1236 C1235 1.524 . S
C1236 C1237 1.415 . S
C1237 H1207 0.950 . S
C1237 C1232 1.363 . S
C1237 C1236 1.415 . S
H1238 C1235 0.999 . S
H1239 C1220 0.913 . S
H1240 C1258 0.951 . S
H1241 C1260 0.951 . S
H1242 C1262 0.950 . S
H1243 C1263 0.950 . S
H1244 C1265 0.950 . S
H1245 C1268 0.950 . S
H1246 C1269 0.950 . S
H1247 C1271 0.950 . S
H1248 C1272 0.950 . S
H1249 C1273 0.951 . S
H1250 C1275 0.951 . S
H1251 C1277 0.950 . S
H1252 C1278 0.950 . S
H1253 C1280 0.950 . S
H1254 C1283 0.950 . S
H1255 C1284 0.950 . S
H1256 C1286 0.950 . S
H1257 C1287 0.950 . S
C1258 H1240 0.951 . S
C1258 C1259 1.366 . S
C1258 C1260 1.388 . S
C1259 C1258 1.366 . S
C1259 C1263 1.385 . S
C1260 H1241 0.951 . S
C1260 C1258 1.388 . S
C1260 C1261 1.366 . S
C1261 C1260 1.366 . S
C1261 C1262 1.414 . S
C1261 C1264 1.499 . S
C1262 H1242 0.950 . S
C1262 C1261 1.414 . S
C1262 C1263 1.374 . S
C1263 H1243 0.950 . S
C1263 C1259 1.385 . S
C1263 C1262 1.374 . S
C1264 C1261 1.499 . S
C1264 C1265 1.373 . S
C1264 C1266 1.389 . S
C1265 H1244 0.950 . S
C1265 C1264 1.373 . S
C1265 C1281 1.377 . S
C1266 C1264 1.389 . S
C1266 C1267 1.524 . S
C1266 C1280 1.377 . S
C1267 C1266 1.524 . S
C1267 C1268 1.397 . S
C1267 C1272 1.363 . S
C1268 H1245 0.950 . S
C1268 C1267 1.397 . S
C1268 C1269 1.334 . S
C1269 H1246 0.950 . S
C1269 C1268 1.334 . S
C1269 C1270 1.287 . S
C1270 C1269 1.287 . S
C1270 C1271 1.524 . S
C1270 H1289 0.913 . S
C1271 H1247 0.950 . S
C1271 C1270 1.524 . S
C1271 C1272 1.415 . S
C1272 H1248 0.950 . S
C1272 C1267 1.363 . S
C1272 C1271 1.415 . S
C1273 H1249 0.951 . S
C1273 C1274 1.366 . S
C1273 C1275 1.388 . S
C1274 C1273 1.366 . S
C1274 C1278 1.385 . S
C1275 H1250 0.951 . S
C1275 C1273 1.388 . S
C1275 C1276 1.366 . S
C1276 C1275 1.366 . S
C1276 C1277 1.414 . S
C1276 C1279 1.499 . S
C1277 H1251 0.950 . S
C1277 C1276 1.414 . S
C1277 C1278 1.374 . S
C1278 H1252 0.950 . S
C1278 C1274 1.385 . S
C1278 C1277 1.374 . S
C1279 C1276 1.499 . S
C1279 C1280 1.373 . S
C1279 C1281 1.389 . S
C1280 H1253 0.950 . S
C1280 C1266 1.377 . S
C1280 C1279 1.373 . S
C1281 C1265 1.377 . S
C1281 C1279 1.389 . S
C1281 C1282 1.524 . S
C1282 C1281 1.524 . S
C1282 C1283 1.397 . S
C1282 C1287 1.363 . S
C1283 H1254 0.950 . S
C1283 C1282 1.397 . S
C1283 C1284 1.334 . S
C1284 H1255 0.950 . S
C1284 C1283 1.334 . S
C1284 C1285 1.287 . S
C1285 C1284 1.287 . S
C1285 C1286 1.524 . S
C1285 H1288 0.999 . S
C1286 H1256 0.950 . S
C1286 C1285 1.524 . S
C1286 C1287 1.415 . S
C1287 H1257 0.950 . S
C1287 C1282 1.363 . S
C1287 C1286 1.415 . S
H1288 C1285 0.999 . S
H1289 C1270 0.913 . S
H1290 C1308 0.951 . S
H1291 C1310 0.951 . S
H1292 C1312 0.950 . S
H1293 C1313 0.950 . S
H1294 C1315 0.950 . S
H1295 C1318 0.950 . S
H1296 C1319 0.950 . S
H1297 C1321 0.950 . S
H1298 C1322 0.950 . S
H1299 C1323 0.951 . S
H1300 C1325 0.951 . S
H1301 C1327 0.950 1_556 S
H1302 C1328 0.950 1_556 S
H1303 C1330 0.950 . S
H1304 C1333 0.950 . S
H1305 C1334 0.950 . S
H1306 C1336 0.950 . S
H1307 C1337 0.950 . S
C1308 H1290 0.951 . S
C1308 C1309 1.366 1_556 S
C1308 C1310 1.388 . S
C1309 C1308 1.366 1_554 S
C1309 C1313 1.385 . S
C1310 H1291 0.951 . S
C1310 C1308 1.388 . S
C1310 C1311 1.366 1_556 S
C1311 C1310 1.366 1_554 S
C1311 C1312 1.414 . S
C1311 C1314 1.499 . S
C1312 H1292 0.950 . S
C1312 C1311 1.414 . S
C1312 C1313 1.374 . S
C1313 H1293 0.950 . S
C1313 C1309 1.385 . S
C1313 C1312 1.374 . S
C1314 C1311 1.499 . S
C1314 C1315 1.373 . S
C1314 C1316 1.389 1_554 S
C1315 H1294 0.950 . S
C1315 C1314 1.373 . S
C1315 C1331 1.377 . S
C1316 C1314 1.389 1_556 S
C1316 C1317 1.524 . S
C1316 C1330 1.377 . S
C1317 C1316 1.524 . S
C1317 C1318 1.397 . S
C1317 C1322 1.363 . S
C1318 H1295 0.950 . S
C1318 C1317 1.397 . S
C1318 C1319 1.334 . S
C1319 H1296 0.950 . S
C1319 C1318 1.334 . S
C1319 C1320 1.287 . S
C1320 C1319 1.287 . S
C1320 C1321 1.524 . S
C1320 H1339 0.913 . S
C1321 H1297 0.950 . S
C1321 C1320 1.524 . S
C1321 C1322 1.415 . S
C1322 H1298 0.950 . S
C1322 C1317 1.363 . S
C1322 C1321 1.415 . S
C1323 H1299 0.951 . S
C1323 C1324 1.366 . S
C1323 C1325 1.388 . S
C1324 C1323 1.366 . S
C1324 C1328 1.385 . S
C1325 H1300 0.951 . S
C1325 C1323 1.388 . S
C1325 C1326 1.366 . S
C1326 C1325 1.366 . S
C1326 C1327 1.414 . S
C1326 C1329 1.499 . S
C1327 H1301 0.950 1_554 S
C1327 C1326 1.414 . S
C1327 C1328 1.374 . S
C1328 H1302 0.950 1_554 S
C1328 C1324 1.385 . S
C1328 C1327 1.374 . S
C1329 C1326 1.499 . S
C1329 C1330 1.373 1_554 S
C1329 C1331 1.389 . S
C1330 H1303 0.950 . S
C1330 C1316 1.377 . S
C1330 C1329 1.373 1_556 S
C1331 C1315 1.377 . S
C1331 C1329 1.389 . S
C1331 C1332 1.524 . S
C1332 C1331 1.524 . S
C1332 C1333 1.397 . S
C1332 C1337 1.363 . S
C1333 H1304 0.950 . S
C1333 C1332 1.397 . S
C1333 C1334 1.334 . S
C1334 H1305 0.950 . S
C1334 C1333 1.334 . S
C1334 C1335 1.287 . S
C1335 C1334 1.287 . S
C1335 C1336 1.524 . S
C1335 H1338 0.999 . S
C1336 H1306 0.950 . S
C1336 C1335 1.524 . S
C1336 C1337 1.415 . S
C1337 H1307 0.950 . S
C1337 C1332 1.363 . S
C1337 C1336 1.415 . S
H1338 C1335 0.999 . S
H1339 C1320 0.913 . S
H1340 C1358 0.951 . S
H1341 C1360 0.951 . S
H1342 C1362 0.950 . S
H1343 C1363 0.950 . S
H1344 C1365 0.950 . S
H1345 C1368 0.950 . S
H1346 C1369 0.950 . S
H1347 C1371 0.950 . S
H1348 C1372 0.950 . S
H1349 C1373 0.951 . S
H1350 C1375 0.951 . S
H1351 C1377 0.950 . S
H1352 C1378 0.950 . S
H1353 C1380 0.950 . S
H1354 C1383 0.950 . S
H1355 C1384 0.950 . S
H1356 C1386 0.950 . S
H1357 C1387 0.950 . S
C1358 H1340 0.951 . S
C1358 C1359 1.366 . S
C1358 C1360 1.388 . S
C1359 C1358 1.366 . S
C1359 C1363 1.385 . S
C1360 H1341 0.951 . S
C1360 C1358 1.388 . S
C1360 C1361 1.366 . S
C1361 C1360 1.366 . S
C1361 C1362 1.414 . S
C1361 C1364 1.499 . S
C1362 H1342 0.950 . S
C1362 C1361 1.414 . S
C1362 C1363 1.374 . S
C1363 H1343 0.950 . S
C1363 C1359 1.385 . S
C1363 C1362 1.374 . S
C1364 C1361 1.499 . S
C1364 C1365 1.373 . S
C1364 C1366 1.389 . S
C1365 H1344 0.950 . S
C1365 C1364 1.373 . S
C1365 C1381 1.377 . S
C1366 C1364 1.389 . S
C1366 C1367 1.524 . S
C1366 C1380 1.377 . S
C1367 C1366 1.524 . S
C1367 C1368 1.397 . S
C1367 C1372 1.363 . S
C1368 H1345 0.950 . S
C1368 C1367 1.397 . S
C1368 C1369 1.334 . S
C1369 H1346 0.950 . S
C1369 C1368 1.334 . S
C1369 C1370 1.287 . S
C1370 C1369 1.287 . S
C1370 C1371 1.524 . S
C1370 H1389 0.913 . S
C1371 H1347 0.950 . S
C1371 C1370 1.524 . S
C1371 C1372 1.415 . S
C1372 H1348 0.950 . S
C1372 C1367 1.363 . S
C1372 C1371 1.415 . S
C1373 H1349 0.951 . S
C1373 C1374 1.366 . S
C1373 C1375 1.388 . S
C1374 C1373 1.366 . S
C1374 C1378 1.385 . S
C1375 H1350 0.951 . S
C1375 C1373 1.388 . S
C1375 C1376 1.366 . S
C1376 C1375 1.366 . S
C1376 C1377 1.414 . S
C1376 C1379 1.499 . S
C1377 H1351 0.950 . S
C1377 C1376 1.414 . S
C1377 C1378 1.374 . S
C1378 H1352 0.950 . S
C1378 C1374 1.385 . S
C1378 C1377 1.374 . S
C1379 C1376 1.499 . S
C1379 C1380 1.373 . S
C1379 C1381 1.389 . S
C1380 H1353 0.950 . S
C1380 C1366 1.377 . S
C1380 C1379 1.373 . S
C1381 C1365 1.377 . S
C1381 C1379 1.389 . S
C1381 C1382 1.524 . S
C1382 C1381 1.524 . S
C1382 C1383 1.397 . S
C1382 C1387 1.363 . S
C1383 H1354 0.950 . S
C1383 C1382 1.397 . S
C1383 C1384 1.334 . S
C1384 H1355 0.950 . S
C1384 C1383 1.334 . S
C1384 C1385 1.287 . S
C1385 C1384 1.287 . S
C1385 C1386 1.524 . S
C1385 H1388 0.999 . S
C1386 H1356 0.950 . S
C1386 C1385 1.524 . S
C1386 C1387 1.415 . S
C1387 H1357 0.950 . S
C1387 C1382 1.363 . S
C1387 C1386 1.415 . S
H1388 C1385 0.999 . S
H1389 C1370 0.913 . S
H1390 C1408 0.951 . S
H1391 C1410 0.951 . S
H1392 C1412 0.950 1_556 S
H1393 C1413 0.950 1_556 S
H1394 C1415 0.950 . S
H1395 C1418 0.950 . S
H1396 C1419 0.950 . S
H1397 C1421 0.950 . S
H1398 C1422 0.950 . S
H1399 C1423 0.951 1_556 S
H1400 C1425 0.951 1_556 S
H1401 C1427 0.950 . S
H1402 C1428 0.950 . S
H1403 C1430 0.950 . S
H1404 C1433 0.950 . S
H1405 C1434 0.950 . S
H1406 C1436 0.950 . S
H1407 C1437 0.950 . S
C1408 H1390 0.951 . S
C1408 C1409 1.366 . S
C1408 C1410 1.388 . S
C1409 C1408 1.366 . S
C1409 C1413 1.385 . S
C1410 H1391 0.951 . S
C1410 C1408 1.388 . S
C1410 C1411 1.366 . S
C1411 C1410 1.366 . S
C1411 C1412 1.414 . S
C1411 C1414 1.499 . S
C1412 H1392 0.950 1_554 S
C1412 C1411 1.414 . S
C1412 C1413 1.374 . S
C1413 H1393 0.950 1_554 S
C1413 C1409 1.385 . S
C1413 C1412 1.374 . S
C1414 C1411 1.499 . S
C1414 C1415 1.373 . S
C1414 C1416 1.389 1_554 S
C1415 H1394 0.950 . S
C1415 C1414 1.373 . S
C1415 C1431 1.377 . S
C1416 C1414 1.389 1_556 S
C1416 C1417 1.524 . S
C1416 C1430 1.377 . S
C1417 C1416 1.524 . S
C1417 C1418 1.397 . S
C1417 C1422 1.363 . S
C1418 H1395 0.950 . S
C1418 C1417 1.397 . S
C1418 C1419 1.334 . S
C1419 H1396 0.950 . S
C1419 C1418 1.334 . S
C1419 C1420 1.287 . S
C1420 C1419 1.287 . S
C1420 C1421 1.524 . S
C1420 H1439 0.913 . S
C1421 H1397 0.950 . S
C1421 C1420 1.524 . S
C1421 C1422 1.415 . S
C1422 H1398 0.950 . S
C1422 C1417 1.363 . S
C1422 C1421 1.415 . S
C1423 H1399 0.951 1_554 S
C1423 C1424 1.366 . S
C1423 C1425 1.388 . S
C1424 C1423 1.366 . S
C1424 C1428 1.385 . S
C1425 H1400 0.951 1_554 S
C1425 C1423 1.388 . S
C1425 C1426 1.366 . S
C1426 C1425 1.366 . S
C1426 C1427 1.414 . S
C1426 C1429 1.499 . S
C1427 H1401 0.950 . S
C1427 C1426 1.414 . S
C1427 C1428 1.374 . S
C1428 H1402 0.950 . S
C1428 C1424 1.385 . S
C1428 C1427 1.374 . S
C1429 C1426 1.499 . S
C1429 C1430 1.373 1_554 S
C1429 C1431 1.389 . S
C1430 H1403 0.950 . S
C1430 C1416 1.377 . S
C1430 C1429 1.373 1_556 S
C1431 C1415 1.377 . S
C1431 C1429 1.389 . S
C1431 C1432 1.524 . S
C1432 C1431 1.524 . S
C1432 C1433 1.397 . S
C1432 C1437 1.363 . S
C1433 H1404 0.950 . S
C1433 C1432 1.397 . S
C1433 C1434 1.334 . S
C1434 H1405 0.950 . S
C1434 C1433 1.334 . S
C1434 C1435 1.287 . S
C1435 C1434 1.287 . S
C1435 C1436 1.524 . S
C1435 H1438 0.999 . S
C1436 H1406 0.950 . S
C1436 C1435 1.524 . S
C1436 C1437 1.415 . S
C1437 H1407 0.950 . S
C1437 C1432 1.363 . S
C1437 C1436 1.415 . S
H1438 C1435 0.999 . S
H1439 C1420 0.913 . S
C259 C5 1.478 . S
C274 C151 1.488 . S
C309 C31 1.501 . S
C324 C94 1.507 . S
C374 C109 1.504 . S
C359 C53 1.536 . S
C409 C71 1.514 . S
C424 C128 1.484 . S
C474 C185 1.483 . S
C459 C75 1.514 . S
C524 C204 1.503 . S
C509 C9 1.536 . S
C574 C227 1.507 . S
C559 C27 1.502 . S
C624 C170 1.488 . S
C609 C49 1.478 . S
C659 C51 1.478 . S
C674 C113 1.490 . S
C709 C72 1.502 . S
C724 C132 1.510 . S
C759 C6 1.537 . S
C774 C147 1.502 . S
C824 C90 1.483 . S
C809 C29 1.513 . S
C859 C28 1.514 . S
C874 C223 1.483 . S
C924 C166 1.502 . S
C909 C50 1.537 . S
C974 C189 1.510 . S
C959 C73 1.501 . S
C1009 C7 1.478 . S
C1024 C208 1.490 . S
C1074 C99 1.385 1_554 S
C1059 C4 1.513 . S
C1124 C118 1.428 . S
C1109 C30 1.512 . S
C1159 C52 1.512 . S
C1174 C137 1.429 . S
C1209 C70 1.512 . S
C1224 C156 1.386 . S
C1274 C175 1.385 . S
C1259 C74 1.512 . S
C1309 C8 1.513 . S
C1324 C194 1.427 1_554 S
C1359 C26 1.512 . S
C1374 C213 1.428 . S
C1409 C48 1.513 . S
C1424 C232 1.385 . S
