# Generated by pormake.
# Topology anh, (6,3)-cn, num edge types: 1
# Building blocks:
#     Node 0, Type 0, BuildingBlock: PAMTUU_clean_sbu_0, # of connection points: 6
#     Node 1, Type 0, BuildingBlock: PAMTUU_clean_sbu_0, # of connection points: 6
#     Node 2, Type 0, BuildingBlock: PAMTUU_clean_sbu_0, # of connection points: 6
#     Node 3, Type 1, BuildingBlock: KAKCAD_clean_linker_0, # of connection points: 3
#     Node 4, Type 1, BuildingBlock: KAKCAD_clean_linker_0, # of connection points: 3
#     Node 5, Type 1, BuildingBlock: KAKCAD_clean_linker_0, # of connection points: 3
#     Node 6, Type 1, BuildingBlock: KAKCAD_clean_linker_0, # of connection points: 3
#     Node 7, Type 1, BuildingBlock: KAKCAD_clean_linker_0, # of connection points: 3
#     Node 8, Type 1, BuildingBlock: KAKCAD_clean_linker_0, # of connection points: 3
#     Edge 9, Type (0, 1), BuildingBlock: OJICUG_clean_linker_0, # of connection points: 2
#     Edge 10, Type (0, 1), BuildingBlock: OJICUG_clean_linker_0, # of connection points: 2
#     Edge 11, Type (0, 1), BuildingBlock: OJICUG_clean_linker_0, # of connection points: 2
#     Edge 12, Type (0, 1), BuildingBlock: OJICUG_clean_linker_0, # of connection points: 2
#     Edge 13, Type (0, 1), BuildingBlock: OJICUG_clean_linker_0, # of connection points: 2
#     Edge 14, Type (0, 1), BuildingBlock: OJICUG_clean_linker_0, # of connection points: 2
#     Edge 15, Type (0, 1), BuildingBlock: OJICUG_clean_linker_0, # of connection points: 2
#     Edge 16, Type (0, 1), BuildingBlock: OJICUG_clean_linker_0, # of connection points: 2
#     Edge 17, Type (0, 1), BuildingBlock: OJICUG_clean_linker_0, # of connection points: 2
#     Edge 18, Type (0, 1), BuildingBlock: OJICUG_clean_linker_0, # of connection points: 2
#     Edge 19, Type (0, 1), BuildingBlock: OJICUG_clean_linker_0, # of connection points: 2
#     Edge 20, Type (0, 1), BuildingBlock: OJICUG_clean_linker_0, # of connection points: 2
#     Edge 21, Type (0, 1), BuildingBlock: OJICUG_clean_linker_0, # of connection points: 2
#     Edge 22, Type (0, 1), BuildingBlock: OJICUG_clean_linker_0, # of connection points: 2
#     Edge 23, Type (0, 1), BuildingBlock: OJICUG_clean_linker_0, # of connection points: 2
#     Edge 24, Type (0, 1), BuildingBlock: OJICUG_clean_linker_0, # of connection points: 2
#     Edge 25, Type (0, 1), BuildingBlock: OJICUG_clean_linker_0, # of connection points: 2
#     Edge 26, Type (0, 1), BuildingBlock: OJICUG_clean_linker_0, # of connection points: 2
# Relax obj value: 0.303
# Max RMSD: 0.198
# Mean RMSD: 0.164
data_MOF--net-anh--node1-PAMTUU_clean_sbu_0--node2-KAKCAD_clean_linker_0--edge1-OJICUG_clean_linker_0
_symmetry_space_group_name_H-M    P1
_symmetry_Int_Tables_number       1
_symmetry_cell_setting            triclinic
loop_
_symmetry_equiv_pos_as_xyz
'x, y, z'
_cell_length_a     28.643747
_cell_length_b     28.72688
_cell_length_c     52.300583
_cell_angle_alpha  92.99073
_cell_angle_beta   91.093246
_cell_angle_gamma 119.87303
loop_
_atom_site_label
_atom_site_type_symbol
_atom_site_fract_x
_atom_site_fract_y
_atom_site_fract_z
_atom_type_partial_charge
Tb0 Tb 0.18083 0.69115 0.17443 0.0
Tb1 Tb 0.24071 0.6233 0.17957 0.0
C2 C 0.20817 0.64338 0.12425 0.0
C3 C 1.06367 0.70657 0.17697 0.0
C4 C 0.95172 0.63512 0.17544 0.0
C5 C 0.97462 0.67306 0.15689 0.0
C6 C 1.03022 0.7085 0.15766 0.0
C7 C 1.0402 0.67151 0.19663 0.0
C8 C 0.98475 0.63625 0.19588 0.0
C9 C 0.12239 0.73372 0.17425 0.0
O10 O 0.11817 0.60981 0.18575 0.0
O11 O 0.15513 0.5603 0.17074 0.0
O12 O 0.2155 0.63333 0.21771 0.0
O13 O 0.2226 0.71371 0.21152 0.0
O14 O 0.2402 0.55535 0.19313 0.0
O15 O 0.30969 0.61623 0.17569 0.0
O16 O 0.30622 0.70945 0.18678 0.0
O17 O 0.26622 0.75385 0.16955 0.0
O18 O 0.17923 0.66226 0.13488 0.0
O19 O 0.2378 0.62986 0.13811 0.0
C20 C 1.11296 0.56203 0.1795 0.0
O21 O 0.15094 0.7354 0.19425 0.0
O22 O 0.13766 0.71949 0.15341 0.0
C23 C 0.2187 0.67807 0.22696 0.0
C24 C 0.28824 0.52663 0.16719 0.0
C25 C 0.30028 0.45302 0.13442 0.0
C26 C 0.30948 0.45508 0.16107 0.0
C27 C 0.30367 0.49186 0.17734 0.0
C28 C 0.27603 0.52252 0.14077 0.0
C29 C 0.28229 0.48619 0.12449 0.0
C30 C 0.28668 0.56824 0.18403 0.0
C31 C 0.31012 0.75451 0.17883 0.0
H32 H 0.9502 0.67283 0.14076 0.0
H33 H 1.04744 0.73491 0.14225 0.0
H34 H 1.06485 0.66884 0.21181 0.0
H35 H 0.96808 0.60794 0.2106 0.0
H36 H 0.32396 0.43036 0.16916 0.0
H37 H 0.31285 0.49431 0.19773 0.0
H38 H 0.26335 0.54861 0.13263 0.0
H39 H 0.27473 0.48517 0.10403 0.0
Tb40 Tb 0.6248 0.08605 0.49952 0.0
Tb41 Tb 0.75155 0.14802 0.51369 0.0
C42 C 0.70531 0.12428 0.45608 0.0
C43 C 0.47859 1.04464 0.49898 0.0
C44 C 0.38505 1.05221 0.50534 0.0
C45 C 0.38462 1.00369 0.50884 0.0
C46 C 0.43087 1.00003 0.50566 0.0
C47 C 0.48073 0.09436 0.49739 0.0
C48 C 0.43421 0.09809 0.50052 0.0
C49 C 0.52393 1.03688 0.49223 0.0
O50 O 0.64206 1.01994 0.50791 0.0
O51 O 0.73465 1.06357 0.50804 0.0
O52 O 0.70865 0.1038 0.54626 0.0
O53 O 0.64169 0.12049 0.53842 0.0
O54 O 0.83125 0.17091 0.50513 0.0
O55 O 0.81348 0.19889 0.54084 0.0
O56 O 0.73008 0.21249 0.51907 0.0
O57 O 0.64534 0.17212 0.49943 0.0
O58 O 0.66083 0.08409 0.46363 0.0
O59 O 0.74192 0.15969 0.47305 0.0
C60 C 0.68777 1.01838 0.50896 0.0
O61 O 0.55722 1.06889 0.47608 0.0
O62 O 0.54876 1.02872 0.51111 0.0
C63 C 0.66619 0.10504 0.55405 0.0
C64 C 0.88239 0.26332 0.51819 0.0
C65 C 0.92107 0.37253 0.51076 0.0
C66 C 0.93768 0.35779 0.53288 0.0
C67 C 0.91799 0.30327 0.53668 0.0
C68 C 0.86884 0.27866 0.4954 0.0
C69 C 0.88793 0.33263 0.49175 0.0
C70 C 0.85035 0.20697 0.52458 0.0
C71 C 0.68816 0.21579 0.51028 0.0
H72 H 0.34759 0.96714 0.51209 0.0
H73 H 0.42859 0.96146 0.50716 0.0
H74 H 0.51759 0.12965 0.49267 0.0
H75 H 0.43608 0.13613 0.49793 0.0
H76 H 0.96343 0.38811 0.54772 0.0
H77 H 0.92812 0.29225 0.55458 0.0
H78 H 0.84095 0.24887 0.48092 0.0
H79 H 0.87533 0.34315 0.47435 0.0
Tb80 Tb 0.66662 0.56652 0.839 0.0
Tb81 Tb 0.73694 0.6941 0.84732 0.0
C82 C 0.70499 0.63393 0.79135 0.0
C83 C 0.60102 0.41297 0.8322 0.0
C84 C 0.56877 0.30643 0.8155 0.0
C85 C 0.60433 0.34915 0.80122 0.0
C86 C 0.62026 0.40227 0.80949 0.0
C87 C 0.56846 0.37076 0.84725 0.0
C88 C 0.55233 0.31782 0.83896 0.0
C89 C 0.60815 0.46607 0.8393 0.0
O90 O 0.75104 0.58191 0.8461 0.0
O91 O 0.80155 0.67366 0.84321 0.0
O92 O 0.74371 0.65889 0.88232 0.0
O93 O 0.65737 0.59709 0.8758 0.0
O94 O 0.79093 0.77074 0.83525 0.0
O95 O 0.75738 0.76161 0.87243 0.0
O96 O 0.65249 0.67704 0.85229 0.0
O97 O 0.60469 0.59098 0.83402 0.0
O98 O 0.69673 0.58961 0.8013 0.0
O99 O 0.71155 0.6756 0.80618 0.0
C100 C 0.79886 0.62666 0.84554 0.0
O101 O 0.64423 0.49568 0.85751 0.0
O102 O 0.60634 0.49409 0.82081 0.0
C103 C 0.6994 0.62204 0.89146 0.0
C104 C 0.75036 0.82269 0.84688 0.0
C105 C 0.65752 0.82374 0.8299 0.0
C106 C 0.67111 0.82985 0.85621 0.0
C107 C 0.71757 0.82959 0.86469 0.0
C108 C 0.74138 0.82638 0.82072 0.0
C109 C 0.6949 0.8262 0.81229 0.0
C110 C 0.77903 0.79402 0.85417 0.0
C111 C 0.60578 0.63505 0.84374 0.0
H112 H 0.61733 0.34132 0.78299 0.0
H113 H 0.64544 0.43453 0.79765 0.0
H114 H 0.55336 0.37853 0.86486 0.0
H115 H 0.5255 0.28563 0.85044 0.0
H116 H 0.64326 0.82918 0.87011 0.0
H117 H 0.72401 0.82797 0.88503 0.0
H118 H 0.7665 0.82269 0.80646 0.0
H119 H 0.68595 0.82345 0.79186 0.0
C120 C 0.74247 0.19831 0.33494 0.0
C121 C 0.72689 0.1487 0.34547 0.0
C122 C 0.74305 0.20237 0.30818 0.0
C123 C 0.72814 0.15696 0.29113 0.0
C124 C 0.71441 0.10791 0.30176 0.0
C125 C 0.7137 0.10384 0.32838 0.0
C126 C 0.72466 0.15954 0.26245 0.0
C127 C 0.76376 0.20371 0.24996 0.0
C128 C 0.76196 0.20648 0.22298 0.0
C129 C 0.7175 0.16095 0.20833 0.0
C130 C 0.67651 0.11515 0.22078 0.0
C131 C 0.6817 0.1168 0.2477 0.0
C132 C 0.62781 1.0632 0.20792 0.0
C133 C 0.58502 1.06245 0.19353 0.0
C134 C 0.61816 1.01226 0.21496 0.0
C135 C 0.56857 0.96387 0.20891 0.0
C136 C 0.5247 0.96256 0.19514 0.0
C137 C 0.80786 0.25815 0.21207 0.0
C138 C 0.82478 0.30957 0.22455 0.0
C139 C 0.84048 0.2577 0.19212 0.0
C140 C 0.88806 0.30571 0.18569 0.0
C141 C 0.90562 0.35708 0.1987 0.0
C142 C 0.87175 0.3572 0.21811 0.0
C143 C 0.53501 1.01354 0.18723 0.0
H144 H 0.75259 0.23375 0.34736 0.0
H145 H 0.75355 0.24078 0.30086 0.0
H146 H 0.70398 1.07225 0.28944 0.0
H147 H 0.70275 1.06522 0.33559 0.0
H148 H 0.79714 0.236 0.26148 0.0
H149 H 0.65087 0.08388 0.25755 0.0
H150 H 0.71486 0.16117 0.18767 0.0
H151 H 0.58915 0.1001 0.18804 0.0
H152 H 0.64879 1.00999 0.2264 0.0
H153 H 0.56461 0.92764 0.21617 0.0
H154 H 0.80196 0.31304 0.24007 0.0
H155 H 0.83044 0.21976 0.18201 0.0
H156 H 0.50413 1.01631 0.17635 0.0
H157 H 0.88221 0.39417 0.22924 0.0
H158 H 0.91124 0.30216 0.1704 0.0
C159 C 0.6704 0.65319 0.66557 0.0
C160 C 0.70188 0.63645 0.67909 0.0
C161 C 0.66794 0.65089 0.63856 0.0
C162 C 0.69714 0.63207 0.62414 0.0
C163 C 0.72942 0.61638 0.63777 0.0
C164 C 0.73159 0.61835 0.6647 0.0
C165 C 0.69375 0.6282 0.59514 0.0
C166 C 0.69016 0.66742 0.58145 0.0
C167 C 0.6876 0.66556 0.55435 0.0
C168 C 0.68921 0.62107 0.54068 0.0
C169 C 0.69282 0.58 0.55421 0.0
C170 C 0.69446 0.58515 0.58127 0.0
C171 C 0.69618 0.5312 0.54218 0.0
C172 C 0.65674 0.49122 0.52448 0.0
C173 C 0.73504 0.51919 0.55218 0.0
C174 C 0.73398 0.47 0.54566 0.0
C175 C 0.69391 0.42894 0.52855 0.0
C176 C 0.68294 0.71142 0.54227 0.0
C177 C 0.64429 0.72508 0.55082 0.0
C178 C 0.72138 0.74788 0.52606 0.0
C179 C 0.72177 0.79592 0.51942 0.0
C180 C 0.68352 0.81004 0.52848 0.0
C181 C 0.64435 0.77248 0.54408 0.0
C182 C 0.65562 0.4415 0.51787 0.0
H183 H 0.64646 0.66684 0.67584 0.0
H184 H 0.64206 0.66277 0.629 0.0
H185 H 0.75362 0.60288 0.62764 0.0
H186 H 0.75715 0.60607 0.67427 0.0
H187 H 0.69064 0.701 0.59215 0.0
H188 H 0.69543 0.55417 0.59185 0.0
H189 H 0.68772 0.61849 0.51994 0.0
H190 H 0.62523 0.49732 0.51646 0.0
H191 H 0.76604 0.54769 0.56604 0.0
H192 H 0.76421 0.46384 0.55507 0.0
H193 H 0.61424 0.6994 0.56361 0.0
H194 H 0.75275 0.7405 0.51929 0.0
H195 H 0.62403 0.41265 0.5044 0.0
H196 H 0.61426 0.78041 0.55209 0.0
H197 H 0.75269 0.82226 0.5072 0.0
C198 C 0.25681 0.65759 0.9992 0.0
C199 C 0.20851 0.63003 0.01195 0.0
C200 C 0.25642 0.65723 0.97225 0.0
C201 C 0.20774 0.6288 0.95713 0.0
C202 C 0.15965 0.60014 0.97 0.0
C203 C 0.16 0.60106 0.99689 0.0
C204 C 0.20669 0.62958 0.92822 0.0
C205 C 0.24863 0.6305 0.9141 0.0
C206 C 0.24877 0.63137 0.88712 0.0
C207 C 0.2035 0.63076 0.87397 0.0
C208 C 0.15924 0.62841 0.88785 0.0
C209 C 0.16312 0.6289 0.91482 0.0
C210 C 1.10684 0.62349 0.87607 0.0
C211 C 1.10587 0.66158 0.86029 0.0
C212 C 1.05613 0.58436 0.88437 0.0
C213 C 1.00748 0.5839 0.87797 0.0
C214 C 1.00616 0.62278 0.86287 0.0
C215 C 0.29642 0.63048 0.8743 0.0
C216 C 0.3031 0.58501 0.87541 0.0
C217 C 0.34113 0.67745 0.86609 0.0
C218 C 0.39013 0.67888 0.85963 0.0
C219 C 0.39707 0.63337 0.86107 0.0
C220 C 0.35164 0.58621 0.86878 0.0
C221 C 1.05685 0.66132 0.85392 0.0
H222 H 0.29493 0.68077 0.01009 0.0
H223 H 0.29435 0.68042 0.96334 0.0
H224 H 0.12135 0.57647 0.95932 0.0
H225 H 0.12207 0.57853 0.00591 0.0
H226 H 0.28162 0.62978 0.92421 0.0
H227 H 0.13151 0.62943 0.92566 0.0
H228 H 0.20193 0.63035 0.85326 0.0
H229 H 0.14338 0.69312 0.85369 0.0
H230 H 1.05415 0.5544 0.89674 0.0
H231 H 0.97093 0.55365 0.88586 0.0
H232 H 0.27098 0.54843 0.88237 0.0
H233 H 0.33908 0.71403 0.86561 0.0
H234 H 1.05907 0.69197 0.84201 0.0
H235 H 0.35404 0.55015 0.87078 0.0
H236 H 0.42291 0.71623 0.8537 0.0
C237 C 1.09145 0.67642 0.32874 0.0
C238 C 0.14631 0.71038 0.32442 0.0
C239 C 1.06822 0.6873 0.34987 0.0
C240 C 1.09934 0.73255 0.36691 0.0
C241 C 0.15424 0.76601 0.36272 0.0
C242 C 0.17745 0.75499 0.34179 0.0
C243 C 1.07663 0.74331 0.39025 0.0
C244 C 1.04818 0.70214 0.40649 0.0
C245 C 1.03756 0.71396 0.43133 0.0
C246 C 1.05611 0.76773 0.43998 0.0
C247 C 1.08383 0.80974 0.42372 0.0
C248 C 1.09106 0.79629 0.39837 0.0
C249 C 1.11363 0.86711 0.43439 0.0
C250 C 1.09694 0.88458 0.45629 0.0
C251 C 0.16379 0.9031 0.42487 0.0
C252 C 0.19812 0.95234 0.43802 0.0
C253 C 0.18423 0.96686 0.46151 0.0
C254 C 1.01336 0.67029 0.449 0.0
C255 C 0.96766 0.62117 0.44074 0.0
C256 C 1.0392 0.67518 0.47292 0.0
C257 C 1.02141 0.63066 0.48763 0.0
C258 C 0.97729 0.58071 0.47872 0.0
C259 C 0.94974 0.57687 0.45545 0.0
C260 C 0.13221 0.9337 0.46991 0.0
H261 H 1.06619 0.64213 0.3155 0.0
H262 H 1.02588 0.66068 0.35275 0.0
H263 H 0.1797 0.80025 0.37595 0.0
H264 H 0.21999 0.7814 0.3393 0.0
H265 H 1.03806 0.6613 0.40058 0.0
H266 H 1.11122 0.82742 0.38522 0.0
H267 H 1.05123 0.77657 0.45979 0.0
H268 H 1.05796 0.85906 0.46383 0.0
H269 H 0.17949 0.89189 0.4085 0.0
H270 H 0.23809 0.97618 0.43105 0.0
H271 H 0.94703 0.61648 0.42238 0.0
H272 H 1.07487 0.71255 0.47961 0.0
H273 H 0.12016 0.94405 0.48785 0.0
H274 H 0.91603 0.53883 0.44785 0.0
H275 H 1.04315 0.63487 0.50556 0.0
C276 C 0.46223 0.95166 0.62084 0.0
C277 C 0.51463 0.95889 0.62197 0.0
C278 C 0.426 0.92409 0.63944 0.0
C279 C 0.44127 0.90268 0.65932 0.0
C280 C 0.49124 0.90451 0.65871 0.0
C281 C 0.52768 0.93254 0.64027 0.0
C282 C 0.41392 0.89285 0.68383 0.0
C283 C 0.4072 0.84999 0.69801 0.0
C284 C 0.40419 0.85285 0.72488 0.0
C285 C 0.40443 0.89797 0.73696 0.0
C286 C 0.40952 0.94026 0.72283 0.0
C287 C 0.41105 0.93579 0.6961 0.0
C288 C 0.42696 0.99363 0.73625 0.0
C289 C 0.40483 0.99837 0.75933 0.0
C290 C 0.47078 1.03984 0.72738 0.0
C291 C 0.49252 0.08925 0.74137 0.0
C292 C 0.47168 0.09378 0.76483 0.0
C293 C 0.41559 0.81781 0.7409 0.0
C294 C 0.45328 0.80287 0.733 0.0
C295 C 0.39836 0.8089 0.76617 0.0
C296 C 0.42409 0.7933 0.78398 0.0
C297 C 0.46597 0.78445 0.77652 0.0
C298 C 0.47777 0.78596 0.75055 0.0
C299 C 0.42701 1.04803 0.77351 0.0
H300 H 0.45026 0.96999 0.60644 0.0
H301 H 0.38773 0.92317 0.63947 0.0
H302 H 0.50449 0.88906 0.67401 0.0
H303 H 0.56755 0.93715 0.64172 0.0
H304 H 0.40988 0.81722 0.68832 0.0
H305 H 0.41751 0.9695 0.68527 0.0
H306 H 0.40765 0.90363 0.75768 0.0
H307 H 0.37119 0.96348 0.76669 0.0
H308 H 0.48996 1.03769 0.71007 0.0
H309 H 0.52618 0.12389 0.73387 0.0
H310 H 0.46847 0.80936 0.71397 0.0
H311 H 0.36819 0.81829 0.77276 0.0
H312 H 0.41013 1.05025 0.79158 0.0
H313 H 0.51016 0.7797 0.74423 0.0
H314 H 0.41376 0.79159 0.80386 0.0
C315 C 0.64013 0.43309 0.96704 0.0
C316 C 0.67996 0.48735 0.97215 0.0
C317 C 0.6239 0.39759 0.98654 0.0
C318 C 0.64678 0.41593 0.01157 0.0
C319 C 0.68991 0.46924 0.01602 0.0
C320 C 0.70653 0.50451 0.99642 0.0
C321 C 0.6203 0.38379 0.03371 0.0
C322 C 0.65138 0.38837 0.0557 0.0
C323 C 0.62778 0.37393 0.07935 0.0
C324 C 0.57191 0.35202 0.08061 0.0
C325 C 0.53932 0.34538 0.05863 0.0
C326 C 0.56398 0.35903 0.035 0.0
C327 C 0.48342 0.33615 0.06162 0.0
C328 C 0.4539 0.31067 0.08283 0.0
C329 C 0.46296 0.36095 0.04586 0.0
C330 C 0.4189 0.36597 0.05289 0.0
C331 C 0.3956 0.34876 0.07646 0.0
C332 C 0.66326 0.39392 0.10306 0.0
C333 C 0.71054 0.39067 0.10455 0.0
C334 C 0.65533 0.42537 0.12209 0.0
C335 C 0.69622 0.45729 0.14061 0.0
C336 C 0.7458 0.4585 0.14036 0.0
C337 C 0.7515 0.42272 0.12304 0.0
C338 C 0.41129 0.31788 0.0905 0.0
H339 H 0.61958 0.41887 0.94827 0.0
H340 H 0.59131 0.35668 0.98235 0.0
H341 H 0.7081 0.48525 0.03509 0.0
H342 H 0.73715 0.54622 0.0008 0.0
H343 H 0.69487 0.40841 0.05491 0.0
H344 H 0.54008 0.35529 0.01796 0.0
H345 H 0.5551 0.34475 0.0993 0.0
H346 H 0.46613 0.28854 0.09477 0.0
H347 H 0.48316 0.38088 0.02916 0.0
H348 H 0.40608 0.38737 0.04076 0.0
H349 H 0.71745 0.36641 0.09024 0.0
H350 H 0.61952 0.42909 0.1214 0.0
H351 H 0.39393 0.30283 0.10854 0.0
H352 H 0.78929 0.42277 0.12229 0.0
H353 H 0.69044 0.48385 0.15399 0.0
C354 C 0.30239 0.3688 0.12092 0.0
C355 C 0.31662 0.42214 0.11695 0.0
H356 H 0.31363 0.30222 0.11027 0.0
C357 C 0.3516 0.44844 0.09761 0.0
H358 H 0.27506 0.34756 0.13564 0.0
C359 C 0.37472 0.42334 0.0836 0.0
C360 C 0.36279 0.3707 0.0882 0.0
H361 H 0.36392 0.48988 0.09441 0.0
H362 H 0.40467 0.44698 0.07033 0.0
C363 C 0.32478 0.34306 0.10647 0.0
C364 C 0.89522 0.44065 0.50084 0.0
C365 C 0.93573 0.42881 0.50744 0.0
H366 H 0.87661 0.49882 0.48738 0.0
C367 C 0.98988 0.4697 0.50821 0.0
H368 H 0.85308 0.40982 0.50052 0.0
C369 C 1.00346 0.52061 0.50043 0.0
C370 C 0.96297 0.53128 0.49196 0.0
H371 H 1.02171 0.46134 0.51324 0.0
H372 H 1.04568 0.55036 0.49947 0.0
C373 C 0.90868 0.49145 0.49328 0.0
C374 C 0.57848 0.83862 0.82715 0.0
C375 C 0.60231 0.8076 0.82051 0.0
H376 H 0.51477 0.85466 0.81834 0.0
C377 C 0.57421 0.76168 0.80348 0.0
H378 H 0.59918 0.87369 0.84055 0.0
C379 C 0.5257 0.75012 0.7912 0.0
C380 C 0.50475 0.78458 0.7956 0.0
H381 H 0.59111 0.7361 0.79877 0.0
H382 H 0.50669 0.71661 0.77684 0.0
C383 C 0.52993 0.82725 0.81468 0.0
C384 C 0.88391 0.53699 0.17388 0.0
C385 C 0.8955 0.5902 0.17146 0.0
H386 H 0.82672 0.45314 0.16644 0.0
C387 C 0.8546 0.59929 0.16229 0.0
H388 H 0.91481 0.52872 0.18064 0.0
C389 C 0.8043 0.55601 0.15398 0.0
C390 C 0.79401 0.5028 0.15463 0.0
H391 H 0.8623 0.63987 0.16044 0.0
H392 H 0.77484 0.56448 0.14542 0.0
C393 C 0.83364 0.49368 0.16554 0.0
C394 C 0.28779 1.01502 0.51476 0.0
C395 C 0.33272 1.0508 0.50156 0.0
H396 H 0.20308 0.9599 0.51217 0.0
C397 C 0.32402 1.07355 0.48009 0.0
H398 H 0.29311 0.99848 0.53199 0.0
C399 C 0.27198 1.05265 0.46914 0.0
C400 C 0.22848 1.00798 0.47918 0.0
H401 H 0.35747 0.10208 0.46965 0.0
H402 H 0.26709 1.06601 0.4508 0.0
C403 C 0.23586 0.99338 0.50353 0.0
C404 C 0.48863 0.2158 0.80439 0.0
C405 C 0.54476 0.25023 0.80478 0.0
H406 H 0.42139 0.13962 0.79113 0.0
C407 C 0.57697 0.23167 0.79347 0.0
H408 H 0.46282 0.22945 0.81273 0.0
C409 C 0.55332 0.18006 0.78132 0.0
C410 C 0.49692 0.14634 0.77995 0.0
H411 H 0.62038 0.25727 0.7938 0.0
H412 H 0.5792 0.16683 0.77271 0.0
C413 C 0.46491 0.16437 0.79205 0.0
C414 C 0.63825 0.91672 0.51725 0.0
C415 C 0.68655 0.9646 0.51286 0.0
H416 H 0.5987 0.8329 0.52495 0.0
C417 C 0.73381 0.9603 0.51318 0.0
H418 H 0.60061 0.91702 0.51734 0.0
C419 C 0.73285 0.91115 0.5177 0.0
C420 C 0.68459 0.86326 0.52242 0.0
H421 H 0.77224 0.99539 0.51009 0.0
H422 H 0.77071 0.91132 0.51804 0.0
C423 C 0.6373 0.86771 0.52192 0.0
C424 C 0.9031 0.67212 0.84887 0.0
C425 C 0.85176 0.62499 0.8489 0.0
H426 H 0.98964 0.70917 0.85312 0.0
C427 C 0.85231 0.57694 0.85297 0.0
H428 H 0.90567 0.71035 0.84597 0.0
C429 C 0.9013 0.57616 0.85703 0.0
C430 C 0.95285 0.62341 0.85731 0.0
H431 H 0.81452 0.53945 0.85319 0.0
H432 H 0.89834 0.53774 0.8598 0.0
C433 C 0.95212 0.67136 0.8529 0.0
C434 C 0.41357 0.80862 0.18831 0.0
C435 C 0.36492 0.80783 0.18197 0.0
H436 H 0.49909 0.85379 0.1962 0.0
C437 C 0.36987 0.85897 0.17935 0.0
H438 H 0.41289 0.771 0.19044 0.0
C439 C 0.4204 0.90804 0.1833 0.0
C440 C 0.46938 0.90908 0.18988 0.0
H441 H 0.3342 0.86138 0.17464 0.0
H442 H 0.42037 0.94536 0.18158 0.0
C443 C 0.46405 0.85742 0.19193 0.0
C444 C 0.64298 0.27542 0.50965 0.0
C445 C 0.68922 0.27025 0.51381 0.0
H446 H 0.60711 0.32615 0.51101 0.0
C447 C 0.73703 0.31846 0.52207 0.0
H448 H 0.60499 0.24012 0.50338 0.0
C449 C 0.73855 0.36866 0.52622 0.0
C450 C 0.69218 0.3741 0.52265 0.0
H451 H 0.77407 0.31768 0.52537 0.0
H452 H 0.77705 0.40349 0.53213 0.0
C453 C 0.64437 0.32576 0.514 0.0
C454 C 0.55139 0.68225 0.85643 0.0
C455 C 0.55256 0.63577 0.84688 0.0
H456 H 0.50434 0.71885 0.86803 0.0
C457 C 0.50159 0.58912 0.84137 0.0
H458 H 0.58894 0.71917 0.86118 0.0
C459 C 0.45234 0.58863 0.84561 0.0
C460 C 0.45094 0.63492 0.85541 0.0
H461 H 0.49949 0.55215 0.83403 0.0
H462 H 0.41499 0.55139 0.84097 0.0
C463 C 0.50206 0.68201 0.86036 0.0
C464 C 1.05232 0.45742 0.17755 0.0
C465 C 1.05935 0.50941 0.18343 0.0
H466 H 1.00166 0.37107 0.17743 0.0
C467 C 1.01435 0.51005 0.19385 0.0
H468 H 1.08512 0.45383 0.16961 0.0
C469 C 0.96562 0.46186 0.19836 0.0
C470 C 0.95845 0.40961 0.19276 0.0
H471 H 1.01672 0.54826 0.19877 0.0
H472 H 0.93317 0.4661 0.2062 0.0
C473 C 1.00344 0.4091 0.182 0.0
C474 C 0.16916 0.64281 0.0804 0.0
C475 C 0.2077 0.63817 0.09552 0.0
H476 H 0.13917 0.64393 0.04268 0.0
C477 C 0.24636 0.63015 0.08281 0.0
H478 H 0.1387 0.64902 0.08933 0.0
C479 C 0.2469 0.62774 0.05584 0.0
C480 C 0.20828 0.63239 0.04077 0.0
H481 H 0.27677 0.62648 0.0937 0.0
H482 H 0.27732 0.62168 0.04677 0.0
C483 C 0.16925 0.63964 0.05351 0.0
C484 C 0.75552 0.17692 0.41848 0.0
C485 C 0.71253 0.13059 0.42787 0.0
H486 H 0.79399 0.21915 0.38546 0.0
C487 C 0.67488 0.09054 0.40989 0.0
H488 H 0.78526 0.20877 0.43166 0.0
C489 C 0.67984 0.09652 0.38345 0.0
C490 C 0.72253 0.14286 0.37395 0.0
H491 H 0.64105 1.05437 0.4162 0.0
H492 H 0.64936 1.06495 0.37043 0.0
C493 C 0.76031 0.18307 0.39192 0.0
C494 C 0.70375 0.59356 0.74708 0.0
C495 C 0.705 0.63571 0.76269 0.0
H496 H 0.70139 0.56047 0.70908 0.0
C497 C 0.7053 0.67846 0.75049 0.0
H498 H 0.70334 0.55979 0.75558 0.0
C499 C 0.70403 0.67875 0.72353 0.0
C500 C 0.703 0.63659 0.70795 0.0
H501 H 0.70615 0.71163 0.76176 0.0
H502 H 0.70456 0.71245 0.7149 0.0
C503 C 0.70295 0.59409 0.72024 0.0
C504 C 0.63531 1.02538 0.58024 0.0
C505 C 0.6349 1.07258 0.57485 0.0
H506 H 0.59634 0.95125 0.59865 0.0
C507 C 0.5969 0.08336 0.58606 0.0
H508 H 0.66352 1.01556 0.5714 0.0
C509 C 0.55859 1.04677 0.60156 0.0
C510 C 0.55686 0.99806 0.60596 0.0
H511 H 0.59568 0.11942 0.58213 0.0
H512 H 0.52995 1.05655 0.60991 0.0
C513 C 0.59647 0.98832 0.59562 0.0
C514 C 0.64767 0.56324 0.92521 0.0
C515 C 0.69812 0.59696 0.91547 0.0
H516 H 0.60277 0.50191 0.95048 0.0
C517 C 0.74416 0.59813 0.92612 0.0
H518 H 0.61154 0.56179 0.9175 0.0
C519 C 0.73897 0.56345 0.94518 0.0
C520 C 0.68771 0.52704 0.95344 0.0
H521 H 0.78343 0.62339 0.91875 0.0
H522 H 0.77448 0.56337 0.95263 0.0
C523 C 0.64249 0.5285 0.94386 0.0
C524 C 0.22376 0.73792 0.26411 0.0
C525 C 0.20854 0.68583 0.25394 0.0
H526 H 0.21537 0.78629 0.29392 0.0
C527 C 0.17655 0.6417 0.26822 0.0
H528 H 0.24835 0.77271 0.2535 0.0
C529 C 0.15742 0.64951 0.29159 0.0
C530 C 0.1704 0.70157 0.30107 0.0
H531 H 0.16384 0.60106 0.2607 0.0
H532 H 0.13149 0.61477 0.30192 0.0
C533 C 0.20493 0.74571 0.28736 0.0
loop_
_geom_bond_atom_site_label_1
_geom_bond_atom_site_label_2
_geom_bond_distance
_geom_bond_site_symmetry_2
_ccdc_geom_bond_type
Tb0 C9 2.764 1_455 S
Tb0 O10 2.325 1_455 S
Tb0 O13 2.303 . S
Tb0 O17 2.322 . S
Tb0 O18 2.349 . S
Tb0 O21 2.415 1_455 S
Tb0 O22 2.399 1_455 S
Tb1 O11 2.322 1_455 S
Tb1 O12 2.349 . S
Tb1 O14 2.415 . S
Tb1 O15 2.399 . S
Tb1 O16 2.325 . S
Tb1 O19 2.303 . S
Tb1 C30 2.764 . S
C2 O18 1.261 . S
C2 O19 1.257 . S
C3 C6 1.358 . S
C3 C7 1.332 . S
C3 C9 1.504 . S
C4 C5 1.373 . S
C4 C8 1.308 . S
C5 C4 1.373 . S
C5 C6 1.429 . S
C5 H32 0.932 . S
C6 C3 1.358 . S
C6 C5 1.429 . S
C6 H33 0.930 . S
C7 C3 1.332 . S
C7 C8 1.394 . S
C7 H34 0.932 . S
C8 C4 1.308 . S
C8 C7 1.394 . S
C8 H35 0.929 . S
C9 Tb0 2.764 1_655 S
C9 C3 1.504 . S
C9 O21 1.239 . S
C9 O22 1.263 . S
O10 Tb0 2.325 1_655 S
O10 C20 1.236 . S
O11 Tb1 2.322 1_655 S
O11 C20 1.257 . S
O12 Tb1 2.349 . S
O12 C23 1.261 . S
O13 Tb0 2.303 . S
O13 C23 1.257 . S
O14 Tb1 2.415 . S
O14 C30 1.239 . S
O15 Tb1 2.399 . S
O15 C30 1.263 . S
O16 Tb1 2.325 . S
O16 C31 1.236 . S
O17 Tb0 2.322 . S
O17 C31 1.257 . S
O18 Tb0 2.349 . S
O18 C2 1.261 . S
O19 Tb1 2.303 . S
O19 C2 1.257 . S
C20 O10 1.236 . S
C20 O11 1.257 . S
O21 Tb0 2.415 1_655 S
O21 C9 1.239 . S
O22 Tb0 2.399 1_655 S
O22 C9 1.263 . S
C23 O12 1.261 . S
C23 O13 1.257 . S
C24 C27 1.358 . S
C24 C28 1.332 . S
C24 C30 1.504 . S
C25 C26 1.373 . S
C25 C29 1.308 . S
C26 C25 1.373 . S
C26 C27 1.429 . S
C26 H36 0.932 . S
C27 C24 1.358 . S
C27 C26 1.429 . S
C27 H37 0.930 . S
C28 C24 1.332 . S
C28 C29 1.394 . S
C28 H38 0.932 . S
C29 C25 1.308 . S
C29 C28 1.394 . S
C29 H39 0.929 . S
C30 Tb1 2.764 . S
C30 O14 1.239 . S
C30 O15 1.263 . S
C30 C24 1.504 . S
C31 O16 1.236 . S
C31 O17 1.257 . S
H32 C5 0.932 . S
H33 C6 0.930 . S
H34 C7 0.932 . S
H35 C8 0.929 . S
H36 C26 0.932 . S
H37 C27 0.930 . S
H38 C28 0.932 . S
H39 C29 0.929 . S
Tb40 C49 2.764 . S
Tb40 O50 2.325 . S
Tb40 O53 2.303 1_565 S
Tb40 O57 2.322 1_565 S
Tb40 O58 2.349 1_565 S
Tb40 O61 2.415 . S
Tb40 O62 2.399 . S
Tb41 O51 2.322 1_545 S
Tb41 O52 2.349 . S
Tb41 O54 2.415 . S
Tb41 O55 2.399 . S
Tb41 O56 2.325 . S
Tb41 O59 2.303 . S
Tb41 C70 2.764 . S
C42 O58 1.261 . S
C42 O59 1.257 . S
C43 C46 1.358 . S
C43 C47 1.332 . S
C43 C49 1.504 . S
C44 C45 1.373 . S
C44 C48 1.308 . S
C45 C44 1.373 . S
C45 C46 1.429 . S
C45 H72 0.932 . S
C46 C43 1.358 . S
C46 C45 1.429 . S
C46 H73 0.930 . S
C47 C43 1.332 . S
C47 C48 1.394 . S
C47 H74 0.932 . S
C48 C44 1.308 . S
C48 C47 1.394 . S
C48 H75 0.929 . S
C49 Tb40 2.764 . S
C49 C43 1.504 . S
C49 O61 1.239 . S
C49 O62 1.263 . S
O50 Tb40 2.325 . S
O50 C60 1.236 . S
O51 Tb41 2.322 1_565 S
O51 C60 1.257 . S
O52 Tb41 2.349 . S
O52 C63 1.261 . S
O53 Tb40 2.303 1_545 S
O53 C63 1.257 . S
O54 Tb41 2.415 . S
O54 C70 1.239 . S
O55 Tb41 2.399 . S
O55 C70 1.263 . S
O56 Tb41 2.325 . S
O56 C71 1.236 . S
O57 Tb40 2.322 1_545 S
O57 C71 1.257 . S
O58 Tb40 2.349 1_545 S
O58 C42 1.261 . S
O59 Tb41 2.303 . S
O59 C42 1.257 . S
C60 O50 1.236 . S
C60 O51 1.257 . S
O61 Tb40 2.415 . S
O61 C49 1.239 . S
O62 Tb40 2.399 . S
O62 C49 1.263 . S
C63 O52 1.261 . S
C63 O53 1.257 . S
C64 C67 1.358 . S
C64 C68 1.332 . S
C64 C70 1.504 . S
C65 C66 1.373 . S
C65 C69 1.308 . S
C66 C65 1.373 . S
C66 C67 1.429 . S
C66 H76 0.932 . S
C67 C64 1.358 . S
C67 C66 1.429 . S
C67 H77 0.930 . S
C68 C64 1.332 . S
C68 C69 1.394 . S
C68 H78 0.932 . S
C69 C65 1.308 . S
C69 C68 1.394 . S
C69 H79 0.929 . S
C70 Tb41 2.764 . S
C70 O54 1.239 . S
C70 O55 1.263 . S
C70 C64 1.504 . S
C71 O56 1.236 . S
C71 O57 1.257 . S
H72 C45 0.932 . S
H73 C46 0.930 . S
H74 C47 0.932 . S
H75 C48 0.929 . S
H76 C66 0.932 . S
H77 C67 0.930 . S
H78 C68 0.932 . S
H79 C69 0.929 . S
Tb80 C89 2.764 . S
Tb80 O90 2.325 . S
Tb80 O93 2.303 . S
Tb80 O97 2.322 . S
Tb80 O98 2.349 . S
Tb80 O101 2.415 . S
Tb80 O102 2.399 . S
Tb81 O91 2.322 . S
Tb81 O92 2.349 . S
Tb81 O94 2.415 . S
Tb81 O95 2.399 . S
Tb81 O96 2.325 . S
Tb81 O99 2.303 . S
Tb81 C110 2.764 . S
C82 O98 1.261 . S
C82 O99 1.257 . S
C83 C86 1.358 . S
C83 C87 1.332 . S
C83 C89 1.504 . S
C84 C85 1.373 . S
C84 C88 1.308 . S
C85 C84 1.373 . S
C85 C86 1.429 . S
C85 H112 0.932 . S
C86 C83 1.358 . S
C86 C85 1.429 . S
C86 H113 0.930 . S
C87 C83 1.332 . S
C87 C88 1.394 . S
C87 H114 0.932 . S
C88 C84 1.308 . S
C88 C87 1.394 . S
C88 H115 0.929 . S
C89 Tb80 2.764 . S
C89 C83 1.504 . S
C89 O101 1.239 . S
C89 O102 1.263 . S
O90 Tb80 2.325 . S
O90 C100 1.236 . S
O91 Tb81 2.322 . S
O91 C100 1.257 . S
O92 Tb81 2.349 . S
O92 C103 1.261 . S
O93 Tb80 2.303 . S
O93 C103 1.257 . S
O94 Tb81 2.415 . S
O94 C110 1.239 . S
O95 Tb81 2.399 . S
O95 C110 1.263 . S
O96 Tb81 2.325 . S
O96 C111 1.236 . S
O97 Tb80 2.322 . S
O97 C111 1.257 . S
O98 Tb80 2.349 . S
O98 C82 1.261 . S
O99 Tb81 2.303 . S
O99 C82 1.257 . S
C100 O90 1.236 . S
C100 O91 1.257 . S
O101 Tb80 2.415 . S
O101 C89 1.239 . S
O102 Tb80 2.399 . S
O102 C89 1.263 . S
C103 O92 1.261 . S
C103 O93 1.257 . S
C104 C107 1.358 . S
C104 C108 1.332 . S
C104 C110 1.504 . S
C105 C106 1.373 . S
C105 C109 1.308 . S
C106 C105 1.373 . S
C106 C107 1.429 . S
C106 H116 0.932 . S
C107 C104 1.358 . S
C107 C106 1.429 . S
C107 H117 0.930 . S
C108 C104 1.332 . S
C108 C109 1.394 . S
C108 H118 0.932 . S
C109 C105 1.308 . S
C109 C108 1.394 . S
C109 H119 0.929 . S
C110 Tb81 2.764 . S
C110 O94 1.239 . S
C110 O95 1.263 . S
C110 C104 1.504 . S
C111 O96 1.236 . S
C111 O97 1.257 . S
H112 C85 0.932 . S
H113 C86 0.930 . S
H114 C87 0.932 . S
H115 C88 0.929 . S
H116 C106 0.932 . S
H117 C107 0.930 . S
H118 C108 0.932 . S
H119 C109 0.929 . S
C120 C121 1.386 . S
C120 C122 1.397 . S
C120 H144 0.931 . S
C121 C120 1.386 . S
C121 C125 1.397 . S
C122 C120 1.397 . S
C122 C123 1.384 . S
C122 H145 0.930 . S
C123 C122 1.384 . S
C123 C124 1.377 . S
C123 C126 1.481 . S
C124 C123 1.377 . S
C124 C125 1.389 . S
C124 H146 0.929 1_545 S
C125 C121 1.397 . S
C125 C124 1.389 . S
C125 H147 0.931 1_545 S
C126 C123 1.481 . S
C126 C127 1.387 . S
C126 C131 1.378 1_545 S
C127 C126 1.387 . S
C127 C128 1.401 . S
C127 H148 0.930 . S
C128 C127 1.401 . S
C128 C129 1.376 . S
C128 C137 1.511 . S
C129 C128 1.376 . S
C129 C130 1.392 1_545 S
C129 H150 0.931 . S
C130 C129 1.392 1_565 S
C130 C131 1.362 . S
C130 C132 1.500 . S
C131 C126 1.378 1_565 S
C131 C130 1.362 . S
C131 H149 0.943 . S
C132 C130 1.500 . S
C132 C133 1.371 . S
C132 C134 1.365 . S
C133 C132 1.371 . S
C133 C143 1.386 . S
C133 H151 0.931 . S
C134 C132 1.365 . S
C134 C135 1.409 . S
C134 H152 0.929 . S
C135 C134 1.409 . S
C135 C136 1.380 . S
C135 H153 0.930 . S
C136 C135 1.380 . S
C136 C143 1.357 . S
C137 C128 1.511 . S
C137 C138 1.341 . S
C137 C139 1.371 . S
C138 C137 1.341 . S
C138 C142 1.394 . S
C138 H154 0.930 . S
C139 C137 1.371 . S
C139 C140 1.392 . S
C139 H155 0.931 . S
C140 C139 1.392 . S
C140 C141 1.331 . S
C140 H158 0.932 . S
C141 C140 1.331 . S
C141 C142 1.336 . S
C142 C138 1.394 . S
C142 C141 1.336 . S
C142 H157 0.929 . S
C143 C133 1.386 . S
C143 C136 1.357 . S
C143 H156 0.928 . S
H144 C120 0.931 . S
H145 C122 0.930 . S
H146 C124 0.929 1_565 S
H147 C125 0.931 1_565 S
H148 C127 0.930 . S
H149 C131 0.943 . S
H150 C129 0.931 . S
H151 C133 0.931 . S
H152 C134 0.929 . S
H153 C135 0.930 . S
H154 C138 0.930 . S
H155 C139 0.931 . S
H156 C143 0.928 . S
H157 C142 0.929 . S
H158 C140 0.932 . S
C159 C160 1.386 . S
C159 C161 1.397 . S
C159 H183 0.931 . S
C160 C159 1.386 . S
C160 C164 1.397 . S
C161 C159 1.397 . S
C161 C162 1.384 . S
C161 H184 0.930 . S
C162 C161 1.384 . S
C162 C163 1.377 . S
C162 C165 1.481 . S
C163 C162 1.377 . S
C163 C164 1.389 . S
C163 H185 0.929 . S
C164 C160 1.397 . S
C164 C163 1.389 . S
C164 H186 0.931 . S
C165 C162 1.481 . S
C165 C166 1.387 . S
C165 C170 1.390 . S
C166 C165 1.387 . S
C166 C167 1.401 . S
C166 H187 0.930 . S
C167 C166 1.401 . S
C167 C168 1.376 . S
C167 C176 1.511 . S
C168 C167 1.376 . S
C168 C169 1.392 . S
C168 H189 0.931 . S
C169 C168 1.392 . S
C169 C170 1.361 . S
C169 C171 1.500 . S
C170 C165 1.390 . S
C170 C169 1.361 . S
C170 H188 0.931 . S
C171 C169 1.500 . S
C171 C172 1.371 . S
C171 C173 1.365 . S
C172 C171 1.371 . S
C172 C182 1.386 . S
C172 H190 0.931 . S
C173 C171 1.365 . S
C173 C174 1.409 . S
C173 H191 0.929 . S
C174 C173 1.409 . S
C174 C175 1.380 . S
C174 H192 0.930 . S
C175 C174 1.380 . S
C175 C182 1.357 . S
C176 C167 1.511 . S
C176 C177 1.341 . S
C176 C178 1.371 . S
C177 C176 1.341 . S
C177 C181 1.394 . S
C177 H193 0.930 . S
C178 C176 1.371 . S
C178 C179 1.392 . S
C178 H194 0.931 . S
C179 C178 1.392 . S
C179 C180 1.331 . S
C179 H197 0.932 . S
C180 C179 1.331 . S
C180 C181 1.336 . S
C181 C177 1.394 . S
C181 C180 1.336 . S
C181 H196 0.929 . S
C182 C172 1.386 . S
C182 C175 1.357 . S
C182 H195 0.928 . S
H183 C159 0.931 . S
H184 C161 0.930 . S
H185 C163 0.929 . S
H186 C164 0.931 . S
H187 C166 0.930 . S
H188 C170 0.931 . S
H189 C168 0.931 . S
H190 C172 0.931 . S
H191 C173 0.929 . S
H192 C174 0.930 . S
H193 C177 0.930 . S
H194 C178 0.931 . S
H195 C182 0.928 . S
H196 C181 0.929 . S
H197 C179 0.932 . S
C198 C199 1.386 1_556 S
C198 C200 1.397 . S
C198 H222 0.931 1_556 S
C199 C198 1.386 1_554 S
C199 C203 1.397 1_554 S
C200 C198 1.397 . S
C200 C201 1.384 . S
C200 H223 0.930 . S
C201 C200 1.384 . S
C201 C202 1.377 . S
C201 C204 1.481 . S
C202 C201 1.377 . S
C202 C203 1.389 . S
C202 H224 0.929 1_455 S
C203 C199 1.397 1_556 S
C203 C202 1.389 . S
C203 H225 0.931 1_455 S
C204 C201 1.481 . S
C204 C205 1.387 . S
C204 C209 1.390 . S
C205 C204 1.387 . S
C205 C206 1.401 . S
C205 H226 0.930 . S
C206 C205 1.401 . S
C206 C207 1.376 . S
C206 C215 1.511 . S
C207 C206 1.376 . S
C207 C208 1.392 . S
C207 H228 0.931 . S
C208 C207 1.392 . S
C208 C209 1.361 . S
C208 C210 1.500 1_455 S
C209 C204 1.390 . S
C209 C208 1.361 . S
C209 H227 0.931 . S
C210 C208 1.500 1_655 S
C210 C211 1.371 . S
C210 C212 1.365 . S
C211 C210 1.371 . S
C211 C221 1.386 . S
C211 H229 0.931 1_655 S
C212 C210 1.365 . S
C212 C213 1.409 . S
C212 H230 0.929 . S
C213 C212 1.409 . S
C213 C214 1.380 . S
C213 H231 0.930 . S
C214 C213 1.380 . S
C214 C221 1.357 . S
C215 C206 1.511 . S
C215 C216 1.341 . S
C215 C217 1.371 . S
C216 C215 1.341 . S
C216 C220 1.394 . S
C216 H232 0.930 . S
C217 C215 1.371 . S
C217 C218 1.392 . S
C217 H233 0.931 . S
C218 C217 1.392 . S
C218 C219 1.331 . S
C218 H236 0.932 . S
C219 C218 1.331 . S
C219 C220 1.336 . S
C220 C216 1.394 . S
C220 C219 1.336 . S
C220 H235 0.929 . S
C221 C211 1.386 . S
C221 C214 1.357 . S
C221 H234 0.928 . S
H222 C198 0.931 1_554 S
H223 C200 0.930 . S
H224 C202 0.929 1_655 S
H225 C203 0.931 1_655 S
H226 C205 0.930 . S
H227 C209 0.931 . S
H228 C207 0.931 . S
H229 C211 0.931 1_455 S
H230 C212 0.929 . S
H231 C213 0.930 . S
H232 C216 0.930 . S
H233 C217 0.931 . S
H234 C221 0.928 . S
H235 C220 0.929 . S
H236 C218 0.932 . S
C237 C238 1.386 . S
C237 C239 1.397 . S
C237 H261 0.931 . S
C238 C237 1.386 . S
C238 C242 1.397 1_655 S
C239 C237 1.397 . S
C239 C240 1.384 . S
C239 H262 0.930 . S
C240 C239 1.384 . S
C240 C241 1.377 1_655 S
C240 C243 1.481 . S
C241 C240 1.377 1_455 S
C241 C242 1.389 . S
C241 H263 0.929 . S
C242 C238 1.397 1_455 S
C242 C241 1.389 . S
C242 H264 0.931 . S
C243 C240 1.481 . S
C243 C244 1.387 . S
C243 C248 1.390 1_655 S
C244 C243 1.387 . S
C244 C245 1.401 . S
C244 H265 0.930 . S
C245 C244 1.401 . S
C245 C246 1.376 1_655 S
C245 C254 1.511 . S
C246 C245 1.376 1_455 S
C246 C247 1.392 . S
C246 H267 0.931 . S
C247 C246 1.392 . S
C247 C248 1.361 . S
C247 C249 1.500 . S
C248 C243 1.390 1_455 S
C248 C247 1.361 . S
C248 H266 0.931 . S
C249 C247 1.500 . S
C249 C250 1.371 . S
C249 C251 1.365 . S
C250 C249 1.371 . S
C250 C260 1.386 . S
C250 H268 0.931 . S
C251 C249 1.365 . S
C251 C252 1.409 . S
C251 H269 0.929 . S
C252 C251 1.409 . S
C252 C253 1.380 . S
C252 H270 0.930 . S
C253 C252 1.380 . S
C253 C260 1.357 . S
C254 C245 1.511 . S
C254 C255 1.341 . S
C254 C256 1.371 . S
C255 C254 1.341 . S
C255 C259 1.394 . S
C255 H271 0.930 . S
C256 C254 1.371 . S
C256 C257 1.392 . S
C256 H272 0.931 . S
C257 C256 1.392 . S
C257 C258 1.331 . S
C257 H275 0.932 . S
C258 C257 1.331 . S
C258 C259 1.336 . S
C259 C255 1.394 . S
C259 C258 1.336 . S
C259 H274 0.929 . S
C260 C250 1.386 . S
C260 C253 1.357 . S
C260 H273 0.928 . S
H261 C237 0.931 . S
H262 C239 0.930 . S
H263 C241 0.929 . S
H264 C242 0.931 . S
H265 C244 0.930 . S
H266 C248 0.931 . S
H267 C246 0.931 . S
H268 C250 0.931 . S
H269 C251 0.929 . S
H270 C252 0.930 . S
H271 C255 0.930 . S
H272 C256 0.931 . S
H273 C260 0.928 . S
H274 C259 0.929 . S
H275 C257 0.932 . S
C276 C277 1.386 . S
C276 C278 1.397 . S
C276 H300 0.931 . S
C277 C276 1.386 . S
C277 C281 1.397 1_565 S
C278 C276 1.397 . S
C278 C279 1.384 . S
C278 H301 0.930 . S
C279 C278 1.384 . S
C279 C280 1.377 1_565 S
C279 C282 1.481 . S
C280 C279 1.377 1_545 S
C280 C281 1.389 . S
C280 H302 0.929 . S
C281 C277 1.397 1_545 S
C281 C280 1.389 . S
C281 H303 0.931 . S
C282 C279 1.481 . S
C282 C283 1.387 . S
C282 C287 1.390 1_565 S
C283 C282 1.387 . S
C283 C284 1.401 . S
C283 H304 0.930 . S
C284 C283 1.401 . S
C284 C285 1.376 1_565 S
C284 C293 1.511 . S
C285 C284 1.376 1_545 S
C285 C286 1.392 . S
C285 H306 0.931 . S
C286 C285 1.392 . S
C286 C287 1.361 . S
C286 C288 1.500 . S
C287 C282 1.390 1_545 S
C287 C286 1.361 . S
C287 H305 0.931 . S
C288 C286 1.500 . S
C288 C289 1.371 . S
C288 C290 1.365 . S
C289 C288 1.371 . S
C289 C299 1.386 . S
C289 H307 0.931 . S
C290 C288 1.365 . S
C290 C291 1.409 . S
C290 H308 0.929 . S
C291 C290 1.409 . S
C291 C292 1.380 . S
C291 H309 0.930 . S
C292 C291 1.380 . S
C292 C299 1.357 . S
C293 C284 1.511 . S
C293 C294 1.341 . S
C293 C295 1.371 . S
C294 C293 1.341 . S
C294 C298 1.394 . S
C294 H310 0.930 . S
C295 C293 1.371 . S
C295 C296 1.392 . S
C295 H311 0.931 . S
C296 C295 1.392 . S
C296 C297 1.331 . S
C296 H314 0.932 . S
C297 C296 1.331 . S
C297 C298 1.336 . S
C298 C294 1.394 . S
C298 C297 1.336 . S
C298 H313 0.929 . S
C299 C289 1.386 . S
C299 C292 1.357 . S
C299 H312 0.928 . S
H300 C276 0.931 . S
H301 C278 0.930 . S
H302 C280 0.929 . S
H303 C281 0.931 . S
H304 C283 0.930 . S
H305 C287 0.931 . S
H306 C285 0.931 . S
H307 C289 0.931 . S
H308 C290 0.929 . S
H309 C291 0.930 . S
H310 C294 0.930 . S
H311 C295 0.931 . S
H312 C299 0.928 . S
H313 C298 0.929 . S
H314 C296 0.932 . S
C315 C316 1.386 . S
C315 C317 1.397 1_556 S
C315 H339 0.931 . S
C316 C315 1.386 . S
C316 C320 1.397 . S
C317 C315 1.397 1_554 S
C317 C318 1.384 . S
C317 H340 0.930 . S
C318 C317 1.384 . S
C318 C319 1.377 . S
C318 C321 1.481 . S
C319 C318 1.377 . S
C319 C320 1.389 1_554 S
C319 H341 0.929 . S
C320 C316 1.397 . S
C320 C319 1.389 1_556 S
C320 H342 0.931 . S
C321 C318 1.481 . S
C321 C322 1.387 . S
C321 C326 1.390 . S
C322 C321 1.387 . S
C322 C323 1.401 . S
C322 H343 0.930 . S
C323 C322 1.401 . S
C323 C324 1.376 . S
C323 C332 1.511 . S
C324 C323 1.376 . S
C324 C325 1.392 . S
C324 H345 0.931 . S
C325 C324 1.392 . S
C325 C326 1.361 . S
C325 C327 1.500 . S
C326 C321 1.390 . S
C326 C325 1.361 . S
C326 H344 0.931 . S
C327 C325 1.500 . S
C327 C328 1.371 . S
C327 C329 1.365 . S
C328 C327 1.371 . S
C328 C338 1.386 . S
C328 H346 0.931 . S
C329 C327 1.365 . S
C329 C330 1.409 . S
C329 H347 0.929 . S
C330 C329 1.409 . S
C330 C331 1.380 . S
C330 H348 0.930 . S
C331 C330 1.380 . S
C331 C338 1.357 . S
C332 C323 1.511 . S
C332 C333 1.341 . S
C332 C334 1.371 . S
C333 C332 1.341 . S
C333 C337 1.394 . S
C333 H349 0.930 . S
C334 C332 1.371 . S
C334 C335 1.392 . S
C334 H350 0.931 . S
C335 C334 1.392 . S
C335 C336 1.331 . S
C335 H353 0.932 . S
C336 C335 1.331 . S
C336 C337 1.336 . S
C337 C333 1.394 . S
C337 C336 1.336 . S
C337 H352 0.929 . S
C338 C328 1.386 . S
C338 C331 1.357 . S
C338 H351 0.928 . S
H339 C315 0.931 . S
H340 C317 0.930 . S
H341 C319 0.929 . S
H342 C320 0.931 . S
H343 C322 0.930 . S
H344 C326 0.931 . S
H345 C324 0.931 . S
H346 C328 0.931 . S
H347 C329 0.929 . S
H348 C330 0.930 . S
H349 C333 0.930 . S
H350 C334 0.931 . S
H351 C338 0.928 . S
H352 C337 0.929 . S
H353 C335 0.932 . S
C354 C355 1.387 . S
C354 H358 0.950 . S
C354 C363 1.390 . S
C355 C354 1.387 . S
C355 C357 1.387 . S
H356 C363 0.950 . S
C357 C355 1.387 . S
C357 C359 1.390 . S
C357 H361 0.950 . S
H358 C354 0.950 . S
C359 C357 1.390 . S
C359 C360 1.387 . S
C359 H362 0.950 . S
C360 C359 1.387 . S
C360 C363 1.387 . S
H361 C357 0.950 . S
H362 C359 0.950 . S
C363 C354 1.390 . S
C363 H356 0.950 . S
C363 C360 1.387 . S
C364 C365 1.387 . S
C364 H368 0.950 . S
C364 C373 1.390 . S
C365 C364 1.387 . S
C365 C367 1.387 . S
H366 C373 0.950 . S
C367 C365 1.387 . S
C367 C369 1.390 . S
C367 H371 0.950 . S
H368 C364 0.950 . S
C369 C367 1.390 . S
C369 C370 1.387 . S
C369 H372 0.950 . S
C370 C369 1.387 . S
C370 C373 1.387 . S
H371 C367 0.950 . S
H372 C369 0.950 . S
C373 C364 1.390 . S
C373 H366 0.950 . S
C373 C370 1.387 . S
C374 C375 1.387 . S
C374 H378 0.950 . S
C374 C383 1.390 . S
C375 C374 1.387 . S
C375 C377 1.387 . S
H376 C383 0.950 . S
C377 C375 1.387 . S
C377 C379 1.390 . S
C377 H381 0.950 . S
H378 C374 0.950 . S
C379 C377 1.390 . S
C379 C380 1.387 . S
C379 H382 0.950 . S
C380 C379 1.387 . S
C380 C383 1.387 . S
H381 C377 0.950 . S
H382 C379 0.950 . S
C383 C374 1.390 . S
C383 H376 0.950 . S
C383 C380 1.387 . S
C384 C385 1.387 . S
C384 H388 0.950 . S
C384 C393 1.390 . S
C385 C384 1.387 . S
C385 C387 1.387 . S
H386 C393 0.950 . S
C387 C385 1.387 . S
C387 C389 1.390 . S
C387 H391 0.950 . S
H388 C384 0.950 . S
C389 C387 1.390 . S
C389 C390 1.387 . S
C389 H392 0.950 . S
C390 C389 1.387 . S
C390 C393 1.387 . S
H391 C387 0.950 . S
H392 C389 0.950 . S
C393 C384 1.390 . S
C393 H386 0.950 . S
C393 C390 1.387 . S
C394 C395 1.387 . S
C394 H398 0.950 . S
C394 C403 1.390 . S
C395 C394 1.387 . S
C395 C397 1.387 . S
H396 C403 0.950 . S
C397 C395 1.387 . S
C397 C399 1.390 . S
C397 H401 0.950 . S
H398 C394 0.950 . S
C399 C397 1.390 . S
C399 C400 1.387 . S
C399 H402 0.950 . S
C400 C399 1.387 . S
C400 C403 1.387 . S
H401 C397 0.950 . S
H402 C399 0.950 . S
C403 C394 1.390 . S
C403 H396 0.950 . S
C403 C400 1.387 . S
C404 C405 1.387 . S
C404 H408 0.950 . S
C404 C413 1.390 . S
C405 C404 1.387 . S
C405 C407 1.387 . S
H406 C413 0.950 . S
C407 C405 1.387 . S
C407 C409 1.390 . S
C407 H411 0.950 . S
H408 C404 0.950 . S
C409 C407 1.390 . S
C409 C410 1.387 . S
C409 H412 0.950 . S
C410 C409 1.387 . S
C410 C413 1.387 . S
H411 C407 0.950 . S
H412 C409 0.950 . S
C413 C404 1.390 . S
C413 H406 0.950 . S
C413 C410 1.387 . S
C414 C415 1.387 . S
C414 H418 0.950 . S
C414 C423 1.390 . S
C415 C414 1.387 . S
C415 C417 1.387 . S
H416 C423 0.950 . S
C417 C415 1.387 . S
C417 C419 1.390 . S
C417 H421 0.950 . S
H418 C414 0.950 . S
C419 C417 1.390 . S
C419 C420 1.387 . S
C419 H422 0.950 . S
C420 C419 1.387 . S
C420 C423 1.387 . S
H421 C417 0.950 . S
H422 C419 0.950 . S
C423 C414 1.390 . S
C423 H416 0.950 . S
C423 C420 1.387 . S
C424 C425 1.387 . S
C424 H428 0.950 . S
C424 C433 1.390 . S
C425 C424 1.387 . S
C425 C427 1.387 . S
H426 C433 0.950 . S
C427 C425 1.387 . S
C427 C429 1.390 . S
C427 H431 0.950 . S
H428 C424 0.950 . S
C429 C427 1.390 . S
C429 C430 1.387 . S
C429 H432 0.950 . S
C430 C429 1.387 . S
C430 C433 1.387 . S
H431 C427 0.950 . S
H432 C429 0.950 . S
C433 C424 1.390 . S
C433 H426 0.950 . S
C433 C430 1.387 . S
C434 C435 1.387 . S
C434 H438 0.950 . S
C434 C443 1.390 . S
C435 C434 1.387 . S
C435 C437 1.387 . S
H436 C443 0.950 . S
C437 C435 1.387 . S
C437 C439 1.390 . S
C437 H441 0.950 . S
H438 C434 0.950 . S
C439 C437 1.390 . S
C439 C440 1.387 . S
C439 H442 0.950 . S
C440 C439 1.387 . S
C440 C443 1.387 . S
H441 C437 0.950 . S
H442 C439 0.950 . S
C443 C434 1.390 . S
C443 H436 0.950 . S
C443 C440 1.387 . S
C444 C445 1.387 . S
C444 H448 0.950 . S
C444 C453 1.390 . S
C445 C444 1.387 . S
C445 C447 1.387 . S
H446 C453 0.950 . S
C447 C445 1.387 . S
C447 C449 1.390 . S
C447 H451 0.950 . S
H448 C444 0.950 . S
C449 C447 1.390 . S
C449 C450 1.387 . S
C449 H452 0.950 . S
C450 C449 1.387 . S
C450 C453 1.387 . S
H451 C447 0.950 . S
H452 C449 0.950 . S
C453 C444 1.390 . S
C453 H446 0.950 . S
C453 C450 1.387 . S
C454 C455 1.387 . S
C454 H458 0.950 . S
C454 C463 1.390 . S
C455 C454 1.387 . S
C455 C457 1.387 . S
H456 C463 0.950 . S
C457 C455 1.387 . S
C457 C459 1.390 . S
C457 H461 0.950 . S
H458 C454 0.950 . S
C459 C457 1.390 . S
C459 C460 1.387 . S
C459 H462 0.950 . S
C460 C459 1.387 . S
C460 C463 1.387 . S
H461 C457 0.950 . S
H462 C459 0.950 . S
C463 C454 1.390 . S
C463 H456 0.950 . S
C463 C460 1.387 . S
C464 C465 1.387 . S
C464 H468 0.950 . S
C464 C473 1.390 . S
C465 C464 1.387 . S
C465 C467 1.387 . S
H466 C473 0.950 . S
C467 C465 1.387 . S
C467 C469 1.390 . S
C467 H471 0.950 . S
H468 C464 0.950 . S
C469 C467 1.390 . S
C469 C470 1.387 . S
C469 H472 0.950 . S
C470 C469 1.387 . S
C470 C473 1.387 . S
H471 C467 0.950 . S
H472 C469 0.950 . S
C473 C464 1.390 . S
C473 H466 0.950 . S
C473 C470 1.387 . S
C474 C475 1.387 . S
C474 H478 0.950 . S
C474 C483 1.390 . S
C475 C474 1.387 . S
C475 C477 1.387 . S
H476 C483 0.950 . S
C477 C475 1.387 . S
C477 C479 1.390 . S
C477 H481 0.950 . S
H478 C474 0.950 . S
C479 C477 1.390 . S
C479 C480 1.387 . S
C479 H482 0.950 . S
C480 C479 1.387 . S
C480 C483 1.387 . S
H481 C477 0.950 . S
H482 C479 0.950 . S
C483 C474 1.390 . S
C483 H476 0.950 . S
C483 C480 1.387 . S
C484 C485 1.387 . S
C484 H488 0.950 . S
C484 C493 1.390 . S
C485 C484 1.387 . S
C485 C487 1.387 . S
H486 C493 0.950 . S
C487 C485 1.387 . S
C487 C489 1.390 . S
C487 H491 0.950 1_545 S
H488 C484 0.950 . S
C489 C487 1.390 . S
C489 C490 1.387 . S
C489 H492 0.950 1_545 S
C490 C489 1.387 . S
C490 C493 1.387 . S
H491 C487 0.950 1_565 S
H492 C489 0.950 1_565 S
C493 C484 1.390 . S
C493 H486 0.950 . S
C493 C490 1.387 . S
C494 C495 1.387 . S
C494 H498 0.950 . S
C494 C503 1.390 . S
C495 C494 1.387 . S
C495 C497 1.387 . S
H496 C503 0.950 . S
C497 C495 1.387 . S
C497 C499 1.390 . S
C497 H501 0.950 . S
H498 C494 0.950 . S
C499 C497 1.390 . S
C499 C500 1.387 . S
C499 H502 0.950 . S
C500 C499 1.387 . S
C500 C503 1.387 . S
H501 C497 0.950 . S
H502 C499 0.950 . S
C503 C494 1.390 . S
C503 H496 0.950 . S
C503 C500 1.387 . S
C504 C505 1.373 1_565 S
C504 H508 0.960 . S
C504 C513 1.394 . S
C505 C504 1.373 1_545 S
C505 C507 1.387 . S
H506 C513 0.950 . S
C507 C505 1.387 . S
C507 C509 1.390 . S
C507 H511 0.950 . S
H508 C504 0.960 . S
C509 C507 1.390 . S
C509 C510 1.387 1_545 S
C509 H512 0.950 . S
C510 C509 1.387 1_565 S
C510 C513 1.387 . S
H511 C507 0.950 . S
H512 C509 0.950 . S
C513 C504 1.394 . S
C513 H506 0.950 . S
C513 C510 1.387 . S
C514 C515 1.387 . S
C514 H518 0.950 . S
C514 C523 1.390 . S
C515 C514 1.387 . S
C515 C517 1.387 . S
H516 C523 0.950 . S
C517 C515 1.387 . S
C517 C519 1.390 . S
C517 H521 0.950 . S
H518 C514 0.950 . S
C519 C517 1.390 . S
C519 C520 1.387 . S
C519 H522 0.950 . S
C520 C519 1.387 . S
C520 C523 1.387 . S
H521 C517 0.950 . S
H522 C519 0.950 . S
C523 C514 1.390 . S
C523 H516 0.950 . S
C523 C520 1.387 . S
C524 C525 1.387 . S
C524 H528 0.950 . S
C524 C533 1.390 . S
C525 C524 1.387 . S
C525 C527 1.387 . S
H526 C533 0.950 . S
C527 C525 1.387 . S
C527 C529 1.390 1_455 S
C527 H531 0.950 1_455 S
H528 C524 0.950 . S
C529 C527 1.390 1_655 S
C529 C530 1.387 1_655 S
C529 H532 0.950 . S
C530 C529 1.387 1_455 S
C530 C533 1.387 . S
H531 C527 0.950 1_655 S
H532 C529 0.950 . S
C533 C524 1.390 . S
C533 H526 0.950 . S
C533 C530 1.387 . S
C355 C25 0.695 . S
C360 C331 0.684 . S
C365 C65 0.650 . S
C370 C258 0.560 . S
C375 C105 0.742 . S
C380 C297 0.732 . S
C385 C4 0.737 . S
C390 C336 0.733 . S
C400 C253 0.579 . S
C395 C44 0.617 . S
C410 C292 0.673 . S
C405 C84 0.687 . S
C415 C60 3.031 . S
C420 C180 2.972 . S
C425 C100 3.195 . S
C430 C214 3.117 . S
C435 C31 3.213 . S
C440 C136 3.116 . S
C450 C175 3.123 . S
C445 C71 3.210 . S
C460 C219 2.987 . S
C455 C111 3.047 . S
C465 C20 3.037 . S
C470 C141 2.980 . S
C480 C199 1.826 . S
C475 C2 1.751 . S
C485 C42 1.778 . S
C490 C121 1.818 . S
C495 C82 1.768 . S
C500 C160 1.822 . S
C510 C277 1.055 . S
C505 C63 1.071 . S
C520 C316 1.119 . S
C515 C103 1.133 . S
C525 C23 1.031 . S
C530 C238 1.028 1_455 S
