# Generated by pormake.
# Topology pth, (4,4)-cn, num edge types: 1
# Building blocks:
#     Node 0, Type 0, BuildingBlock: TATPOV_clean_sbu_0, # of connection points: 4
#     Node 1, Type 0, BuildingBlock: TATPOV_clean_sbu_0, # of connection points: 4
#     Node 2, Type 0, BuildingBlock: TATPOV_clean_sbu_0, # of connection points: 4
#     Node 3, Type 1, BuildingBlock: NAHDIM_clean_linker_0, # of connection points: 4
#     Node 4, Type 1, BuildingBlock: NAHDIM_clean_linker_0, # of connection points: 4
#     Node 5, Type 1, BuildingBlock: NAHDIM_clean_linker_0, # of connection points: 4
#     Edge 6, Type (0, 1), BuildingBlock: CIFDUS_clean_linker_0, # of connection points: 2
#     Edge 7, Type (0, 1), BuildingBlock: CIFDUS_clean_linker_0, # of connection points: 2
#     Edge 8, Type (0, 1), BuildingBlock: CIFDUS_clean_linker_0, # of connection points: 2
#     Edge 9, Type (0, 1), BuildingBlock: CIFDUS_clean_linker_0, # of connection points: 2
#     Edge 10, Type (0, 1), BuildingBlock: CIFDUS_clean_linker_0, # of connection points: 2
#     Edge 11, Type (0, 1), BuildingBlock: CIFDUS_clean_linker_0, # of connection points: 2
#     Edge 12, Type (0, 1), BuildingBlock: CIFDUS_clean_linker_0, # of connection points: 2
#     Edge 13, Type (0, 1), BuildingBlock: CIFDUS_clean_linker_0, # of connection points: 2
#     Edge 14, Type (0, 1), BuildingBlock: CIFDUS_clean_linker_0, # of connection points: 2
#     Edge 15, Type (0, 1), BuildingBlock: CIFDUS_clean_linker_0, # of connection points: 2
#     Edge 16, Type (0, 1), BuildingBlock: CIFDUS_clean_linker_0, # of connection points: 2
#     Edge 17, Type (0, 1), BuildingBlock: CIFDUS_clean_linker_0, # of connection points: 2
# Relax obj value: 0.054
# Max RMSD: 0.174
# Mean RMSD: 0.111
data_MOF--net-pth--node1-TATPOV_clean_sbu_0--node2-NAHDIM_clean_linker_0--edge1-CIFDUS_clean_linker_0
_symmetry_space_group_name_H-M    P1
_symmetry_Int_Tables_number       1
_symmetry_cell_setting            triclinic
loop_
_symmetry_equiv_pos_as_xyz
'x, y, z'
_cell_length_a     29.191964
_cell_length_b     28.867503
_cell_length_c     72.235144
_cell_angle_alpha  92.208681
_cell_angle_beta   92.649381
_cell_angle_gamma 120.93298
loop_
_atom_site_label
_atom_site_type_symbol
_atom_site_fract_x
_atom_site_fract_y
_atom_site_fract_z
_atom_type_partial_charge
Zn0 Zn 0.1933 0.03663 0.05518 0.0
Zn1 Zn 0.14779 0.09019 0.07099 0.0
O2 O 0.15798 0.05073 0.09193 0.0
O3 O 0.19338 0.00577 0.08013 0.0
O4 O 0.12082 0.13347 0.08394 0.0
O5 O 0.2533 0.10893 0.04721 0.0
O6 O 0.21327 0.1483 0.05961 0.0
C7 C 0.17511 0.01847 0.09373 0.0
C8 C 0.08601 0.00421 0.0392 0.0
O9 O 0.08875 0.03912 0.05127 0.0
O10 O 0.12478 0.99632 0.03816 0.0
C11 C 0.0722 0.1147 0.08721 0.0
O12 O 0.03623 0.06442 0.0815 0.0
C13 C 0.25083 0.151 0.05058 0.0
Zn14 Zn 0.13314 0.09955 0.38007 0.0
Zn15 Zn 0.04929 0.07309 0.40187 0.0
O16 O 0.11337 0.0896 0.41952 0.0
O17 O 0.18276 0.11413 0.40297 0.0
O18 O 0.99436 0.06116 0.42005 0.0
O19 O 0.12187 0.15747 0.3692 0.0
O20 O 0.05505 0.13385 0.38688 0.0
C21 C 0.16249 0.10477 0.41851 0.0
C22 C 0.04145 0.98775 0.37419 0.0
O23 O 0.01954 0.0018 0.38624 0.0
O24 O 0.08816 0.02104 0.36963 0.0
C25 C 0.95867 0.07351 0.41747 0.0
O26 O 0.95359 0.09134 0.40151 0.0
C27 C 0.08418 0.16315 0.37456 0.0
Zn28 Zn 0.07604 0.94742 0.75229 0.0
Zn29 Zn 0.01706 0.9708 0.72972 0.0
O30 O 0.05405 0.94791 0.7109 0.0
O31 O 0.09921 0.9244 0.72969 0.0
O32 O 0.96837 0.98759 0.71444 0.0
O33 O 0.01299 0.89261 0.76453 0.0
O34 O 0.96348 0.90923 0.74524 0.0
C35 C 0.08513 0.92949 0.71341 0.0
C36 C 0.10685 0.05874 0.75669 0.0
O37 O 0.06974 0.04436 0.74385 0.0
O38 O 0.11704 0.02436 0.76292 0.0
C39 C 0.98638 0.02942 0.70525 0.0
O40 O 0.03844 0.06131 0.70482 0.0
C41 C 0.96743 0.88292 0.7584 0.0
C42 C 0.89284 0.64622 0.34938 0.0
C43 C 0.94221 0.68219 0.33895 0.0
C44 C 0.95339 0.6649 0.30687 0.0
C45 C 0.00948 0.69323 0.30727 0.0
C46 C 0.03556 0.67824 0.29467 0.0
C47 C 0.00481 0.63351 0.28161 0.0
C48 C 0.94808 0.60662 0.28059 0.0
C49 C 0.92317 0.62355 0.29305 0.0
C50 C 0.09596 0.70892 0.2958 0.0
C51 C 0.91361 0.55818 0.26705 0.0
C52 C 0.08408 0.33793 0.33384 0.0
C53 C 0.06482 0.37114 0.32503 0.0
C54 C 0.09222 0.44384 0.30427 0.0
C55 C 0.03964 0.43021 0.29873 0.0
C56 C 0.03004 0.46267 0.28721 0.0
C57 C 0.07383 0.51078 0.28152 0.0
C58 C 0.12684 0.52483 0.28705 0.0
C59 C 0.1353 0.49059 0.29814 0.0
C60 C 0.97288 0.4458 0.28136 0.0
C61 C 0.17441 0.57642 0.28153 0.0
C62 C 0.0684 0.41693 0.16241 0.0
C63 C 0.02011 0.40704 0.1693 0.0
C64 C 0.01676 0.44877 0.17849 0.0
C65 C 0.06271 0.50143 0.18103 0.0
C66 C 0.11089 0.51199 0.17363 0.0
C67 C 0.11295 0.46956 0.16429 0.0
C68 C 0.96426 0.43622 0.18584 0.0
C69 C 0.16046 0.56772 0.17602 0.0
C70 C 0.95625 0.82001 0.16284 0.0
C71 C 0.00017 0.80598 0.16364 0.0
C72 C 0.99383 0.71867 0.16677 0.0
C73 C 0.95706 0.66324 0.16677 0.0
C74 C 0.97163 0.62852 0.1746 0.0
C75 C 0.0248 0.64992 0.1822 0.0
C76 C 0.06316 0.70549 0.18116 0.0
C77 C 0.04718 0.73948 0.17358 0.0
C78 C 0.92976 0.56939 0.17532 0.0
C79 C 0.1206 0.72925 0.18859 0.0
C80 C 0.03125 0.61018 0.27083 0.0
C81 C 0.04683 0.57852 0.2802 0.0
C82 C 0.06359 0.54751 0.27067 0.0
C83 C 0.06501 0.54793 0.25115 0.0
C84 C 0.07805 0.51438 0.24094 0.0
C85 C 0.07723 0.51359 0.22166 0.0
C86 C 0.06381 0.5467 0.21186 0.0
C87 C 0.06044 0.54436 0.19221 0.0
C88 C 0.04926 0.57946 0.18293 0.0
C89 C 0.0389 0.61538 0.19276 0.0
C90 C 0.03899 0.61603 0.21236 0.0
C91 C 0.02515 0.64902 0.22259 0.0
C92 C 0.02326 0.64773 0.24178 0.0
C93 C 0.03558 0.61383 0.25148 0.0
C94 C 0.05161 0.58181 0.24156 0.0
C95 C 0.05211 0.58199 0.22193 0.0
C96 C 0.0416 0.30309 0.17387 0.0
C97 C 0.03942 0.32156 0.15438 0.0
O98 O 0.92755 0.67522 0.32006 0.0
O99 O 0.97612 0.75049 0.16011 0.0
O100 O 0.07402 0.37709 0.15416 0.0
O101 O 0.10272 0.41314 0.31552 0.0
H102 H 0.97038 0.66763 0.34194 0.0
H103 H 0.87788 0.60296 0.34535 0.0
H104 H 0.85996 0.65391 0.34597 0.0
H105 H 0.90329 0.65338 0.36463 0.0
H106 H 0.03292 0.72655 0.31757 0.0
H107 H 0.87986 0.60247 0.29275 0.0
H108 H 0.11044 0.68427 0.30245 0.0
H109 H 0.11366 0.74831 0.30411 0.0
H110 H 0.11055 0.7164 0.28166 0.0
H111 H 0.87035 0.53874 0.26931 0.0
H112 H 0.9256 0.52756 0.2683 0.0
H113 H 0.91934 0.57098 0.25264 0.0
H114 H 0.04273 0.384 0.33406 0.0
H115 H 0.08311 0.34503 0.34923 0.0
H116 H 0.12916 0.36197 0.33411 0.0
H117 H 0.03654 0.26076 0.31939 0.0
H118 H 0.00566 0.39428 0.30333 0.0
H119 H 0.17569 0.50085 0.30245 0.0
H120 H 0.96837 0.45024 0.26629 0.0
H121 H 0.96215 0.47247 0.28907 0.0
H122 H 0.94407 0.40324 0.28426 0.0
H123 H 0.21287 0.58343 0.28807 0.0
H124 H 0.17026 0.61152 0.28558 0.0
H125 H 0.17589 0.5746 0.26621 0.0
H126 H -0.00215 0.31105 0.1502 0.0
H127 H 0.98488 0.36689 0.16776 0.0
H128 H 0.14992 0.47702 0.15882 0.0
H129 H 0.96818 0.43866 0.20126 0.0
H130 H 0.9308 0.39515 0.18083 0.0
H131 H 0.95388 0.46649 0.18161 0.0
H132 H 0.19505 0.56927 0.16961 0.0
H133 H 0.17152 0.58055 0.19105 0.0
H134 H 0.15214 0.59726 0.16962 0.0
H135 H 0.02009 0.81829 0.17799 0.0
H136 H 0.97342 0.86391 0.16645 0.0
H137 H 0.9265 0.79706 0.17298 0.0
H138 H 0.93523 0.80928 0.14872 0.0
H139 H 0.91624 0.64754 0.16118 0.0
H140 H 0.07639 0.78215 0.17311 0.0
H141 H 0.92686 0.55787 0.1899 0.0
H142 H 0.9417 0.5443 0.16725 0.0
H143 H 0.88959 0.55969 0.16957 0.0
H144 H 0.14704 0.77083 0.18424 0.0
H145 H 0.136 0.70315 0.18377 0.0
H146 H 0.12277 0.73099 0.20401 0.0
H147 H 0.04331 0.57582 0.29507 0.0
H148 H 0.08829 0.48776 0.24773 0.0
H149 H 0.08715 0.4866 0.21452 0.0
H150 H 0.04681 0.57753 0.16786 0.0
H151 H 0.0147 0.67556 0.21588 0.0
H152 H 0.01179 0.67345 0.24895 0.0
H153 H 0.0146 0.25852 0.17397 0.0
H154 H 0.02835 0.32252 0.18413 0.0
H155 H 0.08309 0.314 0.17836 0.0
C156 C 0.22408 0.90678 0.60946 0.0
C157 C 0.25112 0.92695 0.62918 0.0
C158 C 0.34615 0.99176 0.62472 0.0
C159 C 0.38511 0.04677 0.62521 0.0
C160 C 0.43664 0.06417 0.61971 0.0
C161 C 0.44956 0.02535 0.61369 0.0
C162 C 0.4112 0.96952 0.61396 0.0
C163 C 0.35971 0.95321 0.61931 0.0
C164 C 0.4766 0.12403 0.61958 0.0
C165 C 0.42396 0.92708 0.60783 0.0
C166 C 0.76449 0.13217 0.69367 0.0
C167 C 0.75467 0.09048 0.67788 0.0
C168 C 0.72509 0.10437 0.64782 0.0
C169 C 0.68754 0.05121 0.641 0.0
C170 C 0.64597 0.04057 0.62775 0.0
C171 C 0.64164 0.08409 0.6214 0.0
C172 C 0.68027 0.13792 0.62802 0.0
C173 C 0.7222 0.1474 0.64092 0.0
C174 C 0.60618 0.98275 0.62076 0.0
C175 C 0.67649 0.18526 0.62182 0.0
C176 C 0.75638 0.15315 0.50556 0.0
C177 C 0.72535 0.09759 0.50813 0.0
C178 C 0.67616 0.07617 0.51615 0.0
C179 C 0.65783 0.11107 0.52166 0.0
C180 C 0.68823 0.1667 0.5185 0.0
C181 C 0.73696 0.18689 0.5103 0.0
C182 C 0.64379 0.01635 0.51881 0.0
C183 C 0.66945 0.20488 0.52395 0.0
C184 C 0.21742 0.93449 0.49498 0.0
C185 C 0.27196 0.98512 0.49289 0.0
C186 C 0.35941 0.99272 0.49662 0.0
C187 C 0.38213 0.9606 0.49816 0.0
C188 C 0.4331 0.98127 0.5072 0.0
C189 C 0.46228 0.03584 0.51451 0.0
C190 C 0.44122 0.06979 0.51168 0.0
C191 C 0.38974 0.04779 0.50281 0.0
C192 C 0.45461 0.9441 0.50977 0.0
C193 C 0.47208 0.12859 0.5188 0.0
C194 C 0.50048 0.04297 0.60493 0.0
C195 C 0.54637 0.05622 0.61619 0.0
C196 C 0.59526 0.07286 0.60855 0.0
C197 C 0.59879 0.07722 0.58914 0.0
C198 C 0.64729 0.0944 0.58094 0.0
C199 C 0.65027 0.09914 0.56184 0.0
C200 C 0.60456 0.08555 0.55014 0.0
C201 C 0.60684 0.08959 0.53069 0.0
C202 C 0.56022 0.07401 0.51943 0.0
C203 C 0.51116 0.05503 0.5271 0.0
C204 C 0.50836 0.05229 0.54655 0.0
C205 C 0.45974 0.03453 0.5547 0.0
C206 C 0.45726 0.03214 0.5738 0.0
C207 C 0.50303 0.04621 0.58551 0.0
C208 C 0.55238 0.06369 0.5776 0.0
C209 C 0.55515 0.06728 0.55809 0.0
C210 C 0.8941 0.20802 0.50978 0.0
C211 C 0.84203 0.15987 0.50071 0.0
O212 O 0.2962 0.97824 0.62921 0.0
O213 O 0.30806 0.9689 0.4893 0.0
O214 O 0.80466 0.17555 0.49825 0.0
O215 O 0.76405 0.11497 0.6612 0.0
H216 H 0.26249 0.89809 0.63427 0.0
H217 H 0.25126 0.90243 0.60026 0.0
H218 H 0.21401 0.93566 0.60352 0.0
H219 H 0.18684 0.86656 0.60961 0.0
H220 H 0.37447 0.07622 0.62949 0.0
H221 H 0.33035 0.91042 0.6188 0.0
H222 H 0.51433 0.13441 0.62769 0.0
H223 H 0.46124 0.14908 0.6255 0.0
H224 H 0.48645 0.13459 0.6051 0.0
H225 H 0.39246 0.88577 0.61103 0.0
H226 H 0.46289 0.93646 0.61471 0.0
H227 H 0.42772 0.92735 0.59261 0.0
H228 H 0.71198 0.05728 0.67788 0.0
H229 H 0.75694 0.11338 0.70719 0.0
H230 H 0.73687 0.14748 0.69131 0.0
H231 H 0.80636 0.16704 0.69435 0.0
H232 H 0.69082 0.01811 0.64608 0.0
H233 H 0.75179 0.18835 0.64622 0.0
H234 H 0.60071 0.97932 0.60535 0.0
H235 H 0.56674 0.97016 0.62617 0.0
H236 H 0.61889 0.95439 0.62524 0.0
H237 H 0.7073 0.22413 0.62935 0.0
H238 H 0.63621 0.17859 0.62408 0.0
H239 H 0.68172 0.18871 0.60672 0.0
H240 H 0.82859 0.12692 0.51038 0.0
H241 H 0.73908 0.07081 0.50369 0.0
H242 H 0.76082 0.22952 0.50794 0.0
H243 H 0.63945 0.01011 0.53385 0.0
H244 H 0.66255 0.99425 0.51315 0.0
H245 H 0.60293 -0.00141 0.51188 0.0
H246 H 0.69845 0.24732 0.52099 0.0
H247 H 0.66319 0.20361 0.53902 0.0
H248 H 0.63037 0.1917 0.51628 0.0
H249 H 0.28405 0.01011 0.50634 0.0
H250 H 0.18762 0.94571 0.49861 0.0
H251 H 0.22103 0.91128 0.50628 0.0
H252 H 0.20258 0.908 0.48186 0.0
H253 H 0.3587 0.91843 0.49298 0.0
H254 H 0.37312 0.07344 0.50096 0.0
H255 H 0.45982 0.93992 0.52482 0.0
H256 H 0.49458 0.96183 0.50416 0.0
H257 H 0.42767 0.90316 0.50274 0.0
H258 H 0.45382 0.15129 0.51325 0.0
H259 H 0.51416 0.14816 0.51499 0.0
H260 H 0.473 0.13146 0.5342 0.0
H261 H 0.54389 0.05315 0.63108 0.0
H262 H 0.68359 0.10479 0.58922 0.0
H263 H 0.68878 0.1131 0.55634 0.0
H264 H 0.5621 0.07645 0.5045 0.0
H265 H 0.42294 0.02254 0.54646 0.0
H266 H 0.41874 0.01868 0.5792 0.0
H267 H 0.90999 0.24269 0.50083 0.0
H268 H 0.92474 0.19655 0.51222 0.0
H269 H 0.88661 0.2211 0.5234 0.0
C270 C 0.68083 0.58336 0.76503 0.0
C271 C 0.68643 0.62706 0.7792 0.0
C272 C 0.67235 0.61784 0.81251 0.0
C273 C 0.64829 0.6491 0.81429 0.0
C274 C 0.61996 0.64609 0.82984 0.0
C275 C 0.61589 0.6114 0.8438 0.0
C276 C 0.64478 0.58426 0.84286 0.0
C277 C 0.67298 0.58831 0.82724 0.0
C278 C 0.5917 0.67743 0.8308 0.0
C279 C 0.64296 0.54789 0.85767 0.0
C280 C 0.24156 0.26731 0.80261 0.0
C281 C 0.2831 0.32495 0.80801 0.0
C282 C 0.33922 0.38237 0.83454 0.0
C283 C 0.38731 0.38307 0.83717 0.0
C284 C 0.43325 0.42831 0.84577 0.0
C285 C 0.43139 0.47468 0.85151 0.0
C286 C 0.38307 0.47469 0.84858 0.0
C287 C 0.3371 0.42795 0.84034 0.0
C288 C 0.48374 0.42622 0.84869 0.0
C289 C 0.38005 0.52385 0.85421 0.0
C290 C 0.39963 0.44144 0.96977 0.0
C291 C 0.43813 0.43113 0.96309 0.0
C292 C 0.4808 0.47025 0.95382 0.0
C293 C 0.48472 0.52045 0.95116 0.0
C294 C 0.44799 0.53222 0.95899 0.0
C295 C 0.40607 0.49254 0.96841 0.0
C296 C 0.52035 0.45707 0.94618 0.0
C297 C 0.4515 0.5856 0.95659 0.0
C298 C 0.82912 0.89889 0.95555 0.0
C299 C 0.81379 0.86818 0.97324 0.0
C300 C 0.75462 0.77306 0.96119 0.0
C301 C 0.75123 0.72321 0.95831 0.0
C302 C 0.7049 0.678 0.94964 0.0
C303 C 0.66093 0.68304 0.94373 0.0
C304 C 0.66379 0.73319 0.9467 0.0
C305 C 0.71059 0.77774 0.95538 0.0
C306 C 0.70291 0.62494 0.94674 0.0
C307 C 0.61724 0.73964 0.94071 0.0
C308 C 0.57245 0.59317 0.85661 0.0
C309 C 0.52129 0.55375 0.84909 0.0
C310 C 0.48049 0.52277 0.86045 0.0
C311 C 0.49027 0.53232 0.87995 0.0
C312 C 0.45124 0.4996 0.89183 0.0
C313 C 0.46186 0.50809 0.911 0.0
C314 C 0.51189 0.54978 0.91903 0.0
C315 C 0.52344 0.55785 0.93851 0.0
C316 C 0.57256 0.60101 0.94611 0.0
C317 C 0.6114 0.6358 0.93468 0.0
C318 C 0.60189 0.6265 0.91513 0.0
C319 C 0.64143 0.65848 0.90321 0.0
C320 C 0.63191 0.64782 0.88398 0.0
C321 C 0.58209 0.60582 0.87601 0.0
C322 C 0.54101 0.57458 0.88774 0.0
C323 C 0.55152 0.58383 0.90731 0.0
C324 C 0.2681 0.33195 0.96601 0.0
C325 C 0.32637 0.34842 0.97079 0.0
O326 O 0.69421 0.61371 0.79682 0.0
O327 O 0.80102 0.81521 0.96949 0.0
O328 O 0.3553 0.4026 0.97718 0.0
O329 O 0.29446 0.33708 0.82703 0.0
H330 H 0.64839 0.6272 0.77765 0.0
H331 H 0.64628 0.54339 0.76793 0.0
H332 H 0.71761 0.58086 0.7658 0.0
H333 H 0.67366 0.5923 0.75072 0.0
H334 H 0.65021 0.67471 0.80342 0.0
H335 H 0.6932 0.56578 0.82595 0.0
H336 H 0.54865 0.64994 0.82628 0.0
H337 H 0.60863 0.71158 0.82163 0.0
H338 H 0.59445 0.69353 0.84529 0.0
H339 H 0.66516 0.52731 0.85423 0.0
H340 H 0.60089 0.51655 0.85963 0.0
H341 H 0.66086 0.5722 0.8711 0.0
H342 H 0.27831 0.35585 0.8008 0.0
H343 H 0.28404 0.23709 0.78842 0.0
H344 H 0.20708 0.26891 0.79568 0.0
H345 H 0.22038 0.24966 0.81548 0.0
H346 H 0.38934 0.34826 0.83263 0.0
H347 H 0.29957 0.42691 0.83828 0.0
H348 H 0.50192 0.4412 0.86312 0.0
H349 H 0.51329 0.45279 0.83907 0.0
H350 H 0.47623 0.38463 0.84603 0.0
H351 H 0.3414 0.51948 0.84915 0.0
H352 H 0.41337 0.56045 0.84868 0.0
H353 H 0.38458 0.53039 0.86958 0.0
H354 H 0.34142 0.34167 0.95766 0.0
H355 H 0.43434 0.39224 0.96485 0.0
H356 H 0.37658 0.5003 0.97395 0.0
H357 H 0.51384 0.45127 0.93079 0.0
H358 H 0.51616 0.41963 0.95155 0.0
H359 H 0.56196 0.49118 0.94975 0.0
H360 H 0.42048 0.58892 0.96387 0.0
H361 H 0.4466 0.59038 0.94158 0.0
H362 H 0.49165 0.6194 0.96203 0.0
H363 H 0.77895 0.86853 0.97871 0.0
H364 H 0.8401 0.94154 0.95862 0.0
H365 H 0.79503 0.87996 0.94478 0.0
H366 H 0.8636 0.89855 0.94977 0.0
H367 H 0.78528 0.7199 0.96286 0.0
H368 H 0.71223 0.81584 0.95748 0.0
H369 H 0.6939 0.61098 0.93177 0.0
H370 H 0.67011 0.59363 0.95435 0.0
H371 H 0.74113 0.6281 0.95163 0.0
H372 H 0.62514 0.78091 0.9445 0.0
H373 H 0.58081 0.7097 0.94725 0.0
H374 H 0.6086 0.73135 0.92542 0.0
H375 H 0.51437 0.54371 0.83418 0.0
H376 H 0.41215 0.46667 0.88647 0.0
H377 H 0.43025 0.48143 0.91942 0.0
H378 H 0.5806 0.60769 0.96109 0.0
H379 H 0.68049 0.69136 0.90864 0.0
H380 H 0.66384 0.67289 0.87538 0.0
H381 H 0.24402 0.28866 0.96076 0.0
H382 H 0.26621 0.35685 0.95499 0.0
H383 H 0.25023 0.33823 0.97841 0.0
H384 H 0.13858 0.21512 0.10419 0.0
H385 H 0.97166 0.0901 0.095 0.0
H386 H 0.94702 0.14436 0.11414 0.0
H387 H 0.97316 0.22587 0.13443 0.0
H388 H 0.14024 0.34891 0.14457 0.0
H389 H 0.16454 0.29692 0.12406 0.0
C390 C 0.09675 0.1998 0.10626 0.0
C391 C 0.05704 0.14854 0.09816 0.0
C392 C 0.08289 0.23093 0.11743 0.0
C393 C 0.00307 0.12933 0.10108 0.0
C394 C 0.98892 0.16034 0.11203 0.0
C395 C 0.0148 0.24158 0.1319 0.0
C396 C 0.05466 0.2918 0.1406 0.0
C397 C 0.02853 0.211 0.12037 0.0
C398 C 0.10867 0.31103 0.13767 0.0
C399 C 0.1226 0.28115 0.12604 0.0
H400 H 0.90693 0.1289 0.42076 0.0
H401 H 0.94575 0.02429 0.44992 0.0
H402 H 0.90795 0.03773 0.47765 0.0
H403 H 0.87167 0.08594 0.49449 0.0
H404 H 0.83879 0.19538 0.46594 0.0
H405 H 0.86612 0.17315 0.43711 0.0
C406 C 0.90629 0.10828 0.43308 0.0
C407 C 0.9293 0.07579 0.4333 0.0
C408 C 0.88583 0.11737 0.44914 0.0
C409 C 0.92854 0.04974 0.44942 0.0
C410 C 0.90704 0.05749 0.4653 0.0
C411 C 0.86955 0.10404 0.48184 0.0
C412 C 0.8523 0.14141 0.48228 0.0
C413 C 0.88675 0.09222 0.46545 0.0
C414 C 0.85092 0.16568 0.46591 0.0
C415 C 0.86687 0.15324 0.44944 0.0
H416 H 0.86229 0.84536 0.74771 0.0
H417 H 0.96434 0.82024 0.78604 0.0
H418 H 0.88662 0.74117 0.79649 0.0
H419 H 0.79095 0.6752 0.79318 0.0
H420 H 0.68717 0.69904 0.75548 0.0
H421 H 0.76445 0.78247 0.74626 0.0
C422 C 0.86744 0.82292 0.75848 0.0
C423 C 0.91919 0.83849 0.76589 0.0
C424 C 0.82238 0.77708 0.76447 0.0
C425 C 0.92509 0.80906 0.77994 0.0
C426 C 0.88064 0.76368 0.78595 0.0
C427 C 0.78497 0.69919 0.78324 0.0
C428 C 0.73333 0.6815 0.77522 0.0
C429 C 0.82929 0.74679 0.77808 0.0
C430 C 0.72656 0.71243 0.76202 0.0
C431 C 0.77068 0.7599 0.75671 0.0
H432 H 0.13151 0.91103 0.09428 0.0
H433 H 0.1852 0.05579 0.12977 0.0
H434 H 0.1414 0.00099 0.15565 0.0
H435 H 0.07686 0.91238 0.16655 0.0
H436 H 0.0128 0.76904 0.12917 0.0
H437 H 0.07158 0.82235 0.10576 0.0
C438 C 0.13509 0.93044 0.10788 0.0
C439 C 0.16195 0.98716 0.11028 0.0
C440 C 0.10692 0.89876 0.12224 0.0
C441 C 0.16511 0.01209 0.12775 0.0
C442 C 0.13965 0.98079 0.14245 0.0
C443 C 0.0765 0.89284 0.15336 0.0
C444 C 0.04069 0.83688 0.14971 0.0
C445 C 0.10865 0.92416 0.13961 0.0
C446 C 0.0401 0.81195 0.13249 0.0
C447 C 0.07366 0.84247 0.11903 0.0
H448 H 0.23559 0.07426 0.41855 0.0
H449 H 0.15321 0.12374 0.45502 0.0
H450 H 0.18708 0.09773 0.48183 0.0
H451 H 0.22962 0.04939 0.49413 0.0
H452 H 0.30174 0.98964 0.45668 0.0
H453 H 0.2829 0.03143 0.43112 0.0
C454 C 0.22638 0.0808 0.43244 0.0
C455 C 0.19224 0.10107 0.43487 0.0
C456 C 0.24354 0.06306 0.44759 0.0
C457 C 0.17959 0.1083 0.45287 0.0
C458 C 0.19863 0.0931 0.46815 0.0
C459 C 0.242 0.04645 0.48042 0.0
C460 C 0.26733 0.0168 0.47741 0.0
C461 C 0.22897 0.06861 0.46557 0.0
C462 C 0.28261 0.01256 0.45951 0.0
C463 C 0.27165 0.0363 0.44483 0.0
H464 H 0.15783 0.09474 0.79047 0.0
H465 H 0.13122 0.14594 0.73754 0.0
H466 H 0.20197 0.2401 0.74412 0.0
H467 H 0.29259 0.32688 0.76647 0.0
H468 H 0.33017 0.26154 0.82787 0.0
H469 H 0.23916 0.15648 0.81712 0.0
C470 C 0.1677 0.12712 0.7814 0.0
C471 C 0.14183 0.11615 0.76345 0.0
C472 C 0.20948 0.1781 0.78719 0.0
C473 C 0.15317 0.1572 0.75106 0.0
C474 C 0.19419 0.2116 0.75458 0.0
C475 C 0.28425 0.2949 0.77554 0.0
C476 C 0.31571 0.30895 0.79976 0.0
C477 C 0.22657 0.22817 0.77094 0.0
C478 C 0.30838 0.25407 0.81455 0.0
C479 C 0.24975 0.18936 0.80827 0.0
H480 H 0.87762 0.97469 0.70496 0.0
H481 H 0.01189 0.11945 0.68667 0.0
H482 H 0.95181 0.14936 0.67539 0.0
H483 H 0.86179 0.13748 0.67273 0.0
H484 H 0.7283 0.99363 0.69164 0.0
H485 H 0.78733 0.96028 0.70062 0.0
C486 C 0.89377 0.01256 0.69835 0.0
C487 C 0.9493 0.04491 0.6968 0.0
C488 C 0.85909 0.0298 0.69205 0.0
C489 C 0.96938 0.09378 0.68813 0.0
C490 C 0.93504 0.11101 0.68169 0.0
C491 C 0.84561 0.09842 0.67851 0.0
C492 C 0.79067 0.06776 0.68132 0.0
C493 C 0.87995 0.0798 0.68386 0.0
C494 C 0.77032 0.01766 0.68915 0.0
C495 C 0.80409 -0.00131 0.69436 0.0
H496 H 0.99523 0.00937 0.03741 0.0
H497 H 0.06869 0.92897 0.01141 0.0
H498 H 0.99095 0.87931 0.98915 0.0
H499 H 0.90321 0.86032 0.97647 0.0
H500 H 0.82928 0.9402 0.00222 0.0
H501 H 0.90628 0.98868 0.02512 0.0
C502 C 0.99421 0.9809 0.02691 0.0
C503 C 0.0379 0.97315 0.02608 0.0
C504 C 0.94933 0.95238 0.01409 0.0
C505 C 0.03576 0.93593 0.01239 0.0
C506 C 0.9913 0.90746 -0.00038 0.0
C507 C 0.90373 0.88785 0.98724 0.0
C508 C 0.86025 0.89594 0.98789 0.0
C509 C 0.94803 0.91557 0.00028 0.0
C510 C 0.86196 0.9327 0.00165 0.0
C511 C 0.90598 0.9605 0.01469 0.0
H512 H 0.08709 0.92855 0.36875 0.0
H513 H 0.93557 0.92055 0.36294 0.0
H514 H 0.89163 0.82591 0.3504 0.0
H515 H 0.89696 0.74559 0.34141 0.0
H516 H 0.047 0.75164 0.35119 0.0
H517 H 0.09133 0.84736 0.36156 0.0
C518 C 0.04449 0.90605 0.36461 0.0
C519 C 0.01452 0.93121 0.3665 0.0
C520 C 0.01945 0.8515 0.35815 0.0
C521 C 0.95924 0.90169 0.36152 0.0
C522 C 0.93426 0.84778 0.35437 0.0
C523 C 0.93917 0.76767 0.34603 0.0
C524 C 0.96856 0.74136 0.34564 0.0
C525 C 0.96398 0.82219 0.35272 0.0
C526 C 0.02348 0.77089 0.35137 0.0
C527 C 0.04885 0.82558 0.35733 0.0
H528 H 0.10778 0.97598 0.6804 0.0
H529 H 0.11466 0.85467 0.71142 0.0
H530 H 0.16296 0.8403 0.68738 0.0
H531 H 0.20938 0.86715 0.65888 0.0
H532 H 0.2085 0.99272 0.62871 0.0
H533 H 0.15154 0.00036 0.65095 0.0
C534 C 0.11908 0.94578 0.68168 0.0
C535 C 0.1078 0.91647 0.69762 0.0
C536 C 0.14837 0.93889 0.66805 0.0
C537 C 0.12319 0.8779 0.69928 0.0
C538 C 0.15088 0.86973 0.68557 0.0
C539 C 0.19637 0.89588 0.6571 0.0
C540 C 0.21312 0.92931 0.6422 0.0
C541 C 0.16474 0.90085 0.67013 0.0
C542 C 0.19595 0.96642 0.64006 0.0
C543 C 0.16353 0.97089 0.65279 0.0
H544 H 0.29721 0.15817 0.01831 0.0
H545 H 0.2751 0.25363 0.06039 0.0
H546 H 0.30431 0.32752 0.03989 0.0
H547 H 0.32035 0.35779 0.00829 0.0
H548 H 0.33619 0.25964 0.96555 0.0
H549 H 0.32518 0.19397 0.98796 0.0
C550 C 0.30055 0.19585 0.02323 0.0
C551 C 0.28358 0.20027 0.04077 0.0
C552 C 0.31509 0.23721 0.01107 0.0
C553 C 0.28768 0.24918 0.04689 0.0
C554 C 0.30393 0.29126 0.03512 0.0
C555 C 0.32279 0.32273 0.00404 0.0
C556 C 0.3292 0.31355 0.98534 0.0
C557 C 0.31522 0.28463 0.0169 0.0
C558 C 0.33152 0.26759 0.97991 0.0
C559 C 0.32509 0.23001 0.9927 0.0
H560 H 0.13189 0.22366 0.34569 0.0
H561 H 0.00571 0.18129 0.38296 0.0
H562 H 0.96617 0.22473 0.36641 0.0
H563 H 0.95922 0.28485 0.33701 0.0
H564 H 0.1052 0.33392 0.29126 0.0
H565 H 0.14525 0.27921 0.31379 0.0
C566 C 0.09787 0.22606 0.34973 0.0
C567 C 0.06975 0.19916 0.36508 0.0
C568 C 0.0805 0.2531 0.33877 0.0
C569 C 0.02485 0.20139 0.37081 0.0
C570 C 0.00123 0.22621 0.36139 0.0
C571 C 0.9919 0.28145 0.33209 0.0
C572 C 0.03339 0.32327 0.31371 0.0
C573 C 0.02175 0.25142 0.34549 0.0
C574 C 0.08499 0.31304 0.30315 0.0
C575 C 0.11116 0.28151 0.31776 0.0
loop_
_geom_bond_atom_site_label_1
_geom_bond_atom_site_label_2
_geom_bond_distance
_geom_bond_site_symmetry_2
_ccdc_geom_bond_type
Zn0 O3 2.031 1_545 S
Zn0 O5 2.049 . S
Zn0 O10 2.067 1_545 S
Zn1 O2 1.962 . S
Zn1 O4 1.986 . S
Zn1 O6 1.996 . S
Zn1 O9 1.943 . S
O2 Zn1 1.962 . S
O2 C7 1.254 1_545 S
O3 Zn0 2.031 1_565 S
O3 C7 1.269 . S
O4 Zn1 1.986 . S
O4 C11 1.262 . S
O5 Zn0 2.049 . S
O5 C13 1.260 . S
O6 Zn1 1.996 . S
O6 C13 1.257 . S
C7 O2 1.254 1_565 S
C7 O3 1.269 . S
C8 O9 1.249 1_565 S
C8 O10 1.270 . S
O9 Zn1 1.943 . S
O9 C8 1.249 1_545 S
O10 Zn0 2.067 1_565 S
O10 C8 1.270 . S
C11 O4 1.262 . S
C11 O12 1.232 . S
O12 C11 1.232 . S
C13 O5 1.260 . S
C13 O6 1.257 . S
Zn14 O17 2.031 . S
Zn14 O19 2.049 . S
Zn14 O24 2.067 . S
Zn15 O16 1.962 . S
Zn15 O18 1.986 1_455 S
Zn15 O20 1.996 . S
Zn15 O23 1.943 . S
O16 Zn15 1.962 . S
O16 C21 1.254 . S
O17 Zn14 2.031 . S
O17 C21 1.269 . S
O18 Zn15 1.986 1_655 S
O18 C25 1.262 . S
O19 Zn14 2.049 . S
O19 C27 1.260 . S
O20 Zn15 1.996 . S
O20 C27 1.257 . S
C21 O16 1.254 . S
C21 O17 1.269 . S
C22 O23 1.249 . S
C22 O24 1.270 . S
O23 Zn15 1.943 . S
O23 C22 1.249 . S
O24 Zn14 2.067 . S
O24 C22 1.270 . S
C25 O18 1.262 . S
C25 O26 1.232 . S
O26 C25 1.232 . S
C27 O19 1.260 . S
C27 O20 1.257 . S
Zn28 O31 2.031 1_565 S
Zn28 O33 2.049 . S
Zn28 O38 2.067 1_565 S
Zn29 O30 1.962 1_545 S
Zn29 O32 1.986 1_455 S
Zn29 O34 1.996 1_445 S
Zn29 O37 1.943 . S
O30 Zn29 1.962 1_565 S
O30 C35 1.254 1_565 S
O31 Zn28 2.031 1_545 S
O31 C35 1.269 . S
O32 Zn29 1.986 1_655 S
O32 C39 1.262 . S
O33 Zn28 2.049 . S
O33 C41 1.260 1_455 S
O34 Zn29 1.996 1_665 S
O34 C41 1.257 . S
C35 O30 1.254 1_545 S
C35 O31 1.269 . S
C36 O37 1.249 . S
C36 O38 1.270 . S
O37 Zn29 1.943 . S
O37 C36 1.249 . S
O38 Zn28 2.067 1_545 S
O38 C36 1.270 . S
C39 O32 1.262 . S
C39 O40 1.232 1_655 S
O40 C39 1.232 1_455 S
C41 O33 1.260 1_655 S
C41 O34 1.257 . S
C42 C43 1.560 1_655 S
C42 H103 0.959 . S
C42 H104 0.959 . S
C42 H105 0.960 . S
C43 C42 1.560 1_455 S
C43 O98 1.426 1_455 S
C43 H102 0.980 . S
C44 C45 1.407 . S
C44 C49 1.418 1_455 S
C44 O98 1.334 1_455 S
C45 C44 1.407 . S
C45 C46 1.360 . S
C45 H106 0.929 . S
C46 C45 1.360 . S
C46 C47 1.401 . S
C46 C50 1.527 . S
C47 C46 1.401 . S
C47 C48 1.405 1_455 S
C47 C80 1.587 . S
C48 C47 1.405 1_655 S
C48 C49 1.332 . S
C48 C51 1.496 . S
C49 C44 1.418 1_655 S
C49 C48 1.332 . S
C49 H107 0.929 . S
C50 C46 1.527 . S
C50 H108 0.959 . S
C50 H109 0.961 . S
C50 H110 0.961 . S
C51 C48 1.496 . S
C51 H111 0.960 . S
C51 H112 0.960 . S
C51 H113 0.961 . S
C52 C53 1.517 . S
C52 H115 0.961 . S
C52 H116 0.960 . S
C52 H117 0.959 . S
C53 C52 1.517 . S
C53 O101 1.468 . S
C53 H114 0.980 . S
C54 C55 1.349 . S
C54 C59 1.367 . S
C54 O101 1.408 . S
C55 C54 1.349 . S
C55 C56 1.407 . S
C55 H118 0.930 . S
C56 C55 1.407 . S
C56 C57 1.449 . S
C56 C60 1.535 1_455 S
C57 C56 1.449 . S
C57 C58 1.384 . S
C57 C82 1.553 . S
C58 C57 1.384 . S
C58 C59 1.364 . S
C58 C61 1.450 . S
C59 C54 1.367 . S
C59 C58 1.364 . S
C59 H119 0.931 . S
C60 C56 1.535 1_655 S
C60 H120 0.959 . S
C60 H121 0.961 . S
C60 H122 0.959 . S
C61 C58 1.450 . S
C61 H123 0.960 . S
C61 H124 0.960 . S
C61 H125 0.960 . S
C62 C63 1.309 . S
C62 C67 1.304 . S
C62 O100 1.435 . S
C63 C62 1.309 . S
C63 C64 1.476 . S
C63 H127 0.930 . S
C64 C63 1.476 . S
C64 C65 1.400 . S
C64 C68 1.567 1_455 S
C65 C64 1.400 . S
C65 C66 1.373 . S
C65 C87 1.432 . S
C66 C65 1.373 . S
C66 C67 1.339 . S
C66 C69 1.530 . S
C67 C62 1.304 . S
C67 C66 1.339 . S
C67 H128 0.930 . S
C68 C64 1.567 1_655 S
C68 H129 0.961 . S
C68 H130 0.960 . S
C68 H131 0.958 . S
C69 C66 1.530 . S
C69 H132 0.961 . S
C69 H133 0.960 . S
C69 H134 0.960 . S
C70 C71 1.530 . S
C70 H136 0.961 . S
C70 H137 0.961 1_455 S
C70 H138 0.959 1_455 S
C71 C70 1.530 . S
C71 O99 1.412 . S
C71 H135 0.980 . S
C72 C73 1.288 1_455 S
C72 C77 1.377 . S
C72 O99 1.393 . S
C73 C72 1.288 1_655 S
C73 C74 1.369 . S
C73 H139 0.932 . S
C74 C73 1.369 . S
C74 C75 1.398 1_655 S
C74 C78 1.527 . S
C75 C74 1.398 1_455 S
C75 C76 1.380 . S
C75 C89 1.497 . S
C76 C75 1.380 . S
C76 C77 1.383 . S
C76 C79 1.603 . S
C77 C72 1.377 . S
C77 C76 1.383 . S
C77 H140 0.929 . S
C78 C74 1.527 . S
C78 H141 0.961 . S
C78 H142 0.959 . S
C78 H143 0.959 . S
C79 C76 1.603 . S
C79 H144 0.960 . S
C79 H145 0.962 . S
C79 H146 0.961 . S
C80 C47 1.587 . S
C80 C81 1.360 . S
C80 C93 1.412 . S
C81 C80 1.360 . S
C81 C82 1.365 . S
C81 H147 0.929 . S
C82 C57 1.553 . S
C82 C81 1.365 . S
C82 C83 1.404 . S
C83 C82 1.404 . S
C83 C84 1.395 . S
C83 C94 1.451 . S
C84 C83 1.395 . S
C84 C85 1.322 . S
C84 H148 0.930 . S
C85 C84 1.322 . S
C85 C86 1.459 . S
C85 H149 0.929 . S
C86 C85 1.459 . S
C86 C87 1.445 . S
C86 C95 1.395 . S
C87 C65 1.432 . S
C87 C86 1.445 . S
C87 C88 1.370 . S
C88 C87 1.370 . S
C88 C89 1.438 . S
C88 H150 0.930 . S
C89 C75 1.497 . S
C89 C88 1.438 . S
C89 C90 1.360 . S
C90 C89 1.360 . S
C90 C91 1.401 . S
C90 C95 1.446 . S
C91 C90 1.401 . S
C91 C92 1.347 . S
C91 H151 0.929 . S
C92 C91 1.347 . S
C92 C93 1.455 . S
C92 H152 0.930 . S
C93 C80 1.412 . S
C93 C92 1.455 . S
C93 C94 1.331 . S
C94 C83 1.451 . S
C94 C93 1.331 . S
C94 C95 1.497 . S
C95 C86 1.395 . S
C95 C90 1.446 . S
C95 C94 1.497 . S
C96 C97 1.582 . S
C96 H153 0.962 . S
C96 H154 0.959 . S
C96 H155 0.958 . S
C97 C96 1.582 . S
C97 O100 1.458 . S
C97 H126 0.980 . S
O98 C43 1.426 1_655 S
O98 C44 1.334 1_655 S
O99 C71 1.412 . S
O99 C72 1.393 . S
O100 C62 1.435 . S
O100 C97 1.458 . S
O101 C53 1.468 . S
O101 C54 1.408 . S
H102 C43 0.980 . S
H103 C42 0.959 . S
H104 C42 0.959 . S
H105 C42 0.960 . S
H106 C45 0.929 . S
H107 C49 0.929 . S
H108 C50 0.959 . S
H109 C50 0.961 . S
H110 C50 0.961 . S
H111 C51 0.960 . S
H112 C51 0.960 . S
H113 C51 0.961 . S
H114 C53 0.980 . S
H115 C52 0.961 . S
H116 C52 0.960 . S
H117 C52 0.959 . S
H118 C55 0.930 . S
H119 C59 0.931 . S
H120 C60 0.959 . S
H121 C60 0.961 . S
H122 C60 0.959 . S
H123 C61 0.960 . S
H124 C61 0.960 . S
H125 C61 0.960 . S
H126 C97 0.980 . S
H127 C63 0.930 . S
H128 C67 0.930 . S
H129 C68 0.961 . S
H130 C68 0.960 . S
H131 C68 0.958 . S
H132 C69 0.961 . S
H133 C69 0.960 . S
H134 C69 0.960 . S
H135 C71 0.980 . S
H136 C70 0.961 . S
H137 C70 0.961 1_655 S
H138 C70 0.959 1_655 S
H139 C73 0.932 . S
H140 C77 0.929 . S
H141 C78 0.961 . S
H142 C78 0.959 . S
H143 C78 0.959 . S
H144 C79 0.960 . S
H145 C79 0.962 . S
H146 C79 0.961 . S
H147 C81 0.929 . S
H148 C84 0.930 . S
H149 C85 0.929 . S
H150 C88 0.930 . S
H151 C91 0.929 . S
H152 C92 0.930 . S
H153 C96 0.962 . S
H154 C96 0.959 . S
H155 C96 0.958 . S
C156 C157 1.560 1_565 S
C156 H217 0.959 . S
C156 H218 0.959 . S
C156 H219 0.960 . S
C157 C156 1.560 1_545 S
C157 O212 1.426 1_545 S
C157 H216 0.980 . S
C158 C159 1.407 . S
C158 C163 1.418 1_545 S
C158 O212 1.334 1_545 S
C159 C158 1.407 . S
C159 C160 1.360 . S
C159 H220 0.929 . S
C160 C159 1.360 . S
C160 C161 1.401 . S
C160 C164 1.527 . S
C161 C160 1.401 . S
C161 C162 1.405 1_545 S
C161 C194 1.587 . S
C162 C161 1.405 1_565 S
C162 C163 1.332 . S
C162 C165 1.496 . S
C163 C158 1.418 1_565 S
C163 C162 1.332 . S
C163 H221 0.929 . S
C164 C160 1.527 . S
C164 H222 0.959 . S
C164 H223 0.961 . S
C164 H224 0.961 . S
C165 C162 1.496 . S
C165 H225 0.960 . S
C165 H226 0.960 . S
C165 H227 0.961 . S
C166 C167 1.517 . S
C166 H229 0.961 . S
C166 H230 0.960 . S
C166 H231 0.959 . S
C167 C166 1.517 . S
C167 O215 1.468 . S
C167 H228 0.980 . S
C168 C169 1.349 . S
C168 C173 1.367 . S
C168 O215 1.408 . S
C169 C168 1.349 . S
C169 C170 1.407 . S
C169 H232 0.930 . S
C170 C169 1.407 . S
C170 C171 1.449 . S
C170 C174 1.535 1_545 S
C171 C170 1.449 . S
C171 C172 1.384 . S
C171 C196 1.553 . S
C172 C171 1.384 . S
C172 C173 1.364 . S
C172 C175 1.450 . S
C173 C168 1.367 . S
C173 C172 1.364 . S
C173 H233 0.931 . S
C174 C170 1.535 1_565 S
C174 H234 0.959 . S
C174 H235 0.961 . S
C174 H236 0.959 . S
C175 C172 1.450 . S
C175 H237 0.960 . S
C175 H238 0.960 . S
C175 H239 0.960 . S
C176 C177 1.309 . S
C176 C181 1.304 . S
C176 O214 1.435 . S
C177 C176 1.309 . S
C177 C178 1.476 . S
C177 H241 0.930 . S
C178 C177 1.476 . S
C178 C179 1.400 . S
C178 C182 1.567 1_545 S
C179 C178 1.400 . S
C179 C180 1.373 . S
C179 C201 1.432 . S
C180 C179 1.373 . S
C180 C181 1.339 . S
C180 C183 1.530 . S
C181 C176 1.304 . S
C181 C180 1.339 . S
C181 H242 0.930 . S
C182 C178 1.567 1_565 S
C182 H243 0.959 1_565 S
C182 H244 0.960 . S
C182 H245 0.958 . S
C183 C180 1.530 . S
C183 H246 0.961 . S
C183 H247 0.960 . S
C183 H248 0.960 . S
C184 C185 1.530 . S
C184 H250 0.961 . S
C184 H251 0.960 1_545 S
C184 H252 0.959 . S
C185 C184 1.530 . S
C185 O213 1.412 . S
C185 H249 0.980 . S
C186 C187 1.263 1_545 S
C186 C191 1.377 . S
C186 O213 1.393 . S
C187 C186 1.263 1_565 S
C187 C188 1.377 1_565 S
C187 H253 0.950 . S
C188 C187 1.377 1_545 S
C188 C189 1.398 . S
C188 C192 1.527 1_545 S
C189 C188 1.398 . S
C189 C190 1.380 . S
C189 C203 1.497 . S
C190 C189 1.380 . S
C190 C191 1.383 . S
C190 C193 1.603 . S
C191 C186 1.377 . S
C191 C190 1.383 . S
C191 H254 0.929 . S
C192 C188 1.527 1_565 S
C192 H255 0.961 . S
C192 H256 0.959 . S
C192 H257 0.959 . S
C193 C190 1.603 . S
C193 H258 0.960 . S
C193 H259 0.962 . S
C193 H260 0.961 . S
C194 C161 1.587 . S
C194 C195 1.360 . S
C194 C207 1.412 . S
C195 C194 1.360 . S
C195 C196 1.365 . S
C195 H261 0.929 . S
C196 C171 1.553 . S
C196 C195 1.365 . S
C196 C197 1.404 . S
C197 C196 1.404 . S
C197 C198 1.395 . S
C197 C208 1.451 . S
C198 C197 1.395 . S
C198 C199 1.322 . S
C198 H262 0.930 . S
C199 C198 1.322 . S
C199 C200 1.459 . S
C199 H263 0.929 . S
C200 C199 1.459 . S
C200 C201 1.445 . S
C200 C209 1.395 . S
C201 C179 1.432 . S
C201 C200 1.445 . S
C201 C202 1.370 . S
C202 C201 1.370 . S
C202 C203 1.438 . S
C202 H264 0.930 . S
C203 C189 1.497 . S
C203 C202 1.438 . S
C203 C204 1.360 . S
C204 C203 1.360 . S
C204 C205 1.401 . S
C204 C209 1.446 . S
C205 C204 1.401 . S
C205 C206 1.347 . S
C205 H265 0.929 . S
C206 C205 1.347 . S
C206 C207 1.455 . S
C206 H266 0.930 . S
C207 C194 1.412 . S
C207 C206 1.455 . S
C207 C208 1.331 . S
C208 C197 1.451 . S
C208 C207 1.331 . S
C208 C209 1.497 . S
C209 C200 1.395 . S
C209 C204 1.446 . S
C209 C208 1.497 . S
C210 C211 1.582 . S
C210 H267 0.962 . S
C210 H268 0.959 . S
C210 H269 0.958 . S
C211 C210 1.582 . S
C211 O214 1.458 . S
C211 H240 0.980 . S
O212 C157 1.426 1_565 S
O212 C158 1.334 1_565 S
O213 C185 1.412 . S
O213 C186 1.393 . S
O214 C176 1.435 . S
O214 C211 1.458 . S
O215 C167 1.468 . S
O215 C168 1.408 . S
H216 C157 0.980 . S
H217 C156 0.959 . S
H218 C156 0.959 . S
H219 C156 0.960 . S
H220 C159 0.929 . S
H221 C163 0.929 . S
H222 C164 0.959 . S
H223 C164 0.961 . S
H224 C164 0.961 . S
H225 C165 0.960 . S
H226 C165 0.960 . S
H227 C165 0.961 . S
H228 C167 0.980 . S
H229 C166 0.961 . S
H230 C166 0.960 . S
H231 C166 0.959 . S
H232 C169 0.930 . S
H233 C173 0.931 . S
H234 C174 0.959 . S
H235 C174 0.961 . S
H236 C174 0.959 . S
H237 C175 0.960 . S
H238 C175 0.960 . S
H239 C175 0.960 . S
H240 C211 0.980 . S
H241 C177 0.930 . S
H242 C181 0.930 . S
H243 C182 0.959 1_545 S
H244 C182 0.960 . S
H245 C182 0.958 . S
H246 C183 0.961 . S
H247 C183 0.960 . S
H248 C183 0.960 . S
H249 C185 0.980 . S
H250 C184 0.961 . S
H251 C184 0.960 1_565 S
H252 C184 0.959 . S
H253 C187 0.950 . S
H254 C191 0.929 . S
H255 C192 0.961 . S
H256 C192 0.959 . S
H257 C192 0.959 . S
H258 C193 0.960 . S
H259 C193 0.962 . S
H260 C193 0.961 . S
H261 C195 0.929 . S
H262 C198 0.930 . S
H263 C199 0.929 . S
H264 C202 0.930 . S
H265 C205 0.929 . S
H266 C206 0.930 . S
H267 C210 0.962 . S
H268 C210 0.959 . S
H269 C210 0.958 . S
C270 C271 1.560 . S
C270 H331 0.959 . S
C270 H332 0.959 . S
C270 H333 0.960 . S
C271 C270 1.560 . S
C271 O326 1.426 . S
C271 H330 0.980 . S
C272 C273 1.407 . S
C272 C277 1.418 . S
C272 O326 1.334 . S
C273 C272 1.407 . S
C273 C274 1.360 . S
C273 H334 0.929 . S
C274 C273 1.360 . S
C274 C275 1.401 . S
C274 C278 1.527 . S
C275 C274 1.401 . S
C275 C276 1.405 . S
C275 C308 1.587 . S
C276 C275 1.405 . S
C276 C277 1.332 . S
C276 C279 1.496 . S
C277 C272 1.418 . S
C277 C276 1.332 . S
C277 H335 0.929 . S
C278 C274 1.527 . S
C278 H336 0.959 . S
C278 H337 0.961 . S
C278 H338 0.961 . S
C279 C276 1.496 . S
C279 H339 0.960 . S
C279 H340 0.960 . S
C279 H341 0.961 . S
C280 C281 1.517 . S
C280 H343 0.961 . S
C280 H344 0.960 . S
C280 H345 0.959 . S
C281 C280 1.517 . S
C281 O329 1.468 . S
C281 H342 0.980 . S
C282 C283 1.349 . S
C282 C287 1.367 . S
C282 O329 1.408 . S
C283 C282 1.349 . S
C283 C284 1.407 . S
C283 H346 0.930 . S
C284 C283 1.407 . S
C284 C285 1.449 . S
C284 C288 1.535 . S
C285 C284 1.449 . S
C285 C286 1.384 . S
C285 C310 1.553 . S
C286 C285 1.384 . S
C286 C287 1.364 . S
C286 C289 1.450 . S
C287 C282 1.367 . S
C287 C286 1.364 . S
C287 H347 0.931 . S
C288 C284 1.535 . S
C288 H348 0.959 . S
C288 H349 0.961 . S
C288 H350 0.959 . S
C289 C286 1.450 . S
C289 H351 0.960 . S
C289 H352 0.960 . S
C289 H353 0.960 . S
C290 C291 1.309 . S
C290 C295 1.304 . S
C290 O328 1.435 . S
C291 C290 1.309 . S
C291 C292 1.476 . S
C291 H355 0.930 . S
C292 C291 1.476 . S
C292 C293 1.400 . S
C292 C296 1.567 . S
C293 C292 1.400 . S
C293 C294 1.373 . S
C293 C315 1.432 . S
C294 C293 1.373 . S
C294 C295 1.339 . S
C294 C297 1.530 . S
C295 C290 1.304 . S
C295 C294 1.339 . S
C295 H356 0.930 . S
C296 C292 1.567 . S
C296 H357 0.961 . S
C296 H358 0.960 . S
C296 H359 0.958 . S
C297 C294 1.530 . S
C297 H360 0.961 . S
C297 H361 0.960 . S
C297 H362 0.960 . S
C298 C299 1.530 . S
C298 H364 0.961 . S
C298 H365 0.961 . S
C298 H366 0.994 . S
C299 C298 1.530 . S
C299 O327 1.412 . S
C299 H363 0.980 . S
C300 C301 1.288 . S
C300 C305 1.377 . S
C300 O327 1.393 . S
C301 C300 1.288 . S
C301 C302 1.369 . S
C301 H367 0.932 . S
C302 C301 1.369 . S
C302 C303 1.398 . S
C302 C306 1.527 . S
C303 C302 1.398 . S
C303 C304 1.380 . S
C303 C317 1.497 . S
C304 C303 1.380 . S
C304 C305 1.383 . S
C304 C307 1.603 . S
C305 C300 1.377 . S
C305 C304 1.383 . S
C305 H368 0.929 . S
C306 C302 1.527 . S
C306 H369 0.961 . S
C306 H370 0.959 . S
C306 H371 0.959 . S
C307 C304 1.603 . S
C307 H372 0.960 . S
C307 H373 0.962 . S
C307 H374 0.961 . S
C308 C275 1.587 . S
C308 C309 1.360 . S
C308 C321 1.412 . S
C309 C308 1.360 . S
C309 C310 1.365 . S
C309 H375 0.929 . S
C310 C285 1.553 . S
C310 C309 1.365 . S
C310 C311 1.404 . S
C311 C310 1.404 . S
C311 C312 1.395 . S
C311 C322 1.451 . S
C312 C311 1.395 . S
C312 C313 1.322 . S
C312 H376 0.930 . S
C313 C312 1.322 . S
C313 C314 1.459 . S
C313 H377 0.929 . S
C314 C313 1.459 . S
C314 C315 1.445 . S
C314 C323 1.395 . S
C315 C293 1.432 . S
C315 C314 1.445 . S
C315 C316 1.370 . S
C316 C315 1.370 . S
C316 C317 1.438 . S
C316 H378 0.930 . S
C317 C303 1.497 . S
C317 C316 1.438 . S
C317 C318 1.360 . S
C318 C317 1.360 . S
C318 C319 1.401 . S
C318 C323 1.446 . S
C319 C318 1.401 . S
C319 C320 1.347 . S
C319 H379 0.929 . S
C320 C319 1.347 . S
C320 C321 1.455 . S
C320 H380 0.930 . S
C321 C308 1.412 . S
C321 C320 1.455 . S
C321 C322 1.331 . S
C322 C311 1.451 . S
C322 C321 1.331 . S
C322 C323 1.497 . S
C323 C314 1.395 . S
C323 C318 1.446 . S
C323 C322 1.497 . S
C324 C325 1.582 . S
C324 H381 0.962 . S
C324 H382 0.959 . S
C324 H383 0.958 . S
C325 C324 1.582 . S
C325 O328 1.458 . S
C325 H354 0.980 . S
O326 C271 1.426 . S
O326 C272 1.334 . S
O327 C299 1.412 . S
O327 C300 1.393 . S
O328 C290 1.435 . S
O328 C325 1.458 . S
O329 C281 1.468 . S
O329 C282 1.408 . S
H330 C271 0.980 . S
H331 C270 0.959 . S
H332 C270 0.959 . S
H333 C270 0.960 . S
H334 C273 0.929 . S
H335 C277 0.929 . S
H336 C278 0.959 . S
H337 C278 0.961 . S
H338 C278 0.961 . S
H339 C279 0.960 . S
H340 C279 0.960 . S
H341 C279 0.961 . S
H342 C281 0.980 . S
H343 C280 0.961 . S
H344 C280 0.960 . S
H345 C280 0.959 . S
H346 C283 0.930 . S
H347 C287 0.931 . S
H348 C288 0.959 . S
H349 C288 0.961 . S
H350 C288 0.959 . S
H351 C289 0.960 . S
H352 C289 0.960 . S
H353 C289 0.960 . S
H354 C325 0.980 . S
H355 C291 0.930 . S
H356 C295 0.930 . S
H357 C296 0.961 . S
H358 C296 0.960 . S
H359 C296 0.958 . S
H360 C297 0.961 . S
H361 C297 0.960 . S
H362 C297 0.960 . S
H363 C299 0.980 . S
H364 C298 0.961 . S
H365 C298 0.961 . S
H366 C298 0.994 . S
H367 C301 0.932 . S
H368 C305 0.929 . S
H369 C306 0.961 . S
H370 C306 0.959 . S
H371 C306 0.959 . S
H372 C307 0.960 . S
H373 C307 0.962 . S
H374 C307 0.961 . S
H375 C309 0.929 . S
H376 C312 0.930 . S
H377 C313 0.929 . S
H378 C316 0.930 . S
H379 C319 0.929 . S
H380 C320 0.930 . S
H381 C324 0.962 . S
H382 C324 0.959 . S
H383 C324 0.958 . S
H384 C390 0.930 . S
H385 C393 0.930 . S
H386 C394 0.930 . S
H387 C395 0.930 1_655 S
H388 C398 0.930 . S
H389 C399 0.930 . S
C390 H384 0.930 . S
C390 C391 1.355 . S
C390 C392 1.415 . S
C391 C390 1.355 . S
C391 C393 1.419 1_455 S
C392 C390 1.415 . S
C392 C397 1.425 . S
C392 C399 1.409 . S
C393 H385 0.930 . S
C393 C391 1.419 1_655 S
C393 C394 1.362 . S
C394 H386 0.930 . S
C394 C393 1.362 . S
C394 C397 1.409 1_655 S
C395 H387 0.930 1_455 S
C395 C396 1.355 . S
C395 C397 1.415 . S
C396 C395 1.355 . S
C396 C398 1.419 . S
C397 C392 1.425 . S
C397 C394 1.409 1_455 S
C397 C395 1.415 . S
C398 H388 0.930 . S
C398 C396 1.419 . S
C398 C399 1.362 . S
C399 H389 0.930 . S
C399 C392 1.409 . S
C399 C398 1.362 . S
H400 C406 0.930 . S
H401 C409 0.930 . S
H402 C410 0.930 . S
H403 C411 0.930 . S
H404 C414 0.930 . S
H405 C415 0.926 1_565 S
C406 H400 0.930 . S
C406 C407 1.355 . S
C406 C408 1.415 . S
C407 C406 1.355 . S
C407 C409 1.419 . S
C408 C406 1.415 . S
C408 C413 1.425 . S
C408 C415 1.409 . S
C409 H401 0.930 . S
C409 C407 1.419 . S
C409 C410 1.362 . S
C410 H402 0.930 . S
C410 C409 1.362 . S
C410 C413 1.409 . S
C411 H403 0.930 . S
C411 C412 1.355 . S
C411 C413 1.415 . S
C412 C411 1.355 . S
C412 C414 1.419 . S
C413 C408 1.425 . S
C413 C410 1.409 . S
C413 C411 1.415 . S
C414 H404 0.930 . S
C414 C412 1.419 . S
C414 C415 1.362 . S
C415 H405 0.926 1_545 S
C415 C408 1.409 . S
C415 C414 1.362 . S
H416 C422 0.930 . S
H417 C425 0.930 . S
H418 C426 0.930 . S
H419 C427 0.930 . S
H420 C430 0.930 . S
H421 C431 0.930 . S
C422 H416 0.930 . S
C422 C423 1.355 . S
C422 C424 1.415 . S
C423 C422 1.355 . S
C423 C425 1.419 . S
C424 C422 1.415 . S
C424 C429 1.425 . S
C424 C431 1.409 . S
C425 H417 0.930 . S
C425 C423 1.419 . S
C425 C426 1.362 . S
C426 H418 0.930 . S
C426 C425 1.362 . S
C426 C429 1.409 . S
C427 H419 0.930 . S
C427 C428 1.355 . S
C427 C429 1.415 . S
C428 C427 1.355 . S
C428 C430 1.419 . S
C429 C424 1.425 . S
C429 C426 1.409 . S
C429 C427 1.415 . S
C430 H420 0.930 . S
C430 C428 1.419 . S
C430 C431 1.362 . S
C431 H421 0.930 . S
C431 C424 1.409 . S
C431 C430 1.362 . S
H432 C438 0.930 . S
H433 C441 0.930 1_545 S
H434 C442 0.930 . S
H435 C443 0.930 . S
H436 C446 0.930 . S
H437 C447 0.930 . S
C438 H432 0.930 . S
C438 C439 1.355 . S
C438 C440 1.415 . S
C439 C438 1.355 . S
C439 C441 1.419 . S
C440 C438 1.415 . S
C440 C445 1.425 . S
C440 C447 1.409 . S
C441 H433 0.930 1_565 S
C441 C439 1.419 . S
C441 C442 1.362 . S
C442 H434 0.930 . S
C442 C441 1.362 . S
C442 C445 1.409 . S
C443 H435 0.930 . S
C443 C444 1.355 . S
C443 C445 1.415 . S
C444 C443 1.355 . S
C444 C446 1.419 . S
C445 C440 1.425 . S
C445 C442 1.409 . S
C445 C443 1.415 . S
C446 H436 0.930 . S
C446 C444 1.419 . S
C446 C447 1.362 . S
C447 H437 0.930 . S
C447 C440 1.409 . S
C447 C446 1.362 . S
H448 C454 0.930 . S
H449 C457 0.930 . S
H450 C458 0.930 . S
H451 C459 0.930 . S
H452 C462 0.930 . S
H453 C463 0.930 . S
C454 H448 0.930 . S
C454 C455 1.355 . S
C454 C456 1.415 . S
C455 C454 1.355 . S
C455 C457 1.419 . S
C456 C454 1.415 . S
C456 C461 1.425 . S
C456 C463 1.409 . S
C457 H449 0.930 . S
C457 C455 1.419 . S
C457 C458 1.362 . S
C458 H450 0.930 . S
C458 C457 1.362 . S
C458 C461 1.409 . S
C459 H451 0.930 . S
C459 C460 1.355 . S
C459 C461 1.415 . S
C460 C459 1.355 . S
C460 C462 1.419 . S
C461 C456 1.425 . S
C461 C458 1.409 . S
C461 C459 1.415 . S
C462 H452 0.930 . S
C462 C460 1.419 . S
C462 C463 1.362 . S
C463 H453 0.930 . S
C463 C456 1.409 . S
C463 C462 1.362 . S
H464 C470 0.930 . S
H465 C473 0.930 . S
H466 C474 0.930 . S
H467 C475 0.930 . S
H468 C478 0.930 . S
H469 C479 0.930 . S
C470 H464 0.930 . S
C470 C471 1.355 . S
C470 C472 1.415 . S
C471 C470 1.355 . S
C471 C473 1.419 . S
C472 C470 1.415 . S
C472 C477 1.425 . S
C472 C479 1.409 . S
C473 H465 0.930 . S
C473 C471 1.419 . S
C473 C474 1.362 . S
C474 H466 0.930 . S
C474 C473 1.362 . S
C474 C477 1.409 . S
C475 H467 0.930 . S
C475 C476 1.355 . S
C475 C477 1.415 . S
C476 C475 1.355 . S
C476 C478 1.419 . S
C477 C472 1.425 . S
C477 C474 1.409 . S
C477 C475 1.415 . S
C478 H468 0.930 . S
C478 C476 1.419 . S
C478 C479 1.362 . S
C479 H469 0.930 . S
C479 C472 1.409 . S
C479 C478 1.362 . S
H480 C486 0.930 1_565 S
H481 C489 0.930 . S
H482 C490 0.930 . S
H483 C491 0.930 . S
H484 C494 0.930 . S
H485 C495 0.930 . S
C486 H480 0.930 1_545 S
C486 C487 1.355 . S
C486 C488 1.415 . S
C487 C486 1.355 . S
C487 C489 1.419 . S
C488 C486 1.415 . S
C488 C493 1.425 . S
C488 C495 1.409 1_545 S
C489 H481 0.930 . S
C489 C487 1.419 . S
C489 C490 1.362 . S
C490 H482 0.930 . S
C490 C489 1.362 . S
C490 C493 1.409 . S
C491 H483 0.930 . S
C491 C492 1.355 . S
C491 C493 1.415 . S
C492 C491 1.355 . S
C492 C494 1.419 1_545 S
C493 C488 1.425 . S
C493 C490 1.409 . S
C493 C491 1.415 . S
C494 H484 0.930 . S
C494 C492 1.419 1_565 S
C494 C495 1.362 . S
C495 H485 0.930 . S
C495 C488 1.409 1_565 S
C495 C494 1.362 . S
H496 C502 0.930 . S
H497 C505 0.930 1_455 S
H498 C506 0.930 . S
H499 C507 0.930 . S
H500 C510 0.930 . S
H501 C511 0.930 . S
C502 H496 0.930 . S
C502 C503 1.355 . S
C502 C504 1.415 . S
C503 C502 1.355 . S
C503 C505 1.419 . S
C504 C502 1.415 . S
C504 C509 1.425 . S
C504 C511 1.409 . S
C505 H497 0.930 1_655 S
C505 C503 1.419 . S
C505 C506 1.362 . S
C506 H498 0.930 . S
C506 C505 1.362 . S
C506 C509 1.409 . S
C507 H499 0.930 . S
C507 C508 1.355 . S
C507 C509 1.415 1_556 S
C508 C507 1.355 . S
C508 C510 1.419 1_556 S
C509 C504 1.425 . S
C509 C506 1.409 . S
C509 C507 1.415 1_554 S
C510 H500 0.930 . S
C510 C508 1.419 1_554 S
C510 C511 1.362 . S
C511 H501 0.930 . S
C511 C504 1.409 . S
C511 C510 1.362 . S
H512 C518 0.930 1_545 S
H513 C521 0.930 . S
H514 C522 0.930 . S
H515 C523 0.930 . S
H516 C526 0.930 . S
H517 C527 0.930 . S
C518 H512 0.930 1_565 S
C518 C519 1.355 . S
C518 C520 1.415 . S
C519 C518 1.355 . S
C519 C521 1.419 1_455 S
C520 C518 1.415 . S
C520 C525 1.425 1_455 S
C520 C527 1.409 . S
C521 H513 0.930 . S
C521 C519 1.419 1_655 S
C521 C522 1.362 . S
C522 H514 0.930 . S
C522 C521 1.362 . S
C522 C525 1.409 . S
C523 H515 0.930 . S
C523 C524 1.355 1_655 S
C523 C525 1.415 . S
C524 C523 1.355 1_455 S
C524 C526 1.419 . S
C525 C520 1.425 1_655 S
C525 C522 1.409 . S
C525 C523 1.415 . S
C526 H516 0.930 . S
C526 C524 1.419 . S
C526 C527 1.362 . S
C527 H517 0.930 . S
C527 C520 1.409 . S
C527 C526 1.362 . S
H528 C534 0.930 . S
H529 C537 0.930 . S
H530 C538 0.930 . S
H531 C539 0.930 . S
H532 C542 0.930 . S
H533 C543 0.930 . S
C534 H528 0.930 . S
C534 C535 1.355 . S
C534 C536 1.415 . S
C535 C534 1.355 . S
C535 C537 1.419 1_545 S
C536 C534 1.415 . S
C536 C541 1.425 1_545 S
C536 C543 1.409 . S
C537 H529 0.930 . S
C537 C535 1.419 1_565 S
C537 C538 1.362 . S
C538 H530 0.930 . S
C538 C537 1.362 . S
C538 C541 1.409 . S
C539 H531 0.930 . S
C539 C540 1.355 1_565 S
C539 C541 1.415 . S
C540 C539 1.355 1_545 S
C540 C542 1.419 . S
C541 C536 1.425 1_565 S
C541 C538 1.409 . S
C541 C539 1.415 . S
C542 H532 0.930 . S
C542 C540 1.419 . S
C542 C543 1.362 . S
C543 H533 0.930 . S
C543 C536 1.409 . S
C543 C542 1.362 . S
H544 C550 0.930 . S
H545 C553 0.930 . S
H546 C554 0.930 . S
H547 C555 0.930 . S
H548 C558 0.930 . S
H549 C559 0.930 . S
C550 H544 0.930 . S
C550 C551 1.355 . S
C550 C552 1.415 . S
C551 C550 1.355 . S
C551 C553 1.419 . S
C552 C550 1.415 . S
C552 C557 1.425 . S
C552 C559 1.409 . S
C553 H545 0.930 . S
C553 C551 1.419 . S
C553 C554 1.362 . S
C554 H546 0.930 . S
C554 C553 1.362 . S
C554 C557 1.409 . S
C555 H547 0.930 . S
C555 C556 1.355 . S
C555 C557 1.415 1_556 S
C556 C555 1.355 . S
C556 C558 1.419 . S
C557 C552 1.425 . S
C557 C554 1.409 . S
C557 C555 1.415 1_554 S
C558 H548 0.930 . S
C558 C556 1.419 . S
C558 C559 1.362 1_556 S
C559 H549 0.930 . S
C559 C552 1.409 . S
C559 C558 1.362 1_554 S
H560 C566 0.930 . S
H561 C569 0.930 . S
H562 C570 0.930 . S
H563 C571 0.930 1_655 S
H564 C574 0.930 . S
H565 C575 0.930 . S
C566 H560 0.930 . S
C566 C567 1.355 . S
C566 C568 1.415 . S
C567 C566 1.355 . S
C567 C569 1.419 1_455 S
C568 C566 1.415 . S
C568 C573 1.425 . S
C568 C575 1.409 . S
C569 H561 0.930 . S
C569 C567 1.419 1_655 S
C569 C570 1.362 . S
C570 H562 0.930 . S
C570 C569 1.362 . S
C570 C573 1.409 1_655 S
C571 H563 0.930 1_455 S
C571 C572 1.355 . S
C571 C573 1.415 . S
C572 C571 1.355 . S
C572 C574 1.419 . S
C573 C568 1.425 . S
C573 C570 1.409 1_455 S
C573 C571 1.415 . S
C574 H564 0.930 . S
C574 C572 1.419 . S
C574 C575 1.362 . S
C575 H565 0.930 . S
C575 C568 1.409 . S
C575 C574 1.362 . S
C396 C97 0.967 . S
C391 C11 1.388 . S
C407 C25 1.425 . S
C412 C211 1.187 . S
C423 C41 1.223 . S
C428 C271 0.967 . S
C439 C7 1.311 . S
C444 C71 1.118 . S
C460 C185 1.190 . S
C455 C21 1.372 . S
C471 C36 1.419 . S
C476 C281 0.929 . S
C492 C167 0.879 . S
C487 C39 1.361 . S
C503 C8 1.305 1_655 S
C508 C299 1.226 . S
C524 C43 1.122 . S
C519 C22 1.336 1_565 S
C540 C157 1.093 . S
C535 C35 1.281 . S
C556 C325 1.115 . S
C551 C13 1.463 . S
C567 C27 1.421 . S
C572 C53 0.821 . S
