# Generated by pormake.
# Topology cml, (3,6)-cn, num edge types: 1
# Building blocks:
#     Node 0, Type 0, BuildingBlock: VETTIZ_charged_linker_0, # of connection points: 3
#     Node 1, Type 0, BuildingBlock: VETTIZ_charged_linker_0, # of connection points: 3
#     Node 2, Type 0, BuildingBlock: VETTIZ_charged_linker_0, # of connection points: 3
#     Node 3, Type 0, BuildingBlock: VETTIZ_charged_linker_0, # of connection points: 3
#     Node 4, Type 0, BuildingBlock: VETTIZ_charged_linker_0, # of connection points: 3
#     Node 5, Type 0, BuildingBlock: VETTIZ_charged_linker_0, # of connection points: 3
#     Node 6, Type 0, BuildingBlock: VETTIZ_charged_linker_0, # of connection points: 3
#     Node 7, Type 0, BuildingBlock: VETTIZ_charged_linker_0, # of connection points: 3
#     Node 8, Type 1, BuildingBlock: OJICUG_clean_sbu_0, # of connection points: 6
#     Node 9, Type 1, BuildingBlock: OJICUG_clean_sbu_0, # of connection points: 6
#     Node 10, Type 1, BuildingBlock: OJICUG_clean_sbu_0, # of connection points: 6
#     Node 11, Type 1, BuildingBlock: OJICUG_clean_sbu_0, # of connection points: 6
#     Edge 12, Type (0, 1), BuildingBlock: XUDNAN_clean_linker_2, # of connection points: 2
#     Edge 13, Type (0, 1), BuildingBlock: XUDNAN_clean_linker_2, # of connection points: 2
#     Edge 14, Type (0, 1), BuildingBlock: XUDNAN_clean_linker_2, # of connection points: 2
#     Edge 15, Type (0, 1), BuildingBlock: XUDNAN_clean_linker_2, # of connection points: 2
#     Edge 16, Type (0, 1), BuildingBlock: XUDNAN_clean_linker_2, # of connection points: 2
#     Edge 17, Type (0, 1), BuildingBlock: XUDNAN_clean_linker_2, # of connection points: 2
#     Edge 18, Type (0, 1), BuildingBlock: XUDNAN_clean_linker_2, # of connection points: 2
#     Edge 19, Type (0, 1), BuildingBlock: XUDNAN_clean_linker_2, # of connection points: 2
#     Edge 20, Type (0, 1), BuildingBlock: XUDNAN_clean_linker_2, # of connection points: 2
#     Edge 21, Type (0, 1), BuildingBlock: XUDNAN_clean_linker_2, # of connection points: 2
#     Edge 22, Type (0, 1), BuildingBlock: XUDNAN_clean_linker_2, # of connection points: 2
#     Edge 23, Type (0, 1), BuildingBlock: XUDNAN_clean_linker_2, # of connection points: 2
#     Edge 24, Type (0, 1), BuildingBlock: XUDNAN_clean_linker_2, # of connection points: 2
#     Edge 25, Type (0, 1), BuildingBlock: XUDNAN_clean_linker_2, # of connection points: 2
#     Edge 26, Type (0, 1), BuildingBlock: XUDNAN_clean_linker_2, # of connection points: 2
#     Edge 27, Type (0, 1), BuildingBlock: XUDNAN_clean_linker_2, # of connection points: 2
#     Edge 28, Type (0, 1), BuildingBlock: XUDNAN_clean_linker_2, # of connection points: 2
#     Edge 29, Type (0, 1), BuildingBlock: XUDNAN_clean_linker_2, # of connection points: 2
#     Edge 30, Type (0, 1), BuildingBlock: XUDNAN_clean_linker_2, # of connection points: 2
#     Edge 31, Type (0, 1), BuildingBlock: XUDNAN_clean_linker_2, # of connection points: 2
#     Edge 32, Type (0, 1), BuildingBlock: XUDNAN_clean_linker_2, # of connection points: 2
#     Edge 33, Type (0, 1), BuildingBlock: XUDNAN_clean_linker_2, # of connection points: 2
#     Edge 34, Type (0, 1), BuildingBlock: XUDNAN_clean_linker_2, # of connection points: 2
#     Edge 35, Type (0, 1), BuildingBlock: XUDNAN_clean_linker_2, # of connection points: 2
# Relax obj value: 0.076
# Max RMSD: 0.088
# Mean RMSD: 0.083
data_MOF--net-cml--node1-OJICUG_clean_sbu_0--node2-VETTIZ_charged_linker_0--edge1-XUDNAN_clean_linker_2
_symmetry_space_group_name_H-M    P1
_symmetry_Int_Tables_number       1
_symmetry_cell_setting            triclinic
loop_
_symmetry_equiv_pos_as_xyz
'x, y, z'
_cell_length_a     47.038012
_cell_length_b     47.515064
_cell_length_c     45.011484
_cell_angle_alpha  90.024931
_cell_angle_beta   89.891988
_cell_angle_gamma 89.972971
loop_
_atom_site_label
_atom_site_type_symbol
_atom_site_fract_x
_atom_site_fract_y
_atom_site_fract_z
_atom_type_partial_charge
C0 C 0.30639 0.36355 0.08977 0.0
C1 C 0.32926 0.3753 0.10552 0.0
C2 C 0.33907 0.40235 0.09762 0.0
C3 C 0.30393 0.40513 0.05855 0.0
C4 C 0.2942 0.37873 0.0664 0.0
C5 C 0.27025 0.36899 0.04691 0.0
H6 H 0.18194 0.39292 0.93125 0.0
C7 C 0.28731 0.41479 0.03273 0.0
C8 C 0.26766 0.39368 0.02569 0.0
H9 H 0.18253 0.32272 0.99214 0.0
H10 H 0.2232 0.34203 0.01742 0.0
H11 H 0.19169 0.43981 0.98113 0.0
H12 H 0.25098 0.3976 0.92319 0.0
H13 H 0.26184 0.43286 0.92588 0.0
H14 H 0.22759 0.42468 0.91003 0.0
H15 H 0.19298 0.44601 0.9418 0.0
H16 H 0.21547 0.46509 0.9671 0.0
C17 C 0.24334 0.36548 0.06657 0.0
C18 C 0.27996 0.3418 0.03075 0.0
C19 C 0.30923 0.50933 0.98609 0.0
C20 C 0.29956 0.5228 0.96028 0.0
C21 C 0.2781 0.51006 0.94315 0.0
C22 C 0.26651 0.48408 0.95162 0.0
C23 C 0.27677 0.47061 0.97728 0.0
C24 C 0.29783 0.48326 0.99397 0.0
C25 C 0.30761 0.46516 0.0193 0.0
C26 C 0.28862 0.43969 0.01542 0.0
C27 C 0.27048 0.44304 0.99093 0.0
C28 C 0.30119 0.48099 0.04865 0.0
C29 C 0.33947 0.45792 0.01439 0.0
C30 C 0.1913 0.38167 0.94974 0.0
C31 C 0.17945 0.35634 0.95982 0.0
C32 C 0.19159 0.34229 0.98417 0.0
C33 C 0.21508 0.35359 0.99884 0.0
C34 C 0.22635 0.37936 0.9892 0.0
C35 C 0.21461 0.39296 0.96498 0.0
C36 C 0.22878 0.42076 0.95889 0.0
C37 C 0.25061 0.42166 0.98369 0.0
C38 C 0.24918 0.39723 0.00113 0.0
C39 C 0.20619 0.4443 0.96215 0.0
C40 C 0.24294 0.41919 0.92783 0.0
H41 H 0.33505 0.4377 0.06935 0.0
H42 H 0.29812 0.34297 0.09545 0.0
H43 H 0.30271 0.34331 0.02412 0.0
H44 H 0.26838 0.33789 0.00985 0.0
H45 H 0.27767 0.32312 0.0454 0.0
H46 H 0.2438 0.37995 0.08602 0.0
H47 H 0.24155 0.34368 0.07527 0.0
H48 H 0.22353 0.37104 0.05475 0.0
H49 H 0.32632 0.51827 0.99915 0.0
H50 H 0.27056 0.52009 0.92304 0.0
H51 H 0.25035 0.4753 0.93763 0.0
H52 H 0.2801 0.49157 0.04753 0.0
H53 H 0.31744 0.49743 0.05299 0.0
H54 H 0.2999 0.46691 0.0681 0.0
H55 H 0.34505 0.45789 0.99035 0.0
H56 H 0.34504 0.43653 0.02209 0.0
H57 H 0.35349 0.47346 0.02554 0.0
H58 H 0.35697 0.41176 0.109 0.0
C59 C 0.32648 0.41733 0.07435 0.0
C60 C 0.78608 0.6407 0.45188 0.0
C61 C 0.79434 0.66687 0.46363 0.0
C62 C 0.78302 0.67548 0.49124 0.0
C63 C 0.75452 0.63311 0.49397 0.0
C64 C 0.76616 0.62429 0.4673 0.0
C65 C 0.75418 0.59649 0.45732 0.0
H66 H 0.65267 0.49724 0.47195 0.0
C67 C 0.73342 0.61192 0.50354 0.0
C68 C 0.73318 0.59034 0.48217 0.0
H69 H 0.7195 0.50159 0.40576 0.0
H70 H 0.73964 0.54167 0.43069 0.0
H71 H 0.69478 0.50425 0.52534 0.0
H72 H 0.64062 0.5628 0.48006 0.0
H73 H 0.63644 0.56787 0.51863 0.0
H74 H 0.62823 0.53417 0.5027 0.0
H75 H 0.65834 0.50872 0.53599 0.0
H76 H 0.68634 0.52982 0.55208 0.0
C77 C 0.77867 0.57466 0.45634 0.0
C78 C 0.73914 0.60116 0.42714 0.0
C79 C 0.6758 0.6268 0.5984 0.0
C80 C 0.65537 0.61003 0.61277 0.0
C81 C 0.64649 0.58473 0.59944 0.0
C82 C 0.65791 0.576 0.57227 0.0
C83 C 0.67865 0.59261 0.55829 0.0
C84 C 0.6874 0.61749 0.57134 0.0
C85 C 0.71053 0.63165 0.55361 0.0
C86 C 0.7144 0.61092 0.52812 0.0
C87 C 0.69535 0.58836 0.53088 0.0
C88 C 0.73745 0.63363 0.57327 0.0
C89 C 0.69897 0.6604 0.54278 0.0
C90 C 0.67188 0.50638 0.4629 0.0
C91 C 0.68385 0.49644 0.43617 0.0
C92 C 0.70903 0.50927 0.42561 0.0
C93 C 0.72088 0.53253 0.44021 0.0
C94 C 0.70768 0.54307 0.4659 0.0
C95 C 0.68427 0.52935 0.47744 0.0
C96 C 0.6743 0.54222 0.50614 0.0
C97 C 0.6947 0.56683 0.50905 0.0
C98 C 0.71392 0.56748 0.48518 0.0
C99 C 0.67841 0.52022 0.53127 0.0
C100 C 0.64321 0.55223 0.50194 0.0
H101 H 0.75532 0.66665 0.5272 0.0
H102 H 0.79425 0.63351 0.43068 0.0
H103 H 0.72612 0.62072 0.42775 0.0
H104 H 0.72424 0.58418 0.42127 0.0
H105 H 0.7549 0.60335 0.40888 0.0
H106 H 0.79557 0.57988 0.47272 0.0
H107 H 0.78876 0.57393 0.43402 0.0
H108 H 0.77156 0.55327 0.46259 0.0
H109 H 0.68316 0.6462 0.60842 0.0
H110 H 0.63066 0.57163 0.61017 0.0
H111 H 0.65019 0.55657 0.56329 0.0
H112 H 0.73941 0.61481 0.58783 0.0
H113 H 0.7367 0.6525 0.58783 0.0
H114 H 0.75735 0.63399 0.56021 0.0
H115 H 0.67614 0.65873 0.53659 0.0
H116 H 0.70969 0.66811 0.52254 0.0
H117 H 0.70075 0.67662 0.56047 0.0
H118 H 0.78943 0.69528 0.5011 0.0
C119 C 0.76325 0.65878 0.50644 0.0
C120 C 0.69494 0.49668 0.95715 0.0
C121 C 0.66942 0.5087 0.9675 0.0
C122 C 0.65875 0.50029 0.99542 0.0
C123 C 0.69651 0.46579 -1e-05 0.0
C124 C 0.70789 0.47517 0.97349 0.0
C125 C 0.73316 0.45801 0.96381 0.0
H126 H 0.80913 0.33837 0.97715 0.0
C127 C 0.71308 0.44096 0.00959 0.0
C128 C 0.73469 0.43637 0.98857 0.0
H129 H 0.81871 0.40421 0.9115 0.0
H130 H 0.78414 0.43258 0.93734 0.0
H131 H 0.80902 0.38072 0.03296 0.0
H132 H 0.74191 0.34106 0.98347 0.0
H133 H 0.73435 0.33737 0.02158 0.0
H134 H 0.76634 0.32218 0.00673 0.0
H135 H 0.79888 0.3449 0.03967 0.0
H136 H 0.78167 0.37388 0.05854 0.0
C137 C 0.75964 0.4774 0.9634 0.0
C138 C 0.72597 0.44444 0.93339 0.0
C139 C 0.6794 0.38373 0.09806 0.0
C140 C 0.68873 0.35834 0.11084 0.0
C141 C 0.71343 0.34536 0.0995 0.0
C142 C 0.7281 0.35706 0.07535 0.0
C143 C 0.71788 0.38192 0.06221 0.0
C144 C 0.69428 0.39512 0.074 0.0
C145 C 0.68638 0.42131 0.05719 0.0
C146 C 0.70921 0.42169 0.03336 0.0
C147 C 0.72734 0.39836 0.03617 0.0
C148 C 0.68902 0.44676 0.07853 0.0
C149 C 0.65624 0.41697 0.04401 0.0
C150 C 0.80413 0.35904 0.9685 0.0
C151 C 0.81626 0.3687 0.94179 0.0
C152 C 0.80908 0.39583 0.9315 0.0
C153 C 0.78907 0.41236 0.94659 0.0
C154 C 0.7759 0.40168 0.97223 0.0
C155 C 0.7842 0.37586 0.98334 0.0
C156 C 0.76863 0.36835 0.01144 0.0
C157 C 0.74896 0.39352 0.01476 0.0
C158 C 0.753 0.41274 0.99145 0.0
C159 C 0.79054 0.36663 0.03708 0.0
C160 C 0.75198 0.34072 0.00582 0.0
H161 H 0.66259 0.47299 0.03241 0.0
H162 H 0.70402 0.50301 0.93606 0.0
H163 H 0.70359 0.43684 0.93313 0.0
H164 H 0.73892 0.42576 0.92819 0.0
H165 H 0.72844 0.45988 0.91505 0.0
H166 H 0.7579 0.49423 0.98051 0.0
H167 H 0.76222 0.48781 0.94148 0.0
H168 H 0.77944 0.46602 0.96901 0.0
H169 H 0.66029 0.3941 0.10587 0.0
H170 H 0.72133 0.32603 0.10922 0.0
H171 H 0.74652 0.34601 0.06749 0.0
H172 H 0.70724 0.44392 0.09399 0.0
H173 H 0.66951 0.44929 0.09222 0.0
H174 H 0.69348 0.4667 0.06681 0.0
H175 H 0.65282 0.3946 0.03763 0.0
H176 H 0.65266 0.42888 0.02333 0.0
H177 H 0.6395 0.4227 0.06038 0.0
H178 H 0.63909 0.50903 0.00395 0.0
C179 C 0.67225 0.47905 0.01178 0.0
C180 C 0.1939 0.61265 0.45029 0.0
C181 C 0.18296 0.63941 0.45715 0.0
C182 C 0.1938 0.65381 0.48215 0.0
C183 C 0.22725 0.61595 0.49122 0.0
C184 C 0.21615 0.6016 0.46721 0.0
C185 C 0.23198 0.57484 0.46069 0.0
H186 H 0.351 0.49842 0.47665 0.0
C187 C 0.25184 0.59973 0.5024 0.0
C188 C 0.2548 0.57574 0.48446 0.0
H189 H 0.27959 0.48298 0.41837 0.0
H190 H 0.25328 0.52014 0.44205 0.0
H191 H 0.35046 0.56452 0.47629 0.0
H192 H 0.30994 0.50585 0.53558 0.0
H193 H 0.31975 0.53498 0.5572 0.0
H194 H 0.34692 0.51444 0.53881 0.0
H195 H 0.36966 0.54271 0.50194 0.0
H196 H 0.35558 0.57634 0.51299 0.0
C197 C 0.24458 0.57732 0.42893 0.0
C198 C 0.21136 0.54971 0.4651 0.0
C199 C 0.30852 0.63535 0.59087 0.0
C200 C 0.33358 0.62584 0.60456 0.0
C201 C 0.34786 0.60229 0.59269 0.0
C202 C 0.33707 0.58805 0.56791 0.0
C203 C 0.31184 0.59758 0.55463 0.0
C204 C 0.29816 0.62106 0.56589 0.0
C205 C 0.2723 0.6288 0.54802 0.0
C206 C 0.27184 0.60516 0.5253 0.0
C207 C 0.29511 0.58701 0.52925 0.0
C208 C 0.27761 0.65793 0.53343 0.0
C209 C 0.24599 0.6278 0.56867 0.0
C210 C 0.32954 0.50277 0.46927 0.0
C211 C 0.31776 0.48836 0.44487 0.0
C212 C 0.28958 0.49443 0.43636 0.0
C213 C 0.27428 0.51602 0.45014 0.0
C214 C 0.28725 0.53186 0.47264 0.0
C215 C 0.31382 0.52429 0.48292 0.0
C216 C 0.32317 0.54246 0.50854 0.0
C217 C 0.29855 0.56315 0.51055 0.0
C218 C 0.27794 0.55709 0.48901 0.0
C219 C 0.35129 0.55726 0.49977 0.0
C220 C 0.32531 0.52362 0.53656 0.0
H221 H 0.2233 0.65425 0.51777 0.0
H222 H 0.18578 0.6007 0.43166 0.0
H223 H 0.19392 0.55501 0.48089 0.0
H224 H 0.22198 0.53121 0.47513 0.0
H225 H 0.20137 0.54337 0.44379 0.0
H226 H 0.25378 0.59863 0.42533 0.0
H227 H 0.22789 0.57398 0.41185 0.0
H228 H 0.26211 0.56256 0.42449 0.0
H229 H 0.29737 0.65365 0.5993 0.0
H230 H 0.36711 0.59451 0.60302 0.0
H231 H 0.34879 0.57016 0.56006 0.0
H232 H 0.30071 0.66232 0.53081 0.0
H233 H 0.26841 0.67521 0.54703 0.0
H234 H 0.26902 0.65922 0.51061 0.0
H235 H 0.24644 0.60852 0.58267 0.0
H236 H 0.22574 0.627 0.55635 0.0
H237 H 0.24552 0.64631 0.58375 0.0
H238 H 0.18605 0.67456 0.48793 0.0
C239 C 0.21573 0.64214 0.49929 0.0
C240 C 0.81112 0.85116 0.09831 0.0
C241 C 0.83071 0.86629 0.11564 0.0
C242 C 0.84326 0.89081 0.10411 0.0
C243 C 0.81722 0.88498 0.05829 0.0
C244 C 0.80451 0.86104 0.06969 0.0
C245 C 0.78327 0.84863 0.04826 0.0
H246 H 0.72347 0.85218 0.91114 0.0
C247 C 0.80651 0.88944 0.02791 0.0
C248 C 0.78671 0.86816 0.02167 0.0
H249 H 0.69839 0.80043 0.9859 0.0
H250 H 0.73665 0.82 0.01505 0.0
H251 H 0.72584 0.90656 0.94915 0.0
H252 H 0.79171 0.85 0.92004 0.0
H253 H 0.8052 0.88434 0.91655 0.0
H254 H 0.77437 0.8741 0.89529 0.0
H255 H 0.73807 0.90544 0.91138 0.0
H256 H 0.75487 0.92746 0.93878 0.0
C257 C 0.75325 0.85091 0.06233 0.0
C258 C 0.79245 0.81819 0.04086 0.0
C259 C 0.84137 0.97332 0.96848 0.0
C260 C 0.83664 0.98226 0.93917 0.0
C261 C 0.82037 0.96534 0.91999 0.0
C262 C 0.808 0.94032 0.93029 0.0
C263 C 0.81205 0.93216 0.96004 0.0
C264 C 0.82911 0.94822 0.97832 0.0
C265 C 0.83236 0.9356 0.00872 0.0
C266 C 0.81343 0.90987 0.00609 0.0
C267 C 0.80135 0.90817 0.97772 0.0
C268 C 0.82061 0.95695 0.03174 0.0
C269 C 0.86409 0.92762 0.01307 0.0
C270 C 0.72584 0.84505 0.93384 0.0
C271 C 0.70743 0.8248 0.94607 0.0
C272 C 0.71222 0.81578 0.97558 0.0
C273 C 0.73426 0.82744 0.99269 0.0
C274 C 0.75142 0.8487 0.98043 0.0
C275 C 0.74695 0.85713 0.95145 0.0
C276 C 0.76513 0.88172 0.94273 0.0
C277 C 0.78131 0.88678 0.97127 0.0
C278 C 0.77365 0.86711 0.99321 0.0
C279 C 0.74518 0.90666 0.93486 0.0
C280 C 0.7851 0.87232 0.91717 0.0
H281 H 0.8471 0.91897 0.06809 0.0
H282 H 0.80097 0.83242 0.107 0.0
H283 H 0.81551 0.81745 0.03539 0.0
H284 H 0.78126 0.80949 0.0214 0.0
H285 H 0.78868 0.80402 0.06009 0.0
H286 H 0.75185 0.86901 0.07797 0.0
H287 H 0.74777 0.83159 0.07498 0.0
H288 H 0.73652 0.85503 0.04566 0.0
H289 H 0.85442 0.98563 0.98345 0.0
H290 H 0.81667 0.97184 0.89726 0.0
H291 H 0.79542 0.92851 0.91481 0.0
H292 H 0.80109 0.96739 0.02318 0.0
H293 H 0.83646 0.97365 0.03657 0.0
H294 H 0.81406 0.94702 0.05284 0.0
H295 H 0.87483 0.92348 0.99145 0.0
H296 H 0.86685 0.90786 0.02575 0.0
H297 H 0.87598 0.94477 0.02429 0.0
H298 H 0.85837 0.90266 0.11728 0.0
C299 C 0.83674 0.90017 0.07554 0.0
C300 C 0.29361 0.1325 0.44144 0.0
C301 C 0.30547 0.15831 0.45057 0.0
C302 C 0.29696 0.16976 0.47813 0.0
C303 C 0.26474 0.13062 0.48613 0.0
C304 C 0.27329 0.11921 0.45933 0.0
C305 C 0.25765 0.09247 0.45203 0.0
H306 H 0.16065 0.99388 0.49163 0.0
C307 C 0.24271 0.11198 0.49889 0.0
C308 C 0.23846 0.08957 0.47899 0.0
H309 H 0.20859 0.99844 0.40989 0.0
H310 H 0.23155 0.04122 0.42686 0.0
H311 H 0.2117 0.01426 0.53698 0.0
H312 H 0.14313 0.05559 0.49166 0.0
H313 H 0.14749 0.07423 0.52493 0.0
H314 H 0.13759 0.03752 0.52614 0.0
H315 H 0.17482 0.00908 0.54577 0.0
H316 H 0.19503 0.03715 0.56241 0.0
C317 C 0.27961 0.06827 0.45013 0.0
C318 C 0.24046 0.09726 0.4231 0.0
C319 C 0.19452 0.13792 0.59649 0.0
C320 C 0.17204 0.12563 0.61265 0.0
C321 C 0.16076 0.09976 0.6027 0.0
C322 C 0.17123 0.08668 0.57706 0.0
C323 C 0.19304 0.09965 0.56074 0.0
C324 C 0.20448 0.12472 0.57061 0.0
C325 C 0.22688 0.13585 0.54976 0.0
C326 C 0.22664 0.11349 0.52561 0.0
C327 C 0.20686 0.09231 0.53228 0.0
C328 C 0.25554 0.13653 0.56661 0.0
C329 C 0.21686 0.16487 0.538 0.0
C330 C 0.17638 0.00396 0.4776 0.0
C331 C 0.1832 0.99275 0.44963 0.0
C332 C 0.20314 0.00679 0.43157 0.0
C333 C 0.2164 0.03155 0.44149 0.0
C334 C 0.20927 0.0426 0.46956 0.0
C335 C 0.18935 0.02891 0.48694 0.0
C336 C 0.18295 0.04448 0.51523 0.0
C337 C 0.20274 0.06953 0.51234 0.0
C338 C 0.21829 0.06825 0.48572 0.0
C339 C 0.19132 0.02534 0.54165 0.0
C340 C 0.15117 0.05334 0.51478 0.0
H341 H 0.27107 0.16597 0.51651 0.0
H342 H 0.29987 0.12277 0.42067 0.0
H343 H 0.23373 0.11963 0.42096 0.0
H344 H 0.22039 0.0852 0.4226 0.0
H345 H 0.2533 0.09192 0.40314 0.0
H346 H 0.29537 0.06995 0.46846 0.0
H347 H 0.29147 0.06901 0.42878 0.0
H348 H 0.26994 0.04725 0.45257 0.0
H349 H 0.20396 0.1576 0.60351 0.0
H350 H 0.1431 0.08994 0.61413 0.0
H351 H 0.16148 0.06723 0.57062 0.0
H352 H 0.25761 0.11792 0.58145 0.0
H353 H 0.25725 0.15569 0.58064 0.0
H354 H 0.27415 0.13543 0.55167 0.0
H355 H 0.19335 0.16537 0.53538 0.0
H356 H 0.22525 0.16982 0.51569 0.0
H357 H 0.2228 0.18204 0.55356 0.0
H358 H 0.30534 0.18974 0.48566 0.0
C359 C 0.2768 0.15602 0.49596 0.0
C360 C 0.19689 0.99659 0.96458 0.0
C361 C 0.171 0.0093 0.97291 0.0
C362 C 0.15726 -0.00031 0.99892 0.0
C363 C 0.19269 0.96295 0.00485 0.0
C364 C 0.20684 0.97317 0.98025 0.0
C365 C 0.23124 0.95462 0.97108 0.0
H366 H 0.29736 0.82887 0.97866 0.0
C367 C 0.20649 0.93623 0.01365 0.0
C368 C 0.22885 0.93106 0.99374 0.0
H369 H 0.31625 0.89977 0.92162 0.0
H370 H 0.28139 0.9277 0.94703 0.0
H371 H 0.29213 0.86959 0.04068 0.0
H372 H 0.23026 0.83504 0.97995 0.0
H373 H 0.21753 0.83106 0.01648 0.0
H374 H 0.24971 0.81325 0.00542 0.0
H375 H 0.28541 0.83248 0.03791 0.0
H376 H 0.26383 0.85488 0.06109 0.0
C377 C 0.25921 0.97153 0.97474 0.0
C378 C 0.22542 0.94416 0.93899 0.0
C379 C 0.16776 0.88144 0.10145 0.0
C380 C 0.17253 0.85413 0.11262 0.0
C381 C 0.19308 0.83714 0.09817 0.0
C382 C 0.20857 0.84722 0.07363 0.0
C383 C 0.20322 0.87443 0.06282 0.0
C384 C 0.18273 0.89081 0.07646 0.0
C385 C 0.17768 0.91805 0.06036 0.0
C386 C 0.19982 0.91617 0.03593 0.0
C387 C 0.2149 0.89063 0.03744 0.0
C388 C 0.18389 0.94269 0.08188 0.0
C389 C 0.14687 0.91774 0.04793 0.0
C390 C 0.29408 0.85048 0.97184 0.0
C391 C 0.30905 0.8618 0.94742 0.0
C392 C 0.30439 0.89016 0.93961 0.0
C393 C 0.28417 0.90647 0.95449 0.0
C394 C 0.26816 0.89444 0.97752 0.0
C395 C 0.27382 0.86724 0.98663 0.0
C396 C 0.25541 0.85882 0.01268 0.0
C397 C 0.23727 0.88512 0.01684 0.0
C398 C 0.24463 0.90564 0.99574 0.0
C399 C 0.27505 0.85343 0.0396 0.0
C400 C 0.23732 0.83307 0.00344 0.0
H401 H 0.15646 0.97025 0.03432 0.0
H402 H 0.20858 0.00376 0.94528 0.0
H403 H 0.20251 0.939 0.93607 0.0
H404 H 0.23679 0.92464 0.93322 0.0
H405 H 0.23101 0.96056 0.9224 0.0
H406 H 0.25715 0.98793 0.99228 0.0
H407 H 0.26518 0.98235 0.95377 0.0
H408 H 0.27715 0.9582 0.98216 0.0
H409 H 0.15257 0.89552 0.11169 0.0
H410 H 0.19697 0.81576 0.10534 0.0
H411 H 0.22375 0.83322 0.06369 0.0
H412 H 0.20409 0.93893 0.09408 0.0
H413 H 0.16659 0.94498 0.09854 0.0
H414 H 0.18659 0.963 0.0703 0.0
H415 H 0.13813 0.89603 0.04646 0.0
H416 H 0.14571 0.92583 0.02489 0.0
H417 H 0.1322 0.93012 0.06223 0.0
H418 H 0.13729 0.00879 0.00605 0.0
C419 C 0.16815 0.97684 0.01508 0.0
C420 C 0.70844 0.13152 0.44216 0.0
C421 C 0.69686 0.15778 0.45008 0.0
C422 C 0.70548 0.17043 0.47697 0.0
C423 C 0.73693 0.13121 0.48699 0.0
C424 C 0.72847 0.1188 0.4607 0.0
C425 C 0.74383 0.09164 0.45466 0.0
H426 H 0.84058 0.99492 0.49831 0.0
C427 C 0.75834 0.11273 0.50085 0.0
C428 C 0.76246 0.0895 0.48201 0.0
H429 H 0.79435 0.99747 0.41555 0.0
H430 H 0.76992 0.03981 0.43161 0.0
H431 H 0.85676 0.05666 0.49793 0.0
H432 H 0.78798 0.01429 0.54194 0.0
H433 H 0.80201 0.03869 0.56737 0.0
H434 H 0.82444 0.01097 0.55309 0.0
H435 H 0.86189 0.03773 0.53195 0.0
H436 H 0.85214 0.07447 0.53164 0.0
C437 C 0.76158 0.0952 0.4258 0.0
C438 C 0.72161 0.06765 0.45341 0.0
C439 C 0.80612 0.1418 0.59734 0.0
C440 C 0.82763 0.12924 0.61452 0.0
C441 C 0.83752 0.1022 0.60663 0.0
C442 C 0.82683 0.08829 0.5817 0.0
C443 C 0.80622 0.10155 0.56412 0.0
C444 C 0.79579 0.12762 0.57229 0.0
C445 C 0.77406 0.13847 0.55062 0.0
C446 C 0.77384 0.11492 0.52777 0.0
C447 C 0.79277 0.09346 0.53583 0.0
C448 C 0.78523 0.16649 0.53738 0.0
C449 C 0.74524 0.14097 0.56712 0.0
C450 C 0.82482 0.00436 0.48388 0.0
C451 C 0.819 0.99284 0.45585 0.0
C452 C 0.79903 0.0061 0.43727 0.0
C453 C 0.78496 0.03062 0.44665 0.0
C454 C 0.79136 0.04216 0.47466 0.0
C455 C 0.81105 0.02902 0.49267 0.0
C456 C 0.81668 0.04506 0.52078 0.0
C457 C 0.79699 0.07001 0.51683 0.0
C458 C 0.78204 0.06811 0.48997 0.0
C459 C 0.84848 0.05387 0.52092 0.0
C460 C 0.80755 0.02638 0.54736 0.0
H461 H 0.7311 0.16801 0.51553 0.0
H462 H 0.70213 0.12096 0.4219 0.0
H463 H 0.70572 0.07005 0.47157 0.0
H464 H 0.73105 0.0466 0.45655 0.0
H465 H 0.70997 0.06791 0.43196 0.0
H466 H 0.76774 0.11755 0.42222 0.0
H467 H 0.7494 0.08828 0.40598 0.0
H468 H 0.78201 0.08371 0.42656 0.0
H469 H 0.79785 0.16241 0.60293 0.0
H470 H 0.85438 0.09215 0.61908 0.0
H471 H 0.83564 0.06802 0.57668 0.0
H472 H 0.80874 0.16585 0.5346 0.0
H473 H 0.78009 0.18455 0.55212 0.0
H474 H 0.77696 0.17082 0.51492 0.0
H475 H 0.74256 0.12353 0.58338 0.0
H476 H 0.72676 0.13918 0.55214 0.0
H477 H 0.7438 0.16111 0.57958 0.0
H478 H 0.69734 0.19084 0.48348 0.0
C479 C 0.7253 0.15723 0.4955 0.0
Sc480 Sc 0.9937 0.77853 0.31199 0.0
Sc481 Sc 0.00057 0.85234 0.32161 0.0
Sc482 Sc 0.00099 0.80755 0.38363 0.0
O483 O 0.99858 0.81277 0.33898 0.0
C484 C 0.95122 0.76527 0.36553 0.0
C485 C 0.95304 0.82397 0.2811 0.0
C486 C 0.96225 0.86238 0.37912 0.0
C487 C 0.03821 0.81603 0.27598 0.0
C488 C 0.03611 0.75441 0.36128 0.0
C489 C 0.04768 0.85522 0.3728 0.0
O490 O 0.95891 0.76197 0.3386 0.0
O491 O 0.96457 0.84505 0.29351 0.0
O492 O 0.97203 0.84105 0.39253 0.0
O493 O 0.02785 0.79226 0.28329 0.0
O494 O 0.0297 0.77286 0.3805 0.0
O495 O 0.03674 0.86412 0.34869 0.0
O496 O 0.02488 0.7536 0.33562 0.0
O497 O 0.02993 0.83929 0.28713 0.0
O498 O 0.03726 0.83482 0.3875 0.0
O499 O 0.96189 0.79887 0.28451 0.0
O500 O 0.96456 0.78053 0.38397 0.0
O501 O 0.97066 0.86964 0.35339 0.0
Sc502 Sc 0.00201 0.22075 0.809 0.0
Sc503 Sc 9e-05 0.14672 0.81257 0.0
Sc504 Sc 0.99633 0.18643 0.87842 0.0
O505 O -0.00042 0.18469 0.83337 0.0
C506 C 0.03781 0.23806 0.86602 0.0
C507 C 0.04568 0.18174 0.77433 0.0
C508 C 0.04101 0.13651 0.86803 0.0
C509 C 0.9604 0.18239 0.76989 0.0
C510 C 0.95474 0.23572 0.85764 0.0
C511 C 0.9555 0.13466 0.86445 0.0
O512 O 0.03203 0.24082 0.83861 0.0
O513 O 0.03383 0.15905 0.78276 0.0
O514 O 0.03017 0.15566 0.88441 0.0
O515 O 0.97162 0.20588 0.77666 0.0
O516 O 0.96266 0.21748 0.87666 0.0
O517 O 0.96645 0.12894 0.83936 0.0
O518 O 0.96694 0.2391 0.83267 0.0
O519 O 0.96803 0.15925 0.78153 0.0
O520 O 0.96426 0.15467 0.88063 0.0
O521 O 0.03721 0.20589 0.78268 0.0
O522 O 0.02692 0.21923 0.88239 0.0
O523 O 0.03212 0.13113 0.84198 0.0
Sc524 Sc 0.50125 0.27737 0.29908 0.0
Sc525 Sc 0.50291 0.35099 0.29889 0.0
Sc526 Sc 0.50298 0.31496 0.36736 0.0
O527 O 0.50237 0.31438 0.32187 0.0
C528 C 0.45849 0.2658 0.35304 0.0
C529 C 0.45909 0.31502 0.2607 0.0
C530 C 0.46093 0.36574 0.35239 0.0
C531 C 0.54474 0.31301 0.25999 0.0
C532 C 0.54419 0.2636 0.35198 0.0
C533 C 0.54699 0.36388 0.35094 0.0
O534 O 0.46801 0.26131 0.32702 0.0
O535 O 0.46951 0.3381 0.26974 0.0
O536 O 0.47064 0.34736 0.37026 0.0
O537 O 0.5345 0.28965 0.26866 0.0
O538 O 0.5351 0.28261 0.36949 0.0
O539 O 0.53634 0.36783 0.32541 0.0
O540 O 0.53389 0.25938 0.32631 0.0
O541 O 0.53526 0.33659 0.26887 0.0
O542 O 0.53719 0.34582 0.3692 0.0
O543 O 0.46848 0.2912 0.26892 0.0
O544 O 0.46909 0.2841 0.37051 0.0
O545 O 0.4707 0.36923 0.32635 0.0
Sc546 Sc 0.49607 0.71535 0.80668 0.0
Sc547 Sc 0.48354 0.64355 0.82019 0.0
Sc548 Sc 0.49494 0.68911 0.88039 0.0
O549 O 0.49153 0.68274 0.83577 0.0
C550 C 0.54204 0.73117 0.85649 0.0
C551 C 0.53133 0.66669 0.77542 0.0
C552 C 0.52845 0.63133 0.87176 0.0
C553 C 0.44697 0.67961 0.77524 0.0
C554 C 0.45704 0.74122 0.85808 0.0
C555 C 0.44357 0.64537 0.87728 0.0
O556 O 0.53054 0.73436 0.83119 0.0
O557 O 0.51625 0.6474 0.78708 0.0
O558 O 0.52327 0.65354 0.88664 0.0
O559 O 0.46235 0.70146 0.77747 0.0
O560 O 0.46702 0.72529 0.87833 0.0
O561 O 0.45035 0.63566 0.85196 0.0
O562 O 0.46495 0.73975 0.83098 0.0
O563 O 0.45101 0.6575 0.79037 0.0
O564 O 0.45785 0.66436 0.89034 0.0
O565 O 0.52745 0.69281 0.78048 0.0
O566 O 0.53227 0.71464 0.87611 0.0
O567 O 0.51536 0.62518 0.848 0.0
H568 H 0.17158 0.3346 0.90409 0.0
H569 H 0.12886 0.3523 0.98742 0.0
H570 H 0.08577 0.32828 0.96925 0.0
H571 H 0.10664 0.33969 0.8552 0.0
H572 H 0.11821 0.31081 0.83218 0.0
H573 H 0.14407 0.33345 0.84953 0.0
H574 H 0.16781 0.28996 0.87373 0.0
H575 H 0.14192 0.26724 0.85676 0.0
H576 H 0.1467 0.26673 0.89648 0.0
H577 H 0.05102 0.29737 0.94624 0.0
H578 H 0.02422 0.26188 0.91816 0.0
H579 H 0.08794 0.26353 0.84832 0.0
C580 C 0.15273 0.33408 0.91795 0.0
C581 C 0.15307 0.34538 0.94693 0.0
C582 C 0.12861 0.34382 0.96507 0.0
C583 C 0.10413 0.33035 0.95491 0.0
C584 C 0.10458 0.31864 0.92656 0.0
C585 C 0.12806 0.32049 0.90814 0.0
C586 C 0.12364 0.30364 0.87985 0.0
C587 C 0.1231 0.32306 0.85257 0.0
C588 C 0.14636 0.28053 0.87654 0.0
C589 C 0.09452 0.29118 0.88591 0.0
C590 C 0.08396 0.30047 0.91289 0.0
C591 C 0.05872 0.29032 0.92482 0.0
C592 C 0.04383 0.27 0.90885 0.0
C593 C 0.05413 0.26009 0.88119 0.0
C594 C 0.07954 0.27113 0.86925 0.0
H595 H 0.84315 0.65271 0.43288 0.0
H596 H 0.78937 0.72368 0.45626 0.0
H597 H 0.82202 0.75564 0.42994 0.0
H598 H 0.90885 0.68737 0.44229 0.0
H599 H 0.92629 0.67065 0.41126 0.0
H600 H 0.89776 0.65289 0.43023 0.0
H601 H 0.8707 0.64764 0.38046 0.0
H602 H 0.89917 0.66547 0.36131 0.0
H603 H 0.86327 0.67849 0.35849 0.0
H604 H 0.8616 0.7803 0.40488 0.0
H605 H 0.90653 0.79652 0.38221 0.0
H606 H 0.93454 0.71007 0.3727 0.0
C607 C 0.83804 0.67492 0.43204 0.0
C608 C 0.81376 0.68571 0.44681 0.0
C609 C 0.80805 0.71497 0.44556 0.0
C610 C 0.82632 0.73327 0.43042 0.0
C611 C 0.85015 0.72202 0.41639 0.0
C612 C 0.85609 0.69355 0.41693 0.0
C613 C 0.88393 0.68725 0.40114 0.0
C614 C 0.90548 0.67375 0.42251 0.0
C615 C 0.87896 0.66861 0.37372 0.0
C616 C 0.89296 0.71671 0.39222 0.0
C617 C 0.87297 0.73637 0.40114 0.0
C618 C 0.87718 0.76513 0.39733 0.0
C619 C 0.90268 0.77413 0.38446 0.0
C620 C 0.92351 0.75446 0.37534 0.0
C621 C 0.9185 0.72537 0.37884 0.0
H622 H 0.85706 0.33151 0.96184 0.0
H623 H 0.81766 0.36318 0.88126 0.0
H624 H 0.84789 0.3317 0.85137 0.0
H625 H 0.9274 0.32374 0.93275 0.0
H626 H 0.93461 0.29156 0.95255 0.0
H627 H 0.91003 0.31684 0.96774 0.0
H628 H 0.87113 0.27832 0.97059 0.0
H629 H 0.89557 0.25294 0.95527 0.0
H630 H 0.86179 0.259 0.93754 0.0
H631 H 0.88265 0.29768 0.83009 0.0
H632 H 0.92026 0.26318 0.81863 0.0
H633 H 0.93565 0.25163 0.91294 0.0
C634 C 0.85461 0.33171 0.93793 0.0
C635 C 0.83508 0.35007 0.92394 0.0
C636 C 0.83285 0.34982 0.89253 0.0
C637 C 0.84973 0.33179 0.87533 0.0
C638 C 0.8686 0.31394 0.88984 0.0
C639 C 0.87114 0.31368 0.9204 0.0
C640 C 0.8932 0.29244 0.93037 0.0
C641 C 0.91777 0.30702 0.94682 0.0
C642 C 0.8796 0.2693 0.94958 0.0
C643 C 0.90278 0.28097 0.90058 0.0
C644 C 0.88829 0.29371 0.87753 0.0
C645 C 0.89405 0.28743 0.84793 0.0
C646 C 0.91548 0.26784 0.84166 0.0
C647 C 0.93079 0.25464 0.8649 0.0
C648 C 0.92404 0.26108 0.89474 0.0
H649 H 0.13799 0.6734 0.47316 0.0
H650 H 0.17955 0.63626 0.39629 0.0
H651 H 0.14459 0.65902 0.36348 0.0
H652 H 0.06574 0.66999 0.44581 0.0
H653 H 0.0561 0.70366 0.4613 0.0
H654 H 0.08304 0.68257 0.47896 0.0
H655 H 0.1186 0.72412 0.4753 0.0
H656 H 0.09177 0.74533 0.4577 0.0
H657 H 0.12556 0.73994 0.43962 0.0
H658 H 0.10578 0.68726 0.33871 0.0
H659 H 0.06769 0.72049 0.3242 0.0
H660 H 0.05364 0.74067 0.41718 0.0
C661 C 0.13984 0.67003 0.44945 0.0
C662 C 0.16142 0.65271 0.43746 0.0
C663 C 0.16284 0.64882 0.40621 0.0
C664 C 0.14316 0.66181 0.3873 0.0
C665 C 0.12228 0.67882 0.3999 0.0
C666 C 0.12059 0.68305 0.43024 0.0
C667 C 0.09705 0.70343 0.43807 0.0
C668 C 0.07413 0.68904 0.45716 0.0
C669 C 0.10897 0.72976 0.45358 0.0
C670 C 0.086 0.71024 0.40738 0.0
C671 C 0.10056 0.69563 0.38563 0.0
C672 C 0.09417 0.69879 0.35556 0.0
C673 C 0.07249 0.71763 0.34753 0.0
C674 C 0.05777 0.73325 0.36952 0.0
C675 C 0.06458 0.7292 0.39979 0.0
H676 H 0.68143 0.77235 0.94757 0.0
H677 H 0.6758 0.85456 0.90545 0.0
H678 H 0.63571 0.83805 0.87548 0.0
H679 H 0.66062 0.73003 0.88467 0.0
H680 H 0.63915 0.70628 0.90641 0.0
H681 H 0.66932 0.72349 0.92304 0.0
H682 H 0.63689 0.74368 0.96451 0.0
H683 H 0.60671 0.72638 0.9481 0.0
H684 H 0.60588 0.76383 0.95446 0.0
H685 H 0.59625 0.81307 0.84973 0.0
H686 H 0.55639 0.78267 0.83414 0.0
H687 H 0.58421 0.71846 0.89624 0.0
C688 C 0.6718 0.787 0.93218 0.0
C689 C 0.68257 0.81461 0.92851 0.0
C690 C 0.66899 0.83294 0.90802 0.0
C691 C 0.64592 0.82387 0.89097 0.0
C692 C 0.63613 0.79655 0.89494 0.0
C693 C 0.64828 0.7785 0.91535 0.0
C694 C 0.63231 0.75083 0.91665 0.0
C695 C 0.6515 0.72621 0.90712 0.0
C696 C 0.6197 0.74591 0.94778 0.0
C697 C 0.60925 0.75632 0.89391 0.0
C698 C 0.61217 0.78265 0.8813 0.0
C699 C 0.59363 0.79243 0.85951 0.0
C700 C 0.57115 0.77499 0.85071 0.0
C701 C 0.56716 0.74832 0.86408 0.0
C702 C 0.58664 0.73885 0.88579 0.0
H703 H 0.35245 0.18974 0.46689 0.0
H704 H 0.3045 0.16205 0.38978 0.0
H705 H 0.33844 0.18638 0.35707 0.0
H706 H 0.36839 0.25939 0.43801 0.0
H707 H 0.40339 0.26048 0.45419 0.0
H708 H 0.3756 0.24041 0.47184 0.0
H709 H 0.40734 0.19586 0.47003 0.0
H710 H 0.43519 0.21575 0.45232 0.0
H711 H 0.42173 0.1843 0.43493 0.0
H712 H 0.37782 0.21234 0.33254 0.0
H713 H 0.41947 0.24028 0.3175 0.0
H714 H 0.44077 0.25397 0.41025 0.0
C715 C 0.34885 0.18899 0.44316 0.0
C716 C 0.32586 0.17359 0.431 0.0
C717 C 0.32226 0.17303 0.39973 0.0
C718 C 0.3413 0.18701 0.38091 0.0
C719 C 0.36372 0.2018 0.39362 0.0
C720 C 0.36751 0.20313 0.424 0.0
C721 C 0.39331 0.2208 0.43182 0.0
C722 C 0.38465 0.24682 0.45004 0.0
C723 C 0.41571 0.20311 0.44824 0.0
C724 C 0.40349 0.22899 0.40103 0.0
C725 C 0.38613 0.21766 0.37938 0.0
C726 C 0.39151 0.22148 0.34926 0.0
C727 C 0.41531 0.2373 0.34097 0.0
C728 C 0.43339 0.24935 0.36269 0.0
C729 C 0.42722 0.24524 0.39315 0.0
H730 H 0.34881 0.82262 0.96618 0.0
H731 H 0.31358 0.86133 0.88699 0.0
H732 H 0.34785 0.83534 0.85603 0.0
H733 H 0.42134 0.82297 0.94286 0.0
H734 H 0.42983 0.78909 0.95851 0.0
H735 H 0.40213 0.81026 0.97485 0.0
H736 H 0.36636 0.76923 0.96864 0.0
H737 H 0.39401 0.74785 0.9525 0.0
H738 H 0.36138 0.75366 0.93249 0.0
H739 H 0.38667 0.80672 0.83356 0.0
H740 H 0.42611 0.77485 0.82063 0.0
H741 H 0.43587 0.75333 0.91391 0.0
C742 C 0.3481 0.82536 0.94231 0.0
C743 C 0.32871 0.84436 0.9291 0.0
C744 C 0.32861 0.84741 0.89774 0.0
C745 C 0.3479 0.83261 0.8799 0.0
C746 C 0.3671 0.81457 0.89362 0.0
C747 C 0.36724 0.81062 0.92404 0.0
C748 C 0.39025 0.7899 0.93298 0.0
C749 C 0.41218 0.8039 0.95351 0.0
C750 C 0.37722 0.7636 0.94751 0.0
C751 C 0.40305 0.78308 0.90285 0.0
C752 C 0.38938 0.79761 0.8805 0.0
C753 C 0.3975 0.7951 0.85084 0.0
C754 C 0.42005 0.77699 0.84374 0.0
C755 C 0.43423 0.76149 0.86618 0.0
C756 C 0.42556 0.7648 0.89616 0.0
H757 H 0.65025 0.18964 0.46583 0.0
H758 H 0.69706 0.15874 0.3891 0.0
H759 H 0.66241 0.1815 0.35597 0.0
H760 H 0.58041 0.1831 0.43577 0.0
H761 H 0.56749 0.21533 0.45208 0.0
H762 H 0.5955 0.19589 0.47 0.0
H763 H 0.62763 0.24019 0.46915 0.0
H764 H 0.59968 0.2598 0.45133 0.0
H765 H 0.63436 0.25778 0.43436 0.0
H766 H 0.62247 0.20667 0.33118 0.0
H767 H 0.58117 0.23521 0.3161 0.0
H768 H 0.56215 0.25248 0.40881 0.0
C769 C 0.65346 0.18786 0.44208 0.0
C770 C 0.67629 0.17208 0.43015 0.0
C771 C 0.67941 0.17009 0.39887 0.0
C772 C 0.65995 0.18313 0.37982 0.0
C773 C 0.6377 0.19837 0.39236 0.0
C774 C 0.63448 0.20105 0.42273 0.0
C775 C 0.60904 0.2192 0.43043 0.0
C776 C 0.58679 0.20236 0.44811 0.0
C777 C 0.61824 0.24582 0.44731 0.0
C778 C 0.59843 0.22622 0.39959 0.0
C779 C 0.61515 0.21379 0.37799 0.0
C780 C 0.60927 0.21664 0.34786 0.0
C781 C 0.58571 0.23279 0.33955 0.0
C782 C 0.5685 0.2461 0.3613 0.0
C783 C 0.57505 0.24274 0.3917 0.0
H784 H 0.32277 0.53222 0.90586 0.0
H785 H 0.3105 0.57031 0.99244 0.0
H786 H 0.34216 0.60958 0.97806 0.0
H787 H 0.39393 0.54418 0.90178 0.0
H788 H 0.39558 0.55148 0.86252 0.0
H789 H 0.3677 0.52956 0.87703 0.0
H790 H 0.32965 0.56235 0.85395 0.0
H791 H 0.35747 0.58425 0.83894 0.0
H792 H 0.33029 0.59947 0.86222 0.0
H793 H 0.37998 0.64061 0.95705 0.0
H794 H 0.42075 0.66173 0.93078 0.0
H795 H 0.40895 0.60264 0.85813 0.0
C796 C 0.32586 0.54945 0.92128 0.0
C797 C 0.314 0.5486 0.95005 0.0
C798 C 0.31932 0.57085 0.97019 0.0
C799 C 0.33716 0.59321 0.96219 0.0
C800 C 0.34941 0.59293 0.93398 0.0
C801 C 0.34382 0.57175 0.91373 0.0
C802 C 0.36214 0.57461 0.88623 0.0
C803 C 0.38095 0.54841 0.88165 0.0
C804 C 0.34379 0.58053 0.85871 0.0
C805 C 0.37966 0.60005 0.89466 0.0
C806 C 0.3717 0.61058 0.92206 0.0
C807 C 0.38611 0.63286 0.93536 0.0
C808 C 0.40935 0.6446 0.92031 0.0
C809 C 0.41812 0.63386 0.89236 0.0
C810 C 0.40273 0.61152 0.87933 0.0
H811 H 0.65126 0.45147 0.45622 0.0
H812 H 0.68164 0.49183 0.37544 0.0
H813 H 0.65426 0.4583 0.34568 0.0
H814 H 0.64628 0.37897 0.4268 0.0
H815 H 0.61361 0.37186 0.44641 0.0
H816 H 0.63918 0.39603 0.46182 0.0
H817 H 0.60041 0.43467 0.46481 0.0
H818 H 0.57477 0.41069 0.44937 0.0
H819 H 0.5811 0.44416 0.43173 0.0
H820 H 0.62055 0.42434 0.32445 0.0
H821 H 0.58127 0.39236 0.31269 0.0
H822 H 0.56945 0.375 0.40672 0.0
C823 C 0.65241 0.45323 0.43228 0.0
C824 C 0.66912 0.47431 0.41837 0.0
C825 C 0.66989 0.47553 0.38689 0.0
C826 C 0.65417 0.45663 0.36966 0.0
C827 C 0.63755 0.43665 0.3841 0.0
C828 C 0.63646 0.43476 0.41466 0.0
C829 C 0.61479 0.41295 0.42449 0.0
C830 C 0.62934 0.3885 0.44085 0.0
C831 C 0.59138 0.42643 0.44373 0.0
C832 C 0.60331 0.40354 0.39461 0.0
C833 C 0.61716 0.41725 0.3717 0.0
C834 C 0.60968 0.4133 0.34215 0.0
C835 C 0.58715 0.39515 0.33576 0.0
C836 C 0.57208 0.38121 0.3588 0.0
C837 C 0.58066 0.38514 0.38863 0.0
H838 H 0.63777 0.5558 0.98265 0.0
H839 H 0.66131 0.50275 0.90787 0.0
H840 H 0.63004 0.5303 0.87536 0.0
H841 H 0.56513 0.56147 0.96436 0.0
H842 H 0.56131 0.5977 0.97558 0.0
H843 H 0.58776 0.5758 0.99289 0.0
H844 H 0.627 0.61156 0.97848 0.0
H845 H 0.60061 0.63369 0.96127 0.0
H846 H 0.63099 0.62194 0.94018 0.0
H847 H 0.59375 0.56011 0.85181 0.0
H848 H 0.55541 0.59238 0.83753 0.0
H849 H 0.55417 0.62697 0.92695 0.0
C850 C 0.63657 0.55019 0.95937 0.0
C851 C 0.65236 0.52726 0.9478 0.0
C852 C 0.65008 0.52059 0.91719 0.0
C853 C 0.63218 0.536 0.89853 0.0
C854 C 0.61665 0.5581 0.9107 0.0
C855 C 0.61874 0.56542 0.9403 0.0
C856 C 0.59866 0.58946 0.94777 0.0
C857 C 0.57693 0.58056 0.97155 0.0
C858 C 0.61531 0.61572 0.9575 0.0
C859 C 0.58454 0.59395 0.91786 0.0
C860 C 0.59542 0.57563 0.89687 0.0
C861 C 0.5852 0.57475 0.86794 0.0
C862 C 0.56324 0.5931 0.86013 0.0
C863 C 0.55165 0.61222 0.88113 0.0
C864 C 0.56267 0.61274 0.91036 0.0
H865 H 0.35755 0.44916 0.46338 0.0
H866 H 0.31868 0.485 0.38448 0.0
H867 H 0.34917 0.45545 0.353 0.0
H868 H 0.42789 0.44738 0.43473 0.0
H869 H 0.43743 0.41449 0.452 0.0
H870 H 0.41094 0.43674 0.46889 0.0
H871 H 0.37491 0.39552 0.46822 0.0
H872 H 0.40132 0.37309 0.45137 0.0
H873 H 0.36733 0.37788 0.43366 0.0
H874 H 0.38527 0.4251 0.32987 0.0
H875 H 0.42507 0.39433 0.31591 0.0
H876 H 0.44178 0.37753 0.40919 0.0
C877 C 0.35535 0.45062 0.43949 0.0
C878 C 0.33538 0.46915 0.42646 0.0
C879 C 0.33323 0.47049 0.39507 0.0
C880 C 0.35061 0.45392 0.37694 0.0
C881 C 0.37011 0.43607 0.39044 0.0
C882 C 0.3726 0.43416 0.42094 0.0
C883 C 0.39617 0.41392 0.4295 0.0
C884 C 0.41949 0.42904 0.44733 0.0
C885 C 0.38421 0.3886 0.4467 0.0
C886 C 0.40678 0.40525 0.399 0.0
C887 C 0.39128 0.41828 0.37688 0.0
C888 C 0.39749 0.41459 0.34693 0.0
C889 C 0.42027 0.39716 0.33927 0.0
C890 C 0.43662 0.38353 0.36146 0.0
C891 C 0.42956 0.38748 0.39174 0.0
H892 H 0.86879 0.99253 0.8895 0.0
H893 H 0.83142 0.03287 0.9667 0.0
H894 H 0.85393 0.07784 0.95249 0.0
H895 H 0.93472 0.02535 0.89468 0.0
H896 H 0.94042 0.02922 0.85528 0.0
H897 H 0.91832 0.00119 0.86901 0.0
H898 H 0.87678 0.01848 0.83596 0.0
H899 H 0.89882 0.04658 0.82204 0.0
H900 H 0.86493 0.05447 0.83884 0.0
H901 H 0.88356 0.11663 0.93308 0.0
H902 H 0.91962 0.14723 0.91026 0.0
H903 H 0.93876 0.08205 0.84549 0.0
C904 C 0.86486 0.01106 0.90292 0.0
C905 C 0.84834 0.00945 0.92907 0.0
C906 C 0.84411 0.03382 0.94661 0.0
C907 C 0.85663 0.05942 0.93862 0.0
C908 C 0.87328 0.06025 0.91302 0.0
C909 C 0.87743 0.03679 0.89537 0.0
C910 C 0.89832 0.04288 0.8705 0.0
C911 C 0.92449 0.02351 0.87251 0.0
C912 C 0.88384 0.04046 0.84003 0.0
C913 C 0.90589 0.07315 0.87754 0.0
C914 C 0.89084 0.08281 0.9019 0.0
C915 C 0.89525 0.10947 0.91378 0.0
C916 C 0.91591 0.12663 0.90071 0.0
C917 C 0.93206 0.11705 0.87607 0.0
C918 C 0.92655 0.09011 0.86406 0.0
H919 H 0.15233 0.98525 0.39874 0.0
H920 H 0.18083 0.94246 0.47831 0.0
H921 H 0.1529 0.90046 0.46421 0.0
H922 H 0.08225 0.96178 0.40255 0.0
H923 H 0.07724 0.95785 0.36307 0.0
H924 H 0.1026 0.98292 0.37695 0.0
H925 H 0.14234 0.95946 0.34561 0.0
H926 H 0.11703 0.93434 0.3315 0.0
H927 H 0.14898 0.92228 0.34952 0.0
H928 H 0.11895 0.86515 0.44411 0.0
H929 H 0.08004 0.83899 0.4203 0.0
H930 H 0.07209 0.90501 0.35404 0.0
C931 C 0.15323 0.9667 0.41267 0.0
C932 C 0.16893 0.96679 0.43939 0.0
C933 C 0.16902 0.94258 0.45767 0.0
C934 C 0.15333 0.91867 0.44978 0.0
C935 C 0.13758 0.91938 0.4236 0.0
C936 C 0.13737 0.94274 0.40528 0.0
C937 C 0.11657 0.93896 0.37989 0.0
C938 C 0.09329 0.96172 0.38069 0.0
C939 C 0.13217 0.93874 0.34985 0.0
C940 C 0.10462 0.91015 0.38723 0.0
C941 C 0.11736 0.89911 0.41228 0.0
C942 C 0.109 0.87343 0.4243 0.0
C943 C 0.08676 0.85877 0.41061 0.0
C944 C 0.07288 0.86988 0.38523 0.0
C945 C 0.08236 0.89576 0.3732 0.0
H946 H 0.13585 0.05445 0.98754 0.0
H947 H 0.1728 0.01031 0.91205 0.0
H948 H 0.14757 0.04172 0.87814 0.0
H949 H 0.06762 0.06026 0.95623 0.0
H950 H 0.05994 0.09461 0.97126 0.0
H951 H 0.08411 0.07151 0.99036 0.0
H952 H 0.12307 0.10999 0.98872 0.0
H953 H 0.09897 0.13326 0.96962 0.0
H954 H 0.13313 0.12516 0.95353 0.0
H955 H 0.11582 0.0742 0.85199 0.0
H956 H 0.07795 0.1057 0.83477 0.0
H957 H 0.05856 0.12824 0.92619 0.0
C958 C 0.1389 0.0515 0.96391 0.0
C959 C 0.157 0.03006 0.95275 0.0
C960 C 0.16008 0.02705 0.92152 0.0
C961 C 0.14558 0.04471 0.90189 0.0
C962 C 0.12776 0.06525 0.91362 0.0
C963 C 0.12423 0.06879 0.94384 0.0
C964 C 0.10188 0.09107 0.95032 0.0
C965 C 0.07691 0.07861 0.96809 0.0
C966 C 0.11506 0.11638 0.96651 0.0
C967 C 0.09297 0.09886 0.91898 0.0
C968 C 0.10854 0.08388 0.89826 0.0
C969 C 0.1036 0.08625 0.86794 0.0
C970 C 0.08188 0.10413 0.85841 0.0
C971 C 0.06515 0.11944 0.87911 0.0
C972 C 0.07113 0.11705 0.90982 0.0
H973 H 0.84961 0.9865 0.40452 0.0
H974 H 0.8254 0.94359 0.48572 0.0
H975 H 0.85775 0.90439 0.47317 0.0
H976 H 0.85902 0.92209 0.35798 0.0
H977 H 0.88936 0.93661 0.33886 0.0
H978 H 0.86163 0.95956 0.35228 0.0
H979 H 0.89908 0.9882 0.38165 0.0
H980 H 0.92684 0.96514 0.36873 0.0
H981 H 0.92161 0.97041 0.40802 0.0
H982 H 0.89548 0.87276 0.45492 0.0
H983 H 0.93522 0.8484 0.43072 0.0
H984 H 0.93599 0.91155 0.3608 0.0
C985 C 0.85054 0.9684 0.41911 0.0
C986 C 0.83496 0.96779 0.44595 0.0
C987 C 0.83719 0.94426 0.46503 0.0
C988 C 0.85543 0.92196 0.45807 0.0
C989 C 0.87122 0.92357 0.43194 0.0
C990 C 0.86883 0.94599 0.41255 0.0
C991 C 0.88973 0.94327 0.38699 0.0
C992 C 0.87399 0.94019 0.35727 0.0
C993 C 0.91054 0.96824 0.38633 0.0
C994 C 0.90466 0.91619 0.39549 0.0
C995 C 0.89344 0.90518 0.42139 0.0
C996 C 0.90427 0.88097 0.43445 0.0
C997 C 0.92704 0.8674 0.42055 0.0
C998 C 0.93889 0.87805 0.39379 0.0
C999 C 0.92743 0.90282 0.38115 0.0
H1000 H 0.34949 0.39546 0.1584 0.0
H1001 H 0.34212 0.31892 0.1063 0.0
H1002 H 0.3699 0.29327 0.14408 0.0
H1003 H 0.42021 0.38661 0.17662 0.0
H1004 H 0.41734 0.40109 0.21353 0.0
H1005 H 0.393 0.41213 0.18509 0.0
H1006 H 0.3504 0.39756 0.21835 0.0
H1007 H 0.37469 0.38648 0.24698 0.0
H1008 H 0.34859 0.36222 0.23277 0.0
H1009 H 0.40298 0.27732 0.18481 0.0
H1010 H 0.43928 0.2729 0.22424 0.0
H1011 H 0.42591 0.36049 0.24805 0.0
C1012 C 0.35343 0.37323 0.15505 0.0
C1013 C 0.34357 0.3592 0.12943 0.0
C1014 C 0.34905 0.33004 0.126 0.0
C1015 C 0.36488 0.31529 0.1473 0.0
C1016 C 0.37492 0.32998 0.17193 0.0
C1017 C 0.36929 0.3583 0.17592 0.0
C1018 C 0.38457 0.3699 0.20276 0.0
C1019 C 0.40499 0.39383 0.19396 0.0
C1020 C 0.36329 0.3796 0.22663 0.0
C1021 C 0.40054 0.34396 0.2126 0.0
C1022 C 0.39434 0.32098 0.19495 0.0
C1023 C 0.40774 0.29508 0.19901 0.0
C1024 C 0.42832 0.29277 0.22143 0.0
C1025 C 0.43552 0.31637 0.23912 0.0
C1026 C 0.42097 0.34205 0.23487 0.0
H1027 H 0.62588 0.65781 0.62813 0.0
H1028 H 0.65788 0.57892 0.66298 0.0
H1029 H 0.63367 0.58811 0.71071 0.0
H1030 H 0.62783 0.69812 0.69998 0.0
H1031 H 0.59506 0.71621 0.69188 0.0
H1032 H 0.61839 0.70573 0.66202 0.0
H1033 H 0.57693 0.67856 0.63738 0.0
H1034 H 0.55357 0.68876 0.66719 0.0
H1035 H 0.55828 0.65203 0.65839 0.0
H1036 H 0.60177 0.60212 0.75135 0.0
H1037 H 0.56418 0.62077 0.78395 0.0
H1038 H 0.55204 0.69137 0.72415 0.0
C1039 C 0.6284 0.64301 0.64622 0.0
C1040 C 0.64387 0.61779 0.6422 0.0
C1041 C 0.64617 0.59838 0.66587 0.0
C1042 C 0.6326 0.60347 0.69301 0.0
C1043 C 0.61683 0.62811 0.69611 0.0
C1044 C 0.61473 0.64771 0.67352 0.0
C1045 C 0.59424 0.67114 0.68191 0.0
C1046 C 0.60982 0.69948 0.68408 0.0
C1047 C 0.56928 0.67269 0.65991 0.0
C1048 C 0.5845 0.6611 0.71228 0.0
C1049 C 0.59811 0.63637 0.72003 0.0
C1050 C 0.59131 0.62171 0.74581 0.0
C1051 C 0.5698 0.63238 0.76408 0.0
C1052 C 0.55534 0.65754 0.75659 0.0
C1053 C 0.56315 0.67237 0.73062 0.0
H1054 H 0.66207 0.38419 0.15769 0.0
H1055 H 0.67635 0.30226 0.11763 0.0
H1056 H 0.64393 0.28076 0.15437 0.0
H1057 H 0.65423 0.36007 0.23506 0.0
H1058 H 0.62651 0.38525 0.24274 0.0
H1059 H 0.65378 0.39338 0.21591 0.0
H1060 H 0.61507 0.40296 0.17624 0.0
H1061 H 0.58773 0.39472 0.20283 0.0
H1062 H 0.58928 0.37602 0.16801 0.0
H1063 H 0.60636 0.26902 0.19257 0.0
H1064 H 0.56721 0.26806 0.22927 0.0
H1065 H 0.57678 0.35812 0.24257 0.0
C1066 C 0.65864 0.36167 0.1568 0.0
C1067 C 0.67183 0.34491 0.13482 0.0
C1068 C 0.66688 0.31548 0.13457 0.0
C1069 C 0.64838 0.30309 0.15525 0.0
C1070 C 0.63512 0.3204 0.17608 0.0
C1071 C 0.64018 0.34904 0.1771 0.0
C1072 C 0.62184 0.36334 0.20022 0.0
C1073 C 0.64019 0.37627 0.22495 0.0
C1074 C 0.60233 0.38556 0.18596 0.0
C1075 C 0.60507 0.33841 0.21149 0.0
C1076 C 0.61323 0.31375 0.19762 0.0
C1077 C 0.59997 0.28817 0.20378 0.0
C1078 C 0.57772 0.28784 0.22461 0.0
C1079 C 0.56881 0.31301 0.23876 0.0
C1080 C 0.58295 0.33849 0.23216 0.0
H1081 H 0.38797 0.64329 0.61561 0.0
H1082 H 0.30386 0.63881 0.65487 0.0
H1083 H 0.323 0.65737 0.70215 0.0
H1084 H 0.42587 0.62041 0.67701 0.0
H1085 H 0.45573 0.64367 0.67188 0.0
H1086 H 0.43483 0.63305 0.64041 0.0
H1087 H 0.42559 0.68536 0.62725 0.0
H1088 H 0.44655 0.69616 0.65874 0.0
H1089 H 0.41051 0.70851 0.65483 0.0
H1090 H 0.35255 0.6695 0.74683 0.0
H1091 H 0.38996 0.67757 0.78465 0.0
H1092 H 0.45414 0.6773 0.7156 0.0
C1093 C 0.37355 0.64667 0.63406 0.0
C1094 C 0.34448 0.63968 0.63171 0.0
C1095 C 0.32616 0.64434 0.65622 0.0
C1096 C 0.33685 0.65481 0.68312 0.0
C1097 C 0.36577 0.661 0.68491 0.0
C1098 C 0.38379 0.65751 0.66088 0.0
C1099 C 0.41421 0.66448 0.66896 0.0
C1100 C 0.4338 0.63888 0.6643 0.0
C1101 C 0.42483 0.69016 0.6514 0.0
C1102 C 0.4107 0.67138 0.7016 0.0
C1103 C 0.38257 0.66934 0.71037 0.0
C1104 C 0.3745 0.67196 0.74009 0.0
C1105 C 0.39577 0.67652 0.76138 0.0
C1106 C 0.42455 0.67881 0.75268 0.0
C1107 C 0.43206 0.67661 0.72247 0.0
H1108 H 0.86418 0.82186 0.13127 0.0
H1109 H 0.81709 0.89249 0.16705 0.0
H1110 H 0.83896 0.88464 0.21625 0.0
H1111 H 0.86521 0.77792 0.20216 0.0
H1112 H 0.901 0.76624 0.1948 0.0
H1113 H 0.87721 0.77351 0.16438 0.0
H1114 H 0.91406 0.80829 0.14246 0.0
H1115 H 0.93774 0.80151 0.17293 0.0
H1116 H 0.92668 0.83705 0.16502 0.0
H1117 H 0.8719 0.8753 0.25771 0.0
H1118 H 0.912 0.86311 0.29049 0.0
H1119 H 0.938 0.79758 0.22905 0.0
C1120 C 0.85758 0.83471 0.14993 0.0
C1121 C 0.83854 0.85733 0.14586 0.0
C1122 C 0.83121 0.87471 0.17016 0.0
C1123 C 0.84355 0.87042 0.19808 0.0
C1124 C 0.86313 0.8486 0.20124 0.0
C1125 C 0.86987 0.83074 0.17799 0.0
C1126 C 0.89397 0.81106 0.18642 0.0
C1127 C 0.88373 0.78036 0.18698 0.0
C1128 C 0.91962 0.81472 0.16547 0.0
C1129 C 0.90058 0.82154 0.21747 0.0
C1130 C 0.88229 0.84301 0.22564 0.0
C1131 C 0.88589 0.85805 0.25192 0.0
C1132 C 0.90883 0.85112 0.27027 0.0
C1133 C 0.92786 0.82925 0.26238 0.0
C1134 C 0.92335 0.81395 0.23589 0.0
H1135 H 0.14979 0.10202 0.66356 0.0
H1136 H 0.16384 0.18253 0.62024 0.0
H1137 H 0.13796 0.20632 0.66069 0.0
H1138 H 0.07941 0.11507 0.68215 0.0
H1139 H 0.08029 0.09676 0.7172 0.0
H1140 H 0.10411 0.08656 0.68783 0.0
H1141 H 0.14718 0.09387 0.72283 0.0
H1142 H 0.12343 0.10407 0.75241 0.0
H1143 H 0.15182 0.12725 0.74125 0.0
H1144 H 0.10621 0.22088 0.70293 0.0
H1145 H 0.07012 0.22477 0.74257 0.0
H1146 H 0.07456 0.13442 0.75649 0.0
C1147 C 0.14771 0.12469 0.66261 0.0
C1148 C 0.15909 0.14032 0.63863 0.0
C1149 C 0.15596 0.17002 0.63858 0.0
C1150 C 0.14112 0.18377 0.66143 0.0
C1151 C 0.12951 0.16758 0.68422 0.0
C1152 C 0.13267 0.13869 0.68499 0.0
C1153 C 0.11588 0.12584 0.7103 0.0
C1154 C 0.0936 0.10483 0.69866 0.0
C1155 C 0.13577 0.11194 0.73305 0.0
C1156 C 0.102 0.15193 0.72305 0.0
C1157 C 0.11054 0.17586 0.70807 0.0
C1158 C 0.0996 0.20232 0.71503 0.0
C1159 C 0.07907 0.2043 0.7376 0.0
C1160 C 0.0694 0.17991 0.75267 0.0
C1161 C 0.08147 0.1535 0.74549 0.0
H1162 H 0.11822 0.86948 0.13083 0.0
H1163 H 0.18866 0.8146 0.15473 0.0
H1164 H 0.16102 0.79719 0.19734 0.0
H1165 H 0.10353 0.89037 0.20603 0.0
H1166 H 0.06574 0.89292 0.2 0.0
H1167 H 0.09002 0.89911 0.16973 0.0
H1168 H 0.06456 0.86077 0.13864 0.0
H1169 H 0.04029 0.85434 0.16888 0.0
H1170 H 0.06086 0.82576 0.15359 0.0
H1171 H 0.1248 0.78487 0.23721 0.0
H1172 H 0.08538 0.78274 0.27381 0.0
H1173 H 0.04241 0.85055 0.22774 0.0
C1174 C 0.12835 0.85415 0.14505 0.0
C1175 C 0.15589 0.84345 0.13877 0.0
C1176 C 0.16745 0.82279 0.15812 0.0
C1177 C 0.15197 0.81286 0.1827 0.0
C1178 C 0.12512 0.82414 0.18817 0.0
C1179 C 0.11365 0.84467 0.17014 0.0
C1180 C 0.08515 0.85468 0.18181 0.0
C1181 C 0.08618 0.88613 0.18988 0.0
C1182 C 0.06131 0.84851 0.15939 0.0
C1183 C 0.08232 0.83651 0.20925 0.0
C1184 C 0.10534 0.81862 0.21225 0.0
C1185 C 0.10685 0.799 0.23525 0.0
C1186 C 0.0844 0.79787 0.25583 0.0
C1187 C 0.06117 0.81668 0.25364 0.0
C1188 C 0.06018 0.83622 0.23008 0.0
H1189 H 0.84552 0.10815 0.66798 0.0
H1190 H 0.84208 0.18516 0.61627 0.0
H1191 H 0.87151 0.20906 0.65391 0.0
H1192 H 0.84809 0.14124 0.74295 0.0
H1193 H 0.87291 0.11526 0.75628 0.0
H1194 H 0.84723 0.10594 0.72829 0.0
H1195 H 0.88802 0.08877 0.69397 0.0
H1196 H 0.91379 0.09828 0.72164 0.0
H1197 H 0.9165 0.11259 0.68466 0.0
H1198 H 0.90646 0.22269 0.69368 0.0
H1199 H 0.9434 0.225 0.73256 0.0
H1200 H 0.9254 0.13825 0.75648 0.0
C1201 C 0.85053 0.13018 0.66479 0.0
C1202 C 0.84142 0.14477 0.6392 0.0
C1203 C 0.84836 0.17364 0.63595 0.0
C1204 C 0.8652 0.18738 0.65715 0.0
C1205 C 0.87479 0.172 0.6815 0.0
C1206 C 0.86749 0.14408 0.68553 0.0
C1207 C 0.88271 0.13142 0.71189 0.0
C1208 C 0.86147 0.12298 0.7363 0.0
C1209 C 0.90136 0.1063 0.70245 0.0
C1210 C 0.90057 0.15626 0.72139 0.0
C1211 C 0.89537 0.17963 0.70397 0.0
C1212 C 0.91043 0.20464 0.70773 0.0
C1213 C 0.93143 0.20571 0.7298 0.0
C1214 C 0.9374 0.18178 0.74752 0.0
C1215 C 0.92145 0.15692 0.74333 0.0
loop_
_geom_bond_atom_site_label_1
_geom_bond_atom_site_label_2
_geom_bond_distance
_geom_bond_site_symmetry_2
_ccdc_geom_bond_type
C0 C1 1.391 . S
C0 C4 1.391 . S
C0 H42 0.948 . S
C1 C0 1.391 . S
C1 C2 1.391 . S
C2 C1 1.391 . S
C2 H58 0.947 . S
C2 C59 1.392 . S
C3 C4 1.391 . S
C3 C7 1.397 . S
C3 C59 1.419 . S
C4 C0 1.391 . S
C4 C3 1.391 . S
C4 C5 1.399 . S
C5 C4 1.399 . S
C5 C8 1.396 . S
C5 C17 1.453 . S
C5 C18 1.684 . S
H6 C30 0.948 . S
C7 C3 1.397 . S
C7 C8 1.394 . S
C7 C26 1.723 . S
C8 C5 1.396 . S
C8 C7 1.394 . S
C8 C38 1.723 . S
H9 C32 0.947 1_554 S
H10 C33 0.948 . S
H11 C39 0.982 . S
H12 C40 0.979 . S
H13 C40 0.980 . S
H14 C40 0.983 . S
H15 C39 0.979 . S
H16 C39 0.977 . S
C17 C5 1.453 . S
C17 H46 0.982 . S
C17 H47 0.979 . S
C17 H48 0.977 . S
C18 C5 1.684 . S
C18 H43 0.979 . S
C18 H44 0.980 . S
C18 H45 0.983 . S
C19 C20 1.391 . S
C19 C24 1.391 . S
C19 H49 0.948 . S
C20 C19 1.391 . S
C20 C21 1.391 . S
C21 C20 1.391 . S
C21 C22 1.392 . S
C21 H50 0.947 . S
C22 C21 1.392 . S
C22 C23 1.419 . S
C22 H51 0.948 . S
C23 C22 1.419 . S
C23 C24 1.391 . S
C23 C27 1.397 . S
C24 C19 1.391 . S
C24 C23 1.391 . S
C24 C25 1.399 1_556 S
C25 C24 1.399 1_554 S
C25 C26 1.396 . S
C25 C28 1.453 . S
C25 C29 1.684 . S
C26 C7 1.723 . S
C26 C25 1.396 . S
C26 C27 1.394 1_554 S
C27 C23 1.397 . S
C27 C26 1.394 1_556 S
C27 C37 1.723 . S
C28 C25 1.453 . S
C28 H52 0.982 . S
C28 H53 0.979 . S
C28 H54 0.977 . S
C29 C25 1.684 . S
C29 H55 0.979 . S
C29 H56 0.980 . S
C29 H57 0.983 . S
C30 H6 0.948 . S
C30 C31 1.391 . S
C30 C35 1.391 . S
C31 C30 1.391 . S
C31 C32 1.391 . S
C32 H9 0.947 1_556 S
C32 C31 1.391 . S
C32 C33 1.392 1_556 S
C33 H10 0.948 . S
C33 C32 1.392 1_554 S
C33 C34 1.419 1_554 S
C34 C33 1.419 1_556 S
C34 C35 1.391 . S
C34 C38 1.397 1_556 S
C35 C30 1.391 . S
C35 C34 1.391 . S
C35 C36 1.399 . S
C36 C35 1.399 . S
C36 C37 1.396 . S
C36 C39 1.453 . S
C36 C40 1.684 . S
C37 C27 1.723 . S
C37 C36 1.396 . S
C37 C38 1.394 1_556 S
C38 C8 1.723 . S
C38 C34 1.397 1_554 S
C38 C37 1.394 1_554 S
C39 H11 0.982 . S
C39 H15 0.979 . S
C39 H16 0.977 . S
C39 C36 1.453 . S
C40 H12 0.979 . S
C40 H13 0.980 . S
C40 H14 0.983 . S
C40 C36 1.684 . S
H41 C59 0.948 . S
H42 C0 0.948 . S
H43 C18 0.979 . S
H44 C18 0.980 . S
H45 C18 0.983 . S
H46 C17 0.982 . S
H47 C17 0.979 . S
H48 C17 0.977 . S
H49 C19 0.948 . S
H50 C21 0.947 . S
H51 C22 0.948 . S
H52 C28 0.982 . S
H53 C28 0.979 . S
H54 C28 0.977 . S
H55 C29 0.979 . S
H56 C29 0.980 . S
H57 C29 0.983 . S
H58 C2 0.947 . S
C59 C2 1.392 . S
C59 C3 1.419 . S
C59 H41 0.948 . S
C60 C61 1.391 . S
C60 C64 1.391 . S
C60 H102 0.948 . S
C61 C60 1.391 . S
C61 C62 1.391 . S
C62 C61 1.391 . S
C62 H118 0.947 . S
C62 C119 1.392 . S
C63 C64 1.391 . S
C63 C67 1.397 . S
C63 C119 1.419 . S
C64 C60 1.391 . S
C64 C63 1.391 . S
C64 C65 1.399 . S
C65 C64 1.399 . S
C65 C68 1.396 . S
C65 C77 1.453 . S
C65 C78 1.684 . S
H66 C90 0.948 . S
C67 C63 1.397 . S
C67 C68 1.394 . S
C67 C86 1.723 . S
C68 C65 1.396 . S
C68 C67 1.394 . S
C68 C98 1.723 . S
H69 C92 0.947 . S
H70 C93 0.948 . S
H71 C99 0.982 . S
H72 C100 0.979 . S
H73 C100 0.980 . S
H74 C100 0.983 . S
H75 C99 0.979 . S
H76 C99 0.977 . S
C77 C65 1.453 . S
C77 H106 0.982 . S
C77 H107 0.979 . S
C77 H108 0.977 . S
C78 C65 1.684 . S
C78 H103 0.979 . S
C78 H104 0.980 . S
C78 H105 0.983 . S
C79 C80 1.391 . S
C79 C84 1.391 . S
C79 H109 0.948 . S
C80 C79 1.391 . S
C80 C81 1.391 . S
C81 C80 1.391 . S
C81 C82 1.392 . S
C81 H110 0.947 . S
C82 C81 1.392 . S
C82 C83 1.419 . S
C82 H111 0.948 . S
C83 C82 1.419 . S
C83 C84 1.391 . S
C83 C87 1.397 . S
C84 C79 1.391 . S
C84 C83 1.391 . S
C84 C85 1.399 . S
C85 C84 1.399 . S
C85 C86 1.396 . S
C85 C88 1.453 . S
C85 C89 1.684 . S
C86 C67 1.723 . S
C86 C85 1.396 . S
C86 C87 1.394 . S
C87 C83 1.397 . S
C87 C86 1.394 . S
C87 C97 1.723 . S
C88 C85 1.453 . S
C88 H112 0.982 . S
C88 H113 0.979 . S
C88 H114 0.977 . S
C89 C85 1.684 . S
C89 H115 0.979 . S
C89 H116 0.980 . S
C89 H117 0.983 . S
C90 H66 0.948 . S
C90 C91 1.391 . S
C90 C95 1.391 . S
C91 C90 1.391 . S
C91 C92 1.391 . S
C92 H69 0.947 . S
C92 C91 1.391 . S
C92 C93 1.392 . S
C93 H70 0.948 . S
C93 C92 1.392 . S
C93 C94 1.419 . S
C94 C93 1.419 . S
C94 C95 1.391 . S
C94 C98 1.397 . S
C95 C90 1.391 . S
C95 C94 1.391 . S
C95 C96 1.399 . S
C96 C95 1.399 . S
C96 C97 1.396 . S
C96 C99 1.453 . S
C96 C100 1.684 . S
C97 C87 1.723 . S
C97 C96 1.396 . S
C97 C98 1.394 . S
C98 C68 1.723 . S
C98 C94 1.397 . S
C98 C97 1.394 . S
C99 H71 0.982 . S
C99 H75 0.979 . S
C99 H76 0.977 . S
C99 C96 1.453 . S
C100 H72 0.979 . S
C100 H73 0.980 . S
C100 H74 0.983 . S
C100 C96 1.684 . S
H101 C119 0.948 . S
H102 C60 0.948 . S
H103 C78 0.979 . S
H104 C78 0.980 . S
H105 C78 0.983 . S
H106 C77 0.982 . S
H107 C77 0.979 . S
H108 C77 0.977 . S
H109 C79 0.948 . S
H110 C81 0.947 . S
H111 C82 0.948 . S
H112 C88 0.982 . S
H113 C88 0.979 . S
H114 C88 0.977 . S
H115 C89 0.979 . S
H116 C89 0.980 . S
H117 C89 0.983 . S
H118 C62 0.947 . S
C119 C62 1.392 . S
C119 C63 1.419 . S
C119 H101 0.948 . S
C120 C121 1.391 . S
C120 C124 1.391 . S
C120 H162 0.948 . S
C121 C120 1.391 . S
C121 C122 1.391 . S
C122 C121 1.391 . S
C122 H178 0.947 . S
C122 C179 1.392 . S
C123 C124 1.391 . S
C123 C127 1.397 . S
C123 C179 1.419 . S
C124 C120 1.391 . S
C124 C123 1.391 . S
C124 C125 1.399 . S
C125 C124 1.399 . S
C125 C128 1.396 . S
C125 C137 1.453 . S
C125 C138 1.684 . S
H126 C150 0.948 . S
C127 C123 1.397 . S
C127 C128 1.394 . S
C127 C146 1.723 1_556 S
C128 C125 1.396 . S
C128 C127 1.394 . S
C128 C158 1.723 . S
H129 C152 0.947 . S
H130 C153 0.948 . S
H131 C159 0.982 . S
H132 C160 0.979 . S
H133 C160 0.980 . S
H134 C160 0.983 . S
H135 C159 0.979 . S
H136 C159 0.977 . S
C137 C125 1.453 . S
C137 H166 0.982 . S
C137 H167 0.979 . S
C137 H168 0.977 . S
C138 C125 1.684 . S
C138 H163 0.979 . S
C138 H164 0.980 . S
C138 H165 0.983 . S
C139 C140 1.391 . S
C139 C144 1.391 . S
C139 H169 0.948 . S
C140 C139 1.391 . S
C140 C141 1.391 . S
C141 C140 1.391 . S
C141 C142 1.392 . S
C141 H170 0.947 . S
C142 C141 1.392 . S
C142 C143 1.419 . S
C142 H171 0.948 . S
C143 C142 1.419 . S
C143 C144 1.391 . S
C143 C147 1.397 . S
C144 C139 1.391 . S
C144 C143 1.391 . S
C144 C145 1.399 . S
C145 C144 1.399 . S
C145 C146 1.396 . S
C145 C148 1.453 . S
C145 C149 1.684 . S
C146 C127 1.723 1_554 S
C146 C145 1.396 . S
C146 C147 1.394 . S
C147 C143 1.397 . S
C147 C146 1.394 . S
C147 C157 1.723 . S
C148 C145 1.453 . S
C148 H172 0.982 . S
C148 H173 0.979 . S
C148 H174 0.977 . S
C149 C145 1.684 . S
C149 H175 0.979 . S
C149 H176 0.980 . S
C149 H177 0.983 . S
C150 H126 0.948 . S
C150 C151 1.391 . S
C150 C155 1.391 . S
C151 C150 1.391 . S
C151 C152 1.391 . S
C152 H129 0.947 . S
C152 C151 1.391 . S
C152 C153 1.392 . S
C153 H130 0.948 . S
C153 C152 1.392 . S
C153 C154 1.419 . S
C154 C153 1.419 . S
C154 C155 1.391 . S
C154 C158 1.397 . S
C155 C150 1.391 . S
C155 C154 1.391 . S
C155 C156 1.399 1_556 S
C156 C155 1.399 1_554 S
C156 C157 1.396 . S
C156 C159 1.453 . S
C156 C160 1.684 . S
C157 C147 1.723 . S
C157 C156 1.396 . S
C157 C158 1.394 1_554 S
C158 C128 1.723 . S
C158 C154 1.397 . S
C158 C157 1.394 1_556 S
C159 H131 0.982 . S
C159 H135 0.979 . S
C159 H136 0.977 . S
C159 C156 1.453 . S
C160 H132 0.979 . S
C160 H133 0.980 . S
C160 H134 0.983 . S
C160 C156 1.684 . S
H161 C179 0.948 1_554 S
H162 C120 0.948 . S
H163 C138 0.979 . S
H164 C138 0.980 . S
H165 C138 0.983 . S
H166 C137 0.982 . S
H167 C137 0.979 . S
H168 C137 0.977 . S
H169 C139 0.948 . S
H170 C141 0.947 . S
H171 C142 0.948 . S
H172 C148 0.982 . S
H173 C148 0.979 . S
H174 C148 0.977 . S
H175 C149 0.979 . S
H176 C149 0.980 . S
H177 C149 0.983 . S
H178 C122 0.947 . S
C179 C122 1.392 . S
C179 C123 1.419 . S
C179 H161 0.948 1_556 S
C180 C181 1.391 . S
C180 C184 1.391 . S
C180 H222 0.948 . S
C181 C180 1.391 . S
C181 C182 1.391 . S
C182 C181 1.391 . S
C182 H238 0.947 . S
C182 C239 1.392 . S
C183 C184 1.391 . S
C183 C187 1.397 . S
C183 C239 1.419 . S
C184 C180 1.391 . S
C184 C183 1.391 . S
C184 C185 1.399 . S
C185 C184 1.399 . S
C185 C188 1.396 . S
C185 C197 1.453 . S
C185 C198 1.684 . S
H186 C210 0.948 . S
C187 C183 1.397 . S
C187 C188 1.394 . S
C187 C206 1.723 . S
C188 C185 1.396 . S
C188 C187 1.394 . S
C188 C218 1.723 . S
H189 C212 0.947 . S
H190 C213 0.948 . S
H191 C219 0.982 . S
H192 C220 0.979 . S
H193 C220 0.980 . S
H194 C220 0.983 . S
H195 C219 0.979 . S
H196 C219 0.977 . S
C197 C185 1.453 . S
C197 H226 0.982 . S
C197 H227 0.979 . S
C197 H228 0.977 . S
C198 C185 1.684 . S
C198 H223 0.979 . S
C198 H224 0.980 . S
C198 H225 0.983 . S
C199 C200 1.391 . S
C199 C204 1.391 . S
C199 H229 0.948 . S
C200 C199 1.391 . S
C200 C201 1.391 . S
C201 C200 1.391 . S
C201 C202 1.392 . S
C201 H230 0.947 . S
C202 C201 1.392 . S
C202 C203 1.419 . S
C202 H231 0.948 . S
C203 C202 1.419 . S
C203 C204 1.391 . S
C203 C207 1.397 . S
C204 C199 1.391 . S
C204 C203 1.391 . S
C204 C205 1.399 . S
C205 C204 1.399 . S
C205 C206 1.396 . S
C205 C208 1.453 . S
C205 C209 1.684 . S
C206 C187 1.723 . S
C206 C205 1.396 . S
C206 C207 1.394 . S
C207 C203 1.397 . S
C207 C206 1.394 . S
C207 C217 1.723 . S
C208 C205 1.453 . S
C208 H232 0.982 . S
C208 H233 0.979 . S
C208 H234 0.977 . S
C209 C205 1.684 . S
C209 H235 0.979 . S
C209 H236 0.980 . S
C209 H237 0.983 . S
C210 H186 0.948 . S
C210 C211 1.391 . S
C210 C215 1.391 . S
C211 C210 1.391 . S
C211 C212 1.391 . S
C212 H189 0.947 . S
C212 C211 1.391 . S
C212 C213 1.392 . S
C213 H190 0.948 . S
C213 C212 1.392 . S
C213 C214 1.419 . S
C214 C213 1.419 . S
C214 C215 1.391 . S
C214 C218 1.397 . S
C215 C210 1.391 . S
C215 C214 1.391 . S
C215 C216 1.399 . S
C216 C215 1.399 . S
C216 C217 1.396 . S
C216 C219 1.453 . S
C216 C220 1.684 . S
C217 C207 1.723 . S
C217 C216 1.396 . S
C217 C218 1.394 . S
C218 C188 1.723 . S
C218 C214 1.397 . S
C218 C217 1.394 . S
C219 H191 0.982 . S
C219 H195 0.979 . S
C219 H196 0.977 . S
C219 C216 1.453 . S
C220 H192 0.979 . S
C220 H193 0.980 . S
C220 H194 0.983 . S
C220 C216 1.684 . S
H221 C239 0.948 . S
H222 C180 0.948 . S
H223 C198 0.979 . S
H224 C198 0.980 . S
H225 C198 0.983 . S
H226 C197 0.982 . S
H227 C197 0.979 . S
H228 C197 0.977 . S
H229 C199 0.948 . S
H230 C201 0.947 . S
H231 C202 0.948 . S
H232 C208 0.982 . S
H233 C208 0.979 . S
H234 C208 0.977 . S
H235 C209 0.979 . S
H236 C209 0.980 . S
H237 C209 0.983 . S
H238 C182 0.947 . S
C239 C182 1.392 . S
C239 C183 1.419 . S
C239 H221 0.948 . S
C240 C241 1.391 . S
C240 C244 1.391 . S
C240 H282 0.948 . S
C241 C240 1.391 . S
C241 C242 1.391 . S
C242 C241 1.391 . S
C242 H298 0.947 . S
C242 C299 1.392 . S
C243 C244 1.391 . S
C243 C247 1.397 . S
C243 C299 1.419 . S
C244 C240 1.391 . S
C244 C243 1.391 . S
C244 C245 1.399 . S
C245 C244 1.399 . S
C245 C248 1.396 . S
C245 C257 1.453 . S
C245 C258 1.684 . S
H246 C270 0.948 . S
C247 C243 1.397 . S
C247 C248 1.394 . S
C247 C266 1.723 . S
C248 C245 1.396 . S
C248 C247 1.394 . S
C248 C278 1.723 . S
H249 C272 0.947 1_554 S
H250 C273 0.948 . S
H251 C279 0.982 . S
H252 C280 0.979 . S
H253 C280 0.980 . S
H254 C280 0.983 . S
H255 C279 0.979 . S
H256 C279 0.977 . S
C257 C245 1.453 . S
C257 H286 0.982 . S
C257 H287 0.979 . S
C257 H288 0.977 . S
C258 C245 1.684 . S
C258 H283 0.979 . S
C258 H284 0.980 . S
C258 H285 0.983 . S
C259 C260 1.391 . S
C259 C264 1.391 . S
C259 H289 0.948 . S
C260 C259 1.391 . S
C260 C261 1.391 . S
C261 C260 1.391 . S
C261 C262 1.392 . S
C261 H290 0.947 . S
C262 C261 1.392 . S
C262 C263 1.419 . S
C262 H291 0.948 . S
C263 C262 1.419 . S
C263 C264 1.391 . S
C263 C267 1.397 . S
C264 C259 1.391 . S
C264 C263 1.391 . S
C264 C265 1.399 1_556 S
C265 C264 1.399 1_554 S
C265 C266 1.396 . S
C265 C268 1.453 . S
C265 C269 1.684 . S
C266 C247 1.723 . S
C266 C265 1.396 . S
C266 C267 1.394 1_554 S
C267 C263 1.397 . S
C267 C266 1.394 1_556 S
C267 C277 1.723 . S
C268 C265 1.453 . S
C268 H292 0.982 . S
C268 H293 0.979 . S
C268 H294 0.977 . S
C269 C265 1.684 . S
C269 H295 0.979 . S
C269 H296 0.980 . S
C269 H297 0.983 . S
C270 H246 0.948 . S
C270 C271 1.391 . S
C270 C275 1.391 . S
C271 C270 1.391 . S
C271 C272 1.391 . S
C272 H249 0.947 1_556 S
C272 C271 1.391 . S
C272 C273 1.392 1_556 S
C273 H250 0.948 . S
C273 C272 1.392 1_554 S
C273 C274 1.419 1_554 S
C274 C273 1.419 1_556 S
C274 C275 1.391 . S
C274 C278 1.397 1_556 S
C275 C270 1.391 . S
C275 C274 1.391 . S
C275 C276 1.399 . S
C276 C275 1.399 . S
C276 C277 1.396 . S
C276 C279 1.453 . S
C276 C280 1.684 . S
C277 C267 1.723 . S
C277 C276 1.396 . S
C277 C278 1.394 1_556 S
C278 C248 1.723 . S
C278 C274 1.397 1_554 S
C278 C277 1.394 1_554 S
C279 H251 0.982 . S
C279 H255 0.979 . S
C279 H256 0.977 . S
C279 C276 1.453 . S
C280 H252 0.979 . S
C280 H253 0.980 . S
C280 H254 0.983 . S
C280 C276 1.684 . S
H281 C299 0.948 . S
H282 C240 0.948 . S
H283 C258 0.979 . S
H284 C258 0.980 . S
H285 C258 0.983 . S
H286 C257 0.982 . S
H287 C257 0.979 . S
H288 C257 0.977 . S
H289 C259 0.948 . S
H290 C261 0.947 . S
H291 C262 0.948 . S
H292 C268 0.982 . S
H293 C268 0.979 . S
H294 C268 0.977 . S
H295 C269 0.979 . S
H296 C269 0.980 . S
H297 C269 0.983 . S
H298 C242 0.947 . S
C299 C242 1.392 . S
C299 C243 1.419 . S
C299 H281 0.948 . S
C300 C301 1.391 . S
C300 C304 1.391 . S
C300 H342 0.948 . S
C301 C300 1.391 . S
C301 C302 1.391 . S
C302 C301 1.391 . S
C302 H358 0.947 . S
C302 C359 1.392 . S
C303 C304 1.391 . S
C303 C307 1.397 . S
C303 C359 1.419 . S
C304 C300 1.391 . S
C304 C303 1.391 . S
C304 C305 1.399 . S
C305 C304 1.399 . S
C305 C308 1.396 . S
C305 C317 1.453 . S
C305 C318 1.684 . S
H306 C330 0.948 . S
C307 C303 1.397 . S
C307 C308 1.394 . S
C307 C326 1.723 . S
C308 C305 1.396 . S
C308 C307 1.394 . S
C308 C338 1.723 . S
H309 C332 0.947 . S
H310 C333 0.948 . S
H311 C339 0.982 . S
H312 C340 0.979 . S
H313 C340 0.980 . S
H314 C340 0.983 . S
H315 C339 0.979 . S
H316 C339 0.977 . S
C317 C305 1.453 . S
C317 H346 0.982 . S
C317 H347 0.979 . S
C317 H348 0.977 . S
C318 C305 1.684 . S
C318 H343 0.979 . S
C318 H344 0.980 . S
C318 H345 0.983 . S
C319 C320 1.391 . S
C319 C324 1.391 . S
C319 H349 0.948 . S
C320 C319 1.391 . S
C320 C321 1.391 . S
C321 C320 1.391 . S
C321 C322 1.392 . S
C321 H350 0.947 . S
C322 C321 1.392 . S
C322 C323 1.419 . S
C322 H351 0.948 . S
C323 C322 1.419 . S
C323 C324 1.391 . S
C323 C327 1.397 . S
C324 C319 1.391 . S
C324 C323 1.391 . S
C324 C325 1.399 . S
C325 C324 1.399 . S
C325 C326 1.396 . S
C325 C328 1.453 . S
C325 C329 1.684 . S
C326 C307 1.723 . S
C326 C325 1.396 . S
C326 C327 1.394 . S
C327 C323 1.397 . S
C327 C326 1.394 . S
C327 C337 1.723 . S
C328 C325 1.453 . S
C328 H352 0.982 . S
C328 H353 0.979 . S
C328 H354 0.977 . S
C329 C325 1.684 . S
C329 H355 0.979 . S
C329 H356 0.980 . S
C329 H357 0.983 . S
C330 H306 0.948 . S
C330 C331 1.391 . S
C330 C335 1.391 . S
C331 C330 1.391 . S
C331 C332 1.391 . S
C332 H309 0.947 . S
C332 C331 1.391 . S
C332 C333 1.392 . S
C333 H310 0.948 . S
C333 C332 1.392 . S
C333 C334 1.419 . S
C334 C333 1.419 . S
C334 C335 1.391 . S
C334 C338 1.397 . S
C335 C330 1.391 . S
C335 C334 1.391 . S
C335 C336 1.399 . S
C336 C335 1.399 . S
C336 C337 1.396 . S
C336 C339 1.453 . S
C336 C340 1.684 . S
C337 C327 1.723 . S
C337 C336 1.396 . S
C337 C338 1.394 . S
C338 C308 1.723 . S
C338 C334 1.397 . S
C338 C337 1.394 . S
C339 H311 0.982 . S
C339 H315 0.979 . S
C339 H316 0.977 . S
C339 C336 1.453 . S
C340 H312 0.979 . S
C340 H313 0.980 . S
C340 H314 0.983 . S
C340 C336 1.684 . S
H341 C359 0.948 . S
H342 C300 0.948 . S
H343 C318 0.979 . S
H344 C318 0.980 . S
H345 C318 0.983 . S
H346 C317 0.982 . S
H347 C317 0.979 . S
H348 C317 0.977 . S
H349 C319 0.948 . S
H350 C321 0.947 . S
H351 C322 0.948 . S
H352 C328 0.982 . S
H353 C328 0.979 . S
H354 C328 0.977 . S
H355 C329 0.979 . S
H356 C329 0.980 . S
H357 C329 0.983 . S
H358 C302 0.947 . S
C359 C302 1.392 . S
C359 C303 1.419 . S
C359 H341 0.948 . S
C360 C361 1.391 . S
C360 C364 1.391 . S
C360 H402 0.948 . S
C361 C360 1.391 . S
C361 C362 1.391 . S
C362 C361 1.391 . S
C362 H418 0.947 1_565 S
C362 C419 1.392 . S
C363 C364 1.391 . S
C363 C367 1.397 . S
C363 C419 1.419 . S
C364 C360 1.391 . S
C364 C363 1.391 . S
C364 C365 1.399 . S
C365 C364 1.399 . S
C365 C368 1.396 . S
C365 C377 1.453 . S
C365 C378 1.684 . S
H366 C390 0.948 . S
C367 C363 1.397 . S
C367 C368 1.394 . S
C367 C386 1.723 1_556 S
C368 C365 1.396 . S
C368 C367 1.394 . S
C368 C398 1.723 . S
H369 C392 0.947 . S
H370 C393 0.948 . S
H371 C399 0.982 . S
H372 C400 0.979 . S
H373 C400 0.980 . S
H374 C400 0.983 . S
H375 C399 0.979 . S
H376 C399 0.977 . S
C377 C365 1.453 . S
C377 H406 0.982 . S
C377 H407 0.979 . S
C377 H408 0.977 . S
C378 C365 1.684 . S
C378 H403 0.979 . S
C378 H404 0.980 . S
C378 H405 0.983 . S
C379 C380 1.391 . S
C379 C384 1.391 . S
C379 H409 0.948 . S
C380 C379 1.391 . S
C380 C381 1.391 . S
C381 C380 1.391 . S
C381 C382 1.392 . S
C381 H410 0.947 . S
C382 C381 1.392 . S
C382 C383 1.419 . S
C382 H411 0.948 . S
C383 C382 1.419 . S
C383 C384 1.391 . S
C383 C387 1.397 . S
C384 C379 1.391 . S
C384 C383 1.391 . S
C384 C385 1.399 . S
C385 C384 1.399 . S
C385 C386 1.396 . S
C385 C388 1.453 . S
C385 C389 1.684 . S
C386 C367 1.723 1_554 S
C386 C385 1.396 . S
C386 C387 1.394 . S
C387 C383 1.397 . S
C387 C386 1.394 . S
C387 C397 1.723 . S
C388 C385 1.453 . S
C388 H412 0.982 . S
C388 H413 0.979 . S
C388 H414 0.977 . S
C389 C385 1.684 . S
C389 H415 0.979 . S
C389 H416 0.980 . S
C389 H417 0.983 . S
C390 H366 0.948 . S
C390 C391 1.391 . S
C390 C395 1.391 . S
C391 C390 1.391 . S
C391 C392 1.391 . S
C392 H369 0.947 . S
C392 C391 1.391 . S
C392 C393 1.392 . S
C393 H370 0.948 . S
C393 C392 1.392 . S
C393 C394 1.419 . S
C394 C393 1.419 . S
C394 C395 1.391 . S
C394 C398 1.397 . S
C395 C390 1.391 . S
C395 C394 1.391 . S
C395 C396 1.399 1_556 S
C396 C395 1.399 1_554 S
C396 C397 1.396 . S
C396 C399 1.453 . S
C396 C400 1.684 . S
C397 C387 1.723 . S
C397 C396 1.396 . S
C397 C398 1.394 1_554 S
C398 C368 1.723 . S
C398 C394 1.397 . S
C398 C397 1.394 1_556 S
C399 H371 0.982 . S
C399 H375 0.979 . S
C399 H376 0.977 . S
C399 C396 1.453 . S
C400 H372 0.979 . S
C400 H373 0.980 . S
C400 H374 0.983 . S
C400 C396 1.684 . S
H401 C419 0.948 1_554 S
H402 C360 0.948 . S
H403 C378 0.979 . S
H404 C378 0.980 . S
H405 C378 0.983 . S
H406 C377 0.982 . S
H407 C377 0.979 . S
H408 C377 0.977 . S
H409 C379 0.948 . S
H410 C381 0.947 . S
H411 C382 0.948 . S
H412 C388 0.982 . S
H413 C388 0.979 . S
H414 C388 0.977 . S
H415 C389 0.979 . S
H416 C389 0.980 . S
H417 C389 0.983 . S
H418 C362 0.947 1_545 S
C419 C362 1.392 . S
C419 C363 1.419 . S
C419 H401 0.948 1_556 S
C420 C421 1.391 . S
C420 C424 1.391 . S
C420 H462 0.948 . S
C421 C420 1.391 . S
C421 C422 1.391 . S
C422 C421 1.391 . S
C422 H478 0.947 . S
C422 C479 1.392 . S
C423 C424 1.391 . S
C423 C427 1.397 . S
C423 C479 1.419 . S
C424 C420 1.391 . S
C424 C423 1.391 . S
C424 C425 1.399 . S
C425 C424 1.399 . S
C425 C428 1.396 . S
C425 C437 1.453 . S
C425 C438 1.684 . S
H426 C450 0.950 . S
C427 C423 1.397 . S
C427 C428 1.394 . S
C427 C446 1.723 . S
C428 C425 1.396 . S
C428 C427 1.394 . S
C428 C458 1.723 . S
H429 C452 0.947 . S
H430 C453 0.948 . S
H431 C459 0.982 . S
H432 C460 0.979 . S
H433 C460 0.980 . S
H434 C460 0.983 . S
H435 C459 0.979 . S
H436 C459 0.977 . S
C437 C425 1.453 . S
C437 H466 0.982 . S
C437 H467 0.979 . S
C437 H468 0.977 . S
C438 C425 1.684 . S
C438 H463 0.979 . S
C438 H464 0.980 . S
C438 H465 0.983 . S
C439 C440 1.391 . S
C439 C444 1.391 . S
C439 H469 0.948 . S
C440 C439 1.391 . S
C440 C441 1.391 . S
C441 C440 1.391 . S
C441 C442 1.392 . S
C441 H470 0.947 . S
C442 C441 1.392 . S
C442 C443 1.419 . S
C442 H471 0.948 . S
C443 C442 1.419 . S
C443 C444 1.391 . S
C443 C447 1.397 . S
C444 C439 1.391 . S
C444 C443 1.391 . S
C444 C445 1.399 . S
C445 C444 1.399 . S
C445 C446 1.396 . S
C445 C448 1.453 . S
C445 C449 1.684 . S
C446 C427 1.723 . S
C446 C445 1.396 . S
C446 C447 1.394 . S
C447 C443 1.397 . S
C447 C446 1.394 . S
C447 C457 1.723 . S
C448 C445 1.453 . S
C448 H472 0.982 . S
C448 H473 0.979 . S
C448 H474 0.977 . S
C449 C445 1.684 . S
C449 H475 0.979 . S
C449 H476 0.980 . S
C449 H477 0.983 . S
C450 H426 0.950 . S
C450 C451 1.402 . S
C450 C455 1.391 . S
C451 C450 1.402 . S
C451 C452 1.409 . S
C452 H429 0.947 . S
C452 C451 1.409 . S
C452 C453 1.392 . S
C453 H430 0.948 . S
C453 C452 1.392 . S
C453 C454 1.419 . S
C454 C453 1.419 . S
C454 C455 1.391 . S
C454 C458 1.397 . S
C455 C450 1.391 . S
C455 C454 1.391 . S
C455 C456 1.399 . S
C456 C455 1.399 . S
C456 C457 1.396 . S
C456 C459 1.453 . S
C456 C460 1.684 . S
C457 C447 1.723 . S
C457 C456 1.396 . S
C457 C458 1.394 . S
C458 C428 1.723 . S
C458 C454 1.397 . S
C458 C457 1.394 . S
C459 H431 0.982 . S
C459 H435 0.979 . S
C459 H436 0.977 . S
C459 C456 1.453 . S
C460 H432 0.979 . S
C460 H433 0.980 . S
C460 H434 0.983 . S
C460 C456 1.684 . S
H461 C479 0.948 . S
H462 C420 0.948 . S
H463 C438 0.979 . S
H464 C438 0.980 . S
H465 C438 0.983 . S
H466 C437 0.982 . S
H467 C437 0.979 . S
H468 C437 0.977 . S
H469 C439 0.948 . S
H470 C441 0.947 . S
H471 C442 0.948 . S
H472 C448 0.982 . S
H473 C448 0.979 . S
H474 C448 0.977 . S
H475 C449 0.979 . S
H476 C449 0.980 . S
H477 C449 0.983 . S
H478 C422 0.947 . S
C479 C422 1.392 . S
C479 C423 1.419 . S
C479 H461 0.948 . S
Sc480 O483 2.025 . S
Sc480 O490 2.105 1_455 S
Sc480 O493 2.105 . S
Sc480 O496 2.105 . S
Sc480 O499 2.105 1_455 S
Sc481 O483 2.025 . S
Sc481 O491 2.105 1_455 S
Sc481 O495 2.105 . S
Sc481 O497 2.105 . S
Sc481 O501 2.105 1_455 S
Sc482 O483 2.025 . S
Sc482 O492 2.105 1_455 S
Sc482 O494 2.105 . S
Sc482 O498 2.105 . S
Sc482 O500 2.105 1_455 S
O483 Sc480 2.025 . S
O483 Sc481 2.025 . S
O483 Sc482 2.025 . S
C484 O490 1.268 . S
C484 O500 1.268 . S
C485 O491 1.268 . S
C485 O499 1.268 . S
C486 O492 1.268 . S
C486 O501 1.268 . S
C487 O493 1.268 . S
C487 O497 1.268 . S
C488 O494 1.268 . S
C488 O496 1.268 . S
C489 O495 1.268 . S
C489 O498 1.268 . S
O490 Sc480 2.105 1_655 S
O490 C484 1.268 . S
O491 Sc481 2.105 1_655 S
O491 C485 1.268 . S
O492 Sc482 2.105 1_655 S
O492 C486 1.268 . S
O493 Sc480 2.105 . S
O493 C487 1.268 . S
O494 Sc482 2.105 . S
O494 C488 1.268 . S
O495 Sc481 2.105 . S
O495 C489 1.268 . S
O496 Sc480 2.105 . S
O496 C488 1.268 . S
O497 Sc481 2.105 . S
O497 C487 1.268 . S
O498 Sc482 2.105 . S
O498 C489 1.268 . S
O499 Sc480 2.105 1_655 S
O499 C485 1.268 . S
O500 Sc482 2.105 1_655 S
O500 C484 1.268 . S
O501 Sc481 2.105 1_655 S
O501 C486 1.268 . S
Sc502 O505 2.025 . S
Sc502 O512 2.105 . S
Sc502 O515 2.105 1_455 S
Sc502 O518 2.105 1_455 S
Sc502 O521 2.105 . S
Sc503 O505 2.025 . S
Sc503 O513 2.105 . S
Sc503 O517 2.105 1_455 S
Sc503 O519 2.105 1_455 S
Sc503 O523 2.105 . S
Sc504 O505 2.025 . S
Sc504 O514 2.105 . S
Sc504 O516 2.105 1_455 S
Sc504 O520 2.105 1_455 S
Sc504 O522 2.105 . S
O505 Sc502 2.025 . S
O505 Sc503 2.025 . S
O505 Sc504 2.025 . S
C506 O512 1.268 . S
C506 O522 1.268 . S
C507 O513 1.268 . S
C507 O521 1.268 . S
C508 O514 1.268 . S
C508 O523 1.268 . S
C509 O515 1.268 . S
C509 O519 1.268 . S
C510 O516 1.268 . S
C510 O518 1.268 . S
C511 O517 1.268 . S
C511 O520 1.268 . S
O512 Sc502 2.105 . S
O512 C506 1.268 . S
O513 Sc503 2.105 . S
O513 C507 1.268 . S
O514 Sc504 2.105 . S
O514 C508 1.268 . S
O515 Sc502 2.105 1_655 S
O515 C509 1.268 . S
O516 Sc504 2.105 1_655 S
O516 C510 1.268 . S
O517 Sc503 2.105 1_655 S
O517 C511 1.268 . S
O518 Sc502 2.105 1_655 S
O518 C510 1.268 . S
O519 Sc503 2.105 1_655 S
O519 C509 1.268 . S
O520 Sc504 2.105 1_655 S
O520 C511 1.268 . S
O521 Sc502 2.105 . S
O521 C507 1.268 . S
O522 Sc504 2.105 . S
O522 C506 1.268 . S
O523 Sc503 2.105 . S
O523 C508 1.268 . S
Sc524 O527 2.025 . S
Sc524 O534 2.105 . S
Sc524 O537 2.105 . S
Sc524 O540 2.105 . S
Sc524 O543 2.105 . S
Sc525 O527 2.025 . S
Sc525 O535 2.105 . S
Sc525 O539 2.105 . S
Sc525 O541 2.105 . S
Sc525 O545 2.105 . S
Sc526 O527 2.025 . S
Sc526 O536 2.105 . S
Sc526 O538 2.105 . S
Sc526 O542 2.105 . S
Sc526 O544 2.105 . S
O527 Sc524 2.025 . S
O527 Sc525 2.025 . S
O527 Sc526 2.025 . S
C528 O534 1.268 . S
C528 O544 1.268 . S
C529 O535 1.268 . S
C529 O543 1.268 . S
C530 O536 1.268 . S
C530 O545 1.268 . S
C531 O537 1.268 . S
C531 O541 1.268 . S
C532 O538 1.268 . S
C532 O540 1.268 . S
C533 O539 1.268 . S
C533 O542 1.268 . S
O534 Sc524 2.105 . S
O534 C528 1.268 . S
O535 Sc525 2.105 . S
O535 C529 1.268 . S
O536 Sc526 2.105 . S
O536 C530 1.268 . S
O537 Sc524 2.105 . S
O537 C531 1.268 . S
O538 Sc526 2.105 . S
O538 C532 1.268 . S
O539 Sc525 2.105 . S
O539 C533 1.268 . S
O540 Sc524 2.105 . S
O540 C532 1.268 . S
O541 Sc525 2.105 . S
O541 C531 1.268 . S
O542 Sc526 2.105 . S
O542 C533 1.268 . S
O543 Sc524 2.105 . S
O543 C529 1.268 . S
O544 Sc526 2.105 . S
O544 C528 1.268 . S
O545 Sc525 2.105 . S
O545 C530 1.268 . S
Sc546 O549 2.025 . S
Sc546 O556 2.105 . S
Sc546 O559 2.105 . S
Sc546 O562 2.105 . S
Sc546 O565 2.105 . S
Sc547 O549 2.025 . S
Sc547 O557 2.105 . S
Sc547 O561 2.105 . S
Sc547 O563 2.105 . S
Sc547 O567 2.105 . S
Sc548 O549 2.025 . S
Sc548 O558 2.105 . S
Sc548 O560 2.105 . S
Sc548 O564 2.105 . S
Sc548 O566 2.105 . S
O549 Sc546 2.025 . S
O549 Sc547 2.025 . S
O549 Sc548 2.025 . S
C550 O556 1.268 . S
C550 O566 1.268 . S
C551 O557 1.268 . S
C551 O565 1.268 . S
C552 O558 1.268 . S
C552 O567 1.268 . S
C553 O559 1.268 . S
C553 O563 1.268 . S
C554 O560 1.268 . S
C554 O562 1.268 . S
C555 O561 1.268 . S
C555 O564 1.268 . S
O556 Sc546 2.105 . S
O556 C550 1.268 . S
O557 Sc547 2.105 . S
O557 C551 1.268 . S
O558 Sc548 2.105 . S
O558 C552 1.268 . S
O559 Sc546 2.105 . S
O559 C553 1.268 . S
O560 Sc548 2.105 . S
O560 C554 1.268 . S
O561 Sc547 2.105 . S
O561 C555 1.268 . S
O562 Sc546 2.105 . S
O562 C554 1.268 . S
O563 Sc547 2.105 . S
O563 C553 1.268 . S
O564 Sc548 2.105 . S
O564 C555 1.268 . S
O565 Sc546 2.105 . S
O565 C551 1.268 . S
O566 Sc548 2.105 . S
O566 C550 1.268 . S
O567 Sc547 2.105 . S
O567 C552 1.268 . S
H568 C580 0.930 . S
H569 C582 0.930 . S
H570 C583 0.930 . S
H571 C587 0.959 . S
H572 C587 0.959 . S
H573 C587 0.961 . S
H574 C588 0.960 . S
H575 C588 0.961 . S
H576 C588 0.959 . S
H577 C591 0.929 . S
H578 C592 0.931 . S
H579 C594 0.930 . S
C580 H568 0.930 . S
C580 C581 1.399 . S
C580 C585 1.399 . S
C581 C580 1.399 . S
C581 C582 1.376 . S
C582 H569 0.930 . S
C582 C581 1.376 . S
C582 C583 1.388 . S
C583 H570 0.930 . S
C583 C582 1.388 . S
C583 C584 1.390 . S
C584 C583 1.390 . S
C584 C585 1.394 . S
C584 C590 1.465 . S
C585 C580 1.399 . S
C585 C584 1.394 . S
C585 C586 1.516 . S
C586 C585 1.516 . S
C586 C587 1.502 . S
C586 C588 1.561 . S
C586 C589 1.526 . S
C587 H571 0.959 . S
C587 H572 0.959 . S
C587 H573 0.961 . S
C587 C586 1.502 . S
C588 H574 0.960 . S
C588 H575 0.961 . S
C588 H576 0.959 . S
C588 C586 1.561 . S
C589 C586 1.526 . S
C589 C590 1.396 . S
C589 C594 1.390 . S
C590 C584 1.465 . S
C590 C589 1.396 . S
C590 C591 1.399 . S
C591 H577 0.929 . S
C591 C590 1.399 . S
C591 C592 1.385 . S
C592 H578 0.931 . S
C592 C591 1.385 . S
C592 C593 1.389 . S
C593 C592 1.389 . S
C593 C594 1.387 . S
C594 H579 0.930 . S
C594 C589 1.390 . S
C594 C593 1.387 . S
H595 C607 0.930 . S
H596 C609 0.930 . S
H597 C610 0.930 . S
H598 C614 0.959 . S
H599 C614 0.959 . S
H600 C614 0.961 . S
H601 C615 0.960 . S
H602 C615 0.961 . S
H603 C615 0.959 . S
H604 C618 0.929 . S
H605 C619 0.931 . S
H606 C621 0.930 . S
C607 H595 0.930 . S
C607 C608 1.399 . S
C607 C612 1.399 . S
C608 C607 1.399 . S
C608 C609 1.376 . S
C609 H596 0.930 . S
C609 C608 1.376 . S
C609 C610 1.388 . S
C610 H597 0.930 . S
C610 C609 1.388 . S
C610 C611 1.390 . S
C611 C610 1.390 . S
C611 C612 1.394 . S
C611 C617 1.465 . S
C612 C607 1.399 . S
C612 C611 1.394 . S
C612 C613 1.516 . S
C613 C612 1.516 . S
C613 C614 1.502 . S
C613 C615 1.561 . S
C613 C616 1.526 . S
C614 H598 0.959 . S
C614 H599 0.959 . S
C614 H600 0.961 . S
C614 C613 1.502 . S
C615 H601 0.960 . S
C615 H602 0.961 . S
C615 H603 0.959 . S
C615 C613 1.561 . S
C616 C613 1.526 . S
C616 C617 1.396 . S
C616 C621 1.390 . S
C617 C611 1.465 . S
C617 C616 1.396 . S
C617 C618 1.399 . S
C618 H604 0.929 . S
C618 C617 1.399 . S
C618 C619 1.385 . S
C619 H605 0.931 . S
C619 C618 1.385 . S
C619 C620 1.389 . S
C620 C619 1.389 . S
C620 C621 1.387 . S
C621 H606 0.930 . S
C621 C616 1.390 . S
C621 C620 1.387 . S
H622 C634 0.930 . S
H623 C636 0.930 . S
H624 C637 0.930 . S
H625 C641 0.959 . S
H626 C641 0.959 . S
H627 C641 0.961 . S
H628 C642 0.960 . S
H629 C642 0.961 . S
H630 C642 0.959 . S
H631 C645 0.929 . S
H632 C646 0.931 . S
H633 C648 0.930 . S
C634 H622 0.930 . S
C634 C635 1.399 . S
C634 C639 1.399 . S
C635 C634 1.399 . S
C635 C636 1.376 . S
C636 H623 0.930 . S
C636 C635 1.376 . S
C636 C637 1.388 . S
C637 H624 0.930 . S
C637 C636 1.388 . S
C637 C638 1.390 . S
C638 C637 1.390 . S
C638 C639 1.394 . S
C638 C644 1.465 . S
C639 C634 1.399 . S
C639 C638 1.394 . S
C639 C640 1.516 . S
C640 C639 1.516 . S
C640 C641 1.502 . S
C640 C642 1.561 . S
C640 C643 1.526 . S
C641 H625 0.959 . S
C641 H626 0.959 . S
C641 H627 0.961 . S
C641 C640 1.502 . S
C642 H628 0.960 . S
C642 H629 0.961 . S
C642 H630 0.959 . S
C642 C640 1.561 . S
C643 C640 1.526 . S
C643 C644 1.396 . S
C643 C648 1.390 . S
C644 C638 1.465 . S
C644 C643 1.396 . S
C644 C645 1.399 . S
C645 H631 0.929 . S
C645 C644 1.399 . S
C645 C646 1.385 . S
C646 H632 0.931 . S
C646 C645 1.385 . S
C646 C647 1.389 . S
C647 C646 1.389 . S
C647 C648 1.387 . S
C648 H633 0.930 . S
C648 C643 1.390 . S
C648 C647 1.387 . S
H649 C661 0.930 . S
H650 C663 0.930 . S
H651 C664 0.930 . S
H652 C668 0.959 . S
H653 C668 0.959 . S
H654 C668 0.961 . S
H655 C669 0.960 . S
H656 C669 0.961 . S
H657 C669 0.959 . S
H658 C672 0.929 . S
H659 C673 0.931 . S
H660 C675 0.930 . S
C661 H649 0.930 . S
C661 C662 1.399 . S
C661 C666 1.399 . S
C662 C661 1.399 . S
C662 C663 1.376 . S
C663 H650 0.930 . S
C663 C662 1.376 . S
C663 C664 1.388 . S
C664 H651 0.930 . S
C664 C663 1.388 . S
C664 C665 1.390 . S
C665 C664 1.390 . S
C665 C666 1.394 . S
C665 C671 1.465 . S
C666 C661 1.399 . S
C666 C665 1.394 . S
C666 C667 1.516 . S
C667 C666 1.516 . S
C667 C668 1.502 . S
C667 C669 1.561 . S
C667 C670 1.526 . S
C668 H652 0.959 . S
C668 H653 0.959 . S
C668 H654 0.961 . S
C668 C667 1.502 . S
C669 H655 0.960 . S
C669 H656 0.961 . S
C669 H657 0.959 . S
C669 C667 1.561 . S
C670 C667 1.526 . S
C670 C671 1.396 . S
C670 C675 1.390 . S
C671 C665 1.465 . S
C671 C670 1.396 . S
C671 C672 1.399 . S
C672 H658 0.929 . S
C672 C671 1.399 . S
C672 C673 1.385 . S
C673 H659 0.931 . S
C673 C672 1.385 . S
C673 C674 1.389 . S
C674 C673 1.389 . S
C674 C675 1.387 . S
C675 H660 0.930 . S
C675 C670 1.390 . S
C675 C674 1.387 . S
H676 C688 0.930 . S
H677 C690 0.930 . S
H678 C691 0.930 . S
H679 C695 0.959 . S
H680 C695 0.959 . S
H681 C695 0.961 . S
H682 C696 0.960 . S
H683 C696 0.961 . S
H684 C696 0.959 . S
H685 C699 0.929 . S
H686 C700 0.931 . S
H687 C702 0.930 . S
C688 H676 0.930 . S
C688 C689 1.399 . S
C688 C693 1.399 . S
C689 C688 1.399 . S
C689 C690 1.376 . S
C690 H677 0.930 . S
C690 C689 1.376 . S
C690 C691 1.388 . S
C691 H678 0.930 . S
C691 C690 1.388 . S
C691 C692 1.390 . S
C692 C691 1.390 . S
C692 C693 1.394 . S
C692 C698 1.465 . S
C693 C688 1.399 . S
C693 C692 1.394 . S
C693 C694 1.516 . S
C694 C693 1.516 . S
C694 C695 1.502 . S
C694 C696 1.561 . S
C694 C697 1.526 . S
C695 H679 0.959 . S
C695 H680 0.959 . S
C695 H681 0.961 . S
C695 C694 1.502 . S
C696 H682 0.960 . S
C696 H683 0.961 . S
C696 H684 0.959 . S
C696 C694 1.561 . S
C697 C694 1.526 . S
C697 C698 1.396 . S
C697 C702 1.390 . S
C698 C692 1.465 . S
C698 C697 1.396 . S
C698 C699 1.399 . S
C699 H685 0.929 . S
C699 C698 1.399 . S
C699 C700 1.385 . S
C700 H686 0.931 . S
C700 C699 1.385 . S
C700 C701 1.389 . S
C701 C700 1.389 . S
C701 C702 1.387 . S
C702 H687 0.930 . S
C702 C697 1.390 . S
C702 C701 1.387 . S
H703 C715 0.930 . S
H704 C717 0.930 . S
H705 C718 0.930 . S
H706 C722 0.959 . S
H707 C722 0.959 . S
H708 C722 0.961 . S
H709 C723 0.960 . S
H710 C723 0.961 . S
H711 C723 0.959 . S
H712 C726 0.929 . S
H713 C727 0.931 . S
H714 C729 0.930 . S
C715 H703 0.930 . S
C715 C716 1.399 . S
C715 C720 1.399 . S
C716 C715 1.399 . S
C716 C717 1.376 . S
C717 H704 0.930 . S
C717 C716 1.376 . S
C717 C718 1.388 . S
C718 H705 0.930 . S
C718 C717 1.388 . S
C718 C719 1.390 . S
C719 C718 1.390 . S
C719 C720 1.394 . S
C719 C725 1.465 . S
C720 C715 1.399 . S
C720 C719 1.394 . S
C720 C721 1.516 . S
C721 C720 1.516 . S
C721 C722 1.502 . S
C721 C723 1.561 . S
C721 C724 1.526 . S
C722 H706 0.959 . S
C722 H707 0.959 . S
C722 H708 0.961 . S
C722 C721 1.502 . S
C723 H709 0.960 . S
C723 H710 0.961 . S
C723 H711 0.959 . S
C723 C721 1.561 . S
C724 C721 1.526 . S
C724 C725 1.396 . S
C724 C729 1.390 . S
C725 C719 1.465 . S
C725 C724 1.396 . S
C725 C726 1.399 . S
C726 H712 0.929 . S
C726 C725 1.399 . S
C726 C727 1.385 . S
C727 H713 0.931 . S
C727 C726 1.385 . S
C727 C728 1.389 . S
C728 C727 1.389 . S
C728 C729 1.387 . S
C729 H714 0.930 . S
C729 C724 1.390 . S
C729 C728 1.387 . S
H730 C742 0.930 . S
H731 C744 0.930 . S
H732 C745 0.930 . S
H733 C749 0.959 . S
H734 C749 0.959 . S
H735 C749 0.961 . S
H736 C750 0.960 . S
H737 C750 0.961 . S
H738 C750 0.959 . S
H739 C753 0.929 . S
H740 C754 0.931 . S
H741 C756 0.930 . S
C742 H730 0.930 . S
C742 C743 1.399 . S
C742 C747 1.399 . S
C743 C742 1.399 . S
C743 C744 1.376 . S
C744 H731 0.930 . S
C744 C743 1.376 . S
C744 C745 1.388 . S
C745 H732 0.930 . S
C745 C744 1.388 . S
C745 C746 1.390 . S
C746 C745 1.390 . S
C746 C747 1.394 . S
C746 C752 1.465 . S
C747 C742 1.399 . S
C747 C746 1.394 . S
C747 C748 1.516 . S
C748 C747 1.516 . S
C748 C749 1.502 . S
C748 C750 1.561 . S
C748 C751 1.526 . S
C749 H733 0.959 . S
C749 H734 0.959 . S
C749 H735 0.961 . S
C749 C748 1.502 . S
C750 H736 0.960 . S
C750 H737 0.961 . S
C750 H738 0.959 . S
C750 C748 1.561 . S
C751 C748 1.526 . S
C751 C752 1.396 . S
C751 C756 1.390 . S
C752 C746 1.465 . S
C752 C751 1.396 . S
C752 C753 1.399 . S
C753 H739 0.929 . S
C753 C752 1.399 . S
C753 C754 1.385 . S
C754 H740 0.931 . S
C754 C753 1.385 . S
C754 C755 1.389 . S
C755 C754 1.389 . S
C755 C756 1.387 . S
C756 H741 0.930 . S
C756 C751 1.390 . S
C756 C755 1.387 . S
H757 C769 0.930 . S
H758 C771 0.930 . S
H759 C772 0.930 . S
H760 C776 0.959 . S
H761 C776 0.959 . S
H762 C776 0.961 . S
H763 C777 0.960 . S
H764 C777 0.961 . S
H765 C777 0.959 . S
H766 C780 0.929 . S
H767 C781 0.931 . S
H768 C783 0.930 . S
C769 H757 0.930 . S
C769 C770 1.399 . S
C769 C774 1.399 . S
C770 C769 1.399 . S
C770 C771 1.376 . S
C771 H758 0.930 . S
C771 C770 1.376 . S
C771 C772 1.388 . S
C772 H759 0.930 . S
C772 C771 1.388 . S
C772 C773 1.390 . S
C773 C772 1.390 . S
C773 C774 1.394 . S
C773 C779 1.465 . S
C774 C769 1.399 . S
C774 C773 1.394 . S
C774 C775 1.516 . S
C775 C774 1.516 . S
C775 C776 1.502 . S
C775 C777 1.561 . S
C775 C778 1.526 . S
C776 H760 0.959 . S
C776 H761 0.959 . S
C776 H762 0.961 . S
C776 C775 1.502 . S
C777 H763 0.960 . S
C777 H764 0.961 . S
C777 H765 0.959 . S
C777 C775 1.561 . S
C778 C775 1.526 . S
C778 C779 1.396 . S
C778 C783 1.390 . S
C779 C773 1.465 . S
C779 C778 1.396 . S
C779 C780 1.399 . S
C780 H766 0.929 . S
C780 C779 1.399 . S
C780 C781 1.385 . S
C781 H767 0.931 . S
C781 C780 1.385 . S
C781 C782 1.389 . S
C782 C781 1.389 . S
C782 C783 1.387 . S
C783 H768 0.930 . S
C783 C778 1.390 . S
C783 C782 1.387 . S
H784 C796 0.930 . S
H785 C798 0.930 . S
H786 C799 0.930 . S
H787 C803 0.959 . S
H788 C803 0.959 . S
H789 C803 0.961 . S
H790 C804 0.960 . S
H791 C804 0.961 . S
H792 C804 0.959 . S
H793 C807 0.929 . S
H794 C808 0.931 . S
H795 C810 0.930 . S
C796 H784 0.930 . S
C796 C797 1.399 . S
C796 C801 1.399 . S
C797 C796 1.399 . S
C797 C798 1.376 . S
C798 H785 0.930 . S
C798 C797 1.376 . S
C798 C799 1.388 . S
C799 H786 0.930 . S
C799 C798 1.388 . S
C799 C800 1.390 . S
C800 C799 1.390 . S
C800 C801 1.394 . S
C800 C806 1.465 . S
C801 C796 1.399 . S
C801 C800 1.394 . S
C801 C802 1.516 . S
C802 C801 1.516 . S
C802 C803 1.502 . S
C802 C804 1.561 . S
C802 C805 1.526 . S
C803 H787 0.959 . S
C803 H788 0.959 . S
C803 H789 0.961 . S
C803 C802 1.502 . S
C804 H790 0.960 . S
C804 H791 0.961 . S
C804 H792 0.959 . S
C804 C802 1.561 . S
C805 C802 1.526 . S
C805 C806 1.396 . S
C805 C810 1.390 . S
C806 C800 1.465 . S
C806 C805 1.396 . S
C806 C807 1.399 . S
C807 H793 0.929 . S
C807 C806 1.399 . S
C807 C808 1.385 . S
C808 H794 0.931 . S
C808 C807 1.385 . S
C808 C809 1.389 . S
C809 C808 1.389 . S
C809 C810 1.387 . S
C810 H795 0.930 . S
C810 C805 1.390 . S
C810 C809 1.387 . S
H811 C823 0.930 . S
H812 C825 0.930 . S
H813 C826 0.930 . S
H814 C830 0.959 . S
H815 C830 0.959 . S
H816 C830 0.961 . S
H817 C831 0.960 . S
H818 C831 0.961 . S
H819 C831 0.959 . S
H820 C834 0.929 . S
H821 C835 0.931 . S
H822 C837 0.930 . S
C823 H811 0.930 . S
C823 C824 1.399 . S
C823 C828 1.399 . S
C824 C823 1.399 . S
C824 C825 1.376 . S
C825 H812 0.930 . S
C825 C824 1.376 . S
C825 C826 1.388 . S
C826 H813 0.930 . S
C826 C825 1.388 . S
C826 C827 1.390 . S
C827 C826 1.390 . S
C827 C828 1.394 . S
C827 C833 1.465 . S
C828 C823 1.399 . S
C828 C827 1.394 . S
C828 C829 1.516 . S
C829 C828 1.516 . S
C829 C830 1.502 . S
C829 C831 1.561 . S
C829 C832 1.526 . S
C830 H814 0.959 . S
C830 H815 0.959 . S
C830 H816 0.961 . S
C830 C829 1.502 . S
C831 H817 0.960 . S
C831 H818 0.961 . S
C831 H819 0.959 . S
C831 C829 1.561 . S
C832 C829 1.526 . S
C832 C833 1.396 . S
C832 C837 1.390 . S
C833 C827 1.465 . S
C833 C832 1.396 . S
C833 C834 1.399 . S
C834 H820 0.929 . S
C834 C833 1.399 . S
C834 C835 1.385 . S
C835 H821 0.931 . S
C835 C834 1.385 . S
C835 C836 1.389 . S
C836 C835 1.389 . S
C836 C837 1.387 . S
C837 H822 0.930 . S
C837 C832 1.390 . S
C837 C836 1.387 . S
H838 C850 0.930 . S
H839 C852 0.930 . S
H840 C853 0.930 . S
H841 C857 0.959 . S
H842 C857 0.959 . S
H843 C857 0.961 . S
H844 C858 0.960 . S
H845 C858 0.961 . S
H846 C858 0.959 . S
H847 C861 0.929 . S
H848 C862 0.931 . S
H849 C864 0.930 . S
C850 H838 0.930 . S
C850 C851 1.399 . S
C850 C855 1.399 . S
C851 C850 1.399 . S
C851 C852 1.376 . S
C852 H839 0.930 . S
C852 C851 1.376 . S
C852 C853 1.388 . S
C853 H840 0.930 . S
C853 C852 1.388 . S
C853 C854 1.390 . S
C854 C853 1.390 . S
C854 C855 1.394 . S
C854 C860 1.465 . S
C855 C850 1.399 . S
C855 C854 1.394 . S
C855 C856 1.516 . S
C856 C855 1.516 . S
C856 C857 1.502 . S
C856 C858 1.561 . S
C856 C859 1.526 . S
C857 H841 0.959 . S
C857 H842 0.959 . S
C857 H843 0.961 . S
C857 C856 1.502 . S
C858 H844 0.960 . S
C858 H845 0.961 . S
C858 H846 0.959 . S
C858 C856 1.561 . S
C859 C856 1.526 . S
C859 C860 1.396 . S
C859 C864 1.390 . S
C860 C854 1.465 . S
C860 C859 1.396 . S
C860 C861 1.399 . S
C861 H847 0.929 . S
C861 C860 1.399 . S
C861 C862 1.385 . S
C862 H848 0.931 . S
C862 C861 1.385 . S
C862 C863 1.389 . S
C863 C862 1.389 . S
C863 C864 1.387 . S
C864 H849 0.930 . S
C864 C859 1.390 . S
C864 C863 1.387 . S
H865 C877 0.930 . S
H866 C879 0.930 . S
H867 C880 0.930 . S
H868 C884 0.959 . S
H869 C884 0.959 . S
H870 C884 0.961 . S
H871 C885 0.960 . S
H872 C885 0.961 . S
H873 C885 0.959 . S
H874 C888 0.929 . S
H875 C889 0.931 . S
H876 C891 0.930 . S
C877 H865 0.930 . S
C877 C878 1.399 . S
C877 C882 1.399 . S
C878 C877 1.399 . S
C878 C879 1.376 . S
C879 H866 0.930 . S
C879 C878 1.376 . S
C879 C880 1.388 . S
C880 H867 0.930 . S
C880 C879 1.388 . S
C880 C881 1.390 . S
C881 C880 1.390 . S
C881 C882 1.394 . S
C881 C887 1.465 . S
C882 C877 1.399 . S
C882 C881 1.394 . S
C882 C883 1.516 . S
C883 C882 1.516 . S
C883 C884 1.502 . S
C883 C885 1.561 . S
C883 C886 1.526 . S
C884 H868 0.959 . S
C884 H869 0.959 . S
C884 H870 0.961 . S
C884 C883 1.502 . S
C885 H871 0.960 . S
C885 H872 0.961 . S
C885 H873 0.959 . S
C885 C883 1.561 . S
C886 C883 1.526 . S
C886 C887 1.396 . S
C886 C891 1.390 . S
C887 C881 1.465 . S
C887 C886 1.396 . S
C887 C888 1.399 . S
C888 H874 0.929 . S
C888 C887 1.399 . S
C888 C889 1.385 . S
C889 H875 0.931 . S
C889 C888 1.385 . S
C889 C890 1.389 . S
C890 C889 1.389 . S
C890 C891 1.387 . S
C891 H876 0.930 . S
C891 C886 1.390 . S
C891 C890 1.387 . S
H892 C904 0.930 . S
H893 C906 0.930 . S
H894 C907 0.930 . S
H895 C911 0.959 . S
H896 C911 0.959 . S
H897 C911 0.961 . S
H898 C912 0.960 . S
H899 C912 0.961 . S
H900 C912 0.959 . S
H901 C915 0.929 . S
H902 C916 0.931 . S
H903 C918 0.930 . S
C904 H892 0.930 . S
C904 C905 1.399 . S
C904 C909 1.399 . S
C905 C904 1.399 . S
C905 C906 1.376 . S
C906 H893 0.930 . S
C906 C905 1.376 . S
C906 C907 1.388 . S
C907 H894 0.930 . S
C907 C906 1.388 . S
C907 C908 1.390 . S
C908 C907 1.390 . S
C908 C909 1.394 . S
C908 C914 1.465 . S
C909 C904 1.399 . S
C909 C908 1.394 . S
C909 C910 1.516 . S
C910 C909 1.516 . S
C910 C911 1.502 . S
C910 C912 1.561 . S
C910 C913 1.526 . S
C911 H895 0.959 . S
C911 H896 0.959 . S
C911 H897 0.961 . S
C911 C910 1.502 . S
C912 H898 0.960 . S
C912 H899 0.961 . S
C912 H900 0.959 . S
C912 C910 1.561 . S
C913 C910 1.526 . S
C913 C914 1.396 . S
C913 C918 1.390 . S
C914 C908 1.465 . S
C914 C913 1.396 . S
C914 C915 1.399 . S
C915 H901 0.929 . S
C915 C914 1.399 . S
C915 C916 1.385 . S
C916 H902 0.931 . S
C916 C915 1.385 . S
C916 C917 1.389 . S
C917 C916 1.389 . S
C917 C918 1.387 . S
C918 H903 0.930 . S
C918 C913 1.390 . S
C918 C917 1.387 . S
H919 C931 0.930 . S
H920 C933 0.930 . S
H921 C934 0.930 . S
H922 C938 0.959 . S
H923 C938 0.959 . S
H924 C938 0.961 . S
H925 C939 0.960 . S
H926 C939 0.961 . S
H927 C939 0.959 . S
H928 C942 0.929 . S
H929 C943 0.931 . S
H930 C945 0.930 . S
C931 H919 0.930 . S
C931 C932 1.399 . S
C931 C936 1.399 . S
C932 C931 1.399 . S
C932 C933 1.376 . S
C933 H920 0.930 . S
C933 C932 1.376 . S
C933 C934 1.388 . S
C934 H921 0.930 . S
C934 C933 1.388 . S
C934 C935 1.390 . S
C935 C934 1.390 . S
C935 C936 1.394 . S
C935 C941 1.465 . S
C936 C931 1.399 . S
C936 C935 1.394 . S
C936 C937 1.516 . S
C937 C936 1.516 . S
C937 C938 1.502 . S
C937 C939 1.561 . S
C937 C940 1.526 . S
C938 H922 0.959 . S
C938 H923 0.959 . S
C938 H924 0.961 . S
C938 C937 1.502 . S
C939 H925 0.960 . S
C939 H926 0.961 . S
C939 H927 0.959 . S
C939 C937 1.561 . S
C940 C937 1.526 . S
C940 C941 1.396 . S
C940 C945 1.390 . S
C941 C935 1.465 . S
C941 C940 1.396 . S
C941 C942 1.399 . S
C942 H928 0.929 . S
C942 C941 1.399 . S
C942 C943 1.385 . S
C943 H929 0.931 . S
C943 C942 1.385 . S
C943 C944 1.389 . S
C944 C943 1.389 . S
C944 C945 1.387 . S
C945 H930 0.930 . S
C945 C940 1.390 . S
C945 C944 1.387 . S
H946 C958 0.930 . S
H947 C960 0.930 1_565 S
H948 C961 0.930 . S
H949 C965 0.959 . S
H950 C965 0.959 . S
H951 C965 0.961 . S
H952 C966 0.960 . S
H953 C966 0.961 . S
H954 C966 0.959 . S
H955 C969 0.929 . S
H956 C970 0.931 . S
H957 C972 0.930 . S
C958 H946 0.930 . S
C958 C959 1.399 . S
C958 C963 1.399 . S
C959 C958 1.399 . S
C959 C960 1.376 . S
C960 H947 0.930 1_545 S
C960 C959 1.376 . S
C960 C961 1.388 . S
C961 H948 0.930 . S
C961 C960 1.388 . S
C961 C962 1.390 . S
C962 C961 1.390 . S
C962 C963 1.394 . S
C962 C968 1.465 . S
C963 C958 1.399 . S
C963 C962 1.394 . S
C963 C964 1.516 . S
C964 C963 1.516 . S
C964 C965 1.502 . S
C964 C966 1.561 . S
C964 C967 1.526 . S
C965 H949 0.959 . S
C965 H950 0.959 . S
C965 H951 0.961 . S
C965 C964 1.502 . S
C966 H952 0.960 . S
C966 H953 0.961 . S
C966 H954 0.959 . S
C966 C964 1.561 . S
C967 C964 1.526 . S
C967 C968 1.396 . S
C967 C972 1.390 . S
C968 C962 1.465 . S
C968 C967 1.396 . S
C968 C969 1.399 . S
C969 H955 0.929 . S
C969 C968 1.399 . S
C969 C970 1.385 . S
C970 H956 0.931 . S
C970 C969 1.385 . S
C970 C971 1.389 . S
C971 C970 1.389 . S
C971 C972 1.387 . S
C972 H957 0.930 . S
C972 C967 1.390 . S
C972 C971 1.387 . S
H973 C985 0.930 . S
H974 C987 0.930 . S
H975 C988 0.930 . S
H976 C992 0.959 . S
H977 C992 0.959 . S
H978 C992 0.961 . S
H979 C993 0.960 . S
H980 C993 0.961 . S
H981 C993 0.959 . S
H982 C996 0.929 . S
H983 C997 0.931 . S
H984 C999 0.930 . S
C985 H973 0.930 . S
C985 C986 1.399 . S
C985 C990 1.399 . S
C986 C985 1.399 . S
C986 C987 1.376 . S
C987 H974 0.930 . S
C987 C986 1.376 . S
C987 C988 1.388 . S
C988 H975 0.930 . S
C988 C987 1.388 . S
C988 C989 1.390 . S
C989 C988 1.390 . S
C989 C990 1.394 . S
C989 C995 1.465 . S
C990 C985 1.399 . S
C990 C989 1.394 . S
C990 C991 1.516 . S
C991 C990 1.516 . S
C991 C992 1.502 . S
C991 C993 1.561 . S
C991 C994 1.526 . S
C992 H976 0.959 . S
C992 H977 0.959 . S
C992 H978 0.961 . S
C992 C991 1.502 . S
C993 H979 0.960 . S
C993 H980 0.961 . S
C993 H981 0.959 . S
C993 C991 1.561 . S
C994 C991 1.526 . S
C994 C995 1.396 . S
C994 C999 1.390 . S
C995 C989 1.465 . S
C995 C994 1.396 . S
C995 C996 1.399 . S
C996 H982 0.929 . S
C996 C995 1.399 . S
C996 C997 1.385 . S
C997 H983 0.931 . S
C997 C996 1.385 . S
C997 C998 1.389 . S
C998 C997 1.389 . S
C998 C999 1.387 . S
C999 H984 0.930 . S
C999 C994 1.390 . S
C999 C998 1.387 . S
H1000 C1012 0.930 . S
H1001 C1014 0.930 . S
H1002 C1015 0.930 . S
H1003 C1019 0.959 . S
H1004 C1019 0.959 . S
H1005 C1019 0.961 . S
H1006 C1020 0.960 . S
H1007 C1020 0.961 . S
H1008 C1020 0.959 . S
H1009 C1023 0.929 . S
H1010 C1024 0.931 . S
H1011 C1026 0.930 . S
C1012 H1000 0.930 . S
C1012 C1013 1.399 . S
C1012 C1017 1.399 . S
C1013 C1012 1.399 . S
C1013 C1014 1.376 . S
C1014 H1001 0.930 . S
C1014 C1013 1.376 . S
C1014 C1015 1.388 . S
C1015 H1002 0.930 . S
C1015 C1014 1.388 . S
C1015 C1016 1.390 . S
C1016 C1015 1.390 . S
C1016 C1017 1.394 . S
C1016 C1022 1.465 . S
C1017 C1012 1.399 . S
C1017 C1016 1.394 . S
C1017 C1018 1.516 . S
C1018 C1017 1.516 . S
C1018 C1019 1.502 . S
C1018 C1020 1.561 . S
C1018 C1021 1.526 . S
C1019 H1003 0.959 . S
C1019 H1004 0.959 . S
C1019 H1005 0.961 . S
C1019 C1018 1.502 . S
C1020 H1006 0.960 . S
C1020 H1007 0.961 . S
C1020 H1008 0.959 . S
C1020 C1018 1.561 . S
C1021 C1018 1.526 . S
C1021 C1022 1.396 . S
C1021 C1026 1.390 . S
C1022 C1016 1.465 . S
C1022 C1021 1.396 . S
C1022 C1023 1.399 . S
C1023 H1009 0.929 . S
C1023 C1022 1.399 . S
C1023 C1024 1.385 . S
C1024 H1010 0.931 . S
C1024 C1023 1.385 . S
C1024 C1025 1.389 . S
C1025 C1024 1.389 . S
C1025 C1026 1.387 . S
C1026 H1011 0.930 . S
C1026 C1021 1.390 . S
C1026 C1025 1.387 . S
H1027 C1039 0.930 . S
H1028 C1041 0.930 . S
H1029 C1042 0.930 . S
H1030 C1046 0.959 . S
H1031 C1046 0.959 . S
H1032 C1046 0.961 . S
H1033 C1047 0.960 . S
H1034 C1047 0.961 . S
H1035 C1047 0.959 . S
H1036 C1050 0.929 . S
H1037 C1051 0.931 . S
H1038 C1053 0.930 . S
C1039 H1027 0.930 . S
C1039 C1040 1.399 . S
C1039 C1044 1.399 . S
C1040 C1039 1.399 . S
C1040 C1041 1.376 . S
C1041 H1028 0.930 . S
C1041 C1040 1.376 . S
C1041 C1042 1.388 . S
C1042 H1029 0.930 . S
C1042 C1041 1.388 . S
C1042 C1043 1.390 . S
C1043 C1042 1.390 . S
C1043 C1044 1.394 . S
C1043 C1049 1.465 . S
C1044 C1039 1.399 . S
C1044 C1043 1.394 . S
C1044 C1045 1.516 . S
C1045 C1044 1.516 . S
C1045 C1046 1.502 . S
C1045 C1047 1.561 . S
C1045 C1048 1.526 . S
C1046 H1030 0.959 . S
C1046 H1031 0.959 . S
C1046 H1032 0.961 . S
C1046 C1045 1.502 . S
C1047 H1033 0.960 . S
C1047 H1034 0.961 . S
C1047 H1035 0.959 . S
C1047 C1045 1.561 . S
C1048 C1045 1.526 . S
C1048 C1049 1.396 . S
C1048 C1053 1.390 . S
C1049 C1043 1.465 . S
C1049 C1048 1.396 . S
C1049 C1050 1.399 . S
C1050 H1036 0.929 . S
C1050 C1049 1.399 . S
C1050 C1051 1.385 . S
C1051 H1037 0.931 . S
C1051 C1050 1.385 . S
C1051 C1052 1.389 . S
C1052 C1051 1.389 . S
C1052 C1053 1.387 . S
C1053 H1038 0.930 . S
C1053 C1048 1.390 . S
C1053 C1052 1.387 . S
H1054 C1066 0.930 . S
H1055 C1068 0.930 . S
H1056 C1069 0.930 . S
H1057 C1073 0.959 . S
H1058 C1073 0.959 . S
H1059 C1073 0.961 . S
H1060 C1074 0.960 . S
H1061 C1074 0.961 . S
H1062 C1074 0.959 . S
H1063 C1077 0.929 . S
H1064 C1078 0.931 . S
H1065 C1080 0.930 . S
C1066 H1054 0.930 . S
C1066 C1067 1.399 . S
C1066 C1071 1.399 . S
C1067 C1066 1.399 . S
C1067 C1068 1.376 . S
C1068 H1055 0.930 . S
C1068 C1067 1.376 . S
C1068 C1069 1.388 . S
C1069 H1056 0.930 . S
C1069 C1068 1.388 . S
C1069 C1070 1.390 . S
C1070 C1069 1.390 . S
C1070 C1071 1.394 . S
C1070 C1076 1.465 . S
C1071 C1066 1.399 . S
C1071 C1070 1.394 . S
C1071 C1072 1.516 . S
C1072 C1071 1.516 . S
C1072 C1073 1.502 . S
C1072 C1074 1.561 . S
C1072 C1075 1.526 . S
C1073 H1057 0.959 . S
C1073 H1058 0.959 . S
C1073 H1059 0.961 . S
C1073 C1072 1.502 . S
C1074 H1060 0.960 . S
C1074 H1061 0.961 . S
C1074 H1062 0.959 . S
C1074 C1072 1.561 . S
C1075 C1072 1.526 . S
C1075 C1076 1.396 . S
C1075 C1080 1.390 . S
C1076 C1070 1.465 . S
C1076 C1075 1.396 . S
C1076 C1077 1.399 . S
C1077 H1063 0.929 . S
C1077 C1076 1.399 . S
C1077 C1078 1.385 . S
C1078 H1064 0.931 . S
C1078 C1077 1.385 . S
C1078 C1079 1.389 . S
C1079 C1078 1.389 . S
C1079 C1080 1.387 . S
C1080 H1065 0.930 . S
C1080 C1075 1.390 . S
C1080 C1079 1.387 . S
H1081 C1093 0.930 . S
H1082 C1095 0.930 . S
H1083 C1096 0.930 . S
H1084 C1100 0.959 . S
H1085 C1100 0.959 . S
H1086 C1100 0.961 . S
H1087 C1101 0.960 . S
H1088 C1101 0.961 . S
H1089 C1101 0.959 . S
H1090 C1104 0.929 . S
H1091 C1105 0.931 . S
H1092 C1107 0.930 . S
C1093 H1081 0.930 . S
C1093 C1094 1.399 . S
C1093 C1098 1.399 . S
C1094 C1093 1.399 . S
C1094 C1095 1.376 . S
C1095 H1082 0.930 . S
C1095 C1094 1.376 . S
C1095 C1096 1.388 . S
C1096 H1083 0.930 . S
C1096 C1095 1.388 . S
C1096 C1097 1.390 . S
C1097 C1096 1.390 . S
C1097 C1098 1.394 . S
C1097 C1103 1.465 . S
C1098 C1093 1.399 . S
C1098 C1097 1.394 . S
C1098 C1099 1.516 . S
C1099 C1098 1.516 . S
C1099 C1100 1.502 . S
C1099 C1101 1.561 . S
C1099 C1102 1.526 . S
C1100 H1084 0.959 . S
C1100 H1085 0.959 . S
C1100 H1086 0.961 . S
C1100 C1099 1.502 . S
C1101 H1087 0.960 . S
C1101 H1088 0.961 . S
C1101 H1089 0.959 . S
C1101 C1099 1.561 . S
C1102 C1099 1.526 . S
C1102 C1103 1.396 . S
C1102 C1107 1.390 . S
C1103 C1097 1.465 . S
C1103 C1102 1.396 . S
C1103 C1104 1.399 . S
C1104 H1090 0.929 . S
C1104 C1103 1.399 . S
C1104 C1105 1.385 . S
C1105 H1091 0.931 . S
C1105 C1104 1.385 . S
C1105 C1106 1.389 . S
C1106 C1105 1.389 . S
C1106 C1107 1.387 . S
C1107 H1092 0.930 . S
C1107 C1102 1.390 . S
C1107 C1106 1.387 . S
H1108 C1120 0.930 . S
H1109 C1122 0.930 . S
H1110 C1123 0.930 . S
H1111 C1127 0.959 . S
H1112 C1127 0.959 . S
H1113 C1127 0.961 . S
H1114 C1128 0.960 . S
H1115 C1128 0.961 . S
H1116 C1128 0.959 . S
H1117 C1131 0.929 . S
H1118 C1132 0.931 . S
H1119 C1134 0.930 . S
C1120 H1108 0.930 . S
C1120 C1121 1.399 . S
C1120 C1125 1.399 . S
C1121 C1120 1.399 . S
C1121 C1122 1.376 . S
C1122 H1109 0.930 . S
C1122 C1121 1.376 . S
C1122 C1123 1.388 . S
C1123 H1110 0.930 . S
C1123 C1122 1.388 . S
C1123 C1124 1.390 . S
C1124 C1123 1.390 . S
C1124 C1125 1.394 . S
C1124 C1130 1.465 . S
C1125 C1120 1.399 . S
C1125 C1124 1.394 . S
C1125 C1126 1.516 . S
C1126 C1125 1.516 . S
C1126 C1127 1.502 . S
C1126 C1128 1.561 . S
C1126 C1129 1.526 . S
C1127 H1111 0.959 . S
C1127 H1112 0.959 . S
C1127 H1113 0.961 . S
C1127 C1126 1.502 . S
C1128 H1114 0.960 . S
C1128 H1115 0.961 . S
C1128 H1116 0.959 . S
C1128 C1126 1.561 . S
C1129 C1126 1.526 . S
C1129 C1130 1.396 . S
C1129 C1134 1.390 . S
C1130 C1124 1.465 . S
C1130 C1129 1.396 . S
C1130 C1131 1.399 . S
C1131 H1117 0.929 . S
C1131 C1130 1.399 . S
C1131 C1132 1.385 . S
C1132 H1118 0.931 . S
C1132 C1131 1.385 . S
C1132 C1133 1.389 . S
C1133 C1132 1.389 . S
C1133 C1134 1.387 . S
C1134 H1119 0.930 . S
C1134 C1129 1.390 . S
C1134 C1133 1.387 . S
H1135 C1147 0.930 . S
H1136 C1149 0.930 . S
H1137 C1150 0.930 . S
H1138 C1154 0.959 . S
H1139 C1154 0.959 . S
H1140 C1154 0.961 . S
H1141 C1155 0.960 . S
H1142 C1155 0.961 . S
H1143 C1155 0.959 . S
H1144 C1158 0.929 . S
H1145 C1159 0.931 . S
H1146 C1161 0.930 . S
C1147 H1135 0.930 . S
C1147 C1148 1.399 . S
C1147 C1152 1.399 . S
C1148 C1147 1.399 . S
C1148 C1149 1.376 . S
C1149 H1136 0.930 . S
C1149 C1148 1.376 . S
C1149 C1150 1.388 . S
C1150 H1137 0.930 . S
C1150 C1149 1.388 . S
C1150 C1151 1.390 . S
C1151 C1150 1.390 . S
C1151 C1152 1.394 . S
C1151 C1157 1.465 . S
C1152 C1147 1.399 . S
C1152 C1151 1.394 . S
C1152 C1153 1.516 . S
C1153 C1152 1.516 . S
C1153 C1154 1.502 . S
C1153 C1155 1.561 . S
C1153 C1156 1.526 . S
C1154 H1138 0.959 . S
C1154 H1139 0.959 . S
C1154 H1140 0.961 . S
C1154 C1153 1.502 . S
C1155 H1141 0.960 . S
C1155 H1142 0.961 . S
C1155 H1143 0.959 . S
C1155 C1153 1.561 . S
C1156 C1153 1.526 . S
C1156 C1157 1.396 . S
C1156 C1161 1.390 . S
C1157 C1151 1.465 . S
C1157 C1156 1.396 . S
C1157 C1158 1.399 . S
C1158 H1144 0.929 . S
C1158 C1157 1.399 . S
C1158 C1159 1.385 . S
C1159 H1145 0.931 . S
C1159 C1158 1.385 . S
C1159 C1160 1.389 . S
C1160 C1159 1.389 . S
C1160 C1161 1.387 . S
C1161 H1146 0.930 . S
C1161 C1156 1.390 . S
C1161 C1160 1.387 . S
H1162 C1174 0.930 . S
H1163 C1176 0.930 . S
H1164 C1177 0.930 . S
H1165 C1181 0.959 . S
H1166 C1181 0.959 . S
H1167 C1181 0.961 . S
H1168 C1182 0.960 . S
H1169 C1182 0.961 . S
H1170 C1182 0.959 . S
H1171 C1185 0.929 . S
H1172 C1186 0.931 . S
H1173 C1188 0.930 . S
C1174 H1162 0.930 . S
C1174 C1175 1.399 . S
C1174 C1179 1.399 . S
C1175 C1174 1.399 . S
C1175 C1176 1.376 . S
C1176 H1163 0.930 . S
C1176 C1175 1.376 . S
C1176 C1177 1.388 . S
C1177 H1164 0.930 . S
C1177 C1176 1.388 . S
C1177 C1178 1.390 . S
C1178 C1177 1.390 . S
C1178 C1179 1.394 . S
C1178 C1184 1.465 . S
C1179 C1174 1.399 . S
C1179 C1178 1.394 . S
C1179 C1180 1.516 . S
C1180 C1179 1.516 . S
C1180 C1181 1.502 . S
C1180 C1182 1.561 . S
C1180 C1183 1.526 . S
C1181 H1165 0.959 . S
C1181 H1166 0.959 . S
C1181 H1167 0.961 . S
C1181 C1180 1.502 . S
C1182 H1168 0.960 . S
C1182 H1169 0.961 . S
C1182 H1170 0.959 . S
C1182 C1180 1.561 . S
C1183 C1180 1.526 . S
C1183 C1184 1.396 . S
C1183 C1188 1.390 . S
C1184 C1178 1.465 . S
C1184 C1183 1.396 . S
C1184 C1185 1.399 . S
C1185 H1171 0.929 . S
C1185 C1184 1.399 . S
C1185 C1186 1.385 . S
C1186 H1172 0.931 . S
C1186 C1185 1.385 . S
C1186 C1187 1.389 . S
C1187 C1186 1.389 . S
C1187 C1188 1.387 . S
C1188 H1173 0.930 . S
C1188 C1183 1.390 . S
C1188 C1187 1.387 . S
H1189 C1201 0.930 . S
H1190 C1203 0.930 . S
H1191 C1204 0.930 . S
H1192 C1208 0.959 . S
H1193 C1208 0.959 . S
H1194 C1208 0.961 . S
H1195 C1209 0.960 . S
H1196 C1209 0.961 . S
H1197 C1209 0.959 . S
H1198 C1212 0.929 . S
H1199 C1213 0.931 . S
H1200 C1215 0.930 . S
C1201 H1189 0.930 . S
C1201 C1202 1.399 . S
C1201 C1206 1.399 . S
C1202 C1201 1.399 . S
C1202 C1203 1.376 . S
C1203 H1190 0.930 . S
C1203 C1202 1.376 . S
C1203 C1204 1.388 . S
C1204 H1191 0.930 . S
C1204 C1203 1.388 . S
C1204 C1205 1.390 . S
C1205 C1204 1.390 . S
C1205 C1206 1.394 . S
C1205 C1211 1.465 . S
C1206 C1201 1.399 . S
C1206 C1205 1.394 . S
C1206 C1207 1.516 . S
C1207 C1206 1.516 . S
C1207 C1208 1.502 . S
C1207 C1209 1.561 . S
C1207 C1210 1.526 . S
C1208 H1192 0.959 . S
C1208 H1193 0.959 . S
C1208 H1194 0.961 . S
C1208 C1207 1.502 . S
C1209 H1195 0.960 . S
C1209 H1196 0.961 . S
C1209 H1197 0.959 . S
C1209 C1207 1.561 . S
C1210 C1207 1.526 . S
C1210 C1211 1.396 . S
C1210 C1215 1.390 . S
C1211 C1205 1.465 . S
C1211 C1210 1.396 . S
C1211 C1212 1.399 . S
C1212 H1198 0.929 . S
C1212 C1211 1.399 . S
C1212 C1213 1.385 . S
C1213 H1199 0.931 . S
C1213 C1212 1.385 . S
C1213 C1214 1.389 . S
C1214 C1213 1.389 . S
C1214 C1215 1.387 . S
C1215 H1200 0.930 . S
C1215 C1210 1.390 . S
C1215 C1214 1.387 . S
C581 C31 1.477 . S
C593 C506 1.501 . S
C620 C484 1.538 . S
C608 C61 1.474 . S
C647 C510 1.539 . S
C635 C151 1.447 . S
C674 C488 1.530 . S
C662 C181 1.553 . S
C701 C550 1.499 . S
C689 C271 1.540 . S
C728 C528 1.544 . S
C716 C301 1.484 . S
C743 C391 1.447 . S
C755 C554 1.532 . S
C782 C532 1.540 . S
C770 C421 1.530 . S
C797 C20 1.567 . S
C809 C555 1.565 . S
C836 C533 1.559 . S
C824 C91 1.512 . S
C851 C121 1.506 . S
C863 C552 1.565 . S
C878 C211 1.569 . S
C890 C530 1.556 . S
C917 C511 1.553 . S
C905 C260 1.560 1_545 S
C932 C331 1.563 1_565 S
C944 C489 1.555 . S
C971 C508 1.558 . S
C959 C361 1.490 1_545 S
C998 C486 1.548 . S
C986 C451 1.551 1_565 S
C1025 C529 1.551 . S
C1013 C1 1.490 . S
C1052 C551 1.525 . S
C1040 C80 1.434 . S
C1067 C140 1.485 . S
C1079 C531 1.550 . S
C1106 C553 1.538 . S
C1094 C200 1.506 . S
C1133 C485 1.515 . S
C1121 C241 1.410 . S
C1148 C320 1.404 . S
C1160 C507 1.514 . S
C1175 C380 1.518 . S
C1187 C487 1.547 . S
C1202 C440 1.516 . S
C1214 C509 1.550 . S
