# Generated by pormake.
# Topology rtl, (3,6)-cn, num edge types: 1
# Building blocks:
#     Node 0, Type 0, BuildingBlock: CUQRIR_clean_linker_1, # of connection points: 3
#     Node 1, Type 0, BuildingBlock: CUQRIR_clean_linker_1, # of connection points: 3
#     Node 2, Type 0, BuildingBlock: CUQRIR_clean_linker_1, # of connection points: 3
#     Node 3, Type 0, BuildingBlock: CUQRIR_clean_linker_1, # of connection points: 3
#     Node 4, Type 1, BuildingBlock: KUMJIN_clean_sbu_1, # of connection points: 6
#     Node 5, Type 1, BuildingBlock: KUMJIN_clean_sbu_1, # of connection points: 6
#     Edge 6, Type (0, 1), BuildingBlock: UVAHIK_clean_linker_0, # of connection points: 2
#     Edge 7, Type (0, 1), BuildingBlock: UVAHIK_clean_linker_0, # of connection points: 2
#     Edge 8, Type (0, 1), BuildingBlock: UVAHIK_clean_linker_0, # of connection points: 2
#     Edge 9, Type (0, 1), BuildingBlock: UVAHIK_clean_linker_0, # of connection points: 2
#     Edge 10, Type (0, 1), BuildingBlock: UVAHIK_clean_linker_0, # of connection points: 2
#     Edge 11, Type (0, 1), BuildingBlock: UVAHIK_clean_linker_0, # of connection points: 2
#     Edge 12, Type (0, 1), BuildingBlock: UVAHIK_clean_linker_0, # of connection points: 2
#     Edge 13, Type (0, 1), BuildingBlock: UVAHIK_clean_linker_0, # of connection points: 2
#     Edge 14, Type (0, 1), BuildingBlock: UVAHIK_clean_linker_0, # of connection points: 2
#     Edge 15, Type (0, 1), BuildingBlock: UVAHIK_clean_linker_0, # of connection points: 2
#     Edge 16, Type (0, 1), BuildingBlock: UVAHIK_clean_linker_0, # of connection points: 2
#     Edge 17, Type (0, 1), BuildingBlock: UVAHIK_clean_linker_0, # of connection points: 2
# Relax obj value: 0.062
# Max RMSD: 0.212
# Mean RMSD: 0.168
data_MOF--net-rtl--node1-KUMJIN_clean_sbu_1--node2-CUQRIR_clean_linker_1--edge1-UVAHIK_clean_linker_0
_symmetry_space_group_name_H-M    P1
_symmetry_Int_Tables_number       1
_symmetry_cell_setting            triclinic
loop_
_symmetry_equiv_pos_as_xyz
'x, y, z'
_cell_length_a     43.119163
_cell_length_b     43.180142
_cell_length_c     32.10575
_cell_angle_alpha  79.499506
_cell_angle_beta   99.239247
_cell_angle_gamma 90.997389
loop_
_atom_site_label
_atom_site_type_symbol
_atom_site_fract_x
_atom_site_fract_y
_atom_site_fract_z
_atom_type_partial_charge
C0 C 0.22952 0.80219 1.00272 0.0
N1 N 0.20939 0.82294 0.01145 0.0
N2 N 0.2487 0.78883 0.039 0.0
C3 C 0.23079 0.79514 0.95876 0.0
C4 C 0.23954 0.80235 0.07009 0.0
N5 N 0.21581 0.82333 0.05319 0.0
C6 C 0.25302 0.79421 0.117 0.0
H7 H 0.23798 0.77029 0.96089 0.0
H8 H 0.24842 0.81062 0.94405 0.0
H9 H 0.20792 0.7996 0.93728 0.0
H10 H 0.27719 0.78438 0.12174 0.0
H11 H 0.23792 0.77634 0.13308 0.0
H12 H 0.25356 0.81511 0.13259 0.0
C13 C 0.71811 0.72041 0.65375 0.0
N14 N 0.69562 0.69965 0.64293 0.0
N15 N 0.72706 0.73779 0.61816 0.0
C16 C 0.72995 0.72505 0.69884 0.0
C17 C 0.70922 0.72685 0.58533 0.0
N18 N 0.68983 0.70395 0.60033 0.0
C19 C 0.71281 0.73658 0.53887 0.0
H20 H 0.73888 0.74926 0.69925 0.0
H21 H 0.74946 0.70807 0.71311 0.0
H22 H 0.71108 0.72057 0.7189 0.0
H23 H 0.73658 0.74599 0.53562 0.0
H24 H 0.69518 0.75526 0.52331 0.0
H25 H 0.70873 0.7164 0.52175 0.0
C26 C 0.77891 0.19139 0.08643 0.0
N27 N 0.80127 0.17428 0.07553 0.0
N28 N 0.76261 0.20957 0.05121 0.0
C29 C 0.77392 0.19136 0.13174 0.0
C30 C 0.77604 0.20303 0.01835 0.0
N31 N 0.79986 0.18174 0.03325 0.0
C32 C 0.76664 0.21824 0.97209 0.0
H33 H 0.74949 0.19853 0.13267 0.0
H34 H 0.79031 0.2083 0.14557 0.0
H35 H 0.77899 0.16771 0.15188 0.0
H36 H 0.78124 0.23937 0.96504 0.0
H37 H 0.74168 0.22592 0.96515 0.0
H38 H 0.77053 0.20181 0.95053 0.0
C39 C 0.31054 0.28925 0.42919 0.0
N40 N 0.33362 0.30985 0.43869 0.0
N41 N 0.30182 0.27282 0.4655 0.0
C42 C 0.298 0.28345 0.38482 0.0
C43 C 0.32039 0.284 0.49746 0.0
N44 N 0.33992 0.30629 0.48125 0.0
C45 C 0.31772 0.27483 0.54427 0.0
H46 H 0.27853 0.3004 0.37017 0.0
H47 H 0.28869 0.25925 0.38592 0.0
H48 H 0.31657 0.28689 0.36423 0.0
H49 H 0.2941 0.26546 0.5486 0.0
H50 H 0.32229 0.29527 0.56081 0.0
H51 H 0.3355 0.25622 0.55958 0.0
Eu52 Eu 0.03453 0.97443 0.51909 0.0
C53 C 0.96528 0.10349 0.50364 0.0
N54 N 0.99133 0.09324 0.53247 0.0
C55 C 0.01446 0.14416 0.51853 0.0
C56 C 0.96322 0.13455 0.4802 0.0
C57 C 0.01555 0.11308 0.54073 0.0
C58 C 0.98827 0.15491 0.48794 0.0
C59 C 0.91399 0.09226 0.46618 0.0
C60 C 0.94098 0.08249 0.49665 0.0
C61 C 0.91196 0.12313 0.44258 0.0
C62 C 0.93648 0.14421 0.44959 0.0
Eu63 Eu 0.9921 0.04006 0.56671 0.0
N64 N 0.94408 0.05235 0.51889 0.0
C65 C 0.88981 0.07071 0.4603 0.0
C66 C 0.91975 0.03191 0.51505 0.0
C67 C 0.89253 0.04056 0.48529 0.0
H68 H 0.03552 0.10499 0.56487 0.0
H69 H 0.87353 0.02403 0.48194 0.0
H70 H 0.99356 0.90826 0.53661 0.0
H71 H 0.15736 0.99764 0.58118 0.0
H72 H 0.92071 0.00916 0.53533 0.0
H73 H 0.86871 0.07729 0.43719 0.0
H74 H 0.1071 0.00774 0.5328 0.0
H75 H 0.03381 0.1598 0.52503 0.0
H76 H 0.89149 0.13095 0.41886 0.0
H77 H 0.93456 0.16794 0.43112 0.0
H78 H 0.99948 0.85573 0.58331 0.0
H79 H 0.98757 0.17896 0.47061 0.0
H80 H 0.16589 0.948 0.63403 0.0
N81 N 0.03897 0.92323 0.56055 0.0
C82 C 0.0668 0.91545 0.58681 0.0
C83 C 0.01853 0.87236 0.58476 0.0
C84 C 0.07123 0.88578 0.61403 0.0
C85 C 0.01512 0.90215 0.55863 0.0
C86 C 0.04664 0.86418 0.61276 0.0
N87 N 0.08531 0.96642 0.56132 0.0
C88 C 0.10948 0.98702 0.55734 0.0
C89 C 0.11942 0.93044 0.61497 0.0
C90 C 0.09048 0.93775 0.58754 0.0
C91 C 0.14332 0.95273 0.61353 0.0
C92 C 0.13851 0.98088 0.58398 0.0
H93 H 0.04914 0.84115 0.63319 0.0
H94 H 0.10354 0.85617 0.66331 0.0
H95 H 0.14578 0.89515 0.66393 0.0
O96 O 0.0619 0.97879 0.46655 0.0
O97 O 0.03061 0.96578 0.59006 0.0
O98 O 0.03541 0.01493 0.60745 0.0
O99 O 0.03251 0.93845 0.47888 0.0
O100 O 0.05297 0.02485 0.50927 0.0
O101 O 0.04463 0.04555 0.5683 0.0
O102 O 0.95966 0.03468 0.61315 0.0
O103 O 0.99526 0.0489 0.49542 0.0
O104 O 0.99116 0.99952 0.47868 0.0
O105 O 0.99374 0.07169 0.61322 0.0
O106 O 0.97303 0.98991 0.57597 0.0
O107 O 0.98211 0.96853 0.51779 0.0
C108 C 0.03984 0.98433 0.61757 0.0
C109 C 0.03882 0.9569 0.40707 0.0
C110 C 0.04674 0.95073 0.33528 0.0
C111 C 0.01677 0.96417 0.31874 0.0
C112 C 0.00895 0.96993 0.38987 0.0
C113 C 0.99807 0.97367 0.34592 0.0
C114 C 0.05765 0.94726 0.37975 0.0
C115 C 0.05953 0.04518 0.53558 0.0
C116 C 0.05051 0.95352 0.45336 0.0
C117 C 0.09978 0.87877 0.64197 0.0
C118 C 0.12379 0.90102 0.64244 0.0
C119 C 0.98715 0.0301 0.46784 0.0
C120 C 0.97936 0.04851 0.67974 0.0
C121 C 0.96868 0.05325 0.75083 0.0
C122 C 0.99168 0.02988 0.76924 0.0
C123 C 1.00197 0.02514 0.69886 0.0
C124 C 0.96282 0.0627 0.70581 0.0
C125 C 0.00824 0.01602 0.74335 0.0
C126 C 0.96699 0.96916 0.55022 0.0
C127 C 0.97204 0.05695 0.63265 0.0
H128 H 0.0075 0.96677 0.28486 0.0
H129 H 0.99402 0.97701 0.41049 0.0
H130 H 0.97496 0.98376 0.33292 0.0
H131 H 0.08081 0.93734 0.39309 0.0
H132 H 0.99696 0.02242 0.80373 0.0
H133 H 0.01448 0.01373 0.67928 0.0
H134 H 0.94492 0.08039 0.69105 0.0
H135 H 0.02581 0.99796 0.75777 0.0
Eu136 Eu 0.47903 0.49362 0.99311 0.0
C137 C 0.59027 0.57509 0.02451 0.0
N138 N 0.59102 0.54494 0.04602 0.0
C139 C 0.64149 0.53651 0.02753 0.0
C140 C 0.6148 0.58684 1.00206 0.0
C141 C 0.61642 0.5258 0.04887 0.0
C142 C 0.64052 0.56706 1.00361 0.0
C143 C 0.56408 0.62601 1.00451 0.0
C144 C 0.56503 0.59425 0.02546 0.0
C145 C 0.58764 0.63743 0.98031 0.0
C146 C 0.61295 0.61788 0.9791 0.0
Eu147 Eu 0.54733 0.52778 0.0794 0.0
N148 N 0.54262 0.5825 0.04923 0.0
C149 C 0.54024 0.64572 0.01002 0.0
C150 C 0.52173 0.6026 0.05869 0.0
C151 C 0.51949 0.63415 0.03818 0.0
H152 H 0.61686 0.502 0.0668 0.0
H153 H 0.50213 0.64965 0.04472 0.0
H154 H 0.44142 0.55833 0.93518 0.0
H155 H 0.42856 0.38167 0.05769 0.0
H156 H 0.50695 0.59469 0.08254 0.0
H157 H 0.53868 0.67025 0.99452 0.0
H158 H 0.46996 0.41691 0.031 0.0
H159 H 0.66137 0.52113 0.02919 0.0
H160 H 0.58701 0.66162 0.9635 0.0
H161 H 0.6313 0.62718 0.96105 0.0
H162 H 0.38841 0.58288 0.92316 0.0
H163 H 0.65982 0.57521 0.98675 0.0
H164 H 0.37548 0.40323 0.05624 0.0
N165 N 0.42863 0.51726 0.97581 0.0
C166 C 0.40511 0.50046 0.99221 0.0
C167 C 0.39283 0.55975 0.94285 0.0
C168 C 0.37447 0.51318 0.98572 0.0
C169 C 0.42276 0.5459 0.94979 0.0
C170 C 0.36869 0.54353 0.9615 0.0
N171 N 0.44065 0.45774 0.01637 0.0
C172 C 0.44673 0.42627 0.03024 0.0
C173 C 0.3869 0.45051 0.02735 0.0
C174 C 0.41124 0.46962 0.01283 0.0
C175 C 0.39352 0.41868 0.04462 0.0
C176 C 0.42344 0.4064 0.04541 0.0
H177 H 0.34549 0.55422 0.95589 0.0
H178 H 0.32683 0.5043 0.99802 0.0
H179 H 0.33772 0.44936 0.03443 0.0
O180 O 0.50385 0.47573 0.94782 0.0
O181 O 0.4769 0.47335 0.06295 0.0
O182 O 0.51322 0.49496 0.11219 0.0
O183 O 0.45353 0.48257 0.9333 0.0
O184 O 0.51878 0.45914 0.02488 0.0
O185 O 0.5571 0.47743 0.07531 0.0
O186 O 0.56059 0.55233 0.13376 0.0
O187 O 0.55369 0.5198 0.01268 0.0
O188 O 0.50671 0.53707 0.97349 0.0
O189 O 0.58523 0.51006 0.13156 0.0
O190 O 0.49611 0.54071 0.07711 0.0
O191 O 0.48132 0.54336 1.00551 0.0
C192 C 0.48962 0.47632 0.10219 0.0
C193 C 0.48075 0.48875 0.87466 0.0
C194 C 0.47349 0.4835 0.79912 0.0
C195 C 0.4826 0.51506 0.78853 0.0
C196 C 0.48899 0.5203 0.86326 0.0
C197 C 0.49032 0.53326 0.82046 0.0
C198 C 0.47301 0.47044 0.84261 0.0
C199 C 0.54499 0.45589 0.05321 0.0
C200 C 0.47862 0.47506 0.9195 0.0
C201 C 0.35047 0.49483 1.00226 0.0
C202 C 0.35666 0.46354 0.02298 0.0
C203 C 0.53725 0.53491 0.97699 0.0
C204 C 0.57763 0.5185 0.19998 0.0
C205 C 0.57989 0.52676 0.27392 0.0
C206 C 0.57128 0.49516 0.28571 0.0
C207 C 0.5693 0.48701 0.2128 0.0
C208 C 0.58294 0.53828 0.2307 0.0
C209 C 0.566 0.47554 0.25532 0.0
C210 C 0.4755 0.54899 0.04217 0.0
C211 C 0.58073 0.53076 0.15475 0.0
H212 H 0.48292 0.526 0.75546 0.0
H213 H 0.49391 0.53492 0.88739 0.0
H214 H 0.49681 0.55765 0.81191 0.0
H215 H 0.46645 0.44608 0.85163 0.0
H216 H 0.56923 0.48535 0.31867 0.0
H217 H 0.56552 0.4712 0.18997 0.0
H218 H 0.58919 0.56263 0.2208 0.0
H219 H 0.55957 0.45123 0.26484 0.0
C220 C 0.28524 0.21895 0.49228 0.0
C221 C 0.27771 0.24949 0.46952 0.0
C222 C 0.26165 0.19661 0.49787 0.0
C223 C 0.17775 0.18957 0.50356 0.0
H224 H 0.18733 0.10465 0.4833 0.0
C225 C 0.0968 0.08661 0.55884 0.0
C226 C 0.08474 0.06846 0.52784 0.0
C227 C 0.12015 0.10887 0.55104 0.0
C228 C 0.18431 0.1283 0.48899 0.0
H229 H 0.24011 0.28095 0.43476 0.0
H230 H 0.19847 0.242 0.44496 0.0
H231 H 0.22848 0.14331 0.47005 0.0
H232 H 0.08844 0.05912 0.46461 0.0
H233 H 0.12972 0.09738 0.45161 0.0
H234 H 0.13377 0.17444 0.52302 0.0
C235 C 0.2226 0.23524 0.45832 0.0
C236 C 0.20792 0.15035 0.48166 0.0
C237 C 0.24629 0.25741 0.45222 0.0
C238 C 0.09711 0.07267 0.48923 0.0
C239 C 0.12082 0.09455 0.48176 0.0
C240 C 0.15437 0.16738 0.51155 0.0
C241 C 0.23003 0.20461 0.48132 0.0
C242 C 0.20485 0.18125 0.48875 0.0
C243 C 0.13245 0.11303 0.51245 0.0
C244 C 0.15737 0.13653 0.50424 0.0
H245 H 0.3094 0.21253 0.50587 0.0
H246 H 0.26806 0.17328 0.51598 0.0
H247 H 0.17486 0.21314 0.50963 0.0
H248 H 0.08831 0.08358 0.58927 0.0
H249 H 0.12896 0.12251 0.57551 0.0
C250 C 0.27137 0.7362 0.07169 0.0
C251 C 0.27243 0.7649 0.04324 0.0
C252 C 0.29324 0.71219 0.07364 0.0
C253 C 0.34223 0.68182 0.00759 0.0
H254 H 0.39035 0.6391 0.11451 0.0
C255 C 0.44485 0.59819 0.00938 0.0
C256 C 0.4507 0.57194 0.04254 0.0
C257 C 0.42235 0.62076 0.01036 0.0
C258 C 0.37672 0.65034 0.0844 0.0
H259 H 0.29749 0.79157 0.99566 0.0
H260 H 0.33524 0.74927 0.998 0.0
H261 H 0.35265 0.68046 0.11538 0.0
H262 H 0.4378 0.54838 0.10263 0.0
H263 H 0.39744 0.58725 0.1038 0.0
H264 H 0.36537 0.65144 0.97646 0.0
C265 C 0.31752 0.74532 0.01874 0.0
C266 C 0.35527 0.67417 0.08497 0.0
C267 C 0.29601 0.76944 0.01735 0.0
C268 C 0.43361 0.56851 0.07671 0.0
C269 C 0.41069 0.59089 0.07743 0.0
C270 C 0.36326 0.65772 1.00704 0.0
C271 C 0.31618 0.71637 0.04663 0.0
C272 C 0.33814 0.69038 0.0465 0.0
C273 C 0.40487 0.61744 0.04434 0.0
C274 C 0.38115 0.64192 0.04536 0.0
H275 H 0.25314 0.73213 0.09157 0.0
H276 H 0.29161 0.69003 0.09524 0.0
H277 H 0.32891 0.69363 0.97753 0.0
H278 H 0.45826 0.60168 0.98314 0.0
H279 H 0.4192 0.64117 0.98484 0.0
C280 C 0.74255 0.79181 0.5901 0.0
C281 C 0.75037 0.76207 0.6153 0.0
C282 C 0.76555 0.81476 0.58464 0.0
C283 C 0.84603 0.83675 0.62978 0.0
H284 H 0.84365 0.88717 0.51621 0.0
C285 C 0.9291 0.94195 0.59621 0.0
C286 C 0.94172 0.94598 0.55784 0.0
C287 C 0.90561 0.91983 0.60377 0.0
C288 C 0.84484 0.87315 0.54805 0.0
H289 H 0.78797 0.73288 0.65502 0.0
H290 H 0.82853 0.77288 0.64548 0.0
H291 H 0.80346 0.84787 0.52901 0.0
H292 H 0.93906 0.93019 0.49699 0.0
H293 H 0.89855 0.89128 0.51048 0.0
H294 H 0.88792 0.86152 0.6485 0.0
C295 C 0.80456 0.77875 0.63031 0.0
C296 C 0.82151 0.85086 0.55556 0.0
C297 C 0.78145 0.75582 0.63579 0.0
C298 C 0.93003 0.92758 0.52702 0.0
C299 C 0.90658 0.90542 0.53462 0.0
C300 C 0.8694 0.85905 0.62225 0.0
C301 C 0.79697 0.80841 0.60422 0.0
C302 C 0.82176 0.83236 0.59652 0.0
C303 C 0.89409 0.90121 0.57313 0.0
C304 C 0.86913 0.87753 0.58127 0.0
H305 H 0.7186 0.79711 0.57435 0.0
H306 H 0.75869 0.83749 0.56503 0.0
H307 H 0.84684 0.82314 0.6618 0.0
H308 H 0.93746 0.95577 0.62064 0.0
H309 H 0.89624 0.91759 0.6335 0.0
C310 C 0.74705 0.25846 0.0717 0.0
C311 C 0.73931 0.23322 0.05019 0.0
C312 C 0.72412 0.2805 0.07323 0.0
C313 C 0.64735 0.31397 0.01872 0.0
H314 H 0.6445 0.34107 0.12678 0.0
C315 C 0.55307 0.40252 0.03531 0.0
C316 C 0.56374 0.42652 0.05826 0.0
C317 C 0.57234 0.37652 0.0365 0.0
C318 C 0.64511 0.33398 0.09626 0.0
H319 H 0.70194 0.21075 0.01371 0.0
H320 H 0.66156 0.24974 0.01552 0.0
H321 H 0.68274 0.30108 0.12332 0.0
H322 H 0.60288 0.44118 0.10171 0.0
H323 H 0.63637 0.39637 0.10318 0.0
H324 H 0.61028 0.3474 0.99133 0.0
C325 C 0.68539 0.25263 0.03101 0.0
C326 C 0.66703 0.31104 0.09431 0.0
C327 C 0.70836 0.23042 0.02983 0.0
C328 C 0.59372 0.42324 0.08362 0.0
C329 C 0.61298 0.39735 0.08466 0.0
C330 C 0.62554 0.3371 0.02058 0.0
C331 C 0.69299 0.27776 0.05309 0.0
C332 C 0.66864 0.30103 0.05542 0.0
C333 C 0.60276 0.37389 0.0606 0.0
C334 C 0.62438 0.34765 0.05929 0.0
H335 H 0.77086 0.26092 0.08755 0.0
H336 H 0.73081 0.29982 0.08997 0.0
H337 H 0.64821 0.30694 0.98821 0.0
H338 H 0.53008 0.40407 0.0156 0.0
H339 H 0.5635 0.35862 0.01817 0.0
C340 C 0.21198 0.86306 0.09845 0.0
C341 C 0.19789 0.83994 0.07642 0.0
C342 C 0.19536 0.87703 0.12434 0.0
C343 C 0.12928 0.86122 0.18491 0.0
H344 H 0.13699 0.94947 0.19377 0.0
C345 C 0.0824 0.91084 0.31835 0.0
C346 C 0.06609 0.93981 0.30616 0.0
C347 C 0.09905 0.89973 0.28996 0.0
C348 C 0.13445 0.92481 0.19151 0.0
H349 H 0.15537 0.81424 0.06189 0.0
H350 H 0.12582 0.83887 0.1067 0.0
H351 H 0.16342 0.92897 0.14246 0.0
H352 H 0.05543 0.98031 0.25502 0.0
H353 H 0.08409 0.96075 0.20533 0.0
H354 H 0.10002 0.85708 0.23348 0.0
C355 C 0.14989 0.84583 0.10486 0.0
C356 C 0.14982 0.913 0.16236 0.0
C357 C 0.16656 0.83194 0.07898 0.0
C358 C 0.06743 0.95772 0.26525 0.0
C359 C 0.08413 0.94666 0.23691 0.0
C360 C 0.11401 0.87299 0.21411 0.0
C361 C 0.16428 0.86813 0.12851 0.0
C362 C 0.14741 0.88105 0.1587 0.0
C363 C 0.09987 0.91737 0.24873 0.0
C364 C 0.11642 0.90491 0.21783 0.0
H365 H 0.23609 0.86969 0.09635 0.0
H366 H 0.20721 0.89399 0.1422 0.0
H367 H 0.12724 0.8364 0.18336 0.0
H368 H 0.08167 0.89633 0.34947 0.0
H369 H 0.11125 0.87726 0.3003 0.0
C370 C 0.64648 0.68288 0.66991 0.0
C371 C 0.67889 0.67891 0.67187 0.0
C372 C 0.63082 0.66533 0.70122 0.0
C373 C 0.64706 0.61861 0.81258 0.0
H374 H 0.55956 0.59578 0.78771 0.0
C375 C 0.58218 0.53827 0.93562 0.0
C376 C 0.55313 0.54987 0.94093 0.0
C377 C 0.59752 0.55297 0.90216 0.0
C378 C 0.58398 0.60215 0.79511 0.0
H379 H 0.72025 0.65276 0.7062 0.0
H380 H 0.69298 0.621 0.76003 0.0
H381 H 0.58625 0.62185 0.72953 0.0
H382 H 0.51722 0.58584 0.91531 0.0
H383 H 0.54355 0.61095 0.856 0.0
H384 H 0.64473 0.59822 0.87813 0.0
C385 C 0.67958 0.63836 0.73543 0.0
C386 C 0.59931 0.61723 0.7618 0.0
C387 C 0.69523 0.65624 0.70446 0.0
C388 C 0.53948 0.57621 0.91177 0.0
C389 C 0.55453 0.59058 0.87786 0.0
C390 C 0.63185 0.60314 0.84572 0.0
C391 C 0.64724 0.64312 0.73489 0.0
C392 C 0.63106 0.62589 0.77006 0.0
C393 C 0.5838 0.57922 0.87285 0.0
C394 C 0.6001 0.59494 0.8374 0.0
H395 H 0.6336 0.70051 0.64515 0.0
H396 H 0.60607 0.67009 0.69979 0.0
H397 H 0.67124 0.62544 0.82063 0.0
H398 H 0.59308 0.51781 0.95735 0.0
H399 H 0.61997 0.5436 0.89891 0.0
C400 C 0.85323 0.17157 0.1201 0.0
C401 C 0.82578 0.15644 0.10528 0.0
C402 C 0.87408 0.15666 0.15575 0.0
C403 C 0.89696 0.08052 0.22671 0.0
H404 H 0.91643 0.13136 0.31521 0.0
C405 C 0.94879 0.02619 0.40171 0.0
C406 C 0.97073 0.04382 0.42458 0.0
C407 C 0.93288 0.03949 0.36109 0.0
C408 C 0.91178 0.11692 0.29069 0.0
H409 H 0.79866 0.11398 0.1143 0.0
H410 H 0.83551 0.08724 0.17631 0.0
H411 H 0.88752 0.15473 0.2454 0.0
H412 H 0.9932 0.08918 0.42318 0.0
H413 H 0.96602 0.11226 0.35205 0.0
H414 H 0.9214 0.04272 0.27184 0.0
C415 C 0.84112 0.11051 0.1604 0.0
C416 C 0.89514 0.13036 0.25064 0.0
C417 C 0.82013 0.12563 0.12501 0.0
C418 C 0.97638 0.07505 0.40622 0.0
C419 C 0.96064 0.0883 0.36552 0.0
C420 C 0.91396 0.06713 0.26666 0.0
C421 C 0.8678 0.12628 0.17697 0.0
C422 C 0.88735 0.11227 0.21832 0.0
C423 C 0.93862 0.07073 0.34239 0.0
C424 C 0.92137 0.08511 0.29933 0.0
H425 H 0.85755 0.19556 0.10546 0.0
H426 H 0.89459 0.16926 0.16761 0.0
H427 H 0.89142 0.06608 0.20229 0.0
H428 H 0.94348 1.00227 0.41554 0.0
H429 H 0.91563 0.02544 0.34474 0.0
C430 C 0.38377 0.31069 0.53913 0.0
C431 C 0.3608 0.32523 0.50564 0.0
C432 C 0.40029 0.32813 0.5679 0.0
C433 C 0.41836 0.40929 0.58777 0.0
H434 H 0.42365 0.36895 0.70701 0.0
C435 C 0.47902 0.46725 0.72903 0.0
C436 C 0.46342 0.46468 0.76479 0.0
C437 C 0.46888 0.4502 0.69629 0.0
C438 C 0.42227 0.38063 0.6739 0.0
H439 H 0.33804 0.36937 0.47422 0.0
H440 H 0.36686 0.40023 0.52456 0.0
H441 H 0.4027 0.34006 0.65058 0.0
H442 H 0.42453 0.44244 0.79358 0.0
H443 H 0.40707 0.41264 0.73683 0.0
H444 H 0.43713 0.45023 0.6114 0.0
C445 C 0.37238 0.37539 0.52856 0.0
C446 C 0.41063 0.3639 0.64146 0.0
C447 C 0.35589 0.35785 0.49972 0.0
C448 C 0.43752 0.44454 0.76702 0.0
C449 C 0.42745 0.42746 0.73438 0.0
C450 C 0.43013 0.42603 0.62031 0.0
C451 C 0.39408 0.36053 0.56381 0.0
C452 C 0.4083 0.37806 0.59797 0.0
C453 C 0.44296 0.43009 0.69858 0.0
C454 C 0.4319 0.41199 0.66379 0.0
H455 H 0.38799 0.28555 0.5439 0.0
H456 H 0.41731 0.31606 0.59408 0.0
H457 H 0.41707 0.42084 0.55462 0.0
H458 H 0.49929 0.48223 0.7265 0.0
H459 H 0.48159 0.45247 0.66943 0.0
C460 C 0.67557 0.65258 0.58013 0.0
C461 C 0.66983 0.68503 0.57486 0.0
C462 C 0.66082 0.63535 0.54969 0.0
C463 C 0.62811 0.64826 0.43487 0.0
H464 H 0.60218 0.56133 0.45961 0.0
C465 C 0.61176 0.56799 0.30737 0.0
C466 C 0.58633 0.54715 0.3071 0.0
C467 C 0.61897 0.58558 0.34015 0.0
C468 C 0.60905 0.5857 0.45214 0.0
H469 H 0.64271 0.72459 0.5361 0.0
H470 H 0.61649 0.69459 0.48301 0.0
H471 H 0.61808 0.58989 0.51854 0.0
H472 H 0.54778 0.52953 0.34036 0.0
H473 H 0.56054 0.56002 0.3976 0.0
H474 H 0.61926 0.6441 0.36857 0.0
C475 C 0.63281 0.68246 0.51002 0.0
C476 C 0.61842 0.60197 0.48594 0.0
C477 C 0.64754 0.69958 0.54045 0.0
C478 C 0.5679 0.54488 0.33995 0.0
C479 C 0.57519 0.56236 0.3728 0.0
C480 C 0.61892 0.63197 0.40115 0.0
C481 C 0.64009 0.65037 0.51346 0.0
C482 C 0.62822 0.63341 0.47772 0.0
C483 C 0.60098 0.58272 0.37352 0.0
C484 C 0.60951 0.60043 0.40935 0.0
H485 H 0.69295 0.64105 0.60627 0.0
H486 H 0.66708 0.61072 0.55324 0.0
H487 H 0.63593 0.67231 0.42736 0.0
H488 H 0.62672 0.57002 0.28298 0.0
H489 H 0.63922 0.60076 0.34 0.0
C490 C 0.83585 0.18914 0.9797 0.0
C491 C 0.81991 0.16905 0.00845 0.0
C492 C 0.85292 0.17685 0.95276 0.0
C493 C 0.85894 0.10501 0.90605 0.0
H494 H 0.93558 0.14347 0.87375 0.0
C495 C 0.9386 0.04749 0.8124 0.0
C496 C 0.95062 0.06709 0.77885 0.0
C497 C 0.92256 0.06029 0.83991 0.0
C498 C 0.91403 0.13268 0.88215 0.0
H499 H 0.81014 0.12053 0.03298 0.0
H500 H 0.84091 0.09871 0.98723 0.0
H501 H 0.90933 0.16451 0.92472 0.0
H502 H 0.9551 0.11551 0.74775 0.0
H503 H 0.92702 0.13801 0.79604 0.0
H504 H 0.86396 0.07291 0.86391 0.0
C505 C 0.83961 0.12404 0.98445 0.0
C506 C 0.89894 0.14473 0.91138 0.0
C507 C 0.82237 0.13641 0.01113 0.0
C508 C 0.94596 0.09982 0.77317 0.0
C509 C 0.93015 0.11269 0.80103 0.0
C510 C 0.87415 0.09283 0.87713 0.0
C511 C 0.85465 0.14412 0.9543 0.0
C512 C 0.87117 0.13105 0.92375 0.0
C513 C 0.91833 0.09305 0.83477 0.0
C514 C 0.90187 0.1065 0.86485 0.0
H515 H 0.83462 0.2144 0.9776 0.0
H516 H 0.86396 0.1931 0.92986 0.0
H517 H 0.83726 0.09425 0.91398 0.0
H518 H 0.94156 0.02215 0.81735 0.0
H519 H 0.91394 0.04454 0.86575 0.0
C520 C 0.38301 0.32885 0.41346 0.0
C521 C 0.35009 0.33005 0.40869 0.0
C522 C 0.39878 0.34608 0.38201 0.0
C523 C 0.38595 0.37955 0.2668 0.0
H524 H 0.46229 0.42581 0.29292 0.0
C525 C 0.4416 0.45747 0.13302 0.0
C526 C 0.47448 0.45915 0.13768 0.0
C527 C 0.42693 0.44212 0.16673 0.0
C528 C 0.44125 0.41263 0.285 0.0
H529 H 0.30795 0.35145 0.3689 0.0
H530 H 0.33529 0.38125 0.31352 0.0
H531 H 0.436 0.39908 0.35121 0.0
H532 H 0.51778 0.44555 0.1809 0.0
H533 H 0.49243 0.41834 0.23984 0.0
H534 H 0.39132 0.3923 0.20087 0.0
C535 C 0.34896 0.36669 0.34119 0.0
C536 C 0.42612 0.39742 0.31848 0.0
C537 C 0.33329 0.34971 0.3728 0.0
C538 C 0.49243 0.44506 0.17674 0.0
C539 C 0.4778 0.42948 0.21048 0.0
C540 C 0.40119 0.39445 0.2334 0.0
C541 C 0.38185 0.36467 0.34503 0.0
C542 C 0.39818 0.38087 0.30973 0.0
C543 C 0.44479 0.42784 0.206 0.0
C544 C 0.42897 0.41139 0.24193 0.0
H545 H 0.39641 0.31366 0.44073 0.0
H546 H 0.42411 0.3439 0.38583 0.0
H547 H 0.36478 0.36649 0.259 0.0
H548 H 0.42715 0.46879 0.10365 0.0
H549 H 0.4015 0.44204 0.16218 0.0
C550 C 0.19305 0.87516 0.96961 0.0
C551 C 0.18705 0.843 0.98076 0.0
C552 C 0.17435 0.89371 0.93461 0.0
C553 C 0.09979 0.89453 0.85701 0.0
H554 H 0.14674 0.94845 0.77958 0.0
C555 C 0.05003 0.93885 0.67867 0.0
C556 C 0.05556 0.9703 0.66112 0.0
C557 C 0.06467 0.92554 0.71994 0.0
C558 C 0.13321 0.93385 0.80109 0.0
H559 H 0.15606 0.80515 0.96697 0.0
H560 H 0.12339 0.83717 0.90537 0.0
H561 H 0.17364 0.9221 0.84927 0.0
H562 H 0.08078 0.01251 0.67287 0.0
H563 H 0.10631 0.98928 0.74521 0.0
H564 H 0.05952 0.90568 0.8081 0.0
C565 C 0.14228 0.8484 0.92344 0.0
C566 C 0.14859 0.9188 0.84117 0.0
C567 C 0.16095 0.82998 0.95849 0.0
C568 C 0.07606 0.9882 0.68564 0.0
C569 C 0.09079 0.97486 0.72692 0.0
C570 C 0.08444 0.90947 0.81683 0.0
C571 C 0.1493 0.88031 0.91026 0.0
C572 C 0.13217 0.89862 0.86945 0.0
C573 C 0.08519 0.94339 0.74456 0.0
C574 C 0.10106 0.92898 0.78821 0.0
H575 H 0.21311 0.88549 0.98676 0.0
H576 H 0.18004 0.91833 0.9259 0.0
H577 H 0.08631 0.87956 0.87821 0.0
H578 H 0.03413 0.92456 0.66065 0.0
H579 H 0.0602 0.90111 0.73237 0.0
loop_
_geom_bond_atom_site_label_1
_geom_bond_atom_site_label_2
_geom_bond_distance
_geom_bond_site_symmetry_2
_ccdc_geom_bond_type
C0 N1 1.317 1_556 S
C0 N2 1.348 1_556 S
C0 C3 1.485 . S
N1 C0 1.317 1_554 S
N1 N5 1.370 . S
N2 C0 1.348 1_554 S
N2 C4 1.346 . S
C3 C0 1.485 . S
C3 H7 0.960 . S
C3 H8 0.961 . S
C3 H9 0.960 . S
C4 N2 1.346 . S
C4 N5 1.307 . S
C4 C6 1.486 . S
N5 N1 1.370 . S
N5 C4 1.307 . S
C6 C4 1.486 . S
C6 H10 0.960 . S
C6 H11 0.960 . S
C6 H12 0.959 . S
H7 C3 0.960 . S
H8 C3 0.961 . S
H9 C3 0.960 . S
H10 C6 0.960 . S
H11 C6 0.960 . S
H12 C6 0.959 . S
C13 N14 1.317 . S
C13 N15 1.348 . S
C13 C16 1.485 . S
N14 C13 1.317 . S
N14 N18 1.370 . S
N15 C13 1.348 . S
N15 C17 1.346 . S
C16 C13 1.485 . S
C16 H20 0.960 . S
C16 H21 0.961 . S
C16 H22 0.960 . S
C17 N15 1.346 . S
C17 N18 1.307 . S
C17 C19 1.486 . S
N18 N14 1.370 . S
N18 C17 1.307 . S
C19 C17 1.486 . S
C19 H23 0.960 . S
C19 H24 0.960 . S
C19 H25 0.959 . S
H20 C16 0.960 . S
H21 C16 0.961 . S
H22 C16 0.960 . S
H23 C19 0.960 . S
H24 C19 0.960 . S
H25 C19 0.959 . S
C26 N27 1.317 . S
C26 N28 1.348 . S
C26 C29 1.485 . S
N27 C26 1.317 . S
N27 N31 1.370 . S
N28 C26 1.348 . S
N28 C30 1.346 . S
C29 C26 1.485 . S
C29 H33 0.960 . S
C29 H34 0.961 . S
C29 H35 0.960 . S
C30 N28 1.346 . S
C30 N31 1.307 . S
C30 C32 1.486 1_554 S
N31 N27 1.370 . S
N31 C30 1.307 . S
C32 C30 1.486 1_556 S
C32 H36 0.960 . S
C32 H37 0.960 . S
C32 H38 0.959 . S
H33 C29 0.960 . S
H34 C29 0.961 . S
H35 C29 0.960 . S
H36 C32 0.960 . S
H37 C32 0.960 . S
H38 C32 0.959 . S
C39 N40 1.317 . S
C39 N41 1.348 . S
C39 C42 1.485 . S
N40 C39 1.317 . S
N40 N44 1.370 . S
N41 C39 1.348 . S
N41 C43 1.346 . S
C42 C39 1.485 . S
C42 H46 0.960 . S
C42 H47 0.961 . S
C42 H48 0.960 . S
C43 N41 1.346 . S
C43 N44 1.307 . S
C43 C45 1.486 . S
N44 N40 1.370 . S
N44 C43 1.307 . S
C45 C43 1.486 . S
C45 H49 0.960 . S
C45 H50 0.960 . S
C45 H51 0.959 . S
H46 C42 0.960 . S
H47 C42 0.961 . S
H48 C42 0.960 . S
H49 C45 0.960 . S
H50 C45 0.960 . S
H51 C45 0.959 . S
Eu52 N81 2.600 . S
Eu52 N87 2.562 . S
Eu52 O96 2.462 . S
Eu52 O97 2.373 . S
Eu52 O99 2.432 . S
Eu52 O100 2.291 1_565 S
Eu52 O104 2.335 1_465 S
Eu52 O107 2.372 1_455 S
Eu52 C116 2.787 . S
C53 N54 1.365 . S
C53 C56 1.405 . S
C53 C60 1.448 . S
N54 C53 1.365 . S
N54 C57 1.319 1_655 S
N54 Eu63 2.600 . S
C55 C57 1.397 . S
C55 C58 1.367 1_455 S
C55 H75 0.931 . S
C56 C53 1.405 . S
C56 C58 1.403 . S
C56 C62 1.439 . S
C57 N54 1.319 1_455 S
C57 C55 1.397 . S
C57 H68 0.930 . S
C58 C55 1.367 1_655 S
C58 C56 1.403 . S
C58 H79 0.929 . S
C59 C60 1.430 . S
C59 C61 1.387 . S
C59 C65 1.404 . S
C60 C53 1.448 . S
C60 C59 1.430 . S
C60 N64 1.351 . S
C61 C59 1.387 . S
C61 C62 1.374 . S
C61 H76 0.931 . S
C62 C56 1.439 . S
C62 C61 1.374 . S
C62 H77 0.931 . S
Eu63 N54 2.600 . S
Eu63 N64 2.562 . S
Eu63 O98 2.335 1_655 S
Eu63 O101 2.372 1_655 S
Eu63 O102 2.462 . S
Eu63 O103 2.373 . S
Eu63 O105 2.432 . S
Eu63 O106 2.291 1_545 S
Eu63 C127 2.787 . S
N64 C60 1.351 . S
N64 Eu63 2.562 . S
N64 C66 1.325 . S
C65 C59 1.404 . S
C65 C67 1.366 . S
C65 H73 0.930 . S
C66 N64 1.325 . S
C66 C67 1.416 . S
C66 H72 0.929 . S
C67 C65 1.366 . S
C67 C66 1.416 . S
C67 H69 0.930 . S
H68 C57 0.930 . S
H69 C67 0.930 . S
H70 C85 0.930 1_655 S
H71 C92 0.930 . S
H72 C66 0.929 . S
H73 C65 0.930 . S
H74 C88 0.929 . S
H75 C55 0.931 . S
H76 C61 0.931 . S
H77 C62 0.931 . S
H78 C83 0.931 1_655 S
H79 C58 0.929 . S
H80 C91 0.930 . S
N81 Eu52 2.600 . S
N81 C82 1.365 . S
N81 C85 1.319 . S
C82 N81 1.365 . S
C82 C84 1.405 . S
C82 C90 1.448 . S
C83 H78 0.931 1_455 S
C83 C85 1.397 . S
C83 C86 1.367 . S
C84 C82 1.405 . S
C84 C86 1.403 . S
C84 C117 1.439 . S
C85 H70 0.930 1_455 S
C85 N81 1.319 . S
C85 C83 1.397 . S
C86 C83 1.367 . S
C86 C84 1.403 . S
C86 H93 0.929 . S
N87 Eu52 2.562 . S
N87 C88 1.325 . S
N87 C90 1.351 . S
C88 H74 0.929 . S
C88 N87 1.325 . S
C88 C92 1.416 . S
C89 C90 1.430 . S
C89 C91 1.404 . S
C89 C118 1.387 . S
C90 C82 1.448 . S
C90 N87 1.351 . S
C90 C89 1.430 . S
C91 H80 0.930 . S
C91 C89 1.404 . S
C91 C92 1.366 . S
C92 H71 0.930 . S
C92 C88 1.416 . S
C92 C91 1.366 . S
H93 C86 0.929 . S
H94 C117 0.931 . S
H95 C118 0.931 . S
O96 Eu52 2.462 . S
O96 C116 1.252 . S
O97 Eu52 2.373 . S
O97 C108 1.249 . S
O98 Eu63 2.335 1_455 S
O98 C108 1.264 1_545 S
O99 Eu52 2.432 . S
O99 C116 1.268 . S
O100 Eu52 2.291 1_545 S
O100 C115 1.255 . S
O101 Eu63 2.372 1_455 S
O101 C115 1.257 . S
O102 Eu63 2.462 . S
O102 C127 1.252 . S
O103 Eu63 2.373 . S
O103 C119 1.249 . S
O104 Eu52 2.335 1_645 S
O104 C119 1.264 . S
O105 Eu63 2.432 . S
O105 C127 1.268 . S
O106 Eu63 2.291 1_565 S
O106 C126 1.255 . S
O107 Eu52 2.372 1_655 S
O107 C126 1.257 . S
C108 O97 1.249 . S
C108 O98 1.264 1_565 S
C109 C112 1.382 . S
C109 C114 1.390 . S
C109 C116 1.506 . S
C110 C111 1.398 . S
C110 C114 1.392 . S
C111 C110 1.398 . S
C111 C113 1.372 . S
C111 H128 0.931 . S
C112 C109 1.382 . S
C112 C113 1.390 . S
C112 H129 0.931 . S
C113 C111 1.372 . S
C113 C112 1.390 . S
C113 H130 0.929 . S
C114 C109 1.390 . S
C114 C110 1.392 . S
C114 H131 0.930 . S
C115 O100 1.255 . S
C115 O101 1.257 . S
C116 Eu52 2.787 . S
C116 O96 1.252 . S
C116 O99 1.268 . S
C116 C109 1.506 . S
C117 C84 1.439 . S
C117 H94 0.931 . S
C117 C118 1.374 . S
C118 C89 1.387 . S
C118 H95 0.931 . S
C118 C117 1.374 . S
C119 O103 1.249 . S
C119 O104 1.264 . S
C120 C123 1.382 . S
C120 C124 1.390 . S
C120 C127 1.506 . S
C121 C122 1.398 . S
C121 C124 1.392 . S
C122 C121 1.398 . S
C122 C125 1.372 . S
C122 H132 0.931 . S
C123 C120 1.382 . S
C123 C125 1.390 . S
C123 H133 0.931 . S
C124 C120 1.390 . S
C124 C121 1.392 . S
C124 H134 0.930 . S
C125 C122 1.372 . S
C125 C123 1.390 . S
C125 H135 0.929 . S
C126 O106 1.255 . S
C126 O107 1.257 . S
C127 Eu63 2.787 . S
C127 O102 1.252 . S
C127 O105 1.268 . S
C127 C120 1.506 . S
H128 C111 0.931 . S
H129 C112 0.931 . S
H130 C113 0.929 . S
H131 C114 0.930 . S
H132 C122 0.931 . S
H133 C123 0.931 . S
H134 C124 0.930 . S
H135 C125 0.929 . S
Eu136 N165 2.600 . S
Eu136 N171 2.562 1_556 S
Eu136 O180 2.462 . S
Eu136 O181 2.373 1_556 S
Eu136 O183 2.432 . S
Eu136 O184 2.291 1_556 S
Eu136 O188 2.335 . S
Eu136 O191 2.370 1_556 S
Eu136 C200 2.787 . S
C137 N138 1.365 . S
C137 C140 1.405 . S
C137 C144 1.448 . S
N138 C137 1.365 . S
N138 C141 1.319 . S
N138 Eu147 2.600 . S
C139 C141 1.397 . S
C139 C142 1.367 . S
C139 H159 0.931 . S
C140 C137 1.405 . S
C140 C142 1.403 . S
C140 C146 1.439 . S
C141 N138 1.319 . S
C141 C139 1.397 . S
C141 H152 0.930 . S
C142 C139 1.367 . S
C142 C140 1.403 . S
C142 H163 0.929 . S
C143 C144 1.430 . S
C143 C145 1.387 . S
C143 C149 1.404 . S
C144 C137 1.448 . S
C144 C143 1.430 . S
C144 N148 1.351 . S
C145 C143 1.387 . S
C145 C146 1.374 . S
C145 H160 0.931 . S
C146 C140 1.439 . S
C146 C145 1.374 . S
C146 H161 0.931 . S
Eu147 N138 2.600 . S
Eu147 N148 2.562 . S
Eu147 O182 2.335 . S
Eu147 O185 2.372 . S
Eu147 O186 2.462 . S
Eu147 O187 2.346 1_554 S
Eu147 O189 2.432 . S
Eu147 O190 2.291 . S
Eu147 C211 2.787 . S
N148 C144 1.351 . S
N148 Eu147 2.562 . S
N148 C150 1.325 . S
C149 C143 1.404 . S
C149 C151 1.366 . S
C149 H157 0.930 . S
C150 N148 1.325 . S
C150 C151 1.416 . S
C150 H156 0.929 . S
C151 C149 1.366 . S
C151 C150 1.416 . S
C151 H153 0.930 . S
H152 C141 0.930 . S
H153 C151 0.930 . S
H154 C169 0.930 . S
H155 C176 0.930 . S
H156 C150 0.929 . S
H157 C149 0.930 . S
H158 C172 0.929 . S
H159 C139 0.931 . S
H160 C145 0.931 . S
H161 C146 0.931 . S
H162 C167 0.931 . S
H163 C142 0.929 . S
H164 C175 0.930 . S
N165 Eu136 2.600 . S
N165 C166 1.365 1_556 S
N165 C169 1.319 . S
C166 N165 1.365 1_554 S
C166 C168 1.405 . S
C166 C174 1.448 . S
C167 H162 0.931 . S
C167 C169 1.397 . S
C167 C170 1.367 1_556 S
C168 C166 1.405 . S
C168 C170 1.403 . S
C168 C201 1.439 . S
C169 H154 0.930 . S
C169 N165 1.319 . S
C169 C167 1.397 . S
C170 C167 1.367 1_554 S
C170 C168 1.403 . S
C170 H177 0.929 . S
N171 Eu136 2.562 1_554 S
N171 C172 1.325 . S
N171 C174 1.351 . S
C172 H158 0.929 . S
C172 N171 1.325 . S
C172 C176 1.416 . S
C173 C174 1.430 . S
C173 C175 1.404 . S
C173 C202 1.387 . S
C174 C166 1.448 . S
C174 N171 1.351 . S
C174 C173 1.430 . S
C175 H164 0.930 . S
C175 C173 1.404 . S
C175 C176 1.366 . S
C176 H155 0.930 . S
C176 C172 1.416 . S
C176 C175 1.366 . S
H177 C170 0.929 . S
H178 C201 0.931 . S
H179 C202 0.931 . S
O180 Eu136 2.462 . S
O180 C200 1.252 . S
O181 Eu136 2.373 1_554 S
O181 C192 1.249 . S
O182 Eu147 2.335 . S
O182 C192 1.264 . S
O183 Eu136 2.432 . S
O183 C200 1.268 . S
O184 Eu136 2.291 1_554 S
O184 C199 1.255 . S
O185 Eu147 2.372 . S
O185 C199 1.257 . S
O186 Eu147 2.462 . S
O186 C211 1.252 . S
O187 Eu147 2.346 1_556 S
O187 C203 1.270 . S
O188 Eu136 2.335 . S
O188 C203 1.264 . S
O189 Eu147 2.432 . S
O189 C211 1.268 . S
O190 Eu147 2.291 . S
O190 C210 1.255 . S
O191 Eu136 2.370 1_554 S
O191 C210 1.261 . S
C192 O181 1.249 . S
C192 O182 1.264 . S
C193 C196 1.382 . S
C193 C198 1.390 . S
C193 C200 1.506 . S
C194 C195 1.398 . S
C194 C198 1.392 . S
C195 C194 1.398 . S
C195 C197 1.372 . S
C195 H212 0.931 . S
C196 C193 1.382 . S
C196 C197 1.390 . S
C196 H213 0.931 . S
C197 C195 1.372 . S
C197 C196 1.390 . S
C197 H214 0.929 . S
C198 C193 1.390 . S
C198 C194 1.392 . S
C198 H215 0.930 . S
C199 O184 1.255 . S
C199 O185 1.257 . S
C200 Eu136 2.787 . S
C200 O180 1.252 . S
C200 O183 1.268 . S
C200 C193 1.506 . S
C201 C168 1.439 . S
C201 H178 0.931 . S
C201 C202 1.374 . S
C202 C173 1.387 . S
C202 H179 0.931 . S
C202 C201 1.374 . S
C203 O187 1.270 . S
C203 O188 1.264 . S
C204 C207 1.382 . S
C204 C208 1.390 . S
C204 C211 1.506 . S
C205 C206 1.398 . S
C205 C208 1.392 . S
C206 C205 1.398 . S
C206 C209 1.372 . S
C206 H216 0.931 . S
C207 C204 1.382 . S
C207 C209 1.390 . S
C207 H217 0.931 . S
C208 C204 1.390 . S
C208 C205 1.392 . S
C208 H218 0.930 . S
C209 C206 1.372 . S
C209 C207 1.390 . S
C209 H219 0.929 . S
C210 O190 1.255 . S
C210 O191 1.261 . S
C211 Eu147 2.787 . S
C211 O186 1.252 . S
C211 O189 1.268 . S
C211 C204 1.506 . S
H212 C195 0.931 . S
H213 C196 0.931 . S
H214 C197 0.929 . S
H215 C198 0.930 . S
H216 C206 0.931 . S
H217 C207 0.931 . S
H218 C208 0.930 . S
H219 C209 0.929 . S
C220 C221 1.349 . S
C220 C222 1.327 . S
C220 H245 0.950 . S
C221 C220 1.349 . S
C221 C237 1.349 . S
C222 C220 1.327 . S
C222 C241 1.429 . S
C222 H246 0.950 . S
C223 C240 1.574 . S
C223 C242 1.368 . S
C223 H247 0.949 . S
H224 C228 0.949 . S
C225 C226 1.349 . S
C225 C227 1.327 . S
C225 H248 0.950 . S
C226 C225 1.349 . S
C226 C238 1.349 . S
C227 C225 1.327 . S
C227 C243 1.429 . S
C227 H249 0.950 . S
C228 H224 0.949 . S
C228 C236 1.574 . S
C228 C244 1.368 . S
H229 C237 0.950 . S
H230 C235 0.950 . S
H231 C236 0.949 . S
H232 C238 0.950 . S
H233 C239 0.950 . S
H234 C240 0.949 . S
C235 H230 0.950 . S
C235 C237 1.327 . S
C235 C241 1.429 . S
C236 C228 1.574 . S
C236 H231 0.949 . S
C236 C242 1.368 . S
C237 C221 1.349 . S
C237 H229 0.950 . S
C237 C235 1.327 . S
C238 C226 1.349 . S
C238 H232 0.950 . S
C238 C239 1.327 . S
C239 H233 0.950 . S
C239 C238 1.327 . S
C239 C243 1.429 . S
C240 C223 1.574 . S
C240 H234 0.949 . S
C240 C244 1.368 . S
C241 C222 1.429 . S
C241 C235 1.429 . S
C241 C242 1.523 . S
C242 C223 1.368 . S
C242 C236 1.368 . S
C242 C241 1.523 . S
C243 C227 1.429 . S
C243 C239 1.429 . S
C243 C244 1.523 . S
C244 C228 1.368 . S
C244 C240 1.368 . S
C244 C243 1.523 . S
H245 C220 0.950 . S
H246 C222 0.950 . S
H247 C223 0.949 . S
H248 C225 0.950 . S
H249 C227 0.950 . S
C250 C251 1.349 . S
C250 C252 1.327 . S
C250 H275 0.950 . S
C251 C250 1.349 . S
C251 C267 1.349 . S
C252 C250 1.327 . S
C252 C271 1.429 . S
C252 H276 0.950 . S
C253 C270 1.574 . S
C253 C272 1.368 . S
C253 H277 0.949 1_554 S
H254 C258 0.949 . S
C255 C256 1.349 . S
C255 C257 1.327 . S
C255 H278 0.950 1_554 S
C256 C255 1.349 . S
C256 C268 1.349 . S
C257 C255 1.327 . S
C257 C273 1.429 . S
C257 H279 0.950 1_554 S
C258 H254 0.949 . S
C258 C266 1.574 . S
C258 C274 1.368 . S
H259 C267 0.950 1_556 S
H260 C265 0.950 1_556 S
H261 C266 0.949 . S
H262 C268 0.950 . S
H263 C269 0.950 . S
H264 C270 0.949 1_556 S
C265 H260 0.950 1_554 S
C265 C267 1.327 . S
C265 C271 1.429 . S
C266 C258 1.574 . S
C266 H261 0.949 . S
C266 C272 1.368 . S
C267 C251 1.349 . S
C267 H259 0.950 1_554 S
C267 C265 1.327 . S
C268 C256 1.349 . S
C268 H262 0.950 . S
C268 C269 1.327 . S
C269 H263 0.950 . S
C269 C268 1.327 . S
C269 C273 1.429 . S
C270 C253 1.574 . S
C270 H264 0.949 1_554 S
C270 C274 1.368 . S
C271 C252 1.429 . S
C271 C265 1.429 . S
C271 C272 1.523 . S
C272 C253 1.368 . S
C272 C266 1.368 . S
C272 C271 1.523 . S
C273 C257 1.429 . S
C273 C269 1.429 . S
C273 C274 1.523 . S
C274 C258 1.368 . S
C274 C270 1.368 . S
C274 C273 1.523 . S
H275 C250 0.950 . S
H276 C252 0.950 . S
H277 C253 0.949 1_556 S
H278 C255 0.950 1_556 S
H279 C257 0.950 1_556 S
C280 C281 1.349 . S
C280 C282 1.327 . S
C280 H305 0.950 . S
C281 C280 1.349 . S
C281 C297 1.349 . S
C282 C280 1.327 . S
C282 C301 1.429 . S
C282 H306 0.950 . S
C283 C300 1.574 . S
C283 C302 1.368 . S
C283 H307 0.949 . S
H284 C288 0.949 . S
C285 C286 1.349 . S
C285 C287 1.327 . S
C285 H308 0.950 . S
C286 C285 1.349 . S
C286 C298 1.349 . S
C287 C285 1.327 . S
C287 C303 1.429 . S
C287 H309 0.950 . S
C288 H284 0.949 . S
C288 C296 1.574 . S
C288 C304 1.368 . S
H289 C297 0.950 . S
H290 C295 0.950 . S
H291 C296 0.949 . S
H292 C298 0.950 . S
H293 C299 0.950 . S
H294 C300 0.949 . S
C295 H290 0.950 . S
C295 C297 1.327 . S
C295 C301 1.429 . S
C296 C288 1.574 . S
C296 H291 0.949 . S
C296 C302 1.368 . S
C297 C281 1.349 . S
C297 H289 0.950 . S
C297 C295 1.327 . S
C298 C286 1.349 . S
C298 H292 0.950 . S
C298 C299 1.327 . S
C299 H293 0.950 . S
C299 C298 1.327 . S
C299 C303 1.429 . S
C300 C283 1.574 . S
C300 H294 0.949 . S
C300 C304 1.368 . S
C301 C282 1.429 . S
C301 C295 1.429 . S
C301 C302 1.523 . S
C302 C283 1.368 . S
C302 C296 1.368 . S
C302 C301 1.523 . S
C303 C287 1.429 . S
C303 C299 1.429 . S
C303 C304 1.523 . S
C304 C288 1.368 . S
C304 C300 1.368 . S
C304 C303 1.523 . S
H305 C280 0.950 . S
H306 C282 0.950 . S
H307 C283 0.949 . S
H308 C285 0.950 . S
H309 C287 0.950 . S
C310 C311 1.349 . S
C310 C312 1.327 . S
C310 H335 0.950 . S
C311 C310 1.349 . S
C311 C327 1.349 1_554 S
C312 C310 1.327 . S
C312 C331 1.429 . S
C312 H336 0.950 . S
C313 C330 1.574 . S
C313 C332 1.368 1_556 S
C313 H337 0.949 . S
H314 C318 0.949 . S
C315 C316 1.349 1_556 S
C315 C317 1.327 . S
C315 H338 0.950 . S
C316 C315 1.349 1_554 S
C316 C328 1.349 . S
C317 C315 1.327 . S
C317 C333 1.429 1_556 S
C317 H339 0.950 . S
C318 H314 0.949 . S
C318 C326 1.574 . S
C318 C334 1.368 . S
H319 C327 0.950 . S
H320 C325 0.950 . S
H321 C326 0.949 . S
H322 C328 0.950 . S
H323 C329 0.950 . S
H324 C330 0.949 . S
C325 H320 0.950 . S
C325 C327 1.327 . S
C325 C331 1.429 1_556 S
C326 C318 1.574 . S
C326 H321 0.949 . S
C326 C332 1.368 . S
C327 C311 1.349 1_556 S
C327 H319 0.950 . S
C327 C325 1.327 . S
C328 C316 1.349 . S
C328 H322 0.950 . S
C328 C329 1.327 . S
C329 H323 0.950 . S
C329 C328 1.327 . S
C329 C333 1.429 . S
C330 C313 1.574 . S
C330 H324 0.949 . S
C330 C334 1.368 1_556 S
C331 C312 1.429 . S
C331 C325 1.429 1_554 S
C331 C332 1.523 . S
C332 C313 1.368 1_554 S
C332 C326 1.368 . S
C332 C331 1.523 . S
C333 C317 1.429 1_554 S
C333 C329 1.429 . S
C333 C334 1.523 . S
C334 C318 1.368 . S
C334 C330 1.368 1_554 S
C334 C333 1.523 . S
H335 C310 0.950 . S
H336 C312 0.950 . S
H337 C313 0.949 . S
H338 C315 0.950 . S
H339 C317 0.950 . S
C340 C341 1.349 . S
C340 C342 1.327 . S
C340 H365 0.950 . S
C341 C340 1.349 . S
C341 C357 1.349 . S
C342 C340 1.327 . S
C342 C361 1.429 . S
C342 H366 0.950 . S
C343 C360 1.574 . S
C343 C362 1.368 . S
C343 H367 0.949 . S
H344 C348 0.949 . S
C345 C346 1.349 . S
C345 C347 1.327 . S
C345 H368 0.950 . S
C346 C345 1.349 . S
C346 C358 1.349 . S
C347 C345 1.327 . S
C347 C363 1.429 . S
C347 H369 0.950 . S
C348 H344 0.949 . S
C348 C356 1.574 . S
C348 C364 1.368 . S
H349 C357 0.950 . S
H350 C355 0.950 . S
H351 C356 0.949 . S
H352 C358 0.950 . S
H353 C359 0.950 . S
H354 C360 0.949 . S
C355 H350 0.950 . S
C355 C357 1.327 . S
C355 C361 1.429 . S
C356 C348 1.574 . S
C356 H351 0.949 . S
C356 C362 1.368 . S
C357 C341 1.349 . S
C357 H349 0.950 . S
C357 C355 1.327 . S
C358 C346 1.349 . S
C358 H352 0.950 . S
C358 C359 1.327 . S
C359 H353 0.950 . S
C359 C358 1.327 . S
C359 C363 1.429 . S
C360 C343 1.574 . S
C360 H354 0.949 . S
C360 C364 1.368 . S
C361 C342 1.429 . S
C361 C355 1.429 . S
C361 C362 1.523 . S
C362 C343 1.368 . S
C362 C356 1.368 . S
C362 C361 1.523 . S
C363 C347 1.429 . S
C363 C359 1.429 . S
C363 C364 1.523 . S
C364 C348 1.368 . S
C364 C360 1.368 . S
C364 C363 1.523 . S
H365 C340 0.950 . S
H366 C342 0.950 . S
H367 C343 0.949 . S
H368 C345 0.950 . S
H369 C347 0.950 . S
C370 C371 1.349 . S
C370 C372 1.327 . S
C370 H395 0.950 . S
C371 C370 1.349 . S
C371 C387 1.349 . S
C372 C370 1.327 . S
C372 C391 1.429 . S
C372 H396 0.950 . S
C373 C390 1.574 . S
C373 C392 1.368 . S
C373 H397 0.949 . S
H374 C378 0.949 . S
C375 C376 1.349 . S
C375 C377 1.327 . S
C375 H398 0.950 . S
C376 C375 1.349 . S
C376 C388 1.349 . S
C377 C375 1.327 . S
C377 C393 1.429 . S
C377 H399 0.950 . S
C378 H374 0.949 . S
C378 C386 1.574 . S
C378 C394 1.368 . S
H379 C387 0.950 . S
H380 C385 0.950 . S
H381 C386 0.949 . S
H382 C388 0.950 . S
H383 C389 0.950 . S
H384 C390 0.949 . S
C385 H380 0.950 . S
C385 C387 1.327 . S
C385 C391 1.429 . S
C386 C378 1.574 . S
C386 H381 0.949 . S
C386 C392 1.368 . S
C387 C371 1.349 . S
C387 H379 0.950 . S
C387 C385 1.327 . S
C388 C376 1.349 . S
C388 H382 0.950 . S
C388 C389 1.327 . S
C389 H383 0.950 . S
C389 C388 1.327 . S
C389 C393 1.429 . S
C390 C373 1.574 . S
C390 H384 0.949 . S
C390 C394 1.368 . S
C391 C372 1.429 . S
C391 C385 1.429 . S
C391 C392 1.523 . S
C392 C373 1.368 . S
C392 C386 1.368 . S
C392 C391 1.523 . S
C393 C377 1.429 . S
C393 C389 1.429 . S
C393 C394 1.523 . S
C394 C378 1.368 . S
C394 C390 1.368 . S
C394 C393 1.523 . S
H395 C370 0.950 . S
H396 C372 0.950 . S
H397 C373 0.949 . S
H398 C375 0.950 . S
H399 C377 0.950 . S
C400 C401 1.349 . S
C400 C402 1.327 . S
C400 H425 0.950 . S
C401 C400 1.349 . S
C401 C417 1.349 . S
C402 C400 1.327 . S
C402 C421 1.429 . S
C402 H426 0.950 . S
C403 C420 1.574 . S
C403 C422 1.368 . S
C403 H427 0.949 . S
H404 C408 0.949 . S
C405 C406 1.349 . S
C405 C407 1.327 . S
C405 H428 0.950 . S
C406 C405 1.349 . S
C406 C418 1.349 . S
C407 C405 1.327 . S
C407 C423 1.429 . S
C407 H429 0.950 . S
C408 H404 0.949 . S
C408 C416 1.574 . S
C408 C424 1.368 . S
H409 C417 0.950 . S
H410 C415 0.950 . S
H411 C416 0.949 . S
H412 C418 0.950 . S
H413 C419 0.950 . S
H414 C420 0.949 . S
C415 H410 0.950 . S
C415 C417 1.327 . S
C415 C421 1.429 . S
C416 C408 1.574 . S
C416 H411 0.949 . S
C416 C422 1.368 . S
C417 C401 1.349 . S
C417 H409 0.950 . S
C417 C415 1.327 . S
C418 C406 1.349 . S
C418 H412 0.950 . S
C418 C419 1.327 . S
C419 H413 0.950 . S
C419 C418 1.327 . S
C419 C423 1.429 . S
C420 C403 1.574 . S
C420 H414 0.949 . S
C420 C424 1.368 . S
C421 C402 1.429 . S
C421 C415 1.429 . S
C421 C422 1.523 . S
C422 C403 1.368 . S
C422 C416 1.368 . S
C422 C421 1.523 . S
C423 C407 1.429 . S
C423 C419 1.429 . S
C423 C424 1.523 . S
C424 C408 1.368 . S
C424 C420 1.368 . S
C424 C423 1.523 . S
H425 C400 0.950 . S
H426 C402 0.950 . S
H427 C403 0.949 . S
H428 C405 0.950 . S
H429 C407 0.950 . S
C430 C431 1.349 . S
C430 C432 1.327 . S
C430 H455 0.950 . S
C431 C430 1.349 . S
C431 C447 1.349 . S
C432 C430 1.327 . S
C432 C451 1.429 . S
C432 H456 0.950 . S
C433 C450 1.574 . S
C433 C452 1.368 . S
C433 H457 0.949 . S
H434 C438 0.949 . S
C435 C436 1.349 . S
C435 C437 1.327 . S
C435 H458 0.950 . S
C436 C435 1.349 . S
C436 C448 1.349 . S
C437 C435 1.327 . S
C437 C453 1.429 . S
C437 H459 0.950 . S
C438 H434 0.949 . S
C438 C446 1.574 . S
C438 C454 1.368 . S
H439 C447 0.950 . S
H440 C445 0.950 . S
H441 C446 0.949 . S
H442 C448 0.950 . S
H443 C449 0.950 . S
H444 C450 0.949 . S
C445 H440 0.950 . S
C445 C447 1.327 . S
C445 C451 1.429 . S
C446 C438 1.574 . S
C446 H441 0.949 . S
C446 C452 1.368 . S
C447 C431 1.349 . S
C447 H439 0.950 . S
C447 C445 1.327 . S
C448 C436 1.349 . S
C448 H442 0.950 . S
C448 C449 1.327 . S
C449 H443 0.950 . S
C449 C448 1.327 . S
C449 C453 1.429 . S
C450 C433 1.574 . S
C450 H444 0.949 . S
C450 C454 1.368 . S
C451 C432 1.429 . S
C451 C445 1.429 . S
C451 C452 1.523 . S
C452 C433 1.368 . S
C452 C446 1.368 . S
C452 C451 1.523 . S
C453 C437 1.429 . S
C453 C449 1.429 . S
C453 C454 1.523 . S
C454 C438 1.368 . S
C454 C450 1.368 . S
C454 C453 1.523 . S
H455 C430 0.950 . S
H456 C432 0.950 . S
H457 C433 0.949 . S
H458 C435 0.950 . S
H459 C437 0.950 . S
C460 C461 1.349 . S
C460 C462 1.327 . S
C460 H485 0.950 . S
C461 C460 1.349 . S
C461 C477 1.349 . S
C462 C460 1.327 . S
C462 C481 1.429 . S
C462 H486 0.950 . S
C463 C480 1.574 . S
C463 C482 1.368 . S
C463 H487 0.949 . S
H464 C468 0.949 . S
C465 C466 1.349 . S
C465 C467 1.327 . S
C465 H488 0.950 . S
C466 C465 1.349 . S
C466 C478 1.349 . S
C467 C465 1.327 . S
C467 C483 1.429 . S
C467 H489 0.950 . S
C468 H464 0.949 . S
C468 C476 1.574 . S
C468 C484 1.368 . S
H469 C477 0.950 . S
H470 C475 0.950 . S
H471 C476 0.949 . S
H472 C478 0.950 . S
H473 C479 0.950 . S
H474 C480 0.949 . S
C475 H470 0.950 . S
C475 C477 1.327 . S
C475 C481 1.429 . S
C476 C468 1.574 . S
C476 H471 0.949 . S
C476 C482 1.368 . S
C477 C461 1.349 . S
C477 H469 0.950 . S
C477 C475 1.327 . S
C478 C466 1.349 . S
C478 H472 0.950 . S
C478 C479 1.327 . S
C479 H473 0.950 . S
C479 C478 1.327 . S
C479 C483 1.429 . S
C480 C463 1.574 . S
C480 H474 0.949 . S
C480 C484 1.368 . S
C481 C462 1.429 . S
C481 C475 1.429 . S
C481 C482 1.523 . S
C482 C463 1.368 . S
C482 C476 1.368 . S
C482 C481 1.523 . S
C483 C467 1.429 . S
C483 C479 1.429 . S
C483 C484 1.523 . S
C484 C468 1.368 . S
C484 C480 1.368 . S
C484 C483 1.523 . S
H485 C460 0.950 . S
H486 C462 0.950 . S
H487 C463 0.949 . S
H488 C465 0.950 . S
H489 C467 0.950 . S
C490 C491 1.349 . S
C490 C492 1.327 . S
C490 H515 0.950 . S
C491 C490 1.349 . S
C491 C507 1.349 . S
C492 C490 1.327 . S
C492 C511 1.429 . S
C492 H516 0.950 . S
C493 C510 1.574 . S
C493 C512 1.368 . S
C493 H517 0.949 . S
H494 C498 0.949 . S
C495 C496 1.349 . S
C495 C497 1.327 . S
C495 H518 0.950 . S
C496 C495 1.349 . S
C496 C508 1.349 . S
C497 C495 1.327 . S
C497 C513 1.429 . S
C497 H519 0.950 . S
C498 H494 0.949 . S
C498 C506 1.574 . S
C498 C514 1.368 . S
H499 C507 0.966 . S
H500 C505 0.950 . S
H501 C506 0.949 . S
H502 C508 0.950 . S
H503 C509 0.950 . S
H504 C510 0.949 . S
C505 H500 0.950 . S
C505 C507 1.327 . S
C505 C511 1.429 . S
C506 C498 1.574 . S
C506 H501 0.949 . S
C506 C512 1.368 . S
C507 C491 1.349 . S
C507 H499 0.966 . S
C507 C505 1.327 . S
C508 C496 1.349 . S
C508 H502 0.950 . S
C508 C509 1.327 . S
C509 H503 0.950 . S
C509 C508 1.327 . S
C509 C513 1.429 . S
C510 C493 1.574 . S
C510 H504 0.949 . S
C510 C514 1.368 . S
C511 C492 1.429 . S
C511 C505 1.429 . S
C511 C512 1.523 . S
C512 C493 1.368 . S
C512 C506 1.368 . S
C512 C511 1.523 . S
C513 C497 1.429 . S
C513 C509 1.429 . S
C513 C514 1.523 . S
C514 C498 1.368 . S
C514 C510 1.368 . S
C514 C513 1.523 . S
H515 C490 0.950 . S
H516 C492 0.950 . S
H517 C493 0.949 . S
H518 C495 0.950 . S
H519 C497 0.950 . S
C520 C521 1.349 . S
C520 C522 1.327 . S
C520 H545 0.950 . S
C521 C520 1.349 . S
C521 C537 1.349 . S
C522 C520 1.327 . S
C522 C541 1.429 . S
C522 H546 0.950 . S
C523 C540 1.574 . S
C523 C542 1.368 . S
C523 H547 0.949 . S
H524 C528 0.949 . S
C525 C526 1.349 . S
C525 C527 1.327 . S
C525 H548 0.950 . S
C526 C525 1.349 . S
C526 C538 1.349 . S
C527 C525 1.327 . S
C527 C543 1.429 . S
C527 H549 0.950 . S
C528 H524 0.949 . S
C528 C536 1.574 . S
C528 C544 1.368 . S
H529 C537 0.950 . S
H530 C535 0.950 . S
H531 C536 0.949 . S
H532 C538 0.950 . S
H533 C539 0.950 . S
H534 C540 0.949 . S
C535 H530 0.950 . S
C535 C537 1.327 . S
C535 C541 1.429 . S
C536 C528 1.574 . S
C536 H531 0.949 . S
C536 C542 1.368 . S
C537 C521 1.349 . S
C537 H529 0.950 . S
C537 C535 1.327 . S
C538 C526 1.349 . S
C538 H532 0.950 . S
C538 C539 1.327 . S
C539 H533 0.950 . S
C539 C538 1.327 . S
C539 C543 1.429 . S
C540 C523 1.574 . S
C540 H534 0.949 . S
C540 C544 1.368 . S
C541 C522 1.429 . S
C541 C535 1.429 . S
C541 C542 1.523 . S
C542 C523 1.368 . S
C542 C536 1.368 . S
C542 C541 1.523 . S
C543 C527 1.429 . S
C543 C539 1.429 . S
C543 C544 1.523 . S
C544 C528 1.368 . S
C544 C540 1.368 . S
C544 C543 1.523 . S
H545 C520 0.950 . S
H546 C522 0.950 . S
H547 C523 0.949 . S
H548 C525 0.950 . S
H549 C527 0.950 . S
C550 C551 1.349 . S
C550 C552 1.327 . S
C550 H575 0.950 . S
C551 C550 1.349 . S
C551 C567 1.349 . S
C552 C550 1.327 . S
C552 C571 1.429 . S
C552 H576 0.950 . S
C553 C570 1.574 . S
C553 C572 1.368 . S
C553 H577 0.949 . S
H554 C558 0.949 . S
C555 C556 1.349 . S
C555 C557 1.327 . S
C555 H578 0.950 . S
C556 C555 1.349 . S
C556 C568 1.349 . S
C557 C555 1.327 . S
C557 C573 1.429 . S
C557 H579 0.950 . S
C558 H554 0.949 . S
C558 C566 1.574 . S
C558 C574 1.368 . S
H559 C567 0.950 . S
H560 C565 0.950 . S
H561 C566 0.949 . S
H562 C568 0.950 1_545 S
H563 C569 0.950 . S
H564 C570 0.949 . S
C565 H560 0.950 . S
C565 C567 1.327 . S
C565 C571 1.429 . S
C566 C558 1.574 . S
C566 H561 0.949 . S
C566 C572 1.368 . S
C567 C551 1.349 . S
C567 H559 0.950 . S
C567 C565 1.327 . S
C568 C556 1.349 . S
C568 H562 0.950 1_565 S
C568 C569 1.327 . S
C569 H563 0.950 . S
C569 C568 1.327 . S
C569 C573 1.429 . S
C570 C553 1.574 . S
C570 H564 0.949 . S
C570 C574 1.368 . S
C571 C552 1.429 . S
C571 C565 1.429 . S
C571 C572 1.523 . S
C572 C553 1.368 . S
C572 C566 1.368 . S
C572 C571 1.523 . S
C573 C557 1.429 . S
C573 C569 1.429 . S
C573 C574 1.523 . S
C574 C558 1.368 . S
C574 C570 1.368 . S
C574 C573 1.523 . S
H575 C550 0.950 . S
H576 C552 0.950 . S
H577 C553 0.949 . S
H578 C555 0.950 . S
H579 C557 0.950 . S
C226 C115 1.694 . S
C221 N41 1.724 . S
C251 N2 1.676 . S
C256 C210 1.658 . S
C281 N15 1.719 . S
C286 C126 1.694 . S
C311 N28 1.670 . S
C316 C199 1.659 . S
C346 C110 1.431 . S
C341 N5 1.615 . S
C376 C203 1.693 . S
C371 N14 1.682 . S
C401 N27 1.590 . S
C406 C119 1.622 . S
C431 N44 1.586 . S
C436 C194 1.433 . S
C466 C205 1.433 . S
C461 N18 1.585 . S
C496 C121 1.432 . S
C491 N31 1.614 1_556 S
C526 C192 1.693 . S
C521 N40 1.692 . S
C551 N1 1.604 1_556 S
C556 C108 1.623 . S
