# Generated by pormake.
# Topology tsx, (6,3)-cn, num edge types: 1
# Building blocks:
#     Node 0, Type 0, BuildingBlock: FUNLAD_clean_sbu_0, # of connection points: 6
#     Node 1, Type 0, BuildingBlock: FUNLAD_clean_sbu_0, # of connection points: 6
#     Node 2, Type 1, BuildingBlock: KAKCAD_clean_linker_0, # of connection points: 3
#     Node 3, Type 1, BuildingBlock: KAKCAD_clean_linker_0, # of connection points: 3
#     Node 4, Type 1, BuildingBlock: KAKCAD_clean_linker_0, # of connection points: 3
#     Node 5, Type 1, BuildingBlock: KAKCAD_clean_linker_0, # of connection points: 3
#     Edge 6, Type (0, 1), BuildingBlock: TEMPAE_clean_linker_10, # of connection points: 2
#     Edge 7, Type (0, 1), BuildingBlock: TEMPAE_clean_linker_10, # of connection points: 2
#     Edge 8, Type (0, 1), BuildingBlock: TEMPAE_clean_linker_10, # of connection points: 2
#     Edge 9, Type (0, 1), BuildingBlock: TEMPAE_clean_linker_10, # of connection points: 2
#     Edge 10, Type (0, 1), BuildingBlock: TEMPAE_clean_linker_10, # of connection points: 2
#     Edge 11, Type (0, 1), BuildingBlock: TEMPAE_clean_linker_10, # of connection points: 2
#     Edge 12, Type (0, 1), BuildingBlock: TEMPAE_clean_linker_10, # of connection points: 2
#     Edge 13, Type (0, 1), BuildingBlock: TEMPAE_clean_linker_10, # of connection points: 2
#     Edge 14, Type (0, 1), BuildingBlock: TEMPAE_clean_linker_10, # of connection points: 2
#     Edge 15, Type (0, 1), BuildingBlock: TEMPAE_clean_linker_10, # of connection points: 2
#     Edge 16, Type (0, 1), BuildingBlock: TEMPAE_clean_linker_10, # of connection points: 2
#     Edge 17, Type (0, 1), BuildingBlock: TEMPAE_clean_linker_10, # of connection points: 2
# Relax obj value: 0.164
# Max RMSD: 0.155
# Mean RMSD: 0.089
data_MOF--net-tsx--node1-FUNLAD_clean_sbu_0--node2-KAKCAD_clean_linker_0--edge1-TEMPAE_clean_linker_10
_symmetry_space_group_name_H-M    P1
_symmetry_Int_Tables_number       1
_symmetry_cell_setting            triclinic
loop_
_symmetry_equiv_pos_as_xyz
'x, y, z'
_cell_length_a     23.51172
_cell_length_b     26.202504
_cell_length_c     50.396579
_cell_angle_alpha  91.31672
_cell_angle_beta   91.945989
_cell_angle_gamma 89.916104
loop_
_atom_site_label
_atom_site_type_symbol
_atom_site_fract_x
_atom_site_fract_y
_atom_site_fract_z
_atom_type_partial_charge
C0 C 0.90566 0.92368 1.0001 0.0
N1 N 0.97779 -0.00127 0.0673 0.0
C2 C 0.92588 -0.00405 0.07831 0.0
C3 C 0.92157 0.99194 0.10573 0.0
C4 C 0.97115 0.99033 0.12207 0.0
C5 C 0.0242 -0.00636 0.11015 0.0
C6 C 0.02654 -0.00203 0.08262 0.0
Zn7 Zn 0.98169 0.00185 0.02688 0.0
C8 C 0.06976 0.93369 0.00567 0.0
N9 N 0.98706 0.00645 0.94228 0.0
C10 C 0.93907 0.00269 0.92649 0.0
C11 C 0.0393 0.01013 0.93165 0.0
C12 C 0.04483 0.00954 0.90418 0.0
C13 C 0.99618 0.00491 0.88735 0.0
C14 C 0.94267 0.00185 0.89884 0.0
Zn15 Zn 0.98255 0.00438 0.98272 0.0
O16 O 0.92294 0.94109 0.0227 0.0
C17 C 0.89444 0.07254 0.00415 0.0
O18 O 0.92357 0.94368 0.97923 0.0
H19 H 0.07695 0.01312 0.94452 0.0
H20 H 0.88763 -0.00346 0.06579 0.0
H21 H 0.89798 -0.00033 0.93534 0.0
O22 O 0.91432 0.05503 0.02586 0.0
O23 O 0.91544 0.05782 0.98235 0.0
H24 H 0.06738 0.00012 0.07346 0.0
O25 O 0.04164 0.06465 0.98675 0.0
O26 O 0.04137 0.06238 0.03025 0.0
O27 O 0.04974 0.95097 0.98393 0.0
O28 O 0.04882 0.94868 0.02738 0.0
C29 C 0.05987 0.08161 0.00926 0.0
H30 H 0.87974 0.99039 0.11403 0.0
H31 H 0.06357 0.99196 0.12188 0.0
H32 H 0.08684 0.01284 0.89622 0.0
H33 H 0.90409 -0.00225 0.88663 0.0
C34 C 0.43424 0.44408 0.4996 0.0
N35 N 0.51464 0.52522 0.56266 0.0
C36 C 0.46415 0.52467 0.57509 0.0
C37 C 0.46313 0.52486 0.60277 0.0
C38 C 0.51455 0.52512 0.61776 0.0
C39 C 0.56599 0.52594 0.60444 0.0
C40 C 0.56506 0.5262 0.57675 0.0
Zn41 Zn 0.51501 0.52243 0.52217 0.0
C42 C 0.59885 0.44777 0.50248 0.0
N43 N 0.51559 0.51478 0.43754 0.0
C44 C 0.46659 0.51332 0.42238 0.0
C45 C 0.56735 0.5137 0.42626 0.0
C46 C 0.57132 0.5112 0.39873 0.0
C47 C 0.52155 0.50972 0.38255 0.0
C48 C 0.4686 0.51068 0.39468 0.0
Zn49 Zn 0.51373 0.51834 0.47803 0.0
O50 O 0.45543 0.46249 0.52129 0.0
C51 C 0.42845 0.59145 0.49821 0.0
O52 O 0.45034 0.46126 0.47771 0.0
H53 H 0.60582 0.5146 0.43864 0.0
H54 H 0.42457 0.52354 0.56352 0.0
H55 H 0.4259 0.51424 0.43178 0.0
O56 O 0.44785 0.5751 0.52023 0.0
O57 O 0.44974 0.57573 0.47664 0.0
H58 H 0.60468 0.52679 0.56648 0.0
O59 O 0.57742 0.57461 0.47885 0.0
O60 O 0.57501 0.5827 0.52226 0.0
O61 O 0.57701 0.46108 0.4803 0.0
O62 O 0.58153 0.46854 0.52371 0.0
C63 C 0.59537 0.59584 0.5004 0.0
H64 H 0.42259 0.52373 0.61233 0.0
H65 H 0.60651 0.52666 0.61534 0.0
H66 H 0.613 0.50972 0.39023 0.0
H67 H 0.42921 0.50999 0.3829 0.0
C68 C 0.93372 0.92241 0.33436 0.0
C69 C 0.94164 0.96823 0.321 0.0
C70 C 0.93227 0.92234 0.3621 0.0
C71 C 0.93918 0.96806 0.37706 0.0
C72 C 0.94721 0.01379 0.36356 0.0
C73 C 0.94813 0.01389 0.3359 0.0
C74 C 0.9401 0.9683 0.40663 0.0
C75 C 0.96778 0.92931 0.42077 0.0
C76 C 0.97401 0.93252 0.44857 0.0
C77 C 0.95192 0.97456 0.46243 0.0
C78 C 0.9232 0.01325 0.4487 0.0
C79 C 0.91684 0.00955 0.4209 0.0
C80 C 0.90174 0.05873 0.4631 0.0
C81 C 0.8703 0.05369 0.48611 0.0
C82 C 0.9111 0.10759 0.45327 0.0
C83 C 0.8872 0.15041 0.4654 0.0
C84 C 0.85336 0.1453 0.48762 0.0
C85 C 0.00988 0.89506 0.46257 0.0
C86 C -0.00309 0.84293 0.46075 0.0
C87 C 0.06053 0.91114 0.47557 0.0
C88 C 0.09977 0.87536 0.48495 0.0
C89 C 0.08855 0.82267 0.48203 0.0
C90 C 0.03552 0.80705 0.47075 0.0
C91 C 0.84605 0.09666 0.49821 0.0
H92 H 0.92814 0.8867 0.32332 0.0
H93 H 0.92543 0.88652 0.3718 0.0
H94 H 0.95413 0.04956 0.37438 0.0
H95 H 0.95526 0.04965 0.32616 0.0
H96 H 0.98764 0.89797 0.41015 0.0
H97 H 0.89394 0.03919 0.41034 0.0
H98 H 0.9587 0.97789 0.48377 0.0
H99 H 0.86265 0.0164 0.49412 0.0
H100 H 0.93606 0.1126 0.43584 0.0
H101 H 0.8931 0.18728 0.45659 0.0
H102 H 0.9575 0.82998 0.45108 0.0
H103 H 0.07132 0.95132 0.47703 0.0
H104 H 0.82043 0.09173 0.51543 0.0
H105 H 0.02429 0.76705 0.46897 0.0
H106 H 0.14014 0.88929 0.4931 0.0
C107 C 0.03731 0.03948 0.6741 0.0
C108 C 0.04095 -0.00583 0.68844 0.0
C109 C 0.04253 0.03848 0.64656 0.0
C110 C 0.05167 0.99216 0.6327 0.0
C111 C 0.05585 0.94687 0.64709 0.0
C112 C 0.05051 0.94787 0.67465 0.0
C113 C 0.0549 0.99108 0.60326 0.0
C114 C 0.08327 0.02998 0.59024 0.0
C115 C 0.08296 0.03119 0.56234 0.0
C116 C 0.05427 0.99283 0.5474 0.0
C117 C 0.02667 0.95358 0.56013 0.0
C118 C 0.02721 0.95254 0.58793 0.0
C119 C 0.99224 0.91634 0.54456 0.0
C120 C 0.93867 0.93071 0.53436 0.0
C121 C 0.0105 0.86574 0.54165 0.0
C122 C 0.97435 0.82923 0.52956 0.0
C123 C 0.91899 0.84269 0.52066 0.0
C124 C 0.11149 0.07318 0.54886 0.0
C125 C 0.10583 0.12375 0.55822 0.0
C126 C 0.14515 0.06298 0.52684 0.0
C127 C 0.17416 0.10247 0.51498 0.0
C128 C 0.16972 0.15286 0.52484 0.0
C129 C 0.13462 0.16317 0.54633 0.0
C130 C 0.90221 0.89423 0.52262 0.0
H131 H 0.02914 0.07566 0.68409 0.0
H132 H 0.03801 0.07394 0.63606 0.0
H133 H 0.06359 0.91065 0.63707 0.0
H134 H 0.05432 0.91241 0.6852 0.0
H135 H 0.10601 0.05922 0.60185 0.0
H136 H 0.00371 0.92296 0.59751 0.0
H137 H 0.05214 -0.00592 0.52589 0.0
H138 H 0.92406 0.96978 0.53657 0.0
H139 H 0.05216 0.85432 0.54924 0.0
H140 H 0.98938 0.79027 0.52777 0.0
H141 H 0.07942 0.13283 0.57489 0.0
H142 H 0.15032 0.0243 0.51923 0.0
H143 H 0.85981 0.90621 0.51646 0.0
H144 H 0.13089 0.20153 0.55458 0.0
H145 H 0.20067 0.09351 0.49833 0.0
C146 C 0.45577 0.5191 0.83004 0.0
C147 C 0.50818 0.51501 0.81758 0.0
C148 C 0.45357 0.51878 0.85768 0.0
C149 C 0.50369 0.51389 0.8734 0.0
C150 C 0.5561 0.5095 0.86096 0.0
C151 C 0.55836 0.51036 0.8333 0.0
C152 C 0.50103 0.51311 0.90271 0.0
C153 C 0.53071 0.47589 0.91719 0.0
C154 C 0.52593 0.47372 0.94479 0.0
C155 C 0.49226 0.50936 0.95812 0.0
C156 C 0.46421 0.54807 0.94406 0.0
C157 C 0.46814 0.54926 0.91631 0.0
C158 C 0.43141 0.58771 0.95826 0.0
C159 C 0.39465 0.57455 0.97842 0.0
C160 C 0.4359 0.63907 0.95127 0.0
C161 C 0.4026 0.67629 0.96339 0.0
C162 C 0.36419 0.66296 0.98282 0.0
C163 C 0.55715 0.43459 0.95975 0.0
C164 C 0.52777 0.39716 0.97322 0.0
C165 C 0.61665 0.43386 0.95992 0.0
C166 C 0.6466 0.3954 0.97292 0.0
C167 C 0.61749 0.35683 0.9859 0.0
C168 C 0.55773 0.35844 0.98622 0.0
C169 C 0.36124 0.61187 0.99057 0.0
H170 H 0.4165 0.52312 0.81839 0.0
H171 H 0.41256 0.52178 0.86676 0.0
H172 H 0.59538 0.50597 0.87264 0.0
H173 H 0.59927 0.50683 0.82417 0.0
H174 H 0.55629 0.44769 0.90696 0.0
H175 H 0.44561 0.57845 0.90524 0.0
H176 H 0.48945 0.50779 0.97951 0.0
H177 H 0.39037 0.53522 0.98421 0.0
H178 H 0.46468 0.65043 0.93615 0.0
H179 H 0.4054 0.71522 0.95677 0.0
H180 H 0.48169 0.39726 0.9731 0.0
H181 H 0.63988 0.46264 0.94962 0.0
H182 H 0.3323 0.60062 0.00565 0.0
H183 H 0.53418 0.32939 0.99614 0.0
H184 H 0.69252 0.39475 0.97183 0.0
C185 C 0.56467 0.52049 0.16808 0.0
C186 C 0.56283 0.47731 0.18407 0.0
C187 C 0.56752 0.51503 0.14052 0.0
C188 C 0.56857 0.46626 0.12833 0.0
C189 C 0.56821 0.42309 0.14437 0.0
C190 C 0.56539 0.42855 0.17194 0.0
C191 C 0.56656 0.46052 0.09892 0.0
C192 C 0.59861 0.49258 0.08325 0.0
C193 C 0.59302 0.48996 0.05537 0.0
C194 C 0.55489 0.45481 0.04318 0.0
C195 C 0.52339 0.42192 0.05858 0.0
C196 C 0.5296 0.42486 0.08637 0.0
C197 C 0.48137 0.38624 0.04607 0.0
C198 C 0.44036 0.40364 0.02749 0.0
C199 C 0.47922 0.33551 0.0543 0.0
C200 C 0.43533 0.30336 0.04508 0.0
C201 C 0.39263 0.32132 0.02746 0.0
C202 C 0.62517 0.52578 0.03923 0.0
C203 C 0.68261 0.53612 0.04563 0.0
C204 C 0.59776 0.55243 0.01855 0.0
C205 C 0.62643 0.59069 0.00551 0.0
C206 C 0.68302 0.603 0.01297 0.0
C207 C 0.71119 0.57435 0.03269 0.0
C208 C 0.39631 0.37143 0.01826 0.0
H209 H 0.56349 0.55857 0.17687 0.0
H210 H 0.56714 0.54906 0.12871 0.0
H211 H 0.56948 0.38501 0.13558 0.0
H212 H 0.56366 0.39452 0.18369 0.0
H213 H 0.62703 0.52045 0.0928 0.0
H214 H 0.50337 0.40095 0.09826 0.0
H215 H 0.55002 0.45286 0.02175 0.0
H216 H 0.44112 0.44267 0.02086 0.0
H217 H 0.51066 0.32117 0.06848 0.0
H218 H 0.43346 0.26514 0.05275 0.0
H219 H 0.705 0.51565 0.06123 0.0
H220 H 0.55336 0.54551 0.01336 0.0
H221 H 0.36441 0.38609 0.00441 0.0
H222 H 0.75454 0.58317 0.03915 0.0
H223 H 0.60375 0.61174 0.99022 0.0
C224 C 0.12288 0.14373 0.98753 0.0
C225 C 0.10449 0.12138 0.01079 0.0
C226 C 0.168 0.17871 0.98835 0.0
C227 C 0.19552 0.19142 0.01299 0.0
C228 C 0.17628 0.17001 0.03662 0.0
C229 C 0.13086 0.13531 0.03525 0.0
C230 C 0.18708 0.20112 0.96278 0.0
C231 C 0.20469 0.1827 0.06329 0.0
C232 C 0.34866 0.23663 0.01532 0.0
C233 C 0.34224 0.28905 0.02061 0.0
C234 C 0.30112 0.2046 0.01208 0.0
C235 C 0.24587 0.22559 0.01406 0.0
C236 C 0.239 0.27878 0.01826 0.0
C237 C 0.28733 0.30989 0.02155 0.0
C238 C 0.31008 0.14805 0.00746 0.0
C239 C 0.18072 0.30254 0.02032 0.0
H240 H 0.10258 0.13332 0.96854 0.0
H241 H 0.11693 0.11819 0.05329 0.0
H242 H 0.18748 0.24341 0.96445 0.0
H243 H 0.23121 0.18864 0.95893 0.0
H244 H 0.1592 0.18944 0.94547 0.0
H245 H 0.18327 0.16424 0.07987 0.0
H246 H 0.24974 0.17 0.06338 0.0
H247 H 0.20477 0.2246 0.06696 0.0
H248 H 0.39102 0.22049 0.01421 0.0
H249 H 0.28206 0.35027 0.02597 0.0
H250 H 0.2857 0.13473 0.98939 0.0
H251 H 0.2939 0.12678 0.02443 0.0
H252 H 0.35565 0.13818 0.00517 0.0
H253 H 0.15314 0.29086 0.00295 0.0
H254 H 0.18255 0.3449 0.02151 0.0
H255 H 0.16021 0.28874 0.03832 0.0
C256 C 0.13675 0.87453 0.02934 0.0
C257 C 0.11623 0.89577 0.00556 0.0
C258 C 0.17938 0.83704 0.02925 0.0
C259 C 0.20181 0.82058 0.00481 0.0
C260 C 0.1821 0.84263 0.98083 0.0
C261 C 0.13953 0.87997 0.9815 0.0
C262 C 0.1996 0.81434 0.05518 0.0
C263 C 0.2052 0.82611 0.95436 0.0
C264 C 0.34233 0.75164 0.99896 0.0
C265 C 0.32398 0.70164 0.99302 0.0
C266 C 0.30313 0.79051 0.00439 0.0
C267 C 0.24436 0.77889 0.0039 0.0
C268 C 0.22591 0.7279 0.99963 0.0
C269 C 0.266 0.68984 0.9942 0.0
C270 C 0.32433 0.84444 0.00906 0.0
C271 C 0.16352 0.71407 0.99904 0.0
H272 H 0.11902 0.88672 0.04803 0.0
H273 H 0.1241 0.89638 0.96306 0.0
H274 H 0.18895 0.77311 0.05515 0.0
H275 H 0.24656 0.8175 0.05753 0.0
H276 H 0.18005 0.83331 0.07258 0.0
H277 H 0.18653 0.84823 0.93765 0.0
H278 H 0.25211 0.83081 0.9547 0.0
H279 H 0.19603 0.78503 0.95048 0.0
H280 H 0.38726 0.76069 0.99848 0.0
H281 H 0.25151 0.65138 0.98938 0.0
H282 H 0.30443 0.86218 0.02666 0.0
H283 H 0.31211 0.8678 0.99168 0.0
H284 H 0.37134 0.84605 0.01205 0.0
H285 H 0.14267 0.73051 0.01671 0.0
H286 H 0.15673 0.67211 0.99842 0.0
H287 H 0.14206 0.73043 0.98121 0.0
C288 C 0.84783 0.85921 0.97346 0.0
C289 C 0.86746 0.87889 0.99824 0.0
C290 C 0.81449 0.81477 0.97159 0.0
C291 C 0.80092 0.78941 0.99503 0.0
C292 C 0.81963 0.80972 0.0201 0.0
C293 C 0.85247 0.85427 0.0214 0.0
C294 C 0.79473 0.79441 0.94457 0.0
C295 C 0.80608 0.78373 0.04559 0.0
C296 C 0.68085 0.69511 0.00105 0.0
C297 C 0.71092 0.64892 0.00266 0.0
C298 C 0.70907 0.74103 0.9965 0.0
C299 C 0.76874 0.74069 0.99372 0.0
C300 C 0.79859 0.69374 0.99329 0.0
C301 C 0.76922 0.64835 0.99765 0.0
C302 C 0.67565 0.79028 0.99675 0.0
C303 C 0.86224 0.69178 0.99026 0.0
H304 H 0.85911 0.87814 0.95548 0.0
H305 H 0.86737 0.86923 0.04062 0.0
H306 H 0.81454 0.75665 0.94066 0.0
H307 H 0.74796 0.78867 0.94395 0.0
H308 H 0.80579 0.82039 0.92841 0.0
H309 H 0.82292 0.80505 0.06347 0.0
H310 H 0.75935 0.77969 0.04713 0.0
H311 H 0.82458 0.74474 0.04558 0.0
H312 H 0.63585 0.69601 0.00506 0.0
H313 H 0.79244 0.6126 0.99834 0.0
H314 H 0.68847 0.81509 0.98045 0.0
H315 H 0.68474 0.81141 0.01575 0.0
H316 H 0.62906 0.78344 0.99477 0.0
H317 H 0.87486 0.71511 0.97335 0.0
H318 H 0.87788 0.65214 0.9871 0.0
H319 H 0.8838 0.70809 0.00846 0.0
C320 C 0.83694 0.14026 0.98204 0.0
C321 C 0.84838 0.11078 0.00442 0.0
C322 C 0.79542 0.17858 0.98241 0.0
C323 C 0.76399 0.18701 0.0056 0.0
C324 C 0.77421 0.15646 0.02803 0.0
C325 C 0.81673 0.1189 0.02726 0.0
C326 C 0.78604 0.21078 0.95815 0.0
C327 C 0.74072 0.16384 0.05287 0.0
C328 C 0.70311 0.32015 0.00924 0.0
C329 C 0.64969 0.31273 0.99653 0.0
C330 C 0.73962 0.27887 0.01404 0.0
C331 C 0.72177 0.22902 0.00628 0.0
C332 C 0.66584 0.22078 0.99584 0.0
C333 C 0.63048 0.26286 0.99093 0.0
C334 C 0.79891 0.28919 0.02533 0.0
C335 C 0.64491 0.16802 0.98784 0.0
H336 H 0.86141 0.13423 0.96439 0.0
H337 H 0.82517 0.09587 0.04456 0.0
H338 H 0.74108 0.20789 0.95088 0.0
H339 H 0.79447 0.25151 0.96339 0.0
H340 H 0.81393 0.19913 0.94172 0.0
H341 H 0.75172 0.135 0.06803 0.0
H342 H 0.74904 0.2024 0.06168 0.0
H343 H 0.69444 0.16146 0.04793 0.0
H344 H 0.71754 0.35859 0.01419 0.0
H345 H 0.58929 0.25677 0.98105 0.0
H346 H 0.83005 0.28318 0.00949 0.0
H347 H 0.80997 0.2623 0.04138 0.0
H348 H 0.80367 0.32886 0.03335 0.0
H349 H 0.66503 0.15554 0.96917 0.0
H350 H 0.59798 0.16704 0.98447 0.0
H351 H 0.65701 0.14007 0.00325 0.0
C352 C 0.64674 0.67193 0.51952 0.0
C353 C 0.64195 0.63318 0.50003 0.0
C354 C 0.69235 0.70636 0.51988 0.0
C355 C 0.73496 0.70063 0.50081 0.0
C356 C 0.73006 0.66168 0.48097 0.0
C357 C 0.68304 0.62882 0.48058 0.0
C358 C 0.69544 0.74832 0.54093 0.0
C359 C 0.77554 0.6534 0.46086 0.0
C360 C 0.83315 0.81359 0.4933 0.0
C361 C 0.87676 0.80285 0.5121 0.0
C362 C 0.78728 0.77998 0.48878 0.0
C363 C 0.78609 0.73375 0.50269 0.0
C364 C 0.83212 0.72075 0.52003 0.0
C365 C 0.87643 0.75575 0.52484 0.0
C366 C 0.73858 0.79537 0.47035 0.0
C367 C 0.83319 0.67101 0.53462 0.0
H368 H 0.61468 0.67543 0.53443 0.0
H369 H 0.67955 0.59845 0.46564 0.0
H370 H 0.73264 0.742 0.55459 0.0
H371 H 0.70144 0.78582 0.53162 0.0
H372 H 0.65652 0.75014 0.55282 0.0
H373 H 0.76377 0.62315 0.44587 0.0
H374 H 0.78387 0.68926 0.4504 0.0
H375 H 0.81594 0.64225 0.4712 0.0
H376 H 0.83374 0.84916 0.48277 0.0
H377 H 0.90926 0.747 0.53963 0.0
H378 H 0.7 0.80218 0.48203 0.0
H379 H 0.72833 0.76429 0.45568 0.0
H380 H 0.74804 0.83063 0.4595 0.0
H381 H 0.80032 0.67181 0.5499 0.0
H382 H 0.87519 0.6638 0.54462 0.0
H383 H 0.82306 0.63859 0.52072 0.0
C384 C 0.6637 0.38973 0.52815 0.0
C385 C 0.64206 0.40684 0.50361 0.0
C386 C 0.70176 0.3485 0.52944 0.0
C387 C 0.71835 0.32395 0.50564 0.0
C388 C 0.69795 0.34201 0.48082 0.0
C389 C 0.6601 0.38328 0.48011 0.0
C390 C 0.72294 0.33034 0.55622 0.0
C391 C 0.71487 0.31685 0.45498 0.0
C392 C 0.84697 0.23816 0.49989 0.0
C393 C 0.82117 0.18996 0.49762 0.0
C394 C 0.81441 0.28222 0.5043 0.0
C395 C 0.75478 0.27775 0.50639 0.0
C396 C 0.72915 0.22889 0.50604 0.0
C397 C 0.76273 0.1855 0.50166 0.0
C398 C 0.8433 0.33367 0.50489 0.0
C399 C 0.66566 0.2226 0.50829 0.0
H400 H 0.65007 0.40788 0.54641 0.0
H401 H 0.64379 0.39644 0.46108 0.0
H402 H 0.70628 0.2915 0.55954 0.0
H403 H 0.77006 0.32771 0.5569 0.0
H404 H 0.70952 0.356 0.57272 0.0
H405 H 0.69691 0.3368 0.43737 0.0
H406 H 0.7619 0.31603 0.45382 0.0
H407 H 0.69984 0.2767 0.45406 0.0
H408 H 0.89233 0.24159 0.49716 0.0
H409 H 0.7425 0.14839 0.49969 0.0
H410 H 0.82825 0.35777 0.52162 0.0
H411 H 0.83226 0.35376 0.48626 0.0
H412 H 0.89036 0.33025 0.50677 0.0
H413 H 0.65015 0.24551 0.52536 0.0
H414 H 0.6534 0.1821 0.51076 0.0
H415 H 0.64365 0.23681 0.49008 0.0
C416 C 0.37461 0.38413 0.52435 0.0
C417 C 0.39209 0.40239 0.50001 0.0
C418 C 0.33619 0.34354 0.52531 0.0
C419 C 0.31465 0.32066 0.50132 0.0
C420 C 0.33132 0.33934 0.47665 0.0
C421 C 0.36996 0.38008 0.47627 0.0
C422 C 0.31932 0.32467 0.55204 0.0
C423 C 0.30899 0.31583 0.45073 0.0
C424 C 0.26295 0.18597 0.51045 0.0
C425 C 0.20486 0.19413 0.51432 0.0
C426 C 0.29879 0.22651 0.50452 0.0
C427 C 0.27585 0.27628 0.50245 0.0
C428 C 0.21662 0.28416 0.50461 0.0
C429 C 0.18177 0.2429 0.51056 0.0
C430 C 0.36177 0.21664 0.50231 0.0
C431 C 0.19059 0.33664 0.50228 0.0
H432 H 0.39134 0.40126 0.54278 0.0
H433 H 0.38322 0.39409 0.45738 0.0
H434 H 0.2724 0.32639 0.55362 0.0
H435 H 0.33222 0.28417 0.55414 0.0
H436 H 0.33912 0.34734 0.5688 0.0
H437 H 0.32428 0.33621 0.43325 0.0
H438 H 0.32262 0.27535 0.4492 0.0
H439 H 0.26177 0.31615 0.45001 0.0
H440 H 0.28107 0.14841 0.51354 0.0
H441 H 0.13667 0.24911 0.51312 0.0
H442 H 0.38497 0.23372 0.51988 0.0
H443 H 0.37809 0.23489 0.48445 0.0
H444 H 0.37175 0.1752 0.50124 0.0
H445 H 0.20387 0.36049 0.51988 0.0
H446 H 0.14334 0.33525 0.50106 0.0
H447 H 0.2059 0.35581 0.48447 0.0
C448 C 0.33503 0.61753 0.51546 0.0
C449 C 0.3788 0.62553 0.49783 0.0
C450 C 0.2858 0.64772 0.51467 0.0
C451 C 0.28143 0.68798 0.49649 0.0
C452 C 0.32638 0.6971 0.47916 0.0
C453 C 0.37418 0.66498 0.47967 0.0
C454 C 0.23782 0.63552 0.53267 0.0
C455 C 0.32391 0.74067 0.46006 0.0
C456 C 0.13917 0.74017 0.47241 0.0
C457 C 0.1341 0.7847 0.48825 0.0
C458 C 0.18548 0.70702 0.47586 0.0
C459 C 0.22907 0.71958 0.49489 0.0
C460 C 0.2237 0.76346 0.51149 0.0
C461 C 0.17567 0.79486 0.50837 0.0
C462 C 0.18872 0.65949 0.45842 0.0
C463 C 0.26988 0.77856 0.5317 0.0
H464 H 0.33851 0.58648 0.52929 0.0
H465 H 0.40832 0.67113 0.46617 0.0
H466 H 0.22741 0.66936 0.5452 0.0
H467 H 0.19898 0.62564 0.52051 0.0
H468 H 0.24829 0.60316 0.54585 0.0
H469 H 0.36414 0.74482 0.44937 0.0
H470 H 0.28861 0.73442 0.44519 0.0
H471 H 0.31513 0.77702 0.4709 0.0
H472 H 0.1082 0.73194 0.4565 0.0
H473 H 0.17161 0.82818 0.52128 0.0
H474 H 0.19898 0.62575 0.47062 0.0
H475 H 0.22327 0.66359 0.44418 0.0
H476 H 0.14827 0.65201 0.44696 0.0
H477 H 0.27874 0.74689 0.54546 0.0
H478 H 0.2585 0.81313 0.54355 0.0
H479 H 0.30987 0.78627 0.52142 0.0
C480 C 0.92642 0.95289 0.16175 0.0
C481 C 0.96741 0.98501 0.1513 0.0
C482 C 0.92147 0.94834 0.18927 0.0
C483 C 0.95878 0.97617 0.20681 0.0
C484 C 0.00081 0.00804 0.19645 0.0
C485 C 0.00445 0.01226 0.16884 0.0
C486 C 0.87599 0.91409 0.19958 0.0
C487 C 0.04154 0.03816 0.21454 0.0
C488 C 0.91393 0.00558 0.27719 0.0
C489 C 0.94416 0.96868 0.29164 0.0
C490 C 0.91773 0.00799 0.24953 0.0
C491 C 0.95301 0.9729 0.23602 0.0
C492 C 0.98324 0.93522 0.25047 0.0
C493 C 0.97822 0.9334 0.27812 0.0
C494 C 0.88429 0.04831 0.23478 0.0
C495 C 0.02168 0.89746 0.23678 0.0
H496 H 0.89829 0.93095 0.14839 0.0
H497 H 0.03576 0.03767 0.161 0.0
H498 H 0.89566 0.88451 0.21234 0.0
H499 H 0.84678 0.93676 0.21206 0.0
H500 H 0.85055 0.89481 0.1833 0.0
H501 H 0.07318 0.05967 0.20333 0.0
H502 H 0.0175 0.06565 0.22693 0.0
H503 H 0.06466 0.01217 0.22823 0.0
H504 H 0.88708 0.03255 0.28756 0.0
H505 H 0.00212 0.90518 0.28928 0.0
H506 H 0.85615 0.03011 0.21919 0.0
H507 H 0.91379 0.07388 0.22467 0.0
H508 H 0.85772 0.07189 0.24815 0.0
H509 H -0.00271 0.87576 0.22105 0.0
H510 H 0.04142 0.86996 0.25081 0.0
H511 H 0.05604 0.91813 0.22697 0.0
C512 C 0.04557 0.97429 0.84662 0.0
C513 C 0.00156 0.00264 0.85802 0.0
C514 C 0.05194 0.97236 0.81904 0.0
C515 C 0.01323 -0.00077 0.80238 0.0
C516 C 0.96839 0.02753 0.81369 0.0
C517 C 0.96312 0.02894 0.84137 0.0
C518 C 0.10023 0.94166 0.80773 0.0
C519 C 0.92628 0.05668 0.79655 0.0
C520 C 0.06061 0.03337 0.73368 0.0
C521 C 0.03412 -0.00475 0.71767 0.0
C522 C 0.05403 0.0352 0.76126 0.0
C523 C 0.02005 -0.00195 0.77312 0.0
C524 C 0.99316 0.95948 0.75708 0.0
C525 C 0.00058 0.95851 0.72955 0.0
C526 C 0.08369 0.07673 0.77773 0.0
C527 C 0.95641 0.91934 0.769 0.0
H528 H 0.07487 0.95315 0.85929 0.0
H529 H 0.92941 0.05138 0.85003 0.0
H530 H 0.08314 0.91181 0.79368 0.0
H531 H 0.12801 0.96678 0.79638 0.0
H532 H 0.12665 0.92292 0.8234 0.0
H533 H 0.89316 0.07599 0.80838 0.0
H534 H 0.94888 0.08592 0.78533 0.0
H535 H 0.90501 0.03041 0.78176 0.0
H536 H 0.08713 0.06151 0.72466 0.0
H537 H 0.97937 0.92937 0.71724 0.0
H538 H 0.11331 0.05948 0.79261 0.0
H539 H 0.05202 0.09937 0.78883 0.0
H540 H 0.10814 0.10301 0.76543 0.0
H541 H 0.98171 0.89762 0.78391 0.0
H542 H 0.93836 0.89204 0.75377 0.0
H543 H 0.92086 0.93782 0.77951 0.0
C544 C 0.55026 0.48989 0.66091 0.0
C545 C 0.51453 0.52383 0.64713 0.0
C546 C 0.55012 0.48768 0.68869 0.0
C547 C 0.51379 0.52058 0.703 0.0
C548 C 0.47793 0.55521 0.68919 0.0
C549 C 0.47852 0.55622 0.66139 0.0
C550 C 0.58843 0.44983 0.70271 0.0
C551 C 0.43906 0.59124 0.7038 0.0
C552 C 0.47296 0.48544 0.77246 0.0
C553 C 0.51036 0.51578 0.78825 0.0
C554 C 0.47401 0.48623 0.74466 0.0
C555 C 0.513 0.51858 0.73242 0.0
C556 C 0.55092 0.54928 0.74828 0.0
C557 C 0.54935 0.54729 0.77604 0.0
C558 C 0.43342 0.45248 0.7284 0.0
C559 C 0.59268 0.58462 0.73592 0.0
H560 H 0.57764 0.46439 0.64989 0.0
H561 H 0.45128 0.58283 0.65077 0.0
H562 H 0.61783 0.47015 0.71702 0.0
H563 H 0.56253 0.42346 0.71427 0.0
H564 H 0.61406 0.42689 0.68866 0.0
H565 H 0.41449 0.61637 0.69014 0.0
H566 H 0.40866 0.56921 0.7154 0.0
H567 H 0.46434 0.61555 0.71814 0.0
H568 H 0.44321 0.46063 0.78189 0.0
H569 H 0.5779 0.57115 0.78824 0.0
H570 H 0.45758 0.4268 0.71506 0.0
H571 H 0.40518 0.47622 0.71562 0.0
H572 H 0.40653 0.4288 0.74099 0.0
H573 H 0.62109 0.56251 0.7228 0.0
H574 H 0.61932 0.6059 0.75106 0.0
H575 H 0.56942 0.61254 0.72336 0.0
C576 C 0.49027 0.47326 0.33799 0.0
C577 C 0.5253 0.5068 0.3532 0.0
C578 C 0.49519 0.46866 0.31036 0.0
C579 C 0.53605 0.49838 0.29767 0.0
C580 C 0.57093 0.53285 0.31286 0.0
C581 C 0.56512 0.53665 0.34044 0.0
C582 C 0.45732 0.43143 0.29479 0.0
C583 C 0.61473 0.56543 0.30002 0.0
C584 C 0.58817 0.45235 0.23075 0.0
C585 C 0.55656 0.48307 0.21322 0.0
C586 C 0.5818 0.45686 0.25829 0.0
C587 C 0.54292 0.49297 0.26853 0.0
C588 C 0.51096 0.52415 0.25096 0.0
C589 C 0.51813 0.5188 0.22352 0.0
C590 C 0.61679 0.42307 0.27643 0.0
C591 C 0.469 0.56301 0.26115 0.0
H592 H 0.45986 0.4497 0.34778 0.0
H593 H 0.59172 0.56319 0.35205 0.0
H594 H 0.43303 0.45153 0.27892 0.0
H595 H 0.48372 0.40192 0.28495 0.0
H596 H 0.42673 0.41211 0.30755 0.0
H597 H 0.63793 0.59087 0.31461 0.0
H598 H 0.64611 0.54069 0.28995 0.0
H599 H 0.59387 0.5893 0.2846 0.0
H600 H 0.61837 0.42508 0.22293 0.0
H601 H 0.49292 0.5421 0.21006 0.0
H602 H 0.58834 0.4002 0.28864 0.0
H603 H 0.64373 0.44689 0.29031 0.0
H604 H 0.64475 0.3966 0.26529 0.0
H605 H 0.43597 0.54372 0.27251 0.0
H606 H 0.44767 0.58447 0.24486 0.0
H607 H 0.49106 0.59063 0.27496 0.0
loop_
_geom_bond_atom_site_label_1
_geom_bond_atom_site_label_2
_geom_bond_distance
_geom_bond_site_symmetry_2
_ccdc_geom_bond_type
C0 O16 1.251 . S
C0 O18 1.254 1_554 S
N1 C2 1.333 1_445 S
N1 C6 1.307 . S
N1 Zn7 2.020 . S
C2 N1 1.333 1_665 S
C2 C3 1.379 . S
C2 H20 0.952 . S
C3 C2 1.379 . S
C3 C4 1.390 1_665 S
C3 H30 0.949 . S
C4 C3 1.390 1_445 S
C4 C5 1.357 . S
C5 C4 1.357 . S
C5 C6 1.370 . S
C5 H31 0.950 . S
C6 N1 1.307 . S
C6 C5 1.370 . S
C6 H24 0.948 . S
Zn7 N1 2.020 . S
Zn7 O16 2.039 1_445 S
Zn7 O22 2.034 1_455 S
Zn7 O26 2.025 . S
Zn7 O28 2.024 1_545 S
C8 O27 1.246 1_554 S
C8 O28 1.249 . S
N9 C10 1.307 1_445 S
N9 C11 1.333 . S
N9 Zn15 2.020 . S
C10 N9 1.307 1_665 S
C10 C14 1.370 . S
C10 H21 0.948 . S
C11 N9 1.333 . S
C11 C12 1.379 . S
C11 H19 0.952 . S
C12 C11 1.379 . S
C12 C13 1.390 . S
C12 H32 0.949 . S
C13 C12 1.390 . S
C13 C14 1.357 1_445 S
C14 C10 1.370 . S
C14 C13 1.357 1_665 S
C14 H33 0.950 . S
Zn15 N9 2.020 . S
Zn15 O18 2.025 1_445 S
Zn15 O23 2.024 1_455 S
Zn15 O25 2.039 . S
Zn15 O27 2.034 1_545 S
O16 C0 1.251 . S
O16 Zn7 2.039 1_665 S
C17 O22 1.246 . S
C17 O23 1.249 1_554 S
O18 C0 1.254 1_556 S
O18 Zn15 2.025 1_665 S
H19 C11 0.952 . S
H20 C2 0.952 . S
H21 C10 0.948 . S
O22 Zn7 2.034 1_655 S
O22 C17 1.246 . S
O23 Zn15 2.024 1_655 S
O23 C17 1.249 1_556 S
H24 C6 0.948 . S
O25 Zn15 2.039 . S
O25 C29 1.251 1_556 S
O26 Zn7 2.025 . S
O26 C29 1.254 . S
O27 C8 1.246 1_556 S
O27 Zn15 2.034 1_565 S
O28 Zn7 2.024 1_565 S
O28 C8 1.249 . S
C29 O25 1.251 1_554 S
C29 O26 1.254 . S
H30 C3 0.949 . S
H31 C5 0.950 . S
H32 C12 0.949 . S
H33 C14 0.950 . S
C34 O50 1.251 . S
C34 O52 1.254 . S
N35 C36 1.333 . S
N35 C40 1.307 . S
N35 Zn41 2.020 . S
C36 N35 1.333 . S
C36 C37 1.379 . S
C36 H54 0.952 . S
C37 C36 1.379 . S
C37 C38 1.390 . S
C37 H64 0.949 . S
C38 C37 1.390 . S
C38 C39 1.357 . S
C39 C38 1.357 . S
C39 C40 1.370 . S
C39 H65 0.950 . S
C40 N35 1.307 . S
C40 C39 1.370 . S
C40 H58 0.948 . S
Zn41 N35 2.020 . S
Zn41 O50 2.039 . S
Zn41 O56 2.034 . S
Zn41 O60 2.025 . S
Zn41 O62 2.024 . S
C42 O61 1.246 . S
C42 O62 1.249 . S
N43 C44 1.307 . S
N43 C45 1.333 . S
N43 Zn49 2.020 . S
C44 N43 1.307 . S
C44 C48 1.370 . S
C44 H55 0.948 . S
C45 N43 1.333 . S
C45 C46 1.379 . S
C45 H53 0.952 . S
C46 C45 1.379 . S
C46 C47 1.390 . S
C46 H66 0.949 . S
C47 C46 1.390 . S
C47 C48 1.357 . S
C48 C44 1.370 . S
C48 C47 1.357 . S
C48 H67 0.950 . S
Zn49 N43 2.020 . S
Zn49 O52 2.025 . S
Zn49 O57 2.024 . S
Zn49 O59 2.039 . S
Zn49 O61 2.034 . S
O50 C34 1.251 . S
O50 Zn41 2.039 . S
C51 O56 1.246 . S
C51 O57 1.249 . S
O52 C34 1.254 . S
O52 Zn49 2.025 . S
H53 C45 0.952 . S
H54 C36 0.952 . S
H55 C44 0.948 . S
O56 Zn41 2.034 . S
O56 C51 1.246 . S
O57 Zn49 2.024 . S
O57 C51 1.249 . S
H58 C40 0.948 . S
O59 Zn49 2.039 . S
O59 C63 1.251 . S
O60 Zn41 2.025 . S
O60 C63 1.254 . S
O61 C42 1.246 . S
O61 Zn49 2.034 . S
O62 Zn41 2.024 . S
O62 C42 1.249 . S
C63 O59 1.251 . S
C63 O60 1.254 . S
H64 C37 0.949 . S
H65 C39 0.950 . S
H66 C46 0.949 . S
H67 C48 0.950 . S
C68 C69 1.386 1_565 S
C68 C70 1.397 . S
C68 H92 0.931 . S
C69 C68 1.386 1_545 S
C69 C73 1.397 1_655 S
C70 C68 1.397 . S
C70 C71 1.385 1_655 S
C70 H93 0.930 . S
C71 C70 1.385 1_455 S
C71 C72 1.378 1_565 S
C71 C74 1.480 . S
C72 C71 1.378 1_545 S
C72 C73 1.389 . S
C72 H94 0.929 . S
C73 C69 1.397 1_455 S
C73 C72 1.389 . S
C73 H95 0.931 . S
C74 C71 1.480 . S
C74 C75 1.388 . S
C74 C79 1.389 1_465 S
C75 C74 1.388 . S
C75 C76 1.401 . S
C75 H96 0.930 . S
C76 C75 1.401 . S
C76 C77 1.370 1_455 S
C76 C85 1.511 . S
C77 C76 1.370 1_655 S
C77 C78 1.398 1_565 S
C77 H98 0.932 . S
C78 C77 1.398 1_545 S
C78 C79 1.361 . S
C78 C80 1.500 . S
C79 C74 1.389 1_645 S
C79 C78 1.361 . S
C79 H97 0.931 . S
C80 C78 1.500 . S
C80 C81 1.371 . S
C80 C82 1.365 . S
C81 C80 1.371 . S
C81 C91 1.386 . S
C81 H99 0.931 . S
C82 C80 1.365 . S
C82 C83 1.409 . S
C82 H100 0.929 . S
C83 C82 1.409 . S
C83 C84 1.380 . S
C83 H101 0.930 . S
C84 C83 1.380 . S
C84 C91 1.357 . S
C85 C76 1.511 . S
C85 C86 1.341 . S
C85 C87 1.371 . S
C86 C85 1.341 . S
C86 C90 1.394 . S
C86 H102 0.930 . S
C87 C85 1.371 . S
C87 C88 1.392 . S
C87 H103 0.931 . S
C88 C87 1.392 . S
C88 C89 1.331 . S
C88 H106 0.932 . S
C89 C88 1.331 . S
C89 C90 1.336 . S
C90 C86 1.394 . S
C90 C89 1.336 . S
C90 H105 0.929 . S
C91 C81 1.386 . S
C91 C84 1.357 . S
C91 H104 0.928 . S
H92 C68 0.931 . S
H93 C70 0.930 . S
H94 C72 0.929 . S
H95 C73 0.931 . S
H96 C75 0.930 . S
H97 C79 0.931 . S
H98 C77 0.932 . S
H99 C81 0.931 . S
H100 C82 0.929 . S
H101 C83 0.930 . S
H102 C86 0.930 . S
H103 C87 0.931 . S
H104 C91 0.928 . S
H105 C90 0.929 . S
H106 C88 0.932 . S
C107 C108 1.386 . S
C107 C109 1.397 . S
C107 H131 0.931 . S
C108 C107 1.386 . S
C108 C112 1.397 1_545 S
C109 C107 1.397 . S
C109 C110 1.384 . S
C109 H132 0.930 . S
C110 C109 1.384 . S
C110 C111 1.377 1_545 S
C110 C113 1.481 . S
C111 C110 1.377 1_565 S
C111 C112 1.389 . S
C111 H133 0.929 . S
C112 C108 1.397 1_565 S
C112 C111 1.389 . S
C112 H134 0.931 . S
C113 C110 1.481 . S
C113 C114 1.387 . S
C113 C118 1.390 1_445 S
C114 C113 1.387 . S
C114 C115 1.401 . S
C114 H135 0.930 . S
C115 C114 1.401 . S
C115 C116 1.376 . S
C115 C124 1.511 . S
C116 C115 1.376 . S
C116 C117 1.392 1_445 S
C116 H137 0.931 . S
C117 C116 1.392 1_665 S
C117 C118 1.361 . S
C117 C119 1.500 . S
C118 C113 1.390 1_665 S
C118 C117 1.361 . S
C118 H136 0.931 . S
C119 C117 1.500 . S
C119 C120 1.371 . S
C119 C121 1.365 . S
C120 C119 1.371 . S
C120 C130 1.386 . S
C120 H138 0.931 . S
C121 C119 1.365 . S
C121 C122 1.409 . S
C121 H139 0.929 . S
C122 C121 1.409 . S
C122 C123 1.380 . S
C122 H140 0.930 . S
C123 C122 1.380 . S
C123 C130 1.357 . S
C124 C115 1.511 . S
C124 C125 1.341 . S
C124 C126 1.371 . S
C125 C124 1.341 . S
C125 C129 1.394 . S
C125 H141 0.930 . S
C126 C124 1.371 . S
C126 C127 1.392 . S
C126 H142 0.931 . S
C127 C126 1.392 . S
C127 C128 1.331 . S
C127 H145 0.932 . S
C128 C127 1.331 . S
C128 C129 1.336 . S
C129 C125 1.394 . S
C129 C128 1.336 . S
C129 H144 0.929 . S
C130 C120 1.386 . S
C130 C123 1.357 . S
C130 H143 0.928 . S
H131 C107 0.931 . S
H132 C109 0.930 . S
H133 C111 0.929 . S
H134 C112 0.931 . S
H135 C114 0.930 . S
H136 C118 0.931 . S
H137 C116 0.931 . S
H138 C120 0.931 . S
H139 C121 0.929 . S
H140 C122 0.930 . S
H141 C125 0.930 . S
H142 C126 0.931 . S
H143 C130 0.928 . S
H144 C129 0.929 . S
H145 C127 0.932 . S
C146 C147 1.386 . S
C146 C148 1.397 . S
C146 H170 0.931 . S
C147 C146 1.386 . S
C147 C151 1.397 . S
C148 C146 1.397 . S
C148 C149 1.384 . S
C148 H171 0.930 . S
C149 C148 1.384 . S
C149 C150 1.377 . S
C149 C152 1.481 . S
C150 C149 1.377 . S
C150 C151 1.389 . S
C150 H172 0.929 . S
C151 C147 1.397 . S
C151 C150 1.389 . S
C151 H173 0.931 . S
C152 C149 1.481 . S
C152 C153 1.387 . S
C152 C157 1.390 . S
C153 C152 1.387 . S
C153 C154 1.401 . S
C153 H174 0.930 . S
C154 C153 1.401 . S
C154 C155 1.376 . S
C154 C163 1.511 . S
C155 C154 1.376 . S
C155 C156 1.392 . S
C155 H176 0.931 . S
C156 C155 1.392 . S
C156 C157 1.361 . S
C156 C158 1.500 . S
C157 C152 1.390 . S
C157 C156 1.361 . S
C157 H175 0.931 . S
C158 C156 1.500 . S
C158 C159 1.371 . S
C158 C160 1.365 . S
C159 C158 1.371 . S
C159 C169 1.386 1_556 S
C159 H177 0.931 . S
C160 C158 1.365 . S
C160 C161 1.409 . S
C160 H178 0.929 . S
C161 C160 1.409 . S
C161 C162 1.380 . S
C161 H179 0.930 . S
C162 C161 1.380 . S
C162 C169 1.357 1_556 S
C163 C154 1.511 . S
C163 C164 1.341 . S
C163 C165 1.371 . S
C164 C163 1.341 . S
C164 C168 1.394 . S
C164 H180 0.930 . S
C165 C163 1.371 . S
C165 C166 1.392 1_556 S
C165 H181 0.931 1_556 S
C166 C165 1.392 1_554 S
C166 C167 1.331 1_554 S
C166 H184 0.932 . S
C167 C166 1.331 1_556 S
C167 C168 1.336 . S
C168 C164 1.394 . S
C168 C167 1.336 . S
C168 H183 0.929 . S
C169 C159 1.386 1_554 S
C169 C162 1.357 1_554 S
C169 H182 0.928 . S
H170 C146 0.931 . S
H171 C148 0.930 . S
H172 C150 0.929 . S
H173 C151 0.931 . S
H174 C153 0.930 . S
H175 C157 0.931 . S
H176 C155 0.931 . S
H177 C159 0.931 . S
H178 C160 0.929 . S
H179 C161 0.930 . S
H180 C164 0.930 . S
H181 C165 0.931 1_554 S
H182 C169 0.928 . S
H183 C168 0.929 . S
H184 C166 0.932 . S
C185 C186 1.386 . S
C185 C187 1.397 . S
C185 H209 0.931 . S
C186 C185 1.386 . S
C186 C190 1.397 . S
C187 C185 1.397 . S
C187 C188 1.384 . S
C187 H210 0.930 . S
C188 C187 1.384 . S
C188 C189 1.377 . S
C188 C191 1.481 . S
C189 C188 1.377 . S
C189 C190 1.389 . S
C189 H211 0.929 . S
C190 C186 1.397 . S
C190 C189 1.389 . S
C190 H212 0.931 . S
C191 C188 1.481 . S
C191 C192 1.387 . S
C191 C196 1.390 . S
C192 C191 1.387 . S
C192 C193 1.401 . S
C192 H213 0.930 . S
C193 C192 1.401 . S
C193 C194 1.376 . S
C193 C202 1.511 . S
C194 C193 1.376 . S
C194 C195 1.392 . S
C194 H215 0.931 . S
C195 C194 1.392 . S
C195 C196 1.361 . S
C195 C197 1.500 . S
C196 C191 1.390 . S
C196 C195 1.361 . S
C196 H214 0.931 . S
C197 C195 1.500 . S
C197 C198 1.371 . S
C197 C199 1.365 . S
C198 C197 1.371 . S
C198 C208 1.386 . S
C198 H216 0.931 . S
C199 C197 1.365 . S
C199 C200 1.409 . S
C199 H217 0.929 . S
C200 C199 1.409 . S
C200 C201 1.380 . S
C200 H218 0.930 . S
C201 C200 1.380 . S
C201 C208 1.357 . S
C202 C193 1.511 . S
C202 C203 1.341 . S
C202 C204 1.371 . S
C203 C202 1.341 . S
C203 C207 1.394 . S
C203 H219 0.930 . S
C204 C202 1.371 . S
C204 C205 1.392 . S
C204 H220 0.931 . S
C205 C204 1.392 . S
C205 C206 1.331 . S
C205 H223 0.932 1_554 S
C206 C205 1.331 . S
C206 C207 1.336 . S
C207 C203 1.394 . S
C207 C206 1.336 . S
C207 H222 0.929 . S
C208 C198 1.386 . S
C208 C201 1.357 . S
C208 H221 0.928 1_554 S
H209 C185 0.931 . S
H210 C187 0.930 . S
H211 C189 0.929 . S
H212 C190 0.931 . S
H213 C192 0.930 . S
H214 C196 0.931 . S
H215 C194 0.931 . S
H216 C198 0.931 . S
H217 C199 0.929 . S
H218 C200 0.930 . S
H219 C203 0.930 . S
H220 C204 0.931 . S
H221 C208 0.928 1_556 S
H222 C207 0.929 . S
H223 C205 0.932 1_556 S
C224 C225 1.390 1_556 S
C224 C226 1.393 1_556 S
C224 H240 0.932 . S
C225 C224 1.390 1_554 S
C225 C229 1.376 . S
C226 C224 1.393 1_554 S
C226 C227 1.369 . S
C226 C230 1.531 1_554 S
C227 C226 1.369 . S
C227 C228 1.410 . S
C227 C235 1.503 . S
C228 C227 1.410 . S
C228 C229 1.392 . S
C228 C231 1.511 . S
C229 C225 1.376 . S
C229 C228 1.392 . S
C229 H241 0.929 . S
C230 C226 1.531 1_556 S
C230 H242 0.960 1_556 S
C230 H243 0.962 . S
C230 H244 0.955 1_556 S
C231 C228 1.511 . S
C231 H245 0.961 . S
C231 H246 0.961 . S
C231 H247 0.961 . S
C232 C233 1.370 1_556 S
C232 C234 1.363 . S
C232 H248 0.931 . S
C233 C232 1.370 1_554 S
C233 C237 1.408 . S
C234 C232 1.363 . S
C234 C235 1.370 1_556 S
C234 C238 1.524 . S
C235 C227 1.503 . S
C235 C234 1.370 1_554 S
C235 C236 1.403 . S
C236 C235 1.403 . S
C236 C237 1.404 . S
C236 C239 1.539 . S
C237 C233 1.408 . S
C237 C236 1.404 . S
C237 H249 0.930 . S
C238 C234 1.524 . S
C238 H250 0.956 . S
C238 H251 0.961 . S
C238 H252 0.961 . S
C239 C236 1.539 . S
C239 H253 0.958 . S
C239 H254 0.961 . S
C239 H255 0.960 . S
H240 C224 0.932 . S
H241 C229 0.929 . S
H242 C230 0.960 1_554 S
H243 C230 0.962 . S
H244 C230 0.955 1_554 S
H245 C231 0.961 . S
H246 C231 0.961 . S
H247 C231 0.961 . S
H248 C232 0.931 . S
H249 C237 0.930 . S
H250 C238 0.956 . S
H251 C238 0.961 . S
H252 C238 0.961 . S
H253 C239 0.958 . S
H254 C239 0.961 . S
H255 C239 0.960 . S
C256 C257 1.391 . S
C256 C258 1.394 . S
C256 H272 0.931 . S
C257 C256 1.391 . S
C257 C261 1.376 1_554 S
C258 C256 1.394 . S
C258 C259 1.369 . S
C258 C262 1.531 . S
C259 C258 1.369 . S
C259 C260 1.410 1_554 S
C259 C267 1.503 . S
C260 C259 1.410 1_556 S
C260 C261 1.392 . S
C260 C263 1.511 . S
C261 C257 1.376 1_556 S
C261 C260 1.392 . S
C261 H273 0.929 . S
C262 C258 1.531 . S
C262 H274 0.960 . S
C262 H275 0.962 . S
C262 H276 0.960 . S
C263 C260 1.511 . S
C263 H277 0.961 . S
C263 H278 0.961 . S
C263 H279 0.961 . S
C264 C265 1.370 1_554 S
C264 C266 1.363 . S
C264 H280 0.932 . S
C265 C264 1.370 1_556 S
C265 C269 1.408 . S
C266 C264 1.363 . S
C266 C267 1.371 . S
C266 C270 1.525 . S
C267 C259 1.503 . S
C267 C266 1.371 . S
C267 C268 1.403 1_554 S
C268 C267 1.403 1_556 S
C268 C269 1.405 . S
C268 C271 1.540 . S
C269 C265 1.408 . S
C269 C268 1.405 . S
C269 H281 0.930 . S
C270 C266 1.525 . S
C270 H282 0.995 . S
C270 H283 0.928 1_554 S
C270 H284 0.952 1_554 S
C271 C268 1.540 . S
C271 H285 0.958 1_556 S
C271 H286 0.961 . S
C271 H287 0.960 . S
H272 C256 0.931 . S
H273 C261 0.929 . S
H274 C262 0.960 . S
H275 C262 0.962 . S
H276 C262 0.960 . S
H277 C263 0.961 . S
H278 C263 0.961 . S
H279 C263 0.961 . S
H280 C264 0.932 . S
H281 C269 0.930 . S
H282 C270 0.995 . S
H283 C270 0.928 1_556 S
H284 C270 0.952 1_556 S
H285 C271 0.958 1_554 S
H286 C271 0.961 . S
H287 C271 0.960 . S
C288 C289 1.391 1_556 S
C288 C290 1.394 . S
C288 H304 0.931 . S
C289 C288 1.391 1_554 S
C289 C293 1.376 . S
C290 C288 1.394 . S
C290 C291 1.385 . S
C290 C294 1.531 . S
C291 C290 1.385 . S
C291 C292 1.395 1_556 S
C291 C299 1.499 1_556 S
C292 C291 1.395 1_554 S
C292 C293 1.392 . S
C292 C295 1.511 . S
C293 C289 1.376 . S
C293 C292 1.392 . S
C293 H305 0.929 . S
C294 C290 1.531 . S
C294 H306 0.960 . S
C294 H307 0.962 . S
C294 H308 0.960 . S
C295 C292 1.511 . S
C295 H309 0.961 . S
C295 H310 0.961 . S
C295 H311 0.961 . S
C296 C297 1.370 . S
C296 C298 1.363 . S
C296 H312 0.931 . S
C297 C296 1.370 . S
C297 C301 1.408 1_554 S
C298 C296 1.363 . S
C298 C299 1.370 . S
C298 C302 1.524 . S
C299 C291 1.499 1_554 S
C299 C298 1.370 . S
C299 C300 1.403 1_554 S
C300 C299 1.403 1_556 S
C300 C301 1.404 . S
C300 C303 1.539 . S
C301 C297 1.408 1_556 S
C301 C300 1.404 . S
C301 H313 0.930 . S
C302 C298 1.524 . S
C302 H314 0.956 . S
C302 H315 0.961 . S
C302 H316 0.961 . S
C303 C300 1.539 . S
C303 H317 0.958 . S
C303 H318 0.961 . S
C303 H319 0.960 . S
H304 C288 0.931 . S
H305 C293 0.929 . S
H306 C294 0.960 . S
H307 C294 0.962 . S
H308 C294 0.960 . S
H309 C295 0.961 . S
H310 C295 0.961 . S
H311 C295 0.961 . S
H312 C296 0.931 . S
H313 C301 0.930 . S
H314 C302 0.956 . S
H315 C302 0.961 . S
H316 C302 0.961 . S
H317 C303 0.958 . S
H318 C303 0.961 . S
H319 C303 0.960 . S
C320 C321 1.383 1_556 S
C320 C322 1.394 . S
C320 H336 0.931 . S
C321 C320 1.383 1_554 S
C321 C325 1.381 . S
C322 C320 1.394 . S
C322 C323 1.369 . S
C322 C326 1.531 . S
C323 C322 1.369 . S
C323 C324 1.410 1_556 S
C323 C331 1.503 . S
C324 C323 1.410 1_554 S
C324 C325 1.392 . S
C324 C327 1.511 . S
C325 C321 1.381 . S
C325 C324 1.392 . S
C325 H337 0.929 . S
C326 C322 1.531 . S
C326 H338 0.960 . S
C326 H339 0.977 . S
C326 H340 0.960 . S
C327 C324 1.511 . S
C327 H341 0.961 . S
C327 H342 0.961 . S
C327 H343 0.961 1_554 S
C328 C329 1.370 . S
C328 C330 1.363 . S
C328 H344 0.931 . S
C329 C328 1.370 . S
C329 C333 1.409 1_554 S
C330 C328 1.363 . S
C330 C331 1.370 1_554 S
C330 C334 1.524 . S
C331 C323 1.503 . S
C331 C330 1.370 1_556 S
C331 C332 1.403 . S
C332 C331 1.403 . S
C332 C333 1.404 . S
C332 C335 1.539 . S
C333 C329 1.409 1_556 S
C333 C332 1.404 . S
C333 H345 0.930 . S
C334 C330 1.524 . S
C334 H346 0.956 . S
C334 H347 0.961 . S
C334 H348 0.961 . S
C335 C332 1.539 . S
C335 H349 0.958 . S
C335 H350 0.961 . S
C335 H351 0.960 . S
H336 C320 0.931 . S
H337 C325 0.929 . S
H338 C326 0.960 . S
H339 C326 0.977 . S
H340 C326 0.960 . S
H341 C327 0.961 . S
H342 C327 0.961 . S
H343 C327 0.961 1_556 S
H344 C328 0.931 . S
H345 C333 0.930 . S
H346 C334 0.956 . S
H347 C334 0.961 . S
H348 C334 0.961 . S
H349 C335 0.958 . S
H350 C335 0.961 . S
H351 C335 0.960 . S
C352 C353 1.391 . S
C352 C354 1.394 . S
C352 H368 0.931 . S
C353 C352 1.391 . S
C353 C357 1.376 . S
C354 C352 1.394 . S
C354 C355 1.369 . S
C354 C358 1.531 . S
C355 C354 1.369 . S
C355 C356 1.410 . S
C355 C363 1.503 . S
C356 C355 1.410 . S
C356 C357 1.392 . S
C356 C359 1.511 . S
C357 C353 1.376 . S
C357 C356 1.392 . S
C357 H369 0.929 . S
C358 C354 1.531 . S
C358 H370 0.960 . S
C358 H371 0.962 . S
C358 H372 0.960 . S
C359 C356 1.511 . S
C359 H373 0.961 . S
C359 H374 0.961 . S
C359 H375 0.961 . S
C360 C361 1.370 . S
C360 C362 1.363 . S
C360 H376 0.931 . S
C361 C360 1.370 . S
C361 C365 1.408 . S
C362 C360 1.363 . S
C362 C363 1.370 . S
C362 C366 1.524 . S
C363 C355 1.503 . S
C363 C362 1.370 . S
C363 C364 1.403 . S
C364 C363 1.403 . S
C364 C365 1.404 . S
C364 C367 1.539 . S
C365 C361 1.408 . S
C365 C364 1.404 . S
C365 H377 0.930 . S
C366 C362 1.524 . S
C366 H378 0.956 . S
C366 H379 0.961 . S
C366 H380 0.961 . S
C367 C364 1.539 . S
C367 H381 0.958 . S
C367 H382 0.961 . S
C367 H383 0.960 . S
H368 C352 0.931 . S
H369 C357 0.929 . S
H370 C358 0.960 . S
H371 C358 0.962 . S
H372 C358 0.960 . S
H373 C359 0.961 . S
H374 C359 0.961 . S
H375 C359 0.961 . S
H376 C360 0.931 . S
H377 C365 0.930 . S
H378 C366 0.956 . S
H379 C366 0.961 . S
H380 C366 0.961 . S
H381 C367 0.958 . S
H382 C367 0.961 . S
H383 C367 0.960 . S
C384 C385 1.391 . S
C384 C386 1.394 . S
C384 H400 0.931 . S
C385 C384 1.391 . S
C385 C389 1.376 . S
C386 C384 1.394 . S
C386 C387 1.369 . S
C386 C390 1.531 . S
C387 C386 1.369 . S
C387 C388 1.410 . S
C387 C395 1.503 . S
C388 C387 1.410 . S
C388 C389 1.392 . S
C388 C391 1.511 . S
C389 C385 1.376 . S
C389 C388 1.392 . S
C389 H401 0.929 . S
C390 C386 1.531 . S
C390 H402 0.960 . S
C390 H403 0.962 . S
C390 H404 0.960 . S
C391 C388 1.511 . S
C391 H405 0.961 . S
C391 H406 0.961 . S
C391 H407 0.961 . S
C392 C393 1.370 . S
C392 C394 1.363 . S
C392 H408 0.931 . S
C393 C392 1.370 . S
C393 C397 1.408 . S
C394 C392 1.363 . S
C394 C395 1.370 . S
C394 C398 1.524 . S
C395 C387 1.503 . S
C395 C394 1.370 . S
C395 C396 1.403 . S
C396 C395 1.403 . S
C396 C397 1.404 . S
C396 C399 1.539 . S
C397 C393 1.408 . S
C397 C396 1.404 . S
C397 H409 0.930 . S
C398 C394 1.524 . S
C398 H410 0.956 . S
C398 H411 0.961 . S
C398 H412 0.961 . S
C399 C396 1.539 . S
C399 H413 0.958 . S
C399 H414 0.961 . S
C399 H415 0.960 . S
H400 C384 0.931 . S
H401 C389 0.929 . S
H402 C390 0.960 . S
H403 C390 0.962 . S
H404 C390 0.960 . S
H405 C391 0.961 . S
H406 C391 0.961 . S
H407 C391 0.961 . S
H408 C392 0.931 . S
H409 C397 0.930 . S
H410 C398 0.956 . S
H411 C398 0.961 . S
H412 C398 0.961 . S
H413 C399 0.958 . S
H414 C399 0.961 . S
H415 C399 0.960 . S
C416 C417 1.391 . S
C416 C418 1.394 . S
C416 H432 0.931 . S
C417 C416 1.391 . S
C417 C421 1.376 . S
C418 C416 1.394 . S
C418 C419 1.369 . S
C418 C422 1.531 . S
C419 C418 1.369 . S
C419 C420 1.410 . S
C419 C427 1.503 . S
C420 C419 1.410 . S
C420 C421 1.392 . S
C420 C423 1.511 . S
C421 C417 1.376 . S
C421 C420 1.392 . S
C421 H433 0.929 . S
C422 C418 1.531 . S
C422 H434 0.960 . S
C422 H435 0.962 . S
C422 H436 0.960 . S
C423 C420 1.511 . S
C423 H437 0.961 . S
C423 H438 0.961 . S
C423 H439 0.961 . S
C424 C425 1.370 . S
C424 C426 1.363 . S
C424 H440 0.931 . S
C425 C424 1.370 . S
C425 C429 1.408 . S
C426 C424 1.363 . S
C426 C427 1.370 . S
C426 C430 1.524 . S
C427 C419 1.503 . S
C427 C426 1.370 . S
C427 C428 1.403 . S
C428 C427 1.403 . S
C428 C429 1.404 . S
C428 C431 1.539 . S
C429 C425 1.408 . S
C429 C428 1.404 . S
C429 H441 0.930 . S
C430 C426 1.524 . S
C430 H442 0.956 . S
C430 H443 0.961 . S
C430 H444 0.961 . S
C431 C428 1.539 . S
C431 H445 0.958 . S
C431 H446 0.961 . S
C431 H447 0.960 . S
H432 C416 0.931 . S
H433 C421 0.929 . S
H434 C422 0.960 . S
H435 C422 0.962 . S
H436 C422 0.960 . S
H437 C423 0.961 . S
H438 C423 0.961 . S
H439 C423 0.961 . S
H440 C424 0.931 . S
H441 C429 0.930 . S
H442 C430 0.956 . S
H443 C430 0.961 . S
H444 C430 0.961 . S
H445 C431 0.958 . S
H446 C431 0.961 . S
H447 C431 0.960 . S
C448 C449 1.391 . S
C448 C450 1.394 . S
C448 H464 0.931 . S
C449 C448 1.391 . S
C449 C453 1.376 . S
C450 C448 1.394 . S
C450 C451 1.369 . S
C450 C454 1.531 . S
C451 C450 1.369 . S
C451 C452 1.410 . S
C451 C459 1.503 . S
C452 C451 1.410 . S
C452 C453 1.392 . S
C452 C455 1.511 . S
C453 C449 1.376 . S
C453 C452 1.392 . S
C453 H465 0.929 . S
C454 C450 1.531 . S
C454 H466 0.960 . S
C454 H467 0.962 . S
C454 H468 0.960 . S
C455 C452 1.511 . S
C455 H469 0.961 . S
C455 H470 0.961 . S
C455 H471 0.961 . S
C456 C457 1.370 . S
C456 C458 1.363 . S
C456 H472 0.931 . S
C457 C456 1.370 . S
C457 C461 1.408 . S
C458 C456 1.363 . S
C458 C459 1.370 . S
C458 C462 1.524 . S
C459 C451 1.503 . S
C459 C458 1.370 . S
C459 C460 1.403 . S
C460 C459 1.403 . S
C460 C461 1.404 . S
C460 C463 1.539 . S
C461 C457 1.408 . S
C461 C460 1.404 . S
C461 H473 0.930 . S
C462 C458 1.524 . S
C462 H474 0.956 . S
C462 H475 0.961 . S
C462 H476 0.961 . S
C463 C460 1.539 . S
C463 H477 0.958 . S
C463 H478 0.961 . S
C463 H479 0.960 . S
H464 C448 0.931 . S
H465 C453 0.929 . S
H466 C454 0.960 . S
H467 C454 0.962 . S
H468 C454 0.960 . S
H469 C455 0.961 . S
H470 C455 0.961 . S
H471 C455 0.961 . S
H472 C456 0.931 . S
H473 C461 0.930 . S
H474 C462 0.956 . S
H475 C462 0.961 . S
H476 C462 0.961 . S
H477 C463 0.958 . S
H478 C463 0.961 . S
H479 C463 0.960 . S
C480 C481 1.391 1_665 S
C480 C482 1.394 . S
C480 H496 0.931 . S
C481 C480 1.391 1_445 S
C481 C485 1.376 . S
C482 C480 1.394 . S
C482 C483 1.369 1_655 S
C482 C486 1.531 . S
C483 C482 1.369 1_455 S
C483 C484 1.410 1_565 S
C483 C491 1.503 . S
C484 C483 1.410 1_545 S
C484 C485 1.392 . S
C484 C487 1.511 . S
C485 C481 1.376 . S
C485 C484 1.392 . S
C485 H497 0.929 . S
C486 C482 1.531 . S
C486 H498 0.960 . S
C486 H499 0.962 . S
C486 H500 0.960 . S
C487 C484 1.511 . S
C487 H501 0.961 . S
C487 H502 0.961 . S
C487 H503 0.961 . S
C488 C489 1.364 1_655 S
C488 C490 1.363 . S
C488 H504 0.931 . S
C489 C488 1.364 1_455 S
C489 C493 1.416 1_545 S
C490 C488 1.363 . S
C490 C491 1.370 1_645 S
C490 C494 1.524 . S
C491 C483 1.503 . S
C491 C490 1.370 1_465 S
C491 C492 1.403 . S
C492 C491 1.403 . S
C492 C493 1.404 . S
C492 C495 1.539 . S
C493 C489 1.416 1_565 S
C493 C492 1.404 . S
C493 H505 0.930 . S
C494 C490 1.524 . S
C494 H506 0.956 . S
C494 H507 0.961 . S
C494 H508 0.961 . S
C495 C492 1.539 . S
C495 H509 0.958 . S
C495 H510 0.961 . S
C495 H511 0.960 . S
H496 C480 0.931 . S
H497 C485 0.929 . S
H498 C486 0.960 . S
H499 C486 0.962 . S
H500 C486 0.960 . S
H501 C487 0.961 . S
H502 C487 0.961 . S
H503 C487 0.961 . S
H504 C488 0.931 . S
H505 C493 0.930 . S
H506 C494 0.956 . S
H507 C494 0.961 . S
H508 C494 0.961 . S
H509 C495 0.958 . S
H510 C495 0.961 . S
H511 C495 0.960 . S
C512 C513 1.391 1_565 S
C512 C514 1.394 . S
C512 H528 0.931 . S
C513 C512 1.391 1_545 S
C513 C517 1.376 1_455 S
C514 C512 1.394 . S
C514 C515 1.369 . S
C514 C518 1.531 . S
C515 C514 1.369 . S
C515 C516 1.410 1_465 S
C515 C523 1.502 1_565 S
C516 C515 1.410 1_645 S
C516 C517 1.392 . S
C516 C519 1.511 . S
C517 C513 1.376 1_655 S
C517 C516 1.392 . S
C517 H529 0.929 . S
C518 C514 1.531 . S
C518 H530 0.960 . S
C518 H531 0.962 . S
C518 H532 0.960 . S
C519 C516 1.511 . S
C519 H533 0.961 . S
C519 H534 0.961 . S
C519 H535 0.961 . S
C520 C521 1.370 . S
C520 C522 1.363 . S
C520 H536 0.931 . S
C521 C520 1.370 . S
C521 C525 1.408 1_445 S
C522 C520 1.363 . S
C522 C523 1.386 . S
C522 C526 1.524 . S
C523 C515 1.502 1_545 S
C523 C522 1.386 . S
C523 C524 1.388 1_445 S
C524 C523 1.388 1_665 S
C524 C525 1.404 . S
C524 C527 1.539 . S
C525 C521 1.408 1_665 S
C525 C524 1.404 . S
C525 H537 0.930 . S
C526 C522 1.524 . S
C526 H538 0.956 . S
C526 H539 0.961 . S
C526 H540 0.961 . S
C527 C524 1.539 . S
C527 H541 0.958 . S
C527 H542 0.961 . S
C527 H543 0.960 . S
H528 C512 0.931 . S
H529 C517 0.929 . S
H530 C518 0.960 . S
H531 C518 0.962 . S
H532 C518 0.960 . S
H533 C519 0.961 . S
H534 C519 0.961 . S
H535 C519 0.961 . S
H536 C520 0.931 . S
H537 C525 0.930 . S
H538 C526 0.956 . S
H539 C526 0.961 . S
H540 C526 0.961 . S
H541 C527 0.958 . S
H542 C527 0.961 . S
H543 C527 0.960 . S
C544 C545 1.391 . S
C544 C546 1.394 . S
C544 H560 0.931 . S
C545 C544 1.391 . S
C545 C549 1.376 . S
C546 C544 1.394 . S
C546 C547 1.369 . S
C546 C550 1.531 . S
C547 C546 1.369 . S
C547 C548 1.410 . S
C547 C555 1.503 . S
C548 C547 1.410 . S
C548 C549 1.392 . S
C548 C551 1.511 . S
C549 C545 1.376 . S
C549 C548 1.392 . S
C549 H561 0.929 . S
C550 C546 1.531 . S
C550 H562 0.960 . S
C550 H563 0.962 . S
C550 H564 0.960 . S
C551 C548 1.511 . S
C551 H565 0.961 . S
C551 H566 0.961 . S
C551 H567 0.961 . S
C552 C553 1.370 . S
C552 C554 1.363 . S
C552 H568 0.931 . S
C553 C552 1.370 . S
C553 C557 1.408 . S
C554 C552 1.363 . S
C554 C555 1.370 . S
C554 C558 1.524 . S
C555 C547 1.503 . S
C555 C554 1.370 . S
C555 C556 1.403 . S
C556 C555 1.403 . S
C556 C557 1.404 . S
C556 C559 1.539 . S
C557 C553 1.408 . S
C557 C556 1.404 . S
C557 H569 0.930 . S
C558 C554 1.524 . S
C558 H570 0.956 . S
C558 H571 0.961 . S
C558 H572 0.961 . S
C559 C556 1.539 . S
C559 H573 0.958 . S
C559 H574 0.961 . S
C559 H575 0.960 . S
H560 C544 0.931 . S
H561 C549 0.929 . S
H562 C550 0.960 . S
H563 C550 0.962 . S
H564 C550 0.960 . S
H565 C551 0.961 . S
H566 C551 0.961 . S
H567 C551 0.961 . S
H568 C552 0.931 . S
H569 C557 0.930 . S
H570 C558 0.956 . S
H571 C558 0.961 . S
H572 C558 0.961 . S
H573 C559 0.958 . S
H574 C559 0.961 . S
H575 C559 0.960 . S
C576 C577 1.391 . S
C576 C578 1.394 . S
C576 H592 0.931 . S
C577 C576 1.391 . S
C577 C581 1.376 . S
C578 C576 1.394 . S
C578 C579 1.369 . S
C578 C582 1.531 . S
C579 C578 1.369 . S
C579 C580 1.410 . S
C579 C587 1.503 . S
C580 C579 1.410 . S
C580 C581 1.392 . S
C580 C583 1.511 . S
C581 C577 1.376 . S
C581 C580 1.392 . S
C581 H593 0.929 . S
C582 C578 1.531 . S
C582 H594 0.960 . S
C582 H595 0.962 . S
C582 H596 0.960 . S
C583 C580 1.511 . S
C583 H597 0.961 . S
C583 H598 0.961 . S
C583 H599 0.961 . S
C584 C585 1.370 . S
C584 C586 1.363 . S
C584 H600 0.931 . S
C585 C584 1.370 . S
C585 C589 1.408 . S
C586 C584 1.363 . S
C586 C587 1.370 . S
C586 C590 1.524 . S
C587 C579 1.503 . S
C587 C586 1.370 . S
C587 C588 1.403 . S
C588 C587 1.403 . S
C588 C589 1.404 . S
C588 C591 1.539 . S
C589 C585 1.408 . S
C589 C588 1.404 . S
C589 H601 0.930 . S
C590 C586 1.524 . S
C590 H602 0.956 . S
C590 H603 0.961 . S
C590 H604 0.961 . S
C591 C588 1.539 . S
C591 H605 0.958 . S
C591 H606 0.961 . S
C591 H607 0.960 . S
H592 C576 0.931 . S
H593 C581 0.929 . S
H594 C582 0.960 . S
H595 C582 0.962 . S
H596 C582 0.960 . S
H597 C583 0.961 . S
H598 C583 0.961 . S
H599 C583 0.961 . S
H600 C584 0.931 . S
H601 C589 0.930 . S
H602 C590 0.956 . S
H603 C590 0.961 . S
H604 C590 0.961 . S
H605 C591 0.958 . S
H606 C591 0.961 . S
H607 C591 0.960 . S
C233 C201 1.440 . S
C225 C29 1.496 . S
C257 C8 1.483 . S
C265 C162 1.441 . S
C289 C0 1.473 . S
C297 C206 1.448 . S
C321 C17 1.486 . S
C329 C167 1.444 1_554 S
C353 C63 1.495 . S
C361 C123 1.443 . S
C385 C42 1.483 . S
C393 C84 1.433 . S
C425 C128 1.449 . S
C417 C34 1.473 . S
C457 C89 1.466 . S
C449 C51 1.497 . S
C481 C4 1.481 . S
C489 C69 1.484 1_455 S
C513 C13 1.473 . S
C521 C108 1.485 . S
C553 C147 1.487 . S
C545 C38 1.478 . S
C577 C47 1.475 . S
C585 C186 1.484 . S
