# Generated by pormake.
# Topology eea, (3,6)-cn, num edge types: 1
# Building blocks:
#     Node 0, Type 0, BuildingBlock: PAMTOO_clean_linker_0, # of connection points: 3
#     Node 1, Type 0, BuildingBlock: PAMTOO_clean_linker_0, # of connection points: 3
#     Node 2, Type 0, BuildingBlock: PAMTOO_clean_linker_0, # of connection points: 3
#     Node 3, Type 0, BuildingBlock: PAMTOO_clean_linker_0, # of connection points: 3
#     Node 4, Type 0, BuildingBlock: PAMTOO_clean_linker_0, # of connection points: 3
#     Node 5, Type 0, BuildingBlock: PAMTOO_clean_linker_0, # of connection points: 3
#     Node 6, Type 0, BuildingBlock: PAMTOO_clean_linker_0, # of connection points: 3
#     Node 7, Type 0, BuildingBlock: PAMTOO_clean_linker_0, # of connection points: 3
#     Node 8, Type 0, BuildingBlock: PAMTOO_clean_linker_0, # of connection points: 3
#     Node 9, Type 0, BuildingBlock: PAMTOO_clean_linker_0, # of connection points: 3
#     Node 10, Type 0, BuildingBlock: PAMTOO_clean_linker_0, # of connection points: 3
#     Node 11, Type 0, BuildingBlock: PAMTOO_clean_linker_0, # of connection points: 3
#     Node 12, Type 0, BuildingBlock: PAMTOO_clean_linker_0, # of connection points: 3
#     Node 13, Type 0, BuildingBlock: PAMTOO_clean_linker_0, # of connection points: 3
#     Node 14, Type 0, BuildingBlock: PAMTOO_clean_linker_0, # of connection points: 3
#     Node 15, Type 0, BuildingBlock: PAMTOO_clean_linker_0, # of connection points: 3
#     Node 16, Type 0, BuildingBlock: PAMTOO_clean_linker_0, # of connection points: 3
#     Node 17, Type 0, BuildingBlock: PAMTOO_clean_linker_0, # of connection points: 3
#     Node 18, Type 1, BuildingBlock: KUMBOL_clean_sbu_0, # of connection points: 6
#     Node 19, Type 1, BuildingBlock: KUMBOL_clean_sbu_0, # of connection points: 6
#     Node 20, Type 1, BuildingBlock: KUMBOL_clean_sbu_0, # of connection points: 6
#     Node 21, Type 1, BuildingBlock: KUMBOL_clean_sbu_0, # of connection points: 6
#     Node 22, Type 1, BuildingBlock: KUMBOL_clean_sbu_0, # of connection points: 6
#     Node 23, Type 1, BuildingBlock: KUMBOL_clean_sbu_0, # of connection points: 6
#     Node 24, Type 1, BuildingBlock: KUMBOL_clean_sbu_0, # of connection points: 6
#     Node 25, Type 1, BuildingBlock: KUMBOL_clean_sbu_0, # of connection points: 6
#     Node 26, Type 1, BuildingBlock: KUMBOL_clean_sbu_0, # of connection points: 6
#     Edge 27, Type (0, 1), BuildingBlock: OJICUG_clean_linker_0, # of connection points: 2
#     Edge 28, Type (0, 1), BuildingBlock: OJICUG_clean_linker_0, # of connection points: 2
#     Edge 29, Type (0, 1), BuildingBlock: OJICUG_clean_linker_0, # of connection points: 2
#     Edge 30, Type (0, 1), BuildingBlock: OJICUG_clean_linker_0, # of connection points: 2
#     Edge 31, Type (0, 1), BuildingBlock: OJICUG_clean_linker_0, # of connection points: 2
#     Edge 32, Type (0, 1), BuildingBlock: OJICUG_clean_linker_0, # of connection points: 2
#     Edge 33, Type (0, 1), BuildingBlock: OJICUG_clean_linker_0, # of connection points: 2
#     Edge 34, Type (0, 1), BuildingBlock: OJICUG_clean_linker_0, # of connection points: 2
#     Edge 35, Type (0, 1), BuildingBlock: OJICUG_clean_linker_0, # of connection points: 2
#     Edge 36, Type (0, 1), BuildingBlock: OJICUG_clean_linker_0, # of connection points: 2
#     Edge 37, Type (0, 1), BuildingBlock: OJICUG_clean_linker_0, # of connection points: 2
#     Edge 38, Type (0, 1), BuildingBlock: OJICUG_clean_linker_0, # of connection points: 2
#     Edge 39, Type (0, 1), BuildingBlock: OJICUG_clean_linker_0, # of connection points: 2
#     Edge 40, Type (0, 1), BuildingBlock: OJICUG_clean_linker_0, # of connection points: 2
#     Edge 41, Type (0, 1), BuildingBlock: OJICUG_clean_linker_0, # of connection points: 2
#     Edge 42, Type (0, 1), BuildingBlock: OJICUG_clean_linker_0, # of connection points: 2
#     Edge 43, Type (0, 1), BuildingBlock: OJICUG_clean_linker_0, # of connection points: 2
#     Edge 44, Type (0, 1), BuildingBlock: OJICUG_clean_linker_0, # of connection points: 2
#     Edge 45, Type (0, 1), BuildingBlock: OJICUG_clean_linker_0, # of connection points: 2
#     Edge 46, Type (0, 1), BuildingBlock: OJICUG_clean_linker_0, # of connection points: 2
#     Edge 47, Type (0, 1), BuildingBlock: OJICUG_clean_linker_0, # of connection points: 2
#     Edge 48, Type (0, 1), BuildingBlock: OJICUG_clean_linker_0, # of connection points: 2
#     Edge 49, Type (0, 1), BuildingBlock: OJICUG_clean_linker_0, # of connection points: 2
#     Edge 50, Type (0, 1), BuildingBlock: OJICUG_clean_linker_0, # of connection points: 2
#     Edge 51, Type (0, 1), BuildingBlock: OJICUG_clean_linker_0, # of connection points: 2
#     Edge 52, Type (0, 1), BuildingBlock: OJICUG_clean_linker_0, # of connection points: 2
#     Edge 53, Type (0, 1), BuildingBlock: OJICUG_clean_linker_0, # of connection points: 2
#     Edge 54, Type (0, 1), BuildingBlock: OJICUG_clean_linker_0, # of connection points: 2
#     Edge 55, Type (0, 1), BuildingBlock: OJICUG_clean_linker_0, # of connection points: 2
#     Edge 56, Type (0, 1), BuildingBlock: OJICUG_clean_linker_0, # of connection points: 2
#     Edge 57, Type (0, 1), BuildingBlock: OJICUG_clean_linker_0, # of connection points: 2
#     Edge 58, Type (0, 1), BuildingBlock: OJICUG_clean_linker_0, # of connection points: 2
#     Edge 59, Type (0, 1), BuildingBlock: OJICUG_clean_linker_0, # of connection points: 2
#     Edge 60, Type (0, 1), BuildingBlock: OJICUG_clean_linker_0, # of connection points: 2
#     Edge 61, Type (0, 1), BuildingBlock: OJICUG_clean_linker_0, # of connection points: 2
#     Edge 62, Type (0, 1), BuildingBlock: OJICUG_clean_linker_0, # of connection points: 2
#     Edge 63, Type (0, 1), BuildingBlock: OJICUG_clean_linker_0, # of connection points: 2
#     Edge 64, Type (0, 1), BuildingBlock: OJICUG_clean_linker_0, # of connection points: 2
#     Edge 65, Type (0, 1), BuildingBlock: OJICUG_clean_linker_0, # of connection points: 2
#     Edge 66, Type (0, 1), BuildingBlock: OJICUG_clean_linker_0, # of connection points: 2
#     Edge 67, Type (0, 1), BuildingBlock: OJICUG_clean_linker_0, # of connection points: 2
#     Edge 68, Type (0, 1), BuildingBlock: OJICUG_clean_linker_0, # of connection points: 2
#     Edge 69, Type (0, 1), BuildingBlock: OJICUG_clean_linker_0, # of connection points: 2
#     Edge 70, Type (0, 1), BuildingBlock: OJICUG_clean_linker_0, # of connection points: 2
#     Edge 71, Type (0, 1), BuildingBlock: OJICUG_clean_linker_0, # of connection points: 2
#     Edge 72, Type (0, 1), BuildingBlock: OJICUG_clean_linker_0, # of connection points: 2
#     Edge 73, Type (0, 1), BuildingBlock: OJICUG_clean_linker_0, # of connection points: 2
#     Edge 74, Type (0, 1), BuildingBlock: OJICUG_clean_linker_0, # of connection points: 2
#     Edge 75, Type (0, 1), BuildingBlock: OJICUG_clean_linker_0, # of connection points: 2
#     Edge 76, Type (0, 1), BuildingBlock: OJICUG_clean_linker_0, # of connection points: 2
#     Edge 77, Type (0, 1), BuildingBlock: OJICUG_clean_linker_0, # of connection points: 2
#     Edge 78, Type (0, 1), BuildingBlock: OJICUG_clean_linker_0, # of connection points: 2
#     Edge 79, Type (0, 1), BuildingBlock: OJICUG_clean_linker_0, # of connection points: 2
#     Edge 80, Type (0, 1), BuildingBlock: OJICUG_clean_linker_0, # of connection points: 2
# Relax obj value: 0.024
# Max RMSD: 0.186
# Mean RMSD: 0.131
data_MOF--net-eea--node1-KUMBOL_clean_sbu_0--node2-PAMTOO_clean_linker_0--edge1-OJICUG_clean_linker_0
_symmetry_space_group_name_H-M    P1
_symmetry_Int_Tables_number       1
_symmetry_cell_setting            triclinic
loop_
_symmetry_equiv_pos_as_xyz
'x, y, z'
_cell_length_a     38.341432
_cell_length_b     40.259074
_cell_length_c     51.608731
_cell_angle_alpha  89.536796
_cell_angle_beta   89.497165
_cell_angle_gamma 119.9699
loop_
_atom_site_label
_atom_site_type_symbol
_atom_site_fract_x
_atom_site_fract_y
_atom_site_fract_z
_atom_type_partial_charge
H0 H 0.28422 0.06521 0.43549 0.0
H1 H 0.28563 0.17259 0.43165 0.0
H2 H 0.22849 0.09034 0.37177 0.0
H3 H 0.27315 0.17196 0.3521 0.0
C4 C 0.27235 0.186 0.3704 0.0
O5 O 0.24693 0.15831 0.38805 0.0
H6 H 0.30348 0.20192 0.37806 0.0
C7 C 0.27562 0.08396 0.4258 0.0
C8 C 0.25455 0.07271 0.40232 0.0
C9 C 0.28687 0.11977 0.43664 0.0
C10 C 0.27745 0.14492 0.42355 0.0
C11 C 0.25682 0.1343 0.4001 0.0
C12 C 0.24526 0.09833 0.3896 0.0
H13 H 0.96872 0.21493 0.43278 0.0
H14 H 0.87192 0.09739 0.43201 0.0
H15 H 0.96087 0.14021 0.37102 0.0
H16 H 0.87659 0.08259 0.35153 0.0
C17 C 0.86321 0.07251 0.37122 0.0
O18 O 0.89367 0.08078 0.38854 0.0
H19 H 0.84681 0.08795 0.37638 0.0
C20 C 0.95352 0.18697 0.42389 0.0
C21 C 0.9692 0.18111 0.40069 0.0
C22 C 0.91834 0.15695 0.43553 0.0
C23 C 0.8989 0.12107 0.42345 0.0
C24 C 0.91385 0.1152 0.40018 0.0
C25 C 0.94928 0.14501 0.38898 0.0
H26 H 0.81804 0.75753 0.4326 0.0
H27 H 0.93821 0.7746 0.43278 0.0
H28 H 0.90228 0.82385 0.3716 0.0
H29 H 0.96987 0.81151 0.35201 0.0
C30 C 0.97236 0.79956 0.37094 0.0
O31 O 0.96244 0.81681 0.39059 0.0
H32 H 0.95049 0.76816 0.37067 0.0
C33 C 0.84754 0.76911 0.42356 0.0
C34 C 0.85587 0.7905 0.40033 0.0
C35 C 0.87671 0.76299 0.43559 0.0
C36 C 0.91534 0.77926 0.42412 0.0
C37 C 0.92471 0.80121 0.40113 0.0
C38 C 0.89505 0.80715 0.38941 0.0
H39 H 0.07869 0.25627 0.60007 0.0
H40 H 0.17732 0.2339 0.60306 0.0
H41 H 0.08921 0.19339 0.66475 0.0
H42 H 0.17231 0.20588 0.68497 0.0
C43 C 0.18583 0.21622 0.66536 0.0
O44 O 0.15635 0.19689 0.64706 0.0
H45 H 0.19642 0.24752 0.66452 0.0
C46 C 0.09441 0.24381 0.60987 0.0
C47 C 0.07928 0.22454 0.63388 0.0
C48 C 0.12975 0.24756 0.59846 0.0
C49 C 0.15024 0.23167 0.61148 0.0
C50 C 0.13589 0.21226 0.63526 0.0
C51 C 0.10014 0.20832 0.64632 0.0
H52 H 0.76437 0.81052 0.59736 0.0
H53 H 0.78169 0.92466 0.59966 0.0
H54 H 0.8344 0.88836 0.65785 0.0
H55 H 0.802 0.93816 0.67948 0.0
C56 C 0.79888 0.949 0.66025 0.0
O57 O 0.82212 0.94343 0.64216 0.0
H58 H 0.76642 0.93265 0.65509 0.0
C59 C 0.77777 0.83844 0.60622 0.0
C60 C 0.80091 0.84565 0.6288 0.0
C61 C 0.77053 0.86666 0.59546 0.0
C62 C 0.78649 0.90229 0.60761 0.0
C63 C 0.80861 0.90952 0.63025 0.0
C64 C 0.81624 0.88161 0.64065 0.0
H65 H 0.21543 0.95191 0.59944 0.0
H66 H 0.10132 0.84734 0.60189 0.0
H67 H 0.12938 0.93114 0.66084 0.0
H68 H 0.07254 0.85206 0.68299 0.0
C69 C 0.06958 0.83781 0.66413 0.0
O70 O 0.07531 0.8634 0.64426 0.0
H71 H 0.09317 0.82937 0.66334 0.0
C72 C 0.18619 0.9343 0.60859 0.0
C73 C 0.17615 0.94664 0.63151 0.0
C74 C 0.15944 0.89884 0.59758 0.0
C75 C 0.12238 0.87479 0.61009 0.0
C76 C 0.11176 0.88642 0.63291 0.0
C77 C 0.13843 0.92231 0.64347 0.0
H78 H 0.94723 0.39196 0.77212 0.0
H79 H 0.94131 0.49578 0.77197 0.0
H80 H 0.88164 0.41299 0.71275 0.0
H81 H 0.9193 0.49372 0.69296 0.0
C82 C 0.92125 0.50773 0.7118 0.0
O83 O 0.89838 0.48011 0.73023 0.0
H84 H 0.9535 0.52338 0.71745 0.0
C85 C 0.93611 0.40952 0.76362 0.0
C86 C 0.91276 0.39743 0.74105 0.0
C87 C 0.94647 0.44479 0.77499 0.0
C88 C 0.93374 0.46852 0.76344 0.0
C89 C 0.91073 0.45707 0.74096 0.0
C90 C 0.90009 0.42162 0.72988 0.0
H91 H 0.63423 0.54116 0.76789 0.0
H92 H 0.54033 0.42283 0.76531 0.0
H93 H 0.62765 0.47066 0.70351 0.0
H94 H 0.54298 0.40907 0.68439 0.0
C95 C 0.53081 0.39984 0.70441 0.0
O96 O 0.5624 0.40899 0.72099 0.0
H97 H 0.51469 0.41549 0.70972 0.0
C98 C 0.61979 0.51376 0.75825 0.0
C99 C 0.63563 0.50992 0.73439 0.0
C100 C 0.58526 0.48268 0.76964 0.0
C101 C 0.56675 0.44733 0.75691 0.0
C102 C 0.58177 0.44311 0.73314 0.0
C103 C 0.61637 0.4742 0.72199 0.0
H104 H 0.48051 0.07687 0.76776 0.0
H105 H 0.59984 0.09161 0.76563 0.0
H106 H 0.56525 0.14687 0.70803 0.0
H107 H 0.63337 0.13612 0.68685 0.0
C108 C 0.63602 0.12302 0.70522 0.0
O109 O 0.62509 0.13818 0.72573 0.0
H110 H 0.61483 0.09157 0.70394 0.0
C111 C 0.50983 0.0884 0.75852 0.0
C112 C 0.51843 0.11157 0.73606 0.0
C113 C 0.53858 0.08061 0.76956 0.0
C114 C 0.57718 0.09733 0.75788 0.0
C115 C 0.58702 0.1214 0.73593 0.0
C116 C 0.55766 0.12864 0.72513 0.0
H117 H 0.7472 0.58849 0.93423 0.0
H118 H 0.84537 0.56552 0.938 0.0
H119 H 0.75674 0.52575 0.99934 0.0
H120 H 0.83978 0.53799 0.02005 0.0
C121 C 0.8533 0.54846 1.00046 0.0
O122 O 0.82394 0.52897 0.98213 0.0
H123 H 0.8636 0.57971 0.99966 0.0
C124 C 0.76271 0.57596 0.9442 0.0
C125 C 0.74728 0.55682 0.9682 0.0
C126 C 0.79808 0.57948 0.933 0.0
C127 C 0.81828 0.5635 0.94624 0.0
C128 C 0.80366 0.54429 0.97006 0.0
C129 C 0.76788 0.54055 0.98089 0.0
H130 H 0.43021 0.14426 0.93346 0.0
H131 H 0.4448 0.25741 0.93776 0.0
H132 H 0.49352 0.21821 0.997 0.0
H133 H 0.46224 0.26967 0.01809 0.0
C134 C 0.45982 0.28052 0.99869 0.0
O135 O 0.4833 0.27456 0.98106 0.0
H136 H 0.42753 0.26458 0.99314 0.0
C137 C 0.44186 0.17154 0.94307 0.0
C138 C 0.46323 0.17778 0.96631 0.0
C139 C 0.43454 0.19984 0.93259 0.0
C140 C 0.44919 0.23473 0.9456 0.0
C141 C 0.46977 0.24091 0.96885 0.0
C142 C 0.47678 0.21261 0.97922 0.0
H143 H 0.88387 0.28556 0.93274 0.0
H144 H 0.76582 0.18568 0.93295 0.0
H145 H 0.79549 0.27096 0.99094 0.0
H146 H 0.73428 0.19462 0.01285 0.0
C147 C 0.73081 0.17934 0.99437 0.0
O148 O 0.7395 0.20474 0.97388 0.0
H149 H 0.75235 0.16836 0.99465 0.0
C150 C 0.85383 0.26956 0.94111 0.0
C151 C 0.84366 0.28323 0.96334 0.0
C152 C 0.826 0.2347 0.92981 0.0
C153 C 0.78771 0.21263 0.94137 0.0
C154 C 0.77698 0.22571 0.96343 0.0
C155 C 0.80469 0.26099 0.97422 0.0
H156 H 0.61838 0.73089 0.1008 0.0
H157 H 0.61708 0.83689 0.09541 0.0
H158 H 0.56056 0.75257 0.03668 0.0
H159 H 0.60342 0.83418 0.01583 0.0
C160 C 0.60305 0.84833 0.03417 0.0
O161 O 0.57793 0.82071 0.05197 0.0
H162 H 0.63436 0.86425 0.04155 0.0
C163 C 0.60908 0.74891 0.09084 0.0
C164 C 0.58772 0.7366 0.06751 0.0
C165 C 0.61975 0.78491 0.10115 0.0
C166 C 0.60938 0.80911 0.08771 0.0
C167 C 0.58851 0.79748 0.0644 0.0
C168 C 0.57756 0.76135 0.05441 0.0
H169 H 0.30081 0.87934 0.09867 0.0
H170 H 0.20517 0.76127 0.09999 0.0
H171 H 0.29354 0.8024 0.03865 0.0
H172 H 0.20903 0.74279 0.02005 0.0
C173 C 0.19607 0.73358 0.03991 0.0
O174 O 0.22696 0.74315 0.05714 0.0
H175 H 0.17939 0.74892 0.0446 0.0
C176 C 0.28588 0.85101 0.09032 0.0
C177 C 0.30158 0.84444 0.06737 0.0
C178 C 0.25101 0.8212 0.1024 0.0
C179 C 0.2319 0.78479 0.09105 0.0
C180 C 0.24684 0.77816 0.06806 0.0
C181 C 0.28196 0.80778 0.0564 0.0
H182 H 0.14979 0.41165 0.10282 0.0
H183 H 0.26943 0.42713 0.10042 0.0
H184 H 0.23394 0.48177 0.0429 0.0
H185 H 0.30191 0.47207 0.02138 0.0
C186 C 0.30482 0.45872 0.03956 0.0
O187 O 0.29411 0.47355 0.06037 0.0
H188 H 0.28367 0.42729 0.03811 0.0
C189 C 0.17909 0.42331 0.09352 0.0
C190 C 0.18741 0.44638 0.07104 0.0
C191 C 0.20806 0.41579 0.1045 0.0
C192 C 0.24659 0.43265 0.09271 0.0
C193 C 0.25614 0.45662 0.07072 0.0
C194 C 0.22657 0.46362 0.06002 0.0
H195 H 0.41128 0.92454 0.26492 0.0
H196 H 0.50942 0.90148 0.26856 0.0
H197 H 0.42155 0.86262 0.33029 0.0
H198 H 0.50454 0.87472 0.35081 0.0
C199 C 0.51779 0.8854 0.33118 0.0
O200 O 0.48842 0.8656 0.31294 0.0
H201 H 0.52759 0.91654 0.33047 0.0
C202 C 0.42688 0.91209 0.27489 0.0
C203 C 0.41176 0.89327 0.29903 0.0
C204 C 0.46211 0.91542 0.2636 0.0
C205 C 0.48241 0.89957 0.27686 0.0
C206 C 0.46802 0.88067 0.30078 0.0
C207 C 0.43244 0.87713 0.31173 0.0
H208 H 0.09796 0.47996 0.26893 0.0
H209 H 0.11117 0.59261 0.27223 0.0
H210 H 0.16054 0.55509 0.33214 0.0
H211 H 0.12774 0.60723 0.3521 0.0
C212 C 0.12587 0.6175 0.33237 0.0
O213 O 0.14976 0.61092 0.31547 0.0
H214 H 0.09374 0.60144 0.32647 0.0
C215 C 0.10928 0.50733 0.27837 0.0
C216 C 0.13073 0.51414 0.30162 0.0
C217 C 0.10153 0.53519 0.26762 0.0
C218 C 0.11584 0.57025 0.28034 0.0
C219 C 0.13642 0.577 0.30364 0.0
C220 C 0.14379 0.54907 0.31433 0.0
H221 H 0.55054 0.6225 0.2645 0.0
H222 H 0.43384 0.52085 0.26656 0.0
H223 H 0.46312 0.60756 0.32346 0.0
H224 H 0.4045 0.53158 0.34653 0.0
C225 C 0.40004 0.51565 0.32823 0.0
O226 O 0.40772 0.54033 0.30744 0.0
H227 H 0.42151 0.50458 0.32816 0.0
C228 C 0.52079 0.60613 0.27323 0.0
C229 C 0.51071 0.62002 0.29536 0.0
C230 C 0.4933 0.5707 0.26251 0.0
C231 C 0.45547 0.54825 0.27456 0.0
C232 C 0.44484 0.56157 0.29656 0.0
C233 C 0.47221 0.59742 0.30677 0.0
Gd234 Gd 0.5275 0.02048 0.04566 0.0
Gd235 Gd 0.49872 0.98583 0.9791 0.0
C236 C 0.36546 0.93507 0.95945 0.0
C237 C 0.33619 0.86984 0.97607 0.0
C238 C 0.40841 0.91379 0.97866 0.0
C239 C 0.40374 0.94261 0.96764 0.0
C240 C 0.37477 0.87669 0.98231 0.0
C241 C 0.33153 0.89901 0.96462 0.0
C242 C 0.36274 0.96327 0.94508 0.0
C243 C 0.39791 0.99678 0.93774 0.0
N244 N 0.43717 0.97694 0.9627 0.0
C245 C 0.43512 1.00255 0.94606 0.0
H246 H 0.4623 0.02796 0.93969 0.0
C247 C 0.45245 0.89237 0.99233 0.0
N248 N 0.44613 0.92148 0.98459 0.0
C249 C 0.42015 0.8551 0.99604 0.0
C250 C 0.38103 0.84733 0.99145 0.0
H251 H 0.48218 0.89721 0.99568 0.0
H252 H 0.30181 0.89291 0.9589 0.0
H253 H 0.6121 0.01542 0.04059 0.0
H254 H 0.33394 0.9586 0.9384 0.0
H255 H 0.39645 0.01796 0.92547 0.0
H256 H 0.30996 0.84175 0.9792 0.0
H257 H 0.4864 0.06873 0.07165 0.0
H258 H 0.71275 0.12557 0.0564 0.0
H259 H 0.68503 0.05734 0.04537 0.0
H260 H 0.65172 0.20061 0.07828 0.0
H261 H 0.42549 0.83241 1.00253 0.0
H262 H 0.35604 0.81848 0.99447 0.0
H263 H 0.70011 0.17927 0.06771 0.0
H264 H 0.50764 0.13422 0.08688 0.0
N265 N 0.59795 0.05918 0.04864 0.0
C266 C 0.68053 0.10719 0.05443 0.0
C267 C 0.66499 0.0687 0.04823 0.0
C268 C 0.65422 0.12131 0.05848 0.0
C269 C 0.61252 0.09614 0.05568 0.0
C270 C 0.62344 0.04496 0.04547 0.0
N271 N 0.54562 0.08212 0.06063 0.0
C272 C 0.58545 0.10818 0.0615 0.0
C273 C 0.52984 0.1274 0.07957 0.0
C274 C 0.57058 0.15537 0.07888 0.0
C275 C 0.51792 0.09045 0.07095 0.0
C276 C 0.59909 0.14565 0.07042 0.0
H277 H 0.57982 0.18386 0.08585 0.0
O278 O 0.49322 0.00374 0.08209 0.0
O279 O 0.48118 0.974 0.02103 0.0
O280 O 0.47847 0.02854 0.98814 0.0
O281 O 0.51596 0.06335 0.02386 0.0
O282 O 0.46156 1.00064 0.04696 0.0
O283 O 0.5462 0.99867 0.0782 0.0
O284 O 0.50956 0.95232 0.95049 0.0
O285 O 0.54946 0.02251 1.00531 0.0
O286 O 0.53987 0.97184 0.03872 0.0
O287 O 0.53664 0.96147 0.99416 0.0
O288 O 0.5472 0.04642 0.96981 0.0
O289 O 0.52018 0.0087 0.94028 0.0
C290 C 0.45019 0.9734 0.03049 0.0
C291 C 0.64063 0.17154 0.07179 0.0
C292 C 0.66817 0.15936 0.06585 0.0
C293 C 0.51791 0.99558 0.09383 0.0
C294 C 0.53056 0.01138 0.12002 0.0
C295 C 0.56049 0.04978 0.12296 0.0
C296 C 0.51334 0.98791 0.14227 0.0
C297 C 0.52633 1.00278 0.1673 0.0
C298 C 0.57294 0.06481 0.14757 0.0
C299 C 0.55608 0.04161 0.16956 0.0
C300 C 0.49317 0.05866 1.00347 0.0
C301 C 0.56703 0.05214 0.99085 0.0
C302 C 0.51832 0.97756 0.93191 0.0
C303 C 0.49952 0.96413 0.90624 0.0
C304 C 0.47077 0.92547 0.90248 0.0
C305 C 0.51123 0.99017 0.88499 0.0
C306 C 0.4946 0.97773 0.86016 0.0
C307 C 0.4545 0.91287 0.87806 0.0
C308 C 0.46639 0.93853 0.85709 0.0
C309 C 0.54516 0.95561 0.01799 0.0
H310 H 0.57449 0.06811 0.10626 0.0
H311 H 0.49063 0.95806 0.14005 0.0
H312 H 0.59592 0.09457 0.14961 0.0
H313 H 0.56622 0.0542 0.18842 0.0
H314 H 0.46103 0.90484 0.91835 0.0
H315 H 0.53296 0.02012 0.88795 0.0
H316 H 0.43267 0.88291 0.87531 0.0
H317 H 0.45368 0.92735 0.83835 0.0
Gd318 Gd 1.00028 0.491 0.05271 0.0
Gd319 Gd 0.04908 0.5057 0.98847 0.0
C320 C 0.16483 0.50094 0.9787 0.0
C321 C 0.21374 0.56726 0.96787 0.0
C322 C 0.14344 0.54813 0.97531 0.0
C323 C 0.13444 0.51087 0.98036 0.0
C324 C 0.18296 0.57655 0.96834 0.0
C325 C 0.2047 0.52952 0.97308 0.0
C326 C 0.15402 0.46241 0.98195 0.0
C327 C 0.11355 0.43475 0.9857 0.0
N328 N 0.09554 0.4839 0.98541 0.0
C329 C 0.08446 0.446 0.98701 0.0
H330 H 0.05331 0.4244 0.99008 0.0
C331 C 0.11918 0.59095 0.96744 0.0
N332 N 0.11292 0.55601 0.97568 0.0
C333 C 0.15792 0.62016 0.96049 0.0
C334 C 0.19007 0.6131 0.96129 0.0
H335 H 0.09442 0.59656 0.96699 0.0
H336 H 0.22853 0.52253 0.972 0.0
H337 H 0.99863 0.574 0.05193 0.0
H338 H 0.17648 0.45361 0.98092 0.0
H339 H 0.10475 0.40478 0.98771 0.0
H340 H 0.2444 0.58879 0.96284 0.0
H341 H 0.95393 0.40145 0.07602 0.0
H342 H 0.8782 0.54916 0.06682 0.0
H343 H 0.94979 0.59598 0.05749 0.0
H344 H 0.80728 0.41414 0.08502 0.0
H345 H 0.16298 0.64811 0.9546 0.0
H346 H 0.22003 0.63574 0.95582 0.0
H347 H 0.82489 0.48096 0.07623 0.0
H348 H 0.88597 0.35187 0.09089 0.0
N349 N 0.95537 0.5148 0.05731 0.0
C350 C 0.89957 0.53923 0.06434 0.0
C351 C 0.93996 0.56574 0.05915 0.0
C352 C 0.88748 0.50034 0.06699 0.0
C353 C 0.91653 0.48894 0.06353 0.0
C354 C 0.96765 0.55304 0.05598 0.0
N355 N 0.9363 0.44258 0.06712 0.0
C356 C 0.90661 0.45148 0.06844 0.0
C357 C 0.89127 0.37969 0.08446 0.0
C358 C 0.85977 0.38766 0.08445 0.0
C359 C 0.92972 0.40783 0.07606 0.0
C360 C 0.8674 0.4242 0.07694 0.0
H361 H 0.83007 0.36591 0.09113 0.0
O362 O 1.01533 0.47549 0.08969 0.0
O363 O 0.05119 0.4928 0.03024 0.0
O364 O 1.00132 0.44324 0.99556 0.0
O365 O 0.95707 0.44157 0.02778 0.0
O366 O 0.02285 0.44901 0.05706 0.0
O367 O 0.02255 0.5319 0.08406 0.0
O368 O 0.03476 0.52066 0.95113 0.0
O369 O 0.99823 0.50323 0.01099 0.0
O370 O 0.04682 0.55409 0.04399 0.0
O371 O 0.09195 0.55318 0.01394 0.0
O372 O 0.02334 0.54542 0.98285 0.0
O373 O 0.03245 0.46609 0.9565 0.0
C374 C 0.05215 0.46462 0.04047 0.0
C375 C 0.8377 0.4348 0.07883 0.0
C376 C 0.84773 0.47284 0.07387 0.0
C377 C 0.02366 0.50769 0.1005 0.0
C378 C 1.00495 0.50443 0.12611 0.0
C379 C 0.9645 0.49476 0.12831 0.0
C380 C 0.02759 0.51058 0.14862 0.0
C381 C 1.00987 0.507 0.17331 0.0
C382 C 0.94661 0.49077 0.15262 0.0
C383 C 0.96901 0.49672 0.17499 0.0
C384 C 0.9658 0.42643 1.00772 0.0
C385 C 0.995 0.52973 1.00011 0.0
C386 C 0.02944 0.48943 0.94018 0.0
C387 C 0.04869 0.49442 0.9146 0.0
C388 C 0.09055 0.51085 0.912 0.0
C389 C 0.02487 0.48368 0.89237 0.0
C390 C 0.04275 0.48989 0.86755 0.0
C391 C 0.10848 0.51705 0.88744 0.0
C392 C 0.08481 0.50685 0.8653 0.0
C393 C 0.08247 0.57058 0.03191 0.0
H394 H 0.94672 0.4903 0.11131 0.0
H395 H 0.05906 0.51869 0.14685 0.0
H396 H 0.91525 0.48301 0.15412 0.0
H397 H 0.9542 0.49298 0.19363 0.0
H398 H 0.10934 0.51903 0.92884 0.0
H399 H 0.99251 0.47116 0.89437 0.0
H400 H 0.14083 0.52984 0.88557 0.0
H401 H 0.09931 0.51171 0.84644 0.0
Gd402 Gd 0.51691 0.52136 0.98499 0.0
Gd403 Gd 0.54759 0.50885 0.05029 0.0
C404 C 0.66829 0.51468 0.06224 0.0
C405 C 0.64751 0.44903 0.07495 0.0
C406 C 0.59736 0.46752 0.06593 0.0
C407 C 0.62751 0.50455 0.06022 0.0
C408 C 0.60697 0.43956 0.07402 0.0
C409 C 0.67813 0.48651 0.06902 0.0
C410 C 0.69793 0.55303 0.05808 0.0
C411 C 0.68649 0.58035 0.05304 0.0
N412 N 0.61692 0.53112 0.05401 0.0
C413 C 0.64561 0.56893 0.05144 0.0
H414 H 0.63724 0.59032 0.04738 0.0
C415 C 0.52797 0.42484 0.07375 0.0
N416 N 0.55856 0.45945 0.06499 0.0
C417 C 0.53597 0.3961 0.08186 0.0
C418 C 0.5756 0.40331 0.08165 0.0
H419 H 0.49727 0.41908 0.07377 0.0
H420 H 0.70929 0.49366 0.0704 0.0
H421 H 0.4282 0.43828 0.98614 0.0
H422 H 0.7296 0.56196 0.05933 0.0
H423 H 0.70914 0.61021 0.05028 0.0
H424 H 0.65553 0.42784 0.08085 0.0
H425 H 0.56508 0.61 0.96013 0.0
H426 H 0.33412 0.46278 0.97051 0.0
H427 H 0.35639 0.41618 0.98064 0.0
H428 H 0.40538 0.59718 0.95009 0.0
H429 H 0.51158 0.36841 0.08818 0.0
H430 H 0.58173 0.38103 0.08799 0.0
H431 H 0.35264 0.53067 0.95981 0.0
H432 H 0.54957 0.65928 0.94435 0.0
N433 N 0.44717 0.49734 0.97999 0.0
C434 C 0.36587 0.47275 0.97294 0.0
C435 C 0.37834 0.44637 0.97859 0.0
C436 C 0.39467 0.51154 0.96971 0.0
C437 C 0.43562 0.52301 0.9732 0.0
C438 C 0.41931 0.45914 0.98172 0.0
N439 N 0.50409 0.56921 0.96926 0.0
C440 C 0.46511 0.56027 0.96774 0.0
C441 C 0.52551 0.63163 0.95104 0.0
C442 C 0.48564 0.62365 0.95082 0.0
C443 C 0.53419 0.60367 0.95994 0.0
C444 C 0.45474 0.58731 0.95869 0.0
H445 H 0.47895 0.64524 0.94374 0.0
O446 O 0.54948 0.53601 0.9481 0.0
O447 O 0.56467 0.51996 1.00849 0.0
O448 O 0.56636 0.57099 0.04179 0.0
O449 O 0.52592 0.57225 1.00848 0.0
O450 O 0.58389 0.56256 0.98073 0.0
O451 O 0.49782 0.47955 0.95422 0.0
O452 O 0.5145 0.4955 0.08679 0.0
O453 O 0.49996 0.51053 0.02683 0.0
O454 O 0.49706 0.45874 0.99489 0.0
O455 O 0.54133 0.46032 0.02616 0.0
O456 O 0.48042 0.46827 0.05509 0.0
O457 O 0.571 0.54882 0.08219 0.0
C458 C 0.59584 0.5473 0.99799 0.0
C459 C 0.41397 0.5767 0.95672 0.0
C460 C 0.38396 0.53884 0.96222 0.0
C461 C 0.52477 0.50336 0.93763 0.0
C462 C 0.5103 0.50549 0.91165 0.0
C463 C 0.4783 0.51264 0.90885 0.0
C464 C 0.5287 0.50059 0.88941 0.0
C465 C 0.51498 0.50259 0.86446 0.0
C466 C 0.46489 0.51511 0.88428 0.0
C467 C 0.48303 0.51017 0.86224 0.0
C468 C 0.55 0.58791 0.02846 0.0
C469 C 0.46878 0.48348 0.03759 0.0
C470 C 0.5417 0.5264 0.09801 0.0
C471 C 0.55278 0.52096 0.12427 0.0
C472 C 0.57708 0.5045 0.12815 0.0
C473 C 0.53742 0.53091 0.1458 0.0
C474 C 0.54572 0.52393 0.17117 0.0
C475 C 0.58542 0.49748 0.15323 0.0
C476 C 0.56971 0.50693 0.17464 0.0
C477 C 0.51454 0.44255 1.00796 0.0
H478 H 0.46361 0.51625 0.9256 0.0
H479 H 0.55314 0.49462 0.89159 0.0
H480 H 0.44031 0.52086 0.88232 0.0
H481 H 0.47222 0.51261 0.8434 0.0
H482 H 0.58942 0.49692 0.11189 0.0
H483 H 0.51846 0.54347 0.14281 0.0
H484 H 0.60412 0.48468 0.15609 0.0
H485 H 0.5769 0.50156 0.19392 0.0
Gd486 Gd 0.19572 0.35728 0.38116 0.0
Gd487 Gd 0.16771 0.32298 0.31441 0.0
C488 C 0.03499 0.27292 0.29347 0.0
C489 C 1.00506 0.20755 0.30993 0.0
C490 C 0.07724 0.25125 0.31325 0.0
C491 C 0.073 0.28023 0.30208 0.0
C492 C 0.04341 0.2142 0.31663 0.0
C493 C 1.00085 0.23689 0.29833 0.0
C494 C 0.03278 0.30133 0.27901 0.0
C495 C 0.0682 0.33483 0.27204 0.0
N496 N 0.10663 0.31452 0.29745 0.0
C497 C 0.10512 0.34038 0.28077 0.0
H498 H 0.13251 0.36579 0.27468 0.0
C499 C 0.1207 0.22952 0.32762 0.0
N500 N 0.11474 0.25876 0.31963 0.0
C501 C 0.08821 0.19229 0.33107 0.0
C502 C 0.04928 0.1847 0.32598 0.0
H503 H 0.15028 0.23427 0.33142 0.0
H504 H 0.97132 0.23096 0.29227 0.0
H505 H 0.2807 0.35287 0.37617 0.0
H506 H 1.0042 0.29683 0.272 0.0
H507 H 0.06715 0.35619 0.25972 0.0
H508 H 0.97869 0.17949 0.31284 0.0
H509 H 0.15394 0.40485 0.40725 0.0
H510 H 0.3808 0.46334 0.39204 0.0
H511 H 0.35358 0.3952 0.38093 0.0
H512 H 0.3188 0.53742 0.41427 0.0
H513 H 0.09325 0.1695 0.33776 0.0
H514 H 0.02413 0.15588 0.32881 0.0
H515 H 0.36761 0.51664 0.40355 0.0
H516 H 0.17465 0.47013 0.42268 0.0
N517 N 0.26611 0.3963 0.38436 0.0
C518 C 0.34861 0.44477 0.3901 0.0
C519 C 0.33335 0.40633 0.38386 0.0
C520 C 0.32205 0.45858 0.39425 0.0
C521 C 0.2804 0.43318 0.39147 0.0
C522 C 0.29182 0.38236 0.38112 0.0
N523 N 0.21335 0.41867 0.3964 0.0
C524 C 0.2531 0.44491 0.39736 0.0
C525 C 0.19703 0.46355 0.41539 0.0
C526 C 0.2377 0.4917 0.41481 0.0
C527 C 0.18541 0.4267 0.40667 0.0
C528 C 0.26644 0.48229 0.40635 0.0
H529 H 0.24671 0.52012 0.42184 0.0
O530 O 0.16099 0.33989 0.41743 0.0
O531 O 0.14974 0.31104 0.35625 0.0
O532 O 0.14755 0.36585 0.32332 0.0
O533 O 0.18428 0.40026 0.3594 0.0
O534 O 0.12977 0.33741 0.38216 0.0
O535 O 0.21422 0.33524 0.41369 0.0
O536 O 0.17927 0.28956 0.28616 0.0
O537 O 0.21811 0.35953 0.34088 0.0
O538 O 0.20857 0.30897 0.37422 0.0
O539 O 0.20521 0.29829 0.32969 0.0
O540 O 0.2162 0.38361 0.30537 0.0
O541 O 0.18954 0.3457 0.2756 0.0
C542 C 0.11864 0.31039 0.36553 0.0
C543 C 0.30793 0.50841 0.40773 0.0
C544 C 0.33571 0.49656 0.4017 0.0
C545 C 0.1856 0.33165 0.4292 0.0
C546 C 0.19772 0.34686 0.45558 0.0
C547 C 0.22701 0.38538 0.45895 0.0
C548 C 0.18074 0.32271 0.47758 0.0
C549 C 0.19336 0.33701 0.50278 0.0
C550 C 0.2391 0.39984 0.48373 0.0
C551 C 0.22251 0.37596 0.50547 0.0
C552 C 0.16186 0.39577 0.33883 0.0
C553 C 0.23577 0.38925 0.32651 0.0
C554 C 0.18804 0.31462 0.26744 0.0
C555 C 0.16954 0.30083 0.24174 0.0
C556 C 0.14112 0.26204 0.2381 0.0
C557 C 0.18119 0.32663 0.22035 0.0
C558 C 0.16483 0.31382 0.19551 0.0
C559 C 0.12512 0.24908 0.21366 0.0
C560 C 0.13696 0.27451 0.19257 0.0
C561 C 0.2138 0.29261 0.35355 0.0
H562 H 0.24079 0.40425 0.44245 0.0
H563 H 0.1585 0.29277 0.47503 0.0
H564 H 0.2616 0.42969 0.4861 0.0
H565 H 0.23236 0.38813 0.52446 0.0
H566 H 0.13142 0.24157 0.25406 0.0
H567 H 0.20267 0.35668 0.22322 0.0
H568 H 0.10356 0.21902 0.211 0.0
H569 H 0.12447 0.26307 0.17383 0.0
Gd570 Gd 0.66693 0.83044 0.38186 0.0
Gd571 Gd 0.71481 0.84529 0.31714 0.0
C572 C 0.83038 0.8402 0.30734 0.0
C573 C 0.87946 0.90653 0.2967 0.0
C574 C 0.80919 0.88755 0.30406 0.0
C575 C 0.80007 0.85023 0.30902 0.0
C576 C 0.84876 0.91592 0.29714 0.0
C577 C 0.8703 0.86875 0.30183 0.0
C578 C 0.81943 0.80161 0.31044 0.0
C579 C 0.77891 0.77401 0.31406 0.0
N580 N 0.76111 0.82329 0.31395 0.0
C581 C 0.7499 0.78535 0.3154 0.0
H582 H 0.71872 0.76379 0.31838 0.0
C583 C 0.78506 0.93045 0.29607 0.0
N584 N 0.77872 0.8955 0.30437 0.0
C585 C 0.82385 0.95962 0.28918 0.0
C586 C 0.85596 0.9525 0.29007 0.0
H587 H 0.76031 0.93608 0.29558 0.0
H588 H 0.89409 0.86168 0.30075 0.0
H589 H 0.66494 0.91331 0.38115 0.0
H590 H 0.84183 0.79274 0.30939 0.0
H591 H 0.77002 0.744 0.31595 0.0
H592 H 0.91017 0.92803 0.29171 0.0
H593 H 0.62145 0.74128 0.40572 0.0
H594 H 0.5447 0.8882 0.39711 0.0
H595 H 0.61605 0.93511 0.38719 0.0
H596 H 0.47455 0.75335 0.41588 0.0
H597 H 0.82898 0.98758 0.28326 0.0
H598 H 0.88595 0.9751 0.28464 0.0
H599 H 0.49173 0.82002 0.40693 0.0
H600 H 0.55387 0.69167 0.42123 0.0
N601 N 0.62194 0.85409 0.38683 0.0
C602 C 0.56609 0.87834 0.39441 0.0
C603 C 0.60634 0.90489 0.3889 0.0
C604 C 0.55417 0.8395 0.39713 0.0
C605 C 0.58325 0.82818 0.39338 0.0
C606 C 0.63407 0.89229 0.38545 0.0
N607 N 0.60332 0.78203 0.39679 0.0
C608 C 0.57355 0.79081 0.39837 0.0
C609 C 0.55889 0.71935 0.41468 0.0
C610 C 0.52726 0.72715 0.41489 0.0
C611 C 0.59711 0.7475 0.40591 0.0
C612 C 0.53458 0.76354 0.40725 0.0
H613 H 0.49775 0.7054 0.42185 0.0
O614 O 0.68341 0.81504 0.41837 0.0
O615 O 0.71756 0.83265 0.35884 0.0
O616 O 0.66702 0.78281 0.32426 0.0
O617 O 0.62364 0.78052 0.35741 0.0
O618 O 0.69002 0.7888 0.3857 0.0
O619 O 0.68887 0.87086 0.4135 0.0
O620 O 0.70099 0.86073 0.27979 0.0
O621 O 0.66425 0.84249 0.34015 0.0
O622 O 0.71314 0.89354 0.37314 0.0
O623 O 0.75776 0.89303 0.34247 0.0
O624 O 0.68856 0.8846 0.31188 0.0
O625 O 0.69748 0.80566 0.28514 0.0
C626 C 0.719 0.80465 0.36891 0.0
C627 C 0.5048 0.77401 0.4094 0.0
C628 C 0.5146 0.81197 0.40435 0.0
C629 C 0.69093 0.84675 0.42956 0.0
C630 C 0.67226 0.84241 0.45533 0.0
C631 C 0.63212 0.83369 0.4578 0.0
C632 C 0.69454 0.84642 0.47771 0.0
C633 C 0.67682 0.84171 0.50252 0.0
C634 C 0.61418 0.82848 0.48222 0.0
C635 C 0.63625 0.83234 0.50446 0.0
C636 C 0.63207 0.76556 0.33711 0.0
C637 C 0.6606 0.86881 0.32937 0.0
C638 C 0.69521 0.82937 0.26878 0.0
C639 C 0.71489 0.83422 0.24333 0.0
C640 C 0.75668 0.84975 0.24121 0.0
C641 C 0.69171 0.82408 0.22079 0.0
C642 C 0.71024 0.82999 0.19619 0.0
C643 C 0.77523 0.85567 0.21691 0.0
C644 C 0.75225 0.84604 0.19449 0.0
C645 C 0.74852 0.91018 0.36076 0.0
H646 H 0.61463 0.83095 0.44093 0.0
H647 H 0.72579 0.85383 0.47575 0.0
H648 H 0.58306 0.82146 0.48393 0.0
H649 H 0.62145 0.82781 0.52318 0.0
H650 H 0.77497 0.85737 0.25826 0.0
H651 H 0.65939 0.81218 0.22239 0.0
H652 H 0.80752 0.86774 0.21544 0.0
H653 H 0.76726 0.85057 0.17584 0.0
Gd654 Gd 0.18265 0.85879 0.31764 0.0
Gd655 Gd 0.21353 0.84564 0.38279 0.0
C656 C 0.33384 0.85038 0.39397 0.0
C657 C 0.31264 0.78454 0.40642 0.0
C658 C 0.26281 0.80359 0.39784 0.0
C659 C 0.29312 0.84056 0.39216 0.0
C660 C 0.27218 0.77538 0.40569 0.0
C661 C 0.34342 0.82196 0.40052 0.0
C662 C 0.36366 0.88867 0.38985 0.0
C663 C 0.35249 0.91625 0.38507 0.0
N664 N 0.28279 0.86738 0.38619 0.0
C665 C 0.31167 0.90513 0.38367 0.0
H666 H 0.30348 0.9267 0.37982 0.0
C667 C 0.19337 0.76123 0.40579 0.0
N668 N 0.22409 0.79581 0.3971 0.0
C669 C 0.20114 0.73224 0.41365 0.0
C670 C 0.24067 0.73916 0.41326 0.0
H671 H 0.16275 0.7557 0.40594 0.0
H672 H 0.37453 0.82887 0.40175 0.0
H673 H 0.09425 0.77534 0.31857 0.0
H674 H 0.3953 0.89737 0.39095 0.0
H675 H 0.3753 0.94606 0.38235 0.0
H676 H 0.32047 0.76315 0.41213 0.0
H677 H 0.23027 0.94797 0.2937 0.0
H678 H 0.99964 0.79918 0.30322 0.0
H679 H 0.02238 0.75284 0.31303 0.0
H680 H 0.06998 0.93392 0.28397 0.0
H681 H 0.17664 0.70457 0.41992 0.0
H682 H 0.24661 0.71669 0.41941 0.0
H683 H 1.01763 0.86708 0.2931 0.0
H684 H 0.21426 0.99722 0.27858 0.0
N685 N 0.11283 0.83437 0.3127 0.0
C686 C 0.03143 0.80933 0.30566 0.0
C687 C 0.04416 0.7831 0.31113 0.0
C688 C 0.06001 0.84822 0.30267 0.0
C689 C 0.10101 0.85994 0.30615 0.0
C690 C 0.08517 0.7961 0.31428 0.0
N691 N 0.16937 0.90664 0.30256 0.0
C692 C 0.13029 0.8974 0.30105 0.0
C693 C 0.19034 0.96934 0.28502 0.0
C694 C 0.15035 0.96102 0.28482 0.0
C695 C 0.1993 0.94141 0.29354 0.0
C696 C 0.11964 0.9244 0.29233 0.0
H697 H 0.14344 0.98258 0.278 0.0
O698 O 0.21569 0.8744 0.28092 0.0
O699 O 0.23043 0.8571 0.34094 0.0
O700 O 0.2325 0.90786 0.37455 0.0
O701 O 0.19163 0.9093 0.34159 0.0
O702 O 0.24952 0.90021 0.31354 0.0
O703 O 0.1638 0.8179 0.28628 0.0
O704 O 0.18089 0.83215 0.4195 0.0
O705 O 0.16611 0.84769 0.35945 0.0
O706 O 0.16303 0.796 0.32713 0.0
O707 O 0.20719 0.79735 0.35842 0.0
O708 O 0.14618 0.80554 0.38775 0.0
O709 O 0.23739 0.88543 0.41477 0.0
C710 C 0.26153 0.88465 0.33053 0.0
C711 C 0.07879 0.91349 0.29034 0.0
C712 C 0.049 0.87543 0.2955 0.0
C713 C 0.191 0.84215 0.26999 0.0
C714 C 0.17692 0.84527 0.24408 0.0
C715 C 0.14518 0.85283 0.24151 0.0
C716 C 0.19549 0.84102 0.22168 0.0
C717 C 0.18216 0.84405 0.19681 0.0
C718 C 0.13222 0.85641 0.21704 0.0
C719 C 0.15051 0.8521 0.19484 0.0
C720 C 0.21592 0.92482 0.36151 0.0
C721 C 0.13481 0.82092 0.37022 0.0
C722 C 0.20834 0.8629 0.43073 0.0
C723 C 0.21993 0.85713 0.45677 0.0
C724 C 0.24555 0.84197 0.45998 0.0
C725 C 0.20391 0.86549 0.47874 0.0
C726 C 0.21289 0.85818 0.50384 0.0
C727 C 0.25454 0.83462 0.48478 0.0
C728 C 0.23822 0.84247 0.50659 0.0
C729 C 0.18046 0.77971 0.34018 0.0
H730 H 0.13033 0.85591 0.25837 0.0
H731 H 0.2197 0.83468 0.22365 0.0
H732 H 0.10783 0.86248 0.21527 0.0
H733 H 0.13999 0.85528 0.17608 0.0
H734 H 0.25846 0.83568 0.4434 0.0
H735 H 0.18397 0.87709 0.47628 0.0
H736 H 0.27428 0.82283 0.4871 0.0
H737 H 0.24597 0.8369 0.52564 0.0
Gd738 Gd 0.86202 0.69286 0.71677 0.0
Gd739 Gd 0.83327 0.65099 0.65114 0.0
C740 C 0.7131 0.54153 0.63956 0.0
C741 C 0.73439 0.49577 0.62827 0.0
C742 C 0.78414 0.56214 0.63667 0.0
C743 C 0.75379 0.57036 0.64163 0.0
C744 C 0.77485 0.52503 0.62923 0.0
C745 C 0.70356 0.50398 0.63349 0.0
C746 C 0.68329 0.55156 0.64292 0.0
C747 C 0.69449 0.58981 0.64719 0.0
N748 N 0.76411 0.60702 0.64713 0.0
C749 C 0.7353 0.61743 0.64885 0.0
H750 H 0.74354 0.64684 0.65229 0.0
C751 C 0.85368 0.58583 0.62938 0.0
N752 N 0.82285 0.59114 0.63761 0.0
C753 C 0.84601 0.54948 0.62192 0.0
C754 C 0.80646 0.51881 0.6222 0.0
H755 H 0.8843 0.60946 0.62932 0.0
H756 H 0.67246 0.48136 0.63208 0.0
H757 H 0.95072 0.69409 0.71717 0.0
H758 H 0.65167 0.53024 0.64161 0.0
H759 H 0.67172 0.59802 0.6493 0.0
H760 H 0.72661 0.46694 0.62287 0.0
H761 H 0.81324 0.73559 0.73972 0.0
H762 H 0.04433 0.80762 0.73357 0.0
H763 H 0.02228 0.74005 0.72358 0.0
H764 H 0.97269 0.87411 0.75192 0.0
H765 H 0.87058 0.54513 0.61603 0.0
H766 H 0.80059 0.4907 0.61635 0.0
H767 H 0.02562 0.85777 0.74348 0.0
H768 H 0.82833 0.7993 0.75521 0.0
N769 N 0.93159 0.73498 0.72276 0.0
C770 C 1.01267 0.78748 0.73077 0.0
C771 C 1.00032 0.74936 0.72521 0.0
C772 C 0.98384 0.79886 0.73342 0.0
C773 C 0.94301 0.77151 0.72945 0.0
C774 C 0.95946 0.72328 0.72157 0.0
N775 N 0.87453 0.75272 0.73199 0.0
C776 C 0.91344 0.78074 0.73409 0.0
C777 C 0.85259 0.79457 0.74917 0.0
C778 C 0.89247 0.82441 0.74999 0.0
C779 C 0.84415 0.75853 0.74043 0.0
C780 C 0.92357 0.8175 0.74292 0.0
H781 H 0.89896 0.85225 0.7569 0.0
O782 O 0.82826 0.67625 0.7533 0.0
O783 O 0.81529 0.6467 0.69274 0.0
O784 O 0.8145 0.69549 0.65833 0.0
O785 O 0.85367 0.73511 0.69193 0.0
O786 O 0.7953 0.67116 0.71958 0.0
O787 O 0.87859 0.66696 0.74793 0.0
O788 O 0.86707 0.66899 0.61476 0.0
O789 O 0.87925 0.69723 0.67521 0.0
O790 O 0.88233 0.64935 0.70815 0.0
O791 O 0.84022 0.60888 0.67617 0.0
O792 O 0.90077 0.67563 0.64717 0.0
O793 O 0.81102 0.66927 0.6185 0.0
C794 C 0.78396 0.64474 0.70248 0.0
C795 C 0.96427 0.84555 0.74546 0.0
C796 C 0.99438 0.83624 0.74069 0.0
C797 C 0.85149 0.66534 0.76414 0.0
C798 C 0.86546 0.67974 0.79045 0.0
C799 C 0.89571 0.7179 0.79382 0.0
C800 C 0.8488 0.65538 0.81236 0.0
C801 C 0.86261 0.66911 0.8375 0.0
C802 C 0.90918 0.73177 0.81854 0.0
C803 C 0.89284 0.70769 0.84021 0.0
C804 C 0.83059 0.72807 0.67129 0.0
C805 C 0.91101 0.70098 0.66497 0.0
C806 C 0.84049 0.6746 0.60298 0.0
C807 C 0.82947 0.65863 0.57674 0.0
C808 C 0.8069 0.61888 0.57345 0.0
C809 C 0.84208 0.68314 0.55473 0.0
C810 C 0.83207 0.66789 0.52953 0.0
C811 C 0.79736 0.60358 0.5487 0.0
C812 C 0.80988 0.62776 0.52692 0.0
C813 C 0.86585 0.61664 0.69524 0.0
H814 H 0.90899 0.73699 0.77736 0.0
H815 H 0.82568 0.62575 0.80976 0.0
H816 H 0.93241 0.76136 0.82093 0.0
H817 H 0.90362 0.71949 0.85917 0.0
H818 H 0.79674 0.59962 0.58999 0.0
H819 H 0.85907 0.71391 0.55729 0.0
H820 H 0.7802 0.57281 0.54636 0.0
H821 H 0.80236 0.61489 0.50796 0.0
Gd822 Gd 0.33266 0.15812 0.71774 0.0
Gd823 Gd 0.38031 0.17163 0.65323 0.0
C824 C 0.49475 0.1645 0.6437 0.0
C825 C 0.54454 0.23044 0.63261 0.0
C826 C 0.47457 0.21253 0.64 0.0
C827 C 0.46488 0.17512 0.64526 0.0
C828 C 0.51426 0.2404 0.63292 0.0
C829 C 0.53481 0.19256 0.63803 0.0
C830 C 0.48322 0.1258 0.64705 0.0
C831 C 0.44258 0.09866 0.65078 0.0
N832 N 0.4258 0.14865 0.65031 0.0
C833 C 0.41402 0.11059 0.65199 0.0
H834 H 0.38273 0.08937 0.65506 0.0
C835 C 0.45137 0.25606 0.63162 0.0
N836 N 0.44451 0.22105 0.6402 0.0
C837 C 0.4903 0.28474 0.62455 0.0
C838 C 0.52201 0.27705 0.62556 0.0
H839 H 0.42693 0.26213 0.63102 0.0
H840 H 0.55826 0.18503 0.63703 0.0
H841 H 0.33236 0.24183 0.7165 0.0
H842 H 0.50527 0.11648 0.6461 0.0
H843 H 0.43323 0.06857 0.65286 0.0
H844 H 0.57533 0.25154 0.6275 0.0
H845 H 0.28544 0.06896 0.74176 0.0
H846 H 0.2126 0.21875 0.73159 0.0
H847 H 0.28431 0.26475 0.72195 0.0
H848 H 0.14016 0.08397 0.7506 0.0
H849 H 0.49585 0.31275 0.6184 0.0
H850 H 0.55212 0.29928 0.61999 0.0
H851 H 0.15867 0.15094 0.74144 0.0
H852 H 0.21723 0.02009 0.75679 0.0
N853 N 0.28855 0.18287 0.72228 0.0
C854 C 0.23363 0.20839 0.72918 0.0
C855 C 0.27408 0.23444 0.72381 0.0
C856 C 0.22103 0.16943 0.73209 0.0
C857 C 0.24965 0.15746 0.72869 0.0
C858 C 0.30134 0.2212 0.7207 0.0
N859 N 0.26852 0.1105 0.73255 0.0
C860 C 0.23922 0.11992 0.73382 0.0
C861 C 0.22291 0.04798 0.75021 0.0
C862 C 0.19178 0.05648 0.75015 0.0
C863 C 0.26148 0.07571 0.74172 0.0
C864 C 0.19993 0.09312 0.74246 0.0
H865 H 0.162 0.03507 0.75692 0.0
O866 O 0.34784 0.1426 0.75468 0.0
O867 O 0.3831 0.15925 0.69504 0.0
O868 O 0.33186 0.10939 0.66042 0.0
O869 O 0.28891 0.10803 0.69351 0.0
O870 O 0.35472 0.11576 0.72208 0.0
O871 O 0.35557 0.19917 0.74899 0.0
O872 O 0.36643 0.18711 0.61591 0.0
O873 O 0.32984 0.16967 0.67596 0.0
O874 O 0.37971 0.221 0.70876 0.0
O875 O 0.42391 0.21943 0.67827 0.0
O876 O 0.35516 0.21182 0.64778 0.0
O877 O 0.36299 0.13205 0.62117 0.0
C878 C 0.38386 0.13101 0.70536 0.0
C879 C 0.17064 0.10426 0.7443 0.0
C880 C 0.18119 0.14239 0.73912 0.0
C881 C 0.35656 0.17492 0.76544 0.0
C882 C 0.33812 0.17193 0.79111 0.0
C883 C 0.29792 0.16307 0.79342 0.0
C884 C 0.36071 0.17749 0.81359 0.0
C885 C 0.3432 0.1741 0.83833 0.0
C886 C 0.28022 0.15925 0.81777 0.0
C887 C 0.30256 0.16459 0.8401 0.0
C888 C 0.29699 0.09256 0.67336 0.0
C889 C 0.32686 0.19632 0.66508 0.0
C890 C 0.36069 0.1558 0.60485 0.0
C891 C 0.38036 0.16082 0.57938 0.0
C892 C 0.42191 0.17486 0.5773 0.0
C893 C 0.35747 0.15257 0.55678 0.0
C894 C 0.37607 0.15888 0.53217 0.0
C895 C 0.44054 0.18122 0.55298 0.0
C896 C 0.41787 0.17348 0.53052 0.0
C897 C 0.41508 0.23715 0.69636 0.0
H898 H 0.2802 0.15911 0.77646 0.0
H899 H 0.392 0.18499 0.81173 0.0
H900 H 0.24905 0.1521 0.81934 0.0
H901 H 0.28787 0.16098 0.85876 0.0
H902 H 0.43995 0.18099 0.59438 0.0
H903 H 0.32535 0.14181 0.55836 0.0
H904 H 0.47265 0.19215 0.55154 0.0
H905 H 0.4329 0.17828 0.51185 0.0
Gd906 Gd 0.84924 0.18861 0.65191 0.0
Gd907 Gd 0.87891 0.17364 0.71685 0.0
C908 C 0.99962 0.1795 0.7288 0.0
C909 C 0.9789 0.11348 0.74041 0.0
C910 C 0.9287 0.13204 0.73176 0.0
C911 C 0.95883 0.1693 0.72667 0.0
C912 C 0.93834 0.10389 0.73931 0.0
C913 C 1.00949 0.15121 0.73512 0.0
C914 C 0.0292 0.21799 0.72517 0.0
C915 C 1.0177 0.24535 0.7205 0.0
N916 N 0.9482 0.19596 0.72085 0.0
C917 C 0.97682 0.23386 0.71876 0.0
H918 H 0.96838 0.25528 0.715 0.0
C919 C 0.85919 0.08876 0.73862 0.0
N920 N 0.88986 0.12382 0.73064 0.0
C921 C 0.86723 0.05982 0.74616 0.0
C922 C 0.90694 0.06726 0.74619 0.0
H923 H 0.82844 0.08282 0.73848 0.0
H924 H 0.04067 0.15841 0.73659 0.0
H925 H 0.76161 0.10453 0.65142 0.0
H926 H 0.06088 0.22697 0.72652 0.0
H927 H 0.0403 0.2753 0.71813 0.0
H928 H 0.98694 0.09216 0.74592 0.0
H929 H 0.8962 0.27842 0.62917 0.0
H930 H 0.66611 0.12739 0.6368 0.0
H931 H 0.68961 0.08139 0.64567 0.0
H932 H 0.73512 0.26266 0.61952 0.0
H933 H 0.8428 0.0318 0.75189 0.0
H934 H 0.91308 0.04481 0.75209 0.0
H935 H 0.6833 0.19535 0.62776 0.0
H936 H 0.8795 0.32744 0.61457 0.0
N937 N 0.7794 0.16355 0.64666 0.0
C938 C 0.69793 0.13782 0.63935 0.0
C939 C 0.71109 0.11178 0.64428 0.0
C940 C 0.72613 0.17692 0.63699 0.0
C941 C 0.7672 0.18899 0.6406 0.0
C942 C 0.75216 0.12513 0.64756 0.0
N943 N 0.83539 0.2364 0.6376 0.0
C944 C 0.79619 0.22675 0.63603 0.0
C945 C 0.85576 0.29931 0.62073 0.0
C946 C 0.81563 0.29056 0.62053 0.0
C947 C 0.86511 0.27151 0.62895 0.0
C948 C 0.78516 0.25363 0.62768 0.0
H949 H 0.80842 0.31204 0.61398 0.0
O950 O 0.88266 0.2059 0.61533 0.0
O951 O 0.89684 0.18665 0.67523 0.0
O952 O 0.89736 0.23596 0.70943 0.0
O953 O 0.85646 0.23781 0.67672 0.0
O954 O 0.91617 0.23058 0.64851 0.0
O955 O 0.83121 0.14893 0.61985 0.0
O956 O 0.84541 0.159 0.75326 0.0
O957 O 0.83143 0.17566 0.69348 0.0
O958 O 0.83069 0.12575 0.66012 0.0
O959 O 0.87406 0.1265 0.69179 0.0
O960 O 0.8117 0.1324 0.72095 0.0
O961 O 0.90176 0.21258 0.74933 0.0
C962 C 0.92808 0.2146 0.66526 0.0
C963 C 0.74422 0.24232 0.6256 0.0
C964 C 0.71473 0.204 0.63026 0.0
C965 C 0.8584 0.17395 0.6039 0.0
C966 C 0.84441 0.17775 0.57811 0.0
C967 C 0.81274 0.18547 0.57583 0.0
C968 C 0.86294 0.17392 0.55554 0.0
C969 C 0.84967 0.17758 0.5308 0.0
C970 C 0.79987 0.1897 0.55149 0.0
C971 C 0.81814 0.18584 0.52913 0.0
C972 C 0.88017 0.25283 0.69696 0.0
C973 C 0.80016 0.14804 0.70371 0.0
C974 C 0.87229 0.18965 0.76488 0.0
C975 C 0.88309 0.18368 0.7911 0.0
C976 C 0.90621 0.16596 0.79486 0.0
C977 C 0.8687 0.19448 0.81274 0.0
C978 C 0.87674 0.18702 0.83805 0.0
C979 C 0.91434 0.15854 0.81988 0.0
C980 C 0.89956 0.16878 0.84137 0.0
C981 C 0.84827 0.10943 0.67297 0.0
H982 H 0.79788 0.18817 0.59281 0.0
H983 H 0.88705 0.16741 0.55728 0.0
H984 H 0.77555 0.19591 0.54996 0.0
H985 H 0.80769 0.18954 0.51048 0.0
H986 H 0.91777 0.15768 0.77852 0.0
H987 H 0.85065 0.20803 0.80986 0.0
H988 H 0.93213 0.14476 0.82263 0.0
H989 H 0.90651 0.16298 0.86061 0.0
C990 C 0.33981 0.90949 0.04624 0.0
C991 C 0.33871 0.8759 0.05512 0.0
H992 H 0.37622 0.96645 0.03052 0.0
C993 C 0.37393 0.87343 0.05367 0.0
H994 H 0.31304 0.91207 0.0473 0.0
C995 C 0.41003 0.90462 0.04442 0.0
C996 C 0.4112 0.93826 0.03557 0.0
H997 H 0.37389 0.84801 0.06073 0.0
H998 H 0.43737 0.903 0.04513 0.0
C999 C 0.37575 0.94038 0.03651 0.0
C1000 C 0.16055 0.48748 0.05138 0.0
C1001 C 0.15435 0.45136 0.05952 0.0
H1002 H 0.13318 0.52042 0.03902 0.0
C1003 C 0.115 0.41972 0.0585 0.0
H1004 H 0.19033 0.51252 0.05196 0.0
C1005 C 0.08258 0.42424 0.0511 0.0
C1006 C 0.08832 0.46041 0.04406 0.0
H1007 H 0.10901 0.39134 0.06409 0.0
H1008 H 0.05258 0.39937 0.05148 0.0
C1009 C 0.1278 0.49202 0.04391 0.0
C1010 C 0.56581 0.66683 0.07405 0.0
C1011 C 0.57625 0.69804 0.05706 0.0
H1012 H 0.54961 0.60789 0.07818 0.0
C1013 C 0.57647 0.69214 0.03019 0.0
H1014 H 0.5642 0.66978 0.09479 0.0
C1015 C 0.56712 0.65616 0.02067 0.0
C1016 C 0.55787 0.62555 0.0378 0.0
H1017 H 0.58494 0.71553 0.01649 0.0
H1018 H 0.56868 0.65281 1.00004 0.0
C1019 C 0.55718 0.63121 0.06454 0.0
C1020 C 0.8756 0.32585 1.00201 0.0
C1021 C 0.87391 0.32046 0.975 0.0
H1022 H 0.90587 0.36325 0.03353 0.0
C1023 C 0.90224 0.35079 0.95913 0.0
H1024 H 0.85482 0.30314 0.01498 0.0
C1025 C 0.93201 0.38482 0.96994 0.0
C1026 C 0.93387 0.38997 0.99687 0.0
H1027 H 0.90143 0.34848 0.93824 0.0
H1028 H 0.95326 0.40741 0.95707 0.0
C1029 C 0.90504 0.36034 0.01276 0.0
C1030 C 0.70521 0.58717 0.97867 0.0
C1031 C 0.70995 0.55467 0.97955 0.0
H1032 H 0.6659 0.61012 0.98417 0.0
C1033 C 0.6776 0.52002 0.98934 0.0
H1034 H 0.72955 0.61448 0.97166 0.0
C1035 C 0.64079 0.51755 0.99658 0.0
C1036 C 0.63584 0.54988 0.99465 0.0
H1037 H 0.68004 0.49437 0.9902 0.0
H1038 H 0.61582 0.49006 1.0027 0.0
C1039 C 0.66875 0.58475 0.98598 0.0
C1040 C 0.46782 0.13851 1.00314 0.0
C1041 C 0.4722 0.1483 0.97656 0.0
H1042 H 0.47061 0.1019 0.03264 0.0
C1043 C 0.48543 0.12972 0.95956 0.0
H1044 H 0.45765 0.15236 0.01672 0.0
C1045 C 0.49308 0.10137 0.9687 0.0
C1046 C 0.48729 0.09054 0.99499 0.0
H1047 H 0.49024 0.13736 0.93914 0.0
H1048 H 0.50403 0.08817 0.95517 0.0
C1049 C 0.47533 0.10979 0.0123 0.0
C1050 C 0.68044 0.10896 0.98844 0.0
C1051 C 0.68812 0.14645 0.9927 0.0
H1052 H 0.63566 0.04948 0.98517 0.0
C1053 C 0.65543 0.15268 0.99616 0.0
H1054 H 0.70504 0.1034 0.98543 0.0
C1055 C 0.61582 0.12184 0.99594 0.0
C1056 C 0.60844 0.08425 0.99302 0.0
H1057 H 0.66062 0.18137 0.99927 0.0
H1058 H 0.591 0.12723 0.99845 0.0
C1059 C 0.64091 0.07815 0.98854 0.0
C1060 C 0.92794 0.57363 0.99235 0.0
C1061 C 0.88915 0.54225 0.99717 0.0
H1062 H 0.99145 0.59411 0.98975 0.0
C1063 C 0.88516 0.50596 1.00161 0.0
H1064 H 0.93212 0.60196 0.98883 0.0
C1065 C 0.91933 0.50153 1.00232 0.0
C1066 C 0.95824 0.53342 0.99897 0.0
H1067 H 0.85572 0.48127 1.00542 0.0
H1068 H 0.91534 0.47333 1.00603 0.0
C1069 C 0.96197 0.5692 0.99304 0.0
C1070 C 0.51104 0.3471 0.01194 0.0
C1071 C 0.47441 0.32271 1.00001 0.0
H1072 H 0.55305 0.40426 0.02305 0.0
C1073 C 0.45233 0.33831 0.9889 0.0
H1074 H 0.52891 0.33573 0.02016 0.0
C1075 C 0.46586 0.37755 0.99074 0.0
C1076 C 0.5018 0.4018 1.00361 0.0
H1077 H 0.42432 0.32006 0.97916 0.0
H1078 H 0.44769 0.38861 0.98262 0.0
C1079 C 0.52469 0.38626 0.01362 0.0
C1080 C 0.12808 0.6752 0.05034 0.0
C1081 C 0.16755 0.69082 0.04041 0.0
H1082 H 0.07013 0.62488 0.05558 0.0
C1083 C 0.17975 0.66615 0.02995 0.0
H1084 H 0.11807 0.69362 0.05877 0.0
C1085 C 0.1525 0.62685 0.02831 0.0
C1086 C 0.1123 0.61135 0.0369 0.0
H1087 H 0.21014 0.67746 0.02245 0.0
H1088 H 0.16279 0.60872 0.01977 0.0
C1089 C 0.10069 0.63582 0.0486 0.0
C1090 C 0.381 0.50324 0.03605 0.0
C1091 C 0.34791 0.46654 0.04146 0.0
H1092 H 0.44529 0.53762 0.03042 0.0
C1093 C 0.35539 0.43631 0.04655 0.0
H1094 H 0.3762 0.52711 0.0321 0.0
C1095 C 0.39463 0.44219 0.04522 0.0
C1096 C 0.42749 0.47834 0.03851 0.0
H1097 H 0.33067 0.40777 0.05092 0.0
H1098 H 0.39921 0.41811 0.04888 0.0
C1099 C 0.42044 0.50914 0.03473 0.0
C1100 C 0.5857 0.89716 0.05054 0.0
C1101 C 0.58865 0.8765 0.0297 0.0
H1102 H 0.56971 0.93824 0.06329 0.0
C1103 C 0.5784 0.88277 1.0048 0.0
H1104 H 0.59377 0.89297 0.06987 0.0
C1105 C 0.56486 0.90887 1.00089 0.0
C1106 C 0.56115 0.92912 0.02184 0.0
H1107 H 0.58069 0.86736 0.98837 0.0
H1108 H 0.55689 0.9128 0.98148 0.0
C1109 C 0.57198 0.92309 0.0467 0.0
C1110 C 0.04193 0.21037 0.38815 0.0
C1111 C 1.00662 0.21271 0.38894 0.0
H1112 H 0.10561 0.24011 0.38049 0.0
C1113 C 1.00787 0.24627 0.37986 0.0
H1114 H 0.04174 0.18494 0.39538 0.0
C1115 C 0.04407 0.27728 0.37057 0.0
C1116 C 0.07958 0.27526 0.37025 0.0
H1117 H 0.98101 0.24873 0.38044 0.0
H1118 H 0.04465 0.30335 0.3644 0.0
C1119 C 0.07826 0.24165 0.37932 0.0
C1120 C 0.82802 0.83002 0.3798 0.0
C1121 C 0.82269 0.79427 0.388 0.0
H1122 H 0.79938 0.86173 0.36738 0.0
C1123 C 0.78382 0.76197 0.38684 0.0
H1124 H 0.85746 0.8555 0.38054 0.0
C1125 C 0.75086 0.76552 0.37934 0.0
C1126 C 0.75569 0.80135 0.37235 0.0
H1127 H 0.7786 0.7339 0.3926 0.0
H1128 H 0.72118 0.74022 0.37969 0.0
C1129 C 0.79476 0.83359 0.37223 0.0
C1130 C 0.24322 0.02917 0.36442 0.0
C1131 C 0.24246 0.03431 0.39136 0.0
H1132 H 0.23568 0.99055 0.33379 0.0
C1133 C 0.23107 1.0025 0.40795 0.0
H1134 H 0.25236 0.05303 0.35102 0.0
C1135 C 0.22221 0.96706 0.39802 0.0
C1136 C 0.22361 0.96219 0.37122 0.0
H1137 H 0.22901 0.00489 0.42872 0.0
H1138 H 0.21403 0.94328 0.41136 0.0
C1139 C 0.23363 0.99335 0.35445 0.0
C1140 C 0.56759 0.68813 0.28987 0.0
C1141 C 0.54061 0.65788 0.30633 0.0
H1142 H 0.6175 0.74531 0.28674 0.0
C1143 C 0.54346 0.66389 0.33327 0.0
H1144 H 0.56582 0.68523 0.26902 0.0
C1145 C 0.57279 0.69894 0.34338 0.0
C1146 C 0.60029 0.72855 0.32689 0.0
H1147 H 0.52373 0.64124 0.34664 0.0
H1148 H 0.57464 0.7023 0.3641 0.0
C1149 C 0.59725 0.72277 0.30003 0.0
C1150 C 0.37025 0.92398 0.30994 0.0
C1151 C 0.37475 0.89137 0.31063 0.0
H1152 H 0.33138 0.94726 0.31613 0.0
C1153 C 0.34257 0.85684 0.3207 0.0
H1154 H 0.3945 0.95119 0.30272 0.0
C1155 C 0.30608 0.8546 0.32841 0.0
C1156 C 0.30133 0.88705 0.32672 0.0
H1157 H 0.34489 0.83112 0.32143 0.0
H1158 H 0.28117 0.82719 0.33472 0.0
C1159 C 0.33411 0.92181 0.31778 0.0
C1160 C 0.13583 0.47522 0.33855 0.0
C1161 C 0.14036 0.48515 0.31199 0.0
H1162 H 0.13865 0.43857 0.36802 0.0
C1163 C 0.15415 0.46697 0.29503 0.0
H1164 H 0.12527 0.48879 0.35208 0.0
C1165 C 0.16203 0.43877 0.30418 0.0
C1166 C 0.15594 0.42767 0.33042 0.0
H1167 H 0.1591 0.47472 0.27464 0.0
H1168 H 0.17333 0.42583 0.29067 0.0
C1169 C 0.14356 0.44663 0.3477 0.0
C1170 C 0.34913 0.44517 0.32346 0.0
C1171 C 0.35722 0.48283 0.32751 0.0
H1172 H 0.3039 0.38577 0.32063 0.0
C1173 C 0.32483 0.48941 0.33133 0.0
H1174 H 0.3735 0.43934 0.32018 0.0
C1175 C 0.28511 0.45877 0.33152 0.0
C1176 C 0.27733 0.42106 0.32866 0.0
H1177 H 0.33034 0.51824 0.33427 0.0
H1178 H 0.26051 0.46445 0.3342 0.0
C1179 C 0.30949 0.41456 0.32396 0.0
C1180 C 0.55052 0.84374 0.33186 0.0
C1181 C 0.55394 0.87983 0.32758 0.0
H1182 H 0.58146 0.81178 0.33581 0.0
C1183 C 0.59241 0.91151 0.32247 0.0
H1184 H 0.52131 0.81884 0.33587 0.0
C1185 C 0.62674 0.90757 0.32275 0.0
C1186 C 0.6236 0.87201 0.32857 0.0
H1187 H 0.5961 0.93967 0.31902 0.0
H1188 H 0.65601 0.93269 0.31926 0.0
C1189 C 0.58498 0.83982 0.33218 0.0
C1190 C 0.17767 0.68461 0.34419 0.0
C1191 C 0.14056 0.65979 0.33297 0.0
H1192 H 0.21998 0.74209 0.35444 0.0
C1193 C 0.11789 0.675 0.32216 0.0
H1194 H 0.19594 0.67355 0.35223 0.0
C1195 C 0.13138 0.71429 0.32363 0.0
C1196 C 0.16782 0.73896 0.33583 0.0
H1197 H 0.08942 0.6564 0.31302 0.0
H1198 H 0.11275 0.72506 0.31584 0.0
C1199 C 0.19127 0.72378 0.34549 0.0
C1200 C 0.7949 0.01418 0.38088 0.0
C1201 C 0.83428 0.02989 0.3708 0.0
H1202 H 0.73677 0.96395 0.38572 0.0
C1203 C 0.84612 0.00545 0.3595 0.0
H1204 H 0.78518 0.03241 0.38997 0.0
C1205 C 0.81862 0.96631 0.35726 0.0
C1206 C 0.77853 0.95077 0.36607 0.0
H1207 H 0.87646 0.01683 0.35189 0.0
H1208 H 0.82867 0.94835 0.34816 0.0
C1209 C 0.76724 0.97497 0.37852 0.0
C1210 C 0.02152 0.77563 0.37853 0.0
C1211 C 1.01501 0.80647 0.37346 0.0
H1212 H 0.06432 0.75618 0.38111 0.0
C1213 C 0.04869 0.84291 0.36841 0.0
H1214 H 0.99631 0.74724 0.38258 0.0
C1215 C 0.08778 0.84798 0.3674 0.0
C1216 C 0.09389 0.8166 0.37111 0.0
H1217 H 0.04462 0.86721 0.36444 0.0
H1218 H 0.1131 0.87628 0.36331 0.0
C1219 C 0.06045 0.78069 0.37753 0.0
C1220 C 0.25541 0.23526 0.38636 0.0
C1221 C 0.25791 0.21408 0.3657 0.0
H1222 H 0.2396 0.27658 0.39881 0.0
C1223 C 0.24688 0.21954 0.34083 0.0
H1224 H 0.26398 0.23162 0.40567 0.0
C1225 C 0.23314 0.24545 0.33676 0.0
C1226 C 0.22994 0.26628 0.35753 0.0
H1227 H 0.24873 0.20364 0.32455 0.0
H1228 H 0.22459 0.24878 0.31738 0.0
C1229 C 0.24147 0.26099 0.38236 0.0
C1230 C 0.67556 0.57994 0.72258 0.0
C1231 C 0.67207 0.54348 0.72268 0.0
H1232 H 0.71352 0.64023 0.71551 0.0
C1233 C 0.70461 0.54002 0.71311 0.0
H1234 H 0.65087 0.58355 0.72941 0.0
C1235 C 0.74065 0.57267 0.70513 0.0
C1236 C 0.74449 0.60925 0.70608 0.0
H1237 H 0.70293 0.51236 0.71303 0.0
H1238 H 0.76597 0.56943 0.69931 0.0
C1239 C 0.71131 0.61237 0.71445 0.0
C1240 C 0.44607 0.08543 0.72348 0.0
C1241 C 0.48556 0.11686 0.72448 0.0
H1242 H 0.38373 0.06552 0.71648 0.0
C1243 C 0.49205 0.15306 0.71625 0.0
H1244 H 0.43982 0.05698 0.72912 0.0
C1245 C 0.45949 0.15789 0.70874 0.0
C1246 C 0.41987 0.12649 0.70894 0.0
H1247 H 0.52195 0.17796 0.7168 0.0
H1248 H 0.46511 0.18635 0.70378 0.0
C1249 C 0.41382 0.09024 0.71606 0.0
C1250 C 0.9008 0.35516 0.70227 0.0
C1251 C 0.90211 0.35977 0.72935 0.0
H1252 H 0.89317 0.31791 0.67074 0.0
C1253 C 0.89438 0.32825 0.74532 0.0
H1254 H 0.90708 0.37884 0.6893 0.0
C1255 C 0.88711 0.29371 0.73459 0.0
C1256 C 0.88654 0.28938 0.70761 0.0
H1257 H 0.89396 0.33017 0.76622 0.0
H1258 H 0.88163 0.27019 0.7475 0.0
C1259 C 0.89284 0.32021 0.69153 0.0
C1260 C 0.20956 0.99008 0.66966 0.0
C1261 C 0.20543 0.9847 0.64267 0.0
H1262 H 0.24186 0.02808 0.70055 0.0
C1263 C 0.23084 0.0158 0.62623 0.0
H1264 H 0.19104 0.96683 0.68301 0.0
C1265 C 0.26039 0.05052 0.63638 0.0
C1266 C 0.26487 0.0556 0.66325 0.0
H1267 H 0.22803 0.01345 0.60538 0.0
H1268 H 0.27957 0.07363 0.62309 0.0
C1269 C 0.23879 0.02524 0.67981 0.0
C1270 C 0.03724 0.25471 0.64506 0.0
C1271 C 0.04202 0.22224 0.64554 0.0
H1272 H 0.99802 0.2776 0.65133 0.0
C1273 C 1.00982 0.18748 0.65533 0.0
H1274 H 0.06147 0.28209 0.63806 0.0
C1275 C 0.9731 0.18491 0.66296 0.0
C1276 C 0.96809 0.21725 0.66147 0.0
H1277 H 1.0123 0.16184 0.6559 0.0
H1278 H 0.94825 0.15735 0.66905 0.0
C1279 C 1.00089 0.25221 0.65281 0.0
C1280 C 0.81384 0.79049 0.62366 0.0
C1281 C 0.80886 0.81571 0.63997 0.0
H1282 H 0.82446 0.74332 0.62082 0.0
C1283 C 0.81156 0.81196 0.66696 0.0
H1284 H 0.813 0.79288 0.60279 0.0
C1285 C 0.81912 0.7839 0.67726 0.0
C1286 C 0.82343 0.7585 0.66091 0.0
H1287 H 0.80715 0.83023 0.68026 0.0
H1288 H 0.82045 0.78151 0.698 0.0
C1289 C 0.82065 0.76209 0.63401 0.0
C1290 C 0.99352 0.8055 0.66736 0.0
C1291 C 0.02815 0.80269 0.66281 0.0
H1292 H 0.92911 0.77549 0.6716 0.0
C1293 C 0.02369 0.76642 0.6582 0.0
H1294 H 0.99617 0.83316 0.67085 0.0
C1295 C 0.98552 0.73351 0.65893 0.0
C1296 C 0.95109 0.73611 0.66461 0.0
H1297 H 0.04982 0.76342 0.65446 0.0
H1298 H 0.98297 0.70585 0.65558 0.0
C1299 C 0.95528 0.77252 0.66808 0.0
C1300 C 0.21722 0.17329 0.66678 0.0
C1301 C 0.22144 0.20963 0.66207 0.0
H1302 H 0.24706 0.14038 0.67146 0.0
C1303 C 0.2603 0.24075 0.65699 0.0
H1304 H 0.18773 0.14879 0.6708 0.0
C1305 C 0.29417 0.23605 0.6577 0.0
C1306 C 0.29023 0.20026 0.6639 0.0
H1307 H 0.26467 0.2691 0.65325 0.0
H1308 H 0.32371 0.26078 0.65421 0.0
C1309 C 0.25123 0.1686 0.66751 0.0
C1310 C 0.78986 0.00615 0.6511 0.0
C1311 C 0.81264 0.99104 0.6619 0.0
H1312 H 0.78322 0.0556 0.64608 0.0
C1313 C 0.84867 0.01566 0.67435 0.0
H1314 H 0.76226 0.98773 0.64101 0.0
C1315 C 0.86087 0.05441 0.67703 0.0
C1316 C 0.83716 0.06933 0.66743 0.0
H1317 H 0.86704 0.00473 0.6824 0.0
H1318 H 0.8887 0.07253 0.68697 0.0
C1319 C 0.80197 0.04499 0.65389 0.0
C1320 C 0.51324 0.3321 0.69409 0.0
C1321 C 0.5018 0.35712 0.70492 0.0
H1322 H 0.49522 0.27453 0.6836 0.0
C1323 C 0.46251 0.34191 0.71511 0.0
H1324 H 0.54344 0.34307 0.68634 0.0
C1325 C 0.4346 0.30264 0.71331 0.0
C1326 C 0.44546 0.27784 0.70128 0.0
H1327 H 0.45304 0.36057 0.7238 0.0
H1328 H 0.40422 0.29204 0.72054 0.0
C1329 C 0.48547 0.2929 0.69239 0.0
C1330 C 0.68653 0.10039 0.71183 0.0
C1331 C 0.67909 0.13081 0.70745 0.0
H1332 H 0.73037 0.08215 0.7137 0.0
C1333 C 0.71227 0.16775 0.70284 0.0
H1334 H 0.66176 0.07164 0.71553 0.0
C1335 C 0.75175 0.17374 0.70164 0.0
C1336 C 0.7588 0.14281 0.70469 0.0
H1337 H 0.70752 0.19176 0.69941 0.0
H1338 H 0.77666 0.20241 0.69794 0.0
C1339 C 0.72583 0.10637 0.71062 0.0
C1340 C 0.87078 0.52487 0.69477 0.0
C1341 C 0.90588 0.53539 0.70879 0.0
H1342 H 0.83006 0.54189 0.68006 0.0
C1343 C 0.9262 0.57184 0.71998 0.0
H1344 H 0.85421 0.49664 0.6864 0.0
C1345 C 0.9127 0.59801 0.71617 0.0
C1346 C 0.87849 0.58812 0.70118 0.0
H1347 H 0.95298 0.58034 0.73127 0.0
H1348 H 0.92959 0.62618 0.72453 0.0
C1349 C 0.85717 0.55091 0.69106 0.0
C1350 C 0.51996 0.96119 0.2348 0.0
C1351 C 0.47835 0.93635 0.23836 0.0
H1352 H 0.56757 1.00084 0.20969 0.0
C1353 C 0.45261 0.93223 0.21779 0.0
H1354 H 0.54072 0.9654 0.25021 0.0
C1355 C 0.46809 0.95289 0.19445 0.0
C1356 C 0.50965 0.97839 0.1912 0.0
H1357 H 0.42045 0.91301 0.21971 0.0
H1358 H 0.44741 0.94964 0.17922 0.0
C1359 C 0.53536 0.98187 0.21159 0.0
C1360 C 0.08387 0.50845 0.22259 0.0
C1361 C 0.07818 0.52775 0.24336 0.0
H1362 H 0.06664 0.48646 0.1843 0.0
C1363 C 0.05002 0.54021 0.2408 0.0
H1364 H 0.10561 0.49881 0.2238 0.0
C1365 C 0.02825 0.53372 0.21805 0.0
C1366 C 0.03378 0.51433 0.1973 0.0
H1367 H 0.04446 0.55472 0.2565 0.0
H1368 H 1.00725 0.54422 0.21669 0.0
C1369 C 0.06191 0.50181 0.19981 0.0
C1370 C 0.49924 0.52064 0.23717 0.0
C1371 C 0.50447 0.55769 0.2386 0.0
H1372 H 0.5084 0.48097 0.2147 0.0
C1373 C 0.52181 0.58293 0.21729 0.0
H1374 H 0.48611 0.50068 0.25334 0.0
C1375 C 0.53426 0.57162 0.19518 0.0
C1376 C 0.53012 0.53497 0.19401 0.0
H1377 H 0.52591 0.61156 0.2178 0.0
H1378 H 0.54813 0.59192 0.17925 0.0
C1379 C 0.51224 0.5095 0.21516 0.0
C1380 C 0.96027 0.43112 0.82004 0.0
C1381 C 0.97068 0.45672 0.7989 0.0
H1382 H 0.9748 0.42171 0.85842 0.0
C1383 C 1.00459 0.49353 0.80063 0.0
H1384 H 0.93411 0.40265 0.81926 0.0
C1385 C 0.02802 0.5043 0.82292 0.0
C1386 C 1.01762 0.47867 0.84405 0.0
H1387 H 1.01338 0.51373 0.78456 0.0
H1388 H 0.05414 0.53278 0.82371 0.0
C1389 C 0.98335 0.44208 0.84247 0.0
C1390 C 0.59228 0.50838 0.81497 0.0
C1391 C 0.56763 0.48725 0.79431 0.0
H1392 H 0.59513 0.52978 0.8533 0.0
C1393 C 0.52567 0.47057 0.79727 0.0
H1394 H 0.62469 0.52129 0.81344 0.0
C1395 C 0.50879 0.4751 0.82012 0.0
C1396 C 0.53336 0.49654 0.84068 0.0
H1397 H 0.50575 0.45446 0.78171 0.0
H1398 H 0.47633 0.46171 0.82167 0.0
C1399 C 0.57533 0.51287 0.83792 0.0
C1400 C 0.48844 0.02338 0.79642 0.0
C1401 C 0.52775 0.05465 0.79301 0.0
H1402 H 0.44692 0.97619 0.82015 0.0
C1403 C 0.55615 0.06077 0.81227 0.0
H1404 H 0.46568 0.01701 0.782 0.0
C1405 C 0.54556 0.03626 0.83408 0.0
C1406 C 0.50618 0.005 0.8374 0.0
H1407 H 0.5866 0.08471 0.81067 0.0
H1408 H 0.56853 0.04157 0.84812 0.0
C1409 C 0.47777 0.99931 0.81829 0.0
C1410 C 0.18744 0.29415 0.56982 0.0
C1411 C 0.14589 0.26893 0.57332 0.0
H1412 H 0.23485 0.33464 0.54492 0.0
C1413 C 0.12008 0.26492 0.55281 0.0
H1414 H 0.20825 0.29827 0.58517 0.0
C1415 C 0.13541 0.28605 0.52961 0.0
C1416 C 0.17689 0.31197 0.52645 0.0
H1417 H 0.08797 0.24542 0.55468 0.0
H1418 H 0.11467 0.28287 0.51444 0.0
C1419 C 0.20268 0.31533 0.54676 0.0
C1420 C 0.71809 0.87211 0.57008 0.0
C1421 C 0.74584 0.85906 0.57183 0.0
H1422 H 0.67538 0.8776 0.54685 0.0
C1423 C 0.75039 0.83966 0.55068 0.0
H1424 H 0.71342 0.88671 0.58612 0.0
C1425 C 0.72803 0.83392 0.52818 0.0
C1426 C 0.70057 0.84736 0.52638 0.0
H1427 H 0.77173 0.8295 0.55134 0.0
H1428 H 0.73206 0.81873 0.51226 0.0
C1429 C 0.69587 0.86646 0.54764 0.0
C1430 C 0.18664 0.91334 0.55197 0.0
C1431 C 0.17065 0.88732 0.57299 0.0
H1432 H 0.21217 0.92438 0.51359 0.0
C1433 C 0.16686 0.85092 0.57064 0.0
H1434 H 0.1896 0.94149 0.55317 0.0
C1435 C 0.18003 0.84123 0.54805 0.0
C1436 C 0.19668 0.86753 0.5272 0.0
H1437 H 0.15479 0.83037 0.58656 0.0
H1438 H 0.17738 0.81321 0.54691 0.0
C1439 C 0.19927 0.90346 0.52926 0.0
C1440 C 0.67622 0.83363 0.12792 0.0
C1441 C 0.64196 0.79712 0.12586 0.0
H1442 H 0.7247 0.8726 0.1518 0.0
C1443 C 0.62953 0.77197 0.14739 0.0
H1444 H 0.68658 0.85351 0.1116 0.0
C1445 C 0.65116 0.78296 0.17042 0.0
C1446 C 0.68596 0.81913 0.17227 0.0
H1447 H 0.60303 0.74375 0.1464 0.0
H1448 H 0.64122 0.76281 0.18658 0.0
C1449 C 0.69815 0.84443 0.15084 0.0
C1450 C 0.19206 0.81193 0.12951 0.0
C1451 C 0.23392 0.82778 0.12659 0.0
H1452 H 0.1431 0.80403 0.15391 0.0
C1453 C 0.25886 0.84904 0.14708 0.0
H1454 H 0.17197 0.79573 0.11405 0.0
C1455 C 0.24222 0.85404 0.17003 0.0
C1456 C 0.20032 0.83818 0.17286 0.0
H1457 H 0.2912 0.86134 0.14554 0.0
H1458 H 0.26219 0.87075 0.1854 0.0
C1459 C 0.17551 0.81702 0.15231 0.0
C1460 C 0.22597 0.39651 0.1473 0.0
C1461 C 0.1975 0.38999 0.128 0.0
H1462 H 0.23853 0.37786 0.18332 0.0
C1463 C 0.15832 0.35854 0.13146 0.0
H1464 H 0.25632 0.4206 0.14564 0.0
C1465 C 0.14781 0.3347 0.15344 0.0
C1466 C 0.17626 0.34082 0.17262 0.0
H1467 H 0.13553 0.35187 0.11701 0.0
H1468 H 0.11704 0.31142 0.15534 0.0
C1469 C 0.21554 0.37224 0.16924 0.0
C1470 C 0.85616 0.62538 0.90431 0.0
C1471 C 0.81449 0.60074 0.90786 0.0
H1472 H 0.90387 0.6654 0.87941 0.0
C1473 C 0.78881 0.5973 0.88741 0.0
H1474 H 0.8769 0.62908 0.91961 0.0
C1475 C 0.80435 0.61854 0.86429 0.0
C1476 C 0.84594 0.64392 0.86108 0.0
H1477 H 0.75661 0.57822 0.88927 0.0
H1478 H 0.78365 0.61588 0.84922 0.0
C1479 C 0.87162 0.64658 0.88129 0.0
C1480 C 0.41657 0.17372 0.8874 0.0
C1481 C 0.41128 0.19303 0.90834 0.0
H1482 H 0.3991 0.15229 0.84901 0.0
C1483 C 0.38362 0.20612 0.90593 0.0
H1484 H 0.43792 0.16361 0.88848 0.0
C1485 C 0.36196 0.20025 0.8832 0.0
C1486 C 0.36706 0.18083 0.86229 0.0
H1487 H 0.37835 0.22065 0.92175 0.0
H1488 H 0.34137 0.21124 0.88198 0.0
C1489 C 0.3947 0.16768 0.86464 0.0
C1490 C 0.83059 0.18424 0.90407 0.0
C1491 C 0.83722 0.22176 0.90586 0.0
H1492 H 0.83808 0.14391 0.88122 0.0
C1493 C 0.8556 0.24731 0.88482 0.0
H1494 H 0.81663 0.16402 0.92002 0.0
C1495 C 0.86752 0.23574 0.86257 0.0
C1496 C 0.86186 0.19854 0.86103 0.0
H1497 H 0.86078 0.27631 0.8856 0.0
H1498 H 0.8821 0.2562 0.84681 0.0
C1499 C 0.84308 0.17285 0.88196 0.0
C1500 C 0.29512 0.10477 0.48267 0.0
C1501 C 0.30861 0.13069 0.46155 0.0
H1502 H 0.30573 0.09354 0.52163 0.0
C1503 C 0.34358 0.16656 0.46417 0.0
H1504 H 0.26807 0.07703 0.48125 0.0
C1505 C 0.36524 0.1759 0.4872 0.0
C1506 C 0.35203 0.14977 0.5082 0.0
H1507 H 0.35474 0.187 0.44816 0.0
H1508 H 0.39241 0.20355 0.48859 0.0
C1509 C 0.31647 0.11431 0.50582 0.0
C1510 C 0.92622 0.18329 0.48069 0.0
C1511 C 0.90127 0.16281 0.45998 0.0
H1512 H 0.92961 0.20394 0.51934 0.0
C1513 C 0.85945 0.14717 0.46292 0.0
H1514 H 0.95853 0.1954 0.47915 0.0
C1515 C 0.84294 0.15171 0.48592 0.0
C1516 C 0.86776 0.17216 0.50665 0.0
H1517 H 0.83934 0.13158 0.44731 0.0
H1518 H 0.81054 0.1389 0.4875 0.0
C1519 C 0.90963 0.18778 0.50382 0.0
C1520 C 0.89299 0.74888 0.48049 0.0
C1521 C 0.86599 0.7389 0.45979 0.0
H1522 H 0.90364 0.73459 0.51871 0.0
C1523 C 0.82789 0.70578 0.4625 0.0
H1524 H 0.92245 0.77436 0.47921 0.0
C1525 C 0.81695 0.68342 0.48517 0.0
C1526 C 0.84385 0.69316 0.50587 0.0
H1527 H 0.80641 0.69679 0.44694 0.0
H1528 H 0.78712 0.65843 0.48649 0.0
C1529 C 0.882 0.72635 0.50329 0.0
loop_
_geom_bond_atom_site_label_1
_geom_bond_atom_site_label_2
_geom_bond_distance
_geom_bond_site_symmetry_2
_ccdc_geom_bond_type
H0 C7 0.929 . S
H1 C10 0.930 . S
H2 C12 0.929 . S
H3 C4 0.969 . S
C4 H3 0.969 . S
C4 O5 1.550 . S
C4 H6 0.973 . S
O5 C4 1.550 . S
O5 C11 1.412 . S
H6 C4 0.973 . S
C7 H0 0.929 . S
C7 C8 1.400 . S
C7 C9 1.364 . S
C8 C7 1.400 . S
C8 C12 1.377 . S
C9 C7 1.364 . S
C9 C10 1.374 . S
C10 H1 0.930 . S
C10 C9 1.374 . S
C10 C11 1.383 . S
C11 O5 1.412 . S
C11 C10 1.383 . S
C11 C12 1.394 . S
C12 H2 0.929 . S
C12 C8 1.377 . S
C12 C11 1.394 . S
H13 C20 0.929 . S
H14 C23 0.930 . S
H15 C25 0.929 . S
H16 C17 0.969 . S
C17 H16 0.969 . S
C17 O18 1.550 . S
C17 H19 0.973 . S
O18 C17 1.550 . S
O18 C24 1.412 . S
H19 C17 0.973 . S
C20 H13 0.929 . S
C20 C21 1.400 . S
C20 C22 1.364 . S
C21 C20 1.400 . S
C21 C25 1.377 . S
C22 C20 1.364 . S
C22 C23 1.374 . S
C23 H14 0.930 . S
C23 C22 1.374 . S
C23 C24 1.383 . S
C24 O18 1.412 . S
C24 C23 1.383 . S
C24 C25 1.394 . S
C25 H15 0.929 . S
C25 C21 1.377 . S
C25 C24 1.394 . S
H26 C33 0.929 . S
H27 C36 0.930 . S
H28 C38 0.929 . S
H29 C30 0.969 . S
C30 H29 0.969 . S
C30 O31 1.550 . S
C30 H32 0.973 . S
O31 C30 1.550 . S
O31 C37 1.412 . S
H32 C30 0.973 . S
C33 H26 0.929 . S
C33 C34 1.400 . S
C33 C35 1.364 . S
C34 C33 1.400 . S
C34 C38 1.377 . S
C35 C33 1.364 . S
C35 C36 1.374 . S
C36 H27 0.930 . S
C36 C35 1.374 . S
C36 C37 1.383 . S
C37 O31 1.412 . S
C37 C36 1.383 . S
C37 C38 1.394 . S
C38 H28 0.929 . S
C38 C34 1.377 . S
C38 C37 1.394 . S
H39 C46 0.929 . S
H40 C49 0.930 . S
H41 C51 0.929 . S
H42 C43 0.969 . S
C43 H42 0.969 . S
C43 O44 1.550 . S
C43 H45 0.973 . S
O44 C43 1.550 . S
O44 C50 1.412 . S
H45 C43 0.973 . S
C46 H39 0.929 . S
C46 C47 1.400 . S
C46 C48 1.364 . S
C47 C46 1.400 . S
C47 C51 1.377 . S
C48 C46 1.364 . S
C48 C49 1.374 . S
C49 H40 0.930 . S
C49 C48 1.374 . S
C49 C50 1.383 . S
C50 O44 1.412 . S
C50 C49 1.383 . S
C50 C51 1.394 . S
C51 H41 0.929 . S
C51 C47 1.377 . S
C51 C50 1.394 . S
H52 C59 0.929 . S
H53 C62 0.930 . S
H54 C64 0.929 . S
H55 C56 0.969 . S
C56 H55 0.969 . S
C56 O57 1.550 . S
C56 H58 0.973 . S
O57 C56 1.550 . S
O57 C63 1.412 . S
H58 C56 0.973 . S
C59 H52 0.929 . S
C59 C60 1.400 . S
C59 C61 1.364 . S
C60 C59 1.400 . S
C60 C64 1.377 . S
C61 C59 1.364 . S
C61 C62 1.374 . S
C62 H53 0.930 . S
C62 C61 1.374 . S
C62 C63 1.383 . S
C63 O57 1.412 . S
C63 C62 1.383 . S
C63 C64 1.394 . S
C64 H54 0.929 . S
C64 C60 1.377 . S
C64 C63 1.394 . S
H65 C72 0.929 . S
H66 C75 0.930 . S
H67 C77 0.929 . S
H68 C69 0.969 . S
C69 H68 0.969 . S
C69 O70 1.550 . S
C69 H71 0.973 . S
O70 C69 1.550 . S
O70 C76 1.412 . S
H71 C69 0.973 . S
C72 H65 0.929 . S
C72 C73 1.400 . S
C72 C74 1.364 . S
C73 C72 1.400 . S
C73 C77 1.377 . S
C74 C72 1.364 . S
C74 C75 1.374 . S
C75 H66 0.930 . S
C75 C74 1.374 . S
C75 C76 1.383 . S
C76 O70 1.412 . S
C76 C75 1.383 . S
C76 C77 1.394 . S
C77 H67 0.929 . S
C77 C73 1.377 . S
C77 C76 1.394 . S
H78 C85 0.929 . S
H79 C88 0.930 . S
H80 C90 0.929 . S
H81 C82 0.969 . S
C82 H81 0.969 . S
C82 O83 1.550 . S
C82 H84 0.973 . S
O83 C82 1.550 . S
O83 C89 1.412 . S
H84 C82 0.973 . S
C85 H78 0.929 . S
C85 C86 1.400 . S
C85 C87 1.364 . S
C86 C85 1.400 . S
C86 C90 1.377 . S
C87 C85 1.364 . S
C87 C88 1.374 . S
C88 H79 0.930 . S
C88 C87 1.374 . S
C88 C89 1.383 . S
C89 O83 1.412 . S
C89 C88 1.383 . S
C89 C90 1.394 . S
C90 H80 0.929 . S
C90 C86 1.377 . S
C90 C89 1.394 . S
H91 C98 0.929 . S
H92 C101 0.930 . S
H93 C103 0.929 . S
H94 C95 0.969 . S
C95 H94 0.969 . S
C95 O96 1.550 . S
C95 H97 0.973 . S
O96 C95 1.550 . S
O96 C102 1.412 . S
H97 C95 0.973 . S
C98 H91 0.929 . S
C98 C99 1.400 . S
C98 C100 1.364 . S
C99 C98 1.400 . S
C99 C103 1.377 . S
C100 C98 1.364 . S
C100 C101 1.374 . S
C101 H92 0.930 . S
C101 C100 1.374 . S
C101 C102 1.383 . S
C102 O96 1.412 . S
C102 C101 1.383 . S
C102 C103 1.394 . S
C103 H93 0.929 . S
C103 C99 1.377 . S
C103 C102 1.394 . S
H104 C111 0.929 . S
H105 C114 0.930 . S
H106 C116 0.929 . S
H107 C108 0.969 . S
C108 H107 0.969 . S
C108 O109 1.550 . S
C108 H110 0.973 . S
O109 C108 1.550 . S
O109 C115 1.412 . S
H110 C108 0.973 . S
C111 H104 0.929 . S
C111 C112 1.400 . S
C111 C113 1.364 . S
C112 C111 1.400 . S
C112 C116 1.377 . S
C113 C111 1.364 . S
C113 C114 1.374 . S
C114 H105 0.930 . S
C114 C113 1.374 . S
C114 C115 1.383 . S
C115 O109 1.412 . S
C115 C114 1.383 . S
C115 C116 1.394 . S
C116 H106 0.929 . S
C116 C112 1.377 . S
C116 C115 1.394 . S
H117 C124 0.929 . S
H118 C127 0.930 . S
H119 C129 0.929 . S
H120 C121 0.969 . S
C121 H120 0.969 . S
C121 O122 1.550 . S
C121 H123 0.973 . S
O122 C121 1.550 . S
O122 C128 1.412 . S
H123 C121 0.973 . S
C124 H117 0.929 . S
C124 C125 1.400 . S
C124 C126 1.364 . S
C125 C124 1.400 . S
C125 C129 1.377 . S
C126 C124 1.364 . S
C126 C127 1.374 . S
C127 H118 0.930 . S
C127 C126 1.374 . S
C127 C128 1.383 . S
C128 O122 1.412 . S
C128 C127 1.383 . S
C128 C129 1.394 . S
C129 H119 0.929 . S
C129 C125 1.377 . S
C129 C128 1.394 . S
H130 C137 0.929 . S
H131 C140 0.930 . S
H132 C142 0.929 . S
H133 C134 0.969 . S
C134 H133 0.969 . S
C134 O135 1.550 . S
C134 H136 0.973 . S
O135 C134 1.550 . S
O135 C141 1.412 . S
H136 C134 0.973 . S
C137 H130 0.929 . S
C137 C138 1.400 . S
C137 C139 1.364 . S
C138 C137 1.400 . S
C138 C142 1.377 . S
C139 C137 1.364 . S
C139 C140 1.374 . S
C140 H131 0.930 . S
C140 C139 1.374 . S
C140 C141 1.383 . S
C141 O135 1.412 . S
C141 C140 1.383 . S
C141 C142 1.394 . S
C142 H132 0.929 . S
C142 C138 1.377 . S
C142 C141 1.394 . S
H143 C150 0.929 . S
H144 C153 0.930 . S
H145 C155 0.929 . S
H146 C147 0.969 . S
C147 H146 0.969 . S
C147 O148 1.550 . S
C147 H149 0.973 . S
O148 C147 1.550 . S
O148 C154 1.412 . S
H149 C147 0.973 . S
C150 H143 0.929 . S
C150 C151 1.400 . S
C150 C152 1.364 . S
C151 C150 1.400 . S
C151 C155 1.377 . S
C152 C150 1.364 . S
C152 C153 1.374 . S
C153 H144 0.930 . S
C153 C152 1.374 . S
C153 C154 1.383 . S
C154 O148 1.412 . S
C154 C153 1.383 . S
C154 C155 1.394 . S
C155 H145 0.929 . S
C155 C151 1.377 . S
C155 C154 1.394 . S
H156 C163 0.929 . S
H157 C166 0.930 . S
H158 C168 0.929 . S
H159 C160 0.969 . S
C160 H159 0.969 . S
C160 O161 1.550 . S
C160 H162 0.973 . S
O161 C160 1.550 . S
O161 C167 1.412 . S
H162 C160 0.973 . S
C163 H156 0.929 . S
C163 C164 1.400 . S
C163 C165 1.364 . S
C164 C163 1.400 . S
C164 C168 1.377 . S
C165 C163 1.364 . S
C165 C166 1.374 . S
C166 H157 0.930 . S
C166 C165 1.374 . S
C166 C167 1.383 . S
C167 O161 1.412 . S
C167 C166 1.383 . S
C167 C168 1.394 . S
C168 H158 0.929 . S
C168 C164 1.377 . S
C168 C167 1.394 . S
H169 C176 0.929 . S
H170 C179 0.930 . S
H171 C181 0.929 . S
H172 C173 0.969 . S
C173 H172 0.969 . S
C173 O174 1.550 . S
C173 H175 0.973 . S
O174 C173 1.550 . S
O174 C180 1.412 . S
H175 C173 0.973 . S
C176 H169 0.929 . S
C176 C177 1.400 . S
C176 C178 1.364 . S
C177 C176 1.400 . S
C177 C181 1.377 . S
C178 C176 1.364 . S
C178 C179 1.374 . S
C179 H170 0.930 . S
C179 C178 1.374 . S
C179 C180 1.383 . S
C180 O174 1.412 . S
C180 C179 1.383 . S
C180 C181 1.394 . S
C181 H171 0.929 . S
C181 C177 1.377 . S
C181 C180 1.394 . S
H182 C189 0.929 . S
H183 C192 0.930 . S
H184 C194 0.929 . S
H185 C186 0.969 . S
C186 H185 0.969 . S
C186 O187 1.550 . S
C186 H188 0.973 . S
O187 C186 1.550 . S
O187 C193 1.412 . S
H188 C186 0.973 . S
C189 H182 0.929 . S
C189 C190 1.400 . S
C189 C191 1.364 . S
C190 C189 1.400 . S
C190 C194 1.377 . S
C191 C189 1.364 . S
C191 C192 1.374 . S
C192 H183 0.930 . S
C192 C191 1.374 . S
C192 C193 1.383 . S
C193 O187 1.412 . S
C193 C192 1.383 . S
C193 C194 1.394 . S
C194 H184 0.929 . S
C194 C190 1.377 . S
C194 C193 1.394 . S
H195 C202 0.929 . S
H196 C205 0.930 . S
H197 C207 0.929 . S
H198 C199 0.969 . S
C199 H198 0.969 . S
C199 O200 1.550 . S
C199 H201 0.973 . S
O200 C199 1.550 . S
O200 C206 1.412 . S
H201 C199 0.973 . S
C202 H195 0.929 . S
C202 C203 1.400 . S
C202 C204 1.364 . S
C203 C202 1.400 . S
C203 C207 1.377 . S
C204 C202 1.364 . S
C204 C205 1.374 . S
C205 H196 0.930 . S
C205 C204 1.374 . S
C205 C206 1.383 . S
C206 O200 1.412 . S
C206 C205 1.383 . S
C206 C207 1.394 . S
C207 H197 0.929 . S
C207 C203 1.377 . S
C207 C206 1.394 . S
H208 C215 0.929 . S
H209 C218 0.930 . S
H210 C220 0.929 . S
H211 C212 0.969 . S
C212 H211 0.969 . S
C212 O213 1.550 . S
C212 H214 0.973 . S
O213 C212 1.550 . S
O213 C219 1.412 . S
H214 C212 0.973 . S
C215 H208 0.929 . S
C215 C216 1.400 . S
C215 C217 1.364 . S
C216 C215 1.400 . S
C216 C220 1.377 . S
C217 C215 1.364 . S
C217 C218 1.374 . S
C218 H209 0.930 . S
C218 C217 1.374 . S
C218 C219 1.383 . S
C219 O213 1.412 . S
C219 C218 1.383 . S
C219 C220 1.394 . S
C220 H210 0.929 . S
C220 C216 1.377 . S
C220 C219 1.394 . S
H221 C228 0.929 . S
H222 C231 0.930 . S
H223 C233 0.929 . S
H224 C225 0.969 . S
C225 H224 0.969 . S
C225 O226 1.550 . S
C225 H227 0.973 . S
O226 C225 1.550 . S
O226 C232 1.412 . S
H227 C225 0.973 . S
C228 H221 0.929 . S
C228 C229 1.400 . S
C228 C230 1.364 . S
C229 C228 1.400 . S
C229 C233 1.377 . S
C230 C228 1.364 . S
C230 C231 1.374 . S
C231 H222 0.930 . S
C231 C230 1.374 . S
C231 C232 1.383 . S
C232 O226 1.412 . S
C232 C231 1.383 . S
C232 C233 1.394 . S
C233 H223 0.929 . S
C233 C229 1.377 . S
C233 C232 1.394 . S
Gd234 N265 2.661 . S
Gd234 N271 2.601 . S
Gd234 O278 2.545 . S
Gd234 O279 2.606 1_545 S
Gd234 O281 2.429 . S
Gd234 O282 2.545 1_545 S
Gd234 O283 2.412 1_545 S
Gd234 O285 2.362 . S
Gd234 O286 2.324 1_545 S
Gd234 C293 2.828 . S
Gd235 N244 2.661 . S
Gd235 N248 2.601 . S
Gd235 O279 2.362 1_556 S
Gd235 O280 2.324 1_565 S
Gd235 O284 2.545 . S
Gd235 O285 2.606 1_566 S
Gd235 O287 2.429 . S
Gd235 O288 2.545 1_565 S
Gd235 O289 2.412 1_565 S
Gd235 C302 2.828 . S
C236 C239 1.417 . S
C236 C241 1.431 . S
C236 C242 1.412 . S
C237 C240 1.437 . S
C237 C241 1.317 . S
C237 H256 0.929 . S
C238 C239 1.426 . S
C238 C240 1.413 . S
C238 N248 1.359 . S
C239 C236 1.417 . S
C239 C238 1.426 . S
C239 N244 1.350 . S
C240 C237 1.437 . S
C240 C238 1.413 . S
C240 C250 1.391 . S
C241 C236 1.431 . S
C241 C237 1.317 . S
C241 H252 0.930 . S
C242 C236 1.412 . S
C242 C243 1.355 . S
C242 H254 0.930 . S
C243 C242 1.355 . S
C243 C245 1.402 . S
C243 H255 0.930 . S
N244 Gd235 2.661 . S
N244 C239 1.350 . S
N244 C245 1.307 . S
C245 C243 1.402 . S
C245 N244 1.307 . S
C245 H246 0.930 . S
H246 C245 0.930 . S
C247 N248 1.334 . S
C247 C249 1.394 . S
C247 H251 0.930 . S
N248 Gd235 2.601 . S
N248 C238 1.359 . S
N248 C247 1.334 . S
C249 C247 1.394 . S
C249 C250 1.359 . S
C249 H261 0.930 . S
C250 C240 1.391 . S
C250 C249 1.359 . S
C250 H262 0.929 . S
H251 C247 0.930 . S
H252 C241 0.930 . S
H253 C270 0.930 . S
H254 C242 0.930 . S
H255 C243 0.930 . S
H256 C237 0.929 . S
H257 C275 0.930 . S
H258 C266 0.930 . S
H259 C267 0.930 . S
H260 C291 0.929 . S
H261 C249 0.930 . S
H262 C250 0.929 . S
H263 C292 0.930 . S
H264 C273 0.930 . S
N265 Gd234 2.661 . S
N265 C269 1.350 . S
N265 C270 1.307 . S
C266 H258 0.930 . S
C266 C267 1.355 . S
C266 C268 1.412 . S
C267 H259 0.930 . S
C267 C266 1.355 . S
C267 C270 1.402 . S
C268 C266 1.412 . S
C268 C269 1.417 . S
C268 C292 1.431 . S
C269 N265 1.350 . S
C269 C268 1.417 . S
C269 C272 1.426 . S
C270 H253 0.930 . S
C270 N265 1.307 . S
C270 C267 1.402 . S
N271 Gd234 2.601 . S
N271 C272 1.359 . S
N271 C275 1.334 . S
C272 C269 1.426 . S
C272 N271 1.359 . S
C272 C276 1.413 . S
C273 H264 0.930 . S
C273 C274 1.359 . S
C273 C275 1.394 . S
C274 C273 1.359 . S
C274 C276 1.391 . S
C274 H277 0.929 . S
C275 H257 0.930 . S
C275 N271 1.334 . S
C275 C273 1.394 . S
C276 C272 1.413 . S
C276 C274 1.391 . S
C276 C291 1.437 . S
H277 C274 0.929 . S
O278 Gd234 2.545 . S
O278 C293 1.258 . S
O279 Gd234 2.606 1_565 S
O279 Gd235 2.362 1_554 S
O279 C290 1.284 . S
O280 Gd235 2.324 1_545 S
O280 C300 1.254 . S
O281 Gd234 2.429 . S
O281 C300 1.268 1_554 S
O282 Gd234 2.545 1_565 S
O282 C290 1.250 . S
O283 Gd234 2.412 1_565 S
O283 C293 1.252 1_565 S
O284 Gd235 2.545 . S
O284 C302 1.258 . S
O285 Gd234 2.362 . S
O285 Gd235 2.606 1_544 S
O285 C301 1.284 1_554 S
O286 Gd234 2.324 1_565 S
O286 C309 1.254 . S
O287 Gd235 2.429 . S
O287 C309 1.268 1_556 S
O288 Gd235 2.545 1_545 S
O288 C301 1.250 . S
O289 Gd235 2.412 1_545 S
O289 C302 1.252 1_545 S
C290 O279 1.284 . S
C290 O282 1.250 . S
C291 H260 0.929 . S
C291 C276 1.437 . S
C291 C292 1.317 . S
C292 H263 0.930 . S
C292 C268 1.431 . S
C292 C291 1.317 . S
C293 Gd234 2.828 . S
C293 O278 1.258 . S
C293 O283 1.252 1_545 S
C293 C294 1.501 . S
C294 C293 1.501 . S
C294 C295 1.418 . S
C294 C296 1.352 1_545 S
C295 C294 1.418 . S
C295 C298 1.398 . S
C295 H310 0.930 . S
C296 C294 1.352 1_565 S
C296 C297 1.391 . S
C296 H311 0.930 . S
C297 C296 1.391 . S
C297 C299 1.387 . S
C298 C295 1.398 . S
C298 C299 1.380 1_545 S
C298 H312 0.930 . S
C299 C297 1.387 . S
C299 C298 1.380 1_565 S
C299 H313 0.930 . S
C300 O280 1.254 . S
C300 O281 1.268 1_556 S
C301 O285 1.284 1_556 S
C301 O288 1.250 . S
C302 Gd235 2.828 . S
C302 O284 1.258 . S
C302 O289 1.252 1_565 S
C302 C303 1.497 1_565 S
C303 C302 1.497 1_545 S
C303 C304 1.395 1_545 S
C303 C305 1.380 . S
C304 C303 1.395 1_565 S
C304 C307 1.398 . S
C304 H314 0.930 . S
C305 C303 1.380 . S
C305 C306 1.391 . S
C305 H315 0.930 . S
C306 C305 1.391 . S
C306 C308 1.387 . S
C307 C304 1.398 . S
C307 C308 1.380 1_565 S
C307 H316 0.930 . S
C308 C306 1.387 . S
C308 C307 1.380 1_545 S
C308 H317 0.930 . S
C309 O286 1.254 . S
C309 O287 1.268 1_554 S
H310 C295 0.930 . S
H311 C296 0.930 . S
H312 C298 0.930 . S
H313 C299 0.930 . S
H314 C304 0.930 . S
H315 C305 0.930 . S
H316 C307 0.930 . S
H317 C308 0.930 . S
Gd318 N349 2.661 . S
Gd318 N355 2.601 . S
Gd318 O362 2.545 . S
Gd318 O363 2.606 1_655 S
Gd318 O365 2.429 . S
Gd318 O366 2.545 1_655 S
Gd318 O367 2.412 1_655 S
Gd318 O369 2.362 . S
Gd318 O370 2.324 1_655 S
Gd318 C377 2.828 . S
Gd319 N328 2.661 . S
Gd319 N332 2.601 . S
Gd319 O363 2.362 1_556 S
Gd319 O364 2.324 1_455 S
Gd319 O368 2.545 . S
Gd319 O369 2.606 1_456 S
Gd319 O371 2.429 . S
Gd319 O372 2.545 1_455 S
Gd319 O373 2.412 1_455 S
Gd319 C386 2.828 . S
C320 C323 1.417 . S
C320 C325 1.431 . S
C320 C326 1.412 . S
C321 C324 1.437 . S
C321 C325 1.317 . S
C321 H340 0.929 . S
C322 C323 1.426 . S
C322 C324 1.413 . S
C322 N332 1.359 . S
C323 C320 1.417 . S
C323 C322 1.426 . S
C323 N328 1.350 . S
C324 C321 1.437 . S
C324 C322 1.413 . S
C324 C334 1.391 . S
C325 C320 1.431 . S
C325 C321 1.317 . S
C325 H336 0.930 . S
C326 C320 1.412 . S
C326 C327 1.355 . S
C326 H338 0.930 . S
C327 C326 1.355 . S
C327 C329 1.402 . S
C327 H339 0.930 . S
N328 Gd319 2.661 . S
N328 C323 1.350 . S
N328 C329 1.307 . S
C329 C327 1.402 . S
C329 N328 1.307 . S
C329 H330 0.930 . S
H330 C329 0.930 . S
C331 N332 1.334 . S
C331 C333 1.394 . S
C331 H335 0.930 . S
N332 Gd319 2.601 . S
N332 C322 1.359 . S
N332 C331 1.334 . S
C333 C331 1.394 . S
C333 C334 1.359 . S
C333 H345 0.930 . S
C334 C324 1.391 . S
C334 C333 1.359 . S
C334 H346 0.929 . S
H335 C331 0.930 . S
H336 C325 0.930 . S
H337 C354 0.930 . S
H338 C326 0.930 . S
H339 C327 0.930 . S
H340 C321 0.929 . S
H341 C359 0.930 . S
H342 C350 0.930 . S
H343 C351 0.930 . S
H344 C375 0.929 . S
H345 C333 0.930 . S
H346 C334 0.929 . S
H347 C376 0.930 . S
H348 C357 0.930 . S
N349 Gd318 2.661 . S
N349 C353 1.350 . S
N349 C354 1.307 . S
C350 H342 0.930 . S
C350 C351 1.355 . S
C350 C352 1.412 . S
C351 H343 0.930 . S
C351 C350 1.355 . S
C351 C354 1.402 . S
C352 C350 1.412 . S
C352 C353 1.417 . S
C352 C376 1.431 . S
C353 N349 1.350 . S
C353 C352 1.417 . S
C353 C356 1.426 . S
C354 H337 0.930 . S
C354 N349 1.307 . S
C354 C351 1.402 . S
N355 Gd318 2.601 . S
N355 C356 1.359 . S
N355 C359 1.334 . S
C356 C353 1.426 . S
C356 N355 1.359 . S
C356 C360 1.413 . S
C357 H348 0.930 . S
C357 C358 1.359 . S
C357 C359 1.394 . S
C358 C357 1.359 . S
C358 C360 1.391 . S
C358 H361 0.929 . S
C359 H341 0.930 . S
C359 N355 1.334 . S
C359 C357 1.394 . S
C360 C356 1.413 . S
C360 C358 1.391 . S
C360 C375 1.437 . S
H361 C358 0.929 . S
O362 Gd318 2.545 . S
O362 C377 1.258 . S
O363 Gd318 2.606 1_455 S
O363 Gd319 2.362 1_554 S
O363 C374 1.284 . S
O364 Gd319 2.324 1_655 S
O364 C384 1.254 . S
O365 Gd318 2.429 . S
O365 C384 1.268 1_554 S
O366 Gd318 2.545 1_455 S
O366 C374 1.250 . S
O367 Gd318 2.412 1_455 S
O367 C377 1.252 1_455 S
O368 Gd319 2.545 . S
O368 C386 1.258 . S
O369 Gd318 2.362 . S
O369 Gd319 2.606 1_654 S
O369 C385 1.284 1_554 S
O370 Gd318 2.324 1_455 S
O370 C393 1.254 . S
O371 Gd319 2.429 . S
O371 C393 1.268 1_556 S
O372 Gd319 2.545 1_655 S
O372 C385 1.250 . S
O373 Gd319 2.412 1_655 S
O373 C386 1.252 1_655 S
C374 O363 1.284 . S
C374 O366 1.250 . S
C375 H344 0.929 . S
C375 C360 1.437 . S
C375 C376 1.317 . S
C376 H347 0.930 . S
C376 C352 1.431 . S
C376 C375 1.317 . S
C377 Gd318 2.828 . S
C377 O362 1.258 . S
C377 O367 1.252 1_655 S
C377 C378 1.497 1_655 S
C378 C377 1.497 1_455 S
C378 C379 1.395 1_455 S
C378 C380 1.380 . S
C379 C378 1.395 1_655 S
C379 C382 1.398 . S
C379 H394 0.930 . S
C380 C378 1.380 . S
C380 C381 1.391 . S
C380 H395 0.930 . S
C381 C380 1.391 . S
C381 C383 1.387 . S
C382 C379 1.398 . S
C382 C383 1.380 1_655 S
C382 H396 0.930 . S
C383 C381 1.387 . S
C383 C382 1.380 1_455 S
C383 H397 0.930 . S
C384 O364 1.254 . S
C384 O365 1.268 1_556 S
C385 O369 1.284 1_556 S
C385 O372 1.250 . S
C386 Gd319 2.828 . S
C386 O368 1.258 . S
C386 O373 1.252 1_455 S
C386 C387 1.497 . S
C387 C386 1.497 . S
C387 C388 1.395 . S
C387 C389 1.380 1_455 S
C388 C387 1.395 . S
C388 C391 1.398 . S
C388 H398 0.930 . S
C389 C387 1.380 1_655 S
C389 C390 1.391 . S
C389 H399 0.930 . S
C390 C389 1.391 . S
C390 C392 1.387 . S
C391 C388 1.398 . S
C391 C392 1.380 1_455 S
C391 H400 0.930 . S
C392 C390 1.387 . S
C392 C391 1.380 1_655 S
C392 H401 0.930 . S
C393 O370 1.254 . S
C393 O371 1.268 1_554 S
H394 C379 0.930 . S
H395 C380 0.930 . S
H396 C382 0.930 . S
H397 C383 0.930 . S
H398 C388 0.930 . S
H399 C389 0.930 . S
H400 C391 0.930 . S
H401 C392 0.930 . S
Gd402 N433 2.661 . S
Gd402 N439 2.601 . S
Gd402 O446 2.545 . S
Gd402 O447 2.606 1_556 S
Gd402 O449 2.429 . S
Gd402 O450 2.545 . S
Gd402 O451 2.412 . S
Gd402 O453 2.362 1_556 S
Gd402 O454 2.324 . S
Gd402 C461 2.828 . S
Gd403 N412 2.661 . S
Gd403 N416 2.601 . S
Gd403 O447 2.362 . S
Gd403 O448 2.324 . S
Gd403 O452 2.545 . S
Gd403 O453 2.606 . S
Gd403 O455 2.429 . S
Gd403 O456 2.545 . S
Gd403 O457 2.412 . S
Gd403 C470 2.828 . S
C404 C407 1.417 . S
C404 C409 1.431 . S
C404 C410 1.412 . S
C405 C408 1.437 . S
C405 C409 1.317 . S
C405 H424 0.929 . S
C406 C407 1.426 . S
C406 C408 1.413 . S
C406 N416 1.359 . S
C407 C404 1.417 . S
C407 C406 1.426 . S
C407 N412 1.350 . S
C408 C405 1.437 . S
C408 C406 1.413 . S
C408 C418 1.391 . S
C409 C404 1.431 . S
C409 C405 1.317 . S
C409 H420 0.930 . S
C410 C404 1.412 . S
C410 C411 1.355 . S
C410 H422 0.930 . S
C411 C410 1.355 . S
C411 C413 1.402 . S
C411 H423 0.930 . S
N412 Gd403 2.661 . S
N412 C407 1.350 . S
N412 C413 1.307 . S
C413 C411 1.402 . S
C413 N412 1.307 . S
C413 H414 0.930 . S
H414 C413 0.930 . S
C415 N416 1.334 . S
C415 C417 1.394 . S
C415 H419 0.930 . S
N416 Gd403 2.601 . S
N416 C406 1.359 . S
N416 C415 1.334 . S
C417 C415 1.394 . S
C417 C418 1.359 . S
C417 H429 0.930 . S
C418 C408 1.391 . S
C418 C417 1.359 . S
C418 H430 0.929 . S
H419 C415 0.930 . S
H420 C409 0.930 . S
H421 C438 0.930 . S
H422 C410 0.930 . S
H423 C411 0.930 . S
H424 C405 0.929 . S
H425 C443 0.930 . S
H426 C434 0.930 . S
H427 C435 0.930 . S
H428 C459 0.929 . S
H429 C417 0.930 . S
H430 C418 0.929 . S
H431 C460 0.930 . S
H432 C441 0.930 . S
N433 Gd402 2.661 . S
N433 C437 1.350 . S
N433 C438 1.307 . S
C434 H426 0.930 . S
C434 C435 1.355 . S
C434 C436 1.412 . S
C435 H427 0.930 . S
C435 C434 1.355 . S
C435 C438 1.402 . S
C436 C434 1.412 . S
C436 C437 1.417 . S
C436 C460 1.431 . S
C437 N433 1.350 . S
C437 C436 1.417 . S
C437 C440 1.426 . S
C438 H421 0.930 . S
C438 N433 1.307 . S
C438 C435 1.402 . S
N439 Gd402 2.601 . S
N439 C440 1.359 . S
N439 C443 1.334 . S
C440 C437 1.426 . S
C440 N439 1.359 . S
C440 C444 1.413 . S
C441 H432 0.930 . S
C441 C442 1.359 . S
C441 C443 1.394 . S
C442 C441 1.359 . S
C442 C444 1.391 . S
C442 H445 0.929 . S
C443 H425 0.930 . S
C443 N439 1.334 . S
C443 C441 1.394 . S
C444 C440 1.413 . S
C444 C442 1.391 . S
C444 C459 1.437 . S
H445 C442 0.929 . S
O446 Gd402 2.545 . S
O446 C461 1.258 . S
O447 Gd402 2.606 1_554 S
O447 Gd403 2.362 . S
O447 C458 1.284 1_554 S
O448 Gd403 2.324 . S
O448 C468 1.254 . S
O449 Gd402 2.429 . S
O449 C468 1.268 1_556 S
O450 Gd402 2.545 . S
O450 C458 1.250 . S
O451 Gd402 2.412 . S
O451 C461 1.252 . S
O452 Gd403 2.545 . S
O452 C470 1.258 . S
O453 Gd402 2.362 1_554 S
O453 Gd403 2.606 . S
O453 C469 1.284 . S
O454 Gd402 2.324 . S
O454 C477 1.254 . S
O455 Gd403 2.429 . S
O455 C477 1.268 1_554 S
O456 Gd403 2.545 . S
O456 C469 1.250 . S
O457 Gd403 2.412 . S
O457 C470 1.252 . S
C458 O447 1.284 1_556 S
C458 O450 1.250 . S
C459 H428 0.929 . S
C459 C444 1.437 . S
C459 C460 1.317 . S
C460 H431 0.930 . S
C460 C436 1.431 . S
C460 C459 1.317 . S
C461 Gd402 2.828 . S
C461 O446 1.258 . S
C461 O451 1.252 . S
C461 C462 1.497 . S
C462 C461 1.497 . S
C462 C463 1.395 . S
C462 C464 1.380 . S
C463 C462 1.395 . S
C463 C466 1.398 . S
C463 H478 0.930 . S
C464 C462 1.380 . S
C464 C465 1.391 . S
C464 H479 0.930 . S
C465 C464 1.391 . S
C465 C467 1.387 . S
C466 C463 1.398 . S
C466 C467 1.380 . S
C466 H480 0.930 . S
C467 C465 1.387 . S
C467 C466 1.380 . S
C467 H481 0.930 . S
C468 O448 1.254 . S
C468 O449 1.268 1_554 S
C469 O453 1.284 . S
C469 O456 1.250 . S
C470 Gd403 2.828 . S
C470 O452 1.258 . S
C470 O457 1.252 . S
C470 C471 1.497 . S
C471 C470 1.497 . S
C471 C472 1.395 . S
C471 C473 1.380 . S
C472 C471 1.395 . S
C472 C475 1.398 . S
C472 H482 0.930 . S
C473 C471 1.380 . S
C473 C474 1.391 . S
C473 H483 0.930 . S
C474 C473 1.391 . S
C474 C476 1.387 . S
C475 C472 1.398 . S
C475 C476 1.380 . S
C475 H484 0.930 . S
C476 C474 1.387 . S
C476 C475 1.380 . S
C476 H485 0.930 . S
C477 O454 1.254 . S
C477 O455 1.268 1_556 S
H478 C463 0.930 . S
H479 C464 0.930 . S
H480 C466 0.930 . S
H481 C467 0.930 . S
H482 C472 0.930 . S
H483 C473 0.930 . S
H484 C475 0.930 . S
H485 C476 0.930 . S
Gd486 N517 2.661 . S
Gd486 N523 2.601 . S
Gd486 O530 2.545 . S
Gd486 O531 2.606 . S
Gd486 O533 2.429 . S
Gd486 O534 2.545 . S
Gd486 O535 2.412 . S
Gd486 O537 2.362 . S
Gd486 O538 2.324 . S
Gd486 C545 2.828 . S
Gd487 N496 2.661 . S
Gd487 N500 2.601 . S
Gd487 O531 2.362 . S
Gd487 O532 2.324 . S
Gd487 O536 2.545 . S
Gd487 O537 2.606 . S
Gd487 O539 2.429 . S
Gd487 O540 2.545 . S
Gd487 O541 2.412 . S
Gd487 C554 2.828 . S
C488 C491 1.417 1_655 S
C488 C493 1.431 . S
C488 C494 1.412 . S
C489 C492 1.437 1_655 S
C489 C493 1.317 . S
C489 H508 0.929 . S
C490 C491 1.426 . S
C490 C492 1.413 . S
C490 N500 1.359 . S
C491 C488 1.417 1_455 S
C491 C490 1.426 . S
C491 N496 1.350 . S
C492 C489 1.437 1_455 S
C492 C490 1.413 . S
C492 C502 1.391 . S
C493 C488 1.431 . S
C493 C489 1.317 . S
C493 H504 0.930 . S
C494 C488 1.412 . S
C494 C495 1.355 . S
C494 H506 0.930 . S
C495 C494 1.355 . S
C495 C497 1.402 1_655 S
C495 H507 0.930 . S
N496 Gd487 2.661 . S
N496 C491 1.350 . S
N496 C497 1.307 . S
C497 C495 1.402 1_455 S
C497 N496 1.307 . S
C497 H498 0.930 . S
H498 C497 0.930 . S
C499 N500 1.334 . S
C499 C501 1.394 . S
C499 H503 0.930 . S
N500 Gd487 2.601 . S
N500 C490 1.359 . S
N500 C499 1.334 . S
C501 C499 1.394 . S
C501 C502 1.359 . S
C501 H513 0.930 . S
C502 C492 1.391 . S
C502 C501 1.359 . S
C502 H514 0.929 . S
H503 C499 0.930 . S
H504 C493 0.930 . S
H505 C522 0.930 . S
H506 C494 0.930 . S
H507 C495 0.930 . S
H508 C489 0.929 . S
H509 C527 0.930 . S
H510 C518 0.930 . S
H511 C519 0.930 . S
H512 C543 0.929 . S
H513 C501 0.930 . S
H514 C502 0.929 . S
H515 C544 0.930 . S
H516 C525 0.930 . S
N517 Gd486 2.661 . S
N517 C521 1.350 . S
N517 C522 1.307 . S
C518 H510 0.930 . S
C518 C519 1.355 . S
C518 C520 1.412 . S
C519 H511 0.930 . S
C519 C518 1.355 . S
C519 C522 1.402 . S
C520 C518 1.412 . S
C520 C521 1.417 . S
C520 C544 1.431 . S
C521 N517 1.350 . S
C521 C520 1.417 . S
C521 C524 1.426 . S
C522 H505 0.930 . S
C522 N517 1.307 . S
C522 C519 1.402 . S
N523 Gd486 2.601 . S
N523 C524 1.359 . S
N523 C527 1.334 . S
C524 C521 1.426 . S
C524 N523 1.359 . S
C524 C528 1.413 . S
C525 H516 0.930 . S
C525 C526 1.359 . S
C525 C527 1.394 . S
C526 C525 1.359 . S
C526 C528 1.391 . S
C526 H529 0.929 . S
C527 H509 0.930 . S
C527 N523 1.334 . S
C527 C525 1.394 . S
C528 C524 1.413 . S
C528 C526 1.391 . S
C528 C543 1.437 . S
H529 C526 0.929 . S
O530 Gd486 2.545 . S
O530 C545 1.258 . S
O531 Gd486 2.606 . S
O531 Gd487 2.362 . S
O531 C542 1.284 . S
O532 Gd487 2.324 . S
O532 C552 1.254 . S
O533 Gd486 2.429 . S
O533 C552 1.268 . S
O534 Gd486 2.545 . S
O534 C542 1.250 . S
O535 Gd486 2.412 . S
O535 C545 1.252 . S
O536 Gd487 2.545 . S
O536 C554 1.258 . S
O537 Gd486 2.362 . S
O537 Gd487 2.606 . S
O537 C553 1.284 . S
O538 Gd486 2.324 . S
O538 C561 1.254 . S
O539 Gd487 2.429 . S
O539 C561 1.268 . S
O540 Gd487 2.545 . S
O540 C553 1.250 . S
O541 Gd487 2.412 . S
O541 C554 1.252 . S
C542 O531 1.284 . S
C542 O534 1.250 . S
C543 H512 0.929 . S
C543 C528 1.437 . S
C543 C544 1.317 . S
C544 H515 0.930 . S
C544 C520 1.431 . S
C544 C543 1.317 . S
C545 Gd486 2.828 . S
C545 O530 1.258 . S
C545 O535 1.252 . S
C545 C546 1.497 . S
C546 C545 1.497 . S
C546 C547 1.395 . S
C546 C548 1.380 . S
C547 C546 1.395 . S
C547 C550 1.398 . S
C547 H562 0.930 . S
C548 C546 1.380 . S
C548 C549 1.391 . S
C548 H563 0.930 . S
C549 C548 1.391 . S
C549 C551 1.387 . S
C550 C547 1.398 . S
C550 C551 1.380 . S
C550 H564 0.930 . S
C551 C549 1.387 . S
C551 C550 1.380 . S
C551 H565 0.930 . S
C552 O532 1.254 . S
C552 O533 1.268 . S
C553 O537 1.284 . S
C553 O540 1.250 . S
C554 Gd487 2.828 . S
C554 O536 1.258 . S
C554 O541 1.252 . S
C554 C555 1.497 . S
C555 C554 1.497 . S
C555 C556 1.395 . S
C555 C557 1.380 . S
C556 C555 1.395 . S
C556 C559 1.398 . S
C556 H566 0.930 . S
C557 C555 1.380 . S
C557 C558 1.391 . S
C557 H567 0.930 . S
C558 C557 1.391 . S
C558 C560 1.387 . S
C559 C556 1.398 . S
C559 C560 1.380 . S
C559 H568 0.930 . S
C560 C558 1.387 . S
C560 C559 1.380 . S
C560 H569 0.930 . S
C561 O538 1.254 . S
C561 O539 1.268 . S
H562 C547 0.930 . S
H563 C548 0.930 . S
H564 C550 0.930 . S
H565 C551 0.930 . S
H566 C556 0.930 . S
H567 C557 0.930 . S
H568 C559 0.930 . S
H569 C560 0.930 . S
Gd570 N601 2.661 . S
Gd570 N607 2.601 . S
Gd570 O614 2.545 . S
Gd570 O615 2.606 . S
Gd570 O617 2.429 . S
Gd570 O618 2.545 . S
Gd570 O619 2.412 . S
Gd570 O621 2.362 . S
Gd570 O622 2.324 . S
Gd570 C629 2.828 . S
Gd571 N580 2.661 . S
Gd571 N584 2.601 . S
Gd571 O615 2.362 . S
Gd571 O616 2.324 . S
Gd571 O620 2.545 . S
Gd571 O621 2.606 . S
Gd571 O623 2.429 . S
Gd571 O624 2.545 . S
Gd571 O625 2.412 . S
Gd571 C638 2.828 . S
C572 C575 1.417 . S
C572 C577 1.431 . S
C572 C578 1.412 . S
C573 C576 1.437 . S
C573 C577 1.317 . S
C573 H592 0.929 . S
C574 C575 1.426 . S
C574 C576 1.413 . S
C574 N584 1.359 . S
C575 C572 1.417 . S
C575 C574 1.426 . S
C575 N580 1.350 . S
C576 C573 1.437 . S
C576 C574 1.413 . S
C576 C586 1.391 . S
C577 C572 1.431 . S
C577 C573 1.317 . S
C577 H588 0.930 . S
C578 C572 1.412 . S
C578 C579 1.355 . S
C578 H590 0.930 . S
C579 C578 1.355 . S
C579 C581 1.402 . S
C579 H591 0.930 . S
N580 Gd571 2.661 . S
N580 C575 1.350 . S
N580 C581 1.307 . S
C581 C579 1.402 . S
C581 N580 1.307 . S
C581 H582 0.930 . S
H582 C581 0.930 . S
C583 N584 1.334 . S
C583 C585 1.394 . S
C583 H587 0.930 . S
N584 Gd571 2.601 . S
N584 C574 1.359 . S
N584 C583 1.334 . S
C585 C583 1.394 . S
C585 C586 1.359 . S
C585 H597 0.930 . S
C586 C576 1.391 . S
C586 C585 1.359 . S
C586 H598 0.929 . S
H587 C583 0.930 . S
H588 C577 0.930 . S
H589 C606 0.930 . S
H590 C578 0.930 . S
H591 C579 0.930 . S
H592 C573 0.929 . S
H593 C611 0.930 . S
H594 C602 0.930 . S
H595 C603 0.930 . S
H596 C627 0.929 . S
H597 C585 0.930 . S
H598 C586 0.929 . S
H599 C628 0.930 . S
H600 C609 0.930 . S
N601 Gd570 2.661 . S
N601 C605 1.350 . S
N601 C606 1.307 . S
C602 H594 0.930 . S
C602 C603 1.355 . S
C602 C604 1.412 . S
C603 H595 0.930 . S
C603 C602 1.355 . S
C603 C606 1.402 . S
C604 C602 1.412 . S
C604 C605 1.417 . S
C604 C628 1.431 . S
C605 N601 1.350 . S
C605 C604 1.417 . S
C605 C608 1.426 . S
C606 H589 0.930 . S
C606 N601 1.307 . S
C606 C603 1.402 . S
N607 Gd570 2.601 . S
N607 C608 1.359 . S
N607 C611 1.334 . S
C608 C605 1.426 . S
C608 N607 1.359 . S
C608 C612 1.413 . S
C609 H600 0.930 . S
C609 C610 1.359 . S
C609 C611 1.394 . S
C610 C609 1.359 . S
C610 C612 1.391 . S
C610 H613 0.929 . S
C611 H593 0.930 . S
C611 N607 1.334 . S
C611 C609 1.394 . S
C612 C608 1.413 . S
C612 C610 1.391 . S
C612 C627 1.437 . S
H613 C610 0.929 . S
O614 Gd570 2.545 . S
O614 C629 1.258 . S
O615 Gd570 2.606 . S
O615 Gd571 2.362 . S
O615 C626 1.284 . S
O616 Gd571 2.324 . S
O616 C636 1.254 . S
O617 Gd570 2.429 . S
O617 C636 1.268 . S
O618 Gd570 2.545 . S
O618 C626 1.250 . S
O619 Gd570 2.412 . S
O619 C629 1.252 . S
O620 Gd571 2.545 . S
O620 C638 1.258 . S
O621 Gd570 2.362 . S
O621 Gd571 2.606 . S
O621 C637 1.284 . S
O622 Gd570 2.324 . S
O622 C645 1.254 . S
O623 Gd571 2.429 . S
O623 C645 1.268 . S
O624 Gd571 2.545 . S
O624 C637 1.250 . S
O625 Gd571 2.412 . S
O625 C638 1.252 . S
C626 O615 1.284 . S
C626 O618 1.250 . S
C627 H596 0.929 . S
C627 C612 1.437 . S
C627 C628 1.317 . S
C628 H599 0.930 . S
C628 C604 1.431 . S
C628 C627 1.317 . S
C629 Gd570 2.828 . S
C629 O614 1.258 . S
C629 O619 1.252 . S
C629 C630 1.497 . S
C630 C629 1.497 . S
C630 C631 1.395 . S
C630 C632 1.380 . S
C631 C630 1.395 . S
C631 C634 1.398 . S
C631 H646 0.930 . S
C632 C630 1.380 . S
C632 C633 1.391 . S
C632 H647 0.930 . S
C633 C632 1.391 . S
C633 C635 1.387 . S
C634 C631 1.398 . S
C634 C635 1.380 . S
C634 H648 0.930 . S
C635 C633 1.387 . S
C635 C634 1.380 . S
C635 H649 0.930 . S
C636 O616 1.254 . S
C636 O617 1.268 . S
C637 O621 1.284 . S
C637 O624 1.250 . S
C638 Gd571 2.828 . S
C638 O620 1.258 . S
C638 O625 1.252 . S
C638 C639 1.497 . S
C639 C638 1.497 . S
C639 C640 1.395 . S
C639 C641 1.380 . S
C640 C639 1.395 . S
C640 C643 1.398 . S
C640 H650 0.930 . S
C641 C639 1.380 . S
C641 C642 1.391 . S
C641 H651 0.930 . S
C642 C641 1.391 . S
C642 C644 1.387 . S
C643 C640 1.398 . S
C643 C644 1.380 . S
C643 H652 0.930 . S
C644 C642 1.387 . S
C644 C643 1.380 . S
C644 H653 0.930 . S
C645 O622 1.254 . S
C645 O623 1.268 . S
H646 C631 0.930 . S
H647 C632 0.930 . S
H648 C634 0.930 . S
H649 C635 0.930 . S
H650 C640 0.930 . S
H651 C641 0.930 . S
H652 C643 0.930 . S
H653 C644 0.930 . S
Gd654 N685 2.661 . S
Gd654 N691 2.601 . S
Gd654 O698 2.545 . S
Gd654 O699 2.606 . S
Gd654 O701 2.429 . S
Gd654 O702 2.545 . S
Gd654 O703 2.412 . S
Gd654 O705 2.362 . S
Gd654 O706 2.324 . S
Gd654 C713 2.828 . S
Gd655 N664 2.661 . S
Gd655 N668 2.601 . S
Gd655 O699 2.362 . S
Gd655 O700 2.324 . S
Gd655 O704 2.545 . S
Gd655 O705 2.606 . S
Gd655 O707 2.429 . S
Gd655 O708 2.545 . S
Gd655 O709 2.412 . S
Gd655 C722 2.828 . S
C656 C659 1.417 . S
C656 C661 1.431 . S
C656 C662 1.412 . S
C657 C660 1.437 . S
C657 C661 1.317 . S
C657 H676 0.929 . S
C658 C659 1.426 . S
C658 C660 1.413 . S
C658 N668 1.359 . S
C659 C656 1.417 . S
C659 C658 1.426 . S
C659 N664 1.350 . S
C660 C657 1.437 . S
C660 C658 1.413 . S
C660 C670 1.391 . S
C661 C656 1.431 . S
C661 C657 1.317 . S
C661 H672 0.930 . S
C662 C656 1.412 . S
C662 C663 1.355 . S
C662 H674 0.930 . S
C663 C662 1.355 . S
C663 C665 1.402 . S
C663 H675 0.930 . S
N664 Gd655 2.661 . S
N664 C659 1.350 . S
N664 C665 1.307 . S
C665 C663 1.402 . S
C665 N664 1.307 . S
C665 H666 0.930 . S
H666 C665 0.930 . S
C667 N668 1.334 . S
C667 C669 1.394 . S
C667 H671 0.930 . S
N668 Gd655 2.601 . S
N668 C658 1.359 . S
N668 C667 1.334 . S
C669 C667 1.394 . S
C669 C670 1.359 . S
C669 H681 0.930 . S
C670 C660 1.391 . S
C670 C669 1.359 . S
C670 H682 0.929 . S
H671 C667 0.930 . S
H672 C661 0.930 . S
H673 C690 0.930 . S
H674 C662 0.930 . S
H675 C663 0.930 . S
H676 C657 0.929 . S
H677 C695 0.930 . S
H678 C686 0.930 . S
H679 C687 0.930 . S
H680 C711 0.929 . S
H681 C669 0.930 . S
H682 C670 0.929 . S
H683 C712 0.930 . S
H684 C693 0.930 . S
N685 Gd654 2.661 . S
N685 C689 1.350 . S
N685 C690 1.307 . S
C686 H678 0.930 . S
C686 C687 1.355 . S
C686 C688 1.412 . S
C687 H679 0.930 . S
C687 C686 1.355 . S
C687 C690 1.402 . S
C688 C686 1.412 . S
C688 C689 1.417 . S
C688 C712 1.431 . S
C689 N685 1.350 . S
C689 C688 1.417 . S
C689 C692 1.426 . S
C690 H673 0.930 . S
C690 N685 1.307 . S
C690 C687 1.402 . S
N691 Gd654 2.601 . S
N691 C692 1.359 . S
N691 C695 1.334 . S
C692 C689 1.426 . S
C692 N691 1.359 . S
C692 C696 1.413 . S
C693 H684 0.930 . S
C693 C694 1.359 . S
C693 C695 1.394 . S
C694 C693 1.359 . S
C694 C696 1.391 . S
C694 H697 0.929 . S
C695 H677 0.930 . S
C695 N691 1.334 . S
C695 C693 1.394 . S
C696 C692 1.413 . S
C696 C694 1.391 . S
C696 C711 1.437 . S
H697 C694 0.929 . S
O698 Gd654 2.545 . S
O698 C713 1.258 . S
O699 Gd654 2.606 . S
O699 Gd655 2.362 . S
O699 C710 1.284 . S
O700 Gd655 2.324 . S
O700 C720 1.254 . S
O701 Gd654 2.429 . S
O701 C720 1.268 . S
O702 Gd654 2.545 . S
O702 C710 1.250 . S
O703 Gd654 2.412 . S
O703 C713 1.252 . S
O704 Gd655 2.545 . S
O704 C722 1.258 . S
O705 Gd654 2.362 . S
O705 Gd655 2.606 . S
O705 C721 1.284 . S
O706 Gd654 2.324 . S
O706 C729 1.254 . S
O707 Gd655 2.429 . S
O707 C729 1.268 . S
O708 Gd655 2.545 . S
O708 C721 1.250 . S
O709 Gd655 2.412 . S
O709 C722 1.252 . S
C710 O699 1.284 . S
C710 O702 1.250 . S
C711 H680 0.929 . S
C711 C696 1.437 . S
C711 C712 1.317 . S
C712 H683 0.930 . S
C712 C688 1.431 . S
C712 C711 1.317 . S
C713 Gd654 2.828 . S
C713 O698 1.258 . S
C713 O703 1.252 . S
C713 C714 1.497 . S
C714 C713 1.497 . S
C714 C715 1.395 . S
C714 C716 1.380 . S
C715 C714 1.395 . S
C715 C718 1.398 . S
C715 H730 0.930 . S
C716 C714 1.380 . S
C716 C717 1.391 . S
C716 H731 0.930 . S
C717 C716 1.391 . S
C717 C719 1.387 . S
C718 C715 1.398 . S
C718 C719 1.380 . S
C718 H732 0.930 . S
C719 C717 1.387 . S
C719 C718 1.380 . S
C719 H733 0.930 . S
C720 O700 1.254 . S
C720 O701 1.268 . S
C721 O705 1.284 . S
C721 O708 1.250 . S
C722 Gd655 2.828 . S
C722 O704 1.258 . S
C722 O709 1.252 . S
C722 C723 1.497 . S
C723 C722 1.497 . S
C723 C724 1.395 . S
C723 C725 1.380 . S
C724 C723 1.395 . S
C724 C727 1.398 . S
C724 H734 0.930 . S
C725 C723 1.380 . S
C725 C726 1.391 . S
C725 H735 0.930 . S
C726 C725 1.391 . S
C726 C728 1.387 . S
C727 C724 1.398 . S
C727 C728 1.380 . S
C727 H736 0.930 . S
C728 C726 1.387 . S
C728 C727 1.380 . S
C728 H737 0.930 . S
C729 O706 1.254 . S
C729 O707 1.268 . S
H730 C715 0.930 . S
H731 C716 0.930 . S
H732 C718 0.930 . S
H733 C719 0.930 . S
H734 C724 0.930 . S
H735 C725 0.930 . S
H736 C727 0.930 . S
H737 C728 0.930 . S
Gd738 N769 2.661 . S
Gd738 N775 2.601 . S
Gd738 O782 2.545 . S
Gd738 O783 2.606 . S
Gd738 O785 2.429 . S
Gd738 O786 2.545 . S
Gd738 O787 2.412 . S
Gd738 O789 2.362 . S
Gd738 O790 2.324 . S
Gd738 C797 2.828 . S
Gd739 N748 2.661 . S
Gd739 N752 2.601 . S
Gd739 O783 2.362 . S
Gd739 O784 2.324 . S
Gd739 O788 2.545 . S
Gd739 O789 2.606 . S
Gd739 O791 2.429 . S
Gd739 O792 2.545 . S
Gd739 O793 2.412 . S
Gd739 C806 2.828 . S
C740 C743 1.417 . S
C740 C745 1.431 . S
C740 C746 1.412 . S
C741 C744 1.437 . S
C741 C745 1.317 . S
C741 H760 0.929 . S
C742 C743 1.426 . S
C742 C744 1.413 . S
C742 N752 1.359 . S
C743 C740 1.417 . S
C743 C742 1.426 . S
C743 N748 1.350 . S
C744 C741 1.437 . S
C744 C742 1.413 . S
C744 C754 1.391 . S
C745 C740 1.431 . S
C745 C741 1.317 . S
C745 H756 0.930 . S
C746 C740 1.412 . S
C746 C747 1.355 . S
C746 H758 0.930 . S
C747 C746 1.355 . S
C747 C749 1.402 . S
C747 H759 0.930 . S
N748 Gd739 2.661 . S
N748 C743 1.350 . S
N748 C749 1.307 . S
C749 C747 1.402 . S
C749 N748 1.307 . S
C749 H750 0.930 . S
H750 C749 0.930 . S
C751 N752 1.334 . S
C751 C753 1.394 . S
C751 H755 0.930 . S
N752 Gd739 2.601 . S
N752 C742 1.359 . S
N752 C751 1.334 . S
C753 C751 1.394 . S
C753 C754 1.359 . S
C753 H765 0.930 . S
C754 C744 1.391 . S
C754 C753 1.359 . S
C754 H766 0.929 . S
H755 C751 0.930 . S
H756 C745 0.930 . S
H757 C774 0.930 . S
H758 C746 0.930 . S
H759 C747 0.930 . S
H760 C741 0.929 . S
H761 C779 0.930 . S
H762 C770 0.930 . S
H763 C771 0.930 . S
H764 C795 0.929 . S
H765 C753 0.930 . S
H766 C754 0.929 . S
H767 C796 0.930 . S
H768 C777 0.930 . S
N769 Gd738 2.661 . S
N769 C773 1.350 . S
N769 C774 1.307 . S
C770 H762 0.930 . S
C770 C771 1.355 . S
C770 C772 1.412 . S
C771 H763 0.930 . S
C771 C770 1.355 . S
C771 C774 1.402 . S
C772 C770 1.412 . S
C772 C773 1.417 . S
C772 C796 1.431 . S
C773 N769 1.350 . S
C773 C772 1.417 . S
C773 C776 1.426 . S
C774 H757 0.930 . S
C774 N769 1.307 . S
C774 C771 1.402 . S
N775 Gd738 2.601 . S
N775 C776 1.359 . S
N775 C779 1.334 . S
C776 C773 1.426 . S
C776 N775 1.359 . S
C776 C780 1.413 . S
C777 H768 0.930 . S
C777 C778 1.359 . S
C777 C779 1.394 . S
C778 C777 1.359 . S
C778 C780 1.391 . S
C778 H781 0.929 . S
C779 H761 0.930 . S
C779 N775 1.334 . S
C779 C777 1.394 . S
C780 C776 1.413 . S
C780 C778 1.391 . S
C780 C795 1.437 . S
H781 C778 0.929 . S
O782 Gd738 2.545 . S
O782 C797 1.258 . S
O783 Gd738 2.606 . S
O783 Gd739 2.362 . S
O783 C794 1.284 . S
O784 Gd739 2.324 . S
O784 C804 1.254 . S
O785 Gd738 2.429 . S
O785 C804 1.268 . S
O786 Gd738 2.545 . S
O786 C794 1.250 . S
O787 Gd738 2.412 . S
O787 C797 1.252 . S
O788 Gd739 2.545 . S
O788 C806 1.258 . S
O789 Gd738 2.362 . S
O789 Gd739 2.606 . S
O789 C805 1.284 . S
O790 Gd738 2.324 . S
O790 C813 1.254 . S
O791 Gd739 2.429 . S
O791 C813 1.268 . S
O792 Gd739 2.545 . S
O792 C805 1.250 . S
O793 Gd739 2.412 . S
O793 C806 1.252 . S
C794 O783 1.284 . S
C794 O786 1.250 . S
C795 H764 0.929 . S
C795 C780 1.437 . S
C795 C796 1.317 . S
C796 H767 0.930 . S
C796 C772 1.431 . S
C796 C795 1.317 . S
C797 Gd738 2.828 . S
C797 O782 1.258 . S
C797 O787 1.252 . S
C797 C798 1.497 . S
C798 C797 1.497 . S
C798 C799 1.395 . S
C798 C800 1.380 . S
C799 C798 1.395 . S
C799 C802 1.398 . S
C799 H814 0.930 . S
C800 C798 1.380 . S
C800 C801 1.391 . S
C800 H815 0.930 . S
C801 C800 1.391 . S
C801 C803 1.387 . S
C802 C799 1.398 . S
C802 C803 1.380 . S
C802 H816 0.930 . S
C803 C801 1.387 . S
C803 C802 1.380 . S
C803 H817 0.930 . S
C804 O784 1.254 . S
C804 O785 1.268 . S
C805 O789 1.284 . S
C805 O792 1.250 . S
C806 Gd739 2.828 . S
C806 O788 1.258 . S
C806 O793 1.252 . S
C806 C807 1.497 . S
C807 C806 1.497 . S
C807 C808 1.395 . S
C807 C809 1.380 . S
C808 C807 1.395 . S
C808 C811 1.398 . S
C808 H818 0.930 . S
C809 C807 1.380 . S
C809 C810 1.391 . S
C809 H819 0.930 . S
C810 C809 1.391 . S
C810 C812 1.387 . S
C811 C808 1.398 . S
C811 C812 1.380 . S
C811 H820 0.930 . S
C812 C810 1.387 . S
C812 C811 1.380 . S
C812 H821 0.930 . S
C813 O790 1.254 . S
C813 O791 1.268 . S
H814 C799 0.930 . S
H815 C800 0.930 . S
H816 C802 0.930 . S
H817 C803 0.930 . S
H818 C808 0.930 . S
H819 C809 0.930 . S
H820 C811 0.930 . S
H821 C812 0.930 . S
Gd822 N853 2.661 . S
Gd822 N859 2.601 . S
Gd822 O866 2.545 . S
Gd822 O867 2.606 . S
Gd822 O869 2.429 . S
Gd822 O870 2.545 . S
Gd822 O871 2.412 . S
Gd822 O873 2.362 . S
Gd822 O874 2.324 . S
Gd822 C881 2.828 . S
Gd823 N832 2.661 . S
Gd823 N836 2.601 . S
Gd823 O867 2.362 . S
Gd823 O868 2.324 . S
Gd823 O872 2.545 . S
Gd823 O873 2.606 . S
Gd823 O875 2.429 . S
Gd823 O876 2.545 . S
Gd823 O877 2.412 . S
Gd823 C890 2.828 . S
C824 C827 1.417 . S
C824 C829 1.431 . S
C824 C830 1.412 . S
C825 C828 1.437 . S
C825 C829 1.317 . S
C825 H844 0.929 . S
C826 C827 1.426 . S
C826 C828 1.413 . S
C826 N836 1.359 . S
C827 C824 1.417 . S
C827 C826 1.426 . S
C827 N832 1.350 . S
C828 C825 1.437 . S
C828 C826 1.413 . S
C828 C838 1.391 . S
C829 C824 1.431 . S
C829 C825 1.317 . S
C829 H840 0.930 . S
C830 C824 1.412 . S
C830 C831 1.355 . S
C830 H842 0.930 . S
C831 C830 1.355 . S
C831 C833 1.402 . S
C831 H843 0.930 . S
N832 Gd823 2.661 . S
N832 C827 1.350 . S
N832 C833 1.307 . S
C833 C831 1.402 . S
C833 N832 1.307 . S
C833 H834 0.930 . S
H834 C833 0.930 . S
C835 N836 1.334 . S
C835 C837 1.394 . S
C835 H839 0.930 . S
N836 Gd823 2.601 . S
N836 C826 1.359 . S
N836 C835 1.334 . S
C837 C835 1.394 . S
C837 C838 1.359 . S
C837 H849 0.930 . S
C838 C828 1.391 . S
C838 C837 1.359 . S
C838 H850 0.929 . S
H839 C835 0.930 . S
H840 C829 0.930 . S
H841 C858 0.930 . S
H842 C830 0.930 . S
H843 C831 0.930 . S
H844 C825 0.929 . S
H845 C863 0.930 . S
H846 C854 0.930 . S
H847 C855 0.930 . S
H848 C879 0.929 . S
H849 C837 0.930 . S
H850 C838 0.929 . S
H851 C880 0.930 . S
H852 C861 0.930 . S
N853 Gd822 2.661 . S
N853 C857 1.350 . S
N853 C858 1.307 . S
C854 H846 0.930 . S
C854 C855 1.355 . S
C854 C856 1.412 . S
C855 H847 0.930 . S
C855 C854 1.355 . S
C855 C858 1.402 . S
C856 C854 1.412 . S
C856 C857 1.417 . S
C856 C880 1.431 . S
C857 N853 1.350 . S
C857 C856 1.417 . S
C857 C860 1.426 . S
C858 H841 0.930 . S
C858 N853 1.307 . S
C858 C855 1.402 . S
N859 Gd822 2.601 . S
N859 C860 1.359 . S
N859 C863 1.334 . S
C860 C857 1.426 . S
C860 N859 1.359 . S
C860 C864 1.413 . S
C861 H852 0.930 . S
C861 C862 1.359 . S
C861 C863 1.394 . S
C862 C861 1.359 . S
C862 C864 1.391 . S
C862 H865 0.929 . S
C863 H845 0.930 . S
C863 N859 1.334 . S
C863 C861 1.394 . S
C864 C860 1.413 . S
C864 C862 1.391 . S
C864 C879 1.437 . S
H865 C862 0.929 . S
O866 Gd822 2.545 . S
O866 C881 1.258 . S
O867 Gd822 2.606 . S
O867 Gd823 2.362 . S
O867 C878 1.284 . S
O868 Gd823 2.324 . S
O868 C888 1.254 . S
O869 Gd822 2.429 . S
O869 C888 1.268 . S
O870 Gd822 2.545 . S
O870 C878 1.250 . S
O871 Gd822 2.412 . S
O871 C881 1.252 . S
O872 Gd823 2.545 . S
O872 C890 1.258 . S
O873 Gd822 2.362 . S
O873 Gd823 2.606 . S
O873 C889 1.284 . S
O874 Gd822 2.324 . S
O874 C897 1.254 . S
O875 Gd823 2.429 . S
O875 C897 1.268 . S
O876 Gd823 2.545 . S
O876 C889 1.250 . S
O877 Gd823 2.412 . S
O877 C890 1.252 . S
C878 O867 1.284 . S
C878 O870 1.250 . S
C879 H848 0.929 . S
C879 C864 1.437 . S
C879 C880 1.317 . S
C880 H851 0.930 . S
C880 C856 1.431 . S
C880 C879 1.317 . S
C881 Gd822 2.828 . S
C881 O866 1.258 . S
C881 O871 1.252 . S
C881 C882 1.497 . S
C882 C881 1.497 . S
C882 C883 1.395 . S
C882 C884 1.380 . S
C883 C882 1.395 . S
C883 C886 1.398 . S
C883 H898 0.930 . S
C884 C882 1.380 . S
C884 C885 1.391 . S
C884 H899 0.930 . S
C885 C884 1.391 . S
C885 C887 1.387 . S
C886 C883 1.398 . S
C886 C887 1.380 . S
C886 H900 0.930 . S
C887 C885 1.387 . S
C887 C886 1.380 . S
C887 H901 0.930 . S
C888 O868 1.254 . S
C888 O869 1.268 . S
C889 O873 1.284 . S
C889 O876 1.250 . S
C890 Gd823 2.828 . S
C890 O872 1.258 . S
C890 O877 1.252 . S
C890 C891 1.497 . S
C891 C890 1.497 . S
C891 C892 1.395 . S
C891 C893 1.380 . S
C892 C891 1.395 . S
C892 C895 1.398 . S
C892 H902 0.930 . S
C893 C891 1.380 . S
C893 C894 1.391 . S
C893 H903 0.930 . S
C894 C893 1.391 . S
C894 C896 1.387 . S
C895 C892 1.398 . S
C895 C896 1.380 . S
C895 H904 0.930 . S
C896 C894 1.387 . S
C896 C895 1.380 . S
C896 H905 0.930 . S
C897 O874 1.254 . S
C897 O875 1.268 . S
H898 C883 0.930 . S
H899 C884 0.930 . S
H900 C886 0.930 . S
H901 C887 0.930 . S
H902 C892 0.930 . S
H903 C893 0.930 . S
H904 C895 0.930 . S
H905 C896 0.930 . S
Gd906 N937 2.661 . S
Gd906 N943 2.601 . S
Gd906 O950 2.545 . S
Gd906 O951 2.606 . S
Gd906 O953 2.429 . S
Gd906 O954 2.545 . S
Gd906 O955 2.412 . S
Gd906 O957 2.362 . S
Gd906 O958 2.324 . S
Gd906 C965 2.828 . S
Gd907 N916 2.661 . S
Gd907 N920 2.601 . S
Gd907 O951 2.362 . S
Gd907 O952 2.324 . S
Gd907 O956 2.545 . S
Gd907 O957 2.606 . S
Gd907 O959 2.429 . S
Gd907 O960 2.545 . S
Gd907 O961 2.412 . S
Gd907 C974 2.828 . S
C908 C911 1.417 1_455 S
C908 C913 1.431 . S
C908 C914 1.412 . S
C909 C912 1.437 1_455 S
C909 C913 1.317 . S
C909 H928 0.929 . S
C910 C911 1.426 . S
C910 C912 1.413 . S
C910 N920 1.359 . S
C911 C908 1.417 1_655 S
C911 C910 1.426 . S
C911 N916 1.350 . S
C912 C909 1.437 1_655 S
C912 C910 1.413 . S
C912 C922 1.391 . S
C913 C908 1.431 . S
C913 C909 1.317 . S
C913 H924 0.930 . S
C914 C908 1.412 . S
C914 C915 1.355 . S
C914 H926 0.930 . S
C915 C914 1.355 . S
C915 C917 1.402 1_455 S
C915 H927 0.930 . S
N916 Gd907 2.661 . S
N916 C911 1.350 . S
N916 C917 1.307 . S
C917 C915 1.402 1_655 S
C917 N916 1.307 . S
C917 H918 0.930 . S
H918 C917 0.930 . S
C919 N920 1.334 . S
C919 C921 1.394 . S
C919 H923 0.930 . S
N920 Gd907 2.601 . S
N920 C910 1.359 . S
N920 C919 1.334 . S
C921 C919 1.394 . S
C921 C922 1.359 . S
C921 H933 0.930 . S
C922 C912 1.391 . S
C922 C921 1.359 . S
C922 H934 0.929 . S
H923 C919 0.930 . S
H924 C913 0.930 . S
H925 C942 0.930 . S
H926 C914 0.930 . S
H927 C915 0.930 . S
H928 C909 0.929 . S
H929 C947 0.930 . S
H930 C938 0.930 . S
H931 C939 0.930 . S
H932 C963 0.929 . S
H933 C921 0.930 . S
H934 C922 0.929 . S
H935 C964 0.930 . S
H936 C945 0.930 . S
N937 Gd906 2.661 . S
N937 C941 1.350 . S
N937 C942 1.307 . S
C938 H930 0.930 . S
C938 C939 1.355 . S
C938 C940 1.412 . S
C939 H931 0.930 . S
C939 C938 1.355 . S
C939 C942 1.402 . S
C940 C938 1.412 . S
C940 C941 1.417 . S
C940 C964 1.431 . S
C941 N937 1.350 . S
C941 C940 1.417 . S
C941 C944 1.426 . S
C942 H925 0.930 . S
C942 N937 1.307 . S
C942 C939 1.402 . S
N943 Gd906 2.601 . S
N943 C944 1.359 . S
N943 C947 1.334 . S
C944 C941 1.426 . S
C944 N943 1.359 . S
C944 C948 1.413 . S
C945 H936 0.930 . S
C945 C946 1.359 . S
C945 C947 1.394 . S
C946 C945 1.359 . S
C946 C948 1.391 . S
C946 H949 0.929 . S
C947 H929 0.930 . S
C947 N943 1.334 . S
C947 C945 1.394 . S
C948 C944 1.413 . S
C948 C946 1.391 . S
C948 C963 1.437 . S
H949 C946 0.929 . S
O950 Gd906 2.545 . S
O950 C965 1.258 . S
O951 Gd906 2.606 . S
O951 Gd907 2.362 . S
O951 C962 1.284 . S
O952 Gd907 2.324 . S
O952 C972 1.254 . S
O953 Gd906 2.429 . S
O953 C972 1.268 . S
O954 Gd906 2.545 . S
O954 C962 1.250 . S
O955 Gd906 2.412 . S
O955 C965 1.252 . S
O956 Gd907 2.545 . S
O956 C974 1.258 . S
O957 Gd906 2.362 . S
O957 Gd907 2.606 . S
O957 C973 1.284 . S
O958 Gd906 2.324 . S
O958 C981 1.254 . S
O959 Gd907 2.429 . S
O959 C981 1.268 . S
O960 Gd907 2.545 . S
O960 C973 1.250 . S
O961 Gd907 2.412 . S
O961 C974 1.252 . S
C962 O951 1.284 . S
C962 O954 1.250 . S
C963 H932 0.929 . S
C963 C948 1.437 . S
C963 C964 1.317 . S
C964 H935 0.930 . S
C964 C940 1.431 . S
C964 C963 1.317 . S
C965 Gd906 2.828 . S
C965 O950 1.258 . S
C965 O955 1.252 . S
C965 C966 1.497 . S
C966 C965 1.497 . S
C966 C967 1.395 . S
C966 C968 1.380 . S
C967 C966 1.395 . S
C967 C970 1.398 . S
C967 H982 0.930 . S
C968 C966 1.380 . S
C968 C969 1.391 . S
C968 H983 0.930 . S
C969 C968 1.391 . S
C969 C971 1.387 . S
C970 C967 1.398 . S
C970 C971 1.380 . S
C970 H984 0.930 . S
C971 C969 1.387 . S
C971 C970 1.380 . S
C971 H985 0.930 . S
C972 O952 1.254 . S
C972 O953 1.268 . S
C973 O957 1.284 . S
C973 O960 1.250 . S
C974 Gd907 2.828 . S
C974 O956 1.258 . S
C974 O961 1.252 . S
C974 C975 1.497 . S
C975 C974 1.497 . S
C975 C976 1.395 . S
C975 C977 1.380 . S
C976 C975 1.395 . S
C976 C979 1.398 . S
C976 H986 0.930 . S
C977 C975 1.380 . S
C977 C978 1.391 . S
C977 H987 0.930 . S
C978 C977 1.391 . S
C978 C980 1.387 . S
C979 C976 1.398 . S
C979 C980 1.380 . S
C979 H988 0.930 . S
C980 C978 1.387 . S
C980 C979 1.380 . S
C980 H989 0.930 . S
C981 O958 1.254 . S
C981 O959 1.268 . S
H982 C967 0.930 . S
H983 C968 0.930 . S
H984 C970 0.930 . S
H985 C971 0.930 . S
H986 C976 0.930 . S
H987 C977 0.930 . S
H988 C979 0.930 . S
H989 C980 0.930 . S
C990 C991 1.387 . S
C990 H994 0.950 . S
C990 C999 1.390 . S
C991 C990 1.387 . S
C991 C993 1.387 . S
H992 C999 0.950 . S
C993 C991 1.387 . S
C993 C995 1.390 . S
C993 H997 0.950 . S
H994 C990 0.950 . S
C995 C993 1.390 . S
C995 C996 1.387 . S
C995 H998 0.950 1_554 S
C996 C995 1.387 . S
C996 C999 1.387 . S
H997 C993 0.950 . S
H998 C995 0.950 1_556 S
C999 C990 1.390 . S
C999 H992 0.950 . S
C999 C996 1.387 . S
C1000 C1001 1.387 . S
C1000 H1004 0.950 . S
C1000 C1009 1.390 . S
C1001 C1000 1.387 . S
C1001 C1003 1.387 . S
H1002 C1009 0.950 . S
C1003 C1001 1.387 . S
C1003 C1005 1.390 . S
C1003 H1007 0.950 . S
H1004 C1000 0.950 . S
C1005 C1003 1.390 . S
C1005 C1006 1.387 . S
C1005 H1008 0.950 . S
C1006 C1005 1.387 . S
C1006 C1009 1.387 . S
H1007 C1003 0.950 . S
H1008 C1005 0.950 . S
C1009 C1000 1.390 . S
C1009 H1002 0.950 . S
C1009 C1006 1.387 . S
C1010 C1011 1.387 . S
C1010 H1014 0.950 . S
C1010 C1019 1.390 . S
C1011 C1010 1.387 . S
C1011 C1013 1.387 . S
H1012 C1019 0.950 . S
C1013 C1011 1.387 . S
C1013 C1015 1.390 . S
C1013 H1017 0.950 . S
H1014 C1010 0.950 . S
C1015 C1013 1.390 . S
C1015 C1016 1.387 . S
C1015 H1018 0.950 1_554 S
C1016 C1015 1.387 . S
C1016 C1019 1.387 . S
H1017 C1013 0.950 . S
H1018 C1015 0.950 1_556 S
C1019 C1010 1.390 . S
C1019 H1012 0.950 . S
C1019 C1016 1.387 . S
C1020 C1021 1.387 . S
C1020 H1024 0.950 1_556 S
C1020 C1029 1.390 1_556 S
C1021 C1020 1.387 . S
C1021 C1023 1.387 . S
H1022 C1029 0.950 . S
C1023 C1021 1.387 . S
C1023 C1025 1.390 . S
C1023 H1027 0.950 . S
H1024 C1020 0.950 1_554 S
C1025 C1023 1.390 . S
C1025 C1026 1.387 . S
C1025 H1028 0.950 . S
C1026 C1025 1.387 . S
C1026 C1029 1.387 1_556 S
H1027 C1023 0.950 . S
H1028 C1025 0.950 . S
C1029 C1020 1.390 1_554 S
C1029 H1022 0.950 . S
C1029 C1026 1.387 1_554 S
C1030 C1031 1.387 . S
C1030 H1034 0.950 . S
C1030 C1039 1.390 . S
C1031 C1030 1.387 . S
C1031 C1033 1.387 . S
H1032 C1039 0.950 . S
C1033 C1031 1.387 . S
C1033 C1035 1.390 . S
C1033 H1037 0.950 . S
H1034 C1030 0.950 . S
C1035 C1033 1.390 . S
C1035 C1036 1.387 . S
C1035 H1038 0.950 . S
C1036 C1035 1.387 . S
C1036 C1039 1.387 . S
H1037 C1033 0.950 . S
H1038 C1035 0.950 . S
C1039 C1030 1.390 . S
C1039 H1032 0.950 . S
C1039 C1036 1.387 . S
C1040 C1041 1.387 . S
C1040 H1044 0.950 1_556 S
C1040 C1049 1.390 1_556 S
C1041 C1040 1.387 . S
C1041 C1043 1.387 . S
H1042 C1049 0.950 . S
C1043 C1041 1.387 . S
C1043 C1045 1.390 . S
C1043 H1047 0.950 . S
H1044 C1040 0.950 1_554 S
C1045 C1043 1.390 . S
C1045 C1046 1.387 . S
C1045 H1048 0.950 . S
C1046 C1045 1.387 . S
C1046 C1049 1.387 1_556 S
H1047 C1043 0.950 . S
H1048 C1045 0.950 . S
C1049 C1040 1.390 1_554 S
C1049 H1042 0.950 . S
C1049 C1046 1.387 1_554 S
C1050 C1051 1.387 . S
C1050 H1054 0.950 . S
C1050 C1059 1.390 . S
C1051 C1050 1.387 . S
C1051 C1053 1.387 . S
H1052 C1059 0.950 . S
C1053 C1051 1.387 . S
C1053 C1055 1.390 . S
C1053 H1057 0.950 . S
H1054 C1050 0.950 . S
C1055 C1053 1.390 . S
C1055 C1056 1.387 . S
C1055 H1058 0.950 1_556 S
C1056 C1055 1.387 . S
C1056 C1059 1.387 . S
H1057 C1053 0.950 . S
H1058 C1055 0.950 1_554 S
C1059 C1050 1.390 . S
C1059 H1052 0.950 . S
C1059 C1056 1.387 . S
C1060 C1061 1.387 . S
C1060 H1064 0.950 1_556 S
C1060 C1069 1.381 1_556 S
C1061 C1060 1.387 . S
C1061 C1063 1.387 . S
H1062 C1069 0.986 . S
C1063 C1061 1.387 . S
C1063 C1065 1.390 . S
C1063 H1067 0.950 . S
H1064 C1060 0.950 1_554 S
C1065 C1063 1.390 . S
C1065 C1066 1.387 . S
C1065 H1068 0.950 . S
C1066 C1065 1.387 . S
C1066 C1069 1.362 1_556 S
H1067 C1063 0.950 . S
H1068 C1065 0.950 . S
C1069 C1060 1.381 1_554 S
C1069 H1062 0.986 . S
C1069 C1066 1.362 1_554 S
C1070 C1071 1.387 1_554 S
C1070 H1074 0.950 . S
C1070 C1079 1.390 . S
C1071 C1070 1.387 1_556 S
C1071 C1073 1.387 . S
H1072 C1079 0.950 . S
C1073 C1071 1.387 . S
C1073 C1075 1.390 . S
C1073 H1077 0.950 . S
H1074 C1070 0.950 . S
C1075 C1073 1.390 . S
C1075 C1076 1.387 . S
C1075 H1078 0.950 . S
C1076 C1075 1.387 . S
C1076 C1079 1.387 1_556 S
H1077 C1073 0.950 . S
H1078 C1075 0.950 . S
C1079 C1070 1.390 . S
C1079 H1072 0.950 . S
C1079 C1076 1.387 1_554 S
C1080 C1081 1.387 . S
C1080 H1084 0.950 . S
C1080 C1089 1.390 . S
C1081 C1080 1.387 . S
C1081 C1083 1.387 . S
H1082 C1089 0.950 . S
C1083 C1081 1.387 . S
C1083 C1085 1.390 . S
C1083 H1087 0.950 . S
H1084 C1080 0.950 . S
C1085 C1083 1.390 . S
C1085 C1086 1.387 . S
C1085 H1088 0.950 . S
C1086 C1085 1.387 . S
C1086 C1089 1.387 . S
H1087 C1083 0.950 . S
H1088 C1085 0.950 . S
C1089 C1080 1.390 . S
C1089 H1082 0.950 . S
C1089 C1086 1.387 . S
C1090 C1091 1.387 . S
C1090 H1094 0.950 . S
C1090 C1099 1.390 . S
C1091 C1090 1.387 . S
C1091 C1093 1.387 . S
H1092 C1099 0.950 . S
C1093 C1091 1.387 . S
C1093 C1095 1.390 . S
C1093 H1097 0.950 . S
H1094 C1090 0.950 . S
C1095 C1093 1.390 . S
C1095 C1096 1.387 . S
C1095 H1098 0.950 . S
C1096 C1095 1.387 . S
C1096 C1099 1.387 . S
H1097 C1093 0.950 . S
H1098 C1095 0.950 . S
C1099 C1090 1.390 . S
C1099 H1092 0.950 . S
C1099 C1096 1.387 . S
C1100 C1101 1.387 . S
C1100 H1104 0.950 . S
C1100 C1109 1.390 . S
C1101 C1100 1.387 . S
C1101 C1103 1.387 . S
H1102 C1109 0.950 . S
C1103 C1101 1.387 . S
C1103 C1105 1.390 . S
C1103 H1107 0.950 1_554 S
H1104 C1100 0.950 . S
C1105 C1103 1.390 . S
C1105 C1106 1.387 . S
C1105 H1108 0.950 1_554 S
C1106 C1105 1.387 . S
C1106 C1109 1.387 . S
H1107 C1103 0.950 1_556 S
H1108 C1105 0.950 1_556 S
C1109 C1100 1.390 . S
C1109 H1102 0.950 . S
C1109 C1106 1.387 . S
C1110 C1111 1.387 . S
C1110 H1114 0.950 . S
C1110 C1119 1.390 1_655 S
C1111 C1110 1.387 . S
C1111 C1113 1.387 . S
H1112 C1119 0.950 . S
C1113 C1111 1.387 . S
C1113 C1115 1.390 1_655 S
C1113 H1117 0.950 . S
H1114 C1110 0.950 . S
C1115 C1113 1.390 1_455 S
C1115 C1116 1.387 . S
C1115 H1118 0.950 . S
C1116 C1115 1.387 . S
C1116 C1119 1.387 . S
H1117 C1113 0.950 . S
H1118 C1115 0.950 . S
C1119 C1110 1.390 1_455 S
C1119 H1112 0.950 . S
C1119 C1116 1.387 . S
C1120 C1121 1.387 . S
C1120 H1124 0.950 . S
C1120 C1129 1.390 . S
C1121 C1120 1.387 . S
C1121 C1123 1.387 . S
H1122 C1129 0.950 . S
C1123 C1121 1.387 . S
C1123 C1125 1.390 . S
C1123 H1127 0.950 . S
H1124 C1120 0.950 . S
C1125 C1123 1.390 . S
C1125 C1126 1.387 . S
C1125 H1128 0.950 . S
C1126 C1125 1.387 . S
C1126 C1129 1.387 . S
H1127 C1123 0.950 . S
H1128 C1125 0.950 . S
C1129 C1120 1.390 . S
C1129 H1122 0.950 . S
C1129 C1126 1.387 . S
C1130 C1131 1.387 . S
C1130 H1134 0.950 . S
C1130 C1139 1.390 . S
C1131 C1130 1.387 . S
C1131 C1133 1.387 . S
H1132 C1139 0.950 . S
C1133 C1131 1.387 . S
C1133 C1135 1.390 1_545 S
C1133 H1137 0.950 . S
H1134 C1130 0.950 . S
C1135 C1133 1.390 1_565 S
C1135 C1136 1.387 . S
C1135 H1138 0.950 . S
C1136 C1135 1.387 . S
C1136 C1139 1.387 1_565 S
H1137 C1133 0.950 . S
H1138 C1135 0.950 . S
C1139 C1130 1.390 . S
C1139 H1132 0.950 . S
C1139 C1136 1.387 1_545 S
C1140 C1141 1.387 . S
C1140 H1144 0.950 . S
C1140 C1149 1.390 . S
C1141 C1140 1.387 . S
C1141 C1143 1.387 . S
H1142 C1149 0.950 . S
C1143 C1141 1.387 . S
C1143 C1145 1.390 . S
C1143 H1147 0.950 . S
H1144 C1140 0.950 . S
C1145 C1143 1.390 . S
C1145 C1146 1.387 . S
C1145 H1148 0.950 . S
C1146 C1145 1.387 . S
C1146 C1149 1.387 . S
H1147 C1143 0.950 . S
H1148 C1145 0.950 . S
C1149 C1140 1.390 . S
C1149 H1142 0.950 . S
C1149 C1146 1.387 . S
C1150 C1151 1.387 . S
C1150 H1154 0.950 . S
C1150 C1159 1.390 . S
C1151 C1150 1.387 . S
C1151 C1153 1.387 . S
H1152 C1159 0.950 . S
C1153 C1151 1.387 . S
C1153 C1155 1.390 . S
C1153 H1157 0.950 . S
H1154 C1150 0.950 . S
C1155 C1153 1.390 . S
C1155 C1156 1.387 . S
C1155 H1158 0.950 . S
C1156 C1155 1.387 . S
C1156 C1159 1.387 . S
H1157 C1153 0.950 . S
H1158 C1155 0.950 . S
C1159 C1150 1.390 . S
C1159 H1152 0.950 . S
C1159 C1156 1.387 . S
C1160 C1161 1.387 . S
C1160 H1164 0.950 . S
C1160 C1169 1.390 . S
C1161 C1160 1.387 . S
C1161 C1163 1.387 . S
H1162 C1169 0.950 . S
C1163 C1161 1.387 . S
C1163 C1165 1.390 . S
C1163 H1167 0.950 . S
H1164 C1160 0.950 . S
C1165 C1163 1.390 . S
C1165 C1166 1.387 . S
C1165 H1168 0.950 . S
C1166 C1165 1.387 . S
C1166 C1169 1.387 . S
H1167 C1163 0.950 . S
H1168 C1165 0.950 . S
C1169 C1160 1.390 . S
C1169 H1162 0.950 . S
C1169 C1166 1.387 . S
C1170 C1171 1.387 . S
C1170 H1174 0.950 . S
C1170 C1179 1.390 . S
C1171 C1170 1.387 . S
C1171 C1173 1.387 . S
H1172 C1179 0.950 . S
C1173 C1171 1.387 . S
C1173 C1175 1.390 . S
C1173 H1177 0.950 . S
H1174 C1170 0.950 . S
C1175 C1173 1.390 . S
C1175 C1176 1.387 . S
C1175 H1178 0.950 . S
C1176 C1175 1.387 . S
C1176 C1179 1.387 . S
H1177 C1173 0.950 . S
H1178 C1175 0.950 . S
C1179 C1170 1.390 . S
C1179 H1172 0.950 . S
C1179 C1176 1.387 . S
C1180 C1181 1.387 . S
C1180 H1184 0.950 . S
C1180 C1189 1.390 . S
C1181 C1180 1.387 . S
C1181 C1183 1.387 . S
H1182 C1189 0.950 . S
C1183 C1181 1.387 . S
C1183 C1185 1.390 . S
C1183 H1187 0.950 . S
H1184 C1180 0.950 . S
C1185 C1183 1.390 . S
C1185 C1186 1.387 . S
C1185 H1188 0.950 . S
C1186 C1185 1.387 . S
C1186 C1189 1.387 . S
H1187 C1183 0.950 . S
H1188 C1185 0.950 . S
C1189 C1180 1.390 . S
C1189 H1182 0.950 . S
C1189 C1186 1.387 . S
C1190 C1191 1.387 . S
C1190 H1194 0.950 . S
C1190 C1199 1.390 . S
C1191 C1190 1.387 . S
C1191 C1193 1.387 . S
H1192 C1199 0.950 . S
C1193 C1191 1.387 . S
C1193 C1195 1.390 . S
C1193 H1197 0.950 . S
H1194 C1190 0.950 . S
C1195 C1193 1.390 . S
C1195 C1196 1.387 . S
C1195 H1198 0.950 . S
C1196 C1195 1.387 . S
C1196 C1199 1.387 . S
H1197 C1193 0.950 . S
H1198 C1195 0.950 . S
C1199 C1190 1.390 . S
C1199 H1192 0.950 . S
C1199 C1196 1.387 . S
C1200 C1201 1.387 . S
C1200 H1204 0.950 . S
C1200 C1209 1.390 . S
C1201 C1200 1.387 . S
C1201 C1203 1.387 . S
H1202 C1209 0.950 . S
C1203 C1201 1.387 . S
C1203 C1205 1.390 . S
C1203 H1207 0.950 . S
H1204 C1200 0.950 . S
C1205 C1203 1.390 . S
C1205 C1206 1.387 . S
C1205 H1208 0.950 . S
C1206 C1205 1.387 . S
C1206 C1209 1.387 . S
H1207 C1203 0.950 . S
H1208 C1205 0.950 . S
C1209 C1200 1.390 . S
C1209 H1202 0.950 . S
C1209 C1206 1.387 . S
C1210 C1211 1.387 . S
C1210 H1214 0.950 . S
C1210 C1219 1.390 . S
C1211 C1210 1.387 . S
C1211 C1213 1.387 . S
H1212 C1219 0.950 . S
C1213 C1211 1.387 . S
C1213 C1215 1.390 . S
C1213 H1217 0.950 . S
H1214 C1210 0.950 . S
C1215 C1213 1.390 . S
C1215 C1216 1.387 . S
C1215 H1218 0.950 . S
C1216 C1215 1.387 . S
C1216 C1219 1.387 . S
H1217 C1213 0.950 . S
H1218 C1215 0.950 . S
C1219 C1210 1.390 . S
C1219 H1212 0.950 . S
C1219 C1216 1.387 . S
C1220 C1221 1.387 . S
C1220 H1224 0.950 . S
C1220 C1229 1.390 . S
C1221 C1220 1.387 . S
C1221 C1223 1.387 . S
H1222 C1229 0.950 . S
C1223 C1221 1.387 . S
C1223 C1225 1.390 . S
C1223 H1227 0.950 . S
H1224 C1220 0.950 . S
C1225 C1223 1.390 . S
C1225 C1226 1.387 . S
C1225 H1228 0.950 . S
C1226 C1225 1.387 . S
C1226 C1229 1.387 . S
H1227 C1223 0.950 . S
H1228 C1225 0.950 . S
C1229 C1220 1.390 . S
C1229 H1222 0.950 . S
C1229 C1226 1.387 . S
C1230 C1231 1.387 . S
C1230 H1234 0.950 . S
C1230 C1239 1.390 . S
C1231 C1230 1.387 . S
C1231 C1233 1.387 . S
H1232 C1239 0.950 . S
C1233 C1231 1.387 . S
C1233 C1235 1.390 . S
C1233 H1237 0.950 . S
H1234 C1230 0.950 . S
C1235 C1233 1.390 . S
C1235 C1236 1.387 . S
C1235 H1238 0.950 . S
C1236 C1235 1.387 . S
C1236 C1239 1.387 . S
H1237 C1233 0.950 . S
H1238 C1235 0.950 . S
C1239 C1230 1.390 . S
C1239 H1232 0.950 . S
C1239 C1236 1.387 . S
C1240 C1241 1.387 . S
C1240 H1244 0.950 . S
C1240 C1249 1.390 . S
C1241 C1240 1.387 . S
C1241 C1243 1.387 . S
H1242 C1249 0.950 . S
C1243 C1241 1.387 . S
C1243 C1245 1.390 . S
C1243 H1247 0.950 . S
H1244 C1240 0.950 . S
C1245 C1243 1.390 . S
C1245 C1246 1.387 . S
C1245 H1248 0.950 . S
C1246 C1245 1.387 . S
C1246 C1249 1.387 . S
H1247 C1243 0.950 . S
H1248 C1245 0.950 . S
C1249 C1240 1.390 . S
C1249 H1242 0.950 . S
C1249 C1246 1.387 . S
C1250 C1251 1.387 . S
C1250 H1254 0.950 . S
C1250 C1259 1.390 . S
C1251 C1250 1.387 . S
C1251 C1253 1.387 . S
H1252 C1259 0.950 . S
C1253 C1251 1.387 . S
C1253 C1255 1.390 . S
C1253 H1257 0.950 . S
H1254 C1250 0.950 . S
C1255 C1253 1.390 . S
C1255 C1256 1.387 . S
C1255 H1258 0.950 . S
C1256 C1255 1.387 . S
C1256 C1259 1.387 . S
H1257 C1253 0.950 . S
H1258 C1255 0.950 . S
C1259 C1250 1.390 . S
C1259 H1252 0.950 . S
C1259 C1256 1.387 . S
C1260 C1261 1.387 . S
C1260 H1264 0.950 . S
C1260 C1269 1.389 1_565 S
C1261 C1260 1.387 . S
C1261 C1263 1.387 . S
H1262 C1269 0.954 . S
C1263 C1261 1.387 . S
C1263 C1265 1.390 1_565 S
C1263 H1267 0.950 . S
H1264 C1260 0.950 . S
C1265 C1263 1.390 1_545 S
C1265 C1266 1.387 . S
C1265 H1268 0.950 . S
C1266 C1265 1.387 . S
C1266 C1269 1.390 . S
H1267 C1263 0.950 . S
H1268 C1265 0.950 . S
C1269 C1260 1.389 1_545 S
C1269 H1262 0.954 . S
C1269 C1266 1.390 . S
C1270 C1271 1.387 . S
C1270 H1274 0.950 . S
C1270 C1279 1.390 . S
C1271 C1270 1.387 . S
C1271 C1273 1.372 1_455 S
H1272 C1279 0.950 . S
C1273 C1271 1.372 1_655 S
C1273 C1275 1.422 . S
C1273 H1277 0.934 . S
H1274 C1270 0.950 . S
C1275 C1273 1.422 . S
C1275 C1276 1.387 . S
C1275 H1278 0.950 . S
C1276 C1275 1.387 . S
C1276 C1279 1.387 1_655 S
H1277 C1273 0.934 . S
H1278 C1275 0.950 . S
C1279 C1270 1.390 . S
C1279 H1272 0.950 . S
C1279 C1276 1.387 1_455 S
C1280 C1281 1.387 . S
C1280 H1284 0.950 . S
C1280 C1289 1.390 . S
C1281 C1280 1.387 . S
C1281 C1283 1.387 . S
H1282 C1289 0.950 . S
C1283 C1281 1.387 . S
C1283 C1285 1.390 . S
C1283 H1287 0.950 . S
H1284 C1280 0.950 . S
C1285 C1283 1.390 . S
C1285 C1286 1.387 . S
C1285 H1288 0.950 . S
C1286 C1285 1.387 . S
C1286 C1289 1.387 . S
H1287 C1283 0.950 . S
H1288 C1285 0.950 . S
C1289 C1280 1.390 . S
C1289 H1282 0.950 . S
C1289 C1286 1.387 . S
C1290 C1291 1.387 . S
C1290 H1294 0.950 . S
C1290 C1299 1.390 . S
C1291 C1290 1.387 . S
C1291 C1293 1.387 . S
H1292 C1299 0.950 . S
C1293 C1291 1.387 . S
C1293 C1295 1.390 . S
C1293 H1297 0.950 . S
H1294 C1290 0.950 . S
C1295 C1293 1.390 . S
C1295 C1296 1.387 . S
C1295 H1298 0.950 . S
C1296 C1295 1.387 . S
C1296 C1299 1.387 . S
H1297 C1293 0.950 . S
H1298 C1295 0.950 . S
C1299 C1290 1.390 . S
C1299 H1292 0.950 . S
C1299 C1296 1.387 . S
C1300 C1301 1.387 . S
C1300 H1304 0.950 . S
C1300 C1309 1.390 . S
C1301 C1300 1.387 . S
C1301 C1303 1.387 . S
H1302 C1309 0.950 . S
C1303 C1301 1.387 . S
C1303 C1305 1.390 . S
C1303 H1307 0.950 . S
H1304 C1300 0.950 . S
C1305 C1303 1.390 . S
C1305 C1306 1.387 . S
C1305 H1308 0.950 . S
C1306 C1305 1.387 . S
C1306 C1309 1.387 . S
H1307 C1303 0.950 . S
H1308 C1305 0.950 . S
C1309 C1300 1.390 . S
C1309 H1302 0.950 . S
C1309 C1306 1.387 . S
C1310 C1311 1.387 . S
C1310 H1314 0.950 . S
C1310 C1319 1.390 . S
C1311 C1310 1.387 . S
C1311 C1313 1.387 . S
H1312 C1319 0.950 . S
C1313 C1311 1.387 . S
C1313 C1315 1.390 . S
C1313 H1317 0.950 . S
H1314 C1310 0.950 . S
C1315 C1313 1.390 . S
C1315 C1316 1.387 . S
C1315 H1318 0.950 . S
C1316 C1315 1.387 . S
C1316 C1319 1.387 . S
H1317 C1313 0.950 . S
H1318 C1315 0.950 . S
C1319 C1310 1.390 . S
C1319 H1312 0.950 . S
C1319 C1316 1.387 . S
C1320 C1321 1.387 . S
C1320 H1324 0.950 . S
C1320 C1329 1.390 . S
C1321 C1320 1.387 . S
C1321 C1323 1.387 . S
H1322 C1329 0.950 . S
C1323 C1321 1.387 . S
C1323 C1325 1.390 . S
C1323 H1327 0.950 . S
H1324 C1320 0.950 . S
C1325 C1323 1.390 . S
C1325 C1326 1.387 . S
C1325 H1328 0.950 . S
C1326 C1325 1.387 . S
C1326 C1329 1.387 . S
H1327 C1323 0.950 . S
H1328 C1325 0.950 . S
C1329 C1320 1.390 . S
C1329 H1322 0.950 . S
C1329 C1326 1.387 . S
C1330 C1331 1.387 . S
C1330 H1334 0.950 . S
C1330 C1339 1.390 . S
C1331 C1330 1.387 . S
C1331 C1333 1.387 . S
H1332 C1339 0.950 . S
C1333 C1331 1.387 . S
C1333 C1335 1.390 . S
C1333 H1337 0.950 . S
H1334 C1330 0.950 . S
C1335 C1333 1.390 . S
C1335 C1336 1.387 . S
C1335 H1338 0.950 . S
C1336 C1335 1.387 . S
C1336 C1339 1.387 . S
H1337 C1333 0.950 . S
H1338 C1335 0.950 . S
C1339 C1330 1.390 . S
C1339 H1332 0.950 . S
C1339 C1336 1.387 . S
C1340 C1341 1.387 . S
C1340 H1344 0.950 . S
C1340 C1349 1.390 . S
C1341 C1340 1.387 . S
C1341 C1343 1.387 . S
H1342 C1349 0.950 . S
C1343 C1341 1.387 . S
C1343 C1345 1.390 . S
C1343 H1347 0.950 . S
H1344 C1340 0.950 . S
C1345 C1343 1.390 . S
C1345 C1346 1.387 . S
C1345 H1348 0.950 . S
C1346 C1345 1.387 . S
C1346 C1349 1.387 . S
H1347 C1343 0.950 . S
H1348 C1345 0.950 . S
C1349 C1340 1.390 . S
C1349 H1342 0.950 . S
C1349 C1346 1.387 . S
C1350 C1351 1.387 . S
C1350 H1354 0.950 . S
C1350 C1359 1.390 . S
C1351 C1350 1.387 . S
C1351 C1353 1.387 . S
H1352 C1359 0.950 . S
C1353 C1351 1.387 . S
C1353 C1355 1.390 . S
C1353 H1357 0.950 . S
H1354 C1350 0.950 . S
C1355 C1353 1.390 . S
C1355 C1356 1.387 . S
C1355 H1358 0.950 . S
C1356 C1355 1.387 . S
C1356 C1359 1.387 . S
H1357 C1353 0.950 . S
H1358 C1355 0.950 . S
C1359 C1350 1.390 . S
C1359 H1352 0.950 . S
C1359 C1356 1.387 . S
C1360 C1361 1.387 . S
C1360 H1364 0.950 . S
C1360 C1369 1.390 . S
C1361 C1360 1.387 . S
C1361 C1363 1.387 . S
H1362 C1369 0.950 . S
C1363 C1361 1.387 . S
C1363 C1365 1.390 . S
C1363 H1367 0.950 . S
H1364 C1360 0.950 . S
C1365 C1363 1.390 . S
C1365 C1366 1.387 . S
C1365 H1368 0.950 . S
C1366 C1365 1.387 . S
C1366 C1369 1.387 . S
H1367 C1363 0.950 . S
H1368 C1365 0.950 . S
C1369 C1360 1.390 . S
C1369 H1362 0.950 . S
C1369 C1366 1.387 . S
C1370 C1371 1.387 . S
C1370 H1374 0.950 . S
C1370 C1379 1.390 . S
C1371 C1370 1.387 . S
C1371 C1373 1.387 . S
H1372 C1379 0.950 . S
C1373 C1371 1.387 . S
C1373 C1375 1.390 . S
C1373 H1377 0.950 . S
H1374 C1370 0.950 . S
C1375 C1373 1.390 . S
C1375 C1376 1.387 . S
C1375 H1378 0.950 . S
C1376 C1375 1.387 . S
C1376 C1379 1.387 . S
H1377 C1373 0.950 . S
H1378 C1375 0.950 . S
C1379 C1370 1.390 . S
C1379 H1372 0.950 . S
C1379 C1376 1.387 . S
C1380 C1381 1.387 . S
C1380 H1384 0.950 . S
C1380 C1389 1.390 . S
C1381 C1380 1.387 . S
C1381 C1383 1.387 . S
H1382 C1389 0.950 . S
C1383 C1381 1.387 . S
C1383 C1385 1.390 . S
C1383 H1387 0.950 . S
H1384 C1380 0.950 . S
C1385 C1383 1.390 . S
C1385 C1386 1.387 . S
C1385 H1388 0.950 . S
C1386 C1385 1.387 . S
C1386 C1389 1.387 . S
H1387 C1383 0.950 . S
H1388 C1385 0.950 . S
C1389 C1380 1.390 . S
C1389 H1382 0.950 . S
C1389 C1386 1.387 . S
C1390 C1391 1.387 . S
C1390 H1394 0.950 . S
C1390 C1399 1.390 . S
C1391 C1390 1.387 . S
C1391 C1393 1.387 . S
H1392 C1399 0.950 . S
C1393 C1391 1.387 . S
C1393 C1395 1.390 . S
C1393 H1397 0.950 . S
H1394 C1390 0.950 . S
C1395 C1393 1.390 . S
C1395 C1396 1.387 . S
C1395 H1398 0.950 . S
C1396 C1395 1.387 . S
C1396 C1399 1.387 . S
H1397 C1393 0.950 . S
H1398 C1395 0.950 . S
C1399 C1390 1.390 . S
C1399 H1392 0.950 . S
C1399 C1396 1.387 . S
C1400 C1401 1.387 . S
C1400 H1404 0.950 . S
C1400 C1409 1.390 . S
C1401 C1400 1.387 . S
C1401 C1403 1.387 . S
H1402 C1409 0.950 . S
C1403 C1401 1.387 . S
C1403 C1405 1.390 . S
C1403 H1407 0.950 . S
H1404 C1400 0.950 . S
C1405 C1403 1.390 . S
C1405 C1406 1.387 . S
C1405 H1408 0.950 . S
C1406 C1405 1.387 . S
C1406 C1409 1.387 . S
H1407 C1403 0.950 . S
H1408 C1405 0.950 . S
C1409 C1400 1.390 . S
C1409 H1402 0.950 . S
C1409 C1406 1.387 . S
C1410 C1411 1.387 . S
C1410 H1414 0.950 . S
C1410 C1419 1.390 . S
C1411 C1410 1.387 . S
C1411 C1413 1.387 . S
H1412 C1419 0.950 . S
C1413 C1411 1.387 . S
C1413 C1415 1.390 . S
C1413 H1417 0.950 . S
H1414 C1410 0.950 . S
C1415 C1413 1.390 . S
C1415 C1416 1.387 . S
C1415 H1418 0.950 . S
C1416 C1415 1.387 . S
C1416 C1419 1.387 . S
H1417 C1413 0.950 . S
H1418 C1415 0.950 . S
C1419 C1410 1.390 . S
C1419 H1412 0.950 . S
C1419 C1416 1.387 . S
C1420 C1421 1.387 . S
C1420 H1424 0.950 . S
C1420 C1429 1.390 . S
C1421 C1420 1.387 . S
C1421 C1423 1.387 . S
H1422 C1429 0.950 . S
C1423 C1421 1.387 . S
C1423 C1425 1.390 . S
C1423 H1427 0.950 . S
H1424 C1420 0.950 . S
C1425 C1423 1.390 . S
C1425 C1426 1.387 . S
C1425 H1428 0.950 . S
C1426 C1425 1.387 . S
C1426 C1429 1.387 . S
H1427 C1423 0.950 . S
H1428 C1425 0.950 . S
C1429 C1420 1.390 . S
C1429 H1422 0.950 . S
C1429 C1426 1.387 . S
C1430 C1431 1.387 . S
C1430 H1434 0.950 . S
C1430 C1439 1.390 . S
C1431 C1430 1.387 . S
C1431 C1433 1.387 . S
H1432 C1439 0.950 . S
C1433 C1431 1.387 . S
C1433 C1435 1.390 . S
C1433 H1437 0.950 . S
H1434 C1430 0.950 . S
C1435 C1433 1.390 . S
C1435 C1436 1.387 . S
C1435 H1438 0.950 . S
C1436 C1435 1.387 . S
C1436 C1439 1.387 . S
H1437 C1433 0.950 . S
H1438 C1435 0.950 . S
C1439 C1430 1.390 . S
C1439 H1432 0.950 . S
C1439 C1436 1.387 . S
C1440 C1441 1.387 . S
C1440 H1444 0.950 . S
C1440 C1449 1.390 . S
C1441 C1440 1.387 . S
C1441 C1443 1.387 . S
H1442 C1449 0.950 . S
C1443 C1441 1.387 . S
C1443 C1445 1.390 . S
C1443 H1447 0.950 . S
H1444 C1440 0.950 . S
C1445 C1443 1.390 . S
C1445 C1446 1.387 . S
C1445 H1448 0.950 . S
C1446 C1445 1.387 . S
C1446 C1449 1.387 . S
H1447 C1443 0.950 . S
H1448 C1445 0.950 . S
C1449 C1440 1.390 . S
C1449 H1442 0.950 . S
C1449 C1446 1.387 . S
C1450 C1451 1.387 . S
C1450 H1454 0.950 . S
C1450 C1459 1.390 . S
C1451 C1450 1.387 . S
C1451 C1453 1.387 . S
H1452 C1459 0.950 . S
C1453 C1451 1.387 . S
C1453 C1455 1.390 . S
C1453 H1457 0.950 . S
H1454 C1450 0.950 . S
C1455 C1453 1.390 . S
C1455 C1456 1.387 . S
C1455 H1458 0.950 . S
C1456 C1455 1.387 . S
C1456 C1459 1.387 . S
H1457 C1453 0.950 . S
H1458 C1455 0.950 . S
C1459 C1450 1.390 . S
C1459 H1452 0.950 . S
C1459 C1456 1.387 . S
C1460 C1461 1.387 . S
C1460 H1464 0.950 . S
C1460 C1469 1.390 . S
C1461 C1460 1.387 . S
C1461 C1463 1.387 . S
H1462 C1469 0.950 . S
C1463 C1461 1.387 . S
C1463 C1465 1.390 . S
C1463 H1467 0.950 . S
H1464 C1460 0.950 . S
C1465 C1463 1.390 . S
C1465 C1466 1.387 . S
C1465 H1468 0.950 . S
C1466 C1465 1.387 . S
C1466 C1469 1.387 . S
H1467 C1463 0.950 . S
H1468 C1465 0.950 . S
C1469 C1460 1.390 . S
C1469 H1462 0.950 . S
C1469 C1466 1.387 . S
C1470 C1471 1.387 . S
C1470 H1474 0.950 . S
C1470 C1479 1.390 . S
C1471 C1470 1.387 . S
C1471 C1473 1.387 . S
H1472 C1479 0.950 . S
C1473 C1471 1.387 . S
C1473 C1475 1.390 . S
C1473 H1477 0.950 . S
H1474 C1470 0.950 . S
C1475 C1473 1.390 . S
C1475 C1476 1.387 . S
C1475 H1478 0.950 . S
C1476 C1475 1.387 . S
C1476 C1479 1.387 . S
H1477 C1473 0.950 . S
H1478 C1475 0.950 . S
C1479 C1470 1.390 . S
C1479 H1472 0.950 . S
C1479 C1476 1.387 . S
C1480 C1481 1.387 . S
C1480 H1484 0.950 . S
C1480 C1489 1.390 . S
C1481 C1480 1.387 . S
C1481 C1483 1.387 . S
H1482 C1489 0.950 . S
C1483 C1481 1.387 . S
C1483 C1485 1.390 . S
C1483 H1487 0.950 . S
H1484 C1480 0.950 . S
C1485 C1483 1.390 . S
C1485 C1486 1.387 . S
C1485 H1488 0.950 . S
C1486 C1485 1.387 . S
C1486 C1489 1.387 . S
H1487 C1483 0.950 . S
H1488 C1485 0.950 . S
C1489 C1480 1.390 . S
C1489 H1482 0.950 . S
C1489 C1486 1.387 . S
C1490 C1491 1.387 . S
C1490 H1494 0.950 . S
C1490 C1499 1.390 . S
C1491 C1490 1.387 . S
C1491 C1493 1.387 . S
H1492 C1499 0.950 . S
C1493 C1491 1.387 . S
C1493 C1495 1.390 . S
C1493 H1497 0.950 . S
H1494 C1490 0.950 . S
C1495 C1493 1.390 . S
C1495 C1496 1.387 . S
C1495 H1498 0.950 . S
C1496 C1495 1.387 . S
C1496 C1499 1.387 . S
H1497 C1493 0.950 . S
H1498 C1495 0.950 . S
C1499 C1490 1.390 . S
C1499 H1492 0.950 . S
C1499 C1496 1.387 . S
C1500 C1501 1.387 . S
C1500 H1504 0.950 . S
C1500 C1509 1.390 . S
C1501 C1500 1.387 . S
C1501 C1503 1.387 . S
H1502 C1509 0.950 . S
C1503 C1501 1.387 . S
C1503 C1505 1.390 . S
C1503 H1507 0.950 . S
H1504 C1500 0.950 . S
C1505 C1503 1.390 . S
C1505 C1506 1.387 . S
C1505 H1508 0.950 . S
C1506 C1505 1.387 . S
C1506 C1509 1.387 . S
H1507 C1503 0.950 . S
H1508 C1505 0.950 . S
C1509 C1500 1.390 . S
C1509 H1502 0.950 . S
C1509 C1506 1.387 . S
C1510 C1511 1.387 . S
C1510 H1514 0.950 . S
C1510 C1519 1.390 . S
C1511 C1510 1.387 . S
C1511 C1513 1.387 . S
H1512 C1519 0.950 . S
C1513 C1511 1.387 . S
C1513 C1515 1.390 . S
C1513 H1517 0.950 . S
H1514 C1510 0.950 . S
C1515 C1513 1.390 . S
C1515 C1516 1.387 . S
C1515 H1518 0.950 . S
C1516 C1515 1.387 . S
C1516 C1519 1.387 . S
H1517 C1513 0.950 . S
H1518 C1515 0.950 . S
C1519 C1510 1.390 . S
C1519 H1512 0.950 . S
C1519 C1516 1.387 . S
C1520 C1521 1.387 . S
C1520 H1524 0.950 . S
C1520 C1529 1.390 . S
C1521 C1520 1.387 . S
C1521 C1523 1.387 . S
H1522 C1529 0.950 . S
C1523 C1521 1.387 . S
C1523 C1525 1.390 . S
C1523 H1527 0.950 . S
H1524 C1520 0.950 . S
C1525 C1523 1.390 . S
C1525 C1526 1.387 . S
C1525 H1528 0.950 . S
C1526 C1525 1.387 . S
C1526 C1529 1.387 . S
H1527 C1523 0.950 . S
H1528 C1525 0.950 . S
C1529 C1520 1.390 . S
C1529 H1522 0.950 . S
C1529 C1526 1.387 . S
C991 C177 1.475 . S
C996 C290 1.415 . S
C1001 C190 1.500 . S
C1006 C374 1.447 . S
C1011 C164 1.471 . S
C1016 C468 1.470 . S
C1021 C151 1.463 . S
C1026 C384 1.463 . S
C1036 C458 1.405 . S
C1031 C125 1.469 . S
C1041 C138 1.441 . S
C1046 C300 1.438 . S
C1056 C301 1.459 . S
C1051 C147 1.466 . S
C1066 C385 1.483 . S
C1061 C121 1.479 . S
C1071 C134 1.482 . S
C1076 C477 1.482 . S
C1081 C173 1.460 . S
C1086 C393 1.460 . S
C1091 C186 1.446 . S
C1096 C469 1.435 . S
C1106 C309 1.439 . S
C1101 C160 1.448 . S
C1116 C542 1.417 . S
C1111 C21 1.475 . S
C1121 C34 1.500 . S
C1126 C626 1.447 . S
C1131 C8 1.472 . S
C1136 C720 1.470 . S
C1141 C229 1.463 . S
C1146 C636 1.464 . S
C1151 C203 1.468 . S
C1156 C710 1.405 . S
C1161 C216 1.441 . S
C1166 C552 1.437 . S
C1171 C225 1.466 . S
C1176 C553 1.458 . S
C1181 C199 1.483 . S
C1186 C637 1.480 . S
C1196 C729 1.482 . S
C1191 C212 1.482 . S
C1201 C17 1.458 1_565 S
C1206 C645 1.459 . S
C1216 C721 1.439 . S
C1211 C30 1.443 1_455 S
C1221 C4 1.448 . S
C1226 C561 1.440 . S
C1236 C794 1.416 . S
C1231 C99 1.475 . S
C1241 C112 1.501 . S
C1246 C878 1.444 . S
C1256 C972 1.469 . S
C1251 C86 1.472 . S
C1266 C888 1.463 . S
C1261 C73 1.463 . S
C1276 C962 1.405 . S
C1271 C47 1.468 . S
C1281 C60 1.440 . S
C1286 C804 1.438 . S
C1291 C69 1.465 1_655 S
C1296 C805 1.459 . S
C1301 C43 1.482 . S
C1306 C889 1.480 . S
C1316 C981 1.481 . S
C1311 C56 1.485 1_545 S
C1321 C95 1.458 . S
C1326 C897 1.462 . S
C1331 C108 1.443 . S
C1336 C973 1.439 . S
C1341 C82 1.449 . S
C1346 C813 1.442 . S
C1351 C204 1.573 . S
C1356 C297 1.471 . S
C1366 C381 1.476 . S
C1361 C217 1.613 . S
C1371 C230 1.571 . S
C1376 C474 1.384 . S
C1381 C87 1.581 . S
C1386 C390 1.376 . S
C1391 C100 1.581 . S
C1396 C465 1.453 . S
C1406 C306 1.372 . S
C1401 C113 1.542 . S
C1411 C48 1.573 . S
C1416 C549 1.471 . S
C1421 C61 1.612 . S
C1426 C633 1.479 . S
C1431 C74 1.572 . S
C1436 C726 1.381 . S
C1441 C165 1.580 . S
C1446 C642 1.378 . S
C1456 C717 1.455 . S
C1451 C178 1.579 . S
C1461 C191 1.544 . S
C1466 C558 1.375 . S
C1471 C126 1.573 . S
C1476 C801 1.470 . S
C1481 C139 1.613 . S
C1486 C885 1.477 . S
C1496 C978 1.383 . S
C1491 C152 1.570 . S
C1501 C9 1.581 . S
C1506 C894 1.375 . S
C1511 C22 1.581 . S
C1516 C969 1.454 . S
C1521 C35 1.543 . S
C1526 C810 1.376 . S
