# Generated by pormake.
# Topology pyr, (3,6)-cn, num edge types: 1
# Building blocks:
#     Node 0, Type 0, BuildingBlock: INOVEN_clean_linker_0, # of connection points: 3
#     Node 1, Type 0, BuildingBlock: INOVEN_clean_linker_0, # of connection points: 3
#     Node 2, Type 0, BuildingBlock: INOVEN_clean_linker_0, # of connection points: 3
#     Node 3, Type 0, BuildingBlock: INOVEN_clean_linker_0, # of connection points: 3
#     Node 4, Type 0, BuildingBlock: INOVEN_clean_linker_0, # of connection points: 3
#     Node 5, Type 0, BuildingBlock: INOVEN_clean_linker_0, # of connection points: 3
#     Node 6, Type 0, BuildingBlock: INOVEN_clean_linker_0, # of connection points: 3
#     Node 7, Type 0, BuildingBlock: INOVEN_clean_linker_0, # of connection points: 3
#     Node 8, Type 1, BuildingBlock: BETFAJ_clean_sbu_0, # of connection points: 6
#     Node 9, Type 1, BuildingBlock: BETFAJ_clean_sbu_0, # of connection points: 6
#     Node 10, Type 1, BuildingBlock: BETFAJ_clean_sbu_0, # of connection points: 6
#     Node 11, Type 1, BuildingBlock: BETFAJ_clean_sbu_0, # of connection points: 6
#     Edge 12, Type (0, 1), None
#     Edge 13, Type (0, 1), None
#     Edge 14, Type (0, 1), None
#     Edge 15, Type (0, 1), None
#     Edge 16, Type (0, 1), None
#     Edge 17, Type (0, 1), None
#     Edge 18, Type (0, 1), None
#     Edge 19, Type (0, 1), None
#     Edge 20, Type (0, 1), None
#     Edge 21, Type (0, 1), None
#     Edge 22, Type (0, 1), None
#     Edge 23, Type (0, 1), None
#     Edge 24, Type (0, 1), None
#     Edge 25, Type (0, 1), None
#     Edge 26, Type (0, 1), None
#     Edge 27, Type (0, 1), None
#     Edge 28, Type (0, 1), None
#     Edge 29, Type (0, 1), None
#     Edge 30, Type (0, 1), None
#     Edge 31, Type (0, 1), None
#     Edge 32, Type (0, 1), None
#     Edge 33, Type (0, 1), None
#     Edge 34, Type (0, 1), None
#     Edge 35, Type (0, 1), None
# Relax obj value: 0.431
# Max RMSD: 0.251
# Mean RMSD: 0.150
data_MOF--net-pyr--node1-BETFAJ_clean_sbu_0--node2-INOVEN_clean_linker_0--edge1-none
_symmetry_space_group_name_H-M    P1
_symmetry_Int_Tables_number       1
_symmetry_cell_setting            triclinic
loop_
_symmetry_equiv_pos_as_xyz
'x, y, z'
_cell_length_a     17.040722
_cell_length_b     17.857753
_cell_length_c     16.859373
_cell_angle_alpha  91.297934
_cell_angle_beta   89.928759
_cell_angle_gamma 112.9751
loop_
_atom_site_label
_atom_site_type_symbol
_atom_site_fract_x
_atom_site_fract_y
_atom_site_fract_z
_atom_type_partial_charge
H0 H 0.4231 0.41784 0.50455 0.0
H1 H 0.61789 0.32509 0.46404 0.0
H2 H 0.54031 0.4421 0.27833 0.0
N3 N 0.42694 0.47605 0.35969 0.0
N4 N 0.38147 0.49926 0.40354 0.0
C5 C 0.47407 0.41422 0.46825 0.0
C6 C 0.52446 0.3737 0.49624 0.0
C7 C 0.48474 0.44498 0.39152 0.0
C8 C 0.54136 0.4292 0.34085 0.0
C9 C 0.58574 0.38221 0.36642 0.0
C10 C 0.58389 0.3621 0.44566 0.0
H11 H 0.14286 0.95066 0.71048 0.0
H12 H 0.25393 0.97475 0.94325 0.0
H13 H 1.03364 1.02898 0.90895 0.0
N14 N 1.02496 1.00448 0.74999 0.0
N15 N 1.00967 1.07013 0.74973 0.0
C16 C 0.14237 0.96332 0.7736 0.0
C17 C 0.2051 0.95717 0.82383 0.0
C18 C 0.0817 0.99105 0.80374 0.0
C19 C 0.0825 1.01091 0.88453 0.0
C20 C 0.14708 1.00932 0.93419 0.0
C21 C 0.20539 0.97856 0.90431 0.0
H22 H 0.58958 0.42891 0.96158 0.0
H23 H 0.77449 0.46045 0.1464 0.0
H24 H 0.8047 0.6574 0.98784 0.0
N25 N 0.65946 0.57378 0.89788 0.0
N26 N 0.66903 0.64593 0.88428 0.0
C27 C 0.64748 0.46687 0.99285 0.0
C28 C 0.67552 0.43497 1.05845 0.0
C29 C 0.69151 0.54769 0.96748 0.0
C30 C 0.76839 0.5965 1.00811 0.0
C31 C 0.80044 0.56492 1.07224 0.0
C32 C 0.75188 0.48491 1.09724 0.0
H33 H 0.77624 0.74821 0.48455 0.0
H34 H 0.84808 0.96264 0.63175 0.0
H35 H 1.01636 0.95161 0.44633 0.0
N36 N 0.9161 0.79219 0.39525 0.0
N37 N 0.97958 0.81445 0.34963 0.0
C38 C 0.82066 0.80942 0.49953 0.0
C39 C 0.80061 0.85268 0.5631 0.0
C40 C 0.89891 0.84302 0.45653 0.0
C41 C 0.95678 0.92421 0.47767 0.0
C42 C 0.93668 0.96976 0.53968 0.0
C43 C 0.86048 0.93117 0.58189 0.0
H44 H 0.60387 1.0323 0.88961 0.0
H45 H 0.72725 0.87443 0.83317 0.0
H46 H 0.69935 0.93985 1.07714 0.0
N47 N 0.60451 1.02291 1.03839 0.0
N48 N 0.54677 1.04399 1.01499 0.0
C49 C 0.62816 0.98775 0.90733 0.0
C50 C 0.66814 0.95763 0.85226 0.0
C51 C 0.63256 0.9751 0.98765 0.0
C52 C 0.6854 0.93682 1.01438 0.0
C53 C 0.72454 0.90193 0.95847 0.0
C54 C 0.70489 0.90468 0.87779 0.0
H55 H 0.9562 0.39473 0.35188 0.0
H56 H 0.12589 0.28415 0.42171 0.0
H57 H 0.09624 0.47353 0.56717 0.0
N58 N 0.96547 0.47421 0.48919 0.0
N59 N 0.90344 0.47061 0.44791 0.0
C60 C 1.00747 0.39543 0.39031 0.0
C61 C 1.05126 0.34526 0.37167 0.0
C62 C 1.02382 0.44142 0.46069 0.0
C63 C 0.08659 0.43908 0.5116 0.0
C64 C 0.11614 0.37563 0.50273 0.0
C65 C 0.10455 0.3336 0.42938 0.0
H66 H 0.53121 0.99451 0.38243 0.0
H67 H 0.34847 0.96427 0.19584 0.0
H68 H 0.32916 0.7601 0.33987 0.0
N69 N 0.47037 0.84443 0.43324 0.0
N70 N 0.45852 0.77146 0.44478 0.0
C71 C 0.47533 0.95622 0.34864 0.0
C72 C 0.44552 0.99021 0.2862 0.0
C73 C 0.43599 0.87296 0.3674 0.0
C74 C 0.36188 0.82314 0.32398 0.0
C75 C 0.32808 0.85574 0.2624 0.0
C76 C 0.37223 0.93883 0.24334 0.0
H77 H 0.12383 0.45791 0.88826 0.0
H78 H 0.29845 0.45347 0.70321 0.0
H79 H 0.35424 0.67044 0.84313 0.0
N80 N 0.21643 0.62183 0.93565 0.0
N81 N 0.15368 0.59908 0.98235 0.0
C82 C 0.18225 0.48786 0.85587 0.0
C83 C 0.20582 0.44359 0.79442 0.0
C84 C 0.23586 0.57133 0.87498 0.0
C85 C 0.31278 0.60767 0.83029 0.0
C86 C 0.3352 0.5647 0.76786 0.0
C87 C 0.28079 0.48464 0.75156 0.0
Sm88 Sm 0.14052 0.18905 0.67596 0.0
Sm89 Sm 0.99916 0.22285 0.66916 0.0
C90 C 0.28185 0.16063 0.67159 0.0
C91 C 0.37038 0.21342 0.65807 0.0
C92 C 0.39835 0.297 0.67623 0.0
C93 C 0.46271 0.35242 0.63152 0.0
C94 C 0.49684 0.32404 0.56735 0.0
C95 C 0.48 0.24044 0.56014 0.0
C96 C 0.41679 0.18524 0.6057 0.0
C97 C 1.04119 0.13551 0.80985 0.0
C98 C 0.15726 0.35565 0.76768 0.0
C99 C 0.84156 0.2133 0.66715 0.0
C100 C 0.77756 0.13281 0.6819 0.0
C101 C 0.81186 1.07597 0.69872 0.0
C102 C 0.77102 1.01148 0.74581 0.0
C103 C 0.69123 0.99963 0.77546 0.0
C104 C 0.64828 1.04725 0.74495 0.0
C105 C 0.69301 1.11641 0.70088 0.0
C106 C 0.11785 0.33321 0.57625 0.0
C107 C 0.99313 1.05583 0.56756 0.0
O108 O 0.23219 0.15157 0.61017 0.0
O109 O 0.24841 0.17349 0.73719 0.0
O110 O 1.01418 1.12399 0.73919 0.0
O111 O 0.11971 0.18536 0.81071 0.0
O112 O 0.1979 0.32209 0.72116 0.0
O113 O 0.07305 0.31863 0.77056 0.0
O114 O 0.89182 0.2423 0.72879 0.0
O115 O 0.88427 0.21734 0.60185 0.0
O116 O 0.10477 0.25792 0.57671 0.0
O117 O 0.07711 0.35006 0.63366 0.0
O118 O 0.95856 1.11011 0.57825 0.0
O119 O 0.06729 1.07055 0.6011 0.0
H120 H 0.36362 0.31988 0.71738 0.0
H121 H 0.4765 0.41669 0.63965 0.0
H122 H 0.50536 0.21614 0.51167 0.0
H123 H 0.396 1.12081 0.59157 0.0
H124 H 0.87687 1.08885 0.68791 0.0
H125 H 0.80868 0.97919 0.76692 0.0
H126 H 0.58421 1.03753 0.7624 0.0
H127 H 0.66447 0.1594 0.688 0.0
Sm128 Sm 0.63154 0.20745 0.19927 0.0
Sm129 Sm 0.48998 0.22378 0.15776 0.0
C130 C 0.77139 0.17539 0.20471 0.0
C131 C 0.86208 0.20676 0.22554 0.0
C132 C 0.92044 0.27995 0.19577 0.0
C133 C 0.99909 0.31901 0.2337 0.0
C134 C 1.01624 0.28782 0.30459 0.0
C135 C 0.96556 0.20755 0.32404 0.0
C136 C 0.88819 0.16726 0.28471 0.0
C137 C 0.49326 1.07829 0.26437 0.0
C138 C 0.58719 0.32054 0.31076 0.0
C139 C 0.33792 0.23017 0.15194 0.0
C140 C 0.25761 0.16608 0.12741 0.0
C141 C 0.25147 1.08566 0.13051 0.0
C142 C 0.2055 1.02953 1.07249 0.0
C143 C 0.16384 1.05295 1.01189 0.0
C144 C 0.15733 0.12905 1.01845 0.0
C145 C 0.20462 0.18573 1.076 0.0
C146 C 0.62398 0.35008 1.08685 0.0
C147 C 0.5414 1.11388 1.04785 0.0
O148 O 0.74744 0.20225 0.1417 0.0
O149 O 0.71984 0.16683 0.2641 0.0
O150 O 0.49625 1.10396 0.19467 0.0
O151 O 0.55925 1.12695 0.3037 0.0
O152 O 0.65649 0.31981 0.27833 0.0
O153 O 0.51304 0.26927 0.28532 0.0
O154 O 0.3716 0.2185 0.21759 0.0
O155 O 0.39276 0.25338 1.0943 0.0
O156 O 0.62517 0.32701 0.15764 0.0
O157 O 0.55474 0.3025 1.05103 0.0
O158 O 0.47195 1.11024 1.08299 0.0
O159 O 0.61241 0.17294 1.06881 0.0
H160 H 0.90253 0.31064 0.14872 0.0
H161 H 1.03864 0.38006 0.21656 0.0
H162 H 0.97788 0.18146 0.37769 0.0
H163 H 0.84467 1.10934 0.30671 0.0
H164 H 0.29197 1.06933 0.17009 0.0
H165 H 0.21089 0.97111 1.0703 0.0
H166 H 0.12567 0.14931 0.97319 0.0
H167 H 0.2091 0.24781 1.07285 0.0
Sm168 Sm 0.56297 0.64607 0.62883 0.0
Sm169 Sm 0.56615 0.77026 0.69548 0.0
C170 C 0.65421 0.57178 0.57068 0.0
C171 C 0.70513 0.53031 0.53829 0.0
C172 C 0.75359 0.5052 0.59014 0.0
C173 C 0.82017 0.48629 0.56088 0.0
C174 C 0.83806 0.49181 0.47931 0.0
C175 C 0.78753 0.51413 0.42738 0.0
C176 C 0.72282 0.53575 0.45708 0.0
C177 C 0.41321 0.59978 0.71574 0.0
C178 C 0.63538 0.66726 0.81302 0.0
C179 C 0.46004 0.8379 0.73222 0.0
C180 C 0.39776 0.87328 0.75014 0.0
C181 C 0.31833 0.84365 0.71108 0.0
C182 C 0.25606 0.87241 0.73305 0.0
C183 C 0.27312 0.93239 0.79332 0.0
C184 C 0.35488 0.96518 0.82841 0.0
C185 C 0.41521 0.93389 0.80879 0.0
C186 C 0.71966 0.8177 0.61291 0.0
C187 C 0.49437 0.74916 0.51351 0.0
O188 O 0.68586 0.63144 0.62261 0.0
O189 O 0.57278 0.54821 0.55392 0.0
O190 O 0.4869 0.6456 0.74014 0.0
O191 O 0.41814 0.57199 0.6442 0.0
O192 O 0.61062 0.61681 0.75114 0.0
O193 O 0.62502 0.73671 0.80883 0.0
O194 O 0.4384 0.77215 0.68738 0.0
O195 O 0.53883 0.86767 0.75823 0.0
O196 O 0.64646 0.77131 0.58655 0.0
O197 O 0.7119 0.84451 0.6841 0.0
O198 O 0.53042 0.80262 0.57083 0.0
O199 O 0.49367 0.67554 0.52087 0.0
H200 H 0.74253 0.50407 0.65353 0.0
H201 H 0.8578 0.46785 0.60182 0.0
H202 H 0.80021 0.51741 0.36431 0.0
H203 H 0.68821 0.55883 0.41714 0.0
H204 H 0.30323 0.79648 0.66527 0.0
H205 H 0.19393 0.84553 0.70484 0.0
H206 H 0.37214 1.01372 0.87286 0.0
H207 H 0.47438 0.95566 0.84118 0.0
Sm208 Sm 0.05407 0.65164 0.21583 0.0
Sm209 Sm 0.07741 0.76228 0.11631 0.0
C210 C 0.08731 0.54492 0.29801 0.0
C211 C 0.16916 0.54151 0.3217 0.0
C212 C 0.21087 0.50632 0.27023 0.0
C213 C 0.28394 0.49624 0.29521 0.0
C214 C 0.31602 0.52046 0.37247 0.0
C215 C 0.27678 0.55863 0.4226 0.0
C216 C 0.2048 0.57058 0.39694 0.0
C217 C 0.99388 0.76003 0.29071 0.0
C218 C 0.24371 0.80572 0.22198 0.0
C219 C 1.03699 0.86744 1.04005 0.0
C220 C 0.95193 0.86455 1.02059 0.0
C221 C 0.89384 0.86442 1.08 0.0
C222 C 0.81651 0.86945 1.05991 0.0
C223 C 0.79708 0.87789 0.9802 0.0
C224 C 0.85409 0.87167 0.92136 0.0
C225 C 0.92819 0.86179 0.94151 0.0
C226 C 0.13829 0.65398 1.04059 0.0
C227 C 0.88684 0.61224 1.1102 0.0
O228 O 0.06823 0.53443 0.22268 0.0
O229 O 0.06641 0.60072 0.33203 0.0
O230 O 0.06252 0.77896 0.25086 0.0
O231 O 0.95195 0.6815 0.2882 0.0
O232 O 0.19882 0.73038 0.24282 0.0
O233 O 0.20994 0.83815 0.16988 0.0
O234 O 0.05792 0.87701 0.11499 0.0
O235 O 0.06173 0.81579 1.00248 0.0
O236 O 0.06993 0.63454 1.08133 0.0
O237 O 0.17863 0.73285 1.04172 0.0
O238 O 0.93326 0.68636 1.08818 0.0
O239 O 0.91999 0.57899 0.16225 0.0
H240 H 0.18602 0.4845 0.21131 0.0
H241 H 0.3129 0.46622 0.25534 0.0
H242 H 0.3005 0.57697 0.4825 0.0
H243 H 0.17472 0.59899 0.43747 0.0
H244 H 0.90851 0.86184 0.14213 0.0
H245 H 0.77412 0.86942 1.10759 0.0
H246 H 0.84626 0.87822 0.85893 0.0
H247 H 0.96932 0.85623 0.89473 0.0
loop_
_geom_bond_atom_site_label_1
_geom_bond_atom_site_label_2
_geom_bond_distance
_geom_bond_site_symmetry_2
_ccdc_geom_bond_type
H0 C5 0.929 . S
H1 C10 0.931 . S
H2 C8 0.930 . S
N3 N4 1.234 . S
N3 C7 1.453 . S
N4 N3 1.234 . S
C5 H0 0.929 . S
C5 C6 1.373 . S
C5 C7 1.368 . S
C6 C5 1.373 . S
C6 C10 1.397 . S
C7 N3 1.453 . S
C7 C5 1.368 . S
C7 C8 1.373 . S
C8 H2 0.930 . S
C8 C7 1.373 . S
C8 C9 1.371 . S
C9 C8 1.371 . S
C9 C10 1.383 . S
C10 H1 0.931 . S
C10 C6 1.397 . S
C10 C9 1.383 . S
H11 C16 0.929 . S
H12 C21 0.931 . S
H13 C19 0.930 . S
N14 N15 1.234 1_455 S
N14 C18 1.453 . S
N15 N14 1.234 1_655 S
C16 H11 0.929 . S
C16 C17 1.373 . S
C16 C18 1.368 . S
C17 C16 1.373 . S
C17 C21 1.397 . S
C18 N14 1.453 . S
C18 C16 1.368 . S
C18 C19 1.373 . S
C19 H13 0.930 . S
C19 C18 1.373 . S
C19 C20 1.371 . S
C20 C19 1.371 . S
C20 C21 1.383 . S
C21 H12 0.931 . S
C21 C17 1.397 . S
C21 C20 1.383 . S
H22 C27 0.929 . S
H23 C32 0.931 1_554 S
H24 C30 0.930 . S
N25 N26 1.234 . S
N25 C29 1.453 . S
N26 N25 1.234 . S
C27 H22 0.929 . S
C27 C28 1.373 . S
C27 C29 1.368 . S
C28 C27 1.373 . S
C28 C32 1.397 . S
C29 N25 1.453 . S
C29 C27 1.368 . S
C29 C30 1.373 . S
C30 H24 0.930 . S
C30 C29 1.373 . S
C30 C31 1.371 . S
C31 C30 1.371 . S
C31 C32 1.383 . S
C32 H23 0.931 1_556 S
C32 C28 1.397 . S
C32 C31 1.383 . S
H33 C38 0.929 . S
H34 C43 0.931 . S
H35 C41 0.930 . S
N36 N37 1.234 . S
N36 C40 1.453 . S
N37 N36 1.234 . S
C38 H33 0.929 . S
C38 C39 1.373 . S
C38 C40 1.368 . S
C39 C38 1.373 . S
C39 C43 1.397 . S
C40 N36 1.453 . S
C40 C38 1.368 . S
C40 C41 1.373 . S
C41 H35 0.930 . S
C41 C40 1.373 . S
C41 C42 1.371 . S
C42 C41 1.371 . S
C42 C43 1.383 . S
C43 H34 0.931 . S
C43 C39 1.397 . S
C43 C42 1.383 . S
H44 C49 0.929 . S
H45 C54 0.931 . S
H46 C52 0.930 . S
N47 N48 1.234 . S
N47 C51 1.453 . S
N48 N47 1.234 . S
C49 H44 0.929 . S
C49 C50 1.373 . S
C49 C51 1.368 . S
C50 C49 1.373 . S
C50 C54 1.397 . S
C51 N47 1.453 . S
C51 C49 1.368 . S
C51 C52 1.373 . S
C52 H46 0.930 . S
C52 C51 1.373 . S
C52 C53 1.371 . S
C53 C52 1.371 . S
C53 C54 1.383 . S
C54 H45 0.931 . S
C54 C50 1.397 . S
C54 C53 1.383 . S
H55 C60 0.929 . S
H56 C65 0.931 . S
H57 C63 0.930 . S
N58 N59 1.234 . S
N58 C62 1.453 . S
N59 N58 1.234 . S
C60 H55 0.929 . S
C60 C61 1.373 . S
C60 C62 1.368 . S
C61 C60 1.373 . S
C61 C65 1.397 . S
C62 N58 1.453 . S
C62 C60 1.368 . S
C62 C63 1.373 . S
C63 H57 0.930 . S
C63 C62 1.373 . S
C63 C64 1.371 . S
C64 C63 1.371 . S
C64 C65 1.383 . S
C65 H56 0.931 . S
C65 C61 1.397 . S
C65 C64 1.383 . S
H66 C71 0.929 . S
H67 C76 0.931 . S
H68 C74 0.930 . S
N69 N70 1.234 . S
N69 C73 1.453 . S
N70 N69 1.234 . S
C71 H66 0.929 . S
C71 C72 1.373 . S
C71 C73 1.368 . S
C72 C71 1.373 . S
C72 C76 1.397 . S
C73 N69 1.453 . S
C73 C71 1.368 . S
C73 C74 1.373 . S
C74 H68 0.930 . S
C74 C73 1.373 . S
C74 C75 1.371 . S
C75 C74 1.371 . S
C75 C76 1.383 . S
C76 H67 0.931 . S
C76 C72 1.397 . S
C76 C75 1.383 . S
H77 C82 0.929 . S
H78 C87 0.931 . S
H79 C85 0.930 . S
N80 N81 1.234 . S
N80 C84 1.453 . S
N81 N80 1.234 . S
C82 H77 0.929 . S
C82 C83 1.373 . S
C82 C84 1.368 . S
C83 C82 1.373 . S
C83 C87 1.397 . S
C84 N80 1.453 . S
C84 C82 1.368 . S
C84 C85 1.373 . S
C85 H79 0.930 . S
C85 C84 1.373 . S
C85 C86 1.371 . S
C86 C85 1.371 . S
C86 C87 1.383 . S
C87 H78 0.931 . S
C87 C83 1.397 . S
C87 C86 1.383 . S
Sm88 C90 2.846 . S
Sm88 O108 2.543 . S
Sm88 O109 2.450 . S
Sm88 O110 2.677 1_545 S
Sm88 O111 2.459 1_545 S
Sm88 O112 2.396 . S
Sm88 O116 2.386 1_455 S
Sm88 O119 2.408 1_445 S
Sm89 C99 2.846 1_545 S
Sm89 O110 2.380 1_645 S
Sm89 O113 2.408 1_655 S
Sm89 O114 2.543 1_545 S
Sm89 O115 2.450 1_545 S
Sm89 O116 2.681 . S
Sm89 O117 2.464 . S
Sm89 O118 2.396 1_545 S
C90 Sm88 2.846 . S
C90 C91 1.506 . S
C90 O108 1.261 . S
C90 O109 1.242 . S
C91 C90 1.506 . S
C91 C92 1.358 . S
C91 C96 1.382 . S
C92 C91 1.358 . S
C92 C93 1.385 . S
C92 H120 0.930 . S
C93 C92 1.385 . S
C93 C94 1.395 . S
C93 H121 0.929 . S
C94 C93 1.395 . S
C94 C95 1.335 . S
C95 C94 1.335 . S
C95 C96 1.398 . S
C95 H122 0.930 . S
C96 C91 1.382 . S
C96 C95 1.398 . S
C96 H123 0.929 . S
C97 O110 1.277 . S
C97 O111 1.252 . S
C98 O112 1.252 . S
C98 O113 1.272 . S
C99 Sm89 2.846 1_565 S
C99 C100 1.506 . S
C99 O114 1.261 . S
C99 O115 1.242 . S
C100 C99 1.506 . S
C100 C101 1.358 . S
C100 C105 1.382 . S
C101 C100 1.358 . S
C101 C102 1.385 . S
C101 H124 0.930 . S
C102 C101 1.385 . S
C102 C103 1.395 . S
C102 H125 0.929 . S
C103 C102 1.395 . S
C103 C104 1.335 . S
C104 C103 1.335 . S
C104 C105 1.398 . S
C104 H126 0.930 . S
C105 C100 1.382 . S
C105 C104 1.398 . S
C105 H127 0.929 . S
C106 O116 1.271 . S
C106 O117 1.251 . S
C107 O118 1.252 . S
C107 O119 1.272 . S
O108 Sm88 2.543 . S
O108 C90 1.261 . S
O109 Sm88 2.450 . S
O109 C90 1.242 . S
O110 Sm88 2.677 1_565 S
O110 Sm89 2.380 1_465 S
O110 C97 1.277 . S
O111 Sm88 2.459 1_565 S
O111 C97 1.252 . S
O112 Sm88 2.396 . S
O112 C98 1.252 . S
O113 Sm89 2.408 1_455 S
O113 C98 1.272 . S
O114 Sm89 2.543 1_565 S
O114 C99 1.261 . S
O115 Sm89 2.450 1_565 S
O115 C99 1.242 . S
O116 Sm88 2.386 1_655 S
O116 Sm89 2.681 . S
O116 C106 1.271 . S
O117 Sm89 2.464 . S
O117 C106 1.251 . S
O118 Sm89 2.396 1_565 S
O118 C107 1.252 . S
O119 Sm88 2.408 1_665 S
O119 C107 1.272 . S
H120 C92 0.930 . S
H121 C93 0.929 . S
H122 C95 0.930 . S
H123 C96 0.929 . S
H124 C101 0.930 . S
H125 C102 0.929 . S
H126 C104 0.930 . S
H127 C105 0.929 . S
Sm128 C130 2.846 . S
Sm128 O148 2.543 . S
Sm128 O149 2.450 . S
Sm128 O150 2.681 1_545 S
Sm128 O151 2.464 1_545 S
Sm128 O152 2.396 . S
Sm128 O156 2.386 . S
Sm128 O159 2.408 1_545 S
Sm129 C139 2.846 1_544 S
Sm129 O150 2.386 1_545 S
Sm129 O153 2.408 . S
Sm129 O154 2.543 1_544 S
Sm129 O155 2.450 1_554 S
Sm129 O156 2.681 . S
Sm129 O157 2.464 1_554 S
Sm129 O158 2.396 1_544 S
C130 Sm128 2.846 . S
C130 C131 1.506 . S
C130 O148 1.261 . S
C130 O149 1.242 . S
C131 C130 1.506 . S
C131 C132 1.358 . S
C131 C136 1.382 . S
C132 C131 1.358 . S
C132 C133 1.385 . S
C132 H160 0.930 . S
C133 C132 1.385 . S
C133 C134 1.395 . S
C133 H161 0.929 . S
C134 C133 1.395 . S
C134 C135 1.335 . S
C135 C134 1.335 . S
C135 C136 1.398 . S
C135 H162 0.930 . S
C136 C131 1.382 . S
C136 C135 1.398 . S
C136 H163 0.929 . S
C137 O150 1.271 . S
C137 O151 1.251 . S
C138 O152 1.252 . S
C138 O153 1.272 . S
C139 Sm129 2.846 1_566 S
C139 C140 1.506 . S
C139 O154 1.261 . S
C139 O155 1.242 1_565 S
C140 C139 1.506 . S
C140 C141 1.358 . S
C140 C145 1.382 . S
C141 C140 1.358 . S
C141 C142 1.385 . S
C141 H164 0.930 . S
C142 C141 1.385 . S
C142 C143 1.395 . S
C142 H165 0.929 . S
C143 C142 1.395 . S
C143 C144 1.335 . S
C144 C143 1.335 . S
C144 C145 1.398 . S
C144 H166 0.930 . S
C145 C140 1.382 . S
C145 C144 1.398 . S
C145 H167 0.929 1_565 S
C146 O156 1.271 1_556 S
C146 O157 1.251 . S
C147 O158 1.252 . S
C147 O159 1.272 1_556 S
O148 Sm128 2.543 . S
O148 C130 1.261 . S
O149 Sm128 2.450 . S
O149 C130 1.242 . S
O150 Sm128 2.681 1_565 S
O150 Sm129 2.386 1_565 S
O150 C137 1.271 . S
O151 Sm128 2.464 1_565 S
O151 C137 1.251 . S
O152 Sm128 2.396 . S
O152 C138 1.252 . S
O153 Sm129 2.408 . S
O153 C138 1.272 . S
O154 Sm129 2.543 1_566 S
O154 C139 1.261 . S
O155 Sm129 2.450 1_556 S
O155 C139 1.242 1_545 S
O156 Sm128 2.386 . S
O156 Sm129 2.681 . S
O156 C146 1.271 1_554 S
O157 Sm129 2.464 1_556 S
O157 C146 1.251 . S
O158 Sm129 2.396 1_566 S
O158 C147 1.252 . S
O159 Sm128 2.408 1_565 S
O159 C147 1.272 1_554 S
H160 C132 0.930 . S
H161 C133 0.929 . S
H162 C135 0.930 . S
H163 C136 0.929 . S
H164 C141 0.930 . S
H165 C142 0.929 . S
H166 C144 0.930 . S
H167 C145 0.929 1_545 S
Sm168 C170 2.846 . S
Sm168 O188 2.543 . S
Sm168 O189 2.450 . S
Sm168 O190 2.681 . S
Sm168 O191 2.464 . S
Sm168 O192 2.396 . S
Sm168 O196 2.386 . S
Sm168 O199 2.408 . S
Sm169 C179 2.846 . S
Sm169 O190 2.386 . S
Sm169 O193 2.408 . S
Sm169 O194 2.543 . S
Sm169 O195 2.450 . S
Sm169 O196 2.681 . S
Sm169 O197 2.464 . S
Sm169 O198 2.396 . S
C170 Sm168 2.846 . S
C170 C171 1.506 . S
C170 O188 1.261 . S
C170 O189 1.242 . S
C171 C170 1.506 . S
C171 C172 1.358 . S
C171 C176 1.382 . S
C172 C171 1.358 . S
C172 C173 1.385 . S
C172 H200 0.930 . S
C173 C172 1.385 . S
C173 C174 1.395 . S
C173 H201 0.929 . S
C174 C173 1.395 . S
C174 C175 1.335 . S
C175 C174 1.335 . S
C175 C176 1.398 . S
C175 H202 0.930 . S
C176 C171 1.382 . S
C176 C175 1.398 . S
C176 H203 0.929 . S
C177 O190 1.271 . S
C177 O191 1.251 . S
C178 O192 1.252 . S
C178 O193 1.272 . S
C179 Sm169 2.846 . S
C179 C180 1.506 . S
C179 O194 1.261 . S
C179 O195 1.242 . S
C180 C179 1.506 . S
C180 C181 1.358 . S
C180 C185 1.382 . S
C181 C180 1.358 . S
C181 C182 1.385 . S
C181 H204 0.930 . S
C182 C181 1.385 . S
C182 C183 1.395 . S
C182 H205 0.929 . S
C183 C182 1.395 . S
C183 C184 1.335 . S
C184 C183 1.335 . S
C184 C185 1.398 . S
C184 H206 0.930 . S
C185 C180 1.382 . S
C185 C184 1.398 . S
C185 H207 0.929 . S
C186 O196 1.271 . S
C186 O197 1.251 . S
C187 O198 1.252 . S
C187 O199 1.272 . S
O188 Sm168 2.543 . S
O188 C170 1.261 . S
O189 Sm168 2.450 . S
O189 C170 1.242 . S
O190 Sm168 2.681 . S
O190 Sm169 2.386 . S
O190 C177 1.271 . S
O191 Sm168 2.464 . S
O191 C177 1.251 . S
O192 Sm168 2.396 . S
O192 C178 1.252 . S
O193 Sm169 2.408 . S
O193 C178 1.272 . S
O194 Sm169 2.543 . S
O194 C179 1.261 . S
O195 Sm169 2.450 . S
O195 C179 1.242 . S
O196 Sm168 2.386 . S
O196 Sm169 2.681 . S
O196 C186 1.271 . S
O197 Sm169 2.464 . S
O197 C186 1.251 . S
O198 Sm169 2.396 . S
O198 C187 1.252 . S
O199 Sm168 2.408 . S
O199 C187 1.272 . S
H200 C172 0.930 . S
H201 C173 0.929 . S
H202 C175 0.930 . S
H203 C176 0.929 . S
H204 C181 0.930 . S
H205 C182 0.929 . S
H206 C184 0.930 . S
H207 C185 0.929 . S
Sm208 C210 2.846 . S
Sm208 O228 2.543 . S
Sm208 O229 2.450 . S
Sm208 O230 2.681 1_455 S
Sm208 O231 2.464 1_455 S
Sm208 O232 2.396 . S
Sm208 O236 2.386 1_554 S
Sm208 O239 2.408 1_455 S
Sm209 C219 2.846 1_455 S
Sm209 O230 2.386 1_456 S
Sm209 O233 2.408 1_556 S
Sm209 O234 2.543 1_455 S
Sm209 O235 2.450 1_455 S
Sm209 O236 2.681 . S
Sm209 O237 2.464 . S
Sm209 O238 2.396 1_455 S
C210 Sm208 2.846 . S
C210 C211 1.506 . S
C210 O228 1.261 . S
C210 O229 1.242 . S
C211 C210 1.506 . S
C211 C212 1.358 . S
C211 C216 1.382 . S
C212 C211 1.358 . S
C212 C213 1.385 . S
C212 H240 0.930 . S
C213 C212 1.385 . S
C213 C214 1.395 . S
C213 H241 0.929 . S
C214 C213 1.395 . S
C214 C215 1.335 . S
C215 C214 1.335 . S
C215 C216 1.398 . S
C215 H242 0.930 . S
C216 C211 1.382 . S
C216 C215 1.398 . S
C216 H243 0.929 . S
C217 O230 1.271 . S
C217 O231 1.251 . S
C218 O232 1.252 . S
C218 O233 1.272 . S
C219 Sm209 2.846 1_655 S
C219 C220 1.506 . S
C219 O234 1.261 . S
C219 O235 1.242 . S
C220 C219 1.506 . S
C220 C221 1.358 . S
C220 C225 1.382 . S
C221 C220 1.358 . S
C221 C222 1.385 . S
C221 H244 0.930 . S
C222 C221 1.385 . S
C222 C223 1.395 . S
C222 H245 0.929 . S
C223 C222 1.395 . S
C223 C224 1.335 . S
C224 C223 1.335 . S
C224 C225 1.398 . S
C224 H246 0.930 . S
C225 C220 1.382 . S
C225 C224 1.398 . S
C225 H247 0.929 . S
C226 O236 1.271 . S
C226 O237 1.251 . S
C227 O238 1.252 . S
C227 O239 1.272 1_556 S
O228 Sm208 2.543 . S
O228 C210 1.261 . S
O229 Sm208 2.450 . S
O229 C210 1.242 . S
O230 Sm208 2.681 1_655 S
O230 Sm209 2.386 1_654 S
O230 C217 1.271 . S
O231 Sm208 2.464 1_655 S
O231 C217 1.251 . S
O232 Sm208 2.396 . S
O232 C218 1.252 . S
O233 Sm209 2.408 1_554 S
O233 C218 1.272 . S
O234 Sm209 2.543 1_655 S
O234 C219 1.261 . S
O235 Sm209 2.450 1_655 S
O235 C219 1.242 . S
O236 Sm208 2.386 1_556 S
O236 Sm209 2.681 . S
O236 C226 1.271 . S
O237 Sm209 2.464 . S
O237 C226 1.251 . S
O238 Sm209 2.396 1_655 S
O238 C227 1.252 . S
O239 Sm208 2.408 1_655 S
O239 C227 1.272 1_554 S
H240 C212 0.930 . S
H241 C213 0.929 . S
H242 C215 0.930 . S
H243 C216 0.929 . S
H244 C221 0.930 . S
H245 C222 0.929 . S
H246 C224 0.930 . S
H247 C225 0.929 . S
C6 C94 1.460 . S
C20 C143 1.715 . S
C178 N26 3.201 . S
N37 C217 3.451 . S
C138 C9 3.327 . S
C97 N15 2.080 1_455 S
C227 C31 2.777 . S
C186 C39 2.631 . S
N4 C214 2.012 . S
C146 C28 3.727 . S
C42 C107 3.167 . S
C17 C183 2.859 . S
C103 C50 1.127 . S
C61 C134 1.862 . S
N70 C187 3.545 . S
N81 C226 3.319 . S
N48 C147 3.361 . S
C106 C64 1.387 . S
C218 C75 2.518 . S
C177 C86 2.440 . S
C53 C223 2.477 . S
C137 C72 2.883 . S
C98 C83 3.867 . S
N59 C174 1.962 . S
