# Generated by pormake.
# Topology ctn, (3,4)-cn, num edge types: 1
# Building blocks:
#     Node 0, Type 0, BuildingBlock: KAKCAD_clean_linker_0, # of connection points: 3
#     Node 1, Type 0, BuildingBlock: KAKCAD_clean_linker_0, # of connection points: 3
#     Node 2, Type 0, BuildingBlock: KAKCAD_clean_linker_0, # of connection points: 3
#     Node 3, Type 0, BuildingBlock: KAKCAD_clean_linker_0, # of connection points: 3
#     Node 4, Type 0, BuildingBlock: KAKCAD_clean_linker_0, # of connection points: 3
#     Node 5, Type 0, BuildingBlock: KAKCAD_clean_linker_0, # of connection points: 3
#     Node 6, Type 0, BuildingBlock: KAKCAD_clean_linker_0, # of connection points: 3
#     Node 7, Type 0, BuildingBlock: KAKCAD_clean_linker_0, # of connection points: 3
#     Node 8, Type 0, BuildingBlock: KAKCAD_clean_linker_0, # of connection points: 3
#     Node 9, Type 0, BuildingBlock: KAKCAD_clean_linker_0, # of connection points: 3
#     Node 10, Type 0, BuildingBlock: KAKCAD_clean_linker_0, # of connection points: 3
#     Node 11, Type 0, BuildingBlock: KAKCAD_clean_linker_0, # of connection points: 3
#     Node 12, Type 0, BuildingBlock: KAKCAD_clean_linker_0, # of connection points: 3
#     Node 13, Type 0, BuildingBlock: KAKCAD_clean_linker_0, # of connection points: 3
#     Node 14, Type 0, BuildingBlock: KAKCAD_clean_linker_0, # of connection points: 3
#     Node 15, Type 0, BuildingBlock: KAKCAD_clean_linker_0, # of connection points: 3
#     Node 16, Type 1, BuildingBlock: UXUYUI_clean_sbu_0, # of connection points: 4
#     Node 17, Type 1, BuildingBlock: UXUYUI_clean_sbu_0, # of connection points: 4
#     Node 18, Type 1, BuildingBlock: UXUYUI_clean_sbu_0, # of connection points: 4
#     Node 19, Type 1, BuildingBlock: UXUYUI_clean_sbu_0, # of connection points: 4
#     Node 20, Type 1, BuildingBlock: UXUYUI_clean_sbu_0, # of connection points: 4
#     Node 21, Type 1, BuildingBlock: UXUYUI_clean_sbu_0, # of connection points: 4
#     Node 22, Type 1, BuildingBlock: UXUYUI_clean_sbu_0, # of connection points: 4
#     Node 23, Type 1, BuildingBlock: UXUYUI_clean_sbu_0, # of connection points: 4
#     Node 24, Type 1, BuildingBlock: UXUYUI_clean_sbu_0, # of connection points: 4
#     Node 25, Type 1, BuildingBlock: UXUYUI_clean_sbu_0, # of connection points: 4
#     Node 26, Type 1, BuildingBlock: UXUYUI_clean_sbu_0, # of connection points: 4
#     Node 27, Type 1, BuildingBlock: UXUYUI_clean_sbu_0, # of connection points: 4
#     Edge 28, Type (0, 1), BuildingBlock: EZIPEK_clean_linker_0, # of connection points: 2
#     Edge 29, Type (0, 1), BuildingBlock: EZIPEK_clean_linker_0, # of connection points: 2
#     Edge 30, Type (0, 1), BuildingBlock: EZIPEK_clean_linker_0, # of connection points: 2
#     Edge 31, Type (0, 1), BuildingBlock: EZIPEK_clean_linker_0, # of connection points: 2
#     Edge 32, Type (0, 1), BuildingBlock: EZIPEK_clean_linker_0, # of connection points: 2
#     Edge 33, Type (0, 1), BuildingBlock: EZIPEK_clean_linker_0, # of connection points: 2
#     Edge 34, Type (0, 1), BuildingBlock: EZIPEK_clean_linker_0, # of connection points: 2
#     Edge 35, Type (0, 1), BuildingBlock: EZIPEK_clean_linker_0, # of connection points: 2
#     Edge 36, Type (0, 1), BuildingBlock: EZIPEK_clean_linker_0, # of connection points: 2
#     Edge 37, Type (0, 1), BuildingBlock: EZIPEK_clean_linker_0, # of connection points: 2
#     Edge 38, Type (0, 1), BuildingBlock: EZIPEK_clean_linker_0, # of connection points: 2
#     Edge 39, Type (0, 1), BuildingBlock: EZIPEK_clean_linker_0, # of connection points: 2
#     Edge 40, Type (0, 1), BuildingBlock: EZIPEK_clean_linker_0, # of connection points: 2
#     Edge 41, Type (0, 1), BuildingBlock: EZIPEK_clean_linker_0, # of connection points: 2
#     Edge 42, Type (0, 1), BuildingBlock: EZIPEK_clean_linker_0, # of connection points: 2
#     Edge 43, Type (0, 1), BuildingBlock: EZIPEK_clean_linker_0, # of connection points: 2
#     Edge 44, Type (0, 1), BuildingBlock: EZIPEK_clean_linker_0, # of connection points: 2
#     Edge 45, Type (0, 1), BuildingBlock: EZIPEK_clean_linker_0, # of connection points: 2
#     Edge 46, Type (0, 1), BuildingBlock: EZIPEK_clean_linker_0, # of connection points: 2
#     Edge 47, Type (0, 1), BuildingBlock: EZIPEK_clean_linker_0, # of connection points: 2
#     Edge 48, Type (0, 1), BuildingBlock: EZIPEK_clean_linker_0, # of connection points: 2
#     Edge 49, Type (0, 1), BuildingBlock: EZIPEK_clean_linker_0, # of connection points: 2
#     Edge 50, Type (0, 1), BuildingBlock: EZIPEK_clean_linker_0, # of connection points: 2
#     Edge 51, Type (0, 1), BuildingBlock: EZIPEK_clean_linker_0, # of connection points: 2
#     Edge 52, Type (0, 1), BuildingBlock: EZIPEK_clean_linker_0, # of connection points: 2
#     Edge 53, Type (0, 1), BuildingBlock: EZIPEK_clean_linker_0, # of connection points: 2
#     Edge 54, Type (0, 1), BuildingBlock: EZIPEK_clean_linker_0, # of connection points: 2
#     Edge 55, Type (0, 1), BuildingBlock: EZIPEK_clean_linker_0, # of connection points: 2
#     Edge 56, Type (0, 1), BuildingBlock: EZIPEK_clean_linker_0, # of connection points: 2
#     Edge 57, Type (0, 1), BuildingBlock: EZIPEK_clean_linker_0, # of connection points: 2
#     Edge 58, Type (0, 1), BuildingBlock: EZIPEK_clean_linker_0, # of connection points: 2
#     Edge 59, Type (0, 1), BuildingBlock: EZIPEK_clean_linker_0, # of connection points: 2
#     Edge 60, Type (0, 1), BuildingBlock: EZIPEK_clean_linker_0, # of connection points: 2
#     Edge 61, Type (0, 1), BuildingBlock: EZIPEK_clean_linker_0, # of connection points: 2
#     Edge 62, Type (0, 1), BuildingBlock: EZIPEK_clean_linker_0, # of connection points: 2
#     Edge 63, Type (0, 1), BuildingBlock: EZIPEK_clean_linker_0, # of connection points: 2
#     Edge 64, Type (0, 1), BuildingBlock: EZIPEK_clean_linker_0, # of connection points: 2
#     Edge 65, Type (0, 1), BuildingBlock: EZIPEK_clean_linker_0, # of connection points: 2
#     Edge 66, Type (0, 1), BuildingBlock: EZIPEK_clean_linker_0, # of connection points: 2
#     Edge 67, Type (0, 1), BuildingBlock: EZIPEK_clean_linker_0, # of connection points: 2
#     Edge 68, Type (0, 1), BuildingBlock: EZIPEK_clean_linker_0, # of connection points: 2
#     Edge 69, Type (0, 1), BuildingBlock: EZIPEK_clean_linker_0, # of connection points: 2
#     Edge 70, Type (0, 1), BuildingBlock: EZIPEK_clean_linker_0, # of connection points: 2
#     Edge 71, Type (0, 1), BuildingBlock: EZIPEK_clean_linker_0, # of connection points: 2
#     Edge 72, Type (0, 1), BuildingBlock: EZIPEK_clean_linker_0, # of connection points: 2
#     Edge 73, Type (0, 1), BuildingBlock: EZIPEK_clean_linker_0, # of connection points: 2
#     Edge 74, Type (0, 1), BuildingBlock: EZIPEK_clean_linker_0, # of connection points: 2
#     Edge 75, Type (0, 1), BuildingBlock: EZIPEK_clean_linker_0, # of connection points: 2
# Relax obj value: 0.000
# Max RMSD: 0.005
# Mean RMSD: 0.004
data_MOF--net-ctn--node1-UXUYUI_clean_sbu_0--node2-KAKCAD_clean_linker_0--edge1-EZIPEK_clean_linker_0
_symmetry_space_group_name_H-M    P1
_symmetry_Int_Tables_number       1
_symmetry_cell_setting            triclinic
loop_
_symmetry_equiv_pos_as_xyz
'x, y, z'
_cell_length_a     65.545367
_cell_length_b     65.467629
_cell_length_c     65.419159
_cell_angle_alpha  90.098953
_cell_angle_beta   90.292294
_cell_angle_gamma 90.199743
loop_
_atom_site_label
_atom_site_type_symbol
_atom_site_fract_x
_atom_site_fract_y
_atom_site_fract_z
_atom_type_partial_charge
C0 C 0.03799 0.09557 0.98554 0.0
C1 C 0.03222 0.11463 0.99338 0.0
C2 C 0.0411 0.07904 0.99869 0.0
C3 C 0.03847 0.0813 0.01992 0.0
C4 C 0.03275 0.10051 0.02767 0.0
C5 C 0.02966 0.11702 0.01451 0.0
C6 C 0.04148 0.06364 0.03389 0.0
C7 C 0.05787 0.05016 0.03106 0.0
C8 C 0.06069 0.03324 0.04401 0.0
C9 C 0.04681 0.03003 0.06006 0.0
C10 C 0.0305 0.04352 0.06333 0.0
C11 C 0.02792 0.0602 0.0501 0.0
C12 C 0.01623 0.04035 0.08066 0.0
C13 C 0.00887 0.0207 0.08539 0.0
C14 C 0.00992 0.05701 0.09267 0.0
C15 C 0.99664 0.05408 0.10907 0.0
C16 C 0.9894 0.03448 0.11371 0.0
C17 C 0.07823 0.01911 0.04089 0.0
C18 C 0.08481 0.01411 0.02104 0.0
C19 C 0.08867 0.01063 0.05771 0.0
C20 C 0.10517 0.99748 0.05475 0.0
C21 C 0.11175 0.99274 0.03494 0.0
C22 C 0.10147 1.00117 0.01811 0.0
C23 C 0.99554 0.01781 0.10177 0.0
H24 H 0.03998 0.09349 0.96924 0.0
H25 H 0.04526 0.06441 0.99221 0.0
H26 H 0.03085 0.10283 0.04394 0.0
H27 H 0.02527 0.13168 0.02078 0.0
H28 H 0.06877 0.0532 0.01904 0.0
H29 H 0.015 0.07028 0.05215 0.0
H30 H 0.04875 0.01707 0.07013 0.0
H31 H 0.01324 0.00761 0.0763 0.0
H32 H 0.0155 0.07228 0.08959 0.0
H33 H 0.99209 0.06709 0.11821 0.0
H34 H 0.07698 0.02004 0.00771 0.0
H35 H 0.08432 0.01437 0.07321 0.0
H36 H 0.99005 1.00257 0.10519 0.0
H37 H 0.10631 0.99763 1.0027 0.0
H38 H 0.11296 0.99114 0.06793 0.0
C39 C 0.35192 0.74834 0.2659 0.0
C40 C 0.36491 0.7321 0.27099 0.0
C41 C 0.33546 0.74521 0.25257 0.0
C42 C 0.33155 0.72573 0.24432 0.0
C43 C 0.34454 0.70948 0.24952 0.0
C44 C 0.36116 0.71268 0.26264 0.0
C45 C 0.31388 0.72235 0.23043 0.0
C46 C 0.31022 0.73573 0.21407 0.0
C47 C 0.29345 0.73276 0.20087 0.0
C48 C 0.28022 0.71615 0.20439 0.0
C49 C 0.2837 0.70255 0.22066 0.0
C50 C 0.30063 0.70578 0.23355 0.0
C51 C 0.26966 0.68502 0.22426 0.0
C52 C 0.24839 0.68743 0.22247 0.0
C53 C 0.27742 0.66572 0.22964 0.0
C54 C 0.26425 0.64928 0.23317 0.0
C55 C 0.24309 0.65182 0.23138 0.0
C56 C 0.28992 0.74684 0.18331 0.0
C57 C 0.29372 0.76795 0.18528 0.0
C58 C 0.28292 0.73928 0.16434 0.0
C59 C 0.27979 0.75247 0.14784 0.0
C60 C 0.28378 0.77342 0.14991 0.0
C61 C 0.29078 0.78108 0.16871 0.0
C62 C 0.23522 0.67097 0.226 0.0
H63 H 0.35456 0.76342 0.27225 0.0
H64 H 0.32559 0.75796 0.24894 0.0
H65 H 0.34196 0.69436 0.24326 0.0
H66 H 0.37107 0.69999 0.26636 0.0
H67 H 0.32081 0.74816 0.21133 0.0
H68 H 0.30322 0.69568 0.24642 0.0
H69 H 0.26718 0.71376 0.19443 0.0
H70 H 0.24189 0.70213 0.21863 0.0
H71 H 0.29371 0.66327 0.2309 0.0
H72 H 0.27054 0.63455 0.23725 0.0
H73 H 0.2988 0.77438 0.1997 0.0
H74 H 0.28016 0.72311 0.16211 0.0
H75 H 0.2189 0.67316 0.22461 0.0
H76 H 0.29384 0.79726 0.17055 0.0
H77 H 0.27445 0.74633 0.13338 0.0
C78 C 1.0022 0.48826 0.11548 0.0
C79 C 0.0231 0.48431 0.11354 0.0
C80 C 0.989 0.48511 0.09891 0.0
C81 C 0.9965 0.4781 0.08002 0.0
C82 C 0.01756 0.47438 0.07816 0.0
C83 C 0.03072 0.47738 0.0948 0.0
C84 C 0.98235 0.47437 0.06249 0.0
C85 C 0.96585 0.48756 0.05876 0.0
C86 C 0.95198 0.48371 0.04275 0.0
C87 C 0.95483 0.4665 0.03022 0.0
C88 C 0.97144 0.45338 0.03341 0.0
C89 C 0.98507 0.45738 0.0496 0.0
C90 C 0.97466 0.43554 0.01978 0.0
C91 C 0.95837 0.42242 0.0147 0.0
C92 C 0.99409 0.43154 0.01171 0.0
C93 C 0.99714 0.41486 0.99873 0.0
C94 C 0.98087 0.40173 0.99379 0.0
C95 C 0.93452 0.49767 0.03911 0.0
C96 C 0.93745 0.51896 0.03909 0.0
C97 C 0.91479 0.48979 0.03578 0.0
C98 C 0.8983 0.50294 0.0327 0.0
C99 C 0.90129 0.52418 0.03268 0.0
C100 C 0.92099 0.5321 0.03579 0.0
C101 C 0.96148 0.40558 1.00192 0.0
H102 H 0.9961 0.49353 0.12991 0.0
H103 H 0.97286 0.48781 0.10104 0.0
H104 H 0.02393 0.46927 0.06379 0.0
H105 H 0.04685 0.47433 0.09307 0.0
H106 H 0.96369 0.50084 0.06841 0.0
H107 H 0.99748 0.44686 0.05247 0.0
H108 H 0.94441 0.46365 0.01761 0.0
H109 H 0.94328 0.42505 0.02083 0.0
H110 H 0.00688 0.4415 0.01522 0.0
H111 H 0.01219 0.41214 0.99255 0.0
H112 H 0.95251 0.52545 0.04141 0.0
H113 H 0.91206 0.47346 0.0359 0.0
H114 H 0.94876 0.39557 0.9983 0.0
H115 H 0.92357 0.54845 0.03576 0.0
H116 H 0.88319 0.49658 0.03036 0.0
C117 C 0.71099 0.74732 0.15833 0.0
C118 C 0.73083 0.74121 0.15338 0.0
C119 C 0.70767 0.76046 0.17484 0.0
C120 C 0.72416 0.76772 0.18667 0.0
C121 C 0.74404 0.76145 0.18166 0.0
C122 C 0.74734 0.74829 0.16515 0.0
C123 C 0.72064 0.78197 0.20404 0.0
C124 C 0.70415 0.77888 0.21736 0.0
C125 C 0.70051 0.79242 0.23363 0.0
C126 C 0.71358 0.80928 0.23644 0.0
C127 C 0.73017 0.81258 0.22333 0.0
C128 C 0.73361 0.79883 0.20721 0.0
C129 C 0.74384 0.83049 0.22637 0.0
C130 C 0.73567 0.84996 0.23022 0.0
C131 C 0.76514 0.82825 0.22541 0.0
C132 C 0.77801 0.84509 0.22836 0.0
C133 C 0.76978 0.86448 0.23215 0.0
C134 C 0.68309 0.78894 0.2477 0.0
C135 C 0.66391 0.78283 0.24002 0.0
C136 C 0.68549 0.7917 0.26892 0.0
C137 C 0.6691 0.78845 0.28213 0.0
C138 C 0.65003 0.78241 0.27436 0.0
C139 C 0.64753 0.77961 0.25324 0.0
C140 C 0.74854 0.86682 0.233 0.0
H141 H 0.6981 0.74202 0.14932 0.0
H142 H 0.69221 0.7652 0.17812 0.0
H143 H 0.75704 0.76657 0.19061 0.0
H144 H 0.76275 0.74367 0.16151 0.0
H145 H 0.69441 0.76561 0.21536 0.0
H146 H 0.74609 0.80162 0.19676 0.0
H147 H 0.71084 0.81987 0.24886 0.0
H148 H 0.71932 0.85219 0.23083 0.0
H149 H 0.77187 0.81342 0.22265 0.0
H150 H 0.79438 0.84302 0.2277 0.0
H151 H 0.6615 0.7808 0.22375 0.0
H152 H 0.70011 0.79614 0.27535 0.0
H153 H 0.74195 0.88171 0.23585 0.0
H154 H 0.63287 0.775 0.24702 0.0
H155 H 0.67127 0.79061 0.29842 0.0
C156 C 0.98262 0.97961 0.42161 0.0
C157 C 0.99008 0.98521 0.40236 0.0
C158 C 0.99611 0.97611 0.43785 0.0
C159 C 0.01731 0.97817 0.43509 0.0
C160 C 0.02466 0.9839 0.41574 0.0
C161 C 0.01116 0.9874 0.39953 0.0
C162 C 0.03177 0.97412 0.45221 0.0
C163 C 0.02871 0.95742 0.46532 0.0
C164 C 0.0427 0.9531 0.48105 0.0
C165 C 0.05994 0.96568 0.48361 0.0
C166 C 0.06314 0.98268 0.47087 0.0
C167 C 0.04889 0.98677 0.45526 0.0
C168 C 0.08124 0.99623 0.47389 0.0
C169 C 0.08838 1.00098 0.49369 0.0
C170 C 0.09143 1.00471 0.45699 0.0
C171 C 0.10814 0.01775 0.45981 0.0
C172 C 0.11517 0.02239 0.47957 0.0
C173 C 0.03931 0.93538 0.49477 0.0
C174 C 0.02005 0.93196 0.50353 0.0
C175 C 0.05529 0.92179 0.49923 0.0
C176 C 0.05205 0.90507 0.51211 0.0
C177 C 0.03283 0.9018 0.52092 0.0
C178 C 0.01688 0.91538 0.51658 0.0
C179 C 0.10524 0.01384 0.49648 0.0
H180 H 0.96636 0.97791 0.42402 0.0
H181 H 0.98995 0.97195 0.4526 0.0
H182 H 0.04088 0.98535 0.41302 0.0
H183 H 0.01714 0.99164 0.38472 0.0
H184 H 0.01574 0.94737 0.46293 0.0
H185 H 0.05088 1.0001 0.44569 0.0
H186 H 0.07084 0.96221 0.4956 0.0
H187 H 0.08076 0.99503 0.50707 0.0
H188 H 0.08662 1.00114 0.44153 0.0
H189 H 0.11567 0.02417 0.44658 0.0
H190 H 0.00752 0.94228 0.50049 0.0
H191 H 0.07023 0.92395 0.49255 0.0
H192 H 0.11045 0.0173 0.51185 0.0
H193 H 1.00197 0.9131 0.5233 0.0
H194 H 0.06451 0.8947 0.51525 0.0
C195 C 0.15356 0.71406 0.75006 0.0
C196 C 0.14974 0.73353 0.74196 0.0
C197 C 0.17022 0.71091 0.76309 0.0
C198 C 0.18319 0.72723 0.76847 0.0
C199 C 0.17925 0.74673 0.76043 0.0
C200 C 0.16275 0.74982 0.74717 0.0
C201 C 0.20074 0.72391 0.78249 0.0
C202 C 0.21397 0.70736 0.77944 0.0
C203 C 0.23064 0.70408 0.79263 0.0
C204 C 0.23379 0.71747 0.80919 0.0
C205 C 0.22064 0.73406 0.81255 0.0
C206 C 0.20424 0.73723 0.79901 0.0
C207 C 0.22387 0.7479 0.83034 0.0
C208 C 0.22886 0.73991 0.84969 0.0
C209 C 0.22185 0.76918 0.82816 0.0
C210 C 0.22476 0.78216 0.84493 0.0
C211 C 0.22967 0.77408 0.86416 0.0
C212 C 0.24483 0.68675 0.78903 0.0
C213 C 0.23728 0.66742 0.78326 0.0
C214 C 0.26605 0.68943 0.79126 0.0
C215 C 0.27938 0.67317 0.78781 0.0
C216 C 0.27174 0.65396 0.78208 0.0
C217 C 0.25063 0.65117 0.77983 0.0
C218 C 0.23171 0.7529 0.86646 0.0
H219 H 0.14364 0.70133 0.74624 0.0
H220 H 0.1728 0.69576 0.76921 0.0
H221 H 0.1891 0.75953 0.76419 0.0
H222 H 0.16006 0.76493 0.74101 0.0
H223 H 0.21157 0.69735 0.76643 0.0
H224 H 0.19378 0.74974 0.80166 0.0
H225 H 0.2465 0.71497 0.81952 0.0
H226 H 0.23027 0.72359 0.85194 0.0
H227 H 0.21823 0.77582 0.81343 0.0
H228 H 0.22318 0.7985 0.84294 0.0
H229 H 0.22103 0.66477 0.78164 0.0
H230 H 0.27238 0.70418 0.79541 0.0
H231 H 0.23545 0.74645 0.88124 0.0
H232 H 0.24451 0.63639 0.77547 0.0
H233 H 0.29566 0.67557 0.78955 0.0
C234 C 0.98494 0.61691 0.49846 0.0
C235 C 0.98232 0.61492 0.51962 0.0
C236 C 0.98179 0.60014 0.48554 0.0
C237 C 0.97593 0.58108 0.49357 0.0
C238 C 0.97331 0.57922 0.51484 0.0
C239 C 0.97648 0.59599 0.52773 0.0
C240 C 0.97269 0.56315 0.47989 0.0
C241 C 0.98612 0.5593 0.46367 0.0
C242 C 0.98343 0.54216 0.45099 0.0
C243 C 0.96709 0.52874 0.45467 0.0
C244 C 0.95323 0.53247 0.47059 0.0
C245 C 0.9562 0.54975 0.4831 0.0
C246 C 0.9355 0.51854 0.47398 0.0
C247 C 0.92495 0.50979 0.45731 0.0
C248 C 0.92884 0.51403 0.49392 0.0
C249 C 0.91197 0.50131 0.49707 0.0
C250 C 0.90157 0.49263 0.48038 0.0
C251 C 0.99762 0.53836 0.43378 0.0
C252 C 1.00288 0.55427 0.42036 0.0
C253 C 1.00586 0.51882 0.43054 0.0
C254 C 0.01914 0.51529 0.41425 0.0
C255 C 0.0242 0.53116 0.40078 0.0
C256 C 0.01596 0.55067 0.40394 0.0
C257 C 0.90823 0.49688 0.46049 0.0
H258 H 0.98939 0.63147 0.49197 0.0
H259 H 0.98371 0.60216 0.46923 0.0
H260 H 0.96907 0.56471 0.52155 0.0
H261 H 0.97445 0.59421 0.54406 0.0
H262 H 0.99904 0.56937 0.4612 0.0
H263 H 0.94536 0.55312 0.49507 0.0
H264 H 0.96513 0.51542 0.44499 0.0
H265 H 0.92937 0.51316 0.44175 0.0
H266 H 0.93675 0.5202 0.50714 0.0
H267 H 0.90707 0.49814 0.51253 0.0
H268 H 0.99662 0.56942 0.42239 0.0
H269 H 1.0022 0.50634 0.44075 0.0
H270 H 0.90033 0.49036 0.44742 0.0
H271 H 0.01968 0.56308 0.39367 0.0
H272 H 0.02541 0.50016 0.41208 0.0
C273 C 0.80452 0.74793 0.85646 0.0
C274 C 0.7847 0.74363 0.86323 0.0
C275 C 0.80764 0.7611 0.83995 0.0
C276 C 0.79097 0.77003 0.82968 0.0
C277 C 0.7711 0.76549 0.83648 0.0
C278 C 0.76802 0.75254 0.85317 0.0
C279 C 0.79427 0.78402 0.81201 0.0
C280 C 0.81011 0.78041 0.79804 0.0
C281 C 0.81347 0.79362 0.78146 0.0
C282 C 0.80049 0.81045 0.77869 0.0
C283 C 0.78446 0.81428 0.79236 0.0
C284 C 0.78161 0.80109 0.80905 0.0
C285 C 0.77069 0.83206 0.78927 0.0
C286 C 0.77854 0.85116 0.78324 0.0
C287 C 0.74953 0.83005 0.79233 0.0
C288 C 0.73656 0.84672 0.78945 0.0
C289 C 0.74449 0.86569 0.78345 0.0
C290 C 0.83062 0.78986 0.76712 0.0
C291 C 0.84988 0.78394 0.77461 0.0
C292 C 0.82795 0.79229 0.7459 0.0
C293 C 0.84417 0.78892 0.73251 0.0
C294 C 0.86333 0.7831 0.7401 0.0
C295 C 0.86608 0.7806 0.76121 0.0
C296 C 0.76554 0.86782 0.78035 0.0
H297 H 0.81758 0.74123 0.86408 0.0
H298 H 0.82316 0.76448 0.83543 0.0
H299 H 0.75787 0.77174 0.82878 0.0
H300 H 0.75261 0.74934 0.85816 0.0
H301 H 0.81962 0.76702 0.79978 0.0
H302 H 0.76977 0.80444 0.82003 0.0
H303 H 0.80289 0.82062 0.76587 0.0
H304 H 0.79477 0.8533 0.78101 0.0
H305 H 0.74296 0.81552 0.79671 0.0
H306 H 0.72032 0.84483 0.79185 0.0
H307 H 0.85252 0.78219 0.79086 0.0
H308 H 0.81326 0.79659 0.73962 0.0
H309 H 0.77189 0.88239 0.77576 0.0
H310 H 0.88082 0.77617 0.7673 0.0
H311 H 0.8418 0.79085 0.71622 0.0
C312 C 0.30588 0.24712 0.35674 0.0
C313 C 0.28612 0.24249 0.36347 0.0
C314 C 0.30881 0.26012 0.34007 0.0
C315 C 0.292 0.26858 0.32962 0.0
C316 C 0.2722 0.26375 0.3364 0.0
C317 C 0.2693 0.25093 0.35322 0.0
C318 C 0.29513 0.28242 0.3118 0.0
C319 C 0.31098 0.2788 0.29785 0.0
C320 C 0.31425 0.29191 0.28117 0.0
C321 C 0.30125 0.30871 0.27837 0.0
C322 C 0.28521 0.31252 0.29201 0.0
C323 C 0.28234 0.29937 0.30871 0.0
C324 C 0.27146 0.33028 0.28885 0.0
C325 C 0.27943 0.34948 0.28336 0.0
C326 C 0.25023 0.32813 0.29122 0.0
C327 C 0.23728 0.34477 0.2881 0.0
C328 C 0.24532 0.36387 0.28265 0.0
C329 C 0.33133 0.2881 0.26676 0.0
C330 C 0.35064 0.28223 0.27415 0.0
C331 C 0.32851 0.29044 0.24555 0.0
C332 C 0.34466 0.28709 0.23207 0.0
C333 C 0.36388 0.28135 0.23956 0.0
C334 C 0.36677 0.2789 0.26066 0.0
C335 C 0.26647 0.36614 0.28033 0.0
H336 H 0.31904 0.24078 0.36452 0.0
H337 H 0.32427 0.26374 0.33556 0.0
H338 H 0.25889 0.26967 0.32857 0.0
H339 H 0.25393 0.24747 0.35818 0.0
H340 H 0.32057 0.26547 0.29969 0.0
H341 H 0.27041 0.30268 0.31963 0.0
H342 H 0.30363 0.31887 0.26554 0.0
H343 H 0.29571 0.35169 0.28165 0.0
H344 H 0.24361 0.3135 0.29521 0.0
H345 H 0.22097 0.34277 0.2899 0.0
H346 H 0.35339 0.28054 0.29039 0.0
H347 H 0.31378 0.29469 0.23934 0.0
H348 H 0.27291 0.38081 0.27619 0.0
H349 H 0.38156 0.27454 0.26667 0.0
H350 H 0.34219 0.28898 0.21579 0.0
C351 C 0.50163 0.98355 0.61704 0.0
C352 C 0.52276 0.98215 0.61408 0.0
C353 C 0.48817 0.98042 0.60068 0.0
C354 C 0.4956 0.97573 0.5811 0.0
C355 C 0.51681 0.97435 0.57821 0.0
C356 C 0.53028 0.9776 0.59456 0.0
C357 C 0.48122 0.97204 0.56383 0.0
C358 C 0.46426 0.9848 0.56092 0.0
C359 C 0.45016 0.9811 0.54502 0.0
C360 C 0.45329 0.96429 0.53198 0.0
C361 C 0.47037 0.95159 0.53445 0.0
C362 C 0.48426 0.9556 0.55038 0.0
C363 C 0.47368 0.93406 0.52044 0.0
C364 C 0.45762 0.92054 0.51569 0.0
C365 C 0.49298 0.9307 0.51179 0.0
C366 C 0.49614 0.91421 0.4986 0.0
C367 C 0.48012 0.90065 0.49402 0.0
C368 C 0.43235 0.99491 0.54195 0.0
C369 C 0.4221 1.00338 0.55882 0.0
C370 C 0.42558 0.99993 0.52212 0.0
C371 C 0.40901 0.01303 0.51926 0.0
C372 C 0.39903 0.02158 0.53613 0.0
C373 C 0.40569 0.01668 0.55592 0.0
C374 C 0.46085 0.9039 0.50268 0.0
H375 H 0.49559 0.98702 0.63203 0.0
H376 H 0.47192 0.98135 0.60344 0.0
H377 H 0.523 0.97096 0.56327 0.0
H378 H 0.54656 0.97653 0.59203 0.0
H379 H 0.46233 0.99793 0.57081 0.0
H380 H 0.49714 0.9455 0.55266 0.0
H381 H 0.44248 0.96107 0.5198 0.0
H382 H 0.44265 0.92266 0.52228 0.0
H383 H 0.50557 0.94099 0.51505 0.0
H384 H 0.51109 0.91195 0.492 0.0
H385 H 0.42662 0.99962 0.5743 0.0
H386 H 0.43327 0.99402 0.50877 0.0
H387 H 0.44834 0.89354 0.49935 0.0
H388 H 0.39812 0.02309 0.56913 0.0
H389 H 0.4041 0.0167 0.50386 0.0
C390 C 0.20839 0.24775 0.65654 0.0
C391 C 0.2282 0.24339 0.64984 0.0
C392 C 0.20533 0.26092 0.67308 0.0
C393 C 0.22206 0.26983 0.6834 0.0
C394 C 0.2419 0.26525 0.67667 0.0
C395 C 0.24493 0.25226 0.65998 0.0
C396 C 0.21883 0.28383 0.7011 0.0
C397 C 0.20313 0.28008 0.71519 0.0
C398 C 0.19993 0.29324 0.73186 0.0
C399 C 0.2129 0.31019 0.73456 0.0
C400 C 0.22875 0.3142 0.72072 0.0
C401 C 0.23146 0.30102 0.70396 0.0
C402 C 0.24248 0.33215 0.72371 0.0
C403 C 0.23465 0.35106 0.73023 0.0
C404 C 0.26357 0.33047 0.72009 0.0
C405 C 0.27649 0.34729 0.72289 0.0
C406 C 0.26858 0.36604 0.72942 0.0
C407 C 0.18294 0.28935 0.74637 0.0
C408 C 0.16359 0.28335 0.73907 0.0
C409 C 0.18585 0.29182 0.76756 0.0
C410 C 0.16975 0.28846 0.78111 0.0
C411 C 0.15048 0.28261 0.7737 0.0
C412 C 0.1475 0.28003 0.75262 0.0
C413 C 0.24761 0.36785 0.73309 0.0
H414 H 0.1953 0.24106 0.64884 0.0
H415 H 0.18984 0.26432 0.67759 0.0
H416 H 0.25516 0.27152 0.68442 0.0
H417 H 0.26033 0.24901 0.65505 0.0
H418 H 0.19362 0.26661 0.71348 0.0
H419 H 0.24317 0.30446 0.69285 0.0
H420 H 0.21061 0.32031 0.74745 0.0
H421 H 0.21848 0.35298 0.73288 0.0
H422 H 0.27014 0.31608 0.71535 0.0
H423 H 0.29267 0.34567 0.72007 0.0
H424 H 0.16078 0.28156 0.72283 0.0
H425 H 0.20061 0.29617 0.7737 0.0
H426 H 0.2413 0.38228 0.73808 0.0
H427 H 0.13268 0.27557 0.74668 0.0
H428 H 0.17228 0.29046 0.79737 0.0
C429 C 0.85204 0.24946 0.76642 0.0
C430 C 0.86511 0.23325 0.77136 0.0
C431 C 0.83546 0.24632 0.75325 0.0
C432 C 0.8315 0.22685 0.74502 0.0
C433 C 0.84458 0.21062 0.75005 0.0
C434 C 0.86132 0.21383 0.76301 0.0
C435 C 0.81366 0.22344 0.73136 0.0
C436 C 0.8097 0.23687 0.7151 0.0
C437 C 0.79272 0.2339 0.70217 0.0
C438 C 0.77952 0.21733 0.70592 0.0
C439 C 0.78333 0.20368 0.72205 0.0
C440 C 0.8005 0.20681 0.73462 0.0
C441 C 0.76937 0.18616 0.7258 0.0
C442 C 0.74808 0.18884 0.7253 0.0
C443 C 0.77724 0.16662 0.72991 0.0
C444 C 0.76412 0.15011 0.73334 0.0
C445 C 0.74291 0.15288 0.73286 0.0
C446 C 0.78899 0.24788 0.68458 0.0
C447 C 0.79275 0.26901 0.68641 0.0
C448 C 0.78189 0.24018 0.66571 0.0
C449 C 0.77867 0.25324 0.64913 0.0
C450 C 0.78265 0.2742 0.65104 0.0
C451 C 0.78969 0.28202 0.66975 0.0
C452 C 0.73497 0.17235 0.72887 0.0
H453 H 0.85471 0.26454 0.77277 0.0
H454 H 0.82552 0.25905 0.74975 0.0
H455 H 0.84197 0.1955 0.7438 0.0
H456 H 0.87129 0.20115 0.76662 0.0
H457 H 0.82023 0.24932 0.71222 0.0
H458 H 0.80332 0.1966 0.74735 0.0
H459 H 0.76628 0.21497 0.69622 0.0
H460 H 0.74157 0.20374 0.7224 0.0
H461 H 0.79356 0.16405 0.7302 0.0
H462 H 0.77049 0.13516 0.73635 0.0
H463 H 0.79792 0.27553 0.70075 0.0
H464 H 0.77915 0.22399 0.66362 0.0
H465 H 0.71863 0.17473 0.72849 0.0
H466 H 0.79275 0.29821 0.67146 0.0
H467 H 0.7733 0.24698 0.63473 0.0
C468 C 0.53654 0.59442 0.48547 0.0
C469 C 0.53094 0.61348 0.49343 0.0
C470 C 0.53978 0.57785 0.49854 0.0
C471 C 0.53745 0.58007 0.5198 0.0
C472 C 0.53178 0.59924 0.52767 0.0
C473 C 0.52856 0.6158 0.51459 0.0
C474 C 0.54099 0.56249 0.53377 0.0
C475 C 0.55759 0.54932 0.5307 0.0
C476 C 0.56113 0.53277 0.54391 0.0
C477 C 0.5478 0.52949 0.56037 0.0
C478 C 0.53109 0.54248 0.56371 0.0
C479 C 0.52781 0.5589 0.55026 0.0
C480 C 0.51716 0.53903 0.5813 0.0
C481 C 0.51123 0.51912 0.58687 0.0
C482 C 0.5097 0.55565 0.59269 0.0
C483 C 0.49661 0.55244 0.60919 0.0
C484 C 0.49082 0.53257 0.61466 0.0
C485 C 0.57884 0.519 0.5406 0.0
C486 C 0.59803 0.52704 0.53528 0.0
C487 C 0.57668 0.49771 0.5427 0.0
C488 C 0.5933 0.48478 0.53947 0.0
C489 C 0.61236 0.4929 0.53414 0.0
C490 C 0.61464 0.5141 0.53209 0.0
C491 C 0.49819 0.51593 0.60343 0.0
H492 H 0.53838 0.59239 0.46914 0.0
H493 H 0.54388 0.56324 0.49197 0.0
H494 H 0.53011 0.60153 0.54398 0.0
H495 H 0.52431 0.63045 0.52096 0.0
H496 H 0.56782 0.55198 0.51802 0.0
H497 H 0.51467 0.56866 0.55237 0.0
H498 H 0.55079 0.51713 0.57095 0.0
H499 H 0.51646 0.506 0.57829 0.0
H500 H 0.51418 0.57115 0.58903 0.0
H501 H 0.4911 0.56544 0.61779 0.0
H502 H 0.60028 0.54337 0.53381 0.0
H503 H 0.56207 0.49102 0.54656 0.0
H504 H 0.49379 0.50049 0.60747 0.0
H505 H 0.62929 0.5206 0.52804 0.0
H506 H 0.5913 0.46842 0.54105 0.0
C507 C 0.48371 0.47729 0.91854 0.0
C508 C 0.49105 0.48407 0.89964 0.0
C509 C 0.49718 0.47396 0.93482 0.0
C510 C 0.5183 0.47716 0.93243 0.0
C511 C 0.52553 0.484 0.91338 0.0
C512 C 0.51201 0.48751 0.89717 0.0
C513 C 0.53275 0.47315 0.94962 0.0
C514 C 0.52969 0.45644 0.96274 0.0
C515 C 0.54341 0.45235 0.97876 0.0
C516 C 0.56049 0.46509 0.98156 0.0
C517 C 0.5638 0.48197 0.96872 0.0
C518 C 0.54979 0.48591 0.95286 0.0
C519 C 0.58179 0.49558 0.9719 0.0
C520 C 0.58802 0.50125 0.99175 0.0
C521 C 0.59281 0.50313 0.95509 0.0
C522 C 0.60956 0.5161 0.95805 0.0
C523 C 0.61564 0.52171 0.97786 0.0
C524 C 0.53986 0.43471 0.99255 0.0
C525 C 0.52044 0.43125 1.00093 0.0
C526 C 0.55581 0.42122 0.9974 0.0
C527 C 0.55236 0.40451 0.01023 0.0
C528 C 0.53297 0.40116 0.01863 0.0
C529 C 0.51706 0.41468 0.01395 0.0
C530 C 0.60481 0.51418 0.99469 0.0
H531 H 0.46753 0.47465 0.92068 0.0
H532 H 0.49102 0.46902 0.94933 0.0
H533 H 0.54168 0.48632 0.91085 0.0
H534 H 0.5179 0.49267 0.88262 0.0
H535 H 0.51689 0.44621 0.96019 0.0
H536 H 0.55191 0.49923 0.9433 0.0
H537 H 0.57119 0.46185 0.9938 0.0
H538 H 0.57974 0.49596 1.00501 0.0
H539 H 0.5886 0.49886 0.93963 0.0
H540 H 0.6178 0.52176 0.9449 0.0
H541 H 0.50793 0.4415 0.9976 0.0
H542 H 0.57087 0.42343 0.99102 0.0
H543 H 0.6093 0.51844 0.01008 0.0
H544 H 0.50202 0.41236 0.02035 0.0
H545 H 0.56479 0.3942 0.01366 0.0
C546 C 0.65493 0.2151 0.24811 0.0
C547 C 0.65075 0.2349 0.24109 0.0
C548 C 0.67153 0.21159 0.26113 0.0
C549 C 0.68415 0.22785 0.26748 0.0
C550 C 0.67989 0.24767 0.2604 0.0
C551 C 0.66338 0.25114 0.24726 0.0
C552 C 0.70163 0.22417 0.28155 0.0
C553 C 0.71468 0.20747 0.27845 0.0
C554 C 0.73121 0.20384 0.29171 0.0
C555 C 0.73451 0.21712 0.30834 0.0
C556 C 0.7216 0.23388 0.31173 0.0
C557 C 0.70524 0.23731 0.2982 0.0
C558 C 0.72503 0.2477 0.32951 0.0
C559 C 0.73004 0.23969 0.34885 0.0
C560 C 0.72316 0.269 0.32733 0.0
C561 C 0.7262 0.28197 0.34409 0.0
C562 C 0.73111 0.27387 0.36331 0.0
C563 C 0.74507 0.18623 0.28815 0.0
C564 C 0.73717 0.16706 0.28229 0.0
C565 C 0.76632 0.18845 0.29057 0.0
C566 C 0.77933 0.1719 0.28723 0.0
C567 C 0.77133 0.15285 0.28143 0.0
C568 C 0.75019 0.15052 0.27897 0.0
C569 C 0.73304 0.25267 0.3656 0.0
H570 H 0.64529 0.2024 0.24353 0.0
H571 H 0.6743 0.19619 0.26649 0.0
H572 H 0.68946 0.26046 0.26485 0.0
H573 H 0.66039 0.26651 0.24193 0.0
H574 H 0.71224 0.19758 0.26535 0.0
H575 H 0.69492 0.2499 0.30096 0.0
H576 H 0.74716 0.21439 0.31869 0.0
H577 H 0.73134 0.22336 0.3511 0.0
H578 H 0.71955 0.27566 0.31261 0.0
H579 H 0.72471 0.29832 0.34209 0.0
H580 H 0.72088 0.16477 0.28054 0.0
H581 H 0.77293 0.20305 0.2948 0.0
H582 H 0.73678 0.2462 0.38037 0.0
H583 H 0.74379 0.13588 0.27455 0.0
H584 H 0.79564 0.17394 0.28914 0.0
C585 C 0.49285 0.11162 0.00745 0.0
C586 C 0.49056 0.10755 0.02859 0.0
C587 C 0.48672 0.09752 0.99253 0.0
C588 C 0.4773 0.07908 0.99806 0.0
C589 C 0.47293 0.07586 0.01877 0.0
C590 C 0.47882 0.09009 0.03364 0.0
C591 C 0.47225 0.06317 0.98242 0.0
C592 C 0.48556 0.05947 0.96603 0.0
C593 C 0.48157 0.0438 0.95182 0.0
C594 C 0.46413 0.03151 0.95434 0.0
C595 C 0.45051 0.03496 0.97054 0.0
C596 C 0.45458 0.05107 0.98425 0.0
C597 C 0.43237 0.02143 0.97348 0.0
C598 C 0.42152 0.01349 0.95658 0.0
C599 C 0.42592 0.01608 0.99328 0.0
C600 C 0.40908 1.00325 0.99609 0.0
C601 C 0.3985 0.99523 0.9792 0.0
C602 C 0.49572 0.04012 0.93446 0.0
C603 C 0.51701 0.04128 0.93731 0.0
C604 C 0.48803 0.03562 0.91482 0.0
C605 C 0.50129 0.03249 0.89843 0.0
C606 C 0.52245 0.03382 0.90138 0.0
C607 C 0.53024 0.03818 0.9209 0.0
C608 C 0.40485 1.00041 0.95942 0.0
H609 H 0.49931 0.12586 1.00214 0.0
H610 H 0.48926 0.10119 0.97661 0.0
H611 H 0.46512 0.06213 0.0237 0.0
H612 H 0.47357 0.08696 0.04882 0.0
H613 H 0.49918 0.06872 0.96439 0.0
H614 H 0.44383 0.05432 0.99633 0.0
H615 H 0.46152 0.01883 0.94399 0.0
H616 H 0.42579 0.01748 0.94112 0.0
H617 H 0.43407 0.02151 0.00667 0.0
H618 H 0.40444 0.99936 0.01148 0.0
H619 H 0.52346 0.0444 0.95227 0.0
H620 H 0.47175 0.03485 0.91203 0.0
H621 H 0.39683 0.99438 0.94619 0.0
H622 H 0.54656 0.03919 0.92341 0.0
H623 H 0.49506 0.02918 0.88341 0.0
Li624 Li 0.27379 0.8976 1.00383 0.0
Li625 Li 0.25996 0.87161 0.02586 0.0
Li626 Li 0.25211 0.87132 0.98959 0.0
Li627 Li 0.2376 0.89714 0.01138 0.0
C628 C 0.29816 0.86352 0.01048 0.0
N629 N 0.33645 0.85487 0.026 0.0
C630 C 0.30629 0.87523 0.02648 0.0
C631 C 0.30952 0.84744 1.00237 0.0
C632 C 0.32567 0.87061 0.03411 0.0
C633 C 0.32884 0.8433 0.01043 0.0
C634 C 0.25287 0.90643 0.04963 0.0
C635 C 0.22998 0.89937 0.07753 0.0
N636 N 0.23714 0.91618 0.08752 0.0
C637 C 0.26001 0.92362 0.06019 0.0
C638 C 0.23773 0.89419 0.05837 0.0
C639 C 0.25186 0.9283 0.07932 0.0
C640 C 0.29703 0.93369 0.00805 0.0
N641 N 0.29668 0.91503 0.99888 0.0
C642 C 0.32877 0.92168 0.98292 0.0
C643 C 0.31215 0.90881 0.98658 0.0
C644 C 0.32956 0.94095 0.99229 0.0
C645 C 0.3135 0.94694 1.00504 0.0
H646 H 0.2845 0.93824 0.0177 0.0
H647 H 0.31164 0.89383 0.97962 0.0
C648 C 0.25879 0.8345 0.04723 0.0
N649 N 0.26525 0.85421 0.0487 0.0
C650 C 0.26192 0.82098 0.06343 0.0
C651 C 0.27831 0.84829 0.08236 0.0
C652 C 0.27505 0.86124 0.06572 0.0
C653 C 0.27166 0.82795 0.08125 0.0
H654 H 0.25116 0.82933 0.03345 0.0
H655 H 0.28025 0.87691 0.06645 0.0
C656 C 0.25821 0.90596 0.96547 0.0
N657 N 0.27343 0.91562 0.92735 0.0
C658 C 0.25068 0.92285 0.95483 0.0
C659 C 0.27345 0.89397 0.95669 0.0
C660 C 0.25859 0.92749 0.93558 0.0
C661 C 0.28095 0.8991 0.93742 0.0
C662 C 0.2142 0.86178 1.00522 0.0
C663 C 0.20501 0.87335 0.98978 0.0
C664 C 0.20409 0.84467 0.01296 0.0
C665 C 0.18583 0.86756 0.98234 0.0
C666 C 0.18492 0.83937 1.00511 0.0
N667 N 0.17626 0.85084 0.99009 0.0
C668 C 0.25598 0.83497 0.96694 0.0
C669 C 0.23553 0.86005 0.95068 0.0
C670 C 0.25322 0.82164 0.95045 0.0
N671 N 0.24723 0.85377 0.96672 0.0
C672 C 0.23234 0.84719 0.9339 0.0
C673 C 0.24131 0.8278 0.93373 0.0
H674 H 0.26515 0.83039 0.97992 0.0
H675 H 0.22879 0.8751 0.95084 0.0
C676 C 0.21393 0.93266 0.00697 0.0
N677 N 0.21437 0.91405 0.01614 0.0
C678 C 0.19728 0.94562 0.00976 0.0
C679 C 0.18201 0.92016 0.03168 0.0
C680 C 0.19882 0.90758 0.02826 0.0
C681 C 0.18113 0.93938 0.02231 0.0
H682 H 0.22653 0.93742 0.99748 0.0
H683 H 0.19944 0.89265 0.03524 0.0
O684 O 0.2792 0.86766 1.0027 0.0
O685 O 0.26071 0.90177 0.03084 0.0
O686 O 0.25055 0.90129 0.98433 0.0
O687 O 0.233 0.86705 0.01277 0.0
H688 H 0.2978 0.88778 0.03293 0.0
H689 H 0.30345 0.83826 0.98996 0.0
H690 H 0.33214 0.87955 0.04648 0.0
H691 H 0.33779 0.83088 1.00429 0.0
H692 H 0.21827 0.89002 0.08446 0.0
H693 H 0.27175 0.93324 0.05368 0.0
H694 H 0.23205 0.88078 0.05052 0.0
H695 H 0.25725 0.94156 0.08765 0.0
H696 H 0.34096 0.91662 0.97303 0.0
H697 H 0.3137 0.96173 0.0125 0.0
H698 H 0.25668 0.80532 0.06218 0.0
H699 H 0.28595 0.85403 0.09594 0.0
H700 H 0.23884 0.93226 0.96136 0.0
H701 H 0.27944 0.8808 0.96462 0.0
H702 H 0.25291 0.94052 0.92719 0.0
H703 H 0.29274 0.88993 0.93046 0.0
H704 H 0.21257 0.88665 0.9836 0.0
H705 H 0.211 0.83557 0.02493 0.0
H706 H 0.17855 0.87638 0.9704 0.0
H707 H 0.17692 0.82615 0.01096 0.0
H708 H 0.26031 0.80672 0.95068 0.0
H709 H 0.22308 0.85233 0.92116 0.0
H710 H 0.19702 0.96039 1.00232 0.0
H711 H 0.16975 0.91493 0.04143 0.0
Li712 Li 0.12123 0.50925 0.27588 0.0
Li713 Li 0.14818 0.48864 0.26086 0.0
Li714 Li 0.14696 0.52616 0.25541 0.0
Li715 Li 0.12164 0.50396 0.23868 0.0
C716 C 0.15513 0.52461 0.29694 0.0
N717 N 0.16329 0.55233 0.32784 0.0
C718 C 0.17116 0.52114 0.31064 0.0
C719 C 0.14322 0.54217 0.29898 0.0
C720 C 0.17506 0.53534 0.32616 0.0
C721 C 0.14759 0.556 0.31469 0.0
C722 C 0.1122 0.4679 0.27343 0.0
C723 C 0.08844 0.44137 0.28281 0.0
N724 N 0.0998 0.43742 0.29979 0.0
C725 C 0.12363 0.46361 0.29099 0.0
C726 C 0.09445 0.45673 0.26929 0.0
C727 C 0.11712 0.44813 0.30412 0.0
C728 C 0.08529 0.52119 0.29594 0.0
N729 N 0.1037 0.5121 0.29886 0.0
C730 C 0.09699 0.50805 0.33452 0.0
C731 C 0.10975 0.50557 0.31767 0.0
C732 C 0.07802 0.51758 0.33195 0.0
C733 C 0.07216 0.52419 0.31241 0.0
H734 H 0.08089 0.52621 0.28081 0.0
H735 H 0.12454 0.49856 0.31961 0.0
C736 C 0.18444 0.46895 0.27287 0.0
N737 N 0.16581 0.46584 0.26417 0.0
C738 C 0.1977 0.45255 0.27589 0.0
C739 C 0.17234 0.43008 0.26086 0.0
C740 C 0.15958 0.44692 0.25811 0.0
C741 C 0.19159 0.43288 0.26987 0.0
H742 H 0.18896 0.48419 0.2775 0.0
H743 H 0.1447 0.44492 0.25116 0.0
C744 C 0.11121 0.54624 0.24261 0.0
N745 N 0.1002 0.57978 0.21954 0.0
C746 C 0.11735 0.54776 0.22226 0.0
C747 C 0.09942 0.56174 0.25124 0.0
C748 C 0.11162 0.56483 0.21083 0.0
C749 C 0.09404 0.5786 0.23933 0.0
C750 C 0.16098 0.50122 0.21707 0.0
C751 C 0.1655 0.51778 0.20437 0.0
C752 C 0.16621 0.48147 0.21092 0.0
C753 C 0.17498 0.51426 0.18562 0.0
C754 C 0.17569 0.47858 0.19206 0.0
N755 N 0.17983 0.4949 0.1799 0.0
C756 C 0.18337 0.54654 0.24587 0.0
C757 C 0.15678 0.56889 0.25582 0.0
C758 C 0.19648 0.56307 0.24263 0.0
N759 N 0.16387 0.54973 0.2521 0.0
C760 C 0.16939 0.58585 0.25282 0.0
C761 C 0.18941 0.58295 0.24603 0.0
H762 H 0.18867 0.53113 0.24327 0.0
H763 H 0.14137 0.57105 0.26114 0.0
C764 C 0.08432 0.50429 0.21778 0.0
N765 N 0.10445 0.49998 0.21525 0.0
C766 C 0.07061 0.50196 0.20151 0.0
C767 C 0.09856 0.49083 0.18029 0.0
C768 C 0.11171 0.49328 0.19699 0.0
C769 C 0.07779 0.4952 0.18255 0.0
H770 H 0.07896 0.50957 0.23248 0.0
H771 H 0.12764 0.48977 0.19527 0.0
O772 O 0.15116 0.51078 0.28173 0.0
O773 O 0.1182 0.48304 0.26037 0.0
O774 O 0.11672 0.52975 0.25418 0.0
O775 O 0.15181 0.50434 0.23555 0.0
H776 H 0.18049 0.50759 0.30931 0.0
H777 H 0.13069 0.5451 0.2886 0.0
H778 H 0.18742 0.53285 0.33687 0.0
H779 H 0.13849 0.56964 0.31644 0.0
H780 H 0.07474 0.43259 0.27979 0.0
H781 H 0.13735 0.47218 0.2945 0.0
H782 H 0.08542 0.45992 0.25577 0.0
H783 H 0.12581 0.44466 0.31777 0.0
H784 H 0.10193 0.50282 0.34944 0.0
H785 H 0.0576 0.53161 0.30998 0.0
H786 H 0.2125 0.45513 0.28288 0.0
H787 H 0.16726 0.41505 0.25607 0.0
H788 H 0.12635 0.53587 0.21533 0.0
H789 H 0.09462 0.56083 0.26702 0.0
H790 H 0.11626 0.56619 0.19505 0.0
H791 H 0.08498 0.59074 0.24582 0.0
H792 H 0.1618 0.53321 0.20893 0.0
H793 H 0.16282 0.46848 0.22051 0.0
H794 H 0.17851 0.52693 0.17564 0.0
H795 H 0.17974 0.46337 0.18708 0.0
H796 H 0.21192 0.56041 0.23745 0.0
H797 H 0.1636 0.60106 0.25568 0.0
H798 H 0.05461 0.50542 0.20365 0.0
H799 H 0.10447 0.48551 0.16581 0.0
Li800 Li 0.73934 0.6206 1.00402 0.0
Li801 Li 0.75289 0.64559 0.02673 0.0
Li802 Li 0.75988 0.64733 0.98846 0.0
Li803 Li 0.77543 0.62051 0.01177 0.0
C804 C 0.71338 0.65135 0.99881 0.0
N805 N 0.67228 0.65254 0.98919 0.0
C806 C 0.69892 0.64424 0.01276 0.0
C807 C 0.70691 0.65913 0.97998 0.0
C808 C 0.67823 0.64492 0.0076 0.0
C809 C 0.68606 0.65961 0.97541 0.0
C810 C 0.74985 0.61461 0.05133 0.0
C811 C 0.76336 0.61662 0.08566 0.0
N812 N 0.74422 0.61414 0.09319 0.0
C813 C 0.73031 0.61194 0.05942 0.0
C814 C 0.76652 0.61682 0.06456 0.0
C815 C 0.72778 0.61178 0.08062 0.0
C816 C 0.71354 0.58659 0.01116 0.0
N817 N 0.71686 0.60244 0.99815 0.0
C818 C 0.68862 0.592 0.97726 0.0
C819 C 0.70503 0.60509 0.9812 0.0
C820 C 0.68456 0.57596 0.99079 0.0
C821 C 0.69728 0.57314 0.00781 0.0
H822 H 0.72358 0.58433 0.0241 0.0
H823 H 0.70833 0.61736 0.97071 0.0
C824 C 0.76422 0.67517 0.05635 0.0
N825 N 0.74869 0.66271 0.05022 0.0
C826 C 0.76188 0.68799 0.07327 0.0
C827 C 0.72753 0.6751 0.07721 0.0
C828 C 0.7305 0.66262 0.06017 0.0
C829 C 0.74336 0.68795 0.08384 0.0
H830 H 0.77839 0.67532 0.04802 0.0
H831 H 0.71827 0.65286 0.05495 0.0
C832 C 0.75621 0.60196 0.97241 0.0
N833 N 0.74178 0.56994 0.94885 0.0
C834 C 0.75774 0.58191 0.97954 0.0
C835 C 0.74754 0.60574 0.95323 0.0
C836 C 0.75027 0.56593 0.96742 0.0
C837 C 0.74031 0.58933 0.94155 0.0
C838 C 0.79969 0.65404 0.0139 0.0
C839 C 0.81072 0.66122 0.99713 0.0
C840 C 0.80988 0.64998 0.03226 0.0
C841 C 0.83181 0.6639 0.99892 0.0
C842 C 0.83099 0.65281 0.03344 0.0
N843 N 0.84143 0.65964 0.01688 0.0
C844 C 0.7564 0.6837 0.96564 0.0
C845 C 0.77569 0.65761 0.94968 0.0
C846 C 0.75946 0.69667 0.949 0.0
N847 N 0.76436 0.66456 0.96559 0.0
C848 C 0.77943 0.6702 0.93287 0.0
C849 C 0.77116 0.68993 0.93242 0.0
H850 H 0.74759 0.68884 0.9786 0.0
H851 H 0.78198 0.64236 0.95017 0.0
C852 C 0.79775 0.58795 0.02908 0.0
N853 N 0.79883 0.60352 0.01538 0.0
C854 C 0.81437 0.57496 0.03195 0.0
C855 C 0.83283 0.59405 1.00636 0.0
C856 C 0.81576 0.60651 1.00379 0.0
C857 C 0.83219 0.57807 0.0206 0.0
H858 H 0.78391 0.58549 0.03765 0.0
H859 H 0.81598 0.61851 0.99248 0.0
O860 O 0.73375 0.65071 1.00352 0.0
O861 O 0.75262 0.61521 0.0306 0.0
O862 O 0.76281 0.61784 0.98432 0.0
O863 O 0.77904 0.65117 0.01236 0.0
H864 H 0.70363 0.63775 0.02717 0.0
H865 H 0.71784 0.66452 0.9689 0.0
H866 H 0.66691 0.63927 0.01817 0.0
H867 H 0.68085 0.66553 0.96087 0.0
H868 H 0.77614 0.61843 0.09605 0.0
H869 H 0.71717 0.61034 0.04949 0.0
H870 H 0.78175 0.61869 0.05861 0.0
H871 H 0.71273 0.60988 0.08707 0.0
H872 H 0.67915 0.59438 0.96386 0.0
H873 H 0.69461 0.56071 0.01838 0.0
H874 H 0.77431 0.69789 0.07801 0.0
H875 H 0.71302 0.67486 0.08507 0.0
H876 H 0.76434 0.57878 0.9944 0.0
H877 H 0.74615 0.6212 0.94757 0.0
H878 H 0.75117 0.55035 0.97281 0.0
H879 H 0.73342 0.59202 0.92674 0.0
H880 H 0.80313 0.66463 0.98285 0.0
H881 H 0.80161 0.64466 0.04547 0.0
H882 H 0.84054 0.66935 0.98603 0.0
H883 H 0.83906 0.6496 0.04753 0.0
H884 H 0.75292 0.71184 0.94909 0.0
H885 H 0.78858 0.66461 0.92032 0.0
H886 H 0.81336 0.56261 0.0429 0.0
H887 H 0.84633 0.59669 0.99724 0.0
Li888 Li 0.86712 0.02705 0.25971 0.0
Li889 Li 0.89342 1.0053 0.27632 0.0
Li890 Li 0.89332 0.01075 0.23891 0.0
Li891 Li 0.86802 0.98955 0.25432 0.0
C892 C 0.90262 0.04666 0.27426 0.0
N893 N 0.91394 0.07695 0.30154 0.0
C894 C 0.89124 0.04992 0.29198 0.0
C895 C 0.91975 0.05878 0.27042 0.0
C896 C 0.89721 0.06531 0.30558 0.0
C897 C 0.92523 0.07403 0.28439 0.0
C898 C 0.85581 0.99188 0.29487 0.0
C899 C 0.85934 0.96215 0.31633 0.0
N900 N 0.84029 0.96535 0.32378 0.0
C901 C 0.83628 0.9949 0.30277 0.0
C902 C 0.86745 0.97539 0.30173 0.0
C903 C 0.8287 0.98132 0.31736 0.0
C904 C 0.83044 0.04734 0.2687 0.0
N905 N 0.85004 0.05041 0.2627 0.0
C906 C 0.84486 0.08655 0.2616 0.0
C907 C 0.85736 0.06951 0.25891 0.0
C908 C 0.82471 0.08377 0.26814 0.0
C909 C 0.81743 0.06393 0.27161 0.0
H910 H 0.82493 0.03198 0.27119 0.0
H911 H 0.8729 0.07152 0.25382 0.0
C912 C 0.93014 0.99679 0.29688 0.0
N913 N 0.91056 1.00288 0.29981 0.0
C914 C 0.94324 0.99422 0.31357 0.0
C915 C 0.91594 1.00476 0.33594 0.0
C916 C 0.90335 0.0071 0.31882 0.0
C917 C 0.93606 0.99813 0.33332 0.0
H918 H 0.93548 0.99372 0.28156 0.0
H919 H 0.88777 0.01211 0.32071 0.0
C920 C 0.86245 0.01667 0.2139 0.0
N921 N 0.86211 0.02742 0.17307 0.0
C922 C 0.86373 1.00162 0.19879 0.0
C923 C 0.86068 0.03717 0.20824 0.0
C924 C 0.86363 0.00736 0.17824 0.0
C925 C 0.8606 0.0423 0.18751 0.0
C926 C 0.90077 0.96477 0.25098 0.0
C927 C 0.89478 0.95594 0.23242 0.0
C928 C 0.90947 0.95253 0.26619 0.0
C929 C 0.89731 0.93497 0.22947 0.0
C930 C 0.91177 0.93161 0.26264 0.0
N931 N 0.90568 0.92334 0.24452 0.0
C932 C 0.92135 0.99936 0.20788 0.0
C933 C 0.91203 0.03433 0.20797 0.0
C934 C 0.93406 1.00246 0.1911 0.0
N935 N 0.91054 0.01515 0.21584 0.0
C936 C 0.92448 0.0381 0.1911 0.0
C937 C 0.93563 0.022 0.18257 0.0
H938 H 0.92031 0.98439 0.21464 0.0
H939 H 0.90357 0.04669 0.21485 0.0
C940 C 0.83405 0.96861 0.23809 0.0
N941 N 0.85045 0.96625 0.25068 0.0
C942 C 0.82048 0.95242 0.23479 0.0
C943 C 0.84088 0.93163 0.25747 0.0
C944 C 0.85394 0.94825 0.26048 0.0
C945 C 0.82394 0.93367 0.24451 0.0
H946 H 0.83147 0.98311 0.23064 0.0
H947 H 0.86689 0.94667 0.27058 0.0
O948 O 0.89722 0.03156 0.26078 0.0
O949 O 0.86344 1.00499 0.2805 0.0
O950 O 0.86307 0.0114 0.23411 0.0
O951 O 0.89832 0.98528 0.25422 0.0
H952 H 0.87793 0.04069 0.29522 0.0
H953 H 0.92873 0.0564 0.25677 0.0
H954 H 0.88855 0.06801 0.31935 0.0
H955 H 0.93846 0.08353 0.28162 0.0
H956 H 0.86819 0.94929 0.3217 0.0
H957 H 0.82705 0.00761 0.29775 0.0
H958 H 0.88251 0.97271 0.29572 0.0
H959 H 0.8136 0.98348 0.32358 0.0
H960 H 0.85083 0.10171 0.25871 0.0
H961 H 0.80188 0.06136 0.27654 0.0
H962 H 0.95875 0.98912 0.31114 0.0
H963 H 0.91004 0.00793 0.35105 0.0
H964 H 0.86479 0.98567 0.20289 0.0
H965 H 0.85965 0.04901 0.21971 0.0
H966 H 0.86475 0.99588 0.16639 0.0
H967 H 0.85941 0.05811 0.18292 0.0
H968 H 0.88807 0.96515 0.22049 0.0
H969 H 0.9143 0.95905 0.28062 0.0
H970 H 0.8926 0.92793 0.21523 0.0
H971 H 0.91839 0.92196 0.2743 0.0
H972 H 0.94265 0.9898 0.18489 0.0
H973 H 0.92555 0.05338 0.18488 0.0
H974 H 0.80745 0.95444 0.22475 0.0
H975 H 0.8439 0.91734 0.26523 0.0
Li976 Li 0.25366 0.14631 0.52503 0.0
Li977 Li 0.24 0.12029 0.50269 0.0
Li978 Li 0.27587 0.12038 0.51148 0.0
Li979 Li 0.26227 0.14627 0.48912 0.0
C980 C 0.25952 0.11191 0.54935 0.0
N981 N 0.27377 0.10287 0.58812 0.0
C982 C 0.25156 0.09526 0.56003 0.0
C983 C 0.2747 0.124 0.55842 0.0
C984 C 0.25898 0.09092 0.57961 0.0
C985 C 0.2817 0.11918 0.57801 0.0
C986 C 0.2158 0.15475 0.50842 0.0
C987 C 0.18572 0.17588 0.50782 0.0
N988 N 0.17721 0.16394 0.5225 0.0
C989 C 0.20672 0.14268 0.52349 0.0
C990 C 0.20521 0.17147 0.50049 0.0
C991 C 0.18721 0.14757 0.5304 0.0
C992 C 0.25743 0.18228 0.54831 0.0
N993 N 0.24821 0.16365 0.54785 0.0
C994 C 0.23199 0.17021 0.57984 0.0
C995 C 0.23571 0.15741 0.56319 0.0
C996 C 0.24145 0.18944 0.58076 0.0
C997 C 0.25432 0.19548 0.5648 0.0
H998 H 0.26725 0.18684 0.53589 0.0
H999 H 0.22871 0.14245 0.56256 0.0
C1000 C 0.21704 0.08431 0.50674 0.0
N1001 N 0.21725 0.10279 0.4973 0.0
C1002 C 0.20057 0.07099 0.50395 0.0
C1003 C 0.18504 0.0958 0.48142 0.0
C1004 C 0.2017 0.10874 0.48483 0.0
C1005 C 0.18436 0.07674 0.49116 0.0
H1006 H 0.22964 0.07999 0.51652 0.0
H1007 H 0.20213 0.1236 0.47765 0.0
C1008 C 0.30016 0.15493 0.50573 0.0
N1009 N 0.33878 0.16421 0.49166 0.0
C1010 C 0.3092 0.14282 0.49068 0.0
C1011 C 0.31079 0.17173 0.51365 0.0
C1012 C 0.32872 0.14777 0.48377 0.0
C1013 C 0.33029 0.17618 0.50632 0.0
C1014 C 0.25633 0.11173 0.46483 0.0
C1015 C 0.26428 0.09509 0.45414 0.0
C1016 C 0.24116 0.1237 0.45576 0.0
C1017 C 0.25685 0.09064 0.43457 0.0
C1018 C 0.23415 0.11876 0.43616 0.0
N1019 N 0.24207 0.10247 0.42606 0.0
C1020 C 0.29859 0.08437 0.50764 0.0
C1021 C 0.31406 0.10894 0.52951 0.0
C1022 C 0.31486 0.07098 0.51066 0.0
N1023 N 0.29853 0.10294 0.51696 0.0
C1024 C 0.33051 0.09592 0.53317 0.0
C1025 C 0.33102 0.07674 0.52359 0.0
H1026 H 0.28601 0.08001 0.4978 0.0
H1027 H 0.31374 0.12385 0.53661 0.0
C1028 C 0.25827 0.18204 0.46574 0.0
N1029 N 0.26765 0.16355 0.46626 0.0
C1030 C 0.26114 0.19513 0.44916 0.0
C1031 C 0.28362 0.17009 0.43413 0.0
C1032 C 0.28013 0.15738 0.45089 0.0
C1033 C 0.27396 0.18914 0.43314 0.0
H1034 H 0.24847 0.18654 0.47819 0.0
H1035 H 0.28725 0.14253 0.45155 0.0
O1036 O 0.25229 0.11632 0.53019 0.0
O1037 O 0.23487 0.15028 0.50129 0.0
O1038 O 0.28107 0.15041 0.51287 0.0
O1039 O 0.26357 0.11625 0.48398 0.0
H1040 H 0.23974 0.08579 0.55329 0.0
H1041 H 0.28101 0.13701 0.55048 0.0
H1042 H 0.25295 0.07806 0.58804 0.0
H1043 H 0.29344 0.12841 0.5852 0.0
H1044 H 0.17737 0.18879 0.50182 0.0
H1045 H 0.21459 0.12963 0.52978 0.0
H1046 H 0.21196 0.18093 0.48876 0.0
H1047 H 0.18003 0.13835 0.54205 0.0
H1048 H 0.222 0.16513 0.59197 0.0
H1049 H 0.26183 0.21024 0.56511 0.0
H1050 H 0.20045 0.05636 0.51167 0.0
H1051 H 0.17272 0.10064 0.47147 0.0
H1052 H 0.30129 0.12972 0.48441 0.0
H1053 H 0.30406 0.18121 0.52536 0.0
H1054 H 0.33588 0.13852 0.47213 0.0
H1055 H 0.33868 0.18915 0.51231 0.0
H1056 H 0.27609 0.08572 0.46088 0.0
H1057 H 0.23486 0.13669 0.4637 0.0
H1058 H 0.26286 0.07779 0.42613 0.0
H1059 H 0.22242 0.1279 0.42898 0.0
H1060 H 0.31485 0.05626 0.50306 0.0
H1061 H 0.3428 0.10078 0.54321 0.0
H1062 H 0.25348 0.20976 0.4488 0.0
H1063 H 0.29357 0.16506 0.42196 0.0
Li1064 Li 0.3918 0.50582 0.77536 0.0
Li1065 Li 0.36761 0.52869 0.75925 0.0
Li1066 Li 0.36655 0.49022 0.75288 0.0
Li1067 Li 0.39421 0.51213 0.7398 0.0
C1068 C 0.35295 0.49741 0.7953 0.0
N1069 N 0.33458 0.48029 0.82917 0.0
C1070 C 0.34396 0.5099 0.81006 0.0
C1071 C 0.35247 0.47619 0.79772 0.0
C1072 C 0.33481 0.50096 0.8271 0.0
C1073 C 0.34313 0.46784 0.81495 0.0
C1074 C 0.40146 0.54729 0.77615 0.0
C1075 C 0.42066 0.5766 0.78782 0.0
N1076 N 0.40934 0.57705 0.80518 0.0
C1077 C 0.39005 0.54802 0.79413 0.0
C1078 C 0.41692 0.56167 0.77297 0.0
C1079 C 0.39425 0.56318 0.8086 0.0
C1080 C 0.42827 0.50824 0.79765 0.0
N1081 N 0.40851 0.50204 0.79943 0.0
C1082 C 0.41473 0.49089 0.83371 0.0
C1083 C 0.40157 0.49358 0.81709 0.0
C1084 C 0.43519 0.49685 0.83204 0.0
C1085 C 0.442 0.50565 0.81381 0.0
H1086 H 0.43343 0.51501 0.78351 0.0
H1087 H 0.38594 0.48876 0.81838 0.0
C1088 C 0.33158 0.54913 0.76955 0.0
N1089 N 0.35078 0.55204 0.76232 0.0
C1090 C 0.3187 0.56578 0.77262 0.0
C1091 C 0.34549 0.5881 0.76045 0.0
C1092 C 0.35787 0.571 0.7576 0.0
C1093 C 0.32571 0.5855 0.76811 0.0
H1094 H 0.32633 0.53384 0.773 0.0
H1095 H 0.37317 0.57284 0.75174 0.0
C1096 C 0.41218 0.47452 0.76106 0.0
N1097 N 0.44461 0.4538 0.7783 0.0
C1098 C 0.43218 0.47965 0.75576 0.0
C1099 C 0.40866 0.45873 0.77497 0.0
C1100 C 0.44838 0.469 0.76467 0.0
C1101 C 0.42527 0.44849 0.78357 0.0
C1102 C 0.36508 0.51653 0.71273 0.0
C1103 C 0.36367 0.49994 0.69933 0.0
C1104 C 0.36812 0.5362 0.70502 0.0
C1105 C 0.36552 0.5033 0.67833 0.0
C1106 C 0.36993 0.53891 0.68392 0.0
N1107 N 0.36861 0.52255 0.67113 0.0
C1108 C 0.3285 0.47103 0.74736 0.0
C1109 C 0.35694 0.44889 0.74438 0.0
C1110 C 0.31503 0.45474 0.74412 0.0
N1111 N 0.34897 0.46778 0.7475 0.0
C1112 C 0.34403 0.43215 0.74119 0.0
C1113 C 0.32286 0.43508 0.74111 0.0
H1114 H 0.32267 0.48625 0.74996 0.0
H1115 H 0.3733 0.44682 0.74458 0.0
C1116 C 0.42056 0.53422 0.71373 0.0
N1117 N 0.4119 0.51563 0.7171 0.0
C1118 C 0.43346 0.53714 0.69705 0.0
C1119 C 0.42814 0.50177 0.68756 0.0
C1120 C 0.41544 0.4995 0.70449 0.0
C1121 C 0.43729 0.52076 0.68381 0.0
H1122 H 0.41733 0.54678 0.72396 0.0
H1123 H 0.40831 0.48491 0.70758 0.0
O1124 O 0.36164 0.50592 0.77833 0.0
O1125 O 0.39777 0.53252 0.76174 0.0
O1126 O 0.39615 0.48512 0.7529 0.0
O1127 O 0.36399 0.51348 0.73334 0.0
H1128 H 0.34402 0.52635 0.80839 0.0
H1129 H 0.35941 0.46627 0.78657 0.0
H1130 H 0.32784 0.51045 0.83865 0.0
H1131 H 0.34273 0.45145 0.81704 0.0
H1132 H 0.43259 0.58783 0.78555 0.0
H1133 H 0.37813 0.537 0.79693 0.0
H1134 H 0.42598 0.56127 0.75919 0.0
H1135 H 0.38552 0.56391 0.82257 0.0
H1136 H 0.40909 0.48405 0.84766 0.0
H1137 H 0.45774 0.5104 0.81212 0.0
H1138 H 0.30347 0.56334 0.7785 0.0
H1139 H 0.35126 0.60318 0.75682 0.0
H1140 H 0.4352 0.49191 0.74512 0.0
H1141 H 0.39329 0.45457 0.77924 0.0
H1142 H 0.46394 0.4729 0.76083 0.0
H1143 H 0.42278 0.43635 0.79449 0.0
H1144 H 0.3614 0.48462 0.70511 0.0
H1145 H 0.36934 0.54916 0.71525 0.0
H1146 H 0.36459 0.4906 0.66776 0.0
H1147 H 0.37245 0.55401 0.67773 0.0
H1148 H 0.29873 0.45738 0.74414 0.0
H1149 H 0.35044 0.4171 0.7389 0.0
H1150 H 0.44031 0.55198 0.69445 0.0
H1151 H 0.43087 0.48888 0.67754 0.0
Li1152 Li 0.77493 0.39748 0.50382 0.0
Li1153 Li 0.76069 0.37182 0.52626 0.0
Li1154 Li 0.75368 0.37071 0.4889 0.0
Li1155 Li 0.73818 0.39744 0.51063 0.0
C1156 C 0.79921 0.36342 0.51144 0.0
N1157 N 0.83717 0.35498 0.52788 0.0
C1158 C 0.80676 0.37497 0.52784 0.0
C1159 C 0.81099 0.34761 0.50339 0.0
C1160 C 0.82597 0.37046 0.53593 0.0
C1161 C 0.83014 0.34358 0.51192 0.0
C1162 C 0.75526 0.40757 0.54959 0.0
C1163 C 0.73093 0.40659 0.57709 0.0
N1164 N 0.74359 0.41848 0.58862 0.0
C1165 C 0.76801 0.41983 0.56167 0.0
C1166 C 0.73657 0.40091 0.55733 0.0
C1167 C 0.76185 0.42516 0.58138 0.0
C1168 C 0.79865 0.43318 0.50866 0.0
N1169 N 0.79791 0.41472 0.49912 0.0
C1170 C 0.83015 0.42095 0.48333 0.0
C1171 C 0.81323 0.4084 0.48668 0.0
C1172 C 0.83135 0.44001 0.49309 0.0
C1173 C 0.8154 0.44612 0.50592 0.0
H1174 H 0.78623 0.43779 0.51845 0.0
H1175 H 0.81235 0.39358 0.47942 0.0
C1176 C 0.75966 0.33465 0.54743 0.0
N1177 N 0.76511 0.35463 0.54941 0.0
C1178 C 0.76241 0.32113 0.5637 0.0
C1179 C 0.77654 0.34893 0.5837 0.0
C1180 C 0.77365 0.36188 0.567 0.0
C1181 C 0.77084 0.32835 0.58208 0.0
H1182 H 0.75312 0.32926 0.53319 0.0
H1183 H 0.77837 0.37765 0.56808 0.0
C1184 C 0.75951 0.4069 0.46545 0.0
N1185 N 0.77493 0.41971 0.42838 0.0
C1186 C 0.75266 0.42508 0.45667 0.0
C1187 C 0.77424 0.39525 0.45542 0.0
C1188 C 0.76063 0.43129 0.43791 0.0
C1189 C 0.78184 0.40198 0.43668 0.0
C1190 C 0.7164 0.35788 0.51503 0.0
C1191 C 0.70392 0.35275 0.49839 0.0
C1192 C 0.71027 0.35274 0.53481 0.0
C1193 C 0.68531 0.3429 0.50186 0.0
C1194 C 0.69156 0.34289 0.53764 0.0
N1195 N 0.67956 0.33823 0.52124 0.0
C1196 C 0.75842 0.33463 0.46586 0.0
C1197 C 0.73683 0.35932 0.45048 0.0
C1198 C 0.75565 0.32146 0.44924 0.0
N1199 N 0.74907 0.35314 0.46613 0.0
C1200 C 0.7336 0.34661 0.43359 0.0
C1201 C 0.74313 0.32749 0.43291 0.0
H1202 H 0.76805 0.33015 0.47854 0.0
H1203 H 0.72958 0.37412 0.45115 0.0
C1204 C 0.71784 0.43346 0.52221 0.0
N1205 N 0.71478 0.41447 0.51425 0.0
C1206 C 0.70132 0.44647 0.52552 0.0
C1207 C 0.67885 0.42037 0.51191 0.0
C1208 C 0.69579 0.40786 0.50887 0.0
C1209 C 0.68159 0.43986 0.52041 0.0
H1210 H 0.73312 0.43848 0.52606 0.0
H1211 H 0.69376 0.39295 0.50215 0.0
O1212 O 0.78044 0.3675 0.50321 0.0
O1213 O 0.76121 0.40214 0.53032 0.0
O1214 O 0.75194 0.40071 0.48388 0.0
O1215 O 0.73481 0.36726 0.51189 0.0
H1216 H 0.79794 0.38731 0.53424 0.0
H1217 H 0.80539 0.33857 0.49067 0.0
H1218 H 0.83199 0.37927 0.54862 0.0
H1219 H 0.83942 0.33138 0.50584 0.0
H1220 H 0.71648 0.40157 0.58325 0.0
H1221 H 0.78257 0.42506 0.55591 0.0
H1222 H 0.72646 0.39163 0.54811 0.0
H1223 H 0.77159 0.43458 0.59092 0.0
H1224 H 0.84225 0.41582 0.47337 0.0
H1225 H 0.81593 0.46075 0.51367 0.0
H1226 H 0.75797 0.30526 0.56204 0.0
H1227 H 0.78325 0.35484 0.59768 0.0
H1228 H 0.7413 0.43428 0.4643 0.0
H1229 H 0.77985 0.38123 0.46207 0.0
H1230 H 0.75546 0.44533 0.43092 0.0
H1231 H 0.79325 0.39313 0.42876 0.0
H1232 H 0.70843 0.35653 0.48299 0.0
H1233 H 0.71987 0.35619 0.54787 0.0
H1234 H 0.67545 0.33898 0.48913 0.0
H1235 H 0.6866 0.33888 0.55287 0.0
H1236 H 0.76317 0.30675 0.44908 0.0
H1237 H 0.72385 0.35162 0.42117 0.0
H1238 H 0.70388 0.46151 0.532 0.0
H1239 H 0.66377 0.41495 0.50769 0.0
Li1240 Li 0.64732 0.99064 0.761 0.0
Li1241 Li 0.62015 0.01301 0.77719 0.0
Li1242 Li 0.62122 1.00589 0.73865 0.0
Li1243 Li 0.64637 0.02696 0.75533 0.0
C1244 C 0.61126 0.96721 0.76655 0.0
N1245 N 0.59967 0.92785 0.77649 0.0
C1246 C 0.60644 0.96226 0.78674 0.0
C1247 C 0.60982 0.95223 0.75136 0.0
C1248 C 0.60071 0.94225 0.79148 0.0
C1249 C 0.60404 0.93239 0.75671 0.0
C1250 C 0.66514 0.02384 0.79046 0.0
C1251 C 0.67642 0.05213 0.81132 0.0
N1252 N 0.69606 0.04814 0.80602 0.0
C1253 C 0.68542 0.01993 0.78531 0.0
C1254 C 0.66057 0.03999 0.80363 0.0
C1255 C 0.70084 0.03243 0.7933 0.0
C1256 C 0.68169 0.96571 0.75378 0.0
N1257 N 0.6647 0.96759 0.76551 0.0
C1258 C 0.67323 0.93716 0.78382 0.0
C1259 C 0.6605 0.95394 0.78059 0.0
C1260 C 0.69055 0.93468 0.7716 0.0
C1261 C 0.69484 0.94919 0.75651 0.0
H1262 H 0.6851 0.97711 0.74236 0.0
H1263 H 0.64742 0.95616 0.79026 0.0
C1264 C 0.58317 0.02278 0.79652 0.0
N1265 N 0.60275 0.01684 0.79994 0.0
C1266 C 0.56991 0.02565 0.81292 0.0
C1267 C 0.5972 0.01613 0.83602 0.0
C1268 C 0.60996 0.0135 0.81917 0.0
C1269 C 0.57696 0.02228 0.83289 0.0
H1270 H 0.5779 0.02528 0.78103 0.0
H1271 H 0.62559 0.00871 0.82139 0.0
C1272 C 0.65516 0.99645 0.71647 0.0
N1273 N 0.66226 0.97844 0.67896 0.0
C1274 C 0.6628 0.00808 0.70031 0.0
C1275 C 0.6512 0.97567 0.71357 0.0
C1276 C 0.66627 0.99869 0.68145 0.0
C1277 C 0.65487 0.96684 0.6945 0.0
C1278 C 0.61394 0.0512 0.74659 0.0
C1279 C 0.62147 0.05655 0.72738 0.0
C1280 C 0.60411 0.06585 0.75854 0.0
C1281 C 0.61914 0.07658 0.72046 0.0
C1282 C 0.60204 0.08571 0.75105 0.0
N1283 N 0.60955 0.09062 0.73233 0.0
C1284 C 0.58643 0.99071 0.71823 0.0
C1285 C 0.60875 0.00944 0.69681 0.0
C1286 C 0.57306 0.98724 0.70188 0.0
N1287 N 0.60393 1.00155 0.71541 0.0
C1288 C 0.59588 1.00625 0.68003 0.0
C1289 C 0.57781 0.99505 0.68254 0.0
H1290 H 0.58278 0.98488 0.73323 0.0
H1291 H 0.62249 0.01834 0.69497 0.0
C1292 C 0.68064 0.0483 0.74046 0.0
N1293 N 0.66361 0.05046 0.75204 0.0
C1294 C 0.69375 0.06485 0.73742 0.0
C1295 C 0.67176 0.08551 0.75857 0.0
C1296 C 0.65914 0.06852 0.7613 0.0
C1297 C 0.68923 0.08372 0.74644 0.0
H1298 H 0.68411 0.03365 0.73371 0.0
H1299 H 0.64582 0.06972 0.77089 0.0
O1300 O 0.61679 0.98675 0.76164 0.0
O1301 O 0.64981 0.01219 0.78228 0.0
O1302 O 0.65137 1.00548 0.73495 0.0
O1303 O 0.61634 0.03176 0.75378 0.0
H1304 H 0.60733 0.97368 0.79867 0.0
H1305 H 0.61294 0.95588 0.73557 0.0
H1306 H 0.5971 0.93817 0.80707 0.0
H1307 H 0.60294 0.92063 0.74512 0.0
H1308 H 0.67312 0.06478 0.82142 0.0
H1309 H 0.68917 0.00753 0.77504 0.0
H1310 H 0.64491 0.04328 0.80764 0.0
H1311 H 0.7166 0.0297 0.78933 0.0
H1312 H 0.6697 0.9263 0.79577 0.0
H1313 H 0.70825 0.94777 0.74701 0.0
H1314 H 0.55434 0.0304 0.81009 0.0
H1315 H 0.60301 0.01342 0.8513 0.0
H1316 H 0.66575 0.02425 0.7022 0.0
H1317 H 0.64545 0.96644 0.72595 0.0
H1318 H 0.67207 0.00753 0.66878 0.0
H1319 H 0.65187 0.95076 0.69205 0.0
H1320 H 0.62943 0.04547 0.71814 0.0
H1321 H 0.59826 0.06193 0.77348 0.0
H1322 H 0.62504 0.08099 0.70569 0.0
H1323 H 0.59451 0.09723 0.76014 0.0
H1324 H 0.55913 0.97863 0.70427 0.0
H1325 H 0.59987 0.01256 0.66528 0.0
H1326 H 0.70724 0.063 0.72812 0.0
H1327 H 0.668 0.09988 0.76585 0.0
Li1328 Li 0.02609 0.26108 0.87119 0.0
Li1329 Li 1.00456 0.27641 0.89682 0.0
Li1330 Li 0.00996 0.23983 0.89654 0.0
Li1331 Li 0.98953 0.25556 0.87033 0.0
C1332 C 0.04554 0.27524 0.90677 0.0
N1333 N 0.07565 0.30279 0.91789 0.0
C1334 C 0.04896 0.2927 0.89499 0.0
C1335 C 0.05745 0.27177 0.92418 0.0
C1336 C 0.06425 0.30645 0.90087 0.0
C1337 C 0.0726 0.28589 0.92956 0.0
C1338 C 0.99106 0.29692 0.86179 0.0
C1339 C 0.96002 0.31559 0.86794 0.0
N1340 N 0.96401 0.32754 0.85145 0.0
C1341 C 0.99488 0.30941 0.84493 0.0
C1342 C 0.9735 0.30003 0.87342 0.0
C1343 C 0.98101 0.32479 0.83993 0.0
C1344 C 0.04623 0.27148 0.83494 0.0
N1345 N 0.04948 0.26454 0.85426 0.0
C1346 C 0.08543 0.26284 0.84846 0.0
C1347 C 0.06858 0.26014 0.86118 0.0
C1348 C 0.08246 0.27008 0.82852 0.0
C1349 C 0.06264 0.27441 0.82172 0.0
H1350 H 0.03086 0.27473 0.82984 0.0
H1351 H 0.07076 0.25457 0.87658 0.0
C1352 C 0.99142 0.29642 0.93248 0.0
N1353 N 1.00079 0.29953 0.91425 0.0
C1354 C 0.98792 0.31282 0.94569 0.0
C1355 C 1.00412 0.33524 0.92126 0.0
C1356 C 0.00708 0.31846 0.90842 0.0
C1357 C 0.99436 0.33247 0.94009 0.0
H1358 H 0.98661 0.2812 0.93671 0.0
H1359 H 0.0143 0.32058 0.89375 0.0
C1360 C 0.02522 0.21999 0.86215 0.0
N1361 N 0.05331 0.18994 0.85315 0.0
C1362 C 0.02204 0.20699 0.84546 0.0
C1363 C 0.04268 0.21766 0.87429 0.0
C1364 C 0.03642 0.19191 0.84115 0.0
C1365 C 0.05669 0.20239 0.86948 0.0
C1366 C 0.96861 0.24068 0.90407 0.0
C1367 C 0.96653 0.22312 0.89202 0.0
C1368 C 0.95509 0.244 0.92017 0.0
C1369 C 0.95098 0.20916 0.89632 0.0
C1370 C 0.93974 0.22967 0.924 0.0
N1371 N 0.93802 0.21269 0.9121 0.0
C1372 C 0.02 0.21977 0.9331 0.0
C1373 C 0.00877 0.19737 0.90677 0.0
C1374 C 0.02303 0.20331 0.94633 0.0
N1375 N 0.0131 0.21651 0.91373 0.0
C1376 C 0.01159 0.18048 0.91948 0.0
C1377 C 0.01885 0.18344 0.93945 0.0
H1378 H 0.02322 0.23516 0.93823 0.0
H1379 H 1.00327 0.19518 0.89132 0.0
C1380 C 0.96979 0.24323 0.83403 0.0
N1381 N 0.96661 0.25217 0.85251 0.0
C1382 C 0.95348 0.23999 0.82056 0.0
C1383 C 0.931 0.2556 0.84524 0.0
C1384 C 0.94768 0.2583 0.85833 0.0
C1385 C 0.93385 0.24626 0.82616 0.0
H1386 H 0.985 0.23855 0.82981 0.0
H1387 H 0.94551 0.26517 0.87319 0.0
O1388 O 0.03065 0.2615 0.9014 0.0
O1389 O 1.00459 0.28185 0.86684 0.0
O1390 O 0.01124 0.23487 0.86644 0.0
O1391 O 0.98368 0.25465 0.9002 0.0
H1392 H 0.03995 0.29564 0.88144 0.0
H1393 H 0.05503 0.2583 0.93344 0.0
H1394 H 0.06705 0.32002 0.89189 0.0
H1395 H 0.08193 0.2834 0.94301 0.0
H1396 H 0.94638 0.31815 0.87681 0.0
H1397 H 0.00843 0.30723 0.83581 0.0
H1398 H 0.97029 0.29057 0.88655 0.0
H1399 H 0.98377 0.33456 0.82691 0.0
H1400 H 0.10059 0.25937 0.85409 0.0
H1401 H 0.05993 0.27999 0.80637 0.0
H1402 H 0.98034 0.31022 0.96013 0.0
H1403 H 0.00922 0.35025 0.91653 0.0
H1404 H 0.00859 0.20854 0.83594 0.0
H1405 H 0.0454 0.22747 0.88733 0.0
H1406 H 0.03415 0.18175 0.82827 0.0
H1407 H 0.07026 0.20044 0.87875 0.0
H1408 H 0.97674 0.22029 0.87942 0.0
H1409 H 0.95643 0.25754 0.92961 0.0
H1410 H 0.94921 0.19553 0.88711 0.0
H1411 H 0.92918 0.23205 0.93643 0.0
H1412 H 0.02864 0.20601 0.9617 0.0
H1413 H 0.00824 0.16528 0.9138 0.0
H1414 H 0.95613 0.23272 0.80593 0.0
H1415 H 0.916 0.26055 0.84998 0.0
Li1416 Li 0.5254 0.76019 0.37135 0.0
Li1417 Li 0.50383 0.77553 0.39691 0.0
Li1418 Li 0.50936 0.73896 0.39676 0.0
Li1419 Li 0.48887 0.75453 0.37049 0.0
C1420 C 0.5448 0.77455 0.40687 0.0
N1421 N 0.57476 0.80231 0.41789 0.0
C1422 C 0.54809 0.79201 0.39505 0.0
C1423 C 0.55676 0.7712 0.42427 0.0
C1424 C 0.56331 0.80586 0.40087 0.0
C1425 C 0.57182 0.78542 0.4296 0.0
C1426 C 0.49023 0.79585 0.36181 0.0
C1427 C 0.45911 0.81441 0.36788 0.0
N1428 N 0.46305 0.8263 0.35132 0.0
C1429 C 0.49398 0.80826 0.34488 0.0
C1430 C 0.47267 0.79894 0.37343 0.0
C1431 C 0.48005 0.82356 0.33981 0.0
C1432 C 0.54544 0.7706 0.33508 0.0
N1433 N 0.54875 0.76373 0.3544 0.0
C1434 C 0.58471 0.76231 0.34861 0.0
C1435 C 0.56789 0.75949 0.36133 0.0
C1436 C 0.58168 0.76949 0.32866 0.0
C1437 C 0.56182 0.77364 0.32184 0.0
H1438 H 0.53005 0.77372 0.32997 0.0
H1439 H 0.57012 0.75397 0.37675 0.0
C1440 C 0.49093 0.79556 0.43262 0.0
N1441 N 0.50004 0.79868 0.41426 0.0
C1442 C 0.48748 0.81197 0.44582 0.0
C1443 C 0.50317 0.83444 0.4211 0.0
C1444 C 0.50611 0.81764 0.40828 0.0
C1445 C 0.49369 0.83165 0.44006 0.0
H1446 H 0.4863 0.78031 0.43696 0.0
H1447 H 0.51315 0.81975 0.39353 0.0
C1448 C 0.52473 0.71908 0.36247 0.0
N1449 N 0.55299 0.68915 0.35361 0.0
C1450 C 0.52165 0.70601 0.34582 0.0
C1451 C 0.54218 0.71689 0.37464 0.0
C1452 C 0.53612 0.69099 0.34158 0.0
C1453 C 0.55629 0.70168 0.36991 0.0
C1454 C 0.468 0.73972 0.40434 0.0
C1455 C 0.46588 0.72216 0.39231 0.0
C1456 C 0.45459 0.74303 0.42053 0.0
C1457 C 0.4504 0.70816 0.39673 0.0
C1458 C 0.4393 0.72867 0.42448 0.0
N1459 N 0.43754 0.71167 0.4126 0.0
C1460 C 0.51943 0.71891 0.43337 0.0
C1461 C 0.50812 0.69654 0.40704 0.0
C1462 C 0.52237 0.70245 0.44661 0.0
N1463 N 0.51251 0.71567 0.414 0.0
C1464 C 0.51084 0.67965 0.41976 0.0
C1465 C 0.5181 0.68259 0.43974 0.0
H1466 H 0.5227 0.7343 0.43849 0.0
H1467 H 0.50262 0.69436 0.39159 0.0
C1468 C 0.46924 0.74206 0.3342 0.0
N1469 N 0.46599 0.75102 0.35266 0.0
C1470 C 0.45299 0.7388 0.32068 0.0
C1471 C 0.4304 0.75439 0.34527 0.0
C1472 C 0.44704 0.75711 0.35842 0.0
C1473 C 0.43333 0.74506 0.3262 0.0
H1474 H 0.48448 0.73741 0.33004 0.0
H1475 H 0.4448 0.764 0.37327 0.0
O1476 O 0.52997 0.76073 0.40156 0.0
O1477 O 0.50382 0.78086 0.36691 0.0
O1478 O 0.51067 0.73391 0.36667 0.0
O1479 O 0.48303 0.75372 0.40036 0.0
H1480 H 0.53905 0.79487 0.3815 0.0
H1481 H 0.55442 0.75774 0.43357 0.0
H1482 H 0.56601 0.81944 0.39186 0.0
H1483 H 0.58118 0.78302 0.44304 0.0
H1484 H 0.44547 0.81696 0.37674 0.0
H1485 H 0.50754 0.8061 0.33576 0.0
H1486 H 0.4695 0.78954 0.38661 0.0
H1487 H 0.48275 0.83328 0.32673 0.0
H1488 H 0.5999 0.75898 0.35424 0.0
H1489 H 0.55907 0.77917 0.30648 0.0
H1490 H 0.48012 0.80937 0.46037 0.0
H1491 H 0.50809 0.84947 0.41625 0.0
H1492 H 0.5082 0.70746 0.33626 0.0
H1493 H 0.54484 0.72676 0.38764 0.0
H1494 H 0.53392 0.68078 0.32873 0.0
H1495 H 0.56985 0.69983 0.37921 0.0
H1496 H 0.47602 0.71933 0.37965 0.0
H1497 H 0.45598 0.75657 0.42996 0.0
H1498 H 0.4486 0.69452 0.38755 0.0
H1499 H 0.42883 0.73103 0.43698 0.0
H1500 H 0.52797 0.70513 0.46199 0.0
H1501 H 0.50742 0.66446 0.41409 0.0
H1502 H 0.4557 0.73154 0.30606 0.0
H1503 H 0.41538 0.75934 0.34995 0.0
Li1504 Li 0.00959 0.77652 0.61773 0.0
Li1505 Li 0.9881 0.76091 0.64327 0.0
Li1506 Li 0.02467 0.75551 0.64393 0.0
Li1507 Li 1.00407 0.7399 0.6176 0.0
C1508 C 0.02334 0.79679 0.65293 0.0
N1509 N 0.05059 0.82736 0.66354 0.0
C1510 C 0.0197 0.80906 0.67001 0.0
C1511 C 0.04082 0.80009 0.64122 0.0
C1512 C 0.03367 0.82443 0.67514 0.0
C1513 C 0.05441 0.81562 0.64683 0.0
C1514 C 0.96859 0.77525 0.6079 0.0
C1515 C 0.94146 0.78594 0.58534 0.0
N1516 N 0.93857 0.8028 0.59714 0.0
C1517 C 0.96534 0.79268 0.61982 0.0
C1518 C 0.95656 0.77183 0.59054 0.0
C1519 C 0.95009 0.80642 0.61412 0.0
C1520 C 0.02225 0.79667 0.58204 0.0
N1521 N 0.0133 0.79973 0.60049 0.0
C1522 C 0.01016 0.83548 0.5938 0.0
C1523 C 0.0073 0.81865 0.60658 0.0
C1524 C 0.01948 0.83274 0.57475 0.0
C1525 C 0.02562 0.8131 0.56887 0.0
H1526 H 0.02682 0.78145 0.5776 0.0
H1527 H 1.00036 0.82072 0.62139 0.0
C1528 C 0.96795 0.77133 0.67956 0.0
N1529 N 0.96472 0.76427 0.66025 0.0
C1530 C 0.95151 0.77435 0.69272 0.0
C1531 C 0.92874 0.7626 0.66593 0.0
C1532 C 0.94561 0.75981 0.65328 0.0
C1533 C 0.93168 0.76999 0.68585 0.0
H1534 H 0.98332 0.77464 0.6847 0.0
H1535 H 0.94345 0.75417 0.63788 0.0
C1536 C 0.04539 0.74101 0.60988 0.0
N1537 N 0.07587 0.71326 0.6013 0.0
C1538 C 0.0475 0.72335 0.62169 0.0
C1539 C 0.05882 0.74457 0.59374 0.0
C1540 C 0.063 0.70952 0.61711 0.0
C1541 C 0.07412 0.73035 0.58963 0.0
C1542 C 0.98885 0.71975 0.65182 0.0
C1543 C 0.99197 0.70668 0.6684 0.0
C1544 C 0.97138 0.71744 0.63966 0.0
C1545 C 0.97752 0.69153 0.67258 0.0
C1546 C 0.9573 0.70211 0.64434 0.0
N1547 N 0.96063 0.68958 0.66057 0.0
C1548 C 0.04469 0.74295 0.67996 0.0
C1549 C 0.06659 0.7584 0.65568 0.0
C1550 C 0.0611 0.73975 0.69327 0.0
N1551 N 0.04772 0.75208 0.66157 0.0
C1552 C 0.08337 0.75575 0.66862 0.0
C1553 C 0.08068 0.74625 0.68762 0.0
H1554 H 0.02951 0.7381 0.68423 0.0
H1555 H 0.06865 0.76542 0.64088 0.0
C1556 C 0.99406 0.72016 0.58072 0.0
N1557 N 1.00087 0.71673 0.60008 0.0
C1558 C 0.99111 0.70385 0.56722 0.0
C1559 C 1.00241 0.68078 0.59379 0.0
C1560 C 1.00514 0.69754 0.60677 0.0
C1561 C 0.99526 0.68392 0.57381 0.0
H1562 H 0.99089 0.7356 0.57581 0.0
H1563 H 0.01058 0.6952 0.62221 0.0
O1564 O 0.00972 0.78172 0.64777 0.0
O1565 O 0.98345 0.76154 0.61308 0.0
O1566 O 0.03037 0.75487 0.61402 0.0
O1567 O 1.00288 0.7347 0.64767 0.0
H1568 H 1.00621 0.80674 0.67921 0.0
H1569 H 0.0439 0.79079 0.62793 0.0
H1570 H 0.03105 0.83404 0.68833 0.0
H1571 H 0.06799 0.81833 0.6379 0.0
H1572 H 0.93204 0.78349 0.57193 0.0
H1573 H 0.97445 0.79559 0.63334 0.0
H1574 H 0.95886 0.7584 0.58117 0.0
H1575 H 0.94742 0.81996 0.62321 0.0
H1576 H 1.00529 0.85048 0.59875 0.0
H1577 H 0.03286 0.81055 0.55425 0.0
H1578 H 0.95419 0.78005 0.70806 0.0
H1579 H 0.91357 0.75911 0.66025 0.0
H1580 H 0.03735 0.72034 0.6343 0.0
H1581 H 0.05745 0.75819 0.58449 0.0
H1582 H 0.06479 0.6958 0.62613 0.0
H1583 H 0.08461 0.73291 0.57718 0.0
H1584 H 1.00543 0.70822 0.67794 0.0
H1585 H 0.96869 0.72731 0.62672 0.0
H1586 H 0.97975 0.68132 0.68538 0.0
H1587 H 0.94372 0.70016 0.63505 0.0
H1588 H 0.05857 0.73235 0.70784 0.0
H1589 H 0.09833 0.76089 0.66383 0.0
H1590 H 0.9856 0.70669 0.55186 0.0
H1591 H 1.00574 0.66554 0.59925 0.0
Li1592 Li 0.50972 0.27664 0.11641 0.0
Li1593 Li 0.4887 0.2605 0.14253 0.0
Li1594 Li 0.5253 0.25692 0.14347 0.0
Li1595 Li 0.50572 0.23887 0.11778 0.0
C1596 C 0.52174 0.29842 0.15183 0.0
N1597 N 0.5466 0.33079 0.16298 0.0
C1598 C 0.51737 0.30988 0.16929 0.0
C1599 C 0.53873 0.30345 0.14002 0.0
C1600 C 0.53013 0.32618 0.17469 0.0
C1601 C 0.55111 0.31987 0.1459 0.0
C1602 C 0.46891 0.27289 0.1065 0.0
C1603 C 0.4414 0.28177 0.08359 0.0
N1604 N 0.43798 0.299 0.0947 0.0
C1605 C 0.4651 0.29067 0.1177 0.0
C1606 C 0.45695 0.26838 0.08932 0.0
C1607 C 0.44941 0.30367 0.11149 0.0
C1608 C 0.5216 0.29621 0.08 0.0
N1609 N 0.51256 0.29941 0.09838 0.0
C1610 C 0.50887 0.335 0.09113 0.0
C1611 C 0.50611 0.3183 0.1041 0.0
C1612 C 0.51852 0.33217 0.07226 0.0
C1613 C 0.52487 0.31252 0.06665 0.0
H1614 H 0.52647 0.281 0.07582 0.0
H1615 H 0.49906 0.32048 0.11884 0.0
C1616 C 0.46829 0.2705 0.17868 0.0
N1617 N 0.46515 0.26343 0.15936 0.0
C1618 C 0.45182 0.2733 0.19184 0.0
C1619 C 0.4292 0.26126 0.16506 0.0
C1620 C 0.44611 0.25868 0.15241 0.0
C1621 C 0.43205 0.26871 0.18498 0.0
H1622 H 0.48362 0.27396 0.18383 0.0
H1623 H 0.44401 0.25296 0.13703 0.0
C1624 C 0.55043 0.24914 0.11132 0.0
N1625 N 0.59061 0.2371 0.10768 0.0
C1626 C 0.5568 0.23049 0.11946 0.0
C1627 C 0.5645 0.26168 0.10133 0.0
C1628 C 0.57718 0.22468 0.11748 0.0
C1629 C 0.58474 0.25531 0.09963 0.0
C1630 C 0.49099 0.21964 0.15203 0.0
C1631 C 0.49445 0.20649 0.16849 0.0
C1632 C 0.47367 0.21682 0.13974 0.0
C1633 C 0.4805 0.19082 0.17244 0.0
C1634 C 0.46009 0.20097 0.14419 0.0
N1635 N 0.46374 0.18841 0.16031 0.0
C1636 C 0.54629 0.24288 0.17824 0.0
C1637 C 0.56662 0.26417 0.15723 0.0
C1638 C 0.56271 0.23972 0.19155 0.0
N1639 N 0.54854 0.25475 0.16136 0.0
C1640 C 0.5834 0.26155 0.1702 0.0
C1641 C 0.58152 0.24906 0.18747 0.0
H1642 H 0.53175 0.23573 0.18128 0.0
H1643 H 0.56821 0.27346 0.14374 0.0
C1644 C 0.49419 0.21459 0.08342 0.0
N1645 N 0.50397 0.21448 0.10182 0.0
C1646 C 0.49273 0.19666 0.07181 0.0
C1647 C 0.51163 0.17901 0.0982 0.0
C1648 C 0.51245 0.19713 0.10941 0.0
C1649 C 0.50166 0.17867 0.0792 0.0
H1650 H 0.48753 0.2286 0.07779 0.0
H1651 H 0.51977 0.19732 0.12424 0.0
O1652 O 0.50926 0.28251 0.14632 0.0
O1653 O 0.48422 0.25989 0.11222 0.0
O1654 O 0.53065 0.25533 0.11352 0.0
O1655 O 0.50461 0.23503 0.148 0.0
H1656 H 0.50422 0.30626 0.17857 0.0
H1657 H 0.54238 0.29475 0.12648 0.0
H1658 H 0.52693 0.33517 0.18818 0.0
H1659 H 0.56431 0.3239 0.13689 0.0
H1660 H 0.43203 0.27847 0.07032 0.0
H1661 H 0.4741 0.2944 0.13109 0.0
H1662 H 0.45965 0.25466 0.0805 0.0
H1663 H 0.44631 0.31747 0.12002 0.0
H1664 H 0.50381 0.35 0.09585 0.0
H1665 H 0.53234 0.30988 0.05215 0.0
H1666 H 0.45444 0.27903 0.20718 0.0
H1667 H 0.41407 0.25757 0.15939 0.0
H1668 H 0.54626 0.22087 0.1277 0.0
H1669 H 0.55989 0.27627 0.09511 0.0
H1670 H 0.58236 0.21036 0.12387 0.0
H1671 H 0.5958 0.26487 0.09197 0.0
H1672 H 0.50779 0.20831 0.17812 0.0
H1673 H 0.4707 0.22666 0.12685 0.0
H1674 H 0.483 0.18055 0.18514 0.0
H1675 H 0.44665 0.19865 0.1348 0.0
H1676 H 0.56081 0.23004 0.20482 0.0
H1677 H 0.59775 0.26895 0.16668 0.0
H1678 H 0.48491 0.19684 0.05718 0.0
H1679 H 0.5186 0.16533 0.10433 0.0
C1680 C 0.25151 0.79827 0.88462 0.0
C1681 C 0.23265 0.78786 0.882 0.0
C1682 C 0.22011 0.80237 0.91416 0.0
C1683 C 0.23834 0.814 0.91593 0.0
N1684 N 0.27022 0.82549 0.90168 0.0
N1685 N 0.1979 0.78196 0.8924 0.0
C1686 C 0.25374 0.81263 0.90082 0.0
C1687 C 0.21663 0.79044 0.89627 0.0
N1688 N 0.26747 0.79399 0.87194 0.0
N1689 N 0.20639 0.80232 0.92984 0.0
H1690 H 0.19486 0.77291 0.8796 0.0
H1691 H 0.18495 0.78512 0.90098 0.0
H1692 H 0.20828 0.81111 0.94304 0.0
H1693 H 0.19392 0.79246 0.93053 0.0
H1694 H 0.28226 0.79931 0.87439 0.0
H1695 H 0.26632 0.78376 0.85973 0.0
H1696 H 0.28081 0.82688 0.88996 0.0
H1697 H 0.27251 0.83601 0.91347 0.0
C1698 C 0.03162 0.51486 0.36675 0.0
C1699 C 0.03813 0.52739 0.38329 0.0
C1700 C 0.07001 0.53492 0.36531 0.0
C1701 C 0.06436 0.52082 0.34975 0.0
N1702 N 0.04158 0.49437 0.33761 0.0
N1703 N 0.0651 0.54616 0.40023 0.0
C1704 C 0.04566 0.50991 0.35102 0.0
C1705 C 0.0578 0.53652 0.38313 0.0
N1706 N 0.01182 0.5083 0.36564 0.0
N1707 N 0.08661 0.54733 0.36275 0.0
H1708 H 0.05672 0.54742 0.41368 0.0
H1709 H 0.08012 0.5512 0.40172 0.0
H1710 H 0.09581 0.54684 0.34979 0.0
H1711 H 0.09017 0.55938 0.37257 0.0
H1712 H 1.00567 0.50099 0.35286 0.0
H1713 H 1.00098 0.51181 0.37671 0.0
H1714 H 0.02919 0.48449 0.33914 0.0
H1715 H 0.05159 0.49012 0.32603 0.0
C1716 C 0.77162 0.71061 0.87795 0.0
C1717 C 0.78138 0.72978 0.88094 0.0
C1718 C 0.7866 0.72165 0.91716 0.0
C1719 C 0.7748 0.70359 0.91463 0.0
N1720 N 0.75273 0.68284 0.89338 0.0
N1721 N 0.79469 0.75531 0.90417 0.0
C1722 C 0.76636 0.6986 0.89522 0.0
C1723 C 0.78792 0.73581 0.90078 0.0
N1724 N 0.76799 0.70355 0.85859 0.0
N1725 N 0.79715 0.72496 0.93495 0.0
H1726 H 0.79555 0.76627 0.89266 0.0
H1727 H 0.7976 0.76115 0.91872 0.0
H1728 H 0.79691 0.71476 0.94718 0.0
H1729 H 0.80765 0.73679 0.93683 0.0
H1730 H 0.76287 0.68877 0.85549 0.0
H1731 H 0.77193 0.71173 0.84552 0.0
H1732 H 0.74449 0.6799 0.88003 0.0
H1733 H 0.74817 0.67389 0.90572 0.0
C1734 C 0.96747 0.97151 0.37441 0.0
C1735 C 0.97583 0.98856 0.38498 0.0
C1736 C 0.95906 0.01189 0.36095 0.0
C1737 C 0.94955 0.9949 0.35131 0.0
N1738 N 0.94185 0.95886 0.35065 0.0
N1739 N 0.9773 0.02494 0.39061 0.0
C1740 C 0.95294 0.97478 0.35856 0.0
C1741 C 0.97097 0.00877 0.3789 0.0
N1742 N 0.97394 0.95223 0.37908 0.0
N1743 N 0.95721 0.03093 0.35256 0.0
H1744 H 0.98619 0.02322 0.40376 0.0
H1745 H 0.97244 0.03988 0.38827 0.0
H1746 H 0.94841 0.03383 0.33956 0.0
H1747 H 0.96559 0.04356 0.3575 0.0
H1748 H 0.9702 0.93938 0.37042 0.0
H1749 H 0.98442 0.94919 0.39074 0.0
H1750 H 0.94195 0.94421 0.3568 0.0
H1751 H 0.93118 0.96064 0.3389 0.0
C1752 C 0.22553 0.23572 0.61221 0.0
C1753 C 0.23146 0.2295 0.63214 0.0
C1754 C 0.24575 0.19794 0.61805 0.0
C1755 C 0.23795 0.20321 0.59848 0.0
N1756 N 0.217 0.22526 0.57767 0.0
N1757 N 0.2437 0.20302 0.65466 0.0
C1758 C 0.22685 0.22159 0.59575 0.0
C1759 C 0.24059 0.21011 0.63525 0.0
N1760 N 0.21931 0.25534 0.60884 0.0
N1761 N 0.25869 0.18173 0.62009 0.0
H1762 H 0.23987 0.21136 0.66767 0.0
H1763 H 0.24829 0.18814 0.65784 0.0
H1764 H 0.26307 0.17257 0.60782 0.0
H1765 H 0.26655 0.1785 0.63358 0.0
H1766 H 0.21688 0.26133 0.59429 0.0
H1767 H 0.21838 0.26625 0.62044 0.0
H1768 H 0.20692 0.23735 0.57556 0.0
H1769 H 0.21738 0.21516 0.56532 0.0
C1770 C 0.45563 0.53066 0.62953 0.0
C1771 C 0.47706 0.52922 0.63231 0.0
C1772 C 0.47228 0.52055 0.66845 0.0
C1773 C 0.45097 0.52351 0.66601 0.0
N1774 N 0.42227 0.53359 0.64523 0.0
N1775 N 0.50622 0.5253 0.65454 0.0
C1776 C 0.4426 0.52917 0.6468 0.0
C1777 C 0.48552 0.52482 0.65182 0.0
N1778 N 0.44774 0.53295 0.61027 0.0
N1779 N 0.47977 0.51322 0.68655 0.0
H1780 H 0.51641 0.52794 0.64263 0.0
H1781 H 0.51333 0.52454 0.66878 0.0
H1782 H 0.4706 0.51043 0.69923 0.0
H1783 H 0.49479 0.50852 0.68863 0.0
H1784 H 0.43225 0.53186 0.60684 0.0
H1785 H 0.45684 0.53447 0.59732 0.0
H1786 H 0.41558 0.54002 0.6323 0.0
H1787 H 0.41218 0.53213 0.65742 0.0
C1788 C 0.79544 0.29045 0.6188 0.0
C1789 C 0.77958 0.28801 0.6333 0.0
C1790 C 0.75752 0.31094 0.61348 0.0
C1791 C 0.77381 0.31433 0.59965 0.0
N1792 N 0.80881 0.30926 0.58979 0.0
N1793 N 0.74638 0.29711 0.64601 0.0
C1794 C 0.79293 0.3046 0.60249 0.0
C1795 C 0.76083 0.29859 0.63106 0.0
N1796 N 0.81273 0.27892 0.62045 0.0
N1797 N 0.73879 0.31926 0.60953 0.0
H1798 H 0.74793 0.2876 0.65869 0.0
H1799 H 0.73338 0.30617 0.64661 0.0
H1800 H 0.73601 0.329 0.59723 0.0
H1801 H 0.72564 0.3156 0.6176 0.0
H1802 H 0.82388 0.27813 0.60922 0.0
H1803 H 0.81546 0.26901 0.63262 0.0
H1804 H 0.82377 0.30463 0.59232 0.0
H1805 H 0.80732 0.31891 0.57721 0.0
C1806 C 0.54741 0.9686 0.64027 0.0
C1807 C 0.53703 0.98547 0.63151 0.0
C1808 C 0.55195 0.00824 0.65739 0.0
C1809 C 0.56375 0.99173 0.66495 0.0
N1810 N 0.57545 0.95701 0.66154 0.0
N1811 N 0.53199 0.02188 0.62931 0.0
C1812 C 0.56225 0.97211 0.65581 0.0
C1813 C 0.54002 1.00546 0.63939 0.0
N1814 N 0.54259 0.94916 0.63422 0.0
N1815 N 0.55162 0.02637 0.66779 0.0
H1816 H 0.5232 0.02046 0.61604 0.0
H1817 H 0.53548 0.03696 0.63304 0.0
H1818 H 0.5601 0.02898 0.68108 0.0
H1819 H 0.54162 0.0382 0.6643 0.0
H1820 H 0.548 0.93616 0.6416 0.0
H1821 H 0.53178 0.94596 0.6229 0.0
H1822 H 0.57658 0.94309 0.6539 0.0
H1823 H 0.58655 0.95901 0.67286 0.0
C1824 C 0.88286 0.22736 0.80503 0.0
C1825 C 0.88274 0.23659 0.7854 0.0
C1826 C 0.91506 0.25387 0.79342 0.0
C1827 C 0.91624 0.24293 0.8121 0.0
N1828 N 0.90318 0.21628 0.83394 0.0
N1829 N 0.90055 0.25555 0.75935 0.0
C1830 C 0.90066 0.22882 0.81743 0.0
C1831 C 0.89937 0.249 0.77914 0.0
N1832 N 0.86572 0.21783 0.81213 0.0
N1833 N 0.92849 0.26942 0.78962 0.0
H1834 H 0.88951 0.25207 0.74834 0.0
H1835 H 0.91337 0.26281 0.7534 0.0
H1836 H 0.94002 0.27367 0.79984 0.0
H1837 H 0.92701 0.27931 0.77726 0.0
H1838 H 0.86423 0.21275 0.82713 0.0
H1839 H 0.85225 0.21671 0.80364 0.0
H1840 H 0.89331 0.20424 0.83727 0.0
H1841 H 0.91614 0.21664 0.84325 0.0
C1842 C 0.49626 0.86663 0.48664 0.0
C1843 C 0.48357 0.88295 0.48019 0.0
C1844 C 0.47588 0.8646 0.44834 0.0
C1845 C 0.49022 0.84935 0.45388 0.0
N1846 N 0.51694 0.83777 0.47653 0.0
N1847 N 0.46428 0.89933 0.45335 0.0
C1848 C 0.50124 0.8509 0.47255 0.0
C1849 C 0.4742 0.88246 0.46058 0.0
N1850 N 0.503 0.86579 0.50643 0.0
N1851 N 0.46338 0.86171 0.43179 0.0
H1852 H 0.46291 0.9128 0.46175 0.0
H1853 H 0.45905 0.90062 0.43835 0.0
H1854 H 0.46396 0.84871 0.42257 0.0
H1855 H 0.45119 0.87129 0.42831 0.0
H1856 H 0.51048 0.85317 0.51255 0.0
H1857 H 0.49948 0.87689 0.5173 0.0
H1858 H 0.52689 0.83955 0.48887 0.0
H1859 H 0.52124 0.8262 0.46648 0.0
C1860 C 0.12703 0.2592 0.79298 0.0
C1861 C 0.13327 0.27937 0.78804 0.0
C1862 C 0.10756 0.2933 0.81129 0.0
C1863 C 0.10013 0.27323 0.81476 0.0
N1864 N 0.10066 0.23724 0.80688 0.0
N1865 N 0.1278 0.31574 0.78994 0.0
C1866 C 0.10929 0.2562 0.80506 0.0
C1867 C 0.12309 0.29648 0.79652 0.0
N1868 N 0.13841 0.24295 0.78659 0.0
N1869 N 0.10018 0.30924 0.82255 0.0
H1870 H 0.13917 0.3187 0.77924 0.0
H1871 H 0.11939 0.32863 0.7938 0.0
H1872 H 0.08871 0.30752 0.83342 0.0
H1873 H 0.10652 0.32384 0.82236 0.0
H1874 H 0.13597 0.22803 0.79152 0.0
H1875 H 0.15143 0.24456 0.77761 0.0
H1876 H 0.10524 0.22463 0.79838 0.0
H1877 H 0.08778 0.23441 0.81575 0.0
C1878 C 0.50746 0.63737 0.47475 0.0
C1879 C 0.52763 0.63113 0.47957 0.0
C1880 C 0.54144 0.65748 0.45686 0.0
C1881 C 0.52136 0.66483 0.45344 0.0
N1882 N 0.48547 0.66391 0.46128 0.0
N1883 N 0.56394 0.6369 0.47787 0.0
C1884 C 0.5044 0.65535 0.46298 0.0
C1885 C 0.54468 0.64164 0.47134 0.0
N1886 N 0.49126 0.62575 0.48092 0.0
N1887 N 0.55731 0.66524 0.44579 0.0
H1888 H 0.56694 0.62529 0.48835 0.0
H1889 H 0.5768 0.64549 0.4742 0.0
H1890 H 0.55555 0.67696 0.43514 0.0
H1891 H 0.5719 0.65901 0.4459 0.0
H1892 H 0.47633 0.6282 0.47602 0.0
H1893 H 0.4929 0.61255 0.48969 0.0
H1894 H 0.47291 0.65907 0.46968 0.0
H1895 H 0.48261 0.67698 0.45264 0.0
C1896 C 0.89106 0.79674 0.71747 0.0
C1897 C 0.88064 0.77972 0.72592 0.0
C1898 C 0.90455 0.75636 0.70921 0.0
C1899 C 0.91396 0.7733 0.69951 0.0
N1900 N 0.91431 0.80925 0.6916 0.0
N1901 N 0.87515 0.74332 0.72746 0.0
C1902 C 0.90668 0.79341 0.70285 0.0
C1903 C 0.88674 0.7595 0.72112 0.0
N1904 N 0.88647 0.81605 0.72394 0.0
N1905 N 0.91303 0.73738 0.70753 0.0
H1906 H 0.86207 0.74503 0.73631 0.0
H1907 H 0.8775 0.72836 0.72261 0.0
H1908 H 0.92597 0.73445 0.69879 0.0
H1909 H 0.90826 0.72484 0.71605 0.0
H1910 H 0.89504 0.82889 0.7201 0.0
H1911 H 0.87503 0.81911 0.73452 0.0
H1912 H 0.90811 0.82387 0.69167 0.0
H1913 H 0.92586 0.80743 0.68083 0.0
C1914 C 0.01659 0.86774 0.52833 0.0
C1915 C 0.02941 0.88409 0.53473 0.0
C1916 C 0.03731 0.86577 0.56644 0.0
C1917 C 0.02288 0.85047 0.56097 0.0
N1918 N 0.99593 0.83879 0.53851 0.0
N1919 N 0.04899 0.90054 0.56146 0.0
C1920 C 0.0117 0.85198 0.5424 0.0
C1921 C 0.03895 0.88364 0.55425 0.0
N1922 N 0.00965 0.8669 0.50861 0.0
N1923 N 0.04995 0.86293 0.58287 0.0
H1924 H 0.05034 0.91402 0.55309 0.0
H1925 H 0.05436 0.90184 0.57642 0.0
H1926 H 0.04939 0.84993 0.59206 0.0
H1927 H 0.0622 0.87254 0.58628 0.0
H1928 H 1.00207 0.85426 0.5025 0.0
H1929 H 0.0131 0.87802 0.49775 0.0
H1930 H 0.98587 0.84052 0.52626 0.0
H1931 H 0.99169 0.82719 0.54855 0.0
C1932 C 0.11541 0.74902 0.73448 0.0
C1933 C 0.13206 0.73685 0.728 0.0
C1934 C 0.11401 0.72913 0.69597 0.0
C1935 C 0.0984 0.74302 0.70154 0.0
N1936 N 0.08617 0.7692 0.72437 0.0
N1937 N 0.14903 0.7185 0.70098 0.0
C1938 C 0.09963 0.75383 0.72033 0.0
C1939 C 0.13188 0.72779 0.70827 0.0
N1940 N 0.11427 0.75538 0.75436 0.0
N1941 N 0.11147 0.71671 0.67933 0.0
H1942 H 0.16254 0.71746 0.7094 0.0
H1943 H 0.15047 0.71354 0.68592 0.0
H1944 H 0.09846 0.71699 0.67009 0.0
H1945 H 0.12138 0.70482 0.6758 0.0
H1946 H 0.10144 0.76244 0.76045 0.0
H1947 H 0.12537 0.75192 0.76529 0.0
H1948 H 0.08767 0.77902 0.73684 0.0
H1949 H 0.07457 0.77342 0.71426 0.0
C1950 C 0.96863 0.64325 0.54149 0.0
C1951 C 0.98566 0.63272 0.53337 0.0
C1952 C 0.00893 0.65689 0.55033 0.0
C1953 C 0.99196 0.6663 0.55984 0.0
N1954 N 0.95594 0.66672 0.56714 0.0
N1955 N 0.02202 0.62735 0.53228 0.0
C1956 C 0.97186 0.65901 0.55615 0.0
C1957 C 1.00584 0.63895 0.53839 0.0
N1958 N 0.9494 0.63857 0.53473 0.0
N1959 N 0.02791 0.66544 0.55225 0.0
H1960 H 0.02037 0.6142 0.52339 0.0
H1961 H 0.03692 0.62978 0.53734 0.0
H1962 H 0.03079 0.67848 0.56101 0.0
H1963 H 0.0405 0.66064 0.5439 0.0
H1964 H 0.93657 0.64717 0.53834 0.0
H1965 H 0.94641 0.62704 0.5241 0.0
H1966 H 0.94131 0.6605 0.56682 0.0
H1967 H 0.95769 0.67837 0.57792 0.0
C1968 C 0.78542 0.8913 0.25496 0.0
C1969 C 0.78348 0.88238 0.23525 0.0
C1970 C 0.80932 0.90602 0.22203 0.0
C1971 C 0.80981 0.91616 0.24122 0.0
N1972 N 0.79563 0.92091 0.27485 0.0
N1973 N 0.79066 0.88352 0.19913 0.0
C1974 C 0.79708 0.9095 0.25739 0.0
C1975 C 0.79461 0.89039 0.2185 0.0
N1976 N 0.77674 0.882 0.27148 0.0
N1977 N 0.8234 0.91079 0.20742 0.0
H1978 H 0.77988 0.87219 0.19591 0.0
H1979 H 0.79671 0.89031 0.1861 0.0
H1980 H 0.83455 0.92202 0.20948 0.0
H1981 H 0.82519 0.9024 0.19401 0.0
H1982 H 0.77949 0.88656 0.2865 0.0
H1983 H 0.76821 0.86856 0.27035 0.0
H1984 H 0.78499 0.91798 0.28626 0.0
H1985 H 0.80379 0.93443 0.27715 0.0
C1986 C 0.79339 0.1246 0.295 0.0
C1987 C 0.78515 0.13525 0.27799 0.0
C1988 C 0.80174 0.11128 0.25453 0.0
C1989 C 0.81123 0.10164 0.27149 0.0
N1990 N 0.81881 0.10083 0.30758 0.0
N1991 N 0.78376 0.14094 0.24161 0.0
C1992 C 0.80782 0.10879 0.29167 0.0
C1993 C 0.78996 0.1292 0.25774 0.0
N1994 N 0.78692 0.1292 0.31431 0.0
N1995 N 0.80352 0.10294 0.23544 0.0
H1996 H 0.77497 0.15408 0.24337 0.0
H1997 H 0.78864 0.13865 0.22667 0.0
H1998 H 0.81223 0.08998 0.23247 0.0
H1999 H 0.79514 0.10788 0.22283 0.0
H2000 H 0.79059 0.12052 0.32712 0.0
H2001 H 0.77649 0.14079 0.31737 0.0
H2002 H 0.81872 0.10691 0.32229 0.0
H2003 H 0.82938 0.0891 0.30575 0.0
C2004 C 0.36087 0.98754 0.97668 0.0
C2005 C 0.38083 0.98123 0.98228 0.0
C2006 C 0.36684 0.94945 0.99633 0.0
C2007 C 0.34724 0.95482 0.9888 0.0
N2008 N 0.32636 0.97714 0.9682 0.0
N2009 N 0.40335 0.95441 0.99368 0.0
C2010 C 0.34445 0.97336 0.97793 0.0
C2011 C 0.38398 0.96166 0.99105 0.0
N2012 N 0.35744 0.00728 0.97087 0.0
N2013 N 0.36901 0.93312 0.00915 0.0
H2014 H 0.41632 0.96272 0.98964 0.0
H2015 H 0.4065 0.93944 0.99801 0.0
H2016 H 0.35678 0.92399 0.01369 0.0
H2017 H 0.38258 0.9298 0.0168 0.0
H2018 H 0.34289 0.01327 0.96871 0.0
H2019 H 0.36899 0.01824 0.97007 0.0
H2020 H 0.32421 0.98939 0.95829 0.0
H2021 H 0.31406 0.96699 0.96846 0.0
C2022 C 0.22238 0.39129 0.2964 0.0
C2023 C 0.23154 0.38156 0.27936 0.0
C2024 C 0.21589 0.4066 0.2563 0.0
C2025 C 0.20534 0.41518 0.27313 0.0
N2026 N 0.19577 0.41377 0.30865 0.0
N2027 N 0.23453 0.37766 0.24283 0.0
C2028 C 0.20781 0.40698 0.29305 0.0
C2029 C 0.22761 0.38859 0.25921 0.0
N2030 N 0.22811 0.38597 0.3158 0.0
N2031 N 0.2152 0.41603 0.23768 0.0
H2032 H 0.24316 0.36439 0.24435 0.0
H2033 H 0.23029 0.38073 0.22779 0.0
H2034 H 0.2067 0.42919 0.23493 0.0
H2035 H 0.22434 0.41183 0.22541 0.0
H2036 H 0.22368 0.394 0.32877 0.0
H2037 H 0.23874 0.37454 0.31887 0.0
H2038 H 0.19525 0.40685 0.32295 0.0
H2039 H 0.18497 0.4253 0.3068 0.0
C2040 C 0.15267 0.03002 0.47645 0.0
C2041 C 0.13291 0.03633 0.48254 0.0
C2042 C 0.14727 0.06824 0.49612 0.0
C2043 C 0.1666 0.06286 0.4881 0.0
N2044 N 0.18692 0.04038 0.46725 0.0
N2045 N 0.1107 0.06303 0.49464 0.0
C2046 C 0.16909 0.04422 0.47729 0.0
C2047 C 0.12999 0.05591 0.49139 0.0
N2048 N 0.1559 0.01027 0.47052 0.0
N2049 N 0.14551 0.08473 0.50884 0.0
H2050 H 0.09762 0.05458 0.49113 0.0
H2051 H 0.10762 0.07801 0.49901 0.0
H2052 H 0.15785 0.09401 0.5129 0.0
H2053 H 0.13224 0.08808 0.51685 0.0
H2054 H 0.17037 1.00426 0.46799 0.0
H2055 H 0.14431 0.99932 0.46995 0.0
H2056 H 0.18881 0.02806 0.45735 0.0
H2057 H 0.19922 0.05053 0.46727 0.0
C2058 C 0.71764 0.1269 0.71985 0.0
C2059 C 0.72898 0.13528 0.73642 0.0
C2060 C 0.7155 0.10881 0.7592 0.0
C2061 C 0.70279 0.10162 0.74308 0.0
N2062 N 0.68892 0.106 0.70915 0.0
N2063 N 0.7361 0.13663 0.77261 0.0
C2064 C 0.70305 0.11129 0.72369 0.0
C2065 C 0.72718 0.12691 0.75633 0.0
N2066 N 0.72132 0.13336 0.70035 0.0
N2067 N 0.71693 0.09797 0.77699 0.0
H2068 H 0.7447 0.14997 0.77114 0.0
H2069 H 0.73351 0.13251 0.78775 0.0
H2070 H 0.70864 0.08461 0.77965 0.0
H2071 H 0.72758 0.10122 0.78842 0.0
H2072 H 0.71516 0.12627 0.68745 0.0
H2073 H 0.73197 0.1447 0.69688 0.0
H2074 H 0.68693 0.11401 0.69555 0.0
H2075 H 0.6779 0.0947 0.71142 0.0
C2076 C 0.38503 0.05531 0.52429 0.0
C2077 C 0.38161 0.03578 0.53306 0.0
C2078 C 0.34551 0.04417 0.5378 0.0
C2079 C 0.3485 0.06271 0.527 0.0
N2080 N 0.37033 0.08423 0.50658 0.0
N2081 N 0.35793 0.01006 0.54472 0.0
C2082 C 0.36806 0.06783 0.51929 0.0
C2083 C 0.36165 0.02976 0.53887 0.0
N2084 N 0.40451 0.06221 0.52137 0.0
N2085 N 0.3275 0.04061 0.54764 0.0
H2086 H 0.36928 0.99896 0.54543 0.0
H2087 H 0.3433 1.00426 0.54704 0.0
H2088 H 0.31541 0.05092 0.54747 0.0
H2089 H 0.32524 0.02835 0.55751 0.0
H2090 H 0.40793 0.07713 0.51706 0.0
H2091 H 0.41737 0.05362 0.52512 0.0
H2092 H 0.38379 0.08738 0.49878 0.0
H2093 H 0.35823 0.09363 0.5023 0.0
C2094 C 0.64029 0.47029 0.54754 0.0
C2095 C 0.63001 0.47917 0.53062 0.0
C2096 C 0.65457 0.4636 0.50715 0.0
C2097 C 0.66379 0.45338 0.52392 0.0
N2098 N 0.66366 0.44426 0.55961 0.0
N2099 N 0.6251 0.48184 0.49417 0.0
C2100 C 0.65615 0.45596 0.54401 0.0
C2101 C 0.63652 0.47514 0.51036 0.0
N2102 N 0.63532 0.47606 0.56699 0.0
N2103 N 0.66343 0.46278 0.48829 0.0
H2104 H 0.61184 0.49041 0.49591 0.0
H2105 H 0.62778 0.4775 0.4791 0.0
H2106 H 0.67659 0.45439 0.48533 0.0
H2107 H 0.65877 0.47171 0.47599 0.0
H2108 H 0.64372 0.47188 0.57985 0.0
H2109 H 0.62371 0.48643 0.57019 0.0
H2110 H 0.65721 0.44378 0.57412 0.0
H2111 H 0.67536 0.43369 0.55764 0.0
C2112 C 0.71836 0.28994 0.39569 0.0
C2113 C 0.73419 0.28764 0.38114 0.0
C2114 C 0.75516 0.31275 0.39965 0.0
C2115 C 0.74003 0.31378 0.41506 0.0
N2116 N 0.70857 0.30142 0.42952 0.0
N2117 N 0.76873 0.29437 0.37053 0.0
C2118 C 0.72198 0.30183 0.41357 0.0
C2119 C 0.7529 0.29838 0.38346 0.0
N2120 N 0.69969 0.28124 0.39209 0.0
N2121 N 0.77139 0.32593 0.40021 0.0
H2122 H 0.76757 0.2841 0.35836 0.0
H2123 H 0.78346 0.29996 0.37275 0.0
H2124 H 0.77367 0.33649 0.41197 0.0
H2125 H 0.78173 0.32755 0.38829 0.0
H2126 H 0.68685 0.28418 0.40091 0.0
H2127 H 0.69653 0.27225 0.37926 0.0
H2128 H 0.69631 0.29132 0.43038 0.0
H2129 H 0.71057 0.31015 0.44274 0.0
C2130 C 0.54484 0.04811 0.8738 0.0
C2131 C 0.53651 0.03084 0.88389 0.0
C2132 C 0.55358 0.00801 0.85965 0.0
C2133 C 0.56311 0.02521 0.85054 0.0
N2134 N 0.57038 0.06132 0.85053 0.0
N2135 N 0.53498 0.99436 0.88859 0.0
C2136 C 0.55945 0.0452 0.85806 0.0
C2137 C 0.54145 0.01076 0.87741 0.0
N2138 N 0.53832 0.06727 0.87887 0.0
N2139 N 0.55566 0.98912 0.85095 0.0
H2140 H 0.52583 0.99578 0.90151 0.0
H2141 H 0.53991 0.97947 0.88605 0.0
H2142 H 0.56466 0.98647 0.83811 0.0
H2143 H 0.54732 0.97636 0.85544 0.0
H2144 H 0.54202 0.08032 0.87059 0.0
H2145 H 0.52785 0.07002 0.89051 0.0
H2146 H 0.57012 0.07591 0.85689 0.0
H2147 H 0.58101 0.05982 0.83882 0.0
C2148 C 0.27413 0.20919 0.37846 0.0
C2149 C 0.28303 0.2288 0.38133 0.0
C2150 C 0.28798 0.22143 0.41776 0.0
C2151 C 0.27714 0.20278 0.41527 0.0
N2152 N 0.25651 0.18063 0.394 0.0
N2153 N 0.29494 0.25518 0.40433 0.0
C2154 C 0.26925 0.19712 0.39581 0.0
C2155 C 0.28899 0.23538 0.40117 0.0
N2156 N 0.27099 0.20179 0.35914 0.0
N2157 N 0.29791 0.22552 0.43574 0.0
H2158 H 0.29561 0.26596 0.39263 0.0
H2159 H 0.29737 0.26139 0.41881 0.0
H2160 H 0.29777 0.21557 0.44817 0.0
H2161 H 0.30782 0.23785 0.43768 0.0
H2162 H 0.26658 0.18678 0.35613 0.0
H2163 H 0.27461 0.21004 0.34602 0.0
H2164 H 0.2486 0.17709 0.3806 0.0
H2165 H 0.25234 0.17155 0.40638 0.0
C2166 C 0.4663 0.50627 0.88055 0.0
C2167 C 0.47676 0.48739 0.88229 0.0
C2168 C 0.45922 0.47439 0.85164 0.0
C2169 C 0.44956 0.49363 0.84932 0.0
N2170 N 0.4451 0.52861 0.85986 0.0
N2171 N 0.48509 0.45415 0.86886 0.0
C2172 C 0.45344 0.50979 0.86332 0.0
C2173 C 0.47375 0.47162 0.86764 0.0
N2174 N 0.46841 0.52065 0.89562 0.0
N2175 N 0.45417 0.45867 0.83874 0.0
H2176 H 0.49522 0.4512 0.88083 0.0
H2177 H 0.48547 0.44304 0.85749 0.0
H2178 H 0.44426 0.46036 0.82633 0.0
H2179 H 0.45876 0.44363 0.84088 0.0
H2180 H 0.45953 0.53375 0.89662 0.0
H2181 H 0.47833 0.51895 0.90801 0.0
H2182 H 0.44906 0.54169 0.86803 0.0
H2183 H 0.43498 0.53154 0.84787 0.0
C2184 C 0.73382 0.73578 0.11553 0.0
C2185 C 0.73434 0.72757 0.13559 0.0
C2186 C 0.74262 0.69375 0.12176 0.0
C2187 C 0.7404 0.70162 0.10168 0.0
N2188 N 0.73113 0.72919 0.07912 0.0
N2189 N 0.73646 0.69845 0.15801 0.0
C2190 C 0.73524 0.7224 0.09847 0.0
C2191 C 0.73801 0.70645 0.13878 0.0
N2192 N 0.73255 0.75645 0.11284 0.0
N2193 N 0.7496 0.67428 0.12453 0.0
H2194 H 0.73333 0.70733 0.17087 0.0
H2195 H 0.73672 0.68286 0.16107 0.0
H2196 H 0.75281 0.66444 0.11242 0.0
H2197 H 0.75371 0.66837 0.13872 0.0
H2198 H 0.73437 0.76359 0.09876 0.0
H2199 H 0.73132 0.76673 0.12497 0.0
H2200 H 0.72503 0.74351 0.07597 0.0
H2201 H 0.73232 0.71992 0.0662 0.0
C2202 C 0.95421 0.02949 0.12797 0.0
C2203 C 0.97555 0.03138 0.13134 0.0
C2204 C 0.9704 0.02913 0.16838 0.0
C2205 C 0.94929 0.02561 0.16491 0.0
N2206 N 0.92119 0.01989 0.14167 0.0
N2207 N 1.0045 0.03026 0.15419 0.0
C2208 C 0.9412 0.0251 0.14476 0.0
C2209 C 0.98381 0.03047 0.15142 0.0
N2210 N 0.94637 0.03248 0.1088 0.0
N2211 N 0.97752 0.03166 0.18792 0.0
H2212 H 0.01481 0.03147 0.14214 0.0
H2213 H 0.01153 0.02733 0.16817 0.0
H2214 H 0.96821 0.03042 0.20075 0.0
H2215 H 0.99227 0.03653 0.19141 0.0
H2216 H 0.93083 0.03355 0.10567 0.0
H2217 H 0.95547 0.03543 0.0961 0.0
H2218 H 0.91489 0.01696 0.12732 0.0
H2219 H 0.91109 0.01706 0.15362 0.0
C2220 C 0.26214 0.79843 0.13052 0.0
C2221 C 0.28068 0.7874 0.1323 0.0
C2222 C 0.29372 0.80377 0.10121 0.0
C2223 C 0.27478 0.81397 0.09885 0.0
N2224 N 0.24022 0.81994 0.1097 0.0
N2225 N 0.3134 0.77772 0.1188 0.0
C2226 C 0.25877 0.811 0.11309 0.0
C2227 C 0.29629 0.78956 0.11748 0.0
N2228 N 0.24795 0.79715 0.14573 0.0
N2229 N 0.30936 0.808 0.08809 0.0
H2230 H 0.31622 0.76782 0.13096 0.0
H2231 H 0.32432 0.77671 0.10737 0.0
H2232 H 0.30778 0.81764 0.0755 0.0
H2233 H 0.32427 0.80299 0.09021 0.0
H2234 H 0.23519 0.8065 0.1467 0.0
H2235 H 0.24948 0.78743 0.15826 0.0
H2236 H 0.22716 0.81662 0.11805 0.0
H2237 H 0.23745 0.82995 0.09762 0.0
C2238 C 0.03962 0.47102 0.14553 0.0
C2239 C 0.03702 0.48717 0.13131 0.0
C2240 C 0.05995 0.50908 0.15154 0.0
C2241 C 0.06355 0.49251 0.16502 0.0
N2242 N 0.0589 0.45713 0.17406 0.0
N2243 N 0.04595 0.52075 0.11917 0.0
C2244 C 0.05394 0.4733 0.16181 0.0
C2245 C 0.04754 0.506 0.13387 0.0
N2246 N 0.0281 0.45364 0.14363 0.0
N2247 N 0.06807 0.52788 0.15592 0.0
H2248 H 0.03644 0.51932 0.10641 0.0
H2249 H 0.05495 0.53386 0.11882 0.0
H2250 H 0.0777 0.53055 0.16839 0.0
H2251 H 0.06428 0.54116 0.14808 0.0
H2252 H 0.02744 0.44227 0.1547 0.0
H2253 H 0.01805 0.45109 0.13147 0.0
H2254 H 0.05432 0.44216 0.1712 0.0
H2255 H 0.06878 0.4584 0.18655 0.0
C2256 C 0.38243 0.72622 0.30478 0.0
C2257 C 0.38245 0.73544 0.28515 0.0
C2258 C 0.41473 0.7527 0.29337 0.0
C2259 C 0.41578 0.74175 0.31205 0.0
N2260 N 0.40256 0.71512 0.33382 0.0
N2261 N 0.40046 0.75436 0.2592 0.0
C2262 C 0.40016 0.72766 0.31729 0.0
C2263 C 0.39913 0.74783 0.27899 0.0
N2264 N 0.36524 0.71671 0.31178 0.0
N2265 N 0.42818 0.76824 0.28965 0.0
H2266 H 0.38949 0.75087 0.24811 0.0
H2267 H 0.41333 0.7616 0.25333 0.0
H2268 H 0.43965 0.77249 0.29994 0.0
H2269 H 0.42679 0.77813 0.27727 0.0
H2270 H 0.36366 0.71163 0.32677 0.0
H2271 H 0.35182 0.7156 0.3032 0.0
H2272 H 0.39266 0.7031 0.33709 0.0
H2273 H 0.41547 0.71547 0.34321 0.0
C2274 C 0.97522 0.38356 0.96027 0.0
C2275 C 0.98418 0.38389 0.98008 0.0
C2276 C 1.00144 0.35153 0.97282 0.0
C2277 C 0.99082 0.35017 0.9539 0.0
N2278 N 0.96459 0.36295 0.93132 0.0
N2279 N 1.00266 0.36635 0.00675 0.0
C2280 C 0.97684 0.36565 0.94809 0.0
C2281 C 0.99641 0.36734 0.98681 0.0
N2282 N 0.9658 0.4006 0.9528 0.0
N2283 N 0.01684 0.33816 0.97714 0.0
H2284 H 0.99906 0.37749 0.01755 0.0
H2285 H 0.00977 0.3536 0.01302 0.0
H2286 H 0.0212 0.32654 0.96716 0.0
H2287 H 0.02654 0.33976 0.98971 0.0
H2288 H 0.96093 0.40195 0.93768 0.0
H2289 H 0.96453 0.41412 0.96113 0.0
H2290 H 0.95264 0.37273 0.9276 0.0
H2291 H 0.9651 0.34991 0.92214 0.0
C2292 C 0.6265 0.75887 0.29338 0.0
C2293 C 0.63259 0.77907 0.28839 0.0
C2294 C 0.60656 0.79288 0.31133 0.0
C2295 C 0.59932 0.77276 0.31489 0.0
N2296 N 0.60022 0.73674 0.30718 0.0
N2297 N 0.62672 0.81538 0.28998 0.0
C2298 C 0.6087 0.75576 0.30533 0.0
C2299 C 0.62216 0.79613 0.29665 0.0
N2300 N 0.63809 0.74269 0.28719 0.0
N2301 N 0.59894 0.80882 0.32243 0.0
H2302 H 0.63813 0.81838 0.27933 0.0
H2303 H 0.61815 0.82821 0.29369 0.0
H2304 H 0.58742 0.80706 0.33324 0.0
H2305 H 0.60513 0.82349 0.32219 0.0
H2306 H 0.63575 0.72779 0.2922 0.0
H2307 H 0.65116 0.74437 0.27831 0.0
H2308 H 0.60498 0.72413 0.29876 0.0
H2309 H 0.58729 0.73384 0.31595 0.0
C2310 C 0.00857 0.13816 0.97448 0.0
C2311 C 0.02879 0.13216 0.97941 0.0
C2312 C 0.04238 0.15855 0.95662 0.0
C2313 C 0.02225 0.1657 0.95314 0.0
N2314 N 0.98634 0.16443 0.96087 0.0
N2315 N 0.06504 0.13827 0.97776 0.0
C2316 C 1.00536 0.15607 0.96265 0.0
C2317 C 0.04575 0.1428 0.97117 0.0
N2318 N 0.99247 0.12637 0.98062 0.0
N2319 N 0.05821 0.16642 0.94554 0.0
H2320 H 0.06813 0.12672 0.98829 0.0
H2321 H 0.07783 0.14697 0.97408 0.0
H2322 H 0.05635 0.17806 0.93483 0.0
H2323 H 0.07286 0.16033 0.94572 0.0
H2324 H 0.97753 0.12865 0.97564 0.0
H2325 H 0.99421 0.11322 0.98942 0.0
H2326 H 0.97381 0.15948 0.96925 0.0
H2327 H 0.98337 0.17744 0.95218 0.0
C2328 C 0.3914 0.29516 0.21678 0.0
C2329 C 0.38113 0.27807 0.22528 0.0
C2330 C 0.40505 0.25487 0.20837 0.0
C2331 C 0.41431 0.27187 0.19864 0.0
N2332 N 0.41439 0.30783 0.19075 0.0
N2333 N 0.37584 0.24165 0.2268 0.0
C2334 C 0.40693 0.29194 0.20204 0.0
C2335 C 0.38729 0.25789 0.2204 0.0
N2336 N 0.38676 0.31444 0.22331 0.0
N2337 N 0.41361 0.23593 0.20662 0.0
H2338 H 0.36281 0.24327 0.23575 0.0
H2339 H 0.37822 0.22671 0.22191 0.0
H2340 H 0.42651 0.23309 0.19779 0.0
H2341 H 0.40896 0.22335 0.21515 0.0
H2342 H 0.39523 0.32733 0.21943 0.0
H2343 H 0.37538 0.31743 0.23398 0.0
H2344 H 0.4081 0.32242 0.19089 0.0
H2345 H 0.42586 0.30608 0.17989 0.0
C2346 C 0.53843 0.38301 0.05208 0.0
C2347 C 0.5293 0.38345 0.03236 0.0
C2348 C 0.51145 0.35132 0.03968 0.0
C2349 C 0.52222 0.34984 0.05849 0.0
N2350 N 0.54885 0.36231 0.08092 0.0
N2351 N 0.51011 0.36621 1.00584 0.0
C2352 C 0.53654 0.36514 0.06424 0.0
C2353 C 0.51663 0.36708 0.02571 0.0
N2354 N 0.5483 0.39992 0.05949 0.0
N2355 N 0.49579 0.33809 0.03546 0.0
H2356 H 0.51379 0.37733 0.99506 0.0
H2357 H 0.50266 0.35357 0.99958 0.0
H2358 H 0.49138 0.32648 0.04541 0.0
H2359 H 0.486 0.33979 0.02299 0.0
H2360 H 0.55334 0.40123 0.07456 0.0
H2361 H 0.54981 0.4134 0.05115 0.0
H2362 H 0.56103 0.37193 0.08456 0.0
H2363 H 0.54814 0.34931 0.09009 0.0
C2364 C 0.61567 0.24907 0.2348 0.0
C2365 C 0.63305 0.23863 0.22731 0.0
C2366 C 0.61587 0.23345 0.1943 0.0
C2367 C 0.59933 0.24556 0.20117 0.0
N2368 N 0.58499 0.26798 0.22659 0.0
N2369 N 0.65131 0.22402 0.19892 0.0
C2370 C 0.59964 0.25425 0.22105 0.0
C2371 C 0.63361 0.23169 0.20675 0.0
N2372 N 0.61415 0.25342 0.25518 0.0
N2373 N 0.61435 0.22305 0.17621 0.0
H2374 H 0.66467 0.22258 0.20753 0.0
H2375 H 0.65329 0.22078 0.18347 0.0
H2376 H 0.60155 0.22383 0.1667 0.0
H2377 H 0.62497 0.21226 0.17147 0.0
H2378 H 0.60091 0.25899 0.26189 0.0
H2379 H 0.62551 0.24976 0.26577 0.0
H2380 H 0.58565 0.27647 0.24005 0.0
H2381 H 0.57307 0.27226 0.21689 0.0
C2382 C 0.51328 0.13783 0.03915 0.0
C2383 C 0.49869 0.12268 0.04449 0.0
C2384 C 0.48945 0.14254 0.07462 0.0
C2385 C 0.50086 0.15938 0.06718 0.0
N2386 N 0.52527 0.17272 0.04302 0.0
N2387 N 0.48988 0.10601 0.07604 0.0
C2388 C 0.5134 0.1569 0.04968 0.0
C2389 C 0.49116 0.12341 0.06474 0.0
N2390 N 0.52858 0.13288 0.02597 0.0
N2391 N 0.4769 0.14465 0.09108 0.0
H2392 H 0.49656 0.09245 0.07102 0.0
H2393 H 0.48586 0.10601 0.09145 0.0
H2394 H 0.47491 0.1585 0.09872 0.0
H2395 H 0.46723 0.13292 0.09586 0.0
H2396 H 0.54085 0.14246 0.02273 0.0
H2397 H 0.5302 0.11805 0.02031 0.0
H2398 H 0.53273 0.17262 0.029 0.0
H2399 H 0.5268 0.18644 0.051 0.0
C2400 C 0.29034 0.3881 0.75221 0.0
C2401 C 0.28235 0.38385 0.73245 0.0
C2402 C 0.30193 0.41241 0.71815 0.0
C2403 C 0.30885 0.41746 0.73812 0.0
N2404 N 0.3079 0.41212 0.77455 0.0
N2405 N 0.2781 0.39314 0.69705 0.0
C2406 C 0.30255 0.40586 0.75528 0.0
C2407 C 0.28748 0.39635 0.71552 0.0
N2408 N 0.28669 0.37482 0.7679 0.0
N2409 N 0.30957 0.42269 0.70167 0.0
H2410 H 0.26776 0.38126 0.69446 0.0
H2411 H 0.27939 0.40302 0.68469 0.0
H2412 H 0.31977 0.4349 0.70306 0.0
H2413 H 0.30699 0.41831 0.68658 0.0
H2414 H 0.2939 0.37572 0.78209 0.0
H2415 H 0.27745 0.3619 0.76633 0.0
H2416 H 0.30195 0.40575 0.78782 0.0
H2417 H 0.31727 0.42474 0.77736 0.0
C2418 C 0.29466 0.62626 0.79536 0.0
C2419 C 0.2859 0.63667 0.77847 0.0
C2420 C 0.30236 0.61284 0.75479 0.0
C2421 C 0.31232 0.60341 0.77159 0.0
N2422 N 0.32081 0.60305 0.8075 0.0
N2423 N 0.28382 0.64225 0.7421 0.0
C2424 C 0.30928 0.61067 0.7918 0.0
C2425 C 0.29044 0.63063 0.75815 0.0
N2426 N 0.28851 0.63082 0.81477 0.0
N2427 N 0.30377 0.60439 0.73572 0.0
H2428 H 0.27494 0.6553 0.74397 0.0
H2429 H 0.28848 0.63996 0.72708 0.0
H2430 H 0.31251 0.59148 0.73262 0.0
H2431 H 0.29505 0.60917 0.72328 0.0
H2432 H 0.29259 0.62226 0.82754 0.0
H2433 H 0.27794 0.64225 0.818 0.0
H2434 H 0.32092 0.60924 0.82217 0.0
H2435 H 0.3316 0.59156 0.80549 0.0
C2436 C 0.86382 0.48586 0.47777 0.0
C2437 C 0.88355 0.47916 0.48372 0.0
C2438 C 0.86869 0.44781 0.49781 0.0
C2439 C 0.84933 0.45353 0.48991 0.0
N2440 N 0.82916 0.47621 0.46901 0.0
N2441 N 0.90535 0.45215 0.496 0.0
C2442 C 0.84707 0.47208 0.47893 0.0
C2443 C 0.88616 0.45967 0.49281 0.0
N2444 N 0.86094 0.50561 0.47167 0.0
N2445 N 0.87029 0.43145 0.51067 0.0
H2446 H 0.91855 0.46025 0.49231 0.0
H2447 H 0.90817 0.43718 0.50055 0.0
H2448 H 0.85781 0.42251 0.51492 0.0
H2449 H 0.88362 0.42787 0.51861 0.0
H2450 H 0.84657 0.51193 0.46924 0.0
H2451 H 0.87277 0.51627 0.47088 0.0
H2452 H 0.82738 0.48844 0.45899 0.0
H2453 H 0.8166 0.46639 0.46927 0.0
C2454 C 0.71823 0.8844 0.76263 0.0
C2455 C 0.73067 0.88339 0.78042 0.0
C2456 C 0.71801 0.91679 0.79157 0.0
C2457 C 0.70431 0.91696 0.77471 0.0
N2458 N 0.68893 0.89967 0.7459 0.0
N2459 N 0.74022 0.89681 0.81347 0.0
C2460 C 0.70373 0.9004 0.76069 0.0
C2461 C 0.72996 0.8991 0.79537 0.0
N2462 N 0.72073 0.87042 0.7473 0.0
N2463 N 0.72006 0.9338 0.80359 0.0
H2464 H 0.74921 0.88411 0.81677 0.0
H2465 H 0.73851 0.90664 0.82587 0.0
H2466 H 0.71149 0.94702 0.80135 0.0
H2467 H 0.73138 0.93547 0.8147 0.0
H2468 H 0.71375 0.87163 0.73302 0.0
H2469 H 0.73114 0.85843 0.7482 0.0
H2470 H 0.68628 0.88696 0.73666 0.0
H2471 H 0.6781 0.91115 0.74394 0.0
C2472 C 0.62992 0.55627 0.98678 0.0
C2473 C 0.63332 0.53567 0.98099 0.0
C2474 C 0.67018 0.54213 0.97957 0.0
C2475 C 0.66689 0.56213 0.98721 0.0
N2476 N 0.64414 0.58745 1.00107 0.0
N2477 N 0.65663 0.50792 0.97484 0.0
C2478 C 0.64688 0.56901 0.99164 0.0
C2479 C 0.65346 0.52829 0.97818 0.0
N2480 N 0.61051 0.56385 0.98701 0.0
N2481 N 0.68917 0.53656 0.9731 0.0
H2482 H 0.64477 0.49732 0.97368 0.0
H2483 H 0.67103 0.50125 0.97489 0.0
H2484 H 0.7018 0.54628 0.97396 0.0
H2485 H 0.6921 0.523 0.96533 0.0
H2486 H 0.6072 0.57928 0.98891 0.0
H2487 H 0.59769 0.55498 0.98356 0.0
H2488 H 0.63016 0.59231 0.00675 0.0
H2489 H 0.65618 0.59728 1.00475 0.0
C2490 C 0.2205 0.62354 0.21835 0.0
C2491 C 0.22913 0.63432 0.23515 0.0
C2492 C 0.2128 0.61057 0.25905 0.0
C2493 C 0.20298 0.60076 0.24232 0.0
N2494 N 0.19477 0.59956 0.20637 0.0
N2495 N 0.23127 0.64033 0.27147 0.0
C2496 C 0.20607 0.60772 0.22203 0.0
C2497 C 0.22465 0.62846 0.25552 0.0
N2498 N 0.2266 0.62802 0.1989 0.0
N2499 N 0.21129 0.60243 0.27823 0.0
H2500 H 0.24014 0.65342 0.26948 0.0
H2501 H 0.22666 0.63818 0.28652 0.0
H2502 H 0.20253 0.5895 0.28144 0.0
H2503 H 0.2199 0.60749 0.29067 0.0
H2504 H 0.22266 0.61924 0.18619 0.0
H2505 H 0.23698 0.63965 0.19558 0.0
H2506 H 0.19464 0.60548 0.19161 0.0
H2507 H 0.18421 0.5878 0.20845 0.0
C2508 C 0.87669 0.55044 0.0459 0.0
C2509 C 0.88372 0.53817 0.02949 0.0
C2510 C 0.85586 0.55073 0.0078 0.0
C2511 C 0.8501 0.56447 0.02354 0.0
N2512 N 0.85744 0.58023 0.05614 0.0
N2513 N 0.88247 0.52945 0.99365 0.0
C2514 C 0.86121 0.56514 0.04221 0.0
C2515 C 0.87401 0.53911 0.01008 0.0
N2516 N 0.88428 0.54755 0.06518 0.0
N2517 N 0.84361 0.54821 0.991 0.0
H2518 H 0.89587 0.52095 0.99466 0.0
H2519 H 0.87728 0.5314 0.97871 0.0
H2520 H 0.83005 0.55623 0.98886 0.0
H2521 H 0.84591 0.53685 0.9801 0.0
H2522 H 0.87817 0.55451 0.0781 0.0
H2523 H 0.89547 0.53678 0.06858 0.0
H2524 H 0.8665 0.58276 0.06903 0.0
H2525 H 0.8464 0.59145 0.05389 0.0
C2526 C 0.14936 0.9855 0.03779 0.0
C2527 C 0.12952 0.97901 0.03179 0.0
C2528 C 0.14387 0.94746 0.01771 0.0
C2529 C 0.16332 0.953 0.02563 0.0
N2530 N 0.18378 0.97545 0.04674 0.0
N2531 N 0.10729 0.95211 0.0196 0.0
C2532 C 0.16585 0.97152 0.03669 0.0
C2533 C 0.12659 0.95948 0.02275 0.0
N2534 N 0.15261 1.00525 0.04385 0.0
N2535 N 0.14199 0.93113 1.00477 0.0
H2536 H 0.09422 0.96032 0.02337 0.0
H2537 H 0.10424 0.93714 0.01506 0.0
H2538 H 0.15433 0.9221 1.00045 0.0
H2539 H 0.1286 0.92769 0.99683 0.0
H2540 H 0.1671 0.01139 0.04631 0.0
H2541 H 0.14099 0.01607 0.04456 0.0
H2542 H 0.18572 0.98767 0.05679 0.0
H2543 H 0.19613 0.96545 0.04659 0.0
loop_
_geom_bond_atom_site_label_1
_geom_bond_atom_site_label_2
_geom_bond_distance
_geom_bond_site_symmetry_2
_ccdc_geom_bond_type
C0 C1 1.386 . S
C0 C2 1.397 . S
C0 H24 0.931 . S
C1 C0 1.386 . S
C1 C5 1.338 1_556 S
C2 C0 1.397 . S
C2 C3 1.384 1_556 S
C2 H25 0.930 . S
C3 C2 1.384 1_554 S
C3 C4 1.377 . S
C3 C6 1.481 . S
C4 C3 1.377 . S
C4 C5 1.425 . S
C4 H26 0.929 . S
C5 C1 1.338 1_554 S
C5 C4 1.425 . S
C5 H27 0.956 . S
C6 C3 1.481 . S
C6 C7 1.387 . S
C6 C11 1.390 . S
C7 C6 1.387 . S
C7 C8 1.401 . S
C7 H28 0.930 . S
C8 C7 1.401 . S
C8 C9 1.376 . S
C8 C17 1.511 . S
C9 C8 1.376 . S
C9 C10 1.392 . S
C9 H30 0.931 . S
C10 C9 1.392 . S
C10 C11 1.361 . S
C10 C12 1.500 . S
C11 C6 1.390 . S
C11 C10 1.361 . S
C11 H29 0.931 . S
C12 C10 1.500 . S
C12 C13 1.371 . S
C12 C14 1.365 1_455 S
C13 C12 1.371 . S
C13 C23 1.386 1_455 S
C13 H31 0.931 1_545 S
C14 C12 1.365 1_655 S
C14 C15 1.409 . S
C14 H32 0.920 1_655 S
C15 C14 1.409 . S
C15 C16 1.380 . S
C15 H33 0.930 . S
C16 C15 1.380 . S
C16 C23 1.357 . S
C17 C8 1.511 . S
C17 C18 1.341 . S
C17 C19 1.371 1_545 S
C18 C17 1.341 . S
C18 C22 1.394 1_545 S
C18 H34 0.930 1_554 S
C19 C17 1.371 1_565 S
C19 C20 1.392 . S
C19 H35 0.931 . S
C20 C19 1.392 . S
C20 C21 1.331 . S
C20 H38 0.932 . S
C21 C20 1.331 . S
C21 C22 1.336 . S
C22 C18 1.394 1_565 S
C22 C21 1.336 . S
C22 H37 0.929 1_554 S
C23 C13 1.386 1_655 S
C23 C16 1.357 . S
C23 H36 0.928 1_545 S
H24 C0 0.931 . S
H25 C2 0.930 . S
H26 C4 0.929 . S
H27 C5 0.956 . S
H28 C7 0.930 . S
H29 C11 0.931 . S
H30 C9 0.931 . S
H31 C13 0.931 1_565 S
H32 C14 0.920 1_455 S
H33 C15 0.930 . S
H34 C18 0.930 1_556 S
H35 C19 0.931 . S
H36 C23 0.928 1_565 S
H37 C22 0.929 1_556 S
H38 C20 0.932 . S
C39 C40 1.386 . S
C39 C41 1.397 . S
C39 H63 0.931 . S
C40 C39 1.386 . S
C40 C44 1.397 . S
C41 C39 1.397 . S
C41 C42 1.384 . S
C41 H64 0.930 . S
C42 C41 1.384 . S
C42 C43 1.377 . S
C42 C45 1.481 . S
C43 C42 1.377 . S
C43 C44 1.389 . S
C43 H65 0.929 . S
C44 C40 1.397 . S
C44 C43 1.389 . S
C44 H66 0.931 . S
C45 C42 1.481 . S
C45 C46 1.387 . S
C45 C50 1.390 . S
C46 C45 1.387 . S
C46 C47 1.401 . S
C46 H67 0.930 . S
C47 C46 1.401 . S
C47 C48 1.376 . S
C47 C56 1.511 . S
C48 C47 1.376 . S
C48 C49 1.392 . S
C48 H69 0.931 . S
C49 C48 1.392 . S
C49 C50 1.361 . S
C49 C51 1.500 . S
C50 C45 1.390 . S
C50 C49 1.361 . S
C50 H68 0.931 . S
C51 C49 1.500 . S
C51 C52 1.371 . S
C51 C53 1.365 . S
C52 C51 1.371 . S
C52 C62 1.386 . S
C52 H70 0.931 . S
C53 C51 1.365 . S
C53 C54 1.409 . S
C53 H71 0.929 . S
C54 C53 1.409 . S
C54 C55 1.380 . S
C54 H72 0.930 . S
C55 C54 1.380 . S
C55 C62 1.357 . S
C56 C47 1.511 . S
C56 C57 1.341 . S
C56 C58 1.371 . S
C57 C56 1.341 . S
C57 C61 1.394 . S
C57 H73 0.930 . S
C58 C56 1.371 . S
C58 C59 1.392 . S
C58 H74 0.931 . S
C59 C58 1.392 . S
C59 C60 1.331 . S
C59 H77 0.932 . S
C60 C59 1.331 . S
C60 C61 1.336 . S
C61 C57 1.394 . S
C61 C60 1.336 . S
C61 H76 0.929 . S
C62 C52 1.386 . S
C62 C55 1.357 . S
C62 H75 0.928 . S
H63 C39 0.931 . S
H64 C41 0.930 . S
H65 C43 0.929 . S
H66 C44 0.931 . S
H67 C46 0.930 . S
H68 C50 0.931 . S
H69 C48 0.931 . S
H70 C52 0.931 . S
H71 C53 0.929 . S
H72 C54 0.930 . S
H73 C57 0.930 . S
H74 C58 0.931 . S
H75 C62 0.928 . S
H76 C61 0.929 . S
H77 C59 0.932 . S
C78 C79 1.431 . S
C78 C80 1.369 1_455 S
C78 H102 0.915 1_455 S
C79 C78 1.431 . S
C79 C83 1.397 . S
C80 C78 1.369 1_655 S
C80 C81 1.384 . S
C80 H103 0.930 . S
C81 C80 1.384 . S
C81 C82 1.377 1_655 S
C81 C84 1.481 . S
C82 C81 1.377 1_455 S
C82 C83 1.389 . S
C82 H104 0.929 . S
C83 C79 1.397 . S
C83 C82 1.389 . S
C83 H105 0.931 . S
C84 C81 1.481 . S
C84 C85 1.387 . S
C84 C89 1.390 . S
C85 C84 1.387 . S
C85 C86 1.401 . S
C85 H106 0.930 . S
C86 C85 1.401 . S
C86 C87 1.376 . S
C86 C95 1.511 . S
C87 C86 1.376 . S
C87 C88 1.392 . S
C87 H108 0.931 . S
C88 C87 1.392 . S
C88 C89 1.361 . S
C88 C90 1.500 . S
C89 C84 1.390 . S
C89 C88 1.361 . S
C89 H107 0.931 . S
C90 C88 1.500 . S
C90 C91 1.371 1_554 S
C90 C92 1.365 . S
C91 C90 1.371 1_556 S
C91 C101 1.386 . S
C91 H109 0.931 . S
C92 C90 1.365 . S
C92 C93 1.409 1_554 S
C92 H110 0.929 1_655 S
C93 C92 1.409 1_556 S
C93 C94 1.380 . S
C93 H111 0.930 1_655 S
C94 C93 1.380 . S
C94 C101 1.357 . S
C95 C86 1.511 . S
C95 C96 1.341 . S
C95 C97 1.371 . S
C96 C95 1.341 . S
C96 C100 1.394 . S
C96 H112 0.930 . S
C97 C95 1.371 . S
C97 C98 1.392 . S
C97 H113 0.931 1_554 S
C98 C97 1.392 . S
C98 C99 1.331 . S
C98 H116 0.932 1_554 S
C99 C98 1.331 . S
C99 C100 1.336 . S
C100 C96 1.394 . S
C100 C99 1.336 . S
C100 H115 0.929 . S
C101 C91 1.386 . S
C101 C94 1.357 . S
C101 H114 0.928 . S
H102 C78 0.915 1_655 S
H103 C80 0.930 . S
H104 C82 0.929 . S
H105 C83 0.931 . S
H106 C85 0.930 . S
H107 C89 0.931 . S
H108 C87 0.931 . S
H109 C91 0.931 . S
H110 C92 0.929 1_455 S
H111 C93 0.930 1_455 S
H112 C96 0.930 . S
H113 C97 0.931 1_556 S
H114 C101 0.928 . S
H115 C100 0.929 . S
H116 C98 0.932 1_556 S
C117 C118 1.386 . S
C117 C119 1.397 . S
C117 H141 0.931 . S
C118 C117 1.386 . S
C118 C122 1.397 . S
C119 C117 1.397 . S
C119 C120 1.384 . S
C119 H142 0.930 . S
C120 C119 1.384 . S
C120 C121 1.377 . S
C120 C123 1.481 . S
C121 C120 1.377 . S
C121 C122 1.389 . S
C121 H143 0.929 . S
C122 C118 1.397 . S
C122 C121 1.389 . S
C122 H144 0.931 . S
C123 C120 1.481 . S
C123 C124 1.387 . S
C123 C128 1.390 . S
C124 C123 1.387 . S
C124 C125 1.401 . S
C124 H145 0.930 . S
C125 C124 1.401 . S
C125 C126 1.376 . S
C125 C134 1.511 . S
C126 C125 1.376 . S
C126 C127 1.392 . S
C126 H147 0.931 . S
C127 C126 1.392 . S
C127 C128 1.361 . S
C127 C129 1.500 . S
C128 C123 1.390 . S
C128 C127 1.361 . S
C128 H146 0.931 . S
C129 C127 1.500 . S
C129 C130 1.371 . S
C129 C131 1.365 . S
C130 C129 1.371 . S
C130 C140 1.386 . S
C130 H148 0.931 . S
C131 C129 1.365 . S
C131 C132 1.409 . S
C131 H149 0.929 . S
C132 C131 1.409 . S
C132 C133 1.380 . S
C132 H150 0.930 . S
C133 C132 1.380 . S
C133 C140 1.357 . S
C134 C125 1.511 . S
C134 C135 1.341 . S
C134 C136 1.371 . S
C135 C134 1.341 . S
C135 C139 1.394 . S
C135 H151 0.930 . S
C136 C134 1.371 . S
C136 C137 1.392 . S
C136 H152 0.931 . S
C137 C136 1.392 . S
C137 C138 1.331 . S
C137 H155 0.932 . S
C138 C137 1.331 . S
C138 C139 1.336 . S
C139 C135 1.394 . S
C139 C138 1.336 . S
C139 H154 0.929 . S
C140 C130 1.386 . S
C140 C133 1.357 . S
C140 H153 0.928 . S
H141 C117 0.931 . S
H142 C119 0.930 . S
H143 C121 0.929 . S
H144 C122 0.931 . S
H145 C124 0.930 . S
H146 C128 0.931 . S
H147 C126 0.931 . S
H148 C130 0.931 . S
H149 C131 0.929 . S
H150 C132 0.930 . S
H151 C135 0.930 . S
H152 C136 0.931 . S
H153 C140 0.928 . S
H154 C139 0.929 . S
H155 C137 0.932 . S
C156 C157 1.386 . S
C156 C158 1.397 . S
C156 H180 0.931 . S
C157 C156 1.386 . S
C157 C161 1.350 1_655 S
C158 C156 1.397 . S
C158 C159 1.384 1_655 S
C158 H181 0.930 . S
C159 C158 1.384 1_455 S
C159 C160 1.377 . S
C159 C162 1.481 . S
C160 C159 1.377 . S
C160 C161 1.418 . S
C160 H182 0.929 . S
C161 C157 1.350 1_455 S
C161 C160 1.418 . S
C161 H183 0.951 . S
C162 C159 1.481 . S
C162 C163 1.387 . S
C162 C167 1.390 . S
C163 C162 1.387 . S
C163 C164 1.401 . S
C163 H184 0.930 . S
C164 C163 1.401 . S
C164 C165 1.376 . S
C164 C173 1.511 . S
C165 C164 1.376 . S
C165 C166 1.392 . S
C165 H186 0.931 . S
C166 C165 1.392 . S
C166 C167 1.361 . S
C166 C168 1.500 . S
C167 C162 1.390 . S
C167 C166 1.361 . S
C167 H185 0.931 . S
C168 C166 1.500 . S
C168 C169 1.361 1_565 S
C168 C170 1.365 1_565 S
C169 C168 1.361 1_545 S
C169 C179 1.423 . S
C169 H187 0.908 1_545 S
C170 C168 1.365 1_545 S
C170 C171 1.409 . S
C170 H188 0.929 . S
C171 C170 1.409 . S
C171 C172 1.380 . S
C171 H189 0.930 . S
C172 C171 1.380 . S
C172 C179 1.357 . S
C173 C164 1.511 . S
C173 C174 1.341 . S
C173 C175 1.371 . S
C174 C173 1.341 . S
C174 C178 1.394 . S
C174 H190 0.930 1_455 S
C175 C173 1.371 . S
C175 C176 1.392 . S
C175 H191 0.931 . S
C176 C175 1.392 . S
C176 C177 1.331 . S
C176 H194 0.932 . S
C177 C176 1.331 . S
C177 C178 1.336 . S
C178 C174 1.394 . S
C178 C177 1.336 . S
C178 H193 0.929 1_455 S
C179 C169 1.423 . S
C179 C172 1.357 . S
C179 H192 0.928 . S
H180 C156 0.931 . S
H181 C158 0.930 . S
H182 C160 0.929 . S
H183 C161 0.951 . S
H184 C163 0.930 . S
H185 C167 0.931 . S
H186 C165 0.931 . S
H187 C169 0.908 1_565 S
H188 C170 0.929 . S
H189 C171 0.930 . S
H190 C174 0.930 1_655 S
H191 C175 0.931 . S
H192 C179 0.928 . S
H193 C178 0.929 1_655 S
H194 C176 0.932 . S
C195 C196 1.386 . S
C195 C197 1.397 . S
C195 H219 0.931 . S
C196 C195 1.386 . S
C196 C200 1.397 . S
C197 C195 1.397 . S
C197 C198 1.384 . S
C197 H220 0.930 . S
C198 C197 1.384 . S
C198 C199 1.377 . S
C198 C201 1.481 . S
C199 C198 1.377 . S
C199 C200 1.389 . S
C199 H221 0.929 . S
C200 C196 1.397 . S
C200 C199 1.389 . S
C200 H222 0.931 . S
C201 C198 1.481 . S
C201 C202 1.387 . S
C201 C206 1.390 . S
C202 C201 1.387 . S
C202 C203 1.401 . S
C202 H223 0.930 . S
C203 C202 1.401 . S
C203 C204 1.376 . S
C203 C212 1.511 . S
C204 C203 1.376 . S
C204 C205 1.392 . S
C204 H225 0.931 . S
C205 C204 1.392 . S
C205 C206 1.361 . S
C205 C207 1.500 . S
C206 C201 1.390 . S
C206 C205 1.361 . S
C206 H224 0.931 . S
C207 C205 1.500 . S
C207 C208 1.371 . S
C207 C209 1.365 . S
C208 C207 1.371 . S
C208 C218 1.386 . S
C208 H226 0.931 . S
C209 C207 1.365 . S
C209 C210 1.409 . S
C209 H227 0.929 . S
C210 C209 1.409 . S
C210 C211 1.380 . S
C210 H228 0.930 . S
C211 C210 1.380 . S
C211 C218 1.357 . S
C212 C203 1.511 . S
C212 C213 1.341 . S
C212 C214 1.371 . S
C213 C212 1.341 . S
C213 C217 1.394 . S
C213 H229 0.930 . S
C214 C212 1.371 . S
C214 C215 1.392 . S
C214 H230 0.931 . S
C215 C214 1.392 . S
C215 C216 1.331 . S
C215 H233 0.932 . S
C216 C215 1.331 . S
C216 C217 1.336 . S
C217 C213 1.394 . S
C217 C216 1.336 . S
C217 H232 0.929 . S
C218 C208 1.386 . S
C218 C211 1.357 . S
C218 H231 0.928 . S
H219 C195 0.931 . S
H220 C197 0.930 . S
H221 C199 0.929 . S
H222 C200 0.931 . S
H223 C202 0.930 . S
H224 C206 0.931 . S
H225 C204 0.931 . S
H226 C208 0.931 . S
H227 C209 0.929 . S
H228 C210 0.930 . S
H229 C213 0.930 . S
H230 C214 0.931 . S
H231 C218 0.928 . S
H232 C217 0.929 . S
H233 C215 0.932 . S
C234 C235 1.386 . S
C234 C236 1.397 . S
C234 H258 0.931 . S
C235 C234 1.386 . S
C235 C239 1.397 . S
C236 C234 1.397 . S
C236 C237 1.384 . S
C236 H259 0.930 . S
C237 C236 1.384 . S
C237 C238 1.377 . S
C237 C240 1.481 . S
C238 C237 1.377 . S
C238 C239 1.389 . S
C238 H260 0.929 . S
C239 C235 1.397 . S
C239 C238 1.389 . S
C239 H261 0.931 . S
C240 C237 1.481 . S
C240 C241 1.387 . S
C240 C245 1.390 . S
C241 C240 1.387 . S
C241 C242 1.401 . S
C241 H262 0.930 . S
C242 C241 1.401 . S
C242 C243 1.376 . S
C242 C251 1.511 . S
C243 C242 1.376 . S
C243 C244 1.392 . S
C243 H264 0.931 . S
C244 C243 1.392 . S
C244 C245 1.361 . S
C244 C246 1.500 . S
C245 C240 1.390 . S
C245 C244 1.361 . S
C245 H263 0.931 . S
C246 C244 1.500 . S
C246 C247 1.371 . S
C246 C248 1.365 . S
C247 C246 1.371 . S
C247 C257 1.386 . S
C247 H265 0.931 . S
C248 C246 1.365 . S
C248 C249 1.409 . S
C248 H266 0.929 . S
C249 C248 1.409 . S
C249 C250 1.380 . S
C249 H267 0.930 . S
C250 C249 1.380 . S
C250 C257 1.357 . S
C251 C242 1.511 . S
C251 C252 1.341 1_655 S
C251 C253 1.371 . S
C252 C251 1.341 1_455 S
C252 C256 1.394 . S
C252 H268 0.930 . S
C253 C251 1.371 . S
C253 C254 1.392 1_655 S
C253 H269 0.931 . S
C254 C253 1.392 1_455 S
C254 C255 1.331 . S
C254 H272 0.932 . S
C255 C254 1.331 . S
C255 C256 1.336 . S
C256 C252 1.394 . S
C256 C255 1.336 . S
C256 H271 0.929 . S
C257 C247 1.386 . S
C257 C250 1.357 . S
C257 H270 0.928 . S
H258 C234 0.931 . S
H259 C236 0.930 . S
H260 C238 0.929 . S
H261 C239 0.931 . S
H262 C241 0.930 . S
H263 C245 0.931 . S
H264 C243 0.931 . S
H265 C247 0.931 . S
H266 C248 0.929 . S
H267 C249 0.930 . S
H268 C252 0.930 . S
H269 C253 0.931 . S
H270 C257 0.928 . S
H271 C256 0.929 . S
H272 C254 0.932 . S
C273 C274 1.386 . S
C273 C275 1.397 . S
C273 H297 0.931 . S
C274 C273 1.386 . S
C274 C278 1.397 . S
C275 C273 1.397 . S
C275 C276 1.384 . S
C275 H298 0.930 . S
C276 C275 1.384 . S
C276 C277 1.377 . S
C276 C279 1.481 . S
C277 C276 1.377 . S
C277 C278 1.389 . S
C277 H299 0.929 . S
C278 C274 1.397 . S
C278 C277 1.389 . S
C278 H300 0.931 . S
C279 C276 1.481 . S
C279 C280 1.387 . S
C279 C284 1.390 . S
C280 C279 1.387 . S
C280 C281 1.401 . S
C280 H301 0.930 . S
C281 C280 1.401 . S
C281 C282 1.376 . S
C281 C290 1.511 . S
C282 C281 1.376 . S
C282 C283 1.392 . S
C282 H303 0.931 . S
C283 C282 1.392 . S
C283 C284 1.361 . S
C283 C285 1.500 . S
C284 C279 1.390 . S
C284 C283 1.361 . S
C284 H302 0.931 . S
C285 C283 1.500 . S
C285 C286 1.371 . S
C285 C287 1.365 . S
C286 C285 1.371 . S
C286 C296 1.386 . S
C286 H304 0.931 . S
C287 C285 1.365 . S
C287 C288 1.409 . S
C287 H305 0.929 . S
C288 C287 1.409 . S
C288 C289 1.380 . S
C288 H306 0.930 . S
C289 C288 1.380 . S
C289 C296 1.357 . S
C290 C281 1.511 . S
C290 C291 1.341 . S
C290 C292 1.371 . S
C291 C290 1.341 . S
C291 C295 1.394 . S
C291 H307 0.930 . S
C292 C290 1.371 . S
C292 C293 1.392 . S
C292 H308 0.931 . S
C293 C292 1.392 . S
C293 C294 1.331 . S
C293 H311 0.932 . S
C294 C293 1.331 . S
C294 C295 1.336 . S
C295 C291 1.394 . S
C295 C294 1.336 . S
C295 H310 0.929 . S
C296 C286 1.386 . S
C296 C289 1.357 . S
C296 H309 0.928 . S
H297 C273 0.931 . S
H298 C275 0.930 . S
H299 C277 0.929 . S
H300 C278 0.931 . S
H301 C280 0.930 . S
H302 C284 0.931 . S
H303 C282 0.931 . S
H304 C286 0.931 . S
H305 C287 0.929 . S
H306 C288 0.930 . S
H307 C291 0.930 . S
H308 C292 0.931 . S
H309 C296 0.928 . S
H310 C295 0.929 . S
H311 C293 0.932 . S
C312 C313 1.386 . S
C312 C314 1.397 . S
C312 H336 0.931 . S
C313 C312 1.386 . S
C313 C317 1.397 . S
C314 C312 1.397 . S
C314 C315 1.384 . S
C314 H337 0.930 . S
C315 C314 1.384 . S
C315 C316 1.377 . S
C315 C318 1.481 . S
C316 C315 1.377 . S
C316 C317 1.389 . S
C316 H338 0.929 . S
C317 C313 1.397 . S
C317 C316 1.389 . S
C317 H339 0.931 . S
C318 C315 1.481 . S
C318 C319 1.387 . S
C318 C323 1.390 . S
C319 C318 1.387 . S
C319 C320 1.401 . S
C319 H340 0.930 . S
C320 C319 1.401 . S
C320 C321 1.376 . S
C320 C329 1.511 . S
C321 C320 1.376 . S
C321 C322 1.392 . S
C321 H342 0.931 . S
C322 C321 1.392 . S
C322 C323 1.361 . S
C322 C324 1.500 . S
C323 C318 1.390 . S
C323 C322 1.361 . S
C323 H341 0.931 . S
C324 C322 1.500 . S
C324 C325 1.371 . S
C324 C326 1.365 . S
C325 C324 1.371 . S
C325 C335 1.386 . S
C325 H343 0.931 . S
C326 C324 1.365 . S
C326 C327 1.409 . S
C326 H344 0.929 . S
C327 C326 1.409 . S
C327 C328 1.380 . S
C327 H345 0.930 . S
C328 C327 1.380 . S
C328 C335 1.357 . S
C329 C320 1.511 . S
C329 C330 1.341 . S
C329 C331 1.371 . S
C330 C329 1.341 . S
C330 C334 1.394 . S
C330 H346 0.930 . S
C331 C329 1.371 . S
C331 C332 1.392 . S
C331 H347 0.931 . S
C332 C331 1.392 . S
C332 C333 1.331 . S
C332 H350 0.932 . S
C333 C332 1.331 . S
C333 C334 1.336 . S
C334 C330 1.394 . S
C334 C333 1.336 . S
C334 H349 0.929 . S
C335 C325 1.386 . S
C335 C328 1.357 . S
C335 H348 0.928 . S
H336 C312 0.931 . S
H337 C314 0.930 . S
H338 C316 0.929 . S
H339 C317 0.931 . S
H340 C319 0.930 . S
H341 C323 0.931 . S
H342 C321 0.931 . S
H343 C325 0.931 . S
H344 C326 0.929 . S
H345 C327 0.930 . S
H346 C330 0.930 . S
H347 C331 0.931 . S
H348 C335 0.928 . S
H349 C334 0.929 . S
H350 C332 0.932 . S
C351 C352 1.386 . S
C351 C353 1.397 . S
C351 H375 0.931 . S
C352 C351 1.386 . S
C352 C356 1.397 . S
C353 C351 1.397 . S
C353 C354 1.384 . S
C353 H376 0.930 . S
C354 C353 1.384 . S
C354 C355 1.377 . S
C354 C357 1.481 . S
C355 C354 1.377 . S
C355 C356 1.389 . S
C355 H377 0.929 . S
C356 C352 1.397 . S
C356 C355 1.389 . S
C356 H378 0.931 . S
C357 C354 1.481 . S
C357 C358 1.387 . S
C357 C362 1.390 . S
C358 C357 1.387 . S
C358 C359 1.401 . S
C358 H379 0.930 . S
C359 C358 1.401 . S
C359 C360 1.376 . S
C359 C368 1.511 . S
C360 C359 1.376 . S
C360 C361 1.392 . S
C360 H381 0.931 . S
C361 C360 1.392 . S
C361 C362 1.361 . S
C361 C363 1.500 . S
C362 C357 1.390 . S
C362 C361 1.361 . S
C362 H380 0.931 . S
C363 C361 1.500 . S
C363 C364 1.371 . S
C363 C365 1.365 . S
C364 C363 1.371 . S
C364 C374 1.386 . S
C364 H382 0.931 . S
C365 C363 1.365 . S
C365 C366 1.409 . S
C365 H383 0.929 . S
C366 C365 1.409 . S
C366 C367 1.380 . S
C366 H384 0.930 . S
C367 C366 1.380 . S
C367 C374 1.357 . S
C368 C359 1.511 . S
C368 C369 1.341 1_565 S
C368 C370 1.371 . S
C369 C368 1.341 1_545 S
C369 C373 1.394 . S
C369 H385 0.930 . S
C370 C368 1.371 . S
C370 C371 1.392 1_565 S
C370 H386 0.931 . S
C371 C370 1.392 1_545 S
C371 C372 1.331 . S
C371 H389 0.932 . S
C372 C371 1.331 . S
C372 C373 1.336 . S
C373 C369 1.394 . S
C373 C372 1.336 . S
C373 H388 0.929 . S
C374 C364 1.386 . S
C374 C367 1.357 . S
C374 H387 0.928 . S
H375 C351 0.931 . S
H376 C353 0.930 . S
H377 C355 0.929 . S
H378 C356 0.931 . S
H379 C358 0.930 . S
H380 C362 0.931 . S
H381 C360 0.931 . S
H382 C364 0.931 . S
H383 C365 0.929 . S
H384 C366 0.930 . S
H385 C369 0.930 . S
H386 C370 0.931 . S
H387 C374 0.928 . S
H388 C373 0.929 . S
H389 C371 0.932 . S
C390 C391 1.386 . S
C390 C392 1.397 . S
C390 H414 0.931 . S
C391 C390 1.386 . S
C391 C395 1.397 . S
C392 C390 1.397 . S
C392 C393 1.384 . S
C392 H415 0.930 . S
C393 C392 1.384 . S
C393 C394 1.377 . S
C393 C396 1.481 . S
C394 C393 1.377 . S
C394 C395 1.389 . S
C394 H416 0.929 . S
C395 C391 1.397 . S
C395 C394 1.389 . S
C395 H417 0.931 . S
C396 C393 1.481 . S
C396 C397 1.387 . S
C396 C401 1.390 . S
C397 C396 1.387 . S
C397 C398 1.401 . S
C397 H418 0.930 . S
C398 C397 1.401 . S
C398 C399 1.376 . S
C398 C407 1.511 . S
C399 C398 1.376 . S
C399 C400 1.392 . S
C399 H420 0.931 . S
C400 C399 1.392 . S
C400 C401 1.361 . S
C400 C402 1.500 . S
C401 C396 1.390 . S
C401 C400 1.361 . S
C401 H419 0.931 . S
C402 C400 1.500 . S
C402 C403 1.371 . S
C402 C404 1.365 . S
C403 C402 1.371 . S
C403 C413 1.386 . S
C403 H421 0.931 . S
C404 C402 1.365 . S
C404 C405 1.409 . S
C404 H422 0.929 . S
C405 C404 1.409 . S
C405 C406 1.380 . S
C405 H423 0.930 . S
C406 C405 1.380 . S
C406 C413 1.357 . S
C407 C398 1.511 . S
C407 C408 1.341 . S
C407 C409 1.371 . S
C408 C407 1.341 . S
C408 C412 1.394 . S
C408 H424 0.930 . S
C409 C407 1.371 . S
C409 C410 1.392 . S
C409 H425 0.931 . S
C410 C409 1.392 . S
C410 C411 1.331 . S
C410 H428 0.932 . S
C411 C410 1.331 . S
C411 C412 1.336 . S
C412 C408 1.394 . S
C412 C411 1.336 . S
C412 H427 0.929 . S
C413 C403 1.386 . S
C413 C406 1.357 . S
C413 H426 0.928 . S
H414 C390 0.931 . S
H415 C392 0.930 . S
H416 C394 0.929 . S
H417 C395 0.931 . S
H418 C397 0.930 . S
H419 C401 0.931 . S
H420 C399 0.931 . S
H421 C403 0.931 . S
H422 C404 0.929 . S
H423 C405 0.930 . S
H424 C408 0.930 . S
H425 C409 0.931 . S
H426 C413 0.928 . S
H427 C412 0.929 . S
H428 C410 0.932 . S
C429 C430 1.386 . S
C429 C431 1.397 . S
C429 H453 0.931 . S
C430 C429 1.386 . S
C430 C434 1.397 . S
C431 C429 1.397 . S
C431 C432 1.384 . S
C431 H454 0.930 . S
C432 C431 1.384 . S
C432 C433 1.377 . S
C432 C435 1.481 . S
C433 C432 1.377 . S
C433 C434 1.389 . S
C433 H455 0.929 . S
C434 C430 1.397 . S
C434 C433 1.389 . S
C434 H456 0.931 . S
C435 C432 1.481 . S
C435 C436 1.387 . S
C435 C440 1.390 . S
C436 C435 1.387 . S
C436 C437 1.401 . S
C436 H457 0.930 . S
C437 C436 1.401 . S
C437 C438 1.376 . S
C437 C446 1.511 . S
C438 C437 1.376 . S
C438 C439 1.392 . S
C438 H459 0.931 . S
C439 C438 1.392 . S
C439 C440 1.361 . S
C439 C441 1.500 . S
C440 C435 1.390 . S
C440 C439 1.361 . S
C440 H458 0.931 . S
C441 C439 1.500 . S
C441 C442 1.371 . S
C441 C443 1.365 . S
C442 C441 1.371 . S
C442 C452 1.386 . S
C442 H460 0.931 . S
C443 C441 1.365 . S
C443 C444 1.409 . S
C443 H461 0.929 . S
C444 C443 1.409 . S
C444 C445 1.380 . S
C444 H462 0.930 . S
C445 C444 1.380 . S
C445 C452 1.357 . S
C446 C437 1.511 . S
C446 C447 1.341 . S
C446 C448 1.371 . S
C447 C446 1.341 . S
C447 C451 1.394 . S
C447 H463 0.930 . S
C448 C446 1.371 . S
C448 C449 1.392 . S
C448 H464 0.931 . S
C449 C448 1.392 . S
C449 C450 1.331 . S
C449 H467 0.932 . S
C450 C449 1.331 . S
C450 C451 1.336 . S
C451 C447 1.394 . S
C451 C450 1.336 . S
C451 H466 0.929 . S
C452 C442 1.386 . S
C452 C445 1.357 . S
C452 H465 0.928 . S
H453 C429 0.931 . S
H454 C431 0.930 . S
H455 C433 0.929 . S
H456 C434 0.931 . S
H457 C436 0.930 . S
H458 C440 0.931 . S
H459 C438 0.931 . S
H460 C442 0.931 . S
H461 C443 0.929 . S
H462 C444 0.930 . S
H463 C447 0.930 . S
H464 C448 0.931 . S
H465 C452 0.928 . S
H466 C451 0.929 . S
H467 C449 0.932 . S
C468 C469 1.386 . S
C468 C470 1.397 . S
C468 H492 0.931 . S
C469 C468 1.386 . S
C469 C473 1.397 . S
C470 C468 1.397 . S
C470 C471 1.384 . S
C470 H493 0.930 . S
C471 C470 1.384 . S
C471 C472 1.377 . S
C471 C474 1.481 . S
C472 C471 1.377 . S
C472 C473 1.389 . S
C472 H494 0.929 . S
C473 C469 1.397 . S
C473 C472 1.389 . S
C473 H495 0.931 . S
C474 C471 1.481 . S
C474 C475 1.387 . S
C474 C479 1.390 . S
C475 C474 1.387 . S
C475 C476 1.401 . S
C475 H496 0.930 . S
C476 C475 1.401 . S
C476 C477 1.376 . S
C476 C485 1.511 . S
C477 C476 1.376 . S
C477 C478 1.392 . S
C477 H498 0.931 . S
C478 C477 1.392 . S
C478 C479 1.361 . S
C478 C480 1.500 . S
C479 C474 1.390 . S
C479 C478 1.361 . S
C479 H497 0.931 . S
C480 C478 1.500 . S
C480 C481 1.371 . S
C480 C482 1.365 . S
C481 C480 1.371 . S
C481 C491 1.386 . S
C481 H499 0.931 . S
C482 C480 1.365 . S
C482 C483 1.409 . S
C482 H500 0.929 . S
C483 C482 1.409 . S
C483 C484 1.380 . S
C483 H501 0.930 . S
C484 C483 1.380 . S
C484 C491 1.357 . S
C485 C476 1.511 . S
C485 C486 1.341 . S
C485 C487 1.371 . S
C486 C485 1.341 . S
C486 C490 1.394 . S
C486 H502 0.930 . S
C487 C485 1.371 . S
C487 C488 1.392 . S
C487 H503 0.931 . S
C488 C487 1.392 . S
C488 C489 1.331 . S
C488 H506 0.932 . S
C489 C488 1.331 . S
C489 C490 1.336 . S
C490 C486 1.394 . S
C490 C489 1.336 . S
C490 H505 0.929 . S
C491 C481 1.386 . S
C491 C484 1.357 . S
C491 H504 0.928 . S
H492 C468 0.931 . S
H493 C470 0.930 . S
H494 C472 0.929 . S
H495 C473 0.931 . S
H496 C475 0.930 . S
H497 C479 0.931 . S
H498 C477 0.931 . S
H499 C481 0.931 . S
H500 C482 0.929 . S
H501 C483 0.930 . S
H502 C486 0.930 . S
H503 C487 0.931 . S
H504 C491 0.928 . S
H505 C490 0.929 . S
H506 C488 0.932 . S
C507 C508 1.386 . S
C507 C509 1.397 . S
C507 H531 0.931 . S
C508 C507 1.386 . S
C508 C512 1.397 . S
C509 C507 1.397 . S
C509 C510 1.384 . S
C509 H532 0.930 . S
C510 C509 1.384 . S
C510 C511 1.377 . S
C510 C513 1.481 . S
C511 C510 1.377 . S
C511 C512 1.389 . S
C511 H533 0.929 . S
C512 C508 1.397 . S
C512 C511 1.389 . S
C512 H534 0.931 . S
C513 C510 1.481 . S
C513 C514 1.387 . S
C513 C518 1.390 . S
C514 C513 1.387 . S
C514 C515 1.401 . S
C514 H535 0.930 . S
C515 C514 1.401 . S
C515 C516 1.376 . S
C515 C524 1.511 . S
C516 C515 1.376 . S
C516 C517 1.392 . S
C516 H537 0.931 . S
C517 C516 1.392 . S
C517 C518 1.361 . S
C517 C519 1.500 . S
C518 C513 1.390 . S
C518 C517 1.361 . S
C518 H536 0.931 . S
C519 C517 1.500 . S
C519 C520 1.371 . S
C519 C521 1.365 . S
C520 C519 1.371 . S
C520 C530 1.386 . S
C520 H538 0.931 1_556 S
C521 C519 1.365 . S
C521 C522 1.409 . S
C521 H539 0.929 . S
C522 C521 1.409 . S
C522 C523 1.380 . S
C522 H540 0.930 . S
C523 C522 1.380 . S
C523 C530 1.357 . S
C524 C515 1.511 . S
C524 C525 1.341 . S
C524 C526 1.371 1_556 S
C525 C524 1.341 . S
C525 C529 1.394 1_556 S
C525 H541 0.930 . S
C526 C524 1.371 1_554 S
C526 C527 1.392 . S
C526 H542 0.931 . S
C527 C526 1.392 . S
C527 C528 1.331 . S
C527 H545 0.932 . S
C528 C527 1.331 . S
C528 C529 1.336 . S
C529 C525 1.394 1_554 S
C529 C528 1.336 . S
C529 H544 0.929 . S
C530 C520 1.386 . S
C530 C523 1.357 . S
C530 H543 0.928 1_556 S
H531 C507 0.931 . S
H532 C509 0.930 . S
H533 C511 0.929 . S
H534 C512 0.931 . S
H535 C514 0.930 . S
H536 C518 0.931 . S
H537 C516 0.931 . S
H538 C520 0.931 1_554 S
H539 C521 0.929 . S
H540 C522 0.930 . S
H541 C525 0.930 . S
H542 C526 0.931 . S
H543 C530 0.928 1_554 S
H544 C529 0.929 . S
H545 C527 0.932 . S
C546 C547 1.386 . S
C546 C548 1.397 . S
C546 H570 0.931 . S
C547 C546 1.386 . S
C547 C551 1.397 . S
C548 C546 1.397 . S
C548 C549 1.384 . S
C548 H571 0.930 . S
C549 C548 1.384 . S
C549 C550 1.377 . S
C549 C552 1.481 . S
C550 C549 1.377 . S
C550 C551 1.389 . S
C550 H572 0.929 . S
C551 C547 1.397 . S
C551 C550 1.389 . S
C551 H573 0.931 . S
C552 C549 1.481 . S
C552 C553 1.387 . S
C552 C557 1.390 . S
C553 C552 1.387 . S
C553 C554 1.401 . S
C553 H574 0.930 . S
C554 C553 1.401 . S
C554 C555 1.376 . S
C554 C563 1.511 . S
C555 C554 1.376 . S
C555 C556 1.392 . S
C555 H576 0.931 . S
C556 C555 1.392 . S
C556 C557 1.361 . S
C556 C558 1.500 . S
C557 C552 1.390 . S
C557 C556 1.361 . S
C557 H575 0.931 . S
C558 C556 1.500 . S
C558 C559 1.371 . S
C558 C560 1.365 . S
C559 C558 1.371 . S
C559 C569 1.386 . S
C559 H577 0.931 . S
C560 C558 1.365 . S
C560 C561 1.409 . S
C560 H578 0.929 . S
C561 C560 1.409 . S
C561 C562 1.380 . S
C561 H579 0.930 . S
C562 C561 1.380 . S
C562 C569 1.357 . S
C563 C554 1.511 . S
C563 C564 1.341 . S
C563 C565 1.371 . S
C564 C563 1.341 . S
C564 C568 1.394 . S
C564 H580 0.930 . S
C565 C563 1.371 . S
C565 C566 1.392 . S
C565 H581 0.931 . S
C566 C565 1.392 . S
C566 C567 1.331 . S
C566 H584 0.932 . S
C567 C566 1.331 . S
C567 C568 1.336 . S
C568 C564 1.394 . S
C568 C567 1.336 . S
C568 H583 0.929 . S
C569 C559 1.386 . S
C569 C562 1.357 . S
C569 H582 0.928 . S
H570 C546 0.931 . S
H571 C548 0.930 . S
H572 C550 0.929 . S
H573 C551 0.931 . S
H574 C553 0.930 . S
H575 C557 0.931 . S
H576 C555 0.931 . S
H577 C559 0.931 . S
H578 C560 0.929 . S
H579 C561 0.930 . S
H580 C564 0.930 . S
H581 C565 0.931 . S
H582 C569 0.928 . S
H583 C568 0.929 . S
H584 C566 0.932 . S
C585 C586 1.386 . S
C585 C587 1.397 1_554 S
C585 H609 0.931 1_554 S
C586 C585 1.386 . S
C586 C590 1.397 . S
C587 C585 1.397 1_556 S
C587 C588 1.384 . S
C587 H610 0.930 . S
C588 C587 1.384 . S
C588 C589 1.377 1_556 S
C588 C591 1.481 . S
C589 C588 1.377 1_554 S
C589 C590 1.389 . S
C589 H611 0.929 . S
C590 C586 1.397 . S
C590 C589 1.389 . S
C590 H612 0.931 . S
C591 C588 1.481 . S
C591 C592 1.387 . S
C591 C596 1.390 . S
C592 C591 1.387 . S
C592 C593 1.401 . S
C592 H613 0.930 . S
C593 C592 1.401 . S
C593 C594 1.376 . S
C593 C602 1.511 . S
C594 C593 1.376 . S
C594 C595 1.392 . S
C594 H615 0.931 . S
C595 C594 1.392 . S
C595 C596 1.361 . S
C595 C597 1.500 . S
C596 C591 1.390 . S
C596 C595 1.361 . S
C596 H614 0.931 . S
C597 C595 1.500 . S
C597 C598 1.371 1_545 S
C597 C599 1.365 . S
C598 C597 1.371 1_565 S
C598 C608 1.386 . S
C598 H616 0.931 . S
C599 C597 1.365 . S
C599 C600 1.414 1_545 S
C599 H617 0.929 1_556 S
C600 C599 1.414 1_565 S
C600 C601 1.401 . S
C600 H618 0.905 1_556 S
C601 C600 1.401 . S
C601 C608 1.357 . S
C602 C593 1.511 . S
C602 C603 1.341 . S
C602 C604 1.371 . S
C603 C602 1.341 . S
C603 C607 1.394 . S
C603 H619 0.930 . S
C604 C602 1.371 . S
C604 C605 1.392 . S
C604 H620 0.931 1_545 S
C605 C604 1.392 . S
C605 C606 1.331 . S
C605 H623 0.932 1_545 S
C606 C605 1.331 . S
C606 C607 1.336 . S
C607 C603 1.394 . S
C607 C606 1.336 . S
C607 H622 0.929 . S
C608 C598 1.386 . S
C608 C601 1.357 . S
C608 H621 0.928 . S
H609 C585 0.931 1_556 S
H610 C587 0.930 . S
H611 C589 0.929 . S
H612 C590 0.931 . S
H613 C592 0.930 . S
H614 C596 0.931 . S
H615 C594 0.931 . S
H616 C598 0.931 . S
H617 C599 0.929 1_554 S
H618 C600 0.905 1_554 S
H619 C603 0.930 . S
H620 C604 0.931 1_565 S
H621 C608 0.928 . S
H622 C607 0.929 . S
H623 C605 0.932 1_565 S
Li624 N641 1.990 . S
Li624 O684 1.956 . S
Li624 O685 1.970 1_556 S
Li624 O686 1.961 . S
Li625 N649 1.990 . S
Li625 O684 1.970 1_554 S
Li625 O685 1.956 . S
Li625 O687 1.961 . S
Li626 N671 1.990 . S
Li626 O684 1.961 . S
Li626 O686 1.956 . S
Li626 O687 1.970 1_556 S
Li627 N677 1.990 . S
Li627 O685 1.961 . S
Li627 O686 1.970 1_554 S
Li627 O687 1.956 . S
C628 C630 1.348 1_556 S
C628 C631 1.356 . S
C628 O684 1.325 . S
N629 C632 1.314 1_556 S
N629 C633 1.279 . S
C630 C628 1.348 1_554 S
C630 C632 1.353 . S
C630 H688 0.929 . S
C631 C628 1.356 . S
C631 C633 1.358 . S
C631 H689 0.930 . S
C632 N629 1.314 1_554 S
C632 C630 1.353 . S
C632 H690 0.930 . S
C633 N629 1.279 . S
C633 C631 1.358 . S
C633 H691 0.930 . S
C634 C637 1.348 . S
C634 C638 1.356 . S
C634 O685 1.325 . S
C635 N636 1.279 . S
C635 C638 1.358 . S
C635 H692 0.930 . S
N636 C635 1.279 . S
N636 C639 1.314 . S
C637 C634 1.348 . S
C637 C639 1.353 . S
C637 H693 0.929 . S
C638 C634 1.356 . S
C638 C635 1.358 . S
C638 H694 0.930 . S
C639 N636 1.314 . S
C639 C637 1.353 . S
C639 H695 0.930 . S
C640 N641 1.314 . S
C640 C645 1.353 . S
C640 H646 0.930 . S
N641 Li624 1.990 . S
N641 C640 1.314 . S
N641 C643 1.279 . S
C642 C643 1.358 . S
C642 C644 1.356 . S
C642 H696 0.930 . S
C643 N641 1.279 . S
C643 C642 1.358 . S
C643 H647 0.930 . S
C644 C642 1.356 . S
C644 C645 1.348 . S
C645 C640 1.353 . S
C645 C644 1.348 . S
C645 H697 0.929 . S
H646 C640 0.930 . S
H647 C643 0.930 . S
C648 N649 1.314 . S
C648 C650 1.353 . S
C648 H654 0.930 . S
N649 Li625 1.990 . S
N649 C648 1.314 . S
N649 C652 1.279 . S
C650 C648 1.353 . S
C650 C653 1.348 . S
C650 H698 0.929 . S
C651 C652 1.358 . S
C651 C653 1.356 . S
C651 H699 0.930 . S
C652 N649 1.279 . S
C652 C651 1.358 . S
C652 H655 0.930 . S
C653 C650 1.348 . S
C653 C651 1.356 . S
H654 C648 0.930 . S
H655 C652 0.930 . S
C656 C658 1.348 . S
C656 C659 1.356 . S
C656 O686 1.325 . S
N657 C660 1.314 . S
N657 C661 1.279 . S
C658 C656 1.348 . S
C658 C660 1.353 . S
C658 H700 0.929 . S
C659 C656 1.356 . S
C659 C661 1.358 . S
C659 H701 0.930 . S
C660 N657 1.314 . S
C660 C658 1.353 . S
C660 H702 0.930 . S
C661 N657 1.279 . S
C661 C659 1.358 . S
C661 H703 0.930 . S
C662 C663 1.348 1_554 S
C662 C664 1.356 . S
C662 O687 1.325 . S
C663 C662 1.348 1_556 S
C663 C665 1.353 . S
C663 H704 0.929 . S
C664 C662 1.356 . S
C664 C666 1.358 . S
C664 H705 0.930 . S
C665 C663 1.353 . S
C665 N667 1.314 1_556 S
C665 H706 0.930 . S
C666 C664 1.358 . S
C666 N667 1.279 . S
C666 H707 0.930 . S
N667 C665 1.314 1_554 S
N667 C666 1.279 . S
C668 C670 1.353 . S
C668 N671 1.314 . S
C668 H674 0.930 . S
C669 N671 1.279 . S
C669 C672 1.358 . S
C669 H675 0.930 . S
C670 C668 1.353 . S
C670 C673 1.348 . S
C670 H708 0.929 . S
N671 Li626 1.990 . S
N671 C668 1.314 . S
N671 C669 1.279 . S
C672 C669 1.358 . S
C672 C673 1.356 . S
C672 H709 0.930 . S
C673 C670 1.348 . S
C673 C672 1.356 . S
H674 C668 0.930 . S
H675 C669 0.930 . S
C676 N677 1.314 . S
C676 C678 1.353 . S
C676 H682 0.930 . S
N677 Li627 1.990 . S
N677 C676 1.314 . S
N677 C680 1.279 . S
C678 C676 1.353 . S
C678 C681 1.348 . S
C678 H710 0.929 . S
C679 C680 1.358 . S
C679 C681 1.356 . S
C679 H711 0.930 . S
C680 N677 1.279 . S
C680 C679 1.358 . S
C680 H683 0.930 . S
C681 C678 1.348 . S
C681 C679 1.356 . S
H682 C676 0.930 . S
H683 C680 0.930 . S
O684 Li624 1.956 . S
O684 Li625 1.970 1_556 S
O684 Li626 1.961 . S
O684 C628 1.325 . S
O685 Li624 1.970 1_554 S
O685 Li625 1.956 . S
O685 Li627 1.961 . S
O685 C634 1.325 . S
O686 Li624 1.961 . S
O686 Li626 1.956 . S
O686 Li627 1.970 1_556 S
O686 C656 1.325 . S
O687 Li625 1.961 . S
O687 Li626 1.970 1_554 S
O687 Li627 1.956 . S
O687 C662 1.325 . S
H688 C630 0.929 . S
H689 C631 0.930 . S
H690 C632 0.930 . S
H691 C633 0.930 . S
H692 C635 0.930 . S
H693 C637 0.929 . S
H694 C638 0.930 . S
H695 C639 0.930 . S
H696 C642 0.930 . S
H697 C645 0.929 . S
H698 C650 0.929 . S
H699 C651 0.930 . S
H700 C658 0.929 . S
H701 C659 0.930 . S
H702 C660 0.930 . S
H703 C661 0.930 . S
H704 C663 0.929 . S
H705 C664 0.930 . S
H706 C665 0.930 . S
H707 C666 0.930 . S
H708 C670 0.929 . S
H709 C672 0.930 . S
H710 C678 0.929 . S
H711 C679 0.930 . S
Li712 N729 1.990 . S
Li712 O772 1.956 . S
Li712 O773 1.970 . S
Li712 O774 1.961 . S
Li713 N737 1.990 . S
Li713 O772 1.970 . S
Li713 O773 1.956 . S
Li713 O775 1.961 . S
Li714 N759 1.990 . S
Li714 O772 1.961 . S
Li714 O774 1.956 . S
Li714 O775 1.970 . S
Li715 N765 1.990 . S
Li715 O773 1.961 . S
Li715 O774 1.970 . S
Li715 O775 1.956 . S
C716 C718 1.348 . S
C716 C719 1.356 . S
C716 O772 1.325 . S
N717 C720 1.314 . S
N717 C721 1.279 . S
C718 C716 1.348 . S
C718 C720 1.353 . S
C718 H776 0.929 . S
C719 C716 1.356 . S
C719 C721 1.358 . S
C719 H777 0.930 . S
C720 N717 1.314 . S
C720 C718 1.353 . S
C720 H778 0.930 . S
C721 N717 1.279 . S
C721 C719 1.358 . S
C721 H779 0.930 . S
C722 C725 1.348 . S
C722 C726 1.356 . S
C722 O773 1.325 . S
C723 N724 1.279 . S
C723 C726 1.358 . S
C723 H780 0.930 . S
N724 C723 1.279 . S
N724 C727 1.314 . S
C725 C722 1.348 . S
C725 C727 1.353 . S
C725 H781 0.929 . S
C726 C722 1.356 . S
C726 C723 1.358 . S
C726 H782 0.930 . S
C727 N724 1.314 . S
C727 C725 1.353 . S
C727 H783 0.930 . S
C728 N729 1.314 . S
C728 C733 1.353 . S
C728 H734 0.930 . S
N729 Li712 1.990 . S
N729 C728 1.314 . S
N729 C731 1.279 . S
C730 C731 1.358 . S
C730 C732 1.356 . S
C730 H784 0.930 . S
C731 N729 1.279 . S
C731 C730 1.358 . S
C731 H735 0.930 . S
C732 C730 1.356 . S
C732 C733 1.348 . S
C733 C728 1.353 . S
C733 C732 1.348 . S
C733 H785 0.929 . S
H734 C728 0.930 . S
H735 C731 0.930 . S
C736 N737 1.314 . S
C736 C738 1.353 . S
C736 H742 0.930 . S
N737 Li713 1.990 . S
N737 C736 1.314 . S
N737 C740 1.279 . S
C738 C736 1.353 . S
C738 C741 1.348 . S
C738 H786 0.929 . S
C739 C740 1.358 . S
C739 C741 1.356 . S
C739 H787 0.930 . S
C740 N737 1.279 . S
C740 C739 1.358 . S
C740 H743 0.930 . S
C741 C738 1.348 . S
C741 C739 1.356 . S
H742 C736 0.930 . S
H743 C740 0.930 . S
C744 C746 1.348 . S
C744 C747 1.356 . S
C744 O774 1.325 . S
N745 C748 1.314 . S
N745 C749 1.279 . S
C746 C744 1.348 . S
C746 C748 1.353 . S
C746 H788 0.929 . S
C747 C744 1.356 . S
C747 C749 1.358 . S
C747 H789 0.930 . S
C748 N745 1.314 . S
C748 C746 1.353 . S
C748 H790 0.930 . S
C749 N745 1.279 . S
C749 C747 1.358 . S
C749 H791 0.930 . S
C750 C751 1.348 . S
C750 C752 1.356 . S
C750 O775 1.325 . S
C751 C750 1.348 . S
C751 C753 1.353 . S
C751 H792 0.929 . S
C752 C750 1.356 . S
C752 C754 1.358 . S
C752 H793 0.930 . S
C753 C751 1.353 . S
C753 N755 1.314 . S
C753 H794 0.930 . S
C754 C752 1.358 . S
C754 N755 1.279 . S
C754 H795 0.930 . S
N755 C753 1.314 . S
N755 C754 1.279 . S
C756 C758 1.353 . S
C756 N759 1.314 . S
C756 H762 0.930 . S
C757 N759 1.279 . S
C757 C760 1.358 . S
C757 H763 0.930 . S
C758 C756 1.353 . S
C758 C761 1.348 . S
C758 H796 0.929 . S
N759 Li714 1.990 . S
N759 C756 1.314 . S
N759 C757 1.279 . S
C760 C757 1.358 . S
C760 C761 1.356 . S
C760 H797 0.930 . S
C761 C758 1.348 . S
C761 C760 1.356 . S
H762 C756 0.930 . S
H763 C757 0.930 . S
C764 N765 1.314 . S
C764 C766 1.353 . S
C764 H770 0.930 . S
N765 Li715 1.990 . S
N765 C764 1.314 . S
N765 C768 1.279 . S
C766 C764 1.353 . S
C766 C769 1.348 . S
C766 H798 0.929 . S
C767 C768 1.358 . S
C767 C769 1.356 . S
C767 H799 0.930 . S
C768 N765 1.279 . S
C768 C767 1.358 . S
C768 H771 0.930 . S
C769 C766 1.348 . S
C769 C767 1.356 . S
H770 C764 0.930 . S
H771 C768 0.930 . S
O772 Li712 1.956 . S
O772 Li713 1.970 . S
O772 Li714 1.961 . S
O772 C716 1.325 . S
O773 Li712 1.970 . S
O773 Li713 1.956 . S
O773 Li715 1.961 . S
O773 C722 1.325 . S
O774 Li712 1.961 . S
O774 Li714 1.956 . S
O774 Li715 1.970 . S
O774 C744 1.325 . S
O775 Li713 1.961 . S
O775 Li714 1.970 . S
O775 Li715 1.956 . S
O775 C750 1.325 . S
H776 C718 0.929 . S
H777 C719 0.930 . S
H778 C720 0.930 . S
H779 C721 0.930 . S
H780 C723 0.930 . S
H781 C725 0.929 . S
H782 C726 0.930 . S
H783 C727 0.930 . S
H784 C730 0.930 . S
H785 C733 0.929 . S
H786 C738 0.929 . S
H787 C739 0.930 . S
H788 C746 0.929 . S
H789 C747 0.930 . S
H790 C748 0.930 . S
H791 C749 0.930 . S
H792 C751 0.929 . S
H793 C752 0.930 . S
H794 C753 0.930 . S
H795 C754 0.930 . S
H796 C758 0.929 . S
H797 C760 0.930 . S
H798 C766 0.929 . S
H799 C767 0.930 . S
Li800 N817 1.990 . S
Li800 O860 1.956 . S
Li800 O861 1.970 1_556 S
Li800 O862 1.961 . S
Li801 N825 1.990 . S
Li801 O860 1.970 1_554 S
Li801 O861 1.956 . S
Li801 O863 1.961 . S
Li802 N847 1.990 . S
Li802 O860 1.961 . S
Li802 O862 1.956 . S
Li802 O863 1.970 1_556 S
Li803 N853 1.990 . S
Li803 O861 1.961 . S
Li803 O862 1.970 1_554 S
Li803 O863 1.956 . S
C804 C806 1.348 1_556 S
C804 C807 1.356 . S
C804 O860 1.325 . S
N805 C808 1.314 1_556 S
N805 C809 1.279 . S
C806 C804 1.348 1_554 S
C806 C808 1.353 . S
C806 H864 0.929 . S
C807 C804 1.356 . S
C807 C809 1.358 . S
C807 H865 0.930 . S
C808 N805 1.314 1_554 S
C808 C806 1.353 . S
C808 H866 0.930 . S
C809 N805 1.279 . S
C809 C807 1.358 . S
C809 H867 0.930 . S
C810 C813 1.348 . S
C810 C814 1.356 . S
C810 O861 1.325 . S
C811 N812 1.279 . S
C811 C814 1.358 . S
C811 H868 0.930 . S
N812 C811 1.279 . S
N812 C815 1.314 . S
C813 C810 1.348 . S
C813 C815 1.353 . S
C813 H869 0.929 . S
C814 C810 1.356 . S
C814 C811 1.358 . S
C814 H870 0.930 . S
C815 N812 1.314 . S
C815 C813 1.353 . S
C815 H871 0.930 . S
C816 N817 1.314 . S
C816 C821 1.353 . S
C816 H822 0.930 . S
N817 Li800 1.990 . S
N817 C816 1.314 . S
N817 C819 1.279 . S
C818 C819 1.358 . S
C818 C820 1.356 . S
C818 H872 0.930 . S
C819 N817 1.279 . S
C819 C818 1.358 . S
C819 H823 0.930 . S
C820 C818 1.356 . S
C820 C821 1.348 . S
C821 C816 1.353 . S
C821 C820 1.348 . S
C821 H873 0.929 . S
H822 C816 0.930 . S
H823 C819 0.930 . S
C824 N825 1.314 . S
C824 C826 1.353 . S
C824 H830 0.930 . S
N825 Li801 1.990 . S
N825 C824 1.314 . S
N825 C828 1.279 . S
C826 C824 1.353 . S
C826 C829 1.348 . S
C826 H874 0.929 . S
C827 C828 1.358 . S
C827 C829 1.356 . S
C827 H875 0.930 . S
C828 N825 1.279 . S
C828 C827 1.358 . S
C828 H831 0.930 . S
C829 C826 1.348 . S
C829 C827 1.356 . S
H830 C824 0.930 . S
H831 C828 0.930 . S
C832 C834 1.348 . S
C832 C835 1.356 . S
C832 O862 1.325 . S
N833 C836 1.314 . S
N833 C837 1.279 . S
C834 C832 1.348 . S
C834 C836 1.353 . S
C834 H876 0.929 . S
C835 C832 1.356 . S
C835 C837 1.358 . S
C835 H877 0.930 . S
C836 N833 1.314 . S
C836 C834 1.353 . S
C836 H878 0.930 . S
C837 N833 1.279 . S
C837 C835 1.358 . S
C837 H879 0.930 . S
C838 C839 1.348 1_554 S
C838 C840 1.356 . S
C838 O863 1.325 . S
C839 C838 1.348 1_556 S
C839 C841 1.353 . S
C839 H880 0.929 . S
C840 C838 1.356 . S
C840 C842 1.358 . S
C840 H881 0.930 . S
C841 C839 1.353 . S
C841 N843 1.314 1_556 S
C841 H882 0.930 . S
C842 C840 1.358 . S
C842 N843 1.279 . S
C842 H883 0.930 . S
N843 C841 1.314 1_554 S
N843 C842 1.279 . S
C844 C846 1.353 . S
C844 N847 1.314 . S
C844 H850 0.930 . S
C845 N847 1.279 . S
C845 C848 1.358 . S
C845 H851 0.930 . S
C846 C844 1.353 . S
C846 C849 1.348 . S
C846 H884 0.929 . S
N847 Li802 1.990 . S
N847 C844 1.314 . S
N847 C845 1.279 . S
C848 C845 1.358 . S
C848 C849 1.356 . S
C848 H885 0.930 . S
C849 C846 1.348 . S
C849 C848 1.356 . S
H850 C844 0.930 . S
H851 C845 0.930 . S
C852 N853 1.314 . S
C852 C854 1.353 . S
C852 H858 0.930 . S
N853 Li803 1.990 . S
N853 C852 1.314 . S
N853 C856 1.279 . S
C854 C852 1.353 . S
C854 C857 1.348 . S
C854 H886 0.929 . S
C855 C856 1.358 . S
C855 C857 1.356 . S
C855 H887 0.930 . S
C856 N853 1.279 . S
C856 C855 1.358 . S
C856 H859 0.930 . S
C857 C854 1.348 . S
C857 C855 1.356 . S
H858 C852 0.930 . S
H859 C856 0.930 . S
O860 Li800 1.956 . S
O860 Li801 1.970 1_556 S
O860 Li802 1.961 . S
O860 C804 1.325 . S
O861 Li800 1.970 1_554 S
O861 Li801 1.956 . S
O861 Li803 1.961 . S
O861 C810 1.325 . S
O862 Li800 1.961 . S
O862 Li802 1.956 . S
O862 Li803 1.970 1_556 S
O862 C832 1.325 . S
O863 Li801 1.961 . S
O863 Li802 1.970 1_554 S
O863 Li803 1.956 . S
O863 C838 1.325 . S
H864 C806 0.929 . S
H865 C807 0.930 . S
H866 C808 0.930 . S
H867 C809 0.930 . S
H868 C811 0.930 . S
H869 C813 0.929 . S
H870 C814 0.930 . S
H871 C815 0.930 . S
H872 C818 0.930 . S
H873 C821 0.929 . S
H874 C826 0.929 . S
H875 C827 0.930 . S
H876 C834 0.929 . S
H877 C835 0.930 . S
H878 C836 0.930 . S
H879 C837 0.930 . S
H880 C839 0.929 . S
H881 C840 0.930 . S
H882 C841 0.930 . S
H883 C842 0.930 . S
H884 C846 0.929 . S
H885 C848 0.930 . S
H886 C854 0.929 . S
H887 C855 0.930 . S
Li888 N905 1.990 . S
Li888 O948 1.956 . S
Li888 O949 1.927 1_545 S
Li888 O950 1.961 . S
Li889 N913 1.990 . S
Li889 O948 1.970 1_565 S
Li889 O949 1.958 . S
Li889 O951 1.961 . S
Li890 N935 1.990 . S
Li890 O948 1.961 . S
Li890 O950 1.956 . S
Li890 O951 1.970 1_545 S
Li891 N941 1.990 . S
Li891 O949 1.994 . S
Li891 O950 1.970 1_565 S
Li891 O951 1.956 . S
C892 C894 1.348 . S
C892 C895 1.356 . S
C892 O948 1.325 . S
N893 C896 1.314 . S
N893 C897 1.279 . S
C894 C892 1.348 . S
C894 C896 1.353 . S
C894 H952 0.929 . S
C895 C892 1.356 . S
C895 C897 1.358 . S
C895 H953 0.930 . S
C896 N893 1.314 . S
C896 C894 1.353 . S
C896 H954 0.930 . S
C897 N893 1.279 . S
C897 C895 1.358 . S
C897 H955 0.930 . S
C898 C901 1.348 1_565 S
C898 C902 1.356 . S
C898 O949 1.333 . S
C899 N900 1.279 . S
C899 C902 1.358 . S
C899 H956 0.930 . S
N900 C899 1.279 . S
N900 C903 1.314 1_565 S
C901 C898 1.348 1_545 S
C901 C903 1.353 . S
C901 H957 0.929 . S
C902 C898 1.356 . S
C902 C899 1.358 . S
C902 H958 0.930 . S
C903 N900 1.314 1_545 S
C903 C901 1.353 . S
C903 H959 0.930 . S
C904 N905 1.314 . S
C904 C909 1.353 . S
C904 H910 0.930 . S
N905 Li888 1.990 . S
N905 C904 1.314 . S
N905 C907 1.279 . S
C906 C907 1.358 . S
C906 C908 1.356 . S
C906 H960 0.930 . S
C907 N905 1.279 . S
C907 C906 1.358 . S
C907 H911 0.930 . S
C908 C906 1.356 . S
C908 C909 1.348 . S
C909 C904 1.353 . S
C909 C908 1.348 . S
C909 H961 0.929 . S
H910 C904 0.930 . S
H911 C907 0.930 . S
C912 N913 1.314 . S
C912 C914 1.353 . S
C912 H918 0.930 . S
N913 Li889 1.990 . S
N913 C912 1.314 . S
N913 C916 1.279 . S
C914 C912 1.353 . S
C914 C917 1.348 . S
C914 H962 0.929 . S
C915 C916 1.358 . S
C915 C917 1.356 . S
C915 H963 0.930 . S
C916 N913 1.279 . S
C916 C915 1.358 . S
C916 H919 0.930 . S
C917 C914 1.348 . S
C917 C915 1.356 . S
H918 C912 0.930 . S
H919 C916 0.930 . S
C920 C922 1.348 1_545 S
C920 C923 1.356 . S
C920 O950 1.325 . S
N921 C924 1.314 1_545 S
N921 C925 1.279 . S
C922 C920 1.348 1_565 S
C922 C924 1.353 . S
C922 H964 0.929 . S
C923 C920 1.356 . S
C923 C925 1.358 . S
C923 H965 0.930 . S
C924 N921 1.314 1_565 S
C924 C922 1.353 . S
C924 H966 0.930 . S
C925 N921 1.279 . S
C925 C923 1.358 . S
C925 H967 0.930 . S
C926 C927 1.348 . S
C926 C928 1.356 . S
C926 O951 1.325 . S
C927 C926 1.348 . S
C927 C929 1.353 . S
C927 H968 0.929 . S
C928 C926 1.356 . S
C928 C930 1.358 . S
C928 H969 0.930 . S
C929 C927 1.353 . S
C929 N931 1.314 . S
C929 H970 0.930 . S
C930 C928 1.358 . S
C930 N931 1.279 . S
C930 H971 0.930 . S
N931 C929 1.314 . S
N931 C930 1.279 . S
C932 C934 1.353 . S
C932 N935 1.314 . S
C932 H938 0.930 . S
C933 N935 1.279 . S
C933 C936 1.358 . S
C933 H939 0.930 . S
C934 C932 1.353 . S
C934 C937 1.348 . S
C934 H972 0.929 . S
N935 Li890 1.990 . S
N935 C932 1.314 . S
N935 C933 1.279 . S
C936 C933 1.358 . S
C936 C937 1.356 . S
C936 H973 0.930 . S
C937 C934 1.348 . S
C937 C936 1.356 . S
H938 C932 0.930 . S
H939 C933 0.930 . S
C940 N941 1.314 . S
C940 C942 1.353 . S
C940 H946 0.930 . S
N941 Li891 1.990 . S
N941 C940 1.314 . S
N941 C944 1.279 . S
C942 C940 1.353 . S
C942 C945 1.348 . S
C942 H974 0.929 . S
C943 C944 1.358 . S
C943 C945 1.356 . S
C943 H975 0.930 . S
C944 N941 1.279 . S
C944 C943 1.358 . S
C944 H947 0.930 . S
C945 C942 1.348 . S
C945 C943 1.356 . S
H946 C940 0.930 . S
H947 C944 0.930 . S
O948 Li888 1.956 . S
O948 Li889 1.970 1_545 S
O948 Li890 1.961 . S
O948 C892 1.325 . S
O949 Li888 1.927 1_565 S
O949 Li889 1.958 . S
O949 Li891 1.994 . S
O949 C898 1.333 . S
O950 Li888 1.961 . S
O950 Li890 1.956 . S
O950 Li891 1.970 1_545 S
O950 C920 1.325 . S
O951 Li889 1.961 . S
O951 Li890 1.970 1_565 S
O951 Li891 1.956 . S
O951 C926 1.325 . S
H952 C894 0.929 . S
H953 C895 0.930 . S
H954 C896 0.930 . S
H955 C897 0.930 . S
H956 C899 0.930 . S
H957 C901 0.929 . S
H958 C902 0.930 . S
H959 C903 0.930 . S
H960 C906 0.930 . S
H961 C909 0.929 . S
H962 C914 0.929 . S
H963 C915 0.930 . S
H964 C922 0.929 . S
H965 C923 0.930 . S
H966 C924 0.930 . S
H967 C925 0.930 . S
H968 C927 0.929 . S
H969 C928 0.930 . S
H970 C929 0.930 . S
H971 C930 0.930 . S
H972 C934 0.929 . S
H973 C936 0.930 . S
H974 C942 0.929 . S
H975 C943 0.930 . S
Li976 N993 1.990 . S
Li976 O1036 1.956 . S
Li976 O1037 1.970 . S
Li976 O1038 1.961 . S
Li977 N1001 1.990 . S
Li977 O1036 1.970 . S
Li977 O1037 1.956 . S
Li977 O1039 1.961 . S
Li978 N1023 1.990 . S
Li978 O1036 1.961 . S
Li978 O1038 1.956 . S
Li978 O1039 1.970 . S
Li979 N1029 1.990 . S
Li979 O1037 1.961 . S
Li979 O1038 1.970 . S
Li979 O1039 1.956 . S
C980 C982 1.348 . S
C980 C983 1.356 . S
C980 O1036 1.325 . S
N981 C984 1.314 . S
N981 C985 1.279 . S
C982 C980 1.348 . S
C982 C984 1.353 . S
C982 H1040 0.929 . S
C983 C980 1.356 . S
C983 C985 1.358 . S
C983 H1041 0.930 . S
C984 N981 1.314 . S
C984 C982 1.353 . S
C984 H1042 0.930 . S
C985 N981 1.279 . S
C985 C983 1.358 . S
C985 H1043 0.930 . S
C986 C989 1.348 . S
C986 C990 1.356 . S
C986 O1037 1.325 . S
C987 N988 1.279 . S
C987 C990 1.358 . S
C987 H1044 0.930 . S
N988 C987 1.279 . S
N988 C991 1.314 . S
C989 C986 1.348 . S
C989 C991 1.353 . S
C989 H1045 0.929 . S
C990 C986 1.356 . S
C990 C987 1.358 . S
C990 H1046 0.930 . S
C991 N988 1.314 . S
C991 C989 1.353 . S
C991 H1047 0.930 . S
C992 N993 1.314 . S
C992 C997 1.353 . S
C992 H998 0.930 . S
N993 Li976 1.990 . S
N993 C992 1.314 . S
N993 C995 1.279 . S
C994 C995 1.358 . S
C994 C996 1.356 . S
C994 H1048 0.930 . S
C995 N993 1.279 . S
C995 C994 1.358 . S
C995 H999 0.930 . S
C996 C994 1.356 . S
C996 C997 1.348 . S
C997 C992 1.353 . S
C997 C996 1.348 . S
C997 H1049 0.929 . S
H998 C992 0.930 . S
H999 C995 0.930 . S
C1000 N1001 1.314 . S
C1000 C1002 1.353 . S
C1000 H1006 0.930 . S
N1001 Li977 1.990 . S
N1001 C1000 1.314 . S
N1001 C1004 1.279 . S
C1002 C1000 1.353 . S
C1002 C1005 1.348 . S
C1002 H1050 0.929 . S
C1003 C1004 1.358 . S
C1003 C1005 1.356 . S
C1003 H1051 0.930 . S
C1004 N1001 1.279 . S
C1004 C1003 1.358 . S
C1004 H1007 0.930 . S
C1005 C1002 1.348 . S
C1005 C1003 1.356 . S
H1006 C1000 0.930 . S
H1007 C1004 0.930 . S
C1008 C1010 1.348 . S
C1008 C1011 1.356 . S
C1008 O1038 1.325 . S
N1009 C1012 1.314 . S
N1009 C1013 1.279 . S
C1010 C1008 1.348 . S
C1010 C1012 1.353 . S
C1010 H1052 0.929 . S
C1011 C1008 1.356 . S
C1011 C1013 1.358 . S
C1011 H1053 0.930 . S
C1012 N1009 1.314 . S
C1012 C1010 1.353 . S
C1012 H1054 0.930 . S
C1013 N1009 1.279 . S
C1013 C1011 1.358 . S
C1013 H1055 0.930 . S
C1014 C1015 1.348 . S
C1014 C1016 1.356 . S
C1014 O1039 1.325 . S
C1015 C1014 1.348 . S
C1015 C1017 1.353 . S
C1015 H1056 0.929 . S
C1016 C1014 1.356 . S
C1016 C1018 1.358 . S
C1016 H1057 0.930 . S
C1017 C1015 1.353 . S
C1017 N1019 1.314 . S
C1017 H1058 0.930 . S
C1018 C1016 1.358 . S
C1018 N1019 1.279 . S
C1018 H1059 0.930 . S
N1019 C1017 1.314 . S
N1019 C1018 1.279 . S
C1020 C1022 1.353 . S
C1020 N1023 1.314 . S
C1020 H1026 0.930 . S
C1021 N1023 1.279 . S
C1021 C1024 1.358 . S
C1021 H1027 0.930 . S
C1022 C1020 1.353 . S
C1022 C1025 1.348 . S
C1022 H1060 0.929 . S
N1023 Li978 1.990 . S
N1023 C1020 1.314 . S
N1023 C1021 1.279 . S
C1024 C1021 1.358 . S
C1024 C1025 1.356 . S
C1024 H1061 0.930 . S
C1025 C1022 1.348 . S
C1025 C1024 1.356 . S
H1026 C1020 0.930 . S
H1027 C1021 0.930 . S
C1028 N1029 1.314 . S
C1028 C1030 1.353 . S
C1028 H1034 0.930 . S
N1029 Li979 1.990 . S
N1029 C1028 1.314 . S
N1029 C1032 1.279 . S
C1030 C1028 1.353 . S
C1030 C1033 1.348 . S
C1030 H1062 0.929 . S
C1031 C1032 1.358 . S
C1031 C1033 1.356 . S
C1031 H1063 0.930 . S
C1032 N1029 1.279 . S
C1032 C1031 1.358 . S
C1032 H1035 0.930 . S
C1033 C1030 1.348 . S
C1033 C1031 1.356 . S
H1034 C1028 0.930 . S
H1035 C1032 0.930 . S
O1036 Li976 1.956 . S
O1036 Li977 1.970 . S
O1036 Li978 1.961 . S
O1036 C980 1.325 . S
O1037 Li976 1.970 . S
O1037 Li977 1.956 . S
O1037 Li979 1.961 . S
O1037 C986 1.325 . S
O1038 Li976 1.961 . S
O1038 Li978 1.956 . S
O1038 Li979 1.970 . S
O1038 C1008 1.325 . S
O1039 Li977 1.961 . S
O1039 Li978 1.970 . S
O1039 Li979 1.956 . S
O1039 C1014 1.325 . S
H1040 C982 0.929 . S
H1041 C983 0.930 . S
H1042 C984 0.930 . S
H1043 C985 0.930 . S
H1044 C987 0.930 . S
H1045 C989 0.929 . S
H1046 C990 0.930 . S
H1047 C991 0.930 . S
H1048 C994 0.930 . S
H1049 C997 0.929 . S
H1050 C1002 0.929 . S
H1051 C1003 0.930 . S
H1052 C1010 0.929 . S
H1053 C1011 0.930 . S
H1054 C1012 0.930 . S
H1055 C1013 0.930 . S
H1056 C1015 0.929 . S
H1057 C1016 0.930 . S
H1058 C1017 0.930 . S
H1059 C1018 0.930 . S
H1060 C1022 0.929 . S
H1061 C1024 0.930 . S
H1062 C1030 0.929 . S
H1063 C1031 0.930 . S
Li1064 N1081 1.990 . S
Li1064 O1124 1.956 . S
Li1064 O1125 1.970 . S
Li1064 O1126 1.961 . S
Li1065 N1089 1.990 . S
Li1065 O1124 1.970 . S
Li1065 O1125 1.956 . S
Li1065 O1127 1.961 . S
Li1066 N1111 1.990 . S
Li1066 O1124 1.961 . S
Li1066 O1126 1.956 . S
Li1066 O1127 1.970 . S
Li1067 N1117 1.990 . S
Li1067 O1125 1.961 . S
Li1067 O1126 1.970 . S
Li1067 O1127 1.956 . S
C1068 C1070 1.348 . S
C1068 C1071 1.356 . S
C1068 O1124 1.325 . S
N1069 C1072 1.314 . S
N1069 C1073 1.279 . S
C1070 C1068 1.348 . S
C1070 C1072 1.353 . S
C1070 H1128 0.929 . S
C1071 C1068 1.356 . S
C1071 C1073 1.358 . S
C1071 H1129 0.930 . S
C1072 N1069 1.314 . S
C1072 C1070 1.353 . S
C1072 H1130 0.930 . S
C1073 N1069 1.279 . S
C1073 C1071 1.358 . S
C1073 H1131 0.930 . S
C1074 C1077 1.348 . S
C1074 C1078 1.356 . S
C1074 O1125 1.325 . S
C1075 N1076 1.279 . S
C1075 C1078 1.358 . S
C1075 H1132 0.930 . S
N1076 C1075 1.279 . S
N1076 C1079 1.314 . S
C1077 C1074 1.348 . S
C1077 C1079 1.353 . S
C1077 H1133 0.929 . S
C1078 C1074 1.356 . S
C1078 C1075 1.358 . S
C1078 H1134 0.930 . S
C1079 N1076 1.314 . S
C1079 C1077 1.353 . S
C1079 H1135 0.930 . S
C1080 N1081 1.314 . S
C1080 C1085 1.353 . S
C1080 H1086 0.930 . S
N1081 Li1064 1.990 . S
N1081 C1080 1.314 . S
N1081 C1083 1.279 . S
C1082 C1083 1.358 . S
C1082 C1084 1.356 . S
C1082 H1136 0.930 . S
C1083 N1081 1.279 . S
C1083 C1082 1.358 . S
C1083 H1087 0.930 . S
C1084 C1082 1.356 . S
C1084 C1085 1.348 . S
C1085 C1080 1.353 . S
C1085 C1084 1.348 . S
C1085 H1137 0.929 . S
H1086 C1080 0.930 . S
H1087 C1083 0.930 . S
C1088 N1089 1.314 . S
C1088 C1090 1.353 . S
C1088 H1094 0.930 . S
N1089 Li1065 1.990 . S
N1089 C1088 1.314 . S
N1089 C1092 1.279 . S
C1090 C1088 1.353 . S
C1090 C1093 1.348 . S
C1090 H1138 0.929 . S
C1091 C1092 1.358 . S
C1091 C1093 1.356 . S
C1091 H1139 0.930 . S
C1092 N1089 1.279 . S
C1092 C1091 1.358 . S
C1092 H1095 0.930 . S
C1093 C1090 1.348 . S
C1093 C1091 1.356 . S
H1094 C1088 0.930 . S
H1095 C1092 0.930 . S
C1096 C1098 1.348 . S
C1096 C1099 1.356 . S
C1096 O1126 1.325 . S
N1097 C1100 1.314 . S
N1097 C1101 1.279 . S
C1098 C1096 1.348 . S
C1098 C1100 1.353 . S
C1098 H1140 0.929 . S
C1099 C1096 1.356 . S
C1099 C1101 1.358 . S
C1099 H1141 0.930 . S
C1100 N1097 1.314 . S
C1100 C1098 1.353 . S
C1100 H1142 0.930 . S
C1101 N1097 1.279 . S
C1101 C1099 1.358 . S
C1101 H1143 0.930 . S
C1102 C1103 1.348 . S
C1102 C1104 1.356 . S
C1102 O1127 1.325 . S
C1103 C1102 1.348 . S
C1103 C1105 1.353 . S
C1103 H1144 0.929 . S
C1104 C1102 1.356 . S
C1104 C1106 1.358 . S
C1104 H1145 0.930 . S
C1105 C1103 1.353 . S
C1105 N1107 1.314 . S
C1105 H1146 0.930 . S
C1106 C1104 1.358 . S
C1106 N1107 1.279 . S
C1106 H1147 0.930 . S
N1107 C1105 1.314 . S
N1107 C1106 1.279 . S
C1108 C1110 1.353 . S
C1108 N1111 1.314 . S
C1108 H1114 0.930 . S
C1109 N1111 1.279 . S
C1109 C1112 1.358 . S
C1109 H1115 0.930 . S
C1110 C1108 1.353 . S
C1110 C1113 1.348 . S
C1110 H1148 0.929 . S
N1111 Li1066 1.990 . S
N1111 C1108 1.314 . S
N1111 C1109 1.279 . S
C1112 C1109 1.358 . S
C1112 C1113 1.356 . S
C1112 H1149 0.930 . S
C1113 C1110 1.348 . S
C1113 C1112 1.356 . S
H1114 C1108 0.930 . S
H1115 C1109 0.930 . S
C1116 N1117 1.314 . S
C1116 C1118 1.353 . S
C1116 H1122 0.930 . S
N1117 Li1067 1.990 . S
N1117 C1116 1.314 . S
N1117 C1120 1.279 . S
C1118 C1116 1.353 . S
C1118 C1121 1.348 . S
C1118 H1150 0.929 . S
C1119 C1120 1.358 . S
C1119 C1121 1.356 . S
C1119 H1151 0.930 . S
C1120 N1117 1.279 . S
C1120 C1119 1.358 . S
C1120 H1123 0.930 . S
C1121 C1118 1.348 . S
C1121 C1119 1.356 . S
H1122 C1116 0.930 . S
H1123 C1120 0.930 . S
O1124 Li1064 1.956 . S
O1124 Li1065 1.970 . S
O1124 Li1066 1.961 . S
O1124 C1068 1.325 . S
O1125 Li1064 1.970 . S
O1125 Li1065 1.956 . S
O1125 Li1067 1.961 . S
O1125 C1074 1.325 . S
O1126 Li1064 1.961 . S
O1126 Li1066 1.956 . S
O1126 Li1067 1.970 . S
O1126 C1096 1.325 . S
O1127 Li1065 1.961 . S
O1127 Li1066 1.970 . S
O1127 Li1067 1.956 . S
O1127 C1102 1.325 . S
H1128 C1070 0.929 . S
H1129 C1071 0.930 . S
H1130 C1072 0.930 . S
H1131 C1073 0.930 . S
H1132 C1075 0.930 . S
H1133 C1077 0.929 . S
H1134 C1078 0.930 . S
H1135 C1079 0.930 . S
H1136 C1082 0.930 . S
H1137 C1085 0.929 . S
H1138 C1090 0.929 . S
H1139 C1091 0.930 . S
H1140 C1098 0.929 . S
H1141 C1099 0.930 . S
H1142 C1100 0.930 . S
H1143 C1101 0.930 . S
H1144 C1103 0.929 . S
H1145 C1104 0.930 . S
H1146 C1105 0.930 . S
H1147 C1106 0.930 . S
H1148 C1110 0.929 . S
H1149 C1112 0.930 . S
H1150 C1118 0.929 . S
H1151 C1119 0.930 . S
Li1152 N1169 1.990 . S
Li1152 O1212 1.956 . S
Li1152 O1213 1.970 . S
Li1152 O1214 1.961 . S
Li1153 N1177 1.990 . S
Li1153 O1212 1.970 . S
Li1153 O1213 1.956 . S
Li1153 O1215 1.961 . S
Li1154 N1199 1.990 . S
Li1154 O1212 1.961 . S
Li1154 O1214 1.956 . S
Li1154 O1215 1.970 . S
Li1155 N1205 1.990 . S
Li1155 O1213 1.961 . S
Li1155 O1214 1.970 . S
Li1155 O1215 1.956 . S
C1156 C1158 1.348 . S
C1156 C1159 1.356 . S
C1156 O1212 1.325 . S
N1157 C1160 1.314 . S
N1157 C1161 1.279 . S
C1158 C1156 1.348 . S
C1158 C1160 1.353 . S
C1158 H1216 0.929 . S
C1159 C1156 1.356 . S
C1159 C1161 1.358 . S
C1159 H1217 0.930 . S
C1160 N1157 1.314 . S
C1160 C1158 1.353 . S
C1160 H1218 0.930 . S
C1161 N1157 1.279 . S
C1161 C1159 1.358 . S
C1161 H1219 0.930 . S
C1162 C1165 1.348 . S
C1162 C1166 1.356 . S
C1162 O1213 1.325 . S
C1163 N1164 1.279 . S
C1163 C1166 1.358 . S
C1163 H1220 0.930 . S
N1164 C1163 1.279 . S
N1164 C1167 1.314 . S
C1165 C1162 1.348 . S
C1165 C1167 1.353 . S
C1165 H1221 0.929 . S
C1166 C1162 1.356 . S
C1166 C1163 1.358 . S
C1166 H1222 0.930 . S
C1167 N1164 1.314 . S
C1167 C1165 1.353 . S
C1167 H1223 0.930 . S
C1168 N1169 1.314 . S
C1168 C1173 1.353 . S
C1168 H1174 0.930 . S
N1169 Li1152 1.990 . S
N1169 C1168 1.314 . S
N1169 C1171 1.279 . S
C1170 C1171 1.358 . S
C1170 C1172 1.356 . S
C1170 H1224 0.930 . S
C1171 N1169 1.279 . S
C1171 C1170 1.358 . S
C1171 H1175 0.930 . S
C1172 C1170 1.356 . S
C1172 C1173 1.348 . S
C1173 C1168 1.353 . S
C1173 C1172 1.348 . S
C1173 H1225 0.929 . S
H1174 C1168 0.930 . S
H1175 C1171 0.930 . S
C1176 N1177 1.314 . S
C1176 C1178 1.353 . S
C1176 H1182 0.930 . S
N1177 Li1153 1.990 . S
N1177 C1176 1.314 . S
N1177 C1180 1.279 . S
C1178 C1176 1.353 . S
C1178 C1181 1.348 . S
C1178 H1226 0.929 . S
C1179 C1180 1.358 . S
C1179 C1181 1.356 . S
C1179 H1227 0.930 . S
C1180 N1177 1.279 . S
C1180 C1179 1.358 . S
C1180 H1183 0.930 . S
C1181 C1178 1.348 . S
C1181 C1179 1.356 . S
H1182 C1176 0.930 . S
H1183 C1180 0.930 . S
C1184 C1186 1.348 . S
C1184 C1187 1.356 . S
C1184 O1214 1.325 . S
N1185 C1188 1.314 . S
N1185 C1189 1.279 . S
C1186 C1184 1.348 . S
C1186 C1188 1.353 . S
C1186 H1228 0.929 . S
C1187 C1184 1.356 . S
C1187 C1189 1.358 . S
C1187 H1229 0.930 . S
C1188 N1185 1.314 . S
C1188 C1186 1.353 . S
C1188 H1230 0.930 . S
C1189 N1185 1.279 . S
C1189 C1187 1.358 . S
C1189 H1231 0.930 . S
C1190 C1191 1.348 . S
C1190 C1192 1.356 . S
C1190 O1215 1.325 . S
C1191 C1190 1.348 . S
C1191 C1193 1.353 . S
C1191 H1232 0.929 . S
C1192 C1190 1.356 . S
C1192 C1194 1.358 . S
C1192 H1233 0.930 . S
C1193 C1191 1.353 . S
C1193 N1195 1.314 . S
C1193 H1234 0.930 . S
C1194 C1192 1.358 . S
C1194 N1195 1.279 . S
C1194 H1235 0.930 . S
N1195 C1193 1.314 . S
N1195 C1194 1.279 . S
C1196 C1198 1.353 . S
C1196 N1199 1.314 . S
C1196 H1202 0.930 . S
C1197 N1199 1.279 . S
C1197 C1200 1.358 . S
C1197 H1203 0.930 . S
C1198 C1196 1.353 . S
C1198 C1201 1.348 . S
C1198 H1236 0.929 . S
N1199 Li1154 1.990 . S
N1199 C1196 1.314 . S
N1199 C1197 1.279 . S
C1200 C1197 1.358 . S
C1200 C1201 1.356 . S
C1200 H1237 0.930 . S
C1201 C1198 1.348 . S
C1201 C1200 1.356 . S
H1202 C1196 0.930 . S
H1203 C1197 0.930 . S
C1204 N1205 1.314 . S
C1204 C1206 1.353 . S
C1204 H1210 0.930 . S
N1205 Li1155 1.990 . S
N1205 C1204 1.314 . S
N1205 C1208 1.279 . S
C1206 C1204 1.353 . S
C1206 C1209 1.348 . S
C1206 H1238 0.929 . S
C1207 C1208 1.358 . S
C1207 C1209 1.356 . S
C1207 H1239 0.930 . S
C1208 N1205 1.279 . S
C1208 C1207 1.358 . S
C1208 H1211 0.930 . S
C1209 C1206 1.348 . S
C1209 C1207 1.356 . S
H1210 C1204 0.930 . S
H1211 C1208 0.930 . S
O1212 Li1152 1.956 . S
O1212 Li1153 1.970 . S
O1212 Li1154 1.961 . S
O1212 C1156 1.325 . S
O1213 Li1152 1.970 . S
O1213 Li1153 1.956 . S
O1213 Li1155 1.961 . S
O1213 C1162 1.325 . S
O1214 Li1152 1.961 . S
O1214 Li1154 1.956 . S
O1214 Li1155 1.970 . S
O1214 C1184 1.325 . S
O1215 Li1153 1.961 . S
O1215 Li1154 1.970 . S
O1215 Li1155 1.956 . S
O1215 C1190 1.325 . S
H1216 C1158 0.929 . S
H1217 C1159 0.930 . S
H1218 C1160 0.930 . S
H1219 C1161 0.930 . S
H1220 C1163 0.930 . S
H1221 C1165 0.929 . S
H1222 C1166 0.930 . S
H1223 C1167 0.930 . S
H1224 C1170 0.930 . S
H1225 C1173 0.929 . S
H1226 C1178 0.929 . S
H1227 C1179 0.930 . S
H1228 C1186 0.929 . S
H1229 C1187 0.930 . S
H1230 C1188 0.930 . S
H1231 C1189 0.930 . S
H1232 C1191 0.929 . S
H1233 C1192 0.930 . S
H1234 C1193 0.930 . S
H1235 C1194 0.930 . S
H1236 C1198 0.929 . S
H1237 C1200 0.930 . S
H1238 C1206 0.929 . S
H1239 C1207 0.930 . S
Li1240 N1257 1.990 . S
Li1240 O1300 1.956 . S
Li1240 O1301 1.970 1_565 S
Li1240 O1302 1.961 . S
Li1241 N1265 1.990 . S
Li1241 O1300 1.970 1_545 S
Li1241 O1301 1.956 . S
Li1241 O1303 1.961 . S
Li1242 N1287 1.990 . S
Li1242 O1300 1.961 . S
Li1242 O1302 1.956 . S
Li1242 O1303 1.970 1_565 S
Li1243 N1293 1.990 . S
Li1243 O1301 1.961 . S
Li1243 O1302 1.970 1_545 S
Li1243 O1303 1.956 . S
C1244 C1246 1.348 . S
C1244 C1247 1.356 . S
C1244 O1300 1.325 . S
N1245 C1248 1.314 . S
N1245 C1249 1.279 . S
C1246 C1244 1.348 . S
C1246 C1248 1.353 . S
C1246 H1304 0.929 . S
C1247 C1244 1.356 . S
C1247 C1249 1.358 . S
C1247 H1305 0.930 . S
C1248 N1245 1.314 . S
C1248 C1246 1.353 . S
C1248 H1306 0.930 . S
C1249 N1245 1.279 . S
C1249 C1247 1.358 . S
C1249 H1307 0.930 . S
C1250 C1253 1.348 1_545 S
C1250 C1254 1.356 . S
C1250 O1301 1.325 . S
C1251 N1252 1.279 . S
C1251 C1254 1.358 . S
C1251 H1308 0.930 . S
N1252 C1251 1.279 . S
N1252 C1255 1.314 1_545 S
C1253 C1250 1.348 1_565 S
C1253 C1255 1.353 . S
C1253 H1309 0.929 . S
C1254 C1250 1.356 . S
C1254 C1251 1.358 . S
C1254 H1310 0.930 . S
C1255 N1252 1.314 1_565 S
C1255 C1253 1.353 . S
C1255 H1311 0.930 . S
C1256 N1257 1.314 . S
C1256 C1261 1.353 . S
C1256 H1262 0.930 . S
N1257 Li1240 1.990 . S
N1257 C1256 1.314 . S
N1257 C1259 1.279 . S
C1258 C1259 1.358 . S
C1258 C1260 1.356 . S
C1258 H1312 0.930 . S
C1259 N1257 1.279 . S
C1259 C1258 1.358 . S
C1259 H1263 0.930 . S
C1260 C1258 1.356 . S
C1260 C1261 1.348 . S
C1261 C1256 1.353 . S
C1261 C1260 1.348 . S
C1261 H1313 0.929 . S
H1262 C1256 0.930 . S
H1263 C1259 0.930 . S
C1264 N1265 1.314 . S
C1264 C1266 1.353 . S
C1264 H1270 0.930 . S
N1265 Li1241 1.990 . S
N1265 C1264 1.314 . S
N1265 C1268 1.279 . S
C1266 C1264 1.353 . S
C1266 C1269 1.348 . S
C1266 H1314 0.929 . S
C1267 C1268 1.358 . S
C1267 C1269 1.356 . S
C1267 H1315 0.930 . S
C1268 N1265 1.279 . S
C1268 C1267 1.358 . S
C1268 H1271 0.930 . S
C1269 C1266 1.348 . S
C1269 C1267 1.356 . S
H1270 C1264 0.930 . S
H1271 C1268 0.930 . S
C1272 C1274 1.348 1_565 S
C1272 C1275 1.356 . S
C1272 O1302 1.325 . S
N1273 C1276 1.314 1_565 S
N1273 C1277 1.279 . S
C1274 C1272 1.348 1_545 S
C1274 C1276 1.353 . S
C1274 H1316 0.929 . S
C1275 C1272 1.356 . S
C1275 C1277 1.358 . S
C1275 H1317 0.930 . S
C1276 N1273 1.314 1_545 S
C1276 C1274 1.353 . S
C1276 H1318 0.930 . S
C1277 N1273 1.279 . S
C1277 C1275 1.358 . S
C1277 H1319 0.930 . S
C1278 C1279 1.348 . S
C1278 C1280 1.356 . S
C1278 O1303 1.325 . S
C1279 C1278 1.348 . S
C1279 C1281 1.353 . S
C1279 H1320 0.929 . S
C1280 C1278 1.356 . S
C1280 C1282 1.358 . S
C1280 H1321 0.930 . S
C1281 C1279 1.353 . S
C1281 N1283 1.314 . S
C1281 H1322 0.930 . S
C1282 C1280 1.358 . S
C1282 N1283 1.279 . S
C1282 H1323 0.930 . S
N1283 C1281 1.314 . S
N1283 C1282 1.279 . S
C1284 C1286 1.353 . S
C1284 N1287 1.314 . S
C1284 H1290 0.930 . S
C1285 N1287 1.279 . S
C1285 C1288 1.358 . S
C1285 H1291 0.930 . S
C1286 C1284 1.353 . S
C1286 C1289 1.348 . S
C1286 H1324 0.929 . S
N1287 Li1242 1.990 . S
N1287 C1284 1.314 . S
N1287 C1285 1.279 . S
C1288 C1285 1.358 . S
C1288 C1289 1.356 . S
C1288 H1325 0.930 . S
C1289 C1286 1.348 . S
C1289 C1288 1.356 . S
H1290 C1284 0.930 . S
H1291 C1285 0.930 . S
C1292 N1293 1.314 . S
C1292 C1294 1.353 . S
C1292 H1298 0.930 . S
N1293 Li1243 1.990 . S
N1293 C1292 1.314 . S
N1293 C1296 1.279 . S
C1294 C1292 1.353 . S
C1294 C1297 1.348 . S
C1294 H1326 0.929 . S
C1295 C1296 1.358 . S
C1295 C1297 1.356 . S
C1295 H1327 0.930 . S
C1296 N1293 1.279 . S
C1296 C1295 1.358 . S
C1296 H1299 0.930 . S
C1297 C1294 1.348 . S
C1297 C1295 1.356 . S
H1298 C1292 0.930 . S
H1299 C1296 0.930 . S
O1300 Li1240 1.956 . S
O1300 Li1241 1.970 1_565 S
O1300 Li1242 1.961 . S
O1300 C1244 1.325 . S
O1301 Li1240 1.970 1_545 S
O1301 Li1241 1.956 . S
O1301 Li1243 1.961 . S
O1301 C1250 1.325 . S
O1302 Li1240 1.961 . S
O1302 Li1242 1.956 . S
O1302 Li1243 1.970 1_565 S
O1302 C1272 1.325 . S
O1303 Li1241 1.961 . S
O1303 Li1242 1.970 1_545 S
O1303 Li1243 1.956 . S
O1303 C1278 1.325 . S
H1304 C1246 0.929 . S
H1305 C1247 0.930 . S
H1306 C1248 0.930 . S
H1307 C1249 0.930 . S
H1308 C1251 0.930 . S
H1309 C1253 0.929 . S
H1310 C1254 0.930 . S
H1311 C1255 0.930 . S
H1312 C1258 0.930 . S
H1313 C1261 0.929 . S
H1314 C1266 0.929 . S
H1315 C1267 0.930 . S
H1316 C1274 0.929 . S
H1317 C1275 0.930 . S
H1318 C1276 0.930 . S
H1319 C1277 0.930 . S
H1320 C1279 0.929 . S
H1321 C1280 0.930 . S
H1322 C1281 0.930 . S
H1323 C1282 0.930 . S
H1324 C1286 0.929 . S
H1325 C1288 0.930 . S
H1326 C1294 0.929 . S
H1327 C1295 0.930 . S
Li1328 N1345 1.990 . S
Li1328 O1388 1.956 . S
Li1328 O1389 1.970 1_455 S
Li1328 O1390 1.961 . S
Li1329 N1353 1.990 . S
Li1329 O1388 1.970 1_655 S
Li1329 O1389 1.956 . S
Li1329 O1391 1.961 . S
Li1330 N1375 1.990 . S
Li1330 O1388 1.961 . S
Li1330 O1390 1.956 . S
Li1330 O1391 1.970 1_455 S
Li1331 N1381 1.990 . S
Li1331 O1389 1.961 . S
Li1331 O1390 1.970 1_655 S
Li1331 O1391 1.956 . S
C1332 C1334 1.348 . S
C1332 C1335 1.356 . S
C1332 O1388 1.325 . S
N1333 C1336 1.314 . S
N1333 C1337 1.279 . S
C1334 C1332 1.348 . S
C1334 C1336 1.353 . S
C1334 H1392 0.929 . S
C1335 C1332 1.356 . S
C1335 C1337 1.358 . S
C1335 H1393 0.930 . S
C1336 N1333 1.314 . S
C1336 C1334 1.353 . S
C1336 H1394 0.930 . S
C1337 N1333 1.279 . S
C1337 C1335 1.358 . S
C1337 H1395 0.930 . S
C1338 C1341 1.348 1_655 S
C1338 C1342 1.356 . S
C1338 O1389 1.325 . S
C1339 N1340 1.279 . S
C1339 C1342 1.358 . S
C1339 H1396 0.930 . S
N1340 C1339 1.279 . S
N1340 C1343 1.314 1_655 S
C1341 C1338 1.348 1_455 S
C1341 C1343 1.353 . S
C1341 H1397 0.929 . S
C1342 C1338 1.356 . S
C1342 C1339 1.358 . S
C1342 H1398 0.930 . S
C1343 N1340 1.314 1_455 S
C1343 C1341 1.353 . S
C1343 H1399 0.930 . S
C1344 N1345 1.314 . S
C1344 C1349 1.353 . S
C1344 H1350 0.930 . S
N1345 Li1328 1.990 . S
N1345 C1344 1.314 . S
N1345 C1347 1.279 . S
C1346 C1347 1.358 . S
C1346 C1348 1.356 . S
C1346 H1400 0.930 . S
C1347 N1345 1.279 . S
C1347 C1346 1.358 . S
C1347 H1351 0.930 . S
C1348 C1346 1.356 . S
C1348 C1349 1.348 . S
C1349 C1344 1.353 . S
C1349 C1348 1.348 . S
C1349 H1401 0.929 . S
H1350 C1344 0.930 . S
H1351 C1347 0.930 . S
C1352 N1353 1.314 . S
C1352 C1354 1.353 . S
C1352 H1358 0.930 . S
N1353 Li1329 1.990 . S
N1353 C1352 1.314 . S
N1353 C1356 1.279 . S
C1354 C1352 1.353 . S
C1354 C1357 1.348 . S
C1354 H1402 0.929 . S
C1355 C1356 1.358 . S
C1355 C1357 1.356 . S
C1355 H1403 0.930 . S
C1356 N1353 1.279 . S
C1356 C1355 1.358 . S
C1356 H1359 0.930 . S
C1357 C1354 1.348 . S
C1357 C1355 1.356 . S
H1358 C1352 0.930 . S
H1359 C1356 0.930 . S
C1360 C1362 1.348 1_455 S
C1360 C1363 1.356 . S
C1360 O1390 1.325 . S
N1361 C1364 1.314 1_455 S
N1361 C1365 1.279 . S
C1362 C1360 1.348 1_655 S
C1362 C1364 1.353 . S
C1362 H1404 0.929 . S
C1363 C1360 1.356 . S
C1363 C1365 1.358 . S
C1363 H1405 0.930 . S
C1364 N1361 1.314 1_655 S
C1364 C1362 1.353 . S
C1364 H1406 0.930 . S
C1365 N1361 1.279 . S
C1365 C1363 1.358 . S
C1365 H1407 0.930 . S
C1366 C1367 1.348 . S
C1366 C1368 1.356 . S
C1366 O1391 1.325 . S
C1367 C1366 1.348 . S
C1367 C1369 1.353 . S
C1367 H1408 0.929 . S
C1368 C1366 1.356 . S
C1368 C1370 1.358 . S
C1368 H1409 0.930 . S
C1369 C1367 1.353 . S
C1369 N1371 1.314 . S
C1369 H1410 0.930 . S
C1370 C1368 1.358 . S
C1370 N1371 1.279 . S
C1370 H1411 0.930 . S
N1371 C1369 1.314 . S
N1371 C1370 1.279 . S
C1372 C1374 1.353 . S
C1372 N1375 1.314 . S
C1372 H1378 0.930 . S
C1373 N1375 1.279 . S
C1373 C1376 1.358 . S
C1373 H1379 0.930 . S
C1374 C1372 1.353 . S
C1374 C1377 1.348 . S
C1374 H1412 0.929 . S
N1375 Li1330 1.990 . S
N1375 C1372 1.314 . S
N1375 C1373 1.279 . S
C1376 C1373 1.358 . S
C1376 C1377 1.356 . S
C1376 H1413 0.930 . S
C1377 C1374 1.348 . S
C1377 C1376 1.356 . S
H1378 C1372 0.930 . S
H1379 C1373 0.930 . S
C1380 N1381 1.314 . S
C1380 C1382 1.353 . S
C1380 H1386 0.930 . S
N1381 Li1331 1.990 . S
N1381 C1380 1.314 . S
N1381 C1384 1.279 . S
C1382 C1380 1.353 . S
C1382 C1385 1.348 . S
C1382 H1414 0.929 . S
C1383 C1384 1.358 . S
C1383 C1385 1.356 . S
C1383 H1415 0.930 . S
C1384 N1381 1.279 . S
C1384 C1383 1.358 . S
C1384 H1387 0.930 . S
C1385 C1382 1.348 . S
C1385 C1383 1.356 . S
H1386 C1380 0.930 . S
H1387 C1384 0.930 . S
O1388 Li1328 1.956 . S
O1388 Li1329 1.970 1_455 S
O1388 Li1330 1.961 . S
O1388 C1332 1.325 . S
O1389 Li1328 1.970 1_655 S
O1389 Li1329 1.956 . S
O1389 Li1331 1.961 . S
O1389 C1338 1.325 . S
O1390 Li1328 1.961 . S
O1390 Li1330 1.956 . S
O1390 Li1331 1.970 1_455 S
O1390 C1360 1.325 . S
O1391 Li1329 1.961 . S
O1391 Li1330 1.970 1_655 S
O1391 Li1331 1.956 . S
O1391 C1366 1.325 . S
H1392 C1334 0.929 . S
H1393 C1335 0.930 . S
H1394 C1336 0.930 . S
H1395 C1337 0.930 . S
H1396 C1339 0.930 . S
H1397 C1341 0.929 . S
H1398 C1342 0.930 . S
H1399 C1343 0.930 . S
H1400 C1346 0.930 . S
H1401 C1349 0.929 . S
H1402 C1354 0.929 . S
H1403 C1355 0.930 . S
H1404 C1362 0.929 . S
H1405 C1363 0.930 . S
H1406 C1364 0.930 . S
H1407 C1365 0.930 . S
H1408 C1367 0.929 . S
H1409 C1368 0.930 . S
H1410 C1369 0.930 . S
H1411 C1370 0.930 . S
H1412 C1374 0.929 . S
H1413 C1376 0.930 . S
H1414 C1382 0.929 . S
H1415 C1383 0.930 . S
Li1416 N1433 1.990 . S
Li1416 O1476 1.956 . S
Li1416 O1477 1.970 . S
Li1416 O1478 1.961 . S
Li1417 N1441 1.990 . S
Li1417 O1476 1.970 . S
Li1417 O1477 1.956 . S
Li1417 O1479 1.961 . S
Li1418 N1463 1.990 . S
Li1418 O1476 1.961 . S
Li1418 O1478 1.956 . S
Li1418 O1479 1.970 . S
Li1419 N1469 1.990 . S
Li1419 O1477 1.961 . S
Li1419 O1478 1.970 . S
Li1419 O1479 1.956 . S
C1420 C1422 1.348 . S
C1420 C1423 1.356 . S
C1420 O1476 1.325 . S
N1421 C1424 1.314 . S
N1421 C1425 1.279 . S
C1422 C1420 1.348 . S
C1422 C1424 1.353 . S
C1422 H1480 0.929 . S
C1423 C1420 1.356 . S
C1423 C1425 1.358 . S
C1423 H1481 0.930 . S
C1424 N1421 1.314 . S
C1424 C1422 1.353 . S
C1424 H1482 0.930 . S
C1425 N1421 1.279 . S
C1425 C1423 1.358 . S
C1425 H1483 0.930 . S
C1426 C1429 1.348 . S
C1426 C1430 1.356 . S
C1426 O1477 1.325 . S
C1427 N1428 1.279 . S
C1427 C1430 1.358 . S
C1427 H1484 0.930 . S
N1428 C1427 1.279 . S
N1428 C1431 1.314 . S
C1429 C1426 1.348 . S
C1429 C1431 1.353 . S
C1429 H1485 0.929 . S
C1430 C1426 1.356 . S
C1430 C1427 1.358 . S
C1430 H1486 0.930 . S
C1431 N1428 1.314 . S
C1431 C1429 1.353 . S
C1431 H1487 0.930 . S
C1432 N1433 1.314 . S
C1432 C1437 1.353 . S
C1432 H1438 0.930 . S
N1433 Li1416 1.990 . S
N1433 C1432 1.314 . S
N1433 C1435 1.279 . S
C1434 C1435 1.358 . S
C1434 C1436 1.356 . S
C1434 H1488 0.930 . S
C1435 N1433 1.279 . S
C1435 C1434 1.358 . S
C1435 H1439 0.930 . S
C1436 C1434 1.356 . S
C1436 C1437 1.348 . S
C1437 C1432 1.353 . S
C1437 C1436 1.348 . S
C1437 H1489 0.929 . S
H1438 C1432 0.930 . S
H1439 C1435 0.930 . S
C1440 N1441 1.314 . S
C1440 C1442 1.353 . S
C1440 H1446 0.930 . S
N1441 Li1417 1.990 . S
N1441 C1440 1.314 . S
N1441 C1444 1.279 . S
C1442 C1440 1.353 . S
C1442 C1445 1.348 . S
C1442 H1490 0.929 . S
C1443 C1444 1.358 . S
C1443 C1445 1.356 . S
C1443 H1491 0.930 . S
C1444 N1441 1.279 . S
C1444 C1443 1.358 . S
C1444 H1447 0.930 . S
C1445 C1442 1.348 . S
C1445 C1443 1.356 . S
H1446 C1440 0.930 . S
H1447 C1444 0.930 . S
C1448 C1450 1.348 . S
C1448 C1451 1.356 . S
C1448 O1478 1.325 . S
N1449 C1452 1.314 . S
N1449 C1453 1.279 . S
C1450 C1448 1.348 . S
C1450 C1452 1.353 . S
C1450 H1492 0.929 . S
C1451 C1448 1.356 . S
C1451 C1453 1.358 . S
C1451 H1493 0.930 . S
C1452 N1449 1.314 . S
C1452 C1450 1.353 . S
C1452 H1494 0.930 . S
C1453 N1449 1.279 . S
C1453 C1451 1.358 . S
C1453 H1495 0.930 . S
C1454 C1455 1.348 . S
C1454 C1456 1.356 . S
C1454 O1479 1.325 . S
C1455 C1454 1.348 . S
C1455 C1457 1.353 . S
C1455 H1496 0.929 . S
C1456 C1454 1.356 . S
C1456 C1458 1.358 . S
C1456 H1497 0.930 . S
C1457 C1455 1.353 . S
C1457 N1459 1.314 . S
C1457 H1498 0.930 . S
C1458 C1456 1.358 . S
C1458 N1459 1.279 . S
C1458 H1499 0.930 . S
N1459 C1457 1.314 . S
N1459 C1458 1.279 . S
C1460 C1462 1.353 . S
C1460 N1463 1.314 . S
C1460 H1466 0.930 . S
C1461 N1463 1.279 . S
C1461 C1464 1.358 . S
C1461 H1467 0.930 . S
C1462 C1460 1.353 . S
C1462 C1465 1.348 . S
C1462 H1500 0.929 . S
N1463 Li1418 1.990 . S
N1463 C1460 1.314 . S
N1463 C1461 1.279 . S
C1464 C1461 1.358 . S
C1464 C1465 1.356 . S
C1464 H1501 0.930 . S
C1465 C1462 1.348 . S
C1465 C1464 1.356 . S
H1466 C1460 0.930 . S
H1467 C1461 0.930 . S
C1468 N1469 1.314 . S
C1468 C1470 1.353 . S
C1468 H1474 0.930 . S
N1469 Li1419 1.990 . S
N1469 C1468 1.314 . S
N1469 C1472 1.279 . S
C1470 C1468 1.353 . S
C1470 C1473 1.348 . S
C1470 H1502 0.929 . S
C1471 C1472 1.358 . S
C1471 C1473 1.356 . S
C1471 H1503 0.930 . S
C1472 N1469 1.279 . S
C1472 C1471 1.358 . S
C1472 H1475 0.930 . S
C1473 C1470 1.348 . S
C1473 C1471 1.356 . S
H1474 C1468 0.930 . S
H1475 C1472 0.930 . S
O1476 Li1416 1.956 . S
O1476 Li1417 1.970 . S
O1476 Li1418 1.961 . S
O1476 C1420 1.325 . S
O1477 Li1416 1.970 . S
O1477 Li1417 1.956 . S
O1477 Li1419 1.961 . S
O1477 C1426 1.325 . S
O1478 Li1416 1.961 . S
O1478 Li1418 1.956 . S
O1478 Li1419 1.970 . S
O1478 C1448 1.325 . S
O1479 Li1417 1.961 . S
O1479 Li1418 1.970 . S
O1479 Li1419 1.956 . S
O1479 C1454 1.325 . S
H1480 C1422 0.929 . S
H1481 C1423 0.930 . S
H1482 C1424 0.930 . S
H1483 C1425 0.930 . S
H1484 C1427 0.930 . S
H1485 C1429 0.929 . S
H1486 C1430 0.930 . S
H1487 C1431 0.930 . S
H1488 C1434 0.930 . S
H1489 C1437 0.929 . S
H1490 C1442 0.929 . S
H1491 C1443 0.930 . S
H1492 C1450 0.929 . S
H1493 C1451 0.930 . S
H1494 C1452 0.930 . S
H1495 C1453 0.930 . S
H1496 C1455 0.929 . S
H1497 C1456 0.930 . S
H1498 C1457 0.930 . S
H1499 C1458 0.930 . S
H1500 C1462 0.929 . S
H1501 C1464 0.930 . S
H1502 C1470 0.929 . S
H1503 C1471 0.930 . S
Li1504 N1521 1.990 . S
Li1504 O1564 1.956 . S
Li1504 O1565 1.970 1_455 S
Li1504 O1566 1.961 . S
Li1505 N1529 1.990 . S
Li1505 O1564 1.970 1_655 S
Li1505 O1565 1.956 . S
Li1505 O1567 1.961 . S
Li1506 N1551 1.990 . S
Li1506 O1564 1.961 . S
Li1506 O1566 1.956 . S
Li1506 O1567 1.970 1_455 S
Li1507 N1557 1.990 . S
Li1507 O1565 1.961 . S
Li1507 O1566 1.970 1_655 S
Li1507 O1567 1.956 . S
C1508 C1510 1.348 1_455 S
C1508 C1511 1.356 . S
C1508 O1564 1.325 . S
N1509 C1512 1.314 1_455 S
N1509 C1513 1.279 . S
C1510 C1508 1.348 1_655 S
C1510 C1512 1.353 . S
C1510 H1568 0.929 . S
C1511 C1508 1.356 . S
C1511 C1513 1.358 . S
C1511 H1569 0.930 . S
C1512 N1509 1.314 1_655 S
C1512 C1510 1.353 . S
C1512 H1570 0.930 . S
C1513 N1509 1.279 . S
C1513 C1511 1.358 . S
C1513 H1571 0.930 . S
C1514 C1517 1.348 . S
C1514 C1518 1.356 . S
C1514 O1565 1.325 . S
C1515 N1516 1.279 . S
C1515 C1518 1.358 . S
C1515 H1572 0.930 . S
N1516 C1515 1.279 . S
N1516 C1519 1.314 . S
C1517 C1514 1.348 . S
C1517 C1519 1.353 . S
C1517 H1573 0.929 . S
C1518 C1514 1.356 . S
C1518 C1515 1.358 . S
C1518 H1574 0.930 . S
C1519 N1516 1.314 . S
C1519 C1517 1.353 . S
C1519 H1575 0.930 . S
C1520 N1521 1.314 . S
C1520 C1525 1.353 . S
C1520 H1526 0.930 . S
N1521 Li1504 1.990 . S
N1521 C1520 1.314 . S
N1521 C1523 1.279 . S
C1522 C1523 1.358 . S
C1522 C1524 1.356 . S
C1522 H1576 0.930 . S
C1523 N1521 1.279 . S
C1523 C1522 1.358 . S
C1523 H1527 0.930 . S
C1524 C1522 1.356 . S
C1524 C1525 1.348 . S
C1525 C1520 1.353 . S
C1525 C1524 1.348 . S
C1525 H1577 0.929 . S
H1526 C1520 0.930 . S
H1527 C1523 0.930 . S
C1528 N1529 1.314 . S
C1528 C1530 1.353 . S
C1528 H1534 0.930 . S
N1529 Li1505 1.990 . S
N1529 C1528 1.314 . S
N1529 C1532 1.279 . S
C1530 C1528 1.353 . S
C1530 C1533 1.348 . S
C1530 H1578 0.929 . S
C1531 C1532 1.358 . S
C1531 C1533 1.356 . S
C1531 H1579 0.930 . S
C1532 N1529 1.279 . S
C1532 C1531 1.358 . S
C1532 H1535 0.930 . S
C1533 C1530 1.348 . S
C1533 C1531 1.356 . S
H1534 C1528 0.930 . S
H1535 C1532 0.930 . S
C1536 C1538 1.348 . S
C1536 C1539 1.356 . S
C1536 O1566 1.325 . S
N1537 C1540 1.314 . S
N1537 C1541 1.279 . S
C1538 C1536 1.348 . S
C1538 C1540 1.353 . S
C1538 H1580 0.929 . S
C1539 C1536 1.356 . S
C1539 C1541 1.358 . S
C1539 H1581 0.930 . S
C1540 N1537 1.314 . S
C1540 C1538 1.353 . S
C1540 H1582 0.930 . S
C1541 N1537 1.279 . S
C1541 C1539 1.358 . S
C1541 H1583 0.930 . S
C1542 C1543 1.348 1_655 S
C1542 C1544 1.356 . S
C1542 O1567 1.325 . S
C1543 C1542 1.348 1_455 S
C1543 C1545 1.353 . S
C1543 H1584 0.929 . S
C1544 C1542 1.356 . S
C1544 C1546 1.358 . S
C1544 H1585 0.930 . S
C1545 C1543 1.353 . S
C1545 N1547 1.314 1_455 S
C1545 H1586 0.930 . S
C1546 C1544 1.358 . S
C1546 N1547 1.279 . S
C1546 H1587 0.930 . S
N1547 C1545 1.314 1_655 S
N1547 C1546 1.279 . S
C1548 C1550 1.353 . S
C1548 N1551 1.314 . S
C1548 H1554 0.930 . S
C1549 N1551 1.279 . S
C1549 C1552 1.358 . S
C1549 H1555 0.930 . S
C1550 C1548 1.353 . S
C1550 C1553 1.348 . S
C1550 H1588 0.929 . S
N1551 Li1506 1.990 . S
N1551 C1548 1.314 . S
N1551 C1549 1.279 . S
C1552 C1549 1.358 . S
C1552 C1553 1.356 . S
C1552 H1589 0.930 . S
C1553 C1550 1.348 . S
C1553 C1552 1.356 . S
H1554 C1548 0.930 . S
H1555 C1549 0.930 . S
C1556 N1557 1.314 . S
C1556 C1558 1.353 . S
C1556 H1562 0.930 . S
N1557 Li1507 1.990 . S
N1557 C1556 1.314 . S
N1557 C1560 1.279 . S
C1558 C1556 1.353 . S
C1558 C1561 1.348 . S
C1558 H1590 0.929 . S
C1559 C1560 1.358 . S
C1559 C1561 1.356 . S
C1559 H1591 0.930 . S
C1560 N1557 1.279 . S
C1560 C1559 1.358 . S
C1560 H1563 0.930 . S
C1561 C1558 1.348 . S
C1561 C1559 1.356 . S
H1562 C1556 0.930 . S
H1563 C1560 0.930 . S
O1564 Li1504 1.956 . S
O1564 Li1505 1.970 1_455 S
O1564 Li1506 1.961 . S
O1564 C1508 1.325 . S
O1565 Li1504 1.970 1_655 S
O1565 Li1505 1.956 . S
O1565 Li1507 1.961 . S
O1565 C1514 1.325 . S
O1566 Li1504 1.961 . S
O1566 Li1506 1.956 . S
O1566 Li1507 1.970 1_455 S
O1566 C1536 1.325 . S
O1567 Li1505 1.961 . S
O1567 Li1506 1.970 1_655 S
O1567 Li1507 1.956 . S
O1567 C1542 1.325 . S
H1568 C1510 0.929 . S
H1569 C1511 0.930 . S
H1570 C1512 0.930 . S
H1571 C1513 0.930 . S
H1572 C1515 0.930 . S
H1573 C1517 0.929 . S
H1574 C1518 0.930 . S
H1575 C1519 0.930 . S
H1576 C1522 0.930 . S
H1577 C1525 0.929 . S
H1578 C1530 0.929 . S
H1579 C1531 0.930 . S
H1580 C1538 0.929 . S
H1581 C1539 0.930 . S
H1582 C1540 0.930 . S
H1583 C1541 0.930 . S
H1584 C1543 0.929 . S
H1585 C1544 0.930 . S
H1586 C1545 0.930 . S
H1587 C1546 0.930 . S
H1588 C1550 0.929 . S
H1589 C1552 0.930 . S
H1590 C1558 0.929 . S
H1591 C1559 0.930 . S
Li1592 N1609 1.990 . S
Li1592 O1652 1.956 . S
Li1592 O1653 1.970 . S
Li1592 O1654 1.961 . S
Li1593 N1617 1.990 . S
Li1593 O1652 1.970 . S
Li1593 O1653 1.956 . S
Li1593 O1655 1.961 . S
Li1594 N1639 1.990 . S
Li1594 O1652 1.961 . S
Li1594 O1654 1.956 . S
Li1594 O1655 1.970 . S
Li1595 N1645 1.990 . S
Li1595 O1653 1.961 . S
Li1595 O1654 1.970 . S
Li1595 O1655 1.956 . S
C1596 C1598 1.348 . S
C1596 C1599 1.356 . S
C1596 O1652 1.325 . S
N1597 C1600 1.314 . S
N1597 C1601 1.279 . S
C1598 C1596 1.348 . S
C1598 C1600 1.353 . S
C1598 H1656 0.929 . S
C1599 C1596 1.356 . S
C1599 C1601 1.358 . S
C1599 H1657 0.930 . S
C1600 N1597 1.314 . S
C1600 C1598 1.353 . S
C1600 H1658 0.930 . S
C1601 N1597 1.279 . S
C1601 C1599 1.358 . S
C1601 H1659 0.930 . S
C1602 C1605 1.348 . S
C1602 C1606 1.356 . S
C1602 O1653 1.325 . S
C1603 N1604 1.279 . S
C1603 C1606 1.358 . S
C1603 H1660 0.930 . S
N1604 C1603 1.279 . S
N1604 C1607 1.314 . S
C1605 C1602 1.348 . S
C1605 C1607 1.353 . S
C1605 H1661 0.929 . S
C1606 C1602 1.356 . S
C1606 C1603 1.358 . S
C1606 H1662 0.930 . S
C1607 N1604 1.314 . S
C1607 C1605 1.353 . S
C1607 H1663 0.930 . S
C1608 N1609 1.314 . S
C1608 C1613 1.353 . S
C1608 H1614 0.930 . S
N1609 Li1592 1.990 . S
N1609 C1608 1.314 . S
N1609 C1611 1.279 . S
C1610 C1611 1.358 . S
C1610 C1612 1.356 . S
C1610 H1664 0.930 . S
C1611 N1609 1.279 . S
C1611 C1610 1.358 . S
C1611 H1615 0.930 . S
C1612 C1610 1.356 . S
C1612 C1613 1.348 . S
C1613 C1608 1.353 . S
C1613 C1612 1.348 . S
C1613 H1665 0.929 . S
H1614 C1608 0.930 . S
H1615 C1611 0.930 . S
C1616 N1617 1.314 . S
C1616 C1618 1.353 . S
C1616 H1622 0.930 . S
N1617 Li1593 1.990 . S
N1617 C1616 1.314 . S
N1617 C1620 1.279 . S
C1618 C1616 1.353 . S
C1618 C1621 1.348 . S
C1618 H1666 0.929 . S
C1619 C1620 1.358 . S
C1619 C1621 1.356 . S
C1619 H1667 0.930 . S
C1620 N1617 1.279 . S
C1620 C1619 1.358 . S
C1620 H1623 0.930 . S
C1621 C1618 1.348 . S
C1621 C1619 1.356 . S
H1622 C1616 0.930 . S
H1623 C1620 0.930 . S
C1624 C1626 1.348 . S
C1624 C1627 1.356 . S
C1624 O1654 1.325 . S
N1625 C1628 1.314 . S
N1625 C1629 1.279 . S
C1626 C1624 1.348 . S
C1626 C1628 1.353 . S
C1626 H1668 0.929 . S
C1627 C1624 1.356 . S
C1627 C1629 1.358 . S
C1627 H1669 0.930 . S
C1628 N1625 1.314 . S
C1628 C1626 1.353 . S
C1628 H1670 0.930 . S
C1629 N1625 1.279 . S
C1629 C1627 1.358 . S
C1629 H1671 0.930 . S
C1630 C1631 1.348 . S
C1630 C1632 1.356 . S
C1630 O1655 1.325 . S
C1631 C1630 1.348 . S
C1631 C1633 1.353 . S
C1631 H1672 0.929 . S
C1632 C1630 1.356 . S
C1632 C1634 1.358 . S
C1632 H1673 0.930 . S
C1633 C1631 1.353 . S
C1633 N1635 1.314 . S
C1633 H1674 0.930 . S
C1634 C1632 1.358 . S
C1634 N1635 1.279 . S
C1634 H1675 0.930 . S
N1635 C1633 1.314 . S
N1635 C1634 1.279 . S
C1636 C1638 1.353 . S
C1636 N1639 1.314 . S
C1636 H1642 0.930 . S
C1637 N1639 1.279 . S
C1637 C1640 1.358 . S
C1637 H1643 0.930 . S
C1638 C1636 1.353 . S
C1638 C1641 1.348 . S
C1638 H1676 0.929 . S
N1639 Li1594 1.990 . S
N1639 C1636 1.314 . S
N1639 C1637 1.279 . S
C1640 C1637 1.358 . S
C1640 C1641 1.356 . S
C1640 H1677 0.930 . S
C1641 C1638 1.348 . S
C1641 C1640 1.356 . S
H1642 C1636 0.930 . S
H1643 C1637 0.930 . S
C1644 N1645 1.314 . S
C1644 C1646 1.353 . S
C1644 H1650 0.930 . S
N1645 Li1595 1.990 . S
N1645 C1644 1.314 . S
N1645 C1648 1.279 . S
C1646 C1644 1.353 . S
C1646 C1649 1.348 . S
C1646 H1678 0.929 . S
C1647 C1648 1.358 . S
C1647 C1649 1.356 . S
C1647 H1679 0.930 . S
C1648 N1645 1.279 . S
C1648 C1647 1.358 . S
C1648 H1651 0.930 . S
C1649 C1646 1.348 . S
C1649 C1647 1.356 . S
H1650 C1644 0.930 . S
H1651 C1648 0.930 . S
O1652 Li1592 1.956 . S
O1652 Li1593 1.970 . S
O1652 Li1594 1.961 . S
O1652 C1596 1.325 . S
O1653 Li1592 1.970 . S
O1653 Li1593 1.956 . S
O1653 Li1595 1.961 . S
O1653 C1602 1.325 . S
O1654 Li1592 1.961 . S
O1654 Li1594 1.956 . S
O1654 Li1595 1.970 . S
O1654 C1624 1.325 . S
O1655 Li1593 1.961 . S
O1655 Li1594 1.970 . S
O1655 Li1595 1.956 . S
O1655 C1630 1.325 . S
H1656 C1598 0.929 . S
H1657 C1599 0.930 . S
H1658 C1600 0.930 . S
H1659 C1601 0.930 . S
H1660 C1603 0.930 . S
H1661 C1605 0.929 . S
H1662 C1606 0.930 . S
H1663 C1607 0.930 . S
H1664 C1610 0.930 . S
H1665 C1613 0.929 . S
H1666 C1618 0.929 . S
H1667 C1619 0.930 . S
H1668 C1626 0.929 . S
H1669 C1627 0.930 . S
H1670 C1628 0.930 . S
H1671 C1629 0.930 . S
H1672 C1631 0.929 . S
H1673 C1632 0.930 . S
H1674 C1633 0.930 . S
H1675 C1634 0.930 . S
H1676 C1638 0.929 . S
H1677 C1640 0.930 . S
H1678 C1646 0.929 . S
H1679 C1647 0.930 . S
C1680 C1681 1.363 . S
C1680 C1686 1.379 . S
C1680 N1688 1.356 . S
C1681 C1680 1.363 . S
C1681 C1687 1.363 . S
C1682 C1683 1.363 . S
C1682 C1687 1.379 . S
C1682 N1689 1.356 . S
C1683 C1682 1.363 . S
C1683 C1686 1.363 . S
N1684 C1686 1.356 . S
N1684 H1696 0.984 . S
N1684 H1697 0.985 . S
N1685 C1687 1.356 . S
N1685 H1690 0.984 . S
N1685 H1691 0.985 . S
C1686 C1680 1.379 . S
C1686 C1683 1.363 . S
C1686 N1684 1.356 . S
C1687 C1681 1.363 . S
C1687 C1682 1.379 . S
C1687 N1685 1.356 . S
N1688 C1680 1.356 . S
N1688 H1694 0.984 . S
N1688 H1695 0.984 . S
N1689 C1682 1.356 . S
N1689 H1692 0.984 . S
N1689 H1693 0.985 . S
H1690 N1685 0.984 . S
H1691 N1685 0.985 . S
H1692 N1689 0.984 . S
H1693 N1689 0.985 . S
H1694 N1688 0.984 . S
H1695 N1688 0.984 . S
H1696 N1684 0.984 . S
H1697 N1684 0.985 . S
C1698 C1699 1.363 . S
C1698 C1704 1.379 . S
C1698 N1706 1.356 . S
C1699 C1698 1.363 . S
C1699 C1705 1.363 . S
C1700 C1701 1.363 . S
C1700 C1705 1.379 . S
C1700 N1707 1.356 . S
C1701 C1700 1.363 . S
C1701 C1704 1.363 . S
N1702 C1704 1.356 . S
N1702 H1714 0.984 . S
N1702 H1715 0.985 . S
N1703 C1705 1.356 . S
N1703 H1708 0.984 . S
N1703 H1709 0.985 . S
C1704 C1698 1.379 . S
C1704 C1701 1.363 . S
C1704 N1702 1.356 . S
C1705 C1699 1.363 . S
C1705 C1700 1.379 . S
C1705 N1703 1.356 . S
N1706 C1698 1.356 . S
N1706 H1712 0.984 . S
N1706 H1713 0.984 . S
N1707 C1700 1.356 . S
N1707 H1710 0.984 . S
N1707 H1711 0.985 . S
H1708 N1703 0.984 . S
H1709 N1703 0.985 . S
H1710 N1707 0.984 . S
H1711 N1707 0.985 . S
H1712 N1706 0.984 . S
H1713 N1706 0.984 . S
H1714 N1702 0.984 . S
H1715 N1702 0.985 . S
C1716 C1717 1.363 . S
C1716 C1722 1.379 . S
C1716 N1724 1.356 . S
C1717 C1716 1.363 . S
C1717 C1723 1.363 . S
C1718 C1719 1.363 . S
C1718 C1723 1.379 . S
C1718 N1725 1.356 . S
C1719 C1718 1.363 . S
C1719 C1722 1.363 . S
N1720 C1722 1.356 . S
N1720 H1732 0.984 . S
N1720 H1733 0.985 . S
N1721 C1723 1.356 . S
N1721 H1726 0.984 . S
N1721 H1727 0.985 . S
C1722 C1716 1.379 . S
C1722 C1719 1.363 . S
C1722 N1720 1.356 . S
C1723 C1717 1.363 . S
C1723 C1718 1.379 . S
C1723 N1721 1.356 . S
N1724 C1716 1.356 . S
N1724 H1730 0.984 . S
N1724 H1731 0.984 . S
N1725 C1718 1.356 . S
N1725 H1728 0.984 . S
N1725 H1729 0.985 . S
H1726 N1721 0.984 . S
H1727 N1721 0.985 . S
H1728 N1725 0.984 . S
H1729 N1725 0.985 . S
H1730 N1724 0.984 . S
H1731 N1724 0.984 . S
H1732 N1720 0.984 . S
H1733 N1720 0.985 . S
C1734 C1735 1.363 . S
C1734 C1740 1.379 . S
C1734 N1742 1.356 . S
C1735 C1734 1.363 . S
C1735 C1741 1.336 1_565 S
C1736 C1737 1.363 1_545 S
C1736 C1741 1.382 . S
C1736 N1743 1.356 . S
C1737 C1736 1.363 1_565 S
C1737 C1740 1.363 . S
N1738 C1740 1.356 . S
N1738 H1750 0.984 . S
N1738 H1751 0.985 . S
N1739 C1741 1.375 . S
N1739 H1744 0.984 . S
N1739 H1745 0.985 . S
C1740 C1734 1.379 . S
C1740 C1737 1.363 . S
C1740 N1738 1.356 . S
C1741 C1735 1.336 1_545 S
C1741 C1736 1.382 . S
C1741 N1739 1.375 . S
N1742 C1734 1.356 . S
N1742 H1748 0.984 . S
N1742 H1749 0.984 . S
N1743 C1736 1.356 . S
N1743 H1746 0.984 . S
N1743 H1747 0.985 . S
H1744 N1739 0.984 . S
H1745 N1739 0.985 . S
H1746 N1743 0.984 . S
H1747 N1743 0.985 . S
H1748 N1742 0.984 . S
H1749 N1742 0.984 . S
H1750 N1738 0.984 . S
H1751 N1738 0.985 . S
C1752 C1753 1.363 . S
C1752 C1758 1.379 . S
C1752 N1760 1.356 . S
C1753 C1752 1.363 . S
C1753 C1759 1.363 . S
C1754 C1755 1.363 . S
C1754 C1759 1.379 . S
C1754 N1761 1.356 . S
C1755 C1754 1.363 . S
C1755 C1758 1.363 . S
N1756 C1758 1.356 . S
N1756 H1768 0.984 . S
N1756 H1769 0.985 . S
N1757 C1759 1.356 . S
N1757 H1762 0.984 . S
N1757 H1763 0.985 . S
C1758 C1752 1.379 . S
C1758 C1755 1.363 . S
C1758 N1756 1.356 . S
C1759 C1753 1.363 . S
C1759 C1754 1.379 . S
C1759 N1757 1.356 . S
N1760 C1752 1.356 . S
N1760 H1766 0.984 . S
N1760 H1767 0.984 . S
N1761 C1754 1.356 . S
N1761 H1764 0.984 . S
N1761 H1765 0.985 . S
H1762 N1757 0.984 . S
H1763 N1757 0.985 . S
H1764 N1761 0.984 . S
H1765 N1761 0.985 . S
H1766 N1760 0.984 . S
H1767 N1760 0.984 . S
H1768 N1756 0.984 . S
H1769 N1756 0.985 . S
C1770 C1771 1.363 . S
C1770 C1776 1.379 . S
C1770 N1778 1.356 . S
C1771 C1770 1.363 . S
C1771 C1777 1.363 . S
C1772 C1773 1.363 . S
C1772 C1777 1.379 . S
C1772 N1779 1.356 . S
C1773 C1772 1.363 . S
C1773 C1776 1.363 . S
N1774 C1776 1.356 . S
N1774 H1786 0.984 . S
N1774 H1787 0.985 . S
N1775 C1777 1.356 . S
N1775 H1780 0.984 . S
N1775 H1781 0.985 . S
C1776 C1770 1.379 . S
C1776 C1773 1.363 . S
C1776 N1774 1.356 . S
C1777 C1771 1.363 . S
C1777 C1772 1.379 . S
C1777 N1775 1.356 . S
N1778 C1770 1.356 . S
N1778 H1784 0.984 . S
N1778 H1785 0.984 . S
N1779 C1772 1.356 . S
N1779 H1782 0.984 . S
N1779 H1783 0.985 . S
H1780 N1775 0.984 . S
H1781 N1775 0.985 . S
H1782 N1779 0.984 . S
H1783 N1779 0.985 . S
H1784 N1778 0.984 . S
H1785 N1778 0.984 . S
H1786 N1774 0.984 . S
H1787 N1774 0.985 . S
C1788 C1789 1.363 . S
C1788 C1794 1.379 . S
C1788 N1796 1.356 . S
C1789 C1788 1.363 . S
C1789 C1795 1.363 . S
C1790 C1791 1.363 . S
C1790 C1795 1.379 . S
C1790 N1797 1.356 . S
C1791 C1790 1.363 . S
C1791 C1794 1.363 . S
N1792 C1794 1.356 . S
N1792 H1804 0.984 . S
N1792 H1805 0.985 . S
N1793 C1795 1.356 . S
N1793 H1798 0.984 . S
N1793 H1799 0.985 . S
C1794 C1788 1.379 . S
C1794 C1791 1.363 . S
C1794 N1792 1.356 . S
C1795 C1789 1.363 . S
C1795 C1790 1.379 . S
C1795 N1793 1.356 . S
N1796 C1788 1.356 . S
N1796 H1802 0.984 . S
N1796 H1803 0.984 . S
N1797 C1790 1.356 . S
N1797 H1800 0.984 . S
N1797 H1801 0.985 . S
H1798 N1793 0.984 . S
H1799 N1793 0.985 . S
H1800 N1797 0.984 . S
H1801 N1797 0.985 . S
H1802 N1796 0.984 . S
H1803 N1796 0.984 . S
H1804 N1792 0.984 . S
H1805 N1792 0.985 . S
C1806 C1807 1.363 . S
C1806 C1812 1.379 . S
C1806 N1814 1.356 . S
C1807 C1806 1.363 . S
C1807 C1813 1.394 . S
C1808 C1809 1.347 1_545 S
C1808 C1813 1.377 1_545 S
C1808 N1815 1.370 . S
C1809 C1808 1.347 1_565 S
C1809 C1812 1.363 . S
N1810 C1812 1.356 . S
N1810 H1822 0.984 . S
N1810 H1823 0.985 . S
N1811 C1813 1.336 1_545 S
N1811 H1816 0.984 . S
N1811 H1817 0.985 . S
C1812 C1806 1.379 . S
C1812 C1809 1.363 . S
C1812 N1810 1.356 . S
C1813 C1807 1.394 . S
C1813 C1808 1.377 1_565 S
C1813 N1811 1.336 1_565 S
N1814 C1806 1.356 . S
N1814 H1820 0.984 . S
N1814 H1821 0.984 . S
N1815 C1808 1.370 . S
N1815 H1818 0.984 . S
N1815 H1819 0.985 . S
H1816 N1811 0.984 . S
H1817 N1811 0.985 . S
H1818 N1815 0.984 . S
H1819 N1815 0.985 . S
H1820 N1814 0.984 . S
H1821 N1814 0.984 . S
H1822 N1810 0.984 . S
H1823 N1810 0.985 . S
C1824 C1825 1.363 . S
C1824 C1830 1.379 . S
C1824 N1832 1.356 . S
C1825 C1824 1.363 . S
C1825 C1831 1.363 . S
C1826 C1827 1.363 . S
C1826 C1831 1.379 . S
C1826 N1833 1.356 . S
C1827 C1826 1.363 . S
C1827 C1830 1.363 . S
N1828 C1830 1.356 . S
N1828 H1840 0.984 . S
N1828 H1841 0.985 . S
N1829 C1831 1.356 . S
N1829 H1834 0.984 . S
N1829 H1835 0.985 . S
C1830 C1824 1.379 . S
C1830 C1827 1.363 . S
C1830 N1828 1.356 . S
C1831 C1825 1.363 . S
C1831 C1826 1.379 . S
C1831 N1829 1.356 . S
N1832 C1824 1.356 . S
N1832 H1838 0.984 . S
N1832 H1839 0.984 . S
N1833 C1826 1.356 . S
N1833 H1836 0.984 . S
N1833 H1837 0.985 . S
H1834 N1829 0.984 . S
H1835 N1829 0.985 . S
H1836 N1833 0.984 . S
H1837 N1833 0.985 . S
H1838 N1832 0.984 . S
H1839 N1832 0.984 . S
H1840 N1828 0.984 . S
H1841 N1828 0.985 . S
C1842 C1843 1.363 . S
C1842 C1848 1.379 . S
C1842 N1850 1.356 . S
C1843 C1842 1.363 . S
C1843 C1849 1.363 . S
C1844 C1845 1.363 . S
C1844 C1849 1.379 . S
C1844 N1851 1.356 . S
C1845 C1844 1.363 . S
C1845 C1848 1.363 . S
N1846 C1848 1.356 . S
N1846 H1858 0.984 . S
N1846 H1859 0.985 . S
N1847 C1849 1.356 . S
N1847 H1852 0.984 . S
N1847 H1853 0.985 . S
C1848 C1842 1.379 . S
C1848 C1845 1.363 . S
C1848 N1846 1.356 . S
C1849 C1843 1.363 . S
C1849 C1844 1.379 . S
C1849 N1847 1.356 . S
N1850 C1842 1.356 . S
N1850 H1856 0.984 . S
N1850 H1857 0.984 . S
N1851 C1844 1.356 . S
N1851 H1854 0.984 . S
N1851 H1855 0.985 . S
H1852 N1847 0.984 . S
H1853 N1847 0.985 . S
H1854 N1851 0.984 . S
H1855 N1851 0.985 . S
H1856 N1850 0.984 . S
H1857 N1850 0.984 . S
H1858 N1846 0.984 . S
H1859 N1846 0.985 . S
C1860 C1861 1.363 . S
C1860 C1866 1.379 . S
C1860 N1868 1.356 . S
C1861 C1860 1.363 . S
C1861 C1867 1.363 . S
C1862 C1863 1.363 . S
C1862 C1867 1.379 . S
C1862 N1869 1.356 . S
C1863 C1862 1.363 . S
C1863 C1866 1.363 . S
N1864 C1866 1.356 . S
N1864 H1876 0.984 . S
N1864 H1877 0.985 . S
N1865 C1867 1.356 . S
N1865 H1870 0.984 . S
N1865 H1871 0.985 . S
C1866 C1860 1.379 . S
C1866 C1863 1.363 . S
C1866 N1864 1.356 . S
C1867 C1861 1.363 . S
C1867 C1862 1.379 . S
C1867 N1865 1.356 . S
N1868 C1860 1.356 . S
N1868 H1874 0.984 . S
N1868 H1875 0.984 . S
N1869 C1862 1.356 . S
N1869 H1872 0.984 . S
N1869 H1873 0.985 . S
H1870 N1865 0.984 . S
H1871 N1865 0.985 . S
H1872 N1869 0.984 . S
H1873 N1869 0.985 . S
H1874 N1868 0.984 . S
H1875 N1868 0.984 . S
H1876 N1864 0.984 . S
H1877 N1864 0.985 . S
C1878 C1879 1.363 . S
C1878 C1884 1.379 . S
C1878 N1886 1.356 . S
C1879 C1878 1.363 . S
C1879 C1885 1.363 . S
C1880 C1881 1.363 . S
C1880 C1885 1.379 . S
C1880 N1887 1.356 . S
C1881 C1880 1.363 . S
C1881 C1884 1.363 . S
N1882 C1884 1.356 . S
N1882 H1894 0.984 . S
N1882 H1895 0.985 . S
N1883 C1885 1.356 . S
N1883 H1888 0.984 . S
N1883 H1889 0.985 . S
C1884 C1878 1.379 . S
C1884 C1881 1.363 . S
C1884 N1882 1.356 . S
C1885 C1879 1.363 . S
C1885 C1880 1.379 . S
C1885 N1883 1.356 . S
N1886 C1878 1.356 . S
N1886 H1892 0.984 . S
N1886 H1893 0.984 . S
N1887 C1880 1.356 . S
N1887 H1890 0.984 . S
N1887 H1891 0.985 . S
H1888 N1883 0.984 . S
H1889 N1883 0.985 . S
H1890 N1887 0.984 . S
H1891 N1887 0.985 . S
H1892 N1886 0.984 . S
H1893 N1886 0.984 . S
H1894 N1882 0.984 . S
H1895 N1882 0.985 . S
C1896 C1897 1.363 . S
C1896 C1902 1.379 . S
C1896 N1904 1.356 . S
C1897 C1896 1.363 . S
C1897 C1903 1.363 . S
C1898 C1899 1.363 . S
C1898 C1903 1.379 . S
C1898 N1905 1.356 . S
C1899 C1898 1.363 . S
C1899 C1902 1.363 . S
N1900 C1902 1.356 . S
N1900 H1912 0.984 . S
N1900 H1913 0.985 . S
N1901 C1903 1.356 . S
N1901 H1906 0.984 . S
N1901 H1907 0.985 . S
C1902 C1896 1.379 . S
C1902 C1899 1.363 . S
C1902 N1900 1.356 . S
C1903 C1897 1.363 . S
C1903 C1898 1.379 . S
C1903 N1901 1.356 . S
N1904 C1896 1.356 . S
N1904 H1910 0.984 . S
N1904 H1911 0.984 . S
N1905 C1898 1.356 . S
N1905 H1908 0.984 . S
N1905 H1909 0.985 . S
H1906 N1901 0.984 . S
H1907 N1901 0.985 . S
H1908 N1905 0.984 . S
H1909 N1905 0.985 . S
H1910 N1904 0.984 . S
H1911 N1904 0.984 . S
H1912 N1900 0.984 . S
H1913 N1900 0.985 . S
C1914 C1915 1.363 . S
C1914 C1920 1.379 . S
C1914 N1922 1.356 . S
C1915 C1914 1.363 . S
C1915 C1921 1.363 . S
C1916 C1917 1.363 . S
C1916 C1921 1.379 . S
C1916 N1923 1.356 . S
C1917 C1916 1.363 . S
C1917 C1920 1.363 . S
N1918 C1920 1.356 . S
N1918 H1930 0.984 . S
N1918 H1931 0.985 . S
N1919 C1921 1.356 . S
N1919 H1924 0.984 . S
N1919 H1925 0.985 . S
C1920 C1914 1.379 . S
C1920 C1917 1.363 . S
C1920 N1918 1.356 . S
C1921 C1915 1.363 . S
C1921 C1916 1.379 . S
C1921 N1919 1.356 . S
N1922 C1914 1.356 . S
N1922 H1928 0.984 . S
N1922 H1929 0.984 . S
N1923 C1916 1.356 . S
N1923 H1926 0.984 . S
N1923 H1927 0.985 . S
H1924 N1919 0.984 . S
H1925 N1919 0.985 . S
H1926 N1923 0.984 . S
H1927 N1923 0.985 . S
H1928 N1922 0.984 . S
H1929 N1922 0.984 . S
H1930 N1918 0.984 . S
H1931 N1918 0.985 . S
C1932 C1933 1.363 . S
C1932 C1938 1.379 . S
C1932 N1940 1.356 . S
C1933 C1932 1.363 . S
C1933 C1939 1.363 . S
C1934 C1935 1.363 . S
C1934 C1939 1.379 . S
C1934 N1941 1.356 . S
C1935 C1934 1.363 . S
C1935 C1938 1.363 . S
N1936 C1938 1.356 . S
N1936 H1948 0.984 . S
N1936 H1949 0.985 . S
N1937 C1939 1.356 . S
N1937 H1942 0.984 . S
N1937 H1943 0.985 . S
C1938 C1932 1.379 . S
C1938 C1935 1.363 . S
C1938 N1936 1.356 . S
C1939 C1933 1.363 . S
C1939 C1934 1.379 . S
C1939 N1937 1.356 . S
N1940 C1932 1.356 . S
N1940 H1946 0.984 . S
N1940 H1947 0.984 . S
N1941 C1934 1.356 . S
N1941 H1944 0.984 . S
N1941 H1945 0.985 . S
H1942 N1937 0.984 . S
H1943 N1937 0.985 . S
H1944 N1941 0.984 . S
H1945 N1941 0.985 . S
H1946 N1940 0.984 . S
H1947 N1940 0.984 . S
H1948 N1936 0.984 . S
H1949 N1936 0.985 . S
C1950 C1951 1.363 . S
C1950 C1956 1.379 . S
C1950 N1958 1.356 . S
C1951 C1950 1.363 . S
C1951 C1957 1.363 . S
C1952 C1953 1.361 . S
C1952 C1957 1.379 . S
C1952 N1959 1.358 1_655 S
C1953 C1952 1.361 . S
C1953 C1956 1.363 . S
N1954 C1956 1.356 . S
N1954 H1966 0.984 . S
N1954 H1967 0.985 . S
N1955 C1957 1.356 1_455 S
N1955 H1960 0.984 . S
N1955 H1961 0.985 . S
C1956 C1950 1.379 . S
C1956 C1953 1.363 . S
C1956 N1954 1.356 . S
C1957 C1951 1.363 . S
C1957 C1952 1.379 . S
C1957 N1955 1.356 1_655 S
N1958 C1950 1.356 . S
N1958 H1964 0.984 . S
N1958 H1965 0.984 . S
N1959 C1952 1.358 1_455 S
N1959 H1962 0.984 . S
N1959 H1963 0.985 . S
H1960 N1955 0.984 . S
H1961 N1955 0.985 . S
H1962 N1959 0.984 . S
H1963 N1959 0.985 . S
H1964 N1958 0.984 . S
H1965 N1958 0.984 . S
H1966 N1954 0.984 . S
H1967 N1954 0.985 . S
C1968 C1969 1.363 . S
C1968 C1974 1.379 . S
C1968 N1976 1.356 . S
C1969 C1968 1.363 . S
C1969 C1975 1.363 . S
C1970 C1971 1.363 . S
C1970 C1975 1.379 . S
C1970 N1977 1.356 . S
C1971 C1970 1.363 . S
C1971 C1974 1.363 . S
N1972 C1974 1.356 . S
N1972 H1984 0.984 . S
N1972 H1985 0.985 . S
N1973 C1975 1.356 . S
N1973 H1978 0.984 . S
N1973 H1979 0.985 . S
C1974 C1968 1.379 . S
C1974 C1971 1.363 . S
C1974 N1972 1.356 . S
C1975 C1969 1.363 . S
C1975 C1970 1.379 . S
C1975 N1973 1.356 . S
N1976 C1968 1.356 . S
N1976 H1982 0.984 . S
N1976 H1983 0.984 . S
N1977 C1970 1.356 . S
N1977 H1980 0.984 . S
N1977 H1981 0.985 . S
H1978 N1973 0.984 . S
H1979 N1973 0.985 . S
H1980 N1977 0.984 . S
H1981 N1977 0.985 . S
H1982 N1976 0.984 . S
H1983 N1976 0.984 . S
H1984 N1972 0.984 . S
H1985 N1972 0.985 . S
C1986 C1987 1.363 . S
C1986 C1992 1.379 . S
C1986 N1994 1.356 . S
C1987 C1986 1.363 . S
C1987 C1993 1.363 . S
C1988 C1989 1.363 . S
C1988 C1993 1.379 . S
C1988 N1995 1.356 . S
C1989 C1988 1.363 . S
C1989 C1992 1.363 . S
N1990 C1992 1.356 . S
N1990 H2002 0.984 . S
N1990 H2003 0.985 . S
N1991 C1993 1.356 . S
N1991 H1996 0.984 . S
N1991 H1997 0.985 . S
C1992 C1986 1.379 . S
C1992 C1989 1.363 . S
C1992 N1990 1.356 . S
C1993 C1987 1.363 . S
C1993 C1988 1.379 . S
C1993 N1991 1.356 . S
N1994 C1986 1.356 . S
N1994 H2000 0.984 . S
N1994 H2001 0.984 . S
N1995 C1988 1.356 . S
N1995 H1998 0.984 . S
N1995 H1999 0.985 . S
H1996 N1991 0.984 . S
H1997 N1991 0.985 . S
H1998 N1995 0.984 . S
H1999 N1995 0.985 . S
H2000 N1994 0.984 . S
H2001 N1994 0.984 . S
H2002 N1990 0.984 . S
H2003 N1990 0.985 . S
C2004 C2005 1.363 . S
C2004 C2010 1.379 . S
C2004 N2012 1.356 . S
C2005 C2004 1.363 . S
C2005 C2011 1.363 1_556 S
C2006 C2007 1.363 1_554 S
C2006 C2011 1.379 . S
C2006 N2013 1.356 . S
C2007 C2006 1.363 1_556 S
C2007 C2010 1.363 . S
N2008 C2010 1.356 . S
N2008 H2020 0.984 . S
N2008 H2021 0.985 . S
N2009 C2011 1.356 . S
N2009 H2014 0.984 . S
N2009 H2015 0.985 . S
C2010 C2004 1.379 . S
C2010 C2007 1.363 . S
C2010 N2008 1.356 . S
C2011 C2005 1.363 1_554 S
C2011 C2006 1.379 . S
C2011 N2009 1.356 . S
N2012 C2004 1.356 . S
N2012 H2018 0.984 . S
N2012 H2019 0.984 . S
N2013 C2006 1.356 . S
N2013 H2016 0.984 . S
N2013 H2017 0.985 . S
H2014 N2009 0.984 . S
H2015 N2009 0.985 . S
H2016 N2013 0.984 . S
H2017 N2013 0.985 . S
H2018 N2012 0.984 . S
H2019 N2012 0.984 . S
H2020 N2008 0.984 . S
H2021 N2008 0.985 . S
C2022 C2023 1.363 . S
C2022 C2028 1.379 . S
C2022 N2030 1.356 . S
C2023 C2022 1.363 . S
C2023 C2029 1.363 . S
C2024 C2025 1.363 . S
C2024 C2029 1.379 . S
C2024 N2031 1.356 . S
C2025 C2024 1.363 . S
C2025 C2028 1.363 . S
N2026 C2028 1.356 . S
N2026 H2038 0.984 . S
N2026 H2039 0.985 . S
N2027 C2029 1.356 . S
N2027 H2032 0.984 . S
N2027 H2033 0.985 . S
C2028 C2022 1.379 . S
C2028 C2025 1.363 . S
C2028 N2026 1.356 . S
C2029 C2023 1.363 . S
C2029 C2024 1.379 . S
C2029 N2027 1.356 . S
N2030 C2022 1.356 . S
N2030 H2036 0.984 . S
N2030 H2037 0.984 . S
N2031 C2024 1.356 . S
N2031 H2034 0.984 . S
N2031 H2035 0.985 . S
H2032 N2027 0.984 . S
H2033 N2027 0.985 . S
H2034 N2031 0.984 . S
H2035 N2031 0.985 . S
H2036 N2030 0.984 . S
H2037 N2030 0.984 . S
H2038 N2026 0.984 . S
H2039 N2026 0.985 . S
C2040 C2041 1.363 . S
C2040 C2046 1.379 . S
C2040 N2048 1.356 . S
C2041 C2040 1.363 . S
C2041 C2047 1.363 . S
C2042 C2043 1.363 . S
C2042 C2047 1.379 . S
C2042 N2049 1.356 . S
C2043 C2042 1.363 . S
C2043 C2046 1.363 . S
N2044 C2046 1.356 . S
N2044 H2056 0.984 . S
N2044 H2057 0.985 . S
N2045 C2047 1.356 . S
N2045 H2050 0.984 . S
N2045 H2051 0.985 . S
C2046 C2040 1.379 . S
C2046 C2043 1.363 . S
C2046 N2044 1.356 . S
C2047 C2041 1.363 . S
C2047 C2042 1.379 . S
C2047 N2045 1.356 . S
N2048 C2040 1.356 . S
N2048 H2054 0.984 . S
N2048 H2055 0.984 . S
N2049 C2042 1.356 . S
N2049 H2052 0.984 . S
N2049 H2053 0.985 . S
H2050 N2045 0.984 . S
H2051 N2045 0.985 . S
H2052 N2049 0.984 . S
H2053 N2049 0.985 . S
H2054 N2048 0.984 . S
H2055 N2048 0.984 . S
H2056 N2044 0.984 . S
H2057 N2044 0.985 . S
C2058 C2059 1.363 . S
C2058 C2064 1.379 . S
C2058 N2066 1.356 . S
C2059 C2058 1.363 . S
C2059 C2065 1.363 . S
C2060 C2061 1.363 . S
C2060 C2065 1.379 . S
C2060 N2067 1.356 . S
C2061 C2060 1.363 . S
C2061 C2064 1.363 . S
N2062 C2064 1.356 . S
N2062 H2074 0.984 . S
N2062 H2075 0.985 . S
N2063 C2065 1.356 . S
N2063 H2068 0.984 . S
N2063 H2069 0.985 . S
C2064 C2058 1.379 . S
C2064 C2061 1.363 . S
C2064 N2062 1.356 . S
C2065 C2059 1.363 . S
C2065 C2060 1.379 . S
C2065 N2063 1.356 . S
N2066 C2058 1.356 . S
N2066 H2072 0.984 . S
N2066 H2073 0.984 . S
N2067 C2060 1.356 . S
N2067 H2070 0.984 . S
N2067 H2071 0.985 . S
H2068 N2063 0.984 . S
H2069 N2063 0.985 . S
H2070 N2067 0.984 . S
H2071 N2067 0.985 . S
H2072 N2066 0.984 . S
H2073 N2066 0.984 . S
H2074 N2062 0.984 . S
H2075 N2062 0.985 . S
C2076 C2077 1.363 . S
C2076 C2082 1.379 . S
C2076 N2084 1.356 . S
C2077 C2076 1.363 . S
C2077 C2083 1.363 . S
C2078 C2079 1.363 . S
C2078 C2083 1.379 . S
C2078 N2085 1.356 . S
C2079 C2078 1.363 . S
C2079 C2082 1.363 . S
N2080 C2082 1.356 . S
N2080 H2092 0.984 . S
N2080 H2093 0.985 . S
N2081 C2083 1.356 . S
N2081 H2086 0.984 . S
N2081 H2087 0.985 . S
C2082 C2076 1.379 . S
C2082 C2079 1.363 . S
C2082 N2080 1.356 . S
C2083 C2077 1.363 . S
C2083 C2078 1.379 . S
C2083 N2081 1.356 . S
N2084 C2076 1.356 . S
N2084 H2090 0.984 . S
N2084 H2091 0.984 . S
N2085 C2078 1.356 . S
N2085 H2088 0.984 . S
N2085 H2089 0.985 . S
H2086 N2081 0.984 . S
H2087 N2081 0.985 . S
H2088 N2085 0.984 . S
H2089 N2085 0.985 . S
H2090 N2084 0.984 . S
H2091 N2084 0.984 . S
H2092 N2080 0.984 . S
H2093 N2080 0.985 . S
C2094 C2095 1.363 . S
C2094 C2100 1.379 . S
C2094 N2102 1.356 . S
C2095 C2094 1.363 . S
C2095 C2101 1.363 . S
C2096 C2097 1.363 . S
C2096 C2101 1.379 . S
C2096 N2103 1.356 . S
C2097 C2096 1.363 . S
C2097 C2100 1.363 . S
N2098 C2100 1.356 . S
N2098 H2110 0.984 . S
N2098 H2111 0.985 . S
N2099 C2101 1.356 . S
N2099 H2104 0.984 . S
N2099 H2105 0.985 . S
C2100 C2094 1.379 . S
C2100 C2097 1.363 . S
C2100 N2098 1.356 . S
C2101 C2095 1.363 . S
C2101 C2096 1.379 . S
C2101 N2099 1.356 . S
N2102 C2094 1.356 . S
N2102 H2108 0.984 . S
N2102 H2109 0.984 . S
N2103 C2096 1.356 . S
N2103 H2106 0.984 . S
N2103 H2107 0.985 . S
H2104 N2099 0.984 . S
H2105 N2099 0.985 . S
H2106 N2103 0.984 . S
H2107 N2103 0.985 . S
H2108 N2102 0.984 . S
H2109 N2102 0.984 . S
H2110 N2098 0.984 . S
H2111 N2098 0.985 . S
C2112 C2113 1.363 . S
C2112 C2118 1.379 . S
C2112 N2120 1.356 . S
C2113 C2112 1.363 . S
C2113 C2119 1.363 . S
C2114 C2115 1.363 . S
C2114 C2119 1.379 . S
C2114 N2121 1.356 . S
C2115 C2114 1.363 . S
C2115 C2118 1.363 . S
N2116 C2118 1.356 . S
N2116 H2128 0.984 . S
N2116 H2129 0.985 . S
N2117 C2119 1.356 . S
N2117 H2122 0.984 . S
N2117 H2123 0.985 . S
C2118 C2112 1.379 . S
C2118 C2115 1.363 . S
C2118 N2116 1.356 . S
C2119 C2113 1.363 . S
C2119 C2114 1.379 . S
C2119 N2117 1.356 . S
N2120 C2112 1.356 . S
N2120 H2126 0.984 . S
N2120 H2127 0.984 . S
N2121 C2114 1.356 . S
N2121 H2124 0.984 . S
N2121 H2125 0.985 . S
H2122 N2117 0.984 . S
H2123 N2117 0.985 . S
H2124 N2121 0.984 . S
H2125 N2121 0.985 . S
H2126 N2120 0.984 . S
H2127 N2120 0.984 . S
H2128 N2116 0.984 . S
H2129 N2116 0.985 . S
C2130 C2131 1.363 . S
C2130 C2136 1.379 . S
C2130 N2138 1.356 . S
C2131 C2130 1.363 . S
C2131 C2137 1.350 1_545 S
C2132 C2133 1.363 1_565 S
C2132 C2137 1.380 . S
C2132 N2139 1.356 . S
C2133 C2132 1.363 1_545 S
C2133 C2136 1.363 . S
N2134 C2136 1.356 . S
N2134 H2146 0.984 . S
N2134 H2147 0.985 . S
N2135 C2137 1.365 . S
N2135 H2140 0.984 . S
N2135 H2141 0.985 . S
C2136 C2130 1.379 . S
C2136 C2133 1.363 . S
C2136 N2134 1.356 . S
C2137 C2131 1.350 1_565 S
C2137 C2132 1.380 . S
C2137 N2135 1.365 . S
N2138 C2130 1.356 . S
N2138 H2144 0.984 . S
N2138 H2145 0.984 . S
N2139 C2132 1.356 . S
N2139 H2142 0.984 . S
N2139 H2143 0.985 . S
H2140 N2135 0.984 . S
H2141 N2135 0.985 . S
H2142 N2139 0.984 . S
H2143 N2139 0.985 . S
H2144 N2138 0.984 . S
H2145 N2138 0.984 . S
H2146 N2134 0.984 . S
H2147 N2134 0.985 . S
C2148 C2149 1.363 . S
C2148 C2154 1.379 . S
C2148 N2156 1.356 . S
C2149 C2148 1.363 . S
C2149 C2155 1.363 . S
C2150 C2151 1.363 . S
C2150 C2155 1.379 . S
C2150 N2157 1.356 . S
C2151 C2150 1.363 . S
C2151 C2154 1.363 . S
N2152 C2154 1.356 . S
N2152 H2164 0.984 . S
N2152 H2165 0.985 . S
N2153 C2155 1.356 . S
N2153 H2158 0.984 . S
N2153 H2159 0.985 . S
C2154 C2148 1.379 . S
C2154 C2151 1.363 . S
C2154 N2152 1.356 . S
C2155 C2149 1.363 . S
C2155 C2150 1.379 . S
C2155 N2153 1.356 . S
N2156 C2148 1.356 . S
N2156 H2162 0.984 . S
N2156 H2163 0.984 . S
N2157 C2150 1.356 . S
N2157 H2160 0.984 . S
N2157 H2161 0.985 . S
H2158 N2153 0.984 . S
H2159 N2153 0.985 . S
H2160 N2157 0.984 . S
H2161 N2157 0.985 . S
H2162 N2156 0.984 . S
H2163 N2156 0.984 . S
H2164 N2152 0.984 . S
H2165 N2152 0.985 . S
C2166 C2167 1.363 . S
C2166 C2172 1.379 . S
C2166 N2174 1.356 . S
C2167 C2166 1.363 . S
C2167 C2173 1.363 . S
C2168 C2169 1.363 . S
C2168 C2173 1.379 . S
C2168 N2175 1.356 . S
C2169 C2168 1.363 . S
C2169 C2172 1.363 . S
N2170 C2172 1.356 . S
N2170 H2182 0.984 . S
N2170 H2183 0.985 . S
N2171 C2173 1.356 . S
N2171 H2176 0.984 . S
N2171 H2177 0.985 . S
C2172 C2166 1.379 . S
C2172 C2169 1.363 . S
C2172 N2170 1.356 . S
C2173 C2167 1.363 . S
C2173 C2168 1.379 . S
C2173 N2171 1.356 . S
N2174 C2166 1.356 . S
N2174 H2180 0.984 . S
N2174 H2181 0.984 . S
N2175 C2168 1.356 . S
N2175 H2178 0.984 . S
N2175 H2179 0.985 . S
H2176 N2171 0.984 . S
H2177 N2171 0.985 . S
H2178 N2175 0.984 . S
H2179 N2175 0.985 . S
H2180 N2174 0.984 . S
H2181 N2174 0.984 . S
H2182 N2170 0.984 . S
H2183 N2170 0.985 . S
C2184 C2185 1.363 . S
C2184 C2190 1.379 . S
C2184 N2192 1.356 . S
C2185 C2184 1.363 . S
C2185 C2191 1.363 . S
C2186 C2187 1.363 . S
C2186 C2191 1.379 . S
C2186 N2193 1.356 . S
C2187 C2186 1.363 . S
C2187 C2190 1.363 . S
N2188 C2190 1.356 . S
N2188 H2200 0.984 . S
N2188 H2201 0.985 . S
N2189 C2191 1.356 . S
N2189 H2194 0.984 . S
N2189 H2195 0.985 . S
C2190 C2184 1.379 . S
C2190 C2187 1.363 . S
C2190 N2188 1.356 . S
C2191 C2185 1.363 . S
C2191 C2186 1.379 . S
C2191 N2189 1.356 . S
N2192 C2184 1.356 . S
N2192 H2198 0.984 . S
N2192 H2199 0.984 . S
N2193 C2186 1.356 . S
N2193 H2196 0.984 . S
N2193 H2197 0.985 . S
H2194 N2189 0.984 . S
H2195 N2189 0.985 . S
H2196 N2193 0.984 . S
H2197 N2193 0.985 . S
H2198 N2192 0.984 . S
H2199 N2192 0.984 . S
H2200 N2188 0.984 . S
H2201 N2188 0.985 . S
C2202 C2203 1.363 . S
C2202 C2208 1.379 . S
C2202 N2210 1.356 1_545 S
C2203 C2202 1.363 . S
C2203 C2209 1.363 . S
C2204 C2205 1.363 . S
C2204 C2209 1.379 . S
C2204 N2211 1.356 . S
C2205 C2204 1.363 . S
C2205 C2208 1.363 . S
N2206 C2208 1.356 1_565 S
N2206 H2218 0.984 . S
N2206 H2219 0.985 . S
N2207 C2209 1.356 . S
N2207 H2212 0.984 . S
N2207 H2213 0.985 . S
C2208 C2202 1.379 . S
C2208 C2205 1.363 . S
C2208 N2206 1.356 1_545 S
C2209 C2203 1.363 . S
C2209 C2204 1.379 . S
C2209 N2207 1.356 . S
N2210 C2202 1.356 1_565 S
N2210 H2216 0.984 . S
N2210 H2217 0.984 . S
N2211 C2204 1.356 . S
N2211 H2214 0.984 . S
N2211 H2215 0.985 . S
H2212 N2207 0.984 . S
H2213 N2207 0.985 . S
H2214 N2211 0.984 . S
H2215 N2211 0.985 . S
H2216 N2210 0.984 . S
H2217 N2210 0.984 . S
H2218 N2206 0.984 . S
H2219 N2206 0.985 . S
C2220 C2221 1.363 . S
C2220 C2226 1.379 . S
C2220 N2228 1.356 . S
C2221 C2220 1.363 . S
C2221 C2227 1.363 . S
C2222 C2223 1.363 . S
C2222 C2227 1.379 . S
C2222 N2229 1.356 . S
C2223 C2222 1.363 . S
C2223 C2226 1.363 . S
N2224 C2226 1.356 . S
N2224 H2236 0.984 . S
N2224 H2237 0.985 . S
N2225 C2227 1.356 . S
N2225 H2230 0.984 . S
N2225 H2231 0.985 . S
C2226 C2220 1.379 . S
C2226 C2223 1.363 . S
C2226 N2224 1.356 . S
C2227 C2221 1.363 . S
C2227 C2222 1.379 . S
C2227 N2225 1.356 . S
N2228 C2220 1.356 . S
N2228 H2234 0.984 . S
N2228 H2235 0.984 . S
N2229 C2222 1.356 . S
N2229 H2232 0.984 . S
N2229 H2233 0.985 . S
H2230 N2225 0.984 . S
H2231 N2225 0.985 . S
H2232 N2229 0.984 . S
H2233 N2229 0.985 . S
H2234 N2228 0.984 . S
H2235 N2228 0.984 . S
H2236 N2224 0.984 . S
H2237 N2224 0.985 . S
C2238 C2239 1.363 . S
C2238 C2244 1.379 . S
C2238 N2246 1.356 . S
C2239 C2238 1.363 . S
C2239 C2245 1.363 . S
C2240 C2241 1.363 . S
C2240 C2245 1.379 . S
C2240 N2247 1.356 . S
C2241 C2240 1.363 . S
C2241 C2244 1.363 . S
N2242 C2244 1.356 . S
N2242 H2254 0.984 . S
N2242 H2255 0.985 . S
N2243 C2245 1.356 . S
N2243 H2248 0.984 . S
N2243 H2249 0.985 . S
C2244 C2238 1.379 . S
C2244 C2241 1.363 . S
C2244 N2242 1.356 . S
C2245 C2239 1.363 . S
C2245 C2240 1.379 . S
C2245 N2243 1.356 . S
N2246 C2238 1.356 . S
N2246 H2252 0.984 . S
N2246 H2253 0.984 . S
N2247 C2240 1.356 . S
N2247 H2250 0.984 . S
N2247 H2251 0.985 . S
H2248 N2243 0.984 . S
H2249 N2243 0.985 . S
H2250 N2247 0.984 . S
H2251 N2247 0.985 . S
H2252 N2246 0.984 . S
H2253 N2246 0.984 . S
H2254 N2242 0.984 . S
H2255 N2242 0.985 . S
C2256 C2257 1.363 . S
C2256 C2262 1.379 . S
C2256 N2264 1.356 . S
C2257 C2256 1.363 . S
C2257 C2263 1.363 . S
C2258 C2259 1.363 . S
C2258 C2263 1.379 . S
C2258 N2265 1.356 . S
C2259 C2258 1.363 . S
C2259 C2262 1.363 . S
N2260 C2262 1.356 . S
N2260 H2272 0.984 . S
N2260 H2273 0.985 . S
N2261 C2263 1.356 . S
N2261 H2266 0.984 . S
N2261 H2267 0.985 . S
C2262 C2256 1.379 . S
C2262 C2259 1.363 . S
C2262 N2260 1.356 . S
C2263 C2257 1.363 . S
C2263 C2258 1.379 . S
C2263 N2261 1.356 . S
N2264 C2256 1.356 . S
N2264 H2270 0.984 . S
N2264 H2271 0.984 . S
N2265 C2258 1.356 . S
N2265 H2268 0.984 . S
N2265 H2269 0.985 . S
H2266 N2261 0.984 . S
H2267 N2261 0.985 . S
H2268 N2265 0.984 . S
H2269 N2265 0.985 . S
H2270 N2264 0.984 . S
H2271 N2264 0.984 . S
H2272 N2260 0.984 . S
H2273 N2260 0.985 . S
C2274 C2275 1.363 . S
C2274 C2280 1.379 . S
C2274 N2282 1.356 . S
C2275 C2274 1.363 . S
C2275 C2281 1.363 . S
C2276 C2277 1.363 . S
C2276 C2281 1.379 . S
C2276 N2283 1.356 . S
C2277 C2276 1.363 . S
C2277 C2280 1.363 . S
N2278 C2280 1.356 . S
N2278 H2290 0.984 . S
N2278 H2291 0.985 . S
N2279 C2281 1.356 . S
N2279 H2284 0.980 1_556 S
N2279 H2285 0.985 1_556 S
C2280 C2274 1.379 . S
C2280 C2277 1.363 . S
C2280 N2278 1.356 . S
C2281 C2275 1.363 . S
C2281 C2276 1.379 . S
C2281 N2279 1.356 . S
N2282 C2274 1.356 . S
N2282 H2288 0.984 . S
N2282 H2289 0.984 . S
N2283 C2276 1.356 . S
N2283 H2286 0.984 . S
N2283 H2287 0.985 . S
H2284 N2279 0.980 1_554 S
H2285 N2279 0.985 1_554 S
H2286 N2283 0.984 . S
H2287 N2283 0.985 . S
H2288 N2282 0.984 . S
H2289 N2282 0.984 . S
H2290 N2278 0.984 . S
H2291 N2278 0.985 . S
C2292 C2293 1.363 . S
C2292 C2298 1.379 . S
C2292 N2300 1.356 . S
C2293 C2292 1.363 . S
C2293 C2299 1.363 . S
C2294 C2295 1.363 . S
C2294 C2299 1.379 . S
C2294 N2301 1.356 . S
C2295 C2294 1.363 . S
C2295 C2298 1.363 . S
N2296 C2298 1.356 . S
N2296 H2308 0.984 . S
N2296 H2309 0.985 . S
N2297 C2299 1.356 . S
N2297 H2302 0.984 . S
N2297 H2303 0.985 . S
C2298 C2292 1.379 . S
C2298 C2295 1.363 . S
C2298 N2296 1.356 . S
C2299 C2293 1.363 . S
C2299 C2294 1.379 . S
C2299 N2297 1.356 . S
N2300 C2292 1.356 . S
N2300 H2306 0.984 . S
N2300 H2307 0.984 . S
N2301 C2294 1.356 . S
N2301 H2304 0.984 . S
N2301 H2305 0.985 . S
H2302 N2297 0.984 . S
H2303 N2297 0.985 . S
H2304 N2301 0.984 . S
H2305 N2301 0.985 . S
H2306 N2300 0.984 . S
H2307 N2300 0.984 . S
H2308 N2296 0.984 . S
H2309 N2296 0.985 . S
C2310 C2311 1.363 . S
C2310 C2316 1.379 1_455 S
C2310 N2318 1.356 1_455 S
C2311 C2310 1.363 . S
C2311 C2317 1.363 . S
C2312 C2313 1.363 . S
C2312 C2317 1.379 . S
C2312 N2319 1.356 . S
C2313 C2312 1.363 . S
C2313 C2316 1.363 1_455 S
N2314 C2316 1.356 . S
N2314 H2326 0.984 . S
N2314 H2327 0.985 . S
N2315 C2317 1.356 . S
N2315 H2320 0.984 . S
N2315 H2321 0.985 . S
C2316 C2310 1.379 1_655 S
C2316 C2313 1.363 1_655 S
C2316 N2314 1.356 . S
C2317 C2311 1.363 . S
C2317 C2312 1.379 . S
C2317 N2315 1.356 . S
N2318 C2310 1.356 1_655 S
N2318 H2324 0.984 . S
N2318 H2325 0.984 . S
N2319 C2312 1.356 . S
N2319 H2322 0.984 . S
N2319 H2323 0.985 . S
H2320 N2315 0.984 . S
H2321 N2315 0.985 . S
H2322 N2319 0.984 . S
H2323 N2319 0.985 . S
H2324 N2318 0.984 . S
H2325 N2318 0.984 . S
H2326 N2314 0.984 . S
H2327 N2314 0.985 . S
C2328 C2329 1.363 . S
C2328 C2334 1.379 . S
C2328 N2336 1.356 . S
C2329 C2328 1.363 . S
C2329 C2335 1.363 . S
C2330 C2331 1.363 . S
C2330 C2335 1.379 . S
C2330 N2337 1.356 . S
C2331 C2330 1.363 . S
C2331 C2334 1.363 . S
N2332 C2334 1.356 . S
N2332 H2344 0.984 . S
N2332 H2345 0.985 . S
N2333 C2335 1.356 . S
N2333 H2338 0.984 . S
N2333 H2339 0.985 . S
C2334 C2328 1.379 . S
C2334 C2331 1.363 . S
C2334 N2332 1.356 . S
C2335 C2329 1.363 . S
C2335 C2330 1.379 . S
C2335 N2333 1.356 . S
N2336 C2328 1.356 . S
N2336 H2342 0.984 . S
N2336 H2343 0.984 . S
N2337 C2330 1.356 . S
N2337 H2340 0.984 . S
N2337 H2341 0.985 . S
H2338 N2333 0.984 . S
H2339 N2333 0.985 . S
H2340 N2337 0.984 . S
H2341 N2337 0.985 . S
H2342 N2336 0.984 . S
H2343 N2336 0.984 . S
H2344 N2332 0.984 . S
H2345 N2332 0.985 . S
C2346 C2347 1.363 . S
C2346 C2352 1.379 . S
C2346 N2354 1.356 . S
C2347 C2346 1.363 . S
C2347 C2353 1.363 . S
C2348 C2349 1.363 . S
C2348 C2353 1.379 . S
C2348 N2355 1.356 . S
C2349 C2348 1.363 . S
C2349 C2352 1.363 . S
N2350 C2352 1.356 . S
N2350 H2362 0.984 . S
N2350 H2363 0.985 . S
N2351 C2353 1.356 . S
N2351 H2356 0.984 . S
N2351 H2357 0.985 . S
C2352 C2346 1.379 . S
C2352 C2349 1.363 . S
C2352 N2350 1.356 . S
C2353 C2347 1.363 . S
C2353 C2348 1.379 . S
C2353 N2351 1.356 . S
N2354 C2346 1.356 . S
N2354 H2360 0.984 . S
N2354 H2361 0.984 . S
N2355 C2348 1.356 . S
N2355 H2358 0.984 . S
N2355 H2359 0.985 . S
H2356 N2351 0.984 . S
H2357 N2351 0.985 . S
H2358 N2355 0.984 . S
H2359 N2355 0.985 . S
H2360 N2354 0.984 . S
H2361 N2354 0.984 . S
H2362 N2350 0.984 . S
H2363 N2350 0.985 . S
C2364 C2365 1.363 . S
C2364 C2370 1.379 . S
C2364 N2372 1.356 . S
C2365 C2364 1.363 . S
C2365 C2371 1.363 . S
C2366 C2367 1.363 . S
C2366 C2371 1.379 . S
C2366 N2373 1.356 . S
C2367 C2366 1.363 . S
C2367 C2370 1.363 . S
N2368 C2370 1.356 . S
N2368 H2380 0.984 . S
N2368 H2381 0.985 . S
N2369 C2371 1.356 . S
N2369 H2374 0.984 . S
N2369 H2375 0.985 . S
C2370 C2364 1.379 . S
C2370 C2367 1.363 . S
C2370 N2368 1.356 . S
C2371 C2365 1.363 . S
C2371 C2366 1.379 . S
C2371 N2369 1.356 . S
N2372 C2364 1.356 . S
N2372 H2378 0.984 . S
N2372 H2379 0.984 . S
N2373 C2366 1.356 . S
N2373 H2376 0.984 . S
N2373 H2377 0.985 . S
H2374 N2369 0.984 . S
H2375 N2369 0.985 . S
H2376 N2373 0.984 . S
H2377 N2373 0.985 . S
H2378 N2372 0.984 . S
H2379 N2372 0.984 . S
H2380 N2368 0.984 . S
H2381 N2368 0.985 . S
C2382 C2383 1.363 . S
C2382 C2388 1.379 . S
C2382 N2390 1.356 . S
C2383 C2382 1.363 . S
C2383 C2389 1.363 . S
C2384 C2385 1.363 . S
C2384 C2389 1.379 . S
C2384 N2391 1.356 . S
C2385 C2384 1.363 . S
C2385 C2388 1.363 . S
N2386 C2388 1.356 . S
N2386 H2398 0.984 . S
N2386 H2399 0.985 . S
N2387 C2389 1.356 . S
N2387 H2392 0.984 . S
N2387 H2393 0.985 . S
C2388 C2382 1.379 . S
C2388 C2385 1.363 . S
C2388 N2386 1.356 . S
C2389 C2383 1.363 . S
C2389 C2384 1.379 . S
C2389 N2387 1.356 . S
N2390 C2382 1.356 . S
N2390 H2396 0.984 1_554 S
N2390 H2397 0.984 . S
N2391 C2384 1.356 . S
N2391 H2394 0.984 . S
N2391 H2395 0.985 . S
H2392 N2387 0.984 . S
H2393 N2387 0.985 . S
H2394 N2391 0.984 . S
H2395 N2391 0.985 . S
H2396 N2390 0.984 1_556 S
H2397 N2390 0.984 . S
H2398 N2386 0.984 . S
H2399 N2386 0.985 . S
C2400 C2401 1.363 . S
C2400 C2406 1.379 . S
C2400 N2408 1.356 . S
C2401 C2400 1.363 . S
C2401 C2407 1.363 . S
C2402 C2403 1.363 . S
C2402 C2407 1.379 . S
C2402 N2409 1.356 . S
C2403 C2402 1.363 . S
C2403 C2406 1.363 . S
N2404 C2406 1.356 . S
N2404 H2416 0.984 . S
N2404 H2417 0.985 . S
N2405 C2407 1.356 . S
N2405 H2410 0.984 . S
N2405 H2411 0.985 . S
C2406 C2400 1.379 . S
C2406 C2403 1.363 . S
C2406 N2404 1.356 . S
C2407 C2401 1.363 . S
C2407 C2402 1.379 . S
C2407 N2405 1.356 . S
N2408 C2400 1.356 . S
N2408 H2414 0.984 . S
N2408 H2415 0.984 . S
N2409 C2402 1.356 . S
N2409 H2412 0.984 . S
N2409 H2413 0.985 . S
H2410 N2405 0.984 . S
H2411 N2405 0.985 . S
H2412 N2409 0.984 . S
H2413 N2409 0.985 . S
H2414 N2408 0.984 . S
H2415 N2408 0.984 . S
H2416 N2404 0.984 . S
H2417 N2404 0.985 . S
C2418 C2419 1.363 . S
C2418 C2424 1.379 . S
C2418 N2426 1.356 . S
C2419 C2418 1.363 . S
C2419 C2425 1.363 . S
C2420 C2421 1.363 . S
C2420 C2425 1.379 . S
C2420 N2427 1.356 . S
C2421 C2420 1.363 . S
C2421 C2424 1.363 . S
N2422 C2424 1.356 . S
N2422 H2434 0.984 . S
N2422 H2435 0.985 . S
N2423 C2425 1.356 . S
N2423 H2428 0.984 . S
N2423 H2429 0.985 . S
C2424 C2418 1.379 . S
C2424 C2421 1.363 . S
C2424 N2422 1.356 . S
C2425 C2419 1.363 . S
C2425 C2420 1.379 . S
C2425 N2423 1.356 . S
N2426 C2418 1.356 . S
N2426 H2432 0.984 . S
N2426 H2433 0.984 . S
N2427 C2420 1.356 . S
N2427 H2430 0.984 . S
N2427 H2431 0.985 . S
H2428 N2423 0.984 . S
H2429 N2423 0.985 . S
H2430 N2427 0.984 . S
H2431 N2427 0.985 . S
H2432 N2426 0.984 . S
H2433 N2426 0.984 . S
H2434 N2422 0.984 . S
H2435 N2422 0.985 . S
C2436 C2437 1.363 . S
C2436 C2442 1.379 . S
C2436 N2444 1.356 . S
C2437 C2436 1.363 . S
C2437 C2443 1.363 . S
C2438 C2439 1.363 . S
C2438 C2443 1.379 . S
C2438 N2445 1.356 . S
C2439 C2438 1.363 . S
C2439 C2442 1.363 . S
N2440 C2442 1.356 . S
N2440 H2452 0.984 . S
N2440 H2453 0.985 . S
N2441 C2443 1.356 . S
N2441 H2446 0.984 . S
N2441 H2447 0.985 . S
C2442 C2436 1.379 . S
C2442 C2439 1.363 . S
C2442 N2440 1.356 . S
C2443 C2437 1.363 . S
C2443 C2438 1.379 . S
C2443 N2441 1.356 . S
N2444 C2436 1.356 . S
N2444 H2450 0.984 . S
N2444 H2451 0.984 . S
N2445 C2438 1.356 . S
N2445 H2448 0.984 . S
N2445 H2449 0.985 . S
H2446 N2441 0.984 . S
H2447 N2441 0.985 . S
H2448 N2445 0.984 . S
H2449 N2445 0.985 . S
H2450 N2444 0.984 . S
H2451 N2444 0.984 . S
H2452 N2440 0.984 . S
H2453 N2440 0.985 . S
C2454 C2455 1.363 . S
C2454 C2460 1.379 . S
C2454 N2462 1.356 . S
C2455 C2454 1.363 . S
C2455 C2461 1.363 . S
C2456 C2457 1.363 . S
C2456 C2461 1.379 . S
C2456 N2463 1.356 . S
C2457 C2456 1.363 . S
C2457 C2460 1.363 . S
N2458 C2460 1.356 . S
N2458 H2470 0.984 . S
N2458 H2471 0.985 . S
N2459 C2461 1.356 . S
N2459 H2464 0.984 . S
N2459 H2465 0.985 . S
C2460 C2454 1.379 . S
C2460 C2457 1.363 . S
C2460 N2458 1.356 . S
C2461 C2455 1.363 . S
C2461 C2456 1.379 . S
C2461 N2459 1.356 . S
N2462 C2454 1.356 . S
N2462 H2468 0.984 . S
N2462 H2469 0.984 . S
N2463 C2456 1.356 . S
N2463 H2466 0.984 . S
N2463 H2467 0.985 . S
H2464 N2459 0.984 . S
H2465 N2459 0.985 . S
H2466 N2463 0.984 . S
H2467 N2463 0.985 . S
H2468 N2462 0.984 . S
H2469 N2462 0.984 . S
H2470 N2458 0.984 . S
H2471 N2458 0.985 . S
C2472 C2473 1.377 . S
C2472 C2478 1.378 1_556 S
C2472 N2480 1.346 1_556 S
C2473 C2472 1.377 . S
C2473 C2479 1.363 . S
C2474 C2475 1.363 . S
C2474 C2479 1.379 . S
C2474 N2481 1.356 . S
C2475 C2474 1.363 . S
C2475 C2478 1.363 1_556 S
N2476 C2478 1.356 . S
N2476 H2488 0.984 . S
N2476 H2489 0.985 . S
N2477 C2479 1.356 . S
N2477 H2482 0.984 . S
N2477 H2483 0.985 . S
C2478 C2472 1.378 1_554 S
C2478 C2475 1.363 1_554 S
C2478 N2476 1.356 . S
C2479 C2473 1.363 . S
C2479 C2474 1.379 . S
C2479 N2477 1.356 . S
N2480 C2472 1.346 1_554 S
N2480 H2486 0.984 . S
N2480 H2487 0.984 . S
N2481 C2474 1.356 . S
N2481 H2484 0.984 . S
N2481 H2485 0.985 . S
H2482 N2477 0.984 . S
H2483 N2477 0.985 . S
H2484 N2481 0.984 . S
H2485 N2481 0.985 . S
H2486 N2480 0.984 . S
H2487 N2480 0.984 . S
H2488 N2476 0.984 . S
H2489 N2476 0.985 . S
C2490 C2491 1.363 . S
C2490 C2496 1.379 . S
C2490 N2498 1.356 . S
C2491 C2490 1.363 . S
C2491 C2497 1.363 . S
C2492 C2493 1.363 . S
C2492 C2497 1.379 . S
C2492 N2499 1.356 . S
C2493 C2492 1.363 . S
C2493 C2496 1.363 . S
N2494 C2496 1.356 . S
N2494 H2506 0.984 . S
N2494 H2507 0.985 . S
N2495 C2497 1.356 . S
N2495 H2500 0.984 . S
N2495 H2501 0.985 . S
C2496 C2490 1.379 . S
C2496 C2493 1.363 . S
C2496 N2494 1.356 . S
C2497 C2491 1.363 . S
C2497 C2492 1.379 . S
C2497 N2495 1.356 . S
N2498 C2490 1.356 . S
N2498 H2504 0.984 . S
N2498 H2505 0.984 . S
N2499 C2492 1.356 . S
N2499 H2502 0.984 . S
N2499 H2503 0.985 . S
H2500 N2495 0.984 . S
H2501 N2495 0.985 . S
H2502 N2499 0.984 . S
H2503 N2499 0.985 . S
H2504 N2498 0.984 . S
H2505 N2498 0.984 . S
H2506 N2494 0.984 . S
H2507 N2494 0.985 . S
C2508 C2509 1.363 . S
C2508 C2514 1.379 . S
C2508 N2516 1.356 . S
C2509 C2508 1.363 . S
C2509 C2515 1.339 1_554 S
C2510 C2511 1.363 1_556 S
C2510 C2515 1.381 . S
C2510 N2517 1.356 . S
C2511 C2510 1.363 1_554 S
C2511 C2514 1.363 . S
N2512 C2514 1.356 . S
N2512 H2524 0.984 . S
N2512 H2525 0.985 . S
N2513 C2515 1.374 . S
N2513 H2518 0.984 . S
N2513 H2519 0.985 . S
C2514 C2508 1.379 . S
C2514 C2511 1.363 . S
C2514 N2512 1.356 . S
C2515 C2509 1.339 1_556 S
C2515 C2510 1.381 . S
C2515 N2513 1.374 . S
N2516 C2508 1.356 . S
N2516 H2522 0.984 . S
N2516 H2523 0.984 . S
N2517 C2510 1.356 . S
N2517 H2520 0.984 . S
N2517 H2521 0.985 . S
H2518 N2513 0.984 . S
H2519 N2513 0.985 . S
H2520 N2517 0.984 . S
H2521 N2517 0.985 . S
H2522 N2516 0.984 . S
H2523 N2516 0.984 . S
H2524 N2512 0.984 . S
H2525 N2512 0.985 . S
C2526 C2527 1.363 . S
C2526 C2532 1.379 . S
C2526 N2534 1.356 . S
C2527 C2526 1.363 . S
C2527 C2533 1.385 . S
C2528 C2529 1.331 1_556 S
C2528 C2533 1.376 1_556 S
C2528 N2535 1.386 . S
C2529 C2528 1.331 1_554 S
C2529 C2532 1.363 . S
N2530 C2532 1.356 . S
N2530 H2542 0.984 . S
N2530 H2543 0.985 . S
N2531 C2533 1.342 1_556 S
N2531 H2536 0.984 . S
N2531 H2537 0.985 . S
C2532 C2526 1.379 . S
C2532 C2529 1.363 . S
C2532 N2530 1.356 . S
C2533 C2527 1.385 . S
C2533 C2528 1.376 1_554 S
C2533 N2531 1.342 1_554 S
N2534 C2526 1.356 . S
N2534 H2540 0.984 . S
N2534 H2541 0.984 . S
N2535 C2528 1.386 . S
N2535 H2538 0.984 . S
N2535 H2539 0.985 . S
H2536 N2531 0.984 . S
H2537 N2531 0.985 . S
H2538 N2535 0.984 . S
H2539 N2535 0.985 . S
H2540 N2534 0.984 . S
H2541 N2534 0.984 . S
H2542 N2530 0.984 . S
H2543 N2530 0.985 . S
C1683 C673 1.508 . S
C1681 C211 1.507 . S
C1701 C732 1.518 . S
C1699 C255 1.512 . S
C1717 C274 1.510 . S
C1719 C849 1.513 . S
C1737 C917 1.525 . S
C1735 C157 1.524 . S
C1755 C996 1.519 . S
C1753 C391 1.517 . S
C1773 C1121 1.523 . S
C1771 C484 1.520 . S
C1789 C450 1.508 . S
C1791 C1181 1.508 . S
C1809 C1289 1.526 . S
C1807 C352 1.522 . S
C1825 C430 1.508 . S
C1827 C1385 1.509 . S
C1845 C1445 1.531 . S
C1843 C367 1.530 . S
C1861 C411 1.525 . S
C1863 C1348 1.529 . S
C1881 C1465 1.521 . S
C1879 C469 1.519 . S
C1897 C294 1.505 . S
C1899 C1533 1.509 . S
C1915 C177 1.524 . S
C1917 C1524 1.525 . S
C1933 C196 1.510 . S
C1935 C1553 1.513 . S
C1951 C235 1.516 . S
C1953 C1561 1.520 . S
C1969 C133 1.513 . S
C1971 C945 1.513 . S
C1987 C567 1.504 . S
C1989 C908 1.508 . S
C2007 C644 1.520 . S
C2005 C601 1.518 . S
C2025 C741 1.514 . S
C2023 C328 1.513 . S
C2041 C172 1.518 . S
C2043 C1005 1.521 . S
C2061 C1297 1.512 . S
C2059 C445 1.510 . S
C2079 C1025 1.537 . S
C2077 C372 1.532 . S
C2097 C1209 1.513 . S
C2095 C489 1.512 . S
C2115 C1201 1.508 . S
C2113 C562 1.507 . S
C2131 C606 1.512 . S
C2133 C1269 1.518 . S
C2149 C313 1.510 . S
C2151 C1033 1.513 . S
C2169 C1084 1.525 . S
C2167 C508 1.524 . S
C2185 C118 1.517 . S
C2187 C829 1.519 . S
C2205 C937 1.523 . S
C2203 C16 1.520 . S
C2223 C653 1.508 . S
C2221 C60 1.508 . S
C2241 C769 1.526 . S
C2239 C79 1.522 . S
C2257 C40 1.508 . S
C2259 C1473 1.509 . S
C2275 C94 1.530 . S
C2277 C1357 1.531 . S
C2293 C138 1.525 . S
C2295 C1436 1.528 . S
C2311 C1 1.519 . S
C2313 C1377 1.521 . S
C2331 C1621 1.509 . S
C2329 C333 1.505 . S
C2349 C1612 1.525 . S
C2347 C528 1.524 . S
C2367 C1641 1.513 . S
C2365 C547 1.510 . S
C2383 C586 1.516 . S
C2385 C1649 1.521 . S
C2401 C406 1.513 . S
C2403 C1113 1.513 . S
C2421 C1093 1.508 . S
C2419 C216 1.504 . S
C2439 C1172 1.520 . S
C2437 C250 1.518 . S
C2457 C1260 1.514 . S
C2455 C289 1.513 . S
C2473 C523 1.518 . S
C2475 C820 1.521 . S
C2493 C761 1.512 . S
C2491 C55 1.510 . S
C2509 C99 1.532 . S
C2511 C857 1.537 . S
C2529 C681 1.513 . S
C2527 C21 1.512 . S
