# Generated by pormake.
# Topology anh, (6,3)-cn, num edge types: 1
# Building blocks:
#     Node 0, Type 0, BuildingBlock: NUHQIS_clean_sbu_0, # of connection points: 6
#     Node 1, Type 0, BuildingBlock: NUHQIS_clean_sbu_0, # of connection points: 6
#     Node 2, Type 0, BuildingBlock: NUHQIS_clean_sbu_0, # of connection points: 6
#     Node 3, Type 1, BuildingBlock: PAMTOO_clean_linker_0, # of connection points: 3
#     Node 4, Type 1, BuildingBlock: PAMTOO_clean_linker_0, # of connection points: 3
#     Node 5, Type 1, BuildingBlock: PAMTOO_clean_linker_0, # of connection points: 3
#     Node 6, Type 1, BuildingBlock: PAMTOO_clean_linker_0, # of connection points: 3
#     Node 7, Type 1, BuildingBlock: PAMTOO_clean_linker_0, # of connection points: 3
#     Node 8, Type 1, BuildingBlock: PAMTOO_clean_linker_0, # of connection points: 3
#     Edge 9, Type (0, 1), BuildingBlock: EZIPEK_clean_linker_0, # of connection points: 2
#     Edge 10, Type (0, 1), BuildingBlock: EZIPEK_clean_linker_0, # of connection points: 2
#     Edge 11, Type (0, 1), BuildingBlock: EZIPEK_clean_linker_0, # of connection points: 2
#     Edge 12, Type (0, 1), BuildingBlock: EZIPEK_clean_linker_0, # of connection points: 2
#     Edge 13, Type (0, 1), BuildingBlock: EZIPEK_clean_linker_0, # of connection points: 2
#     Edge 14, Type (0, 1), BuildingBlock: EZIPEK_clean_linker_0, # of connection points: 2
#     Edge 15, Type (0, 1), BuildingBlock: EZIPEK_clean_linker_0, # of connection points: 2
#     Edge 16, Type (0, 1), BuildingBlock: EZIPEK_clean_linker_0, # of connection points: 2
#     Edge 17, Type (0, 1), BuildingBlock: EZIPEK_clean_linker_0, # of connection points: 2
#     Edge 18, Type (0, 1), BuildingBlock: EZIPEK_clean_linker_0, # of connection points: 2
#     Edge 19, Type (0, 1), BuildingBlock: EZIPEK_clean_linker_0, # of connection points: 2
#     Edge 20, Type (0, 1), BuildingBlock: EZIPEK_clean_linker_0, # of connection points: 2
#     Edge 21, Type (0, 1), BuildingBlock: EZIPEK_clean_linker_0, # of connection points: 2
#     Edge 22, Type (0, 1), BuildingBlock: EZIPEK_clean_linker_0, # of connection points: 2
#     Edge 23, Type (0, 1), BuildingBlock: EZIPEK_clean_linker_0, # of connection points: 2
#     Edge 24, Type (0, 1), BuildingBlock: EZIPEK_clean_linker_0, # of connection points: 2
#     Edge 25, Type (0, 1), BuildingBlock: EZIPEK_clean_linker_0, # of connection points: 2
#     Edge 26, Type (0, 1), BuildingBlock: EZIPEK_clean_linker_0, # of connection points: 2
# Relax obj value: 0.379
# Max RMSD: 0.158
# Mean RMSD: 0.126
data_MOF--net-anh--node1-NUHQIS_clean_sbu_0--node2-PAMTOO_clean_linker_0--edge1-EZIPEK_clean_linker_0
_symmetry_space_group_name_H-M    P1
_symmetry_Int_Tables_number       1
_symmetry_cell_setting            triclinic
loop_
_symmetry_equiv_pos_as_xyz
'x, y, z'
_cell_length_a     22.317593
_cell_length_b     22.392617
_cell_length_c     36.438725
_cell_angle_alpha  86.599167
_cell_angle_beta   92.194929
_cell_angle_gamma 119.80429
loop_
_atom_site_label
_atom_site_type_symbol
_atom_site_fract_x
_atom_site_fract_y
_atom_site_fract_z
_atom_type_partial_charge
Tb0 Tb 0.28534 0.64605 0.16664 0.0
Eu1 Eu 0.20066 0.72772 0.14869 0.0
C2 C 0.21962 0.68461 0.23034 0.0
C3 C 1.11574 0.55657 0.16295 0.0
C4 C 0.37861 0.53745 0.19337 0.0
C5 C 0.37931 0.44289 0.22965 0.0
C6 C 0.35801 0.49203 0.22465 0.0
C7 C 0.42524 0.53688 0.1689 0.0
C8 C 0.44574 0.48749 0.17367 0.0
C9 C 0.42034 0.43824 0.20306 0.0
C10 C 0.34424 0.57779 0.18333 0.0
O11 O 0.26728 0.63674 0.10687 0.0
O12 O 0.22271 0.70858 0.09254 0.0
O13 O 0.31382 0.81379 0.15575 0.0
O14 O 0.3728 0.7546 0.16564 0.0
C15 C 0.24429 0.66722 0.08284 0.0
O16 O 1.1324 0.75277 0.11547 0.0
O17 O 0.18312 0.81057 0.16375 0.0
O18 O 1.17706 0.69009 0.20684 0.0
O19 O 0.27262 0.67992 0.21963 0.0
O20 O 1.1767 0.55981 0.16261 0.0
O21 O 1.11278 0.61452 0.15913 0.0
C22 C 0.37271 0.81386 0.16195 0.0
O23 O 0.29233 0.57164 0.20167 0.0
O24 O 0.36401 0.62359 0.15593 0.0
C25 C 1.06827 0.78479 0.15058 0.0
C26 C 0.92908 0.72276 0.16939 0.0
C27 C 0.9496 0.7461 0.133 0.0
C28 C 1.01886 0.7774 0.12369 0.0
C29 C 1.04875 0.76886 0.18776 0.0
C30 C 0.97924 0.73901 0.19721 0.0
C31 C 1.13556 0.79689 0.13846 0.0
H32 H 0.35985 0.40557 0.25265 0.0
H33 H 0.32235 0.49179 0.24408 0.0
H34 H 0.44218 0.57141 0.14468 0.0
H35 H 0.47791 0.48484 0.15301 0.0
H36 H 0.91144 0.73483 0.11125 0.0
H37 H 1.03298 0.79006 0.09499 0.0
H38 H 1.08607 0.77455 0.20914 0.0
H39 H 0.96406 0.72221 0.22551 0.0
Tb40 Tb 0.88374 0.16629 0.49131 0.0
Eu41 Eu 0.71682 1.08473 0.49143 0.0
C42 C 0.80371 0.13331 0.56496 0.0
C43 C 0.80542 1.00107 0.49717 0.0
C44 C 1.06033 0.31059 0.49852 0.0
C45 C 1.11228 0.41139 0.53592 0.0
C46 C 1.08454 0.34047 0.5328 0.0
C47 C 1.07168 0.35374 0.46691 0.0
C48 C 1.09919 0.42425 0.47008 0.0
C49 C 1.11602 0.45278 0.50475 0.0
C50 C 1.01397 0.23543 0.49689 0.0
O51 O 0.86032 0.17805 0.43337 0.0
O52 O 0.74138 1.11425 0.43125 0.0
O53 O 0.7408 0.1976 0.48658 0.0
O54 O 0.85862 0.25133 0.49688 0.0
C55 C 0.80128 0.15279 0.41521 0.0
O56 O 0.62287 0.99585 0.47183 0.0
O57 O 0.61669 1.05781 0.51354 0.0
O58 O 0.74805 0.12483 0.54769 0.0
O59 O 0.85208 0.12952 0.54783 0.0
O60 O 0.8591 1.05814 0.48372 0.0
O61 O 0.75059 1.00384 0.50735 0.0
C62 C 0.80049 0.25434 0.49251 0.0
O63 O 0.97283 0.20701 0.52462 0.0
O64 O 0.98105 0.21244 0.46605 0.0
C65 C 0.51601 0.99282 0.47737 0.0
C66 C 0.38293 0.96218 0.45414 0.0
C67 C 0.4343 1.03088 0.45862 0.0
C68 C 0.50073 1.04622 0.47028 0.0
C69 C 0.46494 0.92452 0.47183 0.0
C70 C 0.3988 0.90925 0.46031 0.0
C71 C 0.5827 1.00536 0.49286 0.0
H72 H 1.1255 0.43289 0.56283 0.0
H73 H 1.07718 0.30841 0.55756 0.0
H74 H 1.0547 0.33269 0.44004 0.0
H75 H 1.10242 0.45588 0.4457 0.0
H76 H 0.42248 1.07215 0.45388 0.0
H77 H 0.53951 1.09931 0.47441 0.0
H78 H 0.47584 0.88272 0.47725 0.0
H79 H 0.35963 0.85609 0.45677 0.0
Tb80 Tb 0.78184 0.68425 0.82464 0.0
Eu81 Eu 0.69125 0.52068 0.82065 0.0
C82 C 0.72453 0.59027 0.89581 0.0
C83 C 0.86118 0.59332 0.83152 0.0
C84 C 0.86085 0.8691 0.84755 0.0
C85 C 0.80886 0.91776 0.88431 0.0
C86 C 0.81633 0.86169 0.87589 0.0
C87 C 0.90122 0.93315 0.8297 0.0
C88 C 0.89252 0.9881 0.83735 0.0
C89 C 0.84381 0.97992 0.86335 0.0
C90 C 0.86132 0.81046 0.83288 0.0
O91 O 0.78654 0.669 0.76615 0.0
O92 O 0.69854 0.55771 0.76149 0.0
O93 O 0.61193 0.55701 0.82707 0.0
O94 O 0.67745 0.67469 0.81988 0.0
C95 C 0.74403 0.61699 0.74633 0.0
O96 O 0.66369 0.41793 0.80408 0.0
O97 O 0.59274 0.43205 0.83643 0.0
O98 O 0.73013 0.5439 0.87859 0.0
O99 O 0.72794 0.64344 0.87697 0.0
O100 O 0.86129 0.6524 0.83141 0.0
O101 O 0.802 0.53532 0.82655 0.0
C102 C 0.61635 0.61821 0.82428 0.0
O103 O 0.85681 0.76234 0.85645 0.0
O104 O 0.82259 0.78575 0.80376 0.0
C105 C 0.59897 0.33225 0.84886 0.0
C106 C 0.62253 0.23049 0.8809 0.0
C107 C 0.56309 0.2118 0.85853 0.0
C108 C 0.55379 0.26369 0.84083 0.0
C109 C 0.64268 0.34687 0.87964 0.0
C110 C 0.65024 0.2944 0.89764 0.0
C111 C 0.60677 0.38794 0.82311 0.0
H112 H 0.77213 0.9111 0.90497 0.0
H113 H 0.78497 0.81214 0.89 0.0
H114 H 0.93606 0.93947 0.80797 0.0
H115 H 0.92024 1.03571 0.82091 0.0
H116 H 0.53307 0.16036 0.84863 0.0
H117 H 0.51649 0.25103 0.81854 0.0
H118 H 0.67621 0.39944 0.88729 0.0
H119 H 0.68963 0.309 0.91885 0.0
H120 H 0.89586 0.31125 0.25593 0.0
H121 H 0.71199 1.1142 0.24906 0.0
H122 H 0.80367 0.23649 0.14958 0.0
H123 H 0.62385 0.12952 0.14953 0.0
C124 C 0.62695 1.09987 0.17435 0.0
O125 O 0.69602 1.11392 0.17833 0.0
H126 H 0.61771 0.12207 0.19849 0.0
C127 C 0.85563 0.27294 0.23903 0.0
C128 C 0.85845 0.28412 0.20032 0.0
C129 C 0.80376 0.21207 0.25648 0.0
C130 C 0.75121 0.16112 0.2354 0.0
C131 C 0.74831 0.16886 0.197 0.0
C132 C 0.80311 0.23081 0.17928 0.0
H133 H 0.77867 0.75269 0.58321 0.0
H134 H 0.79682 0.57143 0.58091 0.0
H135 H 0.81696 0.69058 0.48134 0.0
H136 H 0.74741 0.50938 0.47469 0.0
C137 C 0.76824 0.50617 0.50243 0.0
O138 O 0.81709 0.57414 0.51231 0.0
H139 H 0.72193 0.48608 0.52 0.0
C140 C 0.78063 0.71377 0.568 0.0
C141 C 0.79641 0.72959 0.53031 0.0
C142 C 0.76974 0.65127 0.58622 0.0
C143 C 0.78917 0.61057 0.56673 0.0
C144 C 0.80191 0.61996 0.5288 0.0
C145 C 0.80494 0.68037 0.51031 0.0
H146 H 1.10502 0.6079 0.92575 0.0
H147 H 0.30862 0.63705 0.91703 0.0
H148 H 0.18445 0.60928 0.8188 0.0
H149 H 0.30132 0.53338 0.83764 0.0
C150 C 0.33725 0.58249 0.85054 0.0
O151 O 0.30952 0.62736 0.84604 0.0
H152 H 0.3356 0.56654 0.88014 0.0
C153 C 1.14503 0.611 0.90846 0.0
C154 C 1.13459 0.6077 0.86988 0.0
C155 C 0.20753 0.62247 0.92523 0.0
C156 C 0.26069 0.62741 0.90367 0.0
C157 C 0.25324 0.61981 0.86548 0.0
C158 C 0.18971 0.61095 0.84842 0.0
H159 H 1.16205 0.6353 0.40354 0.0
H160 H 1.10184 0.77496 0.35189 0.0
H161 H 1.07855 0.73057 0.46859 0.0
H162 H 1.0689 0.88241 0.43775 0.0
C163 C 1.09441 0.86937 0.41663 0.0
O164 O 1.05844 0.79862 0.41259 0.0
H165 H 1.08629 0.89574 0.39197 0.0
C166 C 1.14194 0.6702 0.40575 0.0
C167 C 1.12027 0.67801 0.43988 0.0
C168 C 1.13721 0.7064 0.37429 0.0
C169 C 1.10815 0.74897 0.3765 0.0
C170 C 1.08725 0.75801 0.41052 0.0
C171 C 1.09497 0.72385 0.44233 0.0
H172 H 0.83529 1.11954 0.7392 0.0
H173 H 0.83357 0.30527 0.70262 0.0
H174 H 0.86588 0.26926 0.8167 0.0
H175 H 0.74856 0.33659 0.75878 0.0
C176 C 0.78431 0.34342 0.78217 0.0
O177 O 0.84489 0.34903 0.76969 0.0
H178 H 0.79606 0.39346 0.79288 0.0
C179 C 0.84122 0.16915 0.74502 0.0
C180 C 0.84941 0.18916 0.7815 0.0
C181 C 0.83717 0.21163 0.71626 0.0
C182 C 0.8399 0.27358 0.72433 0.0
C183 C 0.84951 0.29381 0.7607 0.0
C184 C 0.85809 0.25337 0.78868 0.0
H185 H 0.74909 0.60141 0.07243 0.0
H186 H 0.54872 0.44062 0.0386 0.0
H187 H 0.59567 0.47782 0.15298 0.0
H188 H 0.56041 0.338 0.11898 0.0
C189 C 0.50762 0.33149 0.11864 0.0
O190 O 0.50815 0.3912 0.10546 0.0
H191 H 0.47718 0.29009 0.0994 0.0
C192 C 0.6971 0.56082 0.07899 0.0
C193 C 0.67677 0.54437 0.11582 0.0
C194 C 0.65035 0.52613 0.05061 0.0
C195 C 0.58486 0.47021 0.0599 0.0
C196 C 0.56673 0.45035 0.09674 0.0
C197 C 0.6107 0.49066 0.12454 0.0
C198 C 0.38161 0.32139 0.18172 0.0
C199 C 0.43051 0.37796 0.20188 0.0
C200 C 0.51986 0.35183 0.18596 0.0
C201 C 0.47675 0.314 0.15674 0.0
N202 N 0.36023 0.23708 0.13748 0.0
N203 N 0.54211 0.43716 0.23075 0.0
C204 C 0.40519 0.28883 0.15898 0.0
C205 C 0.498 0.38825 0.20752 0.0
N206 N 0.31325 0.3014 0.1813 0.0
N207 N 0.58224 0.35528 0.19134 0.0
H208 H 0.52534 0.46283 0.24698 0.0
H209 H 0.59447 0.45298 0.23329 0.0
H210 H 0.59692 0.32719 0.17568 0.0
H211 H 0.61587 0.38041 0.21288 0.0
H212 H 0.29184 0.32307 0.1973 0.0
H213 H 0.29184 0.32307 0.1973 0.0
H214 H 0.30714 0.21898 0.13734 0.0
H215 H 0.37643 0.21052 0.12161 0.0
C216 C 0.18864 0.58024 0.49601 0.0
C217 C 1.12578 0.52264 0.50758 0.0
C218 C 1.06193 0.58124 0.48802 0.0
C219 C 1.1235 0.63556 0.47203 0.0
N220 N 0.24764 0.6997 0.47305 0.0
N221 N 1.01054 0.47933 0.52929 0.0
C222 C 0.18795 0.63971 0.48076 0.0
C223 C 1.06545 0.52789 0.50927 0.0
N224 N 0.2475 0.57581 0.49743 0.0
N225 N 0.99951 0.57669 0.4802 0.0
H226 H 1.01222 0.43917 0.54443 0.0
H227 H 0.96666 0.48274 0.53406 0.0
H228 H 0.99309 0.61239 0.4635 0.0
H229 H 0.95286 0.53497 0.48876 0.0
H230 H 0.2939 0.61296 0.48565 0.0
H231 H 0.24858 0.53305 0.5098 0.0
H232 H 0.29649 0.70767 0.48052 0.0
H233 H 0.24721 0.7436 0.46197 0.0
C234 C 0.87813 1.10082 0.86743 0.0
C235 C 0.82361 1.0335 0.86244 0.0
C236 C 0.77293 1.07769 0.81568 0.0
C237 C 0.83801 0.13909 0.81261 0.0
N238 N 0.95316 0.21111 0.83696 0.0
N239 N 0.71026 0.95851 0.83817 0.0
C240 C 0.89029 0.15247 0.83964 0.0
C241 C 0.76697 1.02269 0.83943 0.0
N242 N 0.92134 1.11244 0.89691 0.0
N243 N 0.71728 1.07227 0.79598 0.0
H244 H 0.70215 0.91891 0.85732 0.0
H245 H 0.67187 0.9441 0.81799 0.0
H246 H 0.71964 1.11257 0.77917 0.0
H247 H 0.66751 1.03057 0.79875 0.0
H248 H 0.96038 0.1613 0.90369 0.0
H249 H 0.91286 1.07271 0.91626 0.0
H250 H 0.99486 0.22019 0.8542 0.0
H251 H 0.96569 0.24844 0.81568 0.0
C252 C 0.83456 0.60092 0.17489 0.0
C253 C 0.85543 0.67197 0.17561 0.0
C254 C 0.74342 0.65036 0.15136 0.0
C255 C 0.72739 0.58219 0.14491 0.0
N256 N 0.74438 0.48563 0.1608 0.0
N257 N 0.82464 0.7599 0.17755 0.0
C258 C 0.76816 0.55489 0.16072 0.0
C259 C 0.80719 0.69476 0.16876 0.0
N260 N 0.8805 0.5789 0.18439 0.0
N261 N 0.69935 0.67304 0.1389 0.0
H262 H 0.87184 0.79213 0.19027 0.0
H263 H 0.79133 0.77988 0.17498 0.0
H264 H 0.65117 0.64016 0.12736 0.0
H265 H 0.71051 0.72396 0.13935 0.0
H266 H 0.87216 0.52991 0.17994 0.0
H267 H 0.92842 0.61025 0.19639 0.0
H268 H 0.768 0.46136 0.1753 0.0
H269 H 0.69755 0.45118 0.14874 0.0
C270 C 0.29024 0.93772 0.40682 0.0
C271 C 0.31128 0.94441 0.44418 0.0
C272 C 0.19182 0.89741 0.46357 0.0
C273 C 1.17095 0.89719 0.42607 0.0
N274 N 0.20188 0.91998 0.36144 0.0
N275 N 0.28561 0.94132 0.50809 0.0
C276 C 0.22064 0.91836 0.39751 0.0
C277 C 0.26312 0.9278 0.4725 0.0
N278 N 0.33638 0.94731 0.38028 0.0
N279 N 1.14373 0.8652 0.49067 0.0
H280 H 0.33731 0.96167 0.51594 0.0
H281 H 0.25406 0.93804 0.52935 0.0
H282 H 1.09062 0.83958 0.486 0.0
H283 H 1.15626 0.85689 0.51759 0.0
H284 H 0.32258 0.93423 0.3531 0.0
H285 H 0.38842 0.96414 0.3859 0.0
H286 H 0.23733 0.9447 0.34035 0.0
H287 H 1.15119 0.89918 0.35203 0.0
C288 C 0.74188 0.25211 0.87805 0.0
C289 C 0.67159 0.20553 0.87133 0.0
C290 C 0.69423 0.22094 0.80598 0.0
C291 C 0.75145 0.28767 0.81293 0.0
N292 N 0.84212 0.35615 0.85663 0.0
N293 N 0.60987 1.10905 0.83389 0.0
C294 C 0.77998 0.29986 0.84929 0.0
C295 C 0.65908 0.17625 0.83681 0.0
N296 N 0.76918 0.25744 0.9124 0.0
N297 N 0.67276 0.20127 0.77097 0.0
H298 H 0.58396 1.07908 0.85725 0.0
H299 H 0.5975 1.0834 0.80946 0.0
H300 H 0.70034 0.22974 0.74781 0.0
H301 H 0.6274 0.15621 0.76499 0.0
H302 H 0.74054 0.22456 0.93435 0.0
H303 H 0.74054 0.22456 0.93435 0.0
H304 H 0.86263 0.36594 0.88326 0.0
H305 H 0.87285 0.39189 0.83625 0.0
C306 C 0.75116 0.86903 0.48822 0.0
C307 C 0.80657 0.9318 0.50179 0.0
C308 C 0.86303 0.863 0.52393 0.0
C309 C 0.80398 0.79931 0.5145 0.0
N310 N 0.68788 0.74305 0.49068 0.0
N311 N 0.91152 0.98374 0.53791 0.0
C312 C 0.74722 0.80307 0.49731 0.0
C313 C 0.86182 0.92737 0.52069 0.0
N314 N 0.70305 0.87242 0.46522 0.0
N315 N 0.92127 0.86209 0.53598 0.0
H316 H 0.91185 1.03047 0.53746 0.0
H317 H 0.94866 0.98248 0.55561 0.0
H318 H 0.92377 0.81671 0.5387 0.0
H319 H 0.96863 0.90645 0.53973 0.0
H320 H 0.66551 0.83053 0.45125 0.0
H321 H 0.70486 0.91876 0.45718 0.0
H322 H 0.64153 0.74084 0.48273 0.0
H323 H 0.684 0.69484 0.49541 0.0
C324 C 0.95335 0.55446 0.8211 0.0
C325 C 0.93119 0.59478 0.8397 0.0
C326 C 1.04964 0.65474 0.86749 0.0
C327 C 1.06756 0.60664 0.85458 0.0
N328 N 1.02752 0.50277 0.82186 0.0
N329 N 0.95826 0.67127 0.88955 0.0
C330 C 1.01682 0.55433 0.83203 0.0
C331 C 0.97959 0.64163 0.86528 0.0
N332 N 0.91602 0.51871 0.79165 0.0
N333 N 1.10019 0.71471 0.88139 0.0
H334 H 0.90679 0.65842 0.89201 0.0
H335 H 0.98999 0.70127 0.9106 0.0
H336 H 1.15219 0.72821 0.8817 0.0
H337 H 1.09135 0.75419 0.88831 0.0
H338 H 0.93281 0.49411 0.77477 0.0
H339 H 0.87208 0.51983 0.78186 0.0
H340 H 0.9901 0.45988 0.80844 0.0
H341 H 1.07168 0.50022 0.82952 0.0
C342 C 0.4409 0.93647 0.18689 0.0
C343 C 0.44065 0.88422 0.16626 0.0
C344 C 0.56655 0.96825 0.15357 0.0
C345 C 0.56437 1.02226 0.17195 0.0
N346 N 0.4847 1.05822 0.19168 0.0
N347 N 0.50353 0.85784 0.12389 0.0
C348 C 0.49738 1.00626 0.18447 0.0
C349 C 0.50398 0.90204 0.14832 0.0
N350 N 0.38741 0.91993 0.20989 0.0
N351 N 0.62773 0.97994 0.13998 0.0
H352 H 0.45957 0.81133 0.11817 0.0
H353 H 0.5445 0.86992 0.10662 0.0
H354 H 0.67162 1.02831 0.13831 0.0
H355 H 0.63566 0.94082 0.13151 0.0
H356 H 0.38854 0.95416 0.22848 0.0
H357 H 0.34575 0.87024 0.21349 0.0
H358 H 0.43547 1.04937 0.19745 0.0
H359 H 0.5198 1.11032 0.18681 0.0
C360 C 0.82922 0.3784 0.46897 0.0
C361 C 0.80133 0.32369 0.49664 0.0
C362 C 0.77542 0.40001 0.53285 0.0
C363 C 0.79273 0.44993 0.50286 0.0
N364 N 0.83909 0.48558 0.44189 0.0
N365 N 0.745 0.28358 0.55514 0.0
C366 C 0.82089 0.4387 0.47093 0.0
C367 C 0.77386 0.33525 0.52858 0.0
N368 N 0.86481 0.37331 0.44079 0.0
N369 N 0.76238 0.41535 0.56626 0.0
H370 H 0.74649 0.23793 0.55445 0.0
H371 H 0.71578 0.28397 0.57663 0.0
H372 H 0.76552 0.46222 0.57074 0.0
H373 H 0.75634 0.38555 0.59034 0.0
H374 H 0.8932 0.41345 0.42178 0.0
H375 H 0.87027 0.33017 0.43801 0.0
H376 H 0.85075 0.47726 0.41597 0.0
H377 H 0.84121 0.53292 0.44365 0.0
C378 C 0.4961 0.59375 0.79969 0.0
C379 C 0.54928 0.62218 0.82709 0.0
C380 C 0.47124 0.64892 0.86169 0.0
C381 C 0.41437 0.61049 0.83761 0.0
N382 N 0.37704 0.55646 0.77975 0.0
N383 N 0.58576 0.67661 0.88503 0.0
C384 C 0.42862 0.58653 0.80527 0.0
C385 C 0.53654 0.65068 0.85798 0.0
N386 N 0.51109 0.57545 0.76761 0.0
N387 N 0.46314 0.68534 0.8879 0.0
H388 H 0.63407 0.6806 0.88308 0.0
H389 H 0.57748 0.69017 0.9104 0.0
H390 H 0.41758 0.68692 0.89021 0.0
H391 H 0.5032 0.7197 0.9044 0.0
H392 H 0.47813 0.55908 0.74493 0.0
H393 H 0.55939 0.58103 0.7626 0.0
H394 H 0.37858 0.52929 0.75799 0.0
H395 H 0.33178 0.55921 0.78036 0.0
C396 C 1.05002 0.43107 0.19278 0.0
C397 C 1.04884 0.48462 0.16949 0.0
C398 C 0.92033 0.40447 0.1634 0.0
C399 C 0.92344 0.35002 0.18443 0.0
N400 N 0.99868 0.30824 0.20786 0.0
N401 N 0.98084 0.51019 0.12489 0.0
C402 C 0.9907 0.36261 0.19535 0.0
C403 C 0.98323 0.4677 0.15263 0.0
N404 N 1.10603 0.44555 0.21488 0.0
N405 N 0.85718 0.39701 0.15432 0.0
H406 H 1.02488 0.5534 0.11451 0.0
H407 H 0.93659 0.49826 0.10924 0.0
H408 H 0.81111 0.35278 0.16164 0.0
H409 H 0.85043 0.43626 0.14177 0.0
H410 H 1.10643 0.4104 0.23482 0.0
H411 H 1.14848 0.49455 0.2171 0.0
H412 H 1.0469 0.3124 0.21279 0.0
H413 H 0.95769 0.25764 0.20901 0.0
C414 C 0.19469 0.58683 0.02997 0.0
C415 C 0.24022 0.65371 0.04275 0.0
C416 C 0.26092 0.70047 0.97864 0.0
C417 C 0.21908 0.633 0.96581 0.0
N418 N 1.1561 0.51044 0.97899 0.0
N419 N 0.32707 0.77154 0.02914 0.0
C420 C 0.18901 0.57571 -0.00855 0.0
C421 C 0.27635 0.70975 0.01698 0.0
N422 N 1.15399 0.53458 0.0544 0.0
N423 N 0.28398 0.75609 0.9543 0.0
H424 H 0.34049 0.77977 0.05687 0.0
H425 H 0.36022 0.81241 0.01166 0.0
H426 H 0.27395 0.75154 0.9261 0.0
H427 H 0.30804 0.8068 0.9623 0.0
H428 H 1.11408 0.48704 0.04647 0.0
H429 H 1.15619 0.54034 0.08268 0.0
H430 H 1.13977 0.46644 -0.00379 0.0
H431 H 1.15014 0.50038 0.9511 0.0
C432 C 0.77469 0.21036 0.35998 0.0
C433 C 0.80263 0.1689 0.37459 0.0
C434 C 0.83879 0.16334 0.31233 0.0
C435 C 0.80562 0.19967 0.2974 0.0
N436 N 0.73559 0.25169 0.30619 0.0
N437 N 0.85271 1.09775 0.36421 0.0
C438 C 0.77183 0.22153 0.32105 0.0
C439 C 0.83272 0.14348 0.35062 0.0
N440 N 0.75328 0.24134 0.3834 0.0
N441 N 0.87715 0.14877 0.28992 0.0
H442 H 0.84876 1.08168 0.39191 0.0
H443 H 0.86781 1.07121 0.34775 0.0
H444 H 0.88142 0.16093 0.26171 0.0
H445 H 0.90903 0.12951 0.29956 0.0
H446 H 0.74006 0.27854 0.37493 0.0
H447 H 0.75396 0.23401 0.41189 0.0
H448 H 0.70308 0.26156 0.32132 0.0
H449 H 0.73432 0.26281 0.27805 0.0
C450 C 0.75297 0.57546 0.685 0.0
C451 C 0.74664 0.62436 0.70517 0.0
C452 C 0.72575 0.67255 0.64661 0.0
C453 C 0.7463 0.63296 0.62666 0.0
N454 N 0.71493 0.51302 0.62971 0.0
N455 N 0.72355 0.71912 0.7046 0.0
C456 C 0.74223 0.57428 0.64633 0.0
C457 C 0.73239 0.67312 0.68581 0.0
N458 N 0.77036 0.53042 0.7024 0.0
N459 N 0.68771 0.69836 0.62913 0.0
H460 H 0.72212 0.71805 0.73319 0.0
H461 H 0.72142 0.76077 0.69158 0.0
H462 H 0.66954 0.6861 0.60225 0.0
H463 H 0.66541 0.72215 0.64259 0.0
H464 H 0.78068 0.49769 0.68797 0.0
H465 H 0.78095 0.53053 0.73054 0.0
H466 H 0.70544 0.46726 0.64378 0.0
H467 H 0.69185 0.50644 0.60367 0.0
C468 C 0.87294 0.21265 0.6151 0.0
C469 C 0.81355 0.15118 0.60413 0.0
C470 C 0.76587 0.13371 0.66584 0.0
C471 C 0.82872 0.19045 0.6777 0.0
N472 N 0.94756 0.27518 0.6654 0.0
N473 N 0.70916 1.04621 0.62097 0.0
C474 C 0.88399 0.2272 0.65287 0.0
C475 C 0.76153 1.10961 0.63007 0.0
N476 N 0.91666 0.25957 0.58941 0.0
N477 N 0.70958 1.10451 0.68817 0.0
H478 H 0.70536 1.02604 0.59535 0.0
H479 H 0.67356 1.01098 0.63992 0.0
H480 H 0.71036 0.12209 0.71412 0.0
H481 H 0.66054 1.06755 0.67956 0.0
H482 H 0.9566 0.30826 0.59583 0.0
H483 H 0.90857 0.25325 0.56129 0.0
H484 H 0.9914 0.29811 0.64902 0.0
H485 H 0.95796 0.2873 0.69297 0.0
C486 C 0.72663 0.63075 0.96028 0.0
C487 C 0.70515 0.5768 0.93553 0.0
C488 C 0.65995 0.49289 0.98737 0.0
C489 C 0.6712 0.54514 0.01127 0.0
N490 N 0.70501 0.66631 0.01625 0.0
N491 N 0.6221 0.45706 0.92635 0.0
C492 C 0.70113 0.61452 -0.0033 0.0
C493 C 0.66364 0.50782 0.94922 0.0
N494 N 0.77105 0.69768 0.94969 0.0
N495 N 0.64723 0.42939 0.00063 0.0
H496 H 0.61423 0.46805 0.89908 0.0
H497 H 0.58787 0.40689 0.93598 0.0
H498 H 0.64961 0.41755 0.02858 0.0
H499 H 0.64277 0.39181 0.98334 0.0
H500 H 0.78647 0.73781 0.96748 0.0
H501 H 0.79671 0.71232 0.9247 0.0
H502 H 0.68342 0.65921 0.04214 0.0
H503 H 0.68342 0.65921 0.04214 0.0
C504 C 1.13749 0.63465 0.28252 0.0
C505 C 0.20485 0.68292 0.26988 0.0
C506 C 0.23125 0.7396 0.32866 0.0
C507 C 1.16102 0.69748 0.33872 0.0
N508 N 1.04576 0.60676 0.32533 0.0
N509 N 0.31605 0.78327 0.28014 0.0
C510 C 1.11376 0.64522 0.31576 0.0
C511 C 0.2523 0.73536 0.29295 0.0
N512 N 1.09692 0.57755 0.26302 0.0
N513 N 0.27784 0.7832 0.35342 0.0
H514 H 0.33482 0.78035 0.255 0.0
H515 H 0.34924 0.82804 0.29352 0.0
H516 H 0.26382 0.78947 0.37929 0.0
H517 H 0.331 0.80963 0.34947 0.0
H518 H 1.05015 0.53667 0.27235 0.0
H519 H 1.11343 0.56795 0.23889 0.0
H520 H 1.00708 0.57366 0.30773 0.0
H521 H 1.02683 0.61121 0.35015 0.0
loop_
_geom_bond_atom_site_label_1
_geom_bond_atom_site_label_2
_geom_bond_distance
_geom_bond_site_symmetry_2
_ccdc_geom_bond_type
Tb0 C10 2.825 . S
Tb0 O11 2.347 . S
Tb0 O14 2.366 . S
Tb0 O19 2.418 . S
Tb0 O20 2.384 1_455 S
Tb0 O23 2.479 . S
Tb0 O24 2.471 . S
Eu1 O12 2.418 . S
Eu1 O13 2.384 1_655 S
Eu1 O16 2.479 . S
Eu1 O17 2.471 . S
Eu1 O18 2.347 1_655 S
Eu1 O21 2.366 . S
Eu1 C31 2.825 . S
C2 O18 1.259 . S
C2 O19 1.265 . S
C3 O20 1.255 . S
C3 O21 1.265 . S
C4 C6 1.380 . S
C4 C7 1.374 . S
C4 C10 1.507 . S
C5 C6 1.384 . S
C5 C9 1.387 . S
C5 H32 0.930 . S
C6 C4 1.380 . S
C6 C5 1.384 . S
C6 H33 0.931 . S
C7 C4 1.374 . S
C7 C8 1.390 . S
C7 H34 0.930 . S
C8 C7 1.390 . S
C8 C9 1.391 . S
C8 H35 0.930 . S
C9 C5 1.387 . S
C9 C8 1.391 . S
C10 Tb0 2.825 . S
C10 C4 1.507 . S
C10 O23 1.238 . S
C10 O24 1.247 . S
O11 Tb0 2.347 . S
O11 C15 1.259 . S
O12 Eu1 2.418 . S
O12 C15 1.265 1_655 S
O13 Eu1 2.384 1_455 S
O13 C22 1.255 . S
O14 Tb0 2.366 . S
O14 C22 1.265 . S
C15 O11 1.259 . S
C15 O12 1.265 1_455 S
O16 Eu1 2.479 . S
O16 C31 1.238 . S
O17 Eu1 2.471 . S
O17 C31 1.247 . S
O18 Eu1 2.347 1_455 S
O18 C2 1.259 . S
O19 Tb0 2.418 . S
O19 C2 1.265 . S
O20 Tb0 2.384 1_655 S
O20 C3 1.255 . S
O21 Eu1 2.366 . S
O21 C3 1.265 . S
C22 O13 1.255 . S
C22 O14 1.265 . S
O23 Tb0 2.479 . S
O23 C10 1.238 . S
O24 Tb0 2.471 . S
O24 C10 1.247 . S
C25 C28 1.380 . S
C25 C29 1.374 . S
C25 C31 1.507 . S
C26 C27 1.387 . S
C26 C30 1.391 . S
C27 C26 1.387 . S
C27 C28 1.384 . S
C27 H36 0.930 . S
C28 C25 1.380 . S
C28 C27 1.384 . S
C28 H37 0.931 . S
C29 C25 1.374 . S
C29 C30 1.390 . S
C29 H38 0.930 . S
C30 C26 1.391 . S
C30 C29 1.390 . S
C30 H39 0.930 . S
C31 Eu1 2.825 . S
C31 O16 1.238 . S
C31 O17 1.247 . S
C31 C25 1.507 . S
H32 C5 0.930 . S
H33 C6 0.931 . S
H34 C7 0.930 . S
H35 C8 0.930 . S
H36 C27 0.930 . S
H37 C28 0.931 . S
H38 C29 0.930 . S
H39 C30 0.930 . S
Tb40 C50 2.825 . S
Tb40 O51 2.347 . S
Tb40 O54 2.366 . S
Tb40 O59 2.418 . S
Tb40 O60 2.384 1_545 S
Tb40 O63 2.479 . S
Tb40 O64 2.471 . S
Eu41 O52 2.418 1_565 S
Eu41 O53 2.384 1_565 S
Eu41 O56 2.479 . S
Eu41 O57 2.471 . S
Eu41 O58 2.347 1_565 S
Eu41 O61 2.366 . S
Eu41 C71 2.825 . S
C42 O58 1.259 . S
C42 O59 1.265 . S
C43 O60 1.255 . S
C43 O61 1.265 . S
C44 C46 1.380 . S
C44 C47 1.374 . S
C44 C50 1.507 . S
C45 C46 1.384 . S
C45 C49 1.387 . S
C45 H72 0.930 . S
C46 C44 1.380 . S
C46 C45 1.384 . S
C46 H73 0.931 . S
C47 C44 1.374 . S
C47 C48 1.390 . S
C47 H74 0.930 . S
C48 C47 1.390 . S
C48 C49 1.391 . S
C48 H75 0.930 . S
C49 C45 1.387 . S
C49 C48 1.391 . S
C50 Tb40 2.825 . S
C50 C44 1.507 . S
C50 O63 1.238 . S
C50 O64 1.247 . S
O51 Tb40 2.347 . S
O51 C55 1.259 . S
O52 Eu41 2.418 1_545 S
O52 C55 1.265 . S
O53 Eu41 2.384 1_545 S
O53 C62 1.255 . S
O54 Tb40 2.366 . S
O54 C62 1.265 . S
C55 O51 1.259 . S
C55 O52 1.265 . S
O56 Eu41 2.479 . S
O56 C71 1.238 . S
O57 Eu41 2.471 . S
O57 C71 1.247 . S
O58 Eu41 2.347 1_545 S
O58 C42 1.259 . S
O59 Tb40 2.418 . S
O59 C42 1.265 . S
O60 Tb40 2.384 1_565 S
O60 C43 1.255 . S
O61 Eu41 2.366 . S
O61 C43 1.265 . S
C62 O53 1.255 . S
C62 O54 1.265 . S
O63 Tb40 2.479 . S
O63 C50 1.238 . S
O64 Tb40 2.471 . S
O64 C50 1.247 . S
C65 C68 1.380 . S
C65 C69 1.374 . S
C65 C71 1.507 . S
C66 C67 1.387 . S
C66 C70 1.391 . S
C67 C66 1.387 . S
C67 C68 1.384 . S
C67 H76 0.930 . S
C68 C65 1.380 . S
C68 C67 1.384 . S
C68 H77 0.931 . S
C69 C65 1.374 . S
C69 C70 1.390 . S
C69 H78 0.930 . S
C70 C66 1.391 . S
C70 C69 1.390 . S
C70 H79 0.930 . S
C71 Eu41 2.825 . S
C71 O56 1.238 . S
C71 O57 1.247 . S
C71 C65 1.507 . S
H72 C45 0.930 . S
H73 C46 0.931 . S
H74 C47 0.930 . S
H75 C48 0.930 . S
H76 C67 0.930 . S
H77 C68 0.931 . S
H78 C69 0.930 . S
H79 C70 0.930 . S
Tb80 C90 2.825 . S
Tb80 O91 2.347 . S
Tb80 O94 2.366 . S
Tb80 O99 2.418 . S
Tb80 O100 2.384 . S
Tb80 O103 2.479 . S
Tb80 O104 2.471 . S
Eu81 O92 2.418 . S
Eu81 O93 2.384 . S
Eu81 O96 2.479 . S
Eu81 O97 2.471 . S
Eu81 O98 2.347 . S
Eu81 O101 2.366 . S
Eu81 C111 2.825 . S
C82 O98 1.259 . S
C82 O99 1.265 . S
C83 O100 1.255 . S
C83 O101 1.265 . S
C84 C86 1.380 . S
C84 C87 1.374 . S
C84 C90 1.507 . S
C85 C86 1.384 . S
C85 C89 1.387 . S
C85 H112 0.930 . S
C86 C84 1.380 . S
C86 C85 1.384 . S
C86 H113 0.931 . S
C87 C84 1.374 . S
C87 C88 1.390 . S
C87 H114 0.930 . S
C88 C87 1.390 . S
C88 C89 1.391 . S
C88 H115 0.930 . S
C89 C85 1.387 . S
C89 C88 1.391 . S
C90 Tb80 2.825 . S
C90 C84 1.507 . S
C90 O103 1.238 . S
C90 O104 1.247 . S
O91 Tb80 2.347 . S
O91 C95 1.259 . S
O92 Eu81 2.418 . S
O92 C95 1.265 . S
O93 Eu81 2.384 . S
O93 C102 1.255 . S
O94 Tb80 2.366 . S
O94 C102 1.265 . S
C95 O91 1.259 . S
C95 O92 1.265 . S
O96 Eu81 2.479 . S
O96 C111 1.238 . S
O97 Eu81 2.471 . S
O97 C111 1.247 . S
O98 Eu81 2.347 . S
O98 C82 1.259 . S
O99 Tb80 2.418 . S
O99 C82 1.265 . S
O100 Tb80 2.384 . S
O100 C83 1.255 . S
O101 Eu81 2.366 . S
O101 C83 1.265 . S
C102 O93 1.255 . S
C102 O94 1.265 . S
O103 Tb80 2.479 . S
O103 C90 1.238 . S
O104 Tb80 2.471 . S
O104 C90 1.247 . S
C105 C108 1.380 . S
C105 C109 1.374 . S
C105 C111 1.507 . S
C106 C107 1.387 . S
C106 C110 1.391 . S
C107 C106 1.387 . S
C107 C108 1.384 . S
C107 H116 0.930 . S
C108 C105 1.380 . S
C108 C107 1.384 . S
C108 H117 0.931 . S
C109 C105 1.374 . S
C109 C110 1.390 . S
C109 H118 0.930 . S
C110 C106 1.391 . S
C110 C109 1.390 . S
C110 H119 0.930 . S
C111 Eu81 2.825 . S
C111 O96 1.238 . S
C111 O97 1.247 . S
C111 C105 1.507 . S
H112 C85 0.930 . S
H113 C86 0.931 . S
H114 C87 0.930 . S
H115 C88 0.930 . S
H116 C107 0.930 . S
H117 C108 0.931 . S
H118 C109 0.930 . S
H119 C110 0.930 . S
H120 C127 0.929 . S
H121 C130 0.930 . S
H122 C132 0.929 . S
H123 C124 0.969 . S
C124 H123 0.969 . S
C124 O125 1.550 . S
C124 H126 0.973 . S
O125 C124 1.550 . S
O125 C131 1.412 . S
H126 C124 0.973 . S
C127 H120 0.929 . S
C127 C128 1.400 . S
C127 C129 1.364 . S
C128 C127 1.400 . S
C128 C132 1.377 . S
C129 C127 1.364 . S
C129 C130 1.374 1_545 S
C130 H121 0.930 . S
C130 C129 1.374 1_565 S
C130 C131 1.383 . S
C131 O125 1.412 . S
C131 C130 1.383 . S
C131 C132 1.394 1_565 S
C132 H122 0.929 . S
C132 C128 1.377 . S
C132 C131 1.394 1_545 S
H133 C140 0.929 . S
H134 C143 0.930 . S
H135 C145 0.929 . S
H136 C137 0.969 . S
C137 H136 0.969 . S
C137 O138 1.550 . S
C137 H139 0.973 . S
O138 C137 1.550 . S
O138 C144 1.412 . S
H139 C137 0.973 . S
C140 H133 0.929 . S
C140 C141 1.400 . S
C140 C142 1.364 . S
C141 C140 1.400 . S
C141 C145 1.377 . S
C142 C140 1.364 . S
C142 C143 1.374 . S
C143 H134 0.930 . S
C143 C142 1.374 . S
C143 C144 1.383 . S
C144 O138 1.412 . S
C144 C143 1.383 . S
C144 C145 1.394 . S
C145 H135 0.929 . S
C145 C141 1.377 . S
C145 C144 1.394 . S
H146 C153 0.929 . S
H147 C156 0.930 . S
H148 C158 0.929 . S
H149 C150 0.969 . S
C150 H149 0.969 . S
C150 O151 1.550 . S
C150 H152 0.973 . S
O151 C150 1.550 . S
O151 C157 1.412 . S
H152 C150 0.973 . S
C153 H146 0.929 . S
C153 C154 1.400 . S
C153 C155 1.364 1_655 S
C154 C153 1.400 . S
C154 C158 1.377 1_655 S
C155 C153 1.364 1_455 S
C155 C156 1.374 . S
C156 H147 0.930 . S
C156 C155 1.374 . S
C156 C157 1.383 . S
C157 O151 1.412 . S
C157 C156 1.383 . S
C157 C158 1.394 . S
C158 H148 0.929 . S
C158 C154 1.377 1_455 S
C158 C157 1.394 . S
H159 C166 0.929 . S
H160 C169 0.930 . S
H161 C171 0.929 . S
H162 C163 0.969 . S
C163 H162 0.969 . S
C163 O164 1.550 . S
C163 H165 0.973 . S
O164 C163 1.550 . S
O164 C170 1.412 . S
H165 C163 0.973 . S
C166 H159 0.929 . S
C166 C167 1.400 . S
C166 C168 1.364 1_655 S
C167 C166 1.400 . S
C167 C171 1.377 1_655 S
C168 C166 1.364 1_455 S
C168 C169 1.374 . S
C169 H160 0.930 . S
C169 C168 1.374 . S
C169 C170 1.383 . S
C170 O164 1.412 . S
C170 C169 1.383 . S
C170 C171 1.394 . S
C171 H161 0.929 . S
C171 C167 1.377 1_455 S
C171 C170 1.394 . S
H172 C179 0.929 . S
H173 C182 0.930 . S
H174 C184 0.929 . S
H175 C176 0.969 . S
C176 H175 0.969 . S
C176 O177 1.550 . S
C176 H178 0.973 . S
O177 C176 1.550 . S
O177 C183 1.412 . S
H178 C176 0.973 . S
C179 H172 0.929 . S
C179 C180 1.400 . S
C179 C181 1.364 . S
C180 C179 1.400 . S
C180 C184 1.377 . S
C181 C179 1.364 . S
C181 C182 1.374 1_565 S
C182 H173 0.930 . S
C182 C181 1.374 1_545 S
C182 C183 1.383 . S
C183 O177 1.412 . S
C183 C182 1.383 . S
C183 C184 1.394 1_545 S
C184 H174 0.929 . S
C184 C180 1.377 . S
C184 C183 1.394 1_565 S
H185 C192 0.929 . S
H186 C195 0.930 . S
H187 C197 0.929 . S
H188 C189 0.969 . S
C189 H188 0.969 . S
C189 O190 1.550 . S
C189 H191 0.973 . S
O190 C189 1.550 . S
O190 C196 1.412 . S
H191 C189 0.973 . S
C192 H185 0.929 . S
C192 C193 1.400 . S
C192 C194 1.364 . S
C193 C192 1.400 . S
C193 C197 1.377 . S
C194 C192 1.364 . S
C194 C195 1.374 . S
C195 H186 0.930 . S
C195 C194 1.374 . S
C195 C196 1.383 . S
C196 O190 1.412 . S
C196 C195 1.383 . S
C196 C197 1.394 . S
C197 H187 0.929 . S
C197 C193 1.377 . S
C197 C196 1.394 . S
C198 C199 1.363 . S
C198 C204 1.379 . S
C198 N206 1.356 . S
C199 C198 1.363 . S
C199 C205 1.363 . S
C200 C201 1.363 . S
C200 C205 1.379 . S
C200 N207 1.356 . S
C201 C200 1.363 . S
C201 C204 1.363 . S
N202 C204 1.356 . S
N202 H214 0.984 . S
N202 H215 0.985 . S
N203 C205 1.356 . S
N203 H208 0.984 . S
N203 H209 0.985 . S
C204 C198 1.379 . S
C204 C201 1.363 . S
C204 N202 1.356 . S
C205 C199 1.363 . S
C205 C200 1.379 . S
C205 N203 1.356 . S
N206 C198 1.356 . S
N206 H212 0.984 . S
N206 H213 0.984 . S
N207 C200 1.356 . S
N207 H210 0.984 . S
N207 H211 0.985 . S
H208 N203 0.984 . S
H209 N203 0.985 . S
H210 N207 0.984 . S
H211 N207 0.985 . S
H212 N206 0.984 . S
H213 N206 0.984 . S
H214 N202 0.984 . S
H215 N202 0.985 . S
C216 C217 1.363 . S
C216 C222 1.379 . S
C216 N224 1.356 . S
C217 C216 1.363 . S
C217 C223 1.363 . S
C218 C219 1.363 . S
C218 C223 1.379 . S
C218 N225 1.356 . S
C219 C218 1.363 . S
C219 C222 1.363 . S
N220 C222 1.356 . S
N220 H232 0.984 . S
N220 H233 0.985 . S
N221 C223 1.356 . S
N221 H226 0.984 . S
N221 H227 0.985 . S
C222 C216 1.379 . S
C222 C219 1.363 . S
C222 N220 1.356 . S
C223 C217 1.363 . S
C223 C218 1.379 . S
C223 N221 1.356 . S
N224 C216 1.356 . S
N224 H230 0.984 . S
N224 H231 0.984 . S
N225 C218 1.356 . S
N225 H228 0.984 . S
N225 H229 0.985 . S
H226 N221 0.984 . S
H227 N221 0.985 . S
H228 N225 0.984 . S
H229 N225 0.985 . S
H230 N224 0.984 . S
H231 N224 0.984 . S
H232 N220 0.984 . S
H233 N220 0.985 . S
C234 C235 1.363 . S
C234 C240 1.379 . S
C234 N242 1.356 . S
C235 C234 1.363 . S
C235 C241 1.363 . S
C236 C237 1.363 . S
C236 C241 1.379 . S
C236 N243 1.356 . S
C237 C236 1.363 . S
C237 C240 1.363 . S
N238 C240 1.356 . S
N238 H250 0.984 1_565 S
N238 H251 0.985 . S
N239 C241 1.356 . S
N239 H244 0.984 . S
N239 H245 0.985 . S
C240 C234 1.379 . S
C240 C237 1.363 . S
C240 N238 1.356 . S
C241 C235 1.363 . S
C241 C236 1.379 . S
C241 N239 1.356 . S
N242 C234 1.356 . S
N242 H248 0.984 . S
N242 H249 0.984 . S
N243 C236 1.356 . S
N243 H246 0.984 . S
N243 H247 0.985 . S
H244 N239 0.984 . S
H245 N239 0.985 . S
H246 N243 0.984 . S
H247 N243 0.985 . S
H248 N242 0.984 . S
H249 N242 0.984 . S
H250 N238 0.984 1_545 S
H251 N238 0.985 . S
C252 C253 1.363 . S
C252 C258 1.379 . S
C252 N260 1.356 . S
C253 C252 1.363 . S
C253 C259 1.363 . S
C254 C255 1.363 . S
C254 C259 1.379 . S
C254 N261 1.356 . S
C255 C254 1.363 . S
C255 C258 1.363 . S
N256 C258 1.356 . S
N256 H268 0.984 . S
N256 H269 0.985 . S
N257 C259 1.356 . S
N257 H262 0.984 . S
N257 H263 0.985 . S
C258 C252 1.379 . S
C258 C255 1.363 . S
C258 N256 1.356 . S
C259 C253 1.363 . S
C259 C254 1.379 . S
C259 N257 1.356 . S
N260 C252 1.356 . S
N260 H266 0.984 . S
N260 H267 0.984 . S
N261 C254 1.356 . S
N261 H264 0.984 . S
N261 H265 0.985 . S
H262 N257 0.984 . S
H263 N257 0.985 . S
H264 N261 0.984 . S
H265 N261 0.985 . S
H266 N260 0.984 . S
H267 N260 0.984 . S
H268 N256 0.984 . S
H269 N256 0.985 . S
C270 C271 1.363 . S
C270 C276 1.379 . S
C270 N278 1.356 . S
C271 C270 1.363 . S
C271 C277 1.363 . S
C272 C273 1.363 . S
C272 C277 1.379 . S
C272 N279 1.356 . S
C273 C272 1.363 . S
C273 C276 1.363 . S
N274 C276 1.356 . S
N274 H286 0.984 . S
N274 H287 0.985 . S
N275 C277 1.356 . S
N275 H280 0.984 . S
N275 H281 0.985 . S
C276 C270 1.379 . S
C276 C273 1.363 . S
C276 N274 1.356 . S
C277 C271 1.363 . S
C277 C272 1.379 . S
C277 N275 1.356 . S
N278 C270 1.356 . S
N278 H284 0.984 . S
N278 H285 0.984 . S
N279 C272 1.356 . S
N279 H282 0.984 . S
N279 H283 0.985 . S
H280 N275 0.984 . S
H281 N275 0.985 . S
H282 N279 0.984 . S
H283 N279 0.985 . S
H284 N278 0.984 . S
H285 N278 0.984 . S
H286 N274 0.984 . S
H287 N274 0.985 . S
C288 C289 1.363 . S
C288 C294 1.379 . S
C288 N296 1.356 . S
C289 C288 1.363 . S
C289 C295 1.363 . S
C290 C291 1.363 . S
C290 C295 1.379 . S
C290 N297 1.356 . S
C291 C290 1.363 . S
C291 C294 1.363 . S
N292 C294 1.356 . S
N292 H304 0.984 . S
N292 H305 0.985 . S
N293 C295 1.356 . S
N293 H298 0.984 . S
N293 H299 0.985 . S
C294 C288 1.379 . S
C294 C291 1.363 . S
C294 N292 1.356 . S
C295 C289 1.363 . S
C295 C290 1.379 . S
C295 N293 1.356 . S
N296 C288 1.356 . S
N296 H302 0.984 . S
N296 H303 0.984 . S
N297 C290 1.356 . S
N297 H300 0.984 . S
N297 H301 0.985 . S
H298 N293 0.984 . S
H299 N293 0.985 . S
H300 N297 0.984 . S
H301 N297 0.985 . S
H302 N296 0.984 . S
H303 N296 0.984 . S
H304 N292 0.984 . S
H305 N292 0.985 . S
C306 C307 1.363 . S
C306 C312 1.379 . S
C306 N314 1.356 . S
C307 C306 1.363 . S
C307 C313 1.363 . S
C308 C309 1.363 . S
C308 C313 1.379 . S
C308 N315 1.356 . S
C309 C308 1.363 . S
C309 C312 1.363 . S
N310 C312 1.356 . S
N310 H322 0.984 . S
N310 H323 0.985 . S
N311 C313 1.356 . S
N311 H316 0.984 . S
N311 H317 0.985 . S
C312 C306 1.379 . S
C312 C309 1.363 . S
C312 N310 1.356 . S
C313 C307 1.363 . S
C313 C308 1.379 . S
C313 N311 1.356 . S
N314 C306 1.356 . S
N314 H320 0.984 . S
N314 H321 0.984 . S
N315 C308 1.356 . S
N315 H318 0.984 . S
N315 H319 0.985 . S
H316 N311 0.984 . S
H317 N311 0.985 . S
H318 N315 0.984 . S
H319 N315 0.985 . S
H320 N314 0.984 . S
H321 N314 0.984 . S
H322 N310 0.984 . S
H323 N310 0.985 . S
C324 C325 1.363 . S
C324 C330 1.379 . S
C324 N332 1.356 . S
C325 C324 1.363 . S
C325 C331 1.363 . S
C326 C327 1.363 . S
C326 C331 1.379 . S
C326 N333 1.356 . S
C327 C326 1.363 . S
C327 C330 1.363 . S
N328 C330 1.356 . S
N328 H340 0.984 . S
N328 H341 0.985 . S
N329 C331 1.356 . S
N329 H334 0.984 . S
N329 H335 0.985 . S
C330 C324 1.379 . S
C330 C327 1.363 . S
C330 N328 1.356 . S
C331 C325 1.363 . S
C331 C326 1.379 . S
C331 N329 1.356 . S
N332 C324 1.356 . S
N332 H338 0.984 . S
N332 H339 0.984 . S
N333 C326 1.356 . S
N333 H336 0.984 . S
N333 H337 0.985 . S
H334 N329 0.984 . S
H335 N329 0.985 . S
H336 N333 0.984 . S
H337 N333 0.985 . S
H338 N332 0.984 . S
H339 N332 0.984 . S
H340 N328 0.984 . S
H341 N328 0.985 . S
C342 C343 1.363 . S
C342 C348 1.379 . S
C342 N350 1.356 . S
C343 C342 1.363 . S
C343 C349 1.363 . S
C344 C345 1.363 . S
C344 C349 1.379 . S
C344 N351 1.356 . S
C345 C344 1.363 . S
C345 C348 1.363 . S
N346 C348 1.356 . S
N346 H358 0.984 . S
N346 H359 0.985 . S
N347 C349 1.356 . S
N347 H352 0.984 . S
N347 H353 0.985 . S
C348 C342 1.379 . S
C348 C345 1.363 . S
C348 N346 1.356 . S
C349 C343 1.363 . S
C349 C344 1.379 . S
C349 N347 1.356 . S
N350 C342 1.356 . S
N350 H356 0.984 . S
N350 H357 0.984 . S
N351 C344 1.356 . S
N351 H354 0.984 . S
N351 H355 0.985 . S
H352 N347 0.984 . S
H353 N347 0.985 . S
H354 N351 0.984 . S
H355 N351 0.985 . S
H356 N350 0.984 . S
H357 N350 0.984 . S
H358 N346 0.984 . S
H359 N346 0.985 . S
C360 C361 1.363 . S
C360 C366 1.379 . S
C360 N368 1.356 . S
C361 C360 1.363 . S
C361 C367 1.363 . S
C362 C363 1.363 . S
C362 C367 1.379 . S
C362 N369 1.356 . S
C363 C362 1.363 . S
C363 C366 1.363 . S
N364 C366 1.356 . S
N364 H376 0.984 . S
N364 H377 0.985 . S
N365 C367 1.356 . S
N365 H370 0.984 . S
N365 H371 0.985 . S
C366 C360 1.379 . S
C366 C363 1.363 . S
C366 N364 1.356 . S
C367 C361 1.363 . S
C367 C362 1.379 . S
C367 N365 1.356 . S
N368 C360 1.356 . S
N368 H374 0.984 . S
N368 H375 0.984 . S
N369 C362 1.356 . S
N369 H372 0.984 . S
N369 H373 0.985 . S
H370 N365 0.984 . S
H371 N365 0.985 . S
H372 N369 0.984 . S
H373 N369 0.985 . S
H374 N368 0.984 . S
H375 N368 0.984 . S
H376 N364 0.984 . S
H377 N364 0.985 . S
C378 C379 1.363 . S
C378 C384 1.379 . S
C378 N386 1.356 . S
C379 C378 1.363 . S
C379 C385 1.363 . S
C380 C381 1.363 . S
C380 C385 1.379 . S
C380 N387 1.356 . S
C381 C380 1.363 . S
C381 C384 1.363 . S
N382 C384 1.356 . S
N382 H394 0.984 . S
N382 H395 0.985 . S
N383 C385 1.356 . S
N383 H388 0.984 . S
N383 H389 0.985 . S
C384 C378 1.379 . S
C384 C381 1.363 . S
C384 N382 1.356 . S
C385 C379 1.363 . S
C385 C380 1.379 . S
C385 N383 1.356 . S
N386 C378 1.356 . S
N386 H392 0.984 . S
N386 H393 0.984 . S
N387 C380 1.356 . S
N387 H390 0.984 . S
N387 H391 0.985 . S
H388 N383 0.984 . S
H389 N383 0.985 . S
H390 N387 0.984 . S
H391 N387 0.985 . S
H392 N386 0.984 . S
H393 N386 0.984 . S
H394 N382 0.984 . S
H395 N382 0.985 . S
C396 C397 1.363 . S
C396 C402 1.379 . S
C396 N404 1.356 . S
C397 C396 1.363 . S
C397 C403 1.363 . S
C398 C399 1.363 . S
C398 C403 1.379 . S
C398 N405 1.356 . S
C399 C398 1.363 . S
C399 C402 1.363 . S
N400 C402 1.356 . S
N400 H412 0.984 . S
N400 H413 0.985 . S
N401 C403 1.356 . S
N401 H406 0.984 . S
N401 H407 0.985 . S
C402 C396 1.379 . S
C402 C399 1.363 . S
C402 N400 1.356 . S
C403 C397 1.363 . S
C403 C398 1.379 . S
C403 N401 1.356 . S
N404 C396 1.356 . S
N404 H410 0.984 . S
N404 H411 0.984 . S
N405 C398 1.356 . S
N405 H408 0.984 . S
N405 H409 0.985 . S
H406 N401 0.984 . S
H407 N401 0.985 . S
H408 N405 0.984 . S
H409 N405 0.985 . S
H410 N404 0.984 . S
H411 N404 0.984 . S
H412 N400 0.984 . S
H413 N400 0.985 . S
C414 C415 1.363 . S
C414 C420 1.379 1_554 S
C414 N422 1.356 1_455 S
C415 C414 1.363 . S
C415 C421 1.363 . S
C416 C417 1.363 1_554 S
C416 C421 1.379 . S
C416 N423 1.356 1_554 S
C417 C416 1.363 1_556 S
C417 C420 1.363 . S
N418 C420 1.356 . S
N418 H430 0.984 1_455 S
N418 H431 0.985 . S
N419 C421 1.356 . S
N419 H424 0.984 . S
N419 H425 0.985 . S
C420 C414 1.379 1_556 S
C420 C417 1.363 . S
C420 N418 1.356 . S
C421 C415 1.363 . S
C421 C416 1.379 . S
C421 N419 1.356 . S
N422 C414 1.356 1_655 S
N422 H428 0.984 . S
N422 H429 0.984 . S
N423 C416 1.356 1_556 S
N423 H426 0.984 . S
N423 H427 0.985 . S
H424 N419 0.984 . S
H425 N419 0.985 . S
H426 N423 0.984 . S
H427 N423 0.985 . S
H428 N422 0.984 . S
H429 N422 0.984 . S
H430 N418 0.984 1_655 S
H431 N418 0.985 . S
C432 C433 1.363 . S
C432 C438 1.379 . S
C432 N440 1.356 . S
C433 C432 1.363 . S
C433 C439 1.363 1_545 S
C434 C435 1.363 1_565 S
C434 C439 1.379 . S
C434 N441 1.356 . S
C435 C434 1.363 1_545 S
C435 C438 1.363 . S
N436 C438 1.356 . S
N436 H448 0.984 . S
N436 H449 0.985 . S
N437 C439 1.356 . S
N437 H442 0.984 . S
N437 H443 0.985 . S
C438 C432 1.379 . S
C438 C435 1.363 . S
C438 N436 1.356 . S
C439 C433 1.363 1_565 S
C439 C434 1.379 . S
C439 N437 1.356 . S
N440 C432 1.356 . S
N440 H446 0.984 . S
N440 H447 0.984 . S
N441 C434 1.356 . S
N441 H444 0.984 . S
N441 H445 0.985 . S
H442 N437 0.984 . S
H443 N437 0.985 . S
H444 N441 0.984 . S
H445 N441 0.985 . S
H446 N440 0.984 . S
H447 N440 0.984 . S
H448 N436 0.984 . S
H449 N436 0.985 . S
C450 C451 1.363 . S
C450 C456 1.379 . S
C450 N458 1.356 . S
C451 C450 1.363 . S
C451 C457 1.363 . S
C452 C453 1.363 . S
C452 C457 1.379 . S
C452 N459 1.356 . S
C453 C452 1.363 . S
C453 C456 1.363 . S
N454 C456 1.356 . S
N454 H466 0.984 . S
N454 H467 0.985 . S
N455 C457 1.356 . S
N455 H460 0.984 . S
N455 H461 0.985 . S
C456 C450 1.379 . S
C456 C453 1.363 . S
C456 N454 1.356 . S
C457 C451 1.363 . S
C457 C452 1.379 . S
C457 N455 1.356 . S
N458 C450 1.356 . S
N458 H464 0.984 . S
N458 H465 0.984 . S
N459 C452 1.356 . S
N459 H462 0.984 . S
N459 H463 0.985 . S
H460 N455 0.984 . S
H461 N455 0.985 . S
H462 N459 0.984 . S
H463 N459 0.985 . S
H464 N458 0.984 . S
H465 N458 0.984 . S
H466 N454 0.984 . S
H467 N454 0.985 . S
C468 C469 1.363 . S
C468 C474 1.379 . S
C468 N476 1.356 . S
C469 C468 1.363 . S
C469 C475 1.363 1_545 S
C470 C471 1.363 . S
C470 C475 1.379 . S
C470 N477 1.356 . S
C471 C470 1.363 . S
C471 C474 1.363 1_565 S
N472 C474 1.356 . S
N472 H484 0.984 . S
N472 H485 0.985 . S
N473 C475 1.356 . S
N473 H478 0.984 . S
N473 H479 0.985 . S
C474 C468 1.379 . S
C474 C471 1.363 1_545 S
C474 N472 1.356 . S
C475 C469 1.363 1_565 S
C475 C470 1.379 . S
C475 N473 1.356 . S
N476 C468 1.356 . S
N476 H482 0.984 . S
N476 H483 0.984 . S
N477 C470 1.356 . S
N477 H480 0.984 . S
N477 H481 0.985 . S
H478 N473 0.984 . S
H479 N473 0.985 . S
H480 N477 0.984 . S
H481 N477 0.985 . S
H482 N476 0.984 . S
H483 N476 0.984 . S
H484 N472 0.984 . S
H485 N472 0.985 . S
C486 C487 1.363 . S
C486 C492 1.379 1_556 S
C486 N494 1.356 . S
C487 C486 1.363 . S
C487 C493 1.363 . S
C488 C489 1.363 1_556 S
C488 C493 1.379 . S
C488 N495 1.356 1_556 S
C489 C488 1.363 1_554 S
C489 C492 1.363 . S
N490 C492 1.356 . S
N490 H502 0.984 . S
N490 H503 0.985 . S
N491 C493 1.356 . S
N491 H496 0.984 . S
N491 H497 0.985 . S
C492 C486 1.379 1_554 S
C492 C489 1.363 . S
C492 N490 1.356 . S
C493 C487 1.363 . S
C493 C488 1.379 . S
C493 N491 1.356 . S
N494 C486 1.356 . S
N494 H500 0.984 . S
N494 H501 0.984 . S
N495 C488 1.356 1_554 S
N495 H498 0.984 . S
N495 H499 0.985 1_554 S
H496 N491 0.984 . S
H497 N491 0.985 . S
H498 N495 0.984 . S
H499 N495 0.985 1_556 S
H500 N494 0.984 . S
H501 N494 0.984 . S
H502 N490 0.984 . S
H503 N490 0.985 . S
C504 C505 1.363 1_655 S
C504 C510 1.379 . S
C504 N512 1.356 . S
C505 C504 1.363 1_455 S
C505 C511 1.363 . S
C506 C507 1.363 . S
C506 C511 1.379 . S
C506 N513 1.356 . S
C507 C506 1.363 . S
C507 C510 1.363 1_455 S
N508 C510 1.356 . S
N508 H520 0.984 . S
N508 H521 0.985 . S
N509 C511 1.356 . S
N509 H514 0.984 . S
N509 H515 0.985 . S
C510 C504 1.379 . S
C510 C507 1.363 1_655 S
C510 N508 1.356 . S
C511 C505 1.363 . S
C511 C506 1.379 . S
C511 N509 1.356 . S
N512 C504 1.356 . S
N512 H518 0.984 . S
N512 H519 0.984 . S
N513 C506 1.356 . S
N513 H516 0.984 . S
N513 H517 0.985 . S
H514 N509 0.984 . S
H515 N509 0.985 . S
H516 N513 0.984 . S
H517 N513 0.985 . S
H518 N512 0.984 . S
H519 N512 0.984 . S
H520 N508 0.984 . S
H521 N508 0.985 . S
C199 C9 0.783 . S
C201 C189 0.805 . S
C217 C49 0.597 . S
C219 C167 0.565 . S
C235 C89 0.595 . S
C237 C180 0.572 . S
C253 C26 0.690 . S
C255 C193 0.641 . S
C273 C163 0.950 . S
C271 C66 0.843 . S
C291 C176 1.009 . S
C289 C106 0.871 . S
C307 C43 2.980 . S
C309 C141 2.940 . S
C325 C83 3.051 . S
C327 C154 2.999 . S
C343 C22 3.175 . S
C345 C124 2.939 . S
C363 C137 2.965 . S
C361 C62 3.186 . S
C381 C150 2.911 . S
C379 C102 3.109 . S
C397 C3 2.993 . S
C399 C128 2.961 . S
C417 C155 1.783 . S
C415 C15 1.733 . S
C433 C55 1.731 . S
C435 C129 1.814 . S
C451 C95 1.731 . S
C453 C142 1.813 . S
C471 C181 1.178 . S
C469 C42 1.195 . S
C489 C194 1.181 . S
C487 C82 1.194 . S
C505 C2 1.143 . S
C507 C168 1.143 . S
