# Generated by pormake.
# Topology cml, (3,6)-cn, num edge types: 1
# Building blocks:
#     Node 0, Type 0, BuildingBlock: ESEHIV_clean_linker_0, # of connection points: 3
#     Node 1, Type 0, BuildingBlock: ESEHIV_clean_linker_0, # of connection points: 3
#     Node 2, Type 0, BuildingBlock: ESEHIV_clean_linker_0, # of connection points: 3
#     Node 3, Type 0, BuildingBlock: ESEHIV_clean_linker_0, # of connection points: 3
#     Node 4, Type 0, BuildingBlock: ESEHIV_clean_linker_0, # of connection points: 3
#     Node 5, Type 0, BuildingBlock: ESEHIV_clean_linker_0, # of connection points: 3
#     Node 6, Type 0, BuildingBlock: ESEHIV_clean_linker_0, # of connection points: 3
#     Node 7, Type 0, BuildingBlock: ESEHIV_clean_linker_0, # of connection points: 3
#     Node 8, Type 1, BuildingBlock: OJICUG_clean_sbu_0, # of connection points: 6
#     Node 9, Type 1, BuildingBlock: OJICUG_clean_sbu_0, # of connection points: 6
#     Node 10, Type 1, BuildingBlock: OJICUG_clean_sbu_0, # of connection points: 6
#     Node 11, Type 1, BuildingBlock: OJICUG_clean_sbu_0, # of connection points: 6
#     Edge 12, Type (0, 1), BuildingBlock: OJICUG_clean_linker_0, # of connection points: 2
#     Edge 13, Type (0, 1), BuildingBlock: OJICUG_clean_linker_0, # of connection points: 2
#     Edge 14, Type (0, 1), BuildingBlock: OJICUG_clean_linker_0, # of connection points: 2
#     Edge 15, Type (0, 1), BuildingBlock: OJICUG_clean_linker_0, # of connection points: 2
#     Edge 16, Type (0, 1), BuildingBlock: OJICUG_clean_linker_0, # of connection points: 2
#     Edge 17, Type (0, 1), BuildingBlock: OJICUG_clean_linker_0, # of connection points: 2
#     Edge 18, Type (0, 1), BuildingBlock: OJICUG_clean_linker_0, # of connection points: 2
#     Edge 19, Type (0, 1), BuildingBlock: OJICUG_clean_linker_0, # of connection points: 2
#     Edge 20, Type (0, 1), BuildingBlock: OJICUG_clean_linker_0, # of connection points: 2
#     Edge 21, Type (0, 1), BuildingBlock: OJICUG_clean_linker_0, # of connection points: 2
#     Edge 22, Type (0, 1), BuildingBlock: OJICUG_clean_linker_0, # of connection points: 2
#     Edge 23, Type (0, 1), BuildingBlock: OJICUG_clean_linker_0, # of connection points: 2
#     Edge 24, Type (0, 1), BuildingBlock: OJICUG_clean_linker_0, # of connection points: 2
#     Edge 25, Type (0, 1), BuildingBlock: OJICUG_clean_linker_0, # of connection points: 2
#     Edge 26, Type (0, 1), BuildingBlock: OJICUG_clean_linker_0, # of connection points: 2
#     Edge 27, Type (0, 1), BuildingBlock: OJICUG_clean_linker_0, # of connection points: 2
#     Edge 28, Type (0, 1), BuildingBlock: OJICUG_clean_linker_0, # of connection points: 2
#     Edge 29, Type (0, 1), BuildingBlock: OJICUG_clean_linker_0, # of connection points: 2
#     Edge 30, Type (0, 1), BuildingBlock: OJICUG_clean_linker_0, # of connection points: 2
#     Edge 31, Type (0, 1), BuildingBlock: OJICUG_clean_linker_0, # of connection points: 2
#     Edge 32, Type (0, 1), BuildingBlock: OJICUG_clean_linker_0, # of connection points: 2
#     Edge 33, Type (0, 1), BuildingBlock: OJICUG_clean_linker_0, # of connection points: 2
#     Edge 34, Type (0, 1), BuildingBlock: OJICUG_clean_linker_0, # of connection points: 2
#     Edge 35, Type (0, 1), BuildingBlock: OJICUG_clean_linker_0, # of connection points: 2
# Relax obj value: 0.072
# Max RMSD: 0.084
# Mean RMSD: 0.080
data_MOF--net-cml--node1-OJICUG_clean_sbu_0--node2-ESEHIV_clean_linker_0--edge1-OJICUG_clean_linker_0
_symmetry_space_group_name_H-M    P1
_symmetry_Int_Tables_number       1
_symmetry_cell_setting            triclinic
loop_
_symmetry_equiv_pos_as_xyz
'x, y, z'
_cell_length_a     26.126724
_cell_length_b     27.894945
_cell_length_c     25.826336
_cell_angle_alpha  89.914601
_cell_angle_beta   89.918357
_cell_angle_gamma 90.156122
loop_
_atom_site_label
_atom_site_type_symbol
_atom_site_fract_x
_atom_site_fract_y
_atom_site_fract_z
_atom_type_partial_charge
H0 H 0.34757 0.4063 0.02966 0.0
H1 H 0.25127 0.37736 0.89903 0.0
H2 H 0.24496 0.28642 0.03467 0.0
C3 C 0.31735 0.38538 0.01176 0.0
C4 C 0.29794 0.34518 0.03768 0.0
C5 C 0.30051 0.39738 0.96202 0.0
C6 C 0.26345 0.3686 0.93798 0.0
C7 C 0.24267 0.32843 0.96376 0.0
C8 C 0.26054 0.31685 0.01377 0.0
H9 H 0.65998 0.54145 0.53123 0.0
H10 H 0.75586 0.56973 0.39963 0.0
H11 H 0.76211 0.66168 0.53411 0.0
C12 C 0.69012 0.56225 0.51289 0.0
C13 C 0.70946 0.60273 0.53817 0.0
C14 C 0.70679 0.54996 0.46314 0.0
C15 C 0.74376 0.57867 0.43856 0.0
C16 C 0.76437 0.61916 0.4637 0.0
C17 C 0.74665 0.63099 0.51369 0.0
H18 H 0.659 0.40791 0.02798 0.0
H19 H 0.75716 0.28536 0.03288 0.0
H20 H 0.7632 0.38276 0.90249 0.0
C21 C 0.68962 0.38706 0.01081 0.0
C22 C 0.709 0.40004 0.96224 0.0
C23 C 0.70716 0.34616 0.03651 0.0
C24 C 0.74462 0.31757 0.01321 0.0
C25 C 0.76585 0.33065 0.96489 0.0
C26 C 0.74736 0.37192 0.93949 0.0
H27 H 0.3494 0.54451 0.52697 0.0
H28 H 0.2445 0.56927 0.40223 0.0
H29 H 0.25062 0.66663 0.53233 0.0
C30 C 0.31868 0.5653 0.50992 0.0
C31 C 0.30102 0.60608 0.53569 0.0
C32 C 0.2991 0.55224 0.46157 0.0
C33 C 0.26053 0.58022 0.43903 0.0
C34 C 0.24198 0.62141 0.46445 0.0
C35 C 0.26332 0.63454 0.51259 0.0
H36 H 0.84559 0.90896 0.03239 0.0
H37 H 0.74785 0.88052 0.90281 0.0
H38 H 0.74356 0.78871 0.03787 0.0
C39 C 0.81515 0.88812 0.01477 0.0
C40 C 0.79632 0.84761 0.04056 0.0
C41 C 0.7976 0.9004 0.96537 0.0
C42 C 0.76039 0.8716 0.94159 0.0
C43 C 0.74009 0.83115 0.96728 0.0
C44 C 0.75866 0.81934 0.01698 0.0
H45 H 0.16055 0.04032 0.53311 0.0
H46 H 0.25743 0.0687 0.4024 0.0
H47 H 0.26232 0.16084 0.53679 0.0
C48 C 0.19088 0.06113 0.5151 0.0
C49 C 0.20986 0.10169 0.54052 0.0
C50 C 0.20801 0.04885 0.46554 0.0
C51 C 0.24508 0.07762 0.44126 0.0
C52 C 0.26536 0.11819 0.4665 0.0
C53 C 0.24719 0.13004 0.51634 0.0
H54 H 0.15916 0.90619 0.02878 0.0
H55 H 0.26275 0.78774 0.03541 0.0
H56 H 0.25478 0.87616 0.89784 0.0
C57 C 0.18943 0.88531 0.01102 0.0
C58 C 0.20593 0.89669 0.96095 0.0
C59 C 0.20925 0.84581 0.03755 0.0
C60 C 0.24683 0.81754 0.01394 0.0
C61 C 0.2644 0.82843 0.96351 0.0
C62 C 0.243 0.86789 0.93708 0.0
H63 H 0.8486 0.04436 0.52658 0.0
H64 H 0.74463 0.06924 0.40101 0.0
H65 H 0.74943 0.16617 0.53155 0.0
C66 C 0.81797 0.06512 0.50932 0.0
C67 C 0.79997 0.10578 0.53506 0.0
C68 C 0.79884 0.05217 0.46073 0.0
C69 C 0.76033 0.0801 0.43799 0.0
C70 C 0.74138 0.12111 0.46347 0.0
C71 C 0.76236 0.13418 0.51178 0.0
Sc72 Sc 0.00404 0.75543 0.28122 0.0
Sc73 Sc 0.0038 0.88204 0.28024 0.0
Sc74 Sc 1.001 0.82083 0.39841 0.0
O75 O 0.00298 0.81931 0.31992 0.0
C76 C 0.92498 0.73516 0.37365 0.0
C77 C 0.92707 0.81754 0.21346 0.0
C78 C 0.92604 0.90754 0.37042 0.0
C79 C 0.08154 0.81892 0.21412 0.0
C80 C 0.07794 0.73412 0.37614 0.0
C81 C 0.07933 0.90543 0.3737 0.0
O82 O 0.94609 0.72399 0.3309 0.0
O83 O 0.94646 0.85714 0.2278 0.0
O84 O 0.94421 0.87654 0.40138 0.0
O85 O 0.06235 0.77864 0.22692 0.0
O86 O 0.05698 0.76492 0.40546 0.0
O87 O 0.06094 0.91377 0.3291 0.0
O88 O 0.06469 0.72767 0.32927 0.0
O89 O 0.06472 0.8585 0.23119 0.0
O90 O 0.06255 0.87221 0.40301 0.0
O91 O 0.94335 0.77704 0.22905 0.0
O92 O 0.93937 0.77031 0.40122 0.0
O93 O 0.943 0.91327 0.32478 0.0
Sc94 Sc 0.00268 0.19469 0.78131 0.0
Sc95 Sc 1.00151 0.06807 0.77982 0.0
Sc96 Sc 0.00404 0.12852 0.89823 0.0
O97 O 0.00269 0.13054 0.81974 0.0
C98 C 0.08106 0.21365 0.87439 0.0
C99 C 0.07963 0.13228 0.71388 0.0
C100 C 0.07803 0.0411 0.87034 0.0
C101 C 0.92554 0.13239 0.71305 0.0
C102 C 0.92825 0.21617 0.87587 0.0
C103 C 0.92501 0.04477 0.8728 0.0
O104 O 0.06032 0.22529 0.83163 0.0
O105 O 0.05968 0.09277 0.7279 0.0
O106 O 0.06013 0.07221 0.90129 0.0
O107 O 0.94494 0.17242 0.72618 0.0
O108 O 0.94872 0.18503 0.90518 0.0
O109 O 0.94355 0.03659 0.82819 0.0
O110 O 0.94177 0.22267 0.82903 0.0
O111 O 0.94153 0.09257 0.73036 0.0
O112 O 0.94193 0.07768 0.90229 0.0
O113 O 0.06369 0.17285 0.72957 0.0
O114 O 0.06624 0.17837 0.90166 0.0
O115 O 0.06137 0.03582 0.82461 0.0
Sc116 Sc 0.5025 0.25489 0.28122 0.0
Sc117 Sc 0.50198 0.38151 0.2797 0.0
Sc118 Sc 0.50054 0.32077 0.39814 0.0
O119 O 0.5017 0.31893 0.31964 0.0
C120 C 0.42451 0.23486 0.37468 0.0
C121 C 0.42511 0.31651 0.21352 0.0
C122 C 0.42502 0.40715 0.37043 0.0
C123 C 0.57913 0.31829 0.21308 0.0
C124 C 0.57731 0.234 0.37547 0.0
C125 C 0.57823 0.4056 0.37246 0.0
O126 O 0.44521 0.22355 0.33176 0.0
O127 O 0.44452 0.3562 0.22753 0.0
O128 O 0.44376 0.37647 0.40142 0.0
O129 O 0.56007 0.27802 0.22608 0.0
O130 O 0.55658 0.26487 0.40487 0.0
O131 O 0.55926 0.4138 0.32807 0.0
O132 O 0.56372 0.22743 0.32873 0.0
O133 O 0.56264 0.35791 0.2304 0.0
O134 O 0.56206 0.37223 0.40192 0.0
O135 O 0.44135 0.27611 0.22947 0.0
O136 O 0.43901 0.27022 0.40186 0.0
O137 O 0.44132 0.41259 0.3245 0.0
Sc138 Sc 0.50477 0.69541 0.78121 0.0
Sc139 Sc 0.50449 0.56857 0.77938 0.0
Sc140 Sc 0.50387 0.62859 0.89799 0.0
O141 O 0.50435 0.63101 0.81948 0.0
C142 C 0.58029 0.71552 0.87569 0.0
C143 C 0.58236 0.6331 0.7139 0.0
C144 C 0.58108 0.54368 0.87119 0.0
C145 C 0.42829 0.63302 0.71246 0.0
C146 C 0.42698 0.7146 0.87436 0.0
C147 C 0.42764 0.54272 0.87078 0.0
O148 O 0.56304 0.72524 0.83089 0.0
O149 O 0.56377 0.59342 0.72908 0.0
O150 O 0.56343 0.57548 0.90152 0.0
O151 O 0.44612 0.67329 0.727 0.0
O152 O 0.44421 0.68115 0.90281 0.0
O153 O 0.44534 0.53628 0.82555 0.0
O154 O 0.44508 0.72453 0.82983 0.0
O155 O 0.44572 0.59321 0.72841 0.0
O156 O 0.44497 0.57461 0.9012 0.0
O157 O 0.56495 0.6735 0.7284 0.0
O158 O 0.56285 0.68184 0.90379 0.0
O159 O 0.56338 0.53677 0.82606 0.0
C160 C 0.16497 0.31993 0.90687 0.0
C161 C 0.20246 0.2987 0.93858 0.0
H162 H 0.09753 0.3095 0.86102 0.0
C163 C 0.2007 0.24886 0.94673 0.0
H164 H 0.16451 0.35827 0.90032 0.0
C165 C 0.16153 0.22128 0.9253 0.0
C166 C 0.12388 0.24268 0.89427 0.0
H167 H 0.22956 0.23097 0.9697 0.0
H168 H 0.16079 0.18307 0.93294 0.0
C169 C 0.12639 0.29209 0.88448 0.0
C170 C 0.84184 0.62818 0.40626 0.0
C171 C 0.80407 0.64916 0.43787 0.0
H172 H 0.90942 0.63913 0.36046 0.0
C173 C 0.80517 0.69906 0.4455 0.0
H174 H 0.84272 0.58982 0.40002 0.0
C175 C 0.8441 0.72694 0.42393 0.0
C176 C 0.88219 0.70579 0.39322 0.0
H177 H 0.77602 0.71677 0.46829 0.0
H178 H 0.84439 0.76517 0.43129 0.0
C179 C 0.88023 0.65632 0.38371 0.0
C180 C 0.84511 0.28058 0.97319 0.0
C181 C 0.80761 0.3016 0.94151 0.0
H182 H 0.91222 0.23719 0.97737 0.0
C183 C 0.8107 0.29483 0.88756 0.0
H184 H 0.84484 0.28591 0.01471 0.0
C185 C 0.85029 0.26771 0.86596 0.0
C186 C 0.8871 0.24614 0.89793 0.0
H187 H 0.78213 0.30984 0.86195 0.0
H188 H 0.85147 0.26283 0.82437 0.0
C189 C 0.88405 0.25288 0.95173 0.0
C190 C 0.19655 0.65691 0.38737 0.0
C191 C 0.1999 0.65016 0.44132 0.0
H192 H 0.15517 0.68841 0.32436 0.0
C193 C 0.16227 0.67077 0.4732 0.0
H194 H 0.22523 0.64222 0.36163 0.0
C195 C 0.12286 0.69799 0.45189 0.0
C196 C 0.11952 0.70465 0.39808 0.0
H197 H 0.16276 0.66545 0.51473 0.0
H198 H 0.09458 0.71336 0.47766 0.0
C199 C 0.15653 0.68355 0.36596 0.0
C200 C 0.69806 0.75139 0.95064 0.0
C201 C 0.69993 0.80121 0.94215 0.0
H202 H 0.65843 0.68544 0.93654 0.0
C203 C 0.66277 0.8222 0.90983 0.0
H204 H 0.72664 0.73359 0.97404 0.0
C205 C 0.62473 0.79414 0.88685 0.0
C206 C 0.62227 0.74477 0.89679 0.0
H207 H 0.66221 0.8605 0.90306 0.0
H208 H 0.59626 0.8113 0.86269 0.0
C209 C 0.65926 0.72362 0.92877 0.0
C210 C 0.30578 0.19827 0.44814 0.0
C211 C 0.30498 0.14833 0.44071 0.0
H212 H 0.34433 0.26459 0.43315 0.0
C213 C 0.34273 0.12746 0.40898 0.0
H214 H 0.27666 0.21588 0.47105 0.0
C215 C 0.38065 0.15577 0.3859 0.0
C216 C 0.38222 0.2053 0.395 0.0
H217 H 0.3439 0.08909 0.40295 0.0
H218 H 0.40977 0.13867 0.36248 0.0
C219 C 0.34429 0.22632 0.42602 0.0
C220 C 0.34148 0.8199 0.90537 0.0
C221 C 0.30499 0.79883 0.93866 0.0
H222 H 0.40821 0.80959 0.85827 0.0
C223 C 0.30822 0.74933 0.94871 0.0
H224 H 0.341 0.85799 0.89733 0.0
C225 C 0.3477 0.72205 0.92751 0.0
C226 C 0.38416 0.7433 0.89469 0.0
H227 H 0.28021 0.73141 0.97291 0.0
H228 H 0.34951 0.68414 0.93654 0.0
C229 C 0.38027 0.79229 0.88313 0.0
C230 C 0.69595 0.15675 0.38641 0.0
C231 C 0.6992 0.14975 0.44032 0.0
H232 H 0.65465 0.18856 0.3235 0.0
C233 C 0.66144 0.17012 0.47224 0.0
H234 H 0.7247 0.14221 0.36065 0.0
C235 C 0.62209 0.19745 0.45102 0.0
C236 C 0.61889 0.20443 0.39726 0.0
H237 H 0.66181 0.16457 0.51373 0.0
H238 H 0.59373 0.21266 0.47682 0.0
C239 C 0.65595 0.18349 0.36507 0.0
C240 C 0.33481 0.48108 0.96138 0.0
C241 C 0.32487 0.43819 0.93472 0.0
H242 H 0.37472 0.54798 0.96199 0.0
C243 C 0.34366 0.43265 0.88415 0.0
H244 H 0.32001 0.48659 0.00013 0.0
C245 C 0.37493 0.46791 0.86212 0.0
C246 C 0.38806 0.50926 0.89037 0.0
H247 H 0.33677 0.39986 0.86281 0.0
H248 H 0.39084 0.46154 0.82401 0.0
C249 C 0.36613 0.51623 0.9395 0.0
C250 C 0.6635 0.51481 0.38555 0.0
C251 C 0.682 0.50924 0.43619 0.0
H252 H 0.61635 0.48628 0.32547 0.0
C253 C 0.67128 0.46657 0.46315 0.0
H254 H 0.67092 0.54741 0.36395 0.0
C255 C 0.63959 0.43168 0.44144 0.0
C256 C 0.61804 0.43871 0.39219 0.0
H257 H 0.6858 0.46102 0.50198 0.0
H258 H 0.63041 0.40014 0.46415 0.0
C259 C 0.63189 0.47985 0.36372 0.0
C260 C 0.66795 0.43582 0.88382 0.0
C261 C 0.68575 0.44115 0.93473 0.0
H262 H 0.6208 0.46416 0.82357 0.0
C263 C 0.67453 0.48351 0.9618 0.0
H264 H 0.67587 0.40343 0.86218 0.0
C265 C 0.64263 0.51809 0.94005 0.0
C266 C 0.62136 0.51107 0.89068 0.0
H267 H 0.68847 0.48882 0.00087 0.0
H268 H 0.63294 0.5493 0.96292 0.0
C269 C 0.63605 0.47049 0.86194 0.0
C270 C 0.33931 0.51581 0.383 0.0
C271 C 0.32199 0.51091 0.4342 0.0
H272 H 0.38559 0.48669 0.32241 0.0
C273 C 0.3331 0.46864 0.46155 0.0
H274 H 0.33143 0.54813 0.36114 0.0
C275 C 0.36445 0.43369 0.43974 0.0
C276 C 0.38524 0.44022 0.39 0.0
H277 H 0.31947 0.46364 0.50084 0.0
H278 H 0.37407 0.40253 0.46279 0.0
C279 C 0.37065 0.48073 0.36104 0.0
C280 C 0.83962 0.93579 0.88699 0.0
C281 C 0.82175 0.94125 0.9379 0.0
H282 H 0.88609 0.96442 0.82622 0.0
C283 C 0.83259 -0.01605 0.9646 0.0
H284 H 0.83207 0.90317 0.86558 0.0
C285 C 0.86398 0.0189 0.94237 0.0
C286 C 0.88506 0.0119 0.89288 0.0
H287 H 0.81851 -0.01059 0.00362 0.0
H288 H 0.87339 0.05041 0.96492 0.0
C289 C 0.87092 0.97082 0.86464 0.0
C290 C 0.16527 0.014 0.38755 0.0
C291 C 0.18336 0.00825 0.43831 0.0
H292 H 0.11836 -0.01414 0.32711 0.0
C293 C 0.17222 0.96558 0.46512 0.0
H294 H 0.17301 0.0466 0.36607 0.0
C295 C 0.14042 0.93093 0.44314 0.0
C296 C 0.11925 0.9382 0.39377 0.0
H297 H 0.18643 0.95991 0.50404 0.0
H298 H 0.13086 0.89941 0.46573 0.0
C299 C 0.13359 -0.02073 0.36545 0.0
C300 C 0.17192 -0.01973 0.95981 0.0
C301 C 0.18134 0.93714 0.93346 0.0
H302 H 0.13217 0.04704 0.9605 0.0
C303 C 0.16162 0.93102 0.88337 0.0
H304 H 0.18743 -0.01377 -0.00183 0.0
C305 C 0.13 0.96599 0.86159 0.0
C306 C 0.11746 0.00758 0.88965 0.0
H307 H 0.16809 0.89803 0.8623 0.0
H308 H 0.11339 0.95924 0.82389 0.0
C309 C 0.14024 0.01506 0.93823 0.0
C310 C 0.84006 0.01612 0.38249 0.0
C311 C 0.82211 0.01098 0.43344 0.0
H312 H 0.88713 -0.0127 0.32234 0.0
C313 C 0.833 0.96863 0.46074 0.0
H314 H 0.83237 0.04851 0.36067 0.0
C315 C 0.86467 0.93381 0.43916 0.0
C316 C 0.88605 0.94056 0.38971 0.0
H317 H 0.81891 0.96347 0.49984 0.0
H318 H 0.87406 0.90257 0.46219 0.0
C319 C 0.87175 -0.01882 0.36076 0.0
C320 C 0.34372 0.28814 0.09638 0.0
C321 C 0.31965 0.33256 0.08864 0.0
H322 H 0.39652 0.24785 0.14279 0.0
C323 C 0.32397 0.36816 0.12665 0.0
H324 H 0.34101 0.26026 0.06735 0.0
C325 C 0.35563 0.36128 0.16925 0.0
C326 C 0.38367 0.31864 0.17476 0.0
H327 H 0.30528 0.4025 0.1217 0.0
H328 H 0.36022 0.39048 0.1965 0.0
C329 C 0.37557 0.28115 0.13935 0.0
C330 C 0.68386 0.58092 0.62774 0.0
C331 C 0.68773 0.61592 0.58896 0.0
H332 H 0.64812 0.55948 0.69834 0.0
C333 C 0.66333 0.66029 0.59589 0.0
H334 H 0.7028 0.54664 0.62339 0.0
C335 C 0.63157 0.66775 0.63889 0.0
C336 C 0.62393 0.63079 0.67517 0.0
H337 H 0.66572 0.68772 0.56623 0.0
H338 H 0.61032 0.70092 0.64169 0.0
C339 C 0.65236 0.58828 0.67044 0.0
C340 C 0.68088 0.3691 0.12541 0.0
C341 C 0.68415 0.33373 0.08704 0.0
H342 H 0.64567 0.39153 0.1958 0.0
C343 C 0.65866 0.28984 0.09435 0.0
H344 H 0.70069 0.40303 0.12079 0.0
C345 C 0.62675 0.28315 0.13745 0.0
C346 C 0.62001 0.32039 0.17349 0.0
H347 H 0.66056 0.26215 0.06505 0.0
H348 H 0.60495 0.25021 0.14068 0.0
C349 C 0.64919 0.36252 0.16818 0.0
C350 C 0.32699 0.58271 0.62451 0.0
C351 C 0.32383 0.6183 0.58627 0.0
H352 H 0.36198 0.55989 0.69484 0.0
C353 C 0.3492 0.66219 0.59379 0.0
H354 H 0.30726 0.54878 0.61974 0.0
C355 C 0.3809 0.66868 0.63698 0.0
C356 C 0.38756 0.63121 0.67286 0.0
H357 H 0.34737 0.69005 0.56459 0.0
H358 H 0.40266 0.70162 0.6404 0.0
C359 C 0.3585 0.58906 0.66733 0.0
C360 C 0.84373 0.79016 0.09741 0.0
C361 C 0.81913 0.8345 0.09087 0.0
H362 H 0.89779 0.74966 0.1421 0.0
C363 C 0.82403 0.86967 0.12924 0.0
H364 H 0.8406 0.76262 0.06805 0.0
C365 C 0.85667 0.86251 0.17101 0.0
C366 C 0.88512 0.81999 0.1753 0.0
H367 H 0.80498 0.90393 0.1252 0.0
H368 H 0.86159 0.89139 0.19859 0.0
C369 C 0.87656 0.78287 0.13956 0.0
C370 C 0.16311 0.15939 0.5976 0.0
C371 C 0.18736 0.1149 0.59099 0.0
H372 H 0.10941 0.20015 0.64248 0.0
C373 C 0.18236 0.07973 0.62949 0.0
H374 H 0.16632 0.18693 0.56815 0.0
C375 C 0.14986 0.08704 0.67142 0.0
C376 C 0.12169 0.12972 0.67575 0.0
H377 H 0.20116 0.04536 0.62542 0.0
H378 H 0.14476 0.05815 0.69907 0.0
C379 C 0.13045 0.16683 0.63991 0.0
C380 C 0.16314 0.78953 0.09711 0.0
C381 C 0.18758 0.83379 0.08882 0.0
H382 H 0.10993 0.7498 0.14389 0.0
C383 C 0.18322 0.86988 0.12629 0.0
H384 H 0.16581 0.7613 0.06849 0.0
C385 C 0.15127 0.86357 0.16894 0.0
C386 C 0.12291 0.82101 0.175 0.0
H387 H 0.2021 0.90417 0.12084 0.0
H388 H 0.14678 0.89311 0.19574 0.0
C389 C 0.13099 0.78312 0.14006 0.0
C390 C 0.82472 0.08248 0.62424 0.0
C391 C 0.8223 0.11796 0.58584 0.0
H392 H 0.85862 0.05969 0.69511 0.0
C393 C 0.8479 0.1617 0.59347 0.0
H394 H 0.8048 0.04866 0.61934 0.0
C395 C 0.87915 0.16812 0.637 0.0
C396 C 0.88508 0.13075 0.67314 0.0
H397 H 0.84661 0.18947 0.56414 0.0
H398 H 0.90113 0.20093 0.64049 0.0
C399 C 0.85572 0.0888 0.66745 0.0
loop_
_geom_bond_atom_site_label_1
_geom_bond_atom_site_label_2
_geom_bond_distance
_geom_bond_site_symmetry_2
_ccdc_geom_bond_type
H0 C3 0.931 . S
H1 C6 0.928 . S
H2 C8 0.930 . S
C3 H0 0.931 . S
C3 C4 1.413 . S
C3 C5 1.360 1_554 S
C4 C3 1.413 . S
C4 C8 1.429 . S
C5 C3 1.360 1_556 S
C5 C6 1.372 . S
C6 H1 0.928 . S
C6 C5 1.372 . S
C6 C7 1.404 . S
C7 C6 1.404 . S
C7 C8 1.391 1_556 S
C8 H2 0.930 . S
C8 C4 1.429 . S
C8 C7 1.391 1_554 S
H9 C12 0.931 . S
H10 C15 0.928 . S
H11 C17 0.930 . S
C12 H9 0.931 . S
C12 C13 1.413 . S
C12 C14 1.360 . S
C13 C12 1.413 . S
C13 C17 1.429 . S
C14 C12 1.360 . S
C14 C15 1.372 . S
C15 H10 0.928 . S
C15 C14 1.372 . S
C15 C16 1.404 . S
C16 C15 1.404 . S
C16 C17 1.391 . S
C17 H11 0.930 . S
C17 C13 1.429 . S
C17 C16 1.391 . S
H18 C21 0.931 . S
H19 C24 0.928 . S
H20 C26 0.930 . S
C21 H18 0.931 . S
C21 C22 1.413 1_554 S
C21 C23 1.360 . S
C22 C21 1.413 1_556 S
C22 C26 1.429 . S
C23 C21 1.360 . S
C23 C24 1.372 . S
C24 H19 0.928 . S
C24 C23 1.372 . S
C24 C25 1.404 1_554 S
C25 C24 1.404 1_556 S
C25 C26 1.391 . S
C26 H20 0.930 . S
C26 C22 1.429 . S
C26 C25 1.391 . S
H27 C30 0.931 . S
H28 C33 0.928 . S
H29 C35 0.930 . S
C30 H27 0.931 . S
C30 C31 1.413 . S
C30 C32 1.360 . S
C31 C30 1.413 . S
C31 C35 1.429 . S
C32 C30 1.360 . S
C32 C33 1.372 . S
C33 H28 0.928 . S
C33 C32 1.372 . S
C33 C34 1.404 . S
C34 C33 1.404 . S
C34 C35 1.391 . S
C35 H29 0.930 . S
C35 C31 1.429 . S
C35 C34 1.391 . S
H36 C39 0.931 . S
H37 C42 0.928 . S
H38 C44 0.930 . S
C39 H36 0.931 . S
C39 C40 1.413 . S
C39 C41 1.360 1_554 S
C40 C39 1.413 . S
C40 C44 1.429 . S
C41 C39 1.360 1_556 S
C41 C42 1.372 . S
C42 H37 0.928 . S
C42 C41 1.372 . S
C42 C43 1.404 . S
C43 C42 1.404 . S
C43 C44 1.391 1_556 S
C44 H38 0.930 . S
C44 C40 1.429 . S
C44 C43 1.391 1_554 S
H45 C48 0.931 . S
H46 C51 0.928 . S
H47 C53 0.930 . S
C48 H45 0.931 . S
C48 C49 1.413 . S
C48 C50 1.360 . S
C49 C48 1.413 . S
C49 C53 1.429 . S
C50 C48 1.360 . S
C50 C51 1.372 . S
C51 H46 0.928 . S
C51 C50 1.372 . S
C51 C52 1.404 . S
C52 C51 1.404 . S
C52 C53 1.391 . S
C53 H47 0.930 . S
C53 C49 1.429 . S
C53 C52 1.391 . S
H54 C57 0.931 . S
H55 C60 0.928 . S
H56 C62 0.930 . S
C57 H54 0.931 . S
C57 C58 1.413 1_554 S
C57 C59 1.360 . S
C58 C57 1.413 1_556 S
C58 C62 1.429 . S
C59 C57 1.360 . S
C59 C60 1.372 . S
C60 H55 0.928 . S
C60 C59 1.372 . S
C60 C61 1.404 1_554 S
C61 C60 1.404 1_556 S
C61 C62 1.391 . S
C62 H56 0.930 . S
C62 C58 1.429 . S
C62 C61 1.391 . S
H63 C66 0.931 . S
H64 C69 0.928 . S
H65 C71 0.930 . S
C66 H63 0.931 . S
C66 C67 1.413 . S
C66 C68 1.360 . S
C67 C66 1.413 . S
C67 C71 1.429 . S
C68 C66 1.360 . S
C68 C69 1.372 . S
C69 H64 0.928 . S
C69 C68 1.372 . S
C69 C70 1.404 . S
C70 C69 1.404 . S
C70 C71 1.391 . S
C71 H65 0.930 . S
C71 C67 1.429 . S
C71 C70 1.391 . S
Sc72 O75 2.025 . S
Sc72 O82 2.091 1_455 S
Sc72 O85 2.119 . S
Sc72 O88 2.119 . S
Sc72 O91 2.091 1_455 S
Sc73 O75 2.025 . S
Sc73 O83 2.091 1_455 S
Sc73 O87 2.119 . S
Sc73 O89 2.119 . S
Sc73 O93 2.091 1_455 S
Sc74 O75 2.025 . S
Sc74 O84 2.091 1_455 S
Sc74 O86 2.119 . S
Sc74 O90 2.119 . S
Sc74 O92 2.091 1_455 S
O75 Sc72 2.025 . S
O75 Sc73 2.025 . S
O75 Sc74 2.025 . S
C76 O82 1.268 . S
C76 O92 1.268 . S
C77 O83 1.268 . S
C77 O91 1.268 . S
C78 O84 1.268 . S
C78 O93 1.268 . S
C79 O85 1.268 . S
C79 O89 1.268 . S
C80 O86 1.268 . S
C80 O88 1.268 . S
C81 O87 1.268 . S
C81 O90 1.268 . S
O82 Sc72 2.091 1_655 S
O82 C76 1.268 . S
O83 Sc73 2.091 1_655 S
O83 C77 1.268 . S
O84 Sc74 2.091 1_655 S
O84 C78 1.268 . S
O85 Sc72 2.119 . S
O85 C79 1.268 . S
O86 Sc74 2.119 . S
O86 C80 1.268 . S
O87 Sc73 2.119 . S
O87 C81 1.268 . S
O88 Sc72 2.119 . S
O88 C80 1.268 . S
O89 Sc73 2.119 . S
O89 C79 1.268 . S
O90 Sc74 2.119 . S
O90 C81 1.268 . S
O91 Sc72 2.091 1_655 S
O91 C77 1.268 . S
O92 Sc74 2.091 1_655 S
O92 C76 1.268 . S
O93 Sc73 2.091 1_655 S
O93 C78 1.268 . S
Sc94 O97 2.025 . S
Sc94 O104 2.115 . S
Sc94 O107 2.094 1_455 S
Sc94 O110 2.094 1_455 S
Sc94 O113 2.115 . S
Sc95 O97 2.025 . S
Sc95 O105 2.115 . S
Sc95 O109 2.095 1_455 S
Sc95 O111 2.095 1_455 S
Sc95 O115 2.115 . S
Sc96 O97 2.025 . S
Sc96 O106 2.114 . S
Sc96 O108 2.096 1_455 S
Sc96 O112 2.096 1_455 S
Sc96 O114 2.114 . S
O97 Sc94 2.025 . S
O97 Sc95 2.025 . S
O97 Sc96 2.025 . S
C98 O104 1.268 . S
C98 O114 1.268 . S
C99 O105 1.268 . S
C99 O113 1.268 . S
C100 O106 1.268 . S
C100 O115 1.268 . S
C101 O107 1.268 . S
C101 O111 1.268 . S
C102 O108 1.268 . S
C102 O110 1.268 . S
C103 O109 1.268 . S
C103 O112 1.268 . S
O104 Sc94 2.115 . S
O104 C98 1.268 . S
O105 Sc95 2.115 . S
O105 C99 1.268 . S
O106 Sc96 2.114 . S
O106 C100 1.268 . S
O107 Sc94 2.094 1_655 S
O107 C101 1.268 . S
O108 Sc96 2.096 1_655 S
O108 C102 1.268 . S
O109 Sc95 2.095 1_655 S
O109 C103 1.268 . S
O110 Sc94 2.094 1_655 S
O110 C102 1.268 . S
O111 Sc95 2.095 1_655 S
O111 C101 1.268 . S
O112 Sc96 2.096 1_655 S
O112 C103 1.268 . S
O113 Sc94 2.115 . S
O113 C99 1.268 . S
O114 Sc96 2.114 . S
O114 C98 1.268 . S
O115 Sc95 2.115 . S
O115 C100 1.268 . S
Sc116 O119 2.025 . S
Sc116 O126 2.105 . S
Sc116 O129 2.105 . S
Sc116 O132 2.105 . S
Sc116 O135 2.105 . S
Sc117 O119 2.025 . S
Sc117 O127 2.105 . S
Sc117 O131 2.105 . S
Sc117 O133 2.105 . S
Sc117 O137 2.105 . S
Sc118 O119 2.025 . S
Sc118 O128 2.105 . S
Sc118 O130 2.105 . S
Sc118 O134 2.105 . S
Sc118 O136 2.105 . S
O119 Sc116 2.025 . S
O119 Sc117 2.025 . S
O119 Sc118 2.025 . S
C120 O126 1.268 . S
C120 O136 1.268 . S
C121 O127 1.268 . S
C121 O135 1.268 . S
C122 O128 1.268 . S
C122 O137 1.268 . S
C123 O129 1.268 . S
C123 O133 1.268 . S
C124 O130 1.268 . S
C124 O132 1.268 . S
C125 O131 1.268 . S
C125 O134 1.268 . S
O126 Sc116 2.105 . S
O126 C120 1.268 . S
O127 Sc117 2.105 . S
O127 C121 1.268 . S
O128 Sc118 2.105 . S
O128 C122 1.268 . S
O129 Sc116 2.105 . S
O129 C123 1.268 . S
O130 Sc118 2.105 . S
O130 C124 1.268 . S
O131 Sc117 2.105 . S
O131 C125 1.268 . S
O132 Sc116 2.105 . S
O132 C124 1.268 . S
O133 Sc117 2.105 . S
O133 C123 1.268 . S
O134 Sc118 2.105 . S
O134 C125 1.268 . S
O135 Sc116 2.105 . S
O135 C121 1.268 . S
O136 Sc118 2.105 . S
O136 C120 1.268 . S
O137 Sc117 2.105 . S
O137 C122 1.268 . S
Sc138 O141 2.025 . S
Sc138 O148 2.105 . S
Sc138 O151 2.105 . S
Sc138 O154 2.105 . S
Sc138 O157 2.105 . S
Sc139 O141 2.025 . S
Sc139 O149 2.105 . S
Sc139 O153 2.105 . S
Sc139 O155 2.105 . S
Sc139 O159 2.105 . S
Sc140 O141 2.025 . S
Sc140 O150 2.105 . S
Sc140 O152 2.105 . S
Sc140 O156 2.105 . S
Sc140 O158 2.105 . S
O141 Sc138 2.025 . S
O141 Sc139 2.025 . S
O141 Sc140 2.025 . S
C142 O148 1.268 . S
C142 O158 1.268 . S
C143 O149 1.268 . S
C143 O157 1.268 . S
C144 O150 1.268 . S
C144 O159 1.268 . S
C145 O151 1.268 . S
C145 O155 1.268 . S
C146 O152 1.268 . S
C146 O154 1.268 . S
C147 O153 1.268 . S
C147 O156 1.268 . S
O148 Sc138 2.105 . S
O148 C142 1.268 . S
O149 Sc139 2.105 . S
O149 C143 1.268 . S
O150 Sc140 2.105 . S
O150 C144 1.268 . S
O151 Sc138 2.105 . S
O151 C145 1.268 . S
O152 Sc140 2.105 . S
O152 C146 1.268 . S
O153 Sc139 2.105 . S
O153 C147 1.268 . S
O154 Sc138 2.105 . S
O154 C146 1.268 . S
O155 Sc139 2.105 . S
O155 C145 1.268 . S
O156 Sc140 2.105 . S
O156 C147 1.268 . S
O157 Sc138 2.105 . S
O157 C143 1.268 . S
O158 Sc140 2.105 . S
O158 C142 1.268 . S
O159 Sc139 2.105 . S
O159 C144 1.268 . S
C160 C161 1.387 . S
C160 H164 0.950 . S
C160 C169 1.390 . S
C161 C160 1.387 . S
C161 C163 1.387 . S
H162 C169 0.950 . S
C163 C161 1.387 . S
C163 C165 1.390 . S
C163 H167 0.950 . S
H164 C160 0.950 . S
C165 C163 1.390 . S
C165 C166 1.387 . S
C165 H168 0.950 . S
C166 C165 1.387 . S
C166 C169 1.387 . S
H167 C163 0.950 . S
H168 C165 0.950 . S
C169 C160 1.390 . S
C169 H162 0.950 . S
C169 C166 1.387 . S
C170 C171 1.387 . S
C170 H174 0.950 . S
C170 C179 1.390 . S
C171 C170 1.387 . S
C171 C173 1.387 . S
H172 C179 0.950 . S
C173 C171 1.387 . S
C173 C175 1.390 . S
C173 H177 0.950 . S
H174 C170 0.950 . S
C175 C173 1.390 . S
C175 C176 1.387 . S
C175 H178 0.950 . S
C176 C175 1.387 . S
C176 C179 1.387 . S
H177 C173 0.950 . S
H178 C175 0.950 . S
C179 C170 1.390 . S
C179 H172 0.950 . S
C179 C176 1.387 . S
C180 C181 1.387 . S
C180 H184 0.950 1_556 S
C180 C189 1.390 . S
C181 C180 1.387 . S
C181 C183 1.387 . S
H182 C189 0.950 . S
C183 C181 1.387 . S
C183 C185 1.390 . S
C183 H187 0.950 . S
H184 C180 0.950 1_554 S
C185 C183 1.390 . S
C185 C186 1.387 . S
C185 H188 0.950 . S
C186 C185 1.387 . S
C186 C189 1.387 . S
H187 C183 0.950 . S
H188 C185 0.950 . S
C189 C180 1.390 . S
C189 H182 0.950 . S
C189 C186 1.387 . S
C190 C191 1.387 . S
C190 H194 0.950 . S
C190 C199 1.390 . S
C191 C190 1.387 . S
C191 C193 1.387 . S
H192 C199 0.950 . S
C193 C191 1.387 . S
C193 C195 1.390 . S
C193 H197 0.950 . S
H194 C190 0.950 . S
C195 C193 1.390 . S
C195 C196 1.387 . S
C195 H198 0.950 . S
C196 C195 1.387 . S
C196 C199 1.387 . S
H197 C193 0.950 . S
H198 C195 0.950 . S
C199 C190 1.390 . S
C199 H192 0.950 . S
C199 C196 1.387 . S
C200 C201 1.387 . S
C200 H204 0.950 1_556 S
C200 C209 1.390 . S
C201 C200 1.387 . S
C201 C203 1.387 . S
H202 C209 0.950 . S
C203 C201 1.387 . S
C203 C205 1.390 . S
C203 H207 0.950 . S
H204 C200 0.950 1_554 S
C205 C203 1.390 . S
C205 C206 1.387 . S
C205 H208 0.950 . S
C206 C205 1.387 . S
C206 C209 1.387 . S
H207 C203 0.950 . S
H208 C205 0.950 . S
C209 C200 1.390 . S
C209 H202 0.950 . S
C209 C206 1.387 . S
C210 C211 1.387 . S
C210 H214 0.950 . S
C210 C219 1.390 . S
C211 C210 1.387 . S
C211 C213 1.387 . S
H212 C219 0.950 . S
C213 C211 1.387 . S
C213 C215 1.390 . S
C213 H217 0.950 . S
H214 C210 0.950 . S
C215 C213 1.390 . S
C215 C216 1.387 . S
C215 H218 0.950 . S
C216 C215 1.387 . S
C216 C219 1.387 . S
H217 C213 0.950 . S
H218 C215 0.950 . S
C219 C210 1.390 . S
C219 H212 0.950 . S
C219 C216 1.387 . S
C220 C221 1.387 . S
C220 H224 0.950 . S
C220 C229 1.390 . S
C221 C220 1.387 . S
C221 C223 1.387 . S
H222 C229 0.950 . S
C223 C221 1.387 . S
C223 C225 1.390 . S
C223 H227 0.950 . S
H224 C220 0.950 . S
C225 C223 1.390 . S
C225 C226 1.387 . S
C225 H228 0.950 . S
C226 C225 1.387 . S
C226 C229 1.387 . S
H227 C223 0.950 . S
H228 C225 0.950 . S
C229 C220 1.390 . S
C229 H222 0.950 . S
C229 C226 1.387 . S
C230 C231 1.387 . S
C230 H234 0.950 . S
C230 C239 1.390 . S
C231 C230 1.387 . S
C231 C233 1.387 . S
H232 C239 0.950 . S
C233 C231 1.387 . S
C233 C235 1.390 . S
C233 H237 0.950 . S
H234 C230 0.950 . S
C235 C233 1.390 . S
C235 C236 1.387 . S
C235 H238 0.950 . S
C236 C235 1.387 . S
C236 C239 1.387 . S
H237 C233 0.950 . S
H238 C235 0.950 . S
C239 C230 1.390 . S
C239 H232 0.950 . S
C239 C236 1.387 . S
C240 C241 1.387 . S
C240 H244 0.950 1_556 S
C240 C249 1.390 . S
C241 C240 1.387 . S
C241 C243 1.387 . S
H242 C249 0.950 . S
C243 C241 1.387 . S
C243 C245 1.390 . S
C243 H247 0.950 . S
H244 C240 0.950 1_554 S
C245 C243 1.390 . S
C245 C246 1.387 . S
C245 H248 0.950 . S
C246 C245 1.387 . S
C246 C249 1.387 . S
H247 C243 0.950 . S
H248 C245 0.950 . S
C249 C240 1.390 . S
C249 H242 0.950 . S
C249 C246 1.387 . S
C250 C251 1.387 . S
C250 H254 0.950 . S
C250 C259 1.390 . S
C251 C250 1.387 . S
C251 C253 1.387 . S
H252 C259 0.950 . S
C253 C251 1.387 . S
C253 C255 1.390 . S
C253 H257 0.950 . S
H254 C250 0.950 . S
C255 C253 1.390 . S
C255 C256 1.387 . S
C255 H258 0.950 . S
C256 C255 1.387 . S
C256 C259 1.387 . S
H257 C253 0.950 . S
H258 C255 0.950 . S
C259 C250 1.390 . S
C259 H252 0.950 . S
C259 C256 1.387 . S
C260 C261 1.387 . S
C260 H264 0.950 . S
C260 C269 1.390 . S
C261 C260 1.387 . S
C261 C263 1.387 . S
H262 C269 0.950 . S
C263 C261 1.387 . S
C263 C265 1.390 . S
C263 H267 0.950 . S
H264 C260 0.950 . S
C265 C263 1.390 . S
C265 C266 1.387 . S
C265 H268 0.950 . S
C266 C265 1.387 . S
C266 C269 1.387 . S
H267 C263 0.950 . S
H268 C265 0.950 . S
C269 C260 1.390 . S
C269 H262 0.950 . S
C269 C266 1.387 . S
C270 C271 1.387 . S
C270 H274 0.950 . S
C270 C279 1.390 . S
C271 C270 1.387 . S
C271 C273 1.387 . S
H272 C279 0.950 . S
C273 C271 1.387 . S
C273 C275 1.390 . S
C273 H277 0.950 . S
H274 C270 0.950 . S
C275 C273 1.390 . S
C275 C276 1.387 . S
C275 H278 0.950 . S
C276 C275 1.387 . S
C276 C279 1.387 . S
H277 C273 0.950 . S
H278 C275 0.950 . S
C279 C270 1.390 . S
C279 H272 0.950 . S
C279 C276 1.387 . S
C280 C281 1.387 . S
C280 H284 0.950 . S
C280 C289 1.390 1_565 S
C281 C280 1.387 . S
C281 C283 1.387 1_565 S
H282 C289 0.950 . S
C283 C281 1.387 1_545 S
C283 C285 1.390 . S
C283 H287 0.950 1_556 S
H284 C280 0.950 . S
C285 C283 1.390 . S
C285 C286 1.387 . S
C285 H288 0.950 . S
C286 C285 1.387 . S
C286 C289 1.387 . S
H287 C283 0.950 1_554 S
H288 C285 0.950 . S
C289 C280 1.390 1_545 S
C289 H282 0.950 . S
C289 C286 1.387 . S
C290 C291 1.387 . S
C290 H294 0.950 . S
C290 C299 1.390 1_545 S
C291 C290 1.387 . S
C291 C293 1.387 1_545 S
H292 C299 0.950 1_545 S
C293 C291 1.387 1_565 S
C293 C295 1.390 . S
C293 H297 0.950 . S
H294 C290 0.950 . S
C295 C293 1.390 . S
C295 C296 1.387 . S
C295 H298 0.950 . S
C296 C295 1.387 . S
C296 C299 1.387 . S
H297 C293 0.950 . S
H298 C295 0.950 . S
C299 C290 1.390 1_565 S
C299 H292 0.950 1_565 S
C299 C296 1.387 . S
C300 C301 1.387 1_545 S
C300 H304 0.950 1_556 S
C300 C309 1.390 . S
C301 C300 1.387 1_565 S
C301 C303 1.387 . S
H302 C309 0.950 . S
C303 C301 1.387 . S
C303 C305 1.390 1_565 S
C303 H307 0.950 . S
H304 C300 0.950 1_554 S
C305 C303 1.390 1_545 S
C305 C306 1.387 . S
C305 H308 0.950 . S
C306 C305 1.387 . S
C306 C309 1.387 . S
H307 C303 0.950 . S
H308 C305 0.950 . S
C309 C300 1.390 . S
C309 H302 0.950 . S
C309 C306 1.387 . S
C310 C311 1.387 . S
C310 H314 0.950 . S
C310 C319 1.390 1_545 S
C311 C310 1.387 . S
C311 C313 1.387 1_545 S
H312 C319 0.950 . S
C313 C311 1.387 1_565 S
C313 C315 1.390 . S
C313 H317 0.950 . S
H314 C310 0.950 . S
C315 C313 1.390 . S
C315 C316 1.387 . S
C315 H318 0.950 . S
C316 C315 1.387 . S
C316 C319 1.387 . S
H317 C313 0.950 . S
H318 C315 0.950 . S
C319 C310 1.390 1_565 S
C319 H312 0.950 . S
C319 C316 1.387 . S
C320 C321 1.387 . S
C320 H324 0.950 . S
C320 C329 1.390 . S
C321 C320 1.387 . S
C321 C323 1.387 . S
H322 C329 0.950 . S
C323 C321 1.387 . S
C323 C325 1.390 . S
C323 H327 0.950 . S
H324 C320 0.950 . S
C325 C323 1.390 . S
C325 C326 1.387 . S
C325 H328 0.950 . S
C326 C325 1.387 . S
C326 C329 1.387 . S
H327 C323 0.950 . S
H328 C325 0.950 . S
C329 C320 1.390 . S
C329 H322 0.950 . S
C329 C326 1.387 . S
C330 C331 1.387 . S
C330 H334 0.950 . S
C330 C339 1.390 . S
C331 C330 1.387 . S
C331 C333 1.387 . S
H332 C339 0.950 . S
C333 C331 1.387 . S
C333 C335 1.390 . S
C333 H337 0.950 . S
H334 C330 0.950 . S
C335 C333 1.390 . S
C335 C336 1.387 . S
C335 H338 0.950 . S
C336 C335 1.387 . S
C336 C339 1.387 . S
H337 C333 0.950 . S
H338 C335 0.950 . S
C339 C330 1.390 . S
C339 H332 0.950 . S
C339 C336 1.387 . S
C340 C341 1.387 . S
C340 H344 0.950 . S
C340 C349 1.390 . S
C341 C340 1.387 . S
C341 C343 1.387 . S
H342 C349 0.950 . S
C343 C341 1.387 . S
C343 C345 1.390 . S
C343 H347 0.950 . S
H344 C340 0.950 . S
C345 C343 1.390 . S
C345 C346 1.387 . S
C345 H348 0.950 . S
C346 C345 1.387 . S
C346 C349 1.387 . S
H347 C343 0.950 . S
H348 C345 0.950 . S
C349 C340 1.390 . S
C349 H342 0.950 . S
C349 C346 1.387 . S
C350 C351 1.387 . S
C350 H354 0.950 . S
C350 C359 1.390 . S
C351 C350 1.387 . S
C351 C353 1.387 . S
H352 C359 0.950 . S
C353 C351 1.387 . S
C353 C355 1.390 . S
C353 H357 0.950 . S
H354 C350 0.950 . S
C355 C353 1.390 . S
C355 C356 1.387 . S
C355 H358 0.950 . S
C356 C355 1.387 . S
C356 C359 1.387 . S
H357 C353 0.950 . S
H358 C355 0.950 . S
C359 C350 1.390 . S
C359 H352 0.950 . S
C359 C356 1.387 . S
C360 C361 1.387 . S
C360 H364 0.950 . S
C360 C369 1.390 . S
C361 C360 1.387 . S
C361 C363 1.387 . S
H362 C369 0.950 . S
C363 C361 1.387 . S
C363 C365 1.390 . S
C363 H367 0.950 . S
H364 C360 0.950 . S
C365 C363 1.390 . S
C365 C366 1.387 . S
C365 H368 0.950 . S
C366 C365 1.387 . S
C366 C369 1.387 . S
H367 C363 0.950 . S
H368 C365 0.950 . S
C369 C360 1.390 . S
C369 H362 0.950 . S
C369 C366 1.387 . S
C370 C371 1.387 . S
C370 H374 0.950 . S
C370 C379 1.390 . S
C371 C370 1.387 . S
C371 C373 1.387 . S
H372 C379 0.950 . S
C373 C371 1.387 . S
C373 C375 1.390 . S
C373 H377 0.950 . S
H374 C370 0.950 . S
C375 C373 1.390 . S
C375 C376 1.387 . S
C375 H378 0.950 . S
C376 C375 1.387 . S
C376 C379 1.387 . S
H377 C373 0.950 . S
H378 C375 0.950 . S
C379 C370 1.390 . S
C379 H372 0.950 . S
C379 C376 1.387 . S
C380 C381 1.387 . S
C380 H384 0.950 . S
C380 C389 1.390 . S
C381 C380 1.387 . S
C381 C383 1.387 . S
H382 C389 0.950 . S
C383 C381 1.387 . S
C383 C385 1.390 . S
C383 H387 0.950 . S
H384 C380 0.950 . S
C385 C383 1.390 . S
C385 C386 1.387 . S
C385 H388 0.950 . S
C386 C385 1.387 . S
C386 C389 1.387 . S
H387 C383 0.950 . S
H388 C385 0.950 . S
C389 C380 1.390 . S
C389 H382 0.950 . S
C389 C386 1.387 . S
C390 C391 1.387 . S
C390 H394 0.950 . S
C390 C399 1.390 . S
C391 C390 1.387 . S
C391 C393 1.387 . S
H392 C399 0.950 . S
C393 C391 1.387 . S
C393 C395 1.390 . S
C393 H397 0.950 . S
H394 C390 0.950 . S
C395 C393 1.390 . S
C395 C396 1.387 . S
C395 H398 0.950 . S
C396 C395 1.387 . S
C396 C399 1.387 . S
H397 C393 0.950 . S
H398 C395 0.950 . S
C399 C390 1.390 . S
C399 H392 0.950 . S
C399 C396 1.387 . S
C161 C7 1.524 . S
C166 C98 1.496 . S
C176 C76 1.496 . S
C171 C16 1.523 . S
C186 C102 1.495 . S
C181 C25 1.524 . S
C196 C80 1.496 . S
C191 C34 1.520 . S
C206 C142 1.494 . S
C201 C43 1.522 . S
C216 C120 1.494 . S
C211 C52 1.522 . S
C221 C61 1.523 . S
C226 C146 1.493 . S
C236 C124 1.496 . S
C231 C70 1.520 . S
C241 C5 1.494 . S
C246 C147 1.479 . S
C256 C125 1.482 . S
C251 C14 1.492 . S
C261 C22 1.491 . S
C266 C144 1.477 . S
C271 C32 1.491 . S
C276 C122 1.481 . S
C286 C103 1.481 . S
C281 C41 1.492 . S
C291 C50 1.493 . S
C296 C81 1.481 . S
C306 C100 1.479 . S
C301 C58 1.489 . S
C316 C78 1.480 . S
C311 C68 1.491 . S
C326 C121 1.475 . S
C321 C4 1.495 . S
C336 C143 1.477 . S
C331 C13 1.493 . S
C341 C23 1.496 . S
C346 C123 1.475 . S
C356 C145 1.475 . S
C351 C31 1.492 . S
C366 C77 1.475 . S
C361 C40 1.495 . S
C371 C49 1.495 . S
C376 C99 1.475 . S
C381 C59 1.495 . S
C386 C79 1.477 . S
C391 C67 1.492 . S
C396 C101 1.475 . S
