# Generated by pormake.
# Topology zzz, (3,6)-cn, num edge types: 1
# Building blocks:
#     Node 0, Type 0, BuildingBlock: MIDCAF_clean_linker_0, # of connection points: 3
#     Node 1, Type 0, BuildingBlock: MIDCAF_clean_linker_0, # of connection points: 3
#     Node 2, Type 0, BuildingBlock: MIDCAF_clean_linker_0, # of connection points: 3
#     Node 3, Type 0, BuildingBlock: MIDCAF_clean_linker_0, # of connection points: 3
#     Node 4, Type 0, BuildingBlock: MIDCAF_clean_linker_0, # of connection points: 3
#     Node 5, Type 0, BuildingBlock: MIDCAF_clean_linker_0, # of connection points: 3
#     Node 6, Type 0, BuildingBlock: MIDCAF_clean_linker_0, # of connection points: 3
#     Node 7, Type 0, BuildingBlock: MIDCAF_clean_linker_0, # of connection points: 3
#     Node 8, Type 1, BuildingBlock: CUWYAW_clean_sbu_0, # of connection points: 6
#     Node 9, Type 1, BuildingBlock: CUWYAW_clean_sbu_0, # of connection points: 6
#     Node 10, Type 1, BuildingBlock: CUWYAW_clean_sbu_0, # of connection points: 6
#     Node 11, Type 1, BuildingBlock: CUWYAW_clean_sbu_0, # of connection points: 6
#     Edge 12, Type (0, 1), BuildingBlock: AJUNOK_clean_linker_0, # of connection points: 2
#     Edge 13, Type (0, 1), BuildingBlock: AJUNOK_clean_linker_0, # of connection points: 2
#     Edge 14, Type (0, 1), BuildingBlock: AJUNOK_clean_linker_0, # of connection points: 2
#     Edge 15, Type (0, 1), BuildingBlock: AJUNOK_clean_linker_0, # of connection points: 2
#     Edge 16, Type (0, 1), BuildingBlock: AJUNOK_clean_linker_0, # of connection points: 2
#     Edge 17, Type (0, 1), BuildingBlock: AJUNOK_clean_linker_0, # of connection points: 2
#     Edge 18, Type (0, 1), BuildingBlock: AJUNOK_clean_linker_0, # of connection points: 2
#     Edge 19, Type (0, 1), BuildingBlock: AJUNOK_clean_linker_0, # of connection points: 2
#     Edge 20, Type (0, 1), BuildingBlock: AJUNOK_clean_linker_0, # of connection points: 2
#     Edge 21, Type (0, 1), BuildingBlock: AJUNOK_clean_linker_0, # of connection points: 2
#     Edge 22, Type (0, 1), BuildingBlock: AJUNOK_clean_linker_0, # of connection points: 2
#     Edge 23, Type (0, 1), BuildingBlock: AJUNOK_clean_linker_0, # of connection points: 2
#     Edge 24, Type (0, 1), BuildingBlock: AJUNOK_clean_linker_0, # of connection points: 2
#     Edge 25, Type (0, 1), BuildingBlock: AJUNOK_clean_linker_0, # of connection points: 2
#     Edge 26, Type (0, 1), BuildingBlock: AJUNOK_clean_linker_0, # of connection points: 2
#     Edge 27, Type (0, 1), BuildingBlock: AJUNOK_clean_linker_0, # of connection points: 2
#     Edge 28, Type (0, 1), BuildingBlock: AJUNOK_clean_linker_0, # of connection points: 2
#     Edge 29, Type (0, 1), BuildingBlock: AJUNOK_clean_linker_0, # of connection points: 2
#     Edge 30, Type (0, 1), BuildingBlock: AJUNOK_clean_linker_0, # of connection points: 2
#     Edge 31, Type (0, 1), BuildingBlock: AJUNOK_clean_linker_0, # of connection points: 2
#     Edge 32, Type (0, 1), BuildingBlock: AJUNOK_clean_linker_0, # of connection points: 2
#     Edge 33, Type (0, 1), BuildingBlock: AJUNOK_clean_linker_0, # of connection points: 2
#     Edge 34, Type (0, 1), BuildingBlock: AJUNOK_clean_linker_0, # of connection points: 2
#     Edge 35, Type (0, 1), BuildingBlock: AJUNOK_clean_linker_0, # of connection points: 2
# Relax obj value: 0.488
# Max RMSD: 0.246
# Mean RMSD: 0.233
data_MOF--net-zzz--node1-CUWYAW_clean_sbu_0--node2-MIDCAF_clean_linker_0--edge1-AJUNOK_clean_linker_0
_symmetry_space_group_name_H-M    P1
_symmetry_Int_Tables_number       1
_symmetry_cell_setting            triclinic
loop_
_symmetry_equiv_pos_as_xyz
'x, y, z'
_cell_length_a     45.318874
_cell_length_b     45.317373
_cell_length_c     15.024279
_cell_angle_alpha  89.560283
_cell_angle_beta   89.994835
_cell_angle_gamma 89.985741
loop_
_atom_site_label
_atom_site_type_symbol
_atom_site_fract_x
_atom_site_fract_y
_atom_site_fract_z
_atom_type_partial_charge
C0 C 0.82481 0.48844 0.53835 0.0
C1 C 0.83966 0.51464 0.51557 0.0
C2 C 0.82661 0.53337 0.45097 0.0
C3 C 0.80074 0.52487 0.40554 0.0
H4 H 0.71464 0.53917 0.20275 0.0
H5 H 0.67392 0.5549 0.10464 0.0
H6 H 0.63487 0.46832 0.12943 0.0
H7 H 0.67451 0.45322 0.22802 0.0
H8 H 0.73918 0.41439 0.11887 0.0
H9 H 0.77127 0.38534 0.02354 0.0
H10 H 0.83519 0.37954 0.23639 0.0
H11 H 0.8029 0.40712 0.33191 0.0
H12 H 0.78959 0.45868 0.50877 0.0
H13 H 0.834 0.47338 0.58733 0.0
H14 H 0.83698 0.55411 0.43311 0.0
H15 H 0.79248 0.53866 0.3519 0.0
N16 N 0.74236 0.4972 0.32437 0.0
N17 N 0.73286 0.45458 0.23965 0.0
N18 N 0.77351 0.45571 0.33413 0.0
C19 C 0.72491 0.4822 0.26503 0.0
C20 C 0.75709 0.44122 0.27333 0.0
C21 C 0.76656 0.48338 0.36054 0.0
C22 C 0.69793 0.4949 0.22291 0.0
C23 C 0.69684 0.5239 0.18916 0.0
C24 C 0.67374 0.53271 0.13177 0.0
C25 C 0.6513 0.51268 0.10732 0.0
C26 C 0.65157 0.48443 0.1464 0.0
C27 C 0.67447 0.4757 0.20298 0.0
C28 C 0.76924 0.41436 0.23141 0.0
C29 C 0.7594 0.40561 0.14677 0.0
C30 C 0.77781 0.38888 0.09202 0.0
C31 C 0.80629 0.38102 0.12094 0.0
C32 C 0.81356 0.38522 0.21103 0.0
C33 C 0.79509 0.4016 0.26588 0.0
C34 C 0.78739 0.4975 0.42407 0.0
C35 C 0.79919 0.48001 0.49323 0.0
C36 C 1.00355 0.84917 0.4015 0.0
C37 C 1.00935 0.85121 0.49356 0.0
C38 C 0.02092 0.82605 0.53701 0.0
C39 C 0.028 0.80042 0.48915 0.0
H40 H 0.98992 0.72357 0.18374 0.0
H41 H 0.97626 0.68234 0.08595 0.0
H42 H 0.06515 0.64863 0.10384 0.0
H43 H 0.07842 0.68887 0.20145 0.0
H44 H 0.10457 0.77152 0.09902 0.0
H45 H 0.13357 0.81118 0.03684 0.0
H46 H 0.15955 0.83753 0.30155 0.0
H47 H 0.12801 0.79896 0.36399 0.0
H48 H 1.00761 0.82352 0.2824 0.0
H49 H 0.99564 0.86814 0.36441 0.0
H50 H 0.02566 0.82656 0.60762 0.0
H51 H 0.03902 0.78241 0.52342 0.0
N52 N 0.02872 0.75351 0.30211 0.0
N53 N 0.07432 0.74538 0.23069 0.0
N54 N 0.06892 0.78545 0.32585 0.0
C55 C 0.04612 0.73667 0.24731 0.0
C56 C 0.08587 0.76954 0.26988 0.0
C57 C 0.04058 0.77781 0.34285 0.0
C58 C 0.03532 0.70975 0.20024 0.0
C59 C 1.00628 0.70698 0.16815 0.0
C60 C 0.9986 0.68355 0.11112 0.0
C61 C 0.01974 0.66227 0.08559 0.0
C62 C 0.04822 0.6644 0.12177 0.0
C63 C 0.05588 0.68769 0.17773 0.0
C64 C 0.11335 0.78286 0.2362 0.0
C65 C 0.11761 0.78484 0.14392 0.0
C66 C 0.13463 0.80766 0.10806 0.0
C67 C 0.14829 0.82832 0.16425 0.0
C68 C 0.14855 0.82257 0.25649 0.0
C69 C 0.13063 0.8004 0.2924 0.0
C70 C 0.0232 0.79894 0.39681 0.0
C71 C 1.01026 0.8234 0.35408 0.0
C72 C 0.70469 0.02752 0.48833 0.0
C73 C 0.70272 0.03933 0.57473 0.0
C74 C 0.7275 0.05423 0.60873 0.0
C75 C 0.7523 0.0596 0.55506 0.0
H76 H 0.81647 1.00874 0.22622 0.0
H77 H 0.85379 0.99161 0.11887 0.0
H78 H 0.90031 0.07416 0.14561 0.0
H79 H 0.86368 0.09087 0.25189 0.0
H80 H 0.78052 0.12301 0.14355 0.0
H81 H 0.74295 0.15399 0.07874 0.0
H82 H 0.71945 0.1856 0.34028 0.0
H83 H 0.75575 0.15211 0.40588 0.0
H84 H 0.72952 0.02532 0.36654 0.0
H85 H 0.68611 1.01598 0.45958 0.0
H86 H 0.72729 0.06284 0.67574 0.0
H87 H 0.76993 0.07326 0.58068 0.0
N88 N 0.79588 0.04979 0.35971 0.0
N89 N 0.8051 0.09303 0.27599 0.0
N90 N 0.76717 0.0925 0.381 0.0
C91 C 0.81233 0.06476 0.29743 0.0
C92 C 0.78264 0.10702 0.31736 0.0
C93 C 0.77352 0.06415 0.40296 0.0
C94 C 0.83719 0.0511 0.24783 0.0
C95 C 0.83522 0.02272 0.2111 0.0
C96 C 0.85642 1.01308 0.14905 0.0
C97 C 0.88021 0.03142 0.12399 0.0
C98 C 0.88275 0.05915 0.16443 0.0
C99 C 0.86158 0.06882 0.22517 0.0
C100 C 0.77034 0.13451 0.27981 0.0
C101 C 0.76829 0.13754 0.18706 0.0
C102 C 0.74672 0.15574 0.1496 0.0
C103 C 0.72744 0.17187 0.20438 0.0
C104 C 0.73333 0.17279 0.29635 0.0
C105 C 0.7542 0.15374 0.33405 0.0
C106 C 0.75337 0.04947 0.46697 0.0
C107 C 0.72972 0.03256 0.43509 0.0
C108 C 0.49325 0.73949 0.99882 0.0
C109 C 0.46415 0.74737 0.97593 0.0
C110 C 0.4514 0.77243 1.01468 0.0
C111 C 0.46649 0.78752 0.08159 0.0
H112 H 0.48071 0.86492 0.30892 0.0
H113 H 0.48862 0.91223 0.23649 0.0
H114 H 0.58253 0.89611 0.23565 0.0
H115 H 0.57404 0.84768 0.30388 0.0
H116 H 0.48061 0.72282 0.33494 0.0
H117 H 0.48254 0.67706 0.41559 0.0
H118 H 0.54973 0.71238 0.58811 0.0
H119 H 0.54943 0.7589 0.50054 0.0
H120 H 0.52923 0.74596 0.08826 0.0
H121 H 0.50352 0.71985 0.97218 0.0
H122 H 0.42894 0.77872 0.99871 0.0
H123 H 0.45541 0.80519 0.11649 0.0
N124 N 0.51094 0.81349 0.21856 0.0
N125 N 0.52293 0.79919 0.36626 0.0
N126 N 0.50776 0.76417 0.26098 0.0
C127 C 0.52026 0.82076 0.30126 0.0
C128 C 0.51608 0.77041 0.34534 0.0
C129 C 0.50513 0.78531 0.19809 0.0
C130 C 0.52673 0.85252 0.31338 0.0
C131 C 0.50322 0.87227 0.29866 0.0
C132 C 0.50782 0.89954 0.25598 0.0
C133 C 0.53626 0.90819 0.2284 0.0
C134 C 0.56022 0.8901 0.25421 0.0
C135 C 0.55549 0.86255 0.29571 0.0
C136 C 0.51505 0.74495 0.41019 0.0
C137 C 0.4959 0.72133 0.39022 0.0
C138 C 0.49661 0.69483 0.43787 0.0
C139 C 0.51581 0.69081 0.5101 0.0
C140 C 0.53457 0.71462 0.53278 0.0
C141 C 0.53417 0.74147 0.48344 0.0
C142 C 0.4941 0.77725 0.11061 0.0
C143 C 0.508 0.75422 0.06596 0.0
C144 C 0.2065 0.52123 0.03168 0.0
C145 C 0.19672 0.50708 0.95364 0.0
C146 C 0.21594 0.4869 0.91291 0.0
C147 C 0.24253 0.47868 0.95407 0.0
H148 H 0.32477 0.51906 0.25694 0.0
H149 H 0.36386 0.53066 0.36482 0.0
H150 H 0.38619 0.43824 0.38315 0.0
H151 H 0.34735 0.42672 0.27786 0.0
H152 H 0.27266 0.3992 0.34346 0.0
H153 H 0.22752 0.39296 0.42954 0.0
H154 H 0.17664 0.4001 0.18723 0.0
H155 H 0.22132 0.4014 0.10189 0.0
H156 H 0.2385 0.52201 0.13752 0.0
H157 H 0.19268 0.53747 0.06381 0.0
H158 H 0.20933 0.47556 0.85291 0.0
H159 H 0.2552 0.46081 0.92552 0.0
N160 N 0.29313 0.48168 0.14382 0.0
N161 N 0.29378 0.43649 0.2233 0.0
N162 N 0.25801 0.44487 0.11499 0.0
C163 C 0.30628 0.46323 0.20522 0.0
C164 C 0.26956 0.42717 0.17873 0.0
C165 C 0.26915 0.47186 0.09678 0.0
C166 C 0.33263 0.47193 0.25901 0.0
C167 C 0.33844 0.50136 0.28274 0.0
C168 C 0.3609 0.50798 0.3446 0.0
C169 C 0.37818 0.48534 0.38338 0.0
C170 C 0.37315 0.45621 0.35598 0.0
C171 C 0.35081 0.44963 0.29511 0.0
C172 C 0.25012 0.40399 0.21678 0.0
C173 C 0.25189 0.39745 0.3082 0.0
C174 C 0.22587 0.39475 0.35784 0.0
C175 C 0.19849 0.40031 0.31642 0.0
C176 C 0.19722 0.39783 0.22311 0.0
C177 C 0.22317 0.39869 0.17342 0.0
C178 C 0.25084 0.49054 0.03673 0.0
C179 C 0.23321 0.51297 0.0729 0.0
C180 C 0.99341 0.21653 1.01291 0.0
C181 C 1.00704 0.20811 0.93247 0.0
C182 C 0.0257 0.2287 0.89034 0.0
C183 C 0.03344 0.25509 0.93275 0.0
H184 H 0.09539 0.34756 0.26946 0.0
H185 H 0.08769 0.38585 0.3787 0.0
H186 H 0.99372 0.3714 0.36685 0.0
H187 H 1.00143 0.33292 0.25416 0.0
H188 H 0.11437 0.2651 0.32083 0.0
H189 H 0.11704 0.21554 0.3832 0.0
H190 H 0.11024 0.18001 0.11751 0.0
H191 H 0.11298 0.22873 0.05673 0.0
H192 H 0.99319 0.24688 0.12229 0.0
H193 H 0.97814 0.20173 0.04611 0.0
H194 H 0.03654 0.22325 0.82835 0.0
H195 H 0.05057 0.26865 0.90307 0.0
N196 N 0.03541 0.30071 0.13256 0.0
N197 N 0.08122 0.29604 0.20693 0.0
N198 N 0.06947 0.26428 0.09138 0.0
C199 C 0.05527 0.31087 0.19455 0.0
C200 C 0.08845 0.27268 0.15542 0.0
C201 C 0.04315 0.27753 0.07915 0.0
C202 C 0.04907 0.33666 0.25353 0.0
C203 C 0.07297 0.35247 0.28949 0.0
C204 C 0.06858 0.37446 0.35296 0.0
C205 C 0.04017 0.38128 0.38415 0.0
C206 C 1.01597 0.3666 0.34508 0.0
C207 C 0.02037 0.34455 0.28034 0.0
C208 C 0.11061 0.25054 0.18428 0.0
C209 C 0.11592 0.24666 0.27563 0.0
C210 C 0.11678 0.21805 0.31145 0.0
C211 C 0.11083 0.19361 0.25644 0.0
C212 C 0.11372 0.19775 0.16387 0.0
C213 C 0.11507 0.22621 0.12827 0.0
C214 C 0.02284 0.26167 0.01851 0.0
C215 C 1.00133 0.24293 0.05563 0.0
C216 C 0.33324 1.00262 0.04093 0.0
C217 C 0.34257 0.02822 0.99546 0.0
C218 C 0.32236 0.05197 0.98892 0.0
C219 C 0.29518 0.05126 0.03486 0.0
H220 H 0.18691 0.08187 0.23052 0.0
H221 H 0.14077 0.08693 0.31279 0.0
H222 H 0.13551 0.99205 0.33859 0.0
H223 H 0.18062 0.98735 0.2526 0.0
H224 H 0.24095 0.99133 0.45687 0.0
H225 H 0.27007 0.9722 0.58285 0.0
H226 H 0.34459 0.024 0.4931 0.0
H227 H 0.31586 0.04298 0.37001 0.0
H228 H 0.30087 0.98247 0.12522 0.0
H229 H 0.3478 0.98381 0.04818 0.0
H230 H 0.32799 0.07166 0.95148 0.0
H231 H 0.28153 0.07087 0.03572 0.0
N232 N 0.23655 0.03233 0.15552 0.0
N233 N 0.2328 0.02736 0.31195 0.0
N234 N 0.27887 0.02522 0.24395 0.0
C235 C 0.21971 0.03161 0.23177 0.0
C236 C 0.26228 0.02453 0.3184 0.0
C237 C 0.26661 0.02891 0.1626 0.0
C238 C 0.18724 0.03421 0.2339 0.0
C239 C 0.17483 0.06212 0.24897 0.0
C240 C 0.1488 0.06496 0.29896 0.0
C241 C 0.13481 0.03996 0.33637 0.0
C242 C 0.14544 1.01195 0.31186 0.0
C243 C 0.17125 1.00915 0.26114 0.0
C244 C 0.27644 0.01835 0.40394 0.0
C245 C 0.26322 0.99935 0.46668 0.0
C246 C 0.27977 0.98839 0.53825 0.0
C247 C 0.30934 0.99691 0.54821 0.0
C248 C 0.32159 0.01763 0.48871 0.0
C249 C 0.30529 0.02826 0.41745 0.0
C250 C 0.28727 0.02646 0.08619 0.0
C251 C 0.30605 1.00174 0.08495 0.0
C252 C 0.40794 0.32318 0.22325 0.0
C253 C 0.41057 0.32129 0.31649 0.0
C254 C 0.40728 0.29326 0.35651 0.0
C255 C 0.41156 0.2679 0.30542 0.0
H256 H 0.53407 0.20372 0.26896 0.0
H257 H 0.54446 0.16545 0.38221 0.0
H258 H 0.45543 0.13295 0.35627 0.0
H259 H 0.44508 0.17094 0.24554 0.0
H260 H 0.47487 0.26878 0.91915 0.0
H261 H 0.4852 0.31621 0.8477 0.0
H262 H 0.54349 0.33857 0.06387 0.0
H263 H 0.53251 0.29114 0.13616 0.0
H264 H 0.41299 0.30044 0.10077 0.0
H265 H 0.40867 0.3442 0.18866 0.0
H266 H 0.40597 0.29092 0.42815 0.0
H267 H 0.41484 0.24703 0.3396 0.0
N268 N 0.45188 0.22853 0.21647 0.0
N269 N 0.49677 0.23194 0.13687 0.0
N270 N 0.45845 0.26595 0.11161 0.0
C271 C 0.47903 0.21733 0.19714 0.0
C272 C 0.48578 0.2561 0.09208 0.0
C273 C 0.44146 0.25291 0.17432 0.0
C274 C 0.48865 0.19064 0.24869 0.0
C275 C 0.51706 0.18784 0.28571 0.0
C276 C 0.52297 0.1659 0.35075 0.0
C277 C 0.50062 0.14628 0.37946 0.0
C278 C 0.47302 0.14791 0.33718 0.0
C279 C 0.46714 0.16969 0.27319 0.0
C280 C 0.50326 0.27582 0.03273 0.0
C281 C 0.49116 0.28313 0.94905 0.0
C282 C 0.49677 0.31061 0.9086 0.0
C283 C 0.51447 0.33175 0.95112 0.0
C284 C 0.52907 0.32321 0.03025 0.0
C285 C 0.52345 0.29562 0.0707 0.0
C286 C 0.41759 0.27086 0.21403 0.0
C287 C 0.41053 0.29779 0.17215 0.0
C288 C 0.96062 0.06129 0.51969 0.0
Eu289 Eu 0.98359 0.03636 0.65963 0.0
C290 C 0.97783 0.07452 0.44654 0.0
C291 C 0.97136 0.10318 0.41706 0.0
C292 C 0.9928 0.11972 0.37208 0.0
C293 C 0.02117 0.10796 0.35732 0.0
C294 C 0.02644 0.07828 0.3788 0.0
C295 C 1.0049 0.06166 0.42255 0.0
C296 C 0.9569 0.01845 0.81465 0.0
C297 C 1.00709 0.08665 0.79248 0.0
C298 C 0.05913 1.00113 0.92426 0.0
Eu299 Eu 0.02678 0.02022 0.79255 0.0
C300 C 0.08325 0.98055 0.94441 0.0
C301 C 0.10323 0.98761 1.01218 0.0
C302 C 0.1241 0.96694 0.04074 0.0
C303 C 0.12519 0.93884 1.00197 0.0
C304 C 0.10643 0.93261 0.92983 0.0
C305 C 0.08565 0.95337 0.90105 0.0
C306 C 0.05195 0.03984 0.63664 0.0
C307 C 1.00287 0.96826 0.66101 0.0
O308 O 0.96264 0.03271 0.52906 0.0
O309 O 0.96352 0.07482 0.59547 0.0
O310 O 0.94604 1.01444 0.73581 0.0
O311 O 0.97997 0.03379 0.80787 0.0
O312 O 1.00135 0.08114 0.7079 0.0
O313 O 1.0123 0.0642 0.84609 0.0
O314 O 0.03346 0.98978 0.90351 0.0
O315 O 0.06592 0.02416 0.87579 0.0
O316 O 0.06103 0.04671 0.71536 0.0
O317 O 0.0303 0.0226 0.64387 0.0
O318 O 0.01683 0.97432 0.73617 0.0
O319 O 0.99035 0.98952 0.6141 0.0
H320 H 0.95071 0.1136 0.43519 0.0
H321 H 0.98792 0.14244 0.35464 0.0
H322 H 0.04799 0.06865 0.36892 0.0
H323 H 1.01044 0.03957 0.44467 0.0
H324 H 0.10183 1.00865 0.0458 0.0
H325 H 0.13824 0.97229 0.0965 0.0
H326 H 0.1063 0.91095 0.89985 0.0
H327 H 0.07056 0.94763 0.84798 0.0
C328 C 0.50317 0.96584 0.65726 0.0
Eu329 Eu 0.52255 1.00701 0.7621 0.0
C330 C 0.47483 0.95027 0.65707 0.0
C331 C 0.45985 0.94527 0.73777 0.0
C332 C 0.42936 0.94116 0.73786 0.0
C333 C 0.41372 0.94252 0.65761 0.0
C334 C 0.42919 0.94313 0.57667 0.0
C335 C 0.45972 0.94705 0.57641 0.0
C336 C 0.54162 0.99186 0.92884 0.0
C337 C 0.46635 0.03208 0.87539 0.0
C338 C 0.54672 0.09763 0.98225 0.0
Eu339 Eu 0.53114 0.05733 0.8682 0.0
C340 C 0.56941 0.12002 0.99763 0.0
C341 C 0.56415 0.14222 0.06009 0.0
C342 C 0.58688 0.16127 0.08493 0.0
C343 C 0.61512 0.15836 0.04731 0.0
C344 C 0.61964 0.13735 0.98018 0.0
C345 C 0.59693 0.11828 0.95567 0.0
C346 C 0.51202 0.07246 0.70133 0.0
C347 C 0.58696 0.03307 0.74945 0.0
O348 O 0.50121 0.994 0.63862 0.0
O349 O 0.52049 0.96061 0.72493 0.0
O350 O 0.55257 0.98191 0.85535 0.0
O351 O 0.522 1.01094 0.91111 0.0
O352 O 0.47487 0.01684 0.80523 0.0
O353 O 0.48582 0.04718 0.92092 0.0
O354 O 0.55517 0.07005 0.98727 0.0
O355 O 0.5286 0.10255 0.91642 0.0
O356 O 0.50155 0.08304 0.77455 0.0
O357 O 0.53161 0.05343 0.7192 0.0
O358 O 0.57857 0.0494 0.81789 0.0
O359 O 0.56777 1.01618 0.70859 0.0
H360 H 0.47106 0.94769 0.801 0.0
H361 H 0.41764 0.94052 0.80069 0.0
H362 H 0.41737 0.9444 0.51405 0.0
H363 H 0.47092 0.95089 0.51364 0.0
H364 H 0.54291 0.1439 0.09283 0.0
H365 H 0.58288 0.17714 0.13718 0.0
H366 H 0.64133 0.1341 0.95154 0.0
H367 H 0.60127 0.10117 0.90767 0.0
C368 C 0.55026 0.47643 0.53172 0.0
Eu369 Eu 0.53333 0.50412 0.67303 0.0
C370 C 0.53067 0.4571 0.4802 0.0
C371 C 0.54004 0.42913 0.45327 0.0
C372 C 0.51932 0.40831 0.42491 0.0
C373 C 0.48888 0.41491 0.4261 0.0
C374 C 0.47995 0.44364 0.44676 0.0
C375 C 0.50066 0.4645 0.47298 0.0
C376 C 0.56547 0.52182 0.81711 0.0
C377 C 0.51135 0.45448 0.81531 0.0
C378 C 0.46741 0.54747 0.9441 0.0
Eu379 Eu 0.49518 0.52156 0.81552 0.0
C380 C 0.44975 0.57452 0.94156 0.0
C381 C 0.43782 0.58446 0.8603 0.0
C382 C 0.42788 0.61348 0.85139 0.0
C383 C 0.43016 0.63291 0.92316 0.0
C384 C 0.43944 0.62204 1.00658 0.0
C385 C 0.44927 0.59299 1.01563 0.0
C386 C 0.46436 0.5027 0.6707 0.0
C387 C 0.51906 0.57276 0.676 0.0
O388 O 0.54319 0.50435 0.53088 0.0
O389 O 0.55623 0.4669 0.61195 0.0
O390 O 0.57336 0.52578 0.73488 0.0
O391 O 0.54199 0.5068 0.81953 0.0
O392 O 0.51557 0.46016 0.72966 0.0
O393 O 0.50748 0.47677 0.86967 0.0
O394 O 0.49551 0.55152 0.92805 0.0
O395 O 0.45653 0.52502 0.90104 0.0
O396 O 0.45828 0.49529 0.752 0.0
O397 O 0.4867 0.51935 0.66921 0.0
O398 O 0.50435 0.56649 0.74982 0.0
O399 O 0.53212 0.55188 0.63025 0.0
H400 H 0.56308 0.42293 0.45822 0.0
H401 H 0.52706 0.38673 0.40521 0.0
H402 H 0.45682 0.44961 0.44728 0.0
H403 H 0.49298 0.48598 0.4929 0.0
H404 H 0.43818 0.5705 0.80206 0.0
H405 H 0.42052 0.62136 0.78696 0.0
H406 H 0.44164 0.63671 0.06282 0.0
H407 H 0.45858 0.58571 0.0785 0.0
C408 C 0.05768 0.55375 0.53037 0.0
Eu409 Eu 0.028 0.53733 0.66972 0.0
C410 C 0.07421 0.53298 0.47458 0.0
C411 C 0.10305 0.53948 0.44757 0.0
C412 C 0.12162 0.51684 0.41856 0.0
C413 C 0.11184 0.48728 0.41905 0.0
C414 C 0.0822 0.48136 0.43866 0.0
C415 C 0.06356 0.50402 0.46578 0.0
C416 C 1.01012 0.57175 0.80945 0.0
C417 C 0.07518 0.51458 0.81415 0.0
C418 C 0.98276 0.4742 0.94454 0.0
Eu419 Eu 1.00795 0.5016 0.81195 0.0
C420 C 0.96014 0.45123 0.95076 0.0
C421 C 0.94426 0.4427 0.875 0.0
C422 C 0.9214 0.42215 0.88258 0.0
C423 C 0.91427 0.40977 0.96591 0.0
C424 C 0.93129 0.4174 0.04067 0.0
C425 C 0.95408 0.43796 0.03303 0.0
C426 C 0.02667 0.46837 0.67049 0.0
C427 C 0.95911 0.52418 0.66699 0.0
O428 O 0.02905 0.55076 0.52971 0.0
O429 O 0.06796 0.55617 0.61103 0.0
O430 O 1.00643 0.57837 0.72613 0.0
O431 O 0.02443 0.5479 0.81544 0.0
O432 O 0.07027 0.51669 0.72766 0.0
O433 O 0.05224 0.51435 0.8676 0.0
O434 O 0.97392 0.49988 0.91434 0.0
O435 O 1.0077 0.46588 0.90955 0.0
O436 O 0.03263 0.46268 0.75284 0.0
O437 O 1.01103 0.49133 0.66606 0.0
O438 O 0.96364 0.51436 0.74896 0.0
O439 O 0.98173 0.53207 0.61739 0.0
H440 H 0.11173 0.56163 0.45397 0.0
H441 H 0.14404 0.52229 0.39976 0.0
H442 H 0.0739 0.45899 0.43836 0.0
H443 H 0.04134 0.49854 0.48608 0.0
H444 H 0.94898 0.45259 0.81066 0.0
H445 H 0.9085 0.41683 0.82415 0.0
H446 H 0.92584 0.40888 0.1062 0.0
H447 H 0.96631 0.44423 0.09192 0.0
C448 C 0.08841 0.02192 0.41413 0.0
C449 C 0.11163 0.04263 0.40794 0.0
C450 C 0.06871 0.0216 0.48671 0.0
C451 C 0.07111 0.04217 0.55611 0.0
H452 H 0.08562 1.00543 0.36305 0.0
H453 H 0.05187 1.00466 0.48931 0.0
S454 S 0.12696 0.10163 0.5728 0.0
N455 N 0.13536 0.08449 0.47966 0.0
N456 N 0.09766 0.08448 0.61284 0.0
C457 C 0.09347 0.06354 0.54978 0.0
C458 C 0.11376 0.06373 0.47653 0.0
C459 C 0.48268 0.12614 0.52629 0.0
C460 C 0.50439 0.12624 0.45899 0.0
C461 C 0.48517 0.10815 0.60254 0.0
C462 C 0.50934 0.08908 0.61523 0.0
H463 H 0.46372 0.1406 0.52093 0.0
H464 H 0.46803 0.10946 0.65264 0.0
S465 S 0.57206 0.08003 0.45861 0.0
N466 N 0.55081 0.105 0.40978 0.0
N467 N 0.5554 0.07103 0.55283 0.0
C468 C 0.53107 0.08847 0.54801 0.0
C469 C 0.52868 0.10713 0.47035 0.0
C470 C 0.40062 0.47291 0.53252 0.0
C471 C 0.40018 0.4912 0.45606 0.0
C472 C 0.42133 0.47695 0.60102 0.0
C473 C 0.44278 0.49933 0.59628 0.0
H474 H 0.38465 0.45528 0.53987 0.0
H475 H 0.42068 0.46215 0.65796 0.0
S476 S 0.45132 0.55362 0.41173 0.0
N477 N 0.42329 0.53282 0.38049 0.0
N478 N 0.46193 0.5406 0.50959 0.0
C479 C 0.44248 0.51808 0.52096 0.0
C480 C 0.42129 0.51399 0.45099 0.0
C481 C 1.01455 0.42531 0.45437 0.0
C482 C 0.03628 0.40303 0.45866 0.0
C483 C 1.01158 0.44649 0.52239 0.0
C484 C 0.03015 0.44624 0.59777 0.0
H485 H 1.00003 0.42673 0.39725 0.0
H486 H 0.99462 0.46322 0.51578 0.0
S487 S 0.08962 0.39198 0.64407 0.0
N488 N 0.07578 0.38153 0.54771 0.0
N489 N 0.07058 0.42142 0.6732 0.0
C490 C 0.05161 0.4239 0.60347 0.0
C491 C 0.05462 0.40237 0.53464 0.0
C492 C 0.88968 1.01415 0.96742 0.0
C493 C 0.90087 0.02339 0.05014 0.0
C494 C 0.90813 1.01124 0.89254 0.0
C495 C 0.93856 0.01751 0.89722 0.0
H496 H 0.86621 1.01055 0.95921 0.0
H497 H 0.8982 1.00523 0.82967 0.0
S498 S 0.97966 0.03805 0.10138 0.0
N499 N 0.94499 0.03548 0.13439 0.0
N500 N 0.9795 0.03022 0.99421 0.0
C501 C 0.95032 0.02499 0.98082 0.0
C502 C 0.93155 0.02791 0.05698 0.0
C503 C 0.55908 0.92808 0.0871 0.0
C504 C 0.54025 0.93261 0.16053 0.0
C505 C 0.56032 0.94812 1.01533 0.0
C506 C 0.54263 0.97369 1.01254 0.0
H507 H 0.57205 0.90808 0.08249 0.0
H508 H 0.57452 0.94279 0.95972 0.0
S509 S 0.49226 0.99829 0.19208 0.0
N510 N 0.50569 0.96664 0.22951 0.0
N511 N 0.50752 1.00382 0.0935 0.0
C512 C 0.52478 0.97941 0.08718 0.0
C513 C 0.52364 0.95902 0.16103 0.0
C514 C 0.59915 0.51062 0.04784 0.0
C515 C 0.62874 0.51967 0.03683 0.0
C516 C 0.57858 0.51252 0.97778 0.0
C517 C 0.58663 0.52354 0.89331 0.0
H518 H 0.59196 0.5012 0.11068 0.0
H519 H 0.55641 0.5044 0.98927 0.0
S520 S 0.66065 0.55204 0.83032 0.0
N521 N 0.66452 0.54131 0.93493 0.0
N522 N 0.62587 0.54548 0.80447 0.0
C523 C 0.6157 0.53403 0.88252 0.0
C524 C 0.6367 0.53199 0.95381 0.0
C525 C 0.0234 0.60951 0.03272 0.0
C526 C 1.01329 0.63863 0.01843 0.0
C527 C 0.02124 0.58781 0.96631 0.0
C528 C 1.00903 0.59423 0.88211 0.0
H529 H 0.03367 0.60353 0.0954 0.0
H530 H 0.03005 0.56605 0.98038 0.0
S531 S 0.97796 0.66655 0.81125 0.0
N532 N 0.98961 0.67225 0.91381 0.0
N533 N 0.98525 0.6316 0.78994 0.0
C534 C 0.99779 0.62291 0.86799 0.0
C535 C 0.99995 0.64501 0.93574 0.0
C536 C 0.07112 0.17472 0.35705 0.0
C537 C 0.09258 0.16852 0.29166 0.0
C538 C 0.04867 0.15483 0.37779 0.0
C539 C 0.0461 0.1278 0.33356 0.0
H540 H 0.07028 0.1959 0.38968 0.0
H541 H 0.0328 0.16103 0.42825 0.0
S542 S 0.0976 0.09879 0.16338 0.0
N543 N 0.11136 0.13133 0.18959 0.0
N544 N 0.06784 0.09459 0.22553 0.0
C545 C 0.06802 0.12032 0.2714 0.0
C546 C 0.09146 0.14049 0.25109 0.0
C547 C 0.33368 0.95049 0.59623 0.0
C548 C 0.32953 0.981 0.6086 0.0
C549 C 0.36035 0.9369 0.62025 0.0
C550 C 0.38323 0.95349 0.65776 0.0
H551 H 0.3177 0.93781 0.55893 0.0
H552 H 0.36399 0.91404 0.6027 0.0
S553 S 0.38193 0.03333 0.71015 0.0
N554 N 0.34871 0.02633 0.67079 0.0
N555 N 0.3996 1.00147 0.70913 0.0
C556 C 0.37824 0.98334 0.67743 0.0
C557 C 0.35097 0.99687 0.65531 0.0
C558 C 0.42121 0.37538 0.33588 0.0
C559 C 0.42563 0.34595 0.36417 0.0
C560 C 0.44138 0.39768 0.35725 0.0
C561 C 0.46638 0.39168 0.40992 0.0
H562 H 0.40295 0.38097 0.29241 0.0
H563 H 0.43799 0.41948 0.32902 0.0
S564 S 0.4849 0.32032 0.51875 0.0
N565 N 0.45551 0.31322 0.45788 0.0
N566 N 0.49147 0.35578 0.50387 0.0
C567 C 0.46937 0.36327 0.44673 0.0
C568 C 0.44939 0.34032 0.4231 0.0
C569 C 0.14547 0.41626 0.33121 0.0
C570 C 0.17481 0.41752 0.36248 0.0
C571 C 0.12504 0.43854 0.35077 0.0
C572 C 0.13281 0.46256 0.40461 0.0
H573 H 0.13861 0.39883 0.28687 0.0
H574 H 0.10339 0.43753 0.32036 0.0
S575 S 0.20399 0.47315 0.52176 0.0
N576 N 0.20897 0.44347 0.4608 0.0
N577 N 0.16964 0.4834 0.50314 0.0
C578 C 0.16081 0.46243 0.44456 0.0
C579 C 0.18194 0.4403 0.4228 0.0
C580 C 0.14132 0.88251 0.17935 0.0
C581 C 0.15335 0.85892 0.13052 0.0
C582 C 0.13522 0.90965 0.13886 0.0
C583 C 0.14077 0.91431 0.04787 0.0
H584 H 0.13352 0.87927 0.24683 0.0
H585 H 0.12333 0.92595 0.17722 0.0
S586 S 0.18027 0.86328 0.89757 0.0
N587 N 0.17702 0.84461 0.99197 0.0
N588 N 0.16471 0.8957 0.91496 0.0
C589 C 0.15626 0.89246 1.00123 0.0
C590 C 0.16282 0.86479 0.04288 0.0
C591 C 0.6728 0.17084 0.22131 0.0
C592 C 0.69749 0.17962 0.17042 0.0
C593 C 0.64512 0.16721 0.1822 0.0
C594 C 0.64102 0.17202 0.09062 0.0
H595 H 0.67526 0.16362 0.28977 0.0
H596 H 0.62766 0.15764 0.22237 0.0
S597 S 0.69584 0.20357 0.93372 0.0
N598 N 0.71411 0.19973 0.02828 0.0
N599 N 0.66197 0.19181 0.95391 0.0
C600 C 0.66435 0.18437 0.04138 0.0
C601 C 0.69258 0.18851 0.08159 0.0
C602 C 0.42204 0.71275 0.97949 0.0
C603 C 0.44581 0.72495 0.93138 0.0
C604 C 0.41404 0.68317 0.96832 0.0
C605 C 0.42946 0.66517 0.90846 0.0
H606 H 0.4123 0.72471 0.03433 0.0
H607 H 0.39802 0.67353 1.01349 0.0
S608 S 0.48879 0.68911 0.75412 0.0
N609 N 0.48012 0.71913 0.80945 0.0
N610 N 0.4664 0.66303 0.79114 0.0
C611 C 0.45018 0.67844 0.85099 0.0
C612 C 0.45784 0.70865 0.86135 0.0
C613 C 0.83268 0.39969 0.98727 0.0
C614 C 0.83075 0.37825 0.0555 0.0
C615 C 0.85986 0.40738 0.9499 0.0
C616 C 0.88604 0.39385 0.97926 0.0
H617 H 0.81384 0.4133 0.97011 0.0
H618 H 0.86063 0.42629 0.90541 0.0
S619 S 0.89153 0.32956 0.13221 0.0
N620 N 0.85613 0.33834 0.1329 0.0
N621 N 0.90755 0.35314 0.0631 0.0
C622 C 0.88383 0.36931 0.03657 0.0
C623 C 0.85605 0.36132 0.07433 0.0
C624 C 1.00174 0.17126 0.80634 0.0
C625 C 1.005 0.17698 0.89811 0.0
C626 C 1.00219 0.14221 0.77268 0.0
C627 C 1.00625 0.11749 0.82906 0.0
H628 H 0.99889 0.18943 0.75991 0.0
H629 H 0.99961 0.13917 0.70167 0.0
S630 S 0.01659 0.12029 0.07473 0.0
N631 N 1.01311 0.15516 0.04435 0.0
N632 N 1.01357 0.1011 0.98232 0.0
C633 C 1.00943 0.12296 0.92109 0.0
C634 C 1.00888 0.15245 0.95519 0.0
C635 C 0.38808 1.00524 0.92556 0.0
C636 C 0.37388 0.03029 0.96129 0.0
C637 C 0.41791 1.00596 0.89894 0.0
C638 C 0.43486 0.03179 0.90496 0.0
H639 H 0.37607 0.9848 0.91741 0.0
H640 H 0.42783 0.98606 0.87346 0.0
S641 S 0.40982 0.10292 0.99957 0.0
N642 N 0.38058 0.08132 1.00698 0.0
N643 N 0.43586 0.08278 0.953 0.0
C644 C 0.42132 0.05686 0.94164 0.0
C645 C 0.39105 0.05614 0.96996 0.0
C646 C 0.51835 0.3699 0.82647 0.0
C647 C 0.51495 0.36324 0.91785 0.0
C648 C 0.51713 0.39922 0.79391 0.0
C649 C 0.51215 0.42332 0.85103 0.0
H650 H 0.52207 0.35226 0.77953 0.0
H651 H 0.52007 0.40296 0.72317 0.0
S652 S 0.49996 0.41781 0.09566 0.0
N653 N 0.50505 0.38337 0.06429 0.0
N654 N 0.50302 0.438 1.00423 0.0
C655 C 0.50847 0.41688 0.94256 0.0
C656 C 0.50981 0.38708 0.97556 0.0
C657 C 0.15985 0.51385 0.82768 0.0
C658 C 0.16565 0.51073 0.91959 0.0
C659 C 0.13075 0.51516 0.79426 0.0
C660 C 0.10601 0.51321 0.85107 0.0
H661 H 0.17801 0.51524 0.78095 0.0
H662 H 0.12769 0.5176 0.72308 0.0
S663 S 0.10893 0.50323 0.09703 0.0
N664 N 0.14388 0.50452 0.06639 0.0
N665 N 0.08964 0.50732 1.00458 0.0
C666 C 0.11153 0.51001 0.94318 0.0
C667 C 0.14112 0.50871 0.97708 0.0
C668 C 0.02756 0.8898 0.60253 0.0
C669 C 1.00579 0.88011 0.54198 0.0
C670 C 0.026 0.91776 0.6432 0.0
C671 C 1.00278 0.93753 0.6245 0.0
H672 H 0.04659 0.87608 0.61661 0.0
H673 H 0.04373 0.92432 0.68718 0.0
S674 S 0.93814 0.92189 0.48026 0.0
N675 N 0.95859 0.89184 0.47334 0.0
N676 N 0.95621 0.94437 0.54683 0.0
C677 C 0.98036 0.92778 0.56665 0.0
C678 C 0.98173 0.8992 0.52621 0.0
C679 C 0.65745 1.01156 0.62706 0.0
C680 C 0.67428 0.0377 0.62618 0.0
C681 C 0.62973 1.01015 0.66912 0.0
C682 C 0.61759 0.03471 0.71303 0.0
H683 H 0.66565 0.992 0.59426 0.0
H684 H 0.61756 0.98959 0.66654 0.0
S685 S 0.65157 0.10897 0.72661 0.0
N686 N 0.67585 0.08925 0.67071 0.0
N687 N 0.62421 0.08624 0.75068 0.0
C688 C 0.63422 0.06089 0.71369 0.0
C689 C 0.66238 0.06246 0.67017 0.0
C690 C 0.5434 0.64741 0.57929 0.0
C691 C 0.51642 0.66141 0.55821 0.0
C692 C 0.54425 0.61881 0.61758 0.0
C693 C 0.51817 0.60337 0.63882 0.0
H694 H 0.56407 0.65823 0.56348 0.0
H695 H 0.56549 0.6087 0.63072 0.0
S696 S 0.44184 0.62956 0.59879 0.0
N697 N 0.46282 0.65692 0.56274 0.0
N698 N 0.46475 0.60394 0.63579 0.0
C699 C 0.49116 0.61713 0.6196 0.0
C700 C 0.4902 0.64584 0.57889 0.0
C701 C 0.87527 0.51515 0.64568 0.0
C702 C 0.86968 0.52061 0.55459 0.0
C703 C 0.90393 0.51703 0.68168 0.0
C704 C 0.92849 0.52449 0.62842 0.0
H705 H 0.85734 0.50886 0.68957 0.0
H706 H 0.90686 0.51207 0.75176 0.0
S707 S 0.92608 0.54095 0.3855 0.0
N708 N 0.89146 0.53375 0.41193 0.0
N709 N 0.94491 0.53786 0.4791 0.0
C710 C 0.92311 0.53071 0.53753 0.0
C711 C 0.89391 0.52868 0.5009 0.0
loop_
_geom_bond_atom_site_label_1
_geom_bond_atom_site_label_2
_geom_bond_distance
_geom_bond_site_symmetry_2
_ccdc_geom_bond_type
C0 C1 1.384 . S
C0 H13 0.947 . S
C0 C35 1.382 . S
C1 C0 1.384 . S
C1 C2 1.378 . S
C2 C1 1.378 . S
C2 C3 1.378 . S
C2 H14 0.952 . S
C3 C2 1.378 . S
C3 H15 0.950 . S
C3 C34 1.383 . S
H4 C23 0.947 . S
H5 C24 0.946 . S
H6 C26 0.953 . S
H7 C27 0.945 . S
H8 C29 0.952 . S
H9 C30 0.949 . S
H10 C32 0.950 . S
H11 C33 0.948 . S
H12 C35 0.951 . S
H13 C0 0.947 . S
H14 C2 0.952 . S
H15 C3 0.950 . S
N16 C19 1.382 . S
N16 C21 1.363 . S
N17 C19 1.371 . S
N17 C20 1.372 . S
N18 C20 1.361 . S
N18 C21 1.377 . S
C19 N16 1.382 . S
C19 N17 1.371 . S
C19 C22 1.480 . S
C20 N17 1.372 . S
C20 N18 1.361 . S
C20 C28 1.457 . S
C21 N16 1.363 . S
C21 N18 1.377 . S
C21 C34 1.479 . S
C22 C19 1.480 . S
C22 C23 1.383 . S
C22 C27 1.385 . S
C23 H4 0.947 . S
C23 C22 1.383 . S
C23 C24 1.388 . S
C24 H5 0.946 . S
C24 C23 1.388 . S
C24 C25 1.384 . S
C25 C24 1.384 . S
C25 C26 1.377 . S
C26 H6 0.953 . S
C26 C25 1.377 . S
C26 C27 1.369 . S
C27 H7 0.945 . S
C27 C22 1.385 . S
C27 C26 1.369 . S
C28 C20 1.457 . S
C28 C29 1.372 . S
C28 C33 1.364 . S
C29 H8 0.952 . S
C29 C28 1.372 . S
C29 C30 1.389 . S
C30 H9 0.949 . S
C30 C29 1.389 . S
C30 C31 1.387 . S
C31 C30 1.387 . S
C31 C32 1.372 . S
C32 H10 0.950 . S
C32 C31 1.372 . S
C32 C33 1.379 . S
C33 H11 0.948 . S
C33 C28 1.364 . S
C33 C32 1.379 . S
C34 C3 1.383 . S
C34 C21 1.479 . S
C34 C35 1.398 . S
C35 C0 1.382 . S
C35 H12 0.951 . S
C35 C34 1.398 . S
C36 C37 1.384 1_655 S
C36 H49 0.948 . S
C36 C71 1.382 1_655 S
C37 C36 1.384 1_455 S
C37 C38 1.378 . S
C38 C37 1.378 . S
C38 C39 1.378 . S
C38 H50 0.952 . S
C39 C38 1.378 . S
C39 H51 0.950 . S
C39 C70 1.383 . S
H40 C59 0.947 . S
H41 C60 0.952 . S
H42 C62 0.953 . S
H43 C63 0.945 . S
H44 C65 0.949 1_655 S
H45 C66 0.949 . S
H46 C68 0.950 . S
H47 C69 0.948 . S
H48 C71 0.951 1_655 S
H49 C36 0.948 . S
H50 C38 0.952 . S
H51 C39 0.950 . S
N52 C55 1.382 . S
N52 C57 1.363 . S
N53 C55 1.371 . S
N53 C56 1.372 . S
N54 C56 1.361 . S
N54 C57 1.377 . S
C55 N52 1.382 . S
C55 N53 1.371 . S
C55 C58 1.480 . S
C56 N53 1.372 . S
C56 N54 1.361 . S
C56 C64 1.457 . S
C57 N52 1.363 . S
C57 N54 1.377 . S
C57 C70 1.479 . S
C58 C55 1.480 . S
C58 C59 1.383 . S
C58 C63 1.385 . S
C59 H40 0.947 . S
C59 C58 1.383 . S
C59 C60 1.386 1_455 S
C60 H41 0.952 . S
C60 C59 1.386 1_655 S
C60 C61 1.381 1_655 S
C61 C60 1.381 1_455 S
C61 C62 1.377 . S
C62 H42 0.953 . S
C62 C61 1.377 . S
C62 C63 1.369 . S
C63 H43 0.945 . S
C63 C58 1.385 . S
C63 C62 1.369 . S
C64 C56 1.457 . S
C64 C65 1.377 . S
C64 C69 1.364 . S
C65 H44 0.949 1_455 S
C65 C64 1.377 . S
C65 C66 1.387 1_455 S
C66 H45 0.949 . S
C66 C65 1.387 1_655 S
C66 C67 1.387 1_655 S
C67 C66 1.387 1_455 S
C67 C68 1.372 . S
C68 H46 0.950 . S
C68 C67 1.372 . S
C68 C69 1.379 . S
C69 H47 0.948 . S
C69 C64 1.364 . S
C69 C68 1.379 . S
C70 C39 1.383 . S
C70 C57 1.479 . S
C70 C71 1.398 . S
C71 C36 1.382 1_455 S
C71 H48 0.951 1_455 S
C71 C70 1.398 . S
C72 C73 1.384 1_565 S
C72 H85 0.948 . S
C72 C107 1.382 1_565 S
C73 C72 1.384 1_545 S
C73 C74 1.378 . S
C74 C73 1.378 . S
C74 C75 1.378 . S
C74 H86 0.952 . S
C75 C74 1.378 . S
C75 H87 0.950 . S
C75 C106 1.383 . S
H76 C95 0.947 . S
H77 C96 0.952 . S
H78 C98 0.953 . S
H79 C99 0.945 . S
H80 C101 0.949 1_565 S
H81 C102 0.949 . S
H82 C104 0.950 . S
H83 C105 0.948 . S
H84 C107 0.951 1_565 S
H85 C72 0.948 . S
H86 C74 0.952 . S
H87 C75 0.950 . S
N88 C91 1.382 . S
N88 C93 1.363 . S
N89 C91 1.371 . S
N89 C92 1.372 . S
N90 C92 1.361 . S
N90 C93 1.377 . S
C91 N88 1.382 . S
C91 N89 1.371 . S
C91 C94 1.480 . S
C92 N89 1.372 . S
C92 N90 1.361 . S
C92 C100 1.457 . S
C93 N88 1.363 . S
C93 N90 1.377 . S
C93 C106 1.479 . S
C94 C91 1.480 . S
C94 C95 1.383 . S
C94 C99 1.385 . S
C95 H76 0.947 . S
C95 C94 1.383 . S
C95 C96 1.386 1_545 S
C96 H77 0.952 . S
C96 C95 1.386 1_565 S
C96 C97 1.382 1_565 S
C97 C96 1.382 1_545 S
C97 C98 1.377 . S
C98 H78 0.953 . S
C98 C97 1.377 . S
C98 C99 1.369 . S
C99 H79 0.945 . S
C99 C94 1.385 . S
C99 C98 1.369 . S
C100 C92 1.457 . S
C100 C101 1.377 . S
C100 C105 1.364 . S
C101 H80 0.949 1_545 S
C101 C100 1.377 . S
C101 C102 1.387 1_545 S
C102 H81 0.949 . S
C102 C101 1.387 1_565 S
C102 C103 1.387 1_565 S
C103 C102 1.387 1_545 S
C103 C104 1.372 . S
C104 H82 0.950 . S
C104 C103 1.372 . S
C104 C105 1.379 . S
C105 H83 0.948 . S
C105 C100 1.364 . S
C105 C104 1.379 . S
C106 C75 1.383 . S
C106 C93 1.479 . S
C106 C107 1.398 . S
C107 C72 1.382 1_545 S
C107 H84 0.951 1_545 S
C107 C106 1.398 . S
C108 C109 1.384 . S
C108 H121 0.947 . S
C108 C143 1.382 . S
C109 C108 1.384 . S
C109 C110 1.378 . S
C110 C109 1.378 . S
C110 C111 1.378 . S
C110 H122 0.952 . S
C111 C110 1.378 . S
C111 H123 0.950 . S
C111 C142 1.383 . S
H112 C131 0.947 . S
H113 C132 0.946 . S
H114 C134 0.953 . S
H115 C135 0.945 . S
H116 C137 0.952 . S
H117 C138 0.949 . S
H118 C140 0.950 . S
H119 C141 0.948 . S
H120 C143 0.951 . S
H121 C108 0.947 . S
H122 C110 0.952 . S
H123 C111 0.950 . S
N124 C127 1.382 . S
N124 C129 1.363 . S
N125 C127 1.371 . S
N125 C128 1.372 . S
N126 C128 1.361 . S
N126 C129 1.377 . S
C127 N124 1.382 . S
C127 N125 1.371 . S
C127 C130 1.480 . S
C128 N125 1.372 . S
C128 N126 1.361 . S
C128 C136 1.457 . S
C129 N124 1.363 . S
C129 N126 1.377 . S
C129 C142 1.479 . S
C130 C127 1.480 . S
C130 C131 1.383 . S
C130 C135 1.385 . S
C131 H112 0.947 . S
C131 C130 1.383 . S
C131 C132 1.388 . S
C132 H113 0.946 . S
C132 C131 1.388 . S
C132 C133 1.384 . S
C133 C132 1.384 . S
C133 C134 1.377 . S
C134 H114 0.953 . S
C134 C133 1.377 . S
C134 C135 1.369 . S
C135 H115 0.945 . S
C135 C130 1.385 . S
C135 C134 1.369 . S
C136 C128 1.457 . S
C136 C137 1.372 . S
C136 C141 1.364 . S
C137 H116 0.952 . S
C137 C136 1.372 . S
C137 C138 1.389 . S
C138 H117 0.949 . S
C138 C137 1.389 . S
C138 C139 1.387 . S
C139 C138 1.387 . S
C139 C140 1.372 . S
C140 H118 0.950 . S
C140 C139 1.372 . S
C140 C141 1.379 . S
C141 H119 0.948 . S
C141 C136 1.364 . S
C141 C140 1.379 . S
C142 C111 1.383 . S
C142 C129 1.479 . S
C142 C143 1.398 . S
C143 C108 1.382 . S
C143 H120 0.951 . S
C143 C142 1.398 . S
C144 C145 1.384 . S
C144 H157 0.947 . S
C144 C179 1.382 . S
C145 C144 1.384 . S
C145 C146 1.378 . S
C146 C145 1.378 . S
C146 C147 1.378 . S
C146 H158 0.952 . S
C147 C146 1.378 . S
C147 H159 0.950 . S
C147 C178 1.383 . S
H148 C167 0.947 1_556 S
H149 C168 0.946 . S
H150 C170 0.953 . S
H151 C171 0.945 . S
H152 C173 0.952 . S
H153 C174 0.949 . S
H154 C176 0.950 . S
H155 C177 0.948 . S
H156 C179 0.951 . S
H157 C144 0.947 . S
H158 C146 0.952 . S
H159 C147 0.950 . S
N160 C163 1.382 1_556 S
N160 C165 1.363 . S
N161 C163 1.371 . S
N161 C164 1.372 . S
N162 C164 1.361 . S
N162 C165 1.377 1_554 S
C163 N160 1.382 1_554 S
C163 N161 1.371 . S
C163 C166 1.480 . S
C164 N161 1.372 . S
C164 N162 1.361 . S
C164 C172 1.457 . S
C165 N160 1.363 . S
C165 N162 1.377 1_556 S
C165 C178 1.479 . S
C166 C163 1.480 . S
C166 C167 1.383 . S
C166 C171 1.385 . S
C167 H148 0.947 1_554 S
C167 C166 1.383 . S
C167 C168 1.388 . S
C168 H149 0.946 . S
C168 C167 1.388 . S
C168 C169 1.384 . S
C169 C168 1.384 . S
C169 C170 1.377 . S
C170 H150 0.953 . S
C170 C169 1.377 . S
C170 C171 1.369 . S
C171 H151 0.945 . S
C171 C166 1.385 . S
C171 C170 1.369 . S
C172 C164 1.457 . S
C172 C173 1.372 . S
C172 C177 1.364 . S
C173 H152 0.952 . S
C173 C172 1.372 . S
C173 C174 1.389 . S
C174 H153 0.949 . S
C174 C173 1.389 . S
C174 C175 1.387 . S
C175 C174 1.387 . S
C175 C176 1.372 . S
C176 H154 0.950 . S
C176 C175 1.372 . S
C176 C177 1.379 . S
C177 H155 0.948 . S
C177 C172 1.364 . S
C177 C176 1.379 . S
C178 C147 1.383 . S
C178 C165 1.479 . S
C178 C179 1.398 . S
C179 C144 1.382 . S
C179 H156 0.951 . S
C179 C178 1.398 . S
C180 C181 1.384 1_655 S
C180 H193 0.947 . S
C180 C215 1.382 1_655 S
C181 C180 1.384 1_455 S
C181 C182 1.378 . S
C182 C181 1.378 . S
C182 C183 1.378 . S
C182 H194 0.952 . S
C183 C182 1.378 . S
C183 H195 0.950 . S
C183 C214 1.383 . S
H184 C203 0.947 1_556 S
H185 C204 0.950 . S
H186 C206 0.953 . S
H187 C207 0.945 . S
H188 C209 0.947 1_655 S
H189 C210 0.954 . S
H190 C212 0.950 . S
H191 C213 0.948 . S
H192 C215 0.950 1_655 S
H193 C180 0.947 . S
H194 C182 0.952 . S
H195 C183 0.950 . S
N196 C199 1.382 1_556 S
N196 C201 1.363 . S
N197 C199 1.371 . S
N197 C200 1.372 . S
N198 C200 1.361 . S
N198 C201 1.377 1_554 S
C199 N196 1.382 1_554 S
C199 N197 1.371 . S
C199 C202 1.480 . S
C200 N197 1.372 . S
C200 N198 1.361 . S
C200 C208 1.457 . S
C201 N196 1.363 . S
C201 N198 1.377 1_556 S
C201 C214 1.479 . S
C202 C199 1.480 . S
C202 C203 1.383 . S
C202 C207 1.385 . S
C203 H184 0.947 1_554 S
C203 C202 1.383 . S
C203 C204 1.387 1_455 S
C204 H185 0.950 . S
C204 C203 1.387 1_655 S
C204 C205 1.382 1_655 S
C205 C204 1.382 1_455 S
C205 C206 1.377 . S
C206 H186 0.953 . S
C206 C205 1.377 . S
C206 C207 1.369 . S
C207 H187 0.945 . S
C207 C202 1.385 . S
C207 C206 1.369 . S
C208 C200 1.457 . S
C208 C209 1.379 . S
C208 C213 1.364 . S
C209 H188 0.947 1_455 S
C209 C208 1.379 . S
C209 C210 1.387 1_455 S
C210 H189 0.954 . S
C210 C209 1.387 1_655 S
C210 C211 1.383 1_655 S
C211 C210 1.383 1_455 S
C211 C212 1.372 . S
C212 H190 0.950 . S
C212 C211 1.372 . S
C212 C213 1.379 . S
C213 H191 0.948 . S
C213 C208 1.364 . S
C213 C212 1.379 . S
C214 C183 1.383 . S
C214 C201 1.479 . S
C214 C215 1.399 . S
C215 C180 1.382 1_455 S
C215 H192 0.950 1_455 S
C215 C214 1.399 . S
C216 C217 1.384 1_565 S
C216 H229 0.947 . S
C216 C251 1.382 1_565 S
C217 C216 1.384 1_545 S
C217 C218 1.378 . S
C218 C217 1.378 . S
C218 C219 1.378 . S
C218 H230 0.952 . S
C219 C218 1.378 . S
C219 H231 0.950 . S
C219 C250 1.383 . S
H220 C239 0.947 1_556 S
H221 C240 0.950 . S
H222 C242 0.953 . S
H223 C243 0.945 . S
H224 C245 0.948 1_565 S
H225 C246 0.954 . S
H226 C248 0.950 . S
H227 C249 0.948 . S
H228 C251 0.950 1_565 S
H229 C216 0.947 . S
H230 C218 0.952 . S
H231 C219 0.950 . S
N232 C235 1.382 1_556 S
N232 C237 1.363 . S
N233 C235 1.371 . S
N233 C236 1.372 . S
N234 C236 1.361 . S
N234 C237 1.377 1_554 S
C235 N232 1.382 1_554 S
C235 N233 1.371 . S
C235 C238 1.480 . S
C236 N233 1.372 . S
C236 N234 1.361 . S
C236 C244 1.457 . S
C237 N232 1.363 . S
C237 N234 1.377 1_556 S
C237 C250 1.479 . S
C238 C235 1.480 . S
C238 C239 1.383 . S
C238 C243 1.385 . S
C239 H220 0.947 1_554 S
C239 C238 1.383 . S
C239 C240 1.387 1_545 S
C240 H221 0.950 . S
C240 C239 1.387 1_565 S
C240 C241 1.382 1_565 S
C241 C240 1.382 1_545 S
C241 C242 1.377 . S
C242 H222 0.953 . S
C242 C241 1.377 . S
C242 C243 1.369 . S
C243 H223 0.945 . S
C243 C238 1.385 . S
C243 C242 1.369 . S
C244 C236 1.457 . S
C244 C245 1.379 . S
C244 C249 1.364 . S
C245 H224 0.948 1_545 S
C245 C244 1.379 . S
C245 C246 1.387 1_545 S
C246 H225 0.954 . S
C246 C245 1.387 1_565 S
C246 C247 1.384 1_565 S
C247 C246 1.384 1_545 S
C247 C248 1.372 . S
C248 H226 0.950 . S
C248 C247 1.372 . S
C248 C249 1.379 . S
C249 H227 0.948 . S
C249 C244 1.364 . S
C249 C248 1.379 . S
C250 C219 1.383 . S
C250 C237 1.479 . S
C250 C251 1.399 . S
C251 C216 1.382 1_545 S
C251 H228 0.950 1_545 S
C251 C250 1.399 . S
C252 C253 1.384 . S
C252 H265 0.947 . S
C252 C287 1.382 . S
C253 C252 1.384 . S
C253 C254 1.378 . S
C254 C253 1.378 . S
C254 C255 1.378 . S
C254 H266 0.952 . S
C255 C254 1.378 . S
C255 H267 0.950 . S
C255 C286 1.383 . S
H256 C275 0.947 . S
H257 C276 0.946 . S
H258 C278 0.953 1_556 S
H259 C279 0.945 1_556 S
H260 C281 0.952 . S
H261 C282 0.949 . S
H262 C284 0.950 . S
H263 C285 0.948 . S
H264 C287 0.951 . S
H265 C252 0.947 . S
H266 C254 0.952 . S
H267 C255 0.950 . S
N268 C271 1.382 . S
N268 C273 1.363 . S
N269 C271 1.371 1_556 S
N269 C272 1.372 . S
N270 C272 1.361 1_554 S
N270 C273 1.377 . S
C271 N268 1.382 . S
C271 N269 1.371 1_554 S
C271 C274 1.480 . S
C272 N269 1.372 . S
C272 N270 1.361 1_556 S
C272 C280 1.457 . S
C273 N268 1.363 . S
C273 N270 1.377 . S
C273 C286 1.479 . S
C274 C271 1.480 . S
C274 C275 1.383 . S
C274 C279 1.385 . S
C275 H256 0.947 . S
C275 C274 1.383 . S
C275 C276 1.388 . S
C276 H257 0.946 . S
C276 C275 1.388 . S
C276 C277 1.384 . S
C277 C276 1.384 . S
C277 C278 1.377 . S
C278 H258 0.953 1_554 S
C278 C277 1.377 . S
C278 C279 1.369 . S
C279 H259 0.945 1_554 S
C279 C274 1.385 . S
C279 C278 1.369 . S
C280 C272 1.457 . S
C280 C281 1.372 . S
C280 C285 1.364 . S
C281 H260 0.952 . S
C281 C280 1.372 . S
C281 C282 1.389 . S
C282 H261 0.949 . S
C282 C281 1.389 . S
C282 C283 1.387 . S
C283 C282 1.387 . S
C283 C284 1.372 . S
C284 H262 0.950 . S
C284 C283 1.372 . S
C284 C285 1.379 . S
C285 H263 0.948 . S
C285 C280 1.364 . S
C285 C284 1.379 . S
C286 C255 1.383 . S
C286 C273 1.479 . S
C286 C287 1.398 . S
C287 C252 1.382 . S
C287 H264 0.951 . S
C287 C286 1.398 . S
C288 Eu289 2.835 . S
C288 C290 1.500 . S
C288 O308 1.257 . S
C288 O309 1.260 . S
Eu289 C288 2.835 . S
Eu289 O308 2.473 . S
Eu289 O309 2.480 . S
Eu289 O310 2.430 . S
Eu289 O311 2.670 1_545 S
Eu289 O312 2.394 . S
Eu289 O317 2.355 1_655 S
Eu289 O319 2.374 1_545 S
C290 C288 1.500 . S
C290 C291 1.377 . S
C290 C295 1.377 . S
C291 C290 1.377 . S
C291 C292 1.395 . S
C291 H320 0.931 . S
C292 C291 1.395 . S
C292 C293 1.383 . S
C292 H321 0.931 . S
C293 C292 1.383 . S
C293 C294 1.394 . S
C294 C293 1.394 . S
C294 C295 1.378 . S
C294 H322 0.905 1_655 S
C295 C290 1.377 . S
C295 C294 1.378 . S
C295 H323 0.931 1_655 S
C296 O310 1.259 . S
C296 O311 1.270 1_545 S
C297 O312 1.251 1_455 S
C297 O313 1.251 . S
C298 Eu299 2.835 . S
C298 C300 1.500 . S
C298 O314 1.257 . S
C298 O315 1.260 . S
Eu299 C298 2.835 . S
Eu299 O311 2.355 1_455 S
Eu299 O313 2.374 1_565 S
Eu299 O314 2.473 . S
Eu299 O315 2.480 . S
Eu299 O316 2.430 . S
Eu299 O317 2.670 1_565 S
Eu299 O318 2.394 . S
C300 C298 1.500 . S
C300 C301 1.377 . S
C300 C305 1.377 . S
C301 C300 1.377 . S
C301 C302 1.395 . S
C301 H324 0.931 . S
C302 C301 1.395 . S
C302 C303 1.383 1_556 S
C302 H325 0.931 . S
C303 C302 1.383 1_554 S
C303 C304 1.394 . S
C304 C303 1.394 . S
C304 C305 1.378 1_554 S
C304 H326 0.913 1_455 S
C305 C300 1.377 . S
C305 C304 1.378 1_556 S
C305 H327 0.931 1_455 S
C306 O316 1.259 . S
C306 O317 1.270 1_565 S
C307 O318 1.251 1_655 S
C307 O319 1.251 . S
O308 C288 1.257 . S
O308 Eu289 2.473 . S
O309 C288 1.260 . S
O309 Eu289 2.480 . S
O310 Eu289 2.430 . S
O310 C296 1.259 . S
O311 Eu289 2.670 1_565 S
O311 C296 1.270 1_565 S
O311 Eu299 2.355 1_655 S
O312 Eu289 2.394 . S
O312 C297 1.251 1_655 S
O313 C297 1.251 . S
O313 Eu299 2.374 1_545 S
O314 C298 1.257 . S
O314 Eu299 2.473 . S
O315 C298 1.260 . S
O315 Eu299 2.480 . S
O316 Eu299 2.430 . S
O316 C306 1.259 . S
O317 Eu289 2.355 1_455 S
O317 Eu299 2.670 1_545 S
O317 C306 1.270 1_545 S
O318 Eu299 2.394 . S
O318 C307 1.251 1_455 S
O319 Eu289 2.374 1_565 S
O319 C307 1.251 . S
H320 C291 0.931 . S
H321 C292 0.931 . S
H322 C294 0.905 1_455 S
H323 C295 0.931 1_455 S
H324 C301 0.931 . S
H325 C302 0.931 . S
H326 C304 0.913 1_655 S
H327 C305 0.931 1_655 S
C328 Eu329 2.835 . S
C328 C330 1.500 . S
C328 O348 1.257 . S
C328 O349 1.260 . S
Eu329 C328 2.835 . S
Eu329 O348 2.473 . S
Eu329 O349 2.480 . S
Eu329 O350 2.430 . S
Eu329 O351 2.670 . S
Eu329 O352 2.394 . S
Eu329 O357 2.355 1_565 S
Eu329 O359 2.374 . S
C330 C328 1.500 . S
C330 C331 1.377 . S
C330 C335 1.377 . S
C331 C330 1.377 . S
C331 C332 1.395 . S
C331 H360 0.931 . S
C332 C331 1.395 . S
C332 C333 1.383 . S
C332 H361 0.931 . S
C333 C332 1.383 . S
C333 C334 1.394 . S
C334 C333 1.394 . S
C334 C335 1.378 . S
C334 H362 0.931 1_565 S
C335 C330 1.377 . S
C335 C334 1.378 . S
C335 H363 0.931 1_565 S
C336 O350 1.259 . S
C336 O351 1.270 . S
C337 O352 1.251 1_545 S
C337 O353 1.251 . S
C338 Eu339 2.835 . S
C338 C340 1.500 . S
C338 O354 1.257 . S
C338 O355 1.260 . S
Eu339 C338 2.835 . S
Eu339 O351 2.355 1_545 S
Eu339 O353 2.374 . S
Eu339 O354 2.473 . S
Eu339 O355 2.480 . S
Eu339 O356 2.430 . S
Eu339 O357 2.670 . S
Eu339 O358 2.394 . S
C340 C338 1.500 . S
C340 C341 1.377 . S
C340 C345 1.377 . S
C341 C340 1.377 . S
C341 C342 1.395 . S
C341 H364 0.931 . S
C342 C341 1.395 . S
C342 C343 1.383 1_556 S
C342 H365 0.931 . S
C343 C342 1.383 1_554 S
C343 C344 1.394 . S
C344 C343 1.394 . S
C344 C345 1.378 1_554 S
C344 H366 0.931 1_545 S
C345 C340 1.377 . S
C345 C344 1.378 1_556 S
C345 H367 0.931 1_545 S
C346 O356 1.259 . S
C346 O357 1.270 . S
C347 O358 1.251 1_565 S
C347 O359 1.251 . S
O348 C328 1.257 . S
O348 Eu329 2.473 . S
O349 C328 1.260 . S
O349 Eu329 2.480 . S
O350 Eu329 2.430 . S
O350 C336 1.259 . S
O351 Eu329 2.670 . S
O351 C336 1.270 . S
O351 Eu339 2.355 1_565 S
O352 Eu329 2.394 . S
O352 C337 1.251 1_565 S
O353 C337 1.251 . S
O353 Eu339 2.374 . S
O354 C338 1.257 . S
O354 Eu339 2.473 . S
O355 C338 1.260 . S
O355 Eu339 2.480 . S
O356 Eu339 2.430 . S
O356 C346 1.259 . S
O357 Eu329 2.355 1_545 S
O357 Eu339 2.670 . S
O357 C346 1.270 . S
O358 Eu339 2.394 . S
O358 C347 1.251 1_545 S
O359 Eu329 2.374 . S
O359 C347 1.251 . S
H360 C331 0.931 . S
H361 C332 0.931 . S
H362 C334 0.931 1_545 S
H363 C335 0.931 1_545 S
H364 C341 0.931 . S
H365 C342 0.931 . S
H366 C344 0.931 1_565 S
H367 C345 0.931 1_565 S
C368 Eu369 2.835 . S
C368 C370 1.500 . S
C368 O388 1.257 . S
C368 O389 1.260 . S
Eu369 C368 2.835 . S
Eu369 O388 2.473 . S
Eu369 O389 2.480 . S
Eu369 O390 2.430 . S
Eu369 O391 2.670 . S
Eu369 O392 2.394 . S
Eu369 O397 2.355 . S
Eu369 O399 2.374 . S
C370 C368 1.500 . S
C370 C371 1.377 . S
C370 C375 1.377 . S
C371 C370 1.377 . S
C371 C372 1.395 . S
C371 H400 0.931 . S
C372 C371 1.395 . S
C372 C373 1.383 . S
C372 H401 0.931 . S
C373 C372 1.383 . S
C373 C374 1.394 . S
C374 C373 1.394 . S
C374 C375 1.378 . S
C374 H402 0.931 . S
C375 C370 1.377 . S
C375 C374 1.378 . S
C375 H403 0.931 . S
C376 O390 1.259 . S
C376 O391 1.270 . S
C377 O392 1.251 . S
C377 O393 1.251 . S
C378 Eu379 2.835 . S
C378 C380 1.500 . S
C378 O394 1.257 . S
C378 O395 1.260 . S
Eu379 C378 2.835 . S
Eu379 O391 2.355 . S
Eu379 O393 2.374 . S
Eu379 O394 2.473 . S
Eu379 O395 2.480 . S
Eu379 O396 2.430 . S
Eu379 O397 2.670 . S
Eu379 O398 2.394 . S
C380 C378 1.500 . S
C380 C381 1.377 . S
C380 C385 1.377 . S
C381 C380 1.377 . S
C381 C382 1.395 . S
C381 H404 0.931 . S
C382 C381 1.395 . S
C382 C383 1.383 1_556 S
C382 H405 0.932 . S
C383 C382 1.383 1_554 S
C383 C384 1.394 . S
C384 C383 1.394 . S
C384 C385 1.378 1_554 S
C384 H406 0.931 . S
C385 C380 1.377 . S
C385 C384 1.378 1_556 S
C385 H407 0.931 . S
C386 O396 1.259 . S
C386 O397 1.270 . S
C387 O398 1.251 . S
C387 O399 1.251 . S
O388 C368 1.257 . S
O388 Eu369 2.473 . S
O389 C368 1.260 . S
O389 Eu369 2.480 . S
O390 Eu369 2.430 . S
O390 C376 1.259 . S
O391 Eu369 2.670 . S
O391 C376 1.270 . S
O391 Eu379 2.355 . S
O392 Eu369 2.394 . S
O392 C377 1.251 . S
O393 C377 1.251 . S
O393 Eu379 2.374 . S
O394 C378 1.257 . S
O394 Eu379 2.473 . S
O395 C378 1.260 . S
O395 Eu379 2.480 . S
O396 Eu379 2.430 . S
O396 C386 1.259 . S
O397 Eu369 2.355 . S
O397 Eu379 2.670 . S
O397 C386 1.270 . S
O398 Eu379 2.394 . S
O398 C387 1.251 . S
O399 Eu369 2.374 . S
O399 C387 1.251 . S
H400 C371 0.931 . S
H401 C372 0.931 . S
H402 C374 0.931 . S
H403 C375 0.931 . S
H404 C381 0.931 . S
H405 C382 0.932 . S
H406 C384 0.931 . S
H407 C385 0.931 . S
C408 Eu409 2.835 . S
C408 C410 1.500 . S
C408 O428 1.257 . S
C408 O429 1.260 . S
Eu409 C408 2.835 . S
Eu409 O428 2.473 . S
Eu409 O429 2.480 . S
Eu409 O430 2.430 . S
Eu409 O431 2.670 1_455 S
Eu409 O432 2.394 . S
Eu409 O437 2.355 . S
Eu409 O439 2.374 1_455 S
C410 C408 1.500 . S
C410 C411 1.377 . S
C410 C415 1.377 . S
C411 C410 1.377 . S
C411 C412 1.395 . S
C411 H440 0.931 . S
C412 C411 1.395 . S
C412 C413 1.383 . S
C412 H441 0.931 . S
C413 C412 1.383 . S
C413 C414 1.394 . S
C414 C413 1.394 . S
C414 C415 1.378 . S
C414 H442 0.931 . S
C415 C410 1.377 . S
C415 C414 1.378 . S
C415 H443 0.931 . S
C416 O430 1.259 . S
C416 O431 1.270 1_455 S
C417 O432 1.251 . S
C417 O433 1.251 . S
C418 Eu419 2.835 . S
C418 C420 1.500 . S
C418 O434 1.257 . S
C418 O435 1.260 . S
Eu419 C418 2.835 . S
Eu419 O431 2.355 . S
Eu419 O433 2.374 1_655 S
Eu419 O434 2.473 . S
Eu419 O435 2.480 . S
Eu419 O436 2.430 . S
Eu419 O437 2.670 1_655 S
Eu419 O438 2.394 . S
C420 C418 1.500 . S
C420 C421 1.377 . S
C420 C425 1.377 . S
C421 C420 1.377 . S
C421 C422 1.395 . S
C421 H444 0.931 . S
C422 C421 1.395 . S
C422 C423 1.383 1_556 S
C422 H445 0.931 . S
C423 C422 1.383 1_554 S
C423 C424 1.394 . S
C424 C423 1.394 . S
C424 C425 1.378 1_554 S
C424 H446 0.931 . S
C425 C420 1.377 . S
C425 C424 1.378 1_556 S
C425 H447 0.931 . S
C426 O436 1.259 1_455 S
C426 O437 1.270 . S
C427 O438 1.251 . S
C427 O439 1.251 . S
O428 C408 1.257 . S
O428 Eu409 2.473 . S
O429 C408 1.260 . S
O429 Eu409 2.480 . S
O430 Eu409 2.430 . S
O430 C416 1.259 . S
O431 Eu409 2.670 1_655 S
O431 C416 1.270 1_655 S
O431 Eu419 2.355 . S
O432 Eu409 2.394 . S
O432 C417 1.251 . S
O433 C417 1.251 . S
O433 Eu419 2.374 1_455 S
O434 C418 1.257 . S
O434 Eu419 2.473 . S
O435 C418 1.260 . S
O435 Eu419 2.480 . S
O436 Eu419 2.430 . S
O436 C426 1.259 1_655 S
O437 Eu409 2.355 . S
O437 Eu419 2.670 1_455 S
O437 C426 1.270 . S
O438 Eu419 2.394 . S
O438 C427 1.251 . S
O439 Eu409 2.374 1_655 S
O439 C427 1.251 . S
H440 C411 0.931 . S
H441 C412 0.931 . S
H442 C414 0.931 . S
H443 C415 0.931 . S
H444 C421 0.931 . S
H445 C422 0.931 . S
H446 C424 0.931 . S
H447 C425 0.931 . S
C448 C449 1.364 1_565 S
C448 C450 1.419 . S
C448 H452 0.930 . S
C449 C448 1.364 1_545 S
C449 C458 1.434 . S
C450 C448 1.419 . S
C450 C451 1.358 1_565 S
C450 H453 0.929 . S
C451 C450 1.358 1_545 S
C451 C457 1.433 . S
H452 C448 0.930 . S
H453 C450 0.929 . S
S454 N455 1.613 . S
S454 N456 1.610 . S
N455 S454 1.613 . S
N455 C458 1.350 . S
N456 S454 1.610 . S
N456 C457 1.351 . S
C457 C451 1.433 . S
C457 N456 1.351 . S
C457 C458 1.434 . S
C458 C449 1.434 . S
C458 N455 1.350 . S
C458 C457 1.434 . S
C459 C460 1.369 . S
C459 C461 1.419 . S
C459 H463 0.930 . S
C460 C459 1.369 . S
C460 C469 1.429 . S
C461 C459 1.419 . S
C461 C462 1.363 . S
C461 H464 0.929 . S
C462 C461 1.363 . S
C462 C468 1.428 . S
H463 C459 0.930 . S
H464 C461 0.929 . S
S465 N466 1.613 . S
S465 N467 1.610 . S
N466 S465 1.613 . S
N466 C469 1.350 . S
N467 S465 1.610 . S
N467 C468 1.351 . S
C468 C462 1.428 . S
C468 N467 1.351 . S
C468 C469 1.434 . S
C469 C460 1.429 . S
C469 N466 1.350 . S
C469 C468 1.434 . S
C470 C471 1.369 . S
C470 C472 1.419 . S
C470 H474 0.930 . S
C471 C470 1.369 . S
C471 C480 1.429 . S
C472 C470 1.419 . S
C472 C473 1.363 . S
C472 H475 0.929 . S
C473 C472 1.363 . S
C473 C479 1.428 . S
H474 C470 0.930 . S
H475 C472 0.929 . S
S476 N477 1.613 . S
S476 N478 1.610 . S
N477 S476 1.613 . S
N477 C480 1.350 . S
N478 S476 1.610 . S
N478 C479 1.351 . S
C479 C473 1.428 . S
C479 N478 1.351 . S
C479 C480 1.434 . S
C480 C471 1.429 . S
C480 N477 1.350 . S
C480 C479 1.434 . S
C481 C482 1.337 1_655 S
C481 C483 1.419 . S
C481 H485 0.930 . S
C482 C481 1.337 1_455 S
C482 C491 1.462 . S
C483 C481 1.419 . S
C483 C484 1.363 1_655 S
C483 H486 0.929 . S
C484 C483 1.363 1_455 S
C484 C490 1.428 . S
H485 C481 0.930 . S
H486 C483 0.929 . S
S487 N488 1.613 . S
S487 N489 1.610 . S
N488 S487 1.613 . S
N488 C491 1.350 . S
N489 S487 1.610 . S
N489 C490 1.351 . S
C490 C484 1.428 . S
C490 N489 1.351 . S
C490 C491 1.434 . S
C491 C482 1.462 . S
C491 N488 1.350 . S
C491 C490 1.434 . S
C492 C493 1.358 1_565 S
C492 C494 1.419 . S
C492 H496 0.930 . S
C493 C492 1.358 1_545 S
C493 C502 1.440 . S
C494 C492 1.419 . S
C494 C495 1.355 1_564 S
C494 H497 0.929 1_554 S
C495 C494 1.355 1_546 S
C495 C501 1.437 1_556 S
H496 C492 0.930 . S
H497 C494 0.929 1_556 S
S498 N499 1.613 . S
S498 N500 1.610 . S
N499 S498 1.613 . S
N499 C502 1.350 . S
N500 S498 1.610 . S
N500 C501 1.351 . S
C501 C495 1.437 1_554 S
C501 N500 1.351 . S
C501 C502 1.434 . S
C502 C493 1.440 . S
C502 N499 1.350 . S
C502 C501 1.434 . S
C503 C504 1.369 . S
C503 C505 1.419 . S
C503 H507 0.930 . S
C504 C503 1.369 . S
C504 C513 1.429 . S
C505 C503 1.419 . S
C505 C506 1.363 1_554 S
C505 H508 0.929 1_554 S
C506 C505 1.363 1_556 S
C506 C512 1.428 1_556 S
H507 C503 0.930 . S
H508 C505 0.929 1_556 S
S509 N510 1.613 1_545 S
S509 N511 1.610 1_545 S
N510 S509 1.613 1_565 S
N510 C513 1.350 . S
N511 S509 1.610 1_565 S
N511 C512 1.351 . S
C512 C506 1.428 1_554 S
C512 N511 1.351 . S
C512 C513 1.434 . S
C513 C504 1.429 . S
C513 N510 1.350 . S
C513 C512 1.434 . S
C514 C515 1.369 . S
C514 C516 1.419 . S
C514 H518 0.930 . S
C515 C514 1.369 . S
C515 C524 1.429 . S
C516 C514 1.419 . S
C516 C517 1.363 1_554 S
C516 H519 0.929 . S
C517 C516 1.363 1_556 S
C517 C523 1.428 1_556 S
H518 C514 0.930 . S
H519 C516 0.929 . S
S520 N521 1.613 . S
S520 N522 1.610 1_554 S
N521 S520 1.613 . S
N521 C524 1.350 . S
N522 S520 1.610 1_556 S
N522 C523 1.351 1_556 S
C523 C517 1.428 1_554 S
C523 N522 1.351 1_554 S
C523 C524 1.434 . S
C524 C515 1.429 . S
C524 N521 1.350 . S
C524 C523 1.434 . S
C525 C526 1.373 . S
C525 C527 1.419 . S
C525 H529 0.930 . S
C526 C525 1.373 . S
C526 C535 1.426 1_655 S
C527 C525 1.419 . S
C527 C528 1.363 1_554 S
C527 H530 0.929 . S
C528 C527 1.363 1_556 S
C528 C534 1.428 1_656 S
H529 C525 0.930 . S
H530 C527 0.929 . S
S531 N532 1.613 . S
S531 N533 1.610 1_554 S
N532 S531 1.613 . S
N532 C535 1.350 . S
N533 S531 1.610 1_556 S
N533 C534 1.351 1_556 S
C534 C528 1.428 1_454 S
C534 N533 1.351 1_554 S
C534 C535 1.434 . S
C535 C526 1.426 1_455 S
C535 N532 1.350 . S
C535 C534 1.434 . S
C536 C537 1.361 1_655 S
C536 C538 1.419 . S
C536 H540 0.930 . S
C537 C536 1.361 1_455 S
C537 C546 1.428 1_455 S
C538 C536 1.419 . S
C538 C539 1.363 . S
C538 H541 0.929 . S
C539 C538 1.363 . S
C539 C545 1.428 . S
H540 C536 0.930 . S
H541 C538 0.929 . S
S542 N543 1.613 . S
S542 N544 1.610 1_455 S
N543 S542 1.613 . S
N543 C546 1.350 1_455 S
N544 S542 1.610 1_655 S
N544 C545 1.351 . S
C545 C539 1.428 . S
C545 N544 1.351 . S
C545 C546 1.434 . S
C546 C537 1.428 1_655 S
C546 N543 1.350 1_655 S
C546 C545 1.434 . S
C547 C548 1.342 1_565 S
C547 C549 1.419 . S
C547 H551 0.930 . S
C548 C547 1.342 1_545 S
C548 C557 1.436 . S
C549 C547 1.419 . S
C549 C550 1.363 . S
C549 H552 0.929 . S
C550 C549 1.363 . S
C550 C556 1.428 . S
H551 C547 0.930 . S
H552 C549 0.929 . S
S553 N554 1.613 . S
S553 N555 1.610 1_545 S
N554 S553 1.613 . S
N554 C557 1.350 . S
N555 S553 1.610 1_565 S
N555 C556 1.351 . S
C556 C550 1.428 . S
C556 N555 1.351 . S
C556 C557 1.434 1_565 S
C557 C548 1.436 . S
C557 N554 1.350 . S
C557 C556 1.434 1_545 S
C558 C559 1.369 . S
C558 C560 1.419 . S
C558 H562 0.930 . S
C559 C558 1.369 . S
C559 C568 1.429 . S
C560 C558 1.419 . S
C560 C561 1.363 . S
C560 H563 0.929 . S
C561 C560 1.363 . S
C561 C567 1.428 . S
H562 C558 0.930 . S
H563 C560 0.929 . S
S564 N565 1.613 . S
S564 N566 1.610 . S
N565 S564 1.613 . S
N565 C568 1.350 . S
N566 S564 1.610 . S
N566 C567 1.351 . S
C567 C561 1.428 . S
C567 N566 1.351 . S
C567 C568 1.434 . S
C568 C559 1.429 . S
C568 N565 1.350 . S
C568 C567 1.434 . S
C569 C570 1.369 . S
C569 C571 1.419 . S
C569 H573 0.930 . S
C570 C569 1.369 . S
C570 C579 1.429 . S
C571 C569 1.419 . S
C571 C572 1.363 . S
C571 H574 0.929 . S
C572 C571 1.363 . S
C572 C578 1.428 . S
H573 C569 0.930 . S
H574 C571 0.929 . S
S575 N576 1.613 . S
S575 N577 1.610 . S
N576 S575 1.613 . S
N576 C579 1.350 . S
N577 S575 1.610 . S
N577 C578 1.351 . S
C578 C572 1.428 . S
C578 N577 1.351 . S
C578 C579 1.434 . S
C579 C570 1.429 . S
C579 N576 1.350 . S
C579 C578 1.434 . S
C580 C581 1.369 1_455 S
C580 C582 1.419 . S
C580 H584 0.930 1_455 S
C581 C580 1.369 1_655 S
C581 C590 1.427 1_655 S
C582 C580 1.419 . S
C582 C583 1.363 . S
C582 H585 0.929 . S
C583 C582 1.363 . S
C583 C589 1.428 . S
H584 C580 0.930 1_655 S
H585 C582 0.929 . S
S586 N587 1.613 . S
S586 N588 1.610 . S
N587 S586 1.613 . S
N587 C590 1.350 1_556 S
N588 S586 1.610 . S
N588 C589 1.351 1_556 S
C589 C583 1.428 . S
C589 N588 1.351 1_554 S
C589 C590 1.434 . S
C590 C581 1.427 1_455 S
C590 N587 1.350 1_554 S
C590 C589 1.434 . S
C591 C592 1.370 1_565 S
C591 C593 1.419 1_565 S
C591 H595 0.930 . S
C592 C591 1.370 1_545 S
C592 C601 1.425 . S
C593 C591 1.419 1_545 S
C593 C594 1.363 . S
C593 H596 0.929 . S
C594 C593 1.363 . S
C594 C600 1.428 . S
H595 C591 0.930 . S
H596 C593 0.929 . S
S597 N598 1.613 . S
S597 N599 1.610 . S
N598 S597 1.613 . S
N598 C601 1.350 . S
N599 S597 1.610 . S
N599 C600 1.351 . S
C600 C594 1.428 . S
C600 N599 1.351 . S
C600 C601 1.434 . S
C601 C592 1.425 . S
C601 N598 1.350 . S
C601 C600 1.434 . S
C602 C603 1.369 . S
C602 C604 1.419 . S
C602 H606 0.930 . S
C603 C602 1.369 . S
C603 C612 1.429 . S
C604 C602 1.419 . S
C604 C605 1.363 . S
C604 H607 0.929 . S
C605 C604 1.363 . S
C605 C611 1.428 . S
H606 C602 0.930 . S
H607 C604 0.929 . S
S608 N609 1.613 . S
S608 N610 1.610 . S
N609 S608 1.613 . S
N609 C612 1.350 1_556 S
N610 S608 1.610 . S
N610 C611 1.351 1_556 S
C611 C605 1.428 . S
C611 N610 1.351 1_554 S
C611 C612 1.434 . S
C612 C603 1.429 . S
C612 N609 1.350 1_554 S
C612 C611 1.434 . S
C613 C614 1.369 . S
C613 C615 1.419 . S
C613 H617 0.930 1_554 S
C614 C613 1.369 . S
C614 C623 1.429 . S
C615 C613 1.419 . S
C615 C616 1.363 . S
C615 H618 0.929 1_554 S
C616 C615 1.363 . S
C616 C622 1.428 . S
H617 C613 0.930 1_556 S
H618 C615 0.929 1_556 S
S619 N620 1.613 . S
S619 N621 1.610 . S
N620 S619 1.613 . S
N620 C623 1.350 . S
N621 S619 1.610 . S
N621 C622 1.351 . S
C622 C616 1.428 . S
C622 N621 1.351 . S
C622 C623 1.434 . S
C623 C614 1.429 . S
C623 N620 1.350 . S
C623 C622 1.434 . S
C624 C625 1.369 . S
C624 C626 1.419 . S
C624 H628 0.930 . S
C625 C624 1.369 . S
C625 C634 1.434 . S
C626 C624 1.419 . S
C626 C627 1.363 . S
C626 H629 0.929 . S
C627 C626 1.363 . S
C627 C633 1.428 . S
H628 C624 0.930 . S
H629 C626 0.929 . S
S630 N631 1.613 . S
S630 N632 1.612 . S
N631 S630 1.613 . S
N631 C634 1.344 1_655 S
N632 S630 1.612 . S
N632 C633 1.350 1_655 S
C633 C627 1.428 . S
C633 N632 1.350 1_455 S
C633 C634 1.437 . S
C634 C625 1.434 . S
C634 N631 1.344 1_455 S
C634 C633 1.437 . S
C635 C636 1.369 1_565 S
C635 C637 1.419 . S
C635 H639 0.930 . S
C636 C635 1.369 1_545 S
C636 C645 1.429 . S
C637 C635 1.419 . S
C637 C638 1.363 1_565 S
C637 H640 0.929 . S
C638 C637 1.363 1_545 S
C638 C644 1.428 . S
H639 C635 0.930 . S
H640 C637 0.929 . S
S641 N642 1.613 . S
S641 N643 1.610 . S
N642 S641 1.613 . S
N642 C645 1.350 . S
N643 S641 1.610 . S
N643 C644 1.351 . S
C644 C638 1.428 . S
C644 N643 1.351 . S
C644 C645 1.434 . S
C645 C636 1.429 . S
C645 N642 1.350 . S
C645 C644 1.434 . S
C646 C647 1.369 . S
C646 C648 1.419 . S
C646 H650 0.930 . S
C647 C646 1.369 . S
C647 C656 1.429 . S
C648 C646 1.419 . S
C648 C649 1.363 . S
C648 H651 0.929 . S
C649 C648 1.363 . S
C649 C655 1.428 . S
H650 C646 0.930 . S
H651 C648 0.929 . S
S652 N653 1.613 . S
S652 N654 1.610 . S
N653 S652 1.613 . S
N653 C656 1.350 . S
N654 S652 1.610 . S
N654 C655 1.351 . S
C655 C649 1.428 . S
C655 N654 1.351 . S
C655 C656 1.434 . S
C656 C647 1.429 . S
C656 N653 1.350 . S
C656 C655 1.434 . S
C657 C658 1.369 . S
C657 C659 1.419 . S
C657 H661 0.930 . S
C658 C657 1.369 . S
C658 C667 1.429 . S
C659 C657 1.419 . S
C659 C660 1.363 . S
C659 H662 0.929 . S
C660 C659 1.363 . S
C660 C666 1.428 . S
H661 C657 0.930 . S
H662 C659 0.929 . S
S663 N664 1.613 . S
S663 N665 1.610 . S
N664 S663 1.613 . S
N664 C667 1.350 . S
N665 S663 1.610 . S
N665 C666 1.351 . S
C666 C660 1.428 . S
C666 N665 1.351 . S
C666 C667 1.434 . S
C667 C658 1.429 . S
C667 N664 1.350 . S
C667 C666 1.434 . S
C668 C669 1.369 1_455 S
C668 C670 1.419 . S
C668 H672 0.930 . S
C669 C668 1.369 1_655 S
C669 C678 1.429 . S
C670 C668 1.419 . S
C670 C671 1.363 1_455 S
C670 H673 0.929 . S
C671 C670 1.363 1_655 S
C671 C677 1.428 . S
H672 C668 0.930 . S
H673 C670 0.929 . S
S674 N675 1.613 . S
S674 N676 1.610 . S
N675 S674 1.613 . S
N675 C678 1.350 . S
N676 S674 1.610 . S
N676 C677 1.351 . S
C677 C671 1.428 . S
C677 N676 1.351 . S
C677 C678 1.434 . S
C678 C669 1.429 . S
C678 N675 1.350 . S
C678 C677 1.434 . S
C679 C680 1.369 . S
C679 C681 1.419 . S
C679 H683 0.930 . S
C680 C679 1.369 . S
C680 C689 1.429 1_565 S
C681 C679 1.419 . S
C681 C682 1.363 . S
C681 H684 0.929 . S
C682 C681 1.363 . S
C682 C688 1.428 1_565 S
H683 C679 0.930 . S
H684 C681 0.929 . S
S685 N686 1.613 . S
S685 N687 1.610 . S
N686 S685 1.613 . S
N686 C689 1.350 . S
N687 S685 1.610 . S
N687 C688 1.351 . S
C688 C682 1.428 1_545 S
C688 N687 1.351 . S
C688 C689 1.434 . S
C689 C680 1.429 1_545 S
C689 N686 1.350 . S
C689 C688 1.434 . S
C690 C691 1.369 . S
C690 C692 1.419 . S
C690 H694 0.930 . S
C691 C690 1.369 . S
C691 C700 1.429 . S
C692 C690 1.419 . S
C692 C693 1.363 . S
C692 H695 0.929 . S
C693 C692 1.363 . S
C693 C699 1.428 . S
H694 C690 0.930 . S
H695 C692 0.929 . S
S696 N697 1.613 . S
S696 N698 1.610 . S
N697 S696 1.613 . S
N697 C700 1.350 . S
N698 S696 1.610 . S
N698 C699 1.351 . S
C699 C693 1.428 . S
C699 N698 1.351 . S
C699 C700 1.434 . S
C700 C691 1.429 . S
C700 N697 1.350 . S
C700 C699 1.434 . S
C701 C702 1.369 . S
C701 C703 1.419 . S
C701 H705 0.930 . S
C702 C701 1.369 . S
C702 C711 1.429 . S
C703 C701 1.419 . S
C703 C704 1.363 . S
C703 H706 0.929 . S
C704 C703 1.363 . S
C704 C710 1.428 . S
H705 C701 0.930 . S
H706 C703 0.929 . S
S707 N708 1.613 . S
S707 N709 1.610 . S
N708 S707 1.613 . S
N708 C711 1.350 . S
N709 S707 1.610 . S
N709 C710 1.351 . S
C710 C704 1.428 . S
C710 N709 1.351 . S
C710 C711 1.434 . S
C711 C702 1.429 . S
C711 N708 1.350 . S
C711 C710 1.434 . S
C449 C241 2.464 . S
C451 C306 2.878 1_545 S
C462 C346 2.920 . S
C460 C277 2.603 . S
C473 C386 2.904 . S
C471 C169 2.495 . S
C484 C426 2.891 . S
C482 C205 2.482 . S
C495 C296 2.877 . S
C493 C97 2.472 . S
C504 C133 2.591 . S
C506 C336 2.921 . S
C515 C25 2.506 . S
C517 C376 2.905 . S
C526 C61 2.480 1_655 S
C528 C416 2.892 1_655 S
C539 C293 0.744 . S
C537 C211 0.731 . S
C550 C333 0.728 . S
C548 C247 0.744 . S
C561 C373 0.703 . S
C559 C253 0.687 . S
C570 C175 0.696 . S
C572 C413 0.708 . S
C581 C67 0.742 1_655 S
C583 C303 0.748 . S
C594 C343 0.749 . S
C592 C103 0.722 . S
C605 C383 0.689 . S
C603 C109 0.689 . S
C614 C31 0.699 . S
C616 C423 0.715 . S
C625 C181 3.205 . S
C627 C297 3.673 . S
C636 C217 3.164 . S
C638 C337 3.631 . S
C649 C377 3.630 . S
C647 C283 3.093 . S
C660 C417 3.658 . S
C658 C145 3.181 . S
C669 C37 3.216 1_655 S
C671 C307 3.682 . S
C682 C347 3.630 . S
C680 C73 3.174 1_565 S
C693 C387 3.627 . S
C691 C139 3.071 . S
C702 C1 3.202 . S
C704 C427 3.663 . S
