# Generated by pormake.
# Topology anh, (6,3)-cn, num edge types: 1
# Building blocks:
#     Node 0, Type 0, BuildingBlock: INOVEN_clean_sbu_0, # of connection points: 6
#     Node 1, Type 0, BuildingBlock: INOVEN_clean_sbu_0, # of connection points: 6
#     Node 2, Type 0, BuildingBlock: INOVEN_clean_sbu_0, # of connection points: 6
#     Node 3, Type 1, BuildingBlock: BELTOD_clean_linker_0, # of connection points: 3
#     Node 4, Type 1, BuildingBlock: BELTOD_clean_linker_0, # of connection points: 3
#     Node 5, Type 1, BuildingBlock: BELTOD_clean_linker_0, # of connection points: 3
#     Node 6, Type 1, BuildingBlock: BELTOD_clean_linker_0, # of connection points: 3
#     Node 7, Type 1, BuildingBlock: BELTOD_clean_linker_0, # of connection points: 3
#     Node 8, Type 1, BuildingBlock: BELTOD_clean_linker_0, # of connection points: 3
#     Edge 9, Type (0, 1), BuildingBlock: KIFKEQ_clean_linker_1, # of connection points: 2
#     Edge 10, Type (0, 1), BuildingBlock: KIFKEQ_clean_linker_1, # of connection points: 2
#     Edge 11, Type (0, 1), BuildingBlock: KIFKEQ_clean_linker_1, # of connection points: 2
#     Edge 12, Type (0, 1), BuildingBlock: KIFKEQ_clean_linker_1, # of connection points: 2
#     Edge 13, Type (0, 1), BuildingBlock: KIFKEQ_clean_linker_1, # of connection points: 2
#     Edge 14, Type (0, 1), BuildingBlock: KIFKEQ_clean_linker_1, # of connection points: 2
#     Edge 15, Type (0, 1), BuildingBlock: KIFKEQ_clean_linker_1, # of connection points: 2
#     Edge 16, Type (0, 1), BuildingBlock: KIFKEQ_clean_linker_1, # of connection points: 2
#     Edge 17, Type (0, 1), BuildingBlock: KIFKEQ_clean_linker_1, # of connection points: 2
#     Edge 18, Type (0, 1), BuildingBlock: KIFKEQ_clean_linker_1, # of connection points: 2
#     Edge 19, Type (0, 1), BuildingBlock: KIFKEQ_clean_linker_1, # of connection points: 2
#     Edge 20, Type (0, 1), BuildingBlock: KIFKEQ_clean_linker_1, # of connection points: 2
#     Edge 21, Type (0, 1), BuildingBlock: KIFKEQ_clean_linker_1, # of connection points: 2
#     Edge 22, Type (0, 1), BuildingBlock: KIFKEQ_clean_linker_1, # of connection points: 2
#     Edge 23, Type (0, 1), BuildingBlock: KIFKEQ_clean_linker_1, # of connection points: 2
#     Edge 24, Type (0, 1), BuildingBlock: KIFKEQ_clean_linker_1, # of connection points: 2
#     Edge 25, Type (0, 1), BuildingBlock: KIFKEQ_clean_linker_1, # of connection points: 2
#     Edge 26, Type (0, 1), BuildingBlock: KIFKEQ_clean_linker_1, # of connection points: 2
# Relax obj value: 0.174
# Max RMSD: 0.210
# Mean RMSD: 0.150
data_MOF--net-anh--node1-INOVEN_clean_sbu_0--node2-BELTOD_clean_linker_0--edge1-KIFKEQ_clean_linker_1
_symmetry_space_group_name_H-M    P1
_symmetry_Int_Tables_number       1
_symmetry_cell_setting            triclinic
loop_
_symmetry_equiv_pos_as_xyz
'x, y, z'
_cell_length_a     36.114228
_cell_length_b     42.188874
_cell_length_c     61.540449
_cell_angle_alpha  93.463962
_cell_angle_beta   89.175238
_cell_angle_gamma 128.82291
loop_
_atom_site_label
_atom_site_type_symbol
_atom_site_fract_x
_atom_site_fract_y
_atom_site_fract_z
_atom_type_partial_charge
Gd0 Gd 0.09842 0.49647 0.15853 0.0
Gd1 Gd 0.04769 0.52944 0.16222 0.0
C2 C 0.15872 0.59588 0.16304 0.0
C3 C 0.16312 0.48991 0.15366 0.0
C4 C 0.2126 0.52136 0.1615 0.0
C5 C 0.22899 0.51661 0.18063 0.0
C6 C 0.24356 0.55751 0.1507 0.0
C7 C 0.30922 0.57296 0.17194 0.0
C8 C 0.29178 0.58429 0.15658 0.0
C9 C 0.27727 0.54371 0.18642 0.0
C10 C 0.06935 0.49649 0.19883 0.0
C11 C 0.98748 0.43145 0.15442 0.0
C12 C 0.99989 0.54669 0.18272 0.0
C13 C 0.94972 0.52131 0.18745 0.0
C14 C 0.91496 0.49506 0.17115 0.0
C15 C 0.93637 0.52291 0.20868 0.0
C16 C 0.85494 0.48224 0.19577 0.0
C17 C 0.88884 0.50314 0.21289 0.0
C18 C 0.86745 0.47541 0.17535 0.0
C19 C 0.05451 0.52005 0.11865 0.0
O20 O 0.15942 0.56495 0.16343 0.0
O21 O 0.11875 0.59023 0.16184 0.0
O22 O 0.13206 0.47171 0.1689 0.0
O23 O 0.1486 0.49894 0.13753 0.0
O24 O 0.06395 0.46564 0.18922 0.0
O25 O 0.08901 0.5256 0.18635 0.0
O26 O 0.98838 0.46159 0.16265 0.0
O27 O 1.02673 0.43849 0.14756 0.0
O28 O 1.01122 0.5549 0.16237 0.0
O29 O 1.02278 0.53684 0.19254 0.0
O30 O 1.03385 0.53379 0.1275 0.0
O31 O 0.07067 0.51138 0.1333 0.0
H32 H 0.20531 0.49049 0.19019 0.0
H33 H 0.2315 0.56364 0.13674 0.0
H34 H 0.316 0.60825 0.14589 0.0
H35 H 0.29009 0.53599 0.19925 0.0
H36 H 0.92466 0.49196 0.15487 0.0
H37 H 0.96295 0.54161 0.22162 0.0
H38 H 0.87939 0.50828 0.22875 0.0
H39 H 0.84158 0.45931 0.16192 0.0
Gd40 Gd 0.5802 0.99949 0.47882 0.0
Gd41 Gd 0.52149 0.02587 0.4796 0.0
C42 C 0.4642 0.93128 0.4763 0.0
C43 C 0.61462 0.96211 0.48413 0.0
C44 C 0.59526 0.91952 0.48589 0.0
C45 C 0.61404 0.9043 0.47308 0.0
C46 C 0.55866 0.89392 0.50017 0.0
C47 C 0.56256 0.83941 0.48989 0.0
C48 C 0.54259 0.85426 0.5022 0.0
C49 C 0.59785 0.86466 0.47501 0.0
C50 C 0.56753 0.01771 0.43985 0.0
C51 C 0.63807 0.09474 0.48286 0.0
C52 C 0.48841 0.0637 0.47225 0.0
C53 C 0.50476 0.10573 0.47639 0.0
C54 C 0.49229 0.11641 0.49557 0.0
C55 C 0.5315 0.13517 0.46101 0.0
C56 C 0.53081 0.18429 0.48349 0.0
C57 C 0.54455 0.17413 0.46457 0.0
C58 C 0.50535 0.15524 0.49911 0.0
C59 C 0.53422 0.00848 0.51895 0.0
O60 O 0.50523 0.94028 0.48181 0.0
O61 O 0.46176 0.95991 0.47139 0.0
O62 O 0.60931 0.97105 0.46507 0.0
O63 O 0.60743 0.97914 0.50031 0.0
O64 O 0.60765 0.0281 0.44688 0.0
O65 O 0.5355 0.99714 0.45344 0.0
O66 O 0.59641 0.08612 0.47961 0.0
O67 O 0.64145 0.06577 0.4853 0.0
O68 O 0.47753 0.04246 0.48925 0.0
O69 O 0.51117 0.05829 0.45775 0.0
O70 O 0.49545 0.00128 0.51253 0.0
O71 O 0.56589 0.02787 0.50507 0.0
H72 H 0.64198 0.92341 0.46183 0.0
H73 H 0.54292 0.90467 0.50998 0.0
H74 H 0.51493 0.83537 0.51358 0.0
H75 H 0.61436 0.85438 0.46545 0.0
H76 H 0.47184 0.09459 0.50778 0.0
H77 H 0.54164 0.12792 0.44604 0.0
H78 H 0.56403 0.19581 0.4522 0.0
H79 H 0.49509 0.16241 0.51406 0.0
Gd80 Gd 0.6357 0.58169 0.83379 0.0
Gd81 Gd 0.5712 0.49359 0.83715 0.0
C82 C 0.51968 0.53424 0.84074 0.0
C83 C 0.67254 0.6541 0.82308 0.0
C84 C 0.65464 0.67754 0.82292 0.0
C85 C 0.65864 0.70035 0.84172 0.0
C86 C 0.63286 0.67696 0.804 0.0
C87 C 0.61983 0.72173 0.82258 0.0
C88 C 0.61557 0.69871 0.80385 0.0
C89 C 0.64135 0.72213 0.84155 0.0
C90 C 0.62513 0.55942 0.87449 0.0
C91 C 0.68857 0.54228 0.83648 0.0
C92 C 0.53164 0.41941 0.84572 0.0
C93 C 0.54072 0.39019 0.84016 0.0
C94 C 0.53697 0.37549 0.8185 0.0
C95 C 0.5526 0.37622 0.85673 0.0
C96 C 0.55453 0.33198 0.83027 0.0
C97 C 0.55968 0.34755 0.85183 0.0
C98 C 0.54369 0.34665 0.81364 0.0
C99 C 0.58068 0.51617 0.796 0.0
O100 O 0.56113 0.56633 0.83347 0.0
O101 O 0.51636 0.5026 0.84636 0.0
O102 O 0.67972 0.64655 0.84218 0.0
O103 O 0.65303 0.62286 0.80882 0.0
O104 O 0.66564 0.58961 0.86723 0.0
O105 O 0.59209 0.54371 0.86046 0.0
O106 O 0.64481 0.50837 0.8398 0.0
O107 O 0.6945 0.5755 0.83161 0.0
O108 O 0.51701 0.42876 0.82986 0.0
O109 O 0.56271 0.45092 0.85894 0.0
O110 O 0.54091 0.48647 0.80398 0.0
O111 O 0.61438 0.53176 0.80981 0.0
H112 H 0.6752 0.70149 0.85659 0.0
H113 H 0.62941 0.6599 0.78921 0.0
H114 H 0.59998 0.69834 0.78883 0.0
H115 H 0.64488 0.73932 0.85629 0.0
H116 H 0.5284 0.38591 0.80527 0.0
H117 H 0.55582 0.3871 0.87354 0.0
H118 H 0.56781 0.33668 0.865 0.0
H119 H 0.54027 0.33572 0.79682 0.0
P120 P 0.59674 0.00933 0.20375 0.0
H121 H 0.57049 0.95036 0.16737 0.0
H122 H 0.49479 0.88403 0.15743 0.0
H123 H 0.42262 0.91451 0.19922 0.0
H124 H 0.49897 0.9808 0.20938 0.0
H125 H 0.69721 0.0718 0.21123 0.0
H126 H 0.75492 0.14156 0.20075 0.0
H127 H 0.64489 0.1301 0.16487 0.0
H128 H 0.5861 0.0592 0.17577 0.0
H129 H 0.54799 0.94732 0.23482 0.0
H130 H 0.61821 0.0759 0.23499 0.0
O131 O 0.62663 0.99115 0.20305 0.0
H132 H 0.53424 0.94857 0.27359 0.0
H133 H 0.60644 0.07786 0.27415 0.0
C134 C 0.5407 0.97047 0.18938 0.0
C135 C 0.53826 0.94346 0.17382 0.0
C136 C 0.49469 0.90524 0.1682 0.0
C137 C 0.45247 0.89328 0.17793 0.0
C138 C 0.45451 0.92216 0.19185 0.0
C139 C 0.49819 0.96046 0.19743 0.0
C140 C 0.63746 0.05998 0.194 0.0
C141 C 0.68527 0.08395 0.20094 0.0
C142 C 0.71829 0.12399 0.19507 0.0
C143 C 0.70448 0.14129 0.182 0.0
C144 C 0.65652 0.11732 0.17482 0.0
C145 C 0.623 0.07693 0.181 0.0
C146 C 0.58459 0.01152 0.23207 0.0
C147 C 0.56053 0.97589 0.24325 0.0
C148 C 0.55301 0.97674 0.26548 0.0
C149 C 0.56997 0.01347 0.27714 0.0
C150 C 0.59277 0.04902 0.2657 0.0
C151 C 0.59991 0.04801 0.2433 0.0
P152 P 0.63709 0.56721 0.56096 0.0
H153 H 0.67966 0.55318 0.52518 0.0
H154 H 0.66055 0.4911 0.50707 0.0
H155 H 0.53398 0.41829 0.54468 0.0
H156 H 0.55373 0.48075 0.56313 0.0
H157 H 0.68193 0.64964 0.54927 0.0
H158 H 0.65215 0.68063 0.53228 0.0
H159 H 0.51055 0.56493 0.52867 0.0
H160 H 0.54098 0.53331 0.54541 0.0
H161 H 0.68115 0.5579 0.59613 0.0
H162 H 0.56223 0.55736 0.5882 0.0
O163 O 0.69631 0.60061 0.56012 0.0
H164 H 0.66823 0.55187 0.63534 0.0
H165 H 0.54861 0.55031 0.62751 0.0
C166 C 0.61873 0.52142 0.54587 0.0
C167 C 0.6477 0.5239 0.52951 0.0
C168 C 0.63679 0.4885 0.51915 0.0
C169 C 0.59617 0.45007 0.52469 0.0
C170 C 0.56554 0.44765 0.54015 0.0
C171 C 0.57686 0.4832 0.55074 0.0
C172 C 0.61375 0.58909 0.54843 0.0
C173 C 0.64456 0.63064 0.54466 0.0
C174 C 0.62757 0.64835 0.53488 0.0
C175 C 0.57923 0.62502 0.52898 0.0
C176 C 0.54803 0.58343 0.53302 0.0
C177 C 0.56534 0.56545 0.54254 0.0
C178 C 0.62324 0.5588 0.58931 0.0
C179 C 0.65215 0.55632 0.6028 0.0
C180 C 0.64486 0.55294 0.62516 0.0
C181 C 0.60786 0.55113 0.63432 0.0
C182 C 0.57752 0.55186 0.62072 0.0
C183 C 0.5853 0.55587 0.5983 0.0
P184 P 0.11922 0.559 0.88039 0.0
H185 H 0.18916 0.58714 0.84474 0.0
H186 H 0.25187 0.58206 0.83751 0.0
H187 H 0.19363 0.49136 0.88485 0.0
H188 H 0.13216 0.49791 0.89239 0.0
H189 H 0.09885 0.61649 0.87777 0.0
H190 H 1.03132 0.61249 0.86932 0.0
H191 H 0.94718 0.48292 0.85421 0.0
H192 H 1.01749 0.48778 0.86214 0.0
H193 H 0.18594 0.59662 0.91769 0.0
H194 H 1.03621 0.49804 0.90672 0.0
O195 O 0.16151 0.60952 0.8808 0.0
H196 H 0.17769 0.58667 0.95657 0.0
H197 H 1.02744 0.48803 0.94595 0.0
C198 C 0.15394 0.54251 0.86896 0.0
C199 C 0.18865 0.56508 0.85317 0.0
C200 C 0.22558 0.56228 0.84912 0.0
C201 C 0.23015 0.53659 0.86063 0.0
C202 C 0.19373 0.51248 0.8757 0.0
C203 C 0.157 0.51553 0.8798 0.0
C204 C 0.06558 0.5528 0.87017 0.0
C205 C 0.06657 0.58694 0.87217 0.0
C206 C 1.02637 0.58441 0.86764 0.0
C207 C 0.98142 0.54721 0.86116 0.0
C208 C 0.98019 0.51263 0.85893 0.0
C209 C 1.0211 0.51531 0.86345 0.0
C210 C 0.11154 0.54884 0.90919 0.0
C211 C 0.15108 0.5729 0.92365 0.0
C212 C 0.14627 0.56721 0.94602 0.0
C213 C 0.10172 0.53693 0.95467 0.0
C214 C 0.06233 0.51166 0.94 0.0
C215 C 0.06721 0.51755 0.9175 0.0
P216 P 0.07277 0.5022 0.43671 0.0
H217 H 0.12355 0.53966 0.47868 0.0
H218 H 0.18093 0.61128 0.49163 0.0
H219 H 0.14034 0.64483 0.43713 0.0
H220 H 0.08177 0.57348 0.42516 0.0
H221 H 1.04135 0.42055 0.43844 0.0
H222 H 0.96848 0.35674 0.44878 0.0
H223 H 0.90975 0.41752 0.46632 0.0
H224 H 0.9848 0.48281 0.45626 0.0
H225 H 0.14153 0.53723 0.40263 0.0
H226 H 0.9914 0.47514 0.40767 0.0
O227 O 0.11424 0.49645 0.43904 0.0
H228 H 0.13537 0.53928 0.36337 0.0
H229 H 0.98519 0.47758 0.36805 0.0
C230 C 0.09865 0.55108 0.4508 0.0
C231 C 0.12569 0.56238 0.47006 0.0
C232 C 0.15927 0.60359 0.47721 0.0
C233 C 0.1667 0.63441 0.46512 0.0
C234 C 0.13608 0.62242 0.447 0.0
C235 C 0.10227 0.58123 0.44002 0.0
C236 C 1.01899 0.45673 0.44685 0.0
C237 C 1.01332 0.42064 0.44482 0.0
C238 C 0.97116 0.38382 0.45053 0.0
C239 C 0.93283 0.3817 0.4581 0.0
C240 C 0.93866 0.41811 0.4606 0.0
C241 C 0.98143 0.45539 0.45486 0.0
C242 C 0.06668 0.50485 0.40795 0.0
C243 C 0.10716 0.52393 0.39527 0.0
C244 C 0.10369 0.52529 0.37285 0.0
C245 C 0.05975 0.50821 0.36267 0.0
C246 C 1.01948 0.49094 0.37553 0.0
C247 C 1.02293 0.48923 0.39809 0.0
P248 P 0.62868 0.04223 0.75316 0.0
H249 H 0.67445 0.10561 0.78863 0.0
H250 H 0.65606 0.14823 0.80518 0.0
H251 H 0.52271 0.07619 0.76842 0.0
H252 H 0.54168 0.03391 0.75175 0.0
H253 H 0.67186 0.00327 0.7515 0.0
H254 H 0.65198 0.9428 0.76741 0.0
H255 H 0.53161 0.92309 0.79825 0.0
H256 H 0.55125 0.98382 0.78191 0.0
H257 H 0.62782 0.09039 0.72188 0.0
H258 H 0.58179 0.96829 0.7231 0.0
O259 O 0.68784 0.07535 0.75207 0.0
H260 H 0.6049 0.07808 0.68334 0.0
H261 H 0.55875 0.95577 0.6844 0.0
C262 C 0.61004 0.06743 0.76853 0.0
C263 C 0.64095 0.09864 0.78437 0.0
C264 C 0.63026 0.12285 0.79392 0.0
C265 C 0.58833 0.11606 0.7878 0.0
C266 C 0.5558 0.08274 0.77309 0.0
C267 C 0.56649 0.05846 0.76362 0.0
C268 C 0.61346 0.99829 0.7658 0.0
C269 C 0.64133 0.98616 0.76176 0.0
C270 C 0.6299 0.95163 0.77076 0.0
C271 C 0.59046 0.92867 0.78401 0.0
C272 C 0.5624 0.9407 0.78817 0.0
C273 C 0.5736 0.97524 0.77888 0.0
C274 C 0.60607 0.03021 0.72545 0.0
C275 C 0.61202 0.06068 0.71393 0.0
C276 C 0.5988 0.05355 0.69189 0.0
C277 C 0.57987 0.01589 0.68082 0.0
C278 C 0.5735 0.98517 0.69246 0.0
C279 C 0.58646 0.99227 0.71463 0.0
P280 P 0.47749 0.37269 0.07976 0.0
H281 H 0.50475 0.34209 0.11115 0.0
H282 H 0.57439 0.38125 0.1356 0.0
H283 H 0.6436 0.48252 0.09437 0.0
H284 H 0.57484 0.44305 0.06966 0.0
H285 H 0.38678 0.35469 0.08862 0.0
H286 H 0.36855 0.39468 0.10939 0.0
H287 H 0.51208 0.47572 0.13606 0.0
H288 H 0.53043 0.43696 0.11574 0.0
H289 H 0.50496 0.36098 0.03766 0.0
H290 H 0.47149 0.4357 0.06694 0.0
O291 O 0.43828 0.32194 0.0769 0.0
H292 H 0.53448 0.40181 0.00575 0.0
H293 H 0.49958 0.47542 0.03486 0.0
C294 C 0.53437 0.3895 0.08867 0.0
C295 C 0.53588 0.37176 0.10671 0.0
C296 C 0.57512 0.39465 0.12097 0.0
C297 C 0.61308 0.4355 0.11729 0.0
C298 C 0.61432 0.45133 0.09771 0.0
C299 C 0.5751 0.4283 0.08337 0.0
C300 C 0.45989 0.39263 0.10033 0.0
C301 C 0.41372 0.38007 0.09957 0.0
C302 C 0.40342 0.40286 0.11137 0.0
C303 C 0.43925 0.43812 0.12408 0.0
C304 C 0.48396 0.44835 0.1265 0.0
C305 C 0.49436 0.42598 0.11458 0.0
C306 C 0.48526 0.39473 0.05447 0.0
C307 C 0.50244 0.38516 0.0369 0.0
C308 C 0.51987 0.40875 0.01892 0.0
C309 C 0.51942 0.44165 0.0182 0.0
C310 C 0.50007 0.45004 0.03525 0.0
C311 C 0.48356 0.42699 0.05345 0.0
H312 H 0.40078 0.60866 0.18651 0.0
H313 H 0.28951 0.52058 0.13941 0.0
H314 H 0.44765 0.58683 0.17401 0.0
H315 H 0.33381 0.49828 0.12786 0.0
H316 H 0.41939 0.47447 0.09808 0.0
H317 H 0.40606 0.52297 0.10862 0.0
H318 H 0.43322 0.51877 0.17616 0.0
H319 H 0.4494 0.47154 0.16524 0.0
C320 C 0.38721 0.58564 0.17321 0.0
C321 C 0.34266 0.56718 0.16336 0.0
C322 C 0.4135 0.57299 0.16622 0.0
C323 C 0.39474 0.54167 0.14962 0.0
C324 C 0.35021 0.52369 0.13997 0.0
C325 C 0.32475 0.53647 0.14661 0.0
C326 C 0.42296 0.48431 0.11514 0.0
C327 C 0.43327 0.46834 0.13104 0.0
C328 C 0.41608 0.51239 0.12113 0.0
C329 C 0.4178 0.52387 0.14321 0.0
C330 C 0.43182 0.51036 0.15904 0.0
C331 C 0.44002 0.48287 0.1529 0.0
H332 H 0.72816 0.12304 0.474 0.0
H333 H 0.64683 0.16392 0.49015 0.0
H334 H 0.79828 0.19333 0.46925 0.0
H335 H 0.71728 0.23444 0.48553 0.0
H336 H 0.87274 0.36071 0.4925 0.0
H337 H 0.80148 0.29205 0.50051 0.0
H338 H 0.81876 0.2425 0.44145 0.0
H339 H 0.88876 0.31039 0.43332 0.0
C340 C 0.72542 0.14708 0.47689 0.0
C341 C 0.68186 0.13783 0.48239 0.0
C342 C 0.76552 0.18736 0.474 0.0
C343 C 0.76327 0.21948 0.47682 0.0
C344 C 0.72024 0.21045 0.48328 0.0
C345 C 0.67986 0.17002 0.48583 0.0
C346 C 0.86089 0.33518 0.48112 0.0
C347 C 0.887 0.34105 0.46244 0.0
C348 C 0.82021 0.29587 0.48574 0.0
C349 C 0.80502 0.2617 0.47182 0.0
C350 C 0.8302 0.26794 0.45282 0.0
C351 C 0.87038 0.30697 0.44816 0.0
H352 H 0.66613 0.7996 0.83999 0.0
H353 H 0.53905 0.70146 0.80322 0.0
H354 H 0.64713 0.84458 0.83422 0.0
H355 H 0.52009 0.74665 0.79738 0.0
H356 H 0.56155 0.85949 0.76142 0.0
H357 H 0.55852 0.80457 0.77455 0.0
H358 H 0.5934 0.86148 0.83986 0.0
H359 H 0.59654 0.91675 0.82641 0.0
C360 C 0.63348 0.7873 0.83115 0.0
C361 C 0.60448 0.74711 0.82178 0.0
C362 C 0.62251 0.8131 0.82788 0.0
C363 C 0.58232 0.79929 0.81516 0.0
C364 C 0.55173 0.75836 0.80695 0.0
C365 C 0.56268 0.73254 0.81023 0.0
C366 C 0.56724 0.85952 0.77867 0.0
C367 C 0.57917 0.892 0.79296 0.0
C368 C 0.56534 0.82805 0.78624 0.0
C369 C 0.5759 0.82873 0.80825 0.0
C370 C 0.58542 0.86029 0.82279 0.0
C371 C 0.58684 0.89166 0.81519 0.0
H372 H 0.86092 0.54842 0.20061 0.0
H373 H 0.76107 0.41743 0.18925 0.0
H374 H 0.80166 0.55365 0.1875 0.0
H375 H 0.70092 0.42263 0.17714 0.0
H376 H 0.5998 0.44029 0.16053 0.0
H377 H 0.65933 0.46473 0.18942 0.0
H378 H 0.76862 0.51581 0.1417 0.0
H379 H 0.70907 0.48977 0.11263 0.0
C380 C 0.82518 0.52062 0.19673 0.0
C381 C 0.81476 0.48239 0.19623 0.0
C382 C 0.79164 0.52377 0.18921 0.0
C383 C 0.74711 0.48857 0.18182 0.0
C384 C 0.73502 0.44999 0.1834 0.0
C385 C 0.76907 0.4469 0.1903 0.0
C386 C 0.63678 0.45768 0.15631 0.0
C387 C 0.64989 0.4614 0.13442 0.0
C388 C 0.67065 0.47224 0.17283 0.0
C389 C 0.71775 0.49138 0.1675 0.0
C390 C 0.73213 0.50111 0.14598 0.0
C391 C 0.69811 0.48591 0.12938 0.0
H392 H 0.37307 0.90252 0.48254 0.0
H393 H 0.45633 0.8628 0.46918 0.0
H394 H 0.30127 0.83184 0.48277 0.0
H395 H 0.38448 0.79211 0.46775 0.0
H396 H 0.25569 0.66669 0.48113 0.0
H397 H 0.32555 0.73758 0.48602 0.0
H398 H 0.24519 0.77344 0.46245 0.0
H399 H 0.1742 0.70275 0.45971 0.0
C400 C 0.37585 0.87856 0.47932 0.0
C401 C 0.4203 0.88822 0.47578 0.0
C402 C 0.33454 0.83784 0.47931 0.0
C403 C 0.33636 0.80558 0.4752 0.0
C404 C 0.38116 0.8156 0.4715 0.0
C405 C 0.42257 0.85631 0.47208 0.0
C406 C 0.25233 0.68962 0.4776 0.0
C407 C 0.20875 0.67843 0.46993 0.0
C408 C 0.29304 0.73062 0.47995 0.0
C409 C 0.2919 0.76188 0.47431 0.0
C410 C 0.24799 0.75073 0.4672 0.0
C411 C 0.20706 0.70977 0.46526 0.0
H412 H 0.62232 0.32744 0.84508 0.0
H413 H 0.49543 0.26268 0.80407 0.0
H414 H 0.62931 0.27425 0.83573 0.0
H415 H 0.50159 0.20923 0.79511 0.0
H416 H 0.55737 0.14732 0.76329 0.0
H417 H 0.54925 0.19888 0.77428 0.0
H418 H 0.59453 0.20423 0.83997 0.0
H419 H 0.60345 0.15279 0.82875 0.0
C420 C 0.5957 0.30164 0.83424 0.0
C421 C 0.55861 0.29943 0.82513 0.0
C422 C 0.59956 0.27107 0.82893 0.0
C423 C 0.56618 0.23751 0.81453 0.0
C424 C 0.52857 0.23504 0.80585 0.0
C425 C 0.52496 0.26567 0.811 0.0
C426 C 0.56486 0.15898 0.78017 0.0
C427 C 0.58063 0.14566 0.79519 0.0
C428 C 0.56025 0.18864 0.78649 0.0
C429 C 0.57097 0.20566 0.80806 0.0
C430 C 0.58651 0.19217 0.82316 0.0
C431 C 0.59141 0.16257 0.81678 0.0
H432 H 0.54785 0.78177 0.45961 0.0
H433 H 0.54939 0.80653 0.52888 0.0
H434 H 0.53936 0.72107 0.46648 0.0
H435 H 0.54074 0.74603 0.5357 0.0
H436 H 0.50845 0.6265 0.54329 0.0
H437 H 0.49148 0.67092 0.5317 0.0
H438 H 0.59652 0.71461 0.48212 0.0
H439 H 0.61295 0.67014 0.49362 0.0
C440 C 0.54579 0.77398 0.47627 0.0
C441 C 0.54978 0.7992 0.49371 0.0
C442 C 0.54082 0.73921 0.4802 0.0
C443 C 0.53964 0.72888 0.50163 0.0
C444 C 0.54083 0.75278 0.51898 0.0
C445 C 0.54586 0.78755 0.51507 0.0
C446 C 0.52679 0.64479 0.52952 0.0
C447 C 0.56218 0.64524 0.5194 0.0
C448 C 0.51741 0.67041 0.523 0.0
C449 C 0.54293 0.69651 0.50611 0.0
C450 C 0.57594 0.69468 0.49505 0.0
C451 C 0.5856 0.66944 0.5017 0.0
H452 H 0.6906 0.47727 0.83748 0.0
H453 H 0.78571 0.60845 0.84167 0.0
H454 H 0.75799 0.47767 0.84279 0.0
H455 H 0.85326 0.6091 0.84705 0.0
H456 H 0.96418 0.60135 0.87645 0.0
H457 H 0.89757 0.60026 0.86975 0.0
H458 H 0.82713 0.4872 0.83086 0.0
H459 H 0.89486 0.48859 0.83709 0.0
C460 C 0.72588 0.50643 0.83944 0.0
C461 C 0.73155 0.54282 0.83898 0.0
C462 C 0.76521 0.5067 0.84244 0.0
C463 C 0.81263 0.54341 0.84554 0.0
C464 C 0.81815 0.57983 0.84506 0.0
C465 C 0.77887 0.57953 0.84173 0.0
C466 C 0.93544 0.57629 0.86604 0.0
C467 C 0.9373 0.54535 0.85722 0.0
C468 C 0.89616 0.57567 0.8622 0.0
C469 C 0.85548 0.54381 0.8495 0.0
C470 C 0.8567 0.51244 0.84091 0.0
C471 C 0.89636 0.51324 0.84458 0.0
H472 H 0.18896 0.65344 0.13448 0.0
H473 H 0.22815 0.63389 0.19507 0.0
H474 H 0.2597 0.72533 0.13773 0.0
H475 H 0.29871 0.70625 0.19872 0.0
H476 H 0.38727 0.8462 0.20874 0.0
H477 H 0.31746 0.7743 0.20487 0.0
H478 H 0.34772 0.76927 0.13722 0.0
H479 H 0.41683 0.84148 0.14086 0.0
C480 C 0.21308 0.66464 0.14842 0.0
C481 C 0.20357 0.63825 0.16441 0.0
C482 C 0.25359 0.70574 0.15029 0.0
C483 C 0.28491 0.72165 0.1685 0.0
C484 C 0.27523 0.69505 0.18454 0.0
C485 C 0.2352 0.65361 0.18238 0.0
C486 C 0.3787 0.83005 0.19292 0.0
C487 C 0.40783 0.84996 0.17508 0.0
C488 C 0.33899 0.78858 0.1908 0.0
C489 C 0.32711 0.76588 0.17077 0.0
C490 C 0.35568 0.78586 0.15286 0.0
C491 C 0.39554 0.82727 0.15499 0.0
H492 H 0.47084 0.19849 0.49842 0.0
H493 H 0.61328 0.26032 0.47558 0.0
H494 H 0.48763 0.26347 0.50606 0.0
H495 H 0.62958 0.32581 0.48219 0.0
H496 H 0.65797 0.43386 0.52455 0.0
H497 H 0.64298 0.37067 0.51212 0.0
H498 H 0.50069 0.31953 0.49094 0.0
H499 H 0.51541 0.38236 0.50437 0.0
C500 C 0.50579 0.22607 0.49495 0.0
C501 C 0.54094 0.22427 0.4867 0.0
C502 C 0.51521 0.2634 0.49901 0.0
C503 C 0.55998 0.30005 0.49475 0.0
C504 C 0.59487 0.29824 0.48592 0.0
C505 C 0.58544 0.26071 0.48193 0.0
C506 C 0.62369 0.40916 0.51702 0.0
C507 C 0.5877 0.41274 0.5155 0.0
C508 C 0.61513 0.37301 0.50977 0.0
C509 C 0.57052 0.3398 0.50059 0.0
C510 C 0.53513 0.34412 0.49835 0.0
C511 C 0.54349 0.38008 0.50593 0.0
H512 H 0.43578 0.48242 0.86315 0.0
H513 H 0.50549 0.58658 0.82454 0.0
H514 H 0.36851 0.48262 0.86759 0.0
H515 H 0.4383 0.58705 0.82895 0.0
H516 H 0.29298 0.56103 0.82564 0.0
H517 H 0.35981 0.56081 0.82109 0.0
H518 H 0.3335 0.50971 0.88333 0.0
H519 H 0.26725 0.51054 0.88817 0.0
C520 C 0.43705 0.50553 0.85551 0.0
C521 C 0.47721 0.53446 0.84341 0.0
C522 C 0.398 0.50587 0.85822 0.0
C523 C 0.39639 0.5349 0.84876 0.0
C524 C 0.43657 0.56366 0.83649 0.0
C525 C 0.47591 0.5636 0.83402 0.0
C526 C 0.30109 0.55001 0.83867 0.0
C527 C 0.27259 0.53573 0.8574 0.0
C528 C 0.34033 0.54987 0.83596 0.0
C529 C 0.35365 0.53518 0.85171 0.0
C530 C 0.32518 0.52076 0.87038 0.0
C531 C 0.28617 0.52117 0.87317 0.0
H532 H 0.9625 0.3602 0.13367 0.0
H533 H 0.91117 0.406 0.17907 0.0
H534 H 0.89063 0.29017 0.13888 0.0
H535 H 0.84052 0.33663 0.18443 0.0
H536 H 0.7613 0.20764 0.21022 0.0
H537 H 0.82745 0.27744 0.2019 0.0
H538 H 0.7978 0.24234 0.13315 0.0
H539 H 0.73077 0.17212 0.14159 0.0
C540 C 0.93582 0.35544 0.14456 0.0
C541 C 0.94267 0.38886 0.15584 0.0
C542 C 0.8946 0.31536 0.14749 0.0
C543 C 0.85989 0.30785 0.16211 0.0
C544 C 0.8666 0.34131 0.17313 0.0
C545 C 0.90713 0.38118 0.16992 0.0
C546 C 0.7685 0.21497 0.19332 0.0
C547 C 0.74078 0.1845 0.17655 0.0
C548 C 0.80637 0.25494 0.18855 0.0
C549 C 0.81805 0.26543 0.16685 0.0
C550 C 0.78989 0.23511 0.15001 0.0
C551 C 0.75129 0.19509 0.15483 0.0
H552 H 0.07173 0.47439 0.09283 0.0
H553 H 0.05778 0.56844 0.0905 0.0
H554 H 0.08413 0.47684 0.0532 0.0
H555 H 0.07097 0.57152 0.05155 0.0
H556 H 0.14445 0.59823 0.98716 0.0
H557 H 0.13606 0.593 0.02638 0.0
H558 H 1.03844 0.46181 0.01699 0.0
H559 H 0.04739 0.46695 0.97743 0.0
C560 C 0.07159 0.49568 0.08392 0.0
C561 C 0.06358 0.52111 0.09484 0.0
C562 C 0.07844 0.49698 0.06122 0.0
C563 C 0.07872 0.52451 0.0491 0.0
C564 C 0.07143 0.55019 0.06025 0.0
C565 C 0.06356 0.54824 0.08265 0.0
C566 C 0.12158 0.56814 0.99334 0.0
C567 C 0.09661 0.53303 0.97891 0.0
C568 C 0.11647 0.56517 0.01593 0.0
C569 C 0.08641 0.52698 0.02498 0.0
C570 C 0.06213 0.49173 0.01066 0.0
C571 C 0.06688 0.49471 0.98793 0.0
H572 H 0.5089 0.95148 0.41203 0.0
H573 H 0.60751 0.0829 0.41565 0.0
H574 H 0.50506 0.95044 0.37221 0.0
H575 H 0.6027 0.08208 0.37582 0.0
H576 H 0.55008 0.05678 0.30281 0.0
H577 H 0.54347 0.05802 0.34252 0.0
H578 H 0.5727 0.97364 0.34544 0.0
H579 H 0.58093 0.97332 0.30619 0.0
C580 C 0.52856 0.98009 0.40427 0.0
C581 C 0.55835 0.01727 0.41666 0.0
C582 C 0.52665 0.97954 0.38156 0.0
C583 C 0.55377 0.01619 0.37099 0.0
C584 C 0.58131 0.05344 0.38358 0.0
C585 C 0.58413 0.05394 0.40627 0.0
C586 C 0.55543 0.03873 0.31194 0.0
C587 C 0.56554 0.0146 0.30123 0.0
C588 C 0.55139 0.03931 0.33463 0.0
C589 C 0.55686 0.01543 0.34695 0.0
C590 C 0.56718 0.99156 0.33628 0.0
C591 C 0.57177 0.99135 0.31375 0.0
H592 H 0.50958 0.48984 0.76703 0.0
H593 H 0.66228 0.56418 0.77288 0.0
H594 H 0.51505 0.50156 0.72853 0.0
H595 H 0.66802 0.57456 0.73392 0.0
H596 H 0.66773 0.60953 0.66579 0.0
H597 H 0.66103 0.60484 0.70526 0.0
H598 H 0.5292 0.4816 0.69551 0.0
H599 H 0.53513 0.48768 0.65618 0.0
C600 C 0.54443 0.50863 0.76 0.0
C601 C 0.58549 0.52576 0.7729 0.0
C602 C 0.54758 0.51512 0.73783 0.0
C603 C 0.59191 0.53853 0.72784 0.0
C604 C 0.63322 0.55664 0.74097 0.0
C605 C 0.63003 0.55052 0.76329 0.0
C606 C 0.63712 0.58173 0.67226 0.0
C607 C 0.60182 0.54901 0.65812 0.0
C608 C 0.63342 0.57881 0.69484 0.0
C609 C 0.5947 0.54274 0.70377 0.0
C610 C 0.55911 0.51018 0.68941 0.0
C611 C 0.56246 0.51344 0.66685 0.0
H612 H 0.52737 0.95012 0.53977 0.0
H613 H 0.56235 0.06821 0.54989 0.0
H614 H 0.5357 0.94846 0.57912 0.0
H615 H 0.57197 0.06748 0.58902 0.0
H616 H 0.53385 0.03669 0.65857 0.0
H617 H 0.52305 0.0333 0.6193 0.0
H618 H 0.59149 0.97874 0.60986 0.0
H619 H 0.60157 0.9816 0.64929 0.0
C620 C 0.5376 0.97595 0.55049 0.0
C621 C 0.54451 0.00938 0.54205 0.0
C622 C 0.54243 0.9751 0.57296 0.0
C623 C 0.554 0.00765 0.58732 0.0
C624 C 0.56204 0.04151 0.57856 0.0
C625 C 0.55713 0.04226 0.55616 0.0
C626 C 0.54646 0.02386 0.6481 0.0
C627 C 0.56898 0.00981 0.65702 0.0
C628 C 0.54049 0.02208 0.62557 0.0
C629 C 0.5572 0.00644 0.61134 0.0
C630 C 0.57803 0.99084 0.6203 0.0
C631 C 0.58378 0.99244 0.64291 0.0
H632 H 0.56955 0.56588 0.90065 0.0
H633 H 0.66148 0.53345 0.89897 0.0
H634 H 0.55075 0.54721 0.93828 0.0
H635 H 0.63989 0.51119 0.9359 0.0
H636 H 0.61076 0.48774 0.0056 0.0
H637 H 0.64311 0.52583 0.97292 0.0
H638 H 0.504 0.48814 0.95607 0.0
H639 H 0.47334 0.45285 0.98949 0.0
C640 C 0.5856 0.55466 0.90852 0.0
C641 C 0.61675 0.5509 0.89732 0.0
C642 C 0.57463 0.54363 0.92993 0.0
C643 C 0.59327 0.52716 0.94013 0.0
C644 C 0.62551 0.52444 0.92883 0.0
C645 C 0.63764 0.53677 0.90764 0.0
C646 C 0.58767 0.48841 0.99494 0.0
C647 C 0.5397 0.46734 -0.00033 0.0
C648 C 0.60593 0.50987 0.97619 0.0
C649 C 0.57609 0.50966 0.96162 0.0
C650 C 0.52837 0.48965 0.96698 0.0
C651 C 0.51051 0.46906 0.98599 0.0
H652 H 0.09334 0.56259 0.22543 0.0
H653 H 1.02722 0.43478 0.22565 0.0
H654 H 0.08593 0.5652 0.26523 0.0
H655 H 1.02028 0.4375 0.26496 0.0
H656 H 0.08703 0.47571 0.33412 0.0
H657 H 0.085 0.47354 0.29448 0.0
H658 H 1.02322 0.53415 0.29677 0.0
H659 H 1.02489 0.53594 0.3369 0.0
C660 C 0.0767 0.53503 0.23389 0.0
C661 C 0.06133 0.49859 0.22243 0.0
C662 C 0.07234 0.53648 0.25663 0.0
C663 C 0.05302 0.50163 0.26823 0.0
C664 C 1.03595 0.46498 0.25655 0.0
C665 C 1.03993 0.46346 0.23399 0.0
C666 C 0.07288 0.48848 0.32617 0.0
C667 C 0.05614 0.50598 0.33854 0.0
C668 C 0.07152 0.4871 0.30348 0.0
C669 C 0.05386 0.5036 0.29248 0.0
C670 C 1.03718 0.52134 0.30481 0.0
C671 C 1.03781 0.5221 0.32769 0.0
loop_
_geom_bond_atom_site_label_1
_geom_bond_atom_site_label_2
_geom_bond_distance
_geom_bond_site_symmetry_2
_ccdc_geom_bond_type
Gd0 C3 2.818 . S
Gd0 O20 2.377 . S
Gd0 O22 2.448 . S
Gd0 O23 2.506 . S
Gd0 O24 2.435 . S
Gd0 O25 2.717 . S
Gd0 O27 2.395 1_455 S
Gd0 O31 2.327 . S
Gd1 C12 2.818 1_455 S
Gd1 O21 2.395 . S
Gd1 O25 2.327 . S
Gd1 O26 2.377 1_455 S
Gd1 O28 2.448 1_455 S
Gd1 O29 2.506 1_455 S
Gd1 O30 2.435 . S
Gd1 O31 2.717 . S
C2 O20 1.240 . S
C2 O21 1.240 . S
C3 Gd0 2.818 . S
C3 C4 1.510 . S
C3 O22 1.249 . S
C3 O23 1.252 . S
C4 C3 1.510 . S
C4 C5 1.404 . S
C4 C6 1.352 . S
C5 C4 1.404 . S
C5 C9 1.389 . S
C5 H32 0.930 . S
C6 C4 1.352 . S
C6 C8 1.374 . S
C6 H33 0.931 . S
C7 C8 1.359 . S
C7 C9 1.364 . S
C8 C6 1.374 . S
C8 C7 1.359 . S
C8 H34 0.931 . S
C9 C5 1.389 . S
C9 C7 1.364 . S
C9 H35 0.931 . S
C10 O24 1.256 . S
C10 O25 1.257 . S
C11 O26 1.240 . S
C11 O27 1.240 . S
C12 Gd1 2.818 1_655 S
C12 C13 1.510 . S
C12 O28 1.249 . S
C12 O29 1.252 . S
C13 C12 1.510 . S
C13 C14 1.404 . S
C13 C15 1.352 . S
C14 C13 1.404 . S
C14 C18 1.389 . S
C14 H36 0.930 . S
C15 C13 1.352 . S
C15 C17 1.374 . S
C15 H37 0.931 . S
C16 C17 1.359 . S
C16 C18 1.364 . S
C17 C15 1.374 . S
C17 C16 1.359 . S
C17 H38 0.931 . S
C18 C14 1.389 . S
C18 C16 1.364 . S
C18 H39 0.931 . S
C19 O30 1.256 . S
C19 O31 1.257 . S
O20 Gd0 2.377 . S
O20 C2 1.240 . S
O21 Gd1 2.395 . S
O21 C2 1.240 . S
O22 Gd0 2.448 . S
O22 C3 1.249 . S
O23 Gd0 2.506 . S
O23 C3 1.252 . S
O24 Gd0 2.435 . S
O24 C10 1.256 . S
O25 Gd0 2.717 . S
O25 Gd1 2.327 . S
O25 C10 1.257 . S
O26 Gd1 2.377 1_655 S
O26 C11 1.240 . S
O27 Gd0 2.395 1_655 S
O27 C11 1.240 . S
O28 Gd1 2.448 1_655 S
O28 C12 1.249 . S
O29 Gd1 2.506 1_655 S
O29 C12 1.252 . S
O30 Gd1 2.435 . S
O30 C19 1.256 . S
O31 Gd0 2.327 . S
O31 Gd1 2.717 . S
O31 C19 1.257 . S
H32 C5 0.930 . S
H33 C6 0.931 . S
H34 C8 0.931 . S
H35 C9 0.931 . S
H36 C14 0.930 . S
H37 C15 0.931 . S
H38 C17 0.931 . S
H39 C18 0.931 . S
Gd40 C43 2.818 . S
Gd40 O60 2.377 . S
Gd40 O62 2.448 . S
Gd40 O63 2.506 . S
Gd40 O64 2.435 . S
Gd40 O65 2.717 1_565 S
Gd40 O67 2.395 1_565 S
Gd40 O71 2.327 1_565 S
Gd41 C52 2.818 . S
Gd41 O61 2.395 1_545 S
Gd41 O65 2.327 . S
Gd41 O66 2.377 . S
Gd41 O68 2.448 . S
Gd41 O69 2.506 . S
Gd41 O70 2.435 . S
Gd41 O71 2.717 . S
C42 O60 1.240 . S
C42 O61 1.240 . S
C43 Gd40 2.818 . S
C43 C44 1.510 . S
C43 O62 1.249 . S
C43 O63 1.252 . S
C44 C43 1.510 . S
C44 C45 1.404 . S
C44 C46 1.352 . S
C45 C44 1.404 . S
C45 C49 1.389 . S
C45 H72 0.930 . S
C46 C44 1.352 . S
C46 C48 1.374 . S
C46 H73 0.931 . S
C47 C48 1.359 . S
C47 C49 1.364 . S
C48 C46 1.374 . S
C48 C47 1.359 . S
C48 H74 0.931 . S
C49 C45 1.389 . S
C49 C47 1.364 . S
C49 H75 0.931 . S
C50 O64 1.256 1_545 S
C50 O65 1.257 . S
C51 O66 1.240 . S
C51 O67 1.240 . S
C52 Gd41 2.818 . S
C52 C53 1.510 . S
C52 O68 1.249 . S
C52 O69 1.252 . S
C53 C52 1.510 . S
C53 C54 1.404 . S
C53 C55 1.352 . S
C54 C53 1.404 . S
C54 C58 1.389 . S
C54 H76 0.930 . S
C55 C53 1.352 . S
C55 C57 1.374 . S
C55 H77 0.931 . S
C56 C57 1.359 . S
C56 C58 1.364 . S
C57 C55 1.374 . S
C57 C56 1.359 . S
C57 H78 0.931 . S
C58 C54 1.389 . S
C58 C56 1.364 . S
C58 H79 0.931 . S
C59 O70 1.256 . S
C59 O71 1.257 . S
O60 Gd40 2.377 . S
O60 C42 1.240 . S
O61 Gd41 2.395 1_565 S
O61 C42 1.240 . S
O62 Gd40 2.448 . S
O62 C43 1.249 . S
O63 Gd40 2.506 . S
O63 C43 1.252 . S
O64 Gd40 2.435 . S
O64 C50 1.256 1_565 S
O65 Gd40 2.717 1_545 S
O65 Gd41 2.327 . S
O65 C50 1.257 . S
O66 Gd41 2.377 . S
O66 C51 1.240 . S
O67 Gd40 2.395 1_545 S
O67 C51 1.240 . S
O68 Gd41 2.448 . S
O68 C52 1.249 . S
O69 Gd41 2.506 . S
O69 C52 1.252 . S
O70 Gd41 2.435 . S
O70 C59 1.256 . S
O71 Gd40 2.327 1_545 S
O71 Gd41 2.717 . S
O71 C59 1.257 . S
H72 C45 0.930 . S
H73 C46 0.931 . S
H74 C48 0.931 . S
H75 C49 0.931 . S
H76 C54 0.930 . S
H77 C55 0.931 . S
H78 C57 0.931 . S
H79 C58 0.931 . S
Gd80 C83 2.818 . S
Gd80 O100 2.377 . S
Gd80 O102 2.448 . S
Gd80 O103 2.506 . S
Gd80 O104 2.435 . S
Gd80 O105 2.717 . S
Gd80 O107 2.395 . S
Gd80 O111 2.327 . S
Gd81 C92 2.818 . S
Gd81 O101 2.395 . S
Gd81 O105 2.327 . S
Gd81 O106 2.377 . S
Gd81 O108 2.448 . S
Gd81 O109 2.506 . S
Gd81 O110 2.435 . S
Gd81 O111 2.717 . S
C82 O100 1.240 . S
C82 O101 1.240 . S
C83 Gd80 2.818 . S
C83 C84 1.510 . S
C83 O102 1.249 . S
C83 O103 1.252 . S
C84 C83 1.510 . S
C84 C85 1.404 . S
C84 C86 1.352 . S
C85 C84 1.404 . S
C85 C89 1.389 . S
C85 H112 0.930 . S
C86 C84 1.352 . S
C86 C88 1.374 . S
C86 H113 0.931 . S
C87 C88 1.359 . S
C87 C89 1.364 . S
C88 C86 1.374 . S
C88 C87 1.359 . S
C88 H114 0.931 . S
C89 C85 1.389 . S
C89 C87 1.364 . S
C89 H115 0.931 . S
C90 O104 1.256 . S
C90 O105 1.257 . S
C91 O106 1.240 . S
C91 O107 1.240 . S
C92 Gd81 2.818 . S
C92 C93 1.510 . S
C92 O108 1.249 . S
C92 O109 1.252 . S
C93 C92 1.510 . S
C93 C94 1.404 . S
C93 C95 1.352 . S
C94 C93 1.404 . S
C94 C98 1.389 . S
C94 H116 0.930 . S
C95 C93 1.352 . S
C95 C97 1.374 . S
C95 H117 0.931 . S
C96 C97 1.359 . S
C96 C98 1.364 . S
C97 C95 1.374 . S
C97 C96 1.359 . S
C97 H118 0.931 . S
C98 C94 1.389 . S
C98 C96 1.364 . S
C98 H119 0.931 . S
C99 O110 1.256 . S
C99 O111 1.257 . S
O100 Gd80 2.377 . S
O100 C82 1.240 . S
O101 Gd81 2.395 . S
O101 C82 1.240 . S
O102 Gd80 2.448 . S
O102 C83 1.249 . S
O103 Gd80 2.506 . S
O103 C83 1.252 . S
O104 Gd80 2.435 . S
O104 C90 1.256 . S
O105 Gd80 2.717 . S
O105 Gd81 2.327 . S
O105 C90 1.257 . S
O106 Gd81 2.377 . S
O106 C91 1.240 . S
O107 Gd80 2.395 . S
O107 C91 1.240 . S
O108 Gd81 2.448 . S
O108 C92 1.249 . S
O109 Gd81 2.506 . S
O109 C92 1.252 . S
O110 Gd81 2.435 . S
O110 C99 1.256 . S
O111 Gd80 2.327 . S
O111 Gd81 2.717 . S
O111 C99 1.257 . S
H112 C85 0.930 . S
H113 C86 0.931 . S
H114 C88 0.931 . S
H115 C89 0.931 . S
H116 C94 0.930 . S
H117 C95 0.931 . S
H118 C97 0.931 . S
H119 C98 0.931 . S
P120 O131 1.490 1_545 S
P120 C134 1.812 1_545 S
P120 C140 1.803 . S
P120 C146 1.819 . S
H121 C135 0.941 . S
H122 C136 0.939 . S
H123 C138 0.940 . S
H124 C139 0.940 . S
H125 C141 0.939 . S
H126 C142 0.942 . S
H127 C144 0.940 . S
H128 C145 0.939 . S
H129 C147 0.941 . S
H130 C151 0.939 . S
O131 P120 1.490 1_565 S
H132 C148 0.939 . S
H133 C150 0.940 . S
C134 P120 1.812 1_565 S
C134 C135 1.389 . S
C134 C139 1.391 . S
C135 H121 0.941 . S
C135 C134 1.389 . S
C135 C136 1.397 . S
C136 H122 0.939 . S
C136 C135 1.397 . S
C136 C137 1.378 . S
C137 C136 1.378 . S
C137 C138 1.378 . S
C138 H123 0.940 . S
C138 C137 1.378 . S
C138 C139 1.396 . S
C139 H124 0.940 . S
C139 C134 1.391 . S
C139 C138 1.396 . S
C140 P120 1.803 . S
C140 C141 1.378 . S
C140 C145 1.400 . S
C141 H125 0.939 . S
C141 C140 1.378 . S
C141 C142 1.361 . S
C142 H126 0.942 . S
C142 C141 1.361 . S
C142 C143 1.369 . S
C143 C142 1.369 . S
C143 C144 1.404 . S
C144 H127 0.940 . S
C144 C143 1.404 . S
C144 C145 1.389 . S
C145 H128 0.939 . S
C145 C140 1.400 . S
C145 C144 1.389 . S
C146 P120 1.819 . S
C146 C147 1.391 1_545 S
C146 C151 1.391 . S
C147 H129 0.941 . S
C147 C146 1.391 1_565 S
C147 C148 1.396 . S
C148 H132 0.939 . S
C148 C147 1.396 . S
C148 C149 1.397 1_565 S
C149 C148 1.397 1_545 S
C149 C150 1.385 . S
C150 H133 0.940 . S
C150 C149 1.385 . S
C150 C151 1.388 . S
C151 H130 0.939 . S
C151 C146 1.391 . S
C151 C150 1.388 . S
P152 O163 1.490 . S
P152 C166 1.812 . S
P152 C172 1.803 . S
P152 C178 1.819 . S
H153 C167 0.941 . S
H154 C168 0.939 . S
H155 C170 0.940 . S
H156 C171 0.940 . S
H157 C173 0.939 . S
H158 C174 0.942 . S
H159 C176 0.940 . S
H160 C177 0.939 . S
H161 C179 0.941 . S
H162 C183 0.939 . S
O163 P152 1.490 . S
H164 C180 0.939 . S
H165 C182 0.940 . S
C166 P152 1.812 . S
C166 C167 1.389 . S
C166 C171 1.391 . S
C167 H153 0.941 . S
C167 C166 1.389 . S
C167 C168 1.397 . S
C168 H154 0.939 . S
C168 C167 1.397 . S
C168 C169 1.378 . S
C169 C168 1.378 . S
C169 C170 1.378 . S
C170 H155 0.940 . S
C170 C169 1.378 . S
C170 C171 1.396 . S
C171 H156 0.940 . S
C171 C166 1.391 . S
C171 C170 1.396 . S
C172 P152 1.803 . S
C172 C173 1.378 . S
C172 C177 1.400 . S
C173 H157 0.939 . S
C173 C172 1.378 . S
C173 C174 1.361 . S
C174 H158 0.942 . S
C174 C173 1.361 . S
C174 C175 1.369 . S
C175 C174 1.369 . S
C175 C176 1.404 . S
C176 H159 0.940 . S
C176 C175 1.404 . S
C176 C177 1.389 . S
C177 H160 0.939 . S
C177 C172 1.400 . S
C177 C176 1.389 . S
C178 P152 1.819 . S
C178 C179 1.391 . S
C178 C183 1.391 . S
C179 H161 0.941 . S
C179 C178 1.391 . S
C179 C180 1.396 . S
C180 H164 0.939 . S
C180 C179 1.396 . S
C180 C181 1.397 . S
C181 C180 1.397 . S
C181 C182 1.385 . S
C182 H165 0.940 . S
C182 C181 1.385 . S
C182 C183 1.388 . S
C183 H162 0.939 . S
C183 C178 1.391 . S
C183 C182 1.388 . S
P184 O195 1.490 . S
P184 C198 1.812 . S
P184 C204 1.803 . S
P184 C210 1.819 . S
H185 C199 0.941 . S
H186 C200 0.939 . S
H187 C202 0.940 . S
H188 C203 0.940 . S
H189 C205 0.939 . S
H190 C206 0.942 . S
H191 C208 0.940 . S
H192 C209 0.939 . S
H193 C211 0.941 . S
H194 C215 0.939 . S
O195 P184 1.490 . S
H196 C212 0.939 . S
H197 C214 0.940 1_655 S
C198 P184 1.812 . S
C198 C199 1.389 . S
C198 C203 1.391 . S
C199 H185 0.941 . S
C199 C198 1.389 . S
C199 C200 1.397 . S
C200 H186 0.939 . S
C200 C199 1.397 . S
C200 C201 1.378 . S
C201 C200 1.378 . S
C201 C202 1.378 . S
C202 H187 0.940 . S
C202 C201 1.378 . S
C202 C203 1.396 . S
C203 H188 0.940 . S
C203 C198 1.391 . S
C203 C202 1.396 . S
C204 P184 1.803 . S
C204 C205 1.378 . S
C204 C209 1.400 . S
C205 H189 0.939 . S
C205 C204 1.378 . S
C205 C206 1.361 1_455 S
C206 H190 0.942 . S
C206 C205 1.361 1_655 S
C206 C207 1.369 . S
C207 C206 1.369 . S
C207 C208 1.404 . S
C208 H191 0.940 . S
C208 C207 1.404 . S
C208 C209 1.389 1_655 S
C209 H192 0.939 . S
C209 C204 1.400 . S
C209 C208 1.389 1_455 S
C210 P184 1.819 . S
C210 C211 1.391 . S
C210 C215 1.391 . S
C211 H193 0.941 . S
C211 C210 1.391 . S
C211 C212 1.396 . S
C212 H196 0.939 . S
C212 C211 1.396 . S
C212 C213 1.397 . S
C213 C212 1.397 . S
C213 C214 1.385 . S
C214 H197 0.940 1_455 S
C214 C213 1.385 . S
C214 C215 1.388 . S
C215 H194 0.939 . S
C215 C210 1.391 . S
C215 C214 1.388 . S
P216 O227 1.490 . S
P216 C230 1.812 . S
P216 C236 1.803 1_455 S
P216 C242 1.819 . S
H217 C231 0.941 . S
H218 C232 0.939 . S
H219 C234 0.940 . S
H220 C235 0.940 . S
H221 C237 0.939 . S
H222 C238 0.942 . S
H223 C240 0.940 . S
H224 C241 0.939 . S
H225 C243 0.941 . S
H226 C247 0.939 . S
O227 P216 1.490 . S
H228 C244 0.939 . S
H229 C246 0.940 . S
C230 P216 1.812 . S
C230 C231 1.389 . S
C230 C235 1.391 . S
C231 H217 0.941 . S
C231 C230 1.389 . S
C231 C232 1.397 . S
C232 H218 0.939 . S
C232 C231 1.397 . S
C232 C233 1.378 . S
C233 C232 1.378 . S
C233 C234 1.378 . S
C234 H219 0.940 . S
C234 C233 1.378 . S
C234 C235 1.396 . S
C235 H220 0.940 . S
C235 C230 1.391 . S
C235 C234 1.396 . S
C236 P216 1.803 1_655 S
C236 C237 1.378 . S
C236 C241 1.400 . S
C237 H221 0.939 . S
C237 C236 1.378 . S
C237 C238 1.361 . S
C238 H222 0.942 . S
C238 C237 1.361 . S
C238 C239 1.369 . S
C239 C238 1.369 . S
C239 C240 1.404 . S
C240 H223 0.940 . S
C240 C239 1.404 . S
C240 C241 1.389 . S
C241 H224 0.939 . S
C241 C236 1.400 . S
C241 C240 1.389 . S
C242 P216 1.819 . S
C242 C243 1.391 . S
C242 C247 1.391 1_455 S
C243 H225 0.941 . S
C243 C242 1.391 . S
C243 C244 1.396 . S
C244 H228 0.939 . S
C244 C243 1.396 . S
C244 C245 1.397 . S
C245 C244 1.397 . S
C245 C246 1.385 1_455 S
C246 H229 0.940 . S
C246 C245 1.385 1_655 S
C246 C247 1.388 . S
C247 H226 0.939 . S
C247 C242 1.391 1_655 S
C247 C246 1.388 . S
P248 O259 1.490 . S
P248 C262 1.812 . S
P248 C268 1.803 1_545 S
P248 C274 1.819 . S
H249 C263 0.941 . S
H250 C264 0.939 . S
H251 C266 0.940 . S
H252 C267 0.940 . S
H253 C269 0.939 . S
H254 C270 0.942 . S
H255 C272 0.940 . S
H256 C273 0.939 . S
H257 C275 0.941 . S
H258 C279 0.939 . S
O259 P248 1.490 . S
H260 C276 0.939 . S
H261 C278 0.940 . S
C262 P248 1.812 . S
C262 C263 1.389 . S
C262 C267 1.391 . S
C263 H249 0.941 . S
C263 C262 1.389 . S
C263 C264 1.397 . S
C264 H250 0.939 . S
C264 C263 1.397 . S
C264 C265 1.378 . S
C265 C264 1.378 . S
C265 C266 1.378 . S
C266 H251 0.940 . S
C266 C265 1.378 . S
C266 C267 1.396 . S
C267 H252 0.940 . S
C267 C262 1.391 . S
C267 C266 1.396 . S
C268 P248 1.803 1_565 S
C268 C269 1.378 . S
C268 C273 1.400 . S
C269 H253 0.939 . S
C269 C268 1.378 . S
C269 C270 1.361 . S
C270 H254 0.942 . S
C270 C269 1.361 . S
C270 C271 1.369 . S
C271 C270 1.369 . S
C271 C272 1.404 . S
C272 H255 0.940 . S
C272 C271 1.404 . S
C272 C273 1.389 . S
C273 H256 0.939 . S
C273 C268 1.400 . S
C273 C272 1.389 . S
C274 P248 1.819 . S
C274 C275 1.391 . S
C274 C279 1.391 1_545 S
C275 H257 0.941 . S
C275 C274 1.391 . S
C275 C276 1.396 . S
C276 H260 0.939 . S
C276 C275 1.396 . S
C276 C277 1.397 . S
C277 C276 1.397 . S
C277 C278 1.385 1_545 S
C278 H261 0.940 . S
C278 C277 1.385 1_565 S
C278 C279 1.388 . S
C279 H258 0.939 . S
C279 C274 1.391 1_565 S
C279 C278 1.388 . S
P280 O291 1.490 . S
P280 C294 1.812 . S
P280 C300 1.803 . S
P280 C306 1.819 . S
H281 C295 0.941 . S
H282 C296 0.939 . S
H283 C298 0.940 . S
H284 C299 0.940 . S
H285 C301 0.939 . S
H286 C302 0.942 . S
H287 C304 0.940 . S
H288 C305 0.939 . S
H289 C307 0.941 . S
H290 C311 0.939 . S
O291 P280 1.490 . S
H292 C308 0.939 . S
H293 C310 0.940 . S
C294 P280 1.812 . S
C294 C295 1.389 . S
C294 C299 1.391 . S
C295 H281 0.941 . S
C295 C294 1.389 . S
C295 C296 1.397 . S
C296 H282 0.939 . S
C296 C295 1.397 . S
C296 C297 1.378 . S
C297 C296 1.378 . S
C297 C298 1.378 . S
C298 H283 0.940 . S
C298 C297 1.378 . S
C298 C299 1.396 . S
C299 H284 0.940 . S
C299 C294 1.391 . S
C299 C298 1.396 . S
C300 P280 1.803 . S
C300 C301 1.378 . S
C300 C305 1.400 . S
C301 H285 0.939 . S
C301 C300 1.378 . S
C301 C302 1.361 . S
C302 H286 0.942 . S
C302 C301 1.361 . S
C302 C303 1.369 . S
C303 C302 1.369 . S
C303 C304 1.404 . S
C304 H287 0.940 . S
C304 C303 1.404 . S
C304 C305 1.389 . S
C305 H288 0.939 . S
C305 C300 1.400 . S
C305 C304 1.389 . S
C306 P280 1.819 . S
C306 C307 1.391 . S
C306 C311 1.391 . S
C307 H289 0.941 . S
C307 C306 1.391 . S
C307 C308 1.396 . S
C308 H292 0.939 . S
C308 C307 1.396 . S
C308 C309 1.397 . S
C309 C308 1.397 . S
C309 C310 1.385 . S
C310 H293 0.940 . S
C310 C309 1.385 . S
C310 C311 1.388 . S
C311 H290 0.939 . S
C311 C306 1.391 . S
C311 C310 1.388 . S
H312 C320 0.950 . S
H313 C325 0.950 . S
H314 C322 0.950 . S
H315 C324 0.950 . S
H316 C326 0.950 . S
H317 C328 0.950 . S
H318 C330 0.950 . S
H319 C331 0.950 . S
C320 H312 0.950 . S
C320 C321 1.386 . S
C320 C322 1.391 . S
C321 C320 1.386 . S
C321 C325 1.393 . S
C322 H314 0.950 . S
C322 C320 1.391 . S
C322 C323 1.400 . S
C323 C322 1.400 . S
C323 C324 1.398 . S
C323 C329 1.491 . S
C324 H315 0.950 . S
C324 C323 1.398 . S
C324 C325 1.391 . S
C325 H313 0.950 . S
C325 C321 1.393 . S
C325 C324 1.391 . S
C326 H316 0.950 . S
C326 C327 1.386 . S
C326 C328 1.391 . S
C327 C326 1.386 . S
C327 C331 1.393 . S
C328 H317 0.950 . S
C328 C326 1.391 . S
C328 C329 1.400 . S
C329 C323 1.491 . S
C329 C328 1.400 . S
C329 C330 1.398 . S
C330 H318 0.950 . S
C330 C329 1.398 . S
C330 C331 1.391 . S
C331 H319 0.950 . S
C331 C327 1.393 . S
C331 C330 1.391 . S
H332 C340 0.950 . S
H333 C345 0.950 . S
H334 C342 0.950 . S
H335 C344 0.950 . S
H336 C346 0.950 . S
H337 C348 0.950 . S
H338 C350 0.950 . S
H339 C351 0.950 . S
C340 H332 0.950 . S
C340 C341 1.386 . S
C340 C342 1.391 . S
C341 C340 1.386 . S
C341 C345 1.393 . S
C342 H334 0.950 . S
C342 C340 1.391 . S
C342 C343 1.400 . S
C343 C342 1.400 . S
C343 C344 1.398 . S
C343 C349 1.491 . S
C344 H335 0.950 . S
C344 C343 1.398 . S
C344 C345 1.391 . S
C345 H333 0.950 . S
C345 C341 1.393 . S
C345 C344 1.391 . S
C346 H336 0.950 . S
C346 C347 1.386 . S
C346 C348 1.391 . S
C347 C346 1.386 . S
C347 C351 1.393 . S
C348 H337 0.950 . S
C348 C346 1.391 . S
C348 C349 1.400 . S
C349 C343 1.491 . S
C349 C348 1.400 . S
C349 C350 1.398 . S
C350 H338 0.950 . S
C350 C349 1.398 . S
C350 C351 1.391 . S
C351 H339 0.950 . S
C351 C347 1.393 . S
C351 C350 1.391 . S
H352 C360 0.950 . S
H353 C365 0.950 . S
H354 C362 0.950 . S
H355 C364 0.950 . S
H356 C366 0.950 . S
H357 C368 0.950 . S
H358 C370 0.950 . S
H359 C371 0.950 . S
C360 H352 0.950 . S
C360 C361 1.386 . S
C360 C362 1.391 . S
C361 C360 1.386 . S
C361 C365 1.393 . S
C362 H354 0.950 . S
C362 C360 1.391 . S
C362 C363 1.400 . S
C363 C362 1.400 . S
C363 C364 1.398 . S
C363 C369 1.491 . S
C364 H355 0.950 . S
C364 C363 1.398 . S
C364 C365 1.391 . S
C365 H353 0.950 . S
C365 C361 1.393 . S
C365 C364 1.391 . S
C366 H356 0.950 . S
C366 C367 1.386 . S
C366 C368 1.391 . S
C367 C366 1.386 . S
C367 C371 1.393 . S
C368 H357 0.950 . S
C368 C366 1.391 . S
C368 C369 1.400 . S
C369 C363 1.491 . S
C369 C368 1.400 . S
C369 C370 1.398 . S
C370 H358 0.950 . S
C370 C369 1.398 . S
C370 C371 1.391 . S
C371 H359 0.950 . S
C371 C367 1.393 . S
C371 C370 1.391 . S
H372 C380 0.950 . S
H373 C385 0.950 . S
H374 C382 0.950 . S
H375 C384 0.950 . S
H376 C386 0.950 . S
H377 C388 0.950 . S
H378 C390 0.950 . S
H379 C391 0.950 . S
C380 H372 0.950 . S
C380 C381 1.386 . S
C380 C382 1.391 . S
C381 C380 1.386 . S
C381 C385 1.393 . S
C382 H374 0.950 . S
C382 C380 1.391 . S
C382 C383 1.400 . S
C383 C382 1.400 . S
C383 C384 1.398 . S
C383 C389 1.491 . S
C384 H375 0.950 . S
C384 C383 1.398 . S
C384 C385 1.391 . S
C385 H373 0.950 . S
C385 C381 1.393 . S
C385 C384 1.391 . S
C386 H376 0.950 . S
C386 C387 1.386 . S
C386 C388 1.391 . S
C387 C386 1.386 . S
C387 C391 1.393 . S
C388 H377 0.950 . S
C388 C386 1.391 . S
C388 C389 1.400 . S
C389 C383 1.491 . S
C389 C388 1.400 . S
C389 C390 1.398 . S
C390 H378 0.950 . S
C390 C389 1.398 . S
C390 C391 1.391 . S
C391 H379 0.950 . S
C391 C387 1.393 . S
C391 C390 1.391 . S
H392 C400 0.950 . S
H393 C405 0.950 . S
H394 C402 0.950 . S
H395 C404 0.950 . S
H396 C406 0.950 . S
H397 C408 0.950 . S
H398 C410 0.950 . S
H399 C411 0.950 . S
C400 H392 0.950 . S
C400 C401 1.386 . S
C400 C402 1.391 . S
C401 C400 1.386 . S
C401 C405 1.393 . S
C402 H394 0.950 . S
C402 C400 1.391 . S
C402 C403 1.400 . S
C403 C402 1.400 . S
C403 C404 1.398 . S
C403 C409 1.491 . S
C404 H395 0.950 . S
C404 C403 1.398 . S
C404 C405 1.391 . S
C405 H393 0.950 . S
C405 C401 1.393 . S
C405 C404 1.391 . S
C406 H396 0.950 . S
C406 C407 1.386 . S
C406 C408 1.391 . S
C407 C406 1.386 . S
C407 C411 1.393 . S
C408 H397 0.950 . S
C408 C406 1.391 . S
C408 C409 1.400 . S
C409 C403 1.491 . S
C409 C408 1.400 . S
C409 C410 1.398 . S
C410 H398 0.950 . S
C410 C409 1.398 . S
C410 C411 1.391 . S
C411 H399 0.950 . S
C411 C407 1.393 . S
C411 C410 1.391 . S
H412 C420 0.950 . S
H413 C425 0.950 . S
H414 C422 0.950 . S
H415 C424 0.950 . S
H416 C426 0.950 . S
H417 C428 0.950 . S
H418 C430 0.950 . S
H419 C431 0.950 . S
C420 H412 0.950 . S
C420 C421 1.386 . S
C420 C422 1.391 . S
C421 C420 1.386 . S
C421 C425 1.393 . S
C422 H414 0.950 . S
C422 C420 1.391 . S
C422 C423 1.400 . S
C423 C422 1.400 . S
C423 C424 1.398 . S
C423 C429 1.491 . S
C424 H415 0.950 . S
C424 C423 1.398 . S
C424 C425 1.391 . S
C425 H413 0.950 . S
C425 C421 1.393 . S
C425 C424 1.391 . S
C426 H416 0.950 . S
C426 C427 1.386 . S
C426 C428 1.391 . S
C427 C426 1.386 . S
C427 C431 1.393 . S
C428 H417 0.950 . S
C428 C426 1.391 . S
C428 C429 1.400 . S
C429 C423 1.491 . S
C429 C428 1.400 . S
C429 C430 1.398 . S
C430 H418 0.950 . S
C430 C429 1.398 . S
C430 C431 1.391 . S
C431 H419 0.950 . S
C431 C427 1.393 . S
C431 C430 1.391 . S
H432 C440 0.950 . S
H433 C445 0.950 . S
H434 C442 0.950 . S
H435 C444 0.950 . S
H436 C446 0.950 . S
H437 C448 0.950 . S
H438 C450 0.950 . S
H439 C451 0.950 . S
C440 H432 0.950 . S
C440 C441 1.386 . S
C440 C442 1.391 . S
C441 C440 1.386 . S
C441 C445 1.393 . S
C442 H434 0.950 . S
C442 C440 1.391 . S
C442 C443 1.400 . S
C443 C442 1.400 . S
C443 C444 1.398 . S
C443 C449 1.491 . S
C444 H435 0.950 . S
C444 C443 1.398 . S
C444 C445 1.391 . S
C445 H433 0.950 . S
C445 C441 1.393 . S
C445 C444 1.391 . S
C446 H436 0.950 . S
C446 C447 1.386 . S
C446 C448 1.391 . S
C447 C446 1.386 . S
C447 C451 1.393 . S
C448 H437 0.950 . S
C448 C446 1.391 . S
C448 C449 1.400 . S
C449 C443 1.491 . S
C449 C448 1.400 . S
C449 C450 1.398 . S
C450 H438 0.950 . S
C450 C449 1.398 . S
C450 C451 1.391 . S
C451 H439 0.950 . S
C451 C447 1.393 . S
C451 C450 1.391 . S
H452 C460 0.950 . S
H453 C465 0.950 . S
H454 C462 0.950 . S
H455 C464 0.950 . S
H456 C466 0.950 . S
H457 C468 0.950 . S
H458 C470 0.950 . S
H459 C471 0.950 . S
C460 H452 0.950 . S
C460 C461 1.386 . S
C460 C462 1.391 . S
C461 C460 1.386 . S
C461 C465 1.393 . S
C462 H454 0.950 . S
C462 C460 1.391 . S
C462 C463 1.400 . S
C463 C462 1.400 . S
C463 C464 1.398 . S
C463 C469 1.491 . S
C464 H455 0.950 . S
C464 C463 1.398 . S
C464 C465 1.391 . S
C465 H453 0.950 . S
C465 C461 1.393 . S
C465 C464 1.391 . S
C466 H456 0.950 . S
C466 C467 1.386 . S
C466 C468 1.391 . S
C467 C466 1.386 . S
C467 C471 1.393 . S
C468 H457 0.950 . S
C468 C466 1.391 . S
C468 C469 1.400 . S
C469 C463 1.491 . S
C469 C468 1.400 . S
C469 C470 1.398 . S
C470 H458 0.950 . S
C470 C469 1.398 . S
C470 C471 1.391 . S
C471 H459 0.950 . S
C471 C467 1.393 . S
C471 C470 1.391 . S
H472 C480 0.950 . S
H473 C485 0.950 . S
H474 C482 0.950 . S
H475 C484 0.950 . S
H476 C486 0.950 . S
H477 C488 0.950 . S
H478 C490 0.950 . S
H479 C491 0.950 . S
C480 H472 0.950 . S
C480 C481 1.386 . S
C480 C482 1.391 . S
C481 C480 1.386 . S
C481 C485 1.393 . S
C482 H474 0.950 . S
C482 C480 1.391 . S
C482 C483 1.400 . S
C483 C482 1.400 . S
C483 C484 1.398 . S
C483 C489 1.491 . S
C484 H475 0.950 . S
C484 C483 1.398 . S
C484 C485 1.391 . S
C485 H473 0.950 . S
C485 C481 1.393 . S
C485 C484 1.391 . S
C486 H476 0.950 . S
C486 C487 1.386 . S
C486 C488 1.391 . S
C487 C486 1.386 . S
C487 C491 1.393 . S
C488 H477 0.950 . S
C488 C486 1.391 . S
C488 C489 1.400 . S
C489 C483 1.491 . S
C489 C488 1.400 . S
C489 C490 1.398 . S
C490 H478 0.950 . S
C490 C489 1.398 . S
C490 C491 1.391 . S
C491 H479 0.950 . S
C491 C487 1.393 . S
C491 C490 1.391 . S
H492 C500 0.950 . S
H493 C505 0.950 . S
H494 C502 0.950 . S
H495 C504 0.950 . S
H496 C506 0.950 . S
H497 C508 0.950 . S
H498 C510 0.950 . S
H499 C511 0.950 . S
C500 H492 0.950 . S
C500 C501 1.386 . S
C500 C502 1.391 . S
C501 C500 1.386 . S
C501 C505 1.393 . S
C502 H494 0.950 . S
C502 C500 1.391 . S
C502 C503 1.400 . S
C503 C502 1.400 . S
C503 C504 1.398 . S
C503 C509 1.491 . S
C504 H495 0.950 . S
C504 C503 1.398 . S
C504 C505 1.391 . S
C505 H493 0.950 . S
C505 C501 1.393 . S
C505 C504 1.391 . S
C506 H496 0.950 . S
C506 C507 1.386 . S
C506 C508 1.391 . S
C507 C506 1.386 . S
C507 C511 1.393 . S
C508 H497 0.950 . S
C508 C506 1.391 . S
C508 C509 1.400 . S
C509 C503 1.491 . S
C509 C508 1.400 . S
C509 C510 1.398 . S
C510 H498 0.950 . S
C510 C509 1.398 . S
C510 C511 1.391 . S
C511 H499 0.950 . S
C511 C507 1.393 . S
C511 C510 1.391 . S
H512 C520 0.950 . S
H513 C525 0.950 . S
H514 C522 0.950 . S
H515 C524 0.950 . S
H516 C526 0.950 . S
H517 C528 0.950 . S
H518 C530 0.950 . S
H519 C531 0.950 . S
C520 H512 0.950 . S
C520 C521 1.386 . S
C520 C522 1.391 . S
C521 C520 1.386 . S
C521 C525 1.393 . S
C522 H514 0.950 . S
C522 C520 1.391 . S
C522 C523 1.400 . S
C523 C522 1.400 . S
C523 C524 1.398 . S
C523 C529 1.491 . S
C524 H515 0.950 . S
C524 C523 1.398 . S
C524 C525 1.391 . S
C525 H513 0.950 . S
C525 C521 1.393 . S
C525 C524 1.391 . S
C526 H516 0.950 . S
C526 C527 1.386 . S
C526 C528 1.391 . S
C527 C526 1.386 . S
C527 C531 1.393 . S
C528 H517 0.950 . S
C528 C526 1.391 . S
C528 C529 1.400 . S
C529 C523 1.491 . S
C529 C528 1.400 . S
C529 C530 1.398 . S
C530 H518 0.950 . S
C530 C529 1.398 . S
C530 C531 1.391 . S
C531 H519 0.950 . S
C531 C527 1.393 . S
C531 C530 1.391 . S
H532 C540 0.950 . S
H533 C545 0.950 . S
H534 C542 0.950 . S
H535 C544 0.950 . S
H536 C546 0.950 . S
H537 C548 0.950 . S
H538 C550 0.950 . S
H539 C551 0.950 . S
C540 H532 0.950 . S
C540 C541 1.386 . S
C540 C542 1.391 . S
C541 C540 1.386 . S
C541 C545 1.393 . S
C542 H534 0.950 . S
C542 C540 1.391 . S
C542 C543 1.400 . S
C543 C542 1.400 . S
C543 C544 1.398 . S
C543 C549 1.491 . S
C544 H535 0.950 . S
C544 C543 1.398 . S
C544 C545 1.391 . S
C545 H533 0.950 . S
C545 C541 1.393 . S
C545 C544 1.391 . S
C546 H536 0.950 . S
C546 C547 1.386 . S
C546 C548 1.391 . S
C547 C546 1.386 . S
C547 C551 1.393 . S
C548 H537 0.950 . S
C548 C546 1.391 . S
C548 C549 1.400 . S
C549 C543 1.491 . S
C549 C548 1.400 . S
C549 C550 1.398 . S
C550 H538 0.950 . S
C550 C549 1.398 . S
C550 C551 1.391 . S
C551 H539 0.950 . S
C551 C547 1.393 . S
C551 C550 1.391 . S
H552 C560 0.950 . S
H553 C565 0.950 . S
H554 C562 0.950 . S
H555 C564 0.950 . S
H556 C566 0.950 . S
H557 C568 0.950 . S
H558 C570 0.950 . S
H559 C571 0.950 . S
C560 H552 0.950 . S
C560 C561 1.386 . S
C560 C562 1.391 . S
C561 C560 1.386 . S
C561 C565 1.393 . S
C562 H554 0.950 . S
C562 C560 1.391 . S
C562 C563 1.400 . S
C563 C562 1.400 . S
C563 C564 1.398 . S
C563 C569 1.491 . S
C564 H555 0.950 . S
C564 C563 1.398 . S
C564 C565 1.391 . S
C565 H553 0.950 . S
C565 C561 1.393 . S
C565 C564 1.391 . S
C566 H556 0.950 . S
C566 C567 1.386 . S
C566 C568 1.391 1_556 S
C567 C566 1.386 . S
C567 C571 1.393 . S
C568 H557 0.950 . S
C568 C566 1.391 1_554 S
C568 C569 1.400 . S
C569 C563 1.491 . S
C569 C568 1.400 . S
C569 C570 1.398 . S
C570 H558 0.950 . S
C570 C569 1.398 . S
C570 C571 1.391 1_554 S
C571 H559 0.950 . S
C571 C567 1.393 . S
C571 C570 1.391 1_556 S
H572 C580 0.950 . S
H573 C585 0.950 . S
H574 C582 0.950 . S
H575 C584 0.950 . S
H576 C586 0.950 . S
H577 C588 0.950 . S
H578 C590 0.950 . S
H579 C591 0.950 . S
C580 H572 0.950 . S
C580 C581 1.386 1_565 S
C580 C582 1.391 . S
C581 C580 1.386 1_545 S
C581 C585 1.393 . S
C582 H574 0.950 . S
C582 C580 1.391 . S
C582 C583 1.400 1_565 S
C583 C582 1.400 1_545 S
C583 C584 1.398 . S
C583 C589 1.491 . S
C584 H575 0.950 . S
C584 C583 1.398 . S
C584 C585 1.391 . S
C585 H573 0.950 . S
C585 C581 1.393 . S
C585 C584 1.391 . S
C586 H576 0.950 . S
C586 C587 1.386 . S
C586 C588 1.391 . S
C587 C586 1.386 . S
C587 C591 1.393 1_545 S
C588 H577 0.950 . S
C588 C586 1.391 . S
C588 C589 1.400 . S
C589 C583 1.491 . S
C589 C588 1.400 . S
C589 C590 1.398 1_545 S
C590 H578 0.950 . S
C590 C589 1.398 1_565 S
C590 C591 1.391 . S
C591 H579 0.950 . S
C591 C587 1.393 1_565 S
C591 C590 1.391 . S
H592 C600 0.950 . S
H593 C605 0.950 . S
H594 C602 0.950 . S
H595 C604 0.950 . S
H596 C606 0.950 . S
H597 C608 0.950 . S
H598 C610 0.950 . S
H599 C611 0.950 . S
C600 H592 0.950 . S
C600 C601 1.386 . S
C600 C602 1.391 . S
C601 C600 1.386 . S
C601 C605 1.393 . S
C602 H594 0.950 . S
C602 C600 1.391 . S
C602 C603 1.400 . S
C603 C602 1.400 . S
C603 C604 1.398 . S
C603 C609 1.491 . S
C604 H595 0.950 . S
C604 C603 1.398 . S
C604 C605 1.391 . S
C605 H593 0.950 . S
C605 C601 1.393 . S
C605 C604 1.391 . S
C606 H596 0.950 . S
C606 C607 1.386 . S
C606 C608 1.391 . S
C607 C606 1.386 . S
C607 C611 1.393 . S
C608 H597 0.950 . S
C608 C606 1.391 . S
C608 C609 1.400 . S
C609 C603 1.491 . S
C609 C608 1.400 . S
C609 C610 1.398 . S
C610 H598 0.950 . S
C610 C609 1.398 . S
C610 C611 1.391 . S
C611 H599 0.950 . S
C611 C607 1.393 . S
C611 C610 1.391 . S
H612 C620 0.950 . S
H613 C625 0.950 . S
H614 C622 0.950 . S
H615 C624 0.950 . S
H616 C626 0.950 . S
H617 C628 0.950 . S
H618 C630 0.950 . S
H619 C631 0.950 . S
C620 H612 0.950 . S
C620 C621 1.386 1_565 S
C620 C622 1.391 . S
C621 C620 1.386 1_545 S
C621 C625 1.393 . S
C622 H614 0.950 . S
C622 C620 1.391 . S
C622 C623 1.400 1_565 S
C623 C622 1.400 1_545 S
C623 C624 1.398 . S
C623 C629 1.491 . S
C624 H615 0.950 . S
C624 C623 1.398 . S
C624 C625 1.391 . S
C625 H613 0.950 . S
C625 C621 1.393 . S
C625 C624 1.391 . S
C626 H616 0.950 . S
C626 C627 1.386 1_545 S
C626 C628 1.391 . S
C627 C626 1.386 1_565 S
C627 C631 1.393 . S
C628 H617 0.950 . S
C628 C626 1.391 . S
C628 C629 1.400 . S
C629 C623 1.491 . S
C629 C628 1.400 . S
C629 C630 1.398 1_545 S
C630 H618 0.950 . S
C630 C629 1.398 1_565 S
C630 C631 1.391 . S
C631 H619 0.950 . S
C631 C627 1.393 . S
C631 C630 1.391 . S
H632 C640 0.950 . S
H633 C645 0.950 . S
H634 C642 0.950 . S
H635 C644 0.950 . S
H636 C646 0.933 1_554 S
H637 C648 0.950 . S
H638 C650 0.950 . S
H639 C651 0.950 1_554 S
C640 H632 0.950 . S
C640 C641 1.386 . S
C640 C642 1.391 . S
C641 C640 1.386 . S
C641 C645 1.393 . S
C642 H634 0.950 . S
C642 C640 1.391 . S
C642 C643 1.400 . S
C643 C642 1.400 . S
C643 C644 1.398 . S
C643 C649 1.491 . S
C644 H635 0.950 . S
C644 C643 1.398 . S
C644 C645 1.391 . S
C645 H633 0.950 . S
C645 C641 1.393 . S
C645 C644 1.391 . S
C646 H636 0.933 1_556 S
C646 C647 1.386 1_556 S
C646 C648 1.391 . S
C647 C646 1.386 1_554 S
C647 C651 1.393 1_554 S
C648 H637 0.950 . S
C648 C646 1.391 . S
C648 C649 1.400 . S
C649 C643 1.491 . S
C649 C648 1.400 . S
C649 C650 1.398 . S
C650 H638 0.950 . S
C650 C649 1.398 . S
C650 C651 1.391 . S
C651 H639 0.950 1_556 S
C651 C647 1.393 1_556 S
C651 C650 1.391 . S
H652 C660 0.950 . S
H653 C665 0.950 . S
H654 C662 0.950 . S
H655 C664 0.950 . S
H656 C666 0.950 . S
H657 C668 0.950 . S
H658 C670 0.950 . S
H659 C671 0.950 1_655 S
C660 H652 0.950 . S
C660 C661 1.386 . S
C660 C662 1.391 . S
C661 C660 1.386 . S
C661 C665 1.393 . S
C662 H654 0.950 . S
C662 C660 1.391 . S
C662 C663 1.400 . S
C663 C662 1.400 . S
C663 C664 1.398 . S
C663 C669 1.491 . S
C664 H655 0.950 . S
C664 C663 1.398 . S
C664 C665 1.391 . S
C665 H653 0.950 . S
C665 C661 1.393 . S
C665 C664 1.391 . S
C666 H656 0.950 . S
C666 C667 1.386 . S
C666 C668 1.391 . S
C667 C666 1.386 . S
C667 C671 1.393 . S
C668 H657 0.950 . S
C668 C666 1.391 . S
C668 C669 1.400 . S
C669 C663 1.491 . S
C669 C668 1.400 . S
C669 C670 1.398 . S
C670 H658 0.950 . S
C670 C669 1.398 . S
C670 C671 1.391 . S
C671 H659 0.950 1_455 S
C671 C667 1.393 . S
C671 C670 1.391 . S
C321 C7 0.623 . S
C327 C303 0.591 . S
C341 C51 1.888 . S
C347 C239 1.821 . S
C361 C87 1.230 . S
C367 C271 1.233 . S
C381 C16 0.458 . S
C387 C297 0.442 . S
C407 C233 1.925 . S
C401 C42 1.975 . S
C427 C265 1.287 . S
C421 C96 1.311 . S
C441 C47 1.196 . S
C447 C175 1.222 . S
C461 C91 3.058 . S
C467 C207 2.983 . S
C481 C2 2.004 . S
C487 C137 1.947 . S
C507 C169 1.296 . S
C501 C56 1.288 . S
C527 C201 2.944 . S
C521 C82 2.974 . S
C541 C11 1.876 . S
C547 C143 1.840 . S
C567 C213 1.741 . S
C561 C19 1.700 . S
C581 C50 1.352 . S
C587 C149 1.346 . S
C601 C99 1.472 . S
C607 C181 1.484 . S
C627 C277 1.463 1_565 S
C621 C59 1.454 . S
C647 C309 1.122 . S
C641 C90 1.117 . S
C661 C10 1.342 . S
C667 C245 1.337 . S
