# Generated by pormake.
# Topology rtl, (3,6)-cn, num edge types: 1
# Building blocks:
#     Node 0, Type 0, BuildingBlock: BETDIP_clean_linker_0, # of connection points: 3
#     Node 1, Type 0, BuildingBlock: BETDIP_clean_linker_0, # of connection points: 3
#     Node 2, Type 0, BuildingBlock: BETDIP_clean_linker_0, # of connection points: 3
#     Node 3, Type 0, BuildingBlock: BETDIP_clean_linker_0, # of connection points: 3
#     Node 4, Type 1, BuildingBlock: KUMBUR_clean_sbu_1, # of connection points: 6
#     Node 5, Type 1, BuildingBlock: KUMBUR_clean_sbu_1, # of connection points: 6
#     Edge 6, Type (0, 1), BuildingBlock: XUDNAN_clean_linker_2, # of connection points: 2
#     Edge 7, Type (0, 1), BuildingBlock: XUDNAN_clean_linker_2, # of connection points: 2
#     Edge 8, Type (0, 1), BuildingBlock: XUDNAN_clean_linker_2, # of connection points: 2
#     Edge 9, Type (0, 1), BuildingBlock: XUDNAN_clean_linker_2, # of connection points: 2
#     Edge 10, Type (0, 1), BuildingBlock: XUDNAN_clean_linker_2, # of connection points: 2
#     Edge 11, Type (0, 1), BuildingBlock: XUDNAN_clean_linker_2, # of connection points: 2
#     Edge 12, Type (0, 1), BuildingBlock: XUDNAN_clean_linker_2, # of connection points: 2
#     Edge 13, Type (0, 1), BuildingBlock: XUDNAN_clean_linker_2, # of connection points: 2
#     Edge 14, Type (0, 1), BuildingBlock: XUDNAN_clean_linker_2, # of connection points: 2
#     Edge 15, Type (0, 1), BuildingBlock: XUDNAN_clean_linker_2, # of connection points: 2
#     Edge 16, Type (0, 1), BuildingBlock: XUDNAN_clean_linker_2, # of connection points: 2
#     Edge 17, Type (0, 1), BuildingBlock: XUDNAN_clean_linker_2, # of connection points: 2
# Relax obj value: 0.052
# Max RMSD: 0.219
# Mean RMSD: 0.160
data_MOF--net-rtl--node1-KUMBUR_clean_sbu_1--node2-BETDIP_clean_linker_0--edge1-XUDNAN_clean_linker_2
_symmetry_space_group_name_H-M    P1
_symmetry_Int_Tables_number       1
_symmetry_cell_setting            triclinic
loop_
_symmetry_equiv_pos_as_xyz
'x, y, z'
_cell_length_a     35.217375
_cell_length_b     35.293765
_cell_length_c     26.93851
_cell_angle_alpha  78.154269
_cell_angle_beta   100.06469
_cell_angle_gamma 91.503501
loop_
_atom_site_label
_atom_site_type_symbol
_atom_site_fract_x
_atom_site_fract_y
_atom_site_fract_z
_atom_type_partial_charge
H0 H 0.25186 0.85042 0.9357 0.0
H1 H 0.26876 0.83402 0.10059 0.0
H2 H 0.18284 0.91458 1.00762 0.0
H3 H 0.32597 0.81251 0.09694 0.0
C4 C 0.32185 0.79755 0.06502 0.0
C5 C 0.24565 0.85877 0.97003 0.0
C6 C 0.21601 0.88575 0.96587 0.0
C7 C 0.26592 0.84079 0.01815 0.0
C8 C 0.25554 0.84947 0.06282 0.0
C9 C 0.22607 0.87647 0.05936 0.0
C10 C 0.20703 0.89535 0.01059 0.0
N11 N 0.29402 0.81177 0.02048 0.0
H12 H 0.70513 0.74437 0.72822 0.0
H13 H 0.69342 0.75836 0.56462 0.0
H14 H 0.61445 0.68558 0.64367 0.0
H15 H 0.76193 0.75144 0.59851 0.0
C16 C 0.76261 0.77679 0.61579 0.0
C17 C 0.68923 0.73819 0.69269 0.0
C18 C 0.65765 0.7124 0.6929 0.0
C19 C 0.70208 0.75493 0.6467 0.0
C20 C 0.68325 0.74597 0.60011 0.0
C21 C 0.65242 0.72006 0.59921 0.0
C22 C 0.63934 0.70418 0.6454 0.0
N23 N 0.73497 0.77947 0.64763 0.0
H24 H 0.77053 0.19412 0.98108 0.0
H25 H 0.78214 0.19033 0.14174 0.0
H26 H 0.84544 0.10861 0.08982 0.0
H27 H 0.71697 0.21353 0.11374 0.0
C28 C 0.72272 0.23524 0.08105 0.0
C29 C 0.78243 0.17931 0.01966 0.0
C30 C 0.8079 0.14746 0.02887 0.0
C31 C 0.77198 0.1936 0.05999 0.0
C32 C 0.78922 0.17809 0.11076 0.0
C33 C 0.81732 0.1486 0.12143 0.0
C34 C 0.825 0.13224 0.08065 0.0
N35 N 0.74651 0.22594 0.04773 0.0
H36 H 0.33321 0.31241 0.3711 0.0
H37 H 0.32908 0.27833 0.53162 0.0
H38 H 0.42708 0.34036 0.48266 0.0
H39 H 0.31706 0.21347 0.48854 0.0
C40 C 0.29165 0.23029 0.46774 0.0
C41 C 0.34709 0.31141 0.41052 0.0
C42 C 0.3816 0.3315 0.42161 0.0
C43 C 0.33007 0.28985 0.45066 0.0
C44 C 0.34515 0.29167 0.50199 0.0
C45 C 0.37912 0.3122 0.51416 0.0
C46 C 0.39869 0.32854 0.47367 0.0
N47 N 0.29628 0.26824 0.43921 0.0
Tb48 Tb 0.04519 0.97512 0.51522 0.0
C49 C 0.9609 0.13273 0.52353 0.0
N50 N 0.99314 0.11621 0.55548 0.0
C51 C 0.02025 0.17901 0.55766 0.0
C52 C 0.95781 0.17312 0.50578 0.0
C53 C 0.02192 0.13873 0.57457 0.0
C54 C 0.98841 0.1962 0.52237 0.0
C55 C 0.89517 0.12532 0.48087 0.0
C56 C 0.92989 0.10914 0.51119 0.0
C57 C 0.89261 0.16538 0.46118 0.0
C58 C 0.92387 0.18921 0.47348 0.0
Tb59 Tb 0.99226 0.05029 0.57803 0.0
N60 N 0.93367 0.07026 0.52981 0.0
C61 C 0.86383 0.10084 0.47234 0.0
C62 C 0.90227 0.0469 0.52521 0.0
C63 C 0.86719 0.06159 0.49552 0.0
H64 H 0.04636 0.1256 0.60238 0.0
H65 H 0.84261 0.04275 0.49121 0.0
H66 H 0.9851 0.90053 0.51137 0.0
H67 H 0.18676 0.98783 0.62663 0.0
H68 H 0.90373 0.01722 0.54512 0.0
H69 H 0.83655 0.11216 0.4495 0.0
H70 H 0.12621 0.01235 0.56972 0.0
H71 H 0.04354 0.19675 0.57175 0.0
H72 H 0.8663 0.17832 0.43732 0.0
H73 H 0.92111 0.22018 0.45896 0.0
H74 H 0.98455 0.83185 0.55334 0.0
H75 H 0.9872 0.22738 0.50945 0.0
H76 H 0.19399 0.91801 0.66578 0.0
N77 N 0.04014 0.91137 0.55236 0.0
C78 C 0.07238 0.89539 0.58456 0.0
C79 C 1.00924 0.84949 0.56309 0.0
C80 C 0.07395 0.85578 0.60817 0.0
C81 C 1.00913 0.88882 0.54039 0.0
C82 C 0.04171 0.8329 0.59736 0.0
N83 N 0.1006 0.9574 0.57282 0.0
C84 C 0.12974 0.98198 0.58433 0.0
C85 C 0.13732 0.90366 0.62885 0.0
C86 C 0.10377 0.91902 0.5946 0.0
C87 C 0.16772 0.92867 0.63968 0.0
C88 C 0.16378 0.96807 0.61758 0.0
H89 H 0.04179 0.80235 0.61467 0.0
H90 H 0.10929 0.80989 0.6601 0.0
H91 H 0.16472 0.8518 0.67827 0.0
O92 O 0.08812 0.97814 0.46876 0.0
O93 O 0.04098 0.9686 0.59706 0.0
O94 O 0.04852 0.02767 0.61957 0.0
O95 O 0.04262 0.93658 0.46507 0.0
O96 O 0.06709 0.03445 0.5026 0.0
O97 O 0.05063 0.06728 0.56356 0.0
O98 O 0.97607 0.02269 0.64893 0.0
O99 O 0.97708 0.05615 0.49496 0.0
O100 O 1.00484 0.01325 0.45572 0.0
O101 O 0.97234 0.08437 0.62299 0.0
O102 O 0.97012 0.99106 0.5806 0.0
O103 O 0.98269 0.9706 0.50842 0.0
C104 C 0.05598 0.99041 0.62954 0.0
C105 C 0.06837 0.95786 0.38971 0.0
C106 C 0.09169 0.94737 0.31358 0.0
C107 C 0.05855 0.96594 0.28247 0.0
C108 C 0.03521 0.97614 0.35807 0.0
C109 C 0.03048 0.98016 0.3047 0.0
C110 C 0.09655 0.94339 0.36728 0.0
C111 C 0.06882 0.06443 0.52524 0.0
C112 C 0.07257 0.95085 0.4461 0.0
C113 C 0.10754 0.84027 0.6417 0.0
C114 C 0.13915 0.86413 0.65195 0.0
C115 C 0.98291 0.04328 0.45448 0.0
C116 C 0.97574 0.06248 0.71077 0.0
C117 C 0.95132 0.07816 0.78333 0.0
C118 C 0.98869 0.08928 0.80298 0.0
C119 C 0.01283 0.07374 0.7306 0.0
C120 C 0.94518 0.06459 0.73722 0.0
C121 C 0.01922 0.08696 0.77679 0.0
C122 C 0.96159 0.97067 0.54432 0.0
C123 C 0.96626 0.05544 0.65852 0.0
H124 H 0.05394 0.96848 0.24107 0.0
H125 H 0.01271 0.98659 0.3746 0.0
H126 H 1.00479 0.99384 0.28044 0.0
H127 H 0.1218 0.92843 0.39152 0.0
H128 H 0.9941 0.10069 0.83793 0.0
H129 H 0.03635 0.07354 0.70955 0.0
H130 H 0.91635 0.05676 0.72104 0.0
H131 H 0.04768 0.0963 0.79172 0.0
Tb132 Tb 0.47786 0.50004 1.00035 0.0
C133 C 0.6403 0.55975 0.08526 0.0
N134 N 0.62173 0.52575 0.09777 0.0
C135 C 0.68085 0.49072 0.10563 0.0
C136 C 0.67957 0.5604 0.08047 0.0
C137 C 0.64219 0.49163 0.11113 0.0
C138 C 0.6995 0.52522 0.08942 0.0
C139 C 0.63973 0.62989 0.07271 0.0
C140 C 0.62081 0.59408 0.08169 0.0
C141 C 0.67831 0.63075 0.0656 0.0
C142 C 0.69819 0.59608 0.06948 0.0
Tb143 Tb 0.55973 0.53198 0.11058 0.0
N144 N 0.58353 0.59226 0.08876 0.0
C145 C 0.61948 0.66365 0.07227 0.0
C146 C 0.56431 0.62475 0.09128 0.0
C147 C 0.58169 0.66101 0.08207 0.0
H148 H 0.6295 0.46505 0.12821 0.0
H149 H 0.56606 0.68682 0.08285 0.0
H150 H 0.40521 0.56383 0.97718 0.0
H151 H 0.4858 0.34464 0.06627 0.0
H152 H 0.53557 0.62258 0.10015 0.0
H153 H 0.63296 0.69175 0.06535 0.0
H154 H 0.51139 0.40904 0.03517 0.0
H155 H 0.69656 0.46349 0.11545 0.0
H156 H 0.6933 0.65798 0.05832 0.0
H157 H 0.7283 0.59713 0.06548 0.0
H158 H 0.33723 0.5626 0.9877 0.0
H159 H 0.72973 0.52449 0.08637 0.0
H160 H 0.41728 0.33769 0.07608 0.0
N161 N 0.4149 0.50375 0.00843 0.0
C162 C 0.39841 0.46902 0.02404 0.0
C163 C 0.35422 0.53614 0.99869 0.0
C164 C 0.35915 0.46674 0.02879 0.0
C165 C 0.39313 0.5369 0.99393 0.0
C166 C 0.3372 0.50095 0.01657 0.0
N167 N 0.45926 0.43885 0.03203 0.0
C168 C 0.48219 0.40673 0.04175 0.0
C169 C 0.40484 0.39911 0.05151 0.0
C170 C 0.4211 0.43553 0.0355 0.0
C171 C 0.42862 0.36618 0.0633 0.0
C172 C 0.46741 0.37003 0.05825 0.0
H173 H 0.30695 0.50043 0.01983 0.0
H174 H 0.31286 0.42818 0.04898 0.0
H175 H 0.35275 0.36905 0.06859 0.0
O176 O 0.46792 0.46562 0.94379 0.0
O177 O 0.46917 0.48562 0.08182 0.0
O178 O 0.53043 0.47694 0.12922 0.0
O179 O 0.44806 0.52579 0.92669 0.0
O180 O 0.53605 0.47635 0.00866 0.0
O181 O 0.56273 0.47394 0.094 0.0
O182 O 0.54818 0.55313 0.17622 0.0
O183 O 0.55122 0.56833 0.03246 0.0
O184 O 0.52915 0.52922 0.97453 0.0
O185 O 0.60013 0.52083 0.17751 0.0
O186 O 0.49988 0.55111 0.09954 0.0
O187 O 0.47313 0.55974 0.01306 0.0
C188 C 0.49299 0.47245 0.12514 0.0
C189 C 0.43366 0.49034 0.85655 0.0
C190 C 0.42406 0.45462 0.78643 0.0
C191 C 0.40422 0.48694 0.75386 0.0
C192 C 0.41362 0.52204 0.823 0.0
C193 C 0.39895 0.52023 0.77211 0.0
C194 C 0.43848 0.45621 0.83823 0.0
C195 C 0.56281 0.46474 0.04919 0.0
C196 C 0.45003 0.49392 0.90979 0.0
C197 C 0.34298 0.43049 0.04503 0.0
C198 C 0.36568 0.39678 0.05606 0.0
C199 C 0.54729 0.56013 0.98626 0.0
C200 C 0.59735 0.54099 0.2563 0.0
C201 C 0.60695 0.573 0.32992 0.0
C202 C 0.63775 0.54716 0.35352 0.0
C203 C 0.62739 0.51492 0.28204 0.0
C204 C 0.58689 0.57013 0.28054 0.0
C205 C 0.64751 0.51821 0.33002 0.0
C206 C 0.47813 0.57082 0.0579 0.0
C207 C 0.58148 0.53964 0.20219 0.0
H208 H 0.39242 0.48631 0.71409 0.0
H209 H 0.40938 0.54844 0.83601 0.0
H210 H 0.38351 0.54483 0.74659 0.0
H211 H 0.45395 0.43147 0.86355 0.0
H212 H 0.65477 0.54952 0.39036 0.0
H213 H 0.63624 0.4924 0.26442 0.0
H214 H 0.56403 0.59062 0.26098 0.0
H215 H 0.67121 0.49856 0.34877 0.0
H216 H 0.27532 0.1536 0.48741 0.0
H217 H 0.22186 0.26742 0.45242 0.0
H218 H 0.15844 0.23724 0.46121 0.0
H219 H 0.19466 0.10819 0.4157 0.0
H220 H 0.20136 0.06257 0.46099 0.0
H221 H 0.24204 0.09349 0.45112 0.0
H222 H 0.25733 0.09247 0.54902 0.0
H223 H 0.21635 0.0621 0.55903 0.0
H224 H 0.22074 0.10746 0.58033 0.0
H225 H 0.10112 0.19426 0.47616 0.0
H226 H 0.05442 0.14178 0.49372 0.0
H227 H 0.14502 0.0568 0.51375 0.0
C228 C 0.25012 0.17207 0.48119 0.0
C229 C 0.25324 0.21273 0.46913 0.0
C230 C 0.21987 0.23616 0.46116 0.0
C231 C 0.18383 0.21928 0.46628 0.0
C232 C 0.18169 0.17901 0.47843 0.0
C233 C 0.21386 0.15568 0.48499 0.0
C234 C 0.20367 0.11319 0.49676 0.0
C235 C 0.21085 0.09319 0.45356 0.0
C236 C 0.22583 0.09262 0.54942 0.0
C237 C 0.16096 0.11627 0.49749 0.0
C238 C 0.14883 0.15442 0.48689 0.0
C239 C 0.11058 0.16432 0.48565 0.0
C240 C 0.08439 0.13443 0.49693 0.0
C241 C 0.09651 0.09525 0.51008 0.0
C242 C 0.13497 0.08622 0.5077 0.0
H243 H 0.33299 0.756 0.9904 0.0
H244 H 0.36492 0.76044 0.15227 0.0
H245 H 0.40668 0.70323 0.16609 0.0
H246 H 0.33321 0.64999 0.00819 0.0
H247 H 0.35409 0.64926 0.95191 0.0
H248 H 0.32479 0.68993 0.95369 0.0
H249 H 0.38068 0.73642 0.93346 0.0
H250 H 0.41004 0.69587 0.93154 0.0
H251 H 0.42738 0.72827 0.97408 0.0
H252 H 0.44314 0.64675 0.16466 0.0
H253 H 0.47725 0.59294 0.14824 0.0
H254 H 0.42857 0.62469 0.98502 0.0
C255 C 0.34868 0.74466 0.02868 0.0
C256 C 0.34573 0.76255 0.07052 0.0
C257 C 0.36683 0.74718 0.11989 0.0
C258 C 0.39055 0.71466 0.12814 0.0
C259 C 0.39315 0.69783 0.08649 0.0
C260 C 0.37314 0.7121 0.03761 0.0
C261 C 0.38269 0.68839 0.99988 0.0
C262 C 0.34653 0.66821 0.97707 0.0
C263 C 0.40132 0.71375 0.95722 0.0
C264 C 0.4114 0.65903 0.03549 0.0
C265 C 0.41622 0.6651 0.08523 0.0
C266 C 0.43987 0.64171 0.12585 0.0
C267 C 0.45925 0.61103 0.11582 0.0
C268 C 0.45579 0.60396 0.06519 0.0
C269 C 0.43158 0.62869 0.02426 0.0
H270 H 0.79687 0.83606 0.66344 0.0
H271 H 0.78418 0.78977 0.52415 0.0
H272 H 0.82912 0.83818 0.48949 0.0
H273 H 0.81031 0.94046 0.59748 0.0
H274 H 0.84583 0.94981 0.65026 0.0
H275 H 0.80791 0.9156 0.66236 0.0
H276 H 0.85923 0.8633 0.70934 0.0
H277 H 0.89712 0.89727 0.69683 0.0
H278 H 0.89635 0.8517 0.67629 0.0
H279 H 0.87521 0.88829 0.46942 0.0
H280 H 0.92703 0.93587 0.46735 0.0
H281 H 0.91822 0.94784 0.62242 0.0
C282 C 0.80304 0.83692 0.62524 0.0
C283 C 0.78684 0.80941 0.59605 0.0
C284 C 0.79615 0.81068 0.54683 0.0
C285 C 0.82151 0.83817 0.5267 0.0
C286 C 0.83769 0.86429 0.55633 0.0
C287 C 0.82916 0.86421 0.60456 0.0
C288 C 0.85352 0.89419 0.62904 0.0
C289 C 0.82786 0.92694 0.63516 0.0
C290 C 0.87803 0.87546 0.68093 0.0
C291 C 0.87835 0.90895 0.58814 0.0
C292 C 0.86737 0.89215 0.54597 0.0
C293 C 0.88447 0.90148 0.50234 0.0
C294 C 0.91416 0.92839 0.50173 0.0
C295 C 0.92777 0.94466 0.54526 0.0
C296 C 0.90901 0.93535 0.58882 0.0
H297 H 0.65963 0.25435 0.11701 0.0
H298 H 0.74101 0.30139 0.01712 0.0
H299 H 0.70813 0.36498 0.99747 0.0
H300 H 0.57626 0.31007 0.03431 0.0
H301 H 0.55496 0.31558 0.08858 0.0
H302 H 0.58406 0.27345 0.09263 0.0
H303 H 0.62742 0.28873 0.17426 0.0
H304 H 0.59866 0.33108 0.16978 0.0
H305 H 0.64997 0.33543 0.17129 0.0
H306 H 0.66613 0.42304 0.98756 0.0
H307 H 0.6188 0.4728 0.99107 0.0
H308 H 0.56755 0.38957 0.10171 0.0
C309 C 0.67039 0.27811 0.09099 0.0
C310 C 0.70272 0.2731 0.06851 0.0
C311 C 0.71604 0.3046 0.0344 0.0
C312 C 0.6976 0.34081 0.02304 0.0
C313 C 0.66572 0.34486 0.04574 0.0
C314 C 0.65206 0.31438 0.07881 0.0
C315 C 0.61708 0.32649 0.09769 0.0
C316 C 0.58096 0.30512 0.07709 0.0
C317 C 0.62372 0.32008 0.15677 0.0
C318 C 0.61474 0.3691 0.07257 0.0
C319 C 0.6423 0.37877 0.04144 0.0
C320 C 0.64447 0.41588 0.01185 0.0
C321 C 0.61757 0.44383 0.0139 0.0
C322 C 0.58987 0.43469 0.04644 0.0
C323 C 0.58868 0.39707 0.0766 0.0
H324 H 0.21567 0.94259 0.09552 0.0
H325 H 0.20177 0.81799 0.1282 0.0
H326 H 0.17319 0.82221 0.20422 0.0
H327 H 0.23793 0.94971 0.23602 0.0
H328 H 0.2133 0.99565 0.22385 0.0
H329 H 0.23701 0.98291 0.17529 0.0
H330 H 0.17314 0.99444 0.10955 0.0
H331 H 0.1495 1.00749 0.1577 0.0
H332 H 0.1303 0.96924 0.12564 0.0
H333 H 0.14117 0.83983 0.27156 0.0
H334 H 0.10453 0.87068 0.32339 0.0
H335 H 0.13837 0.9838 0.24792 0.0
C336 C 0.20708 0.91627 0.11928 0.0
C337 C 0.21119 0.8799 0.10645 0.0
C338 C 0.19943 0.84601 0.13801 0.0
C339 C 0.18324 0.84811 0.18125 0.0
C340 C 0.17954 0.88428 0.19302 0.0
C341 C 0.19135 0.91779 0.16328 0.0
C342 C 0.18241 0.95308 0.18344 0.0
C343 C 0.21989 0.97143 0.20596 0.0
C344 C 0.15732 0.98278 0.14157 0.0
C345 C 0.16063 0.93442 0.22586 0.0
C346 C 0.16066 0.89456 0.23203 0.0
C347 C 0.14141 0.87096 0.26767 0.0
C348 C 0.1208 0.88862 0.29698 0.0
C349 C 0.11909 0.92938 0.28962 0.0
C350 C 0.13975 0.95252 0.25435 0.0
H351 H 0.61828 0.64252 0.71607 0.0
H352 H 0.66465 0.74005 0.78312 0.0
H353 H 0.6422 0.71072 0.86304 0.0
H354 H 0.53078 0.63913 0.77398 0.0
H355 H 0.52658 0.58732 0.78196 0.0
H356 H 0.54794 0.61458 0.72967 0.0
H357 H 0.60955 0.57193 0.76026 0.0
H358 H 0.58841 0.54444 0.81245 0.0
H359 H 0.63456 0.56706 0.82571 0.0
H360 H 0.61036 0.67516 0.9328 0.0
H361 H 0.57612 0.63171 0.99209 0.0
H362 H 0.55143 0.55459 0.88483 0.0
C363 C 0.62339 0.65841 0.74685 0.0
C364 C 0.64383 0.69404 0.74213 0.0
C365 C 0.65021 0.71252 0.78495 0.0
C366 C 0.63701 0.6963 0.83074 0.0
C367 C 0.61656 0.66188 0.83332 0.0
C368 C 0.60952 0.64313 0.79262 0.0
C369 C 0.58524 0.60719 0.80531 0.0
C370 C 0.54527 0.61234 0.77068 0.0
C371 C 0.60571 0.57048 0.80068 0.0
C372 C 0.58204 0.60741 0.86085 0.0
C373 C 0.59937 0.64003 0.8752 0.0
C374 C 0.59786 0.64886 0.92264 0.0
C375 C 0.579 0.62332 0.95691 0.0
C376 C 0.56354 0.58802 0.94561 0.0
C377 C 0.56422 0.58051 0.89592 0.0
H378 H 0.84775 0.0765 0.17516 0.0
H379 H 0.84319 0.19745 0.18642 0.0
H380 H 0.88441 0.18251 0.27122 0.0
H381 H 0.84833 0.03478 0.30895 0.0
H382 H 0.88282 0.99708 0.31237 0.0
H383 H 0.85175 0.01621 0.25228 0.0
H384 H 0.91112 0.03433 0.2065 0.0
H385 H 0.94077 0.01249 0.26643 0.0
H386 H 0.94961 0.06159 0.23575 0.0
H387 H 0.92846 0.15689 0.35136 0.0
H388 H 0.97072 0.12023 0.42719 0.0
H389 H 0.94742 0.01462 0.36887 0.0
C390 C 0.85542 0.09989 0.19533 0.0
C391 C 0.84136 0.13815 0.17393 0.0
C392 C 0.85229 0.16771 0.20211 0.0
C393 C 0.87622 0.15965 0.25026 0.0
C394 C 0.88962 0.12194 0.26987 0.0
C395 C 0.87974 0.09243 0.24362 0.0
C396 C 0.89891 0.05454 0.27383 0.0
C397 C 0.86863 0.02385 0.2877 0.0
C398 C 0.92679 0.03994 0.24378 0.0
C399 C 0.92071 0.06748 0.32134 0.0
C400 C 0.91504 0.10666 0.31754 0.0
C401 C 0.93274 0.12611 0.35515 0.0
C402 C 0.95644 0.10493 0.39835 0.0
C403 C 0.9616 0.06448 0.40465 0.0
C404 C 0.94404 0.04553 0.3651 0.0
H405 H 0.4223 0.37382 0.54064 0.0
H406 H 0.36454 0.27094 0.60956 0.0
H407 H 0.37857 0.29132 0.69294 0.0
H408 H 0.4999 0.37031 0.65699 0.0
H409 H 0.50226 0.42241 0.64424 0.0
H410 H 0.49083 0.39736 0.59158 0.0
H411 H 0.42783 0.4378 0.5578 0.0
H412 H 0.43894 0.46302 0.60983 0.0
H413 H 0.39363 0.43828 0.60033 0.0
H414 H 0.39114 0.32916 0.76628 0.0
H415 H 0.4 0.38017 0.81843 0.0
H416 H 0.45588 0.45243 0.70269 0.0
C417 C 0.4139 0.3541 0.5731 0.0
C418 C 0.39215 0.32044 0.56719 0.0
C419 C 0.38059 0.29725 0.61172 0.0
C420 C 0.38894 0.3083 0.65983 0.0
C421 C 0.41008 0.34191 0.66359 0.0
C422 C 0.42303 0.3639 0.62136 0.0
C423 C 0.44356 0.39977 0.63399 0.0
C424 C 0.4867 0.39731 0.63156 0.0
C425 C 0.42483 0.43685 0.5984 0.0
C426 C 0.43735 0.39642 0.6888 0.0
C427 C 0.4188 0.36244 0.70596 0.0
C428 C 0.40649 0.35534 0.75362 0.0
C429 C 0.41178 0.38434 0.78317 0.0
C430 C 0.42877 0.42004 0.76452 0.0
C431 C 0.44324 0.42516 0.718 0.0
H432 H 0.63635 0.64615 0.58805 0.0
H433 H 0.63317 0.76413 0.50081 0.0
H434 H 0.6111 0.7404 0.42012 0.0
H435 H 0.67444 0.60563 0.49967 0.0
H436 H 0.64833 0.56101 0.51117 0.0
H437 H 0.65991 0.58826 0.56122 0.0
H438 H 0.58744 0.59044 0.5681 0.0
H439 H 0.57551 0.56353 0.5175 0.0
H440 H 0.55262 0.60973 0.51155 0.0
H441 H 0.59688 0.70143 0.34774 0.0
H442 H 0.59455 0.65188 0.2937 0.0
H443 H 0.60142 0.56139 0.4307 0.0
C444 C 0.62986 0.6672 0.55222 0.0
C445 C 0.63595 0.70702 0.55082 0.0
C446 C 0.62863 0.73343 0.50277 0.0
C447 C 0.61585 0.72024 0.45681 0.0
C448 C 0.61041 0.68058 0.45962 0.0
C449 C 0.61717 0.65458 0.50634 0.0
C450 C 0.61267 0.61329 0.49938 0.0
C451 C 0.6511 0.59075 0.51901 0.0
C452 C 0.5801 0.59307 0.52569 0.0
C453 C 0.60216 0.61983 0.44149 0.0
C454 C 0.60118 0.6587 0.41876 0.0
C455 C 0.59681 0.67095 0.36525 0.0
C456 C 0.59518 0.64266 0.33474 0.0
C457 C 0.59787 0.60279 0.35808 0.0
C458 C 0.59924 0.59164 0.41174 0.0
H459 H 0.87058 0.10069 0.02724 0.0
H460 H 0.76848 0.15764 0.92684 0.0
H461 H 0.79069 0.14091 0.85321 0.0
H462 H 0.93713 0.12262 0.95453 0.0
H463 H 0.96014 0.07567 0.96859 0.0
H464 H 0.9346 0.0893 0.01438 0.0
H465 H 0.89186 0.02839 0.01342 0.0
H466 H 0.91742 0.01429 0.96749 0.0
H467 H 0.8657 0.01974 0.95311 0.0
H468 H 0.82963 0.12595 0.78827 0.0
H469 H 0.87986 0.11088 0.74112 0.0
H470 H 0.94987 0.05608 0.88563 0.0
C471 C 0.85159 0.10896 0.99079 0.0
C472 C 0.81813 0.13218 0.98441 0.0
C473 C 0.79538 0.14185 0.93414 0.0
C474 C 0.80726 0.13167 0.89149 0.0
C475 C 0.84087 0.10984 0.89958 0.0
C476 C 0.86192 0.09753 0.94829 0.0
C477 C 0.89719 0.07455 0.94697 0.0
C478 C 0.93442 0.09161 0.9726 0.0
C479 C 0.89278 0.0317 0.97172 0.0
C480 C 0.89506 0.07962 0.88957 0.0
C481 C 0.86179 0.09906 0.86263 0.0
C482 C 0.85529 0.10985 0.809 0.0
C483 C 0.88395 0.1012 0.78256 0.0
C484 C 0.91875 0.08243 0.80998 0.0
C485 C 0.92362 0.07058 0.86388 0.0
H486 H 0.37869 0.32762 0.31768 0.0
H487 H 0.42205 0.39802 0.43024 0.0
H488 H 0.45513 0.43928 0.36749 0.0
H489 H 0.45791 0.33424 0.25109 0.0
H490 H 0.42949 0.34157 0.18732 0.0
H491 H 0.40978 0.31513 0.2415 0.0
H492 H 0.35125 0.36215 0.21822 0.0
H493 H 0.37082 0.38872 0.164 0.0
H494 H 0.35925 0.41348 0.21166 0.0
H495 H 0.48827 0.47007 0.29693 0.0
H496 H 0.51181 0.4953 0.21587 0.0
H497 H 0.44097 0.41322 0.14296 0.0
C498 C 0.39486 0.35178 0.32924 0.0
C499 C 0.399 0.3579 0.38047 0.0
C500 C 0.42002 0.39067 0.39282 0.0
C501 C 0.43863 0.41494 0.35703 0.0
C502 C 0.4349 0.40743 0.30789 0.0
C503 C 0.41277 0.37743 0.29319 0.0
C504 C 0.41194 0.37789 0.23637 0.0
C505 C 0.42827 0.33994 0.22866 0.0
C506 C 0.37086 0.38604 0.20577 0.0
C507 C 0.43833 0.4118 0.2226 0.0
C508 C 0.45129 0.42811 0.26478 0.0
C509 C 0.4777 0.45816 0.2632 0.0
C510 C 0.49104 0.47226 0.21702 0.0
C511 C 0.47755 0.45691 0.17274 0.0
C512 C 0.45077 0.42631 0.17559 0.0
H513 H 0.20344 0.95795 0.9007 0.0
H514 H 0.16864 0.83775 0.92022 0.0
H515 H 0.12358 0.85269 0.83768 0.0
H516 H 0.10992 1.00114 0.83982 0.0
H517 H 0.1287 0.03842 0.7943 0.0
H518 H 0.15797 0.01909 0.85579 0.0
H519 H 0.21183 1.00182 0.80955 0.0
H520 H 0.18263 0.02102 0.74795 0.0
H521 H 0.20059 0.97195 0.76217 0.0
H522 H 0.08284 0.87896 0.75581 0.0
H523 H 0.04776 0.91549 0.67436 0.0
H524 H 0.10895 0.01989 0.70144 0.0
C525 C 0.1861 0.93505 0.88734 0.0
C526 C 0.18929 0.89665 0.91642 0.0
C527 C 0.16654 0.86719 0.8981 0.0
C528 C 0.14089 0.87542 0.85145 0.0
C529 C 0.13847 0.91329 0.82333 0.0
C530 C 0.16042 0.94274 0.84007 0.0
C531 C 0.1525 0.98059 0.80072 0.0
C532 C 0.13631 0.01164 0.82407 0.0
C533 C 0.18906 0.99467 0.7788 0.0
C534 C 0.12216 0.96771 0.76008 0.0
C535 C 0.11487 0.92869 0.77433 0.0
C536 C 0.08829 0.90952 0.74404 0.0
C537 C 0.06857 0.93064 0.69763 0.0
C538 C 0.07573 0.97054 0.68117 0.0
C539 C 0.10271 0.98948 0.71314 0.0
loop_
_geom_bond_atom_site_label_1
_geom_bond_atom_site_label_2
_geom_bond_distance
_geom_bond_site_symmetry_2
_ccdc_geom_bond_type
H0 C5 0.930 . S
H1 C8 0.930 . S
H2 C10 0.930 . S
H3 C4 1.016 . S
C4 H3 1.016 . S
C4 N11 1.286 . S
C5 H0 0.930 . S
C5 C6 1.397 . S
C5 C7 1.361 1_556 S
C6 C5 1.397 . S
C6 C10 1.390 1_556 S
C7 C5 1.361 1_554 S
C7 C8 1.393 . S
C7 N11 1.413 . S
C8 H1 0.930 . S
C8 C7 1.393 . S
C8 C9 1.399 . S
C9 C8 1.399 . S
C9 C10 1.381 . S
C10 H2 0.930 . S
C10 C6 1.390 1_554 S
C10 C9 1.381 . S
N11 C4 1.286 . S
N11 C7 1.413 . S
H12 C17 0.930 . S
H13 C20 0.930 . S
H14 C22 0.930 . S
H15 C16 1.016 . S
C16 H15 1.016 . S
C16 N23 1.286 . S
C17 H12 0.930 . S
C17 C18 1.397 . S
C17 C19 1.361 . S
C18 C17 1.397 . S
C18 C22 1.390 . S
C19 C17 1.361 . S
C19 C20 1.393 . S
C19 N23 1.413 . S
C20 H13 0.930 . S
C20 C19 1.393 . S
C20 C21 1.399 . S
C21 C20 1.399 . S
C21 C22 1.381 . S
C22 H14 0.930 . S
C22 C18 1.390 . S
C22 C21 1.381 . S
N23 C16 1.286 . S
N23 C19 1.413 . S
H24 C29 0.930 1_556 S
H25 C32 0.930 . S
H26 C34 0.930 . S
H27 C28 1.016 . S
C28 H27 1.016 . S
C28 N35 1.286 . S
C29 H24 0.930 1_554 S
C29 C30 1.397 . S
C29 C31 1.361 . S
C30 C29 1.397 . S
C30 C34 1.390 . S
C31 C29 1.361 . S
C31 C32 1.393 . S
C31 N35 1.413 . S
C32 H25 0.930 . S
C32 C31 1.393 . S
C32 C33 1.399 . S
C33 C32 1.399 . S
C33 C34 1.381 . S
C34 H26 0.930 . S
C34 C30 1.390 . S
C34 C33 1.381 . S
N35 C28 1.286 . S
N35 C31 1.413 . S
H36 C41 0.930 . S
H37 C44 0.930 . S
H38 C46 0.930 . S
H39 C40 1.016 . S
C40 H39 1.016 . S
C40 N47 1.286 . S
C41 H36 0.930 . S
C41 C42 1.397 . S
C41 C43 1.361 . S
C42 C41 1.397 . S
C42 C46 1.390 . S
C43 C41 1.361 . S
C43 C44 1.393 . S
C43 N47 1.413 . S
C44 H37 0.930 . S
C44 C43 1.393 . S
C44 C45 1.399 . S
C45 C44 1.399 . S
C45 C46 1.381 . S
C46 H38 0.930 . S
C46 C42 1.390 . S
C46 C45 1.381 . S
N47 C40 1.286 . S
N47 C43 1.413 . S
Tb48 N77 2.617 . S
Tb48 N83 2.572 . S
Tb48 O92 2.465 . S
Tb48 O93 2.387 . S
Tb48 O95 2.428 . S
Tb48 O96 2.308 1_565 S
Tb48 O100 2.349 1_465 S
Tb48 O103 2.393 1_455 S
Tb48 C112 2.802 . S
C49 N50 1.379 . S
C49 C52 1.416 . S
C49 C56 1.424 . S
N50 C49 1.379 . S
N50 C53 1.334 1_655 S
N50 Tb59 2.617 . S
C51 C53 1.390 . S
C51 C54 1.339 1_455 S
C51 H71 0.930 . S
C52 C49 1.416 . S
C52 C54 1.416 . S
C52 C58 1.448 . S
C53 N50 1.334 1_455 S
C53 C51 1.390 . S
C53 H64 0.930 . S
C54 C51 1.339 1_655 S
C54 C52 1.416 . S
C54 H75 0.930 . S
C55 C56 1.413 . S
C55 C57 1.427 . S
C55 C61 1.416 . S
C56 C49 1.424 . S
C56 C55 1.413 . S
C56 N60 1.361 . S
C57 C55 1.427 . S
C57 C58 1.328 . S
C57 H72 0.929 . S
C58 C52 1.448 . S
C58 C57 1.328 . S
C58 H73 0.930 . S
Tb59 N50 2.617 . S
Tb59 N60 2.572 . S
Tb59 O94 2.349 1_655 S
Tb59 O97 2.393 1_655 S
Tb59 O98 2.465 . S
Tb59 O99 2.387 . S
Tb59 O101 2.428 . S
Tb59 O102 2.308 1_545 S
Tb59 C123 2.802 . S
N60 C56 1.361 . S
N60 Tb59 2.572 . S
N60 C62 1.340 . S
C61 C55 1.416 . S
C61 C63 1.332 . S
C61 H69 0.931 . S
C62 N60 1.340 . S
C62 C63 1.407 . S
C62 H68 0.930 . S
C63 C61 1.332 . S
C63 C62 1.407 . S
C63 H65 0.929 . S
H64 C53 0.930 . S
H65 C63 0.929 . S
H66 C81 0.930 1_655 S
H67 C88 0.929 . S
H68 C62 0.930 . S
H69 C61 0.931 . S
H70 C84 0.930 . S
H71 C51 0.930 . S
H72 C57 0.929 . S
H73 C58 0.930 . S
H74 C79 0.930 1_655 S
H75 C54 0.930 . S
H76 C87 0.931 . S
N77 Tb48 2.617 . S
N77 C78 1.379 . S
N77 C81 1.334 . S
C78 N77 1.379 . S
C78 C80 1.416 . S
C78 C86 1.424 . S
C79 H74 0.930 1_455 S
C79 C81 1.390 . S
C79 C82 1.339 . S
C80 C78 1.416 . S
C80 C82 1.416 . S
C80 C113 1.448 . S
C81 H66 0.930 1_455 S
C81 N77 1.334 . S
C81 C79 1.390 . S
C82 C79 1.339 . S
C82 C80 1.416 . S
C82 H89 0.930 . S
N83 Tb48 2.572 . S
N83 C84 1.340 . S
N83 C86 1.361 . S
C84 H70 0.930 . S
C84 N83 1.340 . S
C84 C88 1.407 . S
C85 C86 1.413 . S
C85 C87 1.416 . S
C85 C114 1.427 . S
C86 C78 1.424 . S
C86 N83 1.361 . S
C86 C85 1.413 . S
C87 H76 0.931 . S
C87 C85 1.416 . S
C87 C88 1.332 . S
C88 H67 0.929 . S
C88 C84 1.407 . S
C88 C87 1.332 . S
H89 C82 0.930 . S
H90 C113 0.930 . S
H91 C114 0.929 . S
O92 Tb48 2.465 . S
O92 C112 1.264 . S
O93 Tb48 2.387 . S
O93 C104 1.264 . S
O94 Tb59 2.349 1_455 S
O94 C104 1.243 1_545 S
O95 Tb48 2.428 . S
O95 C112 1.256 . S
O96 Tb48 2.308 1_545 S
O96 C111 1.266 . S
O97 Tb59 2.393 1_455 S
O97 C111 1.248 . S
O98 Tb59 2.465 . S
O98 C123 1.264 . S
O99 Tb59 2.387 . S
O99 C115 1.264 . S
O100 Tb48 2.349 1_645 S
O100 C115 1.243 . S
O101 Tb59 2.428 . S
O101 C123 1.256 . S
O102 Tb59 2.308 1_565 S
O102 C122 1.266 . S
O103 Tb48 2.393 1_655 S
O103 C122 1.248 . S
C104 O93 1.264 . S
C104 O94 1.243 1_565 S
C105 C108 1.399 . S
C105 C110 1.383 . S
C105 C112 1.496 . S
C106 C107 1.399 . S
C106 C110 1.389 . S
C107 C106 1.399 . S
C107 C109 1.380 . S
C107 H124 0.929 . S
C108 C105 1.399 . S
C108 C109 1.392 . S
C108 H125 0.929 . S
C109 C107 1.380 . S
C109 C108 1.392 . S
C109 H126 0.929 . S
C110 C105 1.383 . S
C110 C106 1.389 . S
C110 H127 0.931 . S
C111 O96 1.266 . S
C111 O97 1.248 . S
C112 Tb48 2.802 . S
C112 O92 1.264 . S
C112 O95 1.256 . S
C112 C105 1.496 . S
C113 C80 1.448 . S
C113 H90 0.930 . S
C113 C114 1.328 . S
C114 C85 1.427 . S
C114 H91 0.929 . S
C114 C113 1.328 . S
C115 O99 1.264 . S
C115 O100 1.243 . S
C116 C119 1.399 . S
C116 C120 1.383 . S
C116 C123 1.496 . S
C117 C118 1.399 . S
C117 C120 1.389 . S
C118 C117 1.399 . S
C118 C121 1.380 . S
C118 H128 0.929 . S
C119 C116 1.399 . S
C119 C121 1.392 . S
C119 H129 0.929 . S
C120 C116 1.383 . S
C120 C117 1.389 . S
C120 H130 0.931 . S
C121 C118 1.380 . S
C121 C119 1.392 . S
C121 H131 0.929 . S
C122 O102 1.266 . S
C122 O103 1.248 . S
C123 Tb59 2.802 . S
C123 O98 1.264 . S
C123 O101 1.256 . S
C123 C116 1.496 . S
H124 C107 0.929 . S
H125 C108 0.929 . S
H126 C109 0.929 . S
H127 C110 0.931 . S
H128 C118 0.929 . S
H129 C119 0.929 . S
H130 C120 0.931 . S
H131 C121 0.929 . S
Tb132 N161 2.617 1_556 S
Tb132 N167 2.572 1_556 S
Tb132 O176 2.464 . S
Tb132 O177 2.388 1_556 S
Tb132 O179 2.427 . S
Tb132 O180 2.308 1_556 S
Tb132 O184 2.348 . S
Tb132 O187 2.393 1_556 S
Tb132 C196 2.801 . S
C133 N134 1.379 . S
C133 C136 1.416 . S
C133 C140 1.424 . S
N134 C133 1.379 . S
N134 C137 1.334 . S
N134 Tb143 2.617 . S
C135 C137 1.390 . S
C135 C138 1.339 . S
C135 H155 0.930 . S
C136 C133 1.416 . S
C136 C138 1.416 . S
C136 C142 1.448 . S
C137 N134 1.334 . S
C137 C135 1.390 . S
C137 H148 0.930 . S
C138 C135 1.339 . S
C138 C136 1.416 . S
C138 H159 0.930 . S
C139 C140 1.413 . S
C139 C141 1.427 . S
C139 C145 1.416 . S
C140 C133 1.424 . S
C140 C139 1.413 . S
C140 N144 1.361 . S
C141 C139 1.427 . S
C141 C142 1.328 . S
C141 H156 0.929 . S
C142 C136 1.448 . S
C142 C141 1.328 . S
C142 H157 0.930 . S
Tb143 N134 2.617 . S
Tb143 N144 2.572 . S
Tb143 O178 2.349 . S
Tb143 O181 2.393 . S
Tb143 O182 2.465 . S
Tb143 O183 2.387 . S
Tb143 O185 2.428 . S
Tb143 O186 2.308 . S
Tb143 C207 2.802 . S
N144 C140 1.361 . S
N144 Tb143 2.572 . S
N144 C146 1.340 . S
C145 C139 1.416 . S
C145 C147 1.332 . S
C145 H153 0.931 . S
C146 N144 1.340 . S
C146 C147 1.407 . S
C146 H152 0.930 . S
C147 C145 1.332 . S
C147 C146 1.407 . S
C147 H149 0.929 . S
H148 C137 0.930 . S
H149 C147 0.929 . S
H150 C165 0.930 . S
H151 C172 0.929 . S
H152 C146 0.930 . S
H153 C145 0.931 . S
H154 C168 0.930 . S
H155 C135 0.930 . S
H156 C141 0.929 . S
H157 C142 0.930 . S
H158 C163 0.930 . S
H159 C138 0.930 . S
H160 C171 0.931 . S
N161 Tb132 2.617 1_554 S
N161 C162 1.379 . S
N161 C165 1.334 1_554 S
C162 N161 1.379 . S
C162 C164 1.416 . S
C162 C170 1.424 . S
C163 H158 0.930 . S
C163 C165 1.393 . S
C163 C166 1.337 1_556 S
C164 C162 1.416 . S
C164 C166 1.416 . S
C164 C197 1.448 . S
C165 H150 0.930 . S
C165 N161 1.334 1_556 S
C165 C163 1.393 . S
C166 C163 1.337 1_554 S
C166 C164 1.416 . S
C166 H173 0.930 . S
N167 Tb132 2.572 1_554 S
N167 C168 1.340 . S
N167 C170 1.361 . S
C168 H154 0.930 . S
C168 N167 1.340 . S
C168 C172 1.407 . S
C169 C170 1.413 . S
C169 C171 1.416 . S
C169 C198 1.427 . S
C170 C162 1.424 . S
C170 N167 1.361 . S
C170 C169 1.413 . S
C171 H160 0.931 . S
C171 C169 1.416 . S
C171 C172 1.332 . S
C172 H151 0.929 . S
C172 C168 1.407 . S
C172 C171 1.332 . S
H173 C166 0.930 . S
H174 C197 0.930 . S
H175 C198 0.929 . S
O176 Tb132 2.464 . S
O176 C196 1.264 . S
O177 Tb132 2.388 1_554 S
O177 C188 1.264 . S
O178 Tb143 2.349 . S
O178 C188 1.243 . S
O179 Tb132 2.427 . S
O179 C196 1.256 . S
O180 Tb132 2.308 1_554 S
O180 C195 1.266 . S
O181 Tb143 2.393 . S
O181 C195 1.248 . S
O182 Tb143 2.465 . S
O182 C207 1.264 . S
O183 Tb143 2.387 . S
O183 C199 1.264 1_554 S
O184 Tb132 2.348 . S
O184 C199 1.243 . S
O185 Tb143 2.428 . S
O185 C207 1.256 . S
O186 Tb143 2.308 . S
O186 C206 1.266 . S
O187 Tb132 2.393 1_554 S
O187 C206 1.248 . S
C188 O177 1.264 . S
C188 O178 1.243 . S
C189 C192 1.399 . S
C189 C194 1.383 . S
C189 C196 1.496 . S
C190 C191 1.399 . S
C190 C194 1.389 . S
C191 C190 1.399 . S
C191 C193 1.380 . S
C191 H208 0.929 . S
C192 C189 1.399 . S
C192 C193 1.392 . S
C192 H209 0.929 . S
C193 C191 1.380 . S
C193 C192 1.392 . S
C193 H210 0.929 . S
C194 C189 1.383 . S
C194 C190 1.389 . S
C194 H211 0.931 . S
C195 O180 1.266 . S
C195 O181 1.248 . S
C196 Tb132 2.801 . S
C196 O176 1.264 . S
C196 O179 1.256 . S
C196 C189 1.496 . S
C197 C164 1.448 . S
C197 H174 0.930 . S
C197 C198 1.328 . S
C198 C169 1.427 . S
C198 H175 0.929 . S
C198 C197 1.328 . S
C199 O183 1.264 1_556 S
C199 O184 1.243 . S
C200 C203 1.399 . S
C200 C204 1.383 . S
C200 C207 1.496 . S
C201 C202 1.399 . S
C201 C204 1.389 . S
C202 C201 1.399 . S
C202 C205 1.380 . S
C202 H212 0.929 . S
C203 C200 1.399 . S
C203 C205 1.392 . S
C203 H213 0.929 . S
C204 C200 1.383 . S
C204 C201 1.389 . S
C204 H214 0.931 . S
C205 C202 1.380 . S
C205 C203 1.392 . S
C205 H215 0.929 . S
C206 O186 1.266 . S
C206 O187 1.248 . S
C207 Tb143 2.802 . S
C207 O182 1.264 . S
C207 O185 1.256 . S
C207 C200 1.496 . S
H208 C191 0.929 . S
H209 C192 0.929 . S
H210 C193 0.929 . S
H211 C194 0.931 . S
H212 C202 0.929 . S
H213 C203 0.929 . S
H214 C204 0.931 . S
H215 C205 0.929 . S
H216 C228 0.930 . S
H217 C230 0.930 . S
H218 C231 0.930 . S
H219 C235 0.959 . S
H220 C235 0.959 . S
H221 C235 0.961 . S
H222 C236 0.960 . S
H223 C236 0.961 . S
H224 C236 0.959 . S
H225 C239 0.929 . S
H226 C240 0.931 . S
H227 C242 0.930 . S
C228 H216 0.930 . S
C228 C229 1.399 . S
C228 C233 1.399 . S
C229 C228 1.399 . S
C229 C230 1.376 . S
C230 H217 0.930 . S
C230 C229 1.376 . S
C230 C231 1.388 . S
C231 H218 0.930 . S
C231 C230 1.388 . S
C231 C232 1.390 . S
C232 C231 1.390 . S
C232 C233 1.394 . S
C232 C238 1.465 . S
C233 C228 1.399 . S
C233 C232 1.394 . S
C233 C234 1.516 . S
C234 C233 1.516 . S
C234 C235 1.502 . S
C234 C236 1.561 . S
C234 C237 1.526 . S
C235 H219 0.959 . S
C235 H220 0.959 . S
C235 H221 0.961 . S
C235 C234 1.502 . S
C236 H222 0.960 . S
C236 H223 0.961 . S
C236 H224 0.959 . S
C236 C234 1.561 . S
C237 C234 1.526 . S
C237 C238 1.396 . S
C237 C242 1.390 . S
C238 C232 1.465 . S
C238 C237 1.396 . S
C238 C239 1.399 . S
C239 H225 0.929 . S
C239 C238 1.399 . S
C239 C240 1.385 . S
C240 H226 0.931 . S
C240 C239 1.385 . S
C240 C241 1.389 . S
C241 C240 1.389 . S
C241 C242 1.387 . S
C242 H227 0.930 . S
C242 C237 1.390 . S
C242 C241 1.387 . S
H243 C255 0.930 1_556 S
H244 C257 0.930 . S
H245 C258 0.930 . S
H246 C262 0.959 . S
H247 C262 0.959 . S
H248 C262 0.961 . S
H249 C263 0.960 . S
H250 C263 0.961 . S
H251 C263 0.959 . S
H252 C266 0.929 . S
H253 C267 0.931 . S
H254 C269 0.930 1_556 S
C255 H243 0.930 1_554 S
C255 C256 1.399 . S
C255 C260 1.399 . S
C256 C255 1.399 . S
C256 C257 1.376 . S
C257 H244 0.930 . S
C257 C256 1.376 . S
C257 C258 1.388 . S
C258 H245 0.930 . S
C258 C257 1.388 . S
C258 C259 1.390 . S
C259 C258 1.390 . S
C259 C260 1.394 . S
C259 C265 1.465 . S
C260 C255 1.399 . S
C260 C259 1.394 . S
C260 C261 1.516 1_554 S
C261 C260 1.516 1_556 S
C261 C262 1.502 . S
C261 C263 1.561 . S
C261 C264 1.526 1_556 S
C262 H246 0.959 . S
C262 H247 0.959 . S
C262 H248 0.961 . S
C262 C261 1.502 . S
C263 H249 0.960 . S
C263 H250 0.961 . S
C263 H251 0.959 . S
C263 C261 1.561 . S
C264 C261 1.526 1_554 S
C264 C265 1.396 . S
C264 C269 1.390 . S
C265 C259 1.465 . S
C265 C264 1.396 . S
C265 C266 1.399 . S
C266 H252 0.929 . S
C266 C265 1.399 . S
C266 C267 1.385 . S
C267 H253 0.931 . S
C267 C266 1.385 . S
C267 C268 1.389 . S
C268 C267 1.389 . S
C268 C269 1.387 . S
C269 H254 0.930 1_554 S
C269 C264 1.390 . S
C269 C268 1.387 . S
H270 C282 0.930 . S
H271 C284 0.930 . S
H272 C285 0.930 . S
H273 C289 0.959 . S
H274 C289 0.959 . S
H275 C289 0.961 . S
H276 C290 0.960 . S
H277 C290 0.961 . S
H278 C290 0.959 . S
H279 C293 0.929 . S
H280 C294 0.931 . S
H281 C296 0.930 . S
C282 H270 0.930 . S
C282 C283 1.399 . S
C282 C287 1.399 . S
C283 C282 1.399 . S
C283 C284 1.376 . S
C284 H271 0.930 . S
C284 C283 1.376 . S
C284 C285 1.388 . S
C285 H272 0.930 . S
C285 C284 1.388 . S
C285 C286 1.390 . S
C286 C285 1.390 . S
C286 C287 1.394 . S
C286 C292 1.465 . S
C287 C282 1.399 . S
C287 C286 1.394 . S
C287 C288 1.516 . S
C288 C287 1.516 . S
C288 C289 1.502 . S
C288 C290 1.561 . S
C288 C291 1.526 . S
C289 H273 0.959 . S
C289 H274 0.959 . S
C289 H275 0.961 . S
C289 C288 1.502 . S
C290 H276 0.960 . S
C290 H277 0.961 . S
C290 H278 0.959 . S
C290 C288 1.561 . S
C291 C288 1.526 . S
C291 C292 1.396 . S
C291 C296 1.390 . S
C292 C286 1.465 . S
C292 C291 1.396 . S
C292 C293 1.399 . S
C293 H279 0.929 . S
C293 C292 1.399 . S
C293 C294 1.385 . S
C294 H280 0.931 . S
C294 C293 1.385 . S
C294 C295 1.389 . S
C295 C294 1.389 . S
C295 C296 1.387 . S
C296 H281 0.930 . S
C296 C291 1.390 . S
C296 C295 1.387 . S
H297 C309 0.930 . S
H298 C311 0.930 . S
H299 C312 0.930 . S
H300 C316 0.959 . S
H301 C316 0.959 . S
H302 C316 0.961 . S
H303 C317 0.960 . S
H304 C317 0.961 . S
H305 C317 0.959 . S
H306 C320 0.929 . S
H307 C321 0.931 . S
H308 C323 0.930 . S
C309 H297 0.930 . S
C309 C310 1.399 . S
C309 C314 1.399 . S
C310 C309 1.399 . S
C310 C311 1.376 . S
C311 H298 0.930 . S
C311 C310 1.376 . S
C311 C312 1.388 . S
C312 H299 0.930 . S
C312 C311 1.388 . S
C312 C313 1.390 . S
C313 C312 1.390 . S
C313 C314 1.394 . S
C313 C319 1.465 . S
C314 C309 1.399 . S
C314 C313 1.394 . S
C314 C315 1.516 . S
C315 C314 1.516 . S
C315 C316 1.502 . S
C315 C317 1.561 . S
C315 C318 1.526 . S
C316 H300 0.959 . S
C316 H301 0.959 . S
C316 H302 0.961 . S
C316 C315 1.502 . S
C317 H303 0.960 . S
C317 H304 0.961 . S
C317 H305 0.959 . S
C317 C315 1.561 . S
C318 C315 1.526 . S
C318 C319 1.396 . S
C318 C323 1.390 . S
C319 C313 1.465 . S
C319 C318 1.396 . S
C319 C320 1.399 . S
C320 H306 0.929 . S
C320 C319 1.399 . S
C320 C321 1.385 . S
C321 H307 0.931 . S
C321 C320 1.385 . S
C321 C322 1.389 . S
C322 C321 1.389 . S
C322 C323 1.387 . S
C323 H308 0.930 . S
C323 C318 1.390 . S
C323 C322 1.387 . S
H324 C336 0.930 . S
H325 C338 0.930 . S
H326 C339 0.930 . S
H327 C343 0.959 . S
H328 C343 0.959 . S
H329 C343 0.961 . S
H330 C344 0.960 . S
H331 C344 0.961 1_545 S
H332 C344 0.959 . S
H333 C347 0.929 . S
H334 C348 0.931 . S
H335 C350 0.930 . S
C336 H324 0.930 . S
C336 C337 1.399 . S
C336 C341 1.399 . S
C337 C336 1.399 . S
C337 C338 1.376 . S
C338 H325 0.930 . S
C338 C337 1.376 . S
C338 C339 1.388 . S
C339 H326 0.930 . S
C339 C338 1.388 . S
C339 C340 1.390 . S
C340 C339 1.390 . S
C340 C341 1.394 . S
C340 C346 1.465 . S
C341 C336 1.399 . S
C341 C340 1.394 . S
C341 C342 1.516 . S
C342 C341 1.516 . S
C342 C343 1.502 . S
C342 C344 1.561 . S
C342 C345 1.526 . S
C343 H327 0.959 . S
C343 H328 0.959 . S
C343 H329 0.961 . S
C343 C342 1.502 . S
C344 H330 0.960 . S
C344 H331 0.961 1_565 S
C344 H332 0.959 . S
C344 C342 1.561 . S
C345 C342 1.526 . S
C345 C346 1.396 . S
C345 C350 1.390 . S
C346 C340 1.465 . S
C346 C345 1.396 . S
C346 C347 1.399 . S
C347 H333 0.929 . S
C347 C346 1.399 . S
C347 C348 1.385 . S
C348 H334 0.931 . S
C348 C347 1.385 . S
C348 C349 1.389 . S
C349 C348 1.389 . S
C349 C350 1.387 . S
C350 H335 0.930 . S
C350 C345 1.390 . S
C350 C349 1.387 . S
H351 C363 0.930 . S
H352 C365 0.930 . S
H353 C366 0.930 . S
H354 C370 0.959 . S
H355 C370 0.959 . S
H356 C370 0.961 . S
H357 C371 0.960 . S
H358 C371 0.961 . S
H359 C371 0.959 . S
H360 C374 0.929 . S
H361 C375 0.931 . S
H362 C377 0.930 . S
C363 H351 0.930 . S
C363 C364 1.399 . S
C363 C368 1.399 . S
C364 C363 1.399 . S
C364 C365 1.376 . S
C365 H352 0.930 . S
C365 C364 1.376 . S
C365 C366 1.388 . S
C366 H353 0.930 . S
C366 C365 1.388 . S
C366 C367 1.390 . S
C367 C366 1.390 . S
C367 C368 1.394 . S
C367 C373 1.465 . S
C368 C363 1.399 . S
C368 C367 1.394 . S
C368 C369 1.516 . S
C369 C368 1.516 . S
C369 C370 1.502 . S
C369 C371 1.561 . S
C369 C372 1.526 . S
C370 H354 0.959 . S
C370 H355 0.959 . S
C370 H356 0.961 . S
C370 C369 1.502 . S
C371 H357 0.960 . S
C371 H358 0.961 . S
C371 H359 0.959 . S
C371 C369 1.561 . S
C372 C369 1.526 . S
C372 C373 1.396 . S
C372 C377 1.390 . S
C373 C367 1.465 . S
C373 C372 1.396 . S
C373 C374 1.399 . S
C374 H360 0.929 . S
C374 C373 1.399 . S
C374 C375 1.385 . S
C375 H361 0.931 . S
C375 C374 1.385 . S
C375 C376 1.389 . S
C376 C375 1.389 . S
C376 C377 1.387 . S
C377 H362 0.930 . S
C377 C372 1.390 . S
C377 C376 1.387 . S
H378 C390 0.930 . S
H379 C392 0.930 . S
H380 C393 0.930 . S
H381 C397 0.959 . S
H382 C397 0.959 1_565 S
H383 C397 0.961 . S
H384 C398 0.960 . S
H385 C398 0.961 . S
H386 C398 0.959 . S
H387 C401 0.929 . S
H388 C402 0.931 . S
H389 C404 0.930 . S
C390 H378 0.930 . S
C390 C391 1.399 . S
C390 C395 1.399 . S
C391 C390 1.399 . S
C391 C392 1.376 . S
C392 H379 0.930 . S
C392 C391 1.376 . S
C392 C393 1.388 . S
C393 H380 0.930 . S
C393 C392 1.388 . S
C393 C394 1.390 . S
C394 C393 1.390 . S
C394 C395 1.394 . S
C394 C400 1.465 . S
C395 C390 1.399 . S
C395 C394 1.394 . S
C395 C396 1.516 . S
C396 C395 1.516 . S
C396 C397 1.502 . S
C396 C398 1.561 . S
C396 C399 1.526 . S
C397 H381 0.959 . S
C397 H382 0.959 1_545 S
C397 H383 0.961 . S
C397 C396 1.502 . S
C398 H384 0.960 . S
C398 H385 0.961 . S
C398 H386 0.959 . S
C398 C396 1.561 . S
C399 C396 1.526 . S
C399 C400 1.396 . S
C399 C404 1.390 . S
C400 C394 1.465 . S
C400 C399 1.396 . S
C400 C401 1.399 . S
C401 H387 0.929 . S
C401 C400 1.399 . S
C401 C402 1.385 . S
C402 H388 0.931 . S
C402 C401 1.385 . S
C402 C403 1.389 . S
C403 C402 1.389 . S
C403 C404 1.387 . S
C404 H389 0.930 . S
C404 C399 1.390 . S
C404 C403 1.387 . S
H405 C417 0.930 . S
H406 C419 0.930 . S
H407 C420 0.930 . S
H408 C424 0.959 . S
H409 C424 0.959 . S
H410 C424 0.961 . S
H411 C425 0.960 . S
H412 C425 0.961 . S
H413 C425 0.959 . S
H414 C428 0.929 . S
H415 C429 0.931 . S
H416 C431 0.930 . S
C417 H405 0.930 . S
C417 C418 1.399 . S
C417 C422 1.399 . S
C418 C417 1.399 . S
C418 C419 1.376 . S
C419 H406 0.930 . S
C419 C418 1.376 . S
C419 C420 1.388 . S
C420 H407 0.930 . S
C420 C419 1.388 . S
C420 C421 1.390 . S
C421 C420 1.390 . S
C421 C422 1.394 . S
C421 C427 1.465 . S
C422 C417 1.399 . S
C422 C421 1.394 . S
C422 C423 1.516 . S
C423 C422 1.516 . S
C423 C424 1.502 . S
C423 C425 1.561 . S
C423 C426 1.526 . S
C424 H408 0.959 . S
C424 H409 0.959 . S
C424 H410 0.961 . S
C424 C423 1.502 . S
C425 H411 0.960 . S
C425 H412 0.961 . S
C425 H413 0.959 . S
C425 C423 1.561 . S
C426 C423 1.526 . S
C426 C427 1.396 . S
C426 C431 1.390 . S
C427 C421 1.465 . S
C427 C426 1.396 . S
C427 C428 1.399 . S
C428 H414 0.929 . S
C428 C427 1.399 . S
C428 C429 1.385 . S
C429 H415 0.931 . S
C429 C428 1.385 . S
C429 C430 1.389 . S
C430 C429 1.389 . S
C430 C431 1.387 . S
C431 H416 0.930 . S
C431 C426 1.390 . S
C431 C430 1.387 . S
H432 C444 0.930 . S
H433 C446 0.930 . S
H434 C447 0.930 . S
H435 C451 0.959 . S
H436 C451 0.959 . S
H437 C451 0.961 . S
H438 C452 0.960 . S
H439 C452 0.961 . S
H440 C452 0.959 . S
H441 C455 0.929 . S
H442 C456 0.931 . S
H443 C458 0.930 . S
C444 H432 0.930 . S
C444 C445 1.399 . S
C444 C449 1.399 . S
C445 C444 1.399 . S
C445 C446 1.376 . S
C446 H433 0.930 . S
C446 C445 1.376 . S
C446 C447 1.388 . S
C447 H434 0.930 . S
C447 C446 1.388 . S
C447 C448 1.390 . S
C448 C447 1.390 . S
C448 C449 1.394 . S
C448 C454 1.465 . S
C449 C444 1.399 . S
C449 C448 1.394 . S
C449 C450 1.516 . S
C450 C449 1.516 . S
C450 C451 1.502 . S
C450 C452 1.561 . S
C450 C453 1.526 . S
C451 H435 0.959 . S
C451 H436 0.959 . S
C451 H437 0.961 . S
C451 C450 1.502 . S
C452 H438 0.960 . S
C452 H439 0.961 . S
C452 H440 0.959 . S
C452 C450 1.561 . S
C453 C450 1.526 . S
C453 C454 1.396 . S
C453 C458 1.390 . S
C454 C448 1.465 . S
C454 C453 1.396 . S
C454 C455 1.399 . S
C455 H441 0.929 . S
C455 C454 1.399 . S
C455 C456 1.385 . S
C456 H442 0.931 . S
C456 C455 1.385 . S
C456 C457 1.389 . S
C457 C456 1.389 . S
C457 C458 1.387 . S
C458 H443 0.930 . S
C458 C453 1.390 . S
C458 C457 1.387 . S
H459 C471 0.930 1_554 S
H460 C473 0.930 . S
H461 C474 0.930 . S
H462 C478 0.959 . S
H463 C478 0.959 . S
H464 C478 0.946 1_554 S
H465 C479 0.960 . S
H466 C479 0.950 1_565 S
H467 C479 0.959 . S
H468 C482 0.929 . S
H469 C483 0.931 . S
H470 C485 0.930 . S
C471 H459 0.930 1_556 S
C471 C472 1.399 . S
C471 C476 1.399 . S
C472 C471 1.399 . S
C472 C473 1.376 . S
C473 H460 0.930 . S
C473 C472 1.376 . S
C473 C474 1.388 . S
C474 H461 0.930 . S
C474 C473 1.388 . S
C474 C475 1.390 . S
C475 C474 1.390 . S
C475 C476 1.394 . S
C475 C481 1.465 . S
C476 C471 1.399 . S
C476 C475 1.394 . S
C476 C477 1.516 . S
C477 C476 1.516 . S
C477 C478 1.502 . S
C477 C479 1.561 . S
C477 C480 1.526 . S
C478 H462 0.959 . S
C478 H463 0.959 . S
C478 H464 0.946 1_556 S
C478 C477 1.502 . S
C479 H465 0.960 . S
C479 H466 0.950 1_545 S
C479 H467 0.959 . S
C479 C477 1.561 . S
C480 C477 1.526 . S
C480 C481 1.396 . S
C480 C485 1.390 . S
C481 C475 1.465 . S
C481 C480 1.396 . S
C481 C482 1.399 . S
C482 H468 0.929 . S
C482 C481 1.399 . S
C482 C483 1.385 . S
C483 H469 0.931 . S
C483 C482 1.385 . S
C483 C484 1.389 . S
C484 C483 1.389 . S
C484 C485 1.387 . S
C485 H470 0.930 . S
C485 C480 1.390 . S
C485 C484 1.387 . S
H486 C498 0.930 . S
H487 C500 0.930 . S
H488 C501 0.930 . S
H489 C505 0.959 . S
H490 C505 0.959 . S
H491 C505 0.961 . S
H492 C506 0.960 . S
H493 C506 0.961 . S
H494 C506 0.959 . S
H495 C509 0.929 . S
H496 C510 0.931 . S
H497 C512 0.930 . S
C498 H486 0.930 . S
C498 C499 1.399 . S
C498 C503 1.399 . S
C499 C498 1.399 . S
C499 C500 1.376 . S
C500 H487 0.930 . S
C500 C499 1.376 . S
C500 C501 1.388 . S
C501 H488 0.930 . S
C501 C500 1.388 . S
C501 C502 1.390 . S
C502 C501 1.390 . S
C502 C503 1.394 . S
C502 C508 1.465 . S
C503 C498 1.399 . S
C503 C502 1.394 . S
C503 C504 1.516 . S
C504 C503 1.516 . S
C504 C505 1.502 . S
C504 C506 1.561 . S
C504 C507 1.526 . S
C505 H489 0.959 . S
C505 H490 0.959 . S
C505 H491 0.961 . S
C505 C504 1.502 . S
C506 H492 0.960 . S
C506 H493 0.961 . S
C506 H494 0.959 . S
C506 C504 1.561 . S
C507 C504 1.526 . S
C507 C508 1.396 . S
C507 C512 1.390 . S
C508 C502 1.465 . S
C508 C507 1.396 . S
C508 C509 1.399 . S
C509 H495 0.929 . S
C509 C508 1.399 . S
C509 C510 1.385 . S
C510 H496 0.931 . S
C510 C509 1.385 . S
C510 C511 1.389 . S
C511 C510 1.389 . S
C511 C512 1.387 . S
C512 H497 0.930 . S
C512 C507 1.390 . S
C512 C511 1.387 . S
H513 C525 0.930 . S
H514 C527 0.930 . S
H515 C528 0.930 . S
H516 C532 0.963 . S
H517 C532 0.959 . S
H518 C532 0.961 . S
H519 C533 0.960 . S
H520 C533 0.961 1_545 S
H521 C533 0.959 . S
H522 C536 0.929 . S
H523 C537 0.931 . S
H524 C539 0.930 1_545 S
C525 H513 0.930 . S
C525 C526 1.399 . S
C525 C530 1.399 . S
C526 C525 1.399 . S
C526 C527 1.376 . S
C527 H514 0.930 . S
C527 C526 1.376 . S
C527 C528 1.388 . S
C528 H515 0.930 . S
C528 C527 1.388 . S
C528 C529 1.390 . S
C529 C528 1.390 . S
C529 C530 1.394 . S
C529 C535 1.465 . S
C530 C525 1.399 . S
C530 C529 1.394 . S
C530 C531 1.516 . S
C531 C530 1.516 . S
C531 C532 1.502 1_565 S
C531 C533 1.561 . S
C531 C534 1.526 . S
C532 H516 0.963 . S
C532 H517 0.959 . S
C532 H518 0.961 . S
C532 C531 1.502 1_545 S
C533 H519 0.960 . S
C533 H520 0.961 1_565 S
C533 H521 0.959 . S
C533 C531 1.561 . S
C534 C531 1.526 . S
C534 C535 1.396 . S
C534 C539 1.390 . S
C535 C529 1.465 . S
C535 C534 1.396 . S
C535 C536 1.399 . S
C536 H522 0.929 . S
C536 C535 1.399 . S
C536 C537 1.385 . S
C537 H523 0.931 . S
C537 C536 1.385 . S
C537 C538 1.389 . S
C538 C537 1.389 . S
C538 C539 1.387 . S
C539 H524 0.930 1_565 S
C539 C534 1.390 . S
C539 C538 1.387 . S
C241 C111 1.630 . S
C229 C40 1.632 . S
C256 C4 1.660 . S
C268 C206 1.657 . S
C283 C16 1.626 . S
C295 C122 1.641 . S
C310 C28 1.613 . S
C322 C195 1.626 . S
C349 C106 1.370 . S
C337 C9 1.585 . S
C376 C199 1.696 . S
C364 C18 1.706 . S
C391 C33 1.620 . S
C403 C115 1.641 . S
C418 C45 1.603 . S
C430 C190 1.409 . S
C457 C201 1.444 . S
C445 C21 1.565 . S
C484 C117 1.376 . S
C472 C30 1.568 1_556 S
C511 C188 1.635 . S
C499 C42 1.607 . S
C526 C6 1.555 . S
C538 C104 1.583 . S
