# Generated by pormake.
# Topology pyr, (3,6)-cn, num edge types: 1
# Building blocks:
#     Node 0, Type 0, BuildingBlock: PAMTOO_clean_linker_0, # of connection points: 3
#     Node 1, Type 0, BuildingBlock: PAMTOO_clean_linker_0, # of connection points: 3
#     Node 2, Type 0, BuildingBlock: PAMTOO_clean_linker_0, # of connection points: 3
#     Node 3, Type 0, BuildingBlock: PAMTOO_clean_linker_0, # of connection points: 3
#     Node 4, Type 0, BuildingBlock: PAMTOO_clean_linker_0, # of connection points: 3
#     Node 5, Type 0, BuildingBlock: PAMTOO_clean_linker_0, # of connection points: 3
#     Node 6, Type 0, BuildingBlock: PAMTOO_clean_linker_0, # of connection points: 3
#     Node 7, Type 0, BuildingBlock: PAMTOO_clean_linker_0, # of connection points: 3
#     Node 8, Type 1, BuildingBlock: JUFBIX_clean_sbu_0, # of connection points: 6
#     Node 9, Type 1, BuildingBlock: JUFBIX_clean_sbu_0, # of connection points: 6
#     Node 10, Type 1, BuildingBlock: JUFBIX_clean_sbu_0, # of connection points: 6
#     Node 11, Type 1, BuildingBlock: JUFBIX_clean_sbu_0, # of connection points: 6
#     Edge 12, Type (0, 1), BuildingBlock: CIFDUS_clean_linker_0, # of connection points: 2
#     Edge 13, Type (0, 1), BuildingBlock: CIFDUS_clean_linker_0, # of connection points: 2
#     Edge 14, Type (0, 1), BuildingBlock: CIFDUS_clean_linker_0, # of connection points: 2
#     Edge 15, Type (0, 1), BuildingBlock: CIFDUS_clean_linker_0, # of connection points: 2
#     Edge 16, Type (0, 1), BuildingBlock: CIFDUS_clean_linker_0, # of connection points: 2
#     Edge 17, Type (0, 1), BuildingBlock: CIFDUS_clean_linker_0, # of connection points: 2
#     Edge 18, Type (0, 1), BuildingBlock: CIFDUS_clean_linker_0, # of connection points: 2
#     Edge 19, Type (0, 1), BuildingBlock: CIFDUS_clean_linker_0, # of connection points: 2
#     Edge 20, Type (0, 1), BuildingBlock: CIFDUS_clean_linker_0, # of connection points: 2
#     Edge 21, Type (0, 1), BuildingBlock: CIFDUS_clean_linker_0, # of connection points: 2
#     Edge 22, Type (0, 1), BuildingBlock: CIFDUS_clean_linker_0, # of connection points: 2
#     Edge 23, Type (0, 1), BuildingBlock: CIFDUS_clean_linker_0, # of connection points: 2
#     Edge 24, Type (0, 1), BuildingBlock: CIFDUS_clean_linker_0, # of connection points: 2
#     Edge 25, Type (0, 1), BuildingBlock: CIFDUS_clean_linker_0, # of connection points: 2
#     Edge 26, Type (0, 1), BuildingBlock: CIFDUS_clean_linker_0, # of connection points: 2
#     Edge 27, Type (0, 1), BuildingBlock: CIFDUS_clean_linker_0, # of connection points: 2
#     Edge 28, Type (0, 1), BuildingBlock: CIFDUS_clean_linker_0, # of connection points: 2
#     Edge 29, Type (0, 1), BuildingBlock: CIFDUS_clean_linker_0, # of connection points: 2
#     Edge 30, Type (0, 1), BuildingBlock: CIFDUS_clean_linker_0, # of connection points: 2
#     Edge 31, Type (0, 1), BuildingBlock: CIFDUS_clean_linker_0, # of connection points: 2
#     Edge 32, Type (0, 1), BuildingBlock: CIFDUS_clean_linker_0, # of connection points: 2
#     Edge 33, Type (0, 1), BuildingBlock: CIFDUS_clean_linker_0, # of connection points: 2
#     Edge 34, Type (0, 1), BuildingBlock: CIFDUS_clean_linker_0, # of connection points: 2
#     Edge 35, Type (0, 1), BuildingBlock: CIFDUS_clean_linker_0, # of connection points: 2
# Relax obj value: 0.137
# Max RMSD: 0.204
# Mean RMSD: 0.138
data_MOF--net-pry--node1-JUFBIX_clean_sbu_0--node2-PAMTOO_clean_linker_0--edge1-CIFDUS_clean_linker_0
_symmetry_space_group_name_H-M    P1
_symmetry_Int_Tables_number       1
_symmetry_cell_setting            triclinic
loop_
_symmetry_equiv_pos_as_xyz
'x, y, z'
_cell_length_a     31.770069
_cell_length_b     30.832084
_cell_length_c     32.44835
_cell_angle_alpha  81.436325
_cell_angle_beta   89.334662
_cell_angle_gamma 94.542374
loop_
_atom_site_label
_atom_site_type_symbol
_atom_site_fract_x
_atom_site_fract_y
_atom_site_fract_z
_atom_type_partial_charge
H0 H 0.16194 0.21329 0.23564 0.0
H1 H 0.26094 0.12517 0.25553 0.0
H2 H 0.26235 0.21838 0.14369 0.0
H3 H 0.28244 0.12595 0.13501 0.0
C4 C 0.30221 0.11951 0.16302 0.0
O5 O 0.30168 0.15476 0.18502 0.0
H6 H 0.28802 0.08922 0.18283 0.0
C7 C 0.19062 0.20129 0.22502 0.0
C8 C 0.20925 0.2205 0.18601 0.0
C9 C 0.20899 0.16726 0.251 0.0
C10 C 0.24628 0.15157 0.23665 0.0
C11 C 0.26504 0.16951 0.19777 0.0
C12 C 0.24664 0.20397 0.17287 0.0
H13 H 0.41979 0.94998 0.68389 0.0
H14 H 0.41131 0.87844 0.5798 0.0
H15 H 0.50391 0.84915 0.67281 0.0
H16 H 0.52932 0.84608 0.58015 0.0
C17 C 0.49819 0.83083 0.57196 0.0
O18 O 0.47018 0.82708 0.6052 0.0
H19 H 0.48598 0.85185 0.54455 0.0
C20 C 0.43178 0.92593 0.66652 0.0
C21 C 0.46511 0.90157 0.68222 0.0
C22 C 0.41245 0.91789 0.62952 0.0
C23 C 0.42686 0.8858 0.6078 0.0
C24 C 0.45996 0.86138 0.62337 0.0
C25 C 0.47916 0.86925 0.66039 0.0
H26 H 0.76749 0.31769 0.98381 0.0
H27 H 0.6839 0.33346 0.87963 0.0
H28 H 0.78958 0.42751 0.88544 0.0
H29 H 0.71777 0.46964 0.84552 0.0
C30 C 0.69895 0.43943 0.83931 0.0
O31 O 0.72473 0.40517 0.84171 0.0
H32 H 0.67308 0.43163 0.86341 0.0
C33 C 0.75792 0.33613 0.95483 0.0
C34 C 0.78233 0.37473 0.9377 0.0
C35 C 0.72244 0.32037 0.93412 0.0
C36 C 0.71144 0.34428 0.89593 0.0
C37 C 0.73561 0.38274 0.87856 0.0
C38 C 0.77117 0.39766 0.89917 0.0
H39 H 0.9102 0.71409 0.51716 0.0
H40 H 0.93735 0.6351 0.42245 0.0
H41 H 1.01556 0.75227 0.43075 0.0
H42 H 1.01422 0.7321 0.33803 0.0
C43 C 0.99 0.70515 0.35036 0.0
O44 O 1.00121 0.68672 0.38971 0.0
H45 H 0.95931 0.72034 0.35098 0.0
C46 C 0.92967 0.70785 0.49139 0.0
C47 C 0.96465 0.73766 0.477 0.0
C48 C 0.91972 0.67012 0.47241 0.0
C49 C 0.94514 0.66276 0.4388 0.0
C50 C 0.97947 0.69228 0.42423 0.0
C51 C 0.98956 0.72911 0.44354 0.0
H52 H 0.84188 0.95028 0.83046 0.0
H53 H 0.85042 0.8462 0.93396 0.0
H54 H 0.94346 0.86498 0.83466 0.0
H55 H 0.90724 0.77507 0.86303 0.0
C56 C 0.91005 0.77475 0.89726 0.0
O57 O 0.91958 0.81724 0.90549 0.0
H58 H 0.8788 0.76192 0.91184 0.0
C59 C 0.8577 0.92269 0.84588 0.0
C60 C 0.89486 0.9109 0.82745 0.0
C61 C 0.84113 0.89988 0.88444 0.0
C62 C 0.86269 0.86463 0.90467 0.0
C63 C 0.89947 0.85201 0.88653 0.0
C64 C 0.91544 0.87543 0.84839 0.0
H65 H 0.67133 0.05803 0.42351 0.0
H66 H 0.56372 0.13213 0.39159 0.0
H67 H 0.64021 0.15928 0.49365 0.0
H68 H 0.55461 0.15615 0.50952 0.0
C69 C 0.548 0.18163 0.4828 0.0
O70 O 0.57519 0.18124 0.44941 0.0
H71 H 0.51514 0.1745 0.47284 0.0
C72 C 0.65038 0.08243 0.42975 0.0
C73 C 0.65983 0.10713 0.46207 0.0
C74 C 0.6164 0.09157 0.40317 0.0
C75 C 0.58939 0.12321 0.41199 0.0
C76 C 0.59791 0.1471 0.44477 0.0
C77 C 0.63322 0.13943 0.46933 0.0
H78 H 0.36919 0.70318 0.10285 0.0
H79 H 0.34808 0.59596 0.20402 0.0
H80 H 0.45731 0.68677 0.20321 0.0
H81 H 0.46557 0.58907 0.22155 0.0
C82 C 0.44034 0.58235 0.24635 0.0
O83 O 0.41564 0.61746 0.24438 0.0
H84 H 0.42042 0.55255 0.24083 0.0
C85 C 0.37941 0.68511 0.13171 0.0
C86 C 0.41659 0.70016 0.15037 0.0
C87 C 0.35445 0.64749 0.15058 0.0
C88 C 0.36668 0.62513 0.18899 0.0
C89 C 0.40372 0.63946 0.2077 0.0
C90 C 0.42848 0.6767 0.18847 0.0
H91 H 0.09184 0.34639 0.69963 0.0
H92 H 0.13042 0.48197 0.6515 0.0
H93 H 0.07577 0.39738 0.57001 0.0
H94 H 0.13824 0.51062 0.52291 0.0
C95 C 0.13905 0.47847 0.54343 0.0
O96 O 0.10912 0.47645 0.57517 0.0
H97 H 0.13009 0.45281 0.52368 0.0
C98 C 0.09443 0.37346 0.67403 0.0
C99 C 0.08244 0.36622 0.63371 0.0
C100 C 0.11174 0.41528 0.6809 0.0
C101 C 0.11702 0.44961 0.64704 0.0
C102 C 0.10386 0.44304 0.6074 0.0
C103 C 0.08574 0.40187 0.60102 0.0
Co104 Co 1.01518 0.05825 0.53041 0.0
C105 C 0.0457 0.97479 0.52809 0.0
Co106 Co 0.08004 0.05025 0.55186 0.0
C107 C 0.92394 0.06524 0.52744 0.0
C108 C 0.95078 0.04374 0.47377 0.0
N109 N 0.96114 0.0583 0.50988 0.0
N110 N 0.89115 0.05478 0.50374 0.0
C111 C 0.90783 0.04141 0.47003 0.0
H112 H 0.92079 0.07562 0.55769 0.0
H113 H 0.97296 0.03346 0.45236 0.0
C114 C 0.04808 0.13311 0.55551 0.0
N115 N 0.13514 0.05022 0.56968 0.0
C116 C 0.1574 0.01708 0.58743 0.0
C117 C 0.16382 0.08528 0.56104 0.0
N118 N 0.19877 0.03027 0.5895 0.0
C119 C 0.20284 0.07312 0.57314 0.0
C120 C 0.0775 0.08214 0.46669 0.0
O121 O 1.01424 0.11724 0.54102 0.0
O122 O 0.07914 0.10968 0.56175 0.0
O123 O 0.10177 0.07043 0.49636 0.0
O124 O 0.03797 0.07978 0.47459 0.0
O125 O 0.07999 0.99053 0.54193 0.0
H126 H 0.15728 0.11722 0.54486 0.0
H127 H 0.14415 0.98347 0.59622 0.0
O128 O 1.01575 0.99941 0.52059 0.0
O129 O 0.99344 0.0367 0.58597 0.0
O130 O 0.05819 0.02966 0.60746 0.0
C131 C 1.01849 0.02553 0.6154 0.0
H132 H 0.89001 0.03002 0.44491 0.0
H133 H 0.23226 0.09371 0.5689 0.0
Co134 Co 0.5618 0.99987 1.00799 0.0
C135 C 0.55078 0.9298 0.07505 0.0
Co136 Co 0.59288 1.01117 0.06606 0.0
C137 C 0.5423 0.99018 0.92258 0.0
C138 C 0.49093 0.96784 0.96595 0.0
N139 N 0.53069 0.98725 0.96311 0.0
N140 N 0.51145 0.97264 0.90047 0.0
C141 C 0.47915 0.95854 0.92751 0.0
H142 H 0.57331 1.00285 0.90998 0.0
H143 H 0.47228 0.95947 0.99455 0.0
C144 C 0.60334 0.08142 0.99941 0.0
N145 N 0.6241 0.02351 0.11117 0.0
C146 C 0.6132 0.0198 0.15198 0.0
C147 C 0.66457 0.0406 0.1084 0.0
N148 N 0.64548 0.03395 0.17478 0.0
C149 C 0.67773 0.0471 0.1472 0.0
C150 C 0.64278 0.97357 1.00849 0.0
O151 O 0.58089 0.0564 0.97905 0.0
O152 O 0.61167 0.06767 0.03706 0.0
O153 O 0.64172 0.98632 0.04412 0.0
O154 O 0.60993 0.97602 0.98656 0.0
O155 O 0.57353 0.95486 0.09509 0.0
H156 H 0.68312 0.04873 0.07972 0.0
H157 H 0.58218 1.0072 0.16452 0.0
O158 O 0.54294 0.94316 0.0372 0.0
O159 O 0.51376 0.02422 0.02929 0.0
O160 O 0.54396 0.03577 0.08732 0.0
C161 C 0.51176 0.038 0.06427 0.0
H162 H 0.44957 0.94187 0.92003 0.0
H163 H 0.70836 0.06185 0.15415 0.0
Co164 Co 0.57063 0.50569 0.5424 0.0
C165 C 0.50737 0.51696 0.48388 0.0
Co166 Co 0.50597 0.49578 0.57007 0.0
C167 C 0.656 0.54477 0.528 0.0
C168 C 0.64227 0.49406 0.49055 0.0
N169 N 0.62498 0.51511 0.51933 0.0
N170 N 0.69188 0.54305 0.50587 0.0
C171 C 0.68345 0.51104 0.48236 0.0
H172 H 0.6525 0.56706 0.5504 0.0
H173 H 0.62591 0.46829 0.47617 0.0
C174 C 0.56931 0.48461 0.6285 0.0
N175 N 0.45198 0.48588 0.59368 0.0
C176 C 0.41636 0.50416 0.58037 0.0
C177 C 0.4392 0.45433 0.62577 0.0
N178 N 0.38187 0.48475 0.60247 0.0
C179 C 0.39615 0.45347 0.63114 0.0
C180 C 0.53595 0.41976 0.54916 0.0
O181 O 0.59351 0.49296 0.59636 0.0
O182 O 0.5296 0.48467 0.62402 0.0
O183 O 0.50513 0.43553 0.56529 0.0
O184 O 0.56876 0.44492 0.53689 0.0
O185 O 0.48334 0.50691 0.51604 0.0
H186 H 0.45964 0.43205 0.64297 0.0
H187 H 0.41539 0.52943 0.55347 0.0
O188 O 0.54725 0.51859 0.48817 0.0
O189 O 0.57144 0.56598 0.54821 0.0
O190 O 0.50662 0.55628 0.57414 0.0
C191 C 0.53944 0.58157 0.56241 0.0
H192 H 0.70517 0.50139 0.46008 0.0
H193 H 0.37668 0.43072 0.65354 0.0
Co194 Co 0.08566 0.50703 1.01967 0.0
C195 C 1.0022 0.46749 1.02218 0.0
Co196 Co 0.04908 0.50804 0.07763 0.0
C197 C 0.10544 0.47254 0.94438 0.0
C198 C 0.1396 0.53468 0.94682 0.0
N199 N 0.11282 0.5037 0.96924 0.0
N200 N 0.12578 0.48316 0.90697 0.0
C201 C 0.14765 0.52217 0.90866 0.0
H202 H 0.0842 0.44332 0.95306 0.0
H203 H 0.15072 0.56552 0.95664 0.0
C204 C 0.1328 0.54783 0.0749 0.0
N205 N 1.02211 0.51232 0.12746 0.0
C206 C 0.02818 0.54731 0.14768 0.0
C207 C 0.9964 0.4829 0.153 0.0
N208 N 1.00821 0.5409 0.18513 0.0
C209 C 0.98762 0.50055 0.18861 0.0
C210 C 0.09536 0.43472 0.08222 0.0
O211 O 0.13463 0.53794 0.03832 0.0
O212 O 0.09869 0.5379 0.09617 0.0
O213 O 0.06904 0.45412 0.10124 0.0
O214 O 0.1069 0.45126 0.04491 0.0
O215 O 0.9997 0.47793 0.05857 0.0
H216 H 0.9859 0.45033 0.14676 0.0
H217 H 0.04764 0.57693 0.13538 0.0
O218 O 0.03676 0.47657 1.00155 0.0
O219 O 0.06376 0.5629 0.9955 0.0
O220 O 0.02918 0.56221 0.05429 0.0
C221 C 0.0386 0.58095 1.01747 0.0
H222 H 0.16603 0.54176 0.88323 0.0
H223 H 0.96912 0.48434 0.21557 0.0
H224 H 0.12488 0.15193 0.27591 0.0
H225 H 0.25085 0.14282 0.32327 0.0
H226 H 0.22168 0.11525 0.39285 0.0
H227 H 0.16063 0.09485 0.44123 0.0
H228 H 0.03458 0.10582 0.39489 0.0
H229 H 0.06359 0.1321 0.32463 0.0
C230 C 0.1461 0.1443 0.30141 0.0
C231 C 0.19029 0.14947 0.2937 0.0
C232 C 0.12904 0.12889 0.34192 0.0
C233 C 0.21684 0.13857 0.32753 0.0
C234 C 0.20014 0.12307 0.36766 0.0
C235 C 0.13938 0.10292 0.41581 0.0
C236 C 0.0953 0.09824 0.42368 0.0
C237 C 0.15632 0.11818 0.37532 0.0
C238 C 0.06854 0.10905 0.39007 0.0
C239 C 0.08516 0.1241 0.34973 0.0
H240 H 0.4967 0.97673 0.7086 0.0
H241 H 0.46875 0.83758 0.74863 0.0
H242 H 0.48436 0.84696 0.8205 0.0
H243 H 0.49825 0.89608 0.87273 0.0
H244 H 0.52814 0.03465 0.83356 0.0
H245 H 0.51995 0.02457 0.76022 0.0
C246 C 0.49478 0.94851 0.73309 0.0
C247 C 0.4814 0.90663 0.72372 0.0
C248 C 0.5038 0.95419 0.77426 0.0
C249 C 0.47923 0.87006 0.75532 0.0
C250 C 0.48784 0.87545 0.79636 0.0
C251 C 0.50355 0.92375 0.84786 0.0
C252 C 0.51322 0.96601 0.85786 0.0
C253 C 0.49899 0.91749 0.80628 0.0
C254 C 0.52064 1.00192 0.826 0.0
C255 C 0.51574 0.99612 0.78434 0.0
H256 H 0.61586 0.43614 0.81785 0.0
H257 H 0.74196 0.46254 0.76496 0.0
H258 H 0.71334 0.47859 0.69497 0.0
H259 H 0.65232 0.48587 0.64915 0.0
H260 H 0.52608 0.46045 0.70266 0.0
H261 H 0.55487 0.4434 0.77205 0.0
C262 C 0.637 0.44527 0.79093 0.0
C263 C 0.68093 0.44798 0.79635 0.0
C264 C 0.62029 0.45476 0.75099 0.0
C265 C 0.70804 0.46007 0.76133 0.0
C266 C 0.69168 0.4693 0.72144 0.0
C267 C 0.63108 0.47658 0.67597 0.0
C268 C 0.58707 0.47451 0.6706 0.0
C269 C 0.64784 0.46689 0.7159 0.0
C270 C 0.56006 0.46244 0.70579 0.0
C271 C 0.57649 0.45261 0.74554 0.0
H272 H 0.0511 0.68422 0.2995 0.0
H273 H 0.92208 0.64761 0.34052 0.0
H274 H 0.91654 0.59126 0.29439 0.0
H275 H 0.94805 0.55468 0.23991 0.0
H276 H 0.07714 0.59274 0.19921 0.0
H277 H 0.08311 0.64628 0.24738 0.0
C278 C 1.02181 0.66391 0.29813 0.0
C279 C 0.98678 0.6704 0.32245 0.0
C280 C 1.01889 0.63199 0.2715 0.0
C281 C 0.94917 0.64344 0.32134 0.0
C282 C 0.94606 0.61128 0.2951 0.0
C283 C 0.97749 0.57446 0.24202 0.0
C284 C 1.01188 0.57019 0.21573 0.0
C285 C 0.98063 0.60555 0.26969 0.0
C286 C 0.04993 0.59608 0.21853 0.0
C287 C 0.05347 0.62656 0.24621 0.0
H288 H 0.32903 0.10144 0.08772 0.0
H289 H 0.37455 0.1152 0.20991 0.0
H290 H 0.44372 0.09262 0.1906 0.0
H291 H 0.4906 0.06552 0.13916 0.0
H292 H 0.44205 0.05079 1.01777 0.0
H293 H 0.37546 0.07707 0.03652 0.0
C294 C 0.35431 0.10029 0.10993 0.0
C295 C 0.34678 0.11107 0.14992 0.0
C296 C 0.39365 0.08659 0.09879 0.0
C297 C 0.37969 0.10812 0.17862 0.0
C298 C 0.41919 0.09486 0.16763 0.0
C299 C 0.46554 0.0683 0.11676 0.0
C300 C 0.47179 0.05587 0.077 0.0
C301 C 0.42651 0.0835 0.12785 0.0
C302 C 0.4386 0.05978 0.04859 0.0
C303 C 0.40024 0.07493 0.05925 0.0
H304 H 0.33686 0.91213 0.6693 0.0
H305 H 0.40525 0.97382 0.55769 0.0
H306 H 0.3439 0.01378 0.53472 0.0
H307 H 0.27177 0.03238 0.54769 0.0
H308 H 0.20165 0.96841 0.65727 0.0
H309 H 0.26255 0.9272 0.67992 0.0
C310 C 0.33805 0.93438 0.63999 0.0
C311 C 0.37522 0.94078 0.61527 0.0
C312 C 0.30253 0.95643 0.62679 0.0
C313 C 0.37675 0.96888 0.57706 0.0
C314 C 0.34183 0.99159 0.56404 0.0
C315 C 0.27001 1.00938 0.57651 0.0
C316 C 0.23287 1.00361 0.60123 0.0
C317 C 0.30475 0.98584 0.58883 0.0
C318 C 0.23017 0.97312 0.63799 0.0
C319 C 0.26493 0.94988 0.65092 0.0
H320 H 0.86176 0.39796 0.90637 0.0
H321 H 0.78641 0.38663 1.01931 0.0
H322 H 0.84778 0.41322 0.05623 0.0
H323 H 0.92294 0.44122 0.05585 0.0
H324 H 0.99798 0.45005 0.94257 0.0
H325 H 0.93698 0.42285 0.90667 0.0
C326 C 0.85881 0.40155 0.93901 0.0
C327 C 0.81964 0.39071 0.96002 0.0
C328 C 0.89428 0.41628 0.9601 0.0
C329 C 0.81634 0.39473 1.00252 0.0
C330 C 0.85138 0.40999 1.0236 0.0
C331 C 0.92597 0.43693 1.0234 0.0
C332 C 0.96509 0.44787 1.00207 0.0
C333 C 0.89056 0.421 1.00268 0.0
C334 C 0.96839 0.44195 0.95997 0.0
C335 C 0.93342 0.42648 0.93921 0.0
H336 H 0.8408 0.69108 0.49277 0.0
H337 H 0.91252 0.58038 0.48014 0.0
H338 H 0.84822 0.531 0.49026 0.0
H339 H 0.7709 0.51979 0.49813 0.0
H340 H 0.69917 0.62948 0.51307 0.0
H341 H 0.76412 0.67855 0.50746 0.0
C342 C 0.84254 0.65604 0.49316 0.0
C343 C 0.88146 0.63966 0.48509 0.0
C344 C 0.80533 0.62764 0.49914 0.0
C345 C 0.88291 0.59409 0.4854 0.0
C346 C 0.84615 0.56575 0.49129 0.0
C347 C 0.76963 0.55442 0.50024 0.0
C348 C 0.73038 0.57112 0.50557 0.0
C349 C 0.80708 0.58229 0.49721 0.0
C350 C 0.72909 0.61588 0.50909 0.0
C351 C 0.76618 0.64395 0.5057 0.0
H352 H 0.16714 0.28647 0.21213 0.0
H353 H 0.20838 0.24105 0.09987 0.0
H354 H 0.17869 0.30319 0.05775 0.0
H355 H 0.1396 0.37096 0.05242 0.0
H356 H 0.09437 0.41089 0.16594 0.0
H357 H 0.12582 0.35011 0.20714 0.0
C358 C 0.1691 0.28927 0.17847 0.0
C359 C 0.19026 0.25839 0.15972 0.0
C360 C 0.15086 0.32445 0.15422 0.0
C361 C 0.19311 0.26425 0.11574 0.0
C362 C 0.17572 0.29979 0.0914 0.0
C363 C 0.13656 0.36623 0.08614 0.0
C364 C 0.11438 0.39579 0.10575 0.0
C365 C 0.15442 0.33024 0.11023 0.0
C366 C 0.11082 0.38881 0.14962 0.0
C367 C 0.12901 0.35397 0.17346 0.0
H368 H 0.68656 0.25585 0.89298 0.0
H369 H 0.70188 0.29114 1.01621 0.0
H370 H 0.66594 0.22083 0.04676 0.0
H371 H 0.6324 0.1485 0.039 0.0
H372 H 0.61355 0.11371 0.9162 0.0
H373 H 0.64774 0.18526 0.88491 0.0
C374 C 0.68144 0.24857 0.92647 0.0
C375 C 0.69756 0.27872 0.9522 0.0
C376 C 0.66008 0.2082 0.94393 0.0
C377 C 0.69086 0.26828 0.99561 0.0
C378 C 0.67 0.22815 1.01316 0.0
C379 C 0.63558 0.1566 1.00535 0.0
C380 C 0.6208 0.12572 0.97995 0.0
C381 C 0.65499 0.19769 0.98768 0.0
C382 C 0.62467 0.13694 0.93642 0.0
C383 C 0.64435 0.17776 0.91855 0.0
H384 H 0.04103 0.77761 0.49436 0.0
H385 H 0.90719 0.79335 0.49565 0.0
H386 H 0.92092 0.86725 0.5132 0.0
H387 H 0.97061 0.9291 0.52282 0.0
H388 H 0.10469 0.91523 0.52136 0.0
H389 H 0.0912 0.83885 0.50869 0.0
C390 C 1.01488 0.79717 0.49873 0.0
C391 C 0.9731 0.77994 0.49351 0.0
C392 C 1.02306 0.84007 0.50816 0.0
C393 C 0.93955 0.80545 0.49992 0.0
C394 C 0.94741 0.84794 0.50952 0.0
C395 C 0.99702 0.90946 0.51974 0.0
C396 C 0.03868 0.92803 0.52234 0.0
C397 C 0.989 0.86584 0.51281 0.0
C398 C 0.07238 0.90179 0.51916 0.0
C399 C 0.06464 0.85818 0.51193 0.0
H400 H 0.56704 0.78252 0.57926 0.0
H401 H 0.43675 0.77773 0.54337 0.0
H402 H 0.43766 0.69956 0.53768 0.0
H403 H 0.47433 0.63185 0.54723 0.0
H404 H 0.60586 0.63708 0.57885 0.0
H405 H 0.60587 0.716 0.58207 0.0
C406 C 0.53919 0.76444 0.56944 0.0
C407 C 0.50186 0.78547 0.56171 0.0
C408 C 0.54005 0.71967 0.56612 0.0
C409 C 0.46582 0.76192 0.54918 0.0
C410 C 0.46626 0.71731 0.54625 0.0
C411 C 0.50291 0.65039 0.55488 0.0
C412 C 0.5398 0.62897 0.56358 0.0
C413 C 0.50293 0.6957 0.5555 0.0
C414 C 0.57702 0.65317 0.57242 0.0
C415 C 0.57704 0.69815 0.57419 0.0
H416 H 0.97744 0.93448 0.80188 0.0
H417 H 0.84978 0.94094 0.75876 0.0
H418 H 0.87624 0.97816 0.69064 0.0
H419 H 0.93576 1.00717 0.64209 0.0
H420 H 0.06344 0.99932 0.68491 0.0
H421 H 0.03685 0.96426 0.75371 0.0
C422 C 0.95532 0.94375 0.77757 0.0
C423 C 0.9115 0.93472 0.78589 0.0
C424 C 0.97081 0.96497 0.73808 0.0
C425 C 0.88356 0.94782 0.75384 0.0
C426 C 0.89872 0.96893 0.7146 0.0
C427 C 0.95784 0.99804 0.6665 0.0
C428 C 1.00169 1.00605 0.65798 0.0
C429 C 0.9423 0.97754 0.70623 0.0
C430 C 0.0296 0.99373 0.69025 0.0
C431 C 1.01439 0.97354 0.72975 0.0
H432 H 0.681 0.07381 0.35414 0.0
H433 H 0.54478 0.06938 0.3607 0.0
H434 H 0.54138 0.04927 0.29063 0.0
H435 H 0.57785 0.03815 0.22571 0.0
H436 H 0.71376 0.03713 0.22352 0.0
H437 H 0.71614 0.05301 0.29447 0.0
C438 C 0.65028 0.06703 0.34127 0.0
C439 C 0.61321 0.07327 0.36311 0.0
C440 C 0.64848 0.05479 0.30146 0.0
C441 C 0.57398 0.06559 0.34457 0.0
C442 C 0.57197 0.05386 0.30451 0.0
C443 C 0.60791 0.04057 0.24093 0.0
C444 C 0.64566 0.03753 0.21863 0.0
C445 C 0.60914 0.0492 0.28232 0.0
C446 C 0.68429 0.04072 0.23919 0.0
C447 C 0.68572 0.04952 0.27999 0.0
H448 H 0.40062 0.54864 0.32018 0.0
H449 H 0.5232 0.59759 0.26706 0.0
H450 H 0.55494 0.58135 0.33548 0.0
H451 H 0.54789 0.55217 0.41038 0.0
H452 H 0.42465 0.50471 0.46366 0.0
H453 H 0.39324 0.52124 0.39547 0.0
C454 C 0.43425 0.55573 0.3238 0.0
C455 C 0.45964 0.57378 0.28874 0.0
C456 C 0.45219 0.54642 0.36322 0.0
C457 C 0.50312 0.58332 0.29363 0.0
C458 C 0.52125 0.57403 0.3327 0.0
C459 C 0.51418 0.54534 0.40705 0.0
C460 C 0.48878 0.527 0.44213 0.0
C461 C 0.49615 0.55531 0.3677 0.0
C462 C 0.44505 0.51875 0.43726 0.0
C463 C 0.42698 0.52821 0.39823 0.0
H464 H 0.0654 0.39443 0.75325 0.0
H465 H 0.1852 0.45667 0.70302 0.0
H466 H 0.20162 0.48048 0.76998 0.0
H467 H 0.17962 0.48847 0.84104 0.0
H468 H 0.05833 0.42898 0.89026 0.0
H469 H 0.0454 0.39846 0.82615 0.0
C470 C 0.09542 0.41247 0.75728 0.0
C471 C 0.12389 0.42406 0.72317 0.0
C472 C 0.10436 0.42675 0.79572 0.0
C473 C 0.16255 0.4478 0.7287 0.0
C474 C 0.17196 0.46142 0.76696 0.0
C475 C 0.15037 0.46881 0.83782 0.0
C476 C 0.11999 0.46148 0.87059 0.0
C477 C 0.14266 0.45202 0.80039 0.0
C478 C 0.0826 0.43505 0.86599 0.0
C479 C 0.07495 0.41776 0.82905 0.0
H480 H 0.82235 0.91011 0.96557 0.0
H481 H 0.76825 0.9176 0.84368 0.0
H482 H 0.70258 0.9396 0.87103 0.0
H483 H 0.66028 0.95809 0.92923 0.0
H484 H 0.71465 0.95323 0.05086 0.0
H485 H 0.7797 0.92878 0.02417 0.0
C486 C 0.79609 0.91626 0.94506 0.0
C487 C 0.80063 0.91225 0.90242 0.0
C488 C 0.75819 0.92949 0.96101 0.0
C489 C 0.76615 0.92086 0.87641 0.0
C490 C 0.72836 0.93331 0.89211 0.0
C491 C 0.68623 0.95149 0.95005 0.0
C492 C 0.68216 0.95744 0.99221 0.0
C493 C 0.724 0.93799 0.93429 0.0
C494 C 0.71656 0.94899 1.01836 0.0
C495 C 0.75393 0.93497 1.00307 0.0
H496 H 0.69722 0.03241 0.49093 0.0
H497 H 0.71487 0.17389 0.48061 0.0
H498 H 0.78785 0.1691 0.50183 0.0
H499 H 0.85008 0.1257 0.51022 0.0
H500 H 0.83391 0.9856 0.51276 0.0
H501 H 0.75727 0.98843 0.50791 0.0
C502 C 0.7169 0.06214 0.49387 0.0
C503 C 0.70072 0.10339 0.48357 0.0
C504 C 0.75939 0.05931 0.50433 0.0
C505 C 0.72633 0.14161 0.48848 0.0
C506 C 0.76831 0.13897 0.50021 0.0
C507 C 0.82935 0.09587 0.51119 0.0
C508 C 0.84694 0.05553 0.51194 0.0
C509 C 0.78566 0.09818 0.50644 0.0
C510 C 0.82045 0.01685 0.51236 0.0
C511 C 0.77687 0.01858 0.50928 0.0
H512 H 0.27622 0.62214 0.18527 0.0
H513 H 0.34661 0.63655 0.06896 0.0
H514 H 0.28426 0.60825 0.03473 0.0
H515 H 0.20999 0.57736 0.03831 0.0
H516 H 0.13968 0.56442 0.1548 0.0
H517 H 0.20148 0.59407 0.18823 0.0
C518 C 0.27791 0.61892 0.15247 0.0
C519 C 0.31605 0.63124 0.12977 0.0
C520 C 0.24187 0.60285 0.13292 0.0
C521 C 0.31755 0.62755 0.0871 0.0
C522 C 0.28195 0.6112 0.06753 0.0
C523 C 0.20815 0.58121 0.07095 0.0
C524 C 0.17017 0.56842 0.09392 0.0
C525 C 0.24395 0.59851 0.09017 0.0
C526 C 0.16839 0.5739 0.13621 0.0
C527 C 0.20381 0.59079 0.1555 0.0
H528 H 0.20294 0.54241 0.54842 0.0
H529 H 0.17358 0.40194 0.57353 0.0
H530 H 0.24532 0.39182 0.59728 0.0
H531 H 0.31745 0.42249 0.60692 0.0
H532 H 0.34918 0.56214 0.57665 0.0
H533 H 0.27572 0.57324 0.55824 0.0
C534 C 0.21236 0.50969 0.55928 0.0
C535 C 0.1831 0.47298 0.5595 0.0
C536 C 0.25412 0.50403 0.57151 0.0
C537 C 0.19554 0.43067 0.57346 0.0
C538 C 0.23656 0.42487 0.58682 0.0
C539 C 0.30809 0.45538 0.59686 0.0
C540 C 0.33846 0.49152 0.59337 0.0
C541 C 0.26623 0.46124 0.58551 0.0
C542 C 0.32624 0.5339 0.57938 0.0
C543 C 0.28432 0.5402 0.56897 0.0
H544 H 0.9229 0.73977 0.97826 0.0
H545 H 0.97062 0.73972 0.85357 0.0
H546 H 1.01661 0.68186 0.8792 0.0
H547 H 0.03917 0.62648 0.93687 0.0
H548 H 0.99042 0.6278 0.06144 0.0
H549 H 0.94965 0.68928 0.03626 0.0
C550 C 0.9439 0.72753 0.95687 0.0
C551 C 0.94305 0.74387 0.91407 0.0
C552 C 0.96998 0.69386 0.97181 0.0
C553 C 0.97049 0.72766 0.88668 0.0
C554 C 0.99671 0.69436 0.90133 0.0
C555 C 1.02006 0.64057 0.95855 0.0
C556 C 1.01785 0.62183 1.00105 0.0
C557 C 0.99611 0.67641 0.94378 0.0
C558 C 0.99275 0.64089 0.02853 0.0
C559 C 0.96923 0.67629 1.01418 0.0
H560 H 0.45982 0.76362 0.18792 0.0
H561 H 0.43287 0.72708 0.06688 0.0
H562 H 0.47247 0.79413 0.03334 0.0
H563 H 0.51329 0.86399 0.03799 0.0
H564 H 0.54357 0.89916 0.15868 0.0
H565 H 0.5052 0.83105 0.19265 0.0
C566 C 0.46311 0.7698 0.15423 0.0
C567 C 0.44275 0.74025 0.13012 0.0
C568 C 0.48676 0.80813 0.13499 0.0
C569 C 0.44713 0.74951 0.08639 0.0
C570 C 0.47016 0.78775 0.06709 0.0
C571 C 0.51178 0.85665 0.07175 0.0
C572 C 0.53113 0.88675 0.09574 0.0
C573 C 0.48977 0.81746 0.09105 0.0
C574 C 0.52908 0.87653 0.13944 0.0
C575 C 0.50696 0.83767 0.1589 0.0
H576 H 0.10882 0.32884 0.56879 0.0
H577 H 0.02728 0.30245 0.67831 0.0
H578 H 1.00654 0.22857 0.66216 0.0
H579 H 1.0133 0.17059 0.61723 0.0
H580 H 0.09741 0.19757 0.50979 0.0
H581 H 0.11468 0.27258 0.52401 0.0
C582 C 0.08601 0.3072 0.58886 0.0
C583 C 0.06931 0.3213 0.6245 0.0
C584 C 0.07448 0.265 0.57945 0.0
C585 C 0.04071 0.29234 0.65077 0.0
C586 C 0.02869 0.25021 0.64141 0.0
C587 C 0.03475 0.19338 0.59669 0.0
C588 C 0.05358 0.1793 0.56211 0.0
C589 C 0.04545 0.23611 0.60584 0.0
C590 C 0.08222 0.20828 0.53618 0.0
C591 C 0.09225 0.25094 0.54446 0.0
H592 H 0.48746 0.22689 0.51322 0.0
H593 H 0.62129 0.23482 0.48601 0.0
H594 H 0.62963 0.30824 0.50555 0.0
H595 H 0.59837 0.37192 0.52682 0.0
H596 H 0.46482 0.36342 0.55626 0.0
H597 H 0.45699 0.28868 0.53963 0.0
C598 C 0.51837 0.24481 0.51161 0.0
C599 C 0.55337 0.22609 0.4969 0.0
C600 C 0.52304 0.28697 0.52323 0.0
C601 C 0.59359 0.24895 0.49619 0.0
C602 C 0.59844 0.29095 0.50743 0.0
C603 C 0.56761 0.35361 0.52982 0.0
C604 C 0.53224 0.37333 0.5424 0.0
C605 C 0.56329 0.31057 0.52036 0.0
C606 C 0.49263 0.34903 0.54658 0.0
C607 C 0.48804 0.3063 0.53696 0.0
loop_
_geom_bond_atom_site_label_1
_geom_bond_atom_site_label_2
_geom_bond_distance
_geom_bond_site_symmetry_2
_ccdc_geom_bond_type
H0 C7 0.929 . S
H1 C10 0.930 . S
H2 C12 0.929 . S
H3 C4 0.969 . S
C4 H3 0.969 . S
C4 O5 1.550 . S
C4 H6 0.973 . S
O5 C4 1.550 . S
O5 C11 1.412 . S
H6 C4 0.973 . S
C7 H0 0.929 . S
C7 C8 1.400 . S
C7 C9 1.364 . S
C8 C7 1.400 . S
C8 C12 1.377 . S
C9 C7 1.364 . S
C9 C10 1.374 . S
C10 H1 0.930 . S
C10 C9 1.374 . S
C10 C11 1.383 . S
C11 O5 1.412 . S
C11 C10 1.383 . S
C11 C12 1.394 . S
C12 H2 0.929 . S
C12 C8 1.377 . S
C12 C11 1.394 . S
H13 C20 0.929 . S
H14 C23 0.930 . S
H15 C25 0.929 . S
H16 C17 0.969 . S
C17 H16 0.969 . S
C17 O18 1.550 . S
C17 H19 0.973 . S
O18 C17 1.550 . S
O18 C24 1.412 . S
H19 C17 0.973 . S
C20 H13 0.929 . S
C20 C21 1.400 . S
C20 C22 1.364 . S
C21 C20 1.400 . S
C21 C25 1.377 . S
C22 C20 1.364 . S
C22 C23 1.374 . S
C23 H14 0.930 . S
C23 C22 1.374 . S
C23 C24 1.383 . S
C24 O18 1.412 . S
C24 C23 1.383 . S
C24 C25 1.394 . S
C25 H15 0.929 . S
C25 C21 1.377 . S
C25 C24 1.394 . S
H26 C33 0.929 . S
H27 C36 0.930 . S
H28 C38 0.929 . S
H29 C30 0.969 . S
C30 H29 0.969 . S
C30 O31 1.550 . S
C30 H32 0.973 . S
O31 C30 1.550 . S
O31 C37 1.412 . S
H32 C30 0.973 . S
C33 H26 0.929 . S
C33 C34 1.400 . S
C33 C35 1.364 . S
C34 C33 1.400 . S
C34 C38 1.377 . S
C35 C33 1.364 . S
C35 C36 1.374 . S
C36 H27 0.930 . S
C36 C35 1.374 . S
C36 C37 1.383 . S
C37 O31 1.412 . S
C37 C36 1.383 . S
C37 C38 1.394 . S
C38 H28 0.929 . S
C38 C34 1.377 . S
C38 C37 1.394 . S
H39 C46 0.929 . S
H40 C49 0.930 . S
H41 C51 0.929 . S
H42 C43 0.969 . S
C43 H42 0.969 . S
C43 O44 1.550 . S
C43 H45 0.973 . S
O44 C43 1.550 . S
O44 C50 1.412 . S
H45 C43 0.973 . S
C46 H39 0.929 . S
C46 C47 1.400 . S
C46 C48 1.364 . S
C47 C46 1.400 . S
C47 C51 1.377 . S
C48 C46 1.364 . S
C48 C49 1.374 . S
C49 H40 0.930 . S
C49 C48 1.374 . S
C49 C50 1.383 . S
C50 O44 1.412 . S
C50 C49 1.383 . S
C50 C51 1.394 . S
C51 H41 0.929 . S
C51 C47 1.377 . S
C51 C50 1.394 . S
H52 C59 0.929 . S
H53 C62 0.930 . S
H54 C64 0.929 . S
H55 C56 0.969 . S
C56 H55 0.969 . S
C56 O57 1.550 . S
C56 H58 0.973 . S
O57 C56 1.550 . S
O57 C63 1.412 . S
H58 C56 0.973 . S
C59 H52 0.929 . S
C59 C60 1.400 . S
C59 C61 1.364 . S
C60 C59 1.400 . S
C60 C64 1.377 . S
C61 C59 1.364 . S
C61 C62 1.374 . S
C62 H53 0.930 . S
C62 C61 1.374 . S
C62 C63 1.383 . S
C63 O57 1.412 . S
C63 C62 1.383 . S
C63 C64 1.394 . S
C64 H54 0.929 . S
C64 C60 1.377 . S
C64 C63 1.394 . S
H65 C72 0.929 . S
H66 C75 0.930 . S
H67 C77 0.929 . S
H68 C69 0.969 . S
C69 H68 0.969 . S
C69 O70 1.550 . S
C69 H71 0.973 . S
O70 C69 1.550 . S
O70 C76 1.412 . S
H71 C69 0.973 . S
C72 H65 0.929 . S
C72 C73 1.400 . S
C72 C74 1.364 . S
C73 C72 1.400 . S
C73 C77 1.377 . S
C74 C72 1.364 . S
C74 C75 1.374 . S
C75 H66 0.930 . S
C75 C74 1.374 . S
C75 C76 1.383 . S
C76 O70 1.412 . S
C76 C75 1.383 . S
C76 C77 1.394 . S
C77 H67 0.929 . S
C77 C73 1.377 . S
C77 C76 1.394 . S
H78 C85 0.929 . S
H79 C88 0.930 . S
H80 C90 0.929 . S
H81 C82 0.969 . S
C82 H81 0.969 . S
C82 O83 1.550 . S
C82 H84 0.973 . S
O83 C82 1.550 . S
O83 C89 1.412 . S
H84 C82 0.973 . S
C85 H78 0.929 . S
C85 C86 1.400 . S
C85 C87 1.364 . S
C86 C85 1.400 . S
C86 C90 1.377 . S
C87 C85 1.364 . S
C87 C88 1.374 . S
C88 H79 0.930 . S
C88 C87 1.374 . S
C88 C89 1.383 . S
C89 O83 1.412 . S
C89 C88 1.383 . S
C89 C90 1.394 . S
C90 H80 0.929 . S
C90 C86 1.377 . S
C90 C89 1.394 . S
H91 C98 0.929 . S
H92 C101 0.930 . S
H93 C103 0.929 . S
H94 C95 0.969 . S
C95 H94 0.969 . S
C95 O96 1.550 . S
C95 H97 0.973 . S
O96 C95 1.550 . S
O96 C102 1.412 . S
H97 C95 0.973 . S
C98 H91 0.929 . S
C98 C99 1.400 . S
C98 C100 1.364 . S
C99 C98 1.400 . S
C99 C103 1.377 . S
C100 C98 1.364 . S
C100 C101 1.374 . S
C101 H92 0.930 . S
C101 C100 1.374 . S
C101 C102 1.383 . S
C102 O96 1.412 . S
C102 C101 1.383 . S
C102 C103 1.394 . S
C103 H93 0.929 . S
C103 C99 1.377 . S
C103 C102 1.394 . S
Co104 N109 2.057 . S
Co104 O121 2.021 . S
Co104 O124 2.062 . S
Co104 O128 2.117 1_545 S
Co104 O129 2.020 . S
C105 O125 1.259 1_655 S
C105 O128 1.258 . S
Co106 N115 2.057 . S
Co106 O122 2.117 1_565 S
Co106 O123 2.020 1_565 S
Co106 O125 2.021 . S
Co106 O130 2.062 . S
C107 N109 1.316 . S
C107 N110 1.347 . S
C107 H112 0.931 . S
C108 N109 1.375 1_565 S
C108 C111 1.350 1_565 S
C108 H113 0.930 . S
N109 Co104 2.057 . S
N109 C107 1.316 . S
N109 C108 1.375 1_545 S
N110 C107 1.347 . S
N110 C111 1.373 . S
C111 C108 1.350 1_545 S
C111 N110 1.373 . S
C111 H132 0.931 1_545 S
H112 C107 0.931 . S
H113 C108 0.930 . S
C114 O121 1.259 1_455 S
C114 O122 1.258 . S
N115 Co106 2.057 . S
N115 C116 1.316 . S
N115 C117 1.375 1_565 S
C116 N115 1.316 . S
C116 N118 1.347 . S
C116 H127 0.931 . S
C117 N115 1.375 1_545 S
C117 C119 1.350 . S
C117 H126 0.930 . S
N118 C116 1.347 . S
N118 C119 1.373 1_565 S
C119 C117 1.350 . S
C119 N118 1.373 1_545 S
C119 H133 0.931 . S
C120 O123 1.256 . S
C120 O124 1.255 1_455 S
O121 Co104 2.021 . S
O121 C114 1.259 1_655 S
O122 Co106 2.117 1_545 S
O122 C114 1.258 . S
O123 Co106 2.020 1_545 S
O123 C120 1.256 . S
O124 Co104 2.062 . S
O124 C120 1.255 1_655 S
O125 C105 1.259 1_455 S
O125 Co106 2.021 . S
H126 C117 0.930 . S
H127 C116 0.931 . S
O128 Co104 2.117 1_565 S
O128 C105 1.258 . S
O129 Co104 2.020 . S
O129 C131 1.256 1_545 S
O130 Co106 2.062 . S
O130 C131 1.255 1_455 S
C131 O129 1.256 1_565 S
C131 O130 1.255 1_655 S
H132 C111 0.931 1_565 S
H133 C119 0.931 . S
Co134 N139 2.057 1_545 S
Co134 O151 2.021 . S
Co134 O154 2.062 1_545 S
Co134 O158 2.117 1_546 S
Co134 O159 2.020 . S
C135 O155 1.259 . S
C135 O158 1.258 . S
Co136 N145 2.057 . S
Co136 O152 2.117 . S
Co136 O153 2.012 1_545 S
Co136 O155 2.021 1_545 S
Co136 O160 2.062 . S
C137 N139 1.316 . S
C137 N140 1.347 . S
C137 H142 0.931 1_565 S
C138 N139 1.375 . S
C138 C141 1.350 . S
C138 H143 0.930 . S
N139 Co134 2.057 1_565 S
N139 C137 1.316 . S
N139 C138 1.375 . S
N140 C137 1.347 . S
N140 C141 1.373 . S
C141 C138 1.350 . S
C141 N140 1.373 . S
C141 H162 0.931 . S
H142 C137 0.931 1_545 S
H143 C138 0.930 . S
C144 O151 1.259 . S
C144 O152 1.258 1_556 S
N145 Co136 2.057 . S
N145 C146 1.316 . S
N145 C147 1.375 . S
C146 N145 1.316 . S
C146 N148 1.347 . S
C146 H157 0.931 . S
C147 N145 1.375 . S
C147 C149 1.350 . S
C147 H156 0.930 . S
N148 C146 1.347 . S
N148 C149 1.373 . S
C149 C147 1.350 . S
C149 N148 1.373 . S
C149 H163 0.931 . S
C150 O153 1.262 1_556 S
C150 O154 1.255 . S
O151 Co134 2.021 . S
O151 C144 1.259 . S
O152 Co136 2.117 . S
O152 C144 1.258 1_554 S
O153 Co136 2.012 1_565 S
O153 C150 1.262 1_554 S
O154 Co134 2.062 1_565 S
O154 C150 1.255 . S
O155 C135 1.259 . S
O155 Co136 2.021 1_565 S
H156 C147 0.930 . S
H157 C146 0.931 . S
O158 Co134 2.117 1_564 S
O158 C135 1.258 . S
O159 Co134 2.020 . S
O159 C161 1.256 1_556 S
O160 Co136 2.062 . S
O160 C161 1.255 . S
C161 O159 1.256 1_554 S
C161 O160 1.255 . S
H162 C141 0.931 . S
H163 C149 0.931 . S
Co164 N169 2.057 . S
Co164 O181 2.021 . S
Co164 O184 2.062 . S
Co164 O188 2.117 . S
Co164 O189 2.020 . S
C165 O185 1.259 . S
C165 O188 1.258 . S
Co166 N175 2.057 . S
Co166 O182 2.117 . S
Co166 O183 2.020 . S
Co166 O185 2.021 . S
Co166 O190 2.062 . S
C167 N169 1.316 . S
C167 N170 1.347 . S
C167 H172 0.931 . S
C168 N169 1.375 . S
C168 C171 1.350 . S
C168 H173 0.930 . S
N169 Co164 2.057 . S
N169 C167 1.316 . S
N169 C168 1.375 . S
N170 C167 1.347 . S
N170 C171 1.373 . S
C171 C168 1.350 . S
C171 N170 1.373 . S
C171 H192 0.931 . S
H172 C167 0.931 . S
H173 C168 0.930 . S
C174 O181 1.259 . S
C174 O182 1.258 . S
N175 Co166 2.057 . S
N175 C176 1.316 . S
N175 C177 1.375 . S
C176 N175 1.316 . S
C176 N178 1.347 . S
C176 H187 0.931 . S
C177 N175 1.375 . S
C177 C179 1.350 . S
C177 H186 0.930 . S
N178 C176 1.347 . S
N178 C179 1.373 . S
C179 C177 1.350 . S
C179 N178 1.373 . S
C179 H193 0.931 . S
C180 O183 1.256 . S
C180 O184 1.255 . S
O181 Co164 2.021 . S
O181 C174 1.259 . S
O182 Co166 2.117 . S
O182 C174 1.258 . S
O183 Co166 2.020 . S
O183 C180 1.256 . S
O184 Co164 2.062 . S
O184 C180 1.255 . S
O185 C165 1.259 . S
O185 Co166 2.021 . S
H186 C177 0.930 . S
H187 C176 0.931 . S
O188 Co164 2.117 . S
O188 C165 1.258 . S
O189 Co164 2.020 . S
O189 C191 1.256 . S
O190 Co166 2.062 . S
O190 C191 1.255 . S
C191 O189 1.256 . S
C191 O190 1.255 . S
H192 C171 0.931 . S
H193 C179 0.931 . S
Co194 N199 2.057 . S
Co194 O211 2.021 1_556 S
Co194 O214 2.062 1_556 S
Co194 O218 2.117 1_455 S
Co194 O219 2.020 . S
C195 O215 1.259 . S
C195 O218 1.258 1_554 S
Co196 N205 2.057 . S
Co196 O212 2.117 . S
Co196 O213 2.020 . S
Co196 O215 2.021 1_455 S
Co196 O220 2.062 . S
C197 N199 1.316 . S
C197 N200 1.347 . S
C197 H202 0.931 . S
C198 N199 1.375 . S
C198 C201 1.350 . S
C198 H203 0.930 1_455 S
N199 Co194 2.057 . S
N199 C197 1.316 . S
N199 C198 1.375 . S
N200 C197 1.347 . S
N200 C201 1.373 . S
C201 C198 1.350 . S
C201 N200 1.373 . S
C201 H222 0.931 . S
H202 C197 0.931 . S
H203 C198 0.930 1_655 S
C204 O211 1.259 . S
C204 O212 1.258 . S
N205 Co196 2.057 . S
N205 C206 1.316 1_455 S
N205 C207 1.375 . S
C206 N205 1.316 1_655 S
C206 N208 1.347 . S
C206 H217 0.931 . S
C207 N205 1.375 . S
C207 C209 1.350 . S
C207 H216 0.930 . S
N208 C206 1.347 . S
N208 C209 1.373 1_655 S
C209 C207 1.350 . S
C209 N208 1.373 1_455 S
C209 H223 0.931 . S
C210 O213 1.256 . S
C210 O214 1.255 . S
O211 Co194 2.021 1_554 S
O211 C204 1.259 . S
O212 Co196 2.117 . S
O212 C204 1.258 . S
O213 Co196 2.020 . S
O213 C210 1.256 . S
O214 Co194 2.062 1_554 S
O214 C210 1.255 . S
O215 C195 1.259 . S
O215 Co196 2.021 1_655 S
H216 C207 0.930 . S
H217 C206 0.931 . S
O218 Co194 2.117 1_655 S
O218 C195 1.258 1_556 S
O219 Co194 2.020 . S
O219 C221 1.256 1_556 S
O220 Co196 2.062 . S
O220 C221 1.255 . S
C221 O219 1.256 1_554 S
C221 O220 1.255 . S
H222 C201 0.931 . S
H223 C209 0.931 . S
H224 C230 0.930 . S
H225 C233 0.930 . S
H226 C234 0.930 . S
H227 C235 0.930 . S
H228 C238 0.930 . S
H229 C239 0.930 . S
C230 H224 0.930 . S
C230 C231 1.355 . S
C230 C232 1.415 . S
C231 C230 1.355 . S
C231 C233 1.419 . S
C232 C230 1.415 . S
C232 C237 1.425 . S
C232 C239 1.409 . S
C233 H225 0.930 . S
C233 C231 1.419 . S
C233 C234 1.362 . S
C234 H226 0.930 . S
C234 C233 1.362 . S
C234 C237 1.409 . S
C235 H227 0.930 . S
C235 C236 1.355 . S
C235 C237 1.415 . S
C236 C235 1.355 . S
C236 C238 1.419 . S
C237 C232 1.425 . S
C237 C234 1.409 . S
C237 C235 1.415 . S
C238 H228 0.930 . S
C238 C236 1.419 . S
C238 C239 1.362 . S
C239 H229 0.930 . S
C239 C232 1.409 . S
C239 C238 1.362 . S
H240 C246 0.930 . S
H241 C249 0.930 . S
H242 C250 0.930 . S
H243 C251 0.930 . S
H244 C254 0.930 1_545 S
H245 C255 0.930 1_545 S
C246 H240 0.930 . S
C246 C247 1.355 . S
C246 C248 1.415 . S
C247 C246 1.355 . S
C247 C249 1.419 . S
C248 C246 1.415 . S
C248 C253 1.425 . S
C248 C255 1.409 . S
C249 H241 0.930 . S
C249 C247 1.419 . S
C249 C250 1.362 . S
C250 H242 0.930 . S
C250 C249 1.362 . S
C250 C253 1.409 . S
C251 H243 0.930 . S
C251 C252 1.355 . S
C251 C253 1.415 . S
C252 C251 1.355 . S
C252 C254 1.419 . S
C253 C248 1.425 . S
C253 C250 1.409 . S
C253 C251 1.415 . S
C254 H244 0.930 1_565 S
C254 C252 1.419 . S
C254 C255 1.362 . S
C255 H245 0.930 1_565 S
C255 C248 1.409 . S
C255 C254 1.362 . S
H256 C262 0.930 . S
H257 C265 0.930 . S
H258 C266 0.930 . S
H259 C267 0.930 . S
H260 C270 0.930 . S
H261 C271 0.930 . S
C262 H256 0.930 . S
C262 C263 1.355 . S
C262 C264 1.415 . S
C263 C262 1.355 . S
C263 C265 1.419 . S
C264 C262 1.415 . S
C264 C269 1.425 . S
C264 C271 1.409 . S
C265 H257 0.930 . S
C265 C263 1.419 . S
C265 C266 1.362 . S
C266 H258 0.930 . S
C266 C265 1.362 . S
C266 C269 1.409 . S
C267 H259 0.930 . S
C267 C268 1.355 . S
C267 C269 1.415 . S
C268 C267 1.355 . S
C268 C270 1.419 . S
C269 C264 1.425 . S
C269 C266 1.409 . S
C269 C267 1.415 . S
C270 H260 0.930 . S
C270 C268 1.419 . S
C270 C271 1.362 . S
C271 H261 0.930 . S
C271 C264 1.409 . S
C271 C270 1.362 . S
H272 C278 0.930 . S
H273 C281 0.930 . S
H274 C282 0.930 . S
H275 C283 0.930 . S
H276 C286 0.930 . S
H277 C287 0.930 . S
C278 H272 0.930 . S
C278 C279 1.355 1_455 S
C278 C280 1.415 1_455 S
C279 C278 1.355 1_655 S
C279 C281 1.419 . S
C280 C278 1.415 1_655 S
C280 C285 1.425 . S
C280 C287 1.409 1_655 S
C281 H273 0.930 . S
C281 C279 1.419 . S
C281 C282 1.362 . S
C282 H274 0.930 . S
C282 C281 1.362 . S
C282 C285 1.409 . S
C283 H275 0.930 . S
C283 C284 1.355 . S
C283 C285 1.415 . S
C284 C283 1.355 . S
C284 C286 1.419 1_655 S
C285 C280 1.425 . S
C285 C282 1.409 . S
C285 C283 1.415 . S
C286 H276 0.930 . S
C286 C284 1.419 1_455 S
C286 C287 1.362 . S
C287 H277 0.930 . S
C287 C280 1.409 1_455 S
C287 C286 1.362 . S
H288 C294 0.930 . S
H289 C297 0.930 . S
H290 C298 0.930 . S
H291 C299 0.930 . S
H292 C302 0.930 1_565 S
H293 C303 0.930 1_565 S
C294 H288 0.930 . S
C294 C295 1.355 . S
C294 C296 1.415 . S
C295 C294 1.355 . S
C295 C297 1.419 . S
C296 C294 1.415 . S
C296 C301 1.425 . S
C296 C303 1.409 . S
C297 H289 0.930 . S
C297 C295 1.419 . S
C297 C298 1.362 . S
C298 H290 0.930 . S
C298 C297 1.362 . S
C298 C301 1.409 . S
C299 H291 0.930 . S
C299 C300 1.355 . S
C299 C301 1.415 . S
C300 C299 1.355 . S
C300 C302 1.419 . S
C301 C296 1.425 . S
C301 C298 1.409 . S
C301 C299 1.415 . S
C302 H292 0.930 1_545 S
C302 C300 1.419 . S
C302 C303 1.362 . S
C303 H293 0.930 1_545 S
C303 C296 1.409 . S
C303 C302 1.362 . S
H304 C310 0.930 . S
H305 C313 0.930 . S
H306 C314 0.930 . S
H307 C315 0.930 . S
H308 C318 0.930 . S
H309 C319 0.930 . S
C310 H304 0.930 . S
C310 C311 1.355 . S
C310 C312 1.415 . S
C311 C310 1.355 . S
C311 C313 1.419 . S
C312 C310 1.415 . S
C312 C317 1.425 . S
C312 C319 1.409 . S
C313 H305 0.930 . S
C313 C311 1.419 . S
C313 C314 1.362 . S
C314 H306 0.930 . S
C314 C313 1.362 . S
C314 C317 1.409 . S
C315 H307 0.930 . S
C315 C316 1.355 . S
C315 C317 1.415 . S
C316 C315 1.355 . S
C316 C318 1.419 . S
C317 C312 1.425 . S
C317 C314 1.409 . S
C317 C315 1.415 . S
C318 H308 0.930 . S
C318 C316 1.419 . S
C318 C319 1.362 . S
C319 H309 0.930 . S
C319 C312 1.409 . S
C319 C318 1.362 . S
H320 C326 0.930 . S
H321 C329 0.930 . S
H322 C330 0.930 1_554 S
H323 C331 0.930 . S
H324 C334 0.930 . S
H325 C335 0.930 . S
C326 H320 0.930 . S
C326 C327 1.355 . S
C326 C328 1.415 . S
C327 C326 1.355 . S
C327 C329 1.419 . S
C328 C326 1.415 . S
C328 C333 1.425 . S
C328 C335 1.409 . S
C329 H321 0.930 . S
C329 C327 1.419 . S
C329 C330 1.362 . S
C330 H322 0.930 1_556 S
C330 C329 1.362 . S
C330 C333 1.409 . S
C331 H323 0.930 . S
C331 C332 1.355 1_554 S
C331 C333 1.415 1_554 S
C332 C331 1.355 1_556 S
C332 C334 1.419 . S
C333 C328 1.425 . S
C333 C330 1.409 . S
C333 C331 1.415 1_556 S
C334 H324 0.930 . S
C334 C332 1.419 . S
C334 C335 1.362 . S
C335 H325 0.930 . S
C335 C328 1.409 . S
C335 C334 1.362 . S
H336 C342 0.930 . S
H337 C345 0.930 . S
H338 C346 0.930 . S
H339 C347 0.930 . S
H340 C350 0.930 . S
H341 C351 0.930 . S
C342 H336 0.930 . S
C342 C343 1.355 . S
C342 C344 1.415 . S
C343 C342 1.355 . S
C343 C345 1.419 . S
C344 C342 1.415 . S
C344 C349 1.425 . S
C344 C351 1.409 . S
C345 H337 0.930 . S
C345 C343 1.419 . S
C345 C346 1.362 . S
C346 H338 0.930 . S
C346 C345 1.362 . S
C346 C349 1.409 . S
C347 H339 0.930 . S
C347 C348 1.355 . S
C347 C349 1.415 . S
C348 C347 1.355 . S
C348 C350 1.419 . S
C349 C344 1.425 . S
C349 C346 1.409 . S
C349 C347 1.415 . S
C350 H340 0.930 . S
C350 C348 1.419 . S
C350 C351 1.362 . S
C351 H341 0.930 . S
C351 C344 1.409 . S
C351 C350 1.362 . S
H352 C358 0.930 . S
H353 C361 0.930 . S
H354 C362 0.930 . S
H355 C363 0.930 . S
H356 C366 0.930 1_655 S
H357 C367 0.937 . S
C358 H352 0.930 . S
C358 C359 1.355 . S
C358 C360 1.415 . S
C359 C358 1.355 . S
C359 C361 1.419 . S
C360 C358 1.415 . S
C360 C365 1.425 . S
C360 C367 1.409 . S
C361 H353 0.930 . S
C361 C359 1.419 . S
C361 C362 1.362 . S
C362 H354 0.930 . S
C362 C361 1.362 . S
C362 C365 1.409 . S
C363 H355 0.930 . S
C363 C364 1.355 . S
C363 C365 1.415 . S
C364 C363 1.355 . S
C364 C366 1.419 . S
C365 C360 1.425 . S
C365 C362 1.409 . S
C365 C363 1.415 . S
C366 H356 0.930 1_455 S
C366 C364 1.419 . S
C366 C367 1.362 . S
C367 H357 0.937 . S
C367 C360 1.409 . S
C367 C366 1.362 . S
H368 C374 0.930 . S
H369 C377 0.930 . S
H370 C378 0.930 1_554 S
H371 C379 0.930 1_554 S
H372 C382 0.930 . S
H373 C383 0.930 . S
C374 H368 0.930 . S
C374 C375 1.355 . S
C374 C376 1.415 . S
C375 C374 1.355 . S
C375 C377 1.419 . S
C376 C374 1.415 . S
C376 C381 1.425 . S
C376 C383 1.409 . S
C377 H369 0.930 . S
C377 C375 1.419 . S
C377 C378 1.362 . S
C378 H370 0.930 1_556 S
C378 C377 1.362 . S
C378 C381 1.409 . S
C379 H371 0.930 1_556 S
C379 C380 1.355 . S
C379 C381 1.415 . S
C380 C379 1.355 . S
C380 C382 1.419 . S
C381 C376 1.425 . S
C381 C378 1.409 . S
C381 C379 1.415 . S
C382 H372 0.930 . S
C382 C380 1.419 . S
C382 C383 1.362 . S
C383 H373 0.930 . S
C383 C376 1.409 . S
C383 C382 1.362 . S
H384 C390 0.930 1_455 S
H385 C393 0.930 . S
H386 C394 0.930 . S
H387 C395 0.930 . S
H388 C398 0.930 . S
H389 C399 0.930 . S
C390 H384 0.930 1_655 S
C390 C391 1.355 . S
C390 C392 1.415 . S
C391 C390 1.355 . S
C391 C393 1.419 . S
C392 C390 1.415 . S
C392 C397 1.425 . S
C392 C399 1.409 1_655 S
C393 H385 0.930 . S
C393 C391 1.419 . S
C393 C394 1.362 . S
C394 H386 0.930 . S
C394 C393 1.362 . S
C394 C397 1.409 . S
C395 H387 0.930 . S
C395 C396 1.355 . S
C395 C397 1.415 . S
C396 C395 1.355 . S
C396 C398 1.419 1_655 S
C397 C392 1.425 . S
C397 C394 1.409 . S
C397 C395 1.415 . S
C398 H388 0.930 . S
C398 C396 1.419 1_455 S
C398 C399 1.362 . S
C399 H389 0.930 . S
C399 C392 1.409 1_455 S
C399 C398 1.362 . S
H400 C406 0.930 . S
H401 C409 0.930 . S
H402 C410 0.930 . S
H403 C411 0.930 . S
H404 C414 0.930 . S
H405 C415 0.930 . S
C406 H400 0.930 . S
C406 C407 1.355 . S
C406 C408 1.415 . S
C407 C406 1.355 . S
C407 C409 1.419 . S
C408 C406 1.415 . S
C408 C413 1.425 . S
C408 C415 1.409 . S
C409 H401 0.930 . S
C409 C407 1.419 . S
C409 C410 1.362 . S
C410 H402 0.930 . S
C410 C409 1.362 . S
C410 C413 1.409 . S
C411 H403 0.930 . S
C411 C412 1.355 . S
C411 C413 1.415 . S
C412 C411 1.355 . S
C412 C414 1.419 . S
C413 C408 1.425 . S
C413 C410 1.409 . S
C413 C411 1.415 . S
C414 H404 0.930 . S
C414 C412 1.419 . S
C414 C415 1.362 . S
C415 H405 0.930 . S
C415 C408 1.409 . S
C415 C414 1.362 . S
H416 C422 0.930 . S
H417 C425 0.930 . S
H418 C426 0.930 . S
H419 C427 0.930 . S
H420 C430 0.930 . S
H421 C431 0.930 . S
C422 H416 0.930 . S
C422 C423 1.355 . S
C422 C424 1.415 . S
C423 C422 1.355 . S
C423 C425 1.419 . S
C424 C422 1.415 . S
C424 C429 1.425 . S
C424 C431 1.409 1_655 S
C425 H417 0.930 . S
C425 C423 1.419 . S
C425 C426 1.362 . S
C426 H418 0.930 . S
C426 C425 1.362 . S
C426 C429 1.409 . S
C427 H419 0.930 . S
C427 C428 1.355 . S
C427 C429 1.415 . S
C428 C427 1.355 . S
C428 C430 1.419 1_655 S
C429 C424 1.425 . S
C429 C426 1.409 . S
C429 C427 1.415 . S
C430 H420 0.930 . S
C430 C428 1.419 1_455 S
C430 C431 1.362 . S
C431 H421 0.930 . S
C431 C424 1.409 1_455 S
C431 C430 1.362 . S
H432 C438 0.930 . S
H433 C441 0.930 . S
H434 C442 0.930 . S
H435 C443 0.930 . S
H436 C446 0.930 . S
H437 C447 0.930 . S
C438 H432 0.930 . S
C438 C439 1.355 . S
C438 C440 1.415 . S
C439 C438 1.355 . S
C439 C441 1.419 . S
C440 C438 1.415 . S
C440 C445 1.425 . S
C440 C447 1.409 . S
C441 H433 0.930 . S
C441 C439 1.419 . S
C441 C442 1.362 . S
C442 H434 0.930 . S
C442 C441 1.362 . S
C442 C445 1.409 . S
C443 H435 0.930 . S
C443 C444 1.355 . S
C443 C445 1.415 . S
C444 C443 1.355 . S
C444 C446 1.419 . S
C445 C440 1.425 . S
C445 C442 1.409 . S
C445 C443 1.415 . S
C446 H436 0.930 . S
C446 C444 1.419 . S
C446 C447 1.362 . S
C447 H437 0.930 . S
C447 C440 1.409 . S
C447 C446 1.362 . S
H448 C454 0.930 . S
H449 C457 0.930 . S
H450 C458 0.930 . S
H451 C459 0.930 . S
H452 C462 0.930 . S
H453 C463 0.930 . S
C454 H448 0.930 . S
C454 C455 1.355 . S
C454 C456 1.415 . S
C455 C454 1.355 . S
C455 C457 1.419 . S
C456 C454 1.415 . S
C456 C461 1.425 . S
C456 C463 1.409 . S
C457 H449 0.930 . S
C457 C455 1.419 . S
C457 C458 1.362 . S
C458 H450 0.930 . S
C458 C457 1.362 . S
C458 C461 1.409 . S
C459 H451 0.930 . S
C459 C460 1.355 . S
C459 C461 1.415 . S
C460 C459 1.355 . S
C460 C462 1.419 . S
C461 C456 1.425 . S
C461 C458 1.409 . S
C461 C459 1.415 . S
C462 H452 0.930 . S
C462 C460 1.419 . S
C462 C463 1.362 . S
C463 H453 0.930 . S
C463 C456 1.409 . S
C463 C462 1.362 . S
H464 C470 0.930 . S
H465 C473 0.930 . S
H466 C474 0.930 . S
H467 C475 0.930 . S
H468 C478 0.930 . S
H469 C479 0.930 . S
C470 H464 0.930 . S
C470 C471 1.355 . S
C470 C472 1.415 . S
C471 C470 1.355 . S
C471 C473 1.419 . S
C472 C470 1.415 . S
C472 C477 1.425 . S
C472 C479 1.409 . S
C473 H465 0.930 . S
C473 C471 1.419 . S
C473 C474 1.362 . S
C474 H466 0.930 . S
C474 C473 1.362 . S
C474 C477 1.409 . S
C475 H467 0.930 . S
C475 C476 1.355 . S
C475 C477 1.415 . S
C476 C475 1.355 . S
C476 C478 1.419 . S
C477 C472 1.425 . S
C477 C474 1.409 . S
C477 C475 1.415 . S
C478 H468 0.930 . S
C478 C476 1.419 . S
C478 C479 1.362 . S
C479 H469 0.930 . S
C479 C472 1.409 . S
C479 C478 1.362 . S
H480 C486 0.930 . S
H481 C489 0.930 . S
H482 C490 0.930 . S
H483 C491 0.930 . S
H484 C494 0.930 . S
H485 C495 0.930 . S
C486 H480 0.930 . S
C486 C487 1.355 . S
C486 C488 1.415 . S
C487 C486 1.355 . S
C487 C489 1.419 . S
C488 C486 1.415 . S
C488 C493 1.425 . S
C488 C495 1.409 1_565 S
C489 H481 0.930 . S
C489 C487 1.419 . S
C489 C490 1.362 . S
C490 H482 0.930 . S
C490 C489 1.362 . S
C490 C493 1.409 . S
C491 H483 0.930 . S
C491 C492 1.355 . S
C491 C493 1.415 . S
C492 C491 1.355 . S
C492 C494 1.419 1_565 S
C493 C488 1.425 . S
C493 C490 1.409 . S
C493 C491 1.415 . S
C494 H484 0.930 . S
C494 C492 1.419 1_545 S
C494 C495 1.362 . S
C495 H485 0.930 . S
C495 C488 1.409 1_545 S
C495 C494 1.362 . S
H496 C502 0.930 . S
H497 C505 0.930 . S
H498 C506 0.930 . S
H499 C507 0.930 . S
H500 C510 0.930 . S
H501 C511 0.930 . S
C502 H496 0.930 . S
C502 C503 1.355 . S
C502 C504 1.415 . S
C503 C502 1.355 . S
C503 C505 1.419 . S
C504 C502 1.415 . S
C504 C509 1.425 . S
C504 C511 1.409 . S
C505 H497 0.930 . S
C505 C503 1.419 . S
C505 C506 1.362 . S
C506 H498 0.930 . S
C506 C505 1.362 . S
C506 C509 1.409 . S
C507 H499 0.930 . S
C507 C508 1.355 . S
C507 C509 1.415 . S
C508 C507 1.355 . S
C508 C510 1.419 . S
C509 C504 1.425 . S
C509 C506 1.409 . S
C509 C507 1.415 . S
C510 H500 0.930 . S
C510 C508 1.419 . S
C510 C511 1.362 . S
C511 H501 0.930 . S
C511 C504 1.409 . S
C511 C510 1.362 . S
H512 C518 0.930 . S
H513 C521 0.930 . S
H514 C522 0.930 . S
H515 C523 0.930 . S
H516 C526 0.930 . S
H517 C527 0.930 . S
C518 H512 0.930 . S
C518 C519 1.355 . S
C518 C520 1.415 . S
C519 C518 1.355 . S
C519 C521 1.419 . S
C520 C518 1.415 . S
C520 C525 1.425 . S
C520 C527 1.409 . S
C521 H513 0.930 . S
C521 C519 1.419 . S
C521 C522 1.362 . S
C522 H514 0.930 . S
C522 C521 1.362 . S
C522 C525 1.409 . S
C523 H515 0.930 . S
C523 C524 1.355 . S
C523 C525 1.415 . S
C524 C523 1.355 . S
C524 C526 1.419 . S
C525 C520 1.425 . S
C525 C522 1.409 . S
C525 C523 1.415 . S
C526 H516 0.930 . S
C526 C524 1.419 . S
C526 C527 1.362 . S
C527 H517 0.930 . S
C527 C520 1.409 . S
C527 C526 1.362 . S
H528 C534 0.930 . S
H529 C537 0.930 . S
H530 C538 0.930 . S
H531 C539 0.930 . S
H532 C542 0.930 . S
H533 C543 0.930 . S
C534 H528 0.930 . S
C534 C535 1.355 . S
C534 C536 1.415 . S
C535 C534 1.355 . S
C535 C537 1.419 . S
C536 C534 1.415 . S
C536 C541 1.425 . S
C536 C543 1.409 . S
C537 H529 0.930 . S
C537 C535 1.419 . S
C537 C538 1.362 . S
C538 H530 0.930 . S
C538 C537 1.362 . S
C538 C541 1.409 . S
C539 H531 0.930 . S
C539 C540 1.355 . S
C539 C541 1.415 . S
C540 C539 1.355 . S
C540 C542 1.419 . S
C541 C536 1.425 . S
C541 C538 1.409 . S
C541 C539 1.415 . S
C542 H532 0.930 . S
C542 C540 1.419 . S
C542 C543 1.362 . S
C543 H533 0.930 . S
C543 C536 1.409 . S
C543 C542 1.362 . S
H544 C550 0.930 . S
H545 C553 0.930 1_455 S
H546 C554 0.930 . S
H547 C555 0.930 . S
H548 C558 0.930 . S
H549 C559 0.930 . S
C550 H544 0.930 . S
C550 C551 1.355 . S
C550 C552 1.415 . S
C551 C550 1.355 . S
C551 C553 1.419 . S
C552 C550 1.415 . S
C552 C557 1.425 . S
C552 C559 1.409 . S
C553 H545 0.930 1_655 S
C553 C551 1.419 . S
C553 C554 1.362 1_655 S
C554 H546 0.930 . S
C554 C553 1.362 1_455 S
C554 C557 1.409 1_455 S
C555 H547 0.930 . S
C555 C556 1.355 1_455 S
C555 C557 1.415 1_455 S
C556 C555 1.355 1_655 S
C556 C558 1.419 . S
C557 C552 1.425 . S
C557 C554 1.409 1_655 S
C557 C555 1.415 1_655 S
C558 H548 0.930 . S
C558 C556 1.419 . S
C558 C559 1.362 . S
C559 H549 0.930 . S
C559 C552 1.409 . S
C559 C558 1.362 . S
H560 C566 0.930 . S
H561 C569 0.930 . S
H562 C570 0.930 . S
H563 C571 0.930 . S
H564 C574 0.930 . S
H565 C575 0.930 . S
C566 H560 0.930 . S
C566 C567 1.355 . S
C566 C568 1.415 . S
C567 C566 1.355 . S
C567 C569 1.419 . S
C568 C566 1.415 . S
C568 C573 1.425 . S
C568 C575 1.409 . S
C569 H561 0.930 . S
C569 C567 1.419 . S
C569 C570 1.362 . S
C570 H562 0.930 . S
C570 C569 1.362 . S
C570 C573 1.409 . S
C571 H563 0.930 . S
C571 C572 1.355 . S
C571 C573 1.415 . S
C572 C571 1.355 . S
C572 C574 1.419 . S
C573 C568 1.425 . S
C573 C570 1.409 . S
C573 C571 1.415 . S
C574 H564 0.930 . S
C574 C572 1.419 . S
C574 C575 1.362 . S
C575 H565 0.930 . S
C575 C568 1.409 . S
C575 C574 1.362 . S
H576 C582 0.930 . S
H577 C585 0.915 1_655 S
H578 C586 0.930 1_655 S
H579 C587 0.930 1_655 S
H580 C590 0.930 . S
H581 C591 0.930 . S
C582 H576 0.930 . S
C582 C583 1.355 . S
C582 C584 1.415 . S
C583 C582 1.355 . S
C583 C585 1.419 . S
C584 C582 1.415 . S
C584 C589 1.425 . S
C584 C591 1.409 . S
C585 H577 0.915 1_455 S
C585 C583 1.419 . S
C585 C586 1.362 . S
C586 H578 0.930 1_455 S
C586 C585 1.362 . S
C586 C589 1.409 . S
C587 H579 0.930 1_455 S
C587 C588 1.355 . S
C587 C589 1.415 . S
C588 C587 1.355 . S
C588 C590 1.419 . S
C589 C584 1.425 . S
C589 C586 1.409 . S
C589 C587 1.415 . S
C590 H580 0.930 . S
C590 C588 1.419 . S
C590 C591 1.362 . S
C591 H581 0.930 . S
C591 C584 1.409 . S
C591 C590 1.362 . S
H592 C598 0.930 . S
H593 C601 0.930 . S
H594 C602 0.930 . S
H595 C603 0.930 . S
H596 C606 0.930 . S
H597 C607 0.930 . S
C598 H592 0.930 . S
C598 C599 1.355 . S
C598 C600 1.415 . S
C599 C598 1.355 . S
C599 C601 1.419 . S
C600 C598 1.415 . S
C600 C605 1.425 . S
C600 C607 1.409 . S
C601 H593 0.930 . S
C601 C599 1.419 . S
C601 C602 1.362 . S
C602 H594 0.930 . S
C602 C601 1.362 . S
C602 C605 1.409 . S
C603 H595 0.930 . S
C603 C604 1.355 . S
C603 C605 1.415 . S
C604 C603 1.355 . S
C604 C606 1.419 . S
C605 C600 1.425 . S
C605 C602 1.409 . S
C605 C603 1.415 . S
C606 H596 0.930 . S
C606 C604 1.419 . S
C606 C607 1.362 . S
C607 H597 0.930 . S
C607 C600 1.409 . S
C607 C606 1.362 . S
C231 C9 2.477 . S
C236 C120 2.493 . S
C247 C21 1.071 . S
C252 N140 1.096 . S
C268 C174 1.707 . S
C263 C30 1.691 . S
C279 C43 0.956 . S
C284 N208 1.018 . S
C300 C161 2.200 . S
C295 C4 2.186 . S
C316 N118 1.499 . S
C311 C22 1.562 . S
C332 C195 1.700 1_556 S
C327 C34 1.702 . S
C348 N170 0.904 . S
C343 C48 0.970 . S
C359 C8 1.830 . S
C364 C210 1.846 . S
C380 C144 1.767 . S
C375 C35 1.760 . S
C391 C47 1.431 . S
C396 C105 1.440 . S
C407 C17 1.225 . S
C412 C191 1.214 . S
C428 C131 2.157 . S
C423 C60 2.130 . S
C439 C74 1.344 . S
C444 N148 1.337 . S
C455 C82 1.535 . S
C460 C165 1.512 . S
C471 C100 1.510 . S
C476 N200 1.411 . S
C487 C61 2.548 . S
C492 C150 2.565 . S
C508 N110 1.117 . S
C503 C73 1.163 . S
C524 C204 2.050 . S
C519 C87 2.051 . S
C540 N178 0.781 . S
C535 C95 0.645 . S
C551 C56 1.828 . S
C556 C221 1.867 1_656 S
C572 C135 1.784 . S
C567 C86 1.771 . S
C588 C114 1.447 . S
C583 C99 1.435 . S
C599 C69 1.332 . S
C604 C180 1.320 . S
