# Generated by pormake.
# Topology the, (3,8)-cn, num edge types: 1
# Building blocks:
#     Node 0, Type 0, BuildingBlock: BETDIP_clean_linker_0, # of connection points: 3
#     Node 1, Type 0, BuildingBlock: BETDIP_clean_linker_0, # of connection points: 3
#     Node 2, Type 0, BuildingBlock: BETDIP_clean_linker_0, # of connection points: 3
#     Node 3, Type 0, BuildingBlock: BETDIP_clean_linker_0, # of connection points: 3
#     Node 4, Type 0, BuildingBlock: BETDIP_clean_linker_0, # of connection points: 3
#     Node 5, Type 0, BuildingBlock: BETDIP_clean_linker_0, # of connection points: 3
#     Node 6, Type 0, BuildingBlock: BETDIP_clean_linker_0, # of connection points: 3
#     Node 7, Type 0, BuildingBlock: BETDIP_clean_linker_0, # of connection points: 3
#     Node 8, Type 1, BuildingBlock: GIZVER_clean_sbu_0, # of connection points: 8
#     Node 9, Type 1, BuildingBlock: GIZVER_clean_sbu_0, # of connection points: 8
#     Node 10, Type 1, BuildingBlock: GIZVER_clean_sbu_0, # of connection points: 8
#     Edge 11, Type (0, 1), BuildingBlock: MIFKUJ_clean_linker_0, # of connection points: 2
#     Edge 12, Type (0, 1), BuildingBlock: MIFKUJ_clean_linker_0, # of connection points: 2
#     Edge 13, Type (0, 1), BuildingBlock: MIFKUJ_clean_linker_0, # of connection points: 2
#     Edge 14, Type (0, 1), BuildingBlock: MIFKUJ_clean_linker_0, # of connection points: 2
#     Edge 15, Type (0, 1), BuildingBlock: MIFKUJ_clean_linker_0, # of connection points: 2
#     Edge 16, Type (0, 1), BuildingBlock: MIFKUJ_clean_linker_0, # of connection points: 2
#     Edge 17, Type (0, 1), BuildingBlock: MIFKUJ_clean_linker_0, # of connection points: 2
#     Edge 18, Type (0, 1), BuildingBlock: MIFKUJ_clean_linker_0, # of connection points: 2
#     Edge 19, Type (0, 1), BuildingBlock: MIFKUJ_clean_linker_0, # of connection points: 2
#     Edge 20, Type (0, 1), BuildingBlock: MIFKUJ_clean_linker_0, # of connection points: 2
#     Edge 21, Type (0, 1), BuildingBlock: MIFKUJ_clean_linker_0, # of connection points: 2
#     Edge 22, Type (0, 1), BuildingBlock: MIFKUJ_clean_linker_0, # of connection points: 2
#     Edge 23, Type (0, 1), BuildingBlock: MIFKUJ_clean_linker_0, # of connection points: 2
#     Edge 24, Type (0, 1), BuildingBlock: MIFKUJ_clean_linker_0, # of connection points: 2
#     Edge 25, Type (0, 1), BuildingBlock: MIFKUJ_clean_linker_0, # of connection points: 2
#     Edge 26, Type (0, 1), BuildingBlock: MIFKUJ_clean_linker_0, # of connection points: 2
#     Edge 27, Type (0, 1), BuildingBlock: MIFKUJ_clean_linker_0, # of connection points: 2
#     Edge 28, Type (0, 1), BuildingBlock: MIFKUJ_clean_linker_0, # of connection points: 2
#     Edge 29, Type (0, 1), BuildingBlock: MIFKUJ_clean_linker_0, # of connection points: 2
#     Edge 30, Type (0, 1), BuildingBlock: MIFKUJ_clean_linker_0, # of connection points: 2
#     Edge 31, Type (0, 1), BuildingBlock: MIFKUJ_clean_linker_0, # of connection points: 2
#     Edge 32, Type (0, 1), BuildingBlock: MIFKUJ_clean_linker_0, # of connection points: 2
#     Edge 33, Type (0, 1), BuildingBlock: MIFKUJ_clean_linker_0, # of connection points: 2
#     Edge 34, Type (0, 1), BuildingBlock: MIFKUJ_clean_linker_0, # of connection points: 2
# Relax obj value: 0.082
# Max RMSD: 0.189
# Mean RMSD: 0.143
data_MOF--net-the--node1-GIZVER_clean_sbu_0--node2-BETDIP_clean_linker_0--edge1-MIFKUJ_clean_linker_0
_symmetry_space_group_name_H-M    P1
_symmetry_Int_Tables_number       1
_symmetry_cell_setting            triclinic
loop_
_symmetry_equiv_pos_as_xyz
'x, y, z'
_cell_length_a     51.890328
_cell_length_b     48.774981
_cell_length_c     47.124291
_cell_angle_alpha  90.808716
_cell_angle_beta   89.333532
_cell_angle_gamma 107.45914
loop_
_atom_site_label
_atom_site_type_symbol
_atom_site_fract_x
_atom_site_fract_y
_atom_site_fract_z
_atom_type_partial_charge
H0 H 0.29434 0.32158 0.42782 0.0
H1 H 0.34436 0.32399 0.35428 0.0
H2 H 0.29139 0.37711 0.35857 0.0
H3 H 0.32986 0.27322 0.36673 0.0
C4 C 0.33629 0.27709 0.38869 0.0
C5 C 0.30127 0.33022 0.40707 0.0
C6 C 0.29084 0.35073 0.39503 0.0
C7 C 0.32008 0.32014 0.3922 0.0
C8 C 0.32908 0.33116 0.3653 0.0
C9 C 0.31901 0.35191 0.35294 0.0
C10 C 0.29994 0.36174 0.3681 0.0
N11 N 0.32976 0.29894 0.40474 0.0
H12 H 0.72669 0.38256 0.31213 0.0
H13 H 0.65822 0.30678 0.30435 0.0
H14 H 0.71821 0.31018 0.36694 0.0
H15 H 0.66005 0.31989 0.2592 0.0
C16 C 0.66535 0.34317 0.25987 0.0
C17 C 0.71583 0.36099 0.31884 0.0
C18 C 0.72541 0.34852 0.34171 0.0
C19 C 0.69209 0.34585 0.30455 0.0
C20 C 0.67721 0.31835 0.3141 0.0
C21 C 0.6867 0.30543 0.33645 0.0
C22 C 0.7109 0.32041 0.34983 0.0
N23 N 0.68338 0.35892 0.28107 0.0
H24 H 0.70646 0.66558 0.31644 0.0
H25 H 0.71492 0.73027 0.38165 0.0
H26 H 0.65424 0.7196 0.31784 0.0
H27 H 0.75532 0.72372 0.38822 0.0
C28 C 0.75355 0.70165 0.38234 0.0
C29 C 0.69997 0.68276 0.326 0.0
C30 C 0.67878 0.69093 0.3138 0.0
C31 C 0.71344 0.69689 0.35018 0.0
C32 C 0.70539 0.71955 0.36256 0.0
C33 C 0.68397 0.72772 0.35097 0.0
C34 C 0.67082 0.71335 0.32665 0.0
N35 N 0.73422 0.68691 0.36181 0.0
H36 H 0.25395 0.68134 0.27103 0.0
H37 H 0.33014 0.74345 0.29002 0.0
H38 H 0.26148 0.73809 0.34343 0.0
H39 H 0.34734 0.72203 0.25796 0.0
C40 C 0.33243 0.70332 0.24924 0.0
C41 C 0.26587 0.69885 0.28422 0.0
C42 C 0.25401 0.70842 0.30783 0.0
C43 C 0.29333 0.7107 0.27792 0.0
C44 C 0.30901 0.73355 0.29474 0.0
C45 C 0.29749 0.74387 0.31814 0.0
C46 C 0.27 0.73119 0.32453 0.0
N47 N 0.30451 0.69756 0.2558 0.0
H48 H 0.30701 0.63896 0.7335 0.0
H49 H 0.38196 0.70751 0.73408 0.0
H50 H 0.32014 0.70788 0.6741 0.0
H51 H 0.39628 0.66728 0.74685 0.0
C52 C 0.38147 0.65899 0.76355 0.0
C53 C 0.31968 0.65911 0.72503 0.0
C54 C 0.31085 0.6716 0.70185 0.0
C55 C 0.34545 0.67168 0.73644 0.0
C56 C 0.36214 0.69767 0.72519 0.0
C57 C 0.35328 0.71098 0.70253 0.0
C58 C 0.32755 0.6977 0.69117 0.0
N59 N 0.35407 0.6578 0.75925 0.0
H60 H 0.32943 0.35733 0.7216 0.0
H61 H 0.32351 0.29697 0.65272 0.0
H62 H 0.38105 0.30285 0.7192 0.0
H63 H 0.30104 0.32245 0.63105 0.0
C64 C 0.29277 0.33429 0.64649 0.0
C65 C 0.33601 0.34048 0.71144 0.0
C66 C 0.35687 0.33171 0.72353 0.0
C67 C 0.32403 0.32853 0.68578 0.0
C68 C 0.33267 0.3067 0.67232 0.0
C69 C 0.35348 0.2974 0.68408 0.0
C70 C 0.36542 0.31017 0.70966 0.0
N71 N 0.30344 0.33914 0.67449 0.0
H72 H 0.69918 0.26776 0.7447 0.0
H73 H 0.7721 0.33663 0.7584 0.0
H74 H 0.76131 0.28813 0.68024 0.0
H75 H 0.7582 0.32737 0.8065 0.0
C76 C 0.73755 0.32696 0.80227 0.0
C77 C 0.719 0.28035 0.73732 0.0
C78 C 0.7286 0.2747 0.71055 0.0
C79 C 0.73457 0.3024 0.75473 0.0
C80 C 0.76016 0.3191 0.7453 0.0
C81 C 0.77004 0.31405 0.71847 0.0
C82 C 0.75425 0.29156 0.70135 0.0
N83 N 0.72284 0.30912 0.78022 0.0
H84 H 0.67477 0.68534 0.676 0.0
H85 H 0.73048 0.69789 0.60554 0.0
H86 H 0.74405 0.65469 0.68021 0.0
H87 H 0.7001 0.7127 0.58248 0.0
C88 C 0.68748 0.71932 0.59798 0.0
C89 C 0.69282 0.68242 0.66627 0.0
C90 C 0.70854 0.66878 0.68132 0.0
C91 C 0.70042 0.69305 0.63903 0.0
C92 C 0.72398 0.68953 0.6264 0.0
C93 C 0.73989 0.67578 0.64124 0.0
C94 C 0.73214 0.66571 0.66879 0.0
N95 N 0.68443 0.70832 0.62597 0.0
Co96 Co 0.07275 0.49067 0.5292 0.0
Co97 Co 0.0405 0.47245 0.4853 0.0
Co98 Co 0.01876 0.51642 0.52023 0.0
O99 O 0.03446 0.48352 0.52244 0.0
H100 H 0.02318 0.46746 0.533 0.0
O101 O 1.00311 0.54923 0.51803 0.0
Co102 Co 0.96528 0.54179 0.50963 0.0
Co103 Co 0.99583 0.56083 0.55438 0.0
H104 H 0.01457 0.56533 0.50764 0.0
O105 O 0.04706 0.43753 0.47693 0.0
O106 O 0.07731 0.47928 0.48966 0.0
O107 O 0.03699 0.49726 0.45494 0.0
O108 O 0.03964 0.53348 0.48502 0.0
O109 O 0.98879 0.49189 0.49605 0.0
O110 O 0.93122 0.53815 0.5003 0.0
O111 O 0.96761 0.57729 0.49653 0.0
O112 O 0.95797 0.50347 0.52152 0.0
O113 O 0.99765 0.49964 0.55543 0.0
O114 O 0.99863 0.53605 0.58488 0.0
O115 O 0.95902 0.55348 0.54856 0.0
O116 O 0.9882 0.59566 0.56169 0.0
C117 C 0.09737 0.46747 0.54386 0.0
C118 C 0.07345 0.54468 0.53758 0.0
C119 C 0.04164 0.52392 0.45997 0.0
C120 C 0.07195 0.4528 0.48099 0.0
C121 C 0.94182 0.56476 0.49275 0.0
C122 C 0.96412 0.4871 0.5033 0.0
C123 C 0.99403 0.50934 0.58004 0.0
C124 C 0.9636 0.57999 0.55678 0.0
O125 O 0.1073 0.49416 0.53632 0.0
O126 O 0.07133 0.45502 0.5418 0.0
O127 O 0.04876 0.5408 0.54434 0.0
O128 O 0.07912 0.52898 0.51827 0.0
Co129 Co 0.54055 0.95511 0.49221 0.0
Co130 Co 0.55444 0.97998 0.54184 0.0
Co131 Co 0.51443 0.00881 0.51422 0.0
O132 O 0.54561 0.99317 0.50747 0.0
H133 H 0.56117 0.0072 0.49946 0.0
O134 O 0.48357 0.02498 0.52092 0.0
Co135 Co 0.48973 0.06451 0.53364 0.0
Co136 Co 0.47541 0.0365 0.48539 0.0
H137 H 0.46797 0.01147 0.52962 0.0
O138 O 0.58706 0.97283 0.54811 0.0
O139 O 0.54928 0.9422 0.52977 0.0
O140 O 0.53022 0.9786 0.57357 0.0
O141 O 0.49717 0.97991 0.5447 0.0
O142 O 0.53658 0.03626 0.54258 0.0
O143 O 0.49294 0.09978 0.54627 0.0
O144 O 0.45539 0.0619 0.5464 0.0
O145 O 0.52675 0.07312 0.52374 0.0
O146 O 0.53193 0.03724 0.48366 0.0
O147 O 0.49965 0.0375 0.45361 0.0
O148 O 0.48006 0.07458 0.49525 0.0
O149 O 0.44255 0.04163 0.47858 0.0
C150 C 0.56417 0.93358 0.4717 0.0
C151 C 0.488 0.95456 0.48705 0.0
C152 C 0.50527 0.97253 0.56812 0.0
C153 C 0.57352 0.94707 0.53986 0.0
C154 C 0.46749 0.08899 0.55254 0.0
C155 C 0.5418 0.06331 0.53929 0.0
C156 C 0.52447 0.0439 0.45968 0.0
C157 C 0.4555 0.06802 0.48545 0.0
O158 O 0.53875 0.92127 0.47714 0.0
O159 O 0.57522 0.96029 0.47977 0.0
O160 O 0.49204 0.98159 0.48568 0.0
O161 O 0.5035 0.94457 0.50167 0.0
Co162 Co 0.48284 0.5084 0.07724 0.0
Co163 Co 0.4749 0.45873 0.05044 0.0
Co164 Co 0.52064 0.5084 0.01881 0.0
O165 O 0.48488 0.49714 0.03842 0.0
H166 H 0.47086 0.50049 0.0269 0.0
O167 O 0.55684 0.51962 1.00014 0.0
Co168 Co 0.56181 0.50497 0.96382 0.0
Co169 Co 0.56747 0.55619 0.98471 0.0
H170 H 0.57061 0.51815 0.01317 0.0
O171 O 0.43953 0.4384 0.06304 0.0
O172 O 0.47261 0.46804 0.08855 0.0
O173 O 0.50306 0.44029 0.04915 0.0
O174 O 0.53535 0.48153 0.04168 0.0
O175 O 0.50463 0.47728 0.98965 0.0
O176 O 0.56961 0.49091 0.93112 0.0
O177 O 0.59605 0.5051 0.96947 0.0
O178 O 0.52639 0.50232 0.95355 0.0
O179 O 0.50595 0.53524 0.99572 0.0
O180 O 0.53902 0.57349 0.98098 0.0
O181 O 0.57347 0.54404 0.94842 0.0
O182 O 0.60364 0.57632 0.97498 0.0
C183 C 0.45405 0.51757 0.1022 0.0
C184 C 0.53674 0.53309 0.07392 0.0
C185 C 0.52766 0.45546 0.05003 0.0
C186 C 0.44863 0.44992 0.0873 0.0
C187 C 0.59228 0.49368 0.94407 0.0
C188 C 0.50703 0.48185 0.96297 0.0
C189 C 0.51411 0.5598 0.98367 0.0
C190 C 0.59699 0.56294 0.95093 0.0
O191 O 0.47768 0.51917 0.11235 0.0
O192 O 0.44814 0.5084 0.07621 0.0
O193 O 0.53634 0.53952 0.04783 0.0
O194 O 0.51923 0.51096 0.08337 0.0
H195 H 0.28975 0.40496 0.40824 0.0
H196 H 0.25223 0.41891 0.43007 0.0
H197 H 0.20551 0.32961 0.43578 0.0
H198 H 0.24314 0.31557 0.4146 0.0
H199 H 0.18071 0.3666 0.40638 0.0
H200 H 0.22236 0.35864 0.49292 0.0
H201 H 0.25866 0.36594 0.52799 0.0
H202 H 0.26745 0.45628 0.5314 0.0
H203 H 0.2318 0.44973 0.49554 0.0
H204 H 0.06826 0.39647 0.47077 0.0
H205 H 0.10523 0.37627 0.46128 0.0
H206 H 0.16279 0.46059 0.47046 0.0
H207 H 0.12596 0.4809 0.48012 0.0
H208 H 0.18132 0.4227 0.49512 0.0
H209 H 0.14217 0.42941 0.4044 0.0
H210 H 0.10534 0.42093 0.36965 0.0
H211 H 0.09015 0.32976 0.37679 0.0
H212 H 0.12669 0.33771 0.41187 0.0
C213 C 0.27157 0.38839 0.41454 0.0
C214 C 0.26918 0.35926 0.40981 0.0
C215 C 0.25031 0.39632 0.42712 0.0
C216 C 0.22629 0.37523 0.43464 0.0
C217 C 0.22402 0.34611 0.43028 0.0
C218 C 0.24545 0.33816 0.41824 0.0
C219 C 0.20266 0.38377 0.44436 0.0
C220 C 0.1805 0.37826 0.42613 0.0
C221 C 0.20285 0.39949 0.46982 0.0
C222 C 0.22471 0.40375 0.49104 0.0
C223 C 0.23233 0.38017 0.50072 0.0
C224 C 0.25274 0.38415 0.52084 0.0
C225 C 0.26544 0.41157 0.5318 0.0
C226 C 0.25768 0.43506 0.52276 0.0
C227 C 0.23741 0.43123 0.50247 0.0
C228 C 0.08879 0.41069 0.47079 0.0
C229 C 0.09419 0.44029 0.47594 0.0
C230 C 0.10992 0.39912 0.46542 0.0
C231 C 0.13677 0.41697 0.46488 0.0
C232 C 0.14223 0.44642 0.47075 0.0
C233 C 0.12113 0.458 0.47614 0.0
C234 C 0.15918 0.40524 0.45731 0.0
C235 C 0.18127 0.4105 0.47569 0.0
C236 C 0.15883 0.38896 0.43215 0.0
C237 C 0.13697 0.38415 0.41095 0.0
C238 C 0.13085 0.40755 0.39869 0.0
C239 C 0.11005 0.40284 0.37892 0.0
C240 C 0.09537 0.37482 0.37107 0.0
C241 C 0.10152 0.35145 0.38292 0.0
C242 C 0.12228 0.35605 0.40273 0.0
H243 H 0.07927 0.37122 0.35576 0.0
H244 H 0.28132 0.41459 0.54728 0.0
H245 H 0.63386 0.28697 0.35304 0.0
H246 H 0.60868 0.23949 0.37138 0.0
H247 H 0.67914 0.21094 0.35982 0.0
H248 H 0.70458 0.25861 0.34202 0.0
H249 H 0.62686 0.17086 0.33993 0.0
H250 H 0.66989 0.22625 0.42135 0.0
H251 H 0.68161 0.26842 0.4535 0.0
H252 H 0.59753 0.25494 0.4721 0.0
H253 H 0.58529 0.21294 0.43966 0.0
H254 H 0.5777 0.07059 0.4712 0.0
H255 H 0.60807 0.11174 0.4469 0.0
H256 H 0.54706 0.10733 0.3842 0.0
H257 H 0.51639 0.06604 0.40837 0.0
H258 H 0.59794 0.16298 0.44101 0.0
H259 H 0.57993 0.13566 0.32173 0.0
H260 H 0.56923 0.09326 0.28983 0.0
H261 H 0.60576 0.04934 0.34807 0.0
H262 H 0.61701 0.0916 0.38012 0.0
C263 C 0.64386 0.27046 0.35423 0.0
C264 C 0.67113 0.27636 0.34621 0.0
C265 C 0.62952 0.24345 0.36472 0.0
C266 C 0.6421 0.22179 0.36692 0.0
C267 C 0.66911 0.22738 0.35819 0.0
C268 C 0.68361 0.25457 0.34821 0.0
C269 C 0.62733 0.19371 0.37943 0.0
C270 C 0.6205 0.16905 0.36202 0.0
C271 C 0.61937 0.19143 0.4083 0.0
C272 C 0.62667 0.21665 0.42783 0.0
C273 C 0.65389 0.23245 0.43207 0.0
C274 C 0.66063 0.25629 0.45039 0.0
C275 C 0.64033 0.26441 0.46477 0.0
C276 C 0.61324 0.24866 0.46091 0.0
C277 C 0.60639 0.22483 0.44256 0.0
C278 C 0.57086 0.07787 0.45188 0.0
C279 C 0.54447 0.06501 0.44185 0.0
C280 C 0.58825 0.10156 0.43811 0.0
C281 C 0.57982 0.11269 0.41383 0.0
C282 C 0.55406 0.09898 0.40282 0.0
C283 C 0.53655 0.07535 0.41668 0.0
C284 C 0.59709 0.13996 0.40148 0.0
C285 C 0.6043 0.16462 0.41892 0.0
C286 C 0.60546 0.14215 0.37268 0.0
C287 C 0.59907 0.11671 0.35344 0.0
C288 C 0.58577 0.11699 0.32767 0.0
C289 C 0.57959 0.09298 0.30957 0.0
C290 C 0.58673 0.06859 0.31696 0.0
C291 C 0.60014 0.0682 0.34243 0.0
C292 C 0.60638 0.09217 0.36059 0.0
H293 H 0.58192 0.05002 0.30293 0.0
H294 H 0.64558 0.28285 0.47897 0.0
H295 H 0.7957 0.72656 0.41706 0.0
H296 H 0.82834 0.705 0.43711 0.0
H297 H 0.78807 0.62464 0.3951 0.0
H298 H 0.75537 0.6461 0.37507 0.0
H299 H 0.79983 0.61599 0.4492 0.0
H300 H 0.8483 0.66942 0.3698 0.0
H301 H 0.86706 0.71268 0.34082 0.0
H302 H 0.9145 0.75576 0.41145 0.0
H303 H 0.89573 0.71285 0.44097 0.0
H304 H 0.8977 0.5434 0.45986 0.0
H305 H 0.86613 0.56797 0.44337 0.0
H306 H 0.91396 0.64657 0.48351 0.0
H307 H 0.9461 0.62195 0.4994 0.0
H308 H 0.89847 0.65811 0.43361 0.0
H309 H 0.85239 0.60357 0.51228 0.0
H310 H 0.83212 0.56134 0.54216 0.0
H311 H 0.78048 0.52017 0.47372 0.0
H312 H 0.80012 0.56231 0.4435 0.0
C313 C 0.79387 0.7043 0.41207 0.0
C314 C 0.77308 0.68811 0.39437 0.0
C315 C 0.81258 0.69202 0.42347 0.0
C316 C 0.81087 0.66321 0.41744 0.0
C317 C 0.78985 0.64689 0.40006 0.0
C318 C 0.77122 0.65923 0.38852 0.0
C319 C 0.83085 0.65003 0.42933 0.0
C320 C 0.82138 0.62496 0.44546 0.0
C321 C 0.85906 0.66228 0.42538 0.0
C322 C 0.87042 0.68804 0.40766 0.0
C323 C 0.86258 0.6882 0.37921 0.0
C324 C 0.87324 0.71263 0.36268 0.0
C325 C 0.89191 0.73698 0.37431 0.0
C326 C 0.90001 0.7369 0.40248 0.0
C327 C 0.88939 0.71252 0.41911 0.0
C328 C 0.90137 0.56587 0.4653 0.0
C329 C 0.92408 0.58064 0.48127 0.0
C330 C 0.88327 0.57992 0.45594 0.0
C331 C 0.8872 0.60902 0.46273 0.0
C332 C 0.91034 0.62407 0.47811 0.0
C333 C 0.92872 0.61003 0.48715 0.0
C334 C 0.86745 0.6237 0.45313 0.0
C335 C 0.87694 0.64912 0.43748 0.0
C336 C 0.83923 0.61179 0.45763 0.0
C337 C 0.82778 0.58614 0.4756 0.0
C338 C 0.83678 0.5855 0.50356 0.0
C339 C 0.82538 0.56159 0.52058 0.0
C340 C 0.80509 0.53809 0.50983 0.0
C341 C 0.79615 0.53843 0.48204 0.0
C342 C 0.80731 0.56238 0.465 0.0
H343 H 0.79625 0.51964 0.52307 0.0
H344 H 0.90014 0.75588 0.36148 0.0
H345 H 0.28558 0.7906 0.34125 0.0
H346 H 0.31392 0.8278 0.37264 0.0
H347 H 0.37623 0.78587 0.36852 0.0
H348 H 0.34785 0.74838 0.33788 0.0
H349 H 0.368 0.80152 0.42217 0.0
H350 H 0.38063 0.84528 0.3294 0.0
H351 H 0.36531 0.86199 0.28533 0.0
H352 H 0.33123 0.91803 0.33377 0.0
H353 H 0.34605 0.90135 0.37817 0.0
H354 H 0.48662 0.90207 0.46626 0.0
H355 H 0.45101 0.86862 0.4392 0.0
H356 H 0.40293 0.927 0.44547 0.0
H357 H 0.43978 0.96177 0.4711 0.0
H358 H 0.39799 0.90425 0.39502 0.0
H359 H 0.39146 0.86398 0.48826 0.0
H360 H 0.41024 0.84844 0.5309 0.0
H361 H 0.43398 0.78552 0.48114 0.0
H362 H 0.41579 0.80095 0.43816 0.0
C363 C 0.30527 0.78928 0.34719 0.0
C364 C 0.31458 0.76669 0.33692 0.0
C365 C 0.32149 0.81061 0.36496 0.0
C366 C 0.34726 0.80971 0.37272 0.0
C367 C 0.35642 0.787 0.36275 0.0
C368 C 0.34029 0.76575 0.34501 0.0
C369 C 0.36497 0.83234 0.39113 0.0
C370 C 0.37464 0.82398 0.41623 0.0
C371 C 0.37298 0.86174 0.38377 0.0
C372 C 0.36415 0.87182 0.3571 0.0
C373 C 0.36967 0.86099 0.33066 0.0
C374 C 0.36112 0.87049 0.30562 0.0
C375 C 0.34723 0.89099 0.30675 0.0
C376 C 0.34194 0.90211 0.33293 0.0
C377 C 0.35042 0.89265 0.35803 0.0
C378 C 0.4685 0.90786 0.46191 0.0
C379 C 0.46588 0.93443 0.47099 0.0
C380 C 0.448 0.88856 0.4466 0.0
C381 C 0.42383 0.89479 0.44105 0.0
C382 C 0.42126 0.92156 0.44974 0.0
C383 C 0.44225 0.94136 0.46441 0.0
C384 C 0.40165 0.87336 0.42579 0.0
C385 C 0.391 0.88191 0.40135 0.0
C386 C 0.39272 0.84406 0.43376 0.0
C387 C 0.40235 0.83373 0.45994 0.0
C388 C 0.40067 0.84682 0.48641 0.0
C389 C 0.41126 0.83806 0.51064 0.0
C390 C 0.42335 0.81607 0.50867 0.0
C391 C 0.42462 0.80256 0.4826 0.0
C392 C 0.41413 0.81127 0.45831 0.0
H393 H 0.43184 0.80953 0.52729 0.0
H394 H 0.34063 0.89833 0.28735 0.0
H395 H 0.30205 0.66218 0.64536 0.0
H396 H 0.25909 0.64177 0.62123 0.0
H397 H 0.21747 0.62825 0.70201 0.0
H398 H 0.26082 0.64837 0.72643 0.0
H399 H 0.1968 0.58325 0.6661 0.0
H400 H 0.21705 0.68529 0.66118 0.0
H401 H 0.24542 0.73484 0.65189 0.0
H402 H 0.25168 0.71342 0.56391 0.0
H403 H 0.22369 0.66361 0.57274 0.0
H404 H 0.07016 0.56279 0.59271 0.0
H405 H 0.10807 0.5858 0.62435 0.0
H406 H 0.16426 0.58773 0.55575 0.0
H407 H 0.1268 0.56374 0.52459 0.0
H408 H 0.17361 0.64114 0.59016 0.0
H409 H 0.1592 0.53842 0.59667 0.0
H410 H 0.13172 0.48842 0.60542 0.0
H411 H 0.11418 0.51167 0.69006 0.0
H412 H 0.1414 0.56195 0.68172 0.0
C413 C 0.28375 0.65487 0.65801 0.0
C414 C 0.28472 0.65726 0.68776 0.0
C415 C 0.25919 0.64324 0.64419 0.0
C416 C 0.23494 0.63412 0.65975 0.0
C417 C 0.2359 0.63536 0.68956 0.0
C418 C 0.26063 0.64682 0.70348 0.0
C419 C 0.20875 0.62389 0.64458 0.0
C420 C 0.19148 0.59617 0.64993 0.0
C421 C 0.20188 0.64057 0.62318 0.0
C422 C 0.21839 0.67065 0.61768 0.0
C423 C 0.22459 0.6911 0.63988 0.0
C424 C 0.2406 0.71924 0.63469 0.0
C425 C 0.25038 0.72726 0.60733 0.0
C426 C 0.2441 0.70718 0.58509 0.0
C427 C 0.22813 0.67899 0.59017 0.0
C428 C 0.09057 0.5685 0.58431 0.0
C429 C 0.09552 0.56169 0.55605 0.0
C430 C 0.11216 0.5815 0.60241 0.0
C431 C 0.1389 0.5884 0.59232 0.0
C432 C 0.14376 0.58268 0.56388 0.0
C433 C 0.12233 0.56911 0.54606 0.0
C434 C 0.16207 0.6005 0.61146 0.0
C435 C 0.17875 0.62853 0.60675 0.0
C436 C 0.16836 0.58416 0.63341 0.0
C437 C 0.15201 0.554 0.63845 0.0
C438 C 0.14925 0.53294 0.61705 0.0
C439 C 0.13379 0.50454 0.62195 0.0
C440 C 0.1211 0.4969 0.64822 0.0
C441 C 0.12396 0.51764 0.66969 0.0
C442 C 0.13942 0.54608 0.66491 0.0
H443 H 0.10914 0.47489 0.65197 0.0
H444 H 0.26279 0.74905 0.60336 0.0
H445 H 0.32333 0.24732 0.65778 0.0
H446 H 0.33956 0.21045 0.6342 0.0
H447 H 0.42157 0.25866 0.65467 0.0
H448 H 0.40561 0.29588 0.67741 0.0
H449 H 0.41872 0.24078 0.60135 0.0
H450 H 0.38603 0.1968 0.69083 0.0
H451 H 0.3521 0.17872 0.72858 0.0
H452 H 0.30115 0.11964 0.66942 0.0
H453 H 0.33463 0.13765 0.63121 0.0
H454 H 0.49003 0.14162 0.57646 0.0
H455 H 0.46797 0.17496 0.59631 0.0
H456 H 0.39011 0.11504 0.57764 0.0
H457 H 0.41234 0.08082 0.55785 0.0
H458 H 0.38707 0.13765 0.6267 0.0
H459 H 0.41658 0.18591 0.53632 0.0
H460 H 0.44797 0.2083 0.49762 0.0
H461 H 0.50397 0.25912 0.5581 0.0
H462 H 0.47242 0.23802 0.59715 0.0
C463 C 0.34484 0.25019 0.65709 0.0
C464 C 0.36312 0.27465 0.66964 0.0
C465 C 0.35409 0.22888 0.64385 0.0
C466 C 0.38182 0.23148 0.64288 0.0
C467 C 0.40007 0.25598 0.65519 0.0
C468 C 0.39087 0.27722 0.66842 0.0
C469 C 0.39214 0.2093 0.62839 0.0
C470 C 0.41193 0.21827 0.60715 0.0
C471 C 0.38279 0.17969 0.63514 0.0
C472 C 0.36269 0.16879 0.65809 0.0
C473 C 0.36749 0.18011 0.68582 0.0
C474 C 0.34836 0.16985 0.70731 0.0
C475 C 0.32445 0.14811 0.70138 0.0
C476 C 0.31965 0.13652 0.67397 0.0
C477 C 0.33871 0.14673 0.65239 0.0
C478 C 0.46817 0.1354 0.57633 0.0
C479 C 0.45301 0.10842 0.5654 0.0
C480 C 0.4555 0.1548 0.58747 0.0
C481 C 0.42724 0.14817 0.58765 0.0
C482 C 0.41193 0.12097 0.57729 0.0
C483 C 0.42466 0.10132 0.56616 0.0
C484 C 0.41401 0.16923 0.59987 0.0
C485 C 0.39367 0.16008 0.62069 0.0
C486 C 0.42275 0.19877 0.59275 0.0
C487 C 0.44238 0.2101 0.5696 0.0
C488 C 0.43572 0.20163 0.54136 0.0
C489 C 0.45343 0.21423 0.51937 0.0
C490 C 0.47808 0.23476 0.52537 0.0
C491 C 0.48494 0.24309 0.55345 0.0
C492 C 0.46706 0.23104 0.5755 0.0
H493 H 0.49176 0.24436 0.50826 0.0
H494 H 0.30966 0.14019 0.71805 0.0
H495 H 0.80997 0.29971 0.68874 0.0
H496 H 0.8515 0.3324 0.66889 0.0
H497 H 0.83019 0.40492 0.70405 0.0
H498 H 0.78829 0.37257 0.72295 0.0
H499 H 0.84585 0.41413 0.65049 0.0
H500 H 0.87973 0.38151 0.73358 0.0
H501 H 0.88689 0.34563 0.76643 0.0
H502 H 0.9278 0.31287 0.70055 0.0
H503 H 0.92053 0.34832 0.66716 0.0
H504 H 0.96825 0.5212 0.62748 0.0
H505 H 0.93376 0.4868 0.65535 0.0
H506 H 0.94906 0.41669 0.60842 0.0
H507 H 0.98356 0.45094 0.58014 0.0
H508 H 0.93739 0.40606 0.66822 0.0
H509 H 0.90318 0.44003 0.58527 0.0
H510 H 0.89557 0.47654 0.5534 0.0
H511 H 0.85416 0.50701 0.62022 0.0
H512 H 0.86236 0.47153 0.65294 0.0
C513 C 0.81414 0.32263 0.69218 0.0
C514 C 0.79591 0.33354 0.70754 0.0
C515 C 0.83798 0.34125 0.68107 0.0
C516 C 0.84407 0.37107 0.68527 0.0
C517 C 0.82595 0.38197 0.70067 0.0
C518 C 0.80212 0.36342 0.71169 0.0
C519 C 0.86879 0.39109 0.67273 0.0
C520 C 0.86589 0.41262 0.65472 0.0
C521 C 0.89486 0.38866 0.67775 0.0
C522 C 0.89934 0.36738 0.69779 0.0
C523 C 0.89006 0.3665 0.72602 0.0
C524 C 0.89417 0.34627 0.74476 0.0
C525 C 0.90773 0.32693 0.73556 0.0
C526 C 0.91726 0.32784 0.70763 0.0
C527 C 0.91317 0.34801 0.6888 0.0
C528 C 0.9649 0.49847 0.62355 0.0
C529 C 0.9784 0.48881 0.60129 0.0
C530 C 0.94508 0.47887 0.63945 0.0
C531 C 0.93864 0.44934 0.63353 0.0
C532 C 0.95373 0.43946 0.61314 0.0
C533 C 0.97339 0.45906 0.597 0.0
C534 C 0.91434 0.42917 0.64637 0.0
C535 C 0.91732 0.40758 0.6642 0.0
C536 C 0.88829 0.43161 0.64132 0.0
C537 C 0.88375 0.45333 0.62173 0.0
C538 C 0.89286 0.45482 0.59336 0.0
C539 C 0.88844 0.47534 0.57515 0.0
C540 C 0.87461 0.4942 0.58491 0.0
C541 C 0.86514 0.49259 0.61287 0.0
C542 C 0.86969 0.47232 0.63126 0.0
H543 H 0.87108 0.50996 0.5708 0.0
H544 H 0.91089 0.31128 0.7501 0.0
H545 H 0.68833 0.74412 0.54652 0.0
H546 H 0.66707 0.78084 0.53361 0.0
H547 H 0.63448 0.77887 0.61849 0.0
H548 H 0.65508 0.74202 0.63125 0.0
H549 H 0.59798 0.7827 0.58117 0.0
H550 H 0.69291 0.83025 0.59783 0.0
H551 H 0.74201 0.84077 0.59014 0.0
H552 H 0.73326 0.86193 0.50333 0.0
H553 H 0.68406 0.85101 0.51038 0.0
H554 H 0.61882 0.94767 0.56906 0.0
H555 H 0.63645 0.90748 0.57744 0.0
H556 H 0.57315 0.85237 0.52583 0.0
H557 H 0.55421 0.89193 0.51922 0.0
H558 H 0.65724 0.87639 0.54742 0.0
H559 H 0.55587 0.78408 0.54808 0.0
H560 H 0.5078 0.77771 0.55918 0.0
H561 H 0.53038 0.85008 0.61641 0.0
H562 H 0.57854 0.85663 0.606 0.0
C563 C 0.67642 0.7514 0.56228 0.0
C564 C 0.67349 0.74033 0.58986 0.0
C565 C 0.66435 0.77238 0.55494 0.0
C566 C 0.6494 0.78278 0.57519 0.0
C567 C 0.64586 0.77112 0.60251 0.0
C568 C 0.65779 0.75012 0.6098 0.0
C569 C 0.63843 0.80673 0.56856 0.0
C570 C 0.61082 0.80308 0.57328 0.0
C571 C 0.65526 0.83353 0.55891 0.0
C572 C 0.68478 0.83947 0.55456 0.0
C573 C 0.70143 0.83683 0.57703 0.0
C574 C 0.72928 0.84291 0.57279 0.0
C575 C 0.74074 0.85191 0.54623 0.0
C576 C 0.72437 0.85487 0.52386 0.0
C577 C 0.6965 0.84872 0.52797 0.0
C578 C 0.60859 0.92699 0.55953 0.0
C579 C 0.5851 0.92305 0.54343 0.0
C580 C 0.61876 0.90401 0.56428 0.0
C581 C 0.60594 0.87672 0.55264 0.0
C582 C 0.58305 0.873 0.53565 0.0
C583 C 0.57241 0.89578 0.53158 0.0
C584 C 0.61647 0.8522 0.55853 0.0
C585 C 0.64406 0.8558 0.55412 0.0
C586 C 0.59966 0.82554 0.56868 0.0
C587 C 0.57079 0.82102 0.57599 0.0
C588 C 0.55057 0.7985 0.56318 0.0
C589 C 0.52332 0.79489 0.56932 0.0
C590 C 0.51608 0.81358 0.58836 0.0
C591 C 0.53604 0.83571 0.60157 0.0
C592 C 0.5633 0.83938 0.59555 0.0
H593 H 0.49501 0.81098 0.59287 0.0
H594 H 0.76231 0.85667 0.54302 0.0
H595 H 0.3654 0.28533 0.43785 0.0
H596 H 0.38603 0.25165 0.45969 0.0
H597 H 0.35455 0.19002 0.39264 0.0
H598 H 0.33461 0.22391 0.37021 0.0
H599 H 0.34657 0.1722 0.45766 0.0
H600 H 0.41131 0.21578 0.38164 0.0
H601 H 0.44134 0.25795 0.3572 0.0
H602 H 0.48433 0.28639 0.43475 0.0
H603 H 0.45424 0.24461 0.4597 0.0
H604 H 0.40786 0.06257 0.45887 0.0
H605 H 0.38774 0.10025 0.44841 0.0
H606 H 0.45326 0.16227 0.49142 0.0
H607 H 0.47425 0.12493 0.50066 0.0
H608 H 0.44437 0.184 0.44512 0.0
H609 H 0.38565 0.13568 0.51972 0.0
H610 H 0.35518 0.09448 0.54522 0.0
H611 H 0.30039 0.07682 0.47519 0.0
H612 H 0.33058 0.11749 0.44899 0.0
C613 C 0.36285 0.26457 0.42784 0.0
C614 C 0.34841 0.25704 0.40242 0.0
C615 C 0.37462 0.24545 0.4403 0.0
C616 C 0.37163 0.21848 0.42773 0.0
C617 C 0.35691 0.21078 0.4026 0.0
C618 C 0.34566 0.2301 0.38982 0.0
C619 C 0.38431 0.19834 0.44039 0.0
C620 C 0.36793 0.17458 0.45502 0.0
C621 C 0.41225 0.20226 0.43757 0.0
C622 C 0.43037 0.22727 0.42258 0.0
C623 C 0.427 0.23119 0.39352 0.0
C624 C 0.44406 0.25498 0.37957 0.0
C625 C 0.46468 0.27488 0.39443 0.0
C626 C 0.46832 0.27098 0.42327 0.0
C627 C 0.45129 0.24724 0.43732 0.0
C628 C 0.4179 0.0842 0.46637 0.0
C629 C 0.44258 0.09071 0.48081 0.0
C630 C 0.4062 0.10573 0.4606 0.0
C631 C 0.41853 0.1341 0.46979 0.0
C632 C 0.44309 0.14058 0.48443 0.0
C633 C 0.45509 0.11913 0.48976 0.0
C634 C 0.40661 0.15713 0.46234 0.0
C635 C 0.42308 0.18157 0.44847 0.0
C636 C 0.37876 0.15403 0.46641 0.0
C637 C 0.36048 0.12963 0.48231 0.0
C638 C 0.36718 0.12294 0.50967 0.0
C639 C 0.34997 0.09969 0.52427 0.0
C640 C 0.32594 0.0831 0.51185 0.0
C641 C 0.31901 0.08971 0.4848 0.0
C642 C 0.33614 0.11287 0.47007 0.0
H643 H 0.31267 0.06513 0.52321 0.0
H644 H 0.47788 0.29329 0.3836 0.0
H645 H 0.77313 0.38446 0.32037 0.0
H646 H 0.8143 0.4089 0.34652 0.0
H647 H 0.77561 0.3723 0.42458 0.0
H648 H 0.73412 0.3492 0.39895 0.0
H649 H 0.80357 0.42515 0.43408 0.0
H650 H 0.82149 0.34468 0.38659 0.0
H651 H 0.82544 0.31442 0.34538 0.0
H652 H 0.88571 0.38572 0.30833 0.0
H653 H 0.88185 0.41651 0.34917 0.0
H654 H 0.91739 0.4494 0.52156 0.0
H655 H 0.87765 0.42526 0.49318 0.0
H656 H 0.9209 0.4619 0.41716 0.0
H657 H 0.96112 0.48478 0.44555 0.0
H658 H 0.89094 0.41093 0.4053 0.0
H659 H 0.87365 0.4907 0.45654 0.0
H660 H 0.86846 0.51881 0.49922 0.0
H661 H 0.80595 0.44639 0.53081 0.0
H662 H 0.81096 0.4177 0.48877 0.0
C663 C 0.77325 0.38195 0.34316 0.0
C664 C 0.75032 0.36454 0.35745 0.0
C665 C 0.79694 0.39568 0.35806 0.0
C666 C 0.79831 0.39204 0.38751 0.0
C667 C 0.77521 0.37534 0.40187 0.0
C668 C 0.75152 0.36185 0.38708 0.0
C669 C 0.82372 0.40531 0.40354 0.0
C670 C 0.82263 0.42183 0.42792 0.0
C671 C 0.84876 0.40148 0.39529 0.0
C672 C 0.85117 0.38297 0.37078 0.0
C673 C 0.83544 0.35396 0.36955 0.0
C674 C 0.83769 0.3367 0.34628 0.0
C675 C 0.85576 0.34816 0.32421 0.0
C676 C 0.87169 0.37688 0.32541 0.0
C677 C 0.86949 0.39424 0.34862 0.0
C678 C 0.91845 0.45182 0.49872 0.0
C679 C 0.94218 0.46887 0.48568 0.0
C680 C 0.89567 0.43832 0.48252 0.0
C681 C 0.89586 0.44249 0.45304 0.0
C682 C 0.92008 0.45849 0.43986 0.0
C683 C 0.94311 0.47143 0.45603 0.0
C684 C 0.8708 0.43065 0.43604 0.0
C685 C 0.87195 0.41445 0.41142 0.0
C686 C 0.84572 0.43458 0.44425 0.0
C687 C 0.84282 0.45199 0.46954 0.0
C688 C 0.85892 0.48074 0.47267 0.0
C689 C 0.85601 0.49676 0.49671 0.0
C690 C 0.83693 0.48438 0.5176 0.0
C691 C 0.82073 0.45594 0.51459 0.0
C692 C 0.82358 0.43979 0.49067 0.0
H693 H 0.83459 0.49686 0.53607 0.0
H694 H 0.85747 0.33477 0.30621 0.0
H695 H 0.63348 0.72416 0.37023 0.0
H696 H 0.61743 0.76255 0.39045 0.0
H697 H 0.69736 0.82236 0.38112 0.0
H698 H 0.71373 0.78334 0.36227 0.0
H699 H 0.67685 0.8357 0.42708 0.0
H700 H 0.64443 0.81847 0.33285 0.0
H701 H 0.62221 0.79007 0.2914 0.0
H702 H 0.54702 0.76362 0.33734 0.0
H703 H 0.56889 0.79152 0.37923 0.0
H704 H 0.616 0.95158 0.44916 0.0
H705 H 0.6408 0.92133 0.42612 0.0
H706 H 0.5729 0.84618 0.44101 0.0
H707 H 0.54807 0.87588 0.46294 0.0
H708 H 0.59232 0.84659 0.38766 0.0
H709 H 0.63039 0.87333 0.48208 0.0
H710 H 0.65573 0.91093 0.51522 0.0
H711 H 0.72695 0.92506 0.46352 0.0
H712 H 0.70128 0.89022 0.42811 0.0
C713 C 0.64762 0.74548 0.37267 0.0
C714 C 0.67476 0.7509 0.36445 0.0
C715 C 0.63843 0.7675 0.38408 0.0
C716 C 0.65595 0.79571 0.38664 0.0
C717 C 0.68334 0.80092 0.37925 0.0
C718 C 0.69269 0.77866 0.36842 0.0
C719 C 0.64537 0.81967 0.39629 0.0
C720 C 0.65856 0.83833 0.41821 0.0
C721 C 0.62171 0.82353 0.3845 0.0
C722 C 0.60837 0.80693 0.35926 0.0
C723 C 0.6232 0.80647 0.33417 0.0
C724 C 0.61066 0.79047 0.31059 0.0
C725 C 0.58323 0.77501 0.31176 0.0
C726 C 0.56827 0.77559 0.33648 0.0
C727 C 0.58072 0.79152 0.36014 0.0
C728 C 0.60642 0.92862 0.44739 0.0
C729 C 0.58002 0.91622 0.45786 0.0
C730 C 0.62059 0.91136 0.43424 0.0
C731 C 0.60877 0.88138 0.43194 0.0
C732 C 0.58246 0.86919 0.44237 0.0
C733 C 0.56828 0.88632 0.45504 0.0
C734 C 0.62325 0.86202 0.41907 0.0
C735 C 0.61075 0.84414 0.39641 0.0
C736 C 0.64802 0.85969 0.42963 0.0
C737 C 0.66364 0.87942 0.45199 0.0
C738 C 0.6513 0.88477 0.47738 0.0
C739 C 0.66572 0.9057 0.49659 0.0
C740 C 0.693 0.92003 0.49174 0.0
C741 C 0.70581 0.91391 0.4673 0.0
C742 C 0.69119 0.89392 0.44739 0.0
H743 H 0.70418 0.93595 0.50686 0.0
H744 H 0.57357 0.76263 0.29348 0.0
H745 H 0.22854 0.6505 0.30537 0.0
H746 H 0.18406 0.62453 0.32374 0.0
H747 H 0.17133 0.70445 0.35028 0.0
H748 H 0.21567 0.73098 0.33087 0.0
H749 H 0.16486 0.66411 0.39343 0.0
H750 H 0.13268 0.66725 0.29941 0.0
H751 H 0.13301 0.66206 0.24731 0.0
H752 H 0.12311 0.57187 0.25501 0.0
H753 H 0.12312 0.57656 0.30718 0.0
H754 H 0.04577 0.58102 0.4586 0.0
H755 H 0.0733 0.61686 0.42608 0.0
H756 H 0.09451 0.55004 0.37914 0.0
H757 H 0.06634 0.51401 0.41095 0.0
H758 H 0.09143 0.59048 0.34387 0.0
H759 H 0.13756 0.58857 0.43187 0.0
H760 H 0.14304 0.59026 0.48373 0.0
H761 H 0.1308 0.67352 0.48716 0.0
H762 H 0.1257 0.67245 0.43504 0.0
C763 C 0.21605 0.66277 0.31422 0.0
C764 C 0.22579 0.69293 0.31657 0.0
C765 C 0.19058 0.6478 0.32481 0.0
C766 C 0.17434 0.66259 0.33813 0.0
C767 C 0.18358 0.69269 0.33994 0.0
C768 C 0.20899 0.70776 0.32905 0.0
C769 C 0.14924 0.64619 0.35288 0.0
C770 C 0.14837 0.64864 0.38251 0.0
C771 C 0.1283 0.62529 0.33866 0.0
C772 C 0.12802 0.6223 0.30726 0.0
C773 C 0.13075 0.64633 0.29002 0.0
C774 C 0.13085 0.64348 0.26046 0.0
C775 C 0.12811 0.61666 0.24786 0.0
C776 C 0.12521 0.59263 0.2648 0.0
C777 C 0.12511 0.59537 0.29437 0.0
C778 C 0.05586 0.5739 0.44099 0.0
C779 C 0.05419 0.54473 0.43758 0.0
C780 C 0.07165 0.59442 0.42248 0.0
C781 C 0.08648 0.58622 0.40058 0.0
C782 C 0.08331 0.5569 0.39592 0.0
C783 C 0.06722 0.53631 0.41419 0.0
C784 C 0.10733 0.60815 0.38443 0.0
C785 C 0.10747 0.60662 0.35466 0.0
C786 C 0.12808 0.62948 0.39847 0.0
C787 C 0.13092 0.63027 0.42972 0.0
C788 C 0.13588 0.60715 0.44374 0.0
C789 C 0.13895 0.60801 0.47317 0.0
C790 C 0.13698 0.63184 0.48885 0.0
C791 C 0.13221 0.65501 0.47502 0.0
C792 C 0.12935 0.65436 0.44552 0.0
H793 H 0.13929 0.63242 0.51167 0.0
H794 H 0.12821 0.6145 0.22497 0.0
H795 H 0.35858 0.72721 0.64675 0.0
H796 H 0.38385 0.77335 0.62722 0.0
H797 H 0.41434 0.80327 0.71046 0.0
H798 H 0.38727 0.75762 0.73067 0.0
H799 H 0.40163 0.84425 0.68574 0.0
H800 H 0.456 0.78505 0.65642 0.0
H801 H 0.46625 0.74289 0.63526 0.0
H802 H 0.43494 0.75898 0.55529 0.0
H803 H 0.4241 0.80096 0.57626 0.0
H804 H 0.51037 0.9601 0.62388 0.0
H805 H 0.48343 0.9176 0.64963 0.0
H806 H 0.43138 0.89134 0.57726 0.0
H807 H 0.4577 0.93401 0.55164 0.0
H808 H 0.45744 0.84969 0.59859 0.0
H809 H 0.40473 0.91105 0.63038 0.0
H810 H 0.39831 0.95454 0.65279 0.0
H811 H 0.43087 0.93518 0.73074 0.0
H812 H 0.43785 0.89176 0.70864 0.0
C813 C 0.37038 0.74362 0.66109 0.0
C814 C 0.37063 0.73859 0.69042 0.0
C815 C 0.38526 0.76996 0.64974 0.0
C816 C 0.40148 0.79177 0.66722 0.0
C817 C 0.40209 0.78679 0.69647 0.0
C818 C 0.38682 0.7605 0.70796 0.0
C819 C 0.41705 0.81993 0.65489 0.0
C820 C 0.41419 0.8454 0.66697 0.0
C821 C 0.43329 0.82166 0.63021 0.0
C822 C 0.43927 0.7961 0.61783 0.0
C823 C 0.45114 0.77945 0.63439 0.0
C824 C 0.45705 0.7556 0.62245 0.0
C825 C 0.45124 0.74825 0.59395 0.0
C826 C 0.43946 0.7647 0.57735 0.0
C827 C 0.43349 0.78854 0.58921 0.0
C828 C 0.49274 0.94568 0.61375 0.0
C829 C 0.48614 0.9505 0.58575 0.0
C830 C 0.47743 0.9214 0.62846 0.0
C831 C 0.45553 0.90132 0.61527 0.0
C832 C 0.44822 0.90663 0.58779 0.0
C833 C 0.46317 0.93117 0.57328 0.0
C834 C 0.4416 0.8737 0.62921 0.0
C835 C 0.44494 0.84841 0.61745 0.0
C836 C 0.42631 0.87227 0.65446 0.0
C837 C 0.4221 0.89834 0.66775 0.0
C838 C 0.41078 0.91622 0.65221 0.0
C839 C 0.40698 0.94082 0.66487 0.0
C840 C 0.41426 0.94767 0.69314 0.0
C841 C 0.42529 0.92988 0.70883 0.0
C842 C 0.42915 0.90526 0.69625 0.0
H843 H 0.41129 0.96672 0.70291 0.0
H844 H 0.45591 0.72984 0.58473 0.0
H845 H 0.27146 0.33107 0.59384 0.0
H846 H 0.23751 0.3525 0.57693 0.0
H847 H 0.23215 0.38754 0.66056 0.0
H848 H 0.26639 0.36644 0.67747 0.0
H849 H 0.18698 0.34544 0.58908 0.0
H850 H 0.21631 0.45128 0.65485 0.0
H851 H 0.25645 0.48479 0.67729 0.0
H852 H 0.30806 0.45811 0.61819 0.0
H853 H 0.26823 0.42468 0.59528 0.0
H854 H 0.08531 0.41675 0.57342 0.0
H855 H 0.1171 0.39264 0.59113 0.0
H856 H 0.18325 0.45756 0.55249 0.0
H857 H 0.15188 0.48219 0.53595 0.0
H858 H 0.19784 0.44934 0.60196 0.0
H859 H 0.15769 0.38439 0.52558 0.0
H860 H 0.12142 0.35109 0.49755 0.0
H861 H 0.09563 0.29804 0.57067 0.0
H862 H 0.13212 0.33088 0.5989 0.0
C863 C 0.26306 0.34339 0.60861 0.0
C864 C 0.27174 0.34716 0.63693 0.0
C865 C 0.2436 0.3556 0.59893 0.0
C866 C 0.2324 0.37202 0.61729 0.0
C867 C 0.24075 0.37543 0.64578 0.0
C868 C 0.26029 0.36324 0.65548 0.0
C869 C 0.21212 0.3855 0.60644 0.0
C870 C 0.18934 0.36816 0.59203 0.0
C871 C 0.21517 0.41523 0.60986 0.0
C872 C 0.23929 0.43526 0.62352 0.0
C873 C 0.23623 0.45261 0.64661 0.0
C874 C 0.25892 0.47159 0.65943 0.0
C875 C 0.28479 0.47351 0.64924 0.0
C876 C 0.28802 0.45653 0.62615 0.0
C877 C 0.26539 0.43754 0.61325 0.0
C878 C 0.10662 0.42576 0.56863 0.0
C879 C 0.11602 0.45151 0.55342 0.0
C880 C 0.12483 0.41187 0.57863 0.0
C881 C 0.15275 0.4231 0.57312 0.0
C882 C 0.16195 0.44848 0.55736 0.0
C883 C 0.1439 0.46256 0.54781 0.0
C884 C 0.17266 0.40931 0.58451 0.0
C885 C 0.19534 0.42658 0.59916 0.0
C886 C 0.16977 0.37964 0.58089 0.0
C887 C 0.14741 0.36025 0.56431 0.0
C888 C 0.14415 0.36575 0.53562 0.0
C889 C 0.12361 0.34694 0.51972 0.0
C890 C 0.10606 0.32261 0.53237 0.0
C891 C 0.10918 0.31695 0.56091 0.0
C892 C 0.12987 0.33559 0.57683 0.0
H893 H 0.09014 0.30807 0.52003 0.0
H894 H 0.30233 0.48821 0.65919 0.0
H895 H 0.74339 0.23531 0.67723 0.0
H896 H 0.71445 0.19838 0.64611 0.0
H897 H 0.64589 0.22651 0.6701 0.0
H898 H 0.67462 0.26352 0.70092 0.0
H899 H 0.63334 0.16928 0.67177 0.0
H900 H 0.67643 0.24421 0.60662 0.0
H901 H 0.71473 0.27907 0.58275 0.0
H902 H 0.74345 0.21019 0.5519 0.0
H903 H 0.70549 0.17492 0.57594 0.0
H904 H 0.56243 0.12098 0.53085 0.0
H905 H 0.59776 0.15537 0.55792 0.0
H906 H 0.6092 0.08627 0.60741 0.0
H907 H 0.57368 0.05156 0.58045 0.0
H908 H 0.65141 0.163 0.56859 0.0
H909 H 0.61592 0.11025 0.67668 0.0
H910 H 0.57448 0.07876 0.69895 0.0
H911 H 0.52584 0.10965 0.64183 0.0
H912 H 0.56694 0.14159 0.61954 0.0
C913 C 0.72218 0.23372 0.67569 0.0
C914 C 0.71126 0.25222 0.69166 0.0
C915 C 0.70569 0.21262 0.65795 0.0
C916 C 0.67805 0.20977 0.65576 0.0
C917 C 0.66713 0.22821 0.67165 0.0
C918 C 0.68356 0.24927 0.68934 0.0
C919 C 0.66028 0.18747 0.63715 0.0
C920 C 0.63742 0.16781 0.64925 0.0
C921 C 0.6654 0.1858 0.6077 0.0
C922 C 0.68831 0.20696 0.59337 0.0
C923 C 0.69106 0.23652 0.59498 0.0
C924 C 0.71267 0.25635 0.58137 0.0
C925 C 0.73156 0.24686 0.5659 0.0
C926 C 0.72883 0.21751 0.56395 0.0
C927 C 0.70727 0.19759 0.57755 0.0
C928 C 0.57262 0.11301 0.5473 0.0
C929 C 0.56503 0.08358 0.55377 0.0
C930 C 0.59293 0.1327 0.56261 0.0
C931 C 0.60587 0.12337 0.5848 0.0
C932 C 0.59924 0.09387 0.59049 0.0
C933 C 0.57898 0.0741 0.57507 0.0
C934 C 0.62469 0.14478 0.60331 0.0
C935 C 0.64765 0.16425 0.5912 0.0
C936 C 0.61936 0.14676 0.63265 0.0
C937 C 0.59451 0.12802 0.64625 0.0
C938 C 0.59637 0.11037 0.66896 0.0
C939 C 0.57295 0.09245 0.68158 0.0
C940 C 0.54755 0.09212 0.67174 0.0
C941 C 0.54551 0.10983 0.64936 0.0
C942 C 0.56887 0.12782 0.63671 0.0
H943 H 0.52944 0.07821 0.68151 0.0
H944 H 0.74827 0.26224 0.55535 0.0
H945 H 0.78974 0.68689 0.66462 0.0
H946 H 0.82875 0.67452 0.64523 0.0
H947 H 0.78406 0.64124 0.56917 0.0
H948 H 0.74508 0.65412 0.58837 0.0
H949 H 0.83035 0.62221 0.63412 0.0
H950 H 0.8273 0.64193 0.51511 0.0
H951 H 0.81354 0.67379 0.48238 0.0
H952 H 0.8314 0.74091 0.54562 0.0
H953 H 0.84511 0.70929 0.57888 0.0
H954 H 0.91024 0.55029 0.5593 0.0
H955 H 0.87244 0.56922 0.56888 0.0
H956 H 0.92718 0.65545 0.57087 0.0
H957 H 0.96538 0.63651 0.56227 0.0
H958 H 0.87649 0.64882 0.54124 0.0
H959 H 0.91157 0.62522 0.62915 0.0
H960 H 0.92501 0.59336 0.66221 0.0
H961 H 0.84384 0.53645 0.66324 0.0
H962 H 0.83013 0.56742 0.6293 0.0
C963 C 0.78838 0.67725 0.64362 0.0
C964 C 0.76438 0.67129 0.62805 0.0
C965 C 0.81065 0.67022 0.63255 0.0
C966 C 0.80936 0.65697 0.60574 0.0
C967 C 0.7857 0.65185 0.5897 0.0
C968 C 0.76343 0.65915 0.6007 0.0
C969 C 0.83199 0.64645 0.59589 0.0
C970 C 0.8404 0.62807 0.6138 0.0
C971 C 0.84501 0.65388 0.56929 0.0
C972 C 0.83713 0.67321 0.54947 0.0
C973 C 0.82845 0.66353 0.52197 0.0
C974 C 0.82062 0.68153 0.50333 0.0
C975 C 0.82171 0.70941 0.51182 0.0
C976 C 0.83054 0.7193 0.53906 0.0
C977 C 0.83824 0.7013 0.55786 0.0
C978 C 0.91422 0.57329 0.56165 0.0
C979 C 0.94077 0.59189 0.56055 0.0
C980 C 0.89258 0.58407 0.56684 0.0
C981 C 0.89706 0.6137 0.5705 0.0
C982 C 0.92338 0.6325 0.56801 0.0
C983 C 0.94515 0.62165 0.56339 0.0
C984 C 0.87469 0.62477 0.57957 0.0
C985 C 0.8663 0.643 0.56151 0.0
C986 C 0.8616 0.61722 0.60606 0.0
C987 C 0.86991 0.59846 0.62633 0.0
C988 C 0.89667 0.60569 0.63606 0.0
C989 C 0.90434 0.58778 0.65497 0.0
C990 C 0.88533 0.5628 0.66469 0.0
C991 C 0.85858 0.55574 0.65559 0.0
C992 C 0.85088 0.57339 0.63642 0.0
H993 H 0.89128 0.54898 0.67936 0.0
H994 H 0.81567 0.72332 0.49732 0.0
H995 H 0.32797 0.32134 0.30676 0.0
H996 H 0.34714 0.33989 0.26084 0.0
H997 H 0.34952 0.42557 0.28736 0.0
H998 H 0.33091 0.4073 0.33382 0.0
H999 H 0.33236 0.41127 0.22973 0.0
H1000 H 0.40464 0.40987 0.29248 0.0
H1001 H 0.42775 0.38737 0.3264 0.0
H1002 H 0.43187 0.32428 0.26345 0.0
H1003 H 0.40838 0.34615 0.22928 0.0
H1004 H 0.46471 0.46725 0.14111 0.0
H1005 H 0.43984 0.45258 0.18517 0.0
H1006 H 0.37245 0.39821 0.1382 0.0
H1007 H 0.39715 0.41328 0.09358 0.0
H1008 H 0.42214 0.39955 0.20711 0.0
H1009 H 0.31274 0.39817 0.17958 0.0
H1010 H 0.28961 0.42126 0.14631 0.0
H1011 H 0.36115 0.49316 0.13903 0.0
H1012 H 0.38454 0.47111 0.17286 0.0
C1013 C 0.33262 0.34416 0.30292 0.0
C1014 C 0.32832 0.36292 0.32416 0.0
C1015 C 0.34335 0.35466 0.27658 0.0
C1016 C 0.34993 0.3841 0.27087 0.0
C1017 C 0.34448 0.40275 0.29141 0.0
C1018 C 0.33385 0.39227 0.31791 0.0
C1019 C 0.36438 0.39552 0.2443 0.0
C1020 C 0.35198 0.40877 0.22466 0.0
C1021 C 0.39008 0.39244 0.23802 0.0
C1022 C 0.40454 0.37949 0.25841 0.0
C1023 C 0.4103 0.39107 0.28594 0.0
C1024 C 0.42348 0.37845 0.3052 0.0
C1025 C 0.43121 0.35437 0.29711 0.0
C1026 C 0.42584 0.34291 0.2697 0.0
C1027 C 0.41261 0.35543 0.25037 0.0
C1028 C 0.4445 0.45237 0.13999 0.0
C1029 C 0.43286 0.44148 0.11378 0.0
C1030 C 0.43038 0.44389 0.16527 0.0
C1031 C 0.40432 0.42437 0.16494 0.0
C1032 C 0.39248 0.41351 0.13885 0.0
C1033 C 0.40663 0.42207 0.11342 0.0
C1034 C 0.39001 0.41501 0.19211 0.0
C1035 C 0.40249 0.4021 0.21198 0.0
C1036 C 0.36449 0.41864 0.19854 0.0
C1037 C 0.35056 0.43265 0.17851 0.0
C1038 C 0.32355 0.41898 0.171 0.0
C1039 C 0.31037 0.43194 0.15203 0.0
C1040 C 0.32399 0.45859 0.1404 0.0
C1041 C 0.35076 0.47241 0.14781 0.0
C1042 C 0.36399 0.45967 0.1669 0.0
H1043 H 0.31376 0.46861 0.12574 0.0
H1044 H 0.44141 0.34462 0.31206 0.0
H1045 H 0.42778 0.64518 0.76989 0.0
H1046 H 0.44289 0.62489 0.81154 0.0
H1047 H 0.36976 0.6244 0.8562 0.0
H1048 H 0.35426 0.64421 0.81427 0.0
H1049 H 0.41831 0.64918 0.88749 0.0
H1050 H 0.3736 0.56294 0.83702 0.0
H1051 H 0.36217 0.52991 0.79583 0.0
H1052 H 0.44444 0.52868 0.7899 0.0
H1053 H 0.45647 0.56201 0.83085 0.0
H1054 H 0.46123 0.5309 0.9717 0.0
H1055 H 0.43136 0.54573 0.93953 0.0
H1056 H 0.49243 0.62714 0.92757 0.0
H1057 H 0.52232 0.61266 0.95978 0.0
H1058 H 0.44097 0.55731 0.88406 0.0
H1059 H 0.46288 0.67841 0.91262 0.0
H1060 H 0.47234 0.70982 0.95511 0.0
H1061 H 0.43107 0.63842 0.00743 0.0
H1062 H 0.42102 0.60667 0.96522 0.0
C1063 C 0.41485 0.64055 0.78853 0.0
C1064 C 0.38984 0.64614 0.78883 0.0
C1065 C 0.42346 0.6289 0.81225 0.0
C1066 C 0.40737 0.62299 0.83689 0.0
C1067 C 0.38241 0.62873 0.83735 0.0
C1068 C 0.37357 0.63995 0.81339 0.0
C1069 C 0.41727 0.6117 0.86231 0.0
C1070 C 0.42312 0.62901 0.88686 0.0
C1071 C 0.42306 0.58514 0.86162 0.0
C1072 C 0.41599 0.56523 0.83685 0.0
C1073 C 0.38932 0.55586 0.82677 0.0
C1074 C 0.38272 0.53703 0.8035 0.0
C1075 C 0.4026 0.52733 0.79018 0.0
C1076 C 0.42908 0.53629 0.80021 0.0
C1077 C 0.43579 0.55512 0.82347 0.0
C1078 C 0.46809 0.55225 0.96281 0.0
C1079 C 0.49426 0.57057 0.96837 0.0
C1080 C 0.45103 0.5606 0.94424 0.0
C1081 C 0.4596 0.58755 0.93115 0.0
C1082 C 0.48521 0.60637 0.93766 0.0
C1083 C 0.50233 0.59801 0.95607 0.0
C1084 C 0.44285 0.59522 0.90898 0.0
C1085 C 0.43585 0.5773 0.88493 0.0
C1086 C 0.43577 0.62108 0.91026 0.0
C1087 C 0.44137 0.64012 0.93574 0.0
C1088 C 0.45569 0.66944 0.93316 0.0
C1089 C 0.46119 0.6873 0.95721 0.0
C1090 C 0.45237 0.67611 0.98396 0.0
C1091 C 0.43796 0.64704 0.98671 0.0
C1092 C 0.4324 0.6291 0.96273 0.0
H1093 H 0.45667 0.68996 1.00255 0.0
H1094 H 0.39748 0.51286 0.7721 0.0
H1095 H 0.3328 0.34491 0.77197 0.0
H1096 H 0.35462 0.36761 0.81571 0.0
H1097 H 0.43261 0.37268 0.77942 0.0
H1098 H 0.41087 0.34965 0.7359 0.0
H1099 H 0.43207 0.35649 0.831 0.0
H1100 H 0.40733 0.43165 0.78601 0.0
H1101 H 0.37786 0.45647 0.7639 0.0
H1102 H 0.33191 0.44967 0.84123 0.0
H1103 H 0.36073 0.42416 0.86363 0.0
H1104 H 0.51839 0.47316 0.90793 0.0
H1105 H 0.48886 0.44406 0.87201 0.0
H1106 H 0.42397 0.41915 0.93328 0.0
H1107 H 0.454 0.44807 0.97012 0.0
H1108 H 0.41395 0.44237 0.87396 0.0
H1109 H 0.44527 0.36982 0.9188 0.0
H1110 H 0.48042 0.35099 0.93827 0.0
H1111 H 0.52007 0.35983 0.85695 0.0
H1112 H 0.48537 0.37912 0.83708 0.0
C1113 C 0.35461 0.35101 0.77326 0.0
C1114 C 0.37006 0.34543 0.75037 0.0
C1115 C 0.3671 0.36405 0.79832 0.0
C1116 C 0.39538 0.37222 0.80095 0.0
C1117 C 0.41079 0.36653 0.77812 0.0
C1118 C 0.39831 0.35328 0.7532 0.0
C1119 C 0.40902 0.38642 0.82744 0.0
C1120 C 0.42806 0.37531 0.84023 0.0
C1121 C 0.40373 0.41086 0.83998 0.0
C1122 C 0.38594 0.42558 0.82636 0.0
C1123 C 0.39071 0.43507 0.79819 0.0
C1124 C 0.37415 0.44932 0.78562 0.0
C1125 C 0.35297 0.45457 0.80112 0.0
C1126 C 0.34827 0.44551 0.82922 0.0
C1127 C 0.36468 0.43111 0.84185 0.0
C1128 C 0.4979 0.46143 0.914 0.0
C1129 C 0.48858 0.46294 0.942 0.0
C1130 C 0.48104 0.44477 0.89334 0.0
C1131 C 0.45426 0.42945 0.89993 0.0
C1132 C 0.44463 0.43085 0.9278 0.0
C1133 C 0.4618 0.44721 0.94881 0.0
C1134 C 0.43675 0.41235 0.87719 0.0
C1135 C 0.41728 0.4231 0.86497 0.0
C1136 C 0.44212 0.38808 0.86471 0.0
C1137 C 0.4628 0.37609 0.87651 0.0
C1138 C 0.46159 0.36795 0.90512 0.0
C1139 C 0.48141 0.35715 0.91622 0.0
C1140 C 0.50249 0.35426 0.89887 0.0
C1141 C 0.50374 0.36208 0.87036 0.0
C1142 C 0.48397 0.3729 0.85916 0.0
H1143 H 0.51783 0.34591 0.90751 0.0
H1144 H 0.34028 0.46575 0.7914 0.0
H1145 H 0.75553 0.35515 0.85168 0.0
H1146 H 0.73615 0.38811 0.87827 0.0
H1147 H 0.67359 0.37524 0.81561 0.0
H1148 H 0.69239 0.34201 0.7894 0.0
H1149 H 0.70072 0.43459 0.83067 0.0
H1150 H 0.65618 0.3425 0.87285 0.0
H1151 H 0.65441 0.2974 0.8969 0.0
H1152 H 0.69848 0.34548 0.9672 0.0
H1153 H 0.70084 0.39091 0.94332 0.0
H1154 H 0.5929 0.47532 0.88935 0.0
H1155 H 0.62417 0.45264 0.86755 0.0
H1156 H 0.67021 0.46534 0.94487 0.0
H1157 H 0.63856 0.48783 0.96715 0.0
H1158 H 0.65841 0.41067 0.92572 0.0
H1159 H 0.69719 0.50316 0.88619 0.0
H1160 H 0.69688 0.54779 0.86263 0.0
H1161 H 0.6634 0.49975 0.78773 0.0
H1162 H 0.66325 0.45469 0.81097 0.0
C1163 C 0.73754 0.35927 0.84378 0.0
C1164 C 0.72533 0.34591 0.8187 0.0
C1165 C 0.72657 0.37807 0.85888 0.0
C1166 C 0.70353 0.38406 0.84878 0.0
C1167 C 0.69144 0.3709 0.82363 0.0
C1168 C 0.7021 0.35177 0.80882 0.0
C1169 C 0.69168 0.40384 0.86447 0.0
C1170 C 0.69139 0.42941 0.85142 0.0
C1171 C 0.68026 0.39734 0.89184 0.0
C1172 C 0.67904 0.37008 0.90612 0.0
C1173 C 0.66577 0.34345 0.89328 0.0
C1174 C 0.66459 0.31783 0.90691 0.0
C1175 C 0.67642 0.31857 0.93351 0.0
C1176 C 0.68939 0.34494 0.94656 0.0
C1177 C 0.69066 0.37063 0.93299 0.0
C1178 C 0.60984 0.47364 0.90168 0.0
C1179 C 0.61317 0.48321 0.93005 0.0
C1180 C 0.62782 0.46082 0.88909 0.0
C1181 C 0.64964 0.45749 0.90452 0.0
C1182 C 0.65352 0.46777 0.9326 0.0
C1183 C 0.6355 0.4807 0.94524 0.0
C1184 C 0.66698 0.44132 0.89175 0.0
C1185 C 0.66827 0.41632 0.90528 0.0
C1186 C 0.67937 0.44841 0.86482 0.0
C1187 C 0.68004 0.4755 0.85042 0.0
C1188 C 0.68964 0.50208 0.86473 0.0
C1189 C 0.68955 0.52747 0.85142 0.0
C1190 C 0.67999 0.5266 0.82373 0.0
C1191 C 0.67075 0.50036 0.8092 0.0
C1192 C 0.67082 0.47489 0.82241 0.0
H1193 H 0.67969 0.5462 0.81354 0.0
H1194 H 0.67546 0.29871 0.94405 0.0
H1195 H 0.73852 0.67898 0.72969 0.0
H1196 H 0.7238 0.66159 0.77752 0.0
H1197 H 0.64514 0.61509 0.74493 0.0
H1198 H 0.65952 0.63345 0.69748 0.0
H1199 H 0.63836 0.63997 0.79068 0.0
H1200 H 0.69522 0.58278 0.76391 0.0
H1201 H 0.73657 0.57214 0.74775 0.0
H1202 H 0.77917 0.61694 0.82036 0.0
H1203 H 0.73813 0.62821 0.83677 0.0
H1204 H 0.58666 0.54077 0.89745 0.0
H1205 H 0.61099 0.55934 0.85395 0.0
H1206 H 0.67042 0.6232 0.90218 0.0
H1207 H 0.64599 0.60482 0.94626 0.0
H1208 H 0.68979 0.59345 0.85198 0.0
H1209 H 0.62862 0.64759 0.87803 0.0
H1210 H 0.58445 0.65175 0.89381 0.0
H1211 H 0.54696 0.60472 0.81988 0.0
H1212 H 0.59086 0.59986 0.80391 0.0
C1213 C 0.71815 0.66493 0.73285 0.0
C1214 C 0.70009 0.65754 0.71003 0.0
C1215 C 0.70978 0.6549 0.76011 0.0
C1216 C 0.68343 0.63673 0.76486 0.0
C1217 C 0.66553 0.62916 0.7419 0.0
C1218 C 0.67372 0.63961 0.7148 0.0
C1219 C 0.67405 0.6262 0.79376 0.0
C1220 C 0.64956 0.62951 0.80383 0.0
C1221 C 0.68886 0.61308 0.81138 0.0
C1222 C 0.7137 0.60673 0.80134 0.0
C1223 C 0.71349 0.59069 0.77625 0.0
C1224 C 0.73685 0.58445 0.7671 0.0
C1225 C 0.76052 0.59396 0.78296 0.0
C1226 C 0.76084 0.60965 0.80806 0.0
C1227 C 0.73753 0.61596 0.8173 0.0
C1228 C 0.60512 0.55848 0.89902 0.0
C1229 C 0.61416 0.57162 0.92534 0.0
C1230 C 0.61901 0.56901 0.87408 0.0
C1231 C 0.64224 0.59279 0.87493 0.0
C1232 C 0.65245 0.60482 0.90122 0.0
C1233 C 0.63842 0.59437 0.92631 0.0
C1234 C 0.654 0.60652 0.8481 0.0
C1235 C 0.67886 0.60398 0.83862 0.0
C1236 C 0.63929 0.6197 0.83065 0.0
C1237 C 0.61299 0.62316 0.8399 0.0
C1238 C 0.61092 0.63796 0.86524 0.0
C1239 C 0.58594 0.64047 0.87421 0.0
C1240 C 0.5629 0.62845 0.85789 0.0
C1241 C 0.56482 0.614 0.83252 0.0
C1242 C 0.58975 0.61138 0.82348 0.0
H1243 H 0.54357 0.63038 0.86489 0.0
H1244 H 0.77858 0.58909 0.77585 0.0
H1245 H 0.6634 0.63324 0.30095 0.0
H1246 H 0.64198 0.60923 0.25767 0.0
H1247 H 0.64152 0.69085 0.22402 0.0
H1248 H 0.66297 0.71505 0.26733 0.0
H1249 H 0.59435 0.65067 0.21374 0.0
H1250 H 0.68798 0.65725 0.20114 0.0
H1251 H 0.73171 0.65095 0.21423 0.0
H1252 H 0.69521 0.55953 0.21747 0.0
H1253 H 0.65115 0.5653 0.20481 0.0
H1254 H 0.55917 0.5918 0.07392 0.0
H1255 H 0.58613 0.62173 0.112 0.0
H1256 H 0.58498 0.54537 0.1575 0.0
H1257 H 0.55778 0.51552 0.1201 0.0
H1258 H 0.63499 0.58621 0.15894 0.0
H1259 H 0.54172 0.57886 0.1758 0.0
H1260 H 0.49705 0.58335 0.16384 0.0
H1261 H 0.53194 0.67437 0.15359 0.0
H1262 H 0.57697 0.67034 0.16507 0.0
C1263 C 0.65896 0.64615 0.28427 0.0
C1264 C 0.66511 0.67614 0.28762 0.0
C1265 C 0.64667 0.63237 0.25949 0.0
C1266 C 0.64047 0.64824 0.2373 0.0
C1267 C 0.64611 0.67811 0.24078 0.0
C1268 C 0.65833 0.69191 0.26562 0.0
C1269 C 0.62811 0.63364 0.21054 0.0
C1270 C 0.60354 0.63703 0.20148 0.0
C1271 C 0.63971 0.61528 0.19476 0.0
C1272 C 0.66621 0.61174 0.20226 0.0
C1273 C 0.68923 0.63582 0.20485 0.0
C1274 C 0.71409 0.63234 0.21216 0.0
C1275 C 0.71623 0.60486 0.21674 0.0
C1276 C 0.69352 0.5808 0.21395 0.0
C1277 C 0.66861 0.58416 0.20668 0.0
C1278 C 0.5651 0.58147 0.09184 0.0
C1279 C 0.5563 0.55138 0.09414 0.0
C1280 C 0.58032 0.59854 0.11364 0.0
C1281 C 0.5873 0.5857 0.13775 0.0
C1282 C 0.57974 0.55565 0.1392 0.0
C1283 C 0.56417 0.53867 0.11781 0.0
C1284 C 0.60131 0.60322 0.16229 0.0
C1285 C 0.62609 0.60025 0.17099 0.0
C1286 C 0.58981 0.62176 0.17783 0.0
C1287 C 0.56278 0.62425 0.17092 0.0
C1288 C 0.53993 0.5998 0.17071 0.0
C1289 C 0.51453 0.60226 0.16408 0.0
C1290 C 0.51167 0.62911 0.15786 0.0
C1291 C 0.5342 0.65357 0.15834 0.0
C1292 C 0.55967 0.65121 0.16491 0.0
H1293 H 0.49198 0.63098 0.15276 0.0
H1294 H 0.73549 0.60222 0.22239 0.0
H1295 H 0.38434 0.70503 0.23907 0.0
H1296 H 0.40084 0.66907 0.21432 0.0
H1297 H 0.31872 0.61804 0.19773 0.0
H1298 H 0.30212 0.65364 0.22292 0.0
H1299 H 0.34763 0.58495 0.2159 0.0
H1300 H 0.35893 0.6577 0.14536 0.0
H1301 H 0.37462 0.70667 0.12597 0.0
H1302 H 0.457 0.70978 0.14047 0.0
H1303 H 0.44179 0.66097 0.16032 0.0
H1304 H 0.40623 0.52552 0.08612 0.0
H1305 H 0.37955 0.55085 0.11314 0.0
H1306 H 0.43268 0.55903 0.18444 0.0
H1307 H 0.45895 0.5332 0.1581 0.0
H1308 H 0.41473 0.61076 0.13738 0.0
H1309 H 0.39935 0.54193 0.22 0.0
H1310 H 0.3812 0.49403 0.24139 0.0
H1311 H 0.30439 0.484 0.20266 0.0
H1312 H 0.32239 0.53156 0.18039 0.0
C1313 C 0.36985 0.68622 0.22995 0.0
C1314 C 0.34201 0.68217 0.23284 0.0
C1315 C 0.37927 0.66573 0.21578 0.0
C1316 C 0.361 0.64099 0.20393 0.0
C1317 C 0.33316 0.63697 0.20672 0.0
C1318 C 0.32372 0.6574 0.22102 0.0
C1319 C 0.37098 0.6191 0.18908 0.0
C1320 C 0.36213 0.59059 0.19856 0.0
C1321 C 0.38999 0.62641 0.16654 0.0
C1322 C 0.39919 0.65577 0.15457 0.0
C1323 C 0.38038 0.66891 0.14462 0.0
C1324 C 0.38919 0.69663 0.13351 0.0
C1325 C 0.41678 0.71135 0.13205 0.0
C1326 C 0.43563 0.69836 0.14164 0.0
C1327 C 0.42693 0.67066 0.1528 0.0
C1328 C 0.41169 0.53185 0.10788 0.0
C1329 C 0.43485 0.5276 0.11987 0.0
C1330 C 0.3964 0.54626 0.12329 0.0
C1331 C 0.40378 0.55616 0.15101 0.0
C1332 C 0.42604 0.55063 0.1635 0.0
C1333 C 0.44127 0.53619 0.1482 0.0
C1334 C 0.39173 0.57691 0.16457 0.0
C1335 C 0.40015 0.60522 0.15468 0.0
C1336 C 0.37242 0.56943 0.1867 0.0
C1337 C 0.36243 0.53993 0.19795 0.0
C1338 C 0.37884 0.52919 0.21541 0.0
C1339 C 0.36849 0.50223 0.22795 0.0
C1340 C 0.34163 0.48604 0.22347 0.0
C1341 C 0.32516 0.49661 0.20619 0.0
C1342 C 0.33547 0.52347 0.19347 0.0
H1343 H 0.33361 0.46526 0.23332 0.0
H1344 H 0.42356 0.73281 0.12344 0.0
H1345 H 0.62905 0.317 0.22017 0.0
H1346 H 0.60993 0.33878 0.18272 0.0
H1347 H 0.65758 0.4231 0.21096 0.0
H1348 H 0.67635 0.40123 0.24915 0.0
H1349 H 0.6079 0.42346 0.19876 0.0
H1350 H 0.67472 0.39181 0.15018 0.0
H1351 H 0.69969 0.35812 0.13557 0.0
H1352 H 0.62789 0.30199 0.09784 0.0
H1353 H 0.60236 0.33516 0.11257 0.0
H1354 H 0.57535 0.48689 0.07389 0.0
H1355 H 0.60284 0.47036 0.10751 0.0
H1356 H 0.55092 0.38341 0.09751 0.0
H1357 H 0.52299 0.39978 0.06409 0.0
H1358 H 0.60714 0.38856 0.09924 0.0
H1359 H 0.54058 0.4217 0.15006 0.0
H1360 H 0.51741 0.45714 0.16418 0.0
H1361 H 0.59154 0.51284 0.1978 0.0
H1362 H 0.61539 0.47818 0.18297 0.0
C1363 C 0.6355 0.34019 0.21838 0.0
C1364 C 0.65428 0.35738 0.23746 0.0
C1365 C 0.62466 0.35263 0.19685 0.0
C1366 C 0.63267 0.3826 0.19359 0.0
C1367 C 0.6512 0.39993 0.21292 0.0
C1368 C 0.66196 0.38743 0.23469 0.0
C1369 C 0.62123 0.39552 0.1702 0.0
C1370 C 0.60821 0.41623 0.17692 0.0
C1371 C 0.62131 0.38589 0.14168 0.0
C1372 C 0.63658 0.36589 0.13268 0.0
C1373 C 0.6642 0.37219 0.13894 0.0
C1374 C 0.67846 0.3532 0.13061 0.0
C1375 C 0.66537 0.32791 0.11583 0.0
C1376 C 0.638 0.32158 0.1093 0.0
C1377 C 0.62363 0.34049 0.11761 0.0
C1378 C 0.57004 0.46414 0.07833 0.0
C1379 C 0.54688 0.44464 0.0663 0.0
C1380 C 0.58571 0.45478 0.09773 0.0
C1381 C 0.57873 0.42572 0.10525 0.0
C1382 C 0.5566 0.40595 0.09205 0.0
C1383 C 0.54067 0.41534 0.07295 0.0
C1384 C 0.59355 0.41609 0.12794 0.0
C1385 C 0.60716 0.396 0.12105 0.0
C1386 C 0.59428 0.42657 0.15621 0.0
C1387 C 0.57989 0.44748 0.16501 0.0
C1388 C 0.55205 0.44168 0.16008 0.0
C1389 C 0.53877 0.46163 0.16825 0.0
C1390 C 0.55301 0.48727 0.18179 0.0
C1391 C 0.58055 0.493 0.18722 0.0
C1392 C 0.59398 0.47326 0.17885 0.0
H1393 H 0.5427 0.50269 0.18811 0.0
H1394 H 0.67645 0.31323 0.1094 0.0
loop_
_geom_bond_atom_site_label_1
_geom_bond_atom_site_label_2
_geom_bond_distance
_geom_bond_site_symmetry_2
_ccdc_geom_bond_type
H0 C5 0.930 . S
H1 C8 0.930 . S
H2 C10 0.930 . S
H3 C4 1.016 . S
C4 H3 1.016 . S
C4 N11 1.286 . S
C5 H0 0.930 . S
C5 C6 1.397 . S
C5 C7 1.361 . S
C6 C5 1.397 . S
C6 C10 1.390 . S
C7 C5 1.361 . S
C7 C8 1.393 . S
C7 N11 1.413 . S
C8 H1 0.930 . S
C8 C7 1.393 . S
C8 C9 1.399 . S
C9 C8 1.399 . S
C9 C10 1.381 . S
C10 H2 0.930 . S
C10 C6 1.390 . S
C10 C9 1.381 . S
N11 C4 1.286 . S
N11 C7 1.413 . S
H12 C17 0.930 . S
H13 C20 0.930 . S
H14 C22 0.930 . S
H15 C16 1.016 . S
C16 H15 1.016 . S
C16 N23 1.286 . S
C17 H12 0.930 . S
C17 C18 1.397 . S
C17 C19 1.361 . S
C18 C17 1.397 . S
C18 C22 1.390 . S
C19 C17 1.361 . S
C19 C20 1.393 . S
C19 N23 1.413 . S
C20 H13 0.930 . S
C20 C19 1.393 . S
C20 C21 1.399 . S
C21 C20 1.399 . S
C21 C22 1.381 . S
C22 H14 0.930 . S
C22 C18 1.390 . S
C22 C21 1.381 . S
N23 C16 1.286 . S
N23 C19 1.413 . S
H24 C29 0.930 . S
H25 C32 0.930 . S
H26 C34 0.930 . S
H27 C28 1.016 . S
C28 H27 1.016 . S
C28 N35 1.286 . S
C29 H24 0.930 . S
C29 C30 1.397 . S
C29 C31 1.361 . S
C30 C29 1.397 . S
C30 C34 1.390 . S
C31 C29 1.361 . S
C31 C32 1.393 . S
C31 N35 1.413 . S
C32 H25 0.930 . S
C32 C31 1.393 . S
C32 C33 1.399 . S
C33 C32 1.399 . S
C33 C34 1.381 . S
C34 H26 0.930 . S
C34 C30 1.390 . S
C34 C33 1.381 . S
N35 C28 1.286 . S
N35 C31 1.413 . S
H36 C41 0.930 . S
H37 C44 0.930 . S
H38 C46 0.930 . S
H39 C40 1.016 . S
C40 H39 1.016 . S
C40 N47 1.286 . S
C41 H36 0.930 . S
C41 C42 1.397 . S
C41 C43 1.361 . S
C42 C41 1.397 . S
C42 C46 1.390 . S
C43 C41 1.361 . S
C43 C44 1.393 . S
C43 N47 1.413 . S
C44 H37 0.930 . S
C44 C43 1.393 . S
C44 C45 1.399 . S
C45 C44 1.399 . S
C45 C46 1.381 . S
C46 H38 0.930 . S
C46 C42 1.390 . S
C46 C45 1.381 . S
N47 C40 1.286 . S
N47 C43 1.413 . S
H48 C53 0.930 . S
H49 C56 0.930 . S
H50 C58 0.930 . S
H51 C52 1.016 . S
C52 H51 1.016 . S
C52 N59 1.286 . S
C53 H48 0.930 . S
C53 C54 1.397 . S
C53 C55 1.361 . S
C54 C53 1.397 . S
C54 C58 1.390 . S
C55 C53 1.361 . S
C55 C56 1.393 . S
C55 N59 1.413 . S
C56 H49 0.930 . S
C56 C55 1.393 . S
C56 C57 1.399 . S
C57 C56 1.399 . S
C57 C58 1.381 . S
C58 H50 0.930 . S
C58 C54 1.390 . S
C58 C57 1.381 . S
N59 C52 1.286 . S
N59 C55 1.413 . S
H60 C65 0.930 . S
H61 C68 0.930 . S
H62 C70 0.930 . S
H63 C64 1.016 . S
C64 H63 1.016 . S
C64 N71 1.286 . S
C65 H60 0.930 . S
C65 C66 1.397 . S
C65 C67 1.361 . S
C66 C65 1.397 . S
C66 C70 1.390 . S
C67 C65 1.361 . S
C67 C68 1.393 . S
C67 N71 1.413 . S
C68 H61 0.930 . S
C68 C67 1.393 . S
C68 C69 1.399 . S
C69 C68 1.399 . S
C69 C70 1.381 . S
C70 H62 0.930 . S
C70 C66 1.390 . S
C70 C69 1.381 . S
N71 C64 1.286 . S
N71 C67 1.413 . S
H72 C77 0.930 . S
H73 C80 0.930 . S
H74 C82 0.930 . S
H75 C76 1.016 . S
C76 H75 1.016 . S
C76 N83 1.286 . S
C77 H72 0.930 . S
C77 C78 1.397 . S
C77 C79 1.361 . S
C78 C77 1.397 . S
C78 C82 1.390 . S
C79 C77 1.361 . S
C79 C80 1.393 . S
C79 N83 1.413 . S
C80 H73 0.930 . S
C80 C79 1.393 . S
C80 C81 1.399 . S
C81 C80 1.399 . S
C81 C82 1.381 . S
C82 H74 0.930 . S
C82 C78 1.390 . S
C82 C81 1.381 . S
N83 C76 1.286 . S
N83 C79 1.413 . S
H84 C89 0.930 . S
H85 C92 0.930 . S
H86 C94 0.930 . S
H87 C88 1.016 . S
C88 H87 1.016 . S
C88 N95 1.286 . S
C89 H84 0.930 . S
C89 C90 1.397 . S
C89 C91 1.361 . S
C90 C89 1.397 . S
C90 C94 1.390 . S
C91 C89 1.361 . S
C91 C92 1.393 . S
C91 N95 1.413 . S
C92 H85 0.930 . S
C92 C91 1.393 . S
C92 C93 1.399 . S
C93 C92 1.399 . S
C93 C94 1.381 . S
C94 H86 0.930 . S
C94 C90 1.390 . S
C94 C93 1.381 . S
N95 C88 1.286 . S
N95 C91 1.413 . S
Co96 O99 2.042 . S
Co96 O106 2.264 . S
Co96 O125 2.286 . S
Co96 O126 2.069 . S
Co96 O128 2.015 . S
Co97 O99 2.122 . S
Co97 O105 2.073 . S
Co97 O106 2.327 . S
Co97 O107 1.976 . S
Co98 O99 2.087 . S
Co98 O101 2.087 1_455 S
Co98 O108 2.111 . S
Co98 O109 2.143 1_455 S
Co98 O113 2.111 1_455 S
Co98 O127 2.143 . S
O99 Co96 2.042 . S
O99 Co97 2.122 . S
O99 Co98 2.087 . S
O99 H100 0.980 . S
H100 O99 0.980 . S
O101 Co98 2.087 1_655 S
O101 Co102 2.042 . S
O101 Co103 2.122 . S
O101 H104 0.980 1_655 S
Co102 O101 2.042 . S
Co102 O110 2.286 . S
Co102 O111 2.069 . S
Co102 O112 2.015 . S
Co102 O115 2.264 . S
Co103 O101 2.122 . S
Co103 O114 1.976 . S
Co103 O115 2.327 . S
Co103 O116 2.073 . S
H104 O101 0.980 1_455 S
O105 Co97 2.073 . S
O105 C120 1.245 . S
O106 Co96 2.264 . S
O106 Co97 2.327 . S
O106 C120 1.257 . S
O107 Co97 1.976 . S
O107 C119 1.251 . S
O108 Co98 2.111 . S
O108 C119 1.274 . S
O109 Co98 2.143 1_655 S
O109 C122 1.246 . S
O110 Co102 2.286 . S
O110 C121 1.259 . S
O111 Co102 2.069 . S
O111 C121 1.289 . S
O112 Co102 2.015 . S
O112 C122 1.257 . S
O113 Co98 2.111 1_655 S
O113 C123 1.274 . S
O114 Co103 1.976 . S
O114 C123 1.251 . S
O115 Co102 2.264 . S
O115 Co103 2.327 . S
O115 C124 1.257 . S
O116 Co103 2.073 . S
O116 C124 1.245 . S
C117 O125 1.259 . S
C117 O126 1.289 . S
C118 O127 1.246 . S
C118 O128 1.257 . S
C119 O107 1.251 . S
C119 O108 1.274 . S
C120 O105 1.245 . S
C120 O106 1.257 . S
C121 O110 1.259 . S
C121 O111 1.289 . S
C122 O109 1.246 . S
C122 O112 1.257 . S
C123 O113 1.274 . S
C123 O114 1.251 . S
C124 O115 1.257 . S
C124 O116 1.245 . S
O125 Co96 2.286 . S
O125 C117 1.259 . S
O126 Co96 2.069 . S
O126 C117 1.289 . S
O127 Co98 2.143 . S
O127 C118 1.246 . S
O128 Co96 2.015 . S
O128 C118 1.257 . S
Co129 O132 2.042 . S
Co129 O139 2.264 . S
Co129 O158 2.286 . S
Co129 O159 2.069 . S
Co129 O161 2.015 . S
Co130 O132 2.122 . S
Co130 O138 2.073 . S
Co130 O139 2.327 . S
Co130 O140 1.976 . S
Co131 O132 2.087 1_545 S
Co131 O134 2.087 . S
Co131 O141 2.111 1_545 S
Co131 O142 2.143 . S
Co131 O146 2.111 . S
Co131 O160 2.143 1_545 S
O132 Co129 2.042 . S
O132 Co130 2.122 . S
O132 Co131 2.087 1_565 S
O132 H133 0.980 . S
H133 O132 0.980 . S
O134 Co131 2.087 . S
O134 Co135 2.042 . S
O134 Co136 2.122 . S
O134 H137 0.980 . S
Co135 O134 2.042 . S
Co135 O143 2.286 . S
Co135 O144 2.069 . S
Co135 O145 2.015 . S
Co135 O148 2.264 . S
Co136 O134 2.122 . S
Co136 O147 1.976 . S
Co136 O148 2.327 . S
Co136 O149 2.073 . S
H137 O134 0.980 . S
O138 Co130 2.073 . S
O138 C153 1.245 . S
O139 Co129 2.264 . S
O139 Co130 2.327 . S
O139 C153 1.257 . S
O140 Co130 1.976 . S
O140 C152 1.251 . S
O141 Co131 2.111 1_565 S
O141 C152 1.274 . S
O142 Co131 2.143 . S
O142 C155 1.246 . S
O143 Co135 2.286 . S
O143 C154 1.259 . S
O144 Co135 2.069 . S
O144 C154 1.289 . S
O145 Co135 2.015 . S
O145 C155 1.257 . S
O146 Co131 2.111 . S
O146 C156 1.274 . S
O147 Co136 1.976 . S
O147 C156 1.251 . S
O148 Co135 2.264 . S
O148 Co136 2.327 . S
O148 C157 1.257 . S
O149 Co136 2.073 . S
O149 C157 1.245 . S
C150 O158 1.259 . S
C150 O159 1.289 . S
C151 O160 1.246 . S
C151 O161 1.257 . S
C152 O140 1.251 . S
C152 O141 1.274 . S
C153 O138 1.245 . S
C153 O139 1.257 . S
C154 O143 1.259 . S
C154 O144 1.289 . S
C155 O142 1.246 . S
C155 O145 1.257 . S
C156 O146 1.274 . S
C156 O147 1.251 . S
C157 O148 1.257 . S
C157 O149 1.245 . S
O158 Co129 2.286 . S
O158 C150 1.259 . S
O159 Co129 2.069 . S
O159 C150 1.289 . S
O160 Co131 2.143 1_565 S
O160 C151 1.246 . S
O161 Co129 2.015 . S
O161 C151 1.257 . S
Co162 O165 2.042 . S
Co162 O172 2.264 . S
Co162 O191 2.286 . S
Co162 O192 2.069 . S
Co162 O194 2.015 . S
Co163 O165 2.122 . S
Co163 O171 2.073 . S
Co163 O172 2.327 . S
Co163 O173 1.976 . S
Co164 O165 2.087 . S
Co164 O167 2.087 1_554 S
Co164 O174 2.111 . S
Co164 O175 2.143 1_554 S
Co164 O179 2.111 1_554 S
Co164 O193 2.143 . S
O165 Co162 2.042 . S
O165 Co163 2.122 . S
O165 Co164 2.087 . S
O165 H166 0.980 . S
H166 O165 0.980 . S
O167 Co164 2.087 1_556 S
O167 Co168 2.042 . S
O167 Co169 2.122 . S
O167 H170 0.980 . S
Co168 O167 2.042 . S
Co168 O176 2.286 . S
Co168 O177 2.069 . S
Co168 O178 2.015 . S
Co168 O181 2.264 . S
Co169 O167 2.122 . S
Co169 O180 1.976 . S
Co169 O181 2.327 . S
Co169 O182 2.073 . S
H170 O167 0.980 . S
O171 Co163 2.073 . S
O171 C186 1.245 . S
O172 Co162 2.264 . S
O172 Co163 2.327 . S
O172 C186 1.257 . S
O173 Co163 1.976 . S
O173 C185 1.251 . S
O174 Co164 2.111 . S
O174 C185 1.274 . S
O175 Co164 2.143 1_556 S
O175 C188 1.246 . S
O176 Co168 2.286 . S
O176 C187 1.259 . S
O177 Co168 2.069 . S
O177 C187 1.289 . S
O178 Co168 2.015 . S
O178 C188 1.257 . S
O179 Co164 2.111 1_556 S
O179 C189 1.274 . S
O180 Co169 1.976 . S
O180 C189 1.251 . S
O181 Co168 2.264 . S
O181 Co169 2.327 . S
O181 C190 1.257 . S
O182 Co169 2.073 . S
O182 C190 1.245 . S
C183 O191 1.259 . S
C183 O192 1.289 . S
C184 O193 1.246 . S
C184 O194 1.257 . S
C185 O173 1.251 . S
C185 O174 1.274 . S
C186 O171 1.245 . S
C186 O172 1.257 . S
C187 O176 1.259 . S
C187 O177 1.289 . S
C188 O175 1.246 . S
C188 O178 1.257 . S
C189 O179 1.274 . S
C189 O180 1.251 . S
C190 O181 1.257 . S
C190 O182 1.245 . S
O191 Co162 2.286 . S
O191 C183 1.259 . S
O192 Co162 2.069 . S
O192 C183 1.289 . S
O193 Co164 2.143 . S
O193 C184 1.246 . S
O194 Co162 2.015 . S
O194 C184 1.257 . S
H195 C213 0.951 . S
H196 C215 0.951 . S
H197 C217 0.950 . S
H198 C218 0.950 . S
H199 C220 0.950 . S
H200 C223 0.950 . S
H201 C224 0.950 . S
H202 C226 0.950 . S
H203 C227 0.950 . S
H204 C228 0.951 . S
H205 C230 0.951 . S
H206 C232 0.950 . S
H207 C233 0.950 . S
H208 C235 0.950 . S
H209 C238 0.950 . S
H210 C239 0.950 . S
H211 C241 0.950 . S
H212 C242 0.950 . S
C213 H195 0.951 . S
C213 C214 1.366 . S
C213 C215 1.388 . S
C214 C213 1.366 . S
C214 C218 1.385 . S
C215 H196 0.951 . S
C215 C213 1.388 . S
C215 C216 1.366 . S
C216 C215 1.366 . S
C216 C217 1.414 . S
C216 C219 1.499 . S
C217 H197 0.950 . S
C217 C216 1.414 . S
C217 C218 1.374 . S
C218 H198 0.950 . S
C218 C214 1.385 . S
C218 C217 1.374 . S
C219 C216 1.499 . S
C219 C220 1.373 . S
C219 C221 1.389 . S
C220 H199 0.950 . S
C220 C219 1.373 . S
C220 C236 1.377 . S
C221 C219 1.389 . S
C221 C222 1.524 . S
C221 C235 1.377 . S
C222 C221 1.524 . S
C222 C223 1.397 . S
C222 C227 1.363 . S
C223 H200 0.950 . S
C223 C222 1.397 . S
C223 C224 1.334 . S
C224 H201 0.950 . S
C224 C223 1.334 . S
C224 C225 1.287 . S
C225 C224 1.287 . S
C225 C226 1.524 . S
C225 H244 0.913 . S
C226 H202 0.950 . S
C226 C225 1.524 . S
C226 C227 1.415 . S
C227 H203 0.950 . S
C227 C222 1.363 . S
C227 C226 1.415 . S
C228 H204 0.951 . S
C228 C229 1.366 . S
C228 C230 1.388 . S
C229 C228 1.366 . S
C229 C233 1.385 . S
C230 H205 0.951 . S
C230 C228 1.388 . S
C230 C231 1.366 . S
C231 C230 1.366 . S
C231 C232 1.414 . S
C231 C234 1.499 . S
C232 H206 0.950 . S
C232 C231 1.414 . S
C232 C233 1.374 . S
C233 H207 0.950 . S
C233 C229 1.385 . S
C233 C232 1.374 . S
C234 C231 1.499 . S
C234 C235 1.373 . S
C234 C236 1.389 . S
C235 H208 0.950 . S
C235 C221 1.377 . S
C235 C234 1.373 . S
C236 C220 1.377 . S
C236 C234 1.389 . S
C236 C237 1.524 . S
C237 C236 1.524 . S
C237 C238 1.397 . S
C237 C242 1.363 . S
C238 H209 0.950 . S
C238 C237 1.397 . S
C238 C239 1.334 . S
C239 H210 0.950 . S
C239 C238 1.334 . S
C239 C240 1.287 . S
C240 C239 1.287 . S
C240 C241 1.524 . S
C240 H243 0.999 . S
C241 H211 0.950 . S
C241 C240 1.524 . S
C241 C242 1.415 . S
C242 H212 0.950 . S
C242 C237 1.363 . S
C242 C241 1.415 . S
H243 C240 0.999 . S
H244 C225 0.913 . S
H245 C263 0.951 . S
H246 C265 0.951 . S
H247 C267 0.950 . S
H248 C268 0.950 . S
H249 C270 0.950 . S
H250 C273 0.950 . S
H251 C274 0.950 . S
H252 C276 0.950 . S
H253 C277 0.950 . S
H254 C278 0.951 . S
H255 C280 0.951 . S
H256 C282 0.950 . S
H257 C283 0.950 . S
H258 C285 0.950 . S
H259 C288 0.950 . S
H260 C289 0.950 . S
H261 C291 0.950 . S
H262 C292 0.950 . S
C263 H245 0.951 . S
C263 C264 1.366 . S
C263 C265 1.388 . S
C264 C263 1.366 . S
C264 C268 1.385 . S
C265 H246 0.951 . S
C265 C263 1.388 . S
C265 C266 1.366 . S
C266 C265 1.366 . S
C266 C267 1.414 . S
C266 C269 1.499 . S
C267 H247 0.950 . S
C267 C266 1.414 . S
C267 C268 1.374 . S
C268 H248 0.950 . S
C268 C264 1.385 . S
C268 C267 1.374 . S
C269 C266 1.499 . S
C269 C270 1.373 . S
C269 C271 1.389 . S
C270 H249 0.950 . S
C270 C269 1.373 . S
C270 C286 1.377 . S
C271 C269 1.389 . S
C271 C272 1.524 . S
C271 C285 1.377 . S
C272 C271 1.524 . S
C272 C273 1.397 . S
C272 C277 1.363 . S
C273 H250 0.950 . S
C273 C272 1.397 . S
C273 C274 1.334 . S
C274 H251 0.950 . S
C274 C273 1.334 . S
C274 C275 1.287 . S
C275 C274 1.287 . S
C275 C276 1.524 . S
C275 H294 0.913 . S
C276 H252 0.950 . S
C276 C275 1.524 . S
C276 C277 1.415 . S
C277 H253 0.950 . S
C277 C272 1.363 . S
C277 C276 1.415 . S
C278 H254 0.951 . S
C278 C279 1.366 . S
C278 C280 1.388 . S
C279 C278 1.366 . S
C279 C283 1.385 . S
C280 H255 0.951 . S
C280 C278 1.388 . S
C280 C281 1.366 . S
C281 C280 1.366 . S
C281 C282 1.414 . S
C281 C284 1.499 . S
C282 H256 0.950 . S
C282 C281 1.414 . S
C282 C283 1.374 . S
C283 H257 0.950 . S
C283 C279 1.385 . S
C283 C282 1.374 . S
C284 C281 1.499 . S
C284 C285 1.373 . S
C284 C286 1.389 . S
C285 H258 0.950 . S
C285 C271 1.377 . S
C285 C284 1.373 . S
C286 C270 1.377 . S
C286 C284 1.389 . S
C286 C287 1.524 . S
C287 C286 1.524 . S
C287 C288 1.397 . S
C287 C292 1.363 . S
C288 H259 0.950 . S
C288 C287 1.397 . S
C288 C289 1.334 . S
C289 H260 0.950 . S
C289 C288 1.334 . S
C289 C290 1.287 . S
C290 C289 1.287 . S
C290 C291 1.524 . S
C290 H293 0.999 . S
C291 H261 0.950 . S
C291 C290 1.524 . S
C291 C292 1.415 . S
C292 H262 0.950 . S
C292 C287 1.363 . S
C292 C291 1.415 . S
H293 C290 0.999 . S
H294 C275 0.913 . S
H295 C313 0.951 . S
H296 C315 0.951 . S
H297 C317 0.950 . S
H298 C318 0.950 . S
H299 C320 0.950 . S
H300 C323 0.950 . S
H301 C324 0.950 . S
H302 C326 0.950 . S
H303 C327 0.950 . S
H304 C328 0.951 . S
H305 C330 0.951 . S
H306 C332 0.950 . S
H307 C333 0.950 . S
H308 C335 0.950 . S
H309 C338 0.950 . S
H310 C339 0.950 . S
H311 C341 0.950 . S
H312 C342 0.950 . S
C313 H295 0.951 . S
C313 C314 1.366 . S
C313 C315 1.388 . S
C314 C313 1.366 . S
C314 C318 1.385 . S
C315 H296 0.951 . S
C315 C313 1.388 . S
C315 C316 1.366 . S
C316 C315 1.366 . S
C316 C317 1.414 . S
C316 C319 1.499 . S
C317 H297 0.950 . S
C317 C316 1.414 . S
C317 C318 1.374 . S
C318 H298 0.950 . S
C318 C314 1.385 . S
C318 C317 1.374 . S
C319 C316 1.499 . S
C319 C320 1.373 . S
C319 C321 1.389 . S
C320 H299 0.950 . S
C320 C319 1.373 . S
C320 C336 1.377 . S
C321 C319 1.389 . S
C321 C322 1.524 . S
C321 C335 1.377 . S
C322 C321 1.524 . S
C322 C323 1.397 . S
C322 C327 1.363 . S
C323 H300 0.950 . S
C323 C322 1.397 . S
C323 C324 1.334 . S
C324 H301 0.950 . S
C324 C323 1.334 . S
C324 C325 1.287 . S
C325 C324 1.287 . S
C325 C326 1.524 . S
C325 H344 0.913 . S
C326 H302 0.950 . S
C326 C325 1.524 . S
C326 C327 1.415 . S
C327 H303 0.950 . S
C327 C322 1.363 . S
C327 C326 1.415 . S
C328 H304 0.951 . S
C328 C329 1.366 . S
C328 C330 1.388 . S
C329 C328 1.366 . S
C329 C333 1.385 . S
C330 H305 0.951 . S
C330 C328 1.388 . S
C330 C331 1.366 . S
C331 C330 1.366 . S
C331 C332 1.414 . S
C331 C334 1.499 . S
C332 H306 0.950 . S
C332 C331 1.414 . S
C332 C333 1.374 . S
C333 H307 0.950 . S
C333 C329 1.385 . S
C333 C332 1.374 . S
C334 C331 1.499 . S
C334 C335 1.373 . S
C334 C336 1.389 . S
C335 H308 0.950 . S
C335 C321 1.377 . S
C335 C334 1.373 . S
C336 C320 1.377 . S
C336 C334 1.389 . S
C336 C337 1.524 . S
C337 C336 1.524 . S
C337 C338 1.397 . S
C337 C342 1.363 . S
C338 H309 0.950 . S
C338 C337 1.397 . S
C338 C339 1.334 . S
C339 H310 0.950 . S
C339 C338 1.334 . S
C339 C340 1.287 . S
C340 C339 1.287 . S
C340 C341 1.524 . S
C340 H343 0.999 . S
C341 H311 0.950 . S
C341 C340 1.524 . S
C341 C342 1.415 . S
C342 H312 0.950 . S
C342 C337 1.363 . S
C342 C341 1.415 . S
H343 C340 0.999 . S
H344 C325 0.913 . S
H345 C363 0.951 . S
H346 C365 0.951 . S
H347 C367 0.950 . S
H348 C368 0.950 . S
H349 C370 0.950 . S
H350 C373 0.950 . S
H351 C374 0.950 . S
H352 C376 0.950 . S
H353 C377 0.950 . S
H354 C378 0.951 . S
H355 C380 0.951 . S
H356 C382 0.950 . S
H357 C383 0.950 . S
H358 C385 0.950 . S
H359 C388 0.950 . S
H360 C389 0.950 . S
H361 C391 0.950 . S
H362 C392 0.950 . S
C363 H345 0.951 . S
C363 C364 1.366 . S
C363 C365 1.388 . S
C364 C363 1.366 . S
C364 C368 1.385 . S
C365 H346 0.951 . S
C365 C363 1.388 . S
C365 C366 1.366 . S
C366 C365 1.366 . S
C366 C367 1.414 . S
C366 C369 1.499 . S
C367 H347 0.950 . S
C367 C366 1.414 . S
C367 C368 1.374 . S
C368 H348 0.950 . S
C368 C364 1.385 . S
C368 C367 1.374 . S
C369 C366 1.499 . S
C369 C370 1.373 . S
C369 C371 1.389 . S
C370 H349 0.950 . S
C370 C369 1.373 . S
C370 C386 1.377 . S
C371 C369 1.389 . S
C371 C372 1.524 . S
C371 C385 1.377 . S
C372 C371 1.524 . S
C372 C373 1.397 . S
C372 C377 1.363 . S
C373 H350 0.950 . S
C373 C372 1.397 . S
C373 C374 1.334 . S
C374 H351 0.950 . S
C374 C373 1.334 . S
C374 C375 1.287 . S
C375 C374 1.287 . S
C375 C376 1.524 . S
C375 H394 0.913 . S
C376 H352 0.950 . S
C376 C375 1.524 . S
C376 C377 1.415 . S
C377 H353 0.950 . S
C377 C372 1.363 . S
C377 C376 1.415 . S
C378 H354 0.951 . S
C378 C379 1.366 . S
C378 C380 1.388 . S
C379 C378 1.366 . S
C379 C383 1.385 . S
C380 H355 0.951 . S
C380 C378 1.388 . S
C380 C381 1.366 . S
C381 C380 1.366 . S
C381 C382 1.414 . S
C381 C384 1.499 . S
C382 H356 0.950 . S
C382 C381 1.414 . S
C382 C383 1.374 . S
C383 H357 0.950 . S
C383 C379 1.385 . S
C383 C382 1.374 . S
C384 C381 1.499 . S
C384 C385 1.373 . S
C384 C386 1.389 . S
C385 H358 0.950 . S
C385 C371 1.377 . S
C385 C384 1.373 . S
C386 C370 1.377 . S
C386 C384 1.389 . S
C386 C387 1.524 . S
C387 C386 1.524 . S
C387 C388 1.397 . S
C387 C392 1.363 . S
C388 H359 0.950 . S
C388 C387 1.397 . S
C388 C389 1.334 . S
C389 H360 0.950 . S
C389 C388 1.334 . S
C389 C390 1.287 . S
C390 C389 1.287 . S
C390 C391 1.524 . S
C390 H393 0.999 . S
C391 H361 0.950 . S
C391 C390 1.524 . S
C391 C392 1.415 . S
C392 H362 0.950 . S
C392 C387 1.363 . S
C392 C391 1.415 . S
H393 C390 0.999 . S
H394 C375 0.913 . S
H395 C413 0.951 . S
H396 C415 0.951 . S
H397 C417 0.950 . S
H398 C418 0.950 . S
H399 C420 0.950 . S
H400 C423 0.950 . S
H401 C424 0.950 . S
H402 C426 0.950 . S
H403 C427 0.950 . S
H404 C428 0.951 . S
H405 C430 0.951 . S
H406 C432 0.950 . S
H407 C433 0.950 . S
H408 C435 0.950 . S
H409 C438 0.950 . S
H410 C439 0.950 . S
H411 C441 0.950 . S
H412 C442 0.950 . S
C413 H395 0.951 . S
C413 C414 1.366 . S
C413 C415 1.388 . S
C414 C413 1.366 . S
C414 C418 1.385 . S
C415 H396 0.951 . S
C415 C413 1.388 . S
C415 C416 1.366 . S
C416 C415 1.366 . S
C416 C417 1.414 . S
C416 C419 1.499 . S
C417 H397 0.950 . S
C417 C416 1.414 . S
C417 C418 1.374 . S
C418 H398 0.950 . S
C418 C414 1.385 . S
C418 C417 1.374 . S
C419 C416 1.499 . S
C419 C420 1.373 . S
C419 C421 1.389 . S
C420 H399 0.950 . S
C420 C419 1.373 . S
C420 C436 1.377 . S
C421 C419 1.389 . S
C421 C422 1.524 . S
C421 C435 1.377 . S
C422 C421 1.524 . S
C422 C423 1.397 . S
C422 C427 1.363 . S
C423 H400 0.950 . S
C423 C422 1.397 . S
C423 C424 1.334 . S
C424 H401 0.950 . S
C424 C423 1.334 . S
C424 C425 1.287 . S
C425 C424 1.287 . S
C425 C426 1.524 . S
C425 H444 0.913 . S
C426 H402 0.950 . S
C426 C425 1.524 . S
C426 C427 1.415 . S
C427 H403 0.950 . S
C427 C422 1.363 . S
C427 C426 1.415 . S
C428 H404 0.951 . S
C428 C429 1.366 . S
C428 C430 1.388 . S
C429 C428 1.366 . S
C429 C433 1.385 . S
C430 H405 0.951 . S
C430 C428 1.388 . S
C430 C431 1.366 . S
C431 C430 1.366 . S
C431 C432 1.414 . S
C431 C434 1.499 . S
C432 H406 0.950 . S
C432 C431 1.414 . S
C432 C433 1.374 . S
C433 H407 0.950 . S
C433 C429 1.385 . S
C433 C432 1.374 . S
C434 C431 1.499 . S
C434 C435 1.373 . S
C434 C436 1.389 . S
C435 H408 0.950 . S
C435 C421 1.377 . S
C435 C434 1.373 . S
C436 C420 1.377 . S
C436 C434 1.389 . S
C436 C437 1.524 . S
C437 C436 1.524 . S
C437 C438 1.397 . S
C437 C442 1.363 . S
C438 H409 0.950 . S
C438 C437 1.397 . S
C438 C439 1.334 . S
C439 H410 0.950 . S
C439 C438 1.334 . S
C439 C440 1.287 . S
C440 C439 1.287 . S
C440 C441 1.524 . S
C440 H443 0.999 . S
C441 H411 0.950 . S
C441 C440 1.524 . S
C441 C442 1.415 . S
C442 H412 0.950 . S
C442 C437 1.363 . S
C442 C441 1.415 . S
H443 C440 0.999 . S
H444 C425 0.913 . S
H445 C463 0.951 . S
H446 C465 0.951 . S
H447 C467 0.950 . S
H448 C468 0.950 . S
H449 C470 0.950 . S
H450 C473 0.950 . S
H451 C474 0.950 . S
H452 C476 0.950 . S
H453 C477 0.950 . S
H454 C478 0.951 . S
H455 C480 0.951 . S
H456 C482 0.950 . S
H457 C483 0.950 . S
H458 C485 0.950 . S
H459 C488 0.950 . S
H460 C489 0.950 . S
H461 C491 0.950 . S
H462 C492 0.950 . S
C463 H445 0.951 . S
C463 C464 1.366 . S
C463 C465 1.388 . S
C464 C463 1.366 . S
C464 C468 1.385 . S
C465 H446 0.951 . S
C465 C463 1.388 . S
C465 C466 1.366 . S
C466 C465 1.366 . S
C466 C467 1.414 . S
C466 C469 1.499 . S
C467 H447 0.950 . S
C467 C466 1.414 . S
C467 C468 1.374 . S
C468 H448 0.950 . S
C468 C464 1.385 . S
C468 C467 1.374 . S
C469 C466 1.499 . S
C469 C470 1.373 . S
C469 C471 1.389 . S
C470 H449 0.950 . S
C470 C469 1.373 . S
C470 C486 1.377 . S
C471 C469 1.389 . S
C471 C472 1.524 . S
C471 C485 1.377 . S
C472 C471 1.524 . S
C472 C473 1.397 . S
C472 C477 1.363 . S
C473 H450 0.950 . S
C473 C472 1.397 . S
C473 C474 1.334 . S
C474 H451 0.950 . S
C474 C473 1.334 . S
C474 C475 1.287 . S
C475 C474 1.287 . S
C475 C476 1.524 . S
C475 H494 0.913 . S
C476 H452 0.950 . S
C476 C475 1.524 . S
C476 C477 1.415 . S
C477 H453 0.950 . S
C477 C472 1.363 . S
C477 C476 1.415 . S
C478 H454 0.951 . S
C478 C479 1.366 . S
C478 C480 1.388 . S
C479 C478 1.366 . S
C479 C483 1.385 . S
C480 H455 0.951 . S
C480 C478 1.388 . S
C480 C481 1.366 . S
C481 C480 1.366 . S
C481 C482 1.414 . S
C481 C484 1.499 . S
C482 H456 0.950 . S
C482 C481 1.414 . S
C482 C483 1.374 . S
C483 H457 0.950 . S
C483 C479 1.385 . S
C483 C482 1.374 . S
C484 C481 1.499 . S
C484 C485 1.373 . S
C484 C486 1.389 . S
C485 H458 0.950 . S
C485 C471 1.377 . S
C485 C484 1.373 . S
C486 C470 1.377 . S
C486 C484 1.389 . S
C486 C487 1.524 . S
C487 C486 1.524 . S
C487 C488 1.397 . S
C487 C492 1.363 . S
C488 H459 0.950 . S
C488 C487 1.397 . S
C488 C489 1.334 . S
C489 H460 0.950 . S
C489 C488 1.334 . S
C489 C490 1.287 . S
C490 C489 1.287 . S
C490 C491 1.524 . S
C490 H493 0.999 . S
C491 H461 0.950 . S
C491 C490 1.524 . S
C491 C492 1.415 . S
C492 H462 0.950 . S
C492 C487 1.363 . S
C492 C491 1.415 . S
H493 C490 0.999 . S
H494 C475 0.913 . S
H495 C513 0.951 . S
H496 C515 0.951 . S
H497 C517 0.950 . S
H498 C518 0.950 . S
H499 C520 0.950 . S
H500 C523 0.950 . S
H501 C524 0.950 . S
H502 C526 0.950 . S
H503 C527 0.950 . S
H504 C528 0.951 . S
H505 C530 0.951 . S
H506 C532 0.950 . S
H507 C533 0.950 . S
H508 C535 0.950 . S
H509 C538 0.950 . S
H510 C539 0.950 . S
H511 C541 0.950 . S
H512 C542 0.950 . S
C513 H495 0.951 . S
C513 C514 1.366 . S
C513 C515 1.388 . S
C514 C513 1.366 . S
C514 C518 1.385 . S
C515 H496 0.951 . S
C515 C513 1.388 . S
C515 C516 1.366 . S
C516 C515 1.366 . S
C516 C517 1.414 . S
C516 C519 1.499 . S
C517 H497 0.950 . S
C517 C516 1.414 . S
C517 C518 1.374 . S
C518 H498 0.950 . S
C518 C514 1.385 . S
C518 C517 1.374 . S
C519 C516 1.499 . S
C519 C520 1.373 . S
C519 C521 1.389 . S
C520 H499 0.950 . S
C520 C519 1.373 . S
C520 C536 1.377 . S
C521 C519 1.389 . S
C521 C522 1.524 . S
C521 C535 1.377 . S
C522 C521 1.524 . S
C522 C523 1.397 . S
C522 C527 1.363 . S
C523 H500 0.950 . S
C523 C522 1.397 . S
C523 C524 1.334 . S
C524 H501 0.950 . S
C524 C523 1.334 . S
C524 C525 1.287 . S
C525 C524 1.287 . S
C525 C526 1.524 . S
C525 H544 0.913 . S
C526 H502 0.950 . S
C526 C525 1.524 . S
C526 C527 1.415 . S
C527 H503 0.950 . S
C527 C522 1.363 . S
C527 C526 1.415 . S
C528 H504 0.951 . S
C528 C529 1.366 . S
C528 C530 1.388 . S
C529 C528 1.366 . S
C529 C533 1.385 . S
C530 H505 0.951 . S
C530 C528 1.388 . S
C530 C531 1.366 . S
C531 C530 1.366 . S
C531 C532 1.414 . S
C531 C534 1.499 . S
C532 H506 0.950 . S
C532 C531 1.414 . S
C532 C533 1.374 . S
C533 H507 0.950 . S
C533 C529 1.385 . S
C533 C532 1.374 . S
C534 C531 1.499 . S
C534 C535 1.373 . S
C534 C536 1.389 . S
C535 H508 0.950 . S
C535 C521 1.377 . S
C535 C534 1.373 . S
C536 C520 1.377 . S
C536 C534 1.389 . S
C536 C537 1.524 . S
C537 C536 1.524 . S
C537 C538 1.397 . S
C537 C542 1.363 . S
C538 H509 0.950 . S
C538 C537 1.397 . S
C538 C539 1.334 . S
C539 H510 0.950 . S
C539 C538 1.334 . S
C539 C540 1.287 . S
C540 C539 1.287 . S
C540 C541 1.524 . S
C540 H543 0.999 . S
C541 H511 0.950 . S
C541 C540 1.524 . S
C541 C542 1.415 . S
C542 H512 0.950 . S
C542 C537 1.363 . S
C542 C541 1.415 . S
H543 C540 0.999 . S
H544 C525 0.913 . S
H545 C563 0.951 . S
H546 C565 0.951 . S
H547 C567 0.950 . S
H548 C568 0.950 . S
H549 C570 0.950 . S
H550 C573 0.950 . S
H551 C574 0.950 . S
H552 C576 0.950 . S
H553 C577 0.950 . S
H554 C578 0.951 . S
H555 C580 0.951 . S
H556 C582 0.950 . S
H557 C583 0.950 . S
H558 C585 0.950 . S
H559 C588 0.950 . S
H560 C589 0.950 . S
H561 C591 0.950 . S
H562 C592 0.950 . S
C563 H545 0.951 . S
C563 C564 1.366 . S
C563 C565 1.388 . S
C564 C563 1.366 . S
C564 C568 1.385 . S
C565 H546 0.951 . S
C565 C563 1.388 . S
C565 C566 1.366 . S
C566 C565 1.366 . S
C566 C567 1.414 . S
C566 C569 1.499 . S
C567 H547 0.950 . S
C567 C566 1.414 . S
C567 C568 1.374 . S
C568 H548 0.950 . S
C568 C564 1.385 . S
C568 C567 1.374 . S
C569 C566 1.499 . S
C569 C570 1.373 . S
C569 C571 1.389 . S
C570 H549 0.950 . S
C570 C569 1.373 . S
C570 C586 1.377 . S
C571 C569 1.389 . S
C571 C572 1.524 . S
C571 C585 1.377 . S
C572 C571 1.524 . S
C572 C573 1.397 . S
C572 C577 1.363 . S
C573 H550 0.950 . S
C573 C572 1.397 . S
C573 C574 1.334 . S
C574 H551 0.950 . S
C574 C573 1.334 . S
C574 C575 1.287 . S
C575 C574 1.287 . S
C575 C576 1.524 . S
C575 H594 0.913 . S
C576 H552 0.950 . S
C576 C575 1.524 . S
C576 C577 1.415 . S
C577 H553 0.950 . S
C577 C572 1.363 . S
C577 C576 1.415 . S
C578 H554 0.951 . S
C578 C579 1.366 . S
C578 C580 1.388 . S
C579 C578 1.366 . S
C579 C583 1.385 . S
C580 H555 0.951 . S
C580 C578 1.388 . S
C580 C581 1.366 . S
C581 C580 1.366 . S
C581 C582 1.414 . S
C581 C584 1.499 . S
C582 H556 0.950 . S
C582 C581 1.414 . S
C582 C583 1.374 . S
C583 H557 0.950 . S
C583 C579 1.385 . S
C583 C582 1.374 . S
C584 C581 1.499 . S
C584 C585 1.373 . S
C584 C586 1.389 . S
C585 H558 0.950 . S
C585 C571 1.377 . S
C585 C584 1.373 . S
C586 C570 1.377 . S
C586 C584 1.389 . S
C586 C587 1.524 . S
C587 C586 1.524 . S
C587 C588 1.397 . S
C587 C592 1.363 . S
C588 H559 0.950 . S
C588 C587 1.397 . S
C588 C589 1.334 . S
C589 H560 0.950 . S
C589 C588 1.334 . S
C589 C590 1.287 . S
C590 C589 1.287 . S
C590 C591 1.524 . S
C590 H593 0.999 . S
C591 H561 0.950 . S
C591 C590 1.524 . S
C591 C592 1.415 . S
C592 H562 0.950 . S
C592 C587 1.363 . S
C592 C591 1.415 . S
H593 C590 0.999 . S
H594 C575 0.913 . S
H595 C613 0.951 . S
H596 C615 0.951 . S
H597 C617 0.950 . S
H598 C618 0.950 . S
H599 C620 0.950 . S
H600 C623 0.950 . S
H601 C624 0.950 . S
H602 C626 0.950 . S
H603 C627 0.950 . S
H604 C628 0.951 . S
H605 C630 0.951 . S
H606 C632 0.950 . S
H607 C633 0.950 . S
H608 C635 0.950 . S
H609 C638 0.950 . S
H610 C639 0.950 . S
H611 C641 0.950 . S
H612 C642 0.950 . S
C613 H595 0.951 . S
C613 C614 1.366 . S
C613 C615 1.388 . S
C614 C613 1.366 . S
C614 C618 1.385 . S
C615 H596 0.951 . S
C615 C613 1.388 . S
C615 C616 1.366 . S
C616 C615 1.366 . S
C616 C617 1.414 . S
C616 C619 1.499 . S
C617 H597 0.950 . S
C617 C616 1.414 . S
C617 C618 1.374 . S
C618 H598 0.950 . S
C618 C614 1.385 . S
C618 C617 1.374 . S
C619 C616 1.499 . S
C619 C620 1.373 . S
C619 C621 1.389 . S
C620 H599 0.950 . S
C620 C619 1.373 . S
C620 C636 1.377 . S
C621 C619 1.389 . S
C621 C622 1.524 . S
C621 C635 1.377 . S
C622 C621 1.524 . S
C622 C623 1.397 . S
C622 C627 1.363 . S
C623 H600 0.950 . S
C623 C622 1.397 . S
C623 C624 1.334 . S
C624 H601 0.950 . S
C624 C623 1.334 . S
C624 C625 1.287 . S
C625 C624 1.287 . S
C625 C626 1.524 . S
C625 H644 0.913 . S
C626 H602 0.950 . S
C626 C625 1.524 . S
C626 C627 1.415 . S
C627 H603 0.950 . S
C627 C622 1.363 . S
C627 C626 1.415 . S
C628 H604 0.951 . S
C628 C629 1.366 . S
C628 C630 1.388 . S
C629 C628 1.366 . S
C629 C633 1.385 . S
C630 H605 0.951 . S
C630 C628 1.388 . S
C630 C631 1.366 . S
C631 C630 1.366 . S
C631 C632 1.414 . S
C631 C634 1.499 . S
C632 H606 0.950 . S
C632 C631 1.414 . S
C632 C633 1.374 . S
C633 H607 0.950 . S
C633 C629 1.385 . S
C633 C632 1.374 . S
C634 C631 1.499 . S
C634 C635 1.373 . S
C634 C636 1.389 . S
C635 H608 0.950 . S
C635 C621 1.377 . S
C635 C634 1.373 . S
C636 C620 1.377 . S
C636 C634 1.389 . S
C636 C637 1.524 . S
C637 C636 1.524 . S
C637 C638 1.397 . S
C637 C642 1.363 . S
C638 H609 0.950 . S
C638 C637 1.397 . S
C638 C639 1.334 . S
C639 H610 0.950 . S
C639 C638 1.334 . S
C639 C640 1.287 . S
C640 C639 1.287 . S
C640 C641 1.524 . S
C640 H643 0.999 . S
C641 H611 0.950 . S
C641 C640 1.524 . S
C641 C642 1.415 . S
C642 H612 0.950 . S
C642 C637 1.363 . S
C642 C641 1.415 . S
H643 C640 0.999 . S
H644 C625 0.913 . S
H645 C663 0.951 . S
H646 C665 0.951 . S
H647 C667 0.950 . S
H648 C668 0.950 . S
H649 C670 0.950 . S
H650 C673 0.950 . S
H651 C674 0.950 . S
H652 C676 0.950 . S
H653 C677 0.950 . S
H654 C678 0.951 . S
H655 C680 0.951 . S
H656 C682 0.950 . S
H657 C683 0.950 . S
H658 C685 0.950 . S
H659 C688 0.950 . S
H660 C689 0.950 . S
H661 C691 0.950 . S
H662 C692 0.950 . S
C663 H645 0.951 . S
C663 C664 1.366 . S
C663 C665 1.388 . S
C664 C663 1.366 . S
C664 C668 1.385 . S
C665 H646 0.951 . S
C665 C663 1.388 . S
C665 C666 1.366 . S
C666 C665 1.366 . S
C666 C667 1.414 . S
C666 C669 1.499 . S
C667 H647 0.950 . S
C667 C666 1.414 . S
C667 C668 1.374 . S
C668 H648 0.950 . S
C668 C664 1.385 . S
C668 C667 1.374 . S
C669 C666 1.499 . S
C669 C670 1.373 . S
C669 C671 1.389 . S
C670 H649 0.950 . S
C670 C669 1.373 . S
C670 C686 1.377 . S
C671 C669 1.389 . S
C671 C672 1.524 . S
C671 C685 1.377 . S
C672 C671 1.524 . S
C672 C673 1.397 . S
C672 C677 1.363 . S
C673 H650 0.950 . S
C673 C672 1.397 . S
C673 C674 1.334 . S
C674 H651 0.950 . S
C674 C673 1.334 . S
C674 C675 1.287 . S
C675 C674 1.287 . S
C675 C676 1.524 . S
C675 H694 0.913 . S
C676 H652 0.950 . S
C676 C675 1.524 . S
C676 C677 1.415 . S
C677 H653 0.950 . S
C677 C672 1.363 . S
C677 C676 1.415 . S
C678 H654 0.951 . S
C678 C679 1.366 . S
C678 C680 1.388 . S
C679 C678 1.366 . S
C679 C683 1.385 . S
C680 H655 0.951 . S
C680 C678 1.388 . S
C680 C681 1.366 . S
C681 C680 1.366 . S
C681 C682 1.414 . S
C681 C684 1.499 . S
C682 H656 0.950 . S
C682 C681 1.414 . S
C682 C683 1.374 . S
C683 H657 0.950 . S
C683 C679 1.385 . S
C683 C682 1.374 . S
C684 C681 1.499 . S
C684 C685 1.373 . S
C684 C686 1.389 . S
C685 H658 0.950 . S
C685 C671 1.377 . S
C685 C684 1.373 . S
C686 C670 1.377 . S
C686 C684 1.389 . S
C686 C687 1.524 . S
C687 C686 1.524 . S
C687 C688 1.397 . S
C687 C692 1.363 . S
C688 H659 0.950 . S
C688 C687 1.397 . S
C688 C689 1.334 . S
C689 H660 0.950 . S
C689 C688 1.334 . S
C689 C690 1.287 . S
C690 C689 1.287 . S
C690 C691 1.524 . S
C690 H693 0.999 . S
C691 H661 0.950 . S
C691 C690 1.524 . S
C691 C692 1.415 . S
C692 H662 0.950 . S
C692 C687 1.363 . S
C692 C691 1.415 . S
H693 C690 0.999 . S
H694 C675 0.913 . S
H695 C713 0.951 . S
H696 C715 0.951 . S
H697 C717 0.950 . S
H698 C718 0.950 . S
H699 C720 0.950 . S
H700 C723 0.950 . S
H701 C724 0.950 . S
H702 C726 0.950 . S
H703 C727 0.950 . S
H704 C728 0.951 . S
H705 C730 0.951 . S
H706 C732 0.950 . S
H707 C733 0.950 . S
H708 C735 0.950 . S
H709 C738 0.950 . S
H710 C739 0.950 . S
H711 C741 0.950 . S
H712 C742 0.950 . S
C713 H695 0.951 . S
C713 C714 1.366 . S
C713 C715 1.388 . S
C714 C713 1.366 . S
C714 C718 1.385 . S
C715 H696 0.951 . S
C715 C713 1.388 . S
C715 C716 1.366 . S
C716 C715 1.366 . S
C716 C717 1.414 . S
C716 C719 1.499 . S
C717 H697 0.950 . S
C717 C716 1.414 . S
C717 C718 1.374 . S
C718 H698 0.950 . S
C718 C714 1.385 . S
C718 C717 1.374 . S
C719 C716 1.499 . S
C719 C720 1.373 . S
C719 C721 1.389 . S
C720 H699 0.950 . S
C720 C719 1.373 . S
C720 C736 1.377 . S
C721 C719 1.389 . S
C721 C722 1.524 . S
C721 C735 1.377 . S
C722 C721 1.524 . S
C722 C723 1.397 . S
C722 C727 1.363 . S
C723 H700 0.950 . S
C723 C722 1.397 . S
C723 C724 1.334 . S
C724 H701 0.950 . S
C724 C723 1.334 . S
C724 C725 1.287 . S
C725 C724 1.287 . S
C725 C726 1.524 . S
C725 H744 0.913 . S
C726 H702 0.950 . S
C726 C725 1.524 . S
C726 C727 1.415 . S
C727 H703 0.950 . S
C727 C722 1.363 . S
C727 C726 1.415 . S
C728 H704 0.951 . S
C728 C729 1.366 . S
C728 C730 1.388 . S
C729 C728 1.366 . S
C729 C733 1.385 . S
C730 H705 0.951 . S
C730 C728 1.388 . S
C730 C731 1.366 . S
C731 C730 1.366 . S
C731 C732 1.414 . S
C731 C734 1.499 . S
C732 H706 0.950 . S
C732 C731 1.414 . S
C732 C733 1.374 . S
C733 H707 0.950 . S
C733 C729 1.385 . S
C733 C732 1.374 . S
C734 C731 1.499 . S
C734 C735 1.373 . S
C734 C736 1.389 . S
C735 H708 0.950 . S
C735 C721 1.377 . S
C735 C734 1.373 . S
C736 C720 1.377 . S
C736 C734 1.389 . S
C736 C737 1.524 . S
C737 C736 1.524 . S
C737 C738 1.397 . S
C737 C742 1.363 . S
C738 H709 0.950 . S
C738 C737 1.397 . S
C738 C739 1.334 . S
C739 H710 0.950 . S
C739 C738 1.334 . S
C739 C740 1.287 . S
C740 C739 1.287 . S
C740 C741 1.524 . S
C740 H743 0.999 . S
C741 H711 0.950 . S
C741 C740 1.524 . S
C741 C742 1.415 . S
C742 H712 0.950 . S
C742 C737 1.363 . S
C742 C741 1.415 . S
H743 C740 0.999 . S
H744 C725 0.913 . S
H745 C763 0.951 . S
H746 C765 0.951 . S
H747 C767 0.950 . S
H748 C768 0.950 . S
H749 C770 0.950 . S
H750 C773 0.950 . S
H751 C774 0.950 . S
H752 C776 0.950 . S
H753 C777 0.950 . S
H754 C778 0.951 . S
H755 C780 0.951 . S
H756 C782 0.950 . S
H757 C783 0.950 . S
H758 C785 0.950 . S
H759 C788 0.950 . S
H760 C789 0.950 . S
H761 C791 0.950 . S
H762 C792 0.950 . S
C763 H745 0.951 . S
C763 C764 1.366 . S
C763 C765 1.388 . S
C764 C763 1.366 . S
C764 C768 1.385 . S
C765 H746 0.951 . S
C765 C763 1.388 . S
C765 C766 1.366 . S
C766 C765 1.366 . S
C766 C767 1.414 . S
C766 C769 1.499 . S
C767 H747 0.950 . S
C767 C766 1.414 . S
C767 C768 1.374 . S
C768 H748 0.950 . S
C768 C764 1.385 . S
C768 C767 1.374 . S
C769 C766 1.499 . S
C769 C770 1.373 . S
C769 C771 1.389 . S
C770 H749 0.950 . S
C770 C769 1.373 . S
C770 C786 1.377 . S
C771 C769 1.389 . S
C771 C772 1.524 . S
C771 C785 1.377 . S
C772 C771 1.524 . S
C772 C773 1.397 . S
C772 C777 1.363 . S
C773 H750 0.950 . S
C773 C772 1.397 . S
C773 C774 1.334 . S
C774 H751 0.950 . S
C774 C773 1.334 . S
C774 C775 1.287 . S
C775 C774 1.287 . S
C775 C776 1.524 . S
C775 H794 0.913 . S
C776 H752 0.950 . S
C776 C775 1.524 . S
C776 C777 1.415 . S
C777 H753 0.950 . S
C777 C772 1.363 . S
C777 C776 1.415 . S
C778 H754 0.951 . S
C778 C779 1.366 . S
C778 C780 1.388 . S
C779 C778 1.366 . S
C779 C783 1.385 . S
C780 H755 0.951 . S
C780 C778 1.388 . S
C780 C781 1.366 . S
C781 C780 1.366 . S
C781 C782 1.414 . S
C781 C784 1.499 . S
C782 H756 0.950 . S
C782 C781 1.414 . S
C782 C783 1.374 . S
C783 H757 0.950 . S
C783 C779 1.385 . S
C783 C782 1.374 . S
C784 C781 1.499 . S
C784 C785 1.373 . S
C784 C786 1.389 . S
C785 H758 0.950 . S
C785 C771 1.377 . S
C785 C784 1.373 . S
C786 C770 1.377 . S
C786 C784 1.389 . S
C786 C787 1.524 . S
C787 C786 1.524 . S
C787 C788 1.397 . S
C787 C792 1.363 . S
C788 H759 0.950 . S
C788 C787 1.397 . S
C788 C789 1.334 . S
C789 H760 0.950 . S
C789 C788 1.334 . S
C789 C790 1.287 . S
C790 C789 1.287 . S
C790 C791 1.524 . S
C790 H793 0.999 . S
C791 H761 0.950 . S
C791 C790 1.524 . S
C791 C792 1.415 . S
C792 H762 0.950 . S
C792 C787 1.363 . S
C792 C791 1.415 . S
H793 C790 0.999 . S
H794 C775 0.913 . S
H795 C813 0.951 . S
H796 C815 0.951 . S
H797 C817 0.950 . S
H798 C818 0.950 . S
H799 C820 0.950 . S
H800 C823 0.950 . S
H801 C824 0.950 . S
H802 C826 0.950 . S
H803 C827 0.950 . S
H804 C828 0.951 . S
H805 C830 0.951 . S
H806 C832 0.950 . S
H807 C833 0.950 . S
H808 C835 0.950 . S
H809 C838 0.950 . S
H810 C839 0.950 . S
H811 C841 0.950 . S
H812 C842 0.950 . S
C813 H795 0.951 . S
C813 C814 1.366 . S
C813 C815 1.388 . S
C814 C813 1.366 . S
C814 C818 1.385 . S
C815 H796 0.951 . S
C815 C813 1.388 . S
C815 C816 1.366 . S
C816 C815 1.366 . S
C816 C817 1.414 . S
C816 C819 1.499 . S
C817 H797 0.950 . S
C817 C816 1.414 . S
C817 C818 1.374 . S
C818 H798 0.950 . S
C818 C814 1.385 . S
C818 C817 1.374 . S
C819 C816 1.499 . S
C819 C820 1.373 . S
C819 C821 1.389 . S
C820 H799 0.950 . S
C820 C819 1.373 . S
C820 C836 1.377 . S
C821 C819 1.389 . S
C821 C822 1.524 . S
C821 C835 1.377 . S
C822 C821 1.524 . S
C822 C823 1.397 . S
C822 C827 1.363 . S
C823 H800 0.950 . S
C823 C822 1.397 . S
C823 C824 1.334 . S
C824 H801 0.950 . S
C824 C823 1.334 . S
C824 C825 1.287 . S
C825 C824 1.287 . S
C825 C826 1.524 . S
C825 H844 0.913 . S
C826 H802 0.950 . S
C826 C825 1.524 . S
C826 C827 1.415 . S
C827 H803 0.950 . S
C827 C822 1.363 . S
C827 C826 1.415 . S
C828 H804 0.951 . S
C828 C829 1.366 . S
C828 C830 1.388 . S
C829 C828 1.366 . S
C829 C833 1.385 . S
C830 H805 0.951 . S
C830 C828 1.388 . S
C830 C831 1.366 . S
C831 C830 1.366 . S
C831 C832 1.414 . S
C831 C834 1.499 . S
C832 H806 0.950 . S
C832 C831 1.414 . S
C832 C833 1.374 . S
C833 H807 0.950 . S
C833 C829 1.385 . S
C833 C832 1.374 . S
C834 C831 1.499 . S
C834 C835 1.373 . S
C834 C836 1.389 . S
C835 H808 0.950 . S
C835 C821 1.377 . S
C835 C834 1.373 . S
C836 C820 1.377 . S
C836 C834 1.389 . S
C836 C837 1.524 . S
C837 C836 1.524 . S
C837 C838 1.397 . S
C837 C842 1.363 . S
C838 H809 0.950 . S
C838 C837 1.397 . S
C838 C839 1.334 . S
C839 H810 0.950 . S
C839 C838 1.334 . S
C839 C840 1.287 . S
C840 C839 1.287 . S
C840 C841 1.524 . S
C840 H843 0.999 . S
C841 H811 0.950 . S
C841 C840 1.524 . S
C841 C842 1.415 . S
C842 H812 0.950 . S
C842 C837 1.363 . S
C842 C841 1.415 . S
H843 C840 0.999 . S
H844 C825 0.913 . S
H845 C863 0.951 . S
H846 C865 0.951 . S
H847 C867 0.950 . S
H848 C868 0.950 . S
H849 C870 0.950 . S
H850 C873 0.950 . S
H851 C874 0.950 . S
H852 C876 0.950 . S
H853 C877 0.950 . S
H854 C878 0.951 . S
H855 C880 0.951 . S
H856 C882 0.950 . S
H857 C883 0.950 . S
H858 C885 0.950 . S
H859 C888 0.950 . S
H860 C889 0.950 . S
H861 C891 0.950 . S
H862 C892 0.950 . S
C863 H845 0.951 . S
C863 C864 1.366 . S
C863 C865 1.388 . S
C864 C863 1.366 . S
C864 C868 1.385 . S
C865 H846 0.951 . S
C865 C863 1.388 . S
C865 C866 1.366 . S
C866 C865 1.366 . S
C866 C867 1.414 . S
C866 C869 1.499 . S
C867 H847 0.950 . S
C867 C866 1.414 . S
C867 C868 1.374 . S
C868 H848 0.950 . S
C868 C864 1.385 . S
C868 C867 1.374 . S
C869 C866 1.499 . S
C869 C870 1.373 . S
C869 C871 1.389 . S
C870 H849 0.950 . S
C870 C869 1.373 . S
C870 C886 1.377 . S
C871 C869 1.389 . S
C871 C872 1.524 . S
C871 C885 1.377 . S
C872 C871 1.524 . S
C872 C873 1.397 . S
C872 C877 1.363 . S
C873 H850 0.950 . S
C873 C872 1.397 . S
C873 C874 1.334 . S
C874 H851 0.950 . S
C874 C873 1.334 . S
C874 C875 1.287 . S
C875 C874 1.287 . S
C875 C876 1.524 . S
C875 H894 0.913 . S
C876 H852 0.950 . S
C876 C875 1.524 . S
C876 C877 1.415 . S
C877 H853 0.950 . S
C877 C872 1.363 . S
C877 C876 1.415 . S
C878 H854 0.951 . S
C878 C879 1.366 . S
C878 C880 1.388 . S
C879 C878 1.366 . S
C879 C883 1.385 . S
C880 H855 0.951 . S
C880 C878 1.388 . S
C880 C881 1.366 . S
C881 C880 1.366 . S
C881 C882 1.414 . S
C881 C884 1.499 . S
C882 H856 0.950 . S
C882 C881 1.414 . S
C882 C883 1.374 . S
C883 H857 0.950 . S
C883 C879 1.385 . S
C883 C882 1.374 . S
C884 C881 1.499 . S
C884 C885 1.373 . S
C884 C886 1.389 . S
C885 H858 0.950 . S
C885 C871 1.377 . S
C885 C884 1.373 . S
C886 C870 1.377 . S
C886 C884 1.389 . S
C886 C887 1.524 . S
C887 C886 1.524 . S
C887 C888 1.397 . S
C887 C892 1.363 . S
C888 H859 0.950 . S
C888 C887 1.397 . S
C888 C889 1.334 . S
C889 H860 0.950 . S
C889 C888 1.334 . S
C889 C890 1.287 . S
C890 C889 1.287 . S
C890 C891 1.524 . S
C890 H893 0.999 . S
C891 H861 0.950 . S
C891 C890 1.524 . S
C891 C892 1.415 . S
C892 H862 0.950 . S
C892 C887 1.363 . S
C892 C891 1.415 . S
H893 C890 0.999 . S
H894 C875 0.913 . S
H895 C913 0.951 . S
H896 C915 0.951 . S
H897 C917 0.950 . S
H898 C918 0.950 . S
H899 C920 0.950 . S
H900 C923 0.950 . S
H901 C924 0.950 . S
H902 C926 0.950 . S
H903 C927 0.950 . S
H904 C928 0.951 . S
H905 C930 0.951 . S
H906 C932 0.950 . S
H907 C933 0.950 . S
H908 C935 0.950 . S
H909 C938 0.950 . S
H910 C939 0.950 . S
H911 C941 0.950 . S
H912 C942 0.950 . S
C913 H895 0.951 . S
C913 C914 1.366 . S
C913 C915 1.388 . S
C914 C913 1.366 . S
C914 C918 1.385 . S
C915 H896 0.951 . S
C915 C913 1.388 . S
C915 C916 1.366 . S
C916 C915 1.366 . S
C916 C917 1.414 . S
C916 C919 1.499 . S
C917 H897 0.950 . S
C917 C916 1.414 . S
C917 C918 1.374 . S
C918 H898 0.950 . S
C918 C914 1.385 . S
C918 C917 1.374 . S
C919 C916 1.499 . S
C919 C920 1.373 . S
C919 C921 1.389 . S
C920 H899 0.950 . S
C920 C919 1.373 . S
C920 C936 1.377 . S
C921 C919 1.389 . S
C921 C922 1.524 . S
C921 C935 1.377 . S
C922 C921 1.524 . S
C922 C923 1.397 . S
C922 C927 1.363 . S
C923 H900 0.950 . S
C923 C922 1.397 . S
C923 C924 1.334 . S
C924 H901 0.950 . S
C924 C923 1.334 . S
C924 C925 1.287 . S
C925 C924 1.287 . S
C925 C926 1.524 . S
C925 H944 0.913 . S
C926 H902 0.950 . S
C926 C925 1.524 . S
C926 C927 1.415 . S
C927 H903 0.950 . S
C927 C922 1.363 . S
C927 C926 1.415 . S
C928 H904 0.951 . S
C928 C929 1.366 . S
C928 C930 1.388 . S
C929 C928 1.366 . S
C929 C933 1.385 . S
C930 H905 0.951 . S
C930 C928 1.388 . S
C930 C931 1.366 . S
C931 C930 1.366 . S
C931 C932 1.414 . S
C931 C934 1.499 . S
C932 H906 0.950 . S
C932 C931 1.414 . S
C932 C933 1.374 . S
C933 H907 0.950 . S
C933 C929 1.385 . S
C933 C932 1.374 . S
C934 C931 1.499 . S
C934 C935 1.373 . S
C934 C936 1.389 . S
C935 H908 0.950 . S
C935 C921 1.377 . S
C935 C934 1.373 . S
C936 C920 1.377 . S
C936 C934 1.389 . S
C936 C937 1.524 . S
C937 C936 1.524 . S
C937 C938 1.397 . S
C937 C942 1.363 . S
C938 H909 0.950 . S
C938 C937 1.397 . S
C938 C939 1.334 . S
C939 H910 0.950 . S
C939 C938 1.334 . S
C939 C940 1.287 . S
C940 C939 1.287 . S
C940 C941 1.524 . S
C940 H943 0.999 . S
C941 H911 0.950 . S
C941 C940 1.524 . S
C941 C942 1.415 . S
C942 H912 0.950 . S
C942 C937 1.363 . S
C942 C941 1.415 . S
H943 C940 0.999 . S
H944 C925 0.913 . S
H945 C963 0.951 . S
H946 C965 0.951 . S
H947 C967 0.950 . S
H948 C968 0.950 . S
H949 C970 0.950 . S
H950 C973 0.950 . S
H951 C974 0.950 . S
H952 C976 0.950 . S
H953 C977 0.950 . S
H954 C978 0.951 . S
H955 C980 0.951 . S
H956 C982 0.950 . S
H957 C983 0.950 . S
H958 C985 0.950 . S
H959 C988 0.950 . S
H960 C989 0.950 . S
H961 C991 0.950 . S
H962 C992 0.950 . S
C963 H945 0.951 . S
C963 C964 1.366 . S
C963 C965 1.388 . S
C964 C963 1.366 . S
C964 C968 1.385 . S
C965 H946 0.951 . S
C965 C963 1.388 . S
C965 C966 1.366 . S
C966 C965 1.366 . S
C966 C967 1.414 . S
C966 C969 1.499 . S
C967 H947 0.950 . S
C967 C966 1.414 . S
C967 C968 1.374 . S
C968 H948 0.950 . S
C968 C964 1.385 . S
C968 C967 1.374 . S
C969 C966 1.499 . S
C969 C970 1.373 . S
C969 C971 1.389 . S
C970 H949 0.950 . S
C970 C969 1.373 . S
C970 C986 1.377 . S
C971 C969 1.389 . S
C971 C972 1.524 . S
C971 C985 1.377 . S
C972 C971 1.524 . S
C972 C973 1.397 . S
C972 C977 1.363 . S
C973 H950 0.950 . S
C973 C972 1.397 . S
C973 C974 1.334 . S
C974 H951 0.950 . S
C974 C973 1.334 . S
C974 C975 1.287 . S
C975 C974 1.287 . S
C975 C976 1.524 . S
C975 H994 0.913 . S
C976 H952 0.950 . S
C976 C975 1.524 . S
C976 C977 1.415 . S
C977 H953 0.950 . S
C977 C972 1.363 . S
C977 C976 1.415 . S
C978 H954 0.951 . S
C978 C979 1.366 . S
C978 C980 1.388 . S
C979 C978 1.366 . S
C979 C983 1.385 . S
C980 H955 0.951 . S
C980 C978 1.388 . S
C980 C981 1.366 . S
C981 C980 1.366 . S
C981 C982 1.414 . S
C981 C984 1.499 . S
C982 H956 0.950 . S
C982 C981 1.414 . S
C982 C983 1.374 . S
C983 H957 0.950 . S
C983 C979 1.385 . S
C983 C982 1.374 . S
C984 C981 1.499 . S
C984 C985 1.373 . S
C984 C986 1.389 . S
C985 H958 0.950 . S
C985 C971 1.377 . S
C985 C984 1.373 . S
C986 C970 1.377 . S
C986 C984 1.389 . S
C986 C987 1.524 . S
C987 C986 1.524 . S
C987 C988 1.397 . S
C987 C992 1.363 . S
C988 H959 0.950 . S
C988 C987 1.397 . S
C988 C989 1.334 . S
C989 H960 0.950 . S
C989 C988 1.334 . S
C989 C990 1.287 . S
C990 C989 1.287 . S
C990 C991 1.524 . S
C990 H993 0.999 . S
C991 H961 0.950 . S
C991 C990 1.524 . S
C991 C992 1.415 . S
C992 H962 0.950 . S
C992 C987 1.363 . S
C992 C991 1.415 . S
H993 C990 0.999 . S
H994 C975 0.913 . S
H995 C1013 0.951 . S
H996 C1015 0.951 . S
H997 C1017 0.950 . S
H998 C1018 0.950 . S
H999 C1020 0.950 . S
H1000 C1023 0.950 . S
H1001 C1024 0.950 . S
H1002 C1026 0.950 . S
H1003 C1027 0.950 . S
H1004 C1028 0.951 . S
H1005 C1030 0.951 . S
H1006 C1032 0.950 . S
H1007 C1033 0.950 . S
H1008 C1035 0.950 . S
H1009 C1038 0.950 . S
H1010 C1039 0.950 . S
H1011 C1041 0.950 . S
H1012 C1042 0.950 . S
C1013 H995 0.951 . S
C1013 C1014 1.366 . S
C1013 C1015 1.388 . S
C1014 C1013 1.366 . S
C1014 C1018 1.385 . S
C1015 H996 0.951 . S
C1015 C1013 1.388 . S
C1015 C1016 1.366 . S
C1016 C1015 1.366 . S
C1016 C1017 1.414 . S
C1016 C1019 1.499 . S
C1017 H997 0.950 . S
C1017 C1016 1.414 . S
C1017 C1018 1.374 . S
C1018 H998 0.950 . S
C1018 C1014 1.385 . S
C1018 C1017 1.374 . S
C1019 C1016 1.499 . S
C1019 C1020 1.373 . S
C1019 C1021 1.389 . S
C1020 H999 0.950 . S
C1020 C1019 1.373 . S
C1020 C1036 1.377 . S
C1021 C1019 1.389 . S
C1021 C1022 1.524 . S
C1021 C1035 1.377 . S
C1022 C1021 1.524 . S
C1022 C1023 1.397 . S
C1022 C1027 1.363 . S
C1023 H1000 0.950 . S
C1023 C1022 1.397 . S
C1023 C1024 1.334 . S
C1024 H1001 0.950 . S
C1024 C1023 1.334 . S
C1024 C1025 1.287 . S
C1025 C1024 1.287 . S
C1025 C1026 1.524 . S
C1025 H1044 0.913 . S
C1026 H1002 0.950 . S
C1026 C1025 1.524 . S
C1026 C1027 1.415 . S
C1027 H1003 0.950 . S
C1027 C1022 1.363 . S
C1027 C1026 1.415 . S
C1028 H1004 0.951 . S
C1028 C1029 1.366 . S
C1028 C1030 1.388 . S
C1029 C1028 1.366 . S
C1029 C1033 1.385 . S
C1030 H1005 0.951 . S
C1030 C1028 1.388 . S
C1030 C1031 1.366 . S
C1031 C1030 1.366 . S
C1031 C1032 1.414 . S
C1031 C1034 1.499 . S
C1032 H1006 0.950 . S
C1032 C1031 1.414 . S
C1032 C1033 1.374 . S
C1033 H1007 0.950 . S
C1033 C1029 1.385 . S
C1033 C1032 1.374 . S
C1034 C1031 1.499 . S
C1034 C1035 1.373 . S
C1034 C1036 1.389 . S
C1035 H1008 0.950 . S
C1035 C1021 1.377 . S
C1035 C1034 1.373 . S
C1036 C1020 1.377 . S
C1036 C1034 1.389 . S
C1036 C1037 1.524 . S
C1037 C1036 1.524 . S
C1037 C1038 1.397 . S
C1037 C1042 1.363 . S
C1038 H1009 0.950 . S
C1038 C1037 1.397 . S
C1038 C1039 1.334 . S
C1039 H1010 0.950 . S
C1039 C1038 1.334 . S
C1039 C1040 1.287 . S
C1040 C1039 1.287 . S
C1040 C1041 1.524 . S
C1040 H1043 0.999 . S
C1041 H1011 0.950 . S
C1041 C1040 1.524 . S
C1041 C1042 1.415 . S
C1042 H1012 0.950 . S
C1042 C1037 1.363 . S
C1042 C1041 1.415 . S
H1043 C1040 0.999 . S
H1044 C1025 0.913 . S
H1045 C1063 0.951 . S
H1046 C1065 0.951 . S
H1047 C1067 0.950 . S
H1048 C1068 0.950 . S
H1049 C1070 0.950 . S
H1050 C1073 0.950 . S
H1051 C1074 0.950 . S
H1052 C1076 0.950 . S
H1053 C1077 0.950 . S
H1054 C1078 0.951 . S
H1055 C1080 0.951 . S
H1056 C1082 0.950 . S
H1057 C1083 0.950 . S
H1058 C1085 0.950 . S
H1059 C1088 0.950 . S
H1060 C1089 0.950 . S
H1061 C1091 0.950 . S
H1062 C1092 0.950 . S
C1063 H1045 0.951 . S
C1063 C1064 1.366 . S
C1063 C1065 1.388 . S
C1064 C1063 1.366 . S
C1064 C1068 1.385 . S
C1065 H1046 0.951 . S
C1065 C1063 1.388 . S
C1065 C1066 1.366 . S
C1066 C1065 1.366 . S
C1066 C1067 1.414 . S
C1066 C1069 1.499 . S
C1067 H1047 0.950 . S
C1067 C1066 1.414 . S
C1067 C1068 1.374 . S
C1068 H1048 0.950 . S
C1068 C1064 1.385 . S
C1068 C1067 1.374 . S
C1069 C1066 1.499 . S
C1069 C1070 1.373 . S
C1069 C1071 1.389 . S
C1070 H1049 0.950 . S
C1070 C1069 1.373 . S
C1070 C1086 1.377 . S
C1071 C1069 1.389 . S
C1071 C1072 1.524 . S
C1071 C1085 1.377 . S
C1072 C1071 1.524 . S
C1072 C1073 1.397 . S
C1072 C1077 1.363 . S
C1073 H1050 0.950 . S
C1073 C1072 1.397 . S
C1073 C1074 1.334 . S
C1074 H1051 0.950 . S
C1074 C1073 1.334 . S
C1074 C1075 1.287 . S
C1075 C1074 1.287 . S
C1075 C1076 1.524 . S
C1075 H1094 0.913 . S
C1076 H1052 0.950 . S
C1076 C1075 1.524 . S
C1076 C1077 1.415 . S
C1077 H1053 0.950 . S
C1077 C1072 1.363 . S
C1077 C1076 1.415 . S
C1078 H1054 0.951 . S
C1078 C1079 1.366 . S
C1078 C1080 1.388 . S
C1079 C1078 1.366 . S
C1079 C1083 1.385 . S
C1080 H1055 0.951 . S
C1080 C1078 1.388 . S
C1080 C1081 1.366 . S
C1081 C1080 1.366 . S
C1081 C1082 1.414 . S
C1081 C1084 1.499 . S
C1082 H1056 0.950 . S
C1082 C1081 1.414 . S
C1082 C1083 1.374 . S
C1083 H1057 0.950 . S
C1083 C1079 1.385 . S
C1083 C1082 1.374 . S
C1084 C1081 1.499 . S
C1084 C1085 1.373 . S
C1084 C1086 1.389 . S
C1085 H1058 0.950 . S
C1085 C1071 1.377 . S
C1085 C1084 1.373 . S
C1086 C1070 1.377 . S
C1086 C1084 1.389 . S
C1086 C1087 1.524 . S
C1087 C1086 1.524 . S
C1087 C1088 1.397 . S
C1087 C1092 1.363 . S
C1088 H1059 0.950 . S
C1088 C1087 1.397 . S
C1088 C1089 1.334 . S
C1089 H1060 0.950 . S
C1089 C1088 1.334 . S
C1089 C1090 1.287 . S
C1090 C1089 1.287 . S
C1090 C1091 1.524 . S
C1090 H1093 0.999 . S
C1091 H1061 0.950 . S
C1091 C1090 1.524 . S
C1091 C1092 1.415 . S
C1092 H1062 0.950 . S
C1092 C1087 1.363 . S
C1092 C1091 1.415 . S
H1093 C1090 0.999 . S
H1094 C1075 0.913 . S
H1095 C1113 0.951 . S
H1096 C1115 0.951 . S
H1097 C1117 0.950 . S
H1098 C1118 0.950 . S
H1099 C1120 0.950 . S
H1100 C1123 0.950 . S
H1101 C1124 0.950 . S
H1102 C1126 0.950 . S
H1103 C1127 0.950 . S
H1104 C1128 0.951 . S
H1105 C1130 0.951 . S
H1106 C1132 0.950 . S
H1107 C1133 0.950 . S
H1108 C1135 0.950 . S
H1109 C1138 0.950 . S
H1110 C1139 0.950 . S
H1111 C1141 0.950 . S
H1112 C1142 0.950 . S
C1113 H1095 0.951 . S
C1113 C1114 1.366 . S
C1113 C1115 1.388 . S
C1114 C1113 1.366 . S
C1114 C1118 1.385 . S
C1115 H1096 0.951 . S
C1115 C1113 1.388 . S
C1115 C1116 1.366 . S
C1116 C1115 1.366 . S
C1116 C1117 1.414 . S
C1116 C1119 1.499 . S
C1117 H1097 0.950 . S
C1117 C1116 1.414 . S
C1117 C1118 1.374 . S
C1118 H1098 0.950 . S
C1118 C1114 1.385 . S
C1118 C1117 1.374 . S
C1119 C1116 1.499 . S
C1119 C1120 1.373 . S
C1119 C1121 1.389 . S
C1120 H1099 0.950 . S
C1120 C1119 1.373 . S
C1120 C1136 1.377 . S
C1121 C1119 1.389 . S
C1121 C1122 1.524 . S
C1121 C1135 1.377 . S
C1122 C1121 1.524 . S
C1122 C1123 1.397 . S
C1122 C1127 1.363 . S
C1123 H1100 0.950 . S
C1123 C1122 1.397 . S
C1123 C1124 1.334 . S
C1124 H1101 0.950 . S
C1124 C1123 1.334 . S
C1124 C1125 1.287 . S
C1125 C1124 1.287 . S
C1125 C1126 1.524 . S
C1125 H1144 0.913 . S
C1126 H1102 0.950 . S
C1126 C1125 1.524 . S
C1126 C1127 1.415 . S
C1127 H1103 0.950 . S
C1127 C1122 1.363 . S
C1127 C1126 1.415 . S
C1128 H1104 0.951 . S
C1128 C1129 1.366 . S
C1128 C1130 1.388 . S
C1129 C1128 1.366 . S
C1129 C1133 1.385 . S
C1130 H1105 0.951 . S
C1130 C1128 1.388 . S
C1130 C1131 1.366 . S
C1131 C1130 1.366 . S
C1131 C1132 1.414 . S
C1131 C1134 1.499 . S
C1132 H1106 0.950 . S
C1132 C1131 1.414 . S
C1132 C1133 1.374 . S
C1133 H1107 0.950 . S
C1133 C1129 1.385 . S
C1133 C1132 1.374 . S
C1134 C1131 1.499 . S
C1134 C1135 1.373 . S
C1134 C1136 1.389 . S
C1135 H1108 0.950 . S
C1135 C1121 1.377 . S
C1135 C1134 1.373 . S
C1136 C1120 1.377 . S
C1136 C1134 1.389 . S
C1136 C1137 1.524 . S
C1137 C1136 1.524 . S
C1137 C1138 1.397 . S
C1137 C1142 1.363 . S
C1138 H1109 0.950 . S
C1138 C1137 1.397 . S
C1138 C1139 1.334 . S
C1139 H1110 0.950 . S
C1139 C1138 1.334 . S
C1139 C1140 1.287 . S
C1140 C1139 1.287 . S
C1140 C1141 1.524 . S
C1140 H1143 0.999 . S
C1141 H1111 0.950 . S
C1141 C1140 1.524 . S
C1141 C1142 1.415 . S
C1142 H1112 0.950 . S
C1142 C1137 1.363 . S
C1142 C1141 1.415 . S
H1143 C1140 0.999 . S
H1144 C1125 0.913 . S
H1145 C1163 0.951 . S
H1146 C1165 0.951 . S
H1147 C1167 0.950 . S
H1148 C1168 0.950 . S
H1149 C1170 0.950 . S
H1150 C1173 0.950 . S
H1151 C1174 0.950 . S
H1152 C1176 0.950 . S
H1153 C1177 0.950 . S
H1154 C1178 0.951 . S
H1155 C1180 0.951 . S
H1156 C1182 0.950 . S
H1157 C1183 0.950 . S
H1158 C1185 0.950 . S
H1159 C1188 0.950 . S
H1160 C1189 0.950 . S
H1161 C1191 0.950 . S
H1162 C1192 0.950 . S
C1163 H1145 0.951 . S
C1163 C1164 1.366 . S
C1163 C1165 1.388 . S
C1164 C1163 1.366 . S
C1164 C1168 1.385 . S
C1165 H1146 0.951 . S
C1165 C1163 1.388 . S
C1165 C1166 1.366 . S
C1166 C1165 1.366 . S
C1166 C1167 1.414 . S
C1166 C1169 1.499 . S
C1167 H1147 0.950 . S
C1167 C1166 1.414 . S
C1167 C1168 1.374 . S
C1168 H1148 0.950 . S
C1168 C1164 1.385 . S
C1168 C1167 1.374 . S
C1169 C1166 1.499 . S
C1169 C1170 1.373 . S
C1169 C1171 1.389 . S
C1170 H1149 0.950 . S
C1170 C1169 1.373 . S
C1170 C1186 1.377 . S
C1171 C1169 1.389 . S
C1171 C1172 1.524 . S
C1171 C1185 1.377 . S
C1172 C1171 1.524 . S
C1172 C1173 1.397 . S
C1172 C1177 1.363 . S
C1173 H1150 0.950 . S
C1173 C1172 1.397 . S
C1173 C1174 1.334 . S
C1174 H1151 0.950 . S
C1174 C1173 1.334 . S
C1174 C1175 1.287 . S
C1175 C1174 1.287 . S
C1175 C1176 1.524 . S
C1175 H1194 0.913 . S
C1176 H1152 0.950 . S
C1176 C1175 1.524 . S
C1176 C1177 1.415 . S
C1177 H1153 0.950 . S
C1177 C1172 1.363 . S
C1177 C1176 1.415 . S
C1178 H1154 0.951 . S
C1178 C1179 1.366 . S
C1178 C1180 1.388 . S
C1179 C1178 1.366 . S
C1179 C1183 1.385 . S
C1180 H1155 0.951 . S
C1180 C1178 1.388 . S
C1180 C1181 1.366 . S
C1181 C1180 1.366 . S
C1181 C1182 1.414 . S
C1181 C1184 1.499 . S
C1182 H1156 0.950 . S
C1182 C1181 1.414 . S
C1182 C1183 1.374 . S
C1183 H1157 0.950 . S
C1183 C1179 1.385 . S
C1183 C1182 1.374 . S
C1184 C1181 1.499 . S
C1184 C1185 1.373 . S
C1184 C1186 1.389 . S
C1185 H1158 0.950 . S
C1185 C1171 1.377 . S
C1185 C1184 1.373 . S
C1186 C1170 1.377 . S
C1186 C1184 1.389 . S
C1186 C1187 1.524 . S
C1187 C1186 1.524 . S
C1187 C1188 1.397 . S
C1187 C1192 1.363 . S
C1188 H1159 0.950 . S
C1188 C1187 1.397 . S
C1188 C1189 1.334 . S
C1189 H1160 0.950 . S
C1189 C1188 1.334 . S
C1189 C1190 1.287 . S
C1190 C1189 1.287 . S
C1190 C1191 1.524 . S
C1190 H1193 0.999 . S
C1191 H1161 0.950 . S
C1191 C1190 1.524 . S
C1191 C1192 1.415 . S
C1192 H1162 0.950 . S
C1192 C1187 1.363 . S
C1192 C1191 1.415 . S
H1193 C1190 0.999 . S
H1194 C1175 0.913 . S
H1195 C1213 0.951 . S
H1196 C1215 0.951 . S
H1197 C1217 0.950 . S
H1198 C1218 0.950 . S
H1199 C1220 0.950 . S
H1200 C1223 0.950 . S
H1201 C1224 0.950 . S
H1202 C1226 0.950 . S
H1203 C1227 0.950 . S
H1204 C1228 0.951 . S
H1205 C1230 0.951 . S
H1206 C1232 0.950 . S
H1207 C1233 0.950 . S
H1208 C1235 0.950 . S
H1209 C1238 0.950 . S
H1210 C1239 0.950 . S
H1211 C1241 0.950 . S
H1212 C1242 0.950 . S
C1213 H1195 0.951 . S
C1213 C1214 1.366 . S
C1213 C1215 1.388 . S
C1214 C1213 1.366 . S
C1214 C1218 1.385 . S
C1215 H1196 0.951 . S
C1215 C1213 1.388 . S
C1215 C1216 1.366 . S
C1216 C1215 1.366 . S
C1216 C1217 1.414 . S
C1216 C1219 1.499 . S
C1217 H1197 0.950 . S
C1217 C1216 1.414 . S
C1217 C1218 1.374 . S
C1218 H1198 0.950 . S
C1218 C1214 1.385 . S
C1218 C1217 1.374 . S
C1219 C1216 1.499 . S
C1219 C1220 1.373 . S
C1219 C1221 1.389 . S
C1220 H1199 0.950 . S
C1220 C1219 1.373 . S
C1220 C1236 1.377 . S
C1221 C1219 1.389 . S
C1221 C1222 1.524 . S
C1221 C1235 1.377 . S
C1222 C1221 1.524 . S
C1222 C1223 1.397 . S
C1222 C1227 1.363 . S
C1223 H1200 0.950 . S
C1223 C1222 1.397 . S
C1223 C1224 1.334 . S
C1224 H1201 0.950 . S
C1224 C1223 1.334 . S
C1224 C1225 1.287 . S
C1225 C1224 1.287 . S
C1225 C1226 1.524 . S
C1225 H1244 0.913 . S
C1226 H1202 0.950 . S
C1226 C1225 1.524 . S
C1226 C1227 1.415 . S
C1227 H1203 0.950 . S
C1227 C1222 1.363 . S
C1227 C1226 1.415 . S
C1228 H1204 0.951 . S
C1228 C1229 1.366 . S
C1228 C1230 1.388 . S
C1229 C1228 1.366 . S
C1229 C1233 1.385 . S
C1230 H1205 0.951 . S
C1230 C1228 1.388 . S
C1230 C1231 1.366 . S
C1231 C1230 1.366 . S
C1231 C1232 1.414 . S
C1231 C1234 1.499 . S
C1232 H1206 0.950 . S
C1232 C1231 1.414 . S
C1232 C1233 1.374 . S
C1233 H1207 0.950 . S
C1233 C1229 1.385 . S
C1233 C1232 1.374 . S
C1234 C1231 1.499 . S
C1234 C1235 1.373 . S
C1234 C1236 1.389 . S
C1235 H1208 0.950 . S
C1235 C1221 1.377 . S
C1235 C1234 1.373 . S
C1236 C1220 1.377 . S
C1236 C1234 1.389 . S
C1236 C1237 1.524 . S
C1237 C1236 1.524 . S
C1237 C1238 1.397 . S
C1237 C1242 1.363 . S
C1238 H1209 0.950 . S
C1238 C1237 1.397 . S
C1238 C1239 1.334 . S
C1239 H1210 0.950 . S
C1239 C1238 1.334 . S
C1239 C1240 1.287 . S
C1240 C1239 1.287 . S
C1240 C1241 1.524 . S
C1240 H1243 0.999 . S
C1241 H1211 0.950 . S
C1241 C1240 1.524 . S
C1241 C1242 1.415 . S
C1242 H1212 0.950 . S
C1242 C1237 1.363 . S
C1242 C1241 1.415 . S
H1243 C1240 0.999 . S
H1244 C1225 0.913 . S
H1245 C1263 0.951 . S
H1246 C1265 0.951 . S
H1247 C1267 0.950 . S
H1248 C1268 0.950 . S
H1249 C1270 0.950 . S
H1250 C1273 0.950 . S
H1251 C1274 0.950 . S
H1252 C1276 0.950 . S
H1253 C1277 0.950 . S
H1254 C1278 0.951 . S
H1255 C1280 0.951 . S
H1256 C1282 0.950 . S
H1257 C1283 0.950 . S
H1258 C1285 0.950 . S
H1259 C1288 0.950 . S
H1260 C1289 0.950 . S
H1261 C1291 0.950 . S
H1262 C1292 0.950 . S
C1263 H1245 0.951 . S
C1263 C1264 1.366 . S
C1263 C1265 1.388 . S
C1264 C1263 1.366 . S
C1264 C1268 1.385 . S
C1265 H1246 0.951 . S
C1265 C1263 1.388 . S
C1265 C1266 1.366 . S
C1266 C1265 1.366 . S
C1266 C1267 1.414 . S
C1266 C1269 1.499 . S
C1267 H1247 0.950 . S
C1267 C1266 1.414 . S
C1267 C1268 1.374 . S
C1268 H1248 0.950 . S
C1268 C1264 1.385 . S
C1268 C1267 1.374 . S
C1269 C1266 1.499 . S
C1269 C1270 1.373 . S
C1269 C1271 1.389 . S
C1270 H1249 0.950 . S
C1270 C1269 1.373 . S
C1270 C1286 1.377 . S
C1271 C1269 1.389 . S
C1271 C1272 1.524 . S
C1271 C1285 1.377 . S
C1272 C1271 1.524 . S
C1272 C1273 1.397 . S
C1272 C1277 1.363 . S
C1273 H1250 0.950 . S
C1273 C1272 1.397 . S
C1273 C1274 1.334 . S
C1274 H1251 0.950 . S
C1274 C1273 1.334 . S
C1274 C1275 1.287 . S
C1275 C1274 1.287 . S
C1275 C1276 1.524 . S
C1275 H1294 0.913 . S
C1276 H1252 0.950 . S
C1276 C1275 1.524 . S
C1276 C1277 1.415 . S
C1277 H1253 0.950 . S
C1277 C1272 1.363 . S
C1277 C1276 1.415 . S
C1278 H1254 0.951 . S
C1278 C1279 1.366 . S
C1278 C1280 1.388 . S
C1279 C1278 1.366 . S
C1279 C1283 1.385 . S
C1280 H1255 0.951 . S
C1280 C1278 1.388 . S
C1280 C1281 1.366 . S
C1281 C1280 1.366 . S
C1281 C1282 1.414 . S
C1281 C1284 1.499 . S
C1282 H1256 0.950 . S
C1282 C1281 1.414 . S
C1282 C1283 1.374 . S
C1283 H1257 0.950 . S
C1283 C1279 1.385 . S
C1283 C1282 1.374 . S
C1284 C1281 1.499 . S
C1284 C1285 1.373 . S
C1284 C1286 1.389 . S
C1285 H1258 0.950 . S
C1285 C1271 1.377 . S
C1285 C1284 1.373 . S
C1286 C1270 1.377 . S
C1286 C1284 1.389 . S
C1286 C1287 1.524 . S
C1287 C1286 1.524 . S
C1287 C1288 1.397 . S
C1287 C1292 1.363 . S
C1288 H1259 0.950 . S
C1288 C1287 1.397 . S
C1288 C1289 1.334 . S
C1289 H1260 0.950 . S
C1289 C1288 1.334 . S
C1289 C1290 1.287 . S
C1290 C1289 1.287 . S
C1290 C1291 1.524 . S
C1290 H1293 0.999 . S
C1291 H1261 0.950 . S
C1291 C1290 1.524 . S
C1291 C1292 1.415 . S
C1292 H1262 0.950 . S
C1292 C1287 1.363 . S
C1292 C1291 1.415 . S
H1293 C1290 0.999 . S
H1294 C1275 0.913 . S
H1295 C1313 0.951 . S
H1296 C1315 0.951 . S
H1297 C1317 0.950 . S
H1298 C1318 0.950 . S
H1299 C1320 0.950 . S
H1300 C1323 0.950 . S
H1301 C1324 0.950 . S
H1302 C1326 0.950 . S
H1303 C1327 0.950 . S
H1304 C1328 0.951 . S
H1305 C1330 0.951 . S
H1306 C1332 0.950 . S
H1307 C1333 0.950 . S
H1308 C1335 0.950 . S
H1309 C1338 0.950 . S
H1310 C1339 0.950 . S
H1311 C1341 0.950 . S
H1312 C1342 0.950 . S
C1313 H1295 0.951 . S
C1313 C1314 1.366 . S
C1313 C1315 1.388 . S
C1314 C1313 1.366 . S
C1314 C1318 1.385 . S
C1315 H1296 0.951 . S
C1315 C1313 1.388 . S
C1315 C1316 1.366 . S
C1316 C1315 1.366 . S
C1316 C1317 1.414 . S
C1316 C1319 1.499 . S
C1317 H1297 0.950 . S
C1317 C1316 1.414 . S
C1317 C1318 1.374 . S
C1318 H1298 0.950 . S
C1318 C1314 1.385 . S
C1318 C1317 1.374 . S
C1319 C1316 1.499 . S
C1319 C1320 1.373 . S
C1319 C1321 1.389 . S
C1320 H1299 0.950 . S
C1320 C1319 1.373 . S
C1320 C1336 1.377 . S
C1321 C1319 1.389 . S
C1321 C1322 1.524 . S
C1321 C1335 1.377 . S
C1322 C1321 1.524 . S
C1322 C1323 1.397 . S
C1322 C1327 1.363 . S
C1323 H1300 0.950 . S
C1323 C1322 1.397 . S
C1323 C1324 1.334 . S
C1324 H1301 0.950 . S
C1324 C1323 1.334 . S
C1324 C1325 1.287 . S
C1325 C1324 1.287 . S
C1325 C1326 1.524 . S
C1325 H1344 0.913 . S
C1326 H1302 0.950 . S
C1326 C1325 1.524 . S
C1326 C1327 1.415 . S
C1327 H1303 0.950 . S
C1327 C1322 1.363 . S
C1327 C1326 1.415 . S
C1328 H1304 0.951 . S
C1328 C1329 1.366 . S
C1328 C1330 1.388 . S
C1329 C1328 1.366 . S
C1329 C1333 1.385 . S
C1330 H1305 0.951 . S
C1330 C1328 1.388 . S
C1330 C1331 1.366 . S
C1331 C1330 1.366 . S
C1331 C1332 1.414 . S
C1331 C1334 1.499 . S
C1332 H1306 0.950 . S
C1332 C1331 1.414 . S
C1332 C1333 1.374 . S
C1333 H1307 0.950 . S
C1333 C1329 1.385 . S
C1333 C1332 1.374 . S
C1334 C1331 1.499 . S
C1334 C1335 1.373 . S
C1334 C1336 1.389 . S
C1335 H1308 0.950 . S
C1335 C1321 1.377 . S
C1335 C1334 1.373 . S
C1336 C1320 1.377 . S
C1336 C1334 1.389 . S
C1336 C1337 1.524 . S
C1337 C1336 1.524 . S
C1337 C1338 1.397 . S
C1337 C1342 1.363 . S
C1338 H1309 0.950 . S
C1338 C1337 1.397 . S
C1338 C1339 1.334 . S
C1339 H1310 0.950 . S
C1339 C1338 1.334 . S
C1339 C1340 1.287 . S
C1340 C1339 1.287 . S
C1340 C1341 1.524 . S
C1340 H1343 0.999 . S
C1341 H1311 0.950 . S
C1341 C1340 1.524 . S
C1341 C1342 1.415 . S
C1342 H1312 0.950 . S
C1342 C1337 1.363 . S
C1342 C1341 1.415 . S
H1343 C1340 0.999 . S
H1344 C1325 0.913 . S
H1345 C1363 0.951 . S
H1346 C1365 0.951 . S
H1347 C1367 0.950 . S
H1348 C1368 0.950 . S
H1349 C1370 0.950 . S
H1350 C1373 0.950 . S
H1351 C1374 0.950 . S
H1352 C1376 0.950 . S
H1353 C1377 0.950 . S
H1354 C1378 0.951 . S
H1355 C1380 0.951 . S
H1356 C1382 0.950 . S
H1357 C1383 0.950 . S
H1358 C1385 0.950 . S
H1359 C1388 0.950 . S
H1360 C1389 0.950 . S
H1361 C1391 0.950 . S
H1362 C1392 0.950 . S
C1363 H1345 0.951 . S
C1363 C1364 1.366 . S
C1363 C1365 1.388 . S
C1364 C1363 1.366 . S
C1364 C1368 1.385 . S
C1365 H1346 0.951 . S
C1365 C1363 1.388 . S
C1365 C1366 1.366 . S
C1366 C1365 1.366 . S
C1366 C1367 1.414 . S
C1366 C1369 1.499 . S
C1367 H1347 0.950 . S
C1367 C1366 1.414 . S
C1367 C1368 1.374 . S
C1368 H1348 0.950 . S
C1368 C1364 1.385 . S
C1368 C1367 1.374 . S
C1369 C1366 1.499 . S
C1369 C1370 1.373 . S
C1369 C1371 1.389 . S
C1370 H1349 0.950 . S
C1370 C1369 1.373 . S
C1370 C1386 1.377 . S
C1371 C1369 1.389 . S
C1371 C1372 1.524 . S
C1371 C1385 1.377 . S
C1372 C1371 1.524 . S
C1372 C1373 1.397 . S
C1372 C1377 1.363 . S
C1373 H1350 0.950 . S
C1373 C1372 1.397 . S
C1373 C1374 1.334 . S
C1374 H1351 0.950 . S
C1374 C1373 1.334 . S
C1374 C1375 1.287 . S
C1375 C1374 1.287 . S
C1375 C1376 1.524 . S
C1375 H1394 0.913 . S
C1376 H1352 0.950 . S
C1376 C1375 1.524 . S
C1376 C1377 1.415 . S
C1377 H1353 0.950 . S
C1377 C1372 1.363 . S
C1377 C1376 1.415 . S
C1378 H1354 0.951 . S
C1378 C1379 1.366 . S
C1378 C1380 1.388 . S
C1379 C1378 1.366 . S
C1379 C1383 1.385 . S
C1380 H1355 0.951 . S
C1380 C1378 1.388 . S
C1380 C1381 1.366 . S
C1381 C1380 1.366 . S
C1381 C1382 1.414 . S
C1381 C1384 1.499 . S
C1382 H1356 0.950 . S
C1382 C1381 1.414 . S
C1382 C1383 1.374 . S
C1383 H1357 0.950 . S
C1383 C1379 1.385 . S
C1383 C1382 1.374 . S
C1384 C1381 1.499 . S
C1384 C1385 1.373 . S
C1384 C1386 1.389 . S
C1385 H1358 0.950 . S
C1385 C1371 1.377 . S
C1385 C1384 1.373 . S
C1386 C1370 1.377 . S
C1386 C1384 1.389 . S
C1386 C1387 1.524 . S
C1387 C1386 1.524 . S
C1387 C1388 1.397 . S
C1387 C1392 1.363 . S
C1388 H1359 0.950 . S
C1388 C1387 1.397 . S
C1388 C1389 1.334 . S
C1389 H1360 0.950 . S
C1389 C1388 1.334 . S
C1389 C1390 1.287 . S
C1390 C1389 1.287 . S
C1390 C1391 1.524 . S
C1390 H1393 0.999 . S
C1391 H1361 0.950 . S
C1391 C1390 1.524 . S
C1391 C1392 1.415 . S
C1392 H1362 0.950 . S
C1392 C1387 1.363 . S
C1392 C1391 1.415 . S
H1393 C1390 0.999 . S
H1394 C1375 0.913 . S
C229 C120 1.427 . S
C214 C6 1.504 . S
C279 C156 1.778 . S
C264 C21 1.886 . S
C329 C121 1.381 . S
C314 C28 1.401 . S
C379 C151 0.973 . S
C364 C45 1.001 . S
C429 C118 1.524 . S
C414 C54 1.601 . S
C464 C69 2.112 . S
C479 C154 2.114 . S
C514 C81 0.429 . S
C529 C123 0.593 . S
C579 C153 1.428 . S
C564 C88 1.482 . S
C629 C157 1.381 . S
C614 C4 1.402 . S
C679 C122 1.528 . S
C664 C18 1.584 . S
C729 C150 1.990 . S
C714 C33 1.974 . S
C779 C119 0.586 . S
C764 C42 0.392 . S
C829 C152 1.845 . S
C814 C57 1.971 . S
C864 C64 1.456 . S
C879 C117 1.442 . S
C914 C78 0.956 . S
C929 C155 0.935 . S
C979 C124 1.421 . S
C964 C93 1.481 . S
C1029 C186 2.081 . S
C1014 C9 2.188 . S
C1064 C52 1.980 . S
C1079 C189 1.868 . S
C1129 C188 2.023 . S
C1114 C66 2.110 . S
C1164 C76 1.221 . S
C1179 C187 1.208 . S
C1229 C190 1.968 . S
C1214 C90 2.064 . S
C1264 C30 2.018 . S
C1279 C184 1.955 . S
C1329 C183 1.207 . S
C1314 C40 1.220 . S
C1364 C16 1.924 . S
C1379 C185 1.804 . S
