# Generated by pormake.
# Topology tsx, (6,3)-cn, num edge types: 1
# Building blocks:
#     Node 0, Type 0, BuildingBlock: JUFBIX_clean_sbu_0, # of connection points: 6
#     Node 1, Type 0, BuildingBlock: JUFBIX_clean_sbu_0, # of connection points: 6
#     Node 2, Type 1, BuildingBlock: PAMTOO_clean_linker_0, # of connection points: 3
#     Node 3, Type 1, BuildingBlock: PAMTOO_clean_linker_0, # of connection points: 3
#     Node 4, Type 1, BuildingBlock: PAMTOO_clean_linker_0, # of connection points: 3
#     Node 5, Type 1, BuildingBlock: PAMTOO_clean_linker_0, # of connection points: 3
#     Edge 6, Type (0, 1), BuildingBlock: CIFDUS_clean_linker_0, # of connection points: 2
#     Edge 7, Type (0, 1), BuildingBlock: CIFDUS_clean_linker_0, # of connection points: 2
#     Edge 8, Type (0, 1), BuildingBlock: CIFDUS_clean_linker_0, # of connection points: 2
#     Edge 9, Type (0, 1), BuildingBlock: CIFDUS_clean_linker_0, # of connection points: 2
#     Edge 10, Type (0, 1), BuildingBlock: CIFDUS_clean_linker_0, # of connection points: 2
#     Edge 11, Type (0, 1), BuildingBlock: CIFDUS_clean_linker_0, # of connection points: 2
#     Edge 12, Type (0, 1), BuildingBlock: CIFDUS_clean_linker_0, # of connection points: 2
#     Edge 13, Type (0, 1), BuildingBlock: CIFDUS_clean_linker_0, # of connection points: 2
#     Edge 14, Type (0, 1), BuildingBlock: CIFDUS_clean_linker_0, # of connection points: 2
#     Edge 15, Type (0, 1), BuildingBlock: CIFDUS_clean_linker_0, # of connection points: 2
#     Edge 16, Type (0, 1), BuildingBlock: CIFDUS_clean_linker_0, # of connection points: 2
#     Edge 17, Type (0, 1), BuildingBlock: CIFDUS_clean_linker_0, # of connection points: 2
# Relax obj value: 0.108
# Max RMSD: 0.126
# Mean RMSD: 0.121
data_MOF--net-tsx--node1-JUFBIX_clean_sbu_0--node2-PAMTOO_clean_linker_0--edge1-CIFDUS_clean_linker_0
_symmetry_space_group_name_H-M    P1
_symmetry_Int_Tables_number       1
_symmetry_cell_setting            triclinic
loop_
_symmetry_equiv_pos_as_xyz
'x, y, z'
_cell_length_a     17.614056
_cell_length_b     20.850526
_cell_length_c     29.568819
_cell_angle_alpha  84.81708
_cell_angle_beta   88.403761
_cell_angle_gamma 101.27524
loop_
_atom_site_label
_atom_site_type_symbol
_atom_site_fract_x
_atom_site_fract_y
_atom_site_fract_z
_atom_type_partial_charge
Co0 Co 0.09583 0.02787 0.97017 0.0
C1 C 1.02971 0.07185 0.89111 0.0
Co2 Co 0.99831 0.07905 -0.0194 0.0
C3 C 0.17234 0.91751 0.96818 0.0
C4 C 0.24063 1.00488 0.93309 0.0
N5 N 0.17317 0.982 0.95732 0.0
N6 N 0.23613 0.89921 0.95155 0.0
C7 C 0.27957 0.95418 0.92966 0.0
H8 H 0.12549 0.88427 -0.01234 0.0
H9 H 0.25948 0.05482 0.91782 0.0
C10 C 0.0646 0.03278 0.05974 0.0
N11 N 0.9224 0.1263 -0.00495 0.0
C12 C 0.86309 0.14249 0.97131 0.0
C13 C 0.92188 0.15807 0.03288 0.0
N14 N 0.82637 0.18319 -0.00706 0.0
C15 C 0.86309 0.19234 0.03184 0.0
C16 C 0.9475 0.94672 -0.02222 0.0
O17 O 0.11036 1.01291 0.03286 0.0
O18 O 1.01233 0.06097 0.04353 0.0
O19 O 0.92308 0.99949 -0.01772 0.0
O20 O 1.01995 0.94914 0.97267 0.0
O21 O 0.98584 0.09541 0.91721 0.0
H22 H 0.96347 0.15867 0.0591 0.0
H23 H 0.84949 0.12732 0.93793 0.0
O24 O 0.08079 0.04235 0.90769 0.0
O25 O 0.17023 0.10786 0.96808 0.0
O26 O 0.07384 0.15795 -0.02103 0.0
C27 C 0.14619 0.16041 -0.02658 0.0
H28 H 0.33406 0.95697 0.911 0.0
H29 H 0.84964 0.22289 0.05744 0.0
Co30 Co 0.60095 0.52751 0.48725 0.0
C31 C 0.57066 0.57938 0.39999 0.0
Co32 Co 0.51185 0.58914 0.48388 0.0
C33 C 0.68542 0.41949 0.49396 0.0
C34 C 0.75539 0.5118 0.46757 0.0
N35 N 0.68357 0.48394 0.48487 0.0
N36 N 0.75528 0.40636 0.48247 0.0
C37 C 0.79941 0.46454 0.46621 0.0
H38 H 0.63552 0.38241 0.50647 0.0
H39 H 0.77402 0.5629 0.4548 0.0
C40 C 0.54261 0.53798 0.57101 0.0
N41 N 0.42914 0.63139 0.48622 0.0
C42 C 0.41736 0.68762 0.46375 0.0
C43 C 0.36325 0.60739 0.5115 0.0
N44 N 0.34616 0.69953 0.47391 0.0
C45 C 0.31238 0.64864 0.50398 0.0
C46 C 0.45813 0.45349 0.47825 0.0
O47 O 0.59032 0.51014 0.55115 0.0
O48 O 0.50421 0.57367 0.5479 0.0
O49 O 0.44082 0.50967 0.47869 0.0
O50 O 0.52843 0.44814 0.48147 0.0
O51 O 0.52102 0.60482 0.42019 0.0
H52 H 0.35223 0.56183 0.53344 0.0
H53 H 0.46024 0.71853 0.44023 0.0
O54 O 0.61071 0.54493 0.42307 0.0
O55 O 0.67184 0.60815 0.49392 0.0
O56 O 0.58275 0.66833 0.48881 0.0
C57 C 0.65304 0.66407 0.49367 0.0
H58 H 0.85884 0.4722 0.45314 0.0
H59 H 0.25419 0.64014 0.51894 0.0
H60 H 0.1065 0.93791 0.32884 0.0
H61 H 0.99514 0.10207 0.34394 0.0
H62 H 0.06419 0.99594 0.46125 0.0
H63 H 0.91129 0.05573 0.48034 0.0
C64 C 0.92029 0.08385 0.44629 0.0
O65 O 0.99758 0.09271 0.43246 0.0
H66 H 0.88246 0.05545 0.42241 0.0
C67 C 0.0854 0.97121 0.34991 0.0
C68 C 0.09151 0.96224 0.39706 0.0
C69 C 0.05014 0.0211 0.33009 0.0
C70 C 1.02105 0.06232 0.35837 0.0
C71 C 1.02508 0.05249 0.40563 0.0
C72 C 0.05997 1.00244 0.42485 0.0
H73 H 0.13335 0.20098 0.61833 0.0
H74 H 0.94633 0.03365 0.6173 0.0
H75 H 0.11147 0.08601 0.50419 0.0
H76 H 1.01856 0.93503 0.59179 0.0
C77 C 1.01108 0.93949 0.55442 0.0
O78 O 0.9911 0.99888 0.54066 0.0
H79 H 0.06707 0.93714 0.53701 0.0
C80 C 0.10071 0.16161 0.60095 0.0
C81 C 0.12744 0.15023 0.55785 0.0
C82 C 0.03581 0.11941 0.62302 0.0
C83 C 0.99588 0.06742 0.60056 0.0
C84 C 1.02381 0.0546 0.55832 0.0
C85 C 0.08914 0.09644 0.53661 0.0
H86 H 0.56546 0.38661 0.84715 0.0
H87 H 0.4358 0.54192 0.84395 0.0
H88 H 0.52907 0.47914 0.96772 0.0
H89 H 0.38741 0.54051 -0.01575 0.0
C90 C 0.38775 0.56327 0.94896 0.0
O91 O 0.45897 0.5656 0.92756 0.0
H92 H 0.34122 0.53313 0.93072 0.0
C93 C 0.53766 0.41981 0.86475 0.0
C94 C 0.54843 0.42418 0.91136 0.0
C95 C 0.49773 0.46215 0.83975 0.0
C96 C 0.46659 0.5084 0.8623 0.0
C97 C 0.47861 0.51449 0.90826 0.0
C98 C 0.51886 0.47238 0.93266 0.0
H99 H 0.68521 0.66301 0.1233 0.0
H100 H 0.57246 0.45946 0.1355 0.0
H101 H 0.6023 0.57131 0.00454 0.0
H102 H 0.43868 0.4935 0.04638 0.0
C103 C 0.45864 0.4473 0.05711 0.0
O104 O 0.53829 0.45769 0.05081 0.0
H105 H 0.44211 0.43391 0.09382 0.0
C106 C 0.65737 0.61984 0.10773 0.0
C107 C 0.64903 0.62365 0.06065 0.0
C108 C 0.63053 0.56077 0.13486 0.0
C109 C 0.59562 0.50495 0.11463 0.0
C110 C 0.58335 0.50903 0.06803 0.0
C111 C 0.61131 0.56817 0.04069 0.0
H112 H 0.30205 0.17867 -0.01479 0.0
H113 H 0.11308 0.2825 0.972 0.0
H114 H 0.19701 0.38258 -0.00856 0.0
H115 H 0.31798 0.43637 0.02172 0.0
H116 H 0.50644 0.3333 0.03827 0.0
H117 H 0.42916 0.23729 0.0078 0.0
C118 C 0.27971 0.22354 -0.01426 0.0
C119 C 0.2011 0.22283 -0.02228 0.0
C120 C 0.328 0.28088 -0.00206 0.0
C121 C 0.17306 0.28141 -0.02148 0.0
C122 C 0.22097 0.33872 -0.01028 0.0
C123 C 0.3429 0.39357 0.0174 0.0
C124 C 0.4181 0.39231 0.03142 0.0
C125 C 0.29765 0.3384 0.00089 0.0
C126 C 0.44897 0.33577 0.02706 0.0
C127 C 0.40463 0.28078 0.00989 0.0
H128 H 0.37515 0.8645 0.95644 0.0
H129 H 0.13076 0.78642 0.94996 0.0
H130 H 0.15623 0.67549 0.94888 0.0
H131 H 0.24855 0.60089 0.94759 0.0
H132 H 0.49253 0.6782 0.95737 0.0
H133 H 0.46698 0.78901 0.95926 0.0
C134 C 0.32767 0.82311 0.9547 0.0
C135 C 0.2513 0.83364 0.95309 0.0
C136 C 0.34277 0.75942 0.95432 0.0
C137 C 0.18999 0.77951 0.95163 0.0
C138 C 0.20457 0.71614 0.95073 0.0
C139 C 0.29602 0.64219 0.9498 0.0
C140 C 0.37245 0.6318 0.95048 0.0
C141 C 0.28076 0.70558 0.95168 0.0
C142 C 0.43337 0.68525 0.95515 0.0
C143 C 0.41877 0.74858 0.95649 0.0
H144 H 0.79337 0.91825 0.0033 0.0
H145 H 0.98112 0.82971 0.9589 0.0
H146 H 0.89891 0.72094 -0.02701 0.0
H147 H 0.77984 0.65003 0.00777 0.0
H148 H 0.59506 0.73718 0.05674 0.0
H149 H 0.66859 0.84712 0.03006 0.0
C150 C 0.81584 0.87524 -0.00398 0.0
C151 C 0.89366 0.88216 -0.01921 0.0
C152 C 0.76855 0.8124 0.00497 0.0
C153 C 0.92178 0.82586 0.9713 0.0
C154 C 0.87476 0.76348 -0.02074 0.0
C155 C 0.75494 0.69315 0.01105 0.0
C156 C 0.68234 0.68614 0.0336 0.0
C157 C 0.7989 0.75602 -0.00261 0.0
C158 C 0.65074 0.74196 0.03887 0.0
C159 C 0.69309 0.80466 0.02409 0.0
H160 H 0.80488 0.30222 0.01213 0.0
H161 H 0.71326 0.13937 0.93629 0.0
H162 H 0.61342 0.1974 0.90749 0.0
H163 H 0.55549 0.29605 0.90223 0.0
H164 H 0.65441 0.46079 -0.02494 0.0
H165 H 0.74528 0.39857 0.00879 0.0
C166 C 0.76241 0.27874 -0.01008 0.0
C167 C 0.76646 0.21634 -0.02351 0.0
C168 C 0.70584 0.31243 -0.02655 0.0
C169 C 0.71188 0.18756 0.94677 0.0
C170 C 0.65459 0.22057 0.93056 0.0
C171 C 0.59708 0.31851 0.92536 0.0
C172 C 0.59792 0.38335 0.9358 0.0
C173 C 0.65159 0.28337 0.94332 0.0
C174 C 0.65115 0.41084 0.96677 0.0
C175 C 0.70405 0.37555 -0.01431 0.0
H176 H 0.79731 0.66697 0.52403 0.0
H177 H 0.64093 0.79308 0.47969 0.0
H178 H 0.73764 0.88981 0.49352 0.0
H179 H 0.86549 0.93816 0.51948 0.0
H180 H 1.01917 0.8115 0.56712 0.0
H181 H 0.92424 0.71506 0.55072 0.0
C182 C 0.78446 0.71563 0.51713 0.0
C183 C 0.71212 0.72282 0.50073 0.0
C184 C 0.8397 0.77082 0.52586 0.0
C185 C 0.69617 0.78619 0.49239 0.0
C186 C 0.75141 0.84152 0.5003 0.0
C187 C 0.87854 0.88961 0.52616 0.0
C188 C 0.94997 0.88191 0.54394 0.0
C189 C 0.82323 0.83439 0.51726 0.0
C190 C 0.96489 0.81841 0.55302 0.0
C191 C 0.91073 0.76341 0.54368 0.0
H192 H 0.85083 0.37094 0.4215 0.0
H193 H 0.70655 0.29912 0.54263 0.0
H194 H 0.74567 0.1924 0.54276 0.0
H195 H 0.82263 0.12015 0.50828 0.0
H196 H 0.96319 0.19332 0.38576 0.0
H197 H 0.9246 0.29932 0.38654 0.0
C198 C 0.82858 0.33223 0.44825 0.0
C199 C 0.77662 0.34311 0.48234 0.0
C200 C 0.85104 0.27143 0.4479 0.0
C201 C 0.74651 0.29178 0.516 0.0
C202 C 0.76913 0.23098 0.51615 0.0
C203 C 0.84508 0.15962 0.48203 0.0
C204 C 0.89735 0.1496 0.44773 0.0
C205 C 0.82165 0.22034 0.48232 0.0
C206 C 0.92441 0.20034 0.41312 0.0
C207 C 0.90212 0.26087 0.41343 0.0
H208 H 0.45593 0.32893 0.51549 0.0
H209 H 0.31738 0.44946 0.44278 0.0
H210 H 0.20323 0.36142 0.45601 0.0
H211 H 0.13907 0.25624 0.4972 0.0
H212 H 0.27467 0.13859 0.5744 0.0
H213 H 0.39371 0.2186 0.55038 0.0
C214 C 0.40117 0.3351 0.50159 0.0
C215 C 0.39483 0.39555 0.47846 0.0
C216 C 0.33501 0.285 0.51068 0.0
C217 C 0.32342 0.40337 0.46098 0.0
C218 C 0.25806 0.35318 0.46865 0.0
C219 C 0.19511 0.2478 0.50775 0.0
C220 C 0.19908 0.19223 0.53721 0.0
C221 C 0.26255 0.29476 0.49482 0.0
C222 C 0.27119 0.18135 0.55144 0.0
C223 C 0.33891 0.2271 0.53789 0.0
H224 H 0.21176 0.73047 0.50328 0.0
H225 H 0.40124 0.79147 0.40266 0.0
H226 H 0.34014 0.87935 0.37098 0.0
H227 H 0.23113 0.9377 0.37061 0.0
H228 H 0.03795 0.86995 0.46682 0.0
H229 H 0.10222 0.78481 0.50127 0.0
C230 C 0.24 0.76199 0.47414 0.0
C231 C 0.31138 0.75312 0.45554 0.0
C232 C 0.20374 0.81152 0.4553 0.0
C233 C 0.34679 0.79652 0.41823 0.0
C234 C 0.3116 0.84689 0.39978 0.0
C235 C 0.20322 0.90409 0.39907 0.0
C236 C 0.13064 0.91057 0.41707 0.0
C237 C 0.23984 0.85454 0.41787 0.0
C238 C 0.09487 0.86691 0.45375 0.0
C239 C 0.13126 0.81807 0.473 0.0
H240 H 0.96302 0.05202 0.12497 0.0
H241 H 0.18605 0.99936 0.10548 0.0
H242 H 0.20268 0.99426 0.18744 0.0
H243 H 0.15471 1.00655 0.26403 0.0
H244 H 0.92788 0.05231 0.28365 0.0
H245 H 0.91323 0.06063 0.20172 0.0
C246 C 1.01525 0.03928 0.13862 0.0
C247 C 0.07327 0.02613 0.10926 0.0
C248 C 1.02422 0.03614 0.1856 0.0
C249 C 0.14039 1.00938 0.12745 0.0
C250 C 0.15009 1.00677 0.17424 0.0
C251 C 0.10157 1.01753 0.25055 0.0
C252 C 0.04251 0.02873 0.28012 0.0
C253 C 0.09242 1.02021 0.20356 0.0
C254 C 0.9749 0.04451 0.26177 0.0
C255 C 0.96606 0.0486 0.21493 0.0
H256 H 1.01465 0.17373 0.82931 0.0
H257 H 1.01717 0.9665 0.84476 0.0
H258 H 1.00916 0.96181 0.76299 0.0
H259 H 1.0152 1.01787 0.68732 0.0
H260 H 1.02345 0.22658 0.66863 0.0
H261 H 1.01374 0.22993 0.7514 0.0
C262 C 1.01223 0.12767 0.81451 0.0
C263 C 1.01676 0.07057 0.84249 0.0
C264 C 1.01032 0.12579 0.76708 0.0
C265 C 1.01437 1.01103 0.82345 0.0
C266 C 1.00977 1.0083 0.77684 0.0
C267 C 1.01275 0.06386 0.70125 0.0
C268 C 1.01919 0.12174 0.67209 0.0
C269 C 1.00958 0.06557 0.74834 0.0
C270 C 1.01838 0.18136 0.69063 0.0
C271 C 1.01299 0.18324 0.73783 0.0
H272 H 0.52434 0.42801 0.62986 0.0
H273 H 0.54108 0.63781 0.6221 0.0
H274 H 0.52666 0.6327 0.7048 0.0
H275 H 0.51375 0.56952 0.7786 0.0
H276 H 0.48349 0.35803 0.78754 0.0
H277 H 0.4993 0.36281 0.70487 0.0
C278 C 0.52501 0.47233 0.64658 0.0
C279 C 0.53456 0.53323 0.62057 0.0
C280 C 0.51417 0.46873 0.69402 0.0
C281 C 0.53396 0.59051 0.64192 0.0
C282 C 0.52568 0.58761 0.68902 0.0
C283 C 0.50839 0.5241 0.76268 0.0
C284 C 0.49761 0.46355 0.78946 0.0
C285 C 0.51578 0.52702 0.71534 0.0
C286 C 0.49297 0.40551 0.76786 0.0
C287 C 0.50177 0.40812 0.72058 0.0
H288 H 0.6412 0.50734 0.34698 0.0
H289 H 0.52131 0.66961 0.34127 0.0
H290 H 0.53419 0.68066 0.25826 0.0
H291 H 0.57473 0.64115 0.18754 0.0
H292 H 0.68765 0.47507 0.19315 0.0
H293 H 0.68253 0.46843 0.2764 0.0
C294 C 0.61836 0.54544 0.32758 0.0
C295 C 0.58042 0.58765 0.35009 0.0
C296 C 0.62464 0.55063 0.28005 0.0
C297 C 0.5505 0.63639 0.3246 0.0
C298 C 0.55792 0.64278 0.27722 0.0
C299 C 0.59909 0.60414 0.20713 0.0
C300 C 0.63206 0.55895 0.18471 0.0
C301 C 0.59427 0.59982 0.25466 0.0
C302 C 0.66211 0.51027 0.21006 0.0
C303 C 0.65914 0.50652 0.25745 0.0
loop_
_geom_bond_atom_site_label_1
_geom_bond_atom_site_label_2
_geom_bond_distance
_geom_bond_site_symmetry_2
_ccdc_geom_bond_type
Co0 N5 2.057 . S
Co0 O17 2.021 . S
Co0 O20 2.062 1_455 S
Co0 O24 2.117 1_564 S
Co0 O25 2.020 1_565 S
C1 O21 1.259 1_455 S
C1 O24 1.258 . S
Co2 N11 2.057 . S
Co2 O18 2.117 . S
Co2 O19 2.020 1_545 S
Co2 O21 2.021 1_554 S
Co2 O26 2.061 1_655 S
C3 N5 1.316 . S
C3 N6 1.347 . S
C3 H8 0.931 . S
C4 N5 1.375 1_556 S
C4 C7 1.350 . S
C4 H9 0.930 . S
N5 Co0 2.057 . S
N5 C3 1.316 . S
N5 C4 1.375 1_554 S
N6 C3 1.347 . S
N6 C7 1.373 1_554 S
C7 C4 1.350 . S
C7 N6 1.373 1_556 S
C7 H28 0.931 . S
H8 C3 0.931 . S
H9 C4 0.930 . S
C10 O17 1.259 1_545 S
C10 O18 1.258 1_455 S
N11 Co2 2.057 . S
N11 C12 1.316 1_554 S
N11 C13 1.375 . S
C12 N11 1.316 1_556 S
C12 N14 1.347 1_556 S
C12 H23 0.931 . S
C13 N11 1.375 . S
C13 C15 1.350 . S
C13 H22 0.930 . S
N14 C12 1.347 1_554 S
N14 C15 1.373 . S
C15 C13 1.350 . S
C15 N14 1.373 . S
C15 H29 0.931 . S
C16 O19 1.256 . S
C16 O20 1.255 . S
O17 Co0 2.021 . S
O17 C10 1.259 1_565 S
O18 Co2 2.117 . S
O18 C10 1.258 1_655 S
O19 Co2 2.020 1_565 S
O19 C16 1.256 . S
O20 Co0 2.062 1_655 S
O20 C16 1.255 . S
O21 C1 1.259 1_655 S
O21 Co2 2.021 1_556 S
H22 C13 0.930 . S
H23 C12 0.931 . S
O24 Co0 2.117 1_546 S
O24 C1 1.258 . S
O25 Co0 2.020 1_545 S
O25 C27 1.256 . S
O26 Co2 2.061 1_455 S
O26 C27 1.256 . S
C27 O25 1.256 . S
C27 O26 1.256 . S
H28 C7 0.931 . S
H29 C15 0.931 . S
Co30 N35 2.057 . S
Co30 O47 2.021 . S
Co30 O50 2.062 . S
Co30 O54 2.117 . S
Co30 O55 2.020 . S
C31 O51 1.259 . S
C31 O54 1.258 . S
Co32 N41 2.057 . S
Co32 O48 2.117 . S
Co32 O49 2.020 . S
Co32 O51 2.021 . S
Co32 O56 2.062 . S
C33 N35 1.316 . S
C33 N36 1.347 . S
C33 H38 0.931 . S
C34 N35 1.375 . S
C34 C37 1.350 . S
C34 H39 0.930 . S
N35 Co30 2.057 . S
N35 C33 1.316 . S
N35 C34 1.375 . S
N36 C33 1.347 . S
N36 C37 1.373 . S
C37 C34 1.350 . S
C37 N36 1.373 . S
C37 H58 0.931 . S
H38 C33 0.931 . S
H39 C34 0.930 . S
C40 O47 1.259 . S
C40 O48 1.258 . S
N41 Co32 2.057 . S
N41 C42 1.316 . S
N41 C43 1.375 . S
C42 N41 1.316 . S
C42 N44 1.347 . S
C42 H53 0.931 . S
C43 N41 1.375 . S
C43 C45 1.350 . S
C43 H52 0.930 . S
N44 C42 1.347 . S
N44 C45 1.373 . S
C45 C43 1.350 . S
C45 N44 1.373 . S
C45 H59 0.931 . S
C46 O49 1.256 . S
C46 O50 1.255 . S
O47 Co30 2.021 . S
O47 C40 1.259 . S
O48 Co32 2.117 . S
O48 C40 1.258 . S
O49 Co32 2.020 . S
O49 C46 1.256 . S
O50 Co30 2.062 . S
O50 C46 1.255 . S
O51 C31 1.259 . S
O51 Co32 2.021 . S
H52 C43 0.930 . S
H53 C42 0.931 . S
O54 Co30 2.117 . S
O54 C31 1.258 . S
O55 Co30 2.020 . S
O55 C57 1.256 . S
O56 Co32 2.062 . S
O56 C57 1.255 . S
C57 O55 1.256 . S
C57 O56 1.255 . S
H58 C37 0.931 . S
H59 C45 0.931 . S
H60 C67 0.929 . S
H61 C70 0.930 . S
H62 C72 0.929 . S
H63 C64 0.969 . S
C64 H63 0.969 . S
C64 O65 1.550 . S
C64 H66 0.973 . S
O65 C64 1.550 . S
O65 C71 1.412 . S
H66 C64 0.973 . S
C67 H60 0.929 . S
C67 C68 1.400 . S
C67 C69 1.364 . S
C68 C67 1.400 . S
C68 C72 1.377 . S
C69 C67 1.364 . S
C69 C70 1.374 1_465 S
C70 H61 0.930 . S
C70 C69 1.374 1_645 S
C70 C71 1.383 . S
C71 O65 1.412 . S
C71 C70 1.383 . S
C71 C72 1.394 1_645 S
C72 H62 0.929 . S
C72 C68 1.377 . S
C72 C71 1.394 1_465 S
H73 C80 0.929 . S
H74 C83 0.930 1_565 S
H75 C85 0.929 . S
H76 C77 0.969 . S
C77 H76 0.969 . S
C77 O78 1.550 . S
C77 H79 0.973 . S
O78 C77 1.550 . S
O78 C84 1.412 1_565 S
H79 C77 0.973 . S
C80 H73 0.929 . S
C80 C81 1.400 . S
C80 C82 1.364 . S
C81 C80 1.400 . S
C81 C85 1.377 . S
C82 C80 1.364 . S
C82 C83 1.374 1_455 S
C83 H74 0.930 1_545 S
C83 C82 1.374 1_655 S
C83 C84 1.383 . S
C84 O78 1.412 1_545 S
C84 C83 1.383 . S
C84 C85 1.394 1_655 S
C85 H75 0.929 . S
C85 C81 1.377 . S
C85 C84 1.394 1_455 S
H86 C93 0.929 . S
H87 C96 0.930 . S
H88 C98 0.929 1_554 S
H89 C90 0.969 . S
C90 H89 0.969 . S
C90 O91 1.550 . S
C90 H92 0.973 . S
O91 C90 1.550 . S
O91 C97 1.412 . S
H92 C90 0.973 . S
C93 H86 0.929 . S
C93 C94 1.400 . S
C93 C95 1.364 . S
C94 C93 1.400 . S
C94 C98 1.377 . S
C95 C93 1.364 . S
C95 C96 1.374 . S
C96 H87 0.930 . S
C96 C95 1.374 . S
C96 C97 1.383 . S
C97 O91 1.412 . S
C97 C96 1.383 . S
C97 C98 1.394 . S
C98 H88 0.929 1_556 S
C98 C94 1.377 . S
C98 C97 1.394 . S
H99 C106 0.929 . S
H100 C109 0.930 . S
H101 C111 0.929 1_556 S
H102 C103 0.969 . S
C103 H102 0.969 . S
C103 O104 1.550 . S
C103 H105 0.973 . S
O104 C103 1.550 . S
O104 C110 1.412 . S
H105 C103 0.973 . S
C106 H99 0.929 . S
C106 C107 1.400 . S
C106 C108 1.364 . S
C107 C106 1.400 . S
C107 C111 1.377 . S
C108 C106 1.364 . S
C108 C109 1.374 . S
C109 H100 0.930 . S
C109 C108 1.374 . S
C109 C110 1.383 . S
C110 O104 1.412 . S
C110 C109 1.383 . S
C110 C111 1.394 . S
C111 H101 0.929 1_554 S
C111 C107 1.377 . S
C111 C110 1.394 . S
H112 C118 0.930 . S
H113 C121 0.930 . S
H114 C122 0.930 . S
H115 C123 0.930 . S
H116 C126 0.930 . S
H117 C127 0.930 . S
C118 H112 0.930 . S
C118 C119 1.355 . S
C118 C120 1.415 . S
C119 C118 1.355 . S
C119 C121 1.419 1_554 S
C120 C118 1.415 . S
C120 C125 1.425 1_554 S
C120 C127 1.409 . S
C121 H113 0.930 . S
C121 C119 1.419 1_556 S
C121 C122 1.362 . S
C122 H114 0.930 . S
C122 C121 1.362 . S
C122 C125 1.409 . S
C123 H115 0.930 . S
C123 C124 1.355 1_556 S
C123 C125 1.415 . S
C124 C123 1.355 1_554 S
C124 C126 1.419 . S
C125 C120 1.425 1_556 S
C125 C122 1.409 . S
C125 C123 1.415 . S
C126 H116 0.930 . S
C126 C124 1.419 . S
C126 C127 1.362 . S
C127 H117 0.930 . S
C127 C120 1.409 . S
C127 C126 1.362 . S
H128 C134 0.930 . S
H129 C137 0.930 . S
H130 C138 0.930 . S
H131 C139 0.930 . S
H132 C142 0.930 . S
H133 C143 0.930 . S
C134 H128 0.930 . S
C134 C135 1.355 . S
C134 C136 1.415 . S
C135 C134 1.355 . S
C135 C137 1.419 . S
C136 C134 1.415 . S
C136 C141 1.425 . S
C136 C143 1.409 . S
C137 H129 0.930 . S
C137 C135 1.419 . S
C137 C138 1.362 1_554 S
C138 H130 0.930 . S
C138 C137 1.362 1_556 S
C138 C141 1.409 1_556 S
C139 H131 0.930 . S
C139 C140 1.355 1_556 S
C139 C141 1.415 1_556 S
C140 C139 1.355 1_554 S
C140 C142 1.419 . S
C141 C136 1.425 . S
C141 C138 1.409 1_554 S
C141 C139 1.415 1_554 S
C142 H132 0.930 . S
C142 C140 1.419 . S
C142 C143 1.362 . S
C143 H133 0.930 . S
C143 C136 1.409 . S
C143 C142 1.362 . S
H144 C150 0.930 . S
H145 C153 0.930 1_556 S
H146 C154 0.926 1_556 S
H147 C155 0.930 . S
H148 C158 0.930 . S
H149 C159 0.930 . S
C150 H144 0.930 . S
C150 C151 1.355 . S
C150 C152 1.415 . S
C151 C150 1.355 . S
C151 C153 1.419 . S
C152 C150 1.415 . S
C152 C157 1.425 . S
C152 C159 1.409 . S
C153 H145 0.930 1_554 S
C153 C151 1.419 . S
C153 C154 1.362 . S
C154 H146 0.926 1_554 S
C154 C153 1.362 . S
C154 C157 1.409 . S
C155 H147 0.930 . S
C155 C156 1.355 . S
C155 C157 1.415 . S
C156 C155 1.355 . S
C156 C158 1.419 . S
C157 C152 1.425 . S
C157 C154 1.409 . S
C157 C155 1.415 . S
C158 H148 0.930 . S
C158 C156 1.419 . S
C158 C159 1.362 . S
C159 H149 0.930 . S
C159 C152 1.409 . S
C159 C158 1.362 . S
H160 C166 0.930 . S
H161 C169 0.930 . S
H162 C170 0.930 . S
H163 C171 0.930 . S
H164 C174 0.930 . S
H165 C175 0.930 . S
C166 H160 0.930 . S
C166 C167 1.355 1_554 S
C166 C168 1.415 . S
C167 C166 1.355 1_556 S
C167 C169 1.419 . S
C168 C166 1.415 . S
C168 C173 1.425 1_554 S
C168 C175 1.409 . S
C169 H161 0.930 . S
C169 C167 1.419 . S
C169 C170 1.362 . S
C170 H162 0.930 . S
C170 C169 1.362 . S
C170 C173 1.409 . S
C171 H163 0.930 . S
C171 C172 1.355 . S
C171 C173 1.415 . S
C172 C171 1.355 . S
C172 C174 1.419 1_556 S
C173 C168 1.425 1_556 S
C173 C170 1.409 . S
C173 C171 1.415 . S
C174 H164 0.930 . S
C174 C172 1.419 1_554 S
C174 C175 1.362 . S
C175 H165 0.930 . S
C175 C168 1.409 . S
C175 C174 1.362 . S
H176 C182 0.930 . S
H177 C185 0.930 . S
H178 C186 0.930 . S
H179 C187 0.930 . S
H180 C190 0.930 . S
H181 C191 0.930 . S
C182 H176 0.930 . S
C182 C183 1.355 . S
C182 C184 1.415 . S
C183 C182 1.355 . S
C183 C185 1.419 . S
C184 C182 1.415 . S
C184 C189 1.425 . S
C184 C191 1.409 . S
C185 H177 0.930 . S
C185 C183 1.419 . S
C185 C186 1.362 . S
C186 H178 0.930 . S
C186 C185 1.362 . S
C186 C189 1.409 . S
C187 H179 0.930 . S
C187 C188 1.355 . S
C187 C189 1.415 . S
C188 C187 1.355 . S
C188 C190 1.419 . S
C189 C184 1.425 . S
C189 C186 1.409 . S
C189 C187 1.415 . S
C190 H180 0.930 . S
C190 C188 1.419 . S
C190 C191 1.362 . S
C191 H181 0.930 . S
C191 C184 1.409 . S
C191 C190 1.362 . S
H192 C198 0.930 . S
H193 C201 0.930 . S
H194 C202 0.930 . S
H195 C203 0.930 . S
H196 C206 0.930 . S
H197 C207 0.930 . S
C198 H192 0.930 . S
C198 C199 1.355 . S
C198 C200 1.415 . S
C199 C198 1.355 . S
C199 C201 1.419 . S
C200 C198 1.415 . S
C200 C205 1.425 . S
C200 C207 1.409 . S
C201 H193 0.930 . S
C201 C199 1.419 . S
C201 C202 1.362 . S
C202 H194 0.930 . S
C202 C201 1.362 . S
C202 C205 1.409 . S
C203 H195 0.930 . S
C203 C204 1.355 . S
C203 C205 1.415 . S
C204 C203 1.355 . S
C204 C206 1.419 . S
C205 C200 1.425 . S
C205 C202 1.409 . S
C205 C203 1.415 . S
C206 H196 0.930 . S
C206 C204 1.419 . S
C206 C207 1.362 . S
C207 H197 0.930 . S
C207 C200 1.409 . S
C207 C206 1.362 . S
H208 C214 0.930 . S
H209 C217 0.930 . S
H210 C218 0.930 . S
H211 C219 0.930 . S
H212 C222 0.930 . S
H213 C223 0.930 . S
C214 H208 0.930 . S
C214 C215 1.355 . S
C214 C216 1.415 . S
C215 C214 1.355 . S
C215 C217 1.419 . S
C216 C214 1.415 . S
C216 C221 1.425 . S
C216 C223 1.409 . S
C217 H209 0.930 . S
C217 C215 1.419 . S
C217 C218 1.362 . S
C218 H210 0.930 . S
C218 C217 1.362 . S
C218 C221 1.409 . S
C219 H211 0.930 . S
C219 C220 1.355 . S
C219 C221 1.415 . S
C220 C219 1.355 . S
C220 C222 1.419 . S
C221 C216 1.425 . S
C221 C218 1.409 . S
C221 C219 1.415 . S
C222 H212 0.930 . S
C222 C220 1.419 . S
C222 C223 1.362 . S
C223 H213 0.930 . S
C223 C216 1.409 . S
C223 C222 1.362 . S
H224 C230 0.930 . S
H225 C233 0.930 . S
H226 C234 0.930 . S
H227 C235 0.930 . S
H228 C238 0.930 . S
H229 C239 0.930 . S
C230 H224 0.930 . S
C230 C231 1.355 . S
C230 C232 1.415 . S
C231 C230 1.355 . S
C231 C233 1.419 . S
C232 C230 1.415 . S
C232 C237 1.425 . S
C232 C239 1.409 . S
C233 H225 0.930 . S
C233 C231 1.419 . S
C233 C234 1.362 . S
C234 H226 0.930 . S
C234 C233 1.362 . S
C234 C237 1.409 . S
C235 H227 0.930 . S
C235 C236 1.355 . S
C235 C237 1.415 . S
C236 C235 1.355 . S
C236 C238 1.419 . S
C237 C232 1.425 . S
C237 C234 1.409 . S
C237 C235 1.415 . S
C238 H228 0.930 . S
C238 C236 1.419 . S
C238 C239 1.362 . S
C239 H229 0.930 . S
C239 C232 1.409 . S
C239 C238 1.362 . S
H240 C246 0.930 . S
H241 C249 0.930 . S
H242 C250 0.930 . S
H243 C251 0.930 . S
H244 C254 0.930 . S
H245 C255 0.930 . S
C246 H240 0.930 . S
C246 C247 1.355 1_665 S
C246 C248 1.415 . S
C247 C246 1.355 1_445 S
C247 C249 1.419 . S
C248 C246 1.415 . S
C248 C253 1.425 1_665 S
C248 C255 1.409 . S
C249 H241 0.930 . S
C249 C247 1.419 . S
C249 C250 1.362 . S
C250 H242 0.930 . S
C250 C249 1.362 . S
C250 C253 1.409 . S
C251 H243 0.930 . S
C251 C252 1.355 1_545 S
C251 C253 1.415 . S
C252 C251 1.355 1_565 S
C252 C254 1.419 1_455 S
C253 C248 1.425 1_445 S
C253 C250 1.409 . S
C253 C251 1.415 . S
C254 H244 0.930 . S
C254 C252 1.419 1_655 S
C254 C255 1.362 . S
C255 H245 0.930 . S
C255 C248 1.409 . S
C255 C254 1.362 . S
H256 C262 0.930 1_655 S
H257 C265 0.930 . S
H258 C266 0.930 . S
H259 C267 0.930 1_565 S
H260 C270 0.930 . S
H261 C271 0.930 . S
C262 H256 0.930 1_455 S
C262 C263 1.355 . S
C262 C264 1.415 . S
C263 C262 1.355 . S
C263 C265 1.419 1_545 S
C264 C262 1.415 . S
C264 C269 1.425 . S
C264 C271 1.409 1_455 S
C265 H257 0.930 . S
C265 C263 1.419 1_565 S
C265 C266 1.362 . S
C266 H258 0.930 . S
C266 C265 1.362 . S
C266 C269 1.409 1_565 S
C267 H259 0.930 1_545 S
C267 C268 1.355 . S
C267 C269 1.415 . S
C268 C267 1.355 . S
C268 C270 1.419 1_455 S
C269 C264 1.425 . S
C269 C266 1.409 1_545 S
C269 C267 1.415 . S
C270 H260 0.930 . S
C270 C268 1.419 1_655 S
C270 C271 1.362 . S
C271 H261 0.930 . S
C271 C264 1.409 1_655 S
C271 C270 1.362 . S
H272 C278 0.930 . S
H273 C281 0.930 . S
H274 C282 0.930 . S
H275 C283 0.930 . S
H276 C286 0.930 . S
H277 C287 0.930 . S
C278 H272 0.930 . S
C278 C279 1.355 . S
C278 C280 1.415 . S
C279 C278 1.355 . S
C279 C281 1.419 . S
C280 C278 1.415 . S
C280 C285 1.425 . S
C280 C287 1.409 . S
C281 H273 0.930 . S
C281 C279 1.419 . S
C281 C282 1.362 . S
C282 H274 0.930 . S
C282 C281 1.362 . S
C282 C285 1.409 . S
C283 H275 0.930 . S
C283 C284 1.355 . S
C283 C285 1.415 . S
C284 C283 1.355 . S
C284 C286 1.419 . S
C285 C280 1.425 . S
C285 C282 1.409 . S
C285 C283 1.415 . S
C286 H276 0.930 . S
C286 C284 1.419 . S
C286 C287 1.362 . S
C287 H277 0.930 . S
C287 C280 1.409 . S
C287 C286 1.362 . S
H288 C294 0.930 . S
H289 C297 0.930 . S
H290 C298 0.930 . S
H291 C299 0.930 . S
H292 C302 0.930 . S
H293 C303 0.930 . S
C294 H288 0.930 . S
C294 C295 1.355 . S
C294 C296 1.415 . S
C295 C294 1.355 . S
C295 C297 1.419 . S
C296 C294 1.415 . S
C296 C301 1.425 . S
C296 C303 1.409 . S
C297 H289 0.930 . S
C297 C295 1.419 . S
C297 C298 1.362 . S
C298 H290 0.930 . S
C298 C297 1.362 . S
C298 C301 1.409 . S
C299 H291 0.930 . S
C299 C300 1.355 . S
C299 C301 1.415 . S
C300 C299 1.355 . S
C300 C302 1.419 . S
C301 C296 1.425 . S
C301 C298 1.409 . S
C301 C299 1.415 . S
C302 H292 0.930 . S
C302 C300 1.419 . S
C302 C303 1.362 . S
C303 H293 0.930 . S
C303 C296 1.409 . S
C303 C302 1.362 . S
C124 C103 1.327 . S
C119 C27 1.451 . S
C135 N6 1.376 . S
C140 C90 1.373 1_554 S
C151 C16 1.496 . S
C156 C107 1.470 . S
C167 N14 1.432 1_556 S
C172 C94 1.460 . S
C183 C57 1.445 . S
C188 C77 1.375 . S
C199 N36 1.426 . S
C204 C64 1.277 . S
C220 C81 1.456 . S
C215 C46 1.487 . S
C236 C68 1.464 . S
C231 N44 1.463 . S
C247 C10 1.462 . S
C252 C69 1.465 . S
C263 C1 1.548 . S
C268 C82 1.546 . S
C284 C95 1.463 . S
C279 C40 1.464 . S
C295 C31 1.546 . S
C300 C108 1.552 . S
