# Generated by pormake.
# Topology rtl, (3,6)-cn, num edge types: 1
# Building blocks:
#     Node 0, Type 0, BuildingBlock: BETDAH_clean_linker_0, # of connection points: 3
#     Node 1, Type 0, BuildingBlock: BETDAH_clean_linker_0, # of connection points: 3
#     Node 2, Type 0, BuildingBlock: BETDAH_clean_linker_0, # of connection points: 3
#     Node 3, Type 0, BuildingBlock: BETDAH_clean_linker_0, # of connection points: 3
#     Node 4, Type 1, BuildingBlock: CIFDUS_clean_sbu_1, # of connection points: 6
#     Node 5, Type 1, BuildingBlock: CIFDUS_clean_sbu_1, # of connection points: 6
#     Edge 6, Type (0, 1), BuildingBlock: FUNLAD_clean_linker_0, # of connection points: 2
#     Edge 7, Type (0, 1), BuildingBlock: FUNLAD_clean_linker_0, # of connection points: 2
#     Edge 8, Type (0, 1), BuildingBlock: FUNLAD_clean_linker_0, # of connection points: 2
#     Edge 9, Type (0, 1), BuildingBlock: FUNLAD_clean_linker_0, # of connection points: 2
#     Edge 10, Type (0, 1), BuildingBlock: FUNLAD_clean_linker_0, # of connection points: 2
#     Edge 11, Type (0, 1), BuildingBlock: FUNLAD_clean_linker_0, # of connection points: 2
#     Edge 12, Type (0, 1), BuildingBlock: FUNLAD_clean_linker_0, # of connection points: 2
#     Edge 13, Type (0, 1), BuildingBlock: FUNLAD_clean_linker_0, # of connection points: 2
#     Edge 14, Type (0, 1), BuildingBlock: FUNLAD_clean_linker_0, # of connection points: 2
#     Edge 15, Type (0, 1), BuildingBlock: FUNLAD_clean_linker_0, # of connection points: 2
#     Edge 16, Type (0, 1), BuildingBlock: FUNLAD_clean_linker_0, # of connection points: 2
#     Edge 17, Type (0, 1), BuildingBlock: FUNLAD_clean_linker_0, # of connection points: 2
# Relax obj value: 0.016
# Max RMSD: 0.115
# Mean RMSD: 0.086
data_MOF--net-rtl--node1-CIFDUS_clean_sbu_1--node2-BETDAH_clean_linker_0--edge1-FUNLAD_clean_linker_0
_symmetry_space_group_name_H-M    P1
_symmetry_Int_Tables_number       1
_symmetry_cell_setting            triclinic
loop_
_symmetry_equiv_pos_as_xyz
'x, y, z'
_cell_length_a     41.091726
_cell_length_b     41.208687
_cell_length_c     25.809966
_cell_angle_alpha  91.073151
_cell_angle_beta   98.994799
_cell_angle_gamma 89.928947
loop_
_atom_site_label
_atom_site_type_symbol
_atom_site_fract_x
_atom_site_fract_y
_atom_site_fract_z
_atom_type_partial_charge
H0 H 0.14925 0.8699 0.0571 0.0
H1 H 0.23596 0.82937 0.14844 0.0
H2 H 0.22734 0.83191 0.98044 0.0
C3 C 0.17275 0.85767 0.05883 0.0
C4 C 0.18549 0.85131 0.01216 0.0
C5 C 0.19069 0.85003 0.10814 0.0
C6 C 0.22173 0.83502 0.11072 0.0
C7 C 0.23476 0.82827 0.06435 0.0
C8 C 0.21681 0.83691 0.0157 0.0
N9 N 0.26714 0.81587 0.06539 0.0
C10 C 0.28013 0.78896 0.09337 0.0
H11 H 0.6439 0.66505 0.5903 0.0
H12 H 0.71483 0.72893 0.53714 0.0
H13 H 0.71782 0.71237 0.70175 0.0
C14 C 0.6649 0.68126 0.59851 0.0
C15 C 0.67909 0.68718 0.65085 0.0
C16 C 0.67723 0.69635 0.55685 0.0
C17 C 0.70495 0.71719 0.56851 0.0
C18 C 0.71953 0.7229 0.62118 0.0
C19 C 0.70641 0.70785 0.66146 0.0
N20 N 0.74751 0.74314 0.63669 0.0
C21 C 0.76303 0.76376 0.60608 0.0
H22 H 0.87406 0.16468 0.99846 0.0
H23 H 0.83137 0.24892 0.06326 0.0
H24 H 0.82885 0.23932 0.89706 0.0
C25 C 0.86002 0.18697 0.9929 0.0
C26 C 0.85165 0.19924 0.94201 0.0
C27 C 0.85301 0.20471 0.03712 0.0
C28 C 0.83612 0.23453 0.02968 0.0
C29 C 0.82689 0.24665 0.97894 0.0
C30 C 0.83498 0.22909 0.93574 0.0
N31 N 0.81526 0.27892 0.97122 0.0
C32 C 0.78449 0.28988 0.98012 0.0
H33 H 0.36491 0.38183 0.52608 0.0
H34 H 0.28729 0.33545 0.59229 0.0
H35 H 0.27523 0.35276 0.427 0.0
C36 C 0.34121 0.3697 0.52121 0.0
C37 C 0.32213 0.36785 0.47098 0.0
C38 C 0.32908 0.35822 0.56561 0.0
C39 C 0.29747 0.34395 0.55871 0.0
C40 C 0.27834 0.34145 0.50865 0.0
C41 C 0.29059 0.35374 0.46517 0.0
N42 N 0.24489 0.33165 0.50332 0.0
C43 C 0.23442 0.29964 0.494 0.0
O44 O 0.98841 0.05048 0.46175 0.0
Mn45 Mn 0.01183 0.01779 0.5189 0.0
O46 O 0.95059 0.02147 0.40814 0.0
Mn47 Mn 0.96913 0.9823 0.42859 0.0
O48 O 0.03523 0.98566 0.57633 0.0
O49 O 0.04688 0.05269 0.54005 0.0
Mn50 Mn 0.05314 0.05531 0.60946 0.0
O51 O 0.98174 0.03672 0.57172 0.0
O52 O 0.06934 0.01594 0.63461 0.0
O53 O 0.04179 0.9986 0.46589 0.0
O54 O 0.00744 0.97169 0.40342 0.0
O55 O 0.0814 0.08512 0.58999 0.0
O56 O 0.01406 0.06905 0.62928 0.0
C57 C 0.9554 0.95909 0.49388 0.0
C58 C 0.96372 0.04841 0.4242 0.0
C59 C 0.05771 0.98863 0.61702 0.0
C60 C 0.06912 0.07544 0.543 0.0
C61 C 0.98601 0.05732 0.61038 0.0
C62 C 0.03623 0.98112 0.42341 0.0
O63 O 0.97709 0.98247 0.49799 0.0
O64 O 0.94284 0.95032 0.44653 0.0
O65 O 0.53592 0.54755 0.12627 0.0
Mn66 Mn 0.51105 0.51676 0.06599 0.0
O67 O 0.57003 0.51559 0.17946 0.0
Mn68 Mn 0.55264 0.47705 0.15005 0.0
O69 O 0.48643 0.48596 0.00572 0.0
O70 O 0.47623 0.55234 0.05089 0.0
Mn71 Mn 0.46853 0.55593 0.98176 0.0
O72 O 0.54023 0.53672 0.01411 0.0
O73 O 0.45093 0.51719 0.95349 0.0
O74 O 0.48138 0.49646 0.11723 0.0
O75 O 0.51396 0.46274 0.16944 0.0
O76 O 0.44146 0.58578 0.00557 0.0
O77 O 0.50712 0.56956 0.96079 0.0
C78 C 0.56794 0.45831 0.08122 0.0
C79 C 0.55913 0.54349 0.16544 0.0
C80 C 0.46282 0.4896 0.96708 0.0
C81 C 0.45441 0.57533 0.05116 0.0
C82 C 0.53533 0.5577 0.97736 0.0
C83 C 0.48581 0.4746 0.15265 0.0
O84 O 0.54593 0.48119 0.081 0.0
O85 O 0.58002 0.44733 0.12687 0.0
C86 C 0.19142 0.26339 0.44657 0.0
C87 C 0.21911 0.26792 0.48534 0.0
C88 C 0.17444 0.23367 0.44136 0.0
C89 C 0.18481 0.20794 0.47529 0.0
C90 C 0.2133 0.21248 0.51293 0.0
C91 C 0.23018 0.24218 0.51806 0.0
C92 C 0.16653 0.17643 0.47447 0.0
C93 C 0.13533 0.17104 0.44991 0.0
C94 C 0.11617 0.14135 0.45892 0.0
C95 C 0.08188 0.14376 0.4577 0.0
C96 C 0.06438 0.11891 0.4777 0.0
C97 C 0.08083 0.09109 0.4986 0.0
H98 H 0.15765 0.10821 0.47297 0.0
C99 C 0.11411 0.08692 0.49359 0.0
C100 C 0.13161 0.11167 0.47363 0.0
H101 H 0.12749 0.06589 0.51016 0.0
H102 H 0.18249 0.28307 0.4209 0.0
H103 H 0.1532 0.23127 0.41104 0.0
H104 H 0.2221 0.19322 0.53952 0.0
H105 H 0.25143 0.24523 0.54841 0.0
H106 H 0.17861 0.15767 0.49949 0.0
H107 H 0.1219 0.19031 0.42792 0.0
H108 H 0.06914 0.16607 0.44574 0.0
H109 H 0.03891 0.12308 0.48218 0.0
C110 C 0.33151 0.76185 0.13292 0.0
C111 C 0.29779 0.76003 0.11279 0.0
C112 C 0.35032 0.73348 0.14235 0.0
C113 C 0.33567 0.70262 0.13158 0.0
C114 C 0.3015 0.70116 0.1136 0.0
C115 C 0.28278 0.72952 0.1042 0.0
C116 C 0.35515 0.67174 0.13256 0.0
C117 C 0.3875 0.6686 0.15256 0.0
C118 C 0.40756 0.63953 0.14176 0.0
C119 C 0.44136 0.64364 0.13992 0.0
C120 C 0.45925 0.61942 0.11782 0.0
C121 C 0.44376 0.5905 0.09777 0.0
H122 H 0.36787 0.60398 0.13095 0.0
C123 C 0.41128 0.58469 0.10587 0.0
C124 C 0.39337 0.60884 0.12795 0.0
H125 H 0.39858 0.56279 0.09002 0.0
H126 H 0.34369 0.78523 0.13901 0.0
H127 H 0.37648 0.73616 0.15544 0.0
H128 H 0.28939 0.67793 0.10467 0.0
H129 H 0.25688 0.72755 0.08795 0.0
H130 H 0.34235 0.65114 0.11196 0.0
H131 H 0.40077 0.6891 0.17258 0.0
H132 H 0.45322 0.66674 0.15107 0.0
H133 H 0.48401 0.62486 0.111 0.0
C134 C 0.78599 0.81908 0.6104 0.0
C135 C 0.78497 0.78744 0.58918 0.0
C136 C 0.81096 0.84072 0.60237 0.0
C137 C 0.83565 0.83094 0.57314 0.0
C138 C 0.83368 0.79949 0.55042 0.0
C139 C 0.80875 0.77787 0.55867 0.0
C140 C 0.86362 0.85244 0.56468 0.0
C141 C 0.87277 0.88028 0.5918 0.0
C142 C 0.90004 0.90125 0.57925 0.0
C143 C 0.89755 0.93524 0.58343 0.0
C144 C 0.91948 0.95543 0.56231 0.0
C145 C 0.94451 0.94186 0.53754 0.0
H146 H 0.93104 0.86201 0.55812 0.0
C147 C 0.94932 0.90813 0.53909 0.0
C148 C 0.92744 0.88801 0.55991 0.0
H149 H 0.96815 0.89705 0.51954 0.0
H150 H 0.76803 0.82679 0.63469 0.0
H151 H 0.8108 0.86483 0.61954 0.0
H152 H 0.85207 0.79124 0.52734 0.0
H153 H 0.80874 0.75337 0.54268 0.0
H154 H 0.8774 0.84469 0.53399 0.0
H155 H 0.85896 0.88919 0.62162 0.0
H156 H 0.87703 0.94615 0.59903 0.0
H157 H 0.91476 0.9813 0.56053 0.0
C158 C 0.74257 0.33038 0.94664 0.0
C159 C 0.75358 0.30634 0.98305 0.0
C160 C 0.71355 0.34771 0.95002 0.0
C161 C 0.69501 0.34139 0.99027 0.0
C162 C 0.70595 0.31672 0.02599 0.0
C163 C 0.73502 0.29946 0.02258 0.0
C164 C 0.66428 0.35963 0.99668 0.0
C165 C 0.65556 0.38879 0.97535 0.0
C166 C 0.62698 0.40787 0.98903 0.0
C167 C 0.62884 0.44199 0.99208 0.0
C168 C 0.60573 0.46006 0.0153 0.0
C169 C 0.58016 0.44427 0.03507 0.0
H170 H 0.59598 0.3666 0.99935 0.0
C171 C 0.57605 0.41069 0.02611 0.0
C172 C 0.59909 0.39266 1.00312 0.0
H173 H 0.5568 0.39787 0.04169 0.0
H174 H 0.75656 0.33594 0.91564 0.0
H175 H 0.70581 0.36579 0.92086 0.0
H176 H 0.69219 0.31108 0.05723 0.0
H177 H 0.7431 0.28101 0.05109 0.0
H178 H 0.64939 0.34944 0.02363 0.0
H179 H 0.67161 0.40075 0.95202 0.0
H180 H 0.64973 0.45447 0.98068 0.0
H181 H 0.60993 0.48579 0.02279 0.0
C182 C 0.19368 0.8803 0.19468 0.0
C183 C 0.17673 0.85922 0.15619 0.0
C184 C 0.17784 0.89339 0.23488 0.0
C185 C 0.14479 0.88528 0.23748 0.0
C186 C 0.12878 0.86272 0.20054 0.0
C187 C 0.14441 0.85002 0.16035 0.0
C188 C 0.1247 0.90116 0.27441 0.0
C189 C 0.13491 0.92437 0.31114 0.0
C190 C 0.11088 0.94164 0.33986 0.0
C191 C 0.11948 0.95144 0.39284 0.0
C192 C 0.09588 0.96577 0.42032 0.0
C193 C 0.06341 0.97068 0.39496 0.0
H194 H 0.07187 0.94299 0.2727 0.0
C195 C 0.05572 0.96276 0.34116 0.0
C196 C 0.07903 0.94865 0.31405 0.0
H197 H 0.03123 0.96692 0.31988 0.0
H198 H 0.21857 0.88798 0.19208 0.0
H199 H 0.19121 0.91059 0.26236 0.0
H200 H 0.10345 0.85576 0.20138 0.0
H201 H 0.13079 0.83377 0.13133 0.0
H202 H 0.09895 0.89387 0.26945 0.0
H203 H 0.16073 0.93095 0.32049 0.0
H204 H 0.14407 0.94696 0.41343 0.0
H205 H 0.10264 0.97175 0.46164 0.0
C206 C 0.6569 0.63979 0.69534 0.0
C207 C 0.66479 0.67299 0.69491 0.0
C208 C 0.64345 0.62687 0.73733 0.0
C209 C 0.63733 0.64708 0.77935 0.0
C210 C 0.64505 0.68023 0.77847 0.0
C211 C 0.65885 0.69297 0.73709 0.0
C212 C 0.62059 0.63543 0.82271 0.0
C213 C 0.62221 0.60475 0.84064 0.0
C214 C 0.60371 0.5932 0.88253 0.0
C215 C 0.60139 0.55961 0.89078 0.0
C216 C 0.58117 0.54768 0.9253 0.0
C217 C 0.56276 0.56921 0.95185 0.0
H218 H 0.58908 0.64063 0.91039 0.0
C219 C 0.56667 0.60269 0.94638 0.0
C220 C 0.5872 0.61461 0.91287 0.0
H221 H 0.55281 0.61976 0.96679 0.0
H222 H 0.66124 0.62382 0.66333 0.0
H223 H 0.63705 0.60138 0.73597 0.0
H224 H 0.64025 0.69645 0.80993 0.0
H225 H 0.66429 0.71871 0.7376 0.0
H226 H 0.60647 0.65361 0.84023 0.0
H227 H 0.63687 0.58701 0.82289 0.0
H228 H 0.61411 0.54244 0.86876 0.0
H229 H 0.57831 0.5217 0.92859 0.0
C230 C 0.86241 0.16078 0.10429 0.0
C231 C 0.86626 0.19329 0.09083 0.0
C232 C 0.8772 0.14932 0.15314 0.0
C233 C 0.89654 0.17004 0.18966 0.0
C234 C 0.90036 0.20254 0.17619 0.0
C235 C 0.88508 0.21415 0.12762 0.0
C236 C 0.91437 0.15775 0.24047 0.0
C237 C 0.90178 0.13429 0.26727 0.0
C238 C 0.91919 0.11854 0.31558 0.0
C239 C 0.90019 0.10008 0.34491 0.0
C240 C 0.91514 0.07974 0.38427 0.0
C241 C 0.94959 0.0773 0.39567 0.0
H242 H 0.96943 0.13163 0.30766 0.0
C243 C 0.96891 0.0976 0.36952 0.0
C244 C 0.95383 0.11806 0.3296 0.0
H245 H 0.99553 0.09573 0.37686 0.0
H246 H 0.84825 0.14407 0.07667 0.0
H247 H 0.87433 0.12392 0.16146 0.0
H248 H 0.91534 0.21898 0.20323 0.0
H249 H 0.88897 0.2392 0.11809 0.0
H250 H 0.93787 0.1688 0.25635 0.0
H251 H 0.87693 0.12575 0.25279 0.0
H252 H 0.87355 0.09995 0.33541 0.0
H253 H 0.89964 0.06421 0.40355 0.0
C254 C 0.33304 0.37484 0.66103 0.0
C255 C 0.34852 0.36378 0.61909 0.0
C256 C 0.35164 0.38374 0.70947 0.0
C257 C 0.38634 0.38164 0.71741 0.0
C258 C 0.40165 0.36963 0.67598 0.0
C259 C 0.38305 0.36069 0.62762 0.0
C260 C 0.40746 0.39458 0.76598 0.0
C261 C 0.39657 0.40015 0.81209 0.0
C262 C 0.4155 0.41887 0.85707 0.0
C263 C 0.39762 0.43637 0.89036 0.0
C264 C 0.41356 0.45771 0.92876 0.0
C265 C 0.44792 0.46143 0.93592 0.0
H266 H 0.46497 0.40741 0.84234 0.0
C267 C 0.4663 0.44223 0.90553 0.0
C268 C 0.45022 0.42117 0.86618 0.0
H269 H 0.49281 0.44497 0.90999 0.0
H270 H 0.30659 0.37813 0.65574 0.0
H271 H 0.33865 0.39368 0.73944 0.0
H272 H 0.42825 0.36778 0.68062 0.0
H273 H 0.39584 0.35191 0.59649 0.0
H274 H 0.43254 0.40126 0.76238 0.0
H275 H 0.37156 0.39336 0.81586 0.0
H276 H 0.37096 0.43495 0.88475 0.0
H277 H 0.39884 0.47246 0.95144 0.0
C278 C 0.67905 0.68251 0.46137 0.0
C279 C 0.66073 0.68965 0.50181 0.0
C280 C 0.66327 0.67192 0.41166 0.0
C281 C 0.62865 0.66813 0.40123 0.0
C282 C 0.61042 0.67724 0.4409 0.0
C283 C 0.62615 0.68782 0.49031 0.0
C284 C 0.61039 0.65317 0.35152 0.0
C285 C 0.62491 0.63808 0.31424 0.0
C286 C 0.607 0.61726 0.27076 0.0
C287 C 0.62507 0.59299 0.2492 0.0
C288 C 0.60942 0.57029 0.21294 0.0
C289 C 0.57523 0.57149 0.19617 0.0
H290 H 0.55817 0.6386 0.26628 0.0
C291 C 0.55717 0.59704 0.21459 0.0
C292 C 0.57289 0.6197 0.25187 0.0
H293 H 0.53078 0.59853 0.20231 0.0
H294 H 0.70571 0.68378 0.46875 0.0
H295 H 0.67859 0.66616 0.38237 0.0
H296 H 0.5838 0.67516 0.4343 0.0
H297 H 0.61114 0.69387 0.52007 0.0
H298 H 0.58376 0.65202 0.34818 0.0
H299 H 0.65155 0.63777 0.31836 0.0
H300 H 0.65133 0.59058 0.26223 0.0
H301 H 0.62405 0.55101 0.19913 0.0
C302 C 0.86182 0.14881 0.889 0.0
C303 C 0.8633 0.18279 0.89616 0.0
C304 C 0.87418 0.13374 0.84677 0.0
C305 C 0.88852 0.1524 0.81102 0.0
C306 C 0.88978 0.18626 0.8183 0.0
C307 C 0.8773 0.20124 0.86001 0.0
C308 C 0.90452 0.13803 0.76778 0.0
C309 C 0.89905 0.10788 0.74654 0.0
C310 C 0.91718 0.09469 0.70463 0.0
C311 C 0.92086 0.06088 0.69864 0.0
C312 C 0.94113 0.04807 0.66415 0.0
C313 C 0.95798 0.06893 0.63507 0.0
H314 H 0.92851 0.14118 0.67266 0.0
C315 C 0.95245 0.10245 0.63816 0.0
C316 C 0.93193 0.11518 0.67179 0.0
H317 H 0.96515 0.119 0.61594 0.0
H318 H 0.85121 0.13388 0.91616 0.0
H319 H 0.87327 0.10755 0.84332 0.0
H320 H 0.9009 0.20133 0.79184 0.0
H321 H 0.87951 0.22736 0.86472 0.0
H322 H 0.92222 0.1536 0.75326 0.0
H323 H 0.88195 0.09181 0.76153 0.0
H324 H 0.9094 0.04441 0.72262 0.0
H325 H 0.94531 0.02213 0.66283 0.0
C326 C 0.36734 0.37668 0.4176 0.0
C327 C 0.33474 0.38233 0.42549 0.0
C328 C 0.37996 0.39158 0.37672 0.0
C329 C 0.36028 0.41261 0.3426 0.0
C330 C 0.32773 0.41842 0.35063 0.0
C331 C 0.31496 0.40319 0.39129 0.0
C332 C 0.37383 0.42979 0.30019 0.0
C333 C 0.39682 0.41609 0.27483 0.0
C334 C 0.41455 0.4324 0.23618 0.0
C335 C 0.43518 0.41305 0.20999 0.0
C336 C 0.45658 0.42702 0.17991 0.0
C337 C 0.45782 0.4608 0.17459 0.0
H338 H 0.39898 0.48218 0.24807 0.0
C339 C 0.43569 0.48034 0.1975 0.0
C340 C 0.41428 0.46628 0.22842 0.0
H341 H 0.43646 0.5065 0.19439 0.0
H342 H 0.38322 0.36082 0.44333 0.0
H343 H 0.40546 0.38721 0.37287 0.0
H344 H 0.31214 0.43478 0.32539 0.0
H345 H 0.28989 0.40844 0.39686 0.0
H346 H 0.36426 0.45371 0.28956 0.0
H347 H 0.40371 0.39108 0.28358 0.0
H348 H 0.43593 0.38697 0.21476 0.0
H349 H 0.47335 0.41139 0.16253 0.0
C350 C 0.18251 0.87405 0.92116 0.0
C351 C 0.16648 0.86077 0.96028 0.0
C352 C 0.16451 0.88449 0.87371 0.0
C353 C 0.12987 0.88184 0.86393 0.0
C354 C 0.11393 0.86828 0.90278 0.0
C355 C 0.13193 0.85771 0.95008 0.0
C356 C 0.10945 0.89525 0.81594 0.0
C357 C 0.12092 0.90036 0.77046 0.0
C358 C 0.10253 0.91847 0.72536 0.0
C359 C 0.12088 0.93416 0.69161 0.0
C360 C 0.10561 0.955 0.65313 0.0
C361 C 0.07144 0.96003 0.64641 0.0
H362 H 0.05271 0.90958 0.74055 0.0
C363 C 0.05253 0.94256 0.67723 0.0
C364 C 0.06792 0.92195 0.7165 0.0
H365 H 0.02618 0.94645 0.67329 0.0
H366 H 0.20897 0.87745 0.92782 0.0
H367 H 0.17786 0.89574 0.84585 0.0
H368 H 0.08733 0.86605 0.8967 0.0
H369 H 0.11866 0.84722 0.97881 0.0
H370 H 0.08435 0.9021 0.81931 0.0
H371 H 0.14595 0.89318 0.76722 0.0
H372 H 0.14746 0.9318 0.69696 0.0
H373 H 0.12078 0.96857 0.63034 0.0
loop_
_geom_bond_atom_site_label_1
_geom_bond_atom_site_label_2
_geom_bond_distance
_geom_bond_site_symmetry_2
_ccdc_geom_bond_type
H0 C3 0.929 . S
H1 C6 0.929 . S
H2 C8 0.930 1_556 S
C3 H0 0.929 . S
C3 C4 1.398 . S
C3 C5 1.396 . S
C4 C3 1.398 . S
C4 C8 1.407 . S
C5 C3 1.396 . S
C5 C6 1.394 . S
C6 H1 0.929 . S
C6 C5 1.394 . S
C6 C7 1.382 . S
C7 C6 1.382 . S
C7 C8 1.392 . S
C7 N9 1.420 . S
C8 H2 0.930 1_554 S
C8 C4 1.407 . S
C8 C7 1.392 . S
N9 C7 1.420 . S
N9 C10 1.244 . S
C10 N9 1.244 . S
H11 C14 0.929 . S
H12 C17 0.929 . S
H13 C19 0.930 . S
C14 H11 0.929 . S
C14 C15 1.398 . S
C14 C16 1.396 . S
C15 C14 1.398 . S
C15 C19 1.407 . S
C16 C14 1.396 . S
C16 C17 1.394 . S
C17 H12 0.929 . S
C17 C16 1.394 . S
C17 C18 1.382 . S
C18 C17 1.382 . S
C18 C19 1.392 . S
C18 N20 1.420 . S
C19 H13 0.930 . S
C19 C15 1.407 . S
C19 C18 1.392 . S
N20 C18 1.420 . S
N20 C21 1.244 . S
C21 N20 1.244 . S
H22 C25 0.929 . S
H23 C28 0.929 . S
H24 C30 0.930 . S
C25 H22 0.929 . S
C25 C26 1.398 1_554 S
C25 C27 1.396 . S
C26 C25 1.398 1_556 S
C26 C30 1.407 . S
C27 C25 1.396 . S
C27 C28 1.394 . S
C28 H23 0.929 . S
C28 C27 1.394 . S
C28 C29 1.382 1_554 S
C29 C28 1.382 1_556 S
C29 C30 1.392 . S
C29 N31 1.420 . S
C30 H24 0.930 . S
C30 C26 1.407 . S
C30 C29 1.392 . S
N31 C29 1.420 . S
N31 C32 1.244 1_556 S
C32 N31 1.244 1_554 S
H33 C36 0.929 . S
H34 C39 0.929 . S
H35 C41 0.930 . S
C36 H33 0.929 . S
C36 C37 1.398 . S
C36 C38 1.396 . S
C37 C36 1.398 . S
C37 C41 1.407 . S
C38 C36 1.396 . S
C38 C39 1.394 . S
C39 H34 0.929 . S
C39 C38 1.394 . S
C39 C40 1.382 . S
C40 C39 1.382 . S
C40 C41 1.392 . S
C40 N42 1.420 . S
C41 H35 0.930 . S
C41 C37 1.407 . S
C41 C40 1.392 . S
N42 C40 1.420 . S
N42 C43 1.244 . S
C43 N42 1.244 . S
O44 Mn45 2.163 1_655 S
O44 C58 1.244 . S
Mn45 O44 2.163 1_455 S
Mn45 O48 2.160 1_545 S
Mn45 O49 2.221 . S
Mn45 O51 2.163 1_455 S
Mn45 O53 2.160 1_545 S
Mn45 O63 2.221 1_445 S
O46 Mn47 2.087 1_545 S
O46 C58 1.256 . S
Mn47 O46 2.087 1_565 S
Mn47 O54 2.089 1_655 S
Mn47 O63 2.290 . S
Mn47 O64 2.251 . S
O48 Mn45 2.160 1_565 S
O48 C59 1.239 . S
O49 Mn45 2.221 . S
O49 Mn50 2.290 . S
O49 C60 1.278 . S
Mn50 O49 2.290 . S
Mn50 O52 2.089 . S
Mn50 O55 2.251 . S
Mn50 O56 2.087 . S
O51 Mn45 2.163 1_655 S
O51 C61 1.244 . S
O52 Mn50 2.089 . S
O52 C59 1.256 1_545 S
O53 Mn45 2.160 1_565 S
O53 C62 1.239 . S
O54 Mn47 2.089 1_455 S
O54 C62 1.256 . S
O55 Mn50 2.251 . S
O55 C60 1.241 . S
O56 Mn50 2.087 . S
O56 C61 1.256 1_455 S
C57 O63 1.278 . S
C57 O64 1.241 . S
C58 O44 1.244 . S
C58 O46 1.256 . S
C59 O48 1.239 . S
C59 O52 1.256 1_565 S
C60 O49 1.278 . S
C60 O55 1.241 . S
C61 O51 1.244 . S
C61 O56 1.256 1_655 S
C62 O53 1.239 . S
C62 O54 1.256 . S
O63 Mn45 2.221 1_665 S
O63 Mn47 2.290 . S
O63 C57 1.278 . S
O64 Mn47 2.251 . S
O64 C57 1.241 . S
O65 Mn66 2.163 . S
O65 C79 1.244 . S
Mn66 O65 2.163 . S
Mn66 O69 2.160 1_554 S
Mn66 O70 2.221 . S
Mn66 O72 2.163 1_554 S
Mn66 O74 2.160 . S
Mn66 O84 2.221 . S
O67 Mn68 2.087 . S
O67 C79 1.256 . S
Mn68 O67 2.087 . S
Mn68 O75 2.089 . S
Mn68 O84 2.290 . S
Mn68 O85 2.251 . S
O69 Mn66 2.160 1_556 S
O69 C80 1.239 . S
O70 Mn66 2.221 . S
O70 Mn71 2.290 1_554 S
O70 C81 1.278 . S
Mn71 O70 2.290 1_556 S
Mn71 O73 2.089 . S
Mn71 O76 2.259 . S
Mn71 O77 2.087 . S
O72 Mn66 2.163 1_556 S
O72 C82 1.244 . S
O73 Mn71 2.089 . S
O73 C80 1.256 . S
O74 Mn66 2.160 . S
O74 C83 1.239 . S
O75 Mn68 2.089 . S
O75 C83 1.256 . S
O76 Mn71 2.259 . S
O76 C81 1.233 1_556 S
O77 Mn71 2.087 . S
O77 C82 1.256 . S
C78 O84 1.278 . S
C78 O85 1.241 . S
C79 O65 1.244 . S
C79 O67 1.256 . S
C80 O69 1.239 . S
C80 O73 1.256 . S
C81 O70 1.278 . S
C81 O76 1.233 1_554 S
C82 O72 1.244 . S
C82 O77 1.256 . S
C83 O74 1.239 . S
C83 O75 1.256 . S
O84 Mn66 2.221 . S
O84 Mn68 2.290 . S
O84 C78 1.278 . S
O85 Mn68 2.251 . S
O85 C78 1.241 . S
C86 C87 1.386 . S
C86 C88 1.383 . S
C86 H102 0.951 . S
C87 C86 1.386 . S
C87 C91 1.383 . S
C88 C86 1.383 . S
C88 C89 1.402 . S
C88 H103 0.951 . S
C89 C88 1.402 . S
C89 C90 1.375 . S
C89 C92 1.481 . S
C90 C89 1.375 . S
C90 C91 1.367 . S
C90 H104 0.951 . S
C91 C87 1.383 . S
C91 C90 1.367 . S
C91 H105 0.950 . S
C92 C89 1.481 . S
C92 C93 1.297 . S
C92 H106 0.950 . S
C93 C92 1.297 . S
C93 C94 1.479 . S
C93 H107 0.950 . S
C94 C93 1.479 . S
C94 C95 1.375 . S
C94 C100 1.404 . S
C95 C94 1.375 . S
C95 C96 1.369 . S
C95 H108 0.950 . S
C96 C95 1.369 . S
C96 C97 1.392 . S
C96 H109 0.951 . S
C97 C96 1.392 . S
C97 C99 1.384 . S
H98 C100 0.949 . S
C99 C97 1.384 . S
C99 C100 1.385 . S
C99 H101 0.950 . S
C100 C94 1.404 . S
C100 H98 0.949 . S
C100 C99 1.385 . S
H101 C99 0.950 . S
H102 C86 0.951 . S
H103 C88 0.951 . S
H104 C90 0.951 . S
H105 C91 0.950 . S
H106 C92 0.950 . S
H107 C93 0.950 . S
H108 C95 0.950 . S
H109 C96 0.951 . S
C110 C111 1.386 . S
C110 C112 1.383 . S
C110 H126 0.951 . S
C111 C110 1.386 . S
C111 C115 1.383 . S
C112 C110 1.383 . S
C112 C113 1.402 . S
C112 H127 0.951 . S
C113 C112 1.402 . S
C113 C114 1.375 . S
C113 C116 1.481 . S
C114 C113 1.375 . S
C114 C115 1.367 . S
C114 H128 0.951 . S
C115 C111 1.383 . S
C115 C114 1.367 . S
C115 H129 0.950 . S
C116 C113 1.481 . S
C116 C117 1.297 . S
C116 H130 0.950 . S
C117 C116 1.297 . S
C117 C118 1.479 . S
C117 H131 0.950 . S
C118 C117 1.479 . S
C118 C119 1.375 . S
C118 C124 1.404 . S
C119 C118 1.375 . S
C119 C120 1.369 . S
C119 H132 0.950 . S
C120 C119 1.369 . S
C120 C121 1.392 . S
C120 H133 0.951 1_554 S
C121 C120 1.392 . S
C121 C123 1.384 . S
H122 C124 0.949 . S
C123 C121 1.384 . S
C123 C124 1.385 . S
C123 H125 0.950 . S
C124 C118 1.404 . S
C124 H122 0.949 . S
C124 C123 1.385 . S
H125 C123 0.950 . S
H126 C110 0.951 . S
H127 C112 0.951 . S
H128 C114 0.951 . S
H129 C115 0.950 . S
H130 C116 0.950 . S
H131 C117 0.950 . S
H132 C119 0.950 . S
H133 C120 0.951 1_556 S
C134 C135 1.386 . S
C134 C136 1.383 . S
C134 H150 0.951 . S
C135 C134 1.386 . S
C135 C139 1.383 . S
C136 C134 1.383 . S
C136 C137 1.402 . S
C136 H151 0.951 . S
C137 C136 1.402 . S
C137 C138 1.375 . S
C137 C140 1.481 . S
C138 C137 1.375 . S
C138 C139 1.367 . S
C138 H152 0.951 . S
C139 C135 1.383 . S
C139 C138 1.367 . S
C139 H153 0.950 . S
C140 C137 1.481 . S
C140 C141 1.297 . S
C140 H154 0.950 . S
C141 C140 1.297 . S
C141 C142 1.479 . S
C141 H155 0.950 . S
C142 C141 1.479 . S
C142 C143 1.375 . S
C142 C148 1.404 . S
C143 C142 1.375 . S
C143 C144 1.369 . S
C143 H156 0.950 . S
C144 C143 1.369 . S
C144 C145 1.392 . S
C144 H157 0.951 . S
C145 C144 1.392 . S
C145 C147 1.384 . S
H146 C148 0.949 . S
C147 C145 1.384 . S
C147 C148 1.385 . S
C147 H149 0.950 . S
C148 C142 1.404 . S
C148 H146 0.949 . S
C148 C147 1.385 . S
H149 C147 0.950 . S
H150 C134 0.951 . S
H151 C136 0.951 . S
H152 C138 0.951 . S
H153 C139 0.950 . S
H154 C140 0.950 . S
H155 C141 0.950 . S
H156 C143 0.950 . S
H157 C144 0.951 . S
C158 C159 1.386 1_556 S
C158 C160 1.383 . S
C158 H174 0.951 . S
C159 C158 1.386 1_554 S
C159 C163 1.383 . S
C160 C158 1.383 . S
C160 C161 1.402 1_556 S
C160 H175 0.951 . S
C161 C160 1.402 1_554 S
C161 C162 1.375 . S
C161 C164 1.481 . S
C162 C161 1.375 . S
C162 C163 1.367 . S
C162 H176 0.951 . S
C163 C159 1.383 . S
C163 C162 1.367 . S
C163 H177 0.950 . S
C164 C161 1.481 . S
C164 C165 1.297 1_554 S
C164 H178 0.950 . S
C165 C164 1.297 1_556 S
C165 C166 1.479 1_556 S
C165 H179 0.950 . S
C166 C165 1.479 1_554 S
C166 C167 1.375 1_554 S
C166 C172 1.404 . S
C167 C166 1.375 1_556 S
C167 C168 1.369 . S
C167 H180 0.950 . S
C168 C167 1.369 . S
C168 C169 1.392 1_556 S
C168 H181 0.951 . S
C169 C168 1.392 1_554 S
C169 C171 1.384 . S
H170 C172 0.949 . S
C171 C169 1.384 . S
C171 C172 1.385 . S
C171 H173 0.950 . S
C172 C166 1.404 . S
C172 H170 0.949 . S
C172 C171 1.385 . S
H173 C171 0.950 . S
H174 C158 0.951 . S
H175 C160 0.951 . S
H176 C162 0.951 . S
H177 C163 0.950 . S
H178 C164 0.950 . S
H179 C165 0.950 . S
H180 C167 0.950 . S
H181 C168 0.951 . S
C182 C183 1.386 . S
C182 C184 1.383 . S
C182 H198 0.951 . S
C183 C182 1.386 . S
C183 C187 1.383 . S
C184 C182 1.383 . S
C184 C185 1.402 . S
C184 H199 0.951 . S
C185 C184 1.402 . S
C185 C186 1.375 . S
C185 C188 1.481 . S
C186 C185 1.375 . S
C186 C187 1.367 . S
C186 H200 0.951 . S
C187 C183 1.383 . S
C187 C186 1.367 . S
C187 H201 0.950 . S
C188 C185 1.481 . S
C188 C189 1.297 . S
C188 H202 0.950 . S
C189 C188 1.297 . S
C189 C190 1.479 . S
C189 H203 0.950 . S
C190 C189 1.479 . S
C190 C191 1.375 . S
C190 C196 1.404 . S
C191 C190 1.375 . S
C191 C192 1.369 . S
C191 H204 0.950 . S
C192 C191 1.369 . S
C192 C193 1.392 . S
C192 H205 0.951 . S
C193 C192 1.392 . S
C193 C195 1.384 . S
H194 C196 0.949 . S
C195 C193 1.384 . S
C195 C196 1.385 . S
C195 H197 0.950 . S
C196 C190 1.404 . S
C196 H194 0.949 . S
C196 C195 1.385 . S
H197 C195 0.950 . S
H198 C182 0.951 . S
H199 C184 0.951 . S
H200 C186 0.951 . S
H201 C187 0.950 . S
H202 C188 0.950 . S
H203 C189 0.950 . S
H204 C191 0.950 . S
H205 C192 0.951 . S
C206 C207 1.386 . S
C206 C208 1.383 . S
C206 H222 0.951 . S
C207 C206 1.386 . S
C207 C211 1.383 . S
C208 C206 1.383 . S
C208 C209 1.402 . S
C208 H223 0.951 . S
C209 C208 1.402 . S
C209 C210 1.375 . S
C209 C212 1.481 . S
C210 C209 1.375 . S
C210 C211 1.367 . S
C210 H224 0.951 . S
C211 C207 1.383 . S
C211 C210 1.367 . S
C211 H225 0.950 . S
C212 C209 1.481 . S
C212 C213 1.297 . S
C212 H226 0.950 . S
C213 C212 1.297 . S
C213 C214 1.479 . S
C213 H227 0.950 . S
C214 C213 1.479 . S
C214 C215 1.375 . S
C214 C220 1.404 . S
C215 C214 1.375 . S
C215 C216 1.369 . S
C215 H228 0.950 . S
C216 C215 1.369 . S
C216 C217 1.392 . S
C216 H229 0.951 . S
C217 C216 1.392 . S
C217 C219 1.384 . S
H218 C220 0.949 . S
C219 C217 1.384 . S
C219 C220 1.385 . S
C219 H221 0.950 . S
C220 C214 1.404 . S
C220 H218 0.949 . S
C220 C219 1.385 . S
H221 C219 0.950 . S
H222 C206 0.951 . S
H223 C208 0.951 . S
H224 C210 0.951 . S
H225 C211 0.950 . S
H226 C212 0.950 . S
H227 C213 0.950 . S
H228 C215 0.950 . S
H229 C216 0.951 . S
C230 C231 1.386 . S
C230 C232 1.383 . S
C230 H246 0.951 . S
C231 C230 1.386 . S
C231 C235 1.383 . S
C232 C230 1.383 . S
C232 C233 1.402 . S
C232 H247 0.951 . S
C233 C232 1.402 . S
C233 C234 1.375 . S
C233 C236 1.481 . S
C234 C233 1.375 . S
C234 C235 1.367 . S
C234 H248 0.951 . S
C235 C231 1.383 . S
C235 C234 1.367 . S
C235 H249 0.950 . S
C236 C233 1.481 . S
C236 C237 1.297 . S
C236 H250 0.950 . S
C237 C236 1.297 . S
C237 C238 1.479 . S
C237 H251 0.950 . S
C238 C237 1.479 . S
C238 C239 1.375 . S
C238 C244 1.404 . S
C239 C238 1.375 . S
C239 C240 1.369 . S
C239 H252 0.950 . S
C240 C239 1.369 . S
C240 C241 1.392 . S
C240 H253 0.951 . S
C241 C240 1.392 . S
C241 C243 1.384 . S
H242 C244 0.949 . S
C243 C241 1.384 . S
C243 C244 1.385 . S
C243 H245 0.950 . S
C244 C238 1.404 . S
C244 H242 0.949 . S
C244 C243 1.385 . S
H245 C243 0.950 . S
H246 C230 0.951 . S
H247 C232 0.951 . S
H248 C234 0.951 . S
H249 C235 0.950 . S
H250 C236 0.950 . S
H251 C237 0.950 . S
H252 C239 0.950 . S
H253 C240 0.951 . S
C254 C255 1.386 . S
C254 C256 1.383 . S
C254 H270 0.951 . S
C255 C254 1.386 . S
C255 C259 1.383 . S
C256 C254 1.383 . S
C256 C257 1.402 . S
C256 H271 0.951 . S
C257 C256 1.402 . S
C257 C258 1.375 . S
C257 C260 1.481 . S
C258 C257 1.375 . S
C258 C259 1.367 . S
C258 H272 0.951 . S
C259 C255 1.383 . S
C259 C258 1.367 . S
C259 H273 0.950 . S
C260 C257 1.481 . S
C260 C261 1.297 . S
C260 H274 0.950 . S
C261 C260 1.297 . S
C261 C262 1.479 . S
C261 H275 0.950 . S
C262 C261 1.479 . S
C262 C263 1.375 . S
C262 C268 1.404 . S
C263 C262 1.375 . S
C263 C264 1.369 . S
C263 H276 0.950 . S
C264 C263 1.369 . S
C264 C265 1.392 . S
C264 H277 0.951 . S
C265 C264 1.392 . S
C265 C267 1.384 . S
H266 C268 0.949 . S
C267 C265 1.384 . S
C267 C268 1.385 . S
C267 H269 0.950 . S
C268 C262 1.404 . S
C268 H266 0.949 . S
C268 C267 1.385 . S
H269 C267 0.950 . S
H270 C254 0.951 . S
H271 C256 0.951 . S
H272 C258 0.951 . S
H273 C259 0.950 . S
H274 C260 0.950 . S
H275 C261 0.950 . S
H276 C263 0.950 . S
H277 C264 0.951 . S
C278 C279 1.386 . S
C278 C280 1.383 . S
C278 H294 0.951 . S
C279 C278 1.386 . S
C279 C283 1.383 . S
C280 C278 1.383 . S
C280 C281 1.402 . S
C280 H295 0.951 . S
C281 C280 1.402 . S
C281 C282 1.375 . S
C281 C284 1.481 . S
C282 C281 1.375 . S
C282 C283 1.367 . S
C282 H296 0.951 . S
C283 C279 1.383 . S
C283 C282 1.367 . S
C283 H297 0.950 . S
C284 C281 1.481 . S
C284 C285 1.297 . S
C284 H298 0.950 . S
C285 C284 1.297 . S
C285 C286 1.479 . S
C285 H299 0.950 . S
C286 C285 1.479 . S
C286 C287 1.375 . S
C286 C292 1.404 . S
C287 C286 1.375 . S
C287 C288 1.369 . S
C287 H300 0.950 . S
C288 C287 1.369 . S
C288 C289 1.392 . S
C288 H301 0.951 . S
C289 C288 1.392 . S
C289 C291 1.384 . S
H290 C292 0.949 . S
C291 C289 1.384 . S
C291 C292 1.385 . S
C291 H293 0.950 . S
C292 C286 1.404 . S
C292 H290 0.949 . S
C292 C291 1.385 . S
H293 C291 0.950 . S
H294 C278 0.951 . S
H295 C280 0.951 . S
H296 C282 0.951 . S
H297 C283 0.950 . S
H298 C284 0.950 . S
H299 C285 0.950 . S
H300 C287 0.950 . S
H301 C288 0.951 . S
C302 C303 1.386 . S
C302 C304 1.383 . S
C302 H318 0.951 . S
C303 C302 1.386 . S
C303 C307 1.383 . S
C304 C302 1.383 . S
C304 C305 1.402 . S
C304 H319 0.951 . S
C305 C304 1.402 . S
C305 C306 1.375 . S
C305 C308 1.481 . S
C306 C305 1.375 . S
C306 C307 1.367 . S
C306 H320 0.951 . S
C307 C303 1.383 . S
C307 C306 1.367 . S
C307 H321 0.950 . S
C308 C305 1.481 . S
C308 C309 1.297 . S
C308 H322 0.950 . S
C309 C308 1.297 . S
C309 C310 1.479 . S
C309 H323 0.950 . S
C310 C309 1.479 . S
C310 C311 1.375 . S
C310 C316 1.404 . S
C311 C310 1.375 . S
C311 C312 1.369 . S
C311 H324 0.950 . S
C312 C311 1.369 . S
C312 C313 1.392 . S
C312 H325 0.951 . S
C313 C312 1.392 . S
C313 C315 1.384 . S
H314 C316 0.949 . S
C315 C313 1.384 . S
C315 C316 1.385 . S
C315 H317 0.950 . S
C316 C310 1.404 . S
C316 H314 0.949 . S
C316 C315 1.385 . S
H317 C315 0.950 . S
H318 C302 0.951 . S
H319 C304 0.951 . S
H320 C306 0.951 . S
H321 C307 0.950 . S
H322 C308 0.950 . S
H323 C309 0.950 . S
H324 C311 0.950 . S
H325 C312 0.951 . S
C326 C327 1.386 . S
C326 C328 1.383 . S
C326 H342 0.951 . S
C327 C326 1.386 . S
C327 C331 1.383 . S
C328 C326 1.383 . S
C328 C329 1.402 . S
C328 H343 0.951 . S
C329 C328 1.402 . S
C329 C330 1.375 . S
C329 C332 1.481 . S
C330 C329 1.375 . S
C330 C331 1.367 . S
C330 H344 0.951 . S
C331 C327 1.383 . S
C331 C330 1.367 . S
C331 H345 0.950 . S
C332 C329 1.481 . S
C332 C333 1.297 . S
C332 H346 0.950 . S
C333 C332 1.297 . S
C333 C334 1.479 . S
C333 H347 0.950 . S
C334 C333 1.479 . S
C334 C335 1.375 . S
C334 C340 1.404 . S
C335 C334 1.375 . S
C335 C336 1.369 . S
C335 H348 0.950 . S
C336 C335 1.369 . S
C336 C337 1.392 . S
C336 H349 0.951 . S
C337 C336 1.392 . S
C337 C339 1.384 . S
H338 C340 0.949 . S
C339 C337 1.384 . S
C339 C340 1.385 . S
C339 H341 0.950 . S
C340 C334 1.404 . S
C340 H338 0.949 . S
C340 C339 1.385 . S
H341 C339 0.950 . S
H342 C326 0.951 . S
H343 C328 0.951 . S
H344 C330 0.951 . S
H345 C331 0.950 . S
H346 C332 0.950 . S
H347 C333 0.950 . S
H348 C335 0.950 . S
H349 C336 0.951 . S
C350 C351 1.386 . S
C350 C352 1.383 . S
C350 H366 0.951 . S
C351 C350 1.386 . S
C351 C355 1.383 . S
C352 C350 1.383 . S
C352 C353 1.402 . S
C352 H367 0.951 . S
C353 C352 1.402 . S
C353 C354 1.375 . S
C353 C356 1.481 . S
C354 C353 1.375 . S
C354 C355 1.367 . S
C354 H368 0.951 . S
C355 C351 1.383 . S
C355 C354 1.367 . S
C355 H369 0.950 1_556 S
C356 C353 1.481 . S
C356 C357 1.297 . S
C356 H370 0.950 . S
C357 C356 1.297 . S
C357 C358 1.479 . S
C357 H371 0.950 . S
C358 C357 1.479 . S
C358 C359 1.375 . S
C358 C364 1.404 . S
C359 C358 1.375 . S
C359 C360 1.369 . S
C359 H372 0.950 . S
C360 C359 1.369 . S
C360 C361 1.392 . S
C360 H373 0.951 . S
C361 C360 1.392 . S
C361 C363 1.384 . S
H362 C364 0.949 . S
C363 C361 1.384 . S
C363 C364 1.385 . S
C363 H365 0.950 . S
C364 C358 1.404 . S
C364 H362 0.949 . S
C364 C363 1.385 . S
H365 C363 0.950 . S
H366 C350 0.951 . S
H367 C352 0.951 . S
H368 C354 0.951 . S
H369 C355 0.950 1_554 S
H370 C356 0.950 . S
H371 C357 0.950 . S
H372 C359 0.950 . S
H373 C360 0.951 . S
C97 C60 1.306 . S
C87 C43 1.434 . S
C111 C10 1.454 . S
C121 C81 1.288 . S
C135 C21 1.616 . S
C145 C57 1.492 . S
C159 C32 1.609 . S
C169 C78 1.463 . S
C193 C62 1.515 . S
C183 C5 1.491 . S
C217 C82 1.589 . S
C207 C15 1.616 . S
C231 C27 1.579 . S
C241 C58 1.544 . S
C255 C38 1.510 . S
C265 C80 1.514 . S
C289 C79 1.438 . S
C279 C16 1.495 . S
C313 C61 1.514 . S
C303 C26 1.535 . S
C337 C83 1.425 . S
C327 C37 1.459 . S
C351 C4 1.448 1_556 S
C361 C59 1.443 . S
