# Generated by pormake.
# Topology ptr, (4,4)-cn, num edge types: 1
# Building blocks:
#     Node 0, Type 0, BuildingBlock: QUQFOY_clean_sbu_3, # of connection points: 4
#     Node 1, Type 0, BuildingBlock: QUQFOY_clean_sbu_3, # of connection points: 4
#     Node 2, Type 0, BuildingBlock: QUQFOY_clean_sbu_3, # of connection points: 4
#     Node 3, Type 0, BuildingBlock: QUQFOY_clean_sbu_3, # of connection points: 4
#     Node 4, Type 0, BuildingBlock: QUQFOY_clean_sbu_3, # of connection points: 4
#     Node 5, Type 0, BuildingBlock: QUQFOY_clean_sbu_3, # of connection points: 4
#     Node 6, Type 0, BuildingBlock: QUQFOY_clean_sbu_3, # of connection points: 4
#     Node 7, Type 0, BuildingBlock: QUQFOY_clean_sbu_3, # of connection points: 4
#     Node 8, Type 0, BuildingBlock: QUQFOY_clean_sbu_3, # of connection points: 4
#     Node 9, Type 0, BuildingBlock: QUQFOY_clean_sbu_3, # of connection points: 4
#     Node 10, Type 0, BuildingBlock: QUQFOY_clean_sbu_3, # of connection points: 4
#     Node 11, Type 0, BuildingBlock: QUQFOY_clean_sbu_3, # of connection points: 4
#     Node 12, Type 0, BuildingBlock: QUQFOY_clean_sbu_3, # of connection points: 4
#     Node 13, Type 0, BuildingBlock: QUQFOY_clean_sbu_3, # of connection points: 4
#     Node 14, Type 0, BuildingBlock: QUQFOY_clean_sbu_3, # of connection points: 4
#     Node 15, Type 0, BuildingBlock: QUQFOY_clean_sbu_3, # of connection points: 4
#     Node 16, Type 0, BuildingBlock: QUQFOY_clean_sbu_3, # of connection points: 4
#     Node 17, Type 0, BuildingBlock: QUQFOY_clean_sbu_3, # of connection points: 4
#     Node 18, Type 1, BuildingBlock: NAWXER_clean_linker_0, # of connection points: 4
#     Node 19, Type 1, BuildingBlock: NAWXER_clean_linker_0, # of connection points: 4
#     Node 20, Type 1, BuildingBlock: NAWXER_clean_linker_0, # of connection points: 4
#     Node 21, Type 1, BuildingBlock: NAWXER_clean_linker_0, # of connection points: 4
#     Node 22, Type 1, BuildingBlock: NAWXER_clean_linker_0, # of connection points: 4
#     Node 23, Type 1, BuildingBlock: NAWXER_clean_linker_0, # of connection points: 4
#     Node 24, Type 1, BuildingBlock: NAWXER_clean_linker_0, # of connection points: 4
#     Node 25, Type 1, BuildingBlock: NAWXER_clean_linker_0, # of connection points: 4
#     Node 26, Type 1, BuildingBlock: NAWXER_clean_linker_0, # of connection points: 4
#     Node 27, Type 1, BuildingBlock: NAWXER_clean_linker_0, # of connection points: 4
#     Node 28, Type 1, BuildingBlock: NAWXER_clean_linker_0, # of connection points: 4
#     Node 29, Type 1, BuildingBlock: NAWXER_clean_linker_0, # of connection points: 4
#     Node 30, Type 1, BuildingBlock: NAWXER_clean_linker_0, # of connection points: 4
#     Node 31, Type 1, BuildingBlock: NAWXER_clean_linker_0, # of connection points: 4
#     Node 32, Type 1, BuildingBlock: NAWXER_clean_linker_0, # of connection points: 4
#     Node 33, Type 1, BuildingBlock: NAWXER_clean_linker_0, # of connection points: 4
#     Node 34, Type 1, BuildingBlock: NAWXER_clean_linker_0, # of connection points: 4
#     Node 35, Type 1, BuildingBlock: NAWXER_clean_linker_0, # of connection points: 4
#     Edge 36, Type (0, 1), BuildingBlock: OJICUG_clean_linker_0, # of connection points: 2
#     Edge 37, Type (0, 1), BuildingBlock: OJICUG_clean_linker_0, # of connection points: 2
#     Edge 38, Type (0, 1), BuildingBlock: OJICUG_clean_linker_0, # of connection points: 2
#     Edge 39, Type (0, 1), BuildingBlock: OJICUG_clean_linker_0, # of connection points: 2
#     Edge 40, Type (0, 1), BuildingBlock: OJICUG_clean_linker_0, # of connection points: 2
#     Edge 41, Type (0, 1), BuildingBlock: OJICUG_clean_linker_0, # of connection points: 2
#     Edge 42, Type (0, 1), BuildingBlock: OJICUG_clean_linker_0, # of connection points: 2
#     Edge 43, Type (0, 1), BuildingBlock: OJICUG_clean_linker_0, # of connection points: 2
#     Edge 44, Type (0, 1), BuildingBlock: OJICUG_clean_linker_0, # of connection points: 2
#     Edge 45, Type (0, 1), BuildingBlock: OJICUG_clean_linker_0, # of connection points: 2
#     Edge 46, Type (0, 1), BuildingBlock: OJICUG_clean_linker_0, # of connection points: 2
#     Edge 47, Type (0, 1), BuildingBlock: OJICUG_clean_linker_0, # of connection points: 2
#     Edge 48, Type (0, 1), BuildingBlock: OJICUG_clean_linker_0, # of connection points: 2
#     Edge 49, Type (0, 1), BuildingBlock: OJICUG_clean_linker_0, # of connection points: 2
#     Edge 50, Type (0, 1), BuildingBlock: OJICUG_clean_linker_0, # of connection points: 2
#     Edge 51, Type (0, 1), BuildingBlock: OJICUG_clean_linker_0, # of connection points: 2
#     Edge 52, Type (0, 1), BuildingBlock: OJICUG_clean_linker_0, # of connection points: 2
#     Edge 53, Type (0, 1), BuildingBlock: OJICUG_clean_linker_0, # of connection points: 2
#     Edge 54, Type (0, 1), BuildingBlock: OJICUG_clean_linker_0, # of connection points: 2
#     Edge 55, Type (0, 1), BuildingBlock: OJICUG_clean_linker_0, # of connection points: 2
#     Edge 56, Type (0, 1), BuildingBlock: OJICUG_clean_linker_0, # of connection points: 2
#     Edge 57, Type (0, 1), BuildingBlock: OJICUG_clean_linker_0, # of connection points: 2
#     Edge 58, Type (0, 1), BuildingBlock: OJICUG_clean_linker_0, # of connection points: 2
#     Edge 59, Type (0, 1), BuildingBlock: OJICUG_clean_linker_0, # of connection points: 2
#     Edge 60, Type (0, 1), BuildingBlock: OJICUG_clean_linker_0, # of connection points: 2
#     Edge 61, Type (0, 1), BuildingBlock: OJICUG_clean_linker_0, # of connection points: 2
#     Edge 62, Type (0, 1), BuildingBlock: OJICUG_clean_linker_0, # of connection points: 2
#     Edge 63, Type (0, 1), BuildingBlock: OJICUG_clean_linker_0, # of connection points: 2
#     Edge 64, Type (0, 1), BuildingBlock: OJICUG_clean_linker_0, # of connection points: 2
#     Edge 65, Type (0, 1), BuildingBlock: OJICUG_clean_linker_0, # of connection points: 2
#     Edge 66, Type (0, 1), BuildingBlock: OJICUG_clean_linker_0, # of connection points: 2
#     Edge 67, Type (0, 1), BuildingBlock: OJICUG_clean_linker_0, # of connection points: 2
#     Edge 68, Type (0, 1), BuildingBlock: OJICUG_clean_linker_0, # of connection points: 2
#     Edge 69, Type (0, 1), BuildingBlock: OJICUG_clean_linker_0, # of connection points: 2
#     Edge 70, Type (0, 1), BuildingBlock: OJICUG_clean_linker_0, # of connection points: 2
#     Edge 71, Type (0, 1), BuildingBlock: OJICUG_clean_linker_0, # of connection points: 2
#     Edge 72, Type (0, 1), BuildingBlock: OJICUG_clean_linker_0, # of connection points: 2
#     Edge 73, Type (0, 1), BuildingBlock: OJICUG_clean_linker_0, # of connection points: 2
#     Edge 74, Type (0, 1), BuildingBlock: OJICUG_clean_linker_0, # of connection points: 2
#     Edge 75, Type (0, 1), BuildingBlock: OJICUG_clean_linker_0, # of connection points: 2
#     Edge 76, Type (0, 1), BuildingBlock: OJICUG_clean_linker_0, # of connection points: 2
#     Edge 77, Type (0, 1), BuildingBlock: OJICUG_clean_linker_0, # of connection points: 2
#     Edge 78, Type (0, 1), BuildingBlock: OJICUG_clean_linker_0, # of connection points: 2
#     Edge 79, Type (0, 1), BuildingBlock: OJICUG_clean_linker_0, # of connection points: 2
#     Edge 80, Type (0, 1), BuildingBlock: OJICUG_clean_linker_0, # of connection points: 2
#     Edge 81, Type (0, 1), BuildingBlock: OJICUG_clean_linker_0, # of connection points: 2
#     Edge 82, Type (0, 1), BuildingBlock: OJICUG_clean_linker_0, # of connection points: 2
#     Edge 83, Type (0, 1), BuildingBlock: OJICUG_clean_linker_0, # of connection points: 2
#     Edge 84, Type (0, 1), BuildingBlock: OJICUG_clean_linker_0, # of connection points: 2
#     Edge 85, Type (0, 1), BuildingBlock: OJICUG_clean_linker_0, # of connection points: 2
#     Edge 86, Type (0, 1), BuildingBlock: OJICUG_clean_linker_0, # of connection points: 2
#     Edge 87, Type (0, 1), BuildingBlock: OJICUG_clean_linker_0, # of connection points: 2
#     Edge 88, Type (0, 1), BuildingBlock: OJICUG_clean_linker_0, # of connection points: 2
#     Edge 89, Type (0, 1), BuildingBlock: OJICUG_clean_linker_0, # of connection points: 2
#     Edge 90, Type (0, 1), BuildingBlock: OJICUG_clean_linker_0, # of connection points: 2
#     Edge 91, Type (0, 1), BuildingBlock: OJICUG_clean_linker_0, # of connection points: 2
#     Edge 92, Type (0, 1), BuildingBlock: OJICUG_clean_linker_0, # of connection points: 2
#     Edge 93, Type (0, 1), BuildingBlock: OJICUG_clean_linker_0, # of connection points: 2
#     Edge 94, Type (0, 1), BuildingBlock: OJICUG_clean_linker_0, # of connection points: 2
#     Edge 95, Type (0, 1), BuildingBlock: OJICUG_clean_linker_0, # of connection points: 2
#     Edge 96, Type (0, 1), BuildingBlock: OJICUG_clean_linker_0, # of connection points: 2
#     Edge 97, Type (0, 1), BuildingBlock: OJICUG_clean_linker_0, # of connection points: 2
#     Edge 98, Type (0, 1), BuildingBlock: OJICUG_clean_linker_0, # of connection points: 2
#     Edge 99, Type (0, 1), BuildingBlock: OJICUG_clean_linker_0, # of connection points: 2
#     Edge 100, Type (0, 1), BuildingBlock: OJICUG_clean_linker_0, # of connection points: 2
#     Edge 101, Type (0, 1), BuildingBlock: OJICUG_clean_linker_0, # of connection points: 2
#     Edge 102, Type (0, 1), BuildingBlock: OJICUG_clean_linker_0, # of connection points: 2
#     Edge 103, Type (0, 1), BuildingBlock: OJICUG_clean_linker_0, # of connection points: 2
#     Edge 104, Type (0, 1), BuildingBlock: OJICUG_clean_linker_0, # of connection points: 2
#     Edge 105, Type (0, 1), BuildingBlock: OJICUG_clean_linker_0, # of connection points: 2
#     Edge 106, Type (0, 1), BuildingBlock: OJICUG_clean_linker_0, # of connection points: 2
#     Edge 107, Type (0, 1), BuildingBlock: OJICUG_clean_linker_0, # of connection points: 2
# Relax obj value: 0.029
# Max RMSD: 0.136
# Mean RMSD: 0.051
data_MOF--net-ptr--node1-QUQFOY_clean_sbu_3--node2-NAWXER_clean_linker_0--edge1-OJICUG_clean_linker_0
_symmetry_space_group_name_H-M    P1
_symmetry_Int_Tables_number       1
_symmetry_cell_setting            triclinic
loop_
_symmetry_equiv_pos_as_xyz
'x, y, z'
_cell_length_a     68.771423
_cell_length_b     69.130276
_cell_length_c     50.744227
_cell_angle_alpha  90.340966
_cell_angle_beta   89.537199
_cell_angle_gamma 120.66871
loop_
_atom_site_label
_atom_site_type_symbol
_atom_site_fract_x
_atom_site_fract_y
_atom_site_fract_z
_atom_type_partial_charge
C0 C 0.96053 0.30538 0.97766 0.0
O1 O 0.94955 0.3143 0.9864 0.0
Cd2 Cd 0.96559 0.34983 0.0076 0.0
O3 O 0.9817 0.31452 0.98179 0.0
Cd4 Cd 0.01229 0.3478 0.00557 0.0
C5 C 0.00665 0.37966 0.95946 0.0
O6 O 0.98916 0.34955 0.04096 0.0
O7 O 0.02265 0.37841 0.03746 0.0
O8 O 0.02064 0.32067 0.02445 0.0
C9 C 0.00395 0.36861 0.04977 0.0
O10 O 0.98834 0.37409 0.97181 0.0
C11 C 0.04195 0.33266 0.02214 0.0
O12 O 0.01953 0.3724 0.96671 0.0
O13 O 0.04972 0.35158 0.01078 0.0
C14 C 0.63244 0.69124 0.02798 0.0
O15 O 0.61177 0.6829 0.02207 0.0
Cd16 Cd 0.59087 0.64795 -0.00113 0.0
O17 O 0.64334 0.68199 0.01985 0.0
Cd18 Cd 0.63718 0.64977 0.99206 0.0
C19 C 0.60253 0.61508 0.0392 0.0
O20 O 0.61044 0.6488 0.95917 0.0
O21 O 0.61405 0.61962 0.9616 0.0
O22 O 0.67327 0.67575 0.97105 0.0
C23 C 0.60565 0.62978 0.94987 0.0
O24 O 0.58857 0.62034 0.03033 0.0
C25 C 0.68138 0.66294 0.97304 0.0
O26 O 0.62249 0.62402 0.02974 0.0
O27 O 0.66908 0.64413 0.98435 0.0
C28 C 0.29611 0.9428 0.02525 0.0
O29 O 0.30386 0.93038 0.01807 0.0
Cd30 Cd 0.33984 0.94492 -0.00359 0.0
O31 O 0.30669 0.96363 0.01969 0.0
Cd32 Cd 0.34046 0.99176 -0.00408 0.0
C33 C 0.37314 0.9865 0.04139 0.0
O34 O 0.34174 0.96817 0.96076 0.0
O35 O 0.37088 0.00164 0.96497 0.0
O36 O 0.31674 0.00181 0.97237 0.0
C37 C 0.36096 0.98327 0.95224 0.0
O38 O 0.36675 0.9676 0.03037 0.0
C39 C 0.32684 0.02224 0.97955 0.0
O40 O 0.36571 -0.00094 0.03363 0.0
O41 O 0.34333 0.02872 0.99532 0.0
C42 C 0.94987 0.64337 0.98044 0.0
O43 O 0.94027 0.62262 0.9862 0.0
Cd44 Cd 0.95756 0.60555 0.01032 0.0
O45 O 0.97007 0.65698 0.98765 0.0
Cd46 Cd 0.00039 0.65618 0.01223 0.0
C47 C 0.00333 0.62052 0.96929 0.0
O48 O 0.97686 0.6294 0.04649 0.0
O49 O 0.01172 0.6381 0.04475 0.0
O50 O 0.00766 0.69126 0.03208 0.0
C51 C -0.00735 0.62733 0.05614 0.0
O52 O 0.9855 0.60548 0.98083 0.0
C53 C 0.02887 0.70167 0.02821 0.0
O54 O 0.01177 0.64132 0.9746 0.0
O55 O 0.03683 0.6911 0.01596 0.0
C56 C 0.30918 0.36094 0.0304 0.0
O57 O 0.31823 0.38178 0.02546 0.0
Cd58 Cd 0.3539 0.40296 0.0038 0.0
O59 O 0.31831 0.34993 0.02235 0.0
Cd60 Cd 0.35116 0.35558 -0.00391 0.0
C61 C 0.38447 0.3887 0.04509 0.0
O62 O 0.35143 0.38234 0.96484 0.0
O63 O 0.38065 0.3785 0.96418 0.0
O64 O 0.32425 0.31957 0.97644 0.0
C65 C 0.37007 0.38719 0.95412 0.0
O66 O 0.37988 0.40317 0.03645 0.0
C67 C 0.33726 0.3116 0.97716 0.0
O68 O 0.37574 0.36925 0.03464 0.0
O69 O 0.35669 0.32398 0.98717 0.0
C70 C 0.69502 0.04342 0.98636 0.0
O71 O 0.68761 0.05543 -0.00402 0.0
Cd72 Cd 0.64968 0.0387 0.01242 0.0
O73 O 0.68388 0.02214 0.98907 0.0
Cd74 Cd 0.65007 0.99339 0.01367 0.0
C75 C 0.62012 -0.00246 0.96481 0.0
O76 O 0.64453 0.01488 0.04866 0.0
O77 O 0.61604 0.98197 0.0397 0.0
O78 O 0.67411 0.98576 0.04059 0.0
C79 C 0.62444 -0.00054 0.05406 0.0
O80 O 0.62594 0.01635 0.97578 0.0
C81 C 0.6657 0.96535 0.03383 0.0
O82 O 0.62677 0.98474 0.97391 0.0
O83 O 0.64988 0.95765 0.01694 0.0
C84 C 0.61384 0.63461 0.31505 0.0
O85 O 0.60167 0.64241 0.32312 0.0
Cd86 Cd 0.61668 0.67736 0.34635 0.0
O87 O 0.63468 0.6443 0.32117 0.0
Cd88 Cd 0.66287 0.6765 0.34796 0.0
C89 C 0.66019 0.71044 0.30261 0.0
O90 O 0.63841 0.6777 0.38288 0.0
O91 O 0.67193 0.70673 0.37897 0.0
O92 O 0.67202 0.64986 0.36705 0.0
C93 C 0.65331 0.6969 0.39144 0.0
O94 O 0.64116 0.70447 0.31341 0.0
C95 C 0.69329 0.66231 0.36454 0.0
O96 O 0.67217 0.70231 0.3103 0.0
O97 O 0.70054 0.6813 0.35358 0.0
C98 C 0.31235 0.03919 0.36844 0.0
O99 O 0.29199 0.03138 0.36155 0.0
Cd100 Cd 0.26954 -0.00554 0.34419 0.0
O101 O 0.32233 0.02832 0.36339 0.0
Cd102 Cd 0.31358 0.99338 0.33929 0.0
C103 C 0.28102 0.96485 0.39039 0.0
O104 O 0.28648 0.98969 0.30529 0.0
O105 O 0.2858 0.95938 0.31697 0.0
O106 O 0.34817 0.01544 0.31374 0.0
C107 C 0.27918 0.96899 0.30125 0.0
O108 O 0.26744 0.97008 0.38018 0.0
C109 C 0.35529 0.0019 0.31662 0.0
O110 O 0.30051 0.97186 0.38031 0.0
O111 O 0.34338 0.98469 0.33085 0.0
C112 C 0.9567 0.27354 0.3428 0.0
O113 O 0.965 0.26166 0.33543 0.0
Cd114 Cd 0.00258 0.27764 0.31831 0.0
O115 O 0.96762 0.29474 0.33938 0.0
Cd116 Cd 0.00288 0.32446 0.31909 0.0
C117 C 0.0314 0.31701 0.36768 0.0
O118 O 0.0061 0.30223 0.28353 0.0
O119 O 0.03483 0.33551 0.28989 0.0
O120 O 0.97818 0.33506 0.2986 0.0
C121 C 0.0257 0.31754 0.27642 0.0
O122 O 0.02589 0.29863 0.35582 0.0
C123 C 0.99037 0.35592 0.30339 0.0
O124 O 0.02498 0.33017 0.35919 0.0
O125 O 0.00833 0.36227 0.3165 0.0
C126 C 0.6056 0.96102 0.31588 0.0
O127 O 0.59535 0.94038 0.3222 0.0
Cd128 Cd 0.61335 0.92295 0.3436 0.0
O129 O 0.62618 0.97404 0.32226 0.0
Cd130 Cd 0.65647 0.97257 0.34667 0.0
C131 C 0.65727 0.93865 0.29915 0.0
O132 O 0.63337 0.94543 0.38086 0.0
O133 O 0.66794 0.95332 0.37736 0.0
O134 O 0.66377 0.0075 0.36722 0.0
C135 C 0.64924 0.94304 0.38962 0.0
O136 O 0.63881 0.92358 0.30956 0.0
C137 C 0.68495 0.01805 0.36312 0.0
O138 O 0.66743 0.95875 0.30795 0.0
O139 O 0.69294 0.00755 0.3508 0.0
C140 C 0.97945 0.68385 0.36286 0.0
O141 O 0.99017 0.70453 0.35663 0.0
Cd142 Cd 0.02329 0.72207 0.32924 0.0
O143 O 0.98594 0.67065 0.35451 0.0
Cd144 Cd 0.01627 0.67229 0.32703 0.0
C145 C 0.05667 0.70972 0.36751 0.0
O146 O 0.01572 0.69705 0.29344 0.0
O147 O 0.0432 0.69062 0.29094 0.0
O148 O 0.98734 0.63601 0.31044 0.0
C149 C 0.03298 0.69975 0.28105 0.0
O150 O 0.05326 0.72418 0.35639 0.0
C151 C -0.00071 0.62688 0.3119 0.0
O152 O 0.04423 0.68878 0.36266 0.0
O153 O 0.01895 0.63866 0.3216 0.0
C154 C 0.36592 0.3755 0.32549 0.0
O155 O 0.35926 0.38788 0.33581 0.0
Cd156 Cd 0.32078 0.37164 0.34989 0.0
O157 O 0.35366 0.35418 0.32675 0.0
Cd158 Cd 0.31885 0.32652 0.35093 0.0
C159 C 0.29077 0.33166 0.30123 0.0
O160 O 0.31283 0.34748 0.38671 0.0
O161 O 0.2837 0.31683 0.37286 0.0
O162 O 0.3432 0.31829 0.37652 0.0
C163 C 0.292 0.33285 0.38937 0.0
O164 O 0.29687 0.35039 0.31259 0.0
C165 C 0.33203 0.29715 0.37324 0.0
O166 O 0.29704 0.31848 0.31008 0.0
O167 O 0.31461 0.2893 0.35869 0.0
C168 C 0.27663 0.96545 0.66321 0.0
O169 O 0.26545 0.97442 0.67102 0.0
Cd170 Cd 0.28193 0.01058 0.69135 0.0
O171 O 0.29773 0.97483 0.66792 0.0
Cd172 Cd 0.32777 0.00829 0.69188 0.0
C173 C 0.32442 0.04105 0.64527 0.0
O174 O 0.30458 0.01127 0.72689 0.0
O175 O 0.33836 0.03961 0.72217 0.0
O176 O 0.33771 0.98268 0.71224 0.0
C177 C 0.31981 0.03054 0.73478 0.0
O178 O 0.30566 0.03572 0.65638 0.0
C179 C 0.35875 -0.00551 0.70745 0.0
O180 O 0.33643 0.03308 0.65338 0.0
O181 O 0.36547 0.01265 0.69477 0.0
C182 C 0.96617 0.36088 0.68938 0.0
O183 O 0.94532 0.3515 0.68386 0.0
Cd184 Cd 0.92466 0.31528 0.6636 0.0
O185 O 0.97747 0.35169 0.68264 0.0
Cd186 Cd 0.9706 0.31758 0.65801 0.0
C187 C 0.9368 0.28446 0.70666 0.0
O188 O 0.94345 0.31416 0.62416 0.0
O189 O 0.94561 0.28467 0.63202 0.0
O190 O 0.00525 0.34132 0.63325 0.0
C191 C 0.93795 0.29424 0.61778 0.0
O192 O 0.92247 0.28885 0.69688 0.0
C193 C 0.01376 0.32901 0.63676 0.0
O194 O 0.95687 0.29373 0.69745 0.0
O195 O 0.00248 0.31162 0.65095 0.0
C196 C 0.63474 0.60931 0.68904 0.0
O197 O 0.64207 0.59656 0.68186 0.0
Cd198 Cd 0.67976 0.61165 0.66519 0.0
O199 O 0.64617 0.63035 0.68478 0.0
Cd200 Cd 0.68066 0.65801 0.66158 0.0
C201 C 0.71073 0.65405 0.71061 0.0
O202 O 0.68335 0.63416 0.62805 0.0
O203 O 0.71292 0.66715 0.63346 0.0
O204 O 0.65772 0.66731 0.63524 0.0
C205 C 0.70313 0.64882 0.62063 0.0
O206 O 0.70476 0.63484 0.70069 0.0
C207 C 0.66719 0.68777 0.6422 0.0
O208 O 0.70386 0.66643 0.70085 0.0
O209 O 0.68316 0.69467 0.6588 0.0
C210 C 0.25972 0.30203 0.66147 0.0
O211 O 0.24878 0.28156 0.66847 0.0
Cd212 Cd 0.26717 0.26313 0.68651 0.0
O213 O 0.28076 0.31409 0.6662 0.0
Cd214 Cd 0.31097 0.31134 0.68885 0.0
C215 C 0.30921 0.27811 0.63943 0.0
O216 O 0.28951 0.28374 0.72372 0.0
O217 O 0.32355 0.29114 0.71589 0.0
O218 O 0.31992 0.34655 0.71019 0.0
C219 C 0.30576 0.28087 0.72979 0.0
O220 O 0.29073 0.26337 0.65015 0.0
C221 C 0.34095 0.35641 0.70518 0.0
O222 O 0.32044 0.29796 0.64878 0.0
O223 O 0.348 0.34537 0.69226 0.0
C224 C 0.63814 0.02152 0.6948 0.0
O225 O 0.64715 0.04191 0.68768 0.0
Cd226 Cd 0.68173 0.06136 0.66311 0.0
O227 O 0.64689 0.00982 0.68815 0.0
Cd228 Cd 0.67905 0.01359 0.66204 0.0
C229 C 0.71573 0.05238 0.70509 0.0
O230 O 0.67779 0.03719 0.62722 0.0
O231 O 0.70641 0.03237 0.62692 0.0
O232 O 0.65196 0.97616 0.64611 0.0
C233 C 0.69567 0.04044 0.61582 0.0
O234 O 0.71026 0.06561 0.69453 0.0
C235 C 0.66518 0.96851 0.64802 0.0
O236 O 0.70631 0.03185 0.69796 0.0
O237 O 0.68466 0.98161 0.65753 0.0
C238 C 0.02442 0.71455 0.64945 0.0
O239 O 0.0153 0.72591 0.65589 0.0
Cd240 Cd 0.97891 0.71038 0.67654 0.0
O241 O 0.01495 0.69381 0.65552 0.0
Cd242 Cd 0.9807 0.66525 0.67994 0.0
C243 C 0.94745 0.66722 0.63239 0.0
O244 O 0.97676 0.68859 0.71377 0.0
O245 O 0.94798 0.65523 0.70793 0.0
O246 O 0.00397 0.65686 0.70756 0.0
C247 C 0.95708 0.67345 0.72099 0.0
O248 O 0.95285 0.68608 0.64288 0.0
C249 C -0.005 0.63629 0.7013 0.0
O250 O 0.95578 0.65563 0.64089 0.0
O251 O 0.97945 0.62887 0.68408 0.0
C252 C 0.23039 0.3294 0.12101 0.0
C253 C 0.23049 0.31814 0.09794 0.0
C254 C 0.21092 0.32098 0.1364 0.0
C255 C 0.19127 0.3009 0.1293 0.0
C256 C 0.2111 0.29763 0.0913 0.0
C257 C 0.19155 0.28917 0.10678 0.0
C258 C 0.16971 0.2945 0.14259 0.0
C259 C 0.21558 0.2906 0.20239 0.0
C260 C 0.22122 0.30614 0.22313 0.0
C261 C 0.1977 0.28595 0.18537 0.0
C262 C 0.18524 0.29682 0.18885 0.0
C263 C 0.20808 0.31617 0.22712 0.0
C264 C 0.19033 0.31155 0.21027 0.0
C265 C 0.16726 0.29376 0.17031 0.0
C266 C 0.07614 0.287 0.18577 0.0
C267 C 0.08298 0.30277 0.20643 0.0
C268 C 0.09203 0.2836 0.17235 0.0
C269 C 0.11496 0.29598 0.1794 0.0
C270 C 0.10586 0.31475 0.21364 0.0
C271 C 0.12162 0.31138 0.20031 0.0
C272 C 0.13245 0.29327 0.16565 0.0
C273 C 0.10832 0.32335 0.10467 0.0
C274 C 0.09649 0.30859 0.08384 0.0
C275 C 0.12031 0.3182 0.12259 0.0
C276 C 0.12069 0.29817 0.12007 0.0
C277 C 0.0969 0.28852 0.08133 0.0
C278 C 0.10915 0.28349 0.09913 0.0
C279 C 0.13478 0.29368 0.13798 0.0
H280 H 0.24518 0.34514 0.1267 0.0
H281 H 0.21092 0.3308 0.15311 0.0
H282 H 0.21069 0.28874 0.07347 0.0
H283 H 0.1764 0.27391 0.10068 0.0
H284 H 0.22532 0.2825 0.19894 0.0
H285 H 0.19382 0.27412 0.16937 0.0
H286 H 0.21162 0.32781 0.24328 0.0
H287 H 0.18096 0.32006 0.2136 0.0
H288 H 0.05858 0.27747 0.17987 0.0
H289 H 0.0864 0.27128 0.15663 0.0
H290 H 0.1116 0.3266 0.22988 0.0
H291 H 0.13918 0.32107 0.20623 0.0
H292 H 0.10814 0.33883 0.10725 0.0
H293 H 0.12955 0.33003 0.13824 0.0
H294 H 0.08804 0.27691 0.06536 0.0
H295 H 0.1096 0.26815 0.09661 0.0
N296 N 0.15325 0.29414 0.12755 0.0
N297 N 0.1487 0.29319 0.18062 0.0
C298 C 0.67841 0.88533 0.08545 0.0
C299 C 0.69307 0.90879 0.08606 0.0
C300 C 0.68268 0.87126 0.10085 0.0
C301 C 0.7014 0.88032 0.11766 0.0
C302 C 0.71252 0.91769 0.10195 0.0
C303 C 0.71655 0.9036 0.11775 0.0
C304 C 0.70404 0.86521 0.13587 0.0
C305 C 0.71202 0.91001 0.21591 0.0
C306 C 0.69218 0.91073 0.21215 0.0
C307 C 0.71759 0.8977 0.19863 0.0
C308 C 0.70361 0.8862 0.17714 0.0
C309 C 0.67906 0.90048 0.18965 0.0
C310 C 0.68459 0.88817 0.17247 0.0
C311 C 0.70605 0.8686 0.1634 0.0
C312 C 0.70392 0.78399 0.20258 0.0
C313 C 0.68981 0.78059 0.22443 0.0
C314 C 0.70902 0.80133 0.18459 0.0
C315 C 0.69997 0.81541 0.1882 0.0
C316 C 0.6818 0.79543 0.22857 0.0
C317 C 0.6868 0.81257 0.21073 0.0
C318 C 0.70343 0.833 0.16894 0.0
C319 C 0.66445 0.76877 0.121 0.0
C320 C 0.67546 0.76818 0.09781 0.0
C321 C 0.67345 0.78833 0.1362 0.0
C322 C 0.69374 0.8076 0.12863 0.0
C323 C 0.6962 0.78722 0.0908 0.0
C324 C 0.70515 0.80682 0.10598 0.0
C325 C 0.70089 0.82942 0.14141 0.0
H326 H 0.66309 0.87777 0.07389 0.0
H327 H 0.67071 0.85332 0.10055 0.0
H328 H 0.72453 0.93559 0.10249 0.0
H329 H 0.73131 0.91089 0.13028 0.0
H330 H 0.72233 0.91756 0.23322 0.0
H331 H 0.73211 0.89608 0.2029 0.0
H332 H 0.66373 0.90086 0.1862 0.0
H333 H 0.67298 0.87886 0.1567 0.0
H334 H 0.71045 0.77288 0.199 0.0
H335 H 0.71974 0.80353 0.16778 0.0
H336 H 0.67134 0.7936 0.24554 0.0
H337 H 0.67975 0.82324 0.21424 0.0
H338 H 0.64853 0.75429 0.127 0.0
H339 H 0.66397 0.78872 0.15314 0.0
H340 H 0.70494 0.78734 0.07289 0.0
H341 H 0.72059 0.82165 0.09952 0.0
N342 N 0.70152 0.84575 0.12601 0.0
N343 N 0.70594 0.8525 0.17869 0.0
C344 C 0.09982 0.78081 0.1044 0.0
C345 C 0.08539 0.78268 0.08651 0.0
C346 C 0.11269 0.7982 0.12199 0.0
C347 C 0.11132 0.81776 0.12207 0.0
C348 C 0.08407 0.80232 0.08655 0.0
C349 C 0.09719 0.81988 0.10404 0.0
C350 C 0.12595 0.83648 0.13977 0.0
C351 C 0.07218 0.78097 0.19009 0.0
C352 C 0.08132 0.77237 0.20809 0.0
C353 C 0.0863 0.80107 0.17666 0.0
C354 C 0.10972 0.81279 0.1811 0.0
C355 C 0.10473 0.7843 0.21252 0.0
C356 C 0.11872 0.80427 0.19923 0.0
C357 C 0.12538 0.834 0.16738 0.0
C358 C 0.20132 0.92283 0.20695 0.0
C359 C 0.21095 0.91439 0.22458 0.0
C360 C 0.18485 0.90849 0.18891 0.0
C361 C 0.17748 0.88547 0.18858 0.0
C362 C 0.20396 0.89139 0.2233 0.0
C363 C 0.18717 0.87708 0.20587 0.0
C364 C 0.15928 0.86962 0.17095 0.0
C365 C 0.22008 0.89787 0.11832 0.0
C366 C 0.21915 0.90837 0.0952 0.0
C367 C 0.2014 0.88731 0.13502 0.0
C368 C 0.18147 0.8873 0.12916 0.0
C369 C 0.19962 0.9093 0.08986 0.0
C370 C 0.18081 0.89862 0.10663 0.0
C371 C 0.16041 0.87166 0.14327 0.0
H372 H 0.10097 0.76576 0.105 0.0
H373 H 0.12388 0.79648 0.13541 0.0
H374 H 0.07314 0.80419 0.07285 0.0
H375 H 0.09624 0.83505 0.10359 0.0
H376 H 0.05417 0.77215 0.18637 0.0
H377 H 0.07893 0.80752 0.16305 0.0
H378 H 0.11225 0.77842 0.22669 0.0
H379 H 0.13673 0.81302 0.20304 0.0
H380 H 0.20607 0.94035 0.20744 0.0
H381 H 0.17744 0.91522 0.17574 0.0
H382 H 0.21144 0.88429 0.23577 0.0
H383 H 0.18191 0.85939 0.20565 0.0
H384 H 0.23501 0.89707 0.12298 0.0
H385 H 0.20214 0.87788 0.15154 0.0
H386 H 0.19847 0.9172 0.07205 0.0
H387 H 0.16542 0.89835 0.10142 0.0
N388 N 0.14346 0.85518 0.12876 0.0
N389 N 0.14194 0.85079 0.18187 0.0
C390 C 0.31777 0.09525 0.83029 0.0
C391 C 0.30224 0.08301 0.81027 0.0
C392 C 0.31476 0.10998 0.84634 0.0
C393 C 0.29595 0.11256 0.84306 0.0
C394 C 0.28324 0.08539 0.80717 0.0
C395 C 0.28023 0.10018 0.8233 0.0
C396 C 0.29397 0.12973 0.85853 0.0
C397 C 0.28574 0.07744 0.9166 0.0
C398 C 0.30545 0.08473 0.93162 0.0
C399 C 0.28278 0.09275 0.90191 0.0
C400 C 0.29927 0.11566 0.90232 0.0
C401 C 0.32163 0.10785 0.93242 0.0
C402 C 0.31842 0.12318 0.91816 0.0
C403 C 0.29691 0.13192 0.88608 0.0
C404 C 0.29356 0.21659 0.9097 0.0
C405 C 0.31119 0.226 0.92824 0.0
C406 C 0.28844 0.19692 0.89609 0.0
C407 C 0.3013 0.18665 0.90015 0.0
C408 C 0.3231 0.21488 0.93331 0.0
C409 C 0.31828 0.19553 0.91936 0.0
C410 C 0.29743 0.16663 0.88494 0.0
C411 C 0.31501 0.22051 0.82442 0.0
C412 C 0.29754 0.21545 0.8065 0.0
C413 C 0.3138 0.20395 0.8411 0.0
C414 C 0.29493 0.18207 0.84051 0.0
C415 C 0.27866 0.1935 0.80592 0.0
C416 C 0.27746 0.17692 0.82266 0.0
C417 C 0.29401 0.16426 0.85735 0.0
H418 H 0.3325 0.09371 0.8333 0.0
H419 H 0.32759 0.11987 0.86078 0.0
H420 H 0.27114 0.07644 0.79168 0.0
H421 H 0.2658 0.10219 0.82013 0.0
H422 H 0.27263 0.05987 0.91601 0.0
H423 H 0.26768 0.08672 0.89016 0.0
H424 H 0.33718 0.11413 0.94333 0.0
H425 H 0.33131 0.14084 0.91871 0.0
H426 H 0.28402 0.22466 0.90521 0.0
H427 H 0.27464 0.18995 0.88218 0.0
H428 H 0.33629 0.22116 0.94799 0.0
H429 H 0.32821 0.18773 0.92327 0.0
H430 H 0.32971 0.23728 0.82546 0.0
H431 H 0.32773 0.20818 0.85428 0.0
H432 H 0.26511 0.18899 0.79204 0.0
H433 H 0.26292 0.16005 0.82165 0.0
N434 N 0.29235 0.14587 0.84523 0.0
N435 N 0.2987 0.15029 0.89815 0.0
C436 C 0.92052 0.21645 0.89737 0.0
C437 C 0.91099 0.22306 0.9176 0.0
C438 C 0.9069 0.19696 0.88258 0.0
C439 C 0.88351 0.18404 0.88759 0.0
C440 C 0.8879 0.20933 0.92347 0.0
C441 C 0.87436 0.19018 0.90862 0.0
C442 C 0.86794 0.1642 0.87141 0.0
C443 C 0.895 0.22102 0.81303 0.0
C444 C 0.90588 0.21873 0.79069 0.0
C445 C 0.88393 0.20339 0.83092 0.0
C446 C 0.88384 0.18319 0.8272 0.0
C447 C 0.90644 0.1988 0.78738 0.0
C448 C 0.89533 0.1811 0.80538 0.0
C449 C 0.86888 0.16335 0.84359 0.0
C450 C 0.77708 0.09868 0.811 0.0
C451 C 0.78077 0.08768 0.78988 0.0
C452 C 0.79398 0.11069 0.82946 0.0
C453 C 0.81485 0.11169 0.82748 0.0
C454 C 0.80127 0.08785 0.78847 0.0
C455 C 0.81827 0.09996 0.80701 0.0
C456 C 0.83411 0.12797 0.84372 0.0
C457 C 0.78485 0.07908 0.90651 0.0
C458 C 0.77466 0.08948 0.92027 0.0
C459 C 0.80346 0.09169 0.88979 0.0
C460 C 0.81228 0.11486 0.88694 0.0
C461 C 0.78326 0.11258 0.91639 0.0
C462 C 0.802 0.12513 0.90029 0.0
C463 C 0.83284 0.1293 0.87135 0.0
H464 H 0.93832 0.22663 0.8925 0.0
H465 H 0.91458 0.19225 0.86706 0.0
H466 H 0.88013 0.21355 0.9394 0.0
H467 H 0.85647 0.18048 0.91325 0.0
H468 H 0.89438 0.23621 0.8162 0.0
H469 H 0.87456 0.20523 0.84702 0.0
H470 H 0.91445 0.19645 0.77019 0.0
H471 H 0.89508 0.16551 0.80181 0.0
H472 H 0.7614 0.09876 0.81262 0.0
H473 H 0.79114 0.12029 0.84432 0.0
H474 H 0.80464 0.07971 0.77224 0.0
H475 H 0.83441 0.10089 0.8048 0.0
H476 H 0.77881 0.06137 0.90908 0.0
H477 H 0.8113 0.08353 0.87972 0.0
H478 H 0.77551 0.12113 0.92574 0.0
H479 H 0.80845 0.14299 0.8981 0.0
N480 N 0.8499 0.14714 0.88397 0.0
N481 N 0.85215 0.14503 0.83095 0.0
C482 C 0.77574 0.7024 0.90343 0.0
C483 C 0.76694 0.68641 0.92387 0.0
C484 C 0.79512 0.70649 0.88952 0.0
C485 C 0.80574 0.69421 0.89523 0.0
C486 C 0.7785 0.67525 0.93059 0.0
C487 C 0.79756 0.67903 0.91638 0.0
C488 C 0.82512 0.69662 0.8794 0.0
C489 C 0.76913 0.67056 0.81985 0.0
C490 C 0.77326 0.68427 0.79771 0.0
C491 C 0.78615 0.67586 0.83814 0.0
C492 C 0.80755 0.69522 0.83495 0.0
C493 C 0.7944 0.70408 0.79502 0.0
C494 C 0.81147 0.70941 0.8134 0.0
C495 C 0.82657 0.69864 0.85163 0.0
C496 C 0.8928 0.67274 0.81965 0.0
C497 C 0.9059 0.68915 0.80071 0.0
C498 C 0.87863 0.67583 0.83684 0.0
C499 C 0.87751 0.69552 0.8357 0.0
C500 C 0.90491 0.70897 0.79981 0.0
C501 C 0.8907 0.71203 0.81702 0.0
C502 C 0.86089 0.69786 0.85198 0.0
C503 C 0.91026 0.69443 0.90615 0.0
C504 C 0.89984 0.67612 0.92364 0.0
C505 C 0.89729 0.70125 0.89225 0.0
C506 C 0.87368 0.68964 0.89535 0.0
C507 C 0.87636 0.66531 0.92758 0.0
C508 C 0.86345 0.67199 0.9136 0.0
C509 C 0.85905 0.69505 0.87962 0.0
H510 H 0.76735 0.71135 0.89763 0.0
H511 H 0.80151 0.71895 0.874 0.0
H512 H 0.77271 0.66335 0.9467 0.0
H513 H 0.80558 0.66956 0.92159 0.0
H514 H 0.75295 0.65526 0.82252 0.0
H515 H 0.78287 0.66422 0.85409 0.0
H516 H 0.79815 0.71482 0.77798 0.0
H517 H 0.82798 0.7242 0.81032 0.0
H518 H 0.89327 0.65736 0.82096 0.0
H519 H 0.86813 0.66255 0.85058 0.0
H520 H 0.91451 0.72177 0.78519 0.0
H521 H 0.88976 0.72716 0.8155 0.0
H522 H 0.92834 0.70314 0.90273 0.0
H523 H 0.90567 0.71534 0.87884 0.0
H524 H 0.86787 0.65155 0.94141 0.0
H525 H 0.8453 0.6629 0.9166 0.0
N526 N 0.84138 0.69476 0.89214 0.0
N527 N 0.84459 0.6996 0.83913 0.0
C528 C 0.74378 0.61991 0.43368 0.0
C529 C 0.75253 0.63673 0.41414 0.0
C530 C 0.75814 0.61525 0.4482 0.0
C531 C 0.78165 0.62778 0.44411 0.0
C532 C 0.77591 0.64817 0.40897 0.0
C533 C 0.79026 0.64383 0.42383 0.0
C534 C 0.7977 0.62486 0.46077 0.0
C535 C 0.76275 0.64637 0.51923 0.0
C536 C 0.75059 0.63061 0.5391 0.0
C537 C 0.77669 0.64308 0.50202 0.0
C538 C 0.77848 0.62381 0.50411 0.0
C539 C 0.75199 0.61106 0.54079 0.0
C540 C 0.766 0.60779 0.52354 0.0
C541 C 0.79555 0.62193 0.48842 0.0
C542 C 0.88773 0.65344 0.52508 0.0
C543 C 0.884 0.63839 0.54568 0.0
C544 C 0.87098 0.64847 0.50647 0.0
C545 C 0.85024 0.62809 0.50763 0.0
C546 C 0.86348 0.61771 0.54646 0.0
C547 C 0.84668 0.6127 0.5277 0.0
C548 C 0.83139 0.62428 0.49019 0.0
C549 C 0.88762 0.63044 0.43883 0.0
C550 C 0.89616 0.64891 0.42161 0.0
C551 C 0.86697 0.62283 0.45184 0.0
C552 C 0.85473 0.63378 0.44798 0.0
C553 C 0.88336 0.65915 0.41704 0.0
C554 C 0.86291 0.65167 0.43007 0.0
C555 C 0.83368 0.62746 0.4626 0.0
H556 H 0.72591 0.61071 0.43834 0.0
H557 H 0.75082 0.60212 0.46294 0.0
H558 H 0.78328 0.66071 0.39358 0.0
H559 H 0.80825 0.65353 0.41982 0.0
H560 H 0.76188 0.66152 0.5174 0.0
H561 H 0.78669 0.65599 0.48767 0.0
H562 H 0.74305 0.5988 0.55616 0.0
H563 H 0.76751 0.59303 0.52576 0.0
H564 H 0.90339 0.66945 0.52381 0.0
H565 H 0.87395 0.66101 0.49178 0.0
H566 H 0.85998 0.60589 0.56226 0.0
H567 H 0.83066 0.59706 0.52928 0.0
H568 H 0.89711 0.62217 0.44264 0.0
H569 H 0.86073 0.60865 0.4651 0.0
H570 H 0.88918 0.67303 0.40338 0.0
H571 H 0.85371 0.6603 0.42658 0.0
N572 N 0.81671 0.62748 0.44911 0.0
N573 N 0.8123 0.62146 0.50192 0.0
C574 C 0.33756 0.22828 0.45609 0.0
C575 C 0.35403 0.24251 0.43774 0.0
C576 C 0.34217 0.21582 0.47388 0.0
C577 C 0.36335 0.21742 0.47375 0.0
C578 C 0.37524 0.24407 0.43762 0.0
C579 C 0.37977 0.23142 0.4553 0.0
C580 C 0.36739 0.20271 0.49097 0.0
C581 C 0.36089 0.25194 0.54477 0.0
C582 C 0.34245 0.24093 0.56228 0.0
C583 C 0.36836 0.23958 0.53023 0.0
C584 C 0.35751 0.21611 0.53318 0.0
C585 C 0.33193 0.21753 0.56525 0.0
C586 C 0.33935 0.20533 0.55092 0.0
C587 C 0.36458 0.20209 0.51857 0.0
C588 C 0.3699 0.11968 0.55021 0.0
C589 C 0.35264 0.11214 0.56936 0.0
C590 C 0.37504 0.1383 0.53435 0.0
C591 C 0.36298 0.14961 0.53748 0.0
C592 C 0.34126 0.12402 0.57294 0.0
C593 C 0.34634 0.14244 0.55726 0.0
C594 C 0.3669 0.16878 0.52059 0.0
C595 C 0.33788 0.11118 0.46321 0.0
C596 C 0.35147 0.11363 0.44124 0.0
C597 C 0.34444 0.12879 0.48102 0.0
C598 C 0.36488 0.14914 0.47743 0.0
C599 C 0.37241 0.13358 0.43819 0.0
C600 C 0.37895 0.15134 0.45604 0.0
C601 C 0.36911 0.16906 0.49285 0.0
H602 H 0.32114 0.22688 0.4568 0.0
H603 H 0.32902 0.20463 0.48745 0.0
H604 H 0.38818 0.25477 0.42354 0.0
H605 H 0.39604 0.2325 0.45455 0.0
H606 H 0.36939 0.27 0.54222 0.0
H607 H 0.38264 0.24833 0.51695 0.0
H608 H 0.31805 0.20858 0.57902 0.0
H609 H 0.33069 0.18726 0.55363 0.0
H610 H 0.37905 0.11092 0.54716 0.0
H611 H 0.38829 0.14376 0.51963 0.0
H612 H 0.32827 0.11901 0.58794 0.0
H613 H 0.3368 0.15081 0.56031 0.0
H614 H 0.32171 0.0959 0.46604 0.0
H615 H 0.33286 0.12689 0.49675 0.0
H616 H 0.38309 0.13587 0.42128 0.0
H617 H 0.39454 0.16709 0.4526 0.0
N618 N 0.36966 0.18624 0.47923 0.0
N619 N 0.36479 0.18536 0.53216 0.0
C620 C 0.75719 0.10397 0.4322 0.0
C621 C 0.74173 0.10349 0.4139 0.0
C622 C 0.77059 0.12326 0.44705 0.0
C623 C 0.76879 0.14243 0.4439 0.0
C624 C 0.73993 0.12271 0.41076 0.0
C625 C 0.75359 0.14218 0.42547 0.0
C626 C 0.78399 0.16303 0.45875 0.0
C627 C 0.7318 0.11366 0.51587 0.0
C628 C 0.74149 0.10681 0.53531 0.0
C629 C 0.74556 0.13218 0.49981 0.0
C630 C 0.76914 0.14405 0.5031 0.0
C631 C 0.76503 0.11894 0.53863 0.0
C632 C 0.77866 0.13734 0.52276 0.0
C633 C 0.78446 0.16354 0.48655 0.0
C634 C 0.85968 0.25054 0.52399 0.0
C635 C 0.87302 0.24311 0.53631 0.0
C636 C 0.84274 0.23659 0.50616 0.0
C637 C 0.83877 0.21498 0.5007 0.0
C638 C 0.86958 0.22182 0.52948 0.0
C639 C 0.85235 0.20777 0.51234 0.0
C640 C 0.81903 0.19868 0.48537 0.0
C641 C 0.87634 0.22007 0.42788 0.0
C642 C 0.87632 0.23348 0.40725 0.0
C643 C 0.85793 0.20941 0.44489 0.0
C644 C 0.83926 0.21219 0.44194 0.0
C645 C 0.85781 0.23668 0.40452 0.0
C646 C 0.83923 0.22585 0.42164 0.0
C647 C 0.8188 0.19804 0.45764 0.0
H648 H 0.75877 0.08933 0.4352 0.0
H649 H 0.78255 0.1233 0.46084 0.0
H650 H 0.72822 0.12278 0.39666 0.0
H651 H 0.75226 0.15697 0.42255 0.0
H652 H 0.71368 0.10463 0.51298 0.0
H653 H 0.73782 0.13729 0.48502 0.0
H654 H 0.77296 0.11441 0.55382 0.0
H655 H 0.79679 0.14623 0.52571 0.0
H656 H 0.86165 0.26671 0.52888 0.0
H657 H 0.83214 0.24225 0.49756 0.0
H658 H 0.8799 0.21571 0.53778 0.0
H659 H 0.8494 0.19105 0.50843 0.0
H660 H 0.89046 0.21748 0.43057 0.0
H661 H 0.85791 0.19818 0.45969 0.0
H662 H 0.85738 0.24684 0.38864 0.0
H663 H 0.82469 0.22772 0.41871 0.0
N664 N 0.80118 0.18033 0.44531 0.0
N665 N 0.80192 0.18142 0.49873 0.0
C666 C 0.95871 0.54471 0.14432 0.0
C667 C 0.97599 0.55441 0.1252 0.0
C668 C 0.95509 0.52586 0.15856 0.0
C669 C 0.96882 0.51651 0.15406 0.0
C670 C 0.98928 0.54464 0.12036 0.0
C671 C 0.98571 0.52591 0.13459 0.0
C672 C 0.96586 0.49693 0.16922 0.0
C673 C 0.99028 0.55167 0.23006 0.0
C674 C 0.97456 0.54808 0.25005 0.0
C675 C 0.98602 0.53466 0.21211 0.0
C676 C 0.96589 0.51379 0.21371 0.0
C677 C 0.95424 0.52729 0.25145 0.0
C678 C 0.95006 0.51014 0.23356 0.0
C679 C 0.96293 0.49507 0.19684 0.0
C680 C 0.98977 0.4306 0.22779 0.0
C681 C 0.97287 0.41674 0.24593 0.0
C682 C 0.9865 0.44453 0.21095 0.0
C683 C 0.96623 0.44476 0.21189 0.0
C684 C 0.95257 0.41698 0.24683 0.0
C685 C 0.94938 0.4311 0.2301 0.0
C686 C 0.96368 0.46101 0.1959 0.0
C687 C 0.96442 0.41054 0.1403 0.0
C688 C 0.98197 0.41998 0.12146 0.0
C689 C 0.95917 0.42429 0.15542 0.0
C690 C 0.97161 0.44777 0.15225 0.0
C691 C -0.00608 0.44342 0.11791 0.0
C692 C 0.98881 0.45711 0.13311 0.0
C693 C 0.967 0.46298 0.16832 0.0
H694 H 0.94816 0.55181 0.14846 0.0
H695 H 0.94156 0.5186 0.17301 0.0
H696 H 0.00237 0.55134 0.10535 0.0
H697 H -0.00359 0.51894 0.13057 0.0
H698 H 0.00597 0.56763 0.22839 0.0
H699 H -0.00123 0.53762 0.19744 0.0
H700 H 0.94191 0.52414 0.26676 0.0
H701 H 0.93464 0.49396 0.23538 0.0
H702 H 0.00549 0.43057 0.22651 0.0
H703 H -3e-05 0.45543 0.19753 0.0
H704 H 0.93935 0.40656 0.26077 0.0
H705 H 0.93382 0.43143 0.23143 0.0
H706 H 0.95486 0.39255 0.14354 0.0
H707 H 0.94539 0.41655 0.16951 0.0
H708 H 0.00714 0.45125 0.10314 0.0
H709 H -0.00146 0.47514 0.13006 0.0
N710 N 0.96786 0.48084 0.15611 0.0
N711 N 0.96169 0.47707 0.20905 0.0
C712 C 0.46532 0.41429 0.13082 0.0
C713 C 0.44492 0.41413 0.13398 0.0
C714 C 0.48308 0.42628 0.14844 0.0
C715 C 0.48067 0.43806 0.16963 0.0
C716 C 0.44191 0.42437 0.15641 0.0
C717 C 0.45967 0.43639 0.17393 0.0
C718 C 0.50112 0.45619 0.18252 0.0
C719 C 0.45814 0.44483 0.26183 0.0
C720 C 0.44814 0.42134 0.26369 0.0
C721 C 0.47635 0.45726 0.24493 0.0
C722 C 0.48476 0.44658 0.22888 0.0
C723 C 0.45701 0.41067 0.24802 0.0
C724 C 0.47509 0.42318 0.23063 0.0
C725 C 0.50301 0.46041 0.20989 0.0
C726 C 0.56207 0.55673 0.22331 0.0
C727 C 0.57532 0.55775 0.24483 0.0
C728 C 0.55039 0.53706 0.2084 0.0
C729 C 0.55195 0.51814 0.21458 0.0
C730 C 0.57749 0.53904 0.25037 0.0
C731 C 0.56574 0.51934 0.23549 0.0
C732 C 0.53633 0.49615 0.20251 0.0
C733 C 0.58101 0.54273 0.13815 0.0
C734 C 0.56844 0.5449 0.11783 0.0
C735 C 0.57036 0.52524 0.15658 0.0
C736 C 0.54699 0.50979 0.15497 0.0
C737 C 0.5454 0.52869 0.11555 0.0
C738 C 0.53485 0.51144 0.13386 0.0
C739 C 0.53426 0.49214 0.17506 0.0
H740 H 0.4682 0.40671 0.11363 0.0
H741 H 0.49926 0.42768 0.14445 0.0
H742 H 0.42628 0.42434 0.15946 0.0
H743 H 0.45747 0.44592 0.18947 0.0
H744 H 0.45154 0.45371 0.27285 0.0
H745 H 0.48336 0.47528 0.24368 0.0
H746 H 0.45001 0.39268 0.24914 0.0
H747 H 0.48145 0.41463 0.21855 0.0
H748 H 0.56022 0.57095 0.21846 0.0
H749 H 0.53934 0.53631 0.19284 0.0
H750 H 0.58735 0.53923 0.267 0.0
H751 H 0.56676 0.50475 0.2409 0.0
H752 H 0.59886 0.55491 0.14025 0.0
H753 H 0.58029 0.52402 0.17222 0.0
H754 H 0.53537 0.52952 0.09974 0.0
H755 H 0.51686 0.49974 0.13187 0.0
N756 N 0.5169 0.47216 0.16637 0.0
N757 N 0.52068 0.48011 0.21874 0.0
C758 C 0.44099 0.02887 0.2351 0.0
C759 C 0.43252 0.01375 0.25644 0.0
C760 C 0.45888 0.03091 0.21962 0.0
C761 C 0.46824 0.01737 0.22465 0.0
C762 C 0.44261 0.00095 0.262 0.0
C763 C 0.46009 0.00264 0.24624 0.0
C764 C 0.487 0.01869 0.20849 0.0
C765 C 0.4317 -0.00267 0.14871 0.0
C766 C 0.43678 0.01175 0.12705 0.0
C767 C 0.44836 0.00107 0.1669 0.0
C768 C 0.47041 0.01951 0.16407 0.0
C769 C 0.45863 0.03067 0.12471 0.0
C770 C 0.47536 0.0344 0.14297 0.0
C771 C 0.48881 0.02132 0.18078 0.0
C772 C 0.55477 -0.00565 0.14876 0.0
C773 C 0.56883 0.01151 0.13105 0.0
C774 C 0.53994 -0.00312 0.16543 0.0
C775 C 0.53905 0.01672 0.16495 0.0
C776 C 0.56795 0.0314 0.13069 0.0
C777 C 0.55307 0.03389 0.14735 0.0
C778 C 0.52228 0.01888 0.18112 0.0
C779 C 0.56967 0.01285 0.23711 0.0
C780 C 0.55844 -0.00526 0.25478 0.0
C781 C 0.55746 0.02003 0.22222 0.0
C782 C 0.53379 0.00898 0.2245 0.0
C783 C 0.53489 0.98437 0.25766 0.0
C784 C 0.52274 0.99137 0.24269 0.0
C785 C 0.51995 0.01537 0.20864 0.0
H786 H 0.43364 0.03897 0.23006 0.0
H787 H 0.46532 0.04306 0.20378 0.0
H788 H 0.4371 0.98961 0.27865 0.0
H789 H 0.46714 0.99219 0.25093 0.0
H790 H 0.41498 0.98268 0.15108 0.0
H791 H 0.44422 0.98892 0.1825 0.0
H792 H 0.46309 0.04191 0.10805 0.0
H793 H 0.49235 0.04851 0.14016 0.0
H794 H 0.55511 0.97887 0.14962 0.0
H795 H 0.52886 0.98315 0.17836 0.0
H796 H 0.57829 0.04477 0.11699 0.0
H797 H 0.55237 0.04918 0.14636 0.0
H798 H 0.58782 0.02122 0.23444 0.0
H799 H 0.56649 0.0341 0.20892 0.0
H800 H 0.52574 0.97078 0.27156 0.0
H801 H 0.50454 0.98271 0.24509 0.0
N802 N 0.5026 0.0157 0.2211 0.0
N803 N 0.50662 0.02173 0.16832 0.0
C804 C 0.55863 -0.00545 0.78403 0.0
C805 C 0.55874 0.9827 0.76153 0.0
C806 C 0.53915 0.98651 0.79937 0.0
C807 C 0.51949 0.96627 0.79275 0.0
C808 C 0.53919 0.9622 0.75517 0.0
C809 C 0.51963 0.95416 0.77056 0.0
C810 C 0.49819 0.95959 0.80686 0.0
C811 C 0.54576 0.95599 0.86501 0.0
C812 C 0.55153 0.97152 0.88578 0.0
C813 C 0.52766 0.95125 0.84831 0.0
C814 C 0.5151 0.96195 0.85229 0.0
C815 C 0.53844 0.98154 0.89009 0.0
C816 C 0.52046 0.97679 0.87363 0.0
C817 C 0.49645 0.9584 0.83464 0.0
C818 C 0.4059 0.9512 0.85628 0.0
C819 C 0.41375 0.96733 0.87661 0.0
C820 C 0.42114 0.94764 0.84161 0.0
C821 C 0.44438 0.96016 0.84714 0.0
C822 C 0.43696 0.97951 0.88222 0.0
C823 C 0.45206 0.97596 0.86768 0.0
C824 C 0.46124 0.95727 0.83217 0.0
C825 C 0.43504 0.9881 0.77549 0.0
C826 C 0.42002 0.97224 0.75724 0.0
C827 C 0.44887 0.98337 0.79079 0.0
C828 C 0.44799 0.96274 0.78811 0.0
C829 C 0.41933 0.95164 0.75439 0.0
C830 C 0.43343 0.94703 0.76954 0.0
C831 C 0.4628 0.9581 0.80444 0.0
H832 H 0.5735 0.01031 0.78949 0.0
H833 H 0.53924 -0.00344 0.81588 0.0
H834 H 0.53876 0.95286 0.73775 0.0
H835 H 0.50446 0.93875 0.76485 0.0
H836 H 0.55552 0.94793 0.86136 0.0
H837 H 0.52359 0.9394 0.83229 0.0
H838 H 0.54215 0.99321 0.90626 0.0
H839 H 0.51105 0.98521 0.87729 0.0
H840 H 0.38807 0.94151 0.85164 0.0
H841 H 0.41479 0.93505 0.82616 0.0
H842 H 0.44348 0.99166 0.89815 0.0
H843 H 0.46988 0.9858 0.8724 0.0
H844 H 0.43578 0.004 0.77831 0.0
H845 H 0.46023 -0.00417 0.80482 0.0
H846 H 0.40799 0.93918 0.74036 0.0
H847 H 0.43273 0.93111 0.76706 0.0
N848 N 0.48118 0.95914 0.79281 0.0
N849 N 0.47801 0.95729 0.84606 0.0
C850 C 0.00623 0.56999 0.78246 0.0
C851 C 0.01728 0.57816 0.75822 0.0
C852 C 0.0104 0.55568 0.79756 0.0
C853 C 0.02642 0.54998 0.78923 0.0
C854 C 0.03265 0.5719 0.74929 0.0
C855 C 0.03724 0.55798 0.76473 0.0
C856 C 0.0303 0.53397 0.80448 0.0
C857 C 0.04328 0.58784 0.86771 0.0
C858 C 0.02682 0.57848 0.88783 0.0
C859 C 0.04495 0.57385 0.84871 0.0
C860 C 0.03007 0.55047 0.84969 0.0
C861 C 0.01146 0.5552 0.88779 0.0
C862 C 0.0132 0.5414 0.86914 0.0
C863 C 0.0323 0.53457 0.83222 0.0
C864 C 0.03971 0.45265 0.858 0.0
C865 C 0.02515 0.4459 0.88001 0.0
C866 C 0.04212 0.47017 0.84177 0.0
C867 C 0.03014 0.48121 0.84756 0.0
C868 C 0.01363 0.45731 0.8859 0.0
C869 C 0.01615 0.47474 0.86996 0.0
C870 C 0.03204 0.49987 0.8313 0.0
C871 C -0.00452 0.43929 0.77904 0.0
C872 C 0.00661 0.44031 0.75531 0.0
C873 C 0.00357 0.45816 0.79524 0.0
C874 C 0.02309 0.47841 0.7882 0.0
C875 C 0.02645 0.46042 0.7485 0.0
C876 C 0.03449 0.47942 0.76471 0.0
C877 C 0.02969 0.499 0.80364 0.0
H878 H -0.006 0.57431 0.78945 0.0
H879 H 0.00059 0.54868 0.81538 0.0
H880 H 0.04127 0.57799 0.73055 0.0
H881 H 0.04924 0.55342 0.7575 0.0
H882 H 0.05526 0.60576 0.86721 0.0
H883 H 0.05814 0.58114 0.83386 0.0
H884 H -0.00187 0.54752 0.90248 0.0
H885 H 0.00138 0.52343 0.87008 0.0
H886 H 0.04883 0.44414 0.85311 0.0
H887 H 0.05335 0.47513 0.82486 0.0
H888 H 0.00258 0.45272 0.90295 0.0
H889 H 0.00679 0.48298 0.87501 0.0
H890 H 0.98024 0.42397 0.78486 0.0
H891 H -0.00596 0.45712 0.81282 0.0
H892 H 0.03523 0.4617 0.73019 0.0
H893 H 0.04933 0.49502 0.75869 0.0
N894 N 0.02927 0.51624 0.7913 0.0
N895 N 0.03321 0.5176 0.8443 0.0
C896 C 0.53998 0.58304 0.7541 0.0
C897 C 0.54898 0.57029 0.74352 0.0
C898 C 0.51988 0.57262 0.76882 0.0
C899 C 0.50836 0.54931 0.77268 0.0
C900 C 0.5373 0.54695 0.74788 0.0
C901 C 0.51708 0.53659 0.76192 0.0
C902 C 0.4873 0.53742 0.78806 0.0
C903 C 0.54367 0.57155 0.84764 0.0
C904 C 0.54055 0.58472 0.86652 0.0
C905 C 0.52635 0.5578 0.83033 0.0
C906 C 0.50569 0.55732 0.831 0.0
C907 C 0.52004 0.58461 0.8668 0.0
C908 C 0.50273 0.57092 0.8493 0.0
C909 C 0.48623 0.54045 0.81542 0.0
C910 C 0.42108 0.44981 0.84985 0.0
C911 C 0.41052 0.45348 0.87151 0.0
C912 C 0.43326 0.46686 0.83164 0.0
C913 C 0.43475 0.48781 0.83436 0.0
C914 C 0.41166 0.47432 0.874 0.0
C915 C 0.42386 0.49142 0.85565 0.0
C916 C 0.4502 0.50662 0.81707 0.0
C917 C 0.39483 0.45365 0.76817 0.0
C918 C 0.40208 0.44479 0.74783 0.0
C919 C 0.41023 0.47363 0.78094 0.0
C920 C 0.43332 0.48473 0.77427 0.0
C921 C 0.42485 0.45697 0.73983 0.0
C922 C 0.44027 0.47655 0.753 0.0
C923 C 0.45066 0.50445 0.78936 0.0
H924 H 0.54833 0.601 0.75089 0.0
H925 H 0.51325 0.58264 0.77696 0.0
H926 H 0.54391 0.53659 0.7409 0.0
H927 H 0.50851 0.51857 0.76501 0.0
H928 H 0.55931 0.57135 0.84674 0.0
H929 H 0.52884 0.54681 0.81727 0.0
H930 H 0.51695 0.59429 0.88132 0.0
H931 H 0.48676 0.57046 0.85054 0.0
H932 H 0.42036 0.43389 0.8473 0.0
H933 H 0.44217 0.46389 0.8159 0.0
H934 H 0.40393 0.47771 0.89069 0.0
H935 H 0.42523 0.50762 0.85841 0.0
H936 H 0.37744 0.44484 0.7749 0.0
H937 H 0.40412 0.48001 0.79647 0.0
H938 H 0.43097 0.45121 0.72364 0.0
H939 H 0.45786 0.4849 0.74696 0.0
N940 N 0.46938 0.51985 0.77613 0.0
N941 N 0.46769 0.52485 0.82888 0.0
C942 C 0.65101 0.75757 0.49157 0.0
C943 C 0.6353 0.74581 0.47152 0.0
C944 C 0.64815 0.77193 0.50846 0.0
C945 C 0.62928 0.77455 0.50605 0.0
C946 C 0.61621 0.74815 0.46935 0.0
C947 C 0.61333 0.76253 0.48636 0.0
C948 C 0.6275 0.79149 0.52222 0.0
C949 C 0.62251 0.73936 0.57879 0.0
C950 C 0.64239 0.74748 0.59373 0.0
C951 C 0.61843 0.75416 0.56458 0.0
C952 C 0.634 0.77732 0.56534 0.0
C953 C 0.65764 0.7708 0.5948 0.0
C954 C 0.65334 0.78557 0.58098 0.0
C955 C 0.63059 0.79324 0.54976 0.0
C956 C 0.6254 0.8763 0.57705 0.0
C957 C 0.64202 0.88467 0.59682 0.0
C958 C 0.6212 0.85754 0.56203 0.0
C959 C 0.63399 0.84718 0.56597 0.0
C960 C 0.65392 0.8735 0.60157 0.0
C961 C 0.65003 0.85508 0.58626 0.0
C962 C 0.63071 0.82778 0.54987 0.0
C963 C 0.65087 0.88313 0.49036 0.0
C964 C 0.63477 0.87843 0.47067 0.0
C965 C 0.64829 0.8663 0.50759 0.0
C966 C 0.62936 0.84451 0.50577 0.0
C967 C 0.6157 0.85665 0.46908 0.0
C968 C 0.61312 0.83981 0.48637 0.0
C969 C 0.62766 0.82612 0.52221 0.0
H970 H 0.66582 0.75605 0.49387 0.0
H971 H 0.66114 0.78157 0.52283 0.0
H972 H 0.60398 0.73955 0.45388 0.0
H973 H 0.59885 0.76458 0.48386 0.0
H974 H 0.61012 0.72157 0.57797 0.0
H975 H 0.60318 0.74755 0.55295 0.0
H976 H 0.67329 0.7777 0.60565 0.0
H977 H 0.66556 0.80344 0.58177 0.0
H978 H 0.61593 0.88449 0.57273 0.0
H979 H 0.60809 0.8513 0.54725 0.0
H980 H 0.66637 0.879 0.61708 0.0
H981 H 0.65989 0.8472 0.59009 0.0
H982 H 0.66567 0.89976 0.4922 0.0
H983 H 0.66139 0.87019 0.52191 0.0
H984 H 0.60318 0.85239 0.45387 0.0
H985 H 0.5986 0.82301 0.48434 0.0
N986 N 0.62598 0.80793 0.50954 0.0
N987 N 0.63209 0.81125 0.56242 0.0
C988 C 0.12643 0.74481 0.47133 0.0
C989 C 0.11956 0.75368 0.4509 0.0
C990 C 0.14085 0.75899 0.49121 0.0
C991 C 0.14846 0.7821 0.49079 0.0
C992 C 0.12642 0.7766 0.4515 0.0
C993 C 0.14079 0.79062 0.47103 0.0
C994 C 0.16575 0.79831 0.50913 0.0
C995 C 0.10288 0.76574 0.55904 0.0
C996 C 0.10397 0.75559 0.58243 0.0
C997 C 0.12208 0.77799 0.54338 0.0
C998 C 0.14281 0.7802 0.55056 0.0
C999 C 0.12446 0.75701 0.58916 0.0
C1000 C 0.14379 0.76944 0.57348 0.0
C1001 C 0.16382 0.79681 0.53685 0.0
C1002 C 0.22048 0.88982 0.57297 0.0
C1003 C 0.23315 0.88847 0.5937 0.0
C1004 C 0.20929 0.87203 0.5553 0.0
C1005 C 0.21073 0.85259 0.55779 0.0
C1006 C 0.23478 0.86908 0.59606 0.0
C1007 C 0.22343 0.85116 0.57837 0.0
C1008 C 0.19722 0.83314 0.54039 0.0
C1009 C 0.2502 0.88855 0.48751 0.0
C1010 C 0.24007 0.89546 0.46866 0.0
C1011 C 0.23695 0.86894 0.50234 0.0
C1012 C 0.21349 0.85597 0.49823 0.0
C1013 C 0.21666 0.88231 0.4647 0.0
C1014 C 0.20359 0.86285 0.47922 0.0
C1015 C 0.19861 0.83485 0.51267 0.0
H1016 H 0.12128 0.72716 0.47144 0.0
H1017 H 0.14667 0.75211 0.50627 0.0
H1018 H 0.12084 0.78385 0.43662 0.0
H1019 H 0.14617 0.80834 0.47051 0.0
H1020 H 0.08729 0.76482 0.5533 0.0
H1021 H 0.12093 0.78681 0.52645 0.0
H1022 H 0.1258 0.74949 0.60721 0.0
H1023 H 0.15969 0.77131 0.57972 0.0
H1024 H 0.21907 0.90461 0.57052 0.0
H1025 H 0.19908 0.87326 0.54001 0.0
H1026 H 0.24428 0.86753 0.612 0.0
H1027 H 0.2244 0.83612 0.58086 0.0
H1028 H 0.26825 0.89835 0.49086 0.0
H1029 H 0.24499 0.8638 0.51668 0.0
H1030 H 0.2084 0.88689 0.44998 0.0
H1031 H 0.18555 0.85315 0.47563 0.0
N1032 N 0.18299 0.81725 0.49831 0.0
N1033 N 0.1799 0.81417 0.55142 0.0
C1034 C 0.23935 0.36216 0.4777 0.0
C1035 C 0.23219 0.34266 0.46224 0.0
C1036 C 0.22386 0.36457 0.49342 0.0
C1037 C 0.20095 0.34776 0.49354 0.0
C1038 C 0.20933 0.32543 0.4637 0.0
C1039 C 0.19386 0.32815 0.47873 0.0
C1040 C 0.18387 0.35087 0.50752 0.0
C1041 C 0.20767 0.32154 0.56872 0.0
C1042 C 0.21848 0.33539 0.59055 0.0
C1043 C 0.19711 0.32777 0.55013 0.0
C1044 C 0.19734 0.3481 0.55275 0.0
C1045 C 0.21916 0.356 0.59296 0.0
C1046 C 0.20841 0.36219 0.57432 0.0
C1047 C 0.18322 0.35273 0.53513 0.0
C1048 C 0.09001 0.32868 0.55938 0.0
C1049 C 0.09264 0.34541 0.57729 0.0
C1050 C 0.1082 0.33167 0.5439 0.0
C1051 C 0.12935 0.35146 0.54604 0.0
C1052 C 0.11376 0.36534 0.5792 0.0
C1053 C 0.13206 0.36821 0.5639 0.0
C1054 C 0.14906 0.35358 0.53165 0.0
C1055 C 0.10267 0.35571 0.47016 0.0
C1056 C 0.0954 0.33838 0.45132 0.0
C1057 C 0.1202 0.36005 0.48758 0.0
C1058 C 0.13063 0.34706 0.4864 0.0
C1059 C 0.10621 0.32579 0.45002 0.0
C1060 C 0.12355 0.33007 0.46731 0.0
C1061 C 0.1494 0.35105 0.50402 0.0
H1062 H 0.2567 0.3759 0.477 0.0
H1063 H 0.22958 0.3799 0.50465 0.0
H1064 H 0.2032 0.30982 0.45295 0.0
H1065 H 0.17624 0.31489 0.47881 0.0
H1066 H 0.20704 0.30566 0.56625 0.0
H1067 H 0.18793 0.31614 0.53431 0.0
H1068 H 0.22728 0.3669 0.60971 0.0
H1069 H 0.20834 0.37771 0.577 0.0
H1070 H 0.07387 0.31324 0.55739 0.0
H1071 H 0.10589 0.3183 0.5307 0.0
H1072 H 0.11626 0.37841 0.593 0.0
H1073 H 0.14837 0.38342 0.56612 0.0
H1074 H 0.09472 0.36576 0.47156 0.0
H1075 H 0.12571 0.37362 0.50171 0.0
H1076 H 0.10147 0.31271 0.43535 0.0
H1077 H 0.13138 0.31991 0.4658 0.0
N1078 N 0.16691 0.34995 0.49312 0.0
N1079 N 0.16599 0.35432 0.54614 0.0
C1080 C 0.97589 0.37247 0.07764 0.0
C1081 C -0.00156 0.3805 0.07005 0.0
H1082 H 0.95293 0.3788 0.09944 0.0
C1083 C 0.0156 0.40072 0.08091 0.0
H1084 H 0.96229 0.35694 0.06954 0.0
C1085 C 0.01029 0.41307 0.09832 0.0
C1086 C 0.98765 0.40563 0.10504 0.0
H1087 H 0.03315 0.40719 0.07566 0.0
H1088 H 0.02394 0.42864 0.10627 0.0
C1089 C 0.97054 0.38496 0.09488 0.0
C1090 C 0.57453 0.59153 0.07374 0.0
C1091 C 0.5951 0.59829 0.06067 0.0
H1092 H 0.55047 0.56995 0.10241 0.0
C1093 C 0.60785 0.58846 0.06792 0.0
H1094 H 0.56443 0.59897 0.06903 0.0
C1095 C 0.59966 0.57154 0.08714 0.0
C1096 C 0.57862 0.56423 0.09937 0.0
H1097 H 0.62382 0.59339 0.05828 0.0
H1098 H 0.60938 0.56366 0.09175 0.0
C1099 C 0.56647 0.57481 0.09288 0.0
C1100 C 0.40055 0.01558 0.07334 0.0
C1101 C 0.38909 0.99338 0.06372 0.0
H1102 H 0.42479 0.03893 0.10102 0.0
C1103 C 0.39318 0.97743 0.07546 0.0
H1104 H 0.39779 0.02826 0.06469 0.0
C1105 C 0.40838 0.98346 0.09617 0.0
C1106 C 0.42003 0.00564 0.10567 0.0
H1107 H 0.38466 0.96016 0.06863 0.0
H1108 H 0.41136 0.97079 0.10441 0.0
C1109 C 0.41603 0.02171 0.09404 0.0
C1110 C 0.39173 -0.00281 0.91876 0.0
C1111 C 0.37244 0.97909 0.93024 0.0
H1112 H 0.41946 0.00764 0.89206 0.0
C1113 C 0.36525 0.9571 0.92163 0.0
H1114 H 0.39746 0.01435 0.92469 0.0
C1115 C 0.37804 0.95322 0.90306 0.0
C1116 C 0.3981 0.9713 0.89278 0.0
H1117 H 0.35036 0.94284 0.93012 0.0
H1118 H 0.37286 0.93605 0.89782 0.0
C1119 C 0.40435 0.99334 0.90012 0.0
C1120 C -0.00563 0.39475 0.92309 0.0
C1121 C 0.01213 0.39448 0.93625 0.0
H1122 H 0.98468 0.41077 0.89457 0.0
C1123 C 0.03452 0.40951 0.9282 0.0
H1124 H 0.97691 0.38308 0.9284 0.0
C1125 C 0.03898 0.42562 0.90864 0.0
C1126 C 0.0211 0.42674 0.89691 0.0
H1127 H 0.04852 0.40961 0.93794 0.0
H1128 H 0.05636 0.43792 0.90374 0.0
C1129 C -0.00121 0.41059 0.90366 0.0
C1130 C 0.58449 0.5976 0.91894 0.0
C1131 C 0.58962 0.61895 0.92787 0.0
H1132 H 0.56489 0.57004 0.89305 0.0
C1133 C 0.57891 0.62938 0.91602 0.0
H1134 H 0.59238 0.58906 0.92769 0.0
C1135 C 0.56316 0.61847 0.89585 0.0
C1136 C 0.55791 0.59698 0.88711 0.0
H1137 H 0.58253 0.64585 0.92246 0.0
H1138 H 0.55515 0.62687 0.88706 0.0
C1139 C 0.56883 0.58675 0.89888 0.0
C1140 C 0.01513 0.59382 0.95499 0.0
C1141 C 0.01392 0.61303 0.9496 0.0
H1142 H 0.02123 0.56854 0.93994 0.0
C1143 C 0.02025 0.62292 0.92452 0.0
H1144 H 0.01063 0.5861 0.97431 0.0
C1145 C 0.02585 0.6125 0.90444 0.0
C1146 C 0.02538 0.59227 0.90945 0.0
H1147 H 0.01938 0.63775 0.91997 0.0
H1148 H 0.02917 0.61948 0.88475 0.0
C1149 C 0.02107 0.58373 0.93526 0.0
C1150 C 0.36909 0.41495 0.92348 0.0
C1151 C 0.37996 0.40371 0.93254 0.0
H1152 H 0.37018 0.43947 0.89688 0.0
C1153 C 0.40067 0.40871 0.92114 0.0
H1154 H 0.35309 0.41144 0.9319 0.0
C1155 C 0.41042 0.42473 0.90122 0.0
C1156 C 0.39968 0.43611 0.89224 0.0
H1157 H 0.40949 0.40037 0.92775 0.0
H1158 H 0.42663 0.42851 0.89319 0.0
C1159 C 0.3789 0.43107 0.90355 0.0
C1160 C 0.60225 0.00693 0.9285 0.0
C1161 C 0.60476 0.99062 0.94192 0.0
H1162 H 0.58391 0.01364 0.89983 0.0
C1163 C 0.59129 0.96792 0.93444 0.0
H1164 H 0.61262 0.02461 0.93339 0.0
C1165 C 0.5746 0.96159 0.91511 0.0
C1166 C 0.57124 0.9779 0.90301 0.0
H1167 H 0.5929 0.95498 0.94438 0.0
H1168 H 0.56362 0.94392 0.91062 0.0
C1169 C 0.58577 0.00066 0.90927 0.0
C1170 C 0.61916 0.02289 0.08814 0.0
C1171 C 0.61074 0.00237 0.07462 0.0
H1172 H 0.6126 0.04184 0.11675 0.0
C1173 C 0.58875 0.98474 0.08035 0.0
H1174 H 0.63605 0.03679 0.08418 0.0
C1175 C 0.57534 0.98763 0.09893 0.0
C1176 C 0.58358 0.00825 0.11218 0.0
H1177 H 0.58174 0.96872 0.07027 0.0
H1178 H 0.55829 0.97385 0.10244 0.0
C1179 C 0.60569 0.02582 0.10668 0.0
C1180 C 0.96602 0.59378 0.08323 0.0
C1181 C 0.98825 0.61016 0.07622 0.0
H1182 H 0.94466 0.5631 0.10399 0.0
C1183 C 0.00635 0.60907 0.08717 0.0
H1184 H 0.95173 0.59419 0.07507 0.0
C1185 C 0.00232 0.59143 0.10387 0.0
C1186 C 0.98009 0.57438 0.10985 0.0
H1187 H 0.02367 0.62158 0.08237 0.0
H1188 H 0.01666 0.59095 0.11174 0.0
C1189 C 0.96197 0.57602 0.09986 0.0
C1190 C 0.40767 0.38056 0.07639 0.0
C1191 C 0.39954 0.39454 0.06815 0.0
H1192 H 0.42836 0.37569 0.1039 0.0
C1193 C 0.40582 0.41438 0.08233 0.0
H1194 H 0.40311 0.36514 0.06589 0.0
C1195 C 0.41999 0.42023 0.10405 0.0
C1196 C 0.42838 0.40648 0.11216 0.0
H1197 H 0.39985 0.42553 0.07664 0.0
H1198 H 0.42489 0.43593 0.11408 0.0
C1199 C 0.4221 0.38657 0.09811 0.0
C1200 C 0.666 0.72939 0.42216 0.0
C1201 C 0.6486 0.70854 0.4129 0.0
H1202 H 0.67538 0.7575 0.44757 0.0
C1203 C 0.62675 0.69958 0.42359 0.0
H1204 H 0.68301 0.73679 0.41432 0.0
C1205 C 0.62236 0.71151 0.44283 0.0
C1206 C 0.63977 0.73251 0.45185 0.0
H1207 H 0.61299 0.68355 0.41681 0.0
H1208 H 0.60536 0.7043 0.45066 0.0
C1209 C 0.66165 0.74121 0.44138 0.0
C1210 C 0.28294 0.93654 0.41957 0.0
C1211 C 0.27325 0.94961 0.41341 0.0
H1212 H 0.27994 0.90891 0.4421 0.0
C1213 C 0.25462 0.94672 0.42822 0.0
H1214 H 0.29737 0.93846 0.40854 0.0
C1215 C 0.24491 0.93013 0.4475 0.0
C1216 C 0.25342 0.91584 0.45227 0.0
H1217 H 0.24701 0.95681 0.42433 0.0
H1218 H 0.23008 0.92785 0.45794 0.0
C1219 C 0.27305 0.91971 0.43884 0.0
C1220 C 0.04601 0.30569 0.40563 0.0
C1221 C 0.04574 0.32288 0.39134 0.0
H1222 H 0.06122 0.29713 0.43638 0.0
C1223 C 0.06026 0.34537 0.3989 0.0
H1224 H 0.03471 0.28818 0.40062 0.0
C1225 C 0.07583 0.35056 0.4193 0.0
C1226 C 0.07692 0.3333 0.43254 0.0
H1227 H 0.06036 0.35895 0.38825 0.0
H1228 H 0.0877 0.36804 0.4238 0.0
C1229 C 0.06126 0.31083 0.42609 0.0
C1230 C 0.05876 0.33203 0.24606 0.0
C1231 C 0.03859 0.31379 0.25573 0.0
H1232 H 0.08822 0.34287 0.22216 0.0
C1233 C 0.03181 0.29198 0.24678 0.0
H1234 H 0.06423 0.34907 0.2523 0.0
C1235 C 0.04573 0.28838 0.22968 0.0
C1236 C 0.06655 0.30657 0.22121 0.0
H1237 H 0.01628 0.2776 0.2539 0.0
H1238 H 0.04072 0.27131 0.22418 0.0
C1239 C 0.07252 0.32848 0.22887 0.0
C1240 C 0.69057 0.73859 0.27205 0.0
C1241 C 0.66799 0.72711 0.28095 0.0
H1242 H 0.71536 0.76476 0.24709 0.0
C1243 C 0.65259 0.73222 0.26955 0.0
H1244 H 0.70281 0.73496 0.28037 0.0
C1245 C 0.65968 0.74898 0.25059 0.0
C1246 C 0.6824 0.76125 0.24255 0.0
H1247 H 0.63498 0.72347 0.27552 0.0
H1248 H 0.64733 0.75256 0.24247 0.0
C1249 C 0.69773 0.75557 0.25297 0.0
C1250 C 0.26016 0.96517 0.25802 0.0
C1251 C 0.2613 0.95577 0.28197 0.0
H1252 H 0.24392 0.95935 0.22059 0.0
C1253 C 0.24533 0.93325 0.28744 0.0
H1254 H 0.27236 0.98255 0.25341 0.0
C1255 C 0.22864 0.92021 0.26921 0.0
C1256 C 0.22791 0.92912 0.2446 0.0
H1257 H 0.24559 0.92572 0.30601 0.0
H1258 H 0.21631 0.90307 0.27453 0.0
C1259 C 0.24376 0.95189 0.23934 0.0
C1260 C 0.68899 0.94614 0.26783 0.0
C1261 C 0.66644 0.93247 0.27622 0.0
H1262 H 0.71498 0.94998 0.24082 0.0
C1263 C 0.65243 0.91229 0.26269 0.0
H1264 H 0.70019 0.96178 0.27789 0.0
C1265 C 0.66077 0.90575 0.24151 0.0
C1266 C 0.68338 0.9191 0.23337 0.0
H1267 H 0.63495 0.90139 0.26852 0.0
H1268 H 0.6496 0.88981 0.23198 0.0
C1269 C 0.69746 0.9394 0.2467 0.0
C1270 C 0.03515 0.73068 0.25344 0.0
C1271 C 0.04322 0.71619 0.25944 0.0
H1272 H 0.041 0.75999 0.23245 0.0
C1273 C 0.06227 0.7187 0.24598 0.0
H1274 H 0.02043 0.72908 0.26344 0.0
C1275 C 0.07387 0.73621 0.22807 0.0
C1276 C 0.06675 0.75166 0.22339 0.0
H1277 H 0.06869 0.70759 0.24992 0.0
H1278 H 0.0889 0.73811 0.21853 0.0
C1279 C 0.04685 0.7483 0.23558 0.0
C1280 C 0.26179 0.30244 0.2706 0.0
C1281 C 0.2751 0.32503 0.2786 0.0
H1282 H 0.23406 0.27861 0.24676 0.0
C1283 C 0.27199 0.34136 0.26618 0.0
H1284 H 0.26379 0.28946 0.27979 0.0
C1285 C 0.25518 0.3352 0.24736 0.0
C1286 C 0.2409 0.31252 0.24051 0.0
H1287 H 0.28217 0.35896 0.27152 0.0
H1288 H 0.253 0.34822 0.23861 0.0
C1289 C 0.2448 0.29623 0.25169 0.0
C1290 C 0.25419 0.32619 0.40248 0.0
C1291 C 0.27721 0.33577 0.4082 0.0
H1292 H 0.2224 0.32179 0.41407 0.0
C1293 C 0.28568 0.34801 0.43167 0.0
H1294 H 0.24725 0.31698 0.38431 0.0
C1295 C 0.27117 0.35018 0.44942 0.0
C1296 C 0.248 0.34053 0.44373 0.0
H1297 H 0.30341 0.35553 0.43652 0.0
H1298 H 0.27808 0.35914 0.46772 0.0
C1299 C 0.23986 0.3288 0.41979 0.0
C1300 C 0.6636 0.925 0.4202 0.0
C1301 C 0.6456 0.92731 0.4113 0.0
H1302 H 0.67423 0.90767 0.44565 0.0
C1303 C 0.62409 0.91398 0.42272 0.0
H1304 H 0.68038 0.935 0.41178 0.0
C1305 C 0.62058 0.89833 0.44229 0.0
C1306 C 0.63853 0.89578 0.45089 0.0
H1307 H 0.6099 0.91542 0.41631 0.0
H1308 H 0.60381 0.88821 0.45068 0.0
C1309 C 0.66011 0.90943 0.43976 0.0
C1310 C 0.09486 0.73818 0.38274 0.0
C1311 C 0.07469 0.71787 0.38731 0.0
H1312 H 0.12536 0.76484 0.39902 0.0
C1313 C 0.07085 0.7075 0.41207 0.0
H1314 H 0.0983 0.74634 0.3637 0.0
C1315 C 0.08615 0.71842 0.43269 0.0
C1316 C 0.10551 0.73968 0.42857 0.0
H1317 H 0.0553 0.69183 0.41601 0.0
H1318 H 0.0821 0.71095 0.45213 0.0
C1319 C 0.11024 0.74882 0.40304 0.0
C1320 C 0.33283 0.06433 0.76357 0.0
C1321 C 0.31532 0.0432 0.75515 0.0
H1322 H 0.34237 0.09346 0.78724 0.0
C1323 C 0.29345 0.03488 0.76552 0.0
H1324 H 0.34985 0.07125 0.75591 0.0
C1325 C 0.28915 0.04767 0.78359 0.0
C1326 C 0.30666 0.06893 0.79176 0.0
H1327 H 0.27959 0.01866 0.75938 0.0
H1328 H 0.27213 0.04091 0.79119 0.0
C1329 C 0.32856 0.07702 0.78165 0.0
C1330 C 0.94306 0.25943 0.73705 0.0
C1331 C 0.92967 0.26826 0.72876 0.0
H1332 H 0.94605 0.23675 0.76319 0.0
C1333 C 0.90882 0.26103 0.74142 0.0
H1334 H 0.95918 0.26461 0.72766 0.0
C1335 C 0.90142 0.24526 0.76167 0.0
C1336 C 0.9146 0.23619 0.7698 0.0
H1337 H 0.89805 0.26745 0.7356 0.0
H1338 H 0.88506 0.23979 0.77059 0.0
C1339 C 0.93551 0.24341 0.75728 0.0
C1340 C 0.73632 0.6843 0.74245 0.0
C1341 C 0.72601 0.6619 0.73359 0.0
H1342 H 0.75939 0.70901 0.76984 0.0
C1343 C 0.73083 0.64694 0.74656 0.0
H1344 H 0.73296 0.69624 0.73286 0.0
C1345 C 0.7458 0.65421 0.76763 0.0
C1346 C 0.7564 0.67664 0.77626 0.0
H1347 H 0.7232 0.62956 0.74031 0.0
H1348 H 0.74952 0.64233 0.77674 0.0
C1349 C 0.7515 0.69164 0.76352 0.0
C1350 C 0.73621 0.66122 0.59049 0.0
C1351 C 0.71478 0.64426 0.5991 0.0
H1352 H 0.76433 0.6701 0.56486 0.0
C1353 C 0.70483 0.62288 0.58732 0.0
H1354 H 0.74431 0.67786 0.5992 0.0
C1355 C 0.71631 0.61844 0.56757 0.0
C1356 C 0.73783 0.63536 0.55915 0.0
H1357 H 0.6883 0.60949 0.59355 0.0
H1358 H 0.70834 0.6018 0.55887 0.0
C1359 C 0.7476 0.65682 0.57069 0.0
C1360 C 0.31606 0.05965 0.60896 0.0
C1361 C 0.33211 0.05715 0.62309 0.0
H1362 H 0.31002 0.07843 0.58034 0.0
C1363 C 0.35519 0.07127 0.61709 0.0
H1364 H 0.29814 0.04877 0.61273 0.0
C1365 C 0.36206 0.0886 0.59855 0.0
C1366 C 0.34593 0.09191 0.58572 0.0
H1367 H 0.36792 0.06967 0.62765 0.0
H1368 H 0.37995 0.10007 0.59528 0.0
C1369 C 0.32287 0.0767 0.59042 0.0
C1370 C 0.90871 0.25809 0.598 0.0
C1371 C 0.92124 0.28164 0.59703 0.0
H1372 H 0.88313 0.22769 0.58061 0.0
C1373 C 0.91763 0.29274 0.57623 0.0
H1374 H 0.91087 0.24908 0.61404 0.0
C1375 C 0.90207 0.28036 0.55637 0.0
C1376 C 0.88958 0.25669 0.55724 0.0
H1377 H 0.92714 0.31092 0.57504 0.0
H1378 H 0.90013 0.28936 0.54018 0.0
C1379 C 0.8929 0.2458 0.5786 0.0
C1380 C 0.34121 0.28192 0.61128 0.0
C1381 C 0.3179 0.27138 0.6166 0.0
H1382 H 0.36742 0.2804 0.5898 0.0
C1383 C 0.30281 0.25285 0.60126 0.0
H1384 H 0.35321 0.29629 0.62279 0.0
C1385 C 0.31087 0.24406 0.58222 0.0
C1386 C 0.33423 0.25335 0.57836 0.0
H1387 H 0.28473 0.24465 0.60455 0.0
H1388 H 0.29879 0.22932 0.57127 0.0
C1389 C 0.34934 0.2729 0.59234 0.0
C1390 C 0.72375 0.05664 0.57924 0.0
C1391 C 0.70524 0.05532 0.59276 0.0
H1392 H 0.74927 0.07354 0.54982 0.0
C1393 C 0.69702 0.06933 0.58509 0.0
H1394 H 0.73023 0.0458 0.58445 0.0
C1395 C 0.70808 0.0854 0.56533 0.0
C1396 C 0.72744 0.08759 0.55294 0.0
H1397 H 0.6827 0.06859 0.59514 0.0
H1398 H 0.70219 0.09683 0.56075 0.0
C1399 C 0.73467 0.07253 0.55946 0.0
C1400 C 0.92529 0.67402 0.59882 0.0
C1401 C 0.93149 0.65935 0.60988 0.0
H1402 H 0.90551 0.67887 0.57038 0.0
C1403 C 0.92208 0.6375 0.59942 0.0
H1404 H 0.93211 0.69097 0.60628 0.0
C1405 C 0.90664 0.63051 0.57851 0.0
C1406 C 0.90058 0.64535 0.56752 0.0
H1407 H 0.92646 0.62576 0.60751 0.0
H1408 H 0.89959 0.61361 0.57081 0.0
C1409 C 0.91011 0.66714 0.57799 0.0
C1410 C 0.95367 0.69853 0.75439 0.0
C1411 C 0.94452 0.6774 0.7421 0.0
H1412 H 0.94875 0.71879 0.78273 0.0
C1413 C 0.9229 0.66008 0.74973 0.0
H1414 H 0.97031 0.71221 0.74896 0.0
C1415 C 0.91058 0.66386 0.76899 0.0
C1416 C 0.91956 0.68505 0.78106 0.0
H1417 H 0.91534 0.64361 0.74063 0.0
H1418 H 0.89377 0.65027 0.77397 0.0
C1419 C 0.94129 0.70234 0.77363 0.0
C1420 C 0.28291 0.25098 0.76331 0.0
C1421 C 0.3036 0.26479 0.75033 0.0
H1422 H 0.26478 0.2246 0.79143 0.0
C1423 C 0.32228 0.26261 0.75645 0.0
H1424 H 0.26822 0.25227 0.75899 0.0
C1425 C 0.3203 0.2468 0.77486 0.0
C1426 C 0.29958 0.23274 0.78762 0.0
H1427 H 0.33845 0.27296 0.74678 0.0
H1428 H 0.33492 0.24524 0.77863 0.0
C1429 C 0.28091 0.23505 0.78174 0.0
C1430 C 0.73998 0.08258 0.73709 0.0
C1431 C 0.73266 0.06112 0.72651 0.0
H1432 H 0.76083 0.10764 0.76517 0.0
C1433 C 0.74146 0.04832 0.73685 0.0
H1434 H 0.73363 0.09295 0.72965 0.0
C1435 C 0.75724 0.05688 0.75737 0.0
C1436 C 0.76419 0.07821 0.76811 0.0
H1437 H 0.73621 0.03175 0.72908 0.0
H1438 H 0.76374 0.04672 0.76508 0.0
C1439 C 0.75547 0.09097 0.75764 0.0
C1440 C 0.04773 0.3037 0.04418 0.0
C1441 C 0.05684 0.32572 0.03457 0.0
H1442 H 0.0532 0.28101 0.06718 0.0
C1443 C 0.07968 0.34154 0.0394 0.0
H1444 H 0.03019 0.29112 0.04076 0.0
C1445 C 0.09277 0.33578 0.05476 0.0
C1446 C 0.08338 0.31402 0.06529 0.0
H1447 H 0.08717 0.35864 0.03231 0.0
H1448 H 0.11015 0.34848 0.05885 0.0
C1449 C 0.06091 0.29787 0.05926 0.0
C1450 C 0.66683 0.72142 0.05106 0.0
C1451 C 0.64366 0.71125 0.04533 0.0
H1452 H 0.69502 0.74727 0.07234 0.0
C1453 C 0.63111 0.71994 0.05705 0.0
H1454 H 0.67698 0.71512 0.04241 0.0
C1455 C 0.64144 0.73825 0.07424 0.0
C1456 C 0.66456 0.74837 0.08004 0.0
H1457 H 0.61324 0.71252 0.0531 0.0
H1458 H 0.63135 0.7447 0.08272 0.0
C1459 C 0.67719 0.73985 0.06817 0.0
C1460 C 0.26567 0.94655 0.04783 0.0
C1461 C 0.27535 0.9334 0.04148 0.0
H1462 H 0.24021 0.94889 0.06989 0.0
C1463 C 0.26568 0.91164 0.05193 0.0
H1464 H 0.27268 0.96337 0.04001 0.0
C1465 C 0.24723 0.90348 0.06907 0.0
C1466 C 0.23798 0.91686 0.076 0.0
H1467 H 0.27266 0.90106 0.04738 0.0
H1468 H 0.24024 0.8867 0.07704 0.0
C1469 C 0.24707 0.93829 0.06486 0.0
C1470 C 0.30766 0.03204 0.94532 0.0
C1471 C 0.32034 0.03782 0.96859 0.0
H1472 H 0.29373 0.04242 0.91502 0.0
C1473 C 0.32729 0.05872 0.98044 0.0
H1474 H 0.30223 0.0161 0.9356 0.0
C1475 C 0.32184 0.0737 0.96898 0.0
C1476 C 0.30973 0.06822 0.94516 0.0
H1477 H 0.33695 0.06351 -0.00149 0.0
H1478 H 0.32723 0.08959 0.97875 0.0
C1479 C 0.30261 0.04712 0.93361 0.0
C1480 C 0.92658 0.27736 0.95279 0.0
C1481 C 0.94848 0.28452 0.96184 0.0
H1482 H 0.89808 0.25296 0.93112 0.0
C1483 C 0.95852 0.27175 0.95535 0.0
H1484 H 0.91846 0.28697 0.95701 0.0
C1485 C 0.94659 0.25189 0.94062 0.0
C1486 C 0.92449 0.24458 0.93207 0.0
H1487 H 0.97542 0.2769 0.96197 0.0
H1488 H 0.95445 0.24204 0.93644 0.0
C1489 C 0.91483 0.25777 0.93798 0.0
C1490 C 0.71891 0.69154 0.95408 0.0
C1491 C 0.7037 0.66926 0.96172 0.0
H1492 H 0.75106 0.71463 0.93695 0.0
C1493 C 0.70962 0.65284 0.9575 0.0
H1494 H 0.71483 0.70459 0.95722 0.0
C1495 C 0.73012 0.65845 0.94535 0.0
C1496 C 0.7454 0.68073 0.93751 0.0
H1497 H 0.69815 0.63548 0.96295 0.0
H1498 H 0.73368 0.64514 0.94154 0.0
C1499 C 0.73961 0.69725 0.94227 0.0
C1500 C 0.94649 0.67507 0.96189 0.0
C1501 C 0.93743 0.65184 0.96536 0.0
H1502 H 0.94161 0.701 0.94631 0.0
C1503 C 0.91627 0.63674 0.95443 0.0
H1504 H 0.96276 0.68716 0.9701 0.0
C1505 C 0.90432 0.64467 0.94058 0.0
C1506 C 0.91314 0.66789 0.93751 0.0
H1507 H 0.90891 0.61874 0.95651 0.0
H1508 H 0.88816 0.63255 0.93216 0.0
C1509 C 0.93445 0.68302 0.94813 0.0
C1510 C 0.34677 0.28368 0.95941 0.0
C1511 C 0.33041 0.28932 0.96588 0.0
H1512 H 0.35371 0.25979 0.94165 0.0
C1513 C 0.30758 0.27388 0.96049 0.0
H1514 H 0.36452 0.29537 0.96308 0.0
C1515 C 0.30125 0.25317 0.94873 0.0
C1516 C 0.31766 0.24763 0.94171 0.0
H1517 H 0.29459 0.27777 0.96542 0.0
H1518 H 0.28347 0.24151 0.94523 0.0
C1519 C 0.3405 0.26318 0.94725 0.0
C1520 C 0.71929 0.04301 0.94957 0.0
C1521 C 0.71626 0.05421 0.97098 0.0
H1522 H 0.7397 0.04546 0.91624 0.0
C1523 C 0.73321 0.07632 0.97675 0.0
H1524 H 0.70639 0.02594 0.94466 0.0
C1525 C 0.75257 0.08727 0.96103 0.0
C1526 C 0.75516 0.07665 0.9386 0.0
H1527 H 0.73145 0.08521 0.9934 0.0
H1528 H 0.76538 0.10425 0.96635 0.0
C1529 C 0.73845 0.05419 0.93336 0.0
C1530 C 0.66866 0.93064 0.03492 0.0
C1531 C 0.67356 0.95124 0.04612 0.0
H1532 H 0.67182 0.90152 0.03801 0.0
C1533 C 0.68574 0.95823 0.06977 0.0
H1534 H 0.65947 0.92493 0.01657 0.0
C1535 C 0.69234 0.94466 0.08241 0.0
C1536 C 0.6873 0.92387 0.07149 0.0
H1537 H 0.68965 0.97398 0.079 0.0
H1538 H 0.7008 0.95024 0.1012 0.0
C1539 C 0.67565 0.91719 0.04734 0.0
C1540 C 0.0672 0.73326 0.04046 0.0
C1541 C 0.0437 0.72416 0.03971 0.0
H1542 H 0.09887 0.7591 0.05582 0.0
C1543 C 0.03433 0.73574 0.05228 0.0
H1544 H 0.07492 0.72475 0.0309 0.0
C1545 C 0.04807 0.75544 0.06647 0.0
C1546 C 0.07136 0.76376 0.06851 0.0
H1547 H 0.01628 0.72917 0.05197 0.0
H1548 H 0.0403 0.76352 0.0769 0.0
C1549 C 0.08089 0.75283 0.05483 0.0
C1550 C 0.27794 0.32649 0.0522 0.0
C1551 C 0.28841 0.3496 0.04663 0.0
H1552 H 0.2514 0.29838 0.07302 0.0
C1553 C 0.2793 0.36203 0.05752 0.0
H1554 H 0.28454 0.31644 0.04409 0.0
C1555 C 0.26045 0.3517 0.07404 0.0
C1556 C 0.25025 0.32872 0.08001 0.0
H1557 H 0.28688 0.37983 0.05356 0.0
H1558 H 0.25379 0.36171 0.08208 0.0
C1559 C 0.25897 0.31612 0.0687 0.0
C1560 C 0.73146 0.6716 0.38036 0.0
C1561 C 0.7088 0.65546 0.37531 0.0
H1562 H 0.76269 0.67861 0.39731 0.0
C1563 C 0.70076 0.63294 0.3821 0.0
H1564 H 0.73808 0.68913 0.3756 0.0
C1565 C 0.71503 0.62672 0.39405 0.0
C1566 C 0.73759 0.64296 0.3999 0.0
H1567 H 0.68338 0.62009 0.3783 0.0
H1568 H 0.7083 0.60917 0.39874 0.0
C1569 C 0.74561 0.66548 0.39272 0.0
C1570 C 0.3114 0.07004 0.39305 0.0
C1571 C 0.32364 0.05992 0.3846 0.0
H1572 H 0.31075 0.09497 0.41752 0.0
C1573 C 0.34596 0.06876 0.39347 0.0
H1574 H 0.29424 0.0638 0.38654 0.0
C1575 C 0.35546 0.08678 0.41127 0.0
C1576 C 0.34267 0.09602 0.42066 0.0
H1577 H 0.35586 0.06137 0.38725 0.0
H1578 H 0.37242 0.09293 0.41845 0.0
C1579 C 0.32078 0.08782 0.41094 0.0
C1580 C 0.92341 0.23984 0.36269 0.0
C1581 C 0.93478 0.26291 0.35688 0.0
H1582 H 0.8958 0.21245 0.38288 0.0
C1583 C 0.92564 0.27591 0.36599 0.0
H1584 H 0.92985 0.2293 0.3558 0.0
C1585 C 0.90609 0.26621 0.38158 0.0
C1586 C 0.89544 0.24339 0.38839 0.0
H1587 H 0.93394 0.29373 0.36174 0.0
H1588 H 0.89983 0.27672 0.38915 0.0
C1589 C 0.90396 0.2302 0.37829 0.0
C1590 C 0.00114 0.39507 0.29086 0.0
C1591 C 0.98481 0.37207 0.29199 0.0
H1592 H 0.01009 0.42733 0.27531 0.0
C1593 C 0.9638 0.36427 0.27982 0.0
H1594 H 0.01748 0.40155 0.30007 0.0
C1595 C 0.95958 0.379 0.26573 0.0
C1596 C 0.97636 0.40175 0.26338 0.0
H1597 H 0.95086 0.34662 0.28043 0.0
H1598 H 0.94357 0.37238 0.25569 0.0
C1599 C -0.00301 0.40977 0.27655 0.0
C1600 C 0.61675 0.60501 0.28934 0.0
C1601 C 0.60396 0.61467 0.29751 0.0
H1602 H 0.6178 0.57957 0.26607 0.0
C1603 C 0.5818 0.6055 0.2881 0.0
H1604 H 0.63389 0.6117 0.29617 0.0
C1605 C 0.57268 0.58722 0.2708 0.0
C1606 C 0.58545 0.5776 0.26259 0.0
H1607 H 0.57147 0.6125 0.29395 0.0
H1608 H 0.55545 0.58039 0.26417 0.0
C1609 C 0.60755 0.58661 0.27213 0.0
C1610 C 0.37889 0.98708 0.29811 0.0
C1611 C 0.37571 0.00532 0.30265 0.0
H1612 H 0.39855 0.97515 0.27914 0.0
C1613 C 0.39152 0.0265 0.29241 0.0
H1614 H 0.36681 0.97049 0.30547 0.0
C1615 C 0.41012 0.02937 0.27778 0.0
C1616 C 0.4131 0.01101 0.27267 0.0
H1617 H 0.3895 0.04089 0.2957 0.0
H1618 H 0.42218 0.04602 0.27059 0.0
C1619 C 0.39721 0.98983 0.28307 0.0
C1620 C 0.60343 0.99307 0.29606 0.0
C1621 C 0.5937 0.96984 0.30033 0.0
H1622 H 0.59983 0.01922 0.27865 0.0
C1623 C 0.5726 0.95496 0.28911 0.0
H1624 H 0.61969 0.00498 0.30444 0.0
C1625 C 0.56143 0.96308 0.27405 0.0
C1626 C 0.57095 0.98631 0.27005 0.0
H1627 H 0.56474 0.93696 0.29172 0.0
H1628 H 0.54536 0.95107 0.26535 0.0
C1629 C 0.59214 0.00123 0.28113 0.0
C1630 C 0.96975 0.59196 0.28951 0.0
C1631 C -0.00837 0.60463 0.3 0.0
H1632 H 0.94714 0.56392 0.26543 0.0
C1633 C 0.00694 0.59709 0.29633 0.0
H1634 H 0.95757 0.59734 0.2921 0.0
C1635 C 0.001 0.57809 0.28096 0.0
C1636 C 0.9796 0.56621 0.26919 0.0
H1637 H 0.02389 0.60644 0.30425 0.0
H1638 H 0.01339 0.57307 0.27763 0.0
C1639 C 0.96375 0.57283 0.2743 0.0
C1640 C 0.40551 0.40707 0.31914 0.0
C1641 C 0.38771 0.38599 0.31123 0.0
H1642 H 0.43897 0.43407 0.31144 0.0
C1643 C 0.39054 0.37562 0.28884 0.0
H1644 H 0.40389 0.41526 0.33659 0.0
C1645 C 0.41039 0.38674 0.27376 0.0
C1646 C 0.42802 0.40827 0.28113 0.0
H1647 H 0.377 0.35936 0.28229 0.0
H1648 H 0.41145 0.37881 0.25579 0.0
C1649 C 0.42556 0.4179 0.30454 0.0
C1650 C 0.32313 0.25939 0.38991 0.0
C1651 C 0.33844 0.28256 0.3873 0.0
H1652 H 0.31608 0.2285 0.40799 0.0
C1653 C 0.35946 0.29212 0.4 0.0
H1654 H 0.3068 0.25156 0.38039 0.0
C1655 C 0.3648 0.27895 0.41567 0.0
C1656 C 0.34913 0.25598 0.41921 0.0
H1657 H 0.37165 0.30994 0.39832 0.0
H1658 H 0.38086 0.28694 0.42582 0.0
C1659 C 0.32837 0.24624 0.40585 0.0
C1660 C 0.69019 0.05295 0.38494 0.0
C1661 C 0.69967 0.04096 0.37367 0.0
H1662 H 0.69617 0.08229 0.40638 0.0
C1663 C 0.72323 0.05049 0.37407 0.0
H1664 H 0.67208 0.04606 0.38486 0.0
C1665 C 0.73695 0.07112 0.38652 0.0
C1666 C 0.72741 0.08274 0.39855 0.0
H1667 H 0.73103 0.04168 0.36551 0.0
H1668 H 0.75504 0.07786 0.38709 0.0
C1669 C 0.70396 0.07372 0.39715 0.0
C1670 C 0.94467 0.65154 0.38276 0.0
C1671 C 0.9589 0.67487 0.37936 0.0
H1672 H 0.91351 0.62499 0.3986 0.0
C1673 C 0.95298 0.68953 0.3913 0.0
H1674 H 0.94879 0.63979 0.37383 0.0
C1675 C 0.93294 0.68105 0.40569 0.0
C1676 C 0.91829 0.65772 0.40828 0.0
H1677 H 0.9637 0.70759 0.38933 0.0
H1678 H 0.92882 0.69279 0.41461 0.0
C1679 C 0.92453 0.64304 0.39706 0.0
C1680 C 0.39807 0.00351 0.71784 0.0
C1681 C 0.37471 0.98799 0.71766 0.0
H1682 H 0.43075 0.01064 0.73048 0.0
C1683 C 0.36659 0.96664 0.72889 0.0
H1684 H 0.40485 0.02008 0.70933 0.0
C1685 C 0.38144 0.9612 0.74082 0.0
C1686 C 0.40466 0.97708 0.74203 0.0
H1687 H 0.34868 0.95429 0.729 0.0
H1688 H 0.37462 0.94489 0.75004 0.0
C1689 C 0.41288 -0.00184 0.73005 0.0
C1690 C 0.96376 0.39027 0.71573 0.0
C1691 C 0.977 0.38202 0.70488 0.0
H1692 H 0.96282 0.41517 0.73999 0.0
C1693 C 0.00037 0.39366 0.70991 0.0
H1694 H 0.94573 0.3818 0.71223 0.0
C1695 C 0.01018 0.4129 0.72586 0.0
C1696 C -0.00325 0.42068 0.73728 0.0
H1697 H 0.01105 0.38776 0.7018 0.0
H1698 H 0.02814 0.42135 0.72982 0.0
C1699 C 0.97351 0.40933 0.73179 0.0
C1700 C 0.6091 0.61206 0.72185 0.0
C1701 C 0.61268 0.59975 0.70228 0.0
H1702 H 0.58652 0.61221 0.75088 0.0
C1703 C 0.59502 0.5783 0.69541 0.0
H1704 H 0.62256 0.62868 0.72748 0.0
C1705 C 0.5741 0.56919 0.70803 0.0
C1706 C 0.57063 0.58102 0.72846 0.0
H1707 H 0.5973 0.56868 0.68002 0.0
H1708 H 0.5607 0.55278 0.70175 0.0
C1709 C 0.58836 0.60268 0.73505 0.0
C1710 C 0.66593 0.72331 0.64268 0.0
C1711 C 0.66024 0.70278 0.63066 0.0
H1712 H 0.66393 0.75314 0.64111 0.0
C1713 C 0.64798 0.69666 0.60705 0.0
H1714 H 0.6752 0.72832 0.66103 0.0
C1715 C 0.64199 0.71104 0.59529 0.0
C1716 C 0.64777 0.73171 0.60711 0.0
H1717 H 0.64349 0.68097 0.59724 0.0
H1718 H 0.63337 0.70613 0.57654 0.0
C1719 C 0.65956 0.73755 0.63116 0.0
C1720 C 0.24241 0.93537 0.64015 0.0
C1721 C 0.2652 0.94461 0.64718 0.0
H1722 H 0.21447 0.91033 0.61801 0.0
C1723 C 0.27708 0.93438 0.63763 0.0
H1724 H 0.23268 0.9427 0.64722 0.0
C1725 C 0.26655 0.91573 0.6208 0.0
C1726 C 0.24402 0.9071 0.61306 0.0
H1727 H 0.29464 0.94103 0.64271 0.0
H1728 H 0.27623 0.90852 0.61317 0.0
C1729 C 0.23198 0.91688 0.62326 0.0
C1730 C 0.0485 0.35462 0.61059 0.0
C1731 C 0.03502 0.33397 0.6235 0.0
H1732 H 0.0774 0.37446 0.58592 0.0
C1733 C 0.0413 0.31758 0.62218 0.0
H1734 H 0.04409 0.36759 0.61128 0.0
C1735 C 0.0602 0.32144 0.60746 0.0
C1736 C 0.07336 0.34188 0.59405 0.0
H1737 H 0.03125 0.3015 0.63189 0.0
H1738 H 0.06447 0.30838 0.60642 0.0
C1739 C 0.06758 0.35859 0.59614 0.0
C1740 C 0.26029 0.33401 0.63753 0.0
C1741 C 0.24839 0.31143 0.64583 0.0
H1742 H 0.26011 0.35934 0.61348 0.0
C1743 C 0.226 0.29744 0.63744 0.0
H1744 H 0.27755 0.34526 0.64372 0.0
C1745 C 0.21613 0.30551 0.62013 0.0
C1746 C 0.22836 0.32776 0.61092 0.0
H1747 H 0.21628 0.28002 0.64355 0.0
H1748 H 0.199 0.29419 0.61357 0.0
C1749 C 0.25033 0.34212 0.62029 0.0
C1750 C 0.67562 0.94088 0.63175 0.0
C1751 C 0.65885 0.94614 0.63749 0.0
H1752 H 0.68364 0.91789 0.61365 0.0
C1753 C 0.63629 0.93058 0.63104 0.0
H1754 H 0.69319 0.95266 0.63624 0.0
C1755 C 0.63067 0.91035 0.61851 0.0
C1756 C 0.64757 0.90541 0.61182 0.0
H1757 H 0.62299 0.93418 0.63536 0.0
H1758 H 0.61311 0.89868 0.61391 0.0
C1759 C 0.67008 0.92085 0.61886 0.0
C1760 C 0.05373 0.74686 0.62299 0.0
C1761 C 0.04554 0.7253 0.63356 0.0
H1762 H 0.07853 0.7732 0.5987 0.0
C1763 C 0.05724 0.71395 0.62789 0.0
H1764 H 0.04521 0.75613 0.62694 0.0
C1765 C 0.0765 0.72386 0.61165 0.0
C1766 C 0.0842 0.74514 0.60054 0.0
H1767 H 0.05141 0.69733 0.63577 0.0
H1768 H 0.08504 0.71468 0.60729 0.0
C1769 C 0.07275 0.7566 0.60662 0.0
C1770 C 0.01296 0.62847 0.73907 0.0
C1771 C 0.00167 0.62164 0.71479 0.0
H1772 H 0.02645 0.61982 0.77191 0.0
C1773 C -0.00369 0.60062 0.70431 0.0
H1774 H 0.01723 0.64452 0.74774 0.0
C1775 C 0.00205 0.58669 0.718 0.0
C1776 C 0.01275 0.59338 0.74259 0.0
H1777 H 0.98765 0.59495 0.68564 0.0
H1778 H -0.0024 0.57045 0.70977 0.0
C1779 C 0.01821 0.61438 0.75295 0.0
C1780 C 0.37965 0.38694 0.71744 0.0
C1781 C 0.35658 0.37936 0.71484 0.0
H1782 H 0.41181 0.41294 0.73077 0.0
C1783 C 0.34849 0.39357 0.72245 0.0
H1784 H 0.38629 0.37623 0.71199 0.0
C1785 C 0.36326 0.415 0.73259 0.0
C1786 C 0.38635 0.42248 0.73579 0.0
H1787 H 0.33076 0.38816 0.7205 0.0
H1788 H 0.35654 0.42566 0.73787 0.0
C1789 C 0.39431 0.40812 0.72805 0.0
C1790 C 0.60898 0.02465 0.72112 0.0
C1791 C 0.61752 0.01136 0.71137 0.0
H1792 H 0.58363 0.02591 0.74443 0.0
C1793 C 0.60636 0.9884 0.71795 0.0
H1794 H 0.61713 0.04237 0.71639 0.0
C1795 C 0.58715 0.97898 0.73409 0.0
C1796 C 0.57885 0.99238 0.74409 0.0
H1797 H 0.61249 0.97769 0.71073 0.0
H1798 H 0.579 0.96131 0.7391 0.0
C1799 C 0.58989 0.01527 0.73734 0.0
loop_
_geom_bond_atom_site_label_1
_geom_bond_atom_site_label_2
_geom_bond_distance
_geom_bond_site_symmetry_2
_ccdc_geom_bond_type
C0 O1 1.306 . S
C0 O3 1.160 . S
O1 C0 1.306 . S
O1 Cd2 2.228 1_556 S
Cd2 O1 2.228 1_554 S
Cd2 O6 2.273 . S
Cd2 O10 2.277 1_554 S
O3 C0 1.160 . S
O3 Cd4 2.203 1_656 S
Cd4 O3 2.203 1_454 S
Cd4 O6 2.411 1_455 S
Cd4 O7 2.333 . S
Cd4 O8 2.352 . S
Cd4 O12 2.277 1_554 S
Cd4 O13 2.356 . S
C5 O10 1.209 1_455 S
C5 O12 1.226 . S
O6 Cd2 2.273 . S
O6 Cd4 2.411 1_655 S
O6 C9 1.335 . S
O7 Cd4 2.333 . S
O7 C9 1.179 1_455 S
O8 Cd4 2.352 . S
O8 C11 1.258 . S
C9 O6 1.335 . S
C9 O7 1.179 1_655 S
O10 Cd2 2.277 1_556 S
O10 C5 1.209 1_655 S
C11 O8 1.258 . S
C11 O13 1.282 . S
O12 Cd4 2.277 1_556 S
O12 C5 1.226 . S
O13 Cd4 2.356 . S
O13 C11 1.282 . S
C14 O15 1.306 . S
C14 O17 1.160 . S
O15 C14 1.306 . S
O15 Cd16 2.228 . S
Cd16 O15 2.228 . S
Cd16 O20 2.273 1_554 S
Cd16 O24 2.277 . S
O17 C14 1.160 . S
O17 Cd18 2.203 . S
Cd18 O17 2.203 . S
Cd18 O20 2.411 1_554 S
Cd18 O21 2.333 1_554 S
Cd18 O22 2.352 1_554 S
Cd18 O26 2.277 . S
Cd18 O27 2.356 1_554 S
C19 O24 1.209 . S
C19 O26 1.226 . S
O20 Cd16 2.273 1_556 S
O20 Cd18 2.411 1_556 S
O20 C23 1.320 . S
O21 Cd18 2.333 1_556 S
O21 C23 1.214 . S
O22 Cd18 2.352 1_556 S
O22 C25 1.258 . S
C23 O20 1.320 . S
C23 O21 1.214 . S
O24 Cd16 2.277 . S
O24 C19 1.209 . S
C25 O22 1.258 . S
C25 O27 1.282 . S
O26 Cd18 2.277 . S
O26 C19 1.226 . S
O27 Cd18 2.356 1_556 S
O27 C25 1.282 . S
C28 O29 1.306 . S
C28 O31 1.160 . S
O29 C28 1.306 . S
O29 Cd30 2.228 . S
Cd30 O29 2.228 . S
Cd30 O34 2.273 1_554 S
Cd30 O38 2.277 . S
O31 C28 1.160 . S
O31 Cd32 2.203 1_565 S
Cd32 O31 2.203 1_545 S
Cd32 O34 2.411 1_544 S
Cd32 O35 2.333 1_554 S
Cd32 O36 2.352 1_554 S
Cd32 O40 2.277 . S
Cd32 O41 2.356 . S
C33 O38 1.209 1_545 S
C33 O40 1.226 . S
O34 Cd30 2.273 1_556 S
O34 Cd32 2.411 1_566 S
O34 C37 1.317 1_565 S
O35 Cd32 2.333 1_556 S
O35 C37 1.221 . S
O36 Cd32 2.352 1_556 S
O36 C39 1.258 . S
C37 O34 1.317 1_545 S
C37 O35 1.221 . S
O38 Cd30 2.277 . S
O38 C33 1.209 1_565 S
C39 O36 1.258 . S
C39 O41 1.282 1_556 S
O40 Cd32 2.277 . S
O40 C33 1.226 . S
O41 Cd32 2.356 . S
O41 C39 1.282 1_554 S
C42 O43 1.306 . S
C42 O45 1.160 . S
O43 C42 1.306 . S
O43 Cd44 2.228 1_556 S
Cd44 O43 2.228 1_554 S
Cd44 O48 2.273 . S
Cd44 O52 2.277 1_554 S
O45 C42 1.160 . S
O45 Cd46 2.203 1_656 S
Cd46 O45 2.203 1_454 S
Cd46 O48 2.411 1_455 S
Cd46 O49 2.333 . S
Cd46 O50 2.352 . S
Cd46 O54 2.277 1_554 S
Cd46 O55 2.356 . S
C47 O52 1.209 1_455 S
C47 O54 1.226 . S
O48 Cd44 2.273 . S
O48 Cd46 2.411 1_655 S
O48 C51 1.320 . S
O49 Cd46 2.333 . S
O49 C51 1.214 1_455 S
O50 Cd46 2.352 . S
O50 C53 1.258 . S
C51 O48 1.320 . S
C51 O49 1.214 1_655 S
O52 Cd44 2.277 1_556 S
O52 C47 1.209 1_655 S
C53 O50 1.258 . S
C53 O55 1.282 . S
O54 Cd46 2.277 1_556 S
O54 C47 1.226 . S
O55 Cd46 2.356 . S
O55 C53 1.282 . S
C56 O57 1.306 . S
C56 O59 1.160 . S
O57 C56 1.306 . S
O57 Cd58 2.228 . S
Cd58 O57 2.228 . S
Cd58 O62 2.273 1_554 S
Cd58 O66 2.277 . S
O59 C56 1.160 . S
O59 Cd60 2.203 . S
Cd60 O59 2.203 . S
Cd60 O62 2.411 1_554 S
Cd60 O63 2.333 1_554 S
Cd60 O64 2.352 1_554 S
Cd60 O68 2.277 . S
Cd60 O69 2.356 1_554 S
C61 O66 1.209 . S
C61 O68 1.226 . S
O62 Cd58 2.273 1_556 S
O62 Cd60 2.411 1_556 S
O62 C65 1.320 . S
O63 Cd60 2.333 1_556 S
O63 C65 1.214 . S
O64 Cd60 2.352 1_556 S
O64 C67 1.258 . S
C65 O62 1.320 . S
C65 O63 1.214 . S
O66 Cd58 2.277 . S
O66 C61 1.209 . S
C67 O64 1.258 . S
C67 O69 1.282 . S
O68 Cd60 2.277 . S
O68 C61 1.226 . S
O69 Cd60 2.356 1_556 S
O69 C67 1.282 . S
C70 O71 1.306 . S
C70 O73 1.160 . S
O71 C70 1.306 . S
O71 Cd72 2.228 1_556 S
Cd72 O71 2.228 1_554 S
Cd72 O76 2.273 . S
Cd72 O80 2.277 1_554 S
O73 C70 1.160 . S
O73 Cd74 2.203 1_546 S
Cd74 O73 2.203 1_564 S
Cd74 O76 2.411 1_565 S
Cd74 O77 2.333 . S
Cd74 O78 2.352 . S
Cd74 O82 2.277 1_554 S
Cd74 O83 2.356 . S
C75 O80 1.209 1_565 S
C75 O82 1.226 . S
O76 Cd72 2.273 . S
O76 Cd74 2.411 1_545 S
O76 C79 1.320 . S
O77 Cd74 2.333 . S
O77 C79 1.214 1_565 S
O78 Cd74 2.352 . S
O78 C81 1.258 . S
C79 O76 1.320 . S
C79 O77 1.214 1_545 S
O80 Cd72 2.277 1_556 S
O80 C75 1.209 1_545 S
C81 O78 1.258 . S
C81 O83 1.282 . S
O82 Cd74 2.277 1_556 S
O82 C75 1.226 . S
O83 Cd74 2.356 . S
O83 C81 1.282 . S
C84 O85 1.306 . S
C84 O87 1.160 . S
O85 C84 1.306 . S
O85 Cd86 2.228 . S
Cd86 O85 2.228 . S
Cd86 O90 2.273 . S
Cd86 O94 2.277 . S
O87 C84 1.160 . S
O87 Cd88 2.203 . S
Cd88 O87 2.203 . S
Cd88 O90 2.411 . S
Cd88 O91 2.333 . S
Cd88 O92 2.352 . S
Cd88 O96 2.277 . S
Cd88 O97 2.356 . S
C89 O94 1.209 . S
C89 O96 1.226 . S
O90 Cd86 2.273 . S
O90 Cd88 2.411 . S
O90 C93 1.320 . S
O91 Cd88 2.333 . S
O91 C93 1.214 . S
O92 Cd88 2.352 . S
O92 C95 1.258 . S
C93 O90 1.320 . S
C93 O91 1.214 . S
O94 Cd86 2.277 . S
O94 C89 1.209 . S
C95 O92 1.258 . S
C95 O97 1.282 . S
O96 Cd88 2.277 . S
O96 C89 1.226 . S
O97 Cd88 2.356 . S
O97 C95 1.282 . S
C98 O99 1.306 . S
C98 O101 1.160 . S
O99 C98 1.306 . S
O99 Cd100 2.228 1_545 S
Cd100 O99 2.228 1_565 S
Cd100 O104 2.273 . S
Cd100 O108 2.277 . S
O101 C98 1.160 . S
O101 Cd102 2.203 1_545 S
Cd102 O101 2.203 1_565 S
Cd102 O104 2.411 . S
Cd102 O105 2.333 . S
Cd102 O106 2.352 1_565 S
Cd102 O110 2.277 . S
Cd102 O111 2.356 . S
C103 O108 1.209 . S
C103 O110 1.226 . S
O104 Cd100 2.273 . S
O104 Cd102 2.411 . S
O104 C107 1.320 . S
O105 Cd102 2.333 . S
O105 C107 1.214 . S
O106 Cd102 2.352 1_545 S
O106 C109 1.258 1_545 S
C107 O104 1.320 . S
C107 O105 1.214 . S
O108 Cd100 2.277 . S
O108 C103 1.209 . S
C109 O106 1.258 1_565 S
C109 O111 1.282 . S
O110 Cd102 2.277 . S
O110 C103 1.226 . S
O111 Cd102 2.356 . S
O111 C109 1.282 . S
C112 O113 1.306 . S
C112 O115 1.160 . S
O113 C112 1.306 . S
O113 Cd114 2.228 1_655 S
Cd114 O113 2.228 1_455 S
Cd114 O118 2.273 . S
Cd114 O122 2.277 . S
O115 C112 1.160 . S
O115 Cd116 2.203 1_655 S
Cd116 O115 2.203 1_455 S
Cd116 O118 2.411 . S
Cd116 O119 2.333 . S
Cd116 O120 2.352 . S
Cd116 O124 2.277 . S
Cd116 O125 2.356 . S
C117 O122 1.209 . S
C117 O124 1.226 . S
O118 Cd114 2.273 . S
O118 Cd116 2.411 . S
O118 C121 1.320 . S
O119 Cd116 2.333 . S
O119 C121 1.214 . S
O120 Cd116 2.352 . S
O120 C123 1.258 . S
C121 O118 1.320 . S
C121 O119 1.214 . S
O122 Cd114 2.277 . S
O122 C117 1.209 . S
C123 O120 1.258 . S
C123 O125 1.282 . S
O124 Cd116 2.277 . S
O124 C117 1.226 . S
O125 Cd116 2.356 . S
O125 C123 1.282 . S
C126 O127 1.306 . S
C126 O129 1.164 . S
O127 C126 1.306 . S
O127 Cd128 2.228 . S
Cd128 O127 2.228 . S
Cd128 O132 2.273 . S
Cd128 O136 2.277 . S
O129 C126 1.164 . S
O129 Cd130 2.232 . S
Cd130 O129 2.232 . S
Cd130 O132 2.411 . S
Cd130 O133 2.333 . S
Cd130 O134 2.352 1_565 S
Cd130 O138 2.277 . S
Cd130 O139 2.356 1_565 S
C131 O136 1.209 . S
C131 O138 1.226 . S
O132 Cd128 2.273 . S
O132 Cd130 2.411 . S
O132 C135 1.320 . S
O133 Cd130 2.333 . S
O133 C135 1.214 . S
O134 Cd130 2.352 1_545 S
O134 C137 1.258 . S
C135 O132 1.320 . S
C135 O133 1.214 . S
O136 Cd128 2.277 . S
O136 C131 1.209 . S
C137 O134 1.258 . S
C137 O139 1.282 . S
O138 Cd130 2.277 . S
O138 C131 1.226 . S
O139 Cd130 2.356 1_545 S
O139 C137 1.282 . S
C140 O141 1.306 . S
C140 O143 1.160 . S
O141 C140 1.306 . S
O141 Cd142 2.228 1_655 S
Cd142 O141 2.228 1_455 S
Cd142 O146 2.273 . S
Cd142 O150 2.277 . S
O143 C140 1.160 . S
O143 Cd144 2.203 1_655 S
Cd144 O143 2.203 1_455 S
Cd144 O146 2.411 . S
Cd144 O147 2.333 . S
Cd144 O148 2.351 . S
Cd144 O152 2.277 . S
Cd144 O153 2.356 . S
C145 O150 1.209 . S
C145 O152 1.226 . S
O146 Cd142 2.273 . S
O146 Cd144 2.411 . S
O146 C149 1.320 . S
O147 Cd144 2.333 . S
O147 C149 1.214 . S
O148 Cd144 2.351 . S
O148 C151 1.256 . S
C149 O146 1.320 . S
C149 O147 1.214 . S
O150 Cd142 2.277 . S
O150 C145 1.209 . S
C151 O148 1.256 . S
C151 O153 1.282 . S
O152 Cd144 2.277 . S
O152 C145 1.226 . S
O153 Cd144 2.356 . S
O153 C151 1.282 . S
C154 O155 1.306 . S
C154 O157 1.160 . S
O155 C154 1.306 . S
O155 Cd156 2.228 . S
Cd156 O155 2.228 . S
Cd156 O160 2.273 . S
Cd156 O164 2.277 . S
O157 C154 1.160 . S
O157 Cd158 2.203 . S
Cd158 O157 2.203 . S
Cd158 O160 2.411 . S
Cd158 O161 2.333 . S
Cd158 O162 2.352 . S
Cd158 O166 2.277 . S
Cd158 O167 2.356 . S
C159 O164 1.209 . S
C159 O166 1.226 . S
O160 Cd156 2.273 . S
O160 Cd158 2.411 . S
O160 C163 1.320 . S
O161 Cd158 2.333 . S
O161 C163 1.214 . S
O162 Cd158 2.352 . S
O162 C165 1.258 . S
C163 O160 1.320 . S
C163 O161 1.214 . S
O164 Cd156 2.277 . S
O164 C159 1.209 . S
C165 O162 1.258 . S
C165 O167 1.282 . S
O166 Cd158 2.277 . S
O166 C159 1.226 . S
O167 Cd158 2.356 . S
O167 C165 1.282 . S
C168 O169 1.306 . S
C168 O171 1.160 . S
O169 C168 1.306 . S
O169 Cd170 2.228 1_565 S
Cd170 O169 2.228 1_545 S
Cd170 O174 2.273 . S
Cd170 O178 2.277 . S
O171 C168 1.160 . S
O171 Cd172 2.203 1_565 S
Cd172 O171 2.203 1_545 S
Cd172 O174 2.411 . S
Cd172 O175 2.333 . S
Cd172 O176 2.328 1_545 S
Cd172 O180 2.277 . S
Cd172 O181 2.356 . S
C173 O178 1.209 . S
C173 O180 1.226 . S
O174 Cd170 2.273 . S
O174 Cd172 2.411 . S
O174 C177 1.320 . S
O175 Cd172 2.333 . S
O175 C177 1.214 . S
O176 Cd172 2.328 1_565 S
O176 C179 1.258 1_565 S
C177 O174 1.320 . S
C177 O175 1.214 . S
O178 Cd170 2.277 . S
O178 C173 1.209 . S
C179 O176 1.258 1_545 S
C179 O181 1.282 . S
O180 Cd172 2.277 . S
O180 C173 1.226 . S
O181 Cd172 2.356 . S
O181 C179 1.282 . S
C182 O183 1.306 . S
C182 O185 1.160 1_655 S
O183 C182 1.306 . S
O183 Cd184 2.228 . S
Cd184 O183 2.228 . S
Cd184 O188 2.273 . S
Cd184 O192 2.277 . S
O185 C182 1.160 1_455 S
O185 Cd186 2.203 1_455 S
Cd186 O185 2.203 1_655 S
Cd186 O188 2.411 . S
Cd186 O189 2.333 . S
Cd186 O190 2.352 1_655 S
Cd186 O194 2.277 . S
Cd186 O195 2.356 1_655 S
C187 O192 1.209 . S
C187 O194 1.226 . S
O188 Cd184 2.273 . S
O188 Cd186 2.411 . S
O188 C191 1.320 . S
O189 Cd186 2.333 . S
O189 C191 1.214 . S
O190 Cd186 2.352 1_455 S
O190 C193 1.258 . S
C191 O188 1.320 . S
C191 O189 1.214 . S
O192 Cd184 2.277 . S
O192 C187 1.209 . S
C193 O190 1.258 . S
C193 O195 1.282 . S
O194 Cd186 2.277 . S
O194 C187 1.226 . S
O195 Cd186 2.356 1_455 S
O195 C193 1.282 . S
C196 O197 1.306 . S
C196 O199 1.160 . S
O197 C196 1.306 . S
O197 Cd198 2.228 . S
Cd198 O197 2.228 . S
Cd198 O202 2.273 . S
Cd198 O206 2.277 . S
O199 C196 1.160 . S
O199 Cd200 2.203 . S
Cd200 O199 2.203 . S
Cd200 O202 2.411 . S
Cd200 O203 2.333 . S
Cd200 O204 2.352 . S
Cd200 O208 2.277 . S
Cd200 O209 2.356 . S
C201 O206 1.209 . S
C201 O208 1.226 . S
O202 Cd198 2.273 . S
O202 Cd200 2.411 . S
O202 C205 1.320 . S
O203 Cd200 2.333 . S
O203 C205 1.214 . S
O204 Cd200 2.352 . S
O204 C207 1.258 . S
C205 O202 1.320 . S
C205 O203 1.214 . S
O206 Cd198 2.277 . S
O206 C201 1.209 . S
C207 O204 1.258 . S
C207 O209 1.282 . S
O208 Cd200 2.277 . S
O208 C201 1.226 . S
O209 Cd200 2.356 . S
O209 C207 1.282 . S
C210 O211 1.306 . S
C210 O213 1.160 . S
O211 C210 1.306 . S
O211 Cd212 2.228 . S
Cd212 O211 2.228 . S
Cd212 O216 2.273 . S
Cd212 O220 2.277 . S
O213 C210 1.160 . S
O213 Cd214 2.203 . S
Cd214 O213 2.203 . S
Cd214 O216 2.411 . S
Cd214 O217 2.333 . S
Cd214 O218 2.352 . S
Cd214 O222 2.277 . S
Cd214 O223 2.356 . S
C215 O220 1.209 . S
C215 O222 1.226 . S
O216 Cd212 2.273 . S
O216 Cd214 2.411 . S
O216 C219 1.320 . S
O217 Cd214 2.333 . S
O217 C219 1.214 . S
O218 Cd214 2.352 . S
O218 C221 1.258 . S
C219 O216 1.320 . S
C219 O217 1.214 . S
O220 Cd212 2.277 . S
O220 C215 1.209 . S
C221 O218 1.258 . S
C221 O223 1.282 . S
O222 Cd214 2.277 . S
O222 C215 1.226 . S
O223 Cd214 2.356 . S
O223 C221 1.282 . S
C224 O225 1.306 . S
C224 O227 1.160 . S
O225 C224 1.306 . S
O225 Cd226 2.228 . S
Cd226 O225 2.228 . S
Cd226 O230 2.273 . S
Cd226 O234 2.277 . S
O227 C224 1.160 . S
O227 Cd228 2.203 . S
Cd228 O227 2.203 . S
Cd228 O230 2.411 . S
Cd228 O231 2.333 . S
Cd228 O232 2.352 1_545 S
Cd228 O236 2.277 . S
Cd228 O237 2.356 1_545 S
C229 O234 1.209 . S
C229 O236 1.226 . S
O230 Cd226 2.273 . S
O230 Cd228 2.411 . S
O230 C233 1.320 . S
O231 Cd228 2.333 . S
O231 C233 1.214 . S
O232 Cd228 2.352 1_565 S
O232 C235 1.258 . S
C233 O230 1.320 . S
C233 O231 1.214 . S
O234 Cd226 2.277 . S
O234 C229 1.209 . S
C235 O232 1.258 . S
C235 O237 1.282 . S
O236 Cd228 2.277 . S
O236 C229 1.226 . S
O237 Cd228 2.356 1_565 S
O237 C235 1.282 . S
C238 O239 1.306 . S
C238 O241 1.160 . S
O239 C238 1.306 . S
O239 Cd240 2.228 1_455 S
Cd240 O239 2.228 1_655 S
Cd240 O244 2.273 . S
Cd240 O248 2.277 . S
O241 C238 1.160 . S
O241 Cd242 2.203 1_455 S
Cd242 O241 2.203 1_655 S
Cd242 O244 2.411 . S
Cd242 O245 2.333 . S
Cd242 O246 2.352 1_655 S
Cd242 O250 2.277 . S
Cd242 O251 2.356 . S
C243 O248 1.209 . S
C243 O250 1.226 . S
O244 Cd240 2.273 . S
O244 Cd242 2.411 . S
O244 C247 1.320 . S
O245 Cd242 2.333 . S
O245 C247 1.214 . S
O246 Cd242 2.352 1_455 S
O246 C249 1.258 1_455 S
C247 O244 1.320 . S
C247 O245 1.214 . S
O248 Cd240 2.277 . S
O248 C243 1.209 . S
C249 O246 1.258 1_655 S
C249 O251 1.282 . S
O250 Cd242 2.277 . S
O250 C243 1.226 . S
O251 Cd242 2.356 . S
O251 C249 1.282 . S
C252 C253 1.384 . S
C252 C254 1.384 . S
C252 H280 0.931 . S
C253 C252 1.384 . S
C253 C256 1.382 . S
C254 C252 1.384 . S
C254 C255 1.381 . S
C254 H281 0.930 . S
C255 C254 1.381 . S
C255 C257 1.381 . S
C255 C258 1.487 . S
C256 C253 1.382 . S
C256 C257 1.387 . S
C256 H282 0.930 . S
C257 C255 1.381 . S
C257 C256 1.387 . S
C257 H283 0.931 . S
C258 C255 1.487 . S
C258 C265 1.399 . S
C258 N296 1.343 . S
C259 C260 1.384 . S
C259 C261 1.384 . S
C259 H284 0.931 . S
C260 C259 1.384 . S
C260 C263 1.382 . S
C261 C259 1.384 . S
C261 C262 1.381 . S
C261 H285 0.930 . S
C262 C261 1.381 . S
C262 C264 1.381 . S
C262 C265 1.487 . S
C263 C260 1.382 . S
C263 C264 1.387 . S
C263 H286 0.930 . S
C264 C262 1.381 . S
C264 C263 1.387 . S
C264 H287 0.931 . S
C265 C258 1.399 . S
C265 C262 1.487 . S
C265 N297 1.343 . S
C266 C267 1.384 . S
C266 C268 1.384 . S
C266 H288 0.931 . S
C267 C266 1.384 . S
C267 C270 1.382 . S
C268 C266 1.384 . S
C268 C269 1.381 . S
C268 H289 0.930 . S
C269 C268 1.381 . S
C269 C271 1.381 . S
C269 C272 1.487 . S
C270 C267 1.382 . S
C270 C271 1.387 . S
C270 H290 0.930 . S
C271 C269 1.381 . S
C271 C270 1.387 . S
C271 H291 0.931 . S
C272 C269 1.487 . S
C272 C279 1.399 . S
C272 N297 1.343 . S
C273 C274 1.384 . S
C273 C275 1.384 . S
C273 H292 0.931 . S
C274 C273 1.384 . S
C274 C277 1.382 . S
C275 C273 1.384 . S
C275 C276 1.381 . S
C275 H293 0.930 . S
C276 C275 1.381 . S
C276 C278 1.381 . S
C276 C279 1.487 . S
C277 C274 1.382 . S
C277 C278 1.387 . S
C277 H294 0.930 . S
C278 C276 1.381 . S
C278 C277 1.387 . S
C278 H295 0.931 . S
C279 C272 1.399 . S
C279 C276 1.487 . S
C279 N296 1.343 . S
H280 C252 0.931 . S
H281 C254 0.930 . S
H282 C256 0.930 . S
H283 C257 0.931 . S
H284 C259 0.931 . S
H285 C261 0.930 . S
H286 C263 0.930 . S
H287 C264 0.931 . S
H288 C266 0.931 . S
H289 C268 0.930 . S
H290 C270 0.930 . S
H291 C271 0.931 . S
H292 C273 0.931 . S
H293 C275 0.930 . S
H294 C277 0.930 . S
H295 C278 0.931 . S
N296 C258 1.343 . S
N296 C279 1.343 . S
N297 C265 1.343 . S
N297 C272 1.343 . S
C298 C299 1.384 . S
C298 C300 1.384 . S
C298 H326 0.931 . S
C299 C298 1.384 . S
C299 C302 1.382 . S
C300 C298 1.384 . S
C300 C301 1.381 . S
C300 H327 0.930 . S
C301 C300 1.381 . S
C301 C303 1.381 . S
C301 C304 1.487 . S
C302 C299 1.382 . S
C302 C303 1.387 . S
C302 H328 0.930 . S
C303 C301 1.381 . S
C303 C302 1.387 . S
C303 H329 0.931 . S
C304 C301 1.487 . S
C304 C311 1.399 . S
C304 N342 1.343 . S
C305 C306 1.384 . S
C305 C307 1.384 . S
C305 H330 0.931 . S
C306 C305 1.384 . S
C306 C309 1.382 . S
C307 C305 1.384 . S
C307 C308 1.381 . S
C307 H331 0.930 . S
C308 C307 1.381 . S
C308 C310 1.381 . S
C308 C311 1.487 . S
C309 C306 1.382 . S
C309 C310 1.387 . S
C309 H332 0.930 . S
C310 C308 1.381 . S
C310 C309 1.387 . S
C310 H333 0.931 . S
C311 C304 1.399 . S
C311 C308 1.487 . S
C311 N343 1.343 . S
C312 C313 1.384 . S
C312 C314 1.384 . S
C312 H334 0.931 . S
C313 C312 1.384 . S
C313 C316 1.382 . S
C314 C312 1.384 . S
C314 C315 1.381 . S
C314 H335 0.930 . S
C315 C314 1.381 . S
C315 C317 1.381 . S
C315 C318 1.487 . S
C316 C313 1.382 . S
C316 C317 1.387 . S
C316 H336 0.930 . S
C317 C315 1.381 . S
C317 C316 1.387 . S
C317 H337 0.931 . S
C318 C315 1.487 . S
C318 C325 1.399 . S
C318 N343 1.343 . S
C319 C320 1.384 . S
C319 C321 1.384 . S
C319 H338 0.931 . S
C320 C319 1.384 . S
C320 C323 1.382 . S
C321 C319 1.384 . S
C321 C322 1.381 . S
C321 H339 0.930 . S
C322 C321 1.381 . S
C322 C324 1.381 . S
C322 C325 1.487 . S
C323 C320 1.382 . S
C323 C324 1.387 . S
C323 H340 0.930 . S
C324 C322 1.381 . S
C324 C323 1.387 . S
C324 H341 0.931 . S
C325 C318 1.399 . S
C325 C322 1.487 . S
C325 N342 1.343 . S
H326 C298 0.931 . S
H327 C300 0.930 . S
H328 C302 0.930 . S
H329 C303 0.931 . S
H330 C305 0.931 . S
H331 C307 0.930 . S
H332 C309 0.930 . S
H333 C310 0.931 . S
H334 C312 0.931 . S
H335 C314 0.930 . S
H336 C316 0.930 . S
H337 C317 0.931 . S
H338 C319 0.931 . S
H339 C321 0.930 . S
H340 C323 0.930 . S
H341 C324 0.931 . S
N342 C304 1.343 . S
N342 C325 1.343 . S
N343 C311 1.343 . S
N343 C318 1.343 . S
C344 C345 1.384 . S
C344 C346 1.384 . S
C344 H372 0.931 . S
C345 C344 1.384 . S
C345 C348 1.382 . S
C346 C344 1.384 . S
C346 C347 1.381 . S
C346 H373 0.930 . S
C347 C346 1.381 . S
C347 C349 1.381 . S
C347 C350 1.487 . S
C348 C345 1.382 . S
C348 C349 1.387 . S
C348 H374 0.930 . S
C349 C347 1.381 . S
C349 C348 1.387 . S
C349 H375 0.931 . S
C350 C347 1.487 . S
C350 C357 1.399 . S
C350 N388 1.343 . S
C351 C352 1.384 . S
C351 C353 1.384 . S
C351 H376 0.931 . S
C352 C351 1.384 . S
C352 C355 1.382 . S
C353 C351 1.384 . S
C353 C354 1.381 . S
C353 H377 0.930 . S
C354 C353 1.381 . S
C354 C356 1.381 . S
C354 C357 1.487 . S
C355 C352 1.382 . S
C355 C356 1.387 . S
C355 H378 0.930 . S
C356 C354 1.381 . S
C356 C355 1.387 . S
C356 H379 0.931 . S
C357 C350 1.399 . S
C357 C354 1.487 . S
C357 N389 1.343 . S
C358 C359 1.384 . S
C358 C360 1.384 . S
C358 H380 0.931 . S
C359 C358 1.384 . S
C359 C362 1.382 . S
C360 C358 1.384 . S
C360 C361 1.381 . S
C360 H381 0.930 . S
C361 C360 1.381 . S
C361 C363 1.381 . S
C361 C364 1.487 . S
C362 C359 1.382 . S
C362 C363 1.387 . S
C362 H382 0.930 . S
C363 C361 1.381 . S
C363 C362 1.387 . S
C363 H383 0.931 . S
C364 C361 1.487 . S
C364 C371 1.399 . S
C364 N389 1.343 . S
C365 C366 1.384 . S
C365 C367 1.384 . S
C365 H384 0.931 . S
C366 C365 1.384 . S
C366 C369 1.382 . S
C367 C365 1.384 . S
C367 C368 1.381 . S
C367 H385 0.930 . S
C368 C367 1.381 . S
C368 C370 1.381 . S
C368 C371 1.487 . S
C369 C366 1.382 . S
C369 C370 1.387 . S
C369 H386 0.930 . S
C370 C368 1.381 . S
C370 C369 1.387 . S
C370 H387 0.931 . S
C371 C364 1.399 . S
C371 C368 1.487 . S
C371 N388 1.343 . S
H372 C344 0.931 . S
H373 C346 0.930 . S
H374 C348 0.930 . S
H375 C349 0.931 . S
H376 C351 0.931 . S
H377 C353 0.930 . S
H378 C355 0.930 . S
H379 C356 0.931 . S
H380 C358 0.931 . S
H381 C360 0.930 . S
H382 C362 0.930 . S
H383 C363 0.931 . S
H384 C365 0.931 . S
H385 C367 0.930 . S
H386 C369 0.930 . S
H387 C370 0.931 . S
N388 C350 1.343 . S
N388 C371 1.343 . S
N389 C357 1.343 . S
N389 C364 1.343 . S
C390 C391 1.384 . S
C390 C392 1.384 . S
C390 H418 0.931 . S
C391 C390 1.384 . S
C391 C394 1.382 . S
C392 C390 1.384 . S
C392 C393 1.381 . S
C392 H419 0.930 . S
C393 C392 1.381 . S
C393 C395 1.381 . S
C393 C396 1.487 . S
C394 C391 1.382 . S
C394 C395 1.387 . S
C394 H420 0.930 . S
C395 C393 1.381 . S
C395 C394 1.387 . S
C395 H421 0.931 . S
C396 C393 1.487 . S
C396 C403 1.399 . S
C396 N434 1.343 . S
C397 C398 1.384 . S
C397 C399 1.384 . S
C397 H422 0.931 . S
C398 C397 1.384 . S
C398 C401 1.382 . S
C399 C397 1.384 . S
C399 C400 1.381 . S
C399 H423 0.930 . S
C400 C399 1.381 . S
C400 C402 1.381 . S
C400 C403 1.487 . S
C401 C398 1.382 . S
C401 C402 1.387 . S
C401 H424 0.930 . S
C402 C400 1.381 . S
C402 C401 1.387 . S
C402 H425 0.931 . S
C403 C396 1.399 . S
C403 C400 1.487 . S
C403 N435 1.343 . S
C404 C405 1.384 . S
C404 C406 1.384 . S
C404 H426 0.931 . S
C405 C404 1.384 . S
C405 C408 1.382 . S
C406 C404 1.384 . S
C406 C407 1.381 . S
C406 H427 0.930 . S
C407 C406 1.381 . S
C407 C409 1.381 . S
C407 C410 1.487 . S
C408 C405 1.382 . S
C408 C409 1.387 . S
C408 H428 0.930 . S
C409 C407 1.381 . S
C409 C408 1.387 . S
C409 H429 0.931 . S
C410 C407 1.487 . S
C410 C417 1.399 . S
C410 N435 1.343 . S
C411 C412 1.384 . S
C411 C413 1.384 . S
C411 H430 0.931 . S
C412 C411 1.384 . S
C412 C415 1.382 . S
C413 C411 1.384 . S
C413 C414 1.381 . S
C413 H431 0.930 . S
C414 C413 1.381 . S
C414 C416 1.381 . S
C414 C417 1.487 . S
C415 C412 1.382 . S
C415 C416 1.387 . S
C415 H432 0.930 . S
C416 C414 1.381 . S
C416 C415 1.387 . S
C416 H433 0.931 . S
C417 C410 1.399 . S
C417 C414 1.487 . S
C417 N434 1.343 . S
H418 C390 0.931 . S
H419 C392 0.930 . S
H420 C394 0.930 . S
H421 C395 0.931 . S
H422 C397 0.931 . S
H423 C399 0.930 . S
H424 C401 0.930 . S
H425 C402 0.931 . S
H426 C404 0.931 . S
H427 C406 0.930 . S
H428 C408 0.930 . S
H429 C409 0.931 . S
H430 C411 0.931 . S
H431 C413 0.930 . S
H432 C415 0.930 . S
H433 C416 0.931 . S
N434 C396 1.343 . S
N434 C417 1.343 . S
N435 C403 1.343 . S
N435 C410 1.343 . S
C436 C437 1.384 . S
C436 C438 1.384 . S
C436 H464 0.931 . S
C437 C436 1.384 . S
C437 C440 1.382 . S
C438 C436 1.384 . S
C438 C439 1.381 . S
C438 H465 0.930 . S
C439 C438 1.381 . S
C439 C441 1.381 . S
C439 C442 1.487 . S
C440 C437 1.382 . S
C440 C441 1.387 . S
C440 H466 0.930 . S
C441 C439 1.381 . S
C441 C440 1.387 . S
C441 H467 0.931 . S
C442 C439 1.487 . S
C442 C449 1.399 . S
C442 N480 1.343 . S
C443 C444 1.384 . S
C443 C445 1.384 . S
C443 H468 0.931 . S
C444 C443 1.384 . S
C444 C447 1.382 . S
C445 C443 1.384 . S
C445 C446 1.381 . S
C445 H469 0.930 . S
C446 C445 1.381 . S
C446 C448 1.381 . S
C446 C449 1.487 . S
C447 C444 1.382 . S
C447 C448 1.387 . S
C447 H470 0.930 . S
C448 C446 1.381 . S
C448 C447 1.387 . S
C448 H471 0.931 . S
C449 C442 1.399 . S
C449 C446 1.487 . S
C449 N481 1.343 . S
C450 C451 1.384 . S
C450 C452 1.384 . S
C450 H472 0.931 . S
C451 C450 1.384 . S
C451 C454 1.382 . S
C452 C450 1.384 . S
C452 C453 1.381 . S
C452 H473 0.930 . S
C453 C452 1.381 . S
C453 C455 1.381 . S
C453 C456 1.487 . S
C454 C451 1.382 . S
C454 C455 1.387 . S
C454 H474 0.930 . S
C455 C453 1.381 . S
C455 C454 1.387 . S
C455 H475 0.931 . S
C456 C453 1.487 . S
C456 C463 1.399 . S
C456 N481 1.343 . S
C457 C458 1.384 . S
C457 C459 1.384 . S
C457 H476 0.931 . S
C458 C457 1.384 . S
C458 C461 1.382 . S
C459 C457 1.384 . S
C459 C460 1.381 . S
C459 H477 0.930 . S
C460 C459 1.381 . S
C460 C462 1.381 . S
C460 C463 1.487 . S
C461 C458 1.382 . S
C461 C462 1.387 . S
C461 H478 0.930 . S
C462 C460 1.381 . S
C462 C461 1.387 . S
C462 H479 0.931 . S
C463 C456 1.399 . S
C463 C460 1.487 . S
C463 N480 1.343 . S
H464 C436 0.931 . S
H465 C438 0.930 . S
H466 C440 0.930 . S
H467 C441 0.931 . S
H468 C443 0.931 . S
H469 C445 0.930 . S
H470 C447 0.930 . S
H471 C448 0.931 . S
H472 C450 0.931 . S
H473 C452 0.930 . S
H474 C454 0.930 . S
H475 C455 0.931 . S
H476 C457 0.931 . S
H477 C459 0.930 . S
H478 C461 0.930 . S
H479 C462 0.931 . S
N480 C442 1.343 . S
N480 C463 1.343 . S
N481 C449 1.343 . S
N481 C456 1.343 . S
C482 C483 1.384 . S
C482 C484 1.384 . S
C482 H510 0.931 . S
C483 C482 1.384 . S
C483 C486 1.382 . S
C484 C482 1.384 . S
C484 C485 1.381 . S
C484 H511 0.930 . S
C485 C484 1.381 . S
C485 C487 1.381 . S
C485 C488 1.487 . S
C486 C483 1.382 . S
C486 C487 1.387 . S
C486 H512 0.930 . S
C487 C485 1.381 . S
C487 C486 1.387 . S
C487 H513 0.931 . S
C488 C485 1.487 . S
C488 C495 1.399 . S
C488 N526 1.343 . S
C489 C490 1.384 . S
C489 C491 1.384 . S
C489 H514 0.931 . S
C490 C489 1.384 . S
C490 C493 1.382 . S
C491 C489 1.384 . S
C491 C492 1.381 . S
C491 H515 0.930 . S
C492 C491 1.381 . S
C492 C494 1.381 . S
C492 C495 1.487 . S
C493 C490 1.382 . S
C493 C494 1.387 . S
C493 H516 0.930 . S
C494 C492 1.381 . S
C494 C493 1.387 . S
C494 H517 0.931 . S
C495 C488 1.399 . S
C495 C492 1.487 . S
C495 N527 1.343 . S
C496 C497 1.384 . S
C496 C498 1.384 . S
C496 H518 0.931 . S
C497 C496 1.384 . S
C497 C500 1.382 . S
C498 C496 1.384 . S
C498 C499 1.381 . S
C498 H519 0.930 . S
C499 C498 1.381 . S
C499 C501 1.381 . S
C499 C502 1.487 . S
C500 C497 1.382 . S
C500 C501 1.387 . S
C500 H520 0.930 . S
C501 C499 1.381 . S
C501 C500 1.387 . S
C501 H521 0.931 . S
C502 C499 1.487 . S
C502 C509 1.399 . S
C502 N527 1.343 . S
C503 C504 1.384 . S
C503 C505 1.384 . S
C503 H522 0.931 . S
C504 C503 1.384 . S
C504 C507 1.382 . S
C505 C503 1.384 . S
C505 C506 1.381 . S
C505 H523 0.930 . S
C506 C505 1.381 . S
C506 C508 1.381 . S
C506 C509 1.487 . S
C507 C504 1.382 . S
C507 C508 1.387 . S
C507 H524 0.930 . S
C508 C506 1.381 . S
C508 C507 1.387 . S
C508 H525 0.931 . S
C509 C502 1.399 . S
C509 C506 1.487 . S
C509 N526 1.343 . S
H510 C482 0.931 . S
H511 C484 0.930 . S
H512 C486 0.930 . S
H513 C487 0.931 . S
H514 C489 0.931 . S
H515 C491 0.930 . S
H516 C493 0.930 . S
H517 C494 0.931 . S
H518 C496 0.931 . S
H519 C498 0.930 . S
H520 C500 0.930 . S
H521 C501 0.931 . S
H522 C503 0.931 . S
H523 C505 0.930 . S
H524 C507 0.930 . S
H525 C508 0.931 . S
N526 C488 1.343 . S
N526 C509 1.343 . S
N527 C495 1.343 . S
N527 C502 1.343 . S
C528 C529 1.384 . S
C528 C530 1.384 . S
C528 H556 0.931 . S
C529 C528 1.384 . S
C529 C532 1.382 . S
C530 C528 1.384 . S
C530 C531 1.381 . S
C530 H557 0.930 . S
C531 C530 1.381 . S
C531 C533 1.381 . S
C531 C534 1.487 . S
C532 C529 1.382 . S
C532 C533 1.387 . S
C532 H558 0.930 . S
C533 C531 1.381 . S
C533 C532 1.387 . S
C533 H559 0.931 . S
C534 C531 1.487 . S
C534 C541 1.399 . S
C534 N572 1.343 . S
C535 C536 1.384 . S
C535 C537 1.384 . S
C535 H560 0.931 . S
C536 C535 1.384 . S
C536 C539 1.382 . S
C537 C535 1.384 . S
C537 C538 1.381 . S
C537 H561 0.930 . S
C538 C537 1.381 . S
C538 C540 1.381 . S
C538 C541 1.487 . S
C539 C536 1.382 . S
C539 C540 1.387 . S
C539 H562 0.930 . S
C540 C538 1.381 . S
C540 C539 1.387 . S
C540 H563 0.931 . S
C541 C534 1.399 . S
C541 C538 1.487 . S
C541 N573 1.343 . S
C542 C543 1.384 . S
C542 C544 1.384 . S
C542 H564 0.931 . S
C543 C542 1.384 . S
C543 C546 1.382 . S
C544 C542 1.384 . S
C544 C545 1.381 . S
C544 H565 0.930 . S
C545 C544 1.381 . S
C545 C547 1.381 . S
C545 C548 1.487 . S
C546 C543 1.382 . S
C546 C547 1.387 . S
C546 H566 0.930 . S
C547 C545 1.381 . S
C547 C546 1.387 . S
C547 H567 0.931 . S
C548 C545 1.487 . S
C548 C555 1.399 . S
C548 N573 1.343 . S
C549 C550 1.384 . S
C549 C551 1.384 . S
C549 H568 0.931 . S
C550 C549 1.384 . S
C550 C553 1.382 . S
C551 C549 1.384 . S
C551 C552 1.381 . S
C551 H569 0.930 . S
C552 C551 1.381 . S
C552 C554 1.381 . S
C552 C555 1.487 . S
C553 C550 1.382 . S
C553 C554 1.387 . S
C553 H570 0.930 . S
C554 C552 1.381 . S
C554 C553 1.387 . S
C554 H571 0.931 . S
C555 C548 1.399 . S
C555 C552 1.487 . S
C555 N572 1.343 . S
H556 C528 0.931 . S
H557 C530 0.930 . S
H558 C532 0.930 . S
H559 C533 0.931 . S
H560 C535 0.931 . S
H561 C537 0.930 . S
H562 C539 0.930 . S
H563 C540 0.931 . S
H564 C542 0.931 . S
H565 C544 0.930 . S
H566 C546 0.930 . S
H567 C547 0.931 . S
H568 C549 0.931 . S
H569 C551 0.930 . S
H570 C553 0.930 . S
H571 C554 0.931 . S
N572 C534 1.343 . S
N572 C555 1.343 . S
N573 C541 1.343 . S
N573 C548 1.343 . S
C574 C575 1.384 . S
C574 C576 1.384 . S
C574 H602 0.931 . S
C575 C574 1.384 . S
C575 C578 1.382 . S
C576 C574 1.384 . S
C576 C577 1.381 . S
C576 H603 0.930 . S
C577 C576 1.381 . S
C577 C579 1.381 . S
C577 C580 1.487 . S
C578 C575 1.382 . S
C578 C579 1.387 . S
C578 H604 0.930 . S
C579 C577 1.381 . S
C579 C578 1.387 . S
C579 H605 0.931 . S
C580 C577 1.487 . S
C580 C587 1.399 . S
C580 N618 1.343 . S
C581 C582 1.384 . S
C581 C583 1.384 . S
C581 H606 0.931 . S
C582 C581 1.384 . S
C582 C585 1.382 . S
C583 C581 1.384 . S
C583 C584 1.381 . S
C583 H607 0.930 . S
C584 C583 1.381 . S
C584 C586 1.381 . S
C584 C587 1.487 . S
C585 C582 1.382 . S
C585 C586 1.387 . S
C585 H608 0.930 . S
C586 C584 1.381 . S
C586 C585 1.387 . S
C586 H609 0.931 . S
C587 C580 1.399 . S
C587 C584 1.487 . S
C587 N619 1.343 . S
C588 C589 1.384 . S
C588 C590 1.384 . S
C588 H610 0.931 . S
C589 C588 1.384 . S
C589 C592 1.382 . S
C590 C588 1.384 . S
C590 C591 1.381 . S
C590 H611 0.930 . S
C591 C590 1.381 . S
C591 C593 1.381 . S
C591 C594 1.487 . S
C592 C589 1.382 . S
C592 C593 1.387 . S
C592 H612 0.930 . S
C593 C591 1.381 . S
C593 C592 1.387 . S
C593 H613 0.931 . S
C594 C591 1.487 . S
C594 C601 1.399 . S
C594 N619 1.343 . S
C595 C596 1.384 . S
C595 C597 1.384 . S
C595 H614 0.931 . S
C596 C595 1.384 . S
C596 C599 1.382 . S
C597 C595 1.384 . S
C597 C598 1.381 . S
C597 H615 0.930 . S
C598 C597 1.381 . S
C598 C600 1.381 . S
C598 C601 1.487 . S
C599 C596 1.382 . S
C599 C600 1.387 . S
C599 H616 0.930 . S
C600 C598 1.381 . S
C600 C599 1.387 . S
C600 H617 0.931 . S
C601 C594 1.399 . S
C601 C598 1.487 . S
C601 N618 1.343 . S
H602 C574 0.931 . S
H603 C576 0.930 . S
H604 C578 0.930 . S
H605 C579 0.931 . S
H606 C581 0.931 . S
H607 C583 0.930 . S
H608 C585 0.930 . S
H609 C586 0.931 . S
H610 C588 0.931 . S
H611 C590 0.930 . S
H612 C592 0.930 . S
H613 C593 0.931 . S
H614 C595 0.931 . S
H615 C597 0.930 . S
H616 C599 0.930 . S
H617 C600 0.931 . S
N618 C580 1.343 . S
N618 C601 1.343 . S
N619 C587 1.343 . S
N619 C594 1.343 . S
C620 C621 1.384 . S
C620 C622 1.384 . S
C620 H648 0.931 . S
C621 C620 1.384 . S
C621 C624 1.382 . S
C622 C620 1.384 . S
C622 C623 1.381 . S
C622 H649 0.930 . S
C623 C622 1.381 . S
C623 C625 1.381 . S
C623 C626 1.487 . S
C624 C621 1.382 . S
C624 C625 1.387 . S
C624 H650 0.930 . S
C625 C623 1.381 . S
C625 C624 1.387 . S
C625 H651 0.931 . S
C626 C623 1.487 . S
C626 C633 1.399 . S
C626 N664 1.343 . S
C627 C628 1.384 . S
C627 C629 1.384 . S
C627 H652 0.931 . S
C628 C627 1.384 . S
C628 C631 1.382 . S
C629 C627 1.384 . S
C629 C630 1.381 . S
C629 H653 0.930 . S
C630 C629 1.381 . S
C630 C632 1.381 . S
C630 C633 1.487 . S
C631 C628 1.382 . S
C631 C632 1.387 . S
C631 H654 0.930 . S
C632 C630 1.381 . S
C632 C631 1.387 . S
C632 H655 0.931 . S
C633 C626 1.399 . S
C633 C630 1.487 . S
C633 N665 1.343 . S
C634 C635 1.384 . S
C634 C636 1.384 . S
C634 H656 0.931 . S
C635 C634 1.384 . S
C635 C638 1.382 . S
C636 C634 1.384 . S
C636 C637 1.381 . S
C636 H657 0.930 . S
C637 C636 1.381 . S
C637 C639 1.381 . S
C637 C640 1.487 . S
C638 C635 1.382 . S
C638 C639 1.387 . S
C638 H658 0.930 . S
C639 C637 1.381 . S
C639 C638 1.387 . S
C639 H659 0.931 . S
C640 C637 1.487 . S
C640 C647 1.399 . S
C640 N665 1.343 . S
C641 C642 1.384 . S
C641 C643 1.384 . S
C641 H660 0.931 . S
C642 C641 1.384 . S
C642 C645 1.382 . S
C643 C641 1.384 . S
C643 C644 1.381 . S
C643 H661 0.930 . S
C644 C643 1.381 . S
C644 C646 1.381 . S
C644 C647 1.487 . S
C645 C642 1.382 . S
C645 C646 1.387 . S
C645 H662 0.930 . S
C646 C644 1.381 . S
C646 C645 1.387 . S
C646 H663 0.931 . S
C647 C640 1.399 . S
C647 C644 1.487 . S
C647 N664 1.343 . S
H648 C620 0.931 . S
H649 C622 0.930 . S
H650 C624 0.930 . S
H651 C625 0.931 . S
H652 C627 0.931 . S
H653 C629 0.930 . S
H654 C631 0.930 . S
H655 C632 0.931 . S
H656 C634 0.931 . S
H657 C636 0.930 . S
H658 C638 0.930 . S
H659 C639 0.931 . S
H660 C641 0.931 . S
H661 C643 0.930 . S
H662 C645 0.930 . S
H663 C646 0.931 . S
N664 C626 1.343 . S
N664 C647 1.343 . S
N665 C633 1.343 . S
N665 C640 1.343 . S
C666 C667 1.384 . S
C666 C668 1.384 . S
C666 H694 0.931 . S
C667 C666 1.384 . S
C667 C670 1.382 1_655 S
C668 C666 1.384 . S
C668 C669 1.411 . S
C668 H695 0.930 . S
C669 C668 1.411 . S
C669 C671 1.367 1_655 S
C669 C672 1.470 1_655 S
C670 C667 1.382 1_455 S
C670 C671 1.387 . S
C670 H696 0.930 . S
C671 C669 1.367 1_455 S
C671 C670 1.387 . S
C671 H697 0.931 . S
C672 C669 1.470 1_455 S
C672 C679 1.399 1_455 S
C672 N710 1.346 . S
C673 C674 1.384 . S
C673 C675 1.384 . S
C673 H698 0.931 . S
C674 C673 1.384 . S
C674 C677 1.382 1_455 S
C675 C673 1.384 . S
C675 C676 1.383 . S
C675 H699 0.930 . S
C676 C675 1.383 . S
C676 C678 1.377 1_455 S
C676 C679 1.495 1_455 S
C677 C674 1.382 1_655 S
C677 C678 1.387 . S
C677 H700 0.930 . S
C678 C676 1.377 1_655 S
C678 C677 1.387 . S
C678 H701 0.931 . S
C679 C672 1.399 1_655 S
C679 C676 1.495 1_655 S
C679 N711 1.361 . S
C680 C681 1.384 . S
C680 C682 1.384 . S
C680 H702 0.931 . S
C681 C680 1.384 . S
C681 C684 1.382 1_455 S
C682 C680 1.384 . S
C682 C683 1.424 . S
C682 H703 0.930 . S
C683 C682 1.424 . S
C683 C685 1.360 1_455 S
C683 C686 1.465 . S
C684 C681 1.382 1_655 S
C684 C685 1.387 . S
C684 H704 0.930 . S
C685 C683 1.360 1_655 S
C685 C684 1.387 . S
C685 H705 0.931 . S
C686 C683 1.465 . S
C686 C693 1.399 . S
C686 N711 1.322 1_455 S
C687 C688 1.384 . S
C687 C689 1.384 . S
C687 H706 0.931 . S
C688 C687 1.384 . S
C688 C691 1.382 1_655 S
C689 C687 1.384 . S
C689 C690 1.380 . S
C689 H707 0.930 . S
C690 C689 1.380 . S
C690 C692 1.384 1_655 S
C690 C693 1.495 1_655 S
C691 C688 1.382 1_455 S
C691 C692 1.387 . S
C691 H708 0.930 . S
C692 C690 1.384 1_455 S
C692 C691 1.387 . S
C692 H709 0.931 . S
C693 C686 1.399 . S
C693 C690 1.495 1_455 S
C693 N710 1.333 . S
H694 C666 0.931 . S
H695 C668 0.930 . S
H696 C670 0.930 . S
H697 C671 0.931 . S
H698 C673 0.931 . S
H699 C675 0.930 . S
H700 C677 0.930 . S
H701 C678 0.931 . S
H702 C680 0.931 . S
H703 C682 0.930 . S
H704 C684 0.930 . S
H705 C685 0.931 . S
H706 C687 0.931 . S
H707 C689 0.930 . S
H708 C691 0.930 . S
H709 C692 0.931 . S
N710 C672 1.346 . S
N710 C693 1.333 . S
N711 C679 1.361 . S
N711 C686 1.322 1_655 S
C712 C713 1.384 . S
C712 C714 1.384 . S
C712 H740 0.931 . S
C713 C712 1.384 . S
C713 C716 1.382 . S
C714 C712 1.384 . S
C714 C715 1.381 . S
C714 H741 0.930 . S
C715 C714 1.381 . S
C715 C717 1.381 . S
C715 C718 1.487 . S
C716 C713 1.382 . S
C716 C717 1.387 . S
C716 H742 0.930 . S
C717 C715 1.381 . S
C717 C716 1.387 . S
C717 H743 0.931 . S
C718 C715 1.487 . S
C718 C725 1.399 . S
C718 N756 1.343 . S
C719 C720 1.384 . S
C719 C721 1.384 . S
C719 H744 0.931 . S
C720 C719 1.384 . S
C720 C723 1.382 . S
C721 C719 1.384 . S
C721 C722 1.381 . S
C721 H745 0.930 . S
C722 C721 1.381 . S
C722 C724 1.381 . S
C722 C725 1.487 . S
C723 C720 1.382 . S
C723 C724 1.387 . S
C723 H746 0.930 . S
C724 C722 1.381 . S
C724 C723 1.387 . S
C724 H747 0.931 . S
C725 C718 1.399 . S
C725 C722 1.487 . S
C725 N757 1.343 . S
C726 C727 1.384 . S
C726 C728 1.384 . S
C726 H748 0.931 . S
C727 C726 1.384 . S
C727 C730 1.382 . S
C728 C726 1.384 . S
C728 C729 1.381 . S
C728 H749 0.930 . S
C729 C728 1.381 . S
C729 C731 1.381 . S
C729 C732 1.487 . S
C730 C727 1.382 . S
C730 C731 1.387 . S
C730 H750 0.930 . S
C731 C729 1.381 . S
C731 C730 1.387 . S
C731 H751 0.931 . S
C732 C729 1.487 . S
C732 C739 1.399 . S
C732 N757 1.343 . S
C733 C734 1.384 . S
C733 C735 1.384 . S
C733 H752 0.931 . S
C734 C733 1.384 . S
C734 C737 1.382 . S
C735 C733 1.384 . S
C735 C736 1.381 . S
C735 H753 0.930 . S
C736 C735 1.381 . S
C736 C738 1.381 . S
C736 C739 1.487 . S
C737 C734 1.382 . S
C737 C738 1.387 . S
C737 H754 0.930 . S
C738 C736 1.381 . S
C738 C737 1.387 . S
C738 H755 0.931 . S
C739 C732 1.399 . S
C739 C736 1.487 . S
C739 N756 1.343 . S
H740 C712 0.931 . S
H741 C714 0.930 . S
H742 C716 0.930 . S
H743 C717 0.931 . S
H744 C719 0.931 . S
H745 C721 0.930 . S
H746 C723 0.930 . S
H747 C724 0.931 . S
H748 C726 0.931 . S
H749 C728 0.930 . S
H750 C730 0.930 . S
H751 C731 0.931 . S
H752 C733 0.931 . S
H753 C735 0.930 . S
H754 C737 0.930 . S
H755 C738 0.931 . S
N756 C718 1.343 . S
N756 C739 1.343 . S
N757 C725 1.343 . S
N757 C732 1.343 . S
C758 C759 1.384 1_545 S
C758 C760 1.384 . S
C758 H786 0.931 . S
C759 C758 1.384 1_565 S
C759 C762 1.382 . S
C760 C758 1.384 . S
C760 C761 1.381 1_545 S
C760 H787 0.930 . S
C761 C760 1.381 1_565 S
C761 C763 1.381 . S
C761 C764 1.487 . S
C762 C759 1.382 . S
C762 C763 1.387 . S
C762 H788 0.930 . S
C763 C761 1.381 . S
C763 C762 1.387 . S
C763 H789 0.931 . S
C764 C761 1.487 . S
C764 C771 1.399 1_565 S
C764 N802 1.343 . S
C765 C766 1.384 1_565 S
C765 C767 1.384 . S
C765 H790 0.931 . S
C766 C765 1.384 1_545 S
C766 C769 1.382 . S
C767 C765 1.384 . S
C767 C768 1.381 1_565 S
C767 H791 0.930 . S
C768 C767 1.381 1_545 S
C768 C770 1.381 . S
C768 C771 1.487 . S
C769 C766 1.382 . S
C769 C770 1.387 . S
C769 H792 0.930 . S
C770 C768 1.381 . S
C770 C769 1.387 . S
C770 H793 0.931 . S
C771 C764 1.399 1_545 S
C771 C768 1.487 . S
C771 N803 1.343 . S
C772 C773 1.384 1_565 S
C772 C774 1.384 . S
C772 H794 0.931 . S
C773 C772 1.384 1_545 S
C773 C776 1.382 . S
C774 C772 1.384 . S
C774 C775 1.381 1_565 S
C774 H795 0.930 . S
C775 C774 1.381 1_545 S
C775 C777 1.381 . S
C775 C778 1.487 . S
C776 C773 1.382 . S
C776 C777 1.387 . S
C776 H796 0.930 . S
C777 C775 1.381 . S
C777 C776 1.387 . S
C777 H797 0.931 . S
C778 C775 1.487 . S
C778 C785 1.399 1_545 S
C778 N803 1.343 . S
C779 C780 1.384 1_545 S
C779 C781 1.384 . S
C779 H798 0.931 . S
C780 C779 1.384 1_565 S
C780 C783 1.382 . S
C781 C779 1.384 . S
C781 C782 1.381 1_545 S
C781 H799 0.930 . S
C782 C781 1.381 1_565 S
C782 C784 1.381 . S
C782 C785 1.487 . S
C783 C780 1.382 . S
C783 C784 1.387 . S
C783 H800 0.930 . S
C784 C782 1.381 . S
C784 C783 1.387 . S
C784 H801 0.931 . S
C785 C778 1.399 1_565 S
C785 C782 1.487 . S
C785 N802 1.343 . S
H786 C758 0.931 . S
H787 C760 0.930 . S
H788 C762 0.930 . S
H789 C763 0.931 . S
H790 C765 0.931 . S
H791 C767 0.930 . S
H792 C769 0.930 . S
H793 C770 0.931 . S
H794 C772 0.931 . S
H795 C774 0.930 . S
H796 C776 0.930 . S
H797 C777 0.931 . S
H798 C779 0.931 . S
H799 C781 0.930 . S
H800 C783 0.930 . S
H801 C784 0.931 . S
N802 C764 1.343 . S
N802 C785 1.343 . S
N803 C771 1.343 . S
N803 C778 1.343 . S
C804 C805 1.384 . S
C804 C806 1.384 . S
C804 H832 0.931 . S
C805 C804 1.384 . S
C805 C808 1.382 1_545 S
C806 C804 1.384 . S
C806 C807 1.382 . S
C806 H833 0.930 . S
C807 C806 1.382 . S
C807 C809 1.380 1_545 S
C807 C810 1.493 1_545 S
C808 C805 1.382 1_565 S
C808 C809 1.387 . S
C808 H834 0.930 . S
C809 C807 1.380 1_565 S
C809 C808 1.387 . S
C809 H835 0.931 . S
C810 C807 1.493 1_565 S
C810 C817 1.399 1_565 S
C810 N848 1.337 . S
C811 C812 1.384 . S
C811 C813 1.384 . S
C811 H836 0.931 . S
C812 C811 1.384 . S
C812 C815 1.382 1_565 S
C813 C811 1.384 . S
C813 C814 1.397 . S
C813 H837 0.930 . S
C814 C813 1.397 . S
C814 C816 1.373 1_565 S
C814 C817 1.474 1_565 S
C815 C812 1.382 1_545 S
C815 C816 1.387 . S
C815 H838 0.930 . S
C816 C814 1.373 1_545 S
C816 C815 1.387 . S
C816 H839 0.931 . S
C817 C810 1.399 1_545 S
C817 C814 1.474 1_545 S
C817 N849 1.349 . S
C818 C819 1.384 . S
C818 C820 1.384 . S
C818 H840 0.931 . S
C819 C818 1.384 . S
C819 C822 1.382 1_565 S
C820 C818 1.384 . S
C820 C821 1.382 1_565 S
C820 H841 0.930 . S
C821 C820 1.382 1_545 S
C821 C823 1.380 . S
C821 C824 1.499 . S
C822 C819 1.382 1_545 S
C822 C823 1.387 . S
C822 H842 0.930 . S
C823 C821 1.380 . S
C823 C822 1.387 . S
C823 H843 0.931 . S
C824 C821 1.499 . S
C824 C831 1.399 1_545 S
C824 N849 1.332 . S
C825 C826 1.384 . S
C825 C827 1.384 . S
C825 H844 0.931 . S
C826 C825 1.384 . S
C826 C829 1.382 1_545 S
C827 C825 1.384 . S
C827 C828 1.410 . S
C827 H845 0.930 . S
C828 C827 1.410 . S
C828 C830 1.367 1_545 S
C828 C831 1.474 1_545 S
C829 C826 1.382 1_565 S
C829 C830 1.387 . S
C829 H846 0.930 . S
C830 C828 1.367 1_565 S
C830 C829 1.387 . S
C830 H847 0.931 . S
C831 C824 1.399 1_565 S
C831 C828 1.474 1_565 S
C831 N848 1.343 . S
H832 C804 0.931 . S
H833 C806 0.930 . S
H834 C808 0.930 . S
H835 C809 0.931 . S
H836 C811 0.931 . S
H837 C813 0.930 . S
H838 C815 0.930 . S
H839 C816 0.931 . S
H840 C818 0.931 . S
H841 C820 0.930 . S
H842 C822 0.930 . S
H843 C823 0.931 . S
H844 C825 0.931 . S
H845 C827 0.930 . S
H846 C829 0.930 . S
H847 C830 0.931 . S
N848 C810 1.337 . S
N848 C831 1.343 . S
N849 C817 1.349 . S
N849 C824 1.332 . S
C850 C851 1.384 . S
C850 C852 1.384 . S
C850 H878 0.931 . S
C851 C850 1.384 . S
C851 C854 1.382 1_655 S
C852 C850 1.384 . S
C852 C853 1.408 . S
C852 H879 0.930 . S
C853 C852 1.408 . S
C853 C855 1.368 1_655 S
C853 C856 1.474 1_655 S
C854 C851 1.382 1_455 S
C854 C855 1.387 . S
C854 H880 0.930 . S
C855 C853 1.368 1_455 S
C855 C854 1.387 . S
C855 H881 0.931 . S
C856 C853 1.474 1_455 S
C856 C863 1.399 1_455 S
C856 N894 1.343 . S
C857 C858 1.384 . S
C857 C859 1.384 . S
C857 H882 0.931 . S
C858 C857 1.384 . S
C858 C861 1.382 1_455 S
C859 C857 1.384 . S
C859 C860 1.382 1_455 S
C859 H883 0.930 . S
C860 C859 1.382 1_655 S
C860 C862 1.380 . S
C860 C863 1.499 . S
C861 C858 1.382 1_655 S
C861 C862 1.387 . S
C861 H884 0.930 . S
C862 C860 1.380 . S
C862 C861 1.387 . S
C862 H885 0.931 . S
C863 C856 1.399 1_655 S
C863 C860 1.499 . S
C863 N895 1.332 . S
C864 C865 1.384 . S
C864 C866 1.384 . S
C864 H886 0.931 . S
C865 C864 1.384 . S
C865 C868 1.382 1_455 S
C866 C864 1.384 . S
C866 C867 1.395 . S
C866 H887 0.930 . S
C867 C866 1.395 . S
C867 C869 1.374 1_455 S
C867 C870 1.474 1_455 S
C868 C865 1.382 1_655 S
C868 C869 1.387 . S
C868 H888 0.930 . S
C869 C867 1.374 1_655 S
C869 C868 1.387 . S
C869 H889 0.931 . S
C870 C867 1.474 1_655 S
C870 C877 1.399 1_655 S
C870 N895 1.350 . S
C871 C872 1.384 . S
C871 C873 1.384 . S
C871 H890 0.931 . S
C872 C871 1.384 . S
C872 C875 1.382 1_655 S
C873 C871 1.384 . S
C873 C874 1.382 . S
C873 H891 0.930 . S
C874 C873 1.382 . S
C874 C876 1.380 1_655 S
C874 C877 1.493 1_655 S
C875 C872 1.382 1_455 S
C875 C876 1.387 . S
C875 H892 0.930 . S
C876 C874 1.380 1_455 S
C876 C875 1.387 . S
C876 H893 0.931 . S
C877 C870 1.399 1_455 S
C877 C874 1.493 1_455 S
C877 N894 1.337 . S
H878 C850 0.931 . S
H879 C852 0.930 . S
H880 C854 0.930 . S
H881 C855 0.931 . S
H882 C857 0.931 . S
H883 C859 0.930 . S
H884 C861 0.930 . S
H885 C862 0.931 . S
H886 C864 0.931 . S
H887 C866 0.930 . S
H888 C868 0.930 . S
H889 C869 0.931 . S
H890 C871 0.931 . S
H891 C873 0.930 . S
H892 C875 0.930 . S
H893 C876 0.931 . S
N894 C856 1.343 . S
N894 C877 1.337 . S
N895 C863 1.332 . S
N895 C870 1.350 . S
C896 C897 1.384 . S
C896 C898 1.384 . S
C896 H924 0.931 . S
C897 C896 1.384 . S
C897 C900 1.382 . S
C898 C896 1.384 . S
C898 C899 1.381 . S
C898 H925 0.930 . S
C899 C898 1.381 . S
C899 C901 1.381 . S
C899 C902 1.487 . S
C900 C897 1.382 . S
C900 C901 1.387 . S
C900 H926 0.930 . S
C901 C899 1.381 . S
C901 C900 1.387 . S
C901 H927 0.931 . S
C902 C899 1.487 . S
C902 C909 1.399 . S
C902 N940 1.343 . S
C903 C904 1.384 . S
C903 C905 1.384 . S
C903 H928 0.931 . S
C904 C903 1.384 . S
C904 C907 1.382 . S
C905 C903 1.384 . S
C905 C906 1.381 . S
C905 H929 0.930 . S
C906 C905 1.381 . S
C906 C908 1.381 . S
C906 C909 1.487 . S
C907 C904 1.382 . S
C907 C908 1.387 . S
C907 H930 0.930 . S
C908 C906 1.381 . S
C908 C907 1.387 . S
C908 H931 0.931 . S
C909 C902 1.399 . S
C909 C906 1.487 . S
C909 N941 1.343 . S
C910 C911 1.384 . S
C910 C912 1.384 . S
C910 H932 0.931 . S
C911 C910 1.384 . S
C911 C914 1.382 . S
C912 C910 1.384 . S
C912 C913 1.381 . S
C912 H933 0.930 . S
C913 C912 1.381 . S
C913 C915 1.381 . S
C913 C916 1.487 . S
C914 C911 1.382 . S
C914 C915 1.387 . S
C914 H934 0.930 . S
C915 C913 1.381 . S
C915 C914 1.387 . S
C915 H935 0.931 . S
C916 C913 1.487 . S
C916 C923 1.399 . S
C916 N941 1.343 . S
C917 C918 1.384 . S
C917 C919 1.384 . S
C917 H936 0.931 . S
C918 C917 1.384 . S
C918 C921 1.382 . S
C919 C917 1.384 . S
C919 C920 1.381 . S
C919 H937 0.930 . S
C920 C919 1.381 . S
C920 C922 1.381 . S
C920 C923 1.487 . S
C921 C918 1.382 . S
C921 C922 1.387 . S
C921 H938 0.930 . S
C922 C920 1.381 . S
C922 C921 1.387 . S
C922 H939 0.931 . S
C923 C916 1.399 . S
C923 C920 1.487 . S
C923 N940 1.343 . S
H924 C896 0.931 . S
H925 C898 0.930 . S
H926 C900 0.930 . S
H927 C901 0.931 . S
H928 C903 0.931 . S
H929 C905 0.930 . S
H930 C907 0.930 . S
H931 C908 0.931 . S
H932 C910 0.931 . S
H933 C912 0.930 . S
H934 C914 0.930 . S
H935 C915 0.931 . S
H936 C917 0.931 . S
H937 C919 0.930 . S
H938 C921 0.930 . S
H939 C922 0.931 . S
N940 C902 1.343 . S
N940 C923 1.343 . S
N941 C909 1.343 . S
N941 C916 1.343 . S
C942 C943 1.384 . S
C942 C944 1.384 . S
C942 H970 0.931 . S
C943 C942 1.384 . S
C943 C946 1.382 . S
C944 C942 1.384 . S
C944 C945 1.381 . S
C944 H971 0.930 . S
C945 C944 1.381 . S
C945 C947 1.381 . S
C945 C948 1.487 . S
C946 C943 1.382 . S
C946 C947 1.387 . S
C946 H972 0.930 . S
C947 C945 1.381 . S
C947 C946 1.387 . S
C947 H973 0.931 . S
C948 C945 1.487 . S
C948 C955 1.399 . S
C948 N986 1.343 . S
C949 C950 1.384 . S
C949 C951 1.384 . S
C949 H974 0.931 . S
C950 C949 1.384 . S
C950 C953 1.382 . S
C951 C949 1.384 . S
C951 C952 1.381 . S
C951 H975 0.930 . S
C952 C951 1.381 . S
C952 C954 1.381 . S
C952 C955 1.487 . S
C953 C950 1.382 . S
C953 C954 1.387 . S
C953 H976 0.930 . S
C954 C952 1.381 . S
C954 C953 1.387 . S
C954 H977 0.931 . S
C955 C948 1.399 . S
C955 C952 1.487 . S
C955 N987 1.343 . S
C956 C957 1.384 . S
C956 C958 1.384 . S
C956 H978 0.931 . S
C957 C956 1.384 . S
C957 C960 1.382 . S
C958 C956 1.384 . S
C958 C959 1.381 . S
C958 H979 0.930 . S
C959 C958 1.381 . S
C959 C961 1.381 . S
C959 C962 1.487 . S
C960 C957 1.382 . S
C960 C961 1.387 . S
C960 H980 0.930 . S
C961 C959 1.381 . S
C961 C960 1.387 . S
C961 H981 0.931 . S
C962 C959 1.487 . S
C962 C969 1.399 . S
C962 N987 1.343 . S
C963 C964 1.384 . S
C963 C965 1.384 . S
C963 H982 0.931 . S
C964 C963 1.384 . S
C964 C967 1.382 . S
C965 C963 1.384 . S
C965 C966 1.381 . S
C965 H983 0.930 . S
C966 C965 1.381 . S
C966 C968 1.381 . S
C966 C969 1.487 . S
C967 C964 1.382 . S
C967 C968 1.387 . S
C967 H984 0.930 . S
C968 C966 1.381 . S
C968 C967 1.387 . S
C968 H985 0.931 . S
C969 C962 1.399 . S
C969 C966 1.487 . S
C969 N986 1.343 . S
H970 C942 0.931 . S
H971 C944 0.930 . S
H972 C946 0.930 . S
H973 C947 0.931 . S
H974 C949 0.931 . S
H975 C951 0.930 . S
H976 C953 0.930 . S
H977 C954 0.931 . S
H978 C956 0.931 . S
H979 C958 0.930 . S
H980 C960 0.930 . S
H981 C961 0.931 . S
H982 C963 0.931 . S
H983 C965 0.930 . S
H984 C967 0.930 . S
H985 C968 0.931 . S
N986 C948 1.343 . S
N986 C969 1.343 . S
N987 C955 1.343 . S
N987 C962 1.343 . S
C988 C989 1.384 . S
C988 C990 1.384 . S
C988 H1016 0.931 . S
C989 C988 1.384 . S
C989 C992 1.382 . S
C990 C988 1.384 . S
C990 C991 1.381 . S
C990 H1017 0.930 . S
C991 C990 1.381 . S
C991 C993 1.381 . S
C991 C994 1.487 . S
C992 C989 1.382 . S
C992 C993 1.387 . S
C992 H1018 0.930 . S
C993 C991 1.381 . S
C993 C992 1.387 . S
C993 H1019 0.931 . S
C994 C991 1.487 . S
C994 C1001 1.399 . S
C994 N1032 1.343 . S
C995 C996 1.384 . S
C995 C997 1.384 . S
C995 H1020 0.931 . S
C996 C995 1.384 . S
C996 C999 1.382 . S
C997 C995 1.384 . S
C997 C998 1.381 . S
C997 H1021 0.930 . S
C998 C997 1.381 . S
C998 C1000 1.381 . S
C998 C1001 1.487 . S
C999 C996 1.382 . S
C999 C1000 1.387 . S
C999 H1022 0.930 . S
C1000 C998 1.381 . S
C1000 C999 1.387 . S
C1000 H1023 0.931 . S
C1001 C994 1.399 . S
C1001 C998 1.487 . S
C1001 N1033 1.343 . S
C1002 C1003 1.384 . S
C1002 C1004 1.384 . S
C1002 H1024 0.931 . S
C1003 C1002 1.384 . S
C1003 C1006 1.382 . S
C1004 C1002 1.384 . S
C1004 C1005 1.381 . S
C1004 H1025 0.930 . S
C1005 C1004 1.381 . S
C1005 C1007 1.381 . S
C1005 C1008 1.487 . S
C1006 C1003 1.382 . S
C1006 C1007 1.387 . S
C1006 H1026 0.930 . S
C1007 C1005 1.381 . S
C1007 C1006 1.387 . S
C1007 H1027 0.931 . S
C1008 C1005 1.487 . S
C1008 C1015 1.399 . S
C1008 N1033 1.343 . S
C1009 C1010 1.384 . S
C1009 C1011 1.384 . S
C1009 H1028 0.931 . S
C1010 C1009 1.384 . S
C1010 C1013 1.382 . S
C1011 C1009 1.384 . S
C1011 C1012 1.381 . S
C1011 H1029 0.930 . S
C1012 C1011 1.381 . S
C1012 C1014 1.381 . S
C1012 C1015 1.487 . S
C1013 C1010 1.382 . S
C1013 C1014 1.387 . S
C1013 H1030 0.930 . S
C1014 C1012 1.381 . S
C1014 C1013 1.387 . S
C1014 H1031 0.931 . S
C1015 C1008 1.399 . S
C1015 C1012 1.487 . S
C1015 N1032 1.343 . S
H1016 C988 0.931 . S
H1017 C990 0.930 . S
H1018 C992 0.930 . S
H1019 C993 0.931 . S
H1020 C995 0.931 . S
H1021 C997 0.930 . S
H1022 C999 0.930 . S
H1023 C1000 0.931 . S
H1024 C1002 0.931 . S
H1025 C1004 0.930 . S
H1026 C1006 0.930 . S
H1027 C1007 0.931 . S
H1028 C1009 0.931 . S
H1029 C1011 0.930 . S
H1030 C1013 0.930 . S
H1031 C1014 0.931 . S
N1032 C994 1.343 . S
N1032 C1015 1.343 . S
N1033 C1001 1.343 . S
N1033 C1008 1.343 . S
C1034 C1035 1.384 . S
C1034 C1036 1.384 . S
C1034 H1062 0.931 . S
C1035 C1034 1.384 . S
C1035 C1038 1.382 . S
C1036 C1034 1.384 . S
C1036 C1037 1.381 . S
C1036 H1063 0.930 . S
C1037 C1036 1.381 . S
C1037 C1039 1.381 . S
C1037 C1040 1.487 . S
C1038 C1035 1.382 . S
C1038 C1039 1.387 . S
C1038 H1064 0.930 . S
C1039 C1037 1.381 . S
C1039 C1038 1.387 . S
C1039 H1065 0.931 . S
C1040 C1037 1.487 . S
C1040 C1047 1.399 . S
C1040 N1078 1.343 . S
C1041 C1042 1.384 . S
C1041 C1043 1.384 . S
C1041 H1066 0.931 . S
C1042 C1041 1.384 . S
C1042 C1045 1.382 . S
C1043 C1041 1.384 . S
C1043 C1044 1.381 . S
C1043 H1067 0.930 . S
C1044 C1043 1.381 . S
C1044 C1046 1.381 . S
C1044 C1047 1.487 . S
C1045 C1042 1.382 . S
C1045 C1046 1.387 . S
C1045 H1068 0.930 . S
C1046 C1044 1.381 . S
C1046 C1045 1.387 . S
C1046 H1069 0.931 . S
C1047 C1040 1.399 . S
C1047 C1044 1.487 . S
C1047 N1079 1.343 . S
C1048 C1049 1.384 . S
C1048 C1050 1.384 . S
C1048 H1070 0.931 . S
C1049 C1048 1.384 . S
C1049 C1052 1.382 . S
C1050 C1048 1.384 . S
C1050 C1051 1.381 . S
C1050 H1071 0.930 . S
C1051 C1050 1.381 . S
C1051 C1053 1.381 . S
C1051 C1054 1.487 . S
C1052 C1049 1.382 . S
C1052 C1053 1.387 . S
C1052 H1072 0.930 . S
C1053 C1051 1.381 . S
C1053 C1052 1.387 . S
C1053 H1073 0.931 . S
C1054 C1051 1.487 . S
C1054 C1061 1.399 . S
C1054 N1079 1.343 . S
C1055 C1056 1.384 . S
C1055 C1057 1.384 . S
C1055 H1074 0.931 . S
C1056 C1055 1.384 . S
C1056 C1059 1.382 . S
C1057 C1055 1.384 . S
C1057 C1058 1.381 . S
C1057 H1075 0.930 . S
C1058 C1057 1.381 . S
C1058 C1060 1.381 . S
C1058 C1061 1.487 . S
C1059 C1056 1.382 . S
C1059 C1060 1.387 . S
C1059 H1076 0.930 . S
C1060 C1058 1.381 . S
C1060 C1059 1.387 . S
C1060 H1077 0.931 . S
C1061 C1054 1.399 . S
C1061 C1058 1.487 . S
C1061 N1078 1.343 . S
H1062 C1034 0.931 . S
H1063 C1036 0.930 . S
H1064 C1038 0.930 . S
H1065 C1039 0.931 . S
H1066 C1041 0.931 . S
H1067 C1043 0.930 . S
H1068 C1045 0.930 . S
H1069 C1046 0.931 . S
H1070 C1048 0.931 . S
H1071 C1050 0.930 . S
H1072 C1052 0.930 . S
H1073 C1053 0.931 . S
H1074 C1055 0.931 . S
H1075 C1057 0.930 . S
H1076 C1059 0.930 . S
H1077 C1060 0.931 . S
N1078 C1040 1.343 . S
N1078 C1061 1.343 . S
N1079 C1047 1.343 . S
N1079 C1054 1.343 . S
C1080 C1081 1.387 . S
C1080 H1084 0.950 . S
C1080 C1089 1.390 . S
C1081 C1080 1.387 . S
C1081 C1083 1.387 1_655 S
H1082 C1089 0.950 . S
C1083 C1081 1.387 1_455 S
C1083 C1085 1.390 . S
C1083 H1087 0.950 . S
H1084 C1080 0.950 . S
C1085 C1083 1.390 . S
C1085 C1086 1.387 1_455 S
C1085 H1088 0.950 . S
C1086 C1085 1.387 1_655 S
C1086 C1089 1.387 . S
H1087 C1083 0.950 . S
H1088 C1085 0.950 . S
C1089 C1080 1.390 . S
C1089 H1082 0.950 . S
C1089 C1086 1.387 . S
C1090 C1091 1.387 . S
C1090 H1094 0.950 . S
C1090 C1099 1.390 . S
C1091 C1090 1.387 . S
C1091 C1093 1.387 . S
H1092 C1099 0.950 . S
C1093 C1091 1.387 . S
C1093 C1095 1.390 . S
C1093 H1097 0.950 . S
H1094 C1090 0.950 . S
C1095 C1093 1.390 . S
C1095 C1096 1.387 . S
C1095 H1098 0.950 . S
C1096 C1095 1.387 . S
C1096 C1099 1.387 . S
H1097 C1093 0.950 . S
H1098 C1095 0.950 . S
C1099 C1090 1.390 . S
C1099 H1092 0.950 . S
C1099 C1096 1.387 . S
C1100 C1101 1.387 . S
C1100 H1104 0.950 . S
C1100 C1109 1.390 . S
C1101 C1100 1.387 . S
C1101 C1103 1.387 1_545 S
H1102 C1109 0.950 . S
C1103 C1101 1.387 1_565 S
C1103 C1105 1.390 . S
C1103 H1107 0.950 . S
H1104 C1100 0.950 . S
C1105 C1103 1.390 . S
C1105 C1106 1.387 1_565 S
C1105 H1108 0.950 . S
C1106 C1105 1.387 1_545 S
C1106 C1109 1.387 . S
H1107 C1103 0.950 . S
H1108 C1105 0.950 . S
C1109 C1100 1.390 . S
C1109 H1102 0.950 . S
C1109 C1106 1.387 . S
C1110 C1111 1.387 1_545 S
C1110 H1114 0.950 . S
C1110 C1119 1.390 . S
C1111 C1110 1.387 1_565 S
C1111 C1113 1.387 . S
H1112 C1119 0.950 . S
C1113 C1111 1.387 . S
C1113 C1115 1.390 . S
C1113 H1117 0.950 . S
H1114 C1110 0.950 . S
C1115 C1113 1.390 . S
C1115 C1116 1.387 . S
C1115 H1118 0.950 . S
C1116 C1115 1.387 . S
C1116 C1119 1.387 1_565 S
H1117 C1113 0.950 . S
H1118 C1115 0.950 . S
C1119 C1110 1.390 . S
C1119 H1112 0.950 . S
C1119 C1116 1.387 1_545 S
C1120 C1121 1.387 1_655 S
C1120 H1124 0.950 . S
C1120 C1129 1.390 . S
C1121 C1120 1.387 1_455 S
C1121 C1123 1.387 . S
H1122 C1129 0.950 . S
C1123 C1121 1.387 . S
C1123 C1125 1.390 . S
C1123 H1127 0.950 . S
H1124 C1120 0.950 . S
C1125 C1123 1.390 . S
C1125 C1126 1.387 . S
C1125 H1128 0.950 . S
C1126 C1125 1.387 . S
C1126 C1129 1.387 1_455 S
H1127 C1123 0.950 . S
H1128 C1125 0.950 . S
C1129 C1120 1.390 . S
C1129 H1122 0.950 . S
C1129 C1126 1.387 1_655 S
C1130 C1131 1.387 . S
C1130 H1134 0.950 . S
C1130 C1139 1.390 . S
C1131 C1130 1.387 . S
C1131 C1133 1.387 . S
H1132 C1139 0.950 . S
C1133 C1131 1.387 . S
C1133 C1135 1.390 . S
C1133 H1137 0.950 . S
H1134 C1130 0.950 . S
C1135 C1133 1.390 . S
C1135 C1136 1.387 . S
C1135 H1138 0.950 . S
C1136 C1135 1.387 . S
C1136 C1139 1.387 . S
H1137 C1133 0.950 . S
H1138 C1135 0.950 . S
C1139 C1130 1.390 . S
C1139 H1132 0.950 . S
C1139 C1136 1.387 . S
C1140 C1141 1.387 1_655 S
C1140 H1144 0.950 . S
C1140 C1149 1.390 . S
C1141 C1140 1.387 1_455 S
C1141 C1143 1.387 . S
H1142 C1149 0.950 . S
C1143 C1141 1.387 . S
C1143 C1145 1.390 . S
C1143 H1147 0.950 . S
H1144 C1140 0.950 . S
C1145 C1143 1.390 . S
C1145 C1146 1.387 . S
C1145 H1148 0.950 . S
C1146 C1145 1.387 . S
C1146 C1149 1.387 1_455 S
H1147 C1143 0.950 . S
H1148 C1145 0.950 . S
C1149 C1140 1.390 . S
C1149 H1142 0.950 . S
C1149 C1146 1.387 1_655 S
C1150 C1151 1.387 . S
C1150 H1154 0.950 . S
C1150 C1159 1.390 . S
C1151 C1150 1.387 . S
C1151 C1153 1.387 . S
H1152 C1159 0.950 . S
C1153 C1151 1.387 . S
C1153 C1155 1.390 . S
C1153 H1157 0.950 . S
H1154 C1150 0.950 . S
C1155 C1153 1.390 . S
C1155 C1156 1.387 . S
C1155 H1158 0.950 . S
C1156 C1155 1.387 . S
C1156 C1159 1.387 . S
H1157 C1153 0.950 . S
H1158 C1155 0.950 . S
C1159 C1150 1.390 . S
C1159 H1152 0.950 . S
C1159 C1156 1.387 . S
C1160 C1161 1.387 1_545 S
C1160 H1164 0.950 . S
C1160 C1169 1.390 . S
C1161 C1160 1.387 1_565 S
C1161 C1163 1.387 . S
H1162 C1169 0.950 . S
C1163 C1161 1.387 . S
C1163 C1165 1.390 . S
C1163 H1167 0.950 . S
H1164 C1160 0.950 . S
C1165 C1163 1.390 . S
C1165 C1166 1.387 . S
C1165 H1168 0.950 . S
C1166 C1165 1.387 . S
C1166 C1169 1.387 1_565 S
H1167 C1163 0.950 . S
H1168 C1165 0.950 . S
C1169 C1160 1.390 . S
C1169 H1162 0.950 . S
C1169 C1166 1.387 1_545 S
C1170 C1171 1.387 . S
C1170 H1174 0.950 . S
C1170 C1179 1.390 . S
C1171 C1170 1.387 . S
C1171 C1173 1.387 1_545 S
H1172 C1179 0.950 . S
C1173 C1171 1.387 1_565 S
C1173 C1175 1.390 . S
C1173 H1177 0.950 . S
H1174 C1170 0.950 . S
C1175 C1173 1.390 . S
C1175 C1176 1.387 1_565 S
C1175 H1178 0.950 . S
C1176 C1175 1.387 1_545 S
C1176 C1179 1.387 . S
H1177 C1173 0.950 . S
H1178 C1175 0.950 . S
C1179 C1170 1.390 . S
C1179 H1172 0.950 . S
C1179 C1176 1.387 . S
C1180 C1181 1.387 . S
C1180 H1184 0.950 . S
C1180 C1189 1.390 . S
C1181 C1180 1.387 . S
C1181 C1183 1.387 1_655 S
H1182 C1189 0.950 . S
C1183 C1181 1.387 1_455 S
C1183 C1185 1.390 . S
C1183 H1187 0.950 . S
H1184 C1180 0.950 . S
C1185 C1183 1.390 . S
C1185 C1186 1.387 1_455 S
C1185 H1188 0.950 . S
C1186 C1185 1.387 1_655 S
C1186 C1189 1.387 . S
H1187 C1183 0.950 . S
H1188 C1185 0.950 . S
C1189 C1180 1.390 . S
C1189 H1182 0.950 . S
C1189 C1186 1.387 . S
C1190 C1191 1.387 . S
C1190 H1194 0.950 . S
C1190 C1199 1.390 . S
C1191 C1190 1.387 . S
C1191 C1193 1.387 . S
H1192 C1199 0.950 . S
C1193 C1191 1.387 . S
C1193 C1195 1.390 . S
C1193 H1197 0.950 . S
H1194 C1190 0.950 . S
C1195 C1193 1.390 . S
C1195 C1196 1.387 . S
C1195 H1198 0.950 . S
C1196 C1195 1.387 . S
C1196 C1199 1.387 . S
H1197 C1193 0.950 . S
H1198 C1195 0.950 . S
C1199 C1190 1.390 . S
C1199 H1192 0.950 . S
C1199 C1196 1.387 . S
C1200 C1201 1.387 . S
C1200 H1204 0.950 . S
C1200 C1209 1.390 . S
C1201 C1200 1.387 . S
C1201 C1203 1.387 . S
H1202 C1209 0.950 . S
C1203 C1201 1.387 . S
C1203 C1205 1.390 . S
C1203 H1207 0.950 . S
H1204 C1200 0.950 . S
C1205 C1203 1.390 . S
C1205 C1206 1.387 . S
C1205 H1208 0.950 . S
C1206 C1205 1.387 . S
C1206 C1209 1.387 . S
H1207 C1203 0.950 . S
H1208 C1205 0.950 . S
C1209 C1200 1.390 . S
C1209 H1202 0.950 . S
C1209 C1206 1.387 . S
C1210 C1211 1.387 . S
C1210 H1214 0.950 . S
C1210 C1219 1.390 . S
C1211 C1210 1.387 . S
C1211 C1213 1.387 . S
H1212 C1219 0.950 . S
C1213 C1211 1.387 . S
C1213 C1215 1.390 . S
C1213 H1217 0.950 . S
H1214 C1210 0.950 . S
C1215 C1213 1.390 . S
C1215 C1216 1.387 . S
C1215 H1218 0.950 . S
C1216 C1215 1.387 . S
C1216 C1219 1.387 . S
H1217 C1213 0.950 . S
H1218 C1215 0.950 . S
C1219 C1210 1.390 . S
C1219 H1212 0.950 . S
C1219 C1216 1.387 . S
C1220 C1221 1.387 . S
C1220 H1224 0.950 . S
C1220 C1229 1.390 . S
C1221 C1220 1.387 . S
C1221 C1223 1.387 . S
H1222 C1229 0.950 . S
C1223 C1221 1.387 . S
C1223 C1225 1.390 . S
C1223 H1227 0.950 . S
H1224 C1220 0.950 . S
C1225 C1223 1.390 . S
C1225 C1226 1.387 . S
C1225 H1228 0.950 . S
C1226 C1225 1.387 . S
C1226 C1229 1.387 . S
H1227 C1223 0.950 . S
H1228 C1225 0.950 . S
C1229 C1220 1.390 . S
C1229 H1222 0.950 . S
C1229 C1226 1.387 . S
C1230 C1231 1.387 . S
C1230 H1234 0.950 . S
C1230 C1239 1.390 . S
C1231 C1230 1.387 . S
C1231 C1233 1.387 . S
H1232 C1239 0.950 . S
C1233 C1231 1.387 . S
C1233 C1235 1.390 . S
C1233 H1237 0.950 . S
H1234 C1230 0.950 . S
C1235 C1233 1.390 . S
C1235 C1236 1.387 . S
C1235 H1238 0.950 . S
C1236 C1235 1.387 . S
C1236 C1239 1.387 . S
H1237 C1233 0.950 . S
H1238 C1235 0.950 . S
C1239 C1230 1.390 . S
C1239 H1232 0.950 . S
C1239 C1236 1.387 . S
C1240 C1241 1.387 . S
C1240 H1244 0.950 . S
C1240 C1249 1.390 . S
C1241 C1240 1.387 . S
C1241 C1243 1.387 . S
H1242 C1249 0.950 . S
C1243 C1241 1.387 . S
C1243 C1245 1.390 . S
C1243 H1247 0.950 . S
H1244 C1240 0.950 . S
C1245 C1243 1.390 . S
C1245 C1246 1.387 . S
C1245 H1248 0.950 . S
C1246 C1245 1.387 . S
C1246 C1249 1.387 . S
H1247 C1243 0.950 . S
H1248 C1245 0.950 . S
C1249 C1240 1.390 . S
C1249 H1242 0.950 . S
C1249 C1246 1.387 . S
C1250 C1251 1.387 . S
C1250 H1254 0.950 . S
C1250 C1259 1.390 . S
C1251 C1250 1.387 . S
C1251 C1253 1.387 . S
H1252 C1259 0.950 . S
C1253 C1251 1.387 . S
C1253 C1255 1.390 . S
C1253 H1257 0.950 . S
H1254 C1250 0.950 . S
C1255 C1253 1.390 . S
C1255 C1256 1.387 . S
C1255 H1258 0.950 . S
C1256 C1255 1.387 . S
C1256 C1259 1.387 . S
H1257 C1253 0.950 . S
H1258 C1255 0.950 . S
C1259 C1250 1.390 . S
C1259 H1252 0.950 . S
C1259 C1256 1.387 . S
C1260 C1261 1.387 . S
C1260 H1264 0.950 . S
C1260 C1269 1.390 . S
C1261 C1260 1.387 . S
C1261 C1263 1.387 . S
H1262 C1269 0.950 . S
C1263 C1261 1.387 . S
C1263 C1265 1.390 . S
C1263 H1267 0.950 . S
H1264 C1260 0.950 . S
C1265 C1263 1.390 . S
C1265 C1266 1.387 . S
C1265 H1268 0.950 . S
C1266 C1265 1.387 . S
C1266 C1269 1.387 . S
H1267 C1263 0.950 . S
H1268 C1265 0.950 . S
C1269 C1260 1.390 . S
C1269 H1262 0.950 . S
C1269 C1266 1.387 . S
C1270 C1271 1.387 . S
C1270 H1274 0.950 . S
C1270 C1279 1.390 . S
C1271 C1270 1.387 . S
C1271 C1273 1.387 . S
H1272 C1279 0.950 . S
C1273 C1271 1.387 . S
C1273 C1275 1.390 . S
C1273 H1277 0.950 . S
H1274 C1270 0.950 . S
C1275 C1273 1.390 . S
C1275 C1276 1.387 . S
C1275 H1278 0.950 . S
C1276 C1275 1.387 . S
C1276 C1279 1.387 . S
H1277 C1273 0.950 . S
H1278 C1275 0.950 . S
C1279 C1270 1.390 . S
C1279 H1272 0.950 . S
C1279 C1276 1.387 . S
C1280 C1281 1.387 . S
C1280 H1284 0.950 . S
C1280 C1289 1.390 . S
C1281 C1280 1.387 . S
C1281 C1283 1.387 . S
H1282 C1289 0.950 . S
C1283 C1281 1.387 . S
C1283 C1285 1.390 . S
C1283 H1287 0.950 . S
H1284 C1280 0.950 . S
C1285 C1283 1.390 . S
C1285 C1286 1.387 . S
C1285 H1288 0.950 . S
C1286 C1285 1.387 . S
C1286 C1289 1.387 . S
H1287 C1283 0.950 . S
H1288 C1285 0.950 . S
C1289 C1280 1.390 . S
C1289 H1282 0.950 . S
C1289 C1286 1.387 . S
C1290 C1291 1.387 . S
C1290 H1294 0.950 . S
C1290 C1299 1.390 . S
C1291 C1290 1.387 . S
C1291 C1293 1.387 . S
H1292 C1299 0.950 . S
C1293 C1291 1.387 . S
C1293 C1295 1.390 . S
C1293 H1297 0.950 . S
H1294 C1290 0.950 . S
C1295 C1293 1.390 . S
C1295 C1296 1.387 . S
C1295 H1298 0.950 . S
C1296 C1295 1.387 . S
C1296 C1299 1.387 . S
H1297 C1293 0.950 . S
H1298 C1295 0.950 . S
C1299 C1290 1.390 . S
C1299 H1292 0.950 . S
C1299 C1296 1.387 . S
C1300 C1301 1.387 . S
C1300 H1304 0.950 . S
C1300 C1309 1.390 . S
C1301 C1300 1.387 . S
C1301 C1303 1.387 . S
H1302 C1309 0.950 . S
C1303 C1301 1.387 . S
C1303 C1305 1.390 . S
C1303 H1307 0.950 . S
H1304 C1300 0.950 . S
C1305 C1303 1.390 . S
C1305 C1306 1.387 . S
C1305 H1308 0.950 . S
C1306 C1305 1.387 . S
C1306 C1309 1.387 . S
H1307 C1303 0.950 . S
H1308 C1305 0.950 . S
C1309 C1300 1.390 . S
C1309 H1302 0.950 . S
C1309 C1306 1.387 . S
C1310 C1311 1.387 . S
C1310 H1314 0.950 . S
C1310 C1319 1.390 . S
C1311 C1310 1.387 . S
C1311 C1313 1.387 . S
H1312 C1319 0.950 . S
C1313 C1311 1.387 . S
C1313 C1315 1.390 . S
C1313 H1317 0.950 . S
H1314 C1310 0.950 . S
C1315 C1313 1.390 . S
C1315 C1316 1.387 . S
C1315 H1318 0.950 . S
C1316 C1315 1.387 . S
C1316 C1319 1.387 . S
H1317 C1313 0.950 . S
H1318 C1315 0.950 . S
C1319 C1310 1.390 . S
C1319 H1312 0.950 . S
C1319 C1316 1.387 . S
C1320 C1321 1.387 . S
C1320 H1324 0.950 . S
C1320 C1329 1.390 . S
C1321 C1320 1.387 . S
C1321 C1323 1.387 . S
H1322 C1329 0.950 . S
C1323 C1321 1.387 . S
C1323 C1325 1.390 . S
C1323 H1327 0.950 . S
H1324 C1320 0.950 . S
C1325 C1323 1.390 . S
C1325 C1326 1.387 . S
C1325 H1328 0.950 . S
C1326 C1325 1.387 . S
C1326 C1329 1.387 . S
H1327 C1323 0.950 . S
H1328 C1325 0.950 . S
C1329 C1320 1.390 . S
C1329 H1322 0.950 . S
C1329 C1326 1.387 . S
C1330 C1331 1.387 . S
C1330 H1334 0.950 . S
C1330 C1339 1.390 . S
C1331 C1330 1.387 . S
C1331 C1333 1.387 . S
H1332 C1339 0.950 . S
C1333 C1331 1.387 . S
C1333 C1335 1.390 . S
C1333 H1337 0.950 . S
H1334 C1330 0.950 . S
C1335 C1333 1.390 . S
C1335 C1336 1.387 . S
C1335 H1338 0.950 . S
C1336 C1335 1.387 . S
C1336 C1339 1.387 . S
H1337 C1333 0.950 . S
H1338 C1335 0.950 . S
C1339 C1330 1.390 . S
C1339 H1332 0.950 . S
C1339 C1336 1.387 . S
C1340 C1341 1.387 . S
C1340 H1344 0.950 . S
C1340 C1349 1.390 . S
C1341 C1340 1.387 . S
C1341 C1343 1.387 . S
H1342 C1349 0.950 . S
C1343 C1341 1.387 . S
C1343 C1345 1.390 . S
C1343 H1347 0.950 . S
H1344 C1340 0.950 . S
C1345 C1343 1.390 . S
C1345 C1346 1.387 . S
C1345 H1348 0.950 . S
C1346 C1345 1.387 . S
C1346 C1349 1.387 . S
H1347 C1343 0.950 . S
H1348 C1345 0.950 . S
C1349 C1340 1.390 . S
C1349 H1342 0.950 . S
C1349 C1346 1.387 . S
C1350 C1351 1.387 . S
C1350 H1354 0.950 . S
C1350 C1359 1.390 . S
C1351 C1350 1.387 . S
C1351 C1353 1.387 . S
H1352 C1359 0.950 . S
C1353 C1351 1.387 . S
C1353 C1355 1.390 . S
C1353 H1357 0.950 . S
H1354 C1350 0.950 . S
C1355 C1353 1.390 . S
C1355 C1356 1.387 . S
C1355 H1358 0.950 . S
C1356 C1355 1.387 . S
C1356 C1359 1.387 . S
H1357 C1353 0.950 . S
H1358 C1355 0.950 . S
C1359 C1350 1.390 . S
C1359 H1352 0.950 . S
C1359 C1356 1.387 . S
C1360 C1361 1.387 . S
C1360 H1364 0.950 . S
C1360 C1369 1.390 . S
C1361 C1360 1.387 . S
C1361 C1363 1.387 . S
H1362 C1369 0.950 . S
C1363 C1361 1.387 . S
C1363 C1365 1.390 . S
C1363 H1367 0.950 . S
H1364 C1360 0.950 . S
C1365 C1363 1.390 . S
C1365 C1366 1.387 . S
C1365 H1368 0.950 . S
C1366 C1365 1.387 . S
C1366 C1369 1.387 . S
H1367 C1363 0.950 . S
H1368 C1365 0.950 . S
C1369 C1360 1.390 . S
C1369 H1362 0.950 . S
C1369 C1366 1.387 . S
C1370 C1371 1.387 . S
C1370 H1374 0.950 . S
C1370 C1379 1.390 . S
C1371 C1370 1.387 . S
C1371 C1373 1.387 . S
H1372 C1379 0.950 . S
C1373 C1371 1.387 . S
C1373 C1375 1.390 . S
C1373 H1377 0.950 . S
H1374 C1370 0.950 . S
C1375 C1373 1.390 . S
C1375 C1376 1.387 . S
C1375 H1378 0.950 . S
C1376 C1375 1.387 . S
C1376 C1379 1.387 . S
H1377 C1373 0.950 . S
H1378 C1375 0.950 . S
C1379 C1370 1.390 . S
C1379 H1372 0.950 . S
C1379 C1376 1.387 . S
C1380 C1381 1.387 . S
C1380 H1384 0.950 . S
C1380 C1389 1.390 . S
C1381 C1380 1.387 . S
C1381 C1383 1.387 . S
H1382 C1389 0.950 . S
C1383 C1381 1.387 . S
C1383 C1385 1.390 . S
C1383 H1387 0.950 . S
H1384 C1380 0.950 . S
C1385 C1383 1.390 . S
C1385 C1386 1.387 . S
C1385 H1388 0.950 . S
C1386 C1385 1.387 . S
C1386 C1389 1.387 . S
H1387 C1383 0.950 . S
H1388 C1385 0.950 . S
C1389 C1380 1.390 . S
C1389 H1382 0.950 . S
C1389 C1386 1.387 . S
C1390 C1391 1.387 . S
C1390 H1394 0.950 . S
C1390 C1399 1.390 . S
C1391 C1390 1.387 . S
C1391 C1393 1.387 . S
H1392 C1399 0.950 . S
C1393 C1391 1.387 . S
C1393 C1395 1.390 . S
C1393 H1397 0.950 . S
H1394 C1390 0.950 . S
C1395 C1393 1.390 . S
C1395 C1396 1.387 . S
C1395 H1398 0.950 . S
C1396 C1395 1.387 . S
C1396 C1399 1.387 . S
H1397 C1393 0.950 . S
H1398 C1395 0.950 . S
C1399 C1390 1.390 . S
C1399 H1392 0.950 . S
C1399 C1396 1.387 . S
C1400 C1401 1.387 . S
C1400 H1404 0.950 . S
C1400 C1409 1.390 . S
C1401 C1400 1.387 . S
C1401 C1403 1.387 . S
H1402 C1409 0.950 . S
C1403 C1401 1.387 . S
C1403 C1405 1.390 . S
C1403 H1407 0.950 . S
H1404 C1400 0.950 . S
C1405 C1403 1.390 . S
C1405 C1406 1.387 . S
C1405 H1408 0.950 . S
C1406 C1405 1.387 . S
C1406 C1409 1.387 . S
H1407 C1403 0.950 . S
H1408 C1405 0.950 . S
C1409 C1400 1.390 . S
C1409 H1402 0.950 . S
C1409 C1406 1.387 . S
C1410 C1411 1.387 . S
C1410 H1414 0.950 . S
C1410 C1419 1.390 . S
C1411 C1410 1.387 . S
C1411 C1413 1.387 . S
H1412 C1419 0.950 . S
C1413 C1411 1.387 . S
C1413 C1415 1.390 . S
C1413 H1417 0.950 . S
H1414 C1410 0.950 . S
C1415 C1413 1.390 . S
C1415 C1416 1.387 . S
C1415 H1418 0.950 . S
C1416 C1415 1.387 . S
C1416 C1419 1.387 . S
H1417 C1413 0.950 . S
H1418 C1415 0.950 . S
C1419 C1410 1.390 . S
C1419 H1412 0.950 . S
C1419 C1416 1.387 . S
C1420 C1421 1.387 . S
C1420 H1424 0.950 . S
C1420 C1429 1.390 . S
C1421 C1420 1.387 . S
C1421 C1423 1.387 . S
H1422 C1429 0.950 . S
C1423 C1421 1.387 . S
C1423 C1425 1.390 . S
C1423 H1427 0.950 . S
H1424 C1420 0.950 . S
C1425 C1423 1.390 . S
C1425 C1426 1.387 . S
C1425 H1428 0.950 . S
C1426 C1425 1.387 . S
C1426 C1429 1.387 . S
H1427 C1423 0.950 . S
H1428 C1425 0.950 . S
C1429 C1420 1.390 . S
C1429 H1422 0.950 . S
C1429 C1426 1.387 . S
C1430 C1431 1.387 . S
C1430 H1434 0.950 . S
C1430 C1439 1.390 . S
C1431 C1430 1.387 . S
C1431 C1433 1.387 . S
H1432 C1439 0.950 . S
C1433 C1431 1.387 . S
C1433 C1435 1.390 . S
C1433 H1437 0.950 . S
H1434 C1430 0.950 . S
C1435 C1433 1.390 . S
C1435 C1436 1.387 . S
C1435 H1438 0.950 . S
C1436 C1435 1.387 . S
C1436 C1439 1.387 . S
H1437 C1433 0.950 . S
H1438 C1435 0.950 . S
C1439 C1430 1.390 . S
C1439 H1432 0.950 . S
C1439 C1436 1.387 . S
C1440 C1441 1.387 . S
C1440 H1444 0.950 . S
C1440 C1449 1.390 . S
C1441 C1440 1.387 . S
C1441 C1443 1.387 . S
H1442 C1449 0.950 . S
C1443 C1441 1.387 . S
C1443 C1445 1.390 . S
C1443 H1447 0.950 . S
H1444 C1440 0.950 . S
C1445 C1443 1.390 . S
C1445 C1446 1.387 . S
C1445 H1448 0.950 . S
C1446 C1445 1.387 . S
C1446 C1449 1.387 . S
H1447 C1443 0.950 . S
H1448 C1445 0.950 . S
C1449 C1440 1.390 . S
C1449 H1442 0.950 . S
C1449 C1446 1.387 . S
C1450 C1451 1.387 . S
C1450 H1454 0.950 . S
C1450 C1459 1.390 . S
C1451 C1450 1.387 . S
C1451 C1453 1.387 . S
H1452 C1459 0.950 . S
C1453 C1451 1.387 . S
C1453 C1455 1.390 . S
C1453 H1457 0.950 . S
H1454 C1450 0.950 . S
C1455 C1453 1.390 . S
C1455 C1456 1.387 . S
C1455 H1458 0.950 . S
C1456 C1455 1.387 . S
C1456 C1459 1.387 . S
H1457 C1453 0.950 . S
H1458 C1455 0.950 . S
C1459 C1450 1.390 . S
C1459 H1452 0.950 . S
C1459 C1456 1.387 . S
C1460 C1461 1.387 . S
C1460 H1464 0.950 . S
C1460 C1469 1.390 . S
C1461 C1460 1.387 . S
C1461 C1463 1.387 . S
H1462 C1469 0.950 . S
C1463 C1461 1.387 . S
C1463 C1465 1.390 . S
C1463 H1467 0.950 . S
H1464 C1460 0.950 . S
C1465 C1463 1.390 . S
C1465 C1466 1.387 . S
C1465 H1468 0.950 . S
C1466 C1465 1.387 . S
C1466 C1469 1.387 . S
H1467 C1463 0.950 . S
H1468 C1465 0.950 . S
C1469 C1460 1.390 . S
C1469 H1462 0.950 . S
C1469 C1466 1.387 . S
C1470 C1471 1.387 . S
C1470 H1474 0.950 . S
C1470 C1479 1.390 . S
C1471 C1470 1.387 . S
C1471 C1473 1.387 . S
H1472 C1479 0.950 . S
C1473 C1471 1.387 . S
C1473 C1475 1.390 . S
C1473 H1477 0.950 . S
H1474 C1470 0.950 . S
C1475 C1473 1.390 . S
C1475 C1476 1.387 . S
C1475 H1478 0.950 . S
C1476 C1475 1.387 . S
C1476 C1479 1.387 . S
H1477 C1473 0.950 . S
H1478 C1475 0.950 . S
C1479 C1470 1.390 . S
C1479 H1472 0.950 . S
C1479 C1476 1.387 . S
C1480 C1481 1.387 . S
C1480 H1484 0.950 . S
C1480 C1489 1.390 . S
C1481 C1480 1.387 . S
C1481 C1483 1.387 . S
H1482 C1489 0.950 . S
C1483 C1481 1.387 . S
C1483 C1485 1.390 . S
C1483 H1487 0.950 . S
H1484 C1480 0.950 . S
C1485 C1483 1.390 . S
C1485 C1486 1.387 . S
C1485 H1488 0.950 . S
C1486 C1485 1.387 . S
C1486 C1489 1.387 . S
H1487 C1483 0.950 . S
H1488 C1485 0.950 . S
C1489 C1480 1.390 . S
C1489 H1482 0.950 . S
C1489 C1486 1.387 . S
C1490 C1491 1.387 . S
C1490 H1494 0.950 . S
C1490 C1499 1.390 . S
C1491 C1490 1.387 . S
C1491 C1493 1.387 . S
H1492 C1499 0.950 . S
C1493 C1491 1.387 . S
C1493 C1495 1.390 . S
C1493 H1497 0.950 . S
H1494 C1490 0.950 . S
C1495 C1493 1.390 . S
C1495 C1496 1.387 . S
C1495 H1498 0.950 . S
C1496 C1495 1.387 . S
C1496 C1499 1.387 . S
H1497 C1493 0.950 . S
H1498 C1495 0.950 . S
C1499 C1490 1.390 . S
C1499 H1492 0.950 . S
C1499 C1496 1.387 . S
C1500 C1501 1.387 . S
C1500 H1504 0.950 . S
C1500 C1509 1.390 . S
C1501 C1500 1.387 . S
C1501 C1503 1.387 . S
H1502 C1509 0.950 . S
C1503 C1501 1.387 . S
C1503 C1505 1.390 . S
C1503 H1507 0.950 . S
H1504 C1500 0.950 . S
C1505 C1503 1.390 . S
C1505 C1506 1.387 . S
C1505 H1508 0.950 . S
C1506 C1505 1.387 . S
C1506 C1509 1.387 . S
H1507 C1503 0.950 . S
H1508 C1505 0.950 . S
C1509 C1500 1.390 . S
C1509 H1502 0.950 . S
C1509 C1506 1.387 . S
C1510 C1511 1.387 . S
C1510 H1514 0.950 . S
C1510 C1519 1.390 . S
C1511 C1510 1.387 . S
C1511 C1513 1.387 . S
H1512 C1519 0.950 . S
C1513 C1511 1.387 . S
C1513 C1515 1.390 . S
C1513 H1517 0.950 . S
H1514 C1510 0.950 . S
C1515 C1513 1.390 . S
C1515 C1516 1.387 . S
C1515 H1518 0.950 . S
C1516 C1515 1.387 . S
C1516 C1519 1.387 . S
H1517 C1513 0.950 . S
H1518 C1515 0.950 . S
C1519 C1510 1.390 . S
C1519 H1512 0.950 . S
C1519 C1516 1.387 . S
C1520 C1521 1.387 . S
C1520 H1524 0.950 . S
C1520 C1529 1.390 . S
C1521 C1520 1.387 . S
C1521 C1523 1.387 . S
H1522 C1529 0.950 . S
C1523 C1521 1.387 . S
C1523 C1525 1.390 . S
C1523 H1527 0.950 1_556 S
H1524 C1520 0.950 . S
C1525 C1523 1.390 . S
C1525 C1526 1.387 . S
C1525 H1528 0.950 . S
C1526 C1525 1.387 . S
C1526 C1529 1.387 . S
H1527 C1523 0.950 1_554 S
H1528 C1525 0.950 . S
C1529 C1520 1.390 . S
C1529 H1522 0.950 . S
C1529 C1526 1.387 . S
C1530 C1531 1.387 . S
C1530 H1534 0.950 . S
C1530 C1539 1.390 . S
C1531 C1530 1.387 . S
C1531 C1533 1.387 . S
H1532 C1539 0.950 . S
C1533 C1531 1.387 . S
C1533 C1535 1.390 . S
C1533 H1537 0.950 . S
H1534 C1530 0.950 . S
C1535 C1533 1.390 . S
C1535 C1536 1.387 . S
C1535 H1538 0.950 . S
C1536 C1535 1.387 . S
C1536 C1539 1.387 . S
H1537 C1533 0.950 . S
H1538 C1535 0.950 . S
C1539 C1530 1.390 . S
C1539 H1532 0.950 . S
C1539 C1536 1.387 . S
C1540 C1541 1.387 . S
C1540 H1544 0.950 . S
C1540 C1549 1.390 . S
C1541 C1540 1.387 . S
C1541 C1543 1.387 . S
H1542 C1549 0.950 . S
C1543 C1541 1.387 . S
C1543 C1545 1.390 . S
C1543 H1547 0.950 . S
H1544 C1540 0.950 . S
C1545 C1543 1.390 . S
C1545 C1546 1.387 . S
C1545 H1548 0.950 . S
C1546 C1545 1.387 . S
C1546 C1549 1.387 . S
H1547 C1543 0.950 . S
H1548 C1545 0.950 . S
C1549 C1540 1.390 . S
C1549 H1542 0.950 . S
C1549 C1546 1.387 . S
C1550 C1551 1.387 . S
C1550 H1554 0.950 . S
C1550 C1559 1.390 . S
C1551 C1550 1.387 . S
C1551 C1553 1.387 . S
H1552 C1559 0.950 . S
C1553 C1551 1.387 . S
C1553 C1555 1.390 . S
C1553 H1557 0.950 . S
H1554 C1550 0.950 . S
C1555 C1553 1.390 . S
C1555 C1556 1.387 . S
C1555 H1558 0.950 . S
C1556 C1555 1.387 . S
C1556 C1559 1.387 . S
H1557 C1553 0.950 . S
H1558 C1555 0.950 . S
C1559 C1550 1.390 . S
C1559 H1552 0.950 . S
C1559 C1556 1.387 . S
C1560 C1561 1.387 . S
C1560 H1564 0.950 . S
C1560 C1569 1.390 . S
C1561 C1560 1.387 . S
C1561 C1563 1.387 . S
H1562 C1569 0.950 . S
C1563 C1561 1.387 . S
C1563 C1565 1.390 . S
C1563 H1567 0.950 . S
H1564 C1560 0.950 . S
C1565 C1563 1.390 . S
C1565 C1566 1.387 . S
C1565 H1568 0.950 . S
C1566 C1565 1.387 . S
C1566 C1569 1.387 . S
H1567 C1563 0.950 . S
H1568 C1565 0.950 . S
C1569 C1560 1.390 . S
C1569 H1562 0.950 . S
C1569 C1566 1.387 . S
C1570 C1571 1.387 . S
C1570 H1574 0.950 . S
C1570 C1579 1.390 . S
C1571 C1570 1.387 . S
C1571 C1573 1.387 . S
H1572 C1579 0.950 . S
C1573 C1571 1.387 . S
C1573 C1575 1.390 . S
C1573 H1577 0.950 . S
H1574 C1570 0.950 . S
C1575 C1573 1.390 . S
C1575 C1576 1.387 . S
C1575 H1578 0.950 . S
C1576 C1575 1.387 . S
C1576 C1579 1.387 . S
H1577 C1573 0.950 . S
H1578 C1575 0.950 . S
C1579 C1570 1.390 . S
C1579 H1572 0.950 . S
C1579 C1576 1.387 . S
C1580 C1581 1.387 . S
C1580 H1584 0.950 . S
C1580 C1589 1.390 . S
C1581 C1580 1.387 . S
C1581 C1583 1.387 . S
H1582 C1589 0.950 . S
C1583 C1581 1.387 . S
C1583 C1585 1.390 . S
C1583 H1587 0.950 . S
H1584 C1580 0.950 . S
C1585 C1583 1.390 . S
C1585 C1586 1.387 . S
C1585 H1588 0.950 . S
C1586 C1585 1.387 . S
C1586 C1589 1.387 . S
H1587 C1583 0.950 . S
H1588 C1585 0.950 . S
C1589 C1580 1.390 . S
C1589 H1582 0.950 . S
C1589 C1586 1.387 . S
C1590 C1591 1.387 . S
C1590 H1594 0.950 . S
C1590 C1599 1.390 . S
C1591 C1590 1.387 . S
C1591 C1593 1.387 1_455 S
H1592 C1599 0.950 . S
C1593 C1591 1.387 1_655 S
C1593 C1595 1.390 . S
C1593 H1597 0.950 . S
H1594 C1590 0.950 . S
C1595 C1593 1.390 . S
C1595 C1596 1.387 1_655 S
C1595 H1598 0.950 . S
C1596 C1595 1.387 1_455 S
C1596 C1599 1.387 . S
H1597 C1593 0.950 . S
H1598 C1595 0.950 . S
C1599 C1590 1.390 . S
C1599 H1592 0.950 . S
C1599 C1596 1.387 . S
C1600 C1601 1.387 . S
C1600 H1604 0.950 . S
C1600 C1609 1.390 . S
C1601 C1600 1.387 . S
C1601 C1603 1.387 . S
H1602 C1609 0.950 . S
C1603 C1601 1.387 . S
C1603 C1605 1.390 . S
C1603 H1607 0.950 . S
H1604 C1600 0.950 . S
C1605 C1603 1.390 . S
C1605 C1606 1.387 . S
C1605 H1608 0.950 . S
C1606 C1605 1.387 . S
C1606 C1609 1.387 . S
H1607 C1603 0.950 . S
H1608 C1605 0.950 . S
C1609 C1600 1.390 . S
C1609 H1602 0.950 . S
C1609 C1606 1.387 . S
C1610 C1611 1.387 . S
C1610 H1614 0.950 . S
C1610 C1619 1.390 . S
C1611 C1610 1.387 . S
C1611 C1613 1.387 1_565 S
H1612 C1619 0.950 . S
C1613 C1611 1.387 1_545 S
C1613 C1615 1.390 . S
C1613 H1617 0.950 . S
H1614 C1610 0.950 . S
C1615 C1613 1.390 . S
C1615 C1616 1.387 1_545 S
C1615 H1618 0.950 . S
C1616 C1615 1.387 1_565 S
C1616 C1619 1.387 . S
H1617 C1613 0.950 . S
H1618 C1615 0.950 . S
C1619 C1610 1.390 . S
C1619 H1612 0.950 . S
C1619 C1616 1.387 . S
C1620 C1621 1.387 1_545 S
C1620 H1624 0.950 . S
C1620 C1629 1.390 . S
C1621 C1620 1.387 1_565 S
C1621 C1623 1.387 . S
H1622 C1629 0.950 . S
C1623 C1621 1.387 . S
C1623 C1625 1.390 . S
C1623 H1627 0.950 . S
H1624 C1620 0.950 . S
C1625 C1623 1.390 . S
C1625 C1626 1.387 . S
C1625 H1628 0.950 . S
C1626 C1625 1.387 . S
C1626 C1629 1.387 1_565 S
H1627 C1623 0.950 . S
H1628 C1625 0.950 . S
C1629 C1620 1.390 . S
C1629 H1622 0.950 . S
C1629 C1626 1.387 1_545 S
C1630 C1631 1.387 1_655 S
C1630 H1634 0.950 . S
C1630 C1639 1.390 . S
C1631 C1630 1.387 1_455 S
C1631 C1633 1.387 . S
H1632 C1639 0.950 . S
C1633 C1631 1.387 . S
C1633 C1635 1.390 . S
C1633 H1637 0.950 . S
H1634 C1630 0.950 . S
C1635 C1633 1.390 . S
C1635 C1636 1.387 . S
C1635 H1638 0.950 . S
C1636 C1635 1.387 . S
C1636 C1639 1.387 1_455 S
H1637 C1633 0.950 . S
H1638 C1635 0.950 . S
C1639 C1630 1.390 . S
C1639 H1632 0.950 . S
C1639 C1636 1.387 1_655 S
C1640 C1641 1.387 . S
C1640 H1644 0.950 . S
C1640 C1649 1.390 . S
C1641 C1640 1.387 . S
C1641 C1643 1.387 . S
H1642 C1649 0.950 . S
C1643 C1641 1.387 . S
C1643 C1645 1.390 . S
C1643 H1647 0.950 . S
H1644 C1640 0.950 . S
C1645 C1643 1.390 . S
C1645 C1646 1.387 . S
C1645 H1648 0.950 . S
C1646 C1645 1.387 . S
C1646 C1649 1.387 . S
H1647 C1643 0.950 . S
H1648 C1645 0.950 . S
C1649 C1640 1.390 . S
C1649 H1642 0.950 . S
C1649 C1646 1.387 . S
C1650 C1651 1.387 . S
C1650 H1654 0.950 . S
C1650 C1659 1.390 . S
C1651 C1650 1.387 . S
C1651 C1653 1.387 . S
H1652 C1659 0.950 . S
C1653 C1651 1.387 . S
C1653 C1655 1.390 . S
C1653 H1657 0.950 . S
H1654 C1650 0.950 . S
C1655 C1653 1.390 . S
C1655 C1656 1.387 . S
C1655 H1658 0.950 . S
C1656 C1655 1.387 . S
C1656 C1659 1.387 . S
H1657 C1653 0.950 . S
H1658 C1655 0.950 . S
C1659 C1650 1.390 . S
C1659 H1652 0.950 . S
C1659 C1656 1.387 . S
C1660 C1661 1.387 . S
C1660 H1664 0.950 . S
C1660 C1669 1.390 . S
C1661 C1660 1.387 . S
C1661 C1663 1.387 . S
H1662 C1669 0.950 . S
C1663 C1661 1.387 . S
C1663 C1665 1.390 . S
C1663 H1667 0.950 . S
H1664 C1660 0.950 . S
C1665 C1663 1.390 . S
C1665 C1666 1.387 . S
C1665 H1668 0.950 . S
C1666 C1665 1.387 . S
C1666 C1669 1.387 . S
H1667 C1663 0.950 . S
H1668 C1665 0.950 . S
C1669 C1660 1.390 . S
C1669 H1662 0.950 . S
C1669 C1666 1.387 . S
C1670 C1671 1.387 . S
C1670 H1674 0.950 . S
C1670 C1679 1.390 . S
C1671 C1670 1.387 . S
C1671 C1673 1.387 . S
H1672 C1679 0.950 . S
C1673 C1671 1.387 . S
C1673 C1675 1.390 . S
C1673 H1677 0.950 . S
H1674 C1670 0.950 . S
C1675 C1673 1.390 . S
C1675 C1676 1.387 . S
C1675 H1678 0.950 . S
C1676 C1675 1.387 . S
C1676 C1679 1.387 . S
H1677 C1673 0.950 . S
H1678 C1675 0.950 . S
C1679 C1670 1.390 . S
C1679 H1672 0.950 . S
C1679 C1676 1.387 . S
C1680 C1681 1.387 . S
C1680 H1684 0.950 . S
C1680 C1689 1.390 . S
C1681 C1680 1.387 . S
C1681 C1683 1.387 1_545 S
H1682 C1689 0.950 . S
C1683 C1681 1.387 1_565 S
C1683 C1685 1.390 . S
C1683 H1687 0.950 . S
H1684 C1680 0.950 . S
C1685 C1683 1.390 . S
C1685 C1686 1.387 1_565 S
C1685 H1688 0.950 . S
C1686 C1685 1.387 1_545 S
C1686 C1689 1.387 . S
H1687 C1683 0.950 . S
H1688 C1685 0.950 . S
C1689 C1680 1.390 . S
C1689 H1682 0.950 . S
C1689 C1686 1.387 . S
C1690 C1691 1.387 . S
C1690 H1694 0.950 . S
C1690 C1699 1.390 . S
C1691 C1690 1.387 . S
C1691 C1693 1.387 . S
H1692 C1699 0.950 . S
C1693 C1691 1.387 . S
C1693 C1695 1.390 . S
C1693 H1697 0.950 . S
H1694 C1690 0.950 . S
C1695 C1693 1.390 . S
C1695 C1696 1.387 . S
C1695 H1698 0.950 . S
C1696 C1695 1.387 . S
C1696 C1699 1.387 . S
H1697 C1693 0.950 . S
H1698 C1695 0.950 . S
C1699 C1690 1.390 . S
C1699 H1692 0.950 . S
C1699 C1696 1.387 . S
C1700 C1701 1.387 . S
C1700 H1704 0.950 . S
C1700 C1709 1.390 . S
C1701 C1700 1.387 . S
C1701 C1703 1.387 . S
H1702 C1709 0.950 . S
C1703 C1701 1.387 . S
C1703 C1705 1.390 . S
C1703 H1707 0.950 . S
H1704 C1700 0.950 . S
C1705 C1703 1.390 . S
C1705 C1706 1.387 . S
C1705 H1708 0.950 . S
C1706 C1705 1.387 . S
C1706 C1709 1.387 . S
H1707 C1703 0.950 . S
H1708 C1705 0.950 . S
C1709 C1700 1.390 . S
C1709 H1702 0.950 . S
C1709 C1706 1.387 . S
C1710 C1711 1.387 . S
C1710 H1714 0.950 . S
C1710 C1719 1.390 . S
C1711 C1710 1.387 . S
C1711 C1713 1.387 . S
H1712 C1719 0.950 . S
C1713 C1711 1.387 . S
C1713 C1715 1.390 . S
C1713 H1717 0.950 . S
H1714 C1710 0.950 . S
C1715 C1713 1.390 . S
C1715 C1716 1.387 . S
C1715 H1718 0.950 . S
C1716 C1715 1.387 . S
C1716 C1719 1.387 . S
H1717 C1713 0.950 . S
H1718 C1715 0.950 . S
C1719 C1710 1.390 . S
C1719 H1712 0.950 . S
C1719 C1716 1.387 . S
C1720 C1721 1.387 . S
C1720 H1724 0.950 . S
C1720 C1729 1.390 . S
C1721 C1720 1.387 . S
C1721 C1723 1.387 . S
H1722 C1729 0.950 . S
C1723 C1721 1.387 . S
C1723 C1725 1.390 . S
C1723 H1727 0.950 . S
H1724 C1720 0.950 . S
C1725 C1723 1.390 . S
C1725 C1726 1.387 . S
C1725 H1728 0.950 . S
C1726 C1725 1.387 . S
C1726 C1729 1.387 . S
H1727 C1723 0.950 . S
H1728 C1725 0.950 . S
C1729 C1720 1.390 . S
C1729 H1722 0.950 . S
C1729 C1726 1.387 . S
C1730 C1731 1.387 . S
C1730 H1734 0.950 . S
C1730 C1739 1.390 . S
C1731 C1730 1.387 . S
C1731 C1733 1.387 . S
H1732 C1739 0.950 . S
C1733 C1731 1.387 . S
C1733 C1735 1.390 . S
C1733 H1737 0.950 . S
H1734 C1730 0.950 . S
C1735 C1733 1.390 . S
C1735 C1736 1.387 . S
C1735 H1738 0.950 . S
C1736 C1735 1.387 . S
C1736 C1739 1.387 . S
H1737 C1733 0.950 . S
H1738 C1735 0.950 . S
C1739 C1730 1.390 . S
C1739 H1732 0.950 . S
C1739 C1736 1.387 . S
C1740 C1741 1.387 . S
C1740 H1744 0.950 . S
C1740 C1749 1.390 . S
C1741 C1740 1.387 . S
C1741 C1743 1.387 . S
H1742 C1749 0.950 . S
C1743 C1741 1.387 . S
C1743 C1745 1.390 . S
C1743 H1747 0.950 . S
H1744 C1740 0.950 . S
C1745 C1743 1.390 . S
C1745 C1746 1.387 . S
C1745 H1748 0.950 . S
C1746 C1745 1.387 . S
C1746 C1749 1.387 . S
H1747 C1743 0.950 . S
H1748 C1745 0.950 . S
C1749 C1740 1.390 . S
C1749 H1742 0.950 . S
C1749 C1746 1.387 . S
C1750 C1751 1.387 . S
C1750 H1754 0.950 . S
C1750 C1759 1.390 . S
C1751 C1750 1.387 . S
C1751 C1753 1.387 . S
H1752 C1759 0.950 . S
C1753 C1751 1.387 . S
C1753 C1755 1.390 . S
C1753 H1757 0.950 . S
H1754 C1750 0.950 . S
C1755 C1753 1.390 . S
C1755 C1756 1.387 . S
C1755 H1758 0.950 . S
C1756 C1755 1.387 . S
C1756 C1759 1.387 . S
H1757 C1753 0.950 . S
H1758 C1755 0.950 . S
C1759 C1750 1.390 . S
C1759 H1752 0.950 . S
C1759 C1756 1.387 . S
C1760 C1761 1.387 . S
C1760 H1764 0.950 . S
C1760 C1769 1.390 . S
C1761 C1760 1.387 . S
C1761 C1763 1.387 . S
H1762 C1769 0.950 . S
C1763 C1761 1.387 . S
C1763 C1765 1.390 . S
C1763 H1767 0.950 . S
H1764 C1760 0.950 . S
C1765 C1763 1.390 . S
C1765 C1766 1.387 . S
C1765 H1768 0.950 . S
C1766 C1765 1.387 . S
C1766 C1769 1.387 . S
H1767 C1763 0.950 . S
H1768 C1765 0.950 . S
C1769 C1760 1.390 . S
C1769 H1762 0.950 . S
C1769 C1766 1.387 . S
C1770 C1771 1.378 1_455 S
C1770 H1774 0.938 . S
C1770 C1779 1.404 . S
C1771 C1770 1.378 1_655 S
C1771 C1773 1.387 . S
H1772 C1779 0.954 . S
C1773 C1771 1.387 . S
C1773 C1775 1.390 . S
C1773 H1777 0.950 . S
H1774 C1770 0.938 . S
C1775 C1773 1.390 . S
C1775 C1776 1.387 . S
C1775 H1778 0.950 . S
C1776 C1775 1.387 . S
C1776 C1779 1.394 1_655 S
H1777 C1773 0.950 . S
H1778 C1775 0.950 . S
C1779 C1770 1.404 . S
C1779 H1772 0.954 . S
C1779 C1776 1.394 1_455 S
C1780 C1781 1.387 . S
C1780 H1784 0.950 . S
C1780 C1789 1.390 . S
C1781 C1780 1.387 . S
C1781 C1783 1.387 . S
H1782 C1789 0.950 . S
C1783 C1781 1.387 . S
C1783 C1785 1.390 . S
C1783 H1787 0.950 . S
H1784 C1780 0.950 . S
C1785 C1783 1.390 . S
C1785 C1786 1.387 . S
C1785 H1788 0.950 . S
C1786 C1785 1.387 . S
C1786 C1789 1.387 . S
H1787 C1783 0.950 . S
H1788 C1785 0.950 . S
C1789 C1780 1.390 . S
C1789 H1782 0.950 . S
C1789 C1786 1.387 . S
C1790 C1791 1.387 . S
C1790 H1794 0.950 . S
C1790 C1799 1.390 . S
C1791 C1790 1.387 . S
C1791 C1793 1.387 1_545 S
H1792 C1799 0.950 . S
C1793 C1791 1.387 1_565 S
C1793 C1795 1.390 . S
C1793 H1797 0.950 . S
H1794 C1790 0.950 . S
C1795 C1793 1.390 . S
C1795 C1796 1.387 1_565 S
C1795 H1798 0.950 . S
C1796 C1795 1.387 1_545 S
C1796 C1799 1.387 . S
H1797 C1793 0.950 . S
H1798 C1795 0.950 . S
C1799 C1790 1.390 . S
C1799 H1792 0.950 . S
C1799 C1796 1.387 . S
C1081 C9 1.483 . S
C1086 C688 1.478 . S
C1091 C19 1.602 . S
C1096 C734 1.569 . S
C1106 C766 1.515 . S
C1101 C33 1.504 . S
C1111 C37 1.475 1_565 S
C1116 C819 1.492 . S
C1121 C5 1.461 . S
C1126 C865 1.474 . S
C1131 C23 1.649 . S
C1136 C904 1.621 . S
C1141 C47 1.473 . S
C1146 C858 1.483 . S
C1156 C911 1.631 . S
C1151 C65 1.657 . S
C1166 C812 1.482 . S
C1161 C75 1.475 . S
C1171 C79 1.428 . S
C1176 C773 1.441 . S
C1186 C667 1.509 . S
C1181 C51 1.493 . S
C1191 C61 1.625 . S
C1196 C713 1.590 . S
C1201 C93 1.735 . S
C1206 C943 1.702 . S
C1211 C103 1.670 . S
C1216 C1010 1.630 . S
C1226 C1056 1.644 . S
C1221 C117 1.684 . S
C1231 C121 1.657 . S
C1236 C267 1.609 . S
C1241 C89 1.666 . S
C1246 C313 1.623 . S
C1251 C107 1.700 . S
C1256 C359 1.644 . S
C1261 C131 1.631 . S
C1266 C306 1.590 . S
C1271 C149 1.701 . S
C1276 C352 1.651 . S
C1286 C260 1.616 . S
C1281 C159 1.655 . S
C1296 C1035 1.656 . S
C1291 C163 1.708 . S
C1306 C964 1.686 . S
C1301 C135 1.722 . S
C1316 C989 1.650 . S
C1311 C145 1.694 . S
C1321 C177 1.658 . S
C1326 C391 1.624 . S
C1331 C187 1.642 . S
C1336 C444 1.615 . S
C1341 C201 1.687 . S
C1346 C490 1.664 . S
C1351 C205 1.734 . S
C1356 C536 1.702 . S
C1366 C589 1.625 . S
C1361 C173 1.668 . S
C1376 C635 1.675 . S
C1371 C191 1.730 . S
C1386 C582 1.672 . S
C1381 C215 1.714 . S
C1396 C628 1.681 . S
C1391 C233 1.733 . S
C1401 C243 1.650 . S
C1406 C543 1.627 . S
C1416 C497 1.590 . S
C1411 C247 1.624 . S
C1421 C219 1.722 . S
C1426 C412 1.688 . S
C1436 C451 1.645 . S
C1431 C229 1.675 . S
C1446 C274 1.601 . S
C1441 C11 1.628 . S
C1451 C14 1.594 . S
C1456 C320 1.554 . S
C1466 C366 1.685 . S
C1461 C28 1.723 . S
C1476 C398 1.654 . S
C1471 C39 1.705 . S
C1486 C437 1.608 . S
C1481 C0 1.663 . S
C1496 C483 1.498 . S
C1491 C25 1.551 . S
C1501 C42 1.708 . S
C1506 C504 1.658 . S
C1511 C67 1.603 . S
C1516 C405 1.549 . S
C1521 C70 1.614 . S
C1526 C458 1.561 . S
C1531 C81 1.622 . S
C1536 C299 1.597 . S
C1546 C345 1.652 . S
C1541 C53 1.687 . S
C1551 C56 1.631 . S
C1556 C253 1.588 . S
C1566 C529 1.542 . S
C1561 C95 1.588 . S
C1571 C98 1.680 . S
C1576 C596 1.643 . S
C1581 C112 1.741 . S
C1586 C642 1.702 . S
C1596 C681 1.450 . S
C1591 C123 1.443 . S
C1601 C84 1.620 . S
C1606 C727 1.587 . S
C1611 C109 1.388 . S
C1616 C759 1.399 . S
C1621 C126 1.461 . S
C1626 C780 1.467 . S
C1631 C151 1.423 . S
C1636 C674 1.432 . S
C1646 C720 1.558 . S
C1641 C154 1.586 . S
C1651 C165 1.583 . S
C1656 C575 1.549 . S
C1661 C137 1.692 . S
C1666 C621 1.657 . S
C1676 C550 1.660 . S
C1671 C140 1.716 . S
C1686 C826 1.423 . S
C1681 C179 1.414 . S
C1691 C182 1.415 . S
C1696 C872 1.429 . S
C1701 C196 1.676 . S
C1706 C897 1.625 . S
C1716 C950 1.605 . S
C1711 C207 1.662 . S
C1726 C1003 1.640 . S
C1721 C168 1.677 . S
C1731 C193 1.643 . S
C1736 C1049 1.612 . S
C1741 C210 1.675 . S
C1746 C1042 1.636 . S
C1751 C235 1.691 . S
C1756 C957 1.640 . S
C1766 C996 1.609 . S
C1761 C238 1.641 . S
C1776 C851 1.395 . S
C1771 C249 1.384 . S
C1786 C918 1.587 . S
C1781 C221 1.635 . S
C1791 C224 1.443 . S
C1796 C805 1.453 . S
