# Generated by pormake.
# Topology ftw, (4,12)-cn, num edge types: 1
# Building blocks:
#     Node 0, Type 0, BuildingBlock: NAWXER_clean_linker_0, # of connection points: 4
#     Node 1, Type 0, BuildingBlock: NAWXER_clean_linker_0, # of connection points: 4
#     Node 2, Type 0, BuildingBlock: NAWXER_clean_linker_0, # of connection points: 4
#     Node 3, Type 1, BuildingBlock: EZIPEK_clean_sbu_0, # of connection points: 12
#     Edge 4, Type (0, 1), BuildingBlock: UVAHIK_clean_linker_0, # of connection points: 2
#     Edge 5, Type (0, 1), BuildingBlock: UVAHIK_clean_linker_0, # of connection points: 2
#     Edge 6, Type (0, 1), BuildingBlock: UVAHIK_clean_linker_0, # of connection points: 2
#     Edge 7, Type (0, 1), BuildingBlock: UVAHIK_clean_linker_0, # of connection points: 2
#     Edge 8, Type (0, 1), BuildingBlock: UVAHIK_clean_linker_0, # of connection points: 2
#     Edge 9, Type (0, 1), BuildingBlock: UVAHIK_clean_linker_0, # of connection points: 2
#     Edge 10, Type (0, 1), BuildingBlock: UVAHIK_clean_linker_0, # of connection points: 2
#     Edge 11, Type (0, 1), BuildingBlock: UVAHIK_clean_linker_0, # of connection points: 2
#     Edge 12, Type (0, 1), BuildingBlock: UVAHIK_clean_linker_0, # of connection points: 2
#     Edge 13, Type (0, 1), BuildingBlock: UVAHIK_clean_linker_0, # of connection points: 2
#     Edge 14, Type (0, 1), BuildingBlock: UVAHIK_clean_linker_0, # of connection points: 2
#     Edge 15, Type (0, 1), BuildingBlock: UVAHIK_clean_linker_0, # of connection points: 2
# Relax obj value: 0.032
# Max RMSD: 0.131
# Mean RMSD: 0.100
data_MOF--net-ftw--node1-EZIPEK_clean_sbu_0--node2-NAWXER_clean_linker_0--edge1-UVAHIK_clean_linker_0
_symmetry_space_group_name_H-M    P1
_symmetry_Int_Tables_number       1
_symmetry_cell_setting            triclinic
loop_
_symmetry_equiv_pos_as_xyz
'x, y, z'
_cell_length_a     34.330705
_cell_length_b     35.219003
_cell_length_c     34.603202
_cell_angle_alpha  89.974262
_cell_angle_beta   89.906611
_cell_angle_gamma 89.997044
loop_
_atom_site_label
_atom_site_type_symbol
_atom_site_fract_x
_atom_site_fract_y
_atom_site_fract_z
_atom_type_partial_charge
C0 C 0.00291 0.64281 0.57391 0.0
C1 C 0.9745 0.64391 0.60328 0.0
C2 C 0.00318 0.61333 0.54669 0.0
C3 C 0.97472 0.58463 0.54799 0.0
C4 C 0.94547 0.61576 0.60377 0.0
C5 C 0.94569 0.58645 0.57658 0.0
C6 C 0.97757 0.55014 0.52345 0.0
C7 C 0.95996 0.64359 0.43452 0.0
C8 C -0.01085 0.64624 0.40601 0.0
C9 C 0.95972 0.6134 0.46094 0.0
C10 C -0.01118 0.58535 0.45953 0.0
C11 C 0.01864 0.61852 0.40526 0.0
C12 C 0.01833 0.58838 0.43155 0.0
C13 C -0.01367 0.55045 0.48351 0.0
C14 C 0.96147 0.38969 0.43244 0.0
C15 C -0.00984 0.38847 0.40334 0.0
C16 C 0.96105 0.41919 0.45965 0.0
C17 C -0.01039 0.4478 0.45857 0.0
C18 C 0.01931 0.41652 0.40314 0.0
C19 C 0.01891 0.44586 0.43028 0.0
C20 C -0.01337 0.48231 0.48306 0.0
C21 C 0.00344 0.38917 0.57298 0.0
C22 C 0.9747 0.38761 0.60202 0.0
C23 C 0.00367 0.41882 0.54589 0.0
C24 C 0.97489 0.4472 0.54705 0.0
C25 C 0.94527 0.41537 0.60222 0.0
C26 C 0.94548 0.44484 0.5752 0.0
C27 C 0.97776 0.48202 0.52297 0.0
H28 H 0.02596 0.66379 0.57298 0.0
H29 H 0.02665 0.61211 0.52579 0.0
H30 H 0.92281 0.61605 0.62558 0.0
H31 H 0.92352 0.56462 0.57841 0.0
H32 H 0.93695 0.66457 0.43609 0.0
H33 H 0.936 0.61131 0.48148 0.0
H34 H 0.04124 0.61927 0.38341 0.0
H35 H 0.04081 0.56688 0.42947 0.0
H36 H 0.93833 0.36881 0.43316 0.0
H37 H 0.9374 0.4205 0.48034 0.0
H38 H 0.04219 0.41613 0.38156 0.0
H39 H 0.04117 0.46762 0.42865 0.0
H40 H 0.02677 0.36849 0.57225 0.0
H41 H 0.02737 0.42045 0.52527 0.0
H42 H 0.92234 0.41469 0.62374 0.0
H43 H 0.92304 0.46641 0.57689 0.0
N44 N 0.97355 0.51594 0.5413 0.0
N45 N -0.00939 0.51653 0.46517 0.0
C46 C 0.55342 0.03878 0.62823 0.0
C47 C 0.58125 1.0097 0.63135 0.0
C48 C 0.5272 0.03904 0.59752 0.0
C49 C 0.52824 1.01005 0.56974 0.0
C50 C 0.5817 0.98035 0.60389 0.0
C51 C 0.55551 0.98066 0.57322 0.0
C52 C 0.5037 1.01203 0.53504 0.0
C53 C 0.41873 0.99185 0.63183 0.0
C54 C 0.39081 0.02063 0.63663 0.0
C55 C 0.44333 0.99199 0.59973 0.0
C56 C 0.44062 0.02114 0.57219 0.0
C57 C 0.38871 0.05014 0.60939 0.0
C58 C 0.4133 0.05027 0.57734 0.0
C59 C 0.46338 0.0196 0.53617 0.0
C60 C 0.41121 0.98947 0.37647 0.0
C61 C 0.38671 0.02062 0.36972 0.0
C62 C 0.43677 0.98985 0.40767 0.0
C63 C 0.43776 0.02121 0.43262 0.0
C64 C 0.38857 0.05246 0.39402 0.0
C65 C 0.41369 0.05255 0.42562 0.0
C66 C 0.46176 0.02002 0.46759 0.0
C67 C 0.54804 0.04405 0.3732 0.0
C68 C 0.5722 1.01299 0.36489 0.0
C69 C 0.52396 0.04331 0.40562 0.0
C70 C 0.52413 1.01166 0.43026 0.0
C71 C 0.57141 0.98086 0.38889 0.0
C72 C 0.54781 0.9804 0.42169 0.0
C73 C 0.50189 1.01249 0.46648 0.0
H74 H 0.55241 0.06164 0.64913 0.0
H75 H 0.507 0.06252 0.59484 0.0
H76 H 0.60323 0.95791 0.60528 0.0
H77 H 0.557 0.95828 0.55177 0.0
H78 H 0.42104 0.96885 0.6525 0.0
H79 H 0.46353 0.96868 0.59582 0.0
H80 H 0.36705 0.07235 0.61202 0.0
H81 H 0.4105 0.07277 0.55615 0.0
H82 H 0.41003 0.96465 0.35803 0.0
H83 H 0.45479 0.96516 0.41309 0.0
H84 H 0.36951 0.07656 0.38946 0.0
H85 H 0.41401 0.07682 0.44485 0.0
H86 H 0.54842 0.06911 0.35503 0.0
H87 H 0.50625 0.06794 0.41221 0.0
H88 H 0.59025 0.95682 0.38313 0.0
H89 H 0.54839 0.95591 0.44065 0.0
N90 N 0.52149 1.00866 0.50018 0.0
N91 N 0.44387 0.0234 0.50233 0.0
C92 C 0.41376 0.39022 0.98155 0.0
C93 C 0.38471 0.38767 0.01019 0.0
C94 C 0.44 0.42063 0.98123 0.0
C95 C 0.43803 0.44888 0.00983 0.0
C96 C 0.38324 0.41572 0.03907 0.0
C97 C 0.4095 0.446 0.03879 0.0
C98 C 0.46238 0.48359 0.00756 0.0
C99 C 0.5508 0.38979 0.02485 0.0
C100 C 0.57984 0.38712 0.9962 0.0
C101 C 0.52476 0.42036 0.02522 0.0
C102 C 0.5269 0.44868 0.99667 0.0
C103 C 0.58149 0.41525 0.96738 0.0
C104 C 0.55543 0.4457 0.96772 0.0
C105 C 0.50271 0.4835 0.99895 0.0
C106 C 0.55491 0.64125 0.02817 0.0
C107 C 0.57924 0.64746 0.99611 0.0
C108 C 0.52845 0.61106 0.02827 0.0
C109 C 0.52636 0.58631 0.99655 0.0
C110 C 0.57611 0.6235 0.96383 0.0
C111 C 0.55024 0.59284 0.96428 0.0
C112 C 0.50269 0.55136 0.99874 0.0
C113 C 0.41085 0.64162 0.97839 0.0
C114 C 0.3866 0.64794 0.0105 0.0
C115 C 0.43715 0.6113 0.97824 0.0
C116 C 0.43916 0.5865 0.00996 0.0
C117 C 0.38964 0.62391 0.04275 0.0
C118 C 0.41535 0.59312 0.04226 0.0
C119 C 0.46268 0.55144 0.00775 0.0
H120 H 0.41591 0.36898 0.95902 0.0
H121 H 0.46093 0.42264 0.95788 0.0
H122 H 0.36091 0.41508 0.06119 0.0
H123 H 0.40702 0.46768 0.06087 0.0
H124 H 0.54851 0.3685 0.04733 0.0
H125 H 0.50383 0.42244 0.04857 0.0
H126 H 0.60382 0.41453 0.94526 0.0
H127 H 0.55805 0.46741 0.94567 0.0
H128 H 0.55685 0.65938 0.05337 0.0
H129 H 0.5108 0.60612 0.05376 0.0
H130 H 0.59482 0.62756 0.93893 0.0
H131 H 0.54933 0.57381 0.9397 0.0
H132 H 0.40898 0.6598 0.9532 0.0
H133 H 0.45475 0.6063 0.95273 0.0
H134 H 0.371 0.62805 0.06769 0.0
H135 H 0.41619 0.57406 0.06683 0.0
N136 N 0.44411 0.51762 0.0118 0.0
N137 N 0.52112 0.51746 0.9947 0.0
C138 C -0.0154 0.10819 0.90872 0.0
C139 C 0.98034 0.10862 0.09728 0.0
C140 C -0.01572 0.92389 0.9092 0.0
C141 C 0.9817 0.92435 0.09793 0.0
C142 C 0.07766 0.92494 0.00694 0.0
C143 C 0.07698 0.10848 0.00361 0.0
C144 C 0.88847 0.92401 1.00007 0.0
C145 C 0.88737 0.10755 1.00253 0.0
C146 C 0.88615 1.01395 0.09386 0.0
C147 C 0.07405 0.01928 0.09842 0.0
C148 C 0.89083 0.01782 0.90816 0.0
C149 C 0.07935 1.01436 0.91268 0.0
Eu150 Eu 0.98227 0.08886 0.00305 0.0
O151 O 0.01573 0.05054 0.03835 0.0
O152 O 0.94916 0.05001 0.96803 0.0
Eu153 Eu 0.05538 0.01662 0.00508 0.0
Eu154 Eu 0.90988 1.01582 1.00155 0.0
O155 O 0.01767 0.05044 0.96956 0.0
O156 O 0.94724 0.05028 0.03675 0.0
Eu157 Eu -0.01544 1.0161 0.93011 0.0
Eu158 Eu 0.98065 1.01644 0.07638 0.0
O159 O 0.01787 0.98222 0.9699 0.0
O160 O 0.01608 0.98236 0.03857 0.0
O161 O 0.94765 0.98195 0.03696 0.0
O162 O 0.94951 0.98187 0.96818 0.0
Eu163 Eu -0.01704 0.94351 0.00351 0.0
O164 O -0.01707 0.12019 0.94539 0.0
O165 O 0.9815 0.12048 0.06053 0.0
O166 O -0.01664 0.91198 0.94595 0.0
O167 O -0.0173 0.91223 0.06126 0.0
O168 O 0.0887 0.96123 0.00897 0.0
O169 O 0.08828 0.07223 0.00359 0.0
O170 O 0.87711 0.96018 0.9979 0.0
O171 O 0.87639 0.07119 0.00277 0.0
O172 O 0.92249 1.01647 0.10715 0.0
O173 O 0.03709 0.01674 0.10997 0.0
O174 O 0.92791 0.01674 0.89657 0.0
O175 O 0.04288 1.01531 0.89941 0.0
O176 O 0.92522 0.91196 0.00341 0.0
O177 O 0.04102 0.91257 0.0037 0.0
O178 O 0.9242 0.11989 1.0022 0.0
O179 O 0.04003 0.1205 0.00381 0.0
O180 O 0.97967 0.07238 0.10868 0.0
O181 O 0.98061 0.96067 0.10901 0.0
O182 O -0.01422 0.07191 0.89751 0.0
O183 O -0.01505 0.96015 0.89784 0.0
O184 O 0.08966 1.01443 0.94975 0.0
O185 O 0.08653 0.0203 0.06201 0.0
O186 O 0.87867 0.01788 0.94469 0.0
O187 O 0.87563 1.01261 0.05689 0.0
C188 C -0.0038 0.36974 0.33353 0.0
C189 C -0.01125 0.35936 0.3721 0.0
C190 C -0.00524 0.34277 0.30394 0.0
C191 C 0.95604 0.24725 0.28002 0.0
H192 H 0.03204 0.25204 0.19711 0.0
C193 C 0.97367 0.12744 0.16705 0.0
C194 C 0.98002 0.13793 0.12827 0.0
C195 C 0.97398 0.15465 0.19645 0.0
C196 C 0.01031 0.25056 0.21979 0.0
H197 H 0.97403 0.31226 0.40971 0.0
H198 H 0.97184 0.26501 0.35807 0.0
H199 H 0.03453 0.2984 0.24931 0.0
H200 H -0.00849 0.1857 0.09027 0.0
H201 H -0.00808 0.23316 0.14165 0.0
H202 H 0.93206 0.19917 0.25057 0.0
C203 C 0.97827 0.29421 0.35064 0.0
C204 C 0.01172 0.27717 0.24978 0.0
C205 C 0.97959 0.32128 0.38029 0.0
C206 C -0.0135 0.17648 0.11973 0.0
C207 C -0.013 0.20371 0.14924 0.0
C208 C 0.95472 0.22056 0.25008 0.0
C209 C -0.01411 0.3046 0.31204 0.0
C210 C -0.01542 0.27592 0.2803 0.0
C211 C 0.9808 0.19311 0.18799 0.0
C212 C 0.98184 0.22188 0.21958 0.0
H213 H 0.00253 0.39896 0.32604 0.0
H214 H 0.0 0.35204 0.27454 0.0
H215 H 0.93427 0.24575 0.30265 0.0
H216 H 0.96849 0.09809 0.17489 0.0
H217 H 0.96955 0.14539 0.22599 0.0
C218 C 0.62756 0.04526 0.3325 0.0
C219 C 0.60072 1.01529 0.33331 0.0
C220 C 0.6573 0.04569 0.30509 0.0
C221 C 0.71111 0.98081 0.24027 0.0
H222 H 0.75262 0.07501 0.19914 0.0
C223 C 0.82059 0.99187 0.11409 0.0
C224 C 0.85449 1.01265 0.12227 0.0
C225 C 0.78965 0.99169 0.14012 0.0
C226 C 0.74132 0.0486 0.21069 0.0
H227 H 0.58232 0.96324 0.30564 0.0
H228 H 0.6333 0.96472 0.25634 0.0
H229 H 0.6957 0.07663 0.24146 0.0
H230 H 0.88298 0.04945 0.16373 0.0
H231 H 0.82797 0.04992 0.20908 0.0
H232 H 0.75616 0.9529 0.20813 0.0
C233 C 0.63235 0.98723 0.27762 0.0
C234 C 0.70888 0.04945 0.23495 0.0
C235 C 0.60302 0.98646 0.30553 0.0
C236 C 0.85716 0.03307 0.15698 0.0
C237 C 0.8258 0.03353 0.18268 0.0
C238 C 0.74307 0.97997 0.21543 0.0
C239 C 0.66033 1.01644 0.2776 0.0
C240 C 0.69357 1.01556 0.25026 0.0
C241 C 0.7919 1.01288 0.1743 0.0
C242 C 0.75848 1.01386 0.20076 0.0
H243 H 0.62649 0.06752 0.35408 0.0
H244 H 0.67866 0.06826 0.30642 0.0
H245 H 0.70067 0.95424 0.25215 0.0
H246 H 0.81802 0.97571 0.08757 0.0
H247 H 0.76363 0.97569 0.1332 0.0
C248 C 0.02254 0.69417 0.36321 0.0
C249 C -0.01197 0.67658 0.37593 0.0
C250 C 0.02175 0.72105 0.33342 0.0
C251 C 0.9618 0.75323 0.25069 0.0
H252 H 0.02748 0.84262 0.25568 0.0
C253 C 0.98135 0.85625 0.12085 0.0
C254 C 0.9821 0.89534 0.12927 0.0
C255 C 0.98202 0.82928 0.15067 0.0
C256 C 0.00876 0.81793 0.25389 0.0
H257 H 0.92555 0.67375 0.36717 0.0
H258 H 0.92409 0.72117 0.31579 0.0
H259 H 0.02789 0.79727 0.30886 0.0
H260 H -0.016 0.93642 0.17611 0.0
H261 H -0.0152 0.88965 0.22759 0.0
H262 H 0.94216 0.77432 0.19598 0.0
C263 C 0.95186 0.71383 0.32858 0.0
C264 C 0.00931 0.79169 0.28425 0.0
C265 C 0.95264 0.687 0.35843 0.0
C266 C -0.01654 0.90666 0.16828 0.0
C267 C -0.0158 0.87976 0.19796 0.0
C268 C 0.96131 0.77947 0.22026 0.0
C269 C -0.01355 0.73103 0.31549 0.0
C270 C -0.01422 0.75902 0.28311 0.0
C271 C -0.01639 0.84072 0.18961 0.0
C272 C -0.01533 0.81224 0.22154 0.0
H273 H 0.05027 0.6871 0.37624 0.0
H274 H 0.049 0.73346 0.32392 0.0
H275 H 0.94365 0.72817 0.2486 0.0
H276 H 0.98033 0.84637 0.09124 0.0
H277 H 0.9819 0.79943 0.14316 0.0
C278 C 0.35359 0.04795 0.31212 0.0
C279 C 0.35694 0.01875 0.33939 0.0
C280 C 0.32338 0.0474 0.28526 0.0
C281 C 0.24687 0.98499 0.24366 0.0
H282 H 0.19854 0.08139 0.21825 0.0
C283 C 0.10036 1.00043 0.16268 0.0
C284 C 0.10418 0.02115 0.12824 0.0
C285 C 0.1306 1.00029 0.18957 0.0
C286 C 0.21186 0.05436 0.22525 0.0
H287 H 0.3321 0.96614 0.36043 0.0
H288 H 0.27842 0.96574 0.31457 0.0
H289 H 0.25395 0.08002 0.26221 0.0
H290 H 0.14134 0.05907 0.09526 0.0
H291 H 0.19373 0.05965 0.14294 0.0
H292 H 0.20365 0.95948 0.20737 0.0
C293 C 0.29959 0.98846 0.31286 0.0
C294 C 0.24377 0.05352 0.25002 0.0
C295 C 0.33019 0.9887 0.33921 0.0
C296 C 0.13793 0.04268 0.12157 0.0
C297 C 0.1677 0.04318 0.14877 0.0
C298 C 0.21449 0.98582 0.21944 0.0
C299 C 0.2956 0.01802 0.28583 0.0
C300 C 0.26183 0.01884 0.25929 0.0
C301 C 0.16443 0.02159 0.18263 0.0
C302 C 0.19702 0.02053 0.20995 0.0
H303 H 0.37421 0.07124 0.31175 0.0
H304 H 0.32167 0.07015 0.26427 0.0
H305 H 0.26044 0.95788 0.24967 0.0
H306 H 0.0746 0.98348 0.16822 0.0
H307 H 0.12769 0.98355 0.21569 0.0
C308 C 0.96931 0.66263 0.67317 0.0
C309 C 0.97608 0.67305 0.63447 0.0
C310 C 0.97095 0.68965 0.70271 0.0
C311 C 0.96379 0.79264 0.721 0.0
H312 H 0.01376 0.76748 0.81813 0.0
C313 C -0.01027 0.90536 0.83927 0.0
C314 C -0.01562 0.89466 0.87813 0.0
C315 C -0.01073 0.87825 0.80979 0.0
C316 C -0.00075 0.77485 0.7914 0.0
H317 H -0.01017 0.72022 0.59659 0.0
H318 H -0.00709 0.76747 0.64828 0.0
H319 H 0.01212 0.72074 0.76618 0.0
H320 H 0.97443 0.8466 0.91617 0.0
H321 H 0.9731 0.7994 0.86465 0.0
H322 H 0.95057 0.84659 0.74622 0.0
C323 C -0.01393 0.73834 0.65567 0.0
C324 C -0.00162 0.74804 0.76155 0.0
C325 C -0.01535 0.71122 0.62609 0.0
C326 C 0.9788 0.85597 0.88667 0.0
C327 C 0.97822 0.82881 0.85707 0.0
C328 C 0.96452 0.8194 0.75088 0.0
C329 C 0.97928 0.72786 0.69437 0.0
C330 C 0.98064 0.7566 0.72597 0.0
C331 C -0.01669 0.83962 0.81821 0.0
C332 C 0.9823 0.8109 0.78649 0.0
H333 H 0.96317 0.6334 0.68075 0.0
H334 H 0.96521 0.68064 0.7321 0.0
H335 H 0.94935 0.79997 0.6942 0.0
H336 H -0.00557 0.93477 0.83143 0.0
H337 H -0.00598 0.88761 0.78034 0.0
C338 C 0.34343 0.9841 0.6769 0.0
C339 C 0.36205 0.01862 0.66833 0.0
C340 C 0.31377 0.98275 0.70439 0.0
C341 C 0.2352 0.99471 0.74234 0.0
H342 H 0.24264 0.04992 0.83897 0.0
C343 C 0.10405 0.01759 0.8445 0.0
C344 C 0.11139 1.01329 0.88421 0.0
C345 C 0.13481 0.0175 0.81804 0.0
C346 C 0.24026 0.03416 0.8122 0.0
H347 H 0.36532 0.07845 0.68269 0.0
H348 H 0.31303 0.07621 0.73043 0.0
H349 H 0.29757 0.0502 0.79429 0.0
H350 H 0.15679 1.00456 0.92711 0.0
H351 H 0.20996 1.00406 0.88101 0.0
H352 H 0.17808 0.97817 0.76059 0.0
C353 C 0.32154 0.05019 0.71604 0.0
C354 C 0.27153 0.03462 0.78651 0.0
C355 C 0.35121 0.05154 0.68853 0.0
C356 C 0.14999 1.00834 0.8968 0.0
C357 C 0.18059 1.00821 0.87042 0.0
C358 C 0.20389 0.99425 0.76805 0.0
C359 C 0.30219 1.01588 0.72382 0.0
C360 C 0.26931 1.01489 0.75136 0.0
C361 C 0.17336 1.01309 0.83085 0.0
C362 C 0.20618 1.01392 0.80324 0.0
H363 H 0.35091 0.95835 0.66147 0.0
H364 H 0.29966 0.95583 0.71022 0.0
H365 H 0.23253 0.97963 0.7152 0.0
H366 H 0.07469 0.02152 0.83383 0.0
H367 H 0.12849 0.0216 0.78767 0.0
C368 C 0.96883 0.36884 0.67183 0.0
C369 C 0.97636 0.3585 0.63327 0.0
C370 C 0.97035 0.34189 0.70144 0.0
C371 C 0.00917 0.24641 0.72554 0.0
H372 H 0.93293 0.25121 0.80823 0.0
C373 C -0.00868 0.12678 0.83886 0.0
C374 C -0.01507 0.13739 0.87759 0.0
C375 C -0.00895 0.15391 0.80934 0.0
C376 C 0.95472 0.24972 0.78561 0.0
H377 H -0.00861 0.3115 0.59571 0.0
H378 H -0.00631 0.26422 0.64739 0.0
H379 H 0.93052 0.2975 0.75594 0.0
H380 H 0.97342 0.18529 0.91538 0.0
H381 H 0.97308 0.23258 0.86382 0.0
H382 H 0.03311 0.19838 0.75516 0.0
C383 C -0.01287 0.2934 0.6548 0.0
C384 C 0.95336 0.27629 0.75557 0.0
C385 C -0.01426 0.32047 0.62512 0.0
C386 C 0.97845 0.17597 0.88597 0.0
C387 C 0.978 0.20311 0.85635 0.0
C388 C 0.01043 0.21975 0.75554 0.0
C389 C 0.97935 0.30375 0.69337 0.0
C390 C 0.9806 0.27506 0.72513 0.0
C391 C -0.01576 0.19239 0.81766 0.0
C392 C -0.01676 0.22108 0.78597 0.0
H393 H 0.96234 0.39803 0.67929 0.0
H394 H 0.96501 0.35114 0.73082 0.0
H395 H 0.03101 0.24491 0.70298 0.0
H396 H -0.00353 0.09741 0.83113 0.0
H397 H -0.00448 0.14457 0.77985 0.0
C398 C 0.62235 0.97799 0.68138 0.0
C399 C 0.61143 1.01112 0.6616 0.0
C400 C 0.65282 0.97886 0.70791 0.0
C401 C 0.70308 0.99454 0.77789 0.0
H402 H 0.79726 0.04982 0.75151 0.0
C403 C 0.82118 0.0249 0.88946 0.0
C404 C 0.86012 0.01873 0.87843 0.0
C405 C 0.7916 0.02429 0.86213 0.0
C406 C 0.77126 0.03404 0.75906 0.0
H407 H 0.62344 0.07116 0.65416 0.0
H408 H 0.6762 0.07284 0.70122 0.0
H409 H 0.74329 0.0477 0.70562 0.0
H410 H 0.89857 1.00792 0.82977 0.0
H411 H 0.84639 1.00666 0.78181 0.0
H412 H 0.73111 0.98046 0.83106 0.0
C413 C 0.6615 0.04615 0.69583 0.0
C414 C 0.74026 0.03319 0.73306 0.0
C415 C 0.631 0.04529 0.66934 0.0
C416 C 0.86888 1.01276 0.83921 0.0
C417 C 0.8391 1.01214 0.81175 0.0
C418 C 0.73399 0.99544 0.80385 0.0
C419 C 0.67291 1.01287 0.71507 0.0
C420 C 0.70586 1.01356 0.74236 0.0
C421 C 0.80018 0.01745 0.82314 0.0
C422 C 0.76823 1.01541 0.79478 0.0
H423 H 0.60752 0.95135 0.67611 0.0
H424 H 0.6612 0.95274 0.7222 0.0
H425 H 0.67679 0.97943 0.78588 0.0
H426 H 0.81331 0.03011 0.91932 0.0
H427 H 0.76192 0.02925 0.87156 0.0
C428 C 0.34111 0.34023 0.0433 0.0
C429 C 0.35477 0.35709 0.009 0.0
C430 C 0.31131 0.31318 0.04232 0.0
C431 C 0.2614 0.24543 0.97791 0.0
H432 H 0.17827 0.2519 0.05369 0.0
C433 C 0.14741 0.12671 0.99807 0.0
C434 C 0.10831 0.13756 0.00344 0.0
C435 C 0.17714 0.15376 0.99816 0.0
C436 C 0.20112 0.24988 0.03217 0.0
H437 H 0.34768 0.35849 0.94671 0.0
H438 H 0.2961 0.31099 0.94501 0.0
H439 H 0.23119 0.29821 0.05492 0.0
H440 H 0.07003 0.18571 0.01316 0.0
H441 H 0.12209 0.23294 0.01324 0.0
H442 H 0.23118 0.19731 0.95494 0.0
C443 C 0.3087 0.3185 0.97265 0.0
C444 C 0.23166 0.27614 0.03314 0.0
C445 C 0.33838 0.34566 0.97363 0.0
C446 C 0.09975 0.17626 0.00889 0.0
C447 C 0.12961 0.20334 0.00918 0.0
C448 C 0.23098 0.21906 0.97707 0.0
C449 C 0.29457 0.3022 0.00701 0.0
C450 C 0.26218 0.27419 0.00605 0.0
C451 C 0.16863 0.19238 0.00377 0.0
C452 C 0.20051 0.22094 0.00422 0.0
H453 H 0.35348 0.3479 0.07099 0.0
H454 H 0.30153 0.30068 0.06925 0.0
H455 H 0.28459 0.24299 0.9568 0.0
H456 H 0.15525 0.09723 0.99376 0.0
H457 H 0.20693 0.14432 0.99439 0.0
C458 C 0.32926 0.67887 0.97924 0.0
C459 C 0.35645 0.67796 0.00944 0.0
C460 C 0.29933 0.70575 0.97913 0.0
C461 C 0.24766 0.77429 0.04398 0.0
H462 H 0.20651 0.81168 0.94682 0.0
C463 C 0.1435 0.90338 0.02864 0.0
C464 C 0.10893 0.89612 0.00822 0.0
C465 C 0.17341 0.87646 0.02946 0.0
C466 C 0.21766 0.80128 0.97412 0.0
H467 H 0.3745 0.7048 0.06269 0.0
H468 H 0.32356 0.75314 0.06168 0.0
H469 H 0.26071 0.76697 0.94645 0.0
H470 H 0.07866 0.85521 0.97238 0.0
H471 H 0.13167 0.80855 0.97286 0.0
H472 H 0.20533 0.81018 0.07138 0.0
C473 C 0.32422 0.73231 0.0387 0.0
C474 C 0.24859 0.77545 0.97402 0.0
C475 C 0.35368 0.70486 0.03919 0.0
C476 C 0.1049 0.86146 0.98852 0.0
C477 C 0.13522 0.8349 0.98861 0.0
C478 C 0.21728 0.80074 0.04403 0.0
C479 C 0.2963 0.73293 0.00886 0.0
C480 C 0.26392 0.76132 0.00896 0.0
C481 C 0.16967 0.84217 0.00916 0.0
C482 C 0.20188 0.81425 0.00911 0.0
H483 H 0.33052 0.65803 0.95624 0.0
H484 H 0.27809 0.70456 0.95608 0.0
H485 H 0.25789 0.76362 0.07149 0.0
H486 H 0.14733 0.92977 0.04426 0.0
H487 H 0.19978 0.88271 0.04539 0.0
C488 C 0.62583 0.34459 0.03263 0.0
C489 C 0.60954 0.3563 0.9973 0.0
C490 C 0.65532 0.31721 0.03352 0.0
C491 C 0.73215 0.27479 0.97286 0.0
H492 H 0.73252 0.19573 0.05089 0.0
C493 C 0.86418 0.17518 0.99715 0.0
C494 C 0.85583 0.13644 1.00262 0.0
C495 C 0.83421 0.20213 0.99682 0.0
C496 C 0.73275 0.21753 0.02881 0.0
H497 H 0.61079 0.34736 0.93528 0.0
H498 H 0.66239 0.29978 0.93686 0.0
H499 H 0.67917 0.2415 0.04912 0.0
H500 H 0.80909 0.09588 0.01231 0.0
H501 H 0.75716 0.14277 0.01162 0.0
H502 H 0.78553 0.25055 0.95229 0.0
C503 C 0.65269 0.31222 0.96383 0.0
C504 C 0.70236 0.24396 0.02802 0.0
C505 C 0.62309 0.33949 0.96294 0.0
C506 C 0.81678 0.12541 0.00797 0.0
C507 C 0.78691 0.15234 0.00785 0.0
C508 C 0.76266 0.24848 0.97379 0.0
C509 C 0.66936 0.30098 0.9991 0.0
C510 C 0.70164 0.27282 0.99996 0.0
C511 C 0.79523 0.191 1.0022 0.0
C512 C 0.76324 0.21947 1.00169 0.0
H513 H 0.61662 0.35736 0.0596 0.0
H514 H 0.66787 0.3095 0.06113 0.0
H515 H 0.73269 0.29694 0.95114 0.0
H516 H 0.89385 0.18478 0.9929 0.0
H517 H 0.8416 0.23176 0.99276 0.0
C518 C 0.61259 0.70419 0.96747 0.0
C519 C 0.60957 0.67729 0.99723 0.0
C520 C 0.64223 0.73145 0.96802 0.0
C521 C 0.71791 0.77415 0.03283 0.0
H522 H 0.76159 0.80861 0.93552 0.0
C523 C 0.86156 0.86039 0.0186 0.0
C524 C 0.85743 0.89497 0.99874 0.0
C525 C 0.83136 0.8337 0.01848 0.0
C526 C 0.74954 0.79923 0.96286 0.0
H527 H 0.63525 0.65718 0.0505 0.0
H528 H 0.68798 0.70338 0.05076 0.0
H529 H 0.70889 0.76221 0.93536 0.0
H530 H 0.81902 0.92834 0.96239 0.0
H531 H 0.76681 0.88107 0.96124 0.0
H532 H 0.75999 0.81032 0.06008 0.0
C533 C 0.6668 0.70471 0.02767 0.0
C534 C 0.71908 0.77287 0.96288 0.0
C535 C 0.63669 0.67801 0.02749 0.0
C536 C 0.82292 0.90201 0.97813 0.0
C537 C 0.79315 0.87497 0.9773 0.0
C538 C 0.74892 0.79988 0.03277 0.0
C539 C 0.67008 0.73186 0.99792 0.0
C540 C 0.70263 0.76005 0.99787 0.0
C541 C 0.79696 0.84077 0.99776 0.0
C542 C 0.76484 0.81276 0.9978 0.0
H543 H 0.59182 0.70427 0.94393 0.0
H544 H 0.64308 0.75228 0.94503 0.0
H545 H 0.70566 0.76576 0.06038 0.0
H546 H 0.88776 0.85432 0.03488 0.0
H547 H 0.83495 0.80742 0.03436 0.0
loop_
_geom_bond_atom_site_label_1
_geom_bond_atom_site_label_2
_geom_bond_distance
_geom_bond_site_symmetry_2
_ccdc_geom_bond_type
C0 C1 1.366 1_455 S
C0 C2 1.384 . S
C0 H28 0.931 . S
C1 C0 1.366 1_655 S
C1 C4 1.402 . S
C2 C0 1.384 . S
C2 C3 1.381 1_455 S
C2 H29 0.930 . S
C3 C2 1.381 1_655 S
C3 C5 1.381 . S
C3 C6 1.487 . S
C4 C1 1.402 . S
C4 C5 1.387 . S
C4 H30 0.930 . S
C5 C3 1.381 . S
C5 C4 1.387 . S
C5 H31 0.931 . S
C6 C3 1.487 . S
C6 C13 1.399 1_655 S
C6 N44 1.343 . S
C7 C8 1.384 1_655 S
C7 C9 1.384 . S
C7 H32 0.931 . S
C8 C7 1.384 1_455 S
C8 C11 1.382 . S
C9 C7 1.384 . S
C9 C10 1.381 1_655 S
C9 H33 0.930 . S
C10 C9 1.381 1_455 S
C10 C12 1.381 . S
C10 C13 1.487 . S
C11 C8 1.382 . S
C11 C12 1.387 . S
C11 H34 0.930 . S
C12 C10 1.381 . S
C12 C11 1.387 . S
C12 H35 0.931 . S
C13 C6 1.399 1_455 S
C13 C10 1.487 . S
C13 N45 1.343 . S
C14 C15 1.384 1_655 S
C14 C16 1.384 . S
C14 H36 0.931 . S
C15 C14 1.384 1_455 S
C15 C18 1.382 . S
C16 C14 1.384 . S
C16 C17 1.381 1_655 S
C16 H37 0.930 . S
C17 C16 1.381 1_455 S
C17 C19 1.381 . S
C17 C20 1.487 . S
C18 C15 1.382 . S
C18 C19 1.387 . S
C18 H38 0.930 . S
C19 C17 1.381 . S
C19 C18 1.387 . S
C19 H39 0.931 . S
C20 C17 1.487 . S
C20 C27 1.399 1_455 S
C20 N45 1.343 . S
C21 C22 1.366 1_455 S
C21 C23 1.384 . S
C21 H40 0.931 . S
C22 C21 1.366 1_655 S
C22 C25 1.402 . S
C23 C21 1.384 . S
C23 C24 1.381 1_455 S
C23 H41 0.930 . S
C24 C23 1.381 1_655 S
C24 C26 1.381 . S
C24 C27 1.487 . S
C25 C22 1.402 . S
C25 C26 1.387 . S
C25 H42 0.930 . S
C26 C24 1.381 . S
C26 C25 1.387 . S
C26 H43 0.931 . S
C27 C20 1.399 1_655 S
C27 C24 1.487 . S
C27 N44 1.343 . S
H28 C0 0.931 . S
H29 C2 0.930 . S
H30 C4 0.930 . S
H31 C5 0.931 . S
H32 C7 0.931 . S
H33 C9 0.930 . S
H34 C11 0.930 . S
H35 C12 0.931 . S
H36 C14 0.931 . S
H37 C16 0.930 . S
H38 C18 0.930 . S
H39 C19 0.931 . S
H40 C21 0.931 . S
H41 C23 0.930 . S
H42 C25 0.930 . S
H43 C26 0.931 . S
N44 C6 1.343 . S
N44 C27 1.343 . S
N45 C13 1.343 . S
N45 C20 1.343 . S
C46 C47 1.366 1_545 S
C46 C48 1.384 . S
C46 H74 0.931 . S
C47 C46 1.366 1_565 S
C47 C50 1.401 . S
C48 C46 1.384 . S
C48 C49 1.381 1_545 S
C48 H75 0.930 . S
C49 C48 1.381 1_565 S
C49 C51 1.381 . S
C49 C52 1.487 . S
C50 C47 1.401 . S
C50 C51 1.387 . S
C50 H76 0.930 . S
C51 C49 1.381 . S
C51 C50 1.387 . S
C51 H77 0.931 . S
C52 C49 1.487 . S
C52 C59 1.399 1_565 S
C52 N90 1.343 . S
C53 C54 1.384 1_565 S
C53 C55 1.384 . S
C53 H78 0.931 . S
C54 C53 1.384 1_545 S
C54 C57 1.382 . S
C55 C53 1.384 . S
C55 C56 1.381 1_565 S
C55 H79 0.930 . S
C56 C55 1.381 1_545 S
C56 C58 1.381 . S
C56 C59 1.487 . S
C57 C54 1.382 . S
C57 C58 1.387 . S
C57 H80 0.930 . S
C58 C56 1.381 . S
C58 C57 1.387 . S
C58 H81 0.931 . S
C59 C52 1.399 1_545 S
C59 C56 1.487 . S
C59 N91 1.343 . S
C60 C61 1.384 1_565 S
C60 C62 1.384 . S
C60 H82 0.931 . S
C61 C60 1.384 1_545 S
C61 C64 1.382 . S
C62 C60 1.384 . S
C62 C63 1.381 1_565 S
C62 H83 0.930 . S
C63 C62 1.381 1_545 S
C63 C65 1.381 . S
C63 C66 1.487 . S
C64 C61 1.382 . S
C64 C65 1.387 . S
C64 H84 0.930 . S
C65 C63 1.381 . S
C65 C64 1.387 . S
C65 H85 0.931 . S
C66 C63 1.487 . S
C66 C73 1.399 1_545 S
C66 N91 1.343 . S
C67 C68 1.366 1_545 S
C67 C69 1.384 . S
C67 H86 0.931 . S
C68 C67 1.366 1_565 S
C68 C71 1.401 . S
C69 C67 1.384 . S
C69 C70 1.381 1_545 S
C69 H87 0.930 . S
C70 C69 1.381 1_565 S
C70 C72 1.381 . S
C70 C73 1.487 . S
C71 C68 1.401 . S
C71 C72 1.387 . S
C71 H88 0.930 . S
C72 C70 1.381 . S
C72 C71 1.387 . S
C72 H89 0.931 . S
C73 C66 1.399 1_565 S
C73 C70 1.487 . S
C73 N90 1.343 . S
H74 C46 0.931 . S
H75 C48 0.930 . S
H76 C50 0.930 . S
H77 C51 0.931 . S
H78 C53 0.931 . S
H79 C55 0.930 . S
H80 C57 0.930 . S
H81 C58 0.931 . S
H82 C60 0.931 . S
H83 C62 0.930 . S
H84 C64 0.930 . S
H85 C65 0.931 . S
H86 C67 0.931 . S
H87 C69 0.930 . S
H88 C71 0.930 . S
H89 C72 0.931 . S
N90 C52 1.343 . S
N90 C73 1.343 . S
N91 C59 1.343 . S
N91 C66 1.343 . S
C92 C93 1.384 1_556 S
C92 C94 1.384 . S
C92 H120 0.931 . S
C93 C92 1.384 1_554 S
C93 C96 1.382 . S
C94 C92 1.384 . S
C94 C95 1.381 1_556 S
C94 H121 0.930 . S
C95 C94 1.381 1_554 S
C95 C97 1.381 . S
C95 C98 1.487 . S
C96 C93 1.382 . S
C96 C97 1.387 . S
C96 H122 0.930 . S
C97 C95 1.381 . S
C97 C96 1.387 . S
C97 H123 0.931 . S
C98 C95 1.487 . S
C98 C105 1.399 1_554 S
C98 N136 1.343 . S
C99 C100 1.366 1_554 S
C99 C101 1.384 . S
C99 H124 0.931 . S
C100 C99 1.366 1_556 S
C100 C103 1.402 . S
C101 C99 1.384 . S
C101 C102 1.381 1_554 S
C101 H125 0.930 . S
C102 C101 1.381 1_556 S
C102 C104 1.381 . S
C102 C105 1.487 . S
C103 C100 1.402 . S
C103 C104 1.387 . S
C103 H126 0.930 . S
C104 C102 1.381 . S
C104 C103 1.387 . S
C104 H127 0.931 . S
C105 C98 1.399 1_556 S
C105 C102 1.487 . S
C105 N137 1.343 . S
C106 C107 1.366 1_554 S
C106 C108 1.384 . S
C106 H128 0.931 . S
C107 C106 1.366 1_556 S
C107 C110 1.402 . S
C108 C106 1.384 . S
C108 C109 1.381 1_554 S
C108 H129 0.930 . S
C109 C108 1.381 1_556 S
C109 C111 1.381 . S
C109 C112 1.487 . S
C110 C107 1.402 . S
C110 C111 1.387 . S
C110 H130 0.930 . S
C111 C109 1.381 . S
C111 C110 1.387 . S
C111 H131 0.931 . S
C112 C109 1.487 . S
C112 C119 1.399 1_556 S
C112 N137 1.343 . S
C113 C114 1.384 1_556 S
C113 C115 1.384 . S
C113 H132 0.931 . S
C114 C113 1.384 1_554 S
C114 C117 1.382 . S
C115 C113 1.384 . S
C115 C116 1.381 1_556 S
C115 H133 0.930 . S
C116 C115 1.381 1_554 S
C116 C118 1.381 . S
C116 C119 1.487 . S
C117 C114 1.382 . S
C117 C118 1.387 . S
C117 H134 0.930 . S
C118 C116 1.381 . S
C118 C117 1.387 . S
C118 H135 0.931 . S
C119 C112 1.399 1_554 S
C119 C116 1.487 . S
C119 N136 1.343 . S
H120 C92 0.931 . S
H121 C94 0.930 . S
H122 C96 0.930 . S
H123 C97 0.931 . S
H124 C99 0.931 . S
H125 C101 0.930 . S
H126 C103 0.930 . S
H127 C104 0.931 . S
H128 C106 0.931 . S
H129 C108 0.930 . S
H130 C110 0.930 . S
H131 C111 0.931 . S
H132 C113 0.931 . S
H133 C115 0.930 . S
H134 C117 0.930 . S
H135 C118 0.931 . S
N136 C98 1.343 . S
N136 C119 1.343 . S
N137 C105 1.343 . S
N137 C112 1.343 . S
C138 O164 1.283 . S
C138 O182 1.283 . S
C139 O165 1.283 . S
C139 O180 1.283 . S
C140 O166 1.283 . S
C140 O183 1.283 . S
C141 O167 1.283 . S
C141 O181 1.283 . S
C142 O168 1.283 . S
C142 O177 1.283 . S
C143 O169 1.283 . S
C143 O179 1.283 . S
C144 O170 1.283 . S
C144 O176 1.283 . S
C145 O171 1.283 . S
C145 O178 1.283 . S
C146 O172 1.283 . S
C146 O187 1.283 . S
C147 O173 1.283 . S
C147 O185 1.283 . S
C148 O174 1.283 . S
C148 O186 1.283 . S
C149 O175 1.283 . S
C149 O184 1.283 . S
Eu150 O151 2.370 . S
Eu150 O152 2.370 1_454 S
Eu150 O155 2.370 1_554 S
Eu150 O156 2.370 1_455 S
Eu150 O164 2.363 1_554 S
Eu150 O165 2.363 . S
Eu150 O178 2.363 1_455 S
Eu150 O179 2.363 . S
O151 Eu150 2.370 . S
O151 Eu153 2.370 . S
O151 Eu158 2.370 . S
O152 Eu150 2.370 1_656 S
O152 Eu154 2.370 1_556 S
O152 Eu157 2.370 1_655 S
Eu153 O151 2.370 . S
Eu153 O155 2.370 1_554 S
Eu153 O159 2.370 1_544 S
Eu153 O160 2.370 1_545 S
Eu153 O168 2.363 1_545 S
Eu153 O169 2.363 . S
Eu153 O184 2.363 1_554 S
Eu153 O185 2.363 . S
Eu154 O152 2.370 1_554 S
Eu154 O156 2.370 . S
Eu154 O161 2.370 1_545 S
Eu154 O162 2.370 1_544 S
Eu154 O170 2.363 1_545 S
Eu154 O171 2.363 . S
Eu154 O186 2.363 1_554 S
Eu154 O187 2.363 . S
O155 Eu150 2.370 1_556 S
O155 Eu153 2.370 1_556 S
O155 Eu157 2.370 . S
O156 Eu150 2.370 1_655 S
O156 Eu154 2.370 . S
O156 Eu158 2.370 1_655 S
Eu157 O152 2.370 1_455 S
Eu157 O155 2.370 . S
Eu157 O159 2.370 1_545 S
Eu157 O162 2.370 1_445 S
Eu157 O174 2.363 1_455 S
Eu157 O175 2.363 . S
Eu157 O182 2.363 . S
Eu157 O183 2.363 1_545 S
Eu158 O151 2.370 . S
Eu158 O156 2.370 1_455 S
Eu158 O160 2.370 1_545 S
Eu158 O161 2.370 1_445 S
Eu158 O172 2.363 1_455 S
Eu158 O173 2.363 . S
Eu158 O180 2.363 . S
Eu158 O181 2.363 1_545 S
O159 Eu153 2.370 1_566 S
O159 Eu157 2.370 1_565 S
O159 Eu163 2.370 1_556 S
O160 Eu153 2.370 1_565 S
O160 Eu158 2.370 1_565 S
O160 Eu163 2.370 . S
O161 Eu154 2.370 1_565 S
O161 Eu158 2.370 1_665 S
O161 Eu163 2.370 1_655 S
O162 Eu154 2.370 1_566 S
O162 Eu157 2.370 1_665 S
O162 Eu163 2.370 1_656 S
Eu163 O159 2.370 1_554 S
Eu163 O160 2.370 . S
Eu163 O161 2.370 1_455 S
Eu163 O162 2.370 1_454 S
Eu163 O166 2.363 1_554 S
Eu163 O167 2.363 . S
Eu163 O176 2.363 1_455 S
Eu163 O177 2.363 . S
O164 C138 1.283 . S
O164 Eu150 2.363 1_556 S
O165 C139 1.283 . S
O165 Eu150 2.363 . S
O166 C140 1.283 . S
O166 Eu163 2.363 1_556 S
O167 C141 1.283 . S
O167 Eu163 2.363 . S
O168 C142 1.283 . S
O168 Eu153 2.363 1_565 S
O169 C143 1.283 . S
O169 Eu153 2.363 . S
O170 C144 1.283 . S
O170 Eu154 2.363 1_565 S
O171 C145 1.283 . S
O171 Eu154 2.363 . S
O172 C146 1.283 . S
O172 Eu158 2.363 1_655 S
O173 C147 1.283 . S
O173 Eu158 2.363 . S
O174 C148 1.283 . S
O174 Eu157 2.363 1_655 S
O175 C149 1.283 . S
O175 Eu157 2.363 . S
O176 C144 1.283 . S
O176 Eu163 2.363 1_655 S
O177 C142 1.283 . S
O177 Eu163 2.363 . S
O178 C145 1.283 . S
O178 Eu150 2.363 1_655 S
O179 C143 1.283 . S
O179 Eu150 2.363 . S
O180 C139 1.283 . S
O180 Eu158 2.363 . S
O181 C141 1.283 . S
O181 Eu158 2.363 1_565 S
O182 C138 1.283 . S
O182 Eu157 2.363 . S
O183 C140 1.283 . S
O183 Eu157 2.363 1_565 S
O184 C149 1.283 . S
O184 Eu153 2.363 1_556 S
O185 C147 1.283 . S
O185 Eu153 2.363 . S
O186 C148 1.283 . S
O186 Eu154 2.363 1_556 S
O187 C146 1.283 . S
O187 Eu154 2.363 . S
C188 C189 1.349 . S
C188 C190 1.327 . S
C188 H213 0.950 . S
C189 C188 1.349 . S
C189 C205 1.349 1_455 S
C190 C188 1.327 . S
C190 C209 1.429 . S
C190 H214 0.950 . S
C191 C208 1.574 . S
C191 C210 1.368 1_655 S
C191 H215 0.949 . S
H192 C196 0.949 . S
C193 C194 1.349 1_655 S
C193 C195 1.327 . S
C193 H216 0.950 . S
C194 C193 1.349 1_455 S
C194 C206 1.349 . S
C195 C193 1.327 . S
C195 C211 1.429 1_655 S
C195 H217 0.950 . S
C196 H192 0.949 . S
C196 C204 1.574 . S
C196 C212 1.368 . S
H197 C205 0.950 . S
H198 C203 0.950 . S
H199 C204 0.949 . S
H200 C206 0.950 . S
H201 C207 0.950 . S
H202 C208 0.949 . S
C203 H198 0.950 . S
C203 C205 1.327 . S
C203 C209 1.429 1_655 S
C204 C196 1.574 . S
C204 H199 0.949 . S
C204 C210 1.368 . S
C205 C189 1.349 1_655 S
C205 H197 0.950 . S
C205 C203 1.327 . S
C206 C194 1.349 . S
C206 H200 0.950 . S
C206 C207 1.327 . S
C207 H201 0.950 . S
C207 C206 1.327 . S
C207 C211 1.429 . S
C208 C191 1.574 . S
C208 H202 0.949 . S
C208 C212 1.368 1_655 S
C209 C190 1.429 . S
C209 C203 1.429 1_455 S
C209 C210 1.523 . S
C210 C191 1.368 1_455 S
C210 C204 1.368 . S
C210 C209 1.523 . S
C211 C195 1.429 1_455 S
C211 C207 1.429 . S
C211 C212 1.523 . S
C212 C196 1.368 . S
C212 C208 1.368 1_455 S
C212 C211 1.523 . S
H213 C188 0.950 . S
H214 C190 0.950 . S
H215 C191 0.949 . S
H216 C193 0.950 . S
H217 C195 0.950 . S
C218 C219 1.349 . S
C218 C220 1.327 . S
C218 H243 0.950 . S
C219 C218 1.349 . S
C219 C235 1.349 1_545 S
C220 C218 1.327 . S
C220 C239 1.428 . S
C220 H244 0.950 . S
C221 C238 1.574 . S
C221 C240 1.368 1_565 S
C221 H245 0.949 . S
H222 C226 0.949 . S
C223 C224 1.349 1_565 S
C223 C225 1.327 . S
C223 H246 0.950 . S
C224 C223 1.349 1_545 S
C224 C236 1.349 . S
C225 C223 1.327 . S
C225 C241 1.429 1_565 S
C225 H247 0.950 . S
C226 H222 0.949 . S
C226 C234 1.574 . S
C226 C242 1.368 . S
H227 C235 0.950 . S
H228 C233 0.950 . S
H229 C234 0.949 . S
H230 C236 0.950 . S
H231 C237 0.950 . S
H232 C238 0.949 . S
C233 H228 0.950 . S
C233 C235 1.327 . S
C233 C239 1.429 1_565 S
C234 C226 1.574 . S
C234 H229 0.949 . S
C234 C240 1.368 . S
C235 C219 1.349 1_565 S
C235 H227 0.950 . S
C235 C233 1.327 . S
C236 C224 1.349 . S
C236 H230 0.950 . S
C236 C237 1.327 . S
C237 H231 0.950 . S
C237 C236 1.327 . S
C237 C241 1.429 . S
C238 C221 1.574 . S
C238 H232 0.949 . S
C238 C242 1.368 1_565 S
C239 C220 1.428 . S
C239 C233 1.429 1_545 S
C239 C240 1.523 . S
C240 C221 1.368 1_545 S
C240 C234 1.368 . S
C240 C239 1.523 . S
C241 C225 1.429 1_545 S
C241 C237 1.429 . S
C241 C242 1.523 . S
C242 C226 1.368 . S
C242 C238 1.368 1_545 S
C242 C241 1.523 . S
H243 C218 0.950 . S
H244 C220 0.950 . S
H245 C221 0.949 . S
H246 C223 0.950 . S
H247 C225 0.950 . S
C248 C249 1.349 . S
C248 C250 1.327 . S
C248 H273 0.950 . S
C249 C248 1.349 . S
C249 C265 1.349 1_455 S
C250 C248 1.327 . S
C250 C269 1.429 . S
C250 H274 0.950 . S
C251 C268 1.574 . S
C251 C270 1.368 1_655 S
C251 H275 0.949 . S
H252 C256 0.949 . S
C253 C254 1.349 1_655 S
C253 C255 1.327 . S
C253 H276 0.950 . S
C254 C253 1.349 1_455 S
C254 C266 1.349 . S
C255 C253 1.327 . S
C255 C271 1.429 1_655 S
C255 H277 0.950 . S
C256 H252 0.949 . S
C256 C264 1.574 . S
C256 C272 1.368 . S
H257 C265 0.950 . S
H258 C263 0.950 . S
H259 C264 0.949 . S
H260 C266 0.950 . S
H261 C267 0.950 . S
H262 C268 0.949 . S
C263 H258 0.950 . S
C263 C265 1.327 . S
C263 C269 1.429 1_655 S
C264 C256 1.574 . S
C264 H259 0.949 . S
C264 C270 1.368 . S
C265 C249 1.349 1_655 S
C265 H257 0.950 . S
C265 C263 1.327 . S
C266 C254 1.349 . S
C266 H260 0.950 . S
C266 C267 1.327 . S
C267 H261 0.950 . S
C267 C266 1.327 . S
C267 C271 1.429 . S
C268 C251 1.574 . S
C268 H262 0.949 . S
C268 C272 1.368 1_655 S
C269 C250 1.429 . S
C269 C263 1.429 1_455 S
C269 C270 1.523 . S
C270 C251 1.368 1_455 S
C270 C264 1.368 . S
C270 C269 1.523 . S
C271 C255 1.429 1_455 S
C271 C267 1.429 . S
C271 C272 1.523 . S
C272 C256 1.368 . S
C272 C268 1.368 1_455 S
C272 C271 1.523 . S
H273 C248 0.950 . S
H274 C250 0.950 . S
H275 C251 0.949 . S
H276 C253 0.950 . S
H277 C255 0.950 . S
C278 C279 1.349 . S
C278 C280 1.327 . S
C278 H303 0.950 . S
C279 C278 1.349 . S
C279 C295 1.349 1_545 S
C280 C278 1.327 . S
C280 C299 1.428 . S
C280 H304 0.950 . S
C281 C298 1.574 . S
C281 C300 1.368 1_565 S
C281 H305 0.949 . S
H282 C286 0.949 . S
C283 C284 1.349 1_565 S
C283 C285 1.327 . S
C283 H306 0.950 . S
C284 C283 1.349 1_545 S
C284 C296 1.349 . S
C285 C283 1.327 . S
C285 C301 1.429 1_565 S
C285 H307 0.950 . S
C286 H282 0.949 . S
C286 C294 1.574 . S
C286 C302 1.368 . S
H287 C295 0.950 . S
H288 C293 0.950 . S
H289 C294 0.949 . S
H290 C296 0.950 . S
H291 C297 0.950 . S
H292 C298 0.949 . S
C293 H288 0.950 . S
C293 C295 1.327 . S
C293 C299 1.429 1_565 S
C294 C286 1.574 . S
C294 H289 0.949 . S
C294 C300 1.368 . S
C295 C279 1.349 1_565 S
C295 H287 0.950 . S
C295 C293 1.327 . S
C296 C284 1.349 . S
C296 H290 0.950 . S
C296 C297 1.327 . S
C297 H291 0.950 . S
C297 C296 1.327 . S
C297 C301 1.429 . S
C298 C281 1.574 . S
C298 H292 0.949 . S
C298 C302 1.368 1_565 S
C299 C280 1.428 . S
C299 C293 1.429 1_545 S
C299 C300 1.523 . S
C300 C281 1.368 1_545 S
C300 C294 1.368 . S
C300 C299 1.523 . S
C301 C285 1.429 1_545 S
C301 C297 1.429 . S
C301 C302 1.523 . S
C302 C286 1.368 . S
C302 C298 1.368 1_545 S
C302 C301 1.523 . S
H303 C278 0.950 . S
H304 C280 0.950 . S
H305 C281 0.949 . S
H306 C283 0.950 . S
H307 C285 0.950 . S
C308 C309 1.349 . S
C308 C310 1.327 . S
C308 H333 0.950 . S
C309 C308 1.349 . S
C309 C325 1.349 1_455 S
C310 C308 1.327 . S
C310 C329 1.429 . S
C310 H334 0.950 . S
C311 C328 1.574 . S
C311 C330 1.368 1_655 S
C311 H335 0.949 . S
H312 C316 0.949 . S
C313 C314 1.349 1_655 S
C313 C315 1.327 . S
C313 H336 0.950 . S
C314 C313 1.349 1_455 S
C314 C326 1.349 . S
C315 C313 1.327 . S
C315 C331 1.429 1_655 S
C315 H337 0.950 . S
C316 H312 0.949 . S
C316 C324 1.574 . S
C316 C332 1.368 . S
H317 C325 0.950 . S
H318 C323 0.950 . S
H319 C324 0.949 . S
H320 C326 0.950 . S
H321 C327 0.950 . S
H322 C328 0.949 . S
C323 H318 0.950 . S
C323 C325 1.327 . S
C323 C329 1.429 1_655 S
C324 C316 1.574 . S
C324 H319 0.949 . S
C324 C330 1.368 . S
C325 C309 1.349 1_655 S
C325 H317 0.950 . S
C325 C323 1.327 . S
C326 C314 1.349 . S
C326 H320 0.950 . S
C326 C327 1.327 . S
C327 H321 0.950 . S
C327 C326 1.327 . S
C327 C331 1.429 . S
C328 C311 1.574 . S
C328 H322 0.949 . S
C328 C332 1.368 1_655 S
C329 C310 1.429 . S
C329 C323 1.429 1_455 S
C329 C330 1.523 . S
C330 C311 1.368 1_455 S
C330 C324 1.368 . S
C330 C329 1.523 . S
C331 C315 1.429 1_455 S
C331 C327 1.429 . S
C331 C332 1.523 . S
C332 C316 1.368 . S
C332 C328 1.368 1_455 S
C332 C331 1.523 . S
H333 C308 0.950 . S
H334 C310 0.950 . S
H335 C311 0.949 . S
H336 C313 0.950 . S
H337 C315 0.950 . S
C338 C339 1.349 1_565 S
C338 C340 1.327 . S
C338 H363 0.950 . S
C339 C338 1.349 1_545 S
C339 C355 1.349 . S
C340 C338 1.327 . S
C340 C359 1.429 1_565 S
C340 H364 0.950 . S
C341 C358 1.574 . S
C341 C360 1.368 . S
C341 H365 0.949 . S
H342 C346 0.949 . S
C343 C344 1.349 . S
C343 C345 1.327 . S
C343 H366 0.950 . S
C344 C343 1.349 . S
C344 C356 1.349 1_545 S
C345 C343 1.327 . S
C345 C361 1.429 . S
C345 H367 0.950 . S
C346 H342 0.949 . S
C346 C354 1.574 . S
C346 C362 1.368 1_565 S
H347 C355 0.950 . S
H348 C353 0.950 . S
H349 C354 0.949 . S
H350 C356 0.950 . S
H351 C357 0.950 . S
H352 C358 0.949 . S
C353 H348 0.950 . S
C353 C355 1.327 . S
C353 C359 1.428 . S
C354 C346 1.574 . S
C354 H349 0.949 . S
C354 C360 1.368 1_565 S
C355 C339 1.349 . S
C355 H347 0.950 . S
C355 C353 1.327 . S
C356 C344 1.349 1_565 S
C356 H350 0.950 . S
C356 C357 1.327 . S
C357 H351 0.950 . S
C357 C356 1.327 . S
C357 C361 1.429 1_565 S
C358 C341 1.574 . S
C358 H352 0.949 . S
C358 C362 1.368 . S
C359 C340 1.429 1_545 S
C359 C353 1.428 . S
C359 C360 1.523 . S
C360 C341 1.368 . S
C360 C354 1.368 1_545 S
C360 C359 1.523 . S
C361 C345 1.429 . S
C361 C357 1.429 1_545 S
C361 C362 1.523 . S
C362 C346 1.368 1_545 S
C362 C358 1.368 . S
C362 C361 1.523 . S
H363 C338 0.950 . S
H364 C340 0.950 . S
H365 C341 0.949 . S
H366 C343 0.950 . S
H367 C345 0.950 . S
C368 C369 1.349 1_655 S
C368 C370 1.327 . S
C368 H393 0.950 . S
C369 C368 1.349 1_455 S
C369 C385 1.349 . S
C370 C368 1.327 . S
C370 C389 1.429 1_655 S
C370 H394 0.950 . S
C371 C388 1.574 . S
C371 C390 1.368 . S
C371 H395 0.949 . S
H372 C376 0.949 . S
C373 C374 1.349 . S
C373 C375 1.327 . S
C373 H396 0.950 . S
C374 C373 1.349 . S
C374 C386 1.349 1_455 S
C375 C373 1.327 . S
C375 C391 1.429 . S
C375 H397 0.950 . S
C376 H372 0.949 . S
C376 C384 1.574 . S
C376 C392 1.368 1_655 S
H377 C385 0.950 . S
H378 C383 0.950 . S
H379 C384 0.949 . S
H380 C386 0.950 . S
H381 C387 0.950 . S
H382 C388 0.949 . S
C383 H378 0.950 . S
C383 C385 1.327 . S
C383 C389 1.429 . S
C384 C376 1.574 . S
C384 H379 0.949 . S
C384 C390 1.368 1_655 S
C385 C369 1.349 . S
C385 H377 0.950 . S
C385 C383 1.327 . S
C386 C374 1.349 1_655 S
C386 H380 0.950 . S
C386 C387 1.327 . S
C387 H381 0.950 . S
C387 C386 1.327 . S
C387 C391 1.429 1_655 S
C388 C371 1.574 . S
C388 H382 0.949 . S
C388 C392 1.368 . S
C389 C370 1.429 1_455 S
C389 C383 1.429 . S
C389 C390 1.523 . S
C390 C371 1.368 . S
C390 C384 1.368 1_455 S
C390 C389 1.523 . S
C391 C375 1.429 . S
C391 C387 1.429 1_455 S
C391 C392 1.523 . S
C392 C376 1.368 1_455 S
C392 C388 1.368 . S
C392 C391 1.523 . S
H393 C368 0.950 . S
H394 C370 0.950 . S
H395 C371 0.949 . S
H396 C373 0.950 . S
H397 C375 0.950 . S
C398 C399 1.349 1_565 S
C398 C400 1.327 . S
C398 H423 0.950 . S
C399 C398 1.349 1_545 S
C399 C415 1.349 . S
C400 C398 1.327 . S
C400 C419 1.429 1_565 S
C400 H424 0.950 . S
C401 C418 1.574 . S
C401 C420 1.368 . S
C401 H425 0.949 . S
H402 C406 0.949 . S
C403 C404 1.349 . S
C403 C405 1.327 . S
C403 H426 0.950 . S
C404 C403 1.349 . S
C404 C416 1.349 1_545 S
C405 C403 1.327 . S
C405 C421 1.429 . S
C405 H427 0.950 . S
C406 H402 0.949 . S
C406 C414 1.574 . S
C406 C422 1.368 1_565 S
H407 C415 0.950 . S
H408 C413 0.950 . S
H409 C414 0.949 . S
H410 C416 0.950 . S
H411 C417 0.950 . S
H412 C418 0.949 . S
C413 H408 0.950 . S
C413 C415 1.327 . S
C413 C419 1.429 . S
C414 C406 1.574 . S
C414 H409 0.949 . S
C414 C420 1.368 1_565 S
C415 C399 1.349 . S
C415 H407 0.950 . S
C415 C413 1.327 . S
C416 C404 1.349 1_565 S
C416 H410 0.950 . S
C416 C417 1.327 . S
C417 H411 0.950 . S
C417 C416 1.327 . S
C417 C421 1.428 1_565 S
C418 C401 1.574 . S
C418 H412 0.949 . S
C418 C422 1.368 . S
C419 C400 1.429 1_545 S
C419 C413 1.429 . S
C419 C420 1.523 . S
C420 C401 1.368 . S
C420 C414 1.368 1_545 S
C420 C419 1.523 . S
C421 C405 1.429 . S
C421 C417 1.428 1_545 S
C421 C422 1.523 . S
C422 C406 1.368 1_545 S
C422 C418 1.368 . S
C422 C421 1.523 . S
H423 C398 0.950 . S
H424 C400 0.950 . S
H425 C401 0.949 . S
H426 C403 0.950 . S
H427 C405 0.950 . S
C428 C429 1.349 . S
C428 C430 1.327 . S
C428 H453 0.950 . S
C429 C428 1.349 . S
C429 C445 1.349 1_554 S
C430 C428 1.327 . S
C430 C449 1.429 . S
C430 H454 0.950 . S
C431 C448 1.574 . S
C431 C450 1.368 1_556 S
C431 H455 0.949 . S
H432 C436 0.949 . S
C433 C434 1.349 1_556 S
C433 C435 1.327 . S
C433 H456 0.950 . S
C434 C433 1.349 1_554 S
C434 C446 1.349 . S
C435 C433 1.327 . S
C435 C451 1.429 1_556 S
C435 H457 0.950 . S
C436 H432 0.949 . S
C436 C444 1.574 . S
C436 C452 1.368 . S
H437 C445 0.950 . S
H438 C443 0.950 . S
H439 C444 0.949 . S
H440 C446 0.950 . S
H441 C447 0.950 . S
H442 C448 0.949 . S
C443 H438 0.950 . S
C443 C445 1.327 . S
C443 C449 1.429 1_556 S
C444 C436 1.574 . S
C444 H439 0.949 . S
C444 C450 1.368 . S
C445 C429 1.349 1_556 S
C445 H437 0.950 . S
C445 C443 1.327 . S
C446 C434 1.349 . S
C446 H440 0.950 . S
C446 C447 1.327 . S
C447 H441 0.950 . S
C447 C446 1.327 . S
C447 C451 1.429 . S
C448 C431 1.574 . S
C448 H442 0.949 . S
C448 C452 1.368 1_556 S
C449 C430 1.429 . S
C449 C443 1.429 1_554 S
C449 C450 1.523 . S
C450 C431 1.368 1_554 S
C450 C444 1.368 . S
C450 C449 1.523 . S
C451 C435 1.429 1_554 S
C451 C447 1.429 . S
C451 C452 1.523 . S
C452 C436 1.368 . S
C452 C448 1.368 1_554 S
C452 C451 1.523 . S
H453 C428 0.950 . S
H454 C430 0.950 . S
H455 C431 0.949 . S
H456 C433 0.950 . S
H457 C435 0.950 . S
C458 C459 1.349 1_556 S
C458 C460 1.327 . S
C458 H483 0.950 . S
C459 C458 1.349 1_554 S
C459 C475 1.349 . S
C460 C458 1.327 . S
C460 C479 1.429 1_556 S
C460 H484 0.950 . S
C461 C478 1.574 . S
C461 C480 1.368 . S
C461 H485 0.949 . S
H462 C466 0.949 . S
C463 C464 1.349 . S
C463 C465 1.327 . S
C463 H486 0.950 . S
C464 C463 1.349 . S
C464 C476 1.349 1_554 S
C465 C463 1.327 . S
C465 C481 1.429 . S
C465 H487 0.950 . S
C466 H462 0.949 . S
C466 C474 1.574 . S
C466 C482 1.368 1_556 S
H467 C475 0.950 . S
H468 C473 0.950 . S
H469 C474 0.949 . S
H470 C476 0.950 . S
H471 C477 0.950 . S
H472 C478 0.949 . S
C473 H468 0.950 . S
C473 C475 1.327 . S
C473 C479 1.429 . S
C474 C466 1.574 . S
C474 H469 0.949 . S
C474 C480 1.368 1_556 S
C475 C459 1.349 . S
C475 H467 0.950 . S
C475 C473 1.327 . S
C476 C464 1.349 1_556 S
C476 H470 0.950 . S
C476 C477 1.327 . S
C477 H471 0.950 . S
C477 C476 1.327 . S
C477 C481 1.429 1_556 S
C478 C461 1.574 . S
C478 H472 0.949 . S
C478 C482 1.368 . S
C479 C460 1.429 1_554 S
C479 C473 1.429 . S
C479 C480 1.523 . S
C480 C461 1.368 . S
C480 C474 1.368 1_554 S
C480 C479 1.523 . S
C481 C465 1.429 . S
C481 C477 1.429 1_554 S
C481 C482 1.523 . S
C482 C466 1.368 1_554 S
C482 C478 1.368 . S
C482 C481 1.523 . S
H483 C458 0.950 . S
H484 C460 0.950 . S
H485 C461 0.949 . S
H486 C463 0.950 . S
H487 C465 0.950 . S
C488 C489 1.349 . S
C488 C490 1.327 . S
C488 H513 0.950 . S
C489 C488 1.349 . S
C489 C505 1.349 1_554 S
C490 C488 1.327 . S
C490 C509 1.429 . S
C490 H514 0.950 . S
C491 C508 1.574 . S
C491 C510 1.368 1_556 S
C491 H515 0.949 . S
H492 C496 0.949 . S
C493 C494 1.349 1_556 S
C493 C495 1.327 . S
C493 H516 0.950 . S
C494 C493 1.349 1_554 S
C494 C506 1.349 . S
C495 C493 1.327 . S
C495 C511 1.429 1_556 S
C495 H517 0.950 . S
C496 H492 0.949 . S
C496 C504 1.574 . S
C496 C512 1.368 . S
H497 C505 0.950 . S
H498 C503 0.950 . S
H499 C504 0.949 . S
H500 C506 0.950 . S
H501 C507 0.950 . S
H502 C508 0.949 . S
C503 H498 0.950 . S
C503 C505 1.327 . S
C503 C509 1.429 1_556 S
C504 C496 1.574 . S
C504 H499 0.949 . S
C504 C510 1.368 . S
C505 C489 1.349 1_556 S
C505 H497 0.950 . S
C505 C503 1.327 . S
C506 C494 1.349 . S
C506 H500 0.950 . S
C506 C507 1.327 . S
C507 H501 0.950 . S
C507 C506 1.327 . S
C507 C511 1.429 . S
C508 C491 1.574 . S
C508 H502 0.949 . S
C508 C512 1.368 1_556 S
C509 C490 1.429 . S
C509 C503 1.429 1_554 S
C509 C510 1.523 . S
C510 C491 1.368 1_554 S
C510 C504 1.368 . S
C510 C509 1.523 . S
C511 C495 1.429 1_554 S
C511 C507 1.429 . S
C511 C512 1.523 . S
C512 C496 1.368 . S
C512 C508 1.368 1_554 S
C512 C511 1.523 . S
H513 C488 0.950 . S
H514 C490 0.950 . S
H515 C491 0.949 . S
H516 C493 0.950 . S
H517 C495 0.950 . S
C518 C519 1.349 1_556 S
C518 C520 1.327 . S
C518 H543 0.950 . S
C519 C518 1.349 1_554 S
C519 C535 1.349 . S
C520 C518 1.327 . S
C520 C539 1.429 1_556 S
C520 H544 0.950 . S
C521 C538 1.574 . S
C521 C540 1.368 . S
C521 H545 0.949 . S
H522 C526 0.949 . S
C523 C524 1.349 . S
C523 C525 1.327 . S
C523 H546 0.950 . S
C524 C523 1.349 . S
C524 C536 1.349 1_554 S
C525 C523 1.327 . S
C525 C541 1.429 . S
C525 H547 0.950 . S
C526 H522 0.949 . S
C526 C534 1.574 . S
C526 C542 1.368 1_556 S
H527 C535 0.950 . S
H528 C533 0.950 . S
H529 C534 0.949 . S
H530 C536 0.950 . S
H531 C537 0.950 . S
H532 C538 0.949 . S
C533 H528 0.950 . S
C533 C535 1.327 . S
C533 C539 1.429 . S
C534 C526 1.574 . S
C534 H529 0.949 . S
C534 C540 1.368 1_556 S
C535 C519 1.349 . S
C535 H527 0.950 . S
C535 C533 1.327 . S
C536 C524 1.349 1_556 S
C536 H530 0.950 . S
C536 C537 1.327 . S
C537 H531 0.950 . S
C537 C536 1.327 . S
C537 C541 1.429 1_556 S
C538 C521 1.574 . S
C538 H532 0.949 . S
C538 C542 1.368 . S
C539 C520 1.429 1_554 S
C539 C533 1.429 . S
C539 C540 1.523 . S
C540 C521 1.368 . S
C540 C534 1.368 1_554 S
C540 C539 1.523 . S
C541 C525 1.429 . S
C541 C537 1.429 1_554 S
C541 C542 1.523 . S
C542 C526 1.368 1_554 S
C542 C538 1.368 . S
C542 C541 1.523 . S
H543 C518 0.950 . S
H544 C520 0.950 . S
H545 C521 0.949 . S
H546 C523 0.950 . S
H547 C525 0.950 . S
C194 C139 1.821 . S
C189 C15 1.813 . S
C224 C146 1.247 . S
C219 C68 1.244 1_545 S
C254 C141 1.821 . S
C249 C8 1.817 . S
C284 C147 1.247 . S
C279 C61 1.240 . S
C309 C1 1.817 1_455 S
C314 C140 1.826 . S
C344 C149 1.247 . S
C339 C54 1.245 . S
C369 C22 1.817 1_455 S
C374 C138 1.821 . S
C399 C47 1.244 1_545 S
C404 C148 1.252 . S
C429 C93 1.523 . S
C434 C143 1.520 . S
C459 C114 1.523 . S
C464 C142 1.525 . S
C494 C145 1.525 . S
C489 C100 1.523 1_554 S
C524 C144 1.525 . S
C519 C107 1.527 1_554 S
