# Generated by pormake.
# Topology pyr, (3,6)-cn, num edge types: 1
# Building blocks:
#     Node 0, Type 0, BuildingBlock: MIDCAF_clean_linker_0, # of connection points: 3
#     Node 1, Type 0, BuildingBlock: MIDCAF_clean_linker_0, # of connection points: 3
#     Node 2, Type 0, BuildingBlock: MIDCAF_clean_linker_0, # of connection points: 3
#     Node 3, Type 0, BuildingBlock: MIDCAF_clean_linker_0, # of connection points: 3
#     Node 4, Type 0, BuildingBlock: MIDCAF_clean_linker_0, # of connection points: 3
#     Node 5, Type 0, BuildingBlock: MIDCAF_clean_linker_0, # of connection points: 3
#     Node 6, Type 0, BuildingBlock: MIDCAF_clean_linker_0, # of connection points: 3
#     Node 7, Type 0, BuildingBlock: MIDCAF_clean_linker_0, # of connection points: 3
#     Node 8, Type 1, BuildingBlock: PAMTUU_clean_sbu_0, # of connection points: 6
#     Node 9, Type 1, BuildingBlock: PAMTUU_clean_sbu_0, # of connection points: 6
#     Node 10, Type 1, BuildingBlock: PAMTUU_clean_sbu_0, # of connection points: 6
#     Node 11, Type 1, BuildingBlock: PAMTUU_clean_sbu_0, # of connection points: 6
#     Edge 12, Type (0, 1), BuildingBlock: AJUNOK_clean_linker_0, # of connection points: 2
#     Edge 13, Type (0, 1), BuildingBlock: AJUNOK_clean_linker_0, # of connection points: 2
#     Edge 14, Type (0, 1), BuildingBlock: AJUNOK_clean_linker_0, # of connection points: 2
#     Edge 15, Type (0, 1), BuildingBlock: AJUNOK_clean_linker_0, # of connection points: 2
#     Edge 16, Type (0, 1), BuildingBlock: AJUNOK_clean_linker_0, # of connection points: 2
#     Edge 17, Type (0, 1), BuildingBlock: AJUNOK_clean_linker_0, # of connection points: 2
#     Edge 18, Type (0, 1), BuildingBlock: AJUNOK_clean_linker_0, # of connection points: 2
#     Edge 19, Type (0, 1), BuildingBlock: AJUNOK_clean_linker_0, # of connection points: 2
#     Edge 20, Type (0, 1), BuildingBlock: AJUNOK_clean_linker_0, # of connection points: 2
#     Edge 21, Type (0, 1), BuildingBlock: AJUNOK_clean_linker_0, # of connection points: 2
#     Edge 22, Type (0, 1), BuildingBlock: AJUNOK_clean_linker_0, # of connection points: 2
#     Edge 23, Type (0, 1), BuildingBlock: AJUNOK_clean_linker_0, # of connection points: 2
#     Edge 24, Type (0, 1), BuildingBlock: AJUNOK_clean_linker_0, # of connection points: 2
#     Edge 25, Type (0, 1), BuildingBlock: AJUNOK_clean_linker_0, # of connection points: 2
#     Edge 26, Type (0, 1), BuildingBlock: AJUNOK_clean_linker_0, # of connection points: 2
#     Edge 27, Type (0, 1), BuildingBlock: AJUNOK_clean_linker_0, # of connection points: 2
#     Edge 28, Type (0, 1), BuildingBlock: AJUNOK_clean_linker_0, # of connection points: 2
#     Edge 29, Type (0, 1), BuildingBlock: AJUNOK_clean_linker_0, # of connection points: 2
#     Edge 30, Type (0, 1), BuildingBlock: AJUNOK_clean_linker_0, # of connection points: 2
#     Edge 31, Type (0, 1), BuildingBlock: AJUNOK_clean_linker_0, # of connection points: 2
#     Edge 32, Type (0, 1), BuildingBlock: AJUNOK_clean_linker_0, # of connection points: 2
#     Edge 33, Type (0, 1), BuildingBlock: AJUNOK_clean_linker_0, # of connection points: 2
#     Edge 34, Type (0, 1), BuildingBlock: AJUNOK_clean_linker_0, # of connection points: 2
#     Edge 35, Type (0, 1), BuildingBlock: AJUNOK_clean_linker_0, # of connection points: 2
# Relax obj value: 0.126
# Max RMSD: 0.142
# Mean RMSD: 0.058
data_MOF--net-pyr--node1-PAMTUU_clean_sbu_0--node2-MIDCAF_clean_linker_0--edge1-AJUNOK_clean_linker_0
_symmetry_space_group_name_H-M    P1
_symmetry_Int_Tables_number       1
_symmetry_cell_setting            triclinic
loop_
_symmetry_equiv_pos_as_xyz
'x, y, z'
_cell_length_a     36.319721
_cell_length_b     37.550908
_cell_length_c     35.852865
_cell_angle_alpha  89.915918
_cell_angle_beta   89.346038
_cell_angle_gamma 101.50859
loop_
_atom_site_label
_atom_site_type_symbol
_atom_site_fract_x
_atom_site_fract_y
_atom_site_fract_z
_atom_type_partial_charge
C0 C 0.31154 0.28604 0.36999 0.0
C1 C 0.31728 0.25258 0.38371 0.0
C2 C 0.347 0.23789 0.369 0.0
C3 C 0.36755 0.25404 0.3381 0.0
H4 H 0.43875 0.23234 0.25693 0.0
H5 H 0.46585 0.1862 0.22495 0.0
H6 H 0.434 0.2246 0.11897 0.0
H7 H 0.40631 0.27053 0.15062 0.0
H8 H 0.33101 0.30633 0.152 0.0
H9 H 0.27864 0.3275 0.12269 0.0
H10 H 0.26464 0.38951 0.22127 0.0
H11 H 0.31696 0.369 0.25033 0.0
H12 H 0.32476 0.32642 0.32732 0.0
H13 H 0.28903 0.29808 0.38116 0.0
H14 H 0.3519 0.21197 0.37885 0.0
H15 H 0.38798 0.24022 0.32543 0.0
N16 N 0.3932 0.27601 0.26377 0.0
N17 N 0.37744 0.29903 0.20649 0.0
N18 N 0.35053 0.31502 0.26212 0.0
C19 C 0.39762 0.27856 0.22609 0.0
C20 C 0.35416 0.31773 0.22448 0.0
C21 C 0.36982 0.29427 0.28205 0.0
C22 C 0.41961 0.2548 0.20643 0.0
C23 C 0.43788 0.23139 0.22676 0.0
C24 C 0.45359 0.20499 0.20852 0.0
C25 C 0.45127 0.20144 0.16966 0.0
C26 C 0.43539 0.22635 0.1491 0.0
C27 C 0.41969 0.25276 0.16727 0.0
C28 C 0.32791 0.33569 0.20366 0.0
C29 C 0.31732 0.32515 0.16706 0.0
C30 C 0.28709 0.33688 0.15044 0.0
C31 C 0.26717 0.35953 0.17005 0.0
C32 C 0.27941 0.37196 0.20557 0.0
C33 C 0.30935 0.36012 0.22222 0.0
C34 C 0.35838 0.28493 0.32123 0.0
C35 C 0.33201 0.30218 0.33908 0.0
C36 C 0.09124 0.86483 0.70898 0.0
C37 C 0.09392 0.86658 0.66995 0.0
C38 C 0.11017 0.84086 0.65077 0.0
C39 C 0.12564 0.8153 0.67036 0.0
H40 H 0.21877 0.76408 0.66142 0.0
H41 H 0.27271 0.74175 0.636 0.0
H42 H 0.27026 0.67154 0.73184 0.0
H43 H 0.21733 0.69465 0.75783 0.0
H44 H 0.21006 0.74278 0.83722 0.0
H45 H 0.24472 0.77036 0.89127 0.0
H46 H 0.19614 0.86553 0.87799 0.0
H47 H 0.16053 0.83771 0.82512 0.0
H48 H 0.10538 0.83964 0.7588 0.0
H49 H 0.07872 0.88427 0.7244 0.0
H50 H 0.11183 0.84117 0.62058 0.0
H51 H 0.13918 0.79676 0.65471 0.0
N52 N 0.16602 0.76962 0.71229 0.0
N53 N 0.19127 0.75524 0.76895 0.0
N54 N 0.15012 0.79579 0.76809 0.0
C55 C 0.18818 0.75094 0.73148 0.0
C56 C 0.17247 0.77763 0.78751 0.0
C57 C 0.14625 0.79161 0.7306 0.0
C58 C 0.21421 0.73148 0.71188 0.0
C59 C 0.22922 0.74327 0.67663 0.0
C60 C 0.26018 0.73062 0.66214 0.0
C61 C 0.27639 0.70582 0.68256 0.0
C62 C 0.25919 0.69166 0.71616 0.0
C63 C 0.22865 0.7046 0.73084 0.0
C64 C 0.18343 0.78852 0.82613 0.0
C65 C 0.20583 0.7691 0.84658 0.0
C66 C 0.22587 0.78495 0.87739 0.0
C67 C 0.22421 0.82062 0.8879 0.0
C68 C 0.19826 0.8381 0.87036 0.0
C69 C 0.17787 0.82211 0.83987 0.0
C70 C 0.1251 0.81491 0.70959 0.0
C71 C 0.1067 0.83929 0.72862 0.0
C72 C 0.64888 0.24955 0.93014 0.0
C73 C 0.61078 0.23324 0.92553 0.0
C74 C 0.58957 0.25091 0.90136 0.0
C75 C 0.60562 0.28446 0.88385 0.0
H76 H 0.59765 0.36354 0.79185 0.0
H77 H 0.57287 0.39229 0.73884 0.0
H78 H 0.66691 0.48252 0.7444 0.0
H79 H 0.69104 0.45446 0.79772 0.0
H80 H 0.7379 0.46406 0.88893 0.0
H81 H 0.79358 0.49303 0.92336 0.0
H82 H 0.82186 0.38796 0.94139 0.0
H83 H 0.76482 0.35917 0.90962 0.0
H84 H 0.69403 0.29421 0.91819 0.0
H85 H 0.66676 0.23652 0.94724 0.0
H86 H 0.56022 0.23931 0.89677 0.0
H87 H 0.58812 0.29753 0.86632 0.0
N88 N 0.64559 0.35482 0.84575 0.0
N89 N 0.69497 0.40631 0.84932 0.0
N90 N 0.69364 0.35674 0.88961 0.0
C91 C 0.66254 0.38872 0.83267 0.0
C92 C 0.71079 0.39048 0.87777 0.0
C93 C 0.66106 0.33858 0.87437 0.0
C94 C 0.64651 0.40643 0.79991 0.0
C95 C 0.61303 0.38965 0.78206 0.0
C96 C 0.59879 0.40621 0.75128 0.0
C97 C 0.61727 0.44035 0.73702 0.0
C98 C 0.65089 0.45691 0.75473 0.0
C99 C 0.66507 0.44043 0.78547 0.0
C100 C 0.74659 0.40916 0.89622 0.0
C101 C 0.75617 0.4472 0.90005 0.0
C102 C 0.78861 0.4639 0.91966 0.0
C103 C 0.81337 0.44324 0.93516 0.0
C104 C 0.8038 0.40518 0.93064 0.0
C105 C 0.77096 0.38851 0.91198 0.0
C106 C 0.64341 0.30141 0.88996 0.0
C107 C 0.66472 0.28288 0.91303 0.0
C108 C 0.75863 0.65212 0.45425 0.0
C109 C 0.73395 0.6219 0.43946 0.0
C110 C 0.74477 0.60699 0.4059 0.0
C111 C 0.77851 0.6228 0.38707 0.0
H112 H 0.85628 0.60959 0.29982 0.0
H113 H 0.88025 0.58208 0.24534 0.0
H114 H 0.97235 0.67403 0.23609 0.0
H115 H 0.94801 0.70201 0.29013 0.0
H116 H 0.95958 0.76676 0.36559 0.0
H117 H 0.98697 0.82497 0.39562 0.0
H118 H 0.88082 0.8253 0.45054 0.0
H119 H 0.85409 0.76777 0.42189 0.0
H120 H 0.80965 0.69142 0.44804 0.0
H121 H 0.75217 0.66373 0.48057 0.0
H122 H 0.72667 0.58359 0.3937 0.0
H123 H 0.78545 0.61102 0.36101 0.0
N124 N 0.8522 0.65788 0.35105 0.0
N125 N 0.90178 0.70927 0.34636 0.0
N126 N 0.8554 0.70607 0.3931 0.0
C127 C 0.88435 0.67571 0.33334 0.0
C128 C 0.88721 0.72475 0.37631 0.0
C129 C 0.83762 0.67283 0.38115 0.0
C130 C 0.89982 0.65848 0.29983 0.0
C131 C 0.88163 0.6242 0.28627 0.0
C132 C 0.89554 0.60817 0.25485 0.0
C133 C 0.92813 0.62576 0.23545 0.0
C134 C 0.94666 0.6598 0.24932 0.0
C135 C 0.93277 0.67585 0.28077 0.0
C136 C 0.90462 0.76177 0.39154 0.0
C137 C 0.9421 0.77931 0.38402 0.0
C138 C 0.95782 0.81279 0.40127 0.0
C139 C 0.93653 0.82968 0.42652 0.0
C140 C 0.89872 0.8128 0.43253 0.0
C141 C 0.88322 0.77958 0.41568 0.0
C142 C 0.80244 0.65395 0.40132 0.0
C143 C 0.79201 0.66794 0.4355 0.0
C144 C 0.58487 0.84893 0.90192 0.0
C145 C 0.59145 0.85721 0.9397 0.0
C146 C 0.61388 0.8379 0.96014 0.0
C147 C 0.63066 0.81175 0.94272 0.0
H148 H 0.7125 0.74888 0.95781 0.0
H149 H 0.76424 0.72579 0.98609 0.0
H150 H 0.78124 0.67144 0.88315 0.0
H151 H 0.72946 0.69359 0.85526 0.0
H152 H 0.73694 0.75394 0.78706 0.0
H153 H 0.76961 0.78976 0.73566 0.0
H154 H 0.68147 0.85137 0.73041 0.0
H155 H 0.64878 0.81614 0.78231 0.0
H156 H 0.59715 0.81826 0.85493 0.0
H157 H 0.56808 0.86372 0.88539 0.0
H158 H 0.61923 0.84374 0.98939 0.0
H159 H 0.64896 0.79833 0.95889 0.0
N160 N 0.66812 0.76073 0.90291 0.0
N161 N 0.69714 0.74868 0.84682 0.0
N162 N 0.65404 0.78719 0.84685 0.0
C163 C 0.69204 0.74328 0.88412 0.0
C164 C 0.67837 0.77059 0.82791 0.0
C165 C 0.64844 0.78226 0.88417 0.0
C166 C 0.71726 0.72351 0.9041 0.0
C167 C 0.72665 0.7312 0.94159 0.0
C168 C 0.75649 0.71834 0.95765 0.0
C169 C 0.77722 0.69749 0.93653 0.0
C170 C 0.76584 0.68751 0.9001 0.0
C171 C 0.73624 0.70038 0.88406 0.0
C172 C 0.69089 0.78306 0.78977 0.0
C173 C 0.72378 0.77432 0.77431 0.0
C174 C 0.74253 0.79473 0.74472 0.0
C175 C 0.72854 0.82394 0.73002 0.0
C176 C 0.6932 0.82948 0.74204 0.0
C177 C 0.67449 0.80921 0.77171 0.0
C178 C 0.62567 0.80482 0.90439 0.0
C179 C 0.60176 0.82302 0.88446 0.0
C180 C 0.84085 0.23403 0.2255 0.0
C181 C 0.81156 0.24922 0.21122 0.0
C182 C 0.80497 0.28186 0.22639 0.0
C183 C 0.82474 0.29701 0.25763 0.0
H184 H 0.82039 0.37006 0.34299 0.0
H185 H 0.77251 0.39663 0.37351 0.0
H186 H 0.78843 0.3413 0.47594 0.0
H187 H 0.83608 0.31356 0.44493 0.0
H188 H 0.91423 0.27324 0.44111 0.0
H189 H 0.9419 0.22719 0.473 0.0
H190 H 0.94119 0.16773 0.37016 0.0
H191 H 0.91423 0.21333 0.33804 0.0
H192 H 0.88126 0.23527 0.26843 0.0
H193 H 0.84632 0.20863 0.21472 0.0
H194 H 0.78278 0.2943 0.21563 0.0
H195 H 0.81716 0.32082 0.27015 0.0
N196 N 0.84845 0.31298 0.33282 0.0
N197 N 0.87539 0.2963 0.38771 0.0
N198 N 0.88547 0.26887 0.33073 0.0
C199 C 0.85405 0.31701 0.37008 0.0
C200 C 0.89164 0.27243 0.36795 0.0
C201 C 0.86403 0.28905 0.31288 0.0
C202 C 0.83179 0.3393 0.39136 0.0
C203 C 0.8144 0.36409 0.37226 0.0
C204 C 0.78713 0.37967 0.38989 0.0
C205 C 0.77676 0.37116 0.42719 0.0
C206 C 0.79583 0.34824 0.44711 0.0
C207 C 0.82328 0.33257 0.42941 0.0
C208 C 0.9117 0.24696 0.38705 0.0
C209 C 0.92035 0.25059 0.42519 0.0
C210 C 0.9362 0.22436 0.44344 0.0
C211 C 0.94314 0.19393 0.42396 0.0
C212 C 0.93567 0.19085 0.38575 0.0
C213 C 0.92034 0.21714 0.36743 0.0
C214 C 0.85131 0.27963 0.27436 0.0
C215 C 0.86071 0.24921 0.25662 0.0
C216 C 0.25042 0.60336 0.17877 0.0
C217 C 0.23218 0.62352 0.15417 0.0
C218 C 0.24674 0.66111 0.15121 0.0
C219 C 0.27884 0.6777 0.17092 0.0
H220 H 0.34653 0.77802 0.18682 0.0
H221 H 0.37325 0.83653 0.15866 0.0
H222 H 0.4845 0.8214 0.18645 0.0
H223 H 0.45715 0.76358 0.21693 0.0
H224 H 0.43484 0.70918 0.31121 0.0
H225 H 0.45895 0.68137 0.36517 0.0
H226 H 0.3858 0.57916 0.34061 0.0
H227 H 0.36147 0.6069 0.28669 0.0
H228 H 0.29593 0.60354 0.217 0.0
H229 H 0.24018 0.5744 0.1821 0.0
H230 H 0.23304 0.67809 0.13392 0.0
H231 H 0.2888 0.70667 0.16731 0.0
N232 N 0.35004 0.71013 0.20332 0.0
N233 N 0.39698 0.71218 0.2483 0.0
N234 N 0.34813 0.66034 0.2435 0.0
C235 C 0.38201 0.7284 0.21939 0.0
C236 C 0.38008 0.67812 0.2609 0.0
C237 C 0.33283 0.67623 0.21464 0.0
C238 C 0.39949 0.76575 0.20458 0.0
C239 C 0.37673 0.78729 0.18746 0.0
C240 C 0.39224 0.82104 0.17087 0.0
C241 C 0.43136 0.83464 0.16998 0.0
C242 C 0.45423 0.81305 0.18725 0.0
C243 C 0.43854 0.77945 0.20466 0.0
C244 C 0.39583 0.66066 0.294 0.0
C245 C 0.42372 0.68076 0.31711 0.0
C246 C 0.43747 0.66476 0.34851 0.0
C247 C 0.42423 0.62784 0.35802 0.0
C248 C 0.39688 0.60757 0.33455 0.0
C249 C 0.38275 0.62367 0.30344 0.0
C250 C 0.29759 0.6576 0.19498 0.0
C251 C 0.28256 0.62011 0.19887 0.0
C252 C 0.14791 0.23987 0.66862 0.0
C253 C 0.10872 0.22719 0.66704 0.0
C254 C 0.08569 0.24909 0.68395 0.0
C255 C 0.10136 0.28224 0.70164 0.0
H256 H 0.10531 0.35018 0.81061 0.0
H257 H 0.0815 0.37817 0.86515 0.0
H258 H 0.15819 0.47895 0.84084 0.0
H259 H 0.1821 0.45115 0.78644 0.0
H260 H 0.2652 0.43847 0.7364 0.0
H261 H 0.32319 0.4662 0.70295 0.0
H262 H 0.28502 0.402 0.60594 0.0
H263 H 0.22857 0.37321 0.63974 0.0
H264 H 0.1937 0.28193 0.68528 0.0
H265 H 0.16694 0.22402 0.65672 0.0
H266 H 0.05541 0.24136 0.6826 0.0
H267 H 0.08274 0.29849 0.7136 0.0
N268 N 0.14375 0.34742 0.74701 0.0
N269 N 0.19317 0.39881 0.74199 0.0
N270 N 0.18976 0.35059 0.6998 0.0
C271 C 0.16123 0.38093 0.75997 0.0
C272 C 0.2075 0.38388 0.7117 0.0
C273 C 0.15811 0.332 0.71692 0.0
C274 C 0.14594 0.39807 0.79362 0.0
C275 C 0.11726 0.3783 0.81677 0.0
C276 C 0.10371 0.39437 0.84843 0.0
C277 C 0.11804 0.43094 0.85802 0.0
C278 C 0.1463 0.45082 0.83461 0.0
C279 C 0.16017 0.43468 0.80326 0.0
C280 C 0.24216 0.40312 0.69114 0.0
C281 C 0.26926 0.43023 0.70797 0.0
C282 C 0.30259 0.44621 0.68865 0.0
C283 C 0.30967 0.43586 0.65178 0.0
C284 C 0.28175 0.40977 0.63466 0.0
C285 C 0.24891 0.39344 0.65408 0.0
C286 C 0.14051 0.29508 0.70211 0.0
C287 C 0.16341 0.27321 0.68542 0.0
Tb288 Tb 0.06029 0.03683 0.51914 0.0
Tb289 Tb 0.9818 1.02463 0.56697 0.0
C290 C 0.99451 0.96798 0.50573 0.0
C291 C 0.14913 0.0801 0.47137 0.0
C292 C 0.20336 0.14144 0.45044 0.0
C293 C 0.18892 0.11493 0.42398 0.0
C294 C 0.16215 0.08443 0.43442 0.0
C295 C 0.16337 0.10672 0.49793 0.0
C296 C 0.19055 0.13712 0.48754 0.0
C297 C 0.12032 0.048 0.48132 0.0
O298 O 0.0342 0.08218 0.50558 0.0
O299 O 0.97448 0.05112 0.51441 0.0
O300 O 1.01249 0.07806 0.58486 0.0
O301 O 0.07255 0.07537 0.56566 0.0
O302 O 0.9231 1.01542 0.5635 0.0
O303 O 0.95068 1.02487 0.61665 0.0
O304 O 1.01723 0.99621 0.59961 0.0
O305 O 0.06186 0.99091 0.55499 0.0
O306 O 0.02038 0.99368 0.49018 0.0
O307 O 0.98051 0.97288 0.5389 0.0
C308 C 0.99818 0.07886 0.5004 0.0
O309 O 0.11817 0.03824 0.51635 0.0
O310 O 0.08723 0.04659 0.46688 0.0
C311 C 0.04902 0.0908 0.58527 0.0
C312 C 0.89045 0.98713 0.61565 0.0
C313 C 0.83526 0.93241 0.64799 0.0
C314 C 0.82665 0.96594 0.6379 0.0
C315 C 0.85411 0.99313 0.622 0.0
C316 C 0.89895 0.95324 0.62431 0.0
C317 C 0.87144 0.92597 0.64044 0.0
C318 C 0.91866 1.01655 0.59951 0.0
C319 C 0.04584 0.98255 0.58764 0.0
H320 H 0.19858 0.11775 0.39522 0.0
H321 H 0.15145 0.06426 0.41356 0.0
H322 H 0.15344 0.10415 0.5266 0.0
H323 H 0.20111 0.15746 0.50825 0.0
H324 H 0.79875 0.97127 0.64271 0.0
H325 H 0.84703 1.019 0.6149 0.0
H326 H 0.92687 0.94809 0.61905 0.0
H327 H 0.87869 0.9003 0.64794 0.0
Tb328 Tb 0.56034 0.03869 0.06945 0.0
Tb329 Tb 0.48196 1.02821 1.02307 0.0
C330 C 0.54127 0.98132 1.0054 0.0
C331 C 0.6504 0.0808 0.1128 0.0
C332 C 0.70333 0.14237 0.13414 0.0
C333 C 0.71301 0.10795 0.13323 0.0
C334 C 0.68673 0.07741 0.12252 0.0
C335 C 0.64053 0.11507 0.11351 0.0
C336 C 0.66682 0.14567 0.12425 0.0
C337 C 0.62363 0.04873 0.10034 0.0
O338 O 0.56294 0.08996 1.03959 0.0
O339 O 0.52283 0.06979 0.99198 0.0
O340 O 0.48215 0.07471 0.05835 0.0
O341 O 0.52507 0.06732 0.10283 0.0
O342 O 0.45384 1.01988 0.97211 0.0
O343 O 0.42418 1.02783 1.02317 0.0
O344 O 0.46943 0.98842 0.06924 0.0
O345 O 0.52884 0.98624 0.08992 0.0
O346 O 0.56666 1.00741 1.01951 0.0
O347 O 0.50553 0.98158 1.00882 0.0
C348 C 0.54939 0.09502 1.00656 0.0
O349 O 0.59175 0.0409 0.11856 0.0
O350 O 0.61891 0.04665 0.06443 0.0
C351 C 0.4975 0.08219 0.09099 0.0
C352 C 0.39202 0.98712 0.9797 0.0
C353 C 0.3365 0.92636 0.96168 0.0
C354 C 0.33053 0.96169 0.95527 0.0
C355 C 0.35816 0.99187 0.96416 0.0
C356 C 0.39769 0.95194 0.9873 0.0
C357 C 0.37011 0.92171 0.97826 0.0
C358 C 0.42114 1.01896 0.98803 0.0
C359 C 0.49235 0.97312 0.08948 0.0
H360 H 0.74063 0.1045 0.14166 0.0
H361 H 0.69474 0.05111 0.12194 0.0
H362 H 0.61255 0.11808 0.1058 0.0
H363 H 0.65864 0.17188 0.12493 0.0
H364 H 0.30498 0.96594 0.94222 0.0
H365 H 0.35334 1.0189 0.9584 0.0
H366 H 0.42358 0.94791 0.99979 0.0
H367 H 0.37519 0.89473 0.98375 0.0
Tb368 Tb 0.52153 0.49582 0.52297 0.0
Tb369 Tb 0.5208 0.56957 0.569 0.0
C370 C 0.48473 0.55943 0.48867 0.0
C371 C 0.56319 0.42485 0.48019 0.0
C372 C 0.63398 0.40662 0.46848 0.0
C373 C 0.61463 0.41815 0.43858 0.0
C374 C 0.57945 0.42697 0.44433 0.0
C375 C 0.58198 0.4119 0.5099 0.0
C376 C 0.61701 0.40259 0.50398 0.0
C377 C 0.52929 0.44029 0.4867 0.0
O378 O 0.57969 0.52592 0.52051 0.0
O379 O 0.56899 0.58294 0.53068 0.0
O380 O 0.5582 0.54195 0.60161 0.0
O381 O 0.53851 0.48414 0.57977 0.0
O382 O 0.52345 0.62601 0.56827 0.0
O383 O 0.51742 0.59625 0.61999 0.0
O384 O 0.47152 0.53112 0.58976 0.0
O385 O 0.46348 0.48782 0.54376 0.0
O386 O 0.50284 0.53282 0.48248 0.0
O387 O 0.48195 0.57158 0.52281 0.0
C388 C 0.59051 0.56136 0.5177 0.0
O389 O 0.51582 0.43896 0.52063 0.0
O390 O 0.53041 0.47202 0.47159 0.0
C391 C 0.55589 0.50654 0.60517 0.0
C392 C 0.48167 0.64108 0.6129 0.0
C393 C 0.41614 0.66608 0.63318 0.0
C394 C 0.4519 0.68694 0.64111 0.0
C395 C 0.48446 0.67439 0.6312 0.0
C396 C 0.44613 0.62084 0.60377 0.0
C397 C 0.41366 0.63317 0.61389 0.0
C398 C 0.5154 0.62678 0.60368 0.0
C399 C 0.45146 0.50215 0.57398 0.0
H400 H 0.62703 0.42086 0.41083 0.0
H401 H 0.56558 0.43681 0.42098 0.0
H402 H 0.57032 0.41008 0.53793 0.0
H403 H 0.63145 0.39351 0.52735 0.0
H404 H 0.45469 0.71285 0.65512 0.0
H405 H 0.51171 0.69051 0.63808 0.0
H406 H 0.44351 0.59518 0.58929 0.0
H407 H 0.38656 0.61649 0.60744 0.0
Tb408 Tb 0.02655 0.56785 1.02151 0.0
Tb409 Tb 0.02087 0.4936 0.06885 0.0
C410 C 0.05836 0.50175 0.98777 0.0
C411 C 0.99189 0.64286 0.97931 0.0
C412 C 0.9226 0.66458 0.96981 0.0
C413 C 0.93867 0.64786 0.94053 0.0
C414 C 0.97305 0.63729 0.94515 0.0
C415 C 0.9767 0.66133 1.00796 0.0
C416 C 0.94229 0.67201 1.00327 0.0
C417 C 0.02436 0.62544 0.98613 0.0
O418 O 0.96784 0.54022 1.0156 0.0
O419 O 0.97102 0.48214 1.03323 0.0
O420 O 0.98397 0.52262 0.10085 0.0
O421 O 1.00728 0.57963 0.07768 0.0
O422 O 1.01549 0.4368 0.06898 0.0
O423 O 0.02492 0.46715 0.11993 0.0
O424 O 0.06903 0.53202 0.09119 0.0
O425 O 0.08395 0.57096 1.04181 0.0
O426 O 0.04243 0.52958 0.9811 0.0
O427 O 0.05969 0.48964 1.02209 0.0
C428 C 0.95352 0.50514 1.01642 0.0
O429 O 0.03579 0.62501 1.02041 0.0
O430 O 0.02266 0.594 0.97033 0.0
C431 C 0.98769 0.55825 0.10311 0.0
C432 C 0.05975 0.42193 0.11005 0.0
C433 C 0.12696 0.39789 0.1242 0.0
C434 C 0.09275 0.37989 0.1404 0.0
C435 C 0.05931 0.39183 0.13329 0.0
C436 C 0.09378 0.43963 0.09362 0.0
C437 C 0.12701 0.42769 0.10052 0.0
C438 C 0.02558 0.43631 0.10367 0.0
C439 C 0.09274 0.55812 0.07404 0.0
H440 H 0.92423 0.64232 0.91426 0.0
H441 H 0.98412 0.62336 0.92248 0.0
H442 H 0.99063 0.66633 1.03451 0.0
H443 H 0.93043 0.68481 1.0263 0.0
H444 H 0.09204 0.35729 0.15937 0.0
H445 H 0.03334 0.37805 0.14643 0.0
H446 H 0.09479 0.46315 0.07587 0.0
H447 H 0.15288 0.44203 0.08764 0.0
C448 C 0.25052 0.22255 0.39337 0.0
C449 C 0.28765 0.22929 0.40648 0.0
C450 C 0.22298 0.1951 0.40901 0.0
C451 C 0.23142 0.17364 0.43857 0.0
H452 H 0.24319 0.23706 0.36931 0.0
H453 H 0.19518 0.18971 0.397 0.0
S454 S 0.32312 0.18274 0.48562 0.0
N455 N 0.33066 0.2142 0.45261 0.0
N456 N 0.2785 0.16249 0.48231 0.0
C457 C 0.26771 0.18146 0.45351 0.0
C458 C 0.29597 0.20927 0.43732 0.0
C459 C 0.24313 0.86551 0.93929 0.0
C460 C 0.25327 0.842 0.91222 0.0
C461 C 0.27043 0.89154 0.95686 0.0
C462 C 0.30881 0.89481 0.94813 0.0
H463 H 0.21378 0.86483 0.94571 0.0
H464 H 0.26138 0.91014 0.97638 0.0
S465 S 0.35033 0.83931 0.8802 0.0
N466 N 0.30466 0.82321 0.87834 0.0
N467 N 0.35578 0.87175 0.91184 0.0
C468 C 0.3195 0.87029 0.92265 0.0
C469 C 0.29177 0.84395 0.90459 0.0
C470 C 0.58681 0.43733 0.67256 0.0
C471 C 0.60196 0.45813 0.70365 0.0
C472 C 0.57264 0.45314 0.64118 0.0
C473 C 0.57259 0.49079 0.63886 0.0
H474 H 0.58623 0.40839 0.67215 0.0
H475 H 0.56156 0.43541 0.61843 0.0
S476 S 0.60695 0.55767 0.71335 0.0
N477 N 0.61433 0.51882 0.73026 0.0
N478 N 0.58841 0.54823 0.67181 0.0
C479 C 0.58746 0.51194 0.66984 0.0
C480 C 0.60189 0.49581 0.70185 0.0
C481 C 0.9437 0.5713 0.19992 0.0
C482 C 0.94252 0.60874 0.20105 0.0
C483 C 0.95757 0.55512 0.16833 0.0
C484 C 0.97097 0.57543 0.13599 0.0
H485 H 0.93444 0.55432 0.22403 0.0
H486 H 0.95832 0.52646 0.16961 0.0
S487 S 0.97053 0.67371 0.12261 0.0
N488 N 0.9536 0.6649 0.16528 0.0
N489 N 0.97969 0.63512 0.1068 0.0
C490 C 0.96905 0.61272 0.13646 0.0
C491 C 0.95494 0.62912 0.16857 0.0
C492 C 0.49837 0.16215 0.15619 0.0
C493 C 0.46252 0.17008 0.15084 0.0
C494 C 0.50931 0.13285 0.13774 0.0
C495 C 0.48465 0.11053 0.11346 0.0
H496 H 0.51834 0.17919 0.17408 0.0
H497 H 0.53757 0.12837 0.14163 0.0
S498 S 0.38594 0.11707 0.09421 0.0
N499 N 0.4013 0.15129 0.12251 0.0
N500 N 0.42163 0.09648 0.08787 0.0
C501 C 0.44822 0.1174 0.10919 0.0
C502 C 0.43721 0.14711 0.12786 0.0
C503 C 0.04628 0.90467 0.65549 0.0
C504 C 0.08213 0.8967 0.64949 0.0
C505 C 0.03492 0.9331 0.6361 0.0
C506 C 0.05909 0.95457 0.61016 0.0
H507 H 0.02668 0.88841 0.6748 0.0
H508 H 1.00672 0.93769 0.64085 0.0
S509 S 0.1575 0.94731 0.58791 0.0
N510 N 0.14275 0.91432 0.61825 0.0
N511 N 0.12162 0.96754 0.58181 0.0
C512 C 0.09545 0.94751 0.6049 0.0
C513 C 0.10691 0.91863 0.62455 0.0
C514 C 0.86081 0.44268 0.98724 0.0
C515 C 0.8486 0.46062 0.95633 0.0
C516 C 0.89417 0.45723 1.00657 0.0
C517 C 0.91696 0.49094 0.99664 0.0
H518 H 0.84439 0.41698 0.99689 0.0
H519 H 0.90206 0.44185 1.0297 0.0
S520 S 0.8994 0.54907 0.91736 0.0
N521 N 0.86391 0.51397 0.91613 0.0
N522 N 0.92501 0.54176 0.95324 0.0
C523 C 0.905 0.50954 0.9662 0.0
C524 C 0.87138 0.4944 0.94601 0.0
C525 C 0.68488 0.56901 0.46486 0.0
C526 C 0.69702 0.60671 0.45894 0.0
C527 C 0.65092 0.55469 0.48414 0.0
C528 C 0.62729 0.57733 0.49834 0.0
H529 H 0.70203 0.55037 0.45498 0.0
H530 H 0.64318 0.5255 0.48783 0.0
S531 S 0.64479 0.67793 0.48791 0.0
N532 N 0.68134 0.66618 0.46719 0.0
N533 N 0.61845 0.63972 0.50346 0.0
C534 C 0.63897 0.61507 0.4921 0.0
C535 C 0.67344 0.62957 0.47247 0.0
C536 C 0.22764 0.40507 0.15549 0.0
C537 C 0.23239 0.36882 0.15493 0.0
C538 C 0.19368 0.41417 0.1449 0.0
C539 C 0.16304 0.38734 0.1336 0.0
H540 H 0.25022 0.42653 0.1647 0.0
H541 H 0.1911 0.44238 0.14649 0.0
S542 S 0.16138 0.28856 0.1261 0.0
N543 N 0.20383 0.30596 0.14152 0.0
N544 N 0.1401 0.32322 0.12103 0.0
C545 C 0.16763 0.35108 0.13218 0.0
C546 C 0.20231 0.34181 0.14285 0.0
C547 C 0.57032 0.16882 0.92903 0.0
C548 C 0.59371 0.19854 0.94663 0.0
C549 C 0.55597 0.13574 0.94826 0.0
C550 C 0.56418 0.13063 0.98615 0.0
H551 H 0.56365 0.17082 0.89984 0.0
H552 H 0.53863 0.11382 0.93308 0.0
S553 S 0.62056 0.20132 1.04656 0.0
N554 N 0.62159 0.22124 1.00541 0.0
N555 N 0.59549 0.15998 1.04097 0.0
C556 C 0.58668 0.16061 1.00426 0.0
C557 C 0.60113 0.19413 0.98476 0.0
C558 C 0.97506 0.89465 0.42878 0.0
C559 C 0.95313 0.86427 0.44723 0.0
C560 C 0.98857 0.92781 0.44764 0.0
C561 C 0.98085 0.93225 0.48592 0.0
H562 H 0.98112 0.89312 0.39925 0.0
H563 H 1.00474 0.95032 0.43186 0.0
S564 S 0.92846 0.85973 0.54832 0.0
N565 N 0.92732 0.8402 0.50704 0.0
N566 N 0.95187 0.90173 0.54199 0.0
C567 C 0.95992 0.90162 0.50486 0.0
C568 C 0.94635 0.868 0.48574 0.0
C569 C 0.31737 0.68586 0.63313 0.0
C570 C 0.31244 0.69647 0.67015 0.0
C571 C 0.35114 0.67651 0.62124 0.0
C572 C 0.38132 0.67775 0.64586 0.0
H573 H 0.29477 0.68423 0.61336 0.0
H574 H 0.35365 0.66825 0.59254 0.0
S575 S 0.38309 0.70506 0.74535 0.0
N576 N 0.34114 0.70918 0.73094 0.0
N577 N 0.40403 0.69057 0.70892 0.0
C578 C 0.37689 0.68879 0.68281 0.0
C579 C 0.3426 0.69835 0.69487 0.0
C580 C 0.77239 0.8425 0.67566 0.0
C581 C 0.75353 0.852 0.70746 0.0
C582 C 0.79868 0.86867 0.65622 0.0
C583 C 0.807 0.90506 0.66814 0.0
H584 H 0.76695 0.81465 0.66595 0.0
H585 H 0.81258 0.86042 0.63175 0.0
S586 S 0.76809 0.9428 0.75199 0.0
N587 N 0.74673 0.89968 0.7513 0.0
N588 N 0.79612 0.94865 0.71499 0.0
C589 C 0.78865 0.91469 0.70016 0.0
C590 C 0.76191 0.88821 0.71977 0.0
C591 C 0.7455 0.22089 0.19608 0.0
C592 C 0.78384 0.22748 0.18595 0.0
C593 C 0.71924 0.19467 0.17769 0.0
C594 C 0.73037 0.17402 0.14855 0.0
H595 H 0.73602 0.23441 0.21996 0.0
H596 H 0.69045 0.18906 0.18784 0.0
S597 S 0.82604 0.18518 0.10715 0.0
N598 N 0.83075 0.21455 0.14188 0.0
N599 N 0.78123 0.16505 0.10719 0.0
C600 C 0.76806 0.1821 0.13639 0.0
C601 C 0.79484 0.20888 0.15511 0.0
C602 C 0.45016 0.57666 0.38938 0.0
C603 C 0.43888 0.61053 0.39196 0.0
C604 C 0.46458 0.56044 0.42039 0.0
C605 C 0.46793 0.57676 0.45609 0.0
H606 H 0.44849 0.56274 0.36284 0.0
H607 H 0.47321 0.53474 0.41621 0.0
S608 S 0.44057 0.66471 0.4789 0.0
N609 N 0.43117 0.65917 0.43407 0.0
N610 N 0.45748 0.62896 0.49179 0.0
C611 C 0.45606 0.61035 0.4592 0.0
C612 C 0.44188 0.62707 0.42749 0.0
C613 C 0.09356 0.48302 0.88889 0.0
C614 C 0.1034 0.44857 0.8918 0.0
C615 C 0.0794 0.49986 0.91976 0.0
C616 C 0.07485 0.48354 0.95554 0.0
H617 H 0.09621 0.49695 0.86223 0.0
H618 H 0.07194 0.52606 0.91539 0.0
S619 S 0.09816 0.39412 0.97907 0.0
N620 N 0.10849 0.39929 0.93415 0.0
N621 N 0.0825 0.43071 0.99175 0.0
C622 C 0.0852 0.44932 0.95898 0.0
C623 C 0.09919 0.43197 0.92739 0.0
C624 C 0.60281 0.91568 0.97477 0.0
C625 C 0.5775 0.88798 0.95681 0.0
C626 C 0.59097 0.94605 0.98962 0.0
C627 C 0.55325 0.94984 0.98734 0.0
H628 H 0.63219 0.91413 0.97688 0.0
H629 H 0.61161 0.96651 1.00332 0.0
S630 S 0.47565 0.88405 0.94366 0.0
N631 N 0.51302 0.8657 0.93795 0.0
N632 N 0.49049 0.92271 0.96574 0.0
C633 C 0.52758 0.92213 0.96947 0.0
C634 C 0.53976 0.89127 0.95422 0.0
C635 C 0.99173 0.17131 0.46107 0.0
C636 C 0.95667 0.16444 0.44353 0.0
C637 C 1.00531 0.14323 0.47873 0.0
C638 C 0.98395 0.10752 0.48001 0.0
H639 H 1.0089 0.19845 0.46075 0.0
H640 H 0.03246 0.14972 0.49202 0.0
S641 S 0.88994 0.07601 0.43853 0.0
N642 N 0.90078 0.1198 0.42845 0.0
N643 N 0.92586 0.06708 0.4621 0.0
C644 C 0.94867 0.1005 0.46273 0.0
C645 C 0.93516 0.12896 0.44435 0.0
C646 C 0.16886 0.58 0.14932 0.0
C647 C 0.19773 0.60588 0.13235 0.0
C648 C 0.13569 0.56457 0.13016 0.0
C649 C 0.1294 0.57414 0.09292 0.0
H650 H 0.17143 0.57211 0.17808 0.0
H651 H 0.11446 0.54529 0.14513 0.0
S652 S 0.19757 0.63787 1.03406 0.0
N653 N 0.21871 0.63812 0.07461 0.0
N654 N 0.15654 0.60992 1.03922 0.0
C655 C 0.15844 0.59931 0.07527 0.0
C656 C 0.19236 0.61491 0.09473 0.0
C657 C 0.36159 0.4896 0.63418 0.0
C658 C 0.34576 0.45221 0.6312 0.0
C659 C 0.39521 0.50543 0.61528 0.0
C660 C 0.41462 0.48483 0.59207 0.0
H661 H 0.34774 0.507 0.65108 0.0
H662 H 0.406 0.53424 0.61887 0.0
S663 S 0.38719 0.38536 0.57659 0.0
N664 N 0.35403 0.39464 0.60466 0.0
N665 N 0.41606 0.42454 0.56848 0.0
C666 C 0.39924 0.44745 0.58881 0.0
C667 C 0.36525 0.43118 0.60846 0.0
C668 C 0.81964 0.65339 0.94574 0.0
C669 C 0.81263 0.68862 0.95052 0.0
C670 C 0.85502 0.64568 0.95306 0.0
C671 C 0.8847 0.6729 0.9655 0.0
H672 H 0.79786 0.63182 0.93529 0.0
H673 H 0.8594 0.61833 0.94833 0.0
S674 S 0.88095 0.76936 0.98297 0.0
N675 N 0.83825 0.75089 0.96898 0.0
N676 N 0.90471 0.73617 0.98312 0.0
C677 C 0.87778 0.7079 0.97172 0.0
C678 C 0.84174 0.71582 0.96415 0.0
C679 C 0.43098 0.88068 0.11732 0.0
C680 C 0.44759 0.8705 0.15023 0.0
C681 C 0.44499 0.91387 0.09849 0.0
C682 C 0.47682 0.93864 0.11108 0.0
H683 H 0.40706 0.86257 0.10545 0.0
H684 H 0.43115 0.91976 0.07326 0.0
S685 S 0.52981 0.92735 0.1969 0.0
N686 N 0.49678 0.89015 0.19557 0.0
N687 N 0.52376 0.95117 0.15952 0.0
C688 C 0.49371 0.92909 0.14391 0.0
C689 C 0.47907 0.89554 0.1635 0.0
C690 C 0.11028 0.1821 0.61411 0.0
C691 C 0.09263 0.19196 0.64686 0.0
C692 C 0.09652 0.14937 0.59493 0.0
C693 C 0.06393 0.1249 0.607 0.0
H694 H 0.13487 0.20008 0.60267 0.0
H695 H 0.11122 0.1436 0.56989 0.0
S696 S 1.00796 0.1356 0.69213 0.0
N697 N 0.04155 0.17242 0.69148 0.0
N698 N 1.01503 0.11222 0.65468 0.0
C699 C 0.04593 0.13417 0.63962 0.0
C700 C 0.06032 0.16722 0.6596 0.0
C701 C 0.7143 0.35633 0.45985 0.0
C702 C 0.74305 0.38252 0.44325 0.0
C703 C 0.67945 0.36469 0.46942 0.0
C704 C 0.67213 0.39941 0.46242 0.0
H705 H 0.71804 0.32867 0.46375 0.0
H706 H 0.65755 0.34344 0.48078 0.0
S707 S 0.73954 0.47909 0.42505 0.0
N708 N 0.76317 0.44578 0.4245 0.0
N709 N 0.69736 0.46118 0.44185 0.0
C710 C 0.70119 0.42636 0.44786 0.0
C711 C 0.73673 0.418 0.43843 0.0
loop_
_geom_bond_atom_site_label_1
_geom_bond_atom_site_label_2
_geom_bond_distance
_geom_bond_site_symmetry_2
_ccdc_geom_bond_type
C0 C1 1.384 . S
C0 H13 0.947 . S
C0 C35 1.382 . S
C1 C0 1.384 . S
C1 C2 1.378 . S
C2 C1 1.378 . S
C2 C3 1.378 . S
C2 H14 0.952 . S
C3 C2 1.378 . S
C3 H15 0.950 . S
C3 C34 1.383 . S
H4 C23 0.947 . S
H5 C24 0.946 . S
H6 C26 0.953 . S
H7 C27 0.945 . S
H8 C29 0.952 . S
H9 C30 0.949 . S
H10 C32 0.950 . S
H11 C33 0.948 . S
H12 C35 0.951 . S
H13 C0 0.947 . S
H14 C2 0.952 . S
H15 C3 0.950 . S
N16 C19 1.382 . S
N16 C21 1.363 . S
N17 C19 1.371 . S
N17 C20 1.372 . S
N18 C20 1.361 . S
N18 C21 1.377 . S
C19 N16 1.382 . S
C19 N17 1.371 . S
C19 C22 1.480 . S
C20 N17 1.372 . S
C20 N18 1.361 . S
C20 C28 1.457 . S
C21 N16 1.363 . S
C21 N18 1.377 . S
C21 C34 1.479 . S
C22 C19 1.480 . S
C22 C23 1.383 . S
C22 C27 1.385 . S
C23 H4 0.947 . S
C23 C22 1.383 . S
C23 C24 1.388 . S
C24 H5 0.946 . S
C24 C23 1.388 . S
C24 C25 1.384 . S
C25 C24 1.384 . S
C25 C26 1.377 . S
C26 H6 0.953 . S
C26 C25 1.377 . S
C26 C27 1.369 . S
C27 H7 0.945 . S
C27 C22 1.385 . S
C27 C26 1.369 . S
C28 C20 1.457 . S
C28 C29 1.372 . S
C28 C33 1.364 . S
C29 H8 0.952 . S
C29 C28 1.372 . S
C29 C30 1.389 . S
C30 H9 0.949 . S
C30 C29 1.389 . S
C30 C31 1.387 . S
C31 C30 1.387 . S
C31 C32 1.372 . S
C32 H10 0.950 . S
C32 C31 1.372 . S
C32 C33 1.379 . S
C33 H11 0.948 . S
C33 C28 1.364 . S
C33 C32 1.379 . S
C34 C3 1.383 . S
C34 C21 1.479 . S
C34 C35 1.398 . S
C35 C0 1.382 . S
C35 H12 0.951 . S
C35 C34 1.398 . S
C36 C37 1.384 . S
C36 H49 0.947 . S
C36 C71 1.382 . S
C37 C36 1.384 . S
C37 C38 1.378 . S
C38 C37 1.378 . S
C38 C39 1.378 . S
C38 H50 0.952 . S
C39 C38 1.378 . S
C39 H51 0.950 . S
C39 C70 1.383 . S
H40 C59 0.947 . S
H41 C60 0.946 . S
H42 C62 0.953 . S
H43 C63 0.945 . S
H44 C65 0.952 . S
H45 C66 0.949 . S
H46 C68 0.950 . S
H47 C69 0.948 . S
H48 C71 0.951 . S
H49 C36 0.947 . S
H50 C38 0.952 . S
H51 C39 0.950 . S
N52 C55 1.382 . S
N52 C57 1.363 . S
N53 C55 1.371 . S
N53 C56 1.372 . S
N54 C56 1.361 . S
N54 C57 1.377 . S
C55 N52 1.382 . S
C55 N53 1.371 . S
C55 C58 1.480 . S
C56 N53 1.372 . S
C56 N54 1.361 . S
C56 C64 1.457 . S
C57 N52 1.363 . S
C57 N54 1.377 . S
C57 C70 1.479 . S
C58 C55 1.480 . S
C58 C59 1.383 . S
C58 C63 1.385 . S
C59 H40 0.947 . S
C59 C58 1.383 . S
C59 C60 1.388 . S
C60 H41 0.946 . S
C60 C59 1.388 . S
C60 C61 1.384 . S
C61 C60 1.384 . S
C61 C62 1.377 . S
C62 H42 0.953 . S
C62 C61 1.377 . S
C62 C63 1.369 . S
C63 H43 0.945 . S
C63 C58 1.385 . S
C63 C62 1.369 . S
C64 C56 1.457 . S
C64 C65 1.372 . S
C64 C69 1.364 . S
C65 H44 0.952 . S
C65 C64 1.372 . S
C65 C66 1.389 . S
C66 H45 0.949 . S
C66 C65 1.389 . S
C66 C67 1.387 . S
C67 C66 1.387 . S
C67 C68 1.372 . S
C68 H46 0.950 . S
C68 C67 1.372 . S
C68 C69 1.379 . S
C69 H47 0.948 . S
C69 C64 1.364 . S
C69 C68 1.379 . S
C70 C39 1.383 . S
C70 C57 1.479 . S
C70 C71 1.398 . S
C71 C36 1.382 . S
C71 H48 0.951 . S
C71 C70 1.398 . S
C72 C73 1.384 . S
C72 H85 0.947 . S
C72 C107 1.382 . S
C73 C72 1.384 . S
C73 C74 1.378 . S
C74 C73 1.378 . S
C74 C75 1.378 . S
C74 H86 0.952 . S
C75 C74 1.378 . S
C75 H87 0.950 . S
C75 C106 1.383 . S
H76 C95 0.947 . S
H77 C96 0.946 . S
H78 C98 0.953 . S
H79 C99 0.945 . S
H80 C101 0.952 . S
H81 C102 0.949 . S
H82 C104 0.950 . S
H83 C105 0.948 . S
H84 C107 0.951 . S
H85 C72 0.947 . S
H86 C74 0.952 . S
H87 C75 0.950 . S
N88 C91 1.382 . S
N88 C93 1.363 . S
N89 C91 1.371 . S
N89 C92 1.372 . S
N90 C92 1.361 . S
N90 C93 1.377 . S
C91 N88 1.382 . S
C91 N89 1.371 . S
C91 C94 1.480 . S
C92 N89 1.372 . S
C92 N90 1.361 . S
C92 C100 1.457 . S
C93 N88 1.363 . S
C93 N90 1.377 . S
C93 C106 1.479 . S
C94 C91 1.480 . S
C94 C95 1.383 . S
C94 C99 1.385 . S
C95 H76 0.947 . S
C95 C94 1.383 . S
C95 C96 1.388 . S
C96 H77 0.946 . S
C96 C95 1.388 . S
C96 C97 1.384 . S
C97 C96 1.384 . S
C97 C98 1.377 . S
C98 H78 0.953 . S
C98 C97 1.377 . S
C98 C99 1.369 . S
C99 H79 0.945 . S
C99 C94 1.385 . S
C99 C98 1.369 . S
C100 C92 1.457 . S
C100 C101 1.372 . S
C100 C105 1.364 . S
C101 H80 0.952 . S
C101 C100 1.372 . S
C101 C102 1.389 . S
C102 H81 0.949 . S
C102 C101 1.389 . S
C102 C103 1.387 . S
C103 C102 1.387 . S
C103 C104 1.372 . S
C104 H82 0.950 . S
C104 C103 1.372 . S
C104 C105 1.379 . S
C105 H83 0.948 . S
C105 C100 1.364 . S
C105 C104 1.379 . S
C106 C75 1.383 . S
C106 C93 1.479 . S
C106 C107 1.398 . S
C107 C72 1.382 . S
C107 H84 0.951 . S
C107 C106 1.398 . S
C108 C109 1.384 . S
C108 H121 0.947 . S
C108 C143 1.382 . S
C109 C108 1.384 . S
C109 C110 1.378 . S
C110 C109 1.378 . S
C110 C111 1.378 . S
C110 H122 0.952 . S
C111 C110 1.378 . S
C111 H123 0.950 . S
C111 C142 1.383 . S
H112 C131 0.947 . S
H113 C132 0.946 . S
H114 C134 0.953 . S
H115 C135 0.945 . S
H116 C137 0.952 . S
H117 C138 0.949 . S
H118 C140 0.950 . S
H119 C141 0.948 . S
H120 C143 0.951 . S
H121 C108 0.947 . S
H122 C110 0.952 . S
H123 C111 0.950 . S
N124 C127 1.382 . S
N124 C129 1.363 . S
N125 C127 1.371 . S
N125 C128 1.372 . S
N126 C128 1.361 . S
N126 C129 1.377 . S
C127 N124 1.382 . S
C127 N125 1.371 . S
C127 C130 1.480 . S
C128 N125 1.372 . S
C128 N126 1.361 . S
C128 C136 1.457 . S
C129 N124 1.363 . S
C129 N126 1.377 . S
C129 C142 1.479 . S
C130 C127 1.480 . S
C130 C131 1.383 . S
C130 C135 1.385 . S
C131 H112 0.947 . S
C131 C130 1.383 . S
C131 C132 1.388 . S
C132 H113 0.946 . S
C132 C131 1.388 . S
C132 C133 1.384 . S
C133 C132 1.384 . S
C133 C134 1.377 . S
C134 H114 0.953 . S
C134 C133 1.377 . S
C134 C135 1.369 . S
C135 H115 0.945 . S
C135 C130 1.385 . S
C135 C134 1.369 . S
C136 C128 1.457 . S
C136 C137 1.372 . S
C136 C141 1.364 . S
C137 H116 0.952 . S
C137 C136 1.372 . S
C137 C138 1.389 . S
C138 H117 0.949 . S
C138 C137 1.389 . S
C138 C139 1.387 . S
C139 C138 1.387 . S
C139 C140 1.372 . S
C140 H118 0.950 . S
C140 C139 1.372 . S
C140 C141 1.379 . S
C141 H119 0.948 . S
C141 C136 1.364 . S
C141 C140 1.379 . S
C142 C111 1.383 . S
C142 C129 1.479 . S
C142 C143 1.398 . S
C143 C108 1.382 . S
C143 H120 0.951 . S
C143 C142 1.398 . S
C144 C145 1.384 . S
C144 H157 0.947 . S
C144 C179 1.382 . S
C145 C144 1.384 . S
C145 C146 1.378 . S
C146 C145 1.378 . S
C146 C147 1.378 . S
C146 H158 0.952 . S
C147 C146 1.378 . S
C147 H159 0.950 . S
C147 C178 1.383 . S
H148 C167 0.947 . S
H149 C168 0.946 . S
H150 C170 0.953 . S
H151 C171 0.945 . S
H152 C173 0.952 . S
H153 C174 0.949 . S
H154 C176 0.950 . S
H155 C177 0.948 . S
H156 C179 0.951 . S
H157 C144 0.947 . S
H158 C146 0.952 . S
H159 C147 0.950 . S
N160 C163 1.382 . S
N160 C165 1.363 . S
N161 C163 1.371 . S
N161 C164 1.372 . S
N162 C164 1.361 . S
N162 C165 1.377 . S
C163 N160 1.382 . S
C163 N161 1.371 . S
C163 C166 1.480 . S
C164 N161 1.372 . S
C164 N162 1.361 . S
C164 C172 1.457 . S
C165 N160 1.363 . S
C165 N162 1.377 . S
C165 C178 1.479 . S
C166 C163 1.480 . S
C166 C167 1.383 . S
C166 C171 1.385 . S
C167 H148 0.947 . S
C167 C166 1.383 . S
C167 C168 1.388 . S
C168 H149 0.946 . S
C168 C167 1.388 . S
C168 C169 1.384 . S
C169 C168 1.384 . S
C169 C170 1.377 . S
C170 H150 0.953 . S
C170 C169 1.377 . S
C170 C171 1.369 . S
C171 H151 0.945 . S
C171 C166 1.385 . S
C171 C170 1.369 . S
C172 C164 1.457 . S
C172 C173 1.372 . S
C172 C177 1.364 . S
C173 H152 0.952 . S
C173 C172 1.372 . S
C173 C174 1.389 . S
C174 H153 0.949 . S
C174 C173 1.389 . S
C174 C175 1.387 . S
C175 C174 1.387 . S
C175 C176 1.372 . S
C176 H154 0.950 . S
C176 C175 1.372 . S
C176 C177 1.379 . S
C177 H155 0.948 . S
C177 C172 1.364 . S
C177 C176 1.379 . S
C178 C147 1.383 . S
C178 C165 1.479 . S
C178 C179 1.398 . S
C179 C144 1.382 . S
C179 H156 0.951 . S
C179 C178 1.398 . S
C180 C181 1.384 . S
C180 H193 0.947 . S
C180 C215 1.382 . S
C181 C180 1.384 . S
C181 C182 1.378 . S
C182 C181 1.378 . S
C182 C183 1.378 . S
C182 H194 0.952 . S
C183 C182 1.378 . S
C183 H195 0.950 . S
C183 C214 1.383 . S
H184 C203 0.947 . S
H185 C204 0.946 . S
H186 C206 0.953 . S
H187 C207 0.945 . S
H188 C209 0.952 . S
H189 C210 0.949 . S
H190 C212 0.950 . S
H191 C213 0.948 . S
H192 C215 0.951 . S
H193 C180 0.947 . S
H194 C182 0.952 . S
H195 C183 0.950 . S
N196 C199 1.382 . S
N196 C201 1.363 . S
N197 C199 1.371 . S
N197 C200 1.372 . S
N198 C200 1.361 . S
N198 C201 1.377 . S
C199 N196 1.382 . S
C199 N197 1.371 . S
C199 C202 1.480 . S
C200 N197 1.372 . S
C200 N198 1.361 . S
C200 C208 1.457 . S
C201 N196 1.363 . S
C201 N198 1.377 . S
C201 C214 1.479 . S
C202 C199 1.480 . S
C202 C203 1.383 . S
C202 C207 1.385 . S
C203 H184 0.947 . S
C203 C202 1.383 . S
C203 C204 1.388 . S
C204 H185 0.946 . S
C204 C203 1.388 . S
C204 C205 1.384 . S
C205 C204 1.384 . S
C205 C206 1.377 . S
C206 H186 0.953 . S
C206 C205 1.377 . S
C206 C207 1.369 . S
C207 H187 0.945 . S
C207 C202 1.385 . S
C207 C206 1.369 . S
C208 C200 1.457 . S
C208 C209 1.372 . S
C208 C213 1.364 . S
C209 H188 0.952 . S
C209 C208 1.372 . S
C209 C210 1.389 . S
C210 H189 0.949 . S
C210 C209 1.389 . S
C210 C211 1.387 . S
C211 C210 1.387 . S
C211 C212 1.372 . S
C212 H190 0.950 . S
C212 C211 1.372 . S
C212 C213 1.379 . S
C213 H191 0.948 . S
C213 C208 1.364 . S
C213 C212 1.379 . S
C214 C183 1.383 . S
C214 C201 1.479 . S
C214 C215 1.398 . S
C215 C180 1.382 . S
C215 H192 0.951 . S
C215 C214 1.398 . S
C216 C217 1.384 . S
C216 H229 0.947 . S
C216 C251 1.382 . S
C217 C216 1.384 . S
C217 C218 1.378 . S
C218 C217 1.378 . S
C218 C219 1.378 . S
C218 H230 0.952 . S
C219 C218 1.378 . S
C219 H231 0.950 . S
C219 C250 1.383 . S
H220 C239 0.947 . S
H221 C240 0.946 . S
H222 C242 0.953 . S
H223 C243 0.945 . S
H224 C245 0.952 . S
H225 C246 0.949 . S
H226 C248 0.950 . S
H227 C249 0.948 . S
H228 C251 0.951 . S
H229 C216 0.947 . S
H230 C218 0.952 . S
H231 C219 0.950 . S
N232 C235 1.382 . S
N232 C237 1.363 . S
N233 C235 1.371 . S
N233 C236 1.372 . S
N234 C236 1.361 . S
N234 C237 1.377 . S
C235 N232 1.382 . S
C235 N233 1.371 . S
C235 C238 1.480 . S
C236 N233 1.372 . S
C236 N234 1.361 . S
C236 C244 1.457 . S
C237 N232 1.363 . S
C237 N234 1.377 . S
C237 C250 1.479 . S
C238 C235 1.480 . S
C238 C239 1.383 . S
C238 C243 1.385 . S
C239 H220 0.947 . S
C239 C238 1.383 . S
C239 C240 1.388 . S
C240 H221 0.946 . S
C240 C239 1.388 . S
C240 C241 1.384 . S
C241 C240 1.384 . S
C241 C242 1.377 . S
C242 H222 0.953 . S
C242 C241 1.377 . S
C242 C243 1.369 . S
C243 H223 0.945 . S
C243 C238 1.385 . S
C243 C242 1.369 . S
C244 C236 1.457 . S
C244 C245 1.372 . S
C244 C249 1.364 . S
C245 H224 0.952 . S
C245 C244 1.372 . S
C245 C246 1.389 . S
C246 H225 0.949 . S
C246 C245 1.389 . S
C246 C247 1.387 . S
C247 C246 1.387 . S
C247 C248 1.372 . S
C248 H226 0.950 . S
C248 C247 1.372 . S
C248 C249 1.379 . S
C249 H227 0.948 . S
C249 C244 1.364 . S
C249 C248 1.379 . S
C250 C219 1.383 . S
C250 C237 1.479 . S
C250 C251 1.398 . S
C251 C216 1.382 . S
C251 H228 0.951 . S
C251 C250 1.398 . S
C252 C253 1.384 . S
C252 H265 0.947 . S
C252 C287 1.382 . S
C253 C252 1.384 . S
C253 C254 1.378 . S
C254 C253 1.378 . S
C254 C255 1.378 . S
C254 H266 0.952 . S
C255 C254 1.378 . S
C255 H267 0.950 . S
C255 C286 1.383 . S
H256 C275 0.947 . S
H257 C276 0.946 . S
H258 C278 0.953 . S
H259 C279 0.945 . S
H260 C281 0.952 . S
H261 C282 0.949 . S
H262 C284 0.950 . S
H263 C285 0.948 . S
H264 C287 0.951 . S
H265 C252 0.947 . S
H266 C254 0.952 . S
H267 C255 0.950 . S
N268 C271 1.382 . S
N268 C273 1.363 . S
N269 C271 1.371 . S
N269 C272 1.372 . S
N270 C272 1.361 . S
N270 C273 1.377 . S
C271 N268 1.382 . S
C271 N269 1.371 . S
C271 C274 1.480 . S
C272 N269 1.372 . S
C272 N270 1.361 . S
C272 C280 1.457 . S
C273 N268 1.363 . S
C273 N270 1.377 . S
C273 C286 1.479 . S
C274 C271 1.480 . S
C274 C275 1.383 . S
C274 C279 1.385 . S
C275 H256 0.947 . S
C275 C274 1.383 . S
C275 C276 1.388 . S
C276 H257 0.946 . S
C276 C275 1.388 . S
C276 C277 1.384 . S
C277 C276 1.384 . S
C277 C278 1.377 . S
C278 H258 0.953 . S
C278 C277 1.377 . S
C278 C279 1.369 . S
C279 H259 0.945 . S
C279 C274 1.385 . S
C279 C278 1.369 . S
C280 C272 1.457 . S
C280 C281 1.372 . S
C280 C285 1.364 . S
C281 H260 0.952 . S
C281 C280 1.372 . S
C281 C282 1.389 . S
C282 H261 0.949 . S
C282 C281 1.389 . S
C282 C283 1.387 . S
C283 C282 1.387 . S
C283 C284 1.372 . S
C284 H262 0.950 . S
C284 C283 1.372 . S
C284 C285 1.379 . S
C285 H263 0.948 . S
C285 C280 1.364 . S
C285 C284 1.379 . S
C286 C255 1.383 . S
C286 C273 1.479 . S
C286 C287 1.398 . S
C287 C252 1.382 . S
C287 H264 0.951 . S
C287 C286 1.398 . S
Tb288 C297 2.764 . S
Tb288 O298 2.325 1_455 S
Tb288 O301 2.303 . S
Tb288 O305 2.322 1_545 S
Tb288 O306 2.349 1_545 S
Tb288 O309 2.415 . S
Tb288 O310 2.399 . S
Tb289 O299 2.317 1_565 S
Tb289 O300 2.343 1_565 S
Tb289 O302 2.421 . S
Tb289 O303 2.400 . S
Tb289 O304 2.329 1_655 S
Tb289 O307 2.308 . S
Tb289 C318 2.768 . S
C290 O306 1.261 1_655 S
C290 O307 1.257 . S
C291 C294 1.358 . S
C291 C295 1.332 . S
C291 C297 1.504 . S
C292 C293 1.373 . S
C292 C296 1.308 . S
C293 C292 1.373 . S
C293 C294 1.429 . S
C293 H320 0.932 . S
C294 C291 1.358 . S
C294 C293 1.429 . S
C294 H321 0.930 . S
C295 C291 1.332 . S
C295 C296 1.394 . S
C295 H322 0.932 . S
C296 C292 1.308 . S
C296 C295 1.394 . S
C296 H323 0.929 . S
C297 Tb288 2.764 . S
C297 C291 1.504 . S
C297 O309 1.239 . S
C297 O310 1.263 . S
O298 Tb288 2.325 1_655 S
O298 C308 1.236 . S
O299 Tb289 2.317 1_545 S
O299 C308 1.257 . S
O300 Tb289 2.343 1_545 S
O300 C311 1.261 1_655 S
O301 Tb288 2.303 . S
O301 C311 1.257 . S
O302 Tb289 2.421 . S
O302 C318 1.239 . S
O303 Tb289 2.400 . S
O303 C318 1.263 . S
O304 Tb289 2.329 1_455 S
O304 C319 1.236 . S
O305 Tb288 2.322 1_565 S
O305 C319 1.257 . S
O306 Tb288 2.349 1_565 S
O306 C290 1.261 1_455 S
O307 Tb289 2.308 . S
O307 C290 1.257 . S
C308 O298 1.236 . S
C308 O299 1.257 . S
O309 Tb288 2.415 . S
O309 C297 1.239 . S
O310 Tb288 2.399 . S
O310 C297 1.263 . S
C311 O300 1.261 1_455 S
C311 O301 1.257 . S
C312 C315 1.358 . S
C312 C316 1.332 . S
C312 C318 1.504 . S
C313 C314 1.373 . S
C313 C317 1.308 . S
C314 C313 1.373 . S
C314 C315 1.429 . S
C314 H324 0.932 . S
C315 C312 1.358 . S
C315 C314 1.429 . S
C315 H325 0.930 . S
C316 C312 1.332 . S
C316 C317 1.394 . S
C316 H326 0.932 . S
C317 C313 1.308 . S
C317 C316 1.394 . S
C317 H327 0.929 . S
C318 Tb289 2.768 . S
C318 O302 1.239 . S
C318 O303 1.263 . S
C318 C312 1.504 . S
C319 O304 1.236 . S
C319 O305 1.257 . S
H320 C293 0.932 . S
H321 C294 0.930 . S
H322 C295 0.932 . S
H323 C296 0.929 . S
H324 C314 0.932 . S
H325 C315 0.930 . S
H326 C316 0.932 . S
H327 C317 0.929 . S
Tb328 C337 2.764 . S
Tb328 O338 2.325 1_554 S
Tb328 O341 2.303 . S
Tb328 O345 2.322 1_545 S
Tb328 O346 2.349 1_544 S
Tb328 O349 2.415 . S
Tb328 O350 2.399 . S
Tb329 O339 2.322 1_565 S
Tb329 O340 2.349 1_566 S
Tb329 O342 2.415 . S
Tb329 O343 2.399 . S
Tb329 O344 2.325 1_556 S
Tb329 O347 2.303 . S
Tb329 C358 2.764 . S
C330 O346 1.261 . S
C330 O347 1.257 . S
C331 C334 1.358 . S
C331 C335 1.332 . S
C331 C337 1.504 . S
C332 C333 1.373 . S
C332 C336 1.308 . S
C333 C332 1.373 . S
C333 C334 1.429 . S
C333 H360 0.932 . S
C334 C331 1.358 . S
C334 C333 1.429 . S
C334 H361 0.930 . S
C335 C331 1.332 . S
C335 C336 1.394 . S
C335 H362 0.932 . S
C336 C332 1.308 . S
C336 C335 1.394 . S
C336 H363 0.929 . S
C337 Tb328 2.764 . S
C337 C331 1.504 . S
C337 O349 1.239 . S
C337 O350 1.263 . S
O338 Tb328 2.325 1_556 S
O338 C348 1.236 . S
O339 Tb329 2.322 1_545 S
O339 C348 1.257 . S
O340 Tb329 2.349 1_544 S
O340 C351 1.261 . S
O341 Tb328 2.303 . S
O341 C351 1.257 . S
O342 Tb329 2.415 . S
O342 C358 1.239 . S
O343 Tb329 2.399 . S
O343 C358 1.263 . S
O344 Tb329 2.325 1_554 S
O344 C359 1.236 . S
O345 Tb328 2.322 1_565 S
O345 C359 1.257 . S
O346 Tb328 2.349 1_566 S
O346 C330 1.261 . S
O347 Tb329 2.303 . S
O347 C330 1.257 . S
C348 O338 1.236 . S
C348 O339 1.257 . S
O349 Tb328 2.415 . S
O349 C337 1.239 . S
O350 Tb328 2.399 . S
O350 C337 1.263 . S
C351 O340 1.261 . S
C351 O341 1.257 . S
C352 C355 1.358 . S
C352 C356 1.332 . S
C352 C358 1.504 . S
C353 C354 1.373 . S
C353 C357 1.308 . S
C354 C353 1.373 . S
C354 C355 1.429 . S
C354 H364 0.932 . S
C355 C352 1.358 . S
C355 C354 1.429 . S
C355 H365 0.930 . S
C356 C352 1.332 . S
C356 C357 1.394 . S
C356 H366 0.932 . S
C357 C353 1.308 . S
C357 C356 1.394 . S
C357 H367 0.929 . S
C358 Tb329 2.764 . S
C358 O342 1.239 . S
C358 O343 1.263 . S
C358 C352 1.504 . S
C359 O344 1.236 . S
C359 O345 1.257 . S
H360 C333 0.932 . S
H361 C334 0.930 . S
H362 C335 0.932 . S
H363 C336 0.929 . S
H364 C354 0.932 . S
H365 C355 0.930 . S
H366 C356 0.932 . S
H367 C357 0.929 . S
Tb368 C377 2.764 . S
Tb368 O378 2.325 . S
Tb368 O381 2.303 . S
Tb368 O385 2.322 . S
Tb368 O386 2.349 . S
Tb368 O389 2.415 . S
Tb368 O390 2.399 . S
Tb369 O379 2.322 . S
Tb369 O380 2.349 . S
Tb369 O382 2.415 . S
Tb369 O383 2.399 . S
Tb369 O384 2.325 . S
Tb369 O387 2.303 . S
Tb369 C398 2.764 . S
C370 O386 1.261 . S
C370 O387 1.257 . S
C371 C374 1.358 . S
C371 C375 1.332 . S
C371 C377 1.504 . S
C372 C373 1.373 . S
C372 C376 1.308 . S
C373 C372 1.373 . S
C373 C374 1.429 . S
C373 H400 0.932 . S
C374 C371 1.358 . S
C374 C373 1.429 . S
C374 H401 0.930 . S
C375 C371 1.332 . S
C375 C376 1.394 . S
C375 H402 0.932 . S
C376 C372 1.308 . S
C376 C375 1.394 . S
C376 H403 0.929 . S
C377 Tb368 2.764 . S
C377 C371 1.504 . S
C377 O389 1.239 . S
C377 O390 1.263 . S
O378 Tb368 2.325 . S
O378 C388 1.236 . S
O379 Tb369 2.322 . S
O379 C388 1.257 . S
O380 Tb369 2.349 . S
O380 C391 1.261 . S
O381 Tb368 2.303 . S
O381 C391 1.257 . S
O382 Tb369 2.415 . S
O382 C398 1.239 . S
O383 Tb369 2.399 . S
O383 C398 1.263 . S
O384 Tb369 2.325 . S
O384 C399 1.236 . S
O385 Tb368 2.322 . S
O385 C399 1.257 . S
O386 Tb368 2.349 . S
O386 C370 1.261 . S
O387 Tb369 2.303 . S
O387 C370 1.257 . S
C388 O378 1.236 . S
C388 O379 1.257 . S
O389 Tb368 2.415 . S
O389 C377 1.239 . S
O390 Tb368 2.399 . S
O390 C377 1.263 . S
C391 O380 1.261 . S
C391 O381 1.257 . S
C392 C395 1.358 . S
C392 C396 1.332 . S
C392 C398 1.504 . S
C393 C394 1.373 . S
C393 C397 1.308 . S
C394 C393 1.373 . S
C394 C395 1.429 . S
C394 H404 0.932 . S
C395 C392 1.358 . S
C395 C394 1.429 . S
C395 H405 0.930 . S
C396 C392 1.332 . S
C396 C397 1.394 . S
C396 H406 0.932 . S
C397 C393 1.308 . S
C397 C396 1.394 . S
C397 H407 0.929 . S
C398 Tb369 2.764 . S
C398 O382 1.239 . S
C398 O383 1.263 . S
C398 C392 1.504 . S
C399 O384 1.236 . S
C399 O385 1.257 . S
H400 C373 0.932 . S
H401 C374 0.930 . S
H402 C375 0.932 . S
H403 C376 0.929 . S
H404 C394 0.932 . S
H405 C395 0.930 . S
H406 C396 0.932 . S
H407 C397 0.929 . S
Tb408 C417 2.764 . S
Tb408 O418 2.325 . S
Tb408 O421 2.303 1_556 S
Tb408 O425 2.313 1_656 S
Tb408 O426 2.349 1_655 S
Tb408 O429 2.415 . S
Tb408 O430 2.399 . S
Tb409 O419 2.322 1_455 S
Tb409 O420 2.349 1_455 S
Tb409 O422 2.415 . S
Tb409 O423 2.399 . S
Tb409 O424 2.325 . S
Tb409 O427 2.303 1_554 S
Tb409 C438 2.764 . S
C410 O426 1.261 . S
C410 O427 1.257 . S
C411 C414 1.358 . S
C411 C415 1.332 . S
C411 C417 1.504 . S
C412 C413 1.373 . S
C412 C416 1.308 . S
C413 C412 1.373 . S
C413 C414 1.429 . S
C413 H440 0.932 . S
C414 C411 1.358 . S
C414 C413 1.429 . S
C414 H441 0.930 . S
C415 C411 1.332 . S
C415 C416 1.394 . S
C415 H442 0.932 . S
C416 C412 1.308 . S
C416 C415 1.394 . S
C416 H443 0.929 . S
C417 Tb408 2.764 . S
C417 C411 1.504 . S
C417 O429 1.239 . S
C417 O430 1.263 . S
O418 Tb408 2.325 . S
O418 C428 1.236 . S
O419 Tb409 2.322 1_655 S
O419 C428 1.257 1_554 S
O420 Tb409 2.349 1_655 S
O420 C431 1.261 . S
O421 Tb408 2.303 1_554 S
O421 C431 1.257 . S
O422 Tb409 2.415 . S
O422 C438 1.239 . S
O423 Tb409 2.399 . S
O423 C438 1.263 . S
O424 Tb409 2.325 . S
O424 C439 1.236 . S
O425 Tb408 2.313 1_454 S
O425 C439 1.272 . S
O426 Tb408 2.349 1_455 S
O426 C410 1.261 . S
O427 Tb409 2.303 1_556 S
O427 C410 1.257 . S
C428 O418 1.236 . S
C428 O419 1.257 1_556 S
O429 Tb408 2.415 . S
O429 C417 1.239 . S
O430 Tb408 2.399 . S
O430 C417 1.263 . S
C431 O420 1.261 . S
C431 O421 1.257 . S
C432 C435 1.358 . S
C432 C436 1.332 . S
C432 C438 1.504 . S
C433 C434 1.373 . S
C433 C437 1.308 . S
C434 C433 1.373 . S
C434 C435 1.429 . S
C434 H444 0.932 . S
C435 C432 1.358 . S
C435 C434 1.429 . S
C435 H445 0.930 . S
C436 C432 1.332 . S
C436 C437 1.394 . S
C436 H446 0.932 . S
C437 C433 1.308 . S
C437 C436 1.394 . S
C437 H447 0.929 . S
C438 Tb409 2.764 . S
C438 O422 1.239 . S
C438 O423 1.263 . S
C438 C432 1.504 . S
C439 O424 1.236 . S
C439 O425 1.272 . S
H440 C413 0.932 . S
H441 C414 0.930 . S
H442 C415 0.932 . S
H443 C416 0.929 . S
H444 C434 0.932 . S
H445 C435 0.930 . S
H446 C436 0.932 . S
H447 C437 0.929 . S
C448 C449 1.369 . S
C448 C450 1.419 . S
C448 H452 0.930 . S
C449 C448 1.369 . S
C449 C458 1.429 . S
C450 C448 1.419 . S
C450 C451 1.363 . S
C450 H453 0.929 . S
C451 C450 1.363 . S
C451 C457 1.428 . S
H452 C448 0.930 . S
H453 C450 0.929 . S
S454 N455 1.613 . S
S454 N456 1.610 . S
N455 S454 1.613 . S
N455 C458 1.350 . S
N456 S454 1.610 . S
N456 C457 1.351 . S
C457 C451 1.428 . S
C457 N456 1.351 . S
C457 C458 1.434 . S
C458 C449 1.429 . S
C458 N455 1.350 . S
C458 C457 1.434 . S
C459 C460 1.369 . S
C459 C461 1.419 . S
C459 H463 0.930 . S
C460 C459 1.369 . S
C460 C469 1.429 . S
C461 C459 1.419 . S
C461 C462 1.363 . S
C461 H464 0.929 . S
C462 C461 1.363 . S
C462 C468 1.428 . S
H463 C459 0.930 . S
H464 C461 0.929 . S
S465 N466 1.613 . S
S465 N467 1.610 . S
N466 S465 1.613 . S
N466 C469 1.350 . S
N467 S465 1.610 . S
N467 C468 1.351 . S
C468 C462 1.428 . S
C468 N467 1.351 . S
C468 C469 1.434 . S
C469 C460 1.429 . S
C469 N466 1.350 . S
C469 C468 1.434 . S
C470 C471 1.369 . S
C470 C472 1.419 . S
C470 H474 0.930 . S
C471 C470 1.369 . S
C471 C480 1.429 . S
C472 C470 1.419 . S
C472 C473 1.363 . S
C472 H475 0.929 . S
C473 C472 1.363 . S
C473 C479 1.428 . S
H474 C470 0.930 . S
H475 C472 0.929 . S
S476 N477 1.613 . S
S476 N478 1.610 . S
N477 S476 1.613 . S
N477 C480 1.350 . S
N478 S476 1.610 . S
N478 C479 1.351 . S
C479 C473 1.428 . S
C479 N478 1.351 . S
C479 C480 1.434 . S
C480 C471 1.429 . S
C480 N477 1.350 . S
C480 C479 1.434 . S
C481 C482 1.369 . S
C481 C483 1.419 . S
C481 H485 0.930 . S
C482 C481 1.369 . S
C482 C491 1.429 . S
C483 C481 1.419 . S
C483 C484 1.363 . S
C483 H486 0.929 . S
C484 C483 1.363 . S
C484 C490 1.428 . S
H485 C481 0.930 . S
H486 C483 0.929 . S
S487 N488 1.613 . S
S487 N489 1.610 . S
N488 S487 1.613 . S
N488 C491 1.350 . S
N489 S487 1.610 . S
N489 C490 1.351 . S
C490 C484 1.428 . S
C490 N489 1.351 . S
C490 C491 1.434 . S
C491 C482 1.429 . S
C491 N488 1.350 . S
C491 C490 1.434 . S
C492 C493 1.369 . S
C492 C494 1.419 . S
C492 H496 0.930 . S
C493 C492 1.369 . S
C493 C502 1.429 . S
C494 C492 1.419 . S
C494 C495 1.363 . S
C494 H497 0.929 . S
C495 C494 1.363 . S
C495 C501 1.428 . S
H496 C492 0.930 . S
H497 C494 0.929 . S
S498 N499 1.613 1_556 S
S498 N500 1.607 1_556 S
N499 S498 1.613 1_554 S
N499 C502 1.350 . S
N500 S498 1.607 1_554 S
N500 C501 1.365 . S
C501 C495 1.428 . S
C501 N500 1.365 . S
C501 C502 1.434 . S
C502 C493 1.429 . S
C502 N499 1.350 . S
C502 C501 1.434 . S
C503 C504 1.369 . S
C503 C505 1.419 . S
C503 H507 0.930 1_455 S
C504 C503 1.369 . S
C504 C513 1.429 . S
C505 C503 1.419 . S
C505 C506 1.363 . S
C505 H508 0.929 1_455 S
C506 C505 1.363 . S
C506 C512 1.428 . S
H507 C503 0.930 1_655 S
H508 C505 0.929 1_655 S
S509 N510 1.613 . S
S509 N511 1.610 . S
N510 S509 1.613 . S
N510 C513 1.350 . S
N511 S509 1.610 . S
N511 C512 1.351 . S
C512 C506 1.428 . S
C512 N511 1.351 . S
C512 C513 1.434 . S
C513 C504 1.429 . S
C513 N510 1.350 . S
C513 C512 1.434 . S
C514 C515 1.369 . S
C514 C516 1.419 . S
C514 H518 0.930 . S
C515 C514 1.369 . S
C515 C524 1.429 . S
C516 C514 1.419 . S
C516 C517 1.363 . S
C516 H519 0.931 1_556 S
C517 C516 1.363 . S
C517 C523 1.428 . S
H518 C514 0.930 . S
H519 C516 0.931 1_554 S
S520 N521 1.613 . S
S520 N522 1.610 . S
N521 S520 1.613 . S
N521 C524 1.350 . S
N522 S520 1.610 . S
N522 C523 1.351 . S
C523 C517 1.428 . S
C523 N522 1.351 . S
C523 C524 1.434 . S
C524 C515 1.429 . S
C524 N521 1.350 . S
C524 C523 1.434 . S
C525 C526 1.369 . S
C525 C527 1.419 . S
C525 H529 0.930 . S
C526 C525 1.369 . S
C526 C535 1.429 . S
C527 C525 1.419 . S
C527 C528 1.363 . S
C527 H530 0.929 . S
C528 C527 1.363 . S
C528 C534 1.428 . S
H529 C525 0.930 . S
H530 C527 0.929 . S
S531 N532 1.613 . S
S531 N533 1.610 . S
N532 S531 1.613 . S
N532 C535 1.350 . S
N533 S531 1.610 . S
N533 C534 1.351 . S
C534 C528 1.428 . S
C534 N533 1.351 . S
C534 C535 1.434 . S
C535 C526 1.429 . S
C535 N532 1.350 . S
C535 C534 1.434 . S
C536 C537 1.369 . S
C536 C538 1.419 . S
C536 H540 0.930 . S
C537 C536 1.369 . S
C537 C546 1.429 . S
C538 C536 1.419 . S
C538 C539 1.363 . S
C538 H541 0.929 . S
C539 C538 1.363 . S
C539 C545 1.428 . S
H540 C536 0.930 . S
H541 C538 0.929 . S
S542 N543 1.613 . S
S542 N544 1.610 . S
N543 S542 1.613 . S
N543 C546 1.350 . S
N544 S542 1.610 . S
N544 C545 1.351 . S
C545 C539 1.428 . S
C545 N544 1.351 . S
C545 C546 1.434 . S
C546 C537 1.429 . S
C546 N543 1.350 . S
C546 C545 1.434 . S
C547 C548 1.369 . S
C547 C549 1.419 . S
C547 H551 0.930 . S
C548 C547 1.369 . S
C548 C557 1.429 . S
C549 C547 1.419 . S
C549 C550 1.363 . S
C549 H552 0.929 . S
C550 C549 1.363 . S
C550 C556 1.428 . S
H551 C547 0.930 . S
H552 C549 0.929 . S
S553 N554 1.613 1_554 S
S553 N555 1.610 . S
N554 S553 1.613 1_556 S
N554 C557 1.350 . S
N555 S553 1.610 . S
N555 C556 1.351 1_554 S
C556 C550 1.428 . S
C556 N555 1.351 1_556 S
C556 C557 1.434 . S
C557 C548 1.429 . S
C557 N554 1.350 . S
C557 C556 1.434 . S
C558 C559 1.369 . S
C558 C560 1.419 . S
C558 H562 0.930 . S
C559 C558 1.369 . S
C559 C568 1.429 . S
C560 C558 1.419 . S
C560 C561 1.363 . S
C560 H563 0.929 . S
C561 C560 1.363 . S
C561 C567 1.428 . S
H562 C558 0.930 . S
H563 C560 0.929 . S
S564 N565 1.613 . S
S564 N566 1.610 . S
N565 S564 1.613 . S
N565 C568 1.350 . S
N566 S564 1.610 . S
N566 C567 1.351 . S
C567 C561 1.428 . S
C567 N566 1.351 . S
C567 C568 1.434 . S
C568 C559 1.429 . S
C568 N565 1.350 . S
C568 C567 1.434 . S
C569 C570 1.369 . S
C569 C571 1.419 . S
C569 H573 0.930 . S
C570 C569 1.369 . S
C570 C579 1.429 . S
C571 C569 1.419 . S
C571 C572 1.363 . S
C571 H574 0.929 . S
C572 C571 1.363 . S
C572 C578 1.428 . S
H573 C569 0.930 . S
H574 C571 0.929 . S
S575 N576 1.613 . S
S575 N577 1.610 . S
N576 S575 1.613 . S
N576 C579 1.350 . S
N577 S575 1.610 . S
N577 C578 1.351 . S
C578 C572 1.428 . S
C578 N577 1.351 . S
C578 C579 1.434 . S
C579 C570 1.429 . S
C579 N576 1.350 . S
C579 C578 1.434 . S
C580 C581 1.369 . S
C580 C582 1.419 . S
C580 H584 0.930 . S
C581 C580 1.369 . S
C581 C590 1.429 . S
C582 C580 1.419 . S
C582 C583 1.363 . S
C582 H585 0.929 . S
C583 C582 1.363 . S
C583 C589 1.428 . S
H584 C580 0.930 . S
H585 C582 0.929 . S
S586 N587 1.613 . S
S586 N588 1.610 . S
N587 S586 1.613 . S
N587 C590 1.350 . S
N588 S586 1.610 . S
N588 C589 1.351 . S
C589 C583 1.428 . S
C589 N588 1.351 . S
C589 C590 1.434 . S
C590 C581 1.429 . S
C590 N587 1.350 . S
C590 C589 1.434 . S
C591 C592 1.369 . S
C591 C593 1.419 . S
C591 H595 0.930 . S
C592 C591 1.369 . S
C592 C601 1.429 . S
C593 C591 1.419 . S
C593 C594 1.363 . S
C593 H596 0.929 . S
C594 C593 1.363 . S
C594 C600 1.428 . S
H595 C591 0.930 . S
H596 C593 0.929 . S
S597 N598 1.613 . S
S597 N599 1.610 . S
N598 S597 1.613 . S
N598 C601 1.350 . S
N599 S597 1.610 . S
N599 C600 1.351 . S
C600 C594 1.428 . S
C600 N599 1.351 . S
C600 C601 1.434 . S
C601 C592 1.429 . S
C601 N598 1.350 . S
C601 C600 1.434 . S
C602 C603 1.369 . S
C602 C604 1.419 . S
C602 H606 0.930 . S
C603 C602 1.369 . S
C603 C612 1.429 . S
C604 C602 1.419 . S
C604 C605 1.363 . S
C604 H607 0.929 . S
C605 C604 1.363 . S
C605 C611 1.428 . S
H606 C602 0.930 . S
H607 C604 0.929 . S
S608 N609 1.613 . S
S608 N610 1.610 . S
N609 S608 1.613 . S
N609 C612 1.350 . S
N610 S608 1.610 . S
N610 C611 1.351 . S
C611 C605 1.428 . S
C611 N610 1.351 . S
C611 C612 1.434 . S
C612 C603 1.429 . S
C612 N609 1.350 . S
C612 C611 1.434 . S
C613 C614 1.369 . S
C613 C615 1.419 . S
C613 H617 0.930 . S
C614 C613 1.369 . S
C614 C623 1.429 . S
C615 C613 1.419 . S
C615 C616 1.363 . S
C615 H618 0.929 . S
C616 C615 1.363 . S
C616 C622 1.428 . S
H617 C613 0.930 . S
H618 C615 0.929 . S
S619 N620 1.613 . S
S619 N621 1.610 . S
N620 S619 1.613 . S
N620 C623 1.350 . S
N621 S619 1.610 . S
N621 C622 1.351 . S
C622 C616 1.428 . S
C622 N621 1.351 . S
C622 C623 1.434 . S
C623 C614 1.429 . S
C623 N620 1.350 . S
C623 C622 1.434 . S
C624 C625 1.369 . S
C624 C626 1.419 . S
C624 H628 0.930 . S
C625 C624 1.369 . S
C625 C634 1.429 . S
C626 C624 1.419 . S
C626 C627 1.363 . S
C626 H629 0.929 . S
C627 C626 1.363 . S
C627 C633 1.428 . S
H628 C624 0.930 . S
H629 C626 0.929 . S
S630 N631 1.613 . S
S630 N632 1.610 . S
N631 S630 1.613 . S
N631 C634 1.350 . S
N632 S630 1.610 . S
N632 C633 1.351 . S
C633 C627 1.428 . S
C633 N632 1.351 . S
C633 C634 1.434 . S
C634 C625 1.429 . S
C634 N631 1.350 . S
C634 C633 1.434 . S
C635 C636 1.369 . S
C635 C637 1.419 . S
C635 H639 0.930 1_655 S
C636 C635 1.369 . S
C636 C645 1.429 . S
C637 C635 1.419 . S
C637 C638 1.363 . S
C637 H640 0.929 1_655 S
C638 C637 1.363 . S
C638 C644 1.428 . S
H639 C635 0.930 1_455 S
H640 C637 0.929 1_455 S
S641 N642 1.613 . S
S641 N643 1.610 . S
N642 S641 1.613 . S
N642 C645 1.350 . S
N643 S641 1.610 . S
N643 C644 1.351 . S
C644 C638 1.428 . S
C644 N643 1.351 . S
C644 C645 1.434 . S
C645 C636 1.429 . S
C645 N642 1.350 . S
C645 C644 1.434 . S
C646 C647 1.369 . S
C646 C648 1.419 . S
C646 H650 0.930 . S
C647 C646 1.369 . S
C647 C656 1.429 . S
C648 C646 1.419 . S
C648 C649 1.363 . S
C648 H651 0.929 . S
C649 C648 1.363 . S
C649 C655 1.428 . S
H650 C646 0.930 . S
H651 C648 0.929 . S
S652 N653 1.613 1_556 S
S652 N654 1.610 . S
N653 S652 1.613 1_554 S
N653 C656 1.350 . S
N654 S652 1.610 . S
N654 C655 1.351 1_556 S
C655 C649 1.428 . S
C655 N654 1.351 1_554 S
C655 C656 1.434 . S
C656 C647 1.429 . S
C656 N653 1.350 . S
C656 C655 1.434 . S
C657 C658 1.369 . S
C657 C659 1.419 . S
C657 H661 0.930 . S
C658 C657 1.369 . S
C658 C667 1.429 . S
C659 C657 1.419 . S
C659 C660 1.363 . S
C659 H662 0.929 . S
C660 C659 1.363 . S
C660 C666 1.428 . S
H661 C657 0.930 . S
H662 C659 0.929 . S
S663 N664 1.613 . S
S663 N665 1.610 . S
N664 S663 1.613 . S
N664 C667 1.350 . S
N665 S663 1.610 . S
N665 C666 1.351 . S
C666 C660 1.428 . S
C666 N665 1.351 . S
C666 C667 1.434 . S
C667 C658 1.429 . S
C667 N664 1.350 . S
C667 C666 1.434 . S
C668 C669 1.369 . S
C668 C670 1.419 . S
C668 H672 0.930 . S
C669 C668 1.369 . S
C669 C678 1.429 . S
C670 C668 1.419 . S
C670 C671 1.363 . S
C670 H673 0.929 . S
C671 C670 1.363 . S
C671 C677 1.428 . S
H672 C668 0.930 . S
H673 C670 0.929 . S
S674 N675 1.613 . S
S674 N676 1.610 . S
N675 S674 1.613 . S
N675 C678 1.350 . S
N676 S674 1.610 . S
N676 C677 1.351 . S
C677 C671 1.428 . S
C677 N676 1.351 . S
C677 C678 1.434 . S
C678 C669 1.429 . S
C678 N675 1.350 . S
C678 C677 1.434 . S
C679 C680 1.369 . S
C679 C681 1.419 . S
C679 H683 0.930 . S
C680 C679 1.369 . S
C680 C689 1.429 . S
C681 C679 1.419 . S
C681 C682 1.363 . S
C681 H684 0.929 . S
C682 C681 1.363 . S
C682 C688 1.428 . S
H683 C679 0.930 . S
H684 C681 0.929 . S
S685 N686 1.613 . S
S685 N687 1.610 . S
N686 S685 1.613 . S
N686 C689 1.350 . S
N687 S685 1.610 . S
N687 C688 1.351 . S
C688 C682 1.428 . S
C688 N687 1.351 . S
C688 C689 1.434 . S
C689 C680 1.429 . S
C689 N686 1.350 . S
C689 C688 1.434 . S
C690 C691 1.369 . S
C690 C692 1.419 . S
C690 H694 0.930 . S
C691 C690 1.369 . S
C691 C700 1.429 . S
C692 C690 1.419 . S
C692 C693 1.363 . S
C692 H695 0.929 . S
C693 C692 1.363 . S
C693 C699 1.428 . S
H694 C690 0.930 . S
H695 C692 0.929 . S
S696 N697 1.613 . S
S696 N698 1.610 . S
N697 S696 1.613 . S
N697 C700 1.350 . S
N698 S696 1.610 . S
N698 C699 1.351 . S
C699 C693 1.428 . S
C699 N698 1.351 . S
C699 C700 1.434 . S
C700 C691 1.429 . S
C700 N697 1.350 . S
C700 C699 1.434 . S
C701 C702 1.369 . S
C701 C703 1.419 . S
C701 H705 0.930 . S
C702 C701 1.369 . S
C702 C711 1.429 . S
C703 C701 1.419 . S
C703 C704 1.363 . S
C703 H706 0.929 . S
C704 C703 1.363 . S
C704 C710 1.428 . S
H705 C701 0.930 . S
H706 C703 0.929 . S
S707 N708 1.613 . S
S707 N709 1.610 . S
N708 S707 1.613 . S
N708 C711 1.350 . S
N709 S707 1.610 . S
N709 C710 1.351 . S
C710 C704 1.428 . S
C710 N709 1.351 . S
C710 C711 1.434 . S
C711 C702 1.429 . S
C711 N708 1.350 . S
C711 C710 1.434 . S
C449 C1 1.106 . S
C451 C292 1.110 . S
C460 C67 1.253 . S
C462 C353 1.310 . S
C473 C391 2.511 . S
C471 C97 2.565 . S
C482 C133 2.431 . S
C484 C431 2.375 . S
C495 C351 1.505 . S
C493 C25 1.435 . S
C506 C319 2.262 . S
C504 C37 2.127 . S
C517 C428 1.808 . S
C515 C103 1.814 . S
C528 C388 1.903 . S
C526 C109 1.930 . S
C537 C31 1.334 . S
C539 C433 1.387 . S
C550 C348 2.390 . S
C548 C73 2.380 . S
C559 C139 2.262 . S
C561 C290 2.219 . S
C570 C61 1.672 . S
C572 C393 1.751 . S
C583 C313 1.115 . S
C581 C175 1.047 . S
C592 C181 1.231 . S
C594 C332 1.291 . S
C603 C247 2.609 . S
C605 C370 2.535 . S
C614 C277 2.412 . S
C616 C410 2.363 . S
C625 C145 1.348 . S
C627 C330 1.494 . S
C638 C308 2.265 . S
C636 C211 2.133 . S
C649 C439 1.801 . S
C647 C217 1.805 . S
C660 C399 1.921 . S
C658 C283 1.938 . S
C669 C169 1.264 . S
C671 C412 1.375 . S
C682 C359 2.399 . S
C680 C241 2.408 . S
C693 C311 2.203 . S
C691 C253 2.255 . S
C702 C205 1.717 . S
C704 C372 1.753 . S
