# Generated by pormake.
# Topology zzz, (3,6)-cn, num edge types: 1
# Building blocks:
#     Node 0, Type 0, BuildingBlock: VETTIZ_charged_linker_0, # of connection points: 3
#     Node 1, Type 0, BuildingBlock: VETTIZ_charged_linker_0, # of connection points: 3
#     Node 2, Type 0, BuildingBlock: VETTIZ_charged_linker_0, # of connection points: 3
#     Node 3, Type 0, BuildingBlock: VETTIZ_charged_linker_0, # of connection points: 3
#     Node 4, Type 0, BuildingBlock: VETTIZ_charged_linker_0, # of connection points: 3
#     Node 5, Type 0, BuildingBlock: VETTIZ_charged_linker_0, # of connection points: 3
#     Node 6, Type 0, BuildingBlock: VETTIZ_charged_linker_0, # of connection points: 3
#     Node 7, Type 0, BuildingBlock: VETTIZ_charged_linker_0, # of connection points: 3
#     Node 8, Type 1, BuildingBlock: JUFBIX_clean_sbu_0, # of connection points: 6
#     Node 9, Type 1, BuildingBlock: JUFBIX_clean_sbu_0, # of connection points: 6
#     Node 10, Type 1, BuildingBlock: JUFBIX_clean_sbu_0, # of connection points: 6
#     Node 11, Type 1, BuildingBlock: JUFBIX_clean_sbu_0, # of connection points: 6
#     Edge 12, Type (0, 1), BuildingBlock: AJUNOK_clean_linker_0, # of connection points: 2
#     Edge 13, Type (0, 1), BuildingBlock: AJUNOK_clean_linker_0, # of connection points: 2
#     Edge 14, Type (0, 1), BuildingBlock: AJUNOK_clean_linker_0, # of connection points: 2
#     Edge 15, Type (0, 1), BuildingBlock: AJUNOK_clean_linker_0, # of connection points: 2
#     Edge 16, Type (0, 1), BuildingBlock: AJUNOK_clean_linker_0, # of connection points: 2
#     Edge 17, Type (0, 1), BuildingBlock: AJUNOK_clean_linker_0, # of connection points: 2
#     Edge 18, Type (0, 1), BuildingBlock: AJUNOK_clean_linker_0, # of connection points: 2
#     Edge 19, Type (0, 1), BuildingBlock: AJUNOK_clean_linker_0, # of connection points: 2
#     Edge 20, Type (0, 1), BuildingBlock: AJUNOK_clean_linker_0, # of connection points: 2
#     Edge 21, Type (0, 1), BuildingBlock: AJUNOK_clean_linker_0, # of connection points: 2
#     Edge 22, Type (0, 1), BuildingBlock: AJUNOK_clean_linker_0, # of connection points: 2
#     Edge 23, Type (0, 1), BuildingBlock: AJUNOK_clean_linker_0, # of connection points: 2
#     Edge 24, Type (0, 1), BuildingBlock: AJUNOK_clean_linker_0, # of connection points: 2
#     Edge 25, Type (0, 1), BuildingBlock: AJUNOK_clean_linker_0, # of connection points: 2
#     Edge 26, Type (0, 1), BuildingBlock: AJUNOK_clean_linker_0, # of connection points: 2
#     Edge 27, Type (0, 1), BuildingBlock: AJUNOK_clean_linker_0, # of connection points: 2
#     Edge 28, Type (0, 1), BuildingBlock: AJUNOK_clean_linker_0, # of connection points: 2
#     Edge 29, Type (0, 1), BuildingBlock: AJUNOK_clean_linker_0, # of connection points: 2
#     Edge 30, Type (0, 1), BuildingBlock: AJUNOK_clean_linker_0, # of connection points: 2
#     Edge 31, Type (0, 1), BuildingBlock: AJUNOK_clean_linker_0, # of connection points: 2
#     Edge 32, Type (0, 1), BuildingBlock: AJUNOK_clean_linker_0, # of connection points: 2
#     Edge 33, Type (0, 1), BuildingBlock: AJUNOK_clean_linker_0, # of connection points: 2
#     Edge 34, Type (0, 1), BuildingBlock: AJUNOK_clean_linker_0, # of connection points: 2
#     Edge 35, Type (0, 1), BuildingBlock: AJUNOK_clean_linker_0, # of connection points: 2
# Relax obj value: 0.289
# Max RMSD: 0.234
# Mean RMSD: 0.189
data_MOF--net-zzz--node1-JUFBIX_clean_sbu_0--node2-VETTIZ_charged_linker_0--edge1-AJUNOK_clean_linker_0
_symmetry_space_group_name_H-M    P1
_symmetry_Int_Tables_number       1
_symmetry_cell_setting            triclinic
loop_
_symmetry_equiv_pos_as_xyz
'x, y, z'
_cell_length_a     44.806594
_cell_length_b     45.743609
_cell_length_c     17.879951
_cell_angle_alpha  80.49567
_cell_angle_beta   90.376128
_cell_angle_gamma 85.97137
loop_
_atom_site_label
_atom_site_type_symbol
_atom_site_fract_x
_atom_site_fract_y
_atom_site_fract_z
_atom_type_partial_charge
C0 C 0.83252 0.55377 0.5551 0.0
C1 C 0.86039 0.5669 0.55565 0.0
C2 C 0.8699 0.58378 0.48785 0.0
C3 C 0.83047 0.56642 0.41879 0.0
C4 C 0.81698 0.55526 0.48513 0.0
C5 C 0.78794 0.54218 0.46726 0.0
H6 H 0.7089 0.49876 0.17664 0.0
C7 C 0.81663 0.55507 0.35624 0.0
C8 C 0.78862 0.54562 0.38025 0.0
H9 H 0.67429 0.57048 0.2874 0.0
H10 H 0.72158 0.56717 0.36179 0.0
H11 H 0.7704 0.5284 0.13434 0.0
H12 H 0.75798 0.45993 0.3303 0.0
H13 H 0.78994 0.4523 0.27763 0.0
H14 H 0.75335 0.45258 0.23532 0.0
H15 H 0.75483 0.49407 0.12341 0.0
H16 H 0.79367 0.49499 0.13665 0.0
C17 C 0.76106 0.56016 0.49411 0.0
C18 C 0.7884 0.50924 0.50443 0.0
C19 C 0.89262 0.51239 0.1878 0.0
C20 C 0.89411 0.48646 0.15515 0.0
C21 C 0.86969 0.46844 0.16257 0.0
C22 C 0.84396 0.47667 0.2007 0.0
C23 C 0.84248 0.5034 0.22981 0.0
C24 C 0.86726 0.51974 0.22726 0.0
C25 C 0.86401 0.54424 0.27367 0.0
C26 C 0.83238 0.54042 0.30268 0.0
C27 C 0.81957 0.51731 0.27366 0.0
C28 C 0.86592 0.5743 0.2207 0.0
C29 C 0.88862 0.53847 0.33721 0.0
C30 C 0.71085 0.51266 0.21966 0.0
C31 C 0.68755 0.53393 0.22851 0.0
C32 C 0.69145 0.55313 0.28181 0.0
C33 C 0.71827 0.55104 0.32525 0.0
C34 C 0.74133 0.52983 0.31448 0.0
C35 C 0.73793 0.51191 0.26011 0.0
C36 C 0.76749 0.49717 0.24121 0.0
C37 C 0.78899 0.51245 0.28597 0.0
C38 C 0.7733 0.52821 0.33583 0.0
C39 C 0.77199 0.50399 0.15442 0.0
C40 C 0.76733 0.46365 0.27227 0.0
H41 H 0.86322 0.59578 0.36786 0.0
H42 H 0.82408 0.54152 0.60668 0.0
H43 H 0.80822 0.49639 0.486 0.0
H44 H 0.76792 0.49922 0.48825 0.0
H45 H 0.78928 0.50696 0.56725 0.0
H46 H 0.7595 0.58341 0.46327 0.0
H47 H 0.76326 0.5607 0.55582 0.0
H48 H 0.73993 0.54988 0.48465 0.0
H49 H 0.91077 0.52698 0.18244 0.0
H50 H 0.87046 0.44817 0.13851 0.0
H51 H 0.82609 0.46215 0.20599 0.0
H52 H 0.85147 0.57551 0.16928 0.0
H53 H 0.88928 0.57736 0.20214 0.0
H54 H 0.85816 0.59322 0.24857 0.0
H55 H 0.8802 0.52611 0.39078 0.0
H56 H 0.89758 0.55934 0.34814 0.0
H57 H 0.90859 0.52505 0.3219 0.0
H58 H 0.89061 0.59473 0.4865 0.0
C59 C 0.85477 0.5838 0.41929 0.0
C60 C 0.9967 0.87705 1.00726 0.0
C61 C 0.99306 0.90769 0.01081 0.0
C62 C 0.96697 0.91875 0.04407 0.0
C63 C 0.95463 0.86888 0.08915 0.0
C64 C 0.97619 0.85819 0.04442 0.0
C65 C 0.97563 0.82513 0.04918 0.0
H66 H 0.98453 0.69589 0.2259 0.0
C67 C 0.94413 0.84395 0.14154 0.0
C68 C 0.95249 0.81841 0.11147 0.0
H69 H 0.94726 0.72046 0.99762 0.0
H70 H 0.93276 0.77049 0.02375 0.0
H71 H 0.01326 0.76193 0.24975 0.0
H72 H 0.92152 0.74085 0.3007 0.0
H73 H 0.94283 0.75105 0.37602 0.0
H74 H 0.95235 0.71641 0.34416 0.0
H75 H 0.00601 0.72927 0.31645 0.0
H76 H 1.00096 0.76548 0.34274 0.0
C77 C 0.00681 0.80968 0.07319 0.0
C78 C 0.96569 0.81837 0.97154 0.0
C79 C 0.94428 0.86503 0.40879 0.0
C80 C 0.95675 0.84969 0.4768 0.0
C81 C 0.96587 0.81916 0.48187 0.0
C82 C 0.96294 0.80459 0.41813 0.0
C83 C 0.95194 0.8211 0.34855 0.0
C84 C 0.94354 0.85107 0.34519 0.0
C85 C 0.93828 0.86733 0.26617 0.0
C86 C 0.94268 0.84186 0.22167 0.0
C87 C 0.95005 0.81433 0.26983 0.0
C88 C 0.96197 0.89091 0.2493 0.0
C89 C 0.90577 0.88121 0.2582 0.0
C90 C 0.97319 0.71191 0.18172 0.0
C91 C 0.96822 0.70474 0.10813 0.0
C92 C 0.95226 0.72577 0.05304 0.0
C93 C 0.94495 0.75451 0.06635 0.0
C94 C 0.95393 0.76211 0.13473 0.0
C95 C 0.96446 0.74112 0.19457 0.0
C96 C 0.96567 0.75532 0.26657 0.0
C97 C 0.95454 0.78788 0.23629 0.0
C98 C 0.95081 0.79079 0.15783 0.0
C99 C 0.99827 0.75286 0.29589 0.0
C100 C 0.94444 0.74008 0.32547 0.0
H101 H 0.92805 0.90816 0.10903 0.0
H102 H 0.01574 0.86769 0.98027 0.0
H103 H 0.97792 0.83139 0.92497 0.0
H104 H 0.94133 0.8241 0.96128 0.0
H105 H 0.97101 0.79471 0.96706 0.0
H106 H 0.01427 0.81537 0.12814 0.0
H107 H 0.02371 0.81647 0.02979 0.0
H108 H 0.0064 0.78516 0.07972 0.0
H109 H 0.93785 0.88861 0.40315 0.0
H110 H 0.97595 0.80694 0.534 0.0
H111 H 0.97049 0.78152 0.42378 0.0
H112 H 0.98122 0.88267 0.21781 0.0
H113 H 0.97192 0.89697 0.30115 0.0
H114 H 0.95202 0.91232 0.21798 0.0
H115 H 0.88987 0.86466 0.28224 0.0
H116 H 0.89903 0.88877 0.19815 0.0
H117 H 0.90302 0.90051 0.28863 0.0
H118 H 0.9624 0.94234 0.04322 0.0
C119 C 0.94739 0.89932 0.08253 0.0
C120 C 0.86641 0.0147 0.16429 0.0
C121 C 0.87278 0.01745 0.08561 0.0
C122 C 0.84895 0.02389 0.03246 0.0
C123 C 0.81384 0.02735 0.13247 0.0
C124 C 0.83628 0.01925 0.18671 0.0
C125 C 0.82274 1.01302 0.26563 0.0
H126 H 0.69421 0.96715 0.44269 0.0
C127 C 0.7849 0.02764 0.16868 0.0
C128 C 0.78901 0.01692 0.24625 0.0
H129 H 0.74716 0.03059 0.52472 0.0
H130 H 0.77971 0.0311 0.41353 0.0
H131 H 0.67268 0.991 0.33549 0.0
H132 H 0.74319 0.93431 0.30975 0.0
H133 H 0.71459 0.94024 0.23728 0.0
H134 H 0.70438 0.93338 0.3354 0.0
H135 H 0.67286 0.98117 0.24629 0.0
H136 H 0.68596 0.01669 0.25976 0.0
C137 C 0.83245 0.03595 0.3131 0.0
C138 C 0.83225 0.98114 0.30482 0.0
C139 C 0.6841 0.05066 0.03862 0.0
C140 C 0.65966 0.03304 0.03755 0.0
C141 C 0.66272 1.0027 0.07065 0.0
C142 C 0.68885 0.99086 0.11081 0.0
C143 C 0.71089 1.00999 0.12038 0.0
C144 C 0.70992 0.03826 0.07924 0.0
C145 C 0.73915 0.05189 0.08548 0.0
C146 C 0.7576 0.02559 0.13195 0.0
C147 C 0.7385 1.00444 0.1649 0.0
C148 C 0.73492 0.07796 0.13013 0.0
C149 C 0.75125 0.06269 1.00626 0.0
C150 C 0.71371 0.98002 0.43896 0.0
C151 C 0.71856 0.99805 0.49333 0.0
C152 C 0.7434 0.01575 0.48482 0.0
C153 C 0.76247 0.01568 0.42178 0.0
C154 C 0.75598 0.99866 0.36577 0.0
C155 C 0.73042 0.98302 0.37262 0.0
C156 C 0.71862 0.97815 0.29685 0.0
C157 C 0.74135 0.99368 0.24396 0.0
C158 C 0.76489 1.00263 0.28541 0.0
C159 C 0.68607 0.99264 0.28338 0.0
C160 C 0.72025 0.94459 0.29461 0.0
H161 H 0.80202 0.03046 0.01368 0.0
H162 H 0.88414 1.0084 0.20647 0.0
H163 H 0.82578 0.96473 0.26929 0.0
H164 H 0.8213 0.97614 0.36059 0.0
H165 H 0.85687 0.97826 0.31468 0.0
H166 H 0.82227 0.05853 0.29001 0.0
H167 H 0.85719 0.03673 0.31279 0.0
H168 H 0.82603 0.02996 0.37305 0.0
H169 H 0.68286 0.07349 0.0098 0.0
H170 H 0.6449 0.98828 0.06554 0.0
H171 H 0.69123 0.96761 0.13523 0.0
H172 H 0.72564 0.07047 0.18709 0.0
H173 H 0.71932 0.09597 0.09929 0.0
H174 H 0.7567 0.08737 0.13809 0.0
H175 H 0.73543 0.08003 0.97365 0.0
H176 H 0.75415 0.04407 0.97351 0.0
H177 H 0.77276 0.07298 0.01071 0.0
H178 H 0.85302 0.02523 0.97233 0.0
C179 C 0.81963 0.02813 0.05563 0.0
C180 C 0.52397 0.72019 0.43917 0.0
C181 C 0.50895 0.69577 0.47712 0.0
C182 C 0.47959 0.69205 0.4539 0.0
C183 C 0.48373 0.73032 0.34552 0.0
C184 C 0.51005 0.73813 0.3741 0.0
C185 C 0.52043 0.76574 0.32389 0.0
H186 H 0.50411 0.85659 0.97671 0.0
C187 C 0.47812 0.74705 0.26917 0.0
C188 C 0.49664 0.77095 0.25923 0.0
H189 H 0.51838 0.88973 0.18523 0.0
H190 H 0.51097 0.84017 0.25773 0.0
H191 H 0.54103 0.79237 0.02026 0.0
H192 H 0.44893 0.82339 0.0327 0.0
H193 H 0.45047 0.7902 0.9942 0.0
H194 H 0.46859 0.82155 0.94611 0.0
H195 H 0.51567 0.79399 0.94163 0.0
H196 H 0.52089 0.76128 0.01376 0.0
C197 C 0.55176 0.7589 0.29343 0.0
C198 C 0.52049 0.79136 0.36991 0.0
C199 C 0.45107 0.68101 0.0822 0.0
C200 C 0.4581 0.68197 1.00556 0.0
C201 C 0.46693 0.70867 0.96346 0.0
C202 C 0.47058 0.73341 0.99868 0.0
C203 C 0.46598 0.73124 0.07709 0.0
C204 C 0.45616 0.7054 0.11751 0.0
C205 C 0.45401 0.70644 0.20101 0.0
C206 C 0.46712 0.73619 0.20485 0.0
C207 C 0.47307 0.75082 0.13173 0.0
C208 C 0.47259 0.67923 0.24688 0.0
C209 C 0.42048 0.70731 0.22078 0.0
C210 C 0.50716 0.85297 0.03779 0.0
C211 C 0.51267 0.87681 0.07499 0.0
C212 C 0.51532 0.87145 0.1551 0.0
C213 C 0.51194 0.84278 0.19703 0.0
C214 C 0.50721 0.81907 0.15842 0.0
C215 C 0.504 0.82471 0.08009 0.0
C216 C 0.4931 0.79865 0.04924 0.0
C217 C 0.48732 0.77785 0.12213 0.0
C218 C 0.49778 0.7887 0.18573 0.0
C219 C 0.51878 0.78589 1.00344 0.0
C220 C 0.4638 0.80881 1.00266 0.0
H221 H 0.44445 0.7059 0.37242 0.0
H222 H 0.54602 0.72442 0.45796 0.0
H223 H 0.49745 0.80145 0.37501 0.0
H224 H 0.53512 0.80865 0.34394 0.0
H225 H 0.52979 0.78331 0.42804 0.0
H226 H 0.55184 0.73959 0.26291 0.0
H227 H 0.56858 0.75368 0.34057 0.0
H228 H 0.55874 0.77834 0.25327 0.0
H229 H 0.44368 0.66082 0.11502 0.0
H230 H 0.47279 0.70987 0.90441 0.0
H231 H 0.47798 0.75289 0.96405 0.0
H232 H 0.47443 0.65971 0.21739 0.0
H233 H 0.46208 0.67094 0.30134 0.0
H234 H 0.49589 0.68458 0.25757 0.0
H235 H 0.40702 0.72315 0.17734 0.0
H236 H 0.4161 0.71498 0.27525 0.0
H237 H 0.41186 0.68498 0.22322 0.0
H238 H 0.46715 0.67441 0.48401 0.0
C239 C 0.46673 0.70961 0.38891 0.0
C240 C 0.3259 0.48538 0.38022 0.0
C241 C 0.33889 0.47868 0.45468 0.0
C242 C 0.32521 0.45888 0.51065 0.0
C243 C 0.2831 0.45975 0.42718 0.0
C244 C 0.298 0.4741 0.36694 0.0
C245 C 0.27892 0.47641 0.2943 0.0
H246 H 0.13988 0.44823 0.15721 0.0
C247 C 0.25296 0.45609 0.40422 0.0
C248 C 0.25004 0.46273 0.32532 0.0
H249 H 0.20988 0.48853 0.02191 0.0
H250 H 0.2426 0.4827 0.13525 0.0
H251 H 0.17805 0.39944 0.29304 0.0
H252 H 0.1327 0.48142 0.24954 0.0
H253 H 0.15079 0.48884 0.33187 0.0
H254 H 0.1245 0.4602 0.3366 0.0
H255 H 0.13922 0.41269 0.28075 0.0
H256 H 0.15719 0.40728 0.37274 0.0
C257 C 0.29517 0.45786 0.24054 0.0
C258 C 0.27304 0.50934 0.25871 0.0
C259 C 0.16997 0.49607 0.55149 0.0
C260 C 0.13889 0.49313 0.54973 0.0
C261 C 0.12802 0.47007 0.51561 0.0
C262 C 0.14718 0.45296 0.47585 0.0
C263 C 0.17705 0.4595 0.46911 0.0
C264 C 0.18876 0.47795 0.51331 0.0
C265 C 0.22229 0.47656 0.50994 0.0
C266 C 0.22753 0.45672 0.44923 0.0
C267 C 0.20037 0.45027 0.41945 0.0
C268 C 0.23543 0.46258 0.58872 0.0
C269 C 0.23288 0.50806 0.48464 0.0
C270 C 0.16265 0.45479 0.15134 0.0
C271 C 0.17269 0.46774 0.08071 0.0
C272 C 0.20192 0.47772 0.07582 0.0
C273 C 0.22073 0.47449 0.1413 0.0
C274 C 0.20961 0.46244 0.21245 0.0
C275 C 0.18057 0.45368 0.21608 0.0
C276 C 0.16949 0.4472 0.29537 0.0
C277 C 0.19756 0.45078 0.34001 0.0
C278 C 0.22156 0.45916 0.29171 0.0
C279 C 0.16037 0.41488 0.31151 0.0
C280 C 0.14319 0.4705 0.30443 0.0
H281 H 0.28659 0.43436 0.54026 0.0
H282 H 0.33639 0.49988 0.3356 0.0
H283 H 0.2637 0.5224 0.30148 0.0
H284 H 0.25677 0.51236 0.21094 0.0
H285 H 0.29413 0.51886 0.23748 0.0
H286 H 0.30083 0.43476 0.27012 0.0
H287 H 0.31631 0.46769 0.22089 0.0
H288 H 0.28129 0.45644 0.19025 0.0
H289 H 0.17939 0.51269 0.57914 0.0
H290 H 0.10457 0.46567 0.51832 0.0
H291 H 0.13843 0.43554 0.45046 0.0
H292 H 0.22322 0.4719 0.63439 0.0
H293 H 0.25901 0.46768 0.59509 0.0
H294 H 0.23388 0.4381 0.5992 0.0
H295 H 0.22291 0.51818 0.42838 0.0
H296 H 0.25759 0.50748 0.48033 0.0
H297 H 0.22645 0.52282 0.52624 0.0
H298 H 0.33511 0.45282 0.56704 0.0
C299 C 0.29721 0.44922 0.49685 0.0
C300 C 0.91889 0.18557 0.54692 0.0
C301 C 0.91079 0.1585 0.52729 0.0
C302 C 0.89724 0.15896 0.45558 0.0
C303 C 0.91145 0.20897 0.41679 0.0
C304 C 0.91843 0.21081 0.49073 0.0
C305 C 0.92867 0.24086 0.49799 0.0
H306 H 0.01174 0.34844 0.39095 0.0
C307 C 0.92315 0.23437 0.36767 0.0
C308 C 0.92992 0.2549 0.41409 0.0
H309 H 0.93528 0.35251 0.53723 0.0
H310 H 0.91447 0.3124 0.48326 0.0
H311 H 0.02179 0.27221 0.39378 0.0
H312 H 0.96369 0.33641 0.24251 0.0
H313 H 0.98768 0.31322 0.19497 0.0
H314 H 1.00348 0.33956 0.24523 0.0
H315 H 0.0368 0.30307 0.33371 0.0
H316 H 0.02706 0.27094 0.2959 0.0
C317 C 0.95991 0.23756 0.53695 0.0
C318 C 0.9053 0.25656 0.54377 0.0
C319 C 0.97192 0.20618 0.1334 0.0
C320 C 0.99687 0.21511 0.09135 0.0
C321 C 0.01158 0.2395 0.10929 0.0
C322 C 1.00112 0.25477 0.16791 0.0
C323 C 0.97622 0.24502 0.21029 0.0
C324 C 0.96248 0.22073 0.19287 0.0
C325 C 0.93829 0.21099 0.24667 0.0
C326 C 0.93884 0.23404 0.29883 0.0
C327 C 0.96089 0.25439 0.27724 0.0
C328 C 0.9471 0.17864 0.28737 0.0
C329 C 0.90836 0.21399 0.20168 0.0
C330 C 0.99113 0.33996 0.41366 0.0
C331 C 0.97583 0.35278 0.47117 0.0
C332 C 0.94803 0.34241 0.49566 0.0
C333 C 0.93669 0.31849 0.46829 0.0
C334 C 0.95385 0.304 0.41898 0.0
C335 C 0.97888 0.31593 0.38626 0.0
C336 C 0.9884 0.30052 0.31974 0.0
C337 C 0.96506 0.27727 0.32159 0.0
C338 C 0.94684 0.27877 0.38427 0.0
C339 C 0.02031 0.2859 0.33618 0.0
C340 C 0.98584 0.3236 0.24635 0.0
H341 H 0.88803 0.18388 0.3448 0.0
H342 H 0.92804 0.18646 0.60256 0.0
H343 H 0.89657 0.2406 0.59089 0.0
H344 H 0.88597 0.2669 0.50714 0.0
H345 H 0.9153 0.27354 0.57167 0.0
H346 H 0.97628 0.225 0.50553 0.0
H347 H 0.95909 0.22573 0.59627 0.0
H348 H 0.96835 0.25961 0.53938 0.0
H349 H 0.96073 0.18696 0.12288 0.0
H350 H 0.03115 0.24666 0.07815 0.0
H351 H 0.01306 0.27313 0.17921 0.0
H352 H 0.95635 0.17824 0.34536 0.0
H353 H 0.96465 0.16693 0.25741 0.0
H354 H 0.928 0.16441 0.29033 0.0
H355 H 0.88884 0.21398 0.23911 0.0
H356 H 0.90713 0.19563 0.16833 0.0
H357 H 0.90594 0.23541 0.16154 0.0
H358 H 0.88859 0.13911 0.44081 0.0
C359 C 0.89738 0.18442 0.39997 0.0
C360 C 0.28529 0.06277 0.09364 0.0
C361 C 0.30869 0.08205 0.07329 0.0
C362 C 0.31286 0.10486 0.11614 0.0
C363 C 0.27998 0.08235 0.20961 0.0
C364 C 0.26968 0.06482 0.16154 0.0
C365 C 0.24492 0.04695 0.20067 0.0
H366 H 0.17672 0.01585 0.54953 0.0
C367 C 0.27041 0.07158 0.28551 0.0
C368 C 0.24459 0.05655 0.2796 0.0
H369 H 0.12742 0.0595 0.34933 0.0
H370 H 0.17439 0.06147 0.27693 0.0
H371 H 0.22941 0.97419 0.45822 0.0
H372 H 0.22529 0.05929 0.53489 0.0
H373 H 0.25932 0.03882 0.56521 0.0
H374 H 0.22487 0.02462 0.59905 0.0
H375 H 0.23215 0.97701 0.55696 0.0
H376 H 0.26448 0.97925 0.49699 0.0
C377 C 0.25342 1.0134 0.20686 0.0
C378 C 0.21513 0.05562 0.15713 0.0
C379 C 0.35988 0.03981 0.46048 0.0
C380 C 0.36379 0.02165 0.53135 0.0
C381 C 0.33919 1.00782 0.56627 0.0
C382 C 0.31071 1.0129 0.53125 0.0
C383 C 0.30696 0.03242 0.46171 0.0
C384 C 0.33143 0.04529 0.42727 0.0
C385 C 0.32406 0.06378 0.35123 0.0
C386 C 0.29031 0.06143 0.34779 0.0
C387 C 0.28085 0.04206 0.41089 0.0
C388 C 0.34077 0.04845 0.29091 0.0
C389 C 0.33289 0.09603 0.35018 0.0
C390 C 0.17572 0.02455 0.48934 0.0
C391 C 0.1485 0.0369 0.45464 0.0
C392 C 0.14805 0.04913 0.37656 0.0
C393 C 0.17477 0.04988 0.33464 0.0
C394 C 0.20174 0.03758 0.3709 0.0
C395 C 0.20203 0.02569 0.44742 0.0
C396 C 0.23339 0.01983 0.48006 0.0
C397 C 0.25113 0.03344 0.41284 0.0
C398 C 0.23298 0.04091 0.34729 0.0
C399 C 0.24037 0.98582 0.49975 0.0
C400 C 0.23604 0.03633 0.54866 0.0
H401 H 0.30291 0.12145 0.2197 0.0
H402 H 0.28059 0.0459 0.0602 0.0
H403 H 0.20765 0.0792 0.15869 0.0
H404 H 0.19757 0.04118 0.1818 0.0
H405 H 0.21758 0.0528 0.09685 0.0
H406 H 0.27536 1.00733 0.2369 0.0
H407 H 0.25503 1.00696 0.14967 0.0
H408 H 0.23627 1.00031 0.23895 0.0
H409 H 0.3787 0.05026 0.43234 0.0
H410 H 0.34177 0.99404 0.62165 0.0
H411 H 0.29257 1.00222 0.56053 0.0
H412 H 0.33303 0.02588 0.2908 0.0
H413 H 0.36529 0.0462 0.30242 0.0
H414 H 0.33763 0.0611 0.23306 0.0
H415 H 0.35052 0.09741 0.39314 0.0
H416 H 0.31338 0.11084 0.36204 0.0
H417 H 0.34239 0.10531 0.29496 0.0
H418 H 0.32958 0.12067 0.10061 0.0
C419 C 0.29843 0.10504 0.18493 0.0
C420 C 0.5088 0.3663 0.13899 0.0
C421 C 0.52386 0.39143 0.10541 0.0
C422 C 0.55267 0.39514 0.13271 0.0
C423 C 0.5473 0.35558 0.23729 0.0
C424 C 0.5218 0.34779 0.20446 0.0
C425 C 0.51066 0.32001 0.25218 0.0
H426 H 0.51373 0.2303 0.59735 0.0
C427 C 0.55131 0.33857 0.31393 0.0
C428 C 0.53294 0.31466 0.32 0.0
H429 H 0.5195 0.19495 0.38764 0.0
H430 H 0.52579 0.24498 0.31836 0.0
H431 H 0.57111 0.262 0.56014 0.0
H432 H 0.47929 0.29755 0.53567 0.0
H433 H 0.5002 0.3252 0.56306 0.0
H434 H 0.49838 0.29016 0.62603 0.0
H435 H 0.54747 0.26552 0.63944 0.0
H436 H 0.56813 0.29578 0.59546 0.0
C437 C 0.51209 0.29447 0.2059 0.0
C438 C 0.47853 0.32654 0.27816 0.0
C439 C 0.57662 0.4029 0.50701 0.0
C440 C 0.56767 0.40264 0.5821 0.0
C441 C 0.55543 0.3771 0.62152 0.0
C442 C 0.55075 0.35284 0.58507 0.0
C443 C 0.55795 0.35432 0.50811 0.0
C444 C 0.57058 0.37915 0.4703 0.0
C445 C 0.57436 0.37824 0.38717 0.0
C446 C 0.56024 0.34929 0.38045 0.0
C447 C 0.55162 0.33507 0.45197 0.0
C448 C 0.60826 0.37591 0.37182 0.0
C449 C 0.55755 0.4063 0.33987 0.0
C450 C 0.51504 0.23307 0.53619 0.0
C451 C 0.51485 0.20832 0.49852 0.0
C452 C 0.5177 0.21344 0.41844 0.0
C453 C 0.52068 0.24238 0.37774 0.0
C454 C 0.52026 0.26659 0.41685 0.0
C455 C 0.51909 0.2614 0.49522 0.0
C456 C 0.52811 0.28766 0.52891 0.0
C457 C 0.53713 0.30819 0.45834 0.0
C458 C 0.52972 0.29704 0.3927 0.0
C459 C 0.55501 0.27741 0.58434 0.0
C460 C 0.50024 0.30087 0.56596 0.0
H461 H 0.58646 0.38075 0.2176 0.0
H462 H 0.48718 0.36214 0.11724 0.0
H463 H 0.4774 0.34569 0.30937 0.0
H464 H 0.47089 0.30693 0.3165 0.0
H465 H 0.46278 0.33186 0.22872 0.0
H466 H 0.53563 0.28594 0.19953 0.0
H467 H 0.50209 0.30213 0.14834 0.0
H468 H 0.49895 0.27607 0.2329 0.0
H469 H 0.58628 0.42224 0.47588 0.0
H470 H 0.54785 0.37656 0.67911 0.0
H471 H 0.54069 0.33432 0.61743 0.0
H472 H 0.62035 0.35945 0.41656 0.0
H473 H 0.6178 0.39774 0.37113 0.0
H474 H 0.61328 0.3682 0.31765 0.0
H475 H 0.55454 0.42523 0.37132 0.0
H476 H 0.53471 0.40166 0.3227 0.0
H477 H 0.57008 0.41514 0.28893 0.0
H478 H 0.56525 0.41329 0.10589 0.0
C479 C 0.56464 0.37697 0.19785 0.0
Co480 Co 0.02522 0.05316 0.81784 0.0
C481 C 0.97758 0.02017 0.89598 0.0
Co482 Co 0.00644 1.00108 0.75903 0.0
C483 C 0.02078 0.10625 0.88799 0.0
C484 C 0.06429 0.09796 0.84396 0.0
N485 N 0.03703 0.08722 0.85101 0.0
N486 N 0.0368 0.12857 0.90405 0.0
C487 C 0.06426 0.12324 0.87675 0.0
H488 H 0.99782 0.10334 0.90421 0.0
H489 H 0.08305 0.0879 0.81731 0.0
C490 C 0.05245 0.03515 0.6754 0.0
N491 N 0.98095 0.9825 0.70225 0.0
C492 C 0.98955 0.95877 0.66929 0.0
C493 C 0.95083 0.98436 0.69823 0.0
N494 N 0.96609 0.94545 0.64505 0.0
C495 C 0.94167 0.96175 0.66293 0.0
C496 C 0.9803 0.06519 0.71693 0.0
O497 O 0.05193 0.05329 0.72595 0.0
O498 O 0.03516 1.01277 0.67884 0.0
O499 O 0.98374 0.03758 0.71559 0.0
O500 O 0.99705 0.07688 0.75801 0.0
O501 O 0.97965 1.00128 0.84766 0.0
H502 H 0.93646 1.00011 0.72282 0.0
H503 H 0.01265 0.95053 0.6672 0.0
O504 O 0.99437 0.0427 0.89282 0.0
O505 O 0.0564 0.02897 0.88971 0.0
O506 O 0.0317 1.01192 0.81204 0.0
C507 C 0.04898 1.00599 0.86747 0.0
H508 H 0.083 0.13672 0.87999 0.0
H509 H 0.91871 0.9573 0.65284 0.0
Co510 Co 0.49575 0.05086 0.81686 0.0
C511 C 0.51185 0.9916 0.87367 0.0
Co512 Co 0.52953 0.03098 0.74501 0.0
C513 C 0.43805 0.05758 0.89041 0.0
C514 C 0.46403 0.09516 0.88994 0.0
N515 N 0.46509 0.06787 0.87052 0.0
N516 N 0.42013 0.07757 0.92051 0.0
C517 C 0.43653 0.10119 0.92025 0.0
H518 H 0.43119 0.03636 0.88003 0.0
H519 H 0.4818 0.1101 0.88052 0.0
C520 C 0.51373 0.09049 0.68907 0.0
N521 N 0.5603 1.01378 0.69126 0.0
C522 C 0.588 0.02291 0.67347 0.0
C523 C 0.56021 0.987 0.66923 0.0
N524 N 0.60516 1.00272 0.64181 0.0
C525 C 0.58753 0.98019 0.63911 0.0
C526 C 0.47242 0.0258 0.69982 0.0
O527 O 0.49839 0.08832 0.74936 0.0
O528 O 0.52905 0.06766 0.67422 0.0
O529 O 0.49926 0.01777 0.68563 0.0
O530 O 0.46694 0.04058 0.75274 0.0
O531 O 0.52963 0.99449 0.81791 0.0
H532 H 0.54171 0.97289 0.67659 0.0
H533 H 0.59581 0.04341 0.68636 0.0
O534 O 0.49373 1.01342 0.88262 0.0
O535 O 0.5256 0.061 0.88124 0.0
O536 O 0.5584 0.04442 0.80421 0.0
C537 C 0.5526 0.05627 0.86229 0.0
H538 H 0.42904 0.12154 0.94014 0.0
H539 H 0.59399 0.96003 0.61714 0.0
Co540 Co 0.53774 0.54505 0.8224 0.0
C541 C 0.50394 0.49775 0.88553 0.0
Co542 Co 0.49494 0.54216 0.75914 0.0
C543 C 0.57977 0.54186 0.95225 0.0
C544 C 0.59983 0.55403 0.84427 0.0
N545 N 0.57377 0.54626 0.87641 0.0
N546 N 0.60839 0.54702 0.96803 0.0
C547 C 0.62093 0.55472 0.90008 0.0
H548 H 0.56329 0.53581 0.99499 0.0
H549 H 0.6032 0.5593 0.78383 0.0
C550 C 0.52895 0.58952 0.69582 0.0
N551 N 0.459 0.54303 0.70222 0.0
C552 C 0.44524 0.52298 0.66807 0.0
C553 C 0.44331 0.56907 0.67692 0.0
N554 N 0.42158 0.53577 0.6231 0.0
C555 C 0.42093 0.56484 0.62838 0.0
C556 C 0.49066 0.57869 0.86996 0.0
O557 O 0.54722 0.57975 0.75052 0.0
O558 O 0.50566 0.57589 0.68891 0.0
O559 O 0.47593 0.56838 0.82035 0.0
O560 O 0.51822 0.57056 0.8816 0.0
O561 O 0.48527 0.50755 0.8311 0.0
H562 H 0.44884 0.59037 0.6895 0.0
H563 H 0.45286 0.4997 0.67457 0.0
O564 O 0.52744 0.51133 0.89236 0.0
O565 O 0.55681 0.51858 0.76184 0.0
O566 O 0.51437 0.51675 0.70017 0.0
C567 C 0.54186 0.50832 0.71232 0.0
H568 H 0.64387 0.56035 0.89146 0.0
H569 H 0.40635 0.5824 0.59637 0.0
Co570 Co 0.01577 0.53765 0.84384 0.0
C571 C 0.06499 0.49713 0.89346 0.0
Co572 Co 0.01438 0.49389 0.80408 0.0
C573 C 1.00112 0.59005 0.92296 0.0
C574 C 0.04575 0.58549 0.88274 0.0
N575 N 0.01916 0.57341 0.88258 0.0
N576 N 0.01566 0.61198 0.94755 0.0
C577 C 0.04384 0.6085 0.9229 0.0
H578 H 0.97806 0.5858 0.93529 0.0
H579 H 0.06594 0.57714 0.85816 0.0
C580 C 0.96526 0.53455 0.75408 0.0
N581 N 0.01326 0.45804 0.7664 0.0
C582 C 0.00671 0.45341 0.69524 0.0
C583 C 0.02091 0.43071 0.80544 0.0
N584 N 0.01008 0.42426 0.68851 0.0
C585 C 0.01905 0.41004 0.75799 0.0
C586 C 0.98618 0.49525 0.9385 0.0
O587 O 0.97864 0.55216 0.78954 0.0
O588 O 0.97734 0.5085 0.75336 0.0
O589 O 0.99298 0.47863 0.88998 0.0
O590 O 0.99386 0.52187 0.9292 0.0
O591 O 0.05215 0.47987 0.85642 0.0
H592 H 0.02768 0.42611 0.86465 0.0
H593 H 1.00032 0.4712 0.64895 0.0
O594 O 0.05215 0.52252 0.89632 0.0
O595 O 0.0385 0.55237 0.75748 0.0
O596 O 0.03537 0.50944 0.71926 0.0
C597 C 0.04477 0.53524 0.70973 0.0
H598 H 0.06247 0.62075 0.93568 0.0
H599 H 0.02356 0.38625 0.77376 0.0
C600 C 0.09769 0.02213 0.50074 0.0
C601 C 0.12194 0.03983 0.5035 0.0
C602 C 0.07488 0.02149 0.55492 0.0
C603 C 0.0753 0.03864 0.61392 0.0
H604 H 0.09697 1.00781 0.45829 0.0
H605 H 0.05716 1.00682 0.55141 0.0
S606 S 0.13335 0.09035 0.64169 0.0
N607 N 0.14447 0.07596 0.56687 0.0
N608 N 0.10187 0.07523 0.66776 0.0
C609 C 0.09898 0.05739 0.61481 0.0
C610 C 0.1222 0.05782 0.56003 0.0
C611 C 0.5305 0.1704 0.61468 0.0
C612 C 0.51473 0.17741 0.54438 0.0
C613 C 0.53004 0.14234 0.66078 0.0
C614 C 0.51441 0.11965 0.63816 0.0
H615 H 0.54357 0.1867 0.63459 0.0
H616 H 0.54221 0.13831 0.7145 0.0
S617 S 0.46935 0.12533 0.4612 0.0
N618 N 0.48235 0.15852 0.4562 0.0
N619 N 0.48289 0.10552 0.54142 0.0
C620 C 0.49904 0.1258 0.56794 0.0
C621 C 0.49895 0.15462 0.52138 0.0
C622 C 0.39151 0.48411 0.49904 0.0
C623 C 0.362 0.49633 0.48232 0.0
C624 C 0.41106 0.49714 0.54431 0.0
C625 C 0.40153 0.52239 0.57621 0.0
H626 H 0.39916 0.46379 0.47922 0.0
H627 H 0.4336 0.48712 0.55521 0.0
S628 S 0.32489 0.56035 0.55608 0.0
N629 N 0.32382 0.53401 0.5035 0.0
N630 N 0.35928 0.55739 0.59151 0.0
C631 C 0.37178 0.53439 0.56032 0.0
C632 C 0.35239 0.52164 0.51279 0.0
C633 C 0.01446 0.36761 0.55672 0.0
C634 C 0.98859 0.37546 0.51089 0.0
C635 C 0.0222 0.38458 0.61189 0.0
C636 C 1.00452 0.41023 0.62315 0.0
H637 H 0.02764 0.34707 0.55368 0.0
H638 H 0.04156 0.3769 0.64819 0.0
S639 S 0.93636 0.44207 0.51147 0.0
N640 N 0.94679 0.41201 0.47551 0.0
N641 N 0.96126 0.44383 0.57883 0.0
C642 C 0.9798 0.41946 0.57385 0.0
C643 C 0.97185 0.40208 0.51797 0.0
C644 C 0.90882 0.99308 1.00439 0.0
C645 C 0.90343 1.0135 0.05467 0.0
C646 C 0.9335 0.99454 0.95611 0.0
C647 C 0.95406 0.01653 0.95573 0.0
H648 H 0.89274 0.97688 0.99909 0.0
H649 H 0.93566 0.97901 0.91652 0.0
S650 S 0.95178 0.07329 0.08325 0.0
N651 N 0.92184 0.05483 0.10567 0.0
N652 N 0.96859 0.05749 0.01664 0.0
C653 C 0.95002 0.0358 0.00982 0.0
C654 C 0.92472 0.03426 0.05889 0.0
C655 C 0.48669 0.91975 0.98698 0.0
C656 C 0.51253 0.90737 0.02938 0.0
C657 C 0.48644 0.9473 0.93811 0.0
C658 C 0.51228 0.96315 0.92794 0.0
H659 H 0.46653 0.90787 0.9912 0.0
H660 H 0.46609 0.95587 0.90649 0.0
S661 S 0.58531 0.94137 0.02755 0.0
N662 N 0.56422 0.91398 0.06018 0.0
N663 N 0.56404 0.96517 0.9665 0.0
C664 C 0.53814 0.95129 0.97054 0.0
C665 C 0.53818 0.92358 0.02174 0.0
C666 C 0.65957 0.56552 0.11887 0.0
C667 C 0.66222 0.53903 0.17192 0.0
C668 C 0.64078 0.56847 0.05426 0.0
C669 C 0.62339 0.54532 0.04076 0.0
H670 H 0.67357 0.58341 0.12477 0.0
H671 H 0.64061 0.58866 0.01293 0.0
S672 S 0.62032 0.47232 0.16515 0.0
N673 N 0.64463 0.48973 0.20844 0.0
N674 N 0.6087 0.49571 0.08823 0.0
C675 C 0.62445 0.51941 0.09555 0.0
C676 C 0.64404 0.51615 0.16067 0.0
C677 C 0.9713 0.65093 0.0884 0.0
C678 C 0.98361 0.67878 0.08012 0.0
C679 C 0.98184 0.62902 0.04546 0.0
C680 C 1.00465 0.63443 0.99173 0.0
H681 H 0.95275 0.64648 0.1261 0.0
H682 H 0.97185 0.60789 0.05379 0.0
S683 S 0.04214 0.70513 0.94512 0.0
N684 N 0.01917 0.71073 0.01384 0.0
N685 N 0.03754 0.67106 0.93044 0.0
C686 C 0.01678 0.66245 0.9831 0.0
C687 C 0.00665 0.68417 0.02792 0.0
C688 C 0.92203 0.12796 0.65522 0.0
C689 C 0.92167 0.13006 0.57575 0.0
C690 C 0.93989 0.10568 0.70129 0.0
C691 C 0.95724 0.08417 0.66979 0.0
H692 H 0.90995 0.14477 0.68169 0.0
H693 H 0.94113 0.10602 0.7617 0.0
S694 S 0.96186 0.07719 0.46705 0.0
N695 N 0.93899 0.107 0.46849 0.0
N696 N 0.97105 0.0642 0.55651 0.0
C697 C 0.95503 0.08415 0.59173 0.0
C698 C 0.93749 0.10729 0.54428 0.0
C699 C 0.40414 0.0482 0.57847 0.0
C700 C 0.39266 0.02095 0.57164 0.0
C701 C 0.43102 0.04915 0.61689 0.0
C702 C 0.44756 0.02293 0.64928 0.0
H703 H 0.39184 0.06904 0.55554 0.0
H704 H 0.43853 0.07064 0.62326 0.0
S705 S 0.42781 0.94595 0.64634 0.0
N706 N 0.40007 0.96702 0.59912 0.0
N707 N 0.45123 0.96898 0.67223 0.0
C708 C 0.4369 0.99547 0.64186 0.0
C709 C 0.40916 0.99444 0.60299 0.0
C710 C 0.55177 0.45644 0.57046 0.0
C711 C 0.56612 0.4307 0.61368 0.0
C712 C 0.54581 0.48231 0.60142 0.0
C713 C 0.55445 0.48364 0.67629 0.0
H714 H 0.54355 0.4561 0.5135 0.0
H715 H 0.53323 0.50104 0.56755 0.0
S716 S 0.5943 0.42316 0.81182 0.0
N717 N 0.59015 0.40863 0.73402 0.0
N718 N 0.57919 0.45761 0.79221 0.0
C719 C 0.57019 0.45867 0.71903 0.0
C720 C 0.57587 0.43207 0.6878 0.0
C721 C 0.08951 0.52228 0.54647 0.0
C722 C 0.11741 0.51339 0.58313 0.0
C723 C 0.06597 0.53494 0.58411 0.0
C724 C 0.06987 0.53996 0.65864 0.0
H725 H 0.08505 0.51726 0.4905 0.0
H726 H 0.04383 0.53777 0.55796 0.0
S727 S 0.13997 0.52727 0.77363 0.0
N728 N 0.14859 0.5147 0.69457 0.0
N729 N 0.10471 0.54051 0.76266 0.0
C730 C 0.09872 0.53552 0.69139 0.0
C731 C 0.12248 0.52158 0.6544 0.0
C732 C 0.02208 0.95153 0.02227 0.0
C733 C 0.01599 0.92848 0.982 0.0
C734 C 0.03808 0.97541 0.98933 0.0
C735 C 0.04859 0.97679 0.9153 0.0
H736 H 0.01259 0.95225 0.07757 0.0
H737 H 0.03899 0.99437 0.01828 0.0
S738 S 0.04676 0.91837 0.79503 0.0
N739 N 0.02724 0.90596 0.87009 0.0
N740 N 0.05823 0.95049 0.80982 0.0
C741 C 0.04678 0.95188 0.87946 0.0
C742 C 0.03009 0.92779 0.91223 0.0
C743 C 0.63192 0.0593 0.9225 0.0
C744 C 0.63149 0.0455 0.99858 0.0
C745 C 0.60537 0.06592 0.87993 0.0
C746 C 0.57768 0.05921 0.9125 0.0
H747 H 0.65298 0.06297 0.89423 0.0
H748 H 0.6067 0.07429 0.81977 0.0
S749 S 0.56449 0.02735 0.11272 0.0
N750 N 0.60116 0.02879 0.10753 0.0
N751 N 0.55104 0.0412 0.02699 0.0
C752 C 0.57673 0.04807 0.99028 0.0
C753 C 0.60379 0.04108 0.03349 0.0
C754 C 0.47952 0.62987 0.01383 0.0
C755 C 0.46154 0.65398 0.97396 0.0
C756 C 0.48745 0.60475 0.9812 0.0
C757 C 0.47731 0.60257 0.90801 0.0
H758 H 0.48894 0.63109 0.06912 0.0
H759 H 0.50254 0.58736 0.01244 0.0
S760 S 0.42793 0.6586 0.7821 0.0
N761 N 0.43245 0.67346 0.85922 0.0
N762 N 0.44709 0.62593 0.79791 0.0
C763 C 0.458 0.62578 0.86904 0.0
C764 C 0.45026 0.65162 0.90192 0.0
C765 C 0.91495 0.4744 0.03429 0.0
C766 C 0.92001 0.48028 0.10793 0.0
C767 C 0.93768 0.47672 0.98085 0.0
C768 C 0.96584 0.48542 0.9994 0.0
H769 H 0.89275 0.47036 0.01589 0.0
H770 H 0.93244 0.47414 0.92314 0.0
S771 S 0.99244 0.49661 0.18811 0.0
N772 N 0.95705 0.48927 0.20037 0.0
N773 N 0.99919 0.49553 0.09785 0.0
C774 C 0.97204 0.4887 0.07416 0.0
C775 C 0.94923 0.48553 0.12915 0.0
C776 C 0.03777 0.18399 0.03925 0.0
C777 C 0.00821 0.19686 0.03403 0.0
C778 C 0.04714 0.16223 0.9954 0.0
C779 C 0.02729 0.15237 0.94489 0.0
H780 H 0.05336 0.18969 0.08019 0.0
H781 H 0.06979 0.1522 1.00337 0.0
S782 S 0.94881 0.1822 0.90208 0.0
N783 N 0.96008 0.20037 0.9684 0.0
N784 N 0.97766 0.15964 0.88646 0.0
C785 C 0.99815 0.16618 0.93637 0.0
C786 C 0.98866 0.18838 0.98065 0.0
C787 C 0.3408 0.10102 0.96425 0.0
C788 C 0.33228 0.07684 0.01726 0.0
C789 C 0.36884 0.10039 0.92955 0.0
C790 C 0.38956 0.07548 0.94578 0.0
H791 H 0.32654 0.12146 0.95377 0.0
H792 H 0.37497 0.12012 0.89229 0.0
S793 S 0.37745 1.00545 0.07547 0.0
N794 N 0.34625 0.02649 0.08044 0.0
N795 N 0.3987 0.02517 0.01412 0.0
C796 C 0.3805 0.05029 0.99406 0.0
C797 C 0.35192 0.051 0.02992 0.0
C798 C 0.50446 0.44432 0.07095 0.0
C799 C 0.50981 0.41629 0.04859 0.0
C800 C 0.50007 0.47051 0.01744 0.0
C801 C 0.50024 0.46979 0.93919 0.0
H802 H 0.50593 0.44622 0.13047 0.0
H803 H 0.49823 0.49166 0.03745 0.0
S804 S 0.51199 0.40226 0.85033 0.0
N805 N 0.5141 0.38945 0.94243 0.0
N806 N 0.50498 0.43864 0.84173 0.0
C807 C 0.50371 0.44183 0.91585 0.0
C808 C 0.50865 0.41508 0.97056 0.0
C809 C 0.13819 0.50438 0.99704 0.0
C810 C 0.15002 0.47488 0.01778 0.0
C811 C 0.11112 0.51119 0.95562 0.0
C812 C 0.09484 0.48885 0.93208 0.0
H813 H 0.14891 0.52219 0.01725 0.0
H814 H 0.10257 0.53426 0.9435 0.0
S815 S 0.11762 0.40813 0.96736 0.0
N816 N 0.14427 0.42319 0.0091 0.0
N817 N 0.09397 0.43598 0.92894 0.0
C818 C 0.10736 0.45937 0.94888 0.0
C819 C 0.13474 0.45241 0.99226 0.0
C820 C 0.94105 0.87513 0.58544 0.0
C821 C 0.96347 0.86799 0.53551 0.0
C822 C 0.94267 0.89969 0.62328 0.0
C823 C 0.96655 0.91845 0.61181 0.0
H824 H 0.92126 0.8627 0.59184 0.0
H825 H 0.92453 0.90453 0.66002 0.0
S826 S 0.03095 0.90905 0.48601 0.0
N827 N 0.01051 0.88107 0.47763 0.0
N828 N 0.01341 0.92739 0.54688 0.0
C829 C 0.98967 0.91077 0.56399 0.0
C830 C 0.98811 0.88559 0.52625 0.0
C831 C 0.68303 0.97623 0.59161 0.0
C832 C 0.6939 1.00167 0.54802 0.0
C833 C 0.65481 0.97719 0.62547 0.0
C834 C 0.63601 1.00362 0.61726 0.0
H835 H 0.69572 0.95495 0.59572 0.0
H836 H 0.64712 0.95672 0.65595 0.0
S837 S 0.65449 0.07689 0.51253 0.0
N838 N 0.68415 0.05449 0.50186 0.0
N839 N 0.63123 0.05631 0.56563 0.0
C840 C 0.64734 0.02965 0.57785 0.0
C841 C 0.67619 0.02865 0.54325 0.0
C842 C 0.53231 0.64431 0.51303 0.0
C843 C 0.52334 0.67171 0.53535 0.0
C844 C 0.5365 0.61794 0.56623 0.0
C845 C 0.5324 0.61798 0.64408 0.0
H846 H 0.53377 0.64285 0.45326 0.0
H847 H 0.54127 0.5971 0.54586 0.0
S848 S 0.50974 0.6837 0.73264 0.0
N849 N 0.51105 0.69716 0.64111 0.0
N850 N 0.5198 0.64782 0.74126 0.0
C851 C 0.52509 0.64541 0.66772 0.0
C852 C 0.52037 0.67223 0.61336 0.0
C853 C 0.89297 0.5295 0.6436 0.0
C854 C 0.88248 0.55934 0.62027 0.0
C855 C 0.91912 0.52184 0.6886 0.0
C856 C 0.93593 0.54366 0.71298 0.0
H857 H 0.88199 0.51197 0.62285 0.0
H858 H 0.92671 0.49854 0.70236 0.0
S859 S 0.91608 0.62498 0.67409 0.0
N860 N 0.88958 0.61076 0.62969 0.0
N861 N 0.93839 0.59646 0.71505 0.0
C862 C 0.92461 0.57351 0.6939 0.0
C863 C 0.89807 0.58131 0.6474 0.0
loop_
_geom_bond_atom_site_label_1
_geom_bond_atom_site_label_2
_geom_bond_distance
_geom_bond_site_symmetry_2
_ccdc_geom_bond_type
C0 C1 1.391 . S
C0 C4 1.391 . S
C0 H42 0.948 . S
C1 C0 1.391 . S
C1 C2 1.391 . S
C2 C1 1.391 . S
C2 H58 0.947 . S
C2 C59 1.392 . S
C3 C4 1.391 . S
C3 C7 1.397 . S
C3 C59 1.419 . S
C4 C0 1.391 . S
C4 C3 1.391 . S
C4 C5 1.399 . S
C5 C4 1.399 . S
C5 C8 1.396 . S
C5 C17 1.453 . S
C5 C18 1.684 . S
H6 C30 0.948 1_556 S
C7 C3 1.397 . S
C7 C8 1.394 . S
C7 C26 1.723 . S
C8 C5 1.396 . S
C8 C7 1.394 . S
C8 C38 1.723 . S
H9 C32 0.947 . S
H10 C33 0.948 . S
H11 C39 0.982 . S
H12 C40 0.979 . S
H13 C40 0.980 . S
H14 C40 0.983 . S
H15 C39 0.979 . S
H16 C39 0.977 . S
C17 C5 1.453 . S
C17 H46 0.982 . S
C17 H47 0.979 . S
C17 H48 0.977 . S
C18 C5 1.684 . S
C18 H43 0.979 . S
C18 H44 0.980 . S
C18 H45 0.983 . S
C19 C20 1.391 . S
C19 C24 1.391 1_556 S
C19 H49 0.948 1_556 S
C20 C19 1.391 . S
C20 C21 1.391 . S
C21 C20 1.391 . S
C21 C22 1.392 . S
C21 H50 0.947 . S
C22 C21 1.392 . S
C22 C23 1.419 1_556 S
C22 H51 0.948 . S
C23 C22 1.419 1_554 S
C23 C24 1.391 . S
C23 C27 1.397 . S
C24 C19 1.391 1_554 S
C24 C23 1.391 . S
C24 C25 1.399 . S
C25 C24 1.399 . S
C25 C26 1.396 . S
C25 C28 1.453 . S
C25 C29 1.684 . S
C26 C7 1.723 . S
C26 C25 1.396 . S
C26 C27 1.394 . S
C27 C23 1.397 . S
C27 C26 1.394 . S
C27 C37 1.723 . S
C28 C25 1.453 . S
C28 H52 0.982 . S
C28 H53 0.979 . S
C28 H54 0.977 . S
C29 C25 1.684 . S
C29 H55 0.979 . S
C29 H56 0.980 . S
C29 H57 0.983 . S
C30 H6 0.948 1_554 S
C30 C31 1.391 . S
C30 C35 1.391 . S
C31 C30 1.391 . S
C31 C32 1.391 . S
C32 H9 0.947 . S
C32 C31 1.391 . S
C32 C33 1.392 . S
C33 H10 0.948 . S
C33 C32 1.392 . S
C33 C34 1.419 . S
C34 C33 1.419 . S
C34 C35 1.391 . S
C34 C38 1.397 . S
C35 C30 1.391 . S
C35 C34 1.391 . S
C35 C36 1.399 . S
C36 C35 1.399 . S
C36 C37 1.396 . S
C36 C39 1.453 1_554 S
C36 C40 1.684 1_554 S
C37 C27 1.723 . S
C37 C36 1.396 . S
C37 C38 1.394 . S
C38 C8 1.723 . S
C38 C34 1.397 . S
C38 C37 1.394 . S
C39 H11 0.982 . S
C39 H15 0.979 . S
C39 H16 0.977 . S
C39 C36 1.453 1_556 S
C40 H12 0.979 . S
C40 H13 0.980 . S
C40 H14 0.983 . S
C40 C36 1.684 1_556 S
H41 C59 0.948 . S
H42 C0 0.948 . S
H43 C18 0.979 . S
H44 C18 0.980 . S
H45 C18 0.983 . S
H46 C17 0.982 . S
H47 C17 0.979 . S
H48 C17 0.977 . S
H49 C19 0.948 1_554 S
H50 C21 0.947 . S
H51 C22 0.948 . S
H52 C28 0.982 . S
H53 C28 0.979 . S
H54 C28 0.977 . S
H55 C29 0.979 . S
H56 C29 0.980 . S
H57 C29 0.983 . S
H58 C2 0.947 . S
C59 C2 1.392 . S
C59 C3 1.419 . S
C59 H41 0.948 . S
C60 C61 1.391 . S
C60 C64 1.391 . S
C60 H102 0.948 . S
C61 C60 1.391 . S
C61 C62 1.391 . S
C62 C61 1.391 . S
C62 H118 0.947 . S
C62 C119 1.392 1_556 S
C63 C64 1.391 1_554 S
C63 C67 1.397 1_655 S
C63 C119 1.419 . S
C64 C60 1.391 . S
C64 C63 1.391 1_556 S
C64 C65 1.399 . S
C65 C64 1.399 . S
C65 C68 1.396 1_656 S
C65 C77 1.453 1_655 S
C65 C78 1.684 . S
H66 C90 0.948 . S
C67 C63 1.397 1_455 S
C67 C68 1.394 . S
C67 C86 1.723 . S
C68 C65 1.396 1_454 S
C68 C67 1.394 . S
C68 C98 1.723 . S
H69 C92 0.947 . S
H70 C93 0.948 1_556 S
H71 C99 0.982 . S
H72 C100 0.979 . S
H73 C100 0.980 . S
H74 C100 0.983 . S
H75 C99 0.979 . S
H76 C99 0.977 . S
C77 C65 1.453 1_455 S
C77 H106 0.982 . S
C77 H107 0.979 . S
C77 H108 0.977 . S
C78 C65 1.684 . S
C78 H103 0.979 . S
C78 H104 0.980 . S
C78 H105 0.983 . S
C79 C80 1.391 . S
C79 C84 1.391 . S
C79 H109 0.948 . S
C80 C79 1.391 . S
C80 C81 1.391 . S
C81 C80 1.391 . S
C81 C82 1.392 . S
C81 H110 0.947 . S
C82 C81 1.392 . S
C82 C83 1.419 . S
C82 H111 0.948 . S
C83 C82 1.419 . S
C83 C84 1.391 . S
C83 C87 1.397 1_655 S
C84 C79 1.391 . S
C84 C83 1.391 . S
C84 C85 1.399 . S
C85 C84 1.399 . S
C85 C86 1.396 1_655 S
C85 C88 1.453 1_655 S
C85 C89 1.684 . S
C86 C67 1.723 . S
C86 C85 1.396 1_455 S
C86 C87 1.394 . S
C87 C83 1.397 1_455 S
C87 C86 1.394 . S
C87 C97 1.723 . S
C88 C85 1.453 1_455 S
C88 H112 0.982 . S
C88 H113 0.979 . S
C88 H114 0.977 . S
C89 C85 1.684 . S
C89 H115 0.979 . S
C89 H116 0.980 . S
C89 H117 0.983 . S
C90 H66 0.948 . S
C90 C91 1.391 . S
C90 C95 1.391 . S
C91 C90 1.391 . S
C91 C92 1.391 1_554 S
C92 H69 0.947 . S
C92 C91 1.391 1_556 S
C92 C93 1.392 1_556 S
C93 H70 0.948 1_554 S
C93 C92 1.392 1_554 S
C93 C94 1.419 . S
C94 C93 1.419 . S
C94 C95 1.391 . S
C94 C98 1.397 1_655 S
C95 C90 1.391 . S
C95 C94 1.391 . S
C95 C96 1.399 . S
C96 C95 1.399 . S
C96 C97 1.396 1_655 S
C96 C99 1.453 1_655 S
C96 C100 1.684 . S
C97 C87 1.723 . S
C97 C96 1.396 1_455 S
C97 C98 1.394 . S
C98 C68 1.723 . S
C98 C94 1.397 1_455 S
C98 C97 1.394 . S
C99 H71 0.982 . S
C99 H75 0.979 . S
C99 H76 0.977 . S
C99 C96 1.453 1_455 S
C100 H72 0.979 . S
C100 H73 0.980 . S
C100 H74 0.983 . S
C100 C96 1.684 . S
H101 C119 0.948 . S
H102 C60 0.948 . S
H103 C78 0.979 . S
H104 C78 0.980 . S
H105 C78 0.983 . S
H106 C77 0.982 . S
H107 C77 0.979 . S
H108 C77 0.977 . S
H109 C79 0.948 . S
H110 C81 0.947 . S
H111 C82 0.948 . S
H112 C88 0.982 . S
H113 C88 0.979 . S
H114 C88 0.977 . S
H115 C89 0.979 . S
H116 C89 0.980 . S
H117 C89 0.983 . S
H118 C62 0.947 . S
C119 C62 1.392 1_554 S
C119 C63 1.419 . S
C119 H101 0.948 . S
C120 C121 1.391 . S
C120 C124 1.391 . S
C120 H162 0.948 . S
C121 C120 1.391 . S
C121 C122 1.391 1_554 S
C122 C121 1.391 1_556 S
C122 H178 0.947 . S
C122 C179 1.392 . S
C123 C124 1.391 . S
C123 C127 1.397 . S
C123 C179 1.419 1_554 S
C124 C120 1.391 . S
C124 C123 1.391 . S
C124 C125 1.399 . S
C125 C124 1.399 . S
C125 C128 1.396 . S
C125 C137 1.453 . S
C125 C138 1.684 . S
H126 C150 0.948 . S
C127 C123 1.397 . S
C127 C128 1.394 . S
C127 C146 1.723 . S
C128 C125 1.396 . S
C128 C127 1.394 . S
C128 C158 1.723 . S
H129 C152 0.947 . S
H130 C153 0.948 . S
H131 C159 0.982 . S
H132 C160 0.979 . S
H133 C160 0.980 . S
H134 C160 0.983 . S
H135 C159 0.979 . S
H136 C159 0.977 . S
C137 C125 1.453 . S
C137 H166 0.982 . S
C137 H167 0.979 . S
C137 H168 0.977 . S
C138 C125 1.684 . S
C138 H163 0.979 . S
C138 H164 0.980 . S
C138 H165 0.983 . S
C139 C140 1.391 . S
C139 C144 1.391 . S
C139 H169 0.948 . S
C140 C139 1.391 . S
C140 C141 1.391 . S
C141 C140 1.391 . S
C141 C142 1.392 1_556 S
C141 H170 0.947 . S
C142 C141 1.392 1_554 S
C142 C143 1.419 . S
C142 H171 0.948 . S
C143 C142 1.419 . S
C143 C144 1.391 1_554 S
C143 C147 1.397 . S
C144 C139 1.391 . S
C144 C143 1.391 1_556 S
C144 C145 1.399 . S
C145 C144 1.399 . S
C145 C146 1.396 1_556 S
C145 C148 1.453 . S
C145 C149 1.684 . S
C146 C127 1.723 . S
C146 C145 1.396 1_554 S
C146 C147 1.394 . S
C147 C143 1.397 . S
C147 C146 1.394 . S
C147 C157 1.723 . S
C148 C145 1.453 . S
C148 H172 0.982 . S
C148 H173 0.979 . S
C148 H174 0.977 . S
C149 C145 1.684 . S
C149 H175 0.979 . S
C149 H176 0.980 . S
C149 H177 0.983 . S
C150 H126 0.948 . S
C150 C151 1.391 . S
C150 C155 1.391 . S
C151 C150 1.391 . S
C151 C152 1.391 . S
C152 H129 0.947 . S
C152 C151 1.391 . S
C152 C153 1.392 . S
C153 H130 0.948 . S
C153 C152 1.392 . S
C153 C154 1.419 . S
C154 C153 1.419 . S
C154 C155 1.391 . S
C154 C158 1.397 . S
C155 C150 1.391 . S
C155 C154 1.391 . S
C155 C156 1.399 . S
C156 C155 1.399 . S
C156 C157 1.396 . S
C156 C159 1.453 . S
C156 C160 1.684 . S
C157 C147 1.723 . S
C157 C156 1.396 . S
C157 C158 1.394 . S
C158 C128 1.723 . S
C158 C154 1.397 . S
C158 C157 1.394 . S
C159 H131 0.982 . S
C159 H135 0.979 . S
C159 H136 0.977 . S
C159 C156 1.453 . S
C160 H132 0.979 . S
C160 H133 0.980 . S
C160 H134 0.983 . S
C160 C156 1.684 . S
H161 C179 0.948 . S
H162 C120 0.948 . S
H163 C138 0.979 . S
H164 C138 0.980 . S
H165 C138 0.983 . S
H166 C137 0.982 . S
H167 C137 0.979 . S
H168 C137 0.977 . S
H169 C139 0.948 . S
H170 C141 0.947 . S
H171 C142 0.948 . S
H172 C148 0.982 . S
H173 C148 0.979 . S
H174 C148 0.977 . S
H175 C149 0.979 . S
H176 C149 0.980 . S
H177 C149 0.983 . S
H178 C122 0.947 . S
C179 C122 1.392 . S
C179 C123 1.419 1_556 S
C179 H161 0.948 . S
C180 C181 1.391 . S
C180 C184 1.391 . S
C180 H222 0.948 . S
C181 C180 1.391 . S
C181 C182 1.391 . S
C182 C181 1.391 . S
C182 H238 0.947 . S
C182 C239 1.392 . S
C183 C184 1.391 . S
C183 C187 1.397 . S
C183 C239 1.419 . S
C184 C180 1.391 . S
C184 C183 1.391 . S
C184 C185 1.399 . S
C185 C184 1.399 . S
C185 C188 1.396 . S
C185 C197 1.453 . S
C185 C198 1.684 . S
H186 C210 0.948 1_556 S
C187 C183 1.397 . S
C187 C188 1.394 . S
C187 C206 1.723 . S
C188 C185 1.396 . S
C188 C187 1.394 . S
C188 C218 1.723 . S
H189 C212 0.947 . S
H190 C213 0.948 . S
H191 C219 0.982 . S
H192 C220 0.979 . S
H193 C220 0.980 . S
H194 C220 0.983 . S
H195 C219 0.979 . S
H196 C219 0.977 . S
C197 C185 1.453 . S
C197 H226 0.982 . S
C197 H227 0.979 . S
C197 H228 0.977 . S
C198 C185 1.684 . S
C198 H223 0.979 . S
C198 H224 0.980 . S
C198 H225 0.983 . S
C199 C200 1.391 . S
C199 C204 1.391 1_556 S
C199 H229 0.948 1_556 S
C200 C199 1.391 . S
C200 C201 1.391 . S
C201 C200 1.391 . S
C201 C202 1.392 . S
C201 H230 0.947 . S
C202 C201 1.392 . S
C202 C203 1.419 1_556 S
C202 H231 0.948 . S
C203 C202 1.419 1_554 S
C203 C204 1.391 . S
C203 C207 1.397 . S
C204 C199 1.391 1_554 S
C204 C203 1.391 . S
C204 C205 1.399 . S
C205 C204 1.399 . S
C205 C206 1.396 . S
C205 C208 1.453 . S
C205 C209 1.684 . S
C206 C187 1.723 . S
C206 C205 1.396 . S
C206 C207 1.394 . S
C207 C203 1.397 . S
C207 C206 1.394 . S
C207 C217 1.723 . S
C208 C205 1.453 . S
C208 H232 0.982 . S
C208 H233 0.979 . S
C208 H234 0.977 . S
C209 C205 1.684 . S
C209 H235 0.979 . S
C209 H236 0.980 . S
C209 H237 0.983 . S
C210 H186 0.948 1_554 S
C210 C211 1.391 . S
C210 C215 1.391 . S
C211 C210 1.391 . S
C211 C212 1.391 . S
C212 H189 0.947 . S
C212 C211 1.391 . S
C212 C213 1.392 . S
C213 H190 0.948 . S
C213 C212 1.392 . S
C213 C214 1.419 . S
C214 C213 1.419 . S
C214 C215 1.391 . S
C214 C218 1.397 . S
C215 C210 1.391 . S
C215 C214 1.391 . S
C215 C216 1.399 . S
C216 C215 1.399 . S
C216 C217 1.396 . S
C216 C219 1.453 1_554 S
C216 C220 1.684 1_554 S
C217 C207 1.723 . S
C217 C216 1.396 . S
C217 C218 1.394 . S
C218 C188 1.723 . S
C218 C214 1.397 . S
C218 C217 1.394 . S
C219 H191 0.982 . S
C219 H195 0.979 . S
C219 H196 0.977 . S
C219 C216 1.453 1_556 S
C220 H192 0.979 . S
C220 H193 0.980 . S
C220 H194 0.983 . S
C220 C216 1.684 1_556 S
H221 C239 0.948 . S
H222 C180 0.948 . S
H223 C198 0.979 . S
H224 C198 0.980 . S
H225 C198 0.983 . S
H226 C197 0.982 . S
H227 C197 0.979 . S
H228 C197 0.977 . S
H229 C199 0.948 1_554 S
H230 C201 0.947 . S
H231 C202 0.948 . S
H232 C208 0.982 . S
H233 C208 0.979 . S
H234 C208 0.977 . S
H235 C209 0.979 . S
H236 C209 0.980 . S
H237 C209 0.983 . S
H238 C182 0.947 . S
C239 C182 1.392 . S
C239 C183 1.419 . S
C239 H221 0.948 . S
C240 C241 1.391 . S
C240 C244 1.391 . S
C240 H282 0.948 . S
C241 C240 1.391 . S
C241 C242 1.391 . S
C242 C241 1.391 . S
C242 H298 0.947 . S
C242 C299 1.392 . S
C243 C244 1.391 . S
C243 C247 1.397 . S
C243 C299 1.419 . S
C244 C240 1.391 . S
C244 C243 1.391 . S
C244 C245 1.399 . S
C245 C244 1.399 . S
C245 C248 1.396 . S
C245 C257 1.453 . S
C245 C258 1.684 . S
H246 C270 0.948 . S
C247 C243 1.397 . S
C247 C248 1.394 . S
C247 C266 1.723 . S
C248 C245 1.396 . S
C248 C247 1.394 . S
C248 C278 1.723 . S
H249 C272 0.947 . S
H250 C273 0.948 . S
H251 C279 0.982 . S
H252 C280 0.979 . S
H253 C280 0.980 . S
H254 C280 0.983 . S
H255 C279 0.979 . S
H256 C279 0.977 . S
C257 C245 1.453 . S
C257 H286 0.982 . S
C257 H287 0.979 . S
C257 H288 0.977 . S
C258 C245 1.684 . S
C258 H283 0.979 . S
C258 H284 0.980 . S
C258 H285 0.983 . S
C259 C260 1.391 . S
C259 C264 1.391 . S
C259 H289 0.948 . S
C260 C259 1.391 . S
C260 C261 1.391 . S
C261 C260 1.391 . S
C261 C262 1.392 . S
C261 H290 0.947 . S
C262 C261 1.392 . S
C262 C263 1.419 . S
C262 H291 0.948 . S
C263 C262 1.419 . S
C263 C264 1.391 . S
C263 C267 1.397 . S
C264 C259 1.391 . S
C264 C263 1.391 . S
C264 C265 1.399 . S
C265 C264 1.399 . S
C265 C266 1.396 . S
C265 C268 1.453 . S
C265 C269 1.684 . S
C266 C247 1.723 . S
C266 C265 1.396 . S
C266 C267 1.394 . S
C267 C263 1.397 . S
C267 C266 1.394 . S
C267 C277 1.723 . S
C268 C265 1.453 . S
C268 H292 0.982 . S
C268 H293 0.979 . S
C268 H294 0.977 . S
C269 C265 1.684 . S
C269 H295 0.979 . S
C269 H296 0.980 . S
C269 H297 0.983 . S
C270 H246 0.948 . S
C270 C271 1.391 . S
C270 C275 1.391 . S
C271 C270 1.391 . S
C271 C272 1.391 . S
C272 H249 0.947 . S
C272 C271 1.391 . S
C272 C273 1.392 . S
C273 H250 0.948 . S
C273 C272 1.392 . S
C273 C274 1.419 . S
C274 C273 1.419 . S
C274 C275 1.391 . S
C274 C278 1.397 . S
C275 C270 1.391 . S
C275 C274 1.391 . S
C275 C276 1.399 . S
C276 C275 1.399 . S
C276 C277 1.396 . S
C276 C279 1.453 . S
C276 C280 1.684 . S
C277 C267 1.723 . S
C277 C276 1.396 . S
C277 C278 1.394 . S
C278 C248 1.723 . S
C278 C274 1.397 . S
C278 C277 1.394 . S
C279 H251 0.982 . S
C279 H255 0.979 . S
C279 H256 0.977 . S
C279 C276 1.453 . S
C280 H252 0.979 . S
C280 H253 0.980 . S
C280 H254 0.983 . S
C280 C276 1.684 . S
H281 C299 0.948 . S
H282 C240 0.948 . S
H283 C258 0.979 . S
H284 C258 0.980 . S
H285 C258 0.983 . S
H286 C257 0.982 . S
H287 C257 0.979 . S
H288 C257 0.977 . S
H289 C259 0.948 . S
H290 C261 0.947 . S
H291 C262 0.948 . S
H292 C268 0.982 . S
H293 C268 0.979 . S
H294 C268 0.977 . S
H295 C269 0.979 . S
H296 C269 0.980 . S
H297 C269 0.983 . S
H298 C242 0.947 . S
C299 C242 1.392 . S
C299 C243 1.419 . S
C299 H281 0.948 . S
C300 C301 1.391 . S
C300 C304 1.391 . S
C300 H342 0.948 . S
C301 C300 1.391 . S
C301 C302 1.391 . S
C302 C301 1.391 . S
C302 H358 0.947 . S
C302 C359 1.392 . S
C303 C304 1.391 . S
C303 C307 1.396 1_655 S
C303 C359 1.419 . S
C304 C300 1.391 . S
C304 C303 1.391 . S
C304 C305 1.399 . S
C305 C304 1.399 . S
C305 C308 1.396 1_655 S
C305 C317 1.453 1_655 S
C305 C318 1.684 . S
H306 C330 0.948 . S
C307 C303 1.396 1_455 S
C307 C308 1.395 . S
C307 C326 1.723 . S
C308 C305 1.396 1_455 S
C308 C307 1.395 . S
C308 C338 1.723 . S
H309 C332 0.947 . S
H310 C333 0.948 . S
H311 C339 0.982 . S
H312 C340 0.979 . S
H313 C340 0.980 . S
H314 C340 0.983 . S
H315 C339 0.979 . S
H316 C339 0.977 . S
C317 C305 1.453 1_455 S
C317 H346 0.982 . S
C317 H347 0.979 . S
C317 H348 0.977 . S
C318 C305 1.684 . S
C318 H343 0.979 . S
C318 H344 0.980 . S
C318 H345 0.983 . S
C319 C320 1.391 . S
C319 C324 1.391 . S
C319 H349 0.948 . S
C320 C319 1.391 . S
C320 C321 1.391 . S
C321 C320 1.391 . S
C321 C322 1.392 . S
C321 H350 0.947 . S
C322 C321 1.392 . S
C322 C323 1.419 . S
C322 H351 0.948 . S
C323 C322 1.419 . S
C323 C324 1.391 . S
C323 C327 1.396 1_655 S
C324 C319 1.391 . S
C324 C323 1.391 . S
C324 C325 1.399 . S
C325 C324 1.399 . S
C325 C326 1.396 1_655 S
C325 C328 1.453 1_655 S
C325 C329 1.684 . S
C326 C307 1.723 . S
C326 C325 1.396 1_455 S
C326 C327 1.394 . S
C327 C323 1.396 1_455 S
C327 C326 1.394 . S
C327 C337 1.724 . S
C328 C325 1.453 1_455 S
C328 H352 0.982 . S
C328 H353 0.979 . S
C328 H354 0.977 . S
C329 C325 1.684 . S
C329 H355 0.979 . S
C329 H356 0.980 . S
C329 H357 0.983 . S
C330 H306 0.948 . S
C330 C331 1.391 . S
C330 C335 1.391 . S
C331 C330 1.391 . S
C331 C332 1.391 . S
C332 H309 0.947 . S
C332 C331 1.391 . S
C332 C333 1.392 . S
C333 H310 0.948 . S
C333 C332 1.392 . S
C333 C334 1.419 . S
C334 C333 1.419 . S
C334 C335 1.391 . S
C334 C338 1.397 1_655 S
C335 C330 1.391 . S
C335 C334 1.391 . S
C335 C336 1.399 . S
C336 C335 1.399 . S
C336 C337 1.396 1_655 S
C336 C339 1.453 1_655 S
C336 C340 1.684 . S
C337 C327 1.724 . S
C337 C336 1.396 1_455 S
C337 C338 1.395 . S
C338 C308 1.723 . S
C338 C334 1.397 1_455 S
C338 C337 1.395 . S
C339 H311 0.982 . S
C339 H315 0.979 . S
C339 H316 0.977 . S
C339 C336 1.453 1_455 S
C340 H312 0.979 . S
C340 H313 0.980 . S
C340 H314 0.983 . S
C340 C336 1.684 . S
H341 C359 0.948 . S
H342 C300 0.948 . S
H343 C318 0.979 . S
H344 C318 0.980 . S
H345 C318 0.983 . S
H346 C317 0.982 . S
H347 C317 0.979 . S
H348 C317 0.977 . S
H349 C319 0.948 . S
H350 C321 0.947 . S
H351 C322 0.948 . S
H352 C328 0.982 . S
H353 C328 0.979 . S
H354 C328 0.977 . S
H355 C329 0.979 . S
H356 C329 0.980 . S
H357 C329 0.983 . S
H358 C302 0.947 . S
C359 C302 1.392 . S
C359 C303 1.419 . S
C359 H341 0.948 . S
C360 C361 1.391 . S
C360 C364 1.391 . S
C360 H402 0.948 . S
C361 C360 1.391 . S
C361 C362 1.391 . S
C362 C361 1.391 . S
C362 H418 0.947 . S
C362 C419 1.392 . S
C363 C364 1.391 . S
C363 C367 1.397 . S
C363 C419 1.419 . S
C364 C360 1.391 . S
C364 C363 1.391 . S
C364 C365 1.399 . S
C365 C364 1.399 . S
C365 C368 1.396 . S
C365 C377 1.453 . S
C365 C378 1.684 . S
H366 C390 0.948 . S
C367 C363 1.397 . S
C367 C368 1.394 . S
C367 C386 1.723 . S
C368 C365 1.396 . S
C368 C367 1.394 . S
C368 C398 1.723 . S
H369 C392 0.947 . S
H370 C393 0.948 . S
H371 C399 0.982 . S
H372 C400 0.979 . S
H373 C400 0.980 . S
H374 C400 0.983 . S
H375 C399 0.979 . S
H376 C399 0.977 . S
C377 C365 1.453 . S
C377 H406 0.982 . S
C377 H407 0.979 . S
C377 H408 0.977 . S
C378 C365 1.684 . S
C378 H403 0.979 . S
C378 H404 0.980 . S
C378 H405 0.983 . S
C379 C380 1.391 . S
C379 C384 1.391 . S
C379 H409 0.948 . S
C380 C379 1.391 . S
C380 C381 1.391 . S
C381 C380 1.391 . S
C381 C382 1.392 . S
C381 H410 0.947 . S
C382 C381 1.392 . S
C382 C383 1.419 . S
C382 H411 0.948 . S
C383 C382 1.419 . S
C383 C384 1.391 . S
C383 C387 1.397 . S
C384 C379 1.391 . S
C384 C383 1.391 . S
C384 C385 1.399 . S
C385 C384 1.399 . S
C385 C386 1.396 . S
C385 C388 1.453 . S
C385 C389 1.684 . S
C386 C367 1.723 . S
C386 C385 1.396 . S
C386 C387 1.394 . S
C387 C383 1.397 . S
C387 C386 1.394 . S
C387 C397 1.723 . S
C388 C385 1.453 . S
C388 H412 0.982 . S
C388 H413 0.979 . S
C388 H414 0.977 . S
C389 C385 1.684 . S
C389 H415 0.979 . S
C389 H416 0.980 . S
C389 H417 0.983 . S
C390 H366 0.948 . S
C390 C391 1.391 . S
C390 C395 1.391 . S
C391 C390 1.391 . S
C391 C392 1.391 . S
C392 H369 0.947 . S
C392 C391 1.391 . S
C392 C393 1.392 . S
C393 H370 0.948 . S
C393 C392 1.392 . S
C393 C394 1.419 . S
C394 C393 1.419 . S
C394 C395 1.391 . S
C394 C398 1.397 . S
C395 C390 1.391 . S
C395 C394 1.391 . S
C395 C396 1.399 . S
C396 C395 1.399 . S
C396 C397 1.396 . S
C396 C399 1.453 . S
C396 C400 1.684 . S
C397 C387 1.723 . S
C397 C396 1.396 . S
C397 C398 1.394 . S
C398 C368 1.723 . S
C398 C394 1.397 . S
C398 C397 1.394 . S
C399 H371 0.982 . S
C399 H375 0.979 . S
C399 H376 0.977 . S
C399 C396 1.453 . S
C400 H372 0.979 . S
C400 H373 0.980 . S
C400 H374 0.983 . S
C400 C396 1.684 . S
H401 C419 0.948 . S
H402 C360 0.948 . S
H403 C378 0.979 . S
H404 C378 0.980 . S
H405 C378 0.983 . S
H406 C377 0.982 . S
H407 C377 0.979 . S
H408 C377 0.977 . S
H409 C379 0.948 . S
H410 C381 0.947 . S
H411 C382 0.948 . S
H412 C388 0.982 . S
H413 C388 0.979 . S
H414 C388 0.977 . S
H415 C389 0.979 . S
H416 C389 0.980 . S
H417 C389 0.983 . S
H418 C362 0.947 . S
C419 C362 1.392 . S
C419 C363 1.419 . S
C419 H401 0.948 . S
C420 C421 1.391 . S
C420 C424 1.391 . S
C420 H462 0.948 . S
C421 C420 1.391 . S
C421 C422 1.391 . S
C422 C421 1.391 . S
C422 H478 0.947 . S
C422 C479 1.392 . S
C423 C424 1.391 . S
C423 C427 1.397 . S
C423 C479 1.419 . S
C424 C420 1.391 . S
C424 C423 1.391 . S
C424 C425 1.399 . S
C425 C424 1.399 . S
C425 C428 1.396 . S
C425 C437 1.453 . S
C425 C438 1.684 . S
H426 C450 0.948 . S
C427 C423 1.397 . S
C427 C428 1.394 . S
C427 C446 1.723 . S
C428 C425 1.396 . S
C428 C427 1.394 . S
C428 C458 1.723 . S
H429 C452 0.947 . S
H430 C453 0.948 . S
H431 C459 0.982 . S
H432 C460 0.979 . S
H433 C460 0.980 . S
H434 C460 0.983 . S
H435 C459 0.979 . S
H436 C459 0.977 . S
C437 C425 1.453 . S
C437 H466 0.982 . S
C437 H467 0.979 . S
C437 H468 0.977 . S
C438 C425 1.684 . S
C438 H463 0.979 . S
C438 H464 0.980 . S
C438 H465 0.983 . S
C439 C440 1.391 . S
C439 C444 1.391 . S
C439 H469 0.948 . S
C440 C439 1.391 . S
C440 C441 1.391 . S
C441 C440 1.391 . S
C441 C442 1.392 . S
C441 H470 0.947 . S
C442 C441 1.392 . S
C442 C443 1.419 . S
C442 H471 0.948 . S
C443 C442 1.419 . S
C443 C444 1.391 . S
C443 C447 1.397 . S
C444 C439 1.391 . S
C444 C443 1.391 . S
C444 C445 1.399 . S
C445 C444 1.399 . S
C445 C446 1.396 . S
C445 C448 1.453 . S
C445 C449 1.684 . S
C446 C427 1.723 . S
C446 C445 1.396 . S
C446 C447 1.394 . S
C447 C443 1.397 . S
C447 C446 1.394 . S
C447 C457 1.723 . S
C448 C445 1.453 . S
C448 H472 0.982 . S
C448 H473 0.979 . S
C448 H474 0.977 . S
C449 C445 1.684 . S
C449 H475 0.979 . S
C449 H476 0.980 . S
C449 H477 0.983 . S
C450 H426 0.948 . S
C450 C451 1.391 . S
C450 C455 1.391 . S
C451 C450 1.391 . S
C451 C452 1.391 . S
C452 H429 0.947 . S
C452 C451 1.391 . S
C452 C453 1.392 . S
C453 H430 0.948 . S
C453 C452 1.392 . S
C453 C454 1.419 . S
C454 C453 1.419 . S
C454 C455 1.391 . S
C454 C458 1.397 . S
C455 C450 1.391 . S
C455 C454 1.391 . S
C455 C456 1.399 . S
C456 C455 1.399 . S
C456 C457 1.396 . S
C456 C459 1.453 . S
C456 C460 1.684 . S
C457 C447 1.723 . S
C457 C456 1.396 . S
C457 C458 1.394 . S
C458 C428 1.723 . S
C458 C454 1.397 . S
C458 C457 1.394 . S
C459 H431 0.982 . S
C459 H435 0.979 . S
C459 H436 0.977 . S
C459 C456 1.453 . S
C460 H432 0.979 . S
C460 H433 0.980 . S
C460 H434 0.983 . S
C460 C456 1.684 . S
H461 C479 0.948 . S
H462 C420 0.948 . S
H463 C438 0.979 . S
H464 C438 0.980 . S
H465 C438 0.983 . S
H466 C437 0.982 . S
H467 C437 0.979 . S
H468 C437 0.977 . S
H469 C439 0.948 . S
H470 C441 0.947 . S
H471 C442 0.948 . S
H472 C448 0.982 . S
H473 C448 0.979 . S
H474 C448 0.977 . S
H475 C449 0.979 . S
H476 C449 0.980 . S
H477 C449 0.983 . S
H478 C422 0.947 . S
C479 C422 1.392 . S
C479 C423 1.419 . S
C479 H461 0.948 . S
Co480 N485 2.057 . S
Co480 O497 2.021 . S
Co480 O500 2.062 1_455 S
Co480 O504 2.117 1_455 S
Co480 O505 2.020 1_545 S
C481 O501 1.259 1_545 S
C481 O504 1.258 . S
Co482 N491 2.045 1_545 S
Co482 O498 2.123 1_655 S
Co482 O499 2.044 . S
Co482 O501 2.018 1_545 S
Co482 O506 2.043 1_645 S
C483 N485 1.316 . S
C483 N486 1.347 1_556 S
C483 H488 0.931 . S
C484 N485 1.375 1_655 S
C484 C487 1.350 1_556 S
C484 H489 0.930 . S
N485 Co480 2.057 . S
N485 C483 1.316 . S
N485 C484 1.375 1_455 S
N486 C483 1.347 1_554 S
N486 C487 1.373 1_455 S
C487 C484 1.350 1_554 S
C487 N486 1.373 1_655 S
C487 H508 0.931 . S
H488 C483 0.931 . S
H489 C484 0.930 . S
C490 O497 1.259 . S
C490 O498 1.258 . S
N491 Co482 2.045 1_565 S
N491 C492 1.344 . S
N491 C493 1.342 1_655 S
C492 N491 1.344 . S
C492 N494 1.347 . S
C492 H503 0.931 . S
C493 N491 1.342 1_455 S
C493 C495 1.350 . S
C493 H502 0.930 . S
N494 C492 1.347 . S
N494 C495 1.373 1_655 S
C495 C493 1.350 . S
C495 N494 1.373 1_455 S
C495 H509 0.931 . S
C496 O499 1.256 . S
C496 O500 1.255 . S
O497 Co480 2.021 . S
O497 C490 1.259 . S
O498 Co482 2.123 1_455 S
O498 C490 1.258 . S
O499 Co482 2.044 . S
O499 C496 1.256 . S
O500 Co480 2.062 1_655 S
O500 C496 1.255 . S
O501 C481 1.259 1_565 S
O501 Co482 2.018 1_565 S
H502 C493 0.930 . S
H503 C492 0.931 . S
O504 Co480 2.117 1_655 S
O504 C481 1.258 . S
O505 Co480 2.020 1_565 S
O505 C507 1.256 . S
O506 Co482 2.043 1_465 S
O506 C507 1.255 . S
C507 O505 1.256 . S
C507 O506 1.255 . S
H508 C487 0.931 . S
H509 C495 0.931 . S
Co510 N515 2.057 . S
Co510 O527 2.021 . S
Co510 O530 2.062 . S
Co510 O534 2.117 1_545 S
Co510 O535 2.020 . S
C511 O531 1.259 . S
C511 O534 1.258 . S
Co512 N521 2.057 . S
Co512 O528 2.117 . S
Co512 O529 2.020 . S
Co512 O531 2.021 1_545 S
Co512 O536 2.062 1_545 S
C513 N515 1.316 . S
C513 N516 1.347 1_556 S
C513 H518 0.931 . S
C514 N515 1.375 . S
C514 C517 1.350 1_556 S
C514 H519 0.930 1_545 S
N515 Co510 2.057 . S
N515 C513 1.316 . S
N515 C514 1.375 . S
N516 C513 1.347 1_554 S
N516 C517 1.373 . S
C517 C514 1.350 1_554 S
C517 N516 1.373 . S
C517 H538 0.931 . S
H518 C513 0.931 . S
H519 C514 0.930 1_565 S
C520 O527 1.259 . S
C520 O528 1.258 . S
N521 Co512 2.057 . S
N521 C522 1.316 1_545 S
N521 C523 1.375 . S
C522 N521 1.316 1_565 S
C522 N524 1.347 . S
C522 H533 0.931 . S
C523 N521 1.375 . S
C523 C525 1.350 . S
C523 H532 0.930 . S
N524 C522 1.347 . S
N524 C525 1.373 1_565 S
C525 C523 1.350 . S
C525 N524 1.373 1_545 S
C525 H539 0.931 . S
C526 O529 1.256 . S
C526 O530 1.255 . S
O527 Co510 2.021 . S
O527 C520 1.259 . S
O528 Co512 2.117 . S
O528 C520 1.258 . S
O529 Co512 2.020 . S
O529 C526 1.256 . S
O530 Co510 2.062 . S
O530 C526 1.255 . S
O531 C511 1.259 . S
O531 Co512 2.021 1_565 S
H532 C523 0.930 . S
H533 C522 0.931 . S
O534 Co510 2.117 1_565 S
O534 C511 1.258 . S
O535 Co510 2.020 . S
O535 C537 1.256 . S
O536 Co512 2.062 1_565 S
O536 C537 1.255 1_565 S
C537 O535 1.256 . S
C537 O536 1.255 1_545 S
H538 C517 0.931 . S
H539 C525 0.931 . S
Co540 N545 2.057 . S
Co540 O557 2.021 . S
Co540 O560 2.062 . S
Co540 O564 2.117 . S
Co540 O565 2.020 . S
C541 O561 1.259 . S
C541 O564 1.258 . S
Co542 N551 2.057 . S
Co542 O558 2.117 . S
Co542 O559 2.020 . S
Co542 O561 2.021 . S
Co542 O566 2.062 . S
C543 N545 1.316 . S
C543 N546 1.347 . S
C543 H548 0.931 . S
C544 N545 1.375 . S
C544 C547 1.350 . S
C544 H549 0.930 . S
N545 Co540 2.057 . S
N545 C543 1.316 . S
N545 C544 1.375 . S
N546 C543 1.347 . S
N546 C547 1.373 . S
C547 C544 1.350 . S
C547 N546 1.373 . S
C547 H568 0.931 . S
H548 C543 0.931 . S
H549 C544 0.930 . S
C550 O557 1.259 . S
C550 O558 1.258 . S
N551 Co542 2.057 . S
N551 C552 1.316 . S
N551 C553 1.375 . S
C552 N551 1.316 . S
C552 N554 1.347 . S
C552 H563 0.931 . S
C553 N551 1.375 . S
C553 C555 1.350 . S
C553 H562 0.930 . S
N554 C552 1.347 . S
N554 C555 1.373 . S
C555 C553 1.350 . S
C555 N554 1.373 . S
C555 H569 0.931 . S
C556 O559 1.256 . S
C556 O560 1.255 . S
O557 Co540 2.021 . S
O557 C550 1.259 . S
O558 Co542 2.117 . S
O558 C550 1.258 . S
O559 Co542 2.020 . S
O559 C556 1.256 . S
O560 Co540 2.062 . S
O560 C556 1.255 . S
O561 C541 1.259 . S
O561 Co542 2.021 . S
H562 C553 0.930 . S
H563 C552 0.931 . S
O564 Co540 2.117 . S
O564 C541 1.258 . S
O565 Co540 2.020 . S
O565 C567 1.256 . S
O566 Co542 2.062 . S
O566 C567 1.255 . S
C567 O565 1.256 . S
C567 O566 1.255 . S
H568 C547 0.931 . S
H569 C555 0.931 . S
Co570 N575 2.057 . S
Co570 O587 2.021 1_455 S
Co570 O590 2.062 1_455 S
Co570 O594 2.117 . S
Co570 O595 2.020 . S
C571 O591 1.259 . S
C571 O594 1.258 . S
Co572 N581 2.057 . S
Co572 O588 2.117 . S
Co572 O589 2.020 . S
Co572 O591 2.021 1_655 S
Co572 O596 2.062 1_655 S
C573 N575 1.316 . S
C573 N576 1.347 . S
C573 H578 0.931 1_455 S
C574 N575 1.375 . S
C574 C577 1.350 . S
C574 H579 0.930 . S
N575 Co570 2.057 . S
N575 C573 1.316 . S
N575 C574 1.375 . S
N576 C573 1.347 . S
N576 C577 1.373 . S
C577 C574 1.350 . S
C577 N576 1.373 . S
C577 H598 0.931 . S
H578 C573 0.931 1_655 S
H579 C574 0.930 . S
C580 O587 1.259 . S
C580 O588 1.258 . S
N581 Co572 2.057 . S
N581 C582 1.316 . S
N581 C583 1.375 . S
C582 N581 1.316 . S
C582 N584 1.347 . S
C582 H593 0.931 1_655 S
C583 N581 1.375 . S
C583 C585 1.350 . S
C583 H592 0.930 . S
N584 C582 1.347 . S
N584 C585 1.373 . S
C585 C583 1.350 . S
C585 N584 1.373 . S
C585 H599 0.931 . S
C586 O589 1.256 . S
C586 O590 1.255 . S
O587 Co570 2.021 1_655 S
O587 C580 1.259 . S
O588 Co572 2.117 . S
O588 C580 1.258 . S
O589 Co572 2.020 . S
O589 C586 1.256 . S
O590 Co570 2.062 1_655 S
O590 C586 1.255 . S
O591 C571 1.259 . S
O591 Co572 2.021 1_455 S
H592 C583 0.930 . S
H593 C582 0.931 1_455 S
O594 Co570 2.117 . S
O594 C571 1.258 . S
O595 Co570 2.020 . S
O595 C597 1.256 . S
O596 Co572 2.062 1_455 S
O596 C597 1.255 . S
C597 O595 1.256 . S
C597 O596 1.255 . S
H598 C577 0.931 . S
H599 C585 0.931 . S
C600 C601 1.369 . S
C600 C602 1.419 . S
C600 H604 0.930 . S
C601 C600 1.369 . S
C601 C610 1.429 . S
C602 C600 1.419 . S
C602 C603 1.363 . S
C602 H605 0.929 . S
C603 C602 1.363 . S
C603 C609 1.428 . S
H604 C600 0.930 . S
H605 C602 0.929 . S
S606 N607 1.613 . S
S606 N608 1.610 . S
N607 S606 1.613 . S
N607 C610 1.350 . S
N608 S606 1.610 . S
N608 C609 1.351 . S
C609 C603 1.428 . S
C609 N608 1.351 . S
C609 C610 1.434 . S
C610 C601 1.429 . S
C610 N607 1.350 . S
C610 C609 1.434 . S
C611 C612 1.369 . S
C611 C613 1.419 . S
C611 H615 0.930 . S
C612 C611 1.369 . S
C612 C621 1.429 . S
C613 C611 1.419 . S
C613 C614 1.363 . S
C613 H616 0.929 . S
C614 C613 1.363 . S
C614 C620 1.428 . S
H615 C611 0.930 . S
H616 C613 0.929 . S
S617 N618 1.613 . S
S617 N619 1.610 . S
N618 S617 1.613 . S
N618 C621 1.350 . S
N619 S617 1.610 . S
N619 C620 1.351 . S
C620 C614 1.428 . S
C620 N619 1.351 . S
C620 C621 1.434 . S
C621 C612 1.429 . S
C621 N618 1.350 . S
C621 C620 1.434 . S
C622 C623 1.369 . S
C622 C624 1.419 . S
C622 H626 0.930 . S
C623 C622 1.369 . S
C623 C632 1.429 . S
C624 C622 1.419 . S
C624 C625 1.363 . S
C624 H627 0.929 . S
C625 C624 1.363 . S
C625 C631 1.428 . S
H626 C622 0.930 . S
H627 C624 0.929 . S
S628 N629 1.613 . S
S628 N630 1.610 . S
N629 S628 1.613 . S
N629 C632 1.350 . S
N630 S628 1.610 . S
N630 C631 1.351 . S
C631 C625 1.428 . S
C631 N630 1.351 . S
C631 C632 1.434 . S
C632 C623 1.429 . S
C632 N629 1.350 . S
C632 C631 1.434 . S
C633 C634 1.369 . S
C633 C635 1.419 . S
C633 H637 0.930 . S
C634 C633 1.369 . S
C634 C643 1.429 . S
C635 C633 1.419 . S
C635 C636 1.363 . S
C635 H638 0.929 . S
C636 C635 1.363 . S
C636 C642 1.428 . S
H637 C633 0.930 . S
H638 C635 0.929 . S
S639 N640 1.613 . S
S639 N641 1.610 . S
N640 S639 1.613 . S
N640 C643 1.350 . S
N641 S639 1.610 . S
N641 C642 1.351 . S
C642 C636 1.428 . S
C642 N641 1.351 . S
C642 C643 1.434 . S
C643 C634 1.429 . S
C643 N640 1.350 . S
C643 C642 1.434 . S
C644 C645 1.369 . S
C644 C646 1.419 . S
C644 H648 0.930 . S
C645 C644 1.369 . S
C645 C654 1.429 . S
C646 C644 1.419 . S
C646 C647 1.363 . S
C646 H649 0.929 . S
C647 C646 1.363 . S
C647 C653 1.410 1_565 S
H648 C644 0.930 . S
H649 C646 0.929 . S
S650 N651 1.613 1_545 S
S650 N652 1.610 1_554 S
N651 S650 1.613 1_565 S
N651 C654 1.350 1_554 S
N652 S650 1.610 1_556 S
N652 C653 1.391 . S
C653 C647 1.410 1_545 S
C653 N652 1.391 . S
C653 C654 1.413 1_545 S
C654 C645 1.429 . S
C654 N651 1.350 1_556 S
C654 C653 1.413 1_565 S
C655 C656 1.369 . S
C655 C657 1.419 . S
C655 H659 0.930 . S
C656 C655 1.369 . S
C656 C665 1.429 1_556 S
C657 C655 1.419 . S
C657 C658 1.363 . S
C657 H660 0.929 . S
C658 C657 1.363 . S
C658 C664 1.428 . S
H659 C655 0.930 . S
H660 C657 0.929 . S
S661 N662 1.613 . S
S661 N663 1.610 1_554 S
N662 S661 1.613 . S
N662 C665 1.350 . S
N663 S661 1.610 1_556 S
N663 C664 1.351 . S
C664 C658 1.428 . S
C664 N663 1.351 . S
C664 C665 1.434 1_556 S
C665 C656 1.429 1_554 S
C665 N662 1.350 . S
C665 C664 1.434 1_554 S
C666 C667 1.369 1_556 S
C666 C668 1.419 . S
C666 H670 0.930 . S
C667 C666 1.369 1_554 S
C667 C676 1.429 . S
C668 C666 1.419 . S
C668 C669 1.363 . S
C668 H671 0.929 . S
C669 C668 1.363 . S
C669 C675 1.428 . S
H670 C666 0.930 . S
H671 C668 0.929 . S
S672 N673 1.613 . S
S672 N674 1.610 1_554 S
N673 S672 1.613 . S
N673 C676 1.350 . S
N674 S672 1.610 1_556 S
N674 C675 1.351 . S
C675 C669 1.428 . S
C675 N674 1.351 . S
C675 C676 1.434 1_556 S
C676 C667 1.429 . S
C676 N673 1.350 . S
C676 C675 1.434 1_554 S
C677 C678 1.369 1_655 S
C677 C679 1.419 1_554 S
C677 H681 0.930 . S
C678 C677 1.369 1_455 S
C678 C687 1.429 1_554 S
C679 C677 1.419 1_556 S
C679 C680 1.363 1_655 S
C679 H682 0.929 . S
C680 C679 1.363 1_455 S
C680 C686 1.428 . S
H681 C677 0.930 . S
H682 C679 0.929 . S
S683 N684 1.613 . S
S683 N685 1.610 . S
N684 S683 1.613 . S
N684 C687 1.350 . S
N685 S683 1.610 . S
N685 C686 1.351 . S
C686 C680 1.428 . S
C686 N685 1.351 . S
C686 C687 1.434 . S
C687 C678 1.429 1_556 S
C687 N684 1.350 . S
C687 C686 1.434 . S
C688 C689 1.369 1_655 S
C688 C690 1.419 . S
C688 H692 0.930 . S
C689 C688 1.369 1_455 S
C689 C698 1.429 . S
C690 C688 1.419 . S
C690 C691 1.363 . S
C690 H693 0.929 . S
C691 C690 1.363 . S
C691 C697 1.428 . S
H692 C688 0.930 . S
H693 C690 0.929 . S
S694 N695 1.613 . S
S694 N696 1.610 . S
N695 S694 1.613 . S
N695 C698 1.350 . S
N696 S694 1.610 . S
N696 C697 1.351 1_455 S
C697 C691 1.428 . S
C697 N696 1.351 1_655 S
C697 C698 1.434 1_655 S
C698 C689 1.429 . S
C698 N695 1.350 . S
C698 C697 1.434 1_455 S
C699 C700 1.369 . S
C699 C701 1.419 . S
C699 H703 0.930 . S
C700 C699 1.369 . S
C700 C709 1.429 . S
C701 C699 1.419 . S
C701 C702 1.363 . S
C701 H704 0.929 . S
C702 C701 1.363 . S
C702 C708 1.428 . S
H703 C699 0.930 . S
H704 C701 0.929 . S
S705 N706 1.613 . S
S705 N707 1.610 . S
N706 S705 1.613 . S
N706 C709 1.350 . S
N707 S705 1.610 . S
N707 C708 1.351 . S
C708 C702 1.428 . S
C708 N707 1.351 . S
C708 C709 1.434 . S
C709 C700 1.429 . S
C709 N706 1.350 . S
C709 C708 1.434 . S
C710 C711 1.369 . S
C710 C712 1.419 . S
C710 H714 0.930 . S
C711 C710 1.369 . S
C711 C720 1.429 . S
C712 C710 1.419 . S
C712 C713 1.363 . S
C712 H715 0.929 . S
C713 C712 1.363 . S
C713 C719 1.428 . S
H714 C710 0.930 . S
H715 C712 0.929 . S
S716 N717 1.613 . S
S716 N718 1.610 . S
N717 S716 1.613 . S
N717 C720 1.350 . S
N718 S716 1.610 . S
N718 C719 1.351 . S
C719 C713 1.428 . S
C719 N718 1.351 . S
C719 C720 1.434 . S
C720 C711 1.429 . S
C720 N717 1.350 . S
C720 C719 1.434 . S
C721 C722 1.369 . S
C721 C723 1.419 . S
C721 H725 0.930 . S
C722 C721 1.369 . S
C722 C731 1.429 . S
C723 C721 1.419 . S
C723 C724 1.363 . S
C723 H726 0.929 . S
C724 C723 1.363 . S
C724 C730 1.428 . S
H725 C721 0.930 . S
H726 C723 0.929 . S
S727 N728 1.613 . S
S727 N729 1.610 . S
N728 S727 1.613 . S
N728 C731 1.350 . S
N729 S727 1.610 . S
N729 C730 1.351 . S
C730 C724 1.428 . S
C730 N729 1.351 . S
C730 C731 1.434 . S
C731 C722 1.429 . S
C731 N728 1.350 . S
C731 C730 1.434 . S
C732 C733 1.369 1_455 S
C732 C734 1.419 . S
C732 H736 0.930 . S
C733 C732 1.369 1_655 S
C733 C742 1.429 . S
C734 C732 1.419 . S
C734 C735 1.363 . S
C734 H737 0.929 . S
C735 C734 1.363 . S
C735 C741 1.428 . S
H736 C732 0.930 . S
H737 C734 0.929 . S
S738 N739 1.613 . S
S738 N740 1.610 1_655 S
N739 S738 1.613 . S
N739 C742 1.350 . S
N740 S738 1.610 1_455 S
N740 C741 1.351 . S
C741 C735 1.428 . S
C741 N740 1.351 . S
C741 C742 1.434 1_455 S
C742 C733 1.429 . S
C742 N739 1.350 . S
C742 C741 1.434 1_655 S
C743 C744 1.369 . S
C743 C745 1.419 . S
C743 H747 0.930 . S
C744 C743 1.369 . S
C744 C753 1.429 . S
C745 C743 1.419 . S
C745 C746 1.363 . S
C745 H748 0.929 . S
C746 C745 1.363 . S
C746 C752 1.428 . S
H747 C743 0.930 . S
H748 C745 0.929 . S
S749 N750 1.613 1_545 S
S749 N751 1.610 . S
N750 S749 1.613 1_565 S
N750 C753 1.350 . S
N751 S749 1.610 . S
N751 C752 1.351 1_545 S
C752 C746 1.428 . S
C752 N751 1.351 1_565 S
C752 C753 1.434 . S
C753 C744 1.429 . S
C753 N750 1.350 . S
C753 C752 1.434 . S
C754 C755 1.369 . S
C754 C756 1.419 . S
C754 H758 0.930 . S
C755 C754 1.369 . S
C755 C764 1.429 . S
C756 C754 1.419 . S
C756 C757 1.363 . S
C756 H759 0.929 . S
C757 C756 1.363 . S
C757 C763 1.428 . S
H758 C754 0.930 . S
H759 C756 0.929 . S
S760 N761 1.613 . S
S760 N762 1.610 . S
N761 S760 1.613 . S
N761 C764 1.350 . S
N762 S760 1.610 . S
N762 C763 1.351 . S
C763 C757 1.428 . S
C763 N762 1.351 . S
C763 C764 1.434 . S
C764 C755 1.429 . S
C764 N761 1.350 . S
C764 C763 1.434 . S
C765 C766 1.369 . S
C765 C767 1.419 . S
C765 H769 0.930 . S
C766 C765 1.369 . S
C766 C775 1.429 . S
C767 C765 1.419 . S
C767 C768 1.363 . S
C767 H770 0.929 . S
C768 C767 1.363 . S
C768 C774 1.428 . S
H769 C765 0.930 . S
H770 C767 0.929 . S
S771 N772 1.613 . S
S771 N773 1.610 . S
N772 S771 1.613 . S
N772 C775 1.350 . S
N773 S771 1.610 . S
N773 C774 1.351 . S
C774 C768 1.428 . S
C774 N773 1.351 . S
C774 C775 1.434 . S
C775 C766 1.429 . S
C775 N772 1.350 . S
C775 C774 1.434 . S
C776 C777 1.369 . S
C776 C778 1.419 . S
C776 H780 0.930 . S
C777 C776 1.369 . S
C777 C786 1.429 1_455 S
C778 C776 1.419 . S
C778 C779 1.363 . S
C778 H781 0.929 1_554 S
C779 C778 1.363 . S
C779 C785 1.428 1_455 S
H780 C776 0.930 . S
H781 C778 0.929 1_556 S
S782 N783 1.613 . S
S782 N784 1.610 . S
N783 S782 1.613 . S
N783 C786 1.350 . S
N784 S782 1.610 . S
N784 C785 1.351 . S
C785 C779 1.428 1_655 S
C785 N784 1.351 . S
C785 C786 1.434 . S
C786 C777 1.429 1_655 S
C786 N783 1.350 . S
C786 C785 1.434 . S
C787 C788 1.369 . S
C787 C789 1.419 . S
C787 H791 0.930 . S
C788 C787 1.369 . S
C788 C797 1.429 . S
C789 C787 1.419 . S
C789 C790 1.363 . S
C789 H792 0.929 . S
C790 C789 1.363 . S
C790 C796 1.428 . S
H791 C787 0.930 . S
H792 C789 0.929 . S
S793 N794 1.624 . S
S793 N795 1.615 . S
N794 S793 1.624 . S
N794 C797 1.350 . S
N795 S793 1.615 . S
N795 C796 1.351 . S
C796 C790 1.428 . S
C796 N795 1.351 . S
C796 C797 1.434 . S
C797 C788 1.429 . S
C797 N794 1.350 . S
C797 C796 1.434 . S
C798 C799 1.369 . S
C798 C800 1.419 1_554 S
C798 H802 0.933 . S
C799 C798 1.369 . S
C799 C808 1.429 . S
C800 C798 1.419 1_556 S
C800 C801 1.363 . S
C800 H803 0.929 . S
C801 C800 1.363 . S
C801 C807 1.428 1_556 S
H802 C798 0.933 . S
H803 C800 0.929 . S
S804 N805 1.613 . S
S804 N806 1.610 . S
N805 S804 1.613 . S
N805 C808 1.350 . S
N806 S804 1.610 . S
N806 C807 1.351 . S
C807 C801 1.428 1_554 S
C807 N806 1.351 . S
C807 C808 1.434 . S
C808 C799 1.429 . S
C808 N805 1.350 . S
C808 C807 1.434 . S
C809 C810 1.369 . S
C809 C811 1.419 1_554 S
C809 H813 0.930 1_554 S
C810 C809 1.369 . S
C810 C819 1.429 . S
C811 C809 1.419 1_556 S
C811 C812 1.363 . S
C811 H814 0.929 . S
C812 C811 1.363 . S
C812 C818 1.428 1_556 S
H813 C809 0.930 1_556 S
H814 C811 0.929 . S
S815 N816 1.613 . S
S815 N817 1.610 . S
N816 S815 1.613 . S
N816 C819 1.350 . S
N817 S815 1.610 . S
N817 C818 1.351 . S
C818 C812 1.428 1_554 S
C818 N817 1.351 . S
C818 C819 1.434 . S
C819 C810 1.429 . S
C819 N816 1.350 . S
C819 C818 1.434 . S
C820 C821 1.369 . S
C820 C822 1.419 . S
C820 H824 0.930 . S
C821 C820 1.369 . S
C821 C830 1.426 1_655 S
C822 C820 1.419 . S
C822 C823 1.363 . S
C822 H825 0.929 . S
C823 C822 1.363 . S
C823 C829 1.428 . S
H824 C820 0.930 . S
H825 C822 0.929 . S
S826 N827 1.613 . S
S826 N828 1.612 . S
N827 S826 1.613 . S
N827 C830 1.354 . S
N828 S826 1.612 . S
N828 C829 1.350 1_455 S
C829 C823 1.428 . S
C829 N828 1.350 1_655 S
C829 C830 1.433 1_655 S
C830 C821 1.426 1_455 S
C830 N827 1.354 . S
C830 C829 1.433 1_455 S
C831 C832 1.369 . S
C831 C833 1.419 . S
C831 H835 0.930 . S
C832 C831 1.369 . S
C832 C841 1.429 . S
C833 C831 1.419 . S
C833 C834 1.363 . S
C833 H836 0.929 . S
C834 C833 1.363 . S
C834 C840 1.428 . S
H835 C831 0.930 . S
H836 C833 0.929 . S
S837 N838 1.613 1_545 S
S837 N839 1.610 . S
N838 S837 1.613 1_565 S
N838 C841 1.350 . S
N839 S837 1.610 . S
N839 C840 1.351 1_545 S
C840 C834 1.428 . S
C840 N839 1.351 1_565 S
C840 C841 1.434 . S
C841 C832 1.429 . S
C841 N838 1.350 . S
C841 C840 1.434 . S
C842 C843 1.369 . S
C842 C844 1.419 . S
C842 H846 0.930 . S
C843 C842 1.369 . S
C843 C852 1.429 . S
C844 C842 1.419 . S
C844 C845 1.363 . S
C844 H847 0.929 . S
C845 C844 1.363 . S
C845 C851 1.428 . S
H846 C842 0.930 . S
H847 C844 0.929 . S
S848 N849 1.613 . S
S848 N850 1.610 . S
N849 S848 1.613 . S
N849 C852 1.350 . S
N850 S848 1.610 . S
N850 C851 1.351 . S
C851 C845 1.428 . S
C851 N850 1.351 . S
C851 C852 1.434 . S
C852 C843 1.429 . S
C852 N849 1.350 . S
C852 C851 1.434 . S
C853 C854 1.369 . S
C853 C855 1.419 . S
C853 H857 0.930 . S
C854 C853 1.369 . S
C854 C863 1.429 . S
C855 C853 1.419 . S
C855 C856 1.363 . S
C855 H858 0.929 . S
C856 C855 1.363 . S
C856 C862 1.428 . S
H857 C853 0.930 . S
H858 C855 0.929 . S
S859 N860 1.613 . S
S859 N861 1.610 . S
N860 S859 1.613 . S
N860 C863 1.350 . S
N861 S859 1.610 . S
N861 C862 1.351 . S
C862 C856 1.428 . S
C862 N861 1.351 . S
C862 C863 1.434 . S
C863 C854 1.429 . S
C863 N860 1.350 . S
C863 C862 1.434 . S
C601 C391 2.013 . S
C603 C490 1.965 . S
C614 C520 1.813 . S
C612 C451 1.803 . S
C625 N554 1.886 . S
C623 C241 1.646 . S
C636 N584 1.485 . S
C634 C331 1.421 . S
C647 C481 1.972 1_565 S
C645 C121 1.892 1_556 S
C656 C211 1.828 1_556 S
C658 C511 1.813 . S
C667 C31 1.844 . S
C669 N546 1.884 . S
C678 C91 1.436 1_455 S
C680 N576 1.497 . S
C691 C496 0.660 . S
C689 C301 0.818 1_455 S
C702 C526 1.202 . S
C700 C380 1.193 . S
C713 C567 0.941 . S
C711 C440 0.953 . S
C722 C260 0.958 . S
C724 C597 1.072 . S
C733 C61 0.808 . S
C735 C507 0.634 . S
C746 C537 1.198 1_565 S
C744 C140 1.053 . S
C757 C556 0.946 . S
C755 C200 0.958 . S
C766 C20 0.982 . S
C768 C586 1.081 . S
C777 C320 1.793 1_455 S
C779 N486 1.813 . S
C788 C361 1.708 . S
C790 N516 1.966 . S
C801 C541 2.012 . S
C799 C421 1.728 . S
C812 C571 2.221 . S
C810 C271 2.096 . S
C821 C80 1.779 . S
C823 N494 1.814 . S
C834 N524 1.966 . S
C832 C151 1.945 . S
C845 C550 2.012 . S
C843 C181 1.776 . S
C854 C1 1.880 . S
C856 C580 2.225 . S
