# Generated by pormake.
# Topology pyr, (3,6)-cn, num edge types: 1
# Building blocks:
#     Node 0, Type 0, BuildingBlock: QEWDON_clean_linker_0, # of connection points: 3
#     Node 1, Type 0, BuildingBlock: QEWDON_clean_linker_0, # of connection points: 3
#     Node 2, Type 0, BuildingBlock: QEWDON_clean_linker_0, # of connection points: 3
#     Node 3, Type 0, BuildingBlock: QEWDON_clean_linker_0, # of connection points: 3
#     Node 4, Type 0, BuildingBlock: QEWDON_clean_linker_0, # of connection points: 3
#     Node 5, Type 0, BuildingBlock: QEWDON_clean_linker_0, # of connection points: 3
#     Node 6, Type 0, BuildingBlock: QEWDON_clean_linker_0, # of connection points: 3
#     Node 7, Type 0, BuildingBlock: QEWDON_clean_linker_0, # of connection points: 3
#     Node 8, Type 1, BuildingBlock: MIDCAF_clean_sbu_0, # of connection points: 6
#     Node 9, Type 1, BuildingBlock: MIDCAF_clean_sbu_0, # of connection points: 6
#     Node 10, Type 1, BuildingBlock: MIDCAF_clean_sbu_0, # of connection points: 6
#     Node 11, Type 1, BuildingBlock: MIDCAF_clean_sbu_0, # of connection points: 6
#     Edge 12, Type (0, 1), BuildingBlock: TEMPAE_clean_linker_10, # of connection points: 2
#     Edge 13, Type (0, 1), BuildingBlock: TEMPAE_clean_linker_10, # of connection points: 2
#     Edge 14, Type (0, 1), BuildingBlock: TEMPAE_clean_linker_10, # of connection points: 2
#     Edge 15, Type (0, 1), BuildingBlock: TEMPAE_clean_linker_10, # of connection points: 2
#     Edge 16, Type (0, 1), BuildingBlock: TEMPAE_clean_linker_10, # of connection points: 2
#     Edge 17, Type (0, 1), BuildingBlock: TEMPAE_clean_linker_10, # of connection points: 2
#     Edge 18, Type (0, 1), BuildingBlock: TEMPAE_clean_linker_10, # of connection points: 2
#     Edge 19, Type (0, 1), BuildingBlock: TEMPAE_clean_linker_10, # of connection points: 2
#     Edge 20, Type (0, 1), BuildingBlock: TEMPAE_clean_linker_10, # of connection points: 2
#     Edge 21, Type (0, 1), BuildingBlock: TEMPAE_clean_linker_10, # of connection points: 2
#     Edge 22, Type (0, 1), BuildingBlock: TEMPAE_clean_linker_10, # of connection points: 2
#     Edge 23, Type (0, 1), BuildingBlock: TEMPAE_clean_linker_10, # of connection points: 2
#     Edge 24, Type (0, 1), BuildingBlock: TEMPAE_clean_linker_10, # of connection points: 2
#     Edge 25, Type (0, 1), BuildingBlock: TEMPAE_clean_linker_10, # of connection points: 2
#     Edge 26, Type (0, 1), BuildingBlock: TEMPAE_clean_linker_10, # of connection points: 2
#     Edge 27, Type (0, 1), BuildingBlock: TEMPAE_clean_linker_10, # of connection points: 2
#     Edge 28, Type (0, 1), BuildingBlock: TEMPAE_clean_linker_10, # of connection points: 2
#     Edge 29, Type (0, 1), BuildingBlock: TEMPAE_clean_linker_10, # of connection points: 2
#     Edge 30, Type (0, 1), BuildingBlock: TEMPAE_clean_linker_10, # of connection points: 2
#     Edge 31, Type (0, 1), BuildingBlock: TEMPAE_clean_linker_10, # of connection points: 2
#     Edge 32, Type (0, 1), BuildingBlock: TEMPAE_clean_linker_10, # of connection points: 2
#     Edge 33, Type (0, 1), BuildingBlock: TEMPAE_clean_linker_10, # of connection points: 2
#     Edge 34, Type (0, 1), BuildingBlock: TEMPAE_clean_linker_10, # of connection points: 2
#     Edge 35, Type (0, 1), BuildingBlock: TEMPAE_clean_linker_10, # of connection points: 2
# Relax obj value: 0.146
# Max RMSD: 0.265
# Mean RMSD: 0.191
data_MOF--net-pyr--node1-MIDCAF_clean_sbu_0--node2-QEWDON_clean_linker_0--edge1-TEMPAE_clean_linker_10
_symmetry_space_group_name_H-M    P1
_symmetry_Int_Tables_number       1
_symmetry_cell_setting            triclinic
loop_
_symmetry_equiv_pos_as_xyz
'x, y, z'
_cell_length_a     35.479208
_cell_length_b     35.851571
_cell_length_c     38.239952
_cell_angle_alpha  90.574555
_cell_angle_beta   90.504209
_cell_angle_gamma 99.871197
loop_
_atom_site_label
_atom_site_type_symbol
_atom_site_fract_x
_atom_site_fract_y
_atom_site_fract_z
_atom_type_partial_charge
H0 H 0.29372 0.29433 0.23831 0.0
C1 C 0.27478 0.28036 0.25809 0.0
C2 C 0.2768 0.24285 0.26723 0.0
C3 C 0.24877 0.30034 0.27435 0.0
H4 H 0.25487 0.1971 0.30142 0.0
C5 C 0.25233 0.22545 0.29333 0.0
C6 C 0.22616 0.24495 0.31032 0.0
C7 C 0.22436 0.28244 0.30023 0.0
C8 C 0.25138 0.34143 0.26732 0.0
H9 H 0.20482 0.29812 0.31314 0.0
C10 C 0.22179 0.35646 0.25029 0.0
C11 C 0.22737 0.39526 0.24138 0.0
C12 C 0.28557 0.36571 0.27631 0.0
H13 H 0.30858 0.35482 0.28939 0.0
C14 C 0.29064 0.40406 0.26834 0.0
H15 H 0.19548 0.33793 0.24277 0.0
C16 C 0.26195 0.4187 0.25078 0.0
H17 H 0.2668 0.44851 0.24437 0.0
H18 H 0.31716 0.42244 0.27538 0.0
H19 H 0.28562 0.85927 0.83779 0.0
C20 C 0.30236 0.84265 0.82238 0.0
C21 C 0.34048 0.8412 0.83221 0.0
C22 C 0.28534 0.82182 0.79336 0.0
H23 H 0.39098 0.81797 0.81949 0.0
C24 C 0.36162 0.81893 0.8121 0.0
C25 C 0.34479 0.79735 0.78309 0.0
C26 C 0.30655 0.79914 0.77418 0.0
C27 C 0.24387 0.81898 0.78567 0.0
H28 H 0.29249 0.78174 0.75292 0.0
C29 C 0.22853 0.84851 0.76956 0.0
C30 C 0.18922 0.84332 0.75988 0.0
C31 C 0.21975 0.78475 0.79278 0.0
H32 H 0.23101 0.76176 0.805 0.0
C33 C 0.18114 0.77953 0.78371 0.0
H34 H 0.24728 0.87494 0.76418 0.0
C35 C 0.16608 0.80821 0.76713 0.0
H36 H 0.13628 0.80222 0.75918 0.0
H37 H 0.1629 0.75278 0.78894 0.0
H38 H 0.7426 0.39707 0.88439 0.0
C39 C 0.74188 0.36926 0.89547 0.0
C40 C 0.77254 0.36222 0.91675 0.0
C41 C 0.70915 0.34132 0.89061 0.0
H42 H 0.7918 0.32205 0.95177 0.0
C43 C 0.77001 0.3269 0.93311 0.0
C44 C 0.73796 0.29875 0.92771 0.0
C45 C 0.70839 0.30564 0.90558 0.0
C46 C 0.67341 0.35071 0.87507 0.0
H47 H 0.68306 0.28406 0.90256 0.0
C48 C 0.67365 0.37214 0.84434 0.0
C49 C 0.63936 0.38177 0.83127 0.0
C50 C 0.63847 0.33909 0.89229 0.0
H51 H 0.63736 0.32343 0.91645 0.0
C52 C 0.60455 0.34821 0.8791 0.0
H53 H 0.7003 0.38162 0.83091 0.0
C54 C 0.60492 0.36944 0.84883 0.0
H55 H 0.5782 0.37629 0.83907 0.0
H56 H 0.57792 0.33909 0.8926 0.0
H57 H 0.80634 0.82732 0.30449 0.0
C58 C 0.78595 0.80933 0.32061 0.0
C59 C 0.78565 0.81552 0.35697 0.0
C60 C 0.75994 0.77967 0.3051 0.0
H61 H 0.75842 0.79724 0.40539 0.0
C62 C 0.75922 0.79183 0.37748 0.0
C63 C 0.73339 0.76185 0.36237 0.0
C64 C 0.7338 0.75616 0.32602 0.0
C65 C 0.75942 0.77275 0.26698 0.0
H66 H 0.71428 0.73293 0.31393 0.0
C67 C 0.78926 0.75802 0.25083 0.0
C68 C 0.78608 0.74679 0.21539 0.0
C69 C 0.72705 0.77741 0.24724 0.0
H70 H 0.70368 0.78842 0.25938 0.0
C71 C 0.72436 0.76735 0.21186 0.0
H72 H 0.81389 0.75354 0.2662 0.0
C73 C 0.7535 0.75179 0.19605 0.0
H74 H 0.75058 0.74353 0.16869 0.0
H75 H 0.6993 0.77099 0.19679 0.0
H76 H 0.92013 0.93589 0.97798 0.0
C77 C 0.92562 0.93798 0.95017 0.0
C78 C 0.94547 0.91202 0.93362 0.0
C79 C 0.91427 0.96769 0.93137 0.0
H80 H 0.96985 0.89693 0.88494 0.0
C81 C 0.95377 0.9162 0.89773 0.0
C82 C 0.9428 0.94599 0.87854 0.0
C83 C 0.92273 0.9714 0.89563 0.0
C84 C 0.90119 0.99919 0.95043 0.0
H85 H 0.9157 0.99553 0.88167 0.0
C86 C 0.86223 0.99937 0.95771 0.0
C87 C 0.85129 0.03037 0.97595 0.0
C88 C 0.92894 0.02975 0.96152 0.0
H89 H 0.95894 0.03003 0.95614 0.0
C90 C 0.91843 0.06004 0.9798 0.0
H91 H 0.84077 0.97587 0.94889 0.0
C92 C 0.88009 0.06035 0.9871 0.0
H93 H 0.87311 0.08402 1.00205 0.0
H94 H 0.94014 0.08333 0.98854 0.0
H95 H 0.69091 0.16046 0.49123 0.0
C96 C 0.6772 0.15765 0.46564 0.0
C97 C 0.69314 0.13883 0.43855 0.0
C98 C 0.64241 0.17071 0.46089 0.0
H99 H 0.68567 0.11827 0.38541 0.0
C100 C 0.67389 0.13352 0.4061 0.0
C101 C 0.63908 0.14679 0.40052 0.0
C102 C 0.62359 0.16546 0.42824 0.0
C103 C 0.6229 0.18306 0.49203 0.0
H104 H 0.59633 0.17482 0.42486 0.0
C105 C 0.62066 0.22144 0.49898 0.0
C106 C 0.60424 0.23186 0.53052 0.0
C107 C 0.60798 0.1554 0.51624 0.0
H108 H 0.60953 0.12586 0.51142 0.0
C109 C 0.59115 0.16544 0.54688 0.0
H110 H 0.63251 0.24297 0.48056 0.0
C111 C 0.58933 0.20325 0.55405 0.0
H112 H 0.57575 0.21007 0.57799 0.0
H113 H 0.57957 0.1438 0.56527 0.0
H114 H 0.49523 0.68954 0.17361 0.0
C115 C 0.46617 0.67636 0.16702 0.0
C116 C 0.44049 0.69821 0.15345 0.0
C117 C 0.45386 0.6378 0.17343 0.0
H118 H 0.38285 0.69899 0.13678 0.0
C119 C 0.40265 0.68137 0.14623 0.0
C120 C 0.39019 0.64245 0.15135 0.0
C121 C 0.41616 0.62077 0.16516 0.0
C122 C 0.47933 0.61605 0.19172 0.0
H123 H 0.40715 0.59082 0.16986 0.0
C124 C 0.48158 0.61768 0.22832 0.0
C125 C 0.50454 0.59602 0.24666 0.0
C126 C 0.50059 0.59318 0.17307 0.0
H127 H 0.49899 0.59167 0.14477 0.0
C128 C 0.524 0.57204 0.191 0.0
H129 H 0.46521 0.63575 0.24242 0.0
C130 C 0.52592 0.57328 0.22755 0.0
H131 H 0.54346 0.55578 0.24082 0.0
H132 H 0.54035 0.55428 0.17657 0.0
H133 H 0.14126 0.46055 0.69405 0.0
C134 C 0.13231 0.44672 0.66932 0.0
C135 C 0.15733 0.45213 0.64073 0.0
C136 C 0.09722 0.42146 0.66674 0.0
H137 H 0.16611 0.43546 0.58727 0.0
C138 C 0.14694 0.43195 0.60935 0.0
C139 C 0.11299 0.40563 0.60671 0.0
C140 C 0.0876 0.40205 0.6349 0.0
C141 C 0.07179 0.41271 0.69767 0.0
H142 H 0.06105 0.3822 0.63267 0.0
C143 C 0.06906 0.44034 0.72358 0.0
C144 C 0.04465 0.43174 0.75223 0.0
C145 C 0.05013 0.3761 0.70173 0.0
H146 H 0.0526 0.35329 0.68362 0.0
C147 C 0.02526 0.36797 0.72972 0.0
H148 H 0.0855 0.46862 0.72156 0.0
C149 C 0.02231 0.39568 0.75479 0.0
H150 H 1.00357 0.38862 0.77685 0.0
H151 H 0.0087 0.33984 0.7323 0.0
Zn152 Zn 0.97509 0.09227 0.59395 0.0
Zn153 Zn 0.05677 0.01619 0.51753 0.0
Zn154 Zn 0.01384 0.05568 0.55354 0.0
C155 C 0.08473 0.09128 0.50215 0.0
C156 C 0.98041 0.99819 0.49164 0.0
O157 O 0.01593 0.03571 0.60998 0.0
O158 O 0.97936 0.06894 0.63934 0.0
C159 C 0.03273 0.14545 0.56494 0.0
O160 O 0.05724 0.09563 0.52299 0.0
O161 O 0.09241 0.05869 0.49643 0.0
O162 O 0.01366 0.99076 0.48747 0.0
O163 O 0.97437 0.02211 0.51547 0.0
O164 O 0.00698 0.14231 0.58778 0.0
O165 O 0.03916 0.11613 0.54778 0.0
O166 O 0.95375 0.04777 0.53219 0.0
O167 O 0.92539 0.08172 0.56903 0.0
C168 C 0.92396 0.06138 0.54177 0.0
O169 O 0.04127 0.01852 0.59 0.0
O170 O 0.07531 0.98706 0.55589 0.0
C171 C 1.00034 0.04394 0.63893 0.0
C172 C 0.0641 0.99427 0.58606 0.0
Zn173 Zn 0.47494 0.09133 0.05204 0.0
Zn174 Zn 0.57008 0.99979 0.16211 0.0
Zn175 Zn 0.50652 0.05396 0.09305 0.0
C176 C 0.60373 0.04145 0.09693 0.0
C177 C 0.49953 0.97795 0.11019 0.0
O178 O 0.47432 0.0924 0.12505 0.0
O179 O 0.44329 0.11727 0.0836 0.0
C180 C 0.556 0.11009 0.04467 0.0
O181 O 0.57167 0.05204 0.08717 0.0
O182 O 0.60719 0.02226 0.12461 0.0
O183 O 0.52462 0.99937 0.12831 0.0
O184 O 0.48139 0.99466 0.08803 0.0
O185 O 0.52466 0.11981 0.03591 0.0
O186 O 0.55622 0.08285 0.06614 0.0
O187 O 0.46786 0.01154 0.05825 0.0
O188 O 0.44833 0.05061 0.02073 0.0
C189 C 0.44932 0.01711 0.03005 0.0
O190 O 0.49816 0.07645 0.14606 0.0
O191 O 0.53049 0.03219 0.15334 0.0
C192 C 0.44981 0.11345 0.11576 0.0
C193 C 0.51797 0.05983 0.16683 0.0
Zn194 Zn 0.56442 0.61386 0.61642 0.0
Zn195 Zn 0.45639 0.51083 0.56109 0.0
Zn196 Zn 0.50817 0.56324 0.58834 0.0
C197 C 0.5084 0.47081 0.58708 0.0
C198 C 0.48863 0.55385 0.50558 0.0
O199 O 0.48095 0.59966 0.62618 0.0
O200 O 0.53071 0.64178 0.6438 0.0
C201 C 0.57673 0.54199 0.63678 0.0
O202 O 0.52419 0.50524 0.59467 0.0
O203 O 0.47507 0.46431 0.57416 0.0
O204 O 0.46389 0.52503 0.51167 0.0
O205 O 0.50772 0.57237 0.53097 0.0
O206 O 0.59119 0.57656 0.64056 0.0
O207 O 0.54657 0.53222 0.61752 0.0
O208 O 0.53764 0.59828 0.54592 0.0
O209 O 0.58481 0.63729 0.57227 0.0
C210 C 0.56684 0.62512 0.54471 0.0
O211 O 0.45262 0.57044 0.61185 0.0
O212 O 0.41231 0.52468 0.58516 0.0
C213 C 0.49511 0.62972 0.64413 0.0
C214 C 0.41845 0.55214 0.60648 0.0
Zn215 Zn 0.10214 0.64312 0.01657 0.0
Zn216 Zn 0.96298 0.54604 0.11312 0.0
Zn217 Zn 0.04408 0.60843 0.04944 0.0
C218 C 0.0476 0.54411 0.12002 0.0
C219 C 0.97993 0.55197 0.02935 0.0
O220 O 0.03845 0.6702 0.04984 0.0
O221 O 0.09 0.69511 0.02079 0.0
C222 C 0.12694 0.60359 0.07436 0.0
O223 O 0.05632 0.56823 0.09459 0.0
O224 O 0.01329 0.53264 0.13031 0.0
O225 O 0.97963 0.55558 0.06231 0.0
O226 O 0.00786 0.57184 0.01372 0.0
O227 O 0.13891 0.62494 0.04928 0.0
O228 O 0.09099 0.59365 0.0796 0.0
O229 O 0.04071 0.58555 0.99542 0.0
O230 O 0.09181 0.61757 0.97005 0.0
C231 C 0.06199 0.59266 0.96839 0.0
O232 O 0.00913 0.6482 0.06826 0.0
O233 O 0.98541 0.59399 0.08904 0.0
C234 C 0.05929 0.69916 0.03571 0.0
C235 C 0.98393 0.62878 0.08722 0.0
C236 C 0.19678 0.24704 0.37023 0.0
C237 C 0.20242 0.22654 0.33973 0.0
C238 C 0.17689 0.22927 0.39901 0.0
C239 C 0.16197 0.18998 0.39733 0.0
C240 C 0.16687 0.16934 0.36637 0.0
C241 C 0.1868 0.18781 0.33805 0.0
C242 C 0.1717 0.25284 0.43098 0.0
C243 C 0.15165 0.12741 0.36335 0.0
C244 C 0.14456 0.12914 0.4787 0.0
C245 C 0.10456 0.12273 0.48076 0.0
C246 C 0.16371 0.15274 0.45291 0.0
C247 C 0.14232 0.16982 0.42807 0.0
C248 C 0.10196 0.16458 0.43094 0.0
C249 C 0.08357 0.14088 0.45708 0.0
C250 C 0.20676 0.15789 0.45116 0.0
C251 C 0.07796 0.18228 0.40524 0.0
H252 H 0.20883 0.27689 0.37207 0.0
H253 H 0.1903 0.17175 0.31449 0.0
H254 H 0.14262 0.26025 0.43009 0.0
H255 H 0.17435 0.23712 0.45547 0.0
H256 H 0.19274 0.27963 0.43195 0.0
H257 H 0.15732 0.11553 0.33736 0.0
H258 H 0.16505 0.11207 0.38379 0.0
H259 H 0.12034 0.12191 0.36776 0.0
H260 H 0.16079 0.11447 0.4965 0.0
H261 H 0.05258 0.13485 0.45776 0.0
H262 H 0.21913 0.18848 0.45049 0.0
H263 H 0.21521 0.14473 0.4267 0.0
H264 H 0.21938 0.14495 0.47374 0.0
H265 H 0.09049 0.21243 0.40107 0.0
H266 H 0.04803 0.1806 0.41422 0.0
H267 H 0.07747 0.1674 0.37962 0.0
C268 C 0.33835 0.85834 0.89608 0.0
C269 C 0.35771 0.86211 0.8641 0.0
C270 C 0.35345 0.87897 0.92608 0.0
C271 C 0.38839 0.90479 0.92398 0.0
C272 C 0.4085 0.90798 0.89192 0.0
C273 C 0.39314 0.88635 0.86254 0.0
C274 C 0.33144 0.87393 0.95978 0.0
C275 C 0.44545 0.93557 0.88817 0.0
C276 C 0.40271 0.99277 0.98242 0.0
C277 C 0.43069 0.98567 1.00654 0.0
C278 C 0.38838 0.96646 0.95608 0.0
C279 C 0.40168 0.93147 0.95384 0.0
C280 C 0.42863 0.92324 0.97907 0.0
C281 C 0.44325 0.95066 1.00478 0.0
C282 C 0.36003 0.97685 0.92973 0.0
C283 C 0.44294 0.88598 0.97824 0.0
H284 H 0.31123 0.8392 0.89762 0.0
H285 H 0.4082 0.88944 0.83792 0.0
H286 H 0.35069 0.86944 0.9818 0.0
H287 H 0.31967 0.89996 0.96584 0.0
H288 H 0.30735 0.84964 0.95835 0.0
H289 H 0.45881 0.93305 0.86228 0.0
H290 H 0.43988 0.96493 0.89144 0.0
H291 H 0.46613 0.93093 0.90891 0.0
H292 H 0.39275 0.01971 0.98342 0.0
H293 H 0.46571 0.94533 0.02242 0.0
H294 H 0.33362 0.95523 0.92934 0.0
H295 H 0.37238 0.97746 0.90314 0.0
H296 H 0.35206 0.00492 0.93543 0.0
H297 H 0.4185 0.86212 0.97661 0.0
H298 H 0.46056 0.88225 1.0017 0.0
H299 H 0.46053 0.88438 0.95462 0.0
C300 C 0.62076 0.43716 0.80141 0.0
C301 C 0.63871 0.40533 0.79982 0.0
C302 C 0.6153 0.4575 0.7713 0.0
C303 C 0.62797 0.44561 0.73866 0.0
C304 C 0.64749 0.41432 0.73705 0.0
C305 C 0.65276 0.39453 0.76781 0.0
C306 C 0.59473 0.49096 0.77431 0.0
C307 C 0.66115 0.40069 0.70273 0.0
C308 C 0.56986 0.4791 0.66597 0.0
C309 C 0.59287 0.51344 0.65718 0.0
C310 C 0.58262 0.45463 0.69003 0.0
C311 C 0.61884 0.46533 0.70646 0.0
C312 C 0.64328 0.49863 0.69589 0.0
C313 C 0.63 0.52229 0.67131 0.0
C314 C 0.55593 0.41896 0.69999 0.0
C315 C 0.68224 0.51084 0.71251 0.0
H316 H 0.61023 0.44566 0.82628 0.0
H317 H 0.66639 0.3697 0.76661 0.0
H318 H 0.61228 0.51645 0.7629 0.0
H319 H 0.56738 0.48507 0.75935 0.0
H320 H 0.58833 0.49752 0.80186 0.0
H321 H 0.68061 0.37983 0.70651 0.0
H322 H 0.63611 0.387 0.68694 0.0
H323 H 0.67617 0.42479 0.68742 0.0
H324 H 0.54087 0.47237 0.65593 0.0
H325 H 0.6481 0.54866 0.66443 0.0
H326 H 0.54353 0.42313 0.72599 0.0
H327 H 0.57161 0.39483 0.702 0.0
H328 H 0.5321 0.41142 0.68075 0.0
H329 H 0.67882 0.52142 0.73947 0.0
H330 H 0.7 0.53375 0.69762 0.0
H331 H 0.69773 0.48655 0.71447 0.0
C332 C 0.85403 0.74613 0.19868 0.0
C333 C 0.81571 0.72827 0.19876 0.0
C334 C 0.88185 0.72958 0.18123 0.0
C335 C 0.87111 0.694 0.16418 0.0
C336 C 0.83257 0.67539 0.16513 0.0
C337 C 0.80527 0.69295 0.18212 0.0
C338 C 0.92253 0.75053 0.18031 0.0
C339 C 0.82008 0.63714 0.14785 0.0
C340 C 0.93361 0.66939 0.09009 0.0
C341 C 0.95538 0.64566 0.10682 0.0
C342 C 0.9056 0.6848 0.10836 0.0
C343 C 0.89993 0.67686 0.14434 0.0
C344 C 0.92168 0.65252 0.1612 0.0
C345 C 0.94887 0.63682 0.14207 0.0
C346 C 0.88178 0.70927 0.08915 0.0
C347 C 0.9162 0.64306 0.1994 0.0
H348 H 0.862 0.77353 0.21144 0.0
H349 H 0.77563 0.67901 0.18252 0.0
H350 H 0.94233 0.73249 0.19088 0.0
H351 H 0.93085 0.75703 0.15283 0.0
H352 H 0.92644 0.77746 0.1956 0.0
H353 H 0.78933 0.62585 0.15216 0.0
H354 H 0.82506 0.6392 0.11929 0.0
H355 H 0.83733 0.61655 0.15813 0.0
H356 H 0.93781 0.67509 0.06248 0.0
H357 H 0.96551 0.61804 0.1548 0.0
H358 H 0.88709 0.73831 0.10054 0.0
H359 H 0.85089 0.69803 0.09225 0.0
H360 H 0.8881 0.71083 0.06077 0.0
H361 H 0.92218 0.66936 0.21551 0.0
H362 H 0.93514 0.62338 0.20851 0.0
H363 H 0.88604 0.62993 0.20407 0.0
C364 C 0.29404 0.18463 0.23828 0.0
C365 C 0.30502 0.22221 0.24994 0.0
C366 C 0.31956 0.16575 0.21989 0.0
C367 C 0.35721 0.1847 0.21312 0.0
C368 C 0.36898 0.22204 0.22621 0.0
C369 C 0.34278 0.24036 0.24425 0.0
C370 C 0.30562 0.12608 0.20627 0.0
C371 C 0.40892 0.24319 0.22008 0.0
C372 C 0.42994 0.12627 0.17779 0.0
C373 C 0.42803 0.13266 0.14169 0.0
C374 C 0.40785 0.14362 0.20159 0.0
C375 C 0.38255 0.16723 0.18895 0.0
C376 C 0.38074 0.17387 0.15261 0.0
C377 C 0.40351 0.15681 0.12964 0.0
C378 C 0.41115 0.13616 0.24015 0.0
C379 C 0.3542 0.19865 0.13778 0.0
H380 H 0.26494 0.17039 0.24242 0.0
H381 H 0.35181 0.26912 0.25375 0.0
H382 H 0.30427 0.12626 0.17727 0.0
H383 H 0.32591 0.10715 0.21384 0.0
H384 H 0.2768 0.11407 0.21619 0.0
H385 H 0.41496 0.27029 0.23506 0.0
H386 H 0.43042 0.22549 0.22754 0.0
H387 H 0.41263 0.24949 0.19185 0.0
H388 H 0.44816 0.10727 0.18748 0.0
H389 H 0.4016 0.16213 0.10188 0.0
H390 H 0.38412 0.11893 0.2493 0.0
H391 H 0.41558 0.16318 0.25525 0.0
H392 H 0.4351 0.12084 0.24615 0.0
H393 H 0.32417 0.1869 0.14448 0.0
H394 H 0.35623 0.20109 0.10889 0.0
H395 H 0.36097 0.22747 0.1495 0.0
C396 C 0.1332 0.87552 0.74499 0.0
C397 C 0.17202 0.8728 0.74055 0.0
C398 C 0.11452 0.89783 0.72294 0.0
C399 C 0.13528 0.91946 0.69649 0.0
C400 C 0.17513 0.91952 0.69374 0.0
C401 C 0.19291 0.89588 0.71541 0.0
C402 C 0.07195 0.89609 0.72652 0.0
C403 C 0.19864 0.94319 0.6667 0.0
C404 C 0.08431 0.93719 0.61182 0.0
C405 C 0.07833 0.97461 0.61619 0.0
C406 C 0.10187 0.91885 0.63807 0.0
C407 C 0.11462 0.93856 0.66944 0.0
C408 C 0.10764 0.97608 0.67448 0.0
C409 C 0.08958 0.99367 0.64776 0.0
C410 C 0.10733 0.87844 0.63192 0.0
C411 C 0.12066 0.99841 0.70733 0.0
H412 H 0.11678 0.85909 0.76503 0.0
H413 H 0.22278 0.89431 0.71145 0.0
H414 H 0.06408 0.92442 0.72302 0.0
H415 H 0.05693 0.87722 0.70574 0.0
H416 H 0.06145 0.88485 0.75227 0.0
H417 H 0.22981 0.94379 0.67059 0.0
H418 H 0.19041 0.93155 0.6402 0.0
H419 H 0.19291 0.97266 0.66762 0.0
H420 H 0.07556 0.92228 0.58749 0.0
H421 H 0.08569 0.02283 0.65103 0.0
H422 H 0.09466 0.86036 0.65367 0.0
H423 H 0.1383 0.87702 0.63137 0.0
H424 H 0.09404 0.86647 0.60693 0.0
H425 H 0.11737 0.9802 0.73075 0.0
H426 H 0.10455 0.02207 0.71139 0.0
H427 H 0.15147 0.01055 0.70503 0.0
C428 C 0.79807 0.42885 0.93585 0.0
C429 C 0.80494 0.39286 0.92598 0.0
C430 C 0.82755 0.4563 0.94967 0.0
C431 C 0.8647 0.44743 0.95384 0.0
C432 C 0.87227 0.41189 0.9422 0.0
C433 C 0.84228 0.38502 0.92838 0.0
C434 C 0.81847 0.49404 0.96152 0.0
C435 C 0.91163 0.40159 0.94585 0.0
C436 C 0.94737 0.52735 0.97361 0.0
C437 C 0.95068 0.52509 0.01007 0.0
C438 C 0.9199 0.50196 0.9548 0.0
C439 C 0.89473 0.47406 0.97301 0.0
C440 C 0.89783 0.47177 0.00987 0.0
C441 C 0.92577 0.49738 0.02797 0.0
C442 C 0.91751 0.50536 0.91556 0.0
C443 C 0.87161 0.44227 0.03021 0.0
H444 H 0.76922 0.43498 0.93447 0.0
H445 H 0.84779 0.35738 0.92038 0.0
H446 H 0.82073 0.49634 0.99045 0.0
H447 H 0.83944 0.51751 0.95069 0.0
H448 H 0.78923 0.49784 0.95345 0.0
H449 H 0.91349 0.37401 0.93306 0.0
H450 H 0.9334 0.42382 0.93425 0.0
H451 H 0.91903 0.39988 0.97397 0.0
H452 H 0.96596 0.54934 0.95976 0.0
H453 H 0.9282 0.49559 0.05617 0.0
H454 H 0.89003 0.51411 0.90818 0.0
H455 H 0.91801 0.47756 0.90275 0.0
H456 H 0.94135 0.52636 0.90513 0.0
H457 H 0.84143 0.44581 0.02612 0.0
H458 H 0.87808 0.444 0.05872 0.0
H459 H 0.87418 0.41353 0.02058 0.0
C460 C 0.7178 0.72566 0.41757 0.0
C461 C 0.70603 0.73686 0.38476 0.0
C462 C 0.69175 0.7046 0.44025 0.0
C463 C 0.65302 0.69396 0.4297 0.0
C464 C 0.64135 0.7036 0.39596 0.0
C465 C 0.6679 0.72521 0.374 0.0
C466 C 0.70548 0.69481 0.47596 0.0
C467 C 0.6006 0.69238 0.38341 0.0
C468 C 0.59627 0.61858 0.48675 0.0
C469 C 0.58129 0.64114 0.51126 0.0
C470 C 0.61833 0.63516 0.45881 0.0
C471 C 0.62461 0.67506 0.45512 0.0
C472 C 0.60696 0.69751 0.47847 0.0
C473 C 0.58596 0.68028 0.5066 0.0
C474 C 0.63757 0.61015 0.4354 0.0
C475 C 0.61255 0.74003 0.47526 0.0
H476 H 0.74743 0.73376 0.42575 0.0
H477 H 0.65843 0.73393 0.34881 0.0
H478 H 0.6904 0.70846 0.49649 0.0
H479 H 0.69868 0.66379 0.47991 0.0
H480 H 0.73678 0.70414 0.47968 0.0
H481 H 0.59822 0.69331 0.35445 0.0
H482 H 0.58859 0.66348 0.39213 0.0
H483 H 0.58304 0.7122 0.39471 0.0
H484 H 0.59302 0.5883 0.4908 0.0
H485 H 0.57442 0.69758 0.52583 0.0
H486 H 0.66645 0.60882 0.44615 0.0
H487 H 0.64113 0.62138 0.40849 0.0
H488 H 0.62123 0.5808 0.43423 0.0
H489 H 0.64292 0.75232 0.48083 0.0
H490 H 0.59426 0.75297 0.49363 0.0
H491 H 0.60591 0.74791 0.4482 0.0
C492 C 0.209 0.42914 0.18888 0.0
C493 C 0.19865 0.41214 0.22106 0.0
C494 C 0.18487 0.45012 0.17121 0.0
C495 C 0.14961 0.45483 0.18622 0.0
C496 C 0.13855 0.43684 0.21835 0.0
C497 C 0.16315 0.41555 0.23533 0.0
C498 C 0.19733 0.46745 0.13655 0.0
C499 C 0.10114 0.44084 0.23519 0.0
C500 C 0.10435 0.53987 0.15868 0.0
C501 C 0.07679 0.52326 0.13427 0.0
C502 C 0.12855 0.51808 0.17552 0.0
C503 C 0.12451 0.47861 0.16823 0.0
C504 C 0.09679 0.46197 0.14328 0.0
C505 C 0.07329 0.48446 0.12673 0.0
C506 C 0.15783 0.53711 0.2017 0.0
C507 C 0.09134 0.42021 0.13459 0.0
H508 H 0.23647 0.42651 0.1778 0.0
H509 H 0.15532 0.40282 0.26041 0.0
H510 H 0.19243 0.49711 0.13565 0.0
H511 H 0.22799 0.46688 0.13136 0.0
H512 H 0.17995 0.4516 0.11522 0.0
H513 H 0.096 0.42403 0.25946 0.0
H514 H 0.10104 0.47104 0.24173 0.0
H515 H 0.07706 0.43157 0.21664 0.0
H516 H 0.10624 0.5696 0.16531 0.0
H517 H 0.05142 0.47149 0.10827 0.0
H518 H 0.18618 0.52952 0.19616 0.0
H519 H 0.14964 0.52692 0.22832 0.0
H520 H 0.16045 0.56843 0.20154 0.0
H521 H 0.11844 0.41274 0.12477 0.0
H522 H 0.06856 0.41164 0.11454 0.0
H523 H 0.08373 0.40348 0.15854 0.0
C524 C 0.72518 0.2292 0.93734 0.0
C525 C 0.7301 0.26601 0.95105 0.0
C526 C 0.70541 0.19873 0.9562 0.0
C527 C 0.68896 0.20581 0.98882 0.0
C528 C 0.69719 0.2426 1.00405 0.0
C529 C 0.71837 0.27213 0.98511 0.0
C530 C 0.69911 0.16003 0.93902 0.0
C531 C 0.68029 0.25189 0.03854 0.0
C532 C 0.58878 0.15114 0.99861 0.0
C533 C 0.59146 0.13122 0.0296 0.0
C534 C 0.62033 0.17535 0.98536 0.0
C535 C 0.65638 0.17826 1.00242 0.0
C536 C 0.65963 0.15729 0.03328 0.0
C537 C 0.62685 0.13465 0.04689 0.0
C538 C 0.61427 0.19891 0.95382 0.0
C539 C 0.69681 0.1594 0.0532 0.0
H540 H 0.73438 0.22461 0.9109 0.0
H541 H 0.72225 0.30084 0.99545 0.0
H542 H 0.68464 0.13732 0.95613 0.0
H543 H 0.68175 0.16049 0.91479 0.0
H544 H 0.72704 0.15298 0.93088 0.0
H545 H 0.68516 0.28282 0.04417 0.0
H546 H 0.64901 0.24123 0.03883 0.0
H547 H 0.69364 0.23802 0.06 0.0
H548 H 0.56144 0.14882 0.98514 0.0
H549 H 0.62876 0.12086 0.07172 0.0
H550 H 0.62597 0.18689 0.9303 0.0
H551 H 0.62916 0.2286 0.95727 0.0
H552 H 0.58347 0.19935 0.94871 0.0
H553 H 0.7219 0.17422 0.03884 0.0
H554 H 0.70157 0.13042 0.05949 0.0
H555 H 0.69479 0.17415 0.07859 0.0
C556 C 0.83388 0.83766 0.40367 0.0
C557 C 0.81313 0.84607 0.37431 0.0
C558 C 0.85882 0.86604 0.4217 0.0
C559 C 0.86299 0.90395 0.41024 0.0
C560 C 0.84186 0.91277 0.38075 0.0
C561 C 0.81734 0.88359 0.36289 0.0
C562 C 0.88113 0.85531 0.45276 0.0
C563 C 0.84517 0.95296 0.36816 0.0
C564 C 0.91075 0.97408 0.47891 0.0
C565 C 0.9491 0.97851 0.4688 0.0
C566 C 0.88169 0.95228 0.45854 0.0
C567 C 0.89152 0.93348 0.42802 0.0
C568 C 0.92999 0.93919 0.41696 0.0
C569 C 0.9582 0.96178 0.43734 0.0
C570 C 0.84087 0.94771 0.47081 0.0
C571 C 0.94181 0.91961 0.38469 0.0
H572 H 0.83078 0.80861 0.4124 0.0
H573 H 0.80088 0.89016 0.34044 0.0
H574 H 0.91227 0.86242 0.44766 0.0
H575 H 0.87526 0.87172 0.47625 0.0
H576 H 0.87398 0.82465 0.45871 0.0
H577 H 0.82561 0.95535 0.34576 0.0
H578 H 0.83855 0.97163 0.38977 0.0
H579 H 0.87496 0.96368 0.36003 0.0
H580 H 0.90354 0.98612 0.50349 0.0
H581 H 0.98775 0.96533 0.42911 0.0
H582 H 0.83271 0.91948 0.48282 0.0
H583 H 0.82102 0.94928 0.44851 0.0
H584 H 0.83701 0.9697 0.49053 0.0
H585 H 0.93798 0.88866 0.38919 0.0
H586 H 0.97216 0.92983 0.37784 0.0
H587 H 0.92346 0.92406 0.36202 0.0
C588 C 0.36082 0.76702 0.72639 0.0
C589 C 0.36618 0.77172 0.76278 0.0
C590 C 0.37948 0.74207 0.70708 0.0
C591 C 0.40475 0.7215 0.72426 0.0
C592 C 0.41037 0.72604 0.76092 0.0
C593 C 0.39097 0.75087 0.77969 0.0
C594 C 0.3725 0.7381 0.6681 0.0
C595 C 0.43718 0.70485 0.7803 0.0
C596 C 0.4355 0.63627 0.67813 0.0
C597 C 0.4708 0.65243 0.66413 0.0
C598 C 0.41341 0.65823 0.69754 0.0
C599 C 0.42729 0.69735 0.70355 0.0
C600 C 0.46314 0.7137 0.68972 0.0
C601 C 0.48425 0.69119 0.67022 0.0
C602 C 0.3752 0.63961 0.71147 0.0
C603 C 0.47937 0.7551 0.6956 0.0
H604 H 0.34227 0.78324 0.71278 0.0
H605 H 0.39491 0.75354 0.80779 0.0
H606 H 0.39945 0.74836 0.65405 0.0
H607 H 0.36334 0.70785 0.66081 0.0
H608 H 0.35033 0.75429 0.65894 0.0
H609 H 0.43767 0.71059 0.80892 0.0
H610 H 0.42858 0.67394 0.77573 0.0
H611 H 0.46665 0.71301 0.77023 0.0
H612 H 0.42573 0.60631 0.67478 0.0
H613 H 0.51155 0.70416 0.65961 0.0
H614 H 0.352 0.65082 0.69758 0.0
H615 H 0.37297 0.64631 0.73968 0.0
H616 H 0.37035 0.60837 0.70794 0.0
H617 H 0.45958 0.7729 0.68461 0.0
H618 H 0.50783 0.76343 0.6834 0.0
H619 H 0.48225 0.76146 0.72405 0.0
C620 C 0.99321 0.95314 0.83201 0.0
C621 C 0.95502 0.95279 0.84154 0.0
C622 C 0.00616 0.9638 0.79826 0.0
C623 C 0.98013 0.97374 0.77304 0.0
C624 C 0.94116 0.97179 0.78217 0.0
C625 C 0.92918 0.96158 0.81625 0.0
C626 C 0.04821 0.96605 0.79099 0.0
C627 C 0.91237 0.98237 0.75642 0.0
C628 C 0.01041 0.04665 0.70312 0.0
C629 C 1.00521 0.02468 0.67236 0.0
C630 C 1.00507 0.03002 0.73614 0.0
C631 C 0.99371 0.99033 0.73863 0.0
C632 C 0.9917 0.96765 0.70777 0.0
C633 C 0.99741 0.98515 0.67486 0.0
C634 C 0.00912 0.05524 0.76829 0.0
C635 C 0.98079 0.92518 0.7091 0.0
H636 H 0.01356 0.94681 0.85145 0.0
H637 H 0.89959 0.96109 0.82336 0.0
H638 H 0.05598 0.9735 0.76367 0.0
H639 H 0.06498 0.98762 0.80865 0.0
H640 H 0.05694 0.93852 0.79711 0.0
H641 H 0.88284 0.97742 0.76687 0.0
H642 H 0.92026 0.01276 0.74978 0.0
H643 H 0.91262 0.96576 0.73181 0.0
H644 H 0.01672 0.07725 0.70123 0.0
H645 H 0.99319 0.96805 0.65114 0.0
H646 H 0.02884 0.0454 0.78745 0.0
H647 H 0.98089 0.05361 0.781 0.0
H648 H 0.02021 0.0853 0.76209 0.0
H649 H 0.99154 0.91378 0.73341 0.0
H650 H 0.99205 0.91147 0.68617 0.0
H651 H 0.94914 0.9174 0.70862 0.0
C652 C 0.63794 0.14308 0.3347 0.0
C653 C 0.61807 0.13894 0.3664 0.0
C654 C 0.61921 0.13288 0.30255 0.0
C655 C 0.57953 0.11796 0.30187 0.0
C656 C 0.55901 0.11494 0.33364 0.0
C657 C 0.57847 0.12546 0.36546 0.0
C658 C 0.64221 0.1369 0.26936 0.0
C659 C 0.51676 0.09914 0.33419 0.0
C660 C 0.52861 0.11163 0.21281 0.0
C661 C 0.53019 0.07426 0.20249 0.0
C662 C 0.54342 0.12603 0.24552 0.0
C663 C 0.56048 0.10259 0.26835 0.0
C664 C 0.56104 0.06453 0.25839 0.0
C665 C 0.54593 0.0509 0.22572 0.0
C666 C 0.54197 0.16667 0.25511 0.0
C667 C 0.57857 0.03836 0.28189 0.0
H668 H 0.66839 0.15398 0.33506 0.0
H669 H 0.56286 0.12177 0.38976 0.0
H670 H 0.64287 0.10848 0.25786 0.0
H671 H 0.62856 0.15309 0.24977 0.0
H672 H 0.67213 0.15142 0.27395 0.0
H673 H 0.5042 0.10197 0.3604 0.0
H674 H 0.50116 0.11374 0.31479 0.0
H675 H 0.51207 0.06869 0.32674 0.0
H676 H 0.51695 0.13003 0.19487 0.0
H677 H 0.54692 0.02188 0.21816 0.0
H678 H 0.57139 0.1833 0.25536 0.0
H679 H 0.53032 0.16857 0.28176 0.0
H680 H 0.52417 0.17985 0.2364 0.0
H681 H 0.60957 0.04928 0.28555 0.0
H682 H 0.5751 0.00907 0.27108 0.0
H683 H 0.56528 0.03734 0.30809 0.0
C684 C 0.53893 0.59505 0.30422 0.0
C685 C 0.50492 0.596 0.28556 0.0
C686 C 0.5391 0.59232 0.34078 0.0
C687 C 0.50441 0.5907 0.35926 0.0
C688 C 0.47025 0.59309 0.34069 0.0
C689 C 0.47087 0.59558 0.30411 0.0
C690 C 0.57632 0.58917 0.35886 0.0
C691 C 0.43265 0.59118 0.35935 0.0
C692 C 0.49412 0.53566 0.44351 0.0
C693 C 0.49607 0.56441 0.46885 0.0
C694 C 0.49759 0.54408 0.40793 0.0
C695 C 0.50282 0.5823 0.3973 0.0
C696 C 0.50534 0.61162 0.42291 0.0
C697 C 0.50221 0.60226 0.45851 0.0
C698 C 0.49453 0.51192 0.38165 0.0
C699 C 0.50932 0.65281 0.41339 0.0
H700 H 0.56551 0.59593 0.29024 0.0
H701 H 0.44432 0.59578 0.28995 0.0
H702 H 0.57561 0.59473 0.38733 0.0
H703 H 0.58256 0.56017 0.35471 0.0
H704 H 0.60024 0.60922 0.34734 0.0
H705 H 0.4088 0.59439 0.34122 0.0
H706 H 0.42535 0.56359 0.37276 0.0
H707 H 0.43516 0.61378 0.37968 0.0
H708 H 0.48947 0.50632 0.45158 0.0
H709 H 0.50301 0.62449 0.47808 0.0
H710 H 0.5214 0.51434 0.36659 0.0
H711 H 0.47094 0.51348 0.36274 0.0
H712 H 0.48915 0.48373 0.39422 0.0
H713 H 0.5183 0.65846 0.38599 0.0
H714 H 0.53016 0.67035 0.4313 0.0
H715 H 0.48134 0.66213 0.41706 0.0
C716 C 0.07748 0.46967 0.80157 0.0
C717 C 0.04449 0.45919 0.78108 0.0
C718 C 0.07696 0.49224 0.83161 0.0
C719 C 0.04286 0.50545 0.84067 0.0
C720 C 0.0098 0.49605 0.81918 0.0
C721 C 0.01082 0.47231 0.78992 0.0
C722 C 0.1126 0.50099 0.8542 0.0
C723 C 0.97298 0.5099 0.82736 0.0
C724 C 0.03686 0.53266 0.9362 0.0
C725 C 0.05257 0.57122 0.93555 0.0
C726 C 0.03164 0.5111 0.90518 0.0
C727 C 0.04227 0.52873 0.87292 0.0
C728 C 0.05596 0.56816 0.87201 0.0
C729 C 0.06145 0.58887 0.90344 0.0
C730 C 0.01648 0.4692 0.90713 0.0
C731 C 0.06581 0.58821 0.83791 0.0
H732 H 0.10329 0.45894 0.79479 0.0
H733 H 0.98528 0.46384 0.77401 0.0
H734 H 0.1223 0.53205 0.8561 0.0
H735 H 0.10619 0.49059 0.88111 0.0
H736 H 0.13644 0.48784 0.84383 0.0
H737 H 0.95546 0.51121 0.80333 0.0
H738 H 0.95597 0.48979 0.84542 0.0
H739 H 0.97824 0.5383 0.84008 0.0
H740 H 0.03017 0.51902 0.9611 0.0
H741 H 0.07314 0.61886 0.90296 0.0
H742 H 0.03871 0.45306 0.89815 0.0
H743 H 0.9913 0.46155 0.88951 0.0
H744 H 0.00794 0.46024 0.93407 0.0
H745 H 0.09122 0.57875 0.82639 0.0
H746 H 0.07214 0.61947 0.84136 0.0
H747 H 0.04179 0.58086 0.8189 0.0
C748 C 0.7858 1.00007 0.99686 0.0
C749 C 0.8105 0.03198 0.98462 0.0
C750 C 0.74958 0.00319 0.01037 0.0
C751 C 0.73787 0.0391 0.01211 0.0
C752 C 0.76173 0.07082 0.99772 0.0
C753 C 0.79734 0.06678 0.98388 0.0
C754 C 0.7248 0.96841 0.02476 0.0
C755 C 0.75153 0.10989 0.99938 0.0
C756 C 0.63433 0.04301 0.03753 0.0
C757 C 0.63782 0.04747 0.07398 0.0
C758 C 0.66672 0.04128 0.01675 0.0
C759 C 0.70335 0.04413 0.0328 0.0
C760 C 0.70711 0.05085 0.06931 0.0
C761 C 0.67442 0.0522 0.08936 0.0
C762 C 0.66164 0.03514 0.97781 0.0
C763 C 0.74566 0.05575 0.08744 0.0
H764 H 0.79549 0.97302 0.9976 0.0
H765 H 0.81566 0.09152 0.97367 0.0
H766 H 0.72412 0.97068 0.05371 0.0
H767 H 0.69496 0.96622 0.01496 0.0
H768 H 0.73554 0.94203 0.01762 0.0
H769 H 0.76244 0.12359 0.02446 0.0
H770 H 0.76509 0.12785 0.97788 0.0
H771 H 0.7202 0.10899 0.99818 0.0
H772 H 0.60614 0.0391 0.02548 0.0
H773 H 0.67738 0.05599 0.11748 0.0
H774 H 0.67012 0.0078 0.97025 0.0
H775 H 0.68061 0.05781 0.96372 0.0
H776 H 0.63164 0.03484 0.96911 0.0
H777 H 0.75785 0.02937 0.08473 0.0
H778 H 0.74396 0.06259 0.11572 0.0
H779 H 0.76578 0.07878 0.07496 0.0
C780 C 0.73022 0.08476 0.43786 0.0
C781 C 0.72869 0.12292 0.44536 0.0
C782 C 0.76195 0.06845 0.44826 0.0
C783 C 0.79299 0.09092 0.46631 0.0
C784 C 0.79238 0.12995 0.47214 0.0
C785 C 0.76022 0.14533 0.46184 0.0
C786 C 0.76129 0.02677 0.44165 0.0
C787 C 0.82503 0.1552 0.49075 0.0
C788 C 0.85337 0.05511 0.53633 0.0
C789 C 0.88885 0.05781 0.51987 0.0
C790 C 0.82096 0.06244 0.51815 0.0
C791 C 0.82418 0.07345 0.48268 0.0
C792 C 0.85912 0.07285 0.46506 0.0
C793 C 0.89112 0.0649 0.4839 0.0
C794 C 0.78414 0.06163 0.53786 0.0
C795 C 0.8638 0.0839 0.42721 0.0
H796 H 0.70583 0.0672 0.42532 0.0
H797 H 0.75937 0.17491 0.46732 0.0
H798 H 0.78918 0.0217 0.43146 0.0
H799 H 0.75638 0.01134 0.46666 0.0
H800 H 0.7383 0.01462 0.42283 0.0
H801 H 0.82182 0.18548 0.49036 0.0
H802 H 0.82645 0.14641 0.5184 0.0
H803 H 0.85264 0.15237 0.47848 0.0
H804 H 0.85151 0.04944 0.56412 0.0
H805 H 0.91857 0.06722 0.47112 0.0
H806 H 0.75946 0.04675 0.52228 0.0
H807 H 0.77937 0.09105 0.54258 0.0
H808 H 0.7847 0.04745 0.56351 0.0
H809 H 0.83812 0.07159 0.41156 0.0
H810 H 0.88933 0.07465 0.41559 0.0
H811 H 0.86727 0.11517 0.42529 0.0
C812 C 0.33133 0.63862 0.11422 0.0
C813 C 0.34982 0.62544 0.14297 0.0
C814 C 0.29214 0.62707 0.10824 0.0
C815 C 0.27097 0.60014 0.1306 0.0
C816 C 0.2899 0.58452 0.15817 0.0
C817 C 0.32902 0.59786 0.16444 0.0
C818 C 0.27323 0.64483 0.07859 0.0
C819 C 0.26884 0.55461 0.18167 0.0
C820 C 0.16851 0.61384 0.12665 0.0
C821 C 0.15573 0.5916 0.0973 0.0
C822 C 0.20491 0.61335 0.14104 0.0
C823 C 0.22888 0.59029 0.12529 0.0
C824 C 0.21408 0.56451 0.09825 0.0
C825 C 0.17758 0.56564 0.08438 0.0
C826 C 0.21949 0.64129 0.16987 0.0
C827 C 0.23831 0.53895 0.08108 0.0
H828 H 0.34738 0.65884 0.09669 0.0
H829 H 0.34291 0.58747 0.18679 0.0
H830 H 0.26031 0.62274 0.05949 0.0
H831 H 0.24985 0.65871 0.08883 0.0
H832 H 0.29366 0.66634 0.06448 0.0
H833 H 0.28878 0.53968 0.19643 0.0
H834 H 0.25187 0.568 0.20081 0.0
H835 H 0.24884 0.53345 0.16623 0.0
H836 H 0.15161 0.63423 0.13621 0.0
H837 H 0.16764 0.54872 0.06138 0.0
H838 H 0.2394 0.6654 0.15867 0.0
H839 H 0.23556 0.62804 0.18986 0.0
H840 H 0.19583 0.65256 0.18287 0.0
H841 H 0.25572 0.5547 0.06029 0.0
H842 H 0.22024 0.51381 0.06873 0.0
H843 H 0.25818 0.52929 0.10021 0.0
C844 C 0.22749 0.46247 0.62961 0.0
C845 C 0.19611 0.47559 0.64433 0.0
C846 C 0.26399 0.48452 0.6304 0.0
C847 C 0.26984 0.52039 0.6474 0.0
C848 C 0.23878 0.53315 0.66402 0.0
C849 C 0.20208 0.51072 0.66196 0.0
C850 C 0.29617 0.46947 0.61232 0.0
C851 C 0.24378 0.57072 0.68312 0.0
C852 C 0.37589 0.5435 0.65737 0.0
C853 C 0.38514 0.56084 0.62522 0.0
C854 C 0.33776 0.53584 0.66844 0.0
C855 C 0.3085 0.54417 0.64593 0.0
C856 C 0.31844 0.56651 0.61599 0.0
C857 C 0.35687 0.57459 0.60595 0.0
C858 C 0.32846 0.51416 0.70172 0.0
C859 C 0.28823 0.57676 0.59165 0.0
H860 H 0.22352 0.43477 0.61713 0.0
H861 H 0.17801 0.52105 0.67355 0.0
H862 H 0.30915 0.48971 0.59224 0.0
H863 H 0.31892 0.46623 0.63157 0.0
H864 H 0.28639 0.44158 0.59935 0.0
H865 H 0.22185 0.57062 0.7037 0.0
H866 H 0.27261 0.57813 0.69535 0.0
H867 H 0.24026 0.59324 0.66429 0.0
H868 H 0.39781 0.53267 0.67217 0.0
H869 H 0.36413 0.58769 0.5809 0.0
H870 H 0.32105 0.48347 0.69545 0.0
H871 H 0.30351 0.52292 0.7148 0.0
H872 H 0.35325 0.51846 0.72015 0.0
H873 H 0.27554 0.55138 0.576 0.0
H874 H 0.30032 0.5995 0.57336 0.0
H875 H 0.2649 0.5862 0.60664 0.0
C876 C 0.97918 0.89105 0.98622 0.0
C877 C 0.95987 0.88212 0.95419 0.0
C878 C 0.99514 0.86368 1.00473 0.0
C879 C 0.9915 0.82635 0.99106 0.0
C880 C 0.97083 0.81688 0.95939 0.0
C881 C 0.95554 0.84488 0.94125 0.0
C882 C 0.0168 0.87494 0.0384 0.0
C883 C 0.96558 0.77725 0.94425 0.0
C884 C 0.06493 0.76311 0.00859 0.0
C885 C 0.04506 0.73564 0.03085 0.0
C886 C 0.04864 0.79388 0.99704 0.0
C887 C 0.01158 0.79778 0.00816 0.0
C888 C 0.99283 0.77223 0.0331 0.0
C889 C 0.00973 0.74138 0.04403 0.0
C890 C 0.07021 0.82088 0.97114 0.0
C891 C 0.95392 0.77585 0.04676 0.0
H892 H 0.98291 0.91984 0.99627 0.0
H893 H 0.94024 0.83767 0.91678 0.0
H894 H 1.00558 0.8553 0.05958 0.0
H895 H 0.0474 0.8728 0.03504 0.0
H896 H 0.01491 0.90432 0.04676 0.0
H897 H 0.94699 0.77389 0.9205 0.0
H898 H 0.99382 0.77013 0.93728 0.0
H899 H 0.95274 0.75655 0.96403 0.0
H900 H 0.09255 0.75956 0.99848 0.0
H901 H 0.99461 0.7211 0.06191 0.0
H902 H 0.07051 0.85063 0.97954 0.0
H903 H 0.05558 0.81688 0.94526 0.0
H904 H 0.10022 0.81642 0.96794 0.0
H905 H 0.94968 0.80575 0.04818 0.0
H906 H 0.94965 0.76345 0.07321 0.0
H907 H 0.93175 0.76029 0.02886 0.0
C908 C 0.47991 0.75174 0.12237 0.0
C909 C 0.45233 0.73902 0.14744 0.0
C910 C 0.48867 0.79032 0.11418 0.0
C911 C 0.46987 0.81652 0.13208 0.0
C912 C 0.44258 0.80371 0.15801 0.0
C913 C 0.43385 0.76498 0.16511 0.0
C914 C 0.51746 0.80296 0.08601 0.0
C915 C 0.42254 0.83089 0.17817 0.0
C916 C 0.51575 0.9198 0.13751 0.0
C917 C 0.49307 0.93639 0.11406 0.0
C918 C 0.50895 0.88071 0.14312 0.0
C919 C 0.47912 0.85752 0.12437 0.0
C920 C 0.45673 0.87389 0.09993 0.0
C921 C 0.46359 0.91328 0.09552 0.0
C922 C 0.53294 0.8644 0.16991 0.0
C923 C 0.42506 0.84994 0.07901 0.0
H924 H 0.49374 0.73135 0.1085 0.0
H925 H 0.41247 0.75483 0.18447 0.0
H926 H 0.50389 0.81736 0.06498 0.0
H927 H 0.54153 0.82378 0.09694 0.0
H928 H 0.52916 0.77892 0.07428 0.0
H929 H 0.40275 0.81635 0.19805 0.0
H930 H 0.44394 0.85267 0.19159 0.0
H931 H 0.40593 0.84588 0.15995 0.0
H932 H 0.53845 0.9374 0.15213 0.0
H933 H 0.44533 0.92598 0.0781 0.0
H934 H 0.5464 0.84175 0.15784 0.0
H935 H 0.51443 0.85133 0.1913 0.0
H936 H 0.55582 0.88619 0.18148 0.0
H937 H 0.43616 0.82669 0.06533 0.0
H938 H 0.4122 0.86671 0.0593 0.0
H939 H 0.4022 0.83669 0.09681 0.0
C940 C 0.13769 0.35793 0.56898 0.0
C941 C 0.10725 0.37635 0.57836 0.0
C942 C 0.13057 0.32154 0.55389 0.0
C943 C 0.09234 0.30306 0.54928 0.0
C944 C 0.06222 0.32406 0.55277 0.0
C945 C 0.07015 0.36083 0.5669 0.0
C946 C 0.16361 0.30097 0.54754 0.0
C947 C 0.02108 0.30593 0.54655 0.0
C948 C 0.05972 0.19899 0.52598 0.0
C949 C 0.05499 0.18341 0.55939 0.0
C950 C 0.07443 0.23768 0.52172 0.0
C951 C 0.08338 0.26114 0.55171 0.0
C952 C 0.08025 0.24489 0.58544 0.0
C953 C 0.06632 0.20624 0.58875 0.0
C954 C 0.07802 0.25334 0.48525 0.0
C955 C 0.08936 0.26863 0.61836 0.0
H956 H 0.16671 0.36985 0.57685 0.0
H957 H 0.0467 0.37571 0.5725 0.0
H958 H 0.16746 0.2833 0.57053 0.0
H959 H 0.15792 0.28194 0.52431 0.0
H960 H 0.19069 0.32113 0.54363 0.0
H961 H 1.00184 0.32729 0.54527 0.0
H962 H 0.01812 0.28917 0.52186 0.0
H963 H 0.01156 0.28628 0.56823 0.0
H964 H 0.04956 0.18167 0.50342 0.0
H965 H 0.06252 0.19406 0.61461 0.0
H966 H 0.09887 0.28013 0.48387 0.0
H967 H 0.04968 0.2587 0.47614 0.0
H968 H 0.08698 0.23239 0.46699 0.0
H969 H 0.1194 0.28362 0.61794 0.0
H970 H 0.08537 0.2514 0.64245 0.0
H971 H 0.07061 0.29039 0.61989 0.0
C972 C 0.60889 0.2857 0.57386 0.0
C973 C 0.60136 0.27197 0.53946 0.0
C974 C 0.59989 0.3207 0.5847 0.0
C975 C 0.58296 0.34274 0.56061 0.0
C976 C 0.57786 0.33034 0.52524 0.0
C977 C 0.58714 0.29514 0.51508 0.0
C978 C 0.60634 0.33296 0.62249 0.0
C979 C 0.56031 0.35315 0.49856 0.0
C980 C 0.50985 0.40176 0.59093 0.0
C981 C 0.53002 0.43883 0.58831 0.0
C982 C 0.52737 0.37035 0.58364 0.0
C983 C 0.56611 0.37597 0.57315 0.0
C984 C 0.58744 0.41326 0.57285 0.0
C985 C 0.56914 0.4443 0.58051 0.0
C986 C 0.50368 0.33116 0.58525 0.0
C987 C 0.62887 0.42061 0.56224 0.0
H988 H 0.62061 0.26833 0.59276 0.0
H989 H 0.58119 0.28481 0.48852 0.0
H990 H 0.62037 0.36305 0.62432 0.0
H991 H 0.57838 0.33059 0.6358 0.0
H992 H 0.62422 0.31541 0.63676 0.0
H993 H 0.56211 0.34193 0.47156 0.0
H994 H 0.52973 0.35265 0.50478 0.0
H995 H 0.57478 0.38315 0.4995 0.0
H996 H 0.47966 0.39733 0.59715 0.0
H997 H 0.58484 0.47288 0.57816 0.0
H998 H 0.51845 0.31248 0.60146 0.0
H999 H 0.5001 0.31854 0.55855 0.0
H1000 H 0.47485 0.33143 0.59627 0.0
H1001 H 0.64492 0.40039 0.57495 0.0
H1002 H 0.64301 0.44993 0.56898 0.0
H1003 H 0.63066 0.41646 0.53355 0.0
loop_
_geom_bond_atom_site_label_1
_geom_bond_atom_site_label_2
_geom_bond_distance
_geom_bond_site_symmetry_2
_ccdc_geom_bond_type
H0 C1 0.949 . S
C1 H0 0.949 . S
C1 C2 1.395 . S
C1 C3 1.391 . S
C2 C1 1.395 . S
C2 C5 1.390 . S
C3 C1 1.391 . S
C3 C7 1.387 . S
C3 C8 1.491 . S
H4 C5 0.950 . S
C5 C2 1.390 . S
C5 H4 0.950 . S
C5 C6 1.378 . S
C6 C5 1.378 . S
C6 C7 1.409 . S
C7 C3 1.387 . S
C7 C6 1.409 . S
C7 H9 0.951 . S
C8 C3 1.491 . S
C8 C10 1.382 . S
C8 C12 1.404 . S
H9 C7 0.951 . S
C10 C8 1.382 . S
C10 C11 1.390 . S
C10 H15 0.949 . S
C11 C10 1.390 . S
C11 C16 1.399 . S
C12 C8 1.404 . S
C12 H13 0.950 . S
C12 C14 1.375 . S
H13 C12 0.950 . S
C14 C12 1.375 . S
C14 C16 1.382 . S
C14 H18 0.950 . S
H15 C10 0.949 . S
C16 C11 1.399 . S
C16 C14 1.382 . S
C16 H17 0.952 . S
H17 C16 0.952 . S
H18 C14 0.950 . S
H19 C20 0.949 . S
C20 H19 0.949 . S
C20 C21 1.395 . S
C20 C22 1.391 . S
C21 C20 1.395 . S
C21 C24 1.390 . S
C22 C20 1.391 . S
C22 C26 1.387 . S
C22 C27 1.491 . S
H23 C24 0.950 . S
C24 C21 1.390 . S
C24 H23 0.950 . S
C24 C25 1.378 . S
C25 C24 1.378 . S
C25 C26 1.409 . S
C26 C22 1.387 . S
C26 C25 1.409 . S
C26 H28 0.951 . S
C27 C22 1.491 . S
C27 C29 1.382 . S
C27 C31 1.404 . S
H28 C26 0.951 . S
C29 C27 1.382 . S
C29 C30 1.390 . S
C29 H34 0.949 . S
C30 C29 1.390 . S
C30 C35 1.399 . S
C31 C27 1.404 . S
C31 H32 0.950 . S
C31 C33 1.375 . S
H32 C31 0.950 . S
C33 C31 1.375 . S
C33 C35 1.382 . S
C33 H37 0.950 . S
H34 C29 0.949 . S
C35 C30 1.399 . S
C35 C33 1.382 . S
C35 H36 0.952 . S
H36 C35 0.952 . S
H37 C33 0.950 . S
H38 C39 0.949 . S
C39 H38 0.949 . S
C39 C40 1.395 . S
C39 C41 1.391 . S
C40 C39 1.395 . S
C40 C43 1.390 . S
C41 C39 1.391 . S
C41 C45 1.387 . S
C41 C46 1.491 . S
H42 C43 0.950 . S
C43 C40 1.390 . S
C43 H42 0.950 . S
C43 C44 1.378 . S
C44 C43 1.378 . S
C44 C45 1.409 . S
C45 C41 1.387 . S
C45 C44 1.409 . S
C45 H47 0.951 . S
C46 C41 1.491 . S
C46 C48 1.382 . S
C46 C50 1.404 . S
H47 C45 0.951 . S
C48 C46 1.382 . S
C48 C49 1.390 . S
C48 H53 0.949 . S
C49 C48 1.390 . S
C49 C54 1.399 . S
C50 C46 1.404 . S
C50 H51 0.950 . S
C50 C52 1.375 . S
H51 C50 0.950 . S
C52 C50 1.375 . S
C52 C54 1.382 . S
C52 H56 0.950 . S
H53 C48 0.949 . S
C54 C49 1.399 . S
C54 C52 1.382 . S
C54 H55 0.952 . S
H55 C54 0.952 . S
H56 C52 0.950 . S
H57 C58 0.949 . S
C58 H57 0.949 . S
C58 C59 1.395 . S
C58 C60 1.391 . S
C59 C58 1.395 . S
C59 C62 1.390 . S
C60 C58 1.391 . S
C60 C64 1.387 . S
C60 C65 1.491 . S
H61 C62 0.950 . S
C62 C59 1.390 . S
C62 H61 0.950 . S
C62 C63 1.378 . S
C63 C62 1.378 . S
C63 C64 1.409 . S
C64 C60 1.387 . S
C64 C63 1.409 . S
C64 H66 0.951 . S
C65 C60 1.491 . S
C65 C67 1.382 . S
C65 C69 1.404 . S
H66 C64 0.951 . S
C67 C65 1.382 . S
C67 C68 1.390 . S
C67 H72 0.949 . S
C68 C67 1.390 . S
C68 C73 1.399 . S
C69 C65 1.404 . S
C69 H70 0.950 . S
C69 C71 1.375 . S
H70 C69 0.950 . S
C71 C69 1.375 . S
C71 C73 1.382 . S
C71 H75 0.950 . S
H72 C67 0.949 . S
C73 C68 1.399 . S
C73 C71 1.382 . S
C73 H74 0.952 . S
H74 C73 0.952 . S
H75 C71 0.950 . S
H76 C77 0.949 . S
C77 H76 0.949 . S
C77 C78 1.395 . S
C77 C79 1.391 . S
C78 C77 1.395 . S
C78 C81 1.390 . S
C79 C77 1.391 . S
C79 C83 1.387 1_565 S
C79 C84 1.491 1_565 S
H80 C81 0.950 1_455 S
C81 C78 1.390 . S
C81 H80 0.950 1_655 S
C81 C82 1.378 . S
C82 C81 1.378 . S
C82 C83 1.409 1_565 S
C83 C79 1.387 1_545 S
C83 C82 1.409 1_545 S
C83 H85 0.951 . S
C84 C79 1.491 1_545 S
C84 C86 1.382 . S
C84 C88 1.404 . S
H85 C83 0.951 . S
C86 C84 1.382 . S
C86 C87 1.390 1_556 S
C86 H91 0.949 1_556 S
C87 C86 1.390 1_554 S
C87 C92 1.399 1_554 S
C88 C84 1.404 . S
C88 H89 0.950 . S
C88 C90 1.375 . S
H89 C88 0.950 . S
C90 C88 1.375 . S
C90 C92 1.382 . S
C90 H94 0.950 . S
H91 C86 0.949 1_554 S
C92 C87 1.399 1_556 S
C92 C90 1.382 . S
C92 H93 0.952 . S
H93 C92 0.952 . S
H94 C90 0.950 . S
H95 C96 0.949 . S
C96 H95 0.949 . S
C96 C97 1.395 . S
C96 C98 1.391 . S
C97 C96 1.395 . S
C97 C100 1.390 . S
C98 C96 1.391 . S
C98 C102 1.387 . S
C98 C103 1.491 . S
H99 C100 0.950 . S
C100 C97 1.390 . S
C100 H99 0.950 . S
C100 C101 1.378 . S
C101 C100 1.378 . S
C101 C102 1.409 . S
C102 C98 1.387 . S
C102 C101 1.409 . S
C102 H104 0.951 . S
C103 C98 1.491 . S
C103 C105 1.382 . S
C103 C107 1.404 . S
H104 C102 0.951 . S
C105 C103 1.382 . S
C105 C106 1.390 . S
C105 H110 0.949 . S
C106 C105 1.390 . S
C106 C111 1.399 . S
C107 C103 1.404 . S
C107 H108 0.950 . S
C107 C109 1.375 . S
H108 C107 0.950 . S
C109 C107 1.375 . S
C109 C111 1.382 . S
C109 H113 0.950 . S
H110 C105 0.949 . S
C111 C106 1.399 . S
C111 C109 1.382 . S
C111 H112 0.952 . S
H112 C111 0.952 . S
H113 C109 0.950 . S
H114 C115 0.949 . S
C115 H114 0.949 . S
C115 C116 1.395 . S
C115 C117 1.391 . S
C116 C115 1.395 . S
C116 C119 1.390 . S
C117 C115 1.391 . S
C117 C121 1.387 . S
C117 C122 1.491 . S
H118 C119 0.950 . S
C119 C116 1.390 . S
C119 H118 0.950 . S
C119 C120 1.378 . S
C120 C119 1.378 . S
C120 C121 1.409 . S
C121 C117 1.387 . S
C121 C120 1.409 . S
C121 H123 0.951 . S
C122 C117 1.491 . S
C122 C124 1.382 . S
C122 C126 1.404 . S
H123 C121 0.951 . S
C124 C122 1.382 . S
C124 C125 1.390 . S
C124 H129 0.949 . S
C125 C124 1.390 . S
C125 C130 1.399 . S
C126 C122 1.404 . S
C126 H127 0.950 . S
C126 C128 1.375 . S
H127 C126 0.950 . S
C128 C126 1.375 . S
C128 C130 1.382 . S
C128 H132 0.950 . S
H129 C124 0.949 . S
C130 C125 1.399 . S
C130 C128 1.382 . S
C130 H131 0.952 . S
H131 C130 0.952 . S
H132 C128 0.950 . S
H133 C134 0.949 . S
C134 H133 0.949 . S
C134 C135 1.395 . S
C134 C136 1.391 . S
C135 C134 1.395 . S
C135 C138 1.390 . S
C136 C134 1.391 . S
C136 C140 1.387 . S
C136 C141 1.491 . S
H137 C138 0.950 . S
C138 C135 1.390 . S
C138 H137 0.950 . S
C138 C139 1.378 . S
C139 C138 1.378 . S
C139 C140 1.409 . S
C140 C136 1.387 . S
C140 C139 1.409 . S
C140 H142 0.951 . S
C141 C136 1.491 . S
C141 C143 1.382 . S
C141 C145 1.404 . S
H142 C140 0.951 . S
C143 C141 1.382 . S
C143 C144 1.390 . S
C143 H148 0.949 . S
C144 C143 1.390 . S
C144 C149 1.399 . S
C145 C141 1.404 . S
C145 H146 0.950 . S
C145 C147 1.375 . S
H146 C145 0.950 . S
C147 C145 1.375 . S
C147 C149 1.382 . S
C147 H151 0.950 . S
H148 C143 0.949 . S
C149 C144 1.399 . S
C149 C147 1.382 . S
C149 H150 0.952 . S
H150 C149 0.952 . S
H151 C147 0.950 . S
Zn152 O158 1.920 . S
Zn152 O164 1.898 . S
Zn152 O167 1.905 . S
Zn153 O161 1.921 . S
Zn153 O162 1.893 1_545 S
Zn153 O170 1.915 1_545 S
Zn154 O157 2.080 1_455 S
Zn154 O160 2.114 . S
Zn154 O163 2.120 1_445 S
Zn154 O165 2.120 . S
Zn154 O166 2.114 1_455 S
Zn154 O169 2.080 . S
C155 O160 1.166 . S
C155 O161 1.182 . S
C156 O162 1.167 1_655 S
C156 O163 1.299 . S
O157 Zn154 2.080 1_655 S
O157 C171 1.305 . S
O158 Zn152 1.920 . S
O158 C171 1.234 . S
C159 O164 1.167 1_455 S
C159 O165 1.299 . S
O160 Zn154 2.114 . S
O160 C155 1.166 . S
O161 Zn153 1.921 . S
O161 C155 1.182 . S
O162 Zn153 1.893 1_565 S
O162 C156 1.167 1_455 S
O163 Zn154 2.120 1_665 S
O163 C156 1.299 . S
O164 Zn152 1.898 . S
O164 C159 1.167 1_655 S
O165 Zn154 2.120 . S
O165 C159 1.299 . S
O166 Zn154 2.114 1_655 S
O166 C168 1.166 . S
O167 Zn152 1.905 . S
O167 C168 1.182 . S
C168 O166 1.166 . S
C168 O167 1.182 . S
O169 Zn154 2.080 . S
O169 C172 1.305 . S
O170 Zn153 1.915 1_565 S
O170 C172 1.234 1_565 S
C171 O157 1.305 . S
C171 O158 1.234 . S
C172 O169 1.305 . S
C172 O170 1.234 1_545 S
Zn173 O179 1.920 . S
Zn173 O185 1.898 . S
Zn173 O188 1.905 . S
Zn174 O182 1.905 1_565 S
Zn174 O183 1.898 . S
Zn174 O191 1.920 1_565 S
Zn175 O178 2.080 . S
Zn175 O181 2.114 . S
Zn175 O184 2.120 1_545 S
Zn175 O186 2.120 . S
Zn175 O187 2.114 . S
Zn175 O190 2.080 . S
C176 O181 1.166 . S
C176 O182 1.182 . S
C177 O183 1.167 . S
C177 O184 1.299 . S
O178 Zn175 2.080 . S
O178 C192 1.305 . S
O179 Zn173 1.920 . S
O179 C192 1.234 . S
C180 O185 1.167 . S
C180 O186 1.299 . S
O181 Zn175 2.114 . S
O181 C176 1.166 . S
O182 Zn174 1.905 1_545 S
O182 C176 1.182 . S
O183 Zn174 1.898 . S
O183 C177 1.167 . S
O184 Zn175 2.120 1_565 S
O184 C177 1.299 . S
O185 Zn173 1.898 . S
O185 C180 1.167 . S
O186 Zn175 2.120 . S
O186 C180 1.299 . S
O187 Zn175 2.114 . S
O187 C189 1.166 . S
O188 Zn173 1.905 . S
O188 C189 1.182 . S
C189 O187 1.166 . S
C189 O188 1.182 . S
O190 Zn175 2.080 . S
O190 C193 1.305 . S
O191 Zn174 1.920 1_545 S
O191 C193 1.234 . S
C192 O178 1.305 . S
C192 O179 1.234 . S
C193 O190 1.305 . S
C193 O191 1.234 . S
Zn194 O200 1.920 . S
Zn194 O206 1.898 . S
Zn194 O209 1.905 . S
Zn195 O203 1.905 . S
Zn195 O204 1.898 . S
Zn195 O212 1.920 . S
Zn196 O199 2.080 . S
Zn196 O202 2.114 . S
Zn196 O205 2.120 . S
Zn196 O207 2.120 . S
Zn196 O208 2.114 . S
Zn196 O211 2.080 . S
C197 O202 1.166 . S
C197 O203 1.182 . S
C198 O204 1.167 . S
C198 O205 1.299 . S
O199 Zn196 2.080 . S
O199 C213 1.305 . S
O200 Zn194 1.920 . S
O200 C213 1.234 . S
C201 O206 1.167 . S
C201 O207 1.299 . S
O202 Zn196 2.114 . S
O202 C197 1.166 . S
O203 Zn195 1.905 . S
O203 C197 1.182 . S
O204 Zn195 1.898 . S
O204 C198 1.167 . S
O205 Zn196 2.120 . S
O205 C198 1.299 . S
O206 Zn194 1.898 . S
O206 C201 1.167 . S
O207 Zn196 2.120 . S
O207 C201 1.299 . S
O208 Zn196 2.114 . S
O208 C210 1.166 . S
O209 Zn194 1.905 . S
O209 C210 1.182 . S
C210 O208 1.166 . S
C210 O209 1.182 . S
O211 Zn196 2.080 . S
O211 C214 1.305 . S
O212 Zn195 1.920 . S
O212 C214 1.234 . S
C213 O199 1.305 . S
C213 O200 1.234 . S
C214 O211 1.305 . S
C214 O212 1.234 . S
Zn215 O221 1.920 . S
Zn215 O227 1.898 1_556 S
Zn215 O230 1.905 . S
Zn216 O224 1.905 1_655 S
Zn216 O225 1.898 . S
Zn216 O233 1.920 . S
Zn217 O220 2.080 . S
Zn217 O223 2.114 . S
Zn217 O226 2.120 1_455 S
Zn217 O228 2.120 . S
Zn217 O229 2.114 1_554 S
Zn217 O232 2.080 . S
C218 O223 1.166 . S
C218 O224 1.182 . S
C219 O225 1.167 . S
C219 O226 1.299 . S
O220 Zn217 2.080 . S
O220 C234 1.306 . S
O221 Zn215 1.920 . S
O221 C234 1.222 1_556 S
C222 O227 1.167 . S
C222 O228 1.299 . S
O223 Zn217 2.114 . S
O223 C218 1.166 . S
O224 Zn216 1.905 1_455 S
O224 C218 1.182 . S
O225 Zn216 1.898 . S
O225 C219 1.167 . S
O226 Zn217 2.120 1_655 S
O226 C219 1.299 . S
O227 Zn215 1.898 1_554 S
O227 C222 1.167 . S
O228 Zn217 2.120 . S
O228 C222 1.299 . S
O229 Zn217 2.114 1_556 S
O229 C231 1.166 . S
O230 Zn215 1.905 . S
O230 C231 1.182 . S
C231 O229 1.166 . S
C231 O230 1.182 . S
O232 Zn217 2.080 . S
O232 C235 1.305 1_455 S
O233 Zn216 1.920 . S
O233 C235 1.234 . S
C234 O220 1.306 . S
C234 O221 1.222 1_554 S
C235 O232 1.305 1_655 S
C235 O233 1.234 . S
C236 C237 1.391 . S
C236 C238 1.394 . S
C236 H252 0.931 . S
C237 C236 1.391 . S
C237 C241 1.376 . S
C238 C236 1.394 . S
C238 C239 1.369 . S
C238 C242 1.531 . S
C239 C238 1.369 . S
C239 C240 1.410 . S
C239 C247 1.503 . S
C240 C239 1.410 . S
C240 C241 1.392 . S
C240 C243 1.511 . S
C241 C237 1.376 . S
C241 C240 1.392 . S
C241 H253 0.929 . S
C242 C238 1.531 . S
C242 H254 0.960 . S
C242 H255 0.962 . S
C242 H256 0.960 . S
C243 C240 1.511 . S
C243 H257 0.961 . S
C243 H258 0.961 . S
C243 H259 0.961 . S
C244 C245 1.370 . S
C244 C246 1.363 . S
C244 H260 0.931 . S
C245 C244 1.370 . S
C245 C249 1.408 . S
C246 C244 1.363 . S
C246 C247 1.370 . S
C246 C250 1.524 . S
C247 C239 1.503 . S
C247 C246 1.370 . S
C247 C248 1.403 . S
C248 C247 1.403 . S
C248 C249 1.404 . S
C248 C251 1.539 . S
C249 C245 1.408 . S
C249 C248 1.404 . S
C249 H261 0.930 . S
C250 C246 1.524 . S
C250 H262 0.956 . S
C250 H263 0.961 . S
C250 H264 0.961 . S
C251 C248 1.539 . S
C251 H265 0.958 . S
C251 H266 0.961 . S
C251 H267 0.960 . S
H252 C236 0.931 . S
H253 C241 0.929 . S
H254 C242 0.960 . S
H255 C242 0.962 . S
H256 C242 0.960 . S
H257 C243 0.961 . S
H258 C243 0.961 . S
H259 C243 0.961 . S
H260 C244 0.931 . S
H261 C249 0.930 . S
H262 C250 0.956 . S
H263 C250 0.961 . S
H264 C250 0.961 . S
H265 C251 0.958 . S
H266 C251 0.961 . S
H267 C251 0.960 . S
C268 C269 1.391 . S
C268 C270 1.394 . S
C268 H284 0.931 . S
C269 C268 1.391 . S
C269 C273 1.376 . S
C270 C268 1.394 . S
C270 C271 1.369 . S
C270 C274 1.531 . S
C271 C270 1.369 . S
C271 C272 1.410 . S
C271 C279 1.503 . S
C272 C271 1.410 . S
C272 C273 1.392 . S
C272 C275 1.511 . S
C273 C269 1.376 . S
C273 C272 1.392 . S
C273 H285 0.929 . S
C274 C270 1.531 . S
C274 H286 0.960 . S
C274 H287 0.962 . S
C274 H288 0.960 . S
C275 C272 1.511 . S
C275 H289 0.961 . S
C275 H290 0.961 . S
C275 H291 0.961 . S
C276 C277 1.370 . S
C276 C278 1.363 . S
C276 H292 0.931 1_565 S
C277 C276 1.370 . S
C277 C281 1.408 . S
C278 C276 1.363 . S
C278 C279 1.370 . S
C278 C282 1.524 . S
C279 C271 1.503 . S
C279 C278 1.370 . S
C279 C280 1.403 . S
C280 C279 1.403 . S
C280 C281 1.404 . S
C280 C283 1.539 . S
C281 C277 1.408 . S
C281 C280 1.404 . S
C281 H293 0.930 . S
C282 C278 1.524 . S
C282 H294 0.956 . S
C282 H295 0.961 1_565 S
C282 H296 0.961 1_565 S
C283 C280 1.539 . S
C283 H297 0.958 . S
C283 H298 0.961 . S
C283 H299 0.960 . S
H284 C268 0.931 . S
H285 C273 0.929 . S
H286 C274 0.960 . S
H287 C274 0.962 . S
H288 C274 0.960 . S
H289 C275 0.961 . S
H290 C275 0.961 . S
H291 C275 0.961 . S
H292 C276 0.931 1_545 S
H293 C281 0.930 . S
H294 C282 0.956 . S
H295 C282 0.961 1_545 S
H296 C282 0.961 1_545 S
H297 C283 0.958 . S
H298 C283 0.961 . S
H299 C283 0.960 . S
C300 C301 1.391 . S
C300 C302 1.394 . S
C300 H316 0.931 . S
C301 C300 1.391 . S
C301 C305 1.376 . S
C302 C300 1.394 . S
C302 C303 1.369 . S
C302 C306 1.531 . S
C303 C302 1.369 . S
C303 C304 1.410 . S
C303 C311 1.503 . S
C304 C303 1.410 . S
C304 C305 1.392 . S
C304 C307 1.511 . S
C305 C301 1.376 . S
C305 C304 1.392 . S
C305 H317 0.929 . S
C306 C302 1.531 . S
C306 H318 0.960 . S
C306 H319 0.962 . S
C306 H320 0.960 . S
C307 C304 1.511 . S
C307 H321 0.961 . S
C307 H322 0.961 . S
C307 H323 0.961 . S
C308 C309 1.370 . S
C308 C310 1.363 . S
C308 H324 0.931 . S
C309 C308 1.370 . S
C309 C313 1.408 . S
C310 C308 1.363 . S
C310 C311 1.370 . S
C310 C314 1.524 . S
C311 C303 1.503 . S
C311 C310 1.370 . S
C311 C312 1.403 . S
C312 C311 1.403 . S
C312 C313 1.404 . S
C312 C315 1.539 . S
C313 C309 1.408 . S
C313 C312 1.404 . S
C313 H325 0.930 . S
C314 C310 1.524 . S
C314 H326 0.956 . S
C314 H327 0.961 . S
C314 H328 0.961 . S
C315 C312 1.539 . S
C315 H329 0.958 . S
C315 H330 0.961 . S
C315 H331 0.960 . S
H316 C300 0.931 . S
H317 C305 0.929 . S
H318 C306 0.960 . S
H319 C306 0.962 . S
H320 C306 0.960 . S
H321 C307 0.961 . S
H322 C307 0.961 . S
H323 C307 0.961 . S
H324 C308 0.931 . S
H325 C313 0.930 . S
H326 C314 0.956 . S
H327 C314 0.961 . S
H328 C314 0.961 . S
H329 C315 0.958 . S
H330 C315 0.961 . S
H331 C315 0.960 . S
C332 C333 1.391 . S
C332 C334 1.394 . S
C332 H348 0.931 . S
C333 C332 1.391 . S
C333 C337 1.376 . S
C334 C332 1.394 . S
C334 C335 1.369 . S
C334 C338 1.531 . S
C335 C334 1.369 . S
C335 C336 1.410 . S
C335 C343 1.503 . S
C336 C335 1.410 . S
C336 C337 1.392 . S
C336 C339 1.511 . S
C337 C333 1.376 . S
C337 C336 1.392 . S
C337 H349 0.929 . S
C338 C334 1.531 . S
C338 H350 0.960 1_655 S
C338 H351 0.962 . S
C338 H352 0.960 1_655 S
C339 C336 1.511 . S
C339 H353 0.961 . S
C339 H354 0.961 . S
C339 H355 0.961 . S
C340 C341 1.370 . S
C340 C342 1.363 . S
C340 H356 0.931 . S
C341 C340 1.370 . S
C341 C345 1.408 . S
C342 C340 1.363 . S
C342 C343 1.370 . S
C342 C346 1.524 . S
C343 C335 1.503 . S
C343 C342 1.370 . S
C343 C344 1.403 . S
C344 C343 1.403 . S
C344 C345 1.404 . S
C344 C347 1.539 . S
C345 C341 1.408 . S
C345 C344 1.404 . S
C345 H357 0.944 . S
C346 C342 1.524 . S
C346 H358 0.956 . S
C346 H359 0.961 . S
C346 H360 0.961 . S
C347 C344 1.539 . S
C347 H361 0.958 . S
C347 H362 0.961 . S
C347 H363 0.960 . S
H348 C332 0.931 . S
H349 C337 0.929 . S
H350 C338 0.960 1_455 S
H351 C338 0.962 . S
H352 C338 0.960 1_455 S
H353 C339 0.961 . S
H354 C339 0.961 . S
H355 C339 0.961 . S
H356 C340 0.931 . S
H357 C345 0.944 . S
H358 C346 0.956 . S
H359 C346 0.961 . S
H360 C346 0.961 . S
H361 C347 0.958 . S
H362 C347 0.961 . S
H363 C347 0.960 . S
C364 C365 1.391 . S
C364 C366 1.394 . S
C364 H380 0.931 . S
C365 C364 1.391 . S
C365 C369 1.376 . S
C366 C364 1.394 . S
C366 C367 1.369 . S
C366 C370 1.531 . S
C367 C366 1.369 . S
C367 C368 1.410 . S
C367 C375 1.503 . S
C368 C367 1.410 . S
C368 C369 1.392 . S
C368 C371 1.511 . S
C369 C365 1.376 . S
C369 C368 1.392 . S
C369 H381 0.929 . S
C370 C366 1.531 . S
C370 H382 0.960 . S
C370 H383 0.962 . S
C370 H384 0.960 . S
C371 C368 1.511 . S
C371 H385 0.961 . S
C371 H386 0.961 . S
C371 H387 0.961 . S
C372 C373 1.370 . S
C372 C374 1.363 . S
C372 H388 0.931 . S
C373 C372 1.370 . S
C373 C377 1.408 . S
C374 C372 1.363 . S
C374 C375 1.370 . S
C374 C378 1.524 . S
C375 C367 1.503 . S
C375 C374 1.370 . S
C375 C376 1.403 . S
C376 C375 1.403 . S
C376 C377 1.404 . S
C376 C379 1.539 . S
C377 C373 1.408 . S
C377 C376 1.404 . S
C377 H389 0.930 . S
C378 C374 1.524 . S
C378 H390 0.956 . S
C378 H391 0.961 . S
C378 H392 0.961 . S
C379 C376 1.539 . S
C379 H393 0.958 . S
C379 H394 0.961 . S
C379 H395 0.960 . S
H380 C364 0.931 . S
H381 C369 0.929 . S
H382 C370 0.960 . S
H383 C370 0.962 . S
H384 C370 0.960 . S
H385 C371 0.961 . S
H386 C371 0.961 . S
H387 C371 0.961 . S
H388 C372 0.931 . S
H389 C377 0.930 . S
H390 C378 0.956 . S
H391 C378 0.961 . S
H392 C378 0.961 . S
H393 C379 0.958 . S
H394 C379 0.961 . S
H395 C379 0.960 . S
C396 C397 1.391 . S
C396 C398 1.394 . S
C396 H412 0.931 . S
C397 C396 1.391 . S
C397 C401 1.376 . S
C398 C396 1.394 . S
C398 C399 1.369 . S
C398 C402 1.531 . S
C399 C398 1.369 . S
C399 C400 1.410 . S
C399 C407 1.503 . S
C400 C399 1.410 . S
C400 C401 1.392 . S
C400 C403 1.511 1_565 S
C401 C397 1.376 . S
C401 C400 1.392 . S
C401 H413 0.929 . S
C402 C398 1.531 . S
C402 H414 0.960 . S
C402 H415 0.962 . S
C402 H416 0.960 . S
C403 C400 1.511 1_545 S
C403 H417 0.961 . S
C403 H418 0.961 . S
C403 H419 0.961 . S
C404 C405 1.370 1_565 S
C404 C406 1.363 . S
C404 H420 0.933 . S
C405 C404 1.370 1_545 S
C405 C409 1.410 . S
C406 C404 1.363 . S
C406 C407 1.370 . S
C406 C410 1.524 . S
C407 C399 1.503 . S
C407 C406 1.370 . S
C407 C408 1.403 . S
C408 C407 1.403 . S
C408 C409 1.395 1_565 S
C408 C411 1.539 . S
C409 C405 1.410 . S
C409 C408 1.395 1_545 S
C409 H421 0.937 . S
C410 C406 1.524 . S
C410 H422 0.956 . S
C410 H423 0.961 . S
C410 H424 0.961 . S
C411 C408 1.539 . S
C411 H425 0.958 . S
C411 H426 0.961 1_565 S
C411 H427 0.960 . S
H412 C396 0.931 . S
H413 C401 0.929 . S
H414 C402 0.960 . S
H415 C402 0.962 . S
H416 C402 0.960 . S
H417 C403 0.961 . S
H418 C403 0.961 . S
H419 C403 0.961 . S
H420 C404 0.933 . S
H421 C409 0.937 . S
H422 C410 0.956 . S
H423 C410 0.961 . S
H424 C410 0.961 . S
H425 C411 0.958 . S
H426 C411 0.961 1_545 S
H427 C411 0.960 . S
C428 C429 1.391 . S
C428 C430 1.394 . S
C428 H444 0.931 . S
C429 C428 1.391 . S
C429 C433 1.376 . S
C430 C428 1.394 . S
C430 C431 1.369 . S
C430 C434 1.531 . S
C431 C430 1.369 . S
C431 C432 1.410 . S
C431 C439 1.503 . S
C432 C431 1.410 . S
C432 C433 1.392 . S
C432 C435 1.511 . S
C433 C429 1.376 . S
C433 C432 1.392 . S
C433 H445 0.929 . S
C434 C430 1.531 . S
C434 H446 0.960 1_556 S
C434 H447 0.962 . S
C434 H448 0.960 1_556 S
C435 C432 1.511 . S
C435 H449 0.961 . S
C435 H450 0.961 . S
C435 H451 0.961 . S
C436 C437 1.370 . S
C436 C438 1.363 . S
C436 H452 0.931 . S
C437 C436 1.370 . S
C437 C441 1.408 1_556 S
C438 C436 1.363 . S
C438 C439 1.370 . S
C438 C442 1.524 . S
C439 C431 1.503 . S
C439 C438 1.370 . S
C439 C440 1.403 . S
C440 C439 1.403 . S
C440 C441 1.404 1_556 S
C440 C443 1.539 1_556 S
C441 C437 1.408 1_554 S
C441 C440 1.404 1_554 S
C441 H453 0.930 . S
C442 C438 1.524 . S
C442 H454 0.956 . S
C442 H455 0.961 . S
C442 H456 0.961 . S
C443 C440 1.539 1_554 S
C443 H457 0.958 . S
C443 H458 0.961 . S
C443 H459 0.963 . S
H444 C428 0.931 . S
H445 C433 0.929 . S
H446 C434 0.960 1_554 S
H447 C434 0.962 . S
H448 C434 0.960 1_554 S
H449 C435 0.961 . S
H450 C435 0.961 . S
H451 C435 0.961 . S
H452 C436 0.931 . S
H453 C441 0.930 . S
H454 C442 0.956 . S
H455 C442 0.961 . S
H456 C442 0.961 . S
H457 C443 0.958 . S
H458 C443 0.961 . S
H459 C443 0.963 . S
C460 C461 1.391 . S
C460 C462 1.394 . S
C460 H476 0.931 . S
C461 C460 1.391 . S
C461 C465 1.376 . S
C462 C460 1.394 . S
C462 C463 1.369 . S
C462 C466 1.531 . S
C463 C462 1.369 . S
C463 C464 1.410 . S
C463 C471 1.503 . S
C464 C463 1.410 . S
C464 C465 1.392 . S
C464 C467 1.511 . S
C465 C461 1.376 . S
C465 C464 1.392 . S
C465 H477 0.929 . S
C466 C462 1.531 . S
C466 H478 0.960 . S
C466 H479 0.962 . S
C466 H480 0.960 . S
C467 C464 1.511 . S
C467 H481 0.961 . S
C467 H482 0.961 . S
C467 H483 0.961 . S
C468 C469 1.370 . S
C468 C470 1.363 . S
C468 H484 0.931 . S
C469 C468 1.370 . S
C469 C473 1.408 . S
C470 C468 1.363 . S
C470 C471 1.370 . S
C470 C474 1.524 . S
C471 C463 1.503 . S
C471 C470 1.370 . S
C471 C472 1.403 . S
C472 C471 1.403 . S
C472 C473 1.404 . S
C472 C475 1.539 . S
C473 C469 1.408 . S
C473 C472 1.404 . S
C473 H485 0.930 . S
C474 C470 1.524 . S
C474 H486 0.956 . S
C474 H487 0.961 . S
C474 H488 0.961 . S
C475 C472 1.539 . S
C475 H489 0.958 . S
C475 H490 0.961 . S
C475 H491 0.960 . S
H476 C460 0.931 . S
H477 C465 0.929 . S
H478 C466 0.960 . S
H479 C466 0.962 . S
H480 C466 0.960 . S
H481 C467 0.961 . S
H482 C467 0.961 . S
H483 C467 0.961 . S
H484 C468 0.931 . S
H485 C473 0.930 . S
H486 C474 0.956 . S
H487 C474 0.961 . S
H488 C474 0.961 . S
H489 C475 0.958 . S
H490 C475 0.961 . S
H491 C475 0.960 . S
C492 C493 1.391 . S
C492 C494 1.394 . S
C492 H508 0.931 . S
C493 C492 1.391 . S
C493 C497 1.376 . S
C494 C492 1.394 . S
C494 C495 1.369 . S
C494 C498 1.531 . S
C495 C494 1.369 . S
C495 C496 1.410 . S
C495 C503 1.503 . S
C496 C495 1.410 . S
C496 C497 1.392 . S
C496 C499 1.511 . S
C497 C493 1.376 . S
C497 C496 1.392 . S
C497 H509 0.929 . S
C498 C494 1.531 . S
C498 H510 0.960 . S
C498 H511 0.962 . S
C498 H512 0.960 . S
C499 C496 1.511 . S
C499 H513 0.961 . S
C499 H514 0.961 . S
C499 H515 0.961 . S
C500 C501 1.370 . S
C500 C502 1.363 . S
C500 H516 0.931 . S
C501 C500 1.370 . S
C501 C505 1.408 . S
C502 C500 1.363 . S
C502 C503 1.370 . S
C502 C506 1.524 . S
C503 C495 1.503 . S
C503 C502 1.370 . S
C503 C504 1.403 . S
C504 C503 1.403 . S
C504 C505 1.404 . S
C504 C507 1.539 . S
C505 C501 1.408 . S
C505 C504 1.404 . S
C505 H517 0.930 . S
C506 C502 1.524 . S
C506 H518 0.956 . S
C506 H519 0.961 . S
C506 H520 0.961 . S
C507 C504 1.539 . S
C507 H521 0.958 . S
C507 H522 0.961 . S
C507 H523 0.960 . S
H508 C492 0.931 . S
H509 C497 0.929 . S
H510 C498 0.960 . S
H511 C498 0.962 . S
H512 C498 0.960 . S
H513 C499 0.961 . S
H514 C499 0.961 . S
H515 C499 0.961 . S
H516 C500 0.931 . S
H517 C505 0.930 . S
H518 C506 0.956 . S
H519 C506 0.961 . S
H520 C506 0.961 . S
H521 C507 0.958 . S
H522 C507 0.961 . S
H523 C507 0.960 . S
C524 C525 1.391 . S
C524 C526 1.394 . S
C524 H540 0.931 . S
C525 C524 1.391 . S
C525 C529 1.376 . S
C526 C524 1.394 . S
C526 C527 1.369 . S
C526 C530 1.531 . S
C527 C526 1.369 . S
C527 C528 1.410 . S
C527 C535 1.503 . S
C528 C527 1.410 . S
C528 C529 1.392 . S
C528 C531 1.511 1_556 S
C529 C525 1.376 . S
C529 C528 1.392 . S
C529 H541 0.929 . S
C530 C526 1.531 . S
C530 H542 0.960 . S
C530 H543 0.962 . S
C530 H544 0.960 . S
C531 C528 1.511 1_554 S
C531 H545 0.961 . S
C531 H546 0.961 . S
C531 H547 0.961 . S
C532 C533 1.370 . S
C532 C534 1.363 . S
C532 H548 0.931 . S
C533 C532 1.370 . S
C533 C537 1.408 . S
C534 C532 1.363 . S
C534 C535 1.370 1_554 S
C534 C538 1.524 . S
C535 C527 1.503 . S
C535 C534 1.370 1_556 S
C535 C536 1.403 . S
C536 C535 1.403 . S
C536 C537 1.404 1_556 S
C536 C539 1.539 . S
C537 C533 1.408 . S
C537 C536 1.404 1_554 S
C537 H549 0.939 . S
C538 C534 1.524 . S
C538 H550 0.956 . S
C538 H551 0.961 . S
C538 H552 0.961 . S
C539 C536 1.539 . S
C539 H553 0.958 . S
C539 H554 0.961 . S
C539 H555 0.960 . S
H540 C524 0.931 . S
H541 C529 0.929 . S
H542 C530 0.960 . S
H543 C530 0.962 . S
H544 C530 0.960 . S
H545 C531 0.961 . S
H546 C531 0.961 . S
H547 C531 0.961 . S
H548 C532 0.931 . S
H549 C537 0.939 . S
H550 C538 0.956 . S
H551 C538 0.961 . S
H552 C538 0.961 . S
H553 C539 0.958 . S
H554 C539 0.961 . S
H555 C539 0.960 . S
C556 C557 1.391 . S
C556 C558 1.394 . S
C556 H572 0.931 . S
C557 C556 1.391 . S
C557 C561 1.376 . S
C558 C556 1.394 . S
C558 C559 1.369 . S
C558 C562 1.531 . S
C559 C558 1.369 . S
C559 C560 1.410 . S
C559 C567 1.503 . S
C560 C559 1.410 . S
C560 C561 1.392 . S
C560 C563 1.511 . S
C561 C557 1.376 . S
C561 C560 1.392 . S
C561 H573 0.929 . S
C562 C558 1.531 . S
C562 H574 0.960 . S
C562 H575 0.962 . S
C562 H576 0.960 . S
C563 C560 1.511 . S
C563 H577 0.961 . S
C563 H578 0.961 . S
C563 H579 0.961 . S
C564 C565 1.370 . S
C564 C566 1.363 . S
C564 H580 0.931 . S
C565 C564 1.370 . S
C565 C569 1.408 . S
C566 C564 1.363 . S
C566 C567 1.370 . S
C566 C570 1.524 . S
C567 C559 1.503 . S
C567 C566 1.370 . S
C567 C568 1.403 . S
C568 C567 1.403 . S
C568 C569 1.404 . S
C568 C571 1.539 . S
C569 C565 1.408 . S
C569 C568 1.404 . S
C569 H581 0.930 . S
C570 C566 1.524 . S
C570 H582 0.956 . S
C570 H583 0.961 . S
C570 H584 0.961 . S
C571 C568 1.539 . S
C571 H585 0.958 . S
C571 H586 0.961 1_655 S
C571 H587 0.960 . S
H572 C556 0.931 . S
H573 C561 0.929 . S
H574 C562 0.960 . S
H575 C562 0.962 . S
H576 C562 0.960 . S
H577 C563 0.961 . S
H578 C563 0.961 . S
H579 C563 0.961 . S
H580 C564 0.931 . S
H581 C569 0.930 . S
H582 C570 0.956 . S
H583 C570 0.961 . S
H584 C570 0.961 . S
H585 C571 0.958 . S
H586 C571 0.961 1_455 S
H587 C571 0.960 . S
C588 C589 1.391 . S
C588 C590 1.394 . S
C588 H604 0.931 . S
C589 C588 1.391 . S
C589 C593 1.376 . S
C590 C588 1.394 . S
C590 C591 1.369 . S
C590 C594 1.531 . S
C591 C590 1.369 . S
C591 C592 1.410 . S
C591 C599 1.503 . S
C592 C591 1.410 . S
C592 C593 1.392 . S
C592 C595 1.511 . S
C593 C589 1.376 . S
C593 C592 1.392 . S
C593 H605 0.929 . S
C594 C590 1.531 . S
C594 H606 0.960 . S
C594 H607 0.962 . S
C594 H608 0.960 . S
C595 C592 1.511 . S
C595 H609 0.961 . S
C595 H610 0.961 . S
C595 H611 0.961 . S
C596 C597 1.370 . S
C596 C598 1.363 . S
C596 H612 0.931 . S
C597 C596 1.370 . S
C597 C601 1.408 . S
C598 C596 1.363 . S
C598 C599 1.370 . S
C598 C602 1.524 . S
C599 C591 1.503 . S
C599 C598 1.370 . S
C599 C600 1.403 . S
C600 C599 1.403 . S
C600 C601 1.404 . S
C600 C603 1.539 . S
C601 C597 1.408 . S
C601 C600 1.404 . S
C601 H613 0.930 . S
C602 C598 1.524 . S
C602 H614 0.956 . S
C602 H615 0.961 . S
C602 H616 0.961 . S
C603 C600 1.539 . S
C603 H617 0.958 . S
C603 H618 0.961 . S
C603 H619 0.960 . S
H604 C588 0.931 . S
H605 C593 0.929 . S
H606 C594 0.960 . S
H607 C594 0.962 . S
H608 C594 0.960 . S
H609 C595 0.961 . S
H610 C595 0.961 . S
H611 C595 0.961 . S
H612 C596 0.931 . S
H613 C601 0.930 . S
H614 C602 0.956 . S
H615 C602 0.961 . S
H616 C602 0.961 . S
H617 C603 0.958 . S
H618 C603 0.961 . S
H619 C603 0.960 . S
C620 C621 1.391 1_455 S
C620 C622 1.394 . S
C620 H636 0.931 . S
C621 C620 1.391 1_655 S
C621 C625 1.376 1_545 S
C622 C620 1.394 . S
C622 C623 1.369 1_455 S
C622 C626 1.531 . S
C623 C622 1.369 1_655 S
C623 C624 1.410 1_545 S
C623 C631 1.503 . S
C624 C623 1.410 1_565 S
C624 C625 1.392 . S
C624 C627 1.511 . S
C625 C621 1.376 1_565 S
C625 C624 1.392 . S
C625 H637 0.929 . S
C626 C622 1.531 . S
C626 H638 0.960 . S
C626 H639 0.962 . S
C626 H640 0.960 . S
C627 C624 1.511 . S
C627 H641 0.961 . S
C627 H642 0.961 . S
C627 H643 0.961 . S
C628 C629 1.370 . S
C628 C630 1.363 . S
C628 H644 0.931 . S
C629 C628 1.370 . S
C629 C633 1.408 1_545 S
C630 C628 1.363 . S
C630 C631 1.370 . S
C630 C634 1.524 . S
C631 C623 1.503 . S
C631 C630 1.370 . S
C631 C632 1.403 1_545 S
C632 C631 1.403 1_565 S
C632 C633 1.404 . S
C632 C635 1.539 1_655 S
C633 C629 1.408 1_565 S
C633 C632 1.404 . S
C633 H645 0.930 1_655 S
C634 C630 1.524 . S
C634 H646 0.956 . S
C634 H647 0.961 . S
C634 H648 0.961 . S
C635 C632 1.539 1_455 S
C635 H649 0.958 . S
C635 H650 0.959 1_455 S
C635 H651 0.960 1_455 S
H636 C620 0.931 . S
H637 C625 0.929 . S
H638 C626 0.960 . S
H639 C626 0.962 . S
H640 C626 0.960 . S
H641 C627 0.961 . S
H642 C627 0.961 . S
H643 C627 0.961 . S
H644 C628 0.931 . S
H645 C633 0.930 1_455 S
H646 C634 0.956 . S
H647 C634 0.961 . S
H648 C634 0.961 . S
H649 C635 0.958 . S
H650 C635 0.959 1_655 S
H651 C635 0.960 1_655 S
C652 C653 1.391 . S
C652 C654 1.394 . S
C652 H668 0.931 . S
C653 C652 1.391 . S
C653 C657 1.376 . S
C654 C652 1.394 . S
C654 C655 1.369 . S
C654 C658 1.531 . S
C655 C654 1.369 . S
C655 C656 1.410 . S
C655 C663 1.503 . S
C656 C655 1.410 . S
C656 C657 1.392 . S
C656 C659 1.511 . S
C657 C653 1.376 . S
C657 C656 1.392 . S
C657 H669 0.929 . S
C658 C654 1.531 . S
C658 H670 0.960 . S
C658 H671 0.962 . S
C658 H672 0.960 . S
C659 C656 1.511 . S
C659 H673 0.962 . S
C659 H674 0.961 . S
C659 H675 0.961 1_545 S
C660 C661 1.370 . S
C660 C662 1.363 . S
C660 H676 0.931 . S
C661 C660 1.370 . S
C661 C665 1.408 . S
C662 C660 1.363 . S
C662 C663 1.370 . S
C662 C666 1.524 . S
C663 C655 1.503 . S
C663 C662 1.370 . S
C663 C664 1.403 . S
C664 C663 1.403 . S
C664 C665 1.404 . S
C664 C667 1.539 . S
C665 C661 1.408 . S
C665 C664 1.404 . S
C665 H677 0.930 . S
C666 C662 1.524 . S
C666 H678 0.956 . S
C666 H679 0.961 . S
C666 H680 0.961 . S
C667 C664 1.539 . S
C667 H681 0.958 . S
C667 H682 0.961 1_545 S
C667 H683 0.960 . S
H668 C652 0.931 . S
H669 C657 0.929 . S
H670 C658 0.960 . S
H671 C658 0.962 . S
H672 C658 0.960 . S
H673 C659 0.962 . S
H674 C659 0.961 . S
H675 C659 0.961 1_565 S
H676 C660 0.931 . S
H677 C665 0.930 . S
H678 C666 0.956 . S
H679 C666 0.961 . S
H680 C666 0.961 . S
H681 C667 0.958 . S
H682 C667 0.961 1_565 S
H683 C667 0.960 . S
C684 C685 1.391 . S
C684 C686 1.394 . S
C684 H700 0.931 . S
C685 C684 1.391 . S
C685 C689 1.376 . S
C686 C684 1.394 . S
C686 C687 1.369 . S
C686 C690 1.531 . S
C687 C686 1.369 . S
C687 C688 1.410 . S
C687 C695 1.503 . S
C688 C687 1.410 . S
C688 C689 1.392 . S
C688 C691 1.511 . S
C689 C685 1.376 . S
C689 C688 1.392 . S
C689 H701 0.929 . S
C690 C686 1.531 . S
C690 H702 0.960 . S
C690 H703 0.962 . S
C690 H704 0.960 . S
C691 C688 1.511 . S
C691 H705 0.961 . S
C691 H706 0.961 . S
C691 H707 0.961 . S
C692 C693 1.370 . S
C692 C694 1.363 . S
C692 H708 0.931 . S
C693 C692 1.370 . S
C693 C697 1.408 . S
C694 C692 1.363 . S
C694 C695 1.370 . S
C694 C698 1.524 . S
C695 C687 1.503 . S
C695 C694 1.370 . S
C695 C696 1.403 . S
C696 C695 1.403 . S
C696 C697 1.404 . S
C696 C699 1.539 . S
C697 C693 1.408 . S
C697 C696 1.404 . S
C697 H709 0.930 . S
C698 C694 1.524 . S
C698 H710 0.956 . S
C698 H711 0.961 . S
C698 H712 0.961 . S
C699 C696 1.539 . S
C699 H713 0.958 . S
C699 H714 0.961 . S
C699 H715 0.960 . S
H700 C684 0.931 . S
H701 C689 0.929 . S
H702 C690 0.960 . S
H703 C690 0.962 . S
H704 C690 0.960 . S
H705 C691 0.961 . S
H706 C691 0.961 . S
H707 C691 0.961 . S
H708 C692 0.931 . S
H709 C697 0.930 . S
H710 C698 0.956 . S
H711 C698 0.961 . S
H712 C698 0.961 . S
H713 C699 0.958 . S
H714 C699 0.961 . S
H715 C699 0.960 . S
C716 C717 1.391 . S
C716 C718 1.394 . S
C716 H732 0.931 . S
C717 C716 1.391 . S
C717 C721 1.376 . S
C718 C716 1.394 . S
C718 C719 1.369 . S
C718 C722 1.531 . S
C719 C718 1.369 . S
C719 C720 1.410 . S
C719 C727 1.503 . S
C720 C719 1.410 . S
C720 C721 1.392 . S
C720 C723 1.511 1_455 S
C721 C717 1.376 . S
C721 C720 1.392 . S
C721 H733 0.929 . S
C722 C718 1.531 . S
C722 H734 0.960 . S
C722 H735 0.962 . S
C722 H736 0.960 . S
C723 C720 1.511 1_655 S
C723 H737 0.961 . S
C723 H738 0.957 1_655 S
C723 H739 0.961 . S
C724 C725 1.370 . S
C724 C726 1.363 . S
C724 H740 0.931 . S
C725 C724 1.370 . S
C725 C729 1.408 . S
C726 C724 1.363 . S
C726 C727 1.370 . S
C726 C730 1.524 . S
C727 C719 1.503 . S
C727 C726 1.370 . S
C727 C728 1.403 . S
C728 C727 1.403 . S
C728 C729 1.404 . S
C728 C731 1.539 . S
C729 C725 1.408 . S
C729 C728 1.404 . S
C729 H741 0.930 . S
C730 C726 1.524 . S
C730 H742 0.956 . S
C730 H743 0.961 . S
C730 H744 0.961 . S
C731 C728 1.539 . S
C731 H745 0.958 . S
C731 H746 0.954 1_455 S
C731 H747 0.960 . S
H732 C716 0.931 . S
H733 C721 0.929 . S
H734 C722 0.960 . S
H735 C722 0.962 . S
H736 C722 0.960 . S
H737 C723 0.961 . S
H738 C723 0.957 1_455 S
H739 C723 0.961 . S
H740 C724 0.931 . S
H741 C729 0.930 . S
H742 C730 0.956 . S
H743 C730 0.961 . S
H744 C730 0.961 . S
H745 C731 0.958 . S
H746 C731 0.954 1_655 S
H747 C731 0.960 . S
C748 C749 1.391 . S
C748 C750 1.394 . S
C748 H764 0.931 . S
C749 C748 1.391 . S
C749 C753 1.376 . S
C750 C748 1.394 . S
C750 C751 1.369 . S
C750 C754 1.531 . S
C751 C750 1.369 . S
C751 C752 1.410 . S
C751 C759 1.503 . S
C752 C751 1.410 . S
C752 C753 1.392 . S
C752 C755 1.511 1_554 S
C753 C749 1.376 . S
C753 C752 1.392 . S
C753 H765 0.929 1_554 S
C754 C750 1.531 . S
C754 H766 0.960 . S
C754 H767 0.962 . S
C754 H768 0.960 . S
C755 C752 1.511 1_556 S
C755 H769 0.961 . S
C755 H770 0.961 . S
C755 H771 0.961 . S
C756 C757 1.370 1_565 S
C756 C758 1.363 . S
C756 H772 0.931 . S
C757 C756 1.370 1_545 S
C757 C761 1.408 . S
C758 C756 1.363 . S
C758 C759 1.370 1_565 S
C758 C762 1.524 . S
C759 C751 1.503 . S
C759 C758 1.370 1_545 S
C759 C760 1.403 . S
C760 C759 1.403 . S
C760 C761 1.404 . S
C760 C763 1.539 . S
C761 C757 1.408 . S
C761 C760 1.404 . S
C761 H773 0.930 . S
C762 C758 1.524 . S
C762 H774 0.956 . S
C762 H775 0.961 . S
C762 H776 0.961 . S
C763 C760 1.539 . S
C763 H777 0.958 . S
C763 H778 0.961 . S
C763 H779 0.960 . S
H764 C748 0.931 . S
H765 C753 0.929 1_556 S
H766 C754 0.960 . S
H767 C754 0.962 . S
H768 C754 0.960 . S
H769 C755 0.961 . S
H770 C755 0.961 . S
H771 C755 0.961 . S
H772 C756 0.931 . S
H773 C761 0.930 . S
H774 C762 0.956 . S
H775 C762 0.961 . S
H776 C762 0.961 . S
H777 C763 0.958 . S
H778 C763 0.961 . S
H779 C763 0.960 . S
C780 C781 1.391 . S
C780 C782 1.394 . S
C780 H796 0.931 . S
C781 C780 1.391 . S
C781 C785 1.376 . S
C782 C780 1.394 . S
C782 C783 1.369 . S
C782 C786 1.531 . S
C783 C782 1.369 . S
C783 C784 1.410 . S
C783 C791 1.503 . S
C784 C783 1.410 . S
C784 C785 1.392 . S
C784 C787 1.511 . S
C785 C781 1.376 . S
C785 C784 1.392 . S
C785 H797 0.929 . S
C786 C782 1.531 . S
C786 H798 0.960 . S
C786 H799 0.962 . S
C786 H800 0.960 1_545 S
C787 C784 1.511 . S
C787 H801 0.961 . S
C787 H802 0.961 . S
C787 H803 0.961 . S
C788 C789 1.370 . S
C788 C790 1.363 . S
C788 H804 0.931 . S
C789 C788 1.370 . S
C789 C793 1.408 . S
C790 C788 1.363 . S
C790 C791 1.370 . S
C790 C794 1.524 . S
C791 C783 1.503 . S
C791 C790 1.370 . S
C791 C792 1.403 . S
C792 C791 1.403 . S
C792 C793 1.404 . S
C792 C795 1.539 . S
C793 C789 1.408 . S
C793 C792 1.404 . S
C793 H805 0.930 . S
C794 C790 1.524 . S
C794 H806 0.956 . S
C794 H807 0.961 . S
C794 H808 0.961 . S
C795 C792 1.539 . S
C795 H809 0.958 . S
C795 H810 0.961 . S
C795 H811 0.960 . S
H796 C780 0.931 . S
H797 C785 0.929 . S
H798 C786 0.960 . S
H799 C786 0.962 . S
H800 C786 0.960 1_565 S
H801 C787 0.961 . S
H802 C787 0.961 . S
H803 C787 0.961 . S
H804 C788 0.931 . S
H805 C793 0.930 . S
H806 C794 0.956 . S
H807 C794 0.961 . S
H808 C794 0.961 . S
H809 C795 0.958 . S
H810 C795 0.961 . S
H811 C795 0.960 . S
C812 C813 1.391 . S
C812 C814 1.394 . S
C812 H828 0.931 . S
C813 C812 1.391 . S
C813 C817 1.376 . S
C814 C812 1.394 . S
C814 C815 1.369 . S
C814 C818 1.531 . S
C815 C814 1.369 . S
C815 C816 1.410 . S
C815 C823 1.503 . S
C816 C815 1.410 . S
C816 C817 1.392 . S
C816 C819 1.511 . S
C817 C813 1.376 . S
C817 C816 1.392 . S
C817 H829 0.929 . S
C818 C814 1.531 . S
C818 H830 0.960 . S
C818 H831 0.962 . S
C818 H832 0.960 . S
C819 C816 1.511 . S
C819 H833 0.961 . S
C819 H834 0.961 . S
C819 H835 0.961 . S
C820 C821 1.370 . S
C820 C822 1.363 . S
C820 H836 0.931 . S
C821 C820 1.370 . S
C821 C825 1.408 . S
C822 C820 1.363 . S
C822 C823 1.370 . S
C822 C826 1.524 . S
C823 C815 1.503 . S
C823 C822 1.370 . S
C823 C824 1.403 . S
C824 C823 1.403 . S
C824 C825 1.404 . S
C824 C827 1.539 . S
C825 C821 1.408 . S
C825 C824 1.404 . S
C825 H837 0.930 . S
C826 C822 1.524 . S
C826 H838 0.956 . S
C826 H839 0.961 . S
C826 H840 0.961 . S
C827 C824 1.539 . S
C827 H841 0.958 . S
C827 H842 0.961 . S
C827 H843 0.960 . S
H828 C812 0.931 . S
H829 C817 0.929 . S
H830 C818 0.960 . S
H831 C818 0.962 . S
H832 C818 0.960 . S
H833 C819 0.961 . S
H834 C819 0.961 . S
H835 C819 0.961 . S
H836 C820 0.931 . S
H837 C825 0.930 . S
H838 C826 0.956 . S
H839 C826 0.961 . S
H840 C826 0.961 . S
H841 C827 0.958 . S
H842 C827 0.961 . S
H843 C827 0.960 . S
C844 C845 1.391 . S
C844 C846 1.394 . S
C844 H860 0.931 . S
C845 C844 1.391 . S
C845 C849 1.376 . S
C846 C844 1.394 . S
C846 C847 1.369 . S
C846 C850 1.531 . S
C847 C846 1.369 . S
C847 C848 1.410 . S
C847 C855 1.503 . S
C848 C847 1.410 . S
C848 C849 1.392 . S
C848 C851 1.511 . S
C849 C845 1.376 . S
C849 C848 1.392 . S
C849 H861 0.929 . S
C850 C846 1.531 . S
C850 H862 0.960 . S
C850 H863 0.962 . S
C850 H864 0.960 . S
C851 C848 1.511 . S
C851 H865 0.961 . S
C851 H866 0.961 . S
C851 H867 0.961 . S
C852 C853 1.370 . S
C852 C854 1.363 . S
C852 H868 0.931 . S
C853 C852 1.370 . S
C853 C857 1.408 . S
C854 C852 1.363 . S
C854 C855 1.370 . S
C854 C858 1.524 . S
C855 C847 1.503 . S
C855 C854 1.370 . S
C855 C856 1.403 . S
C856 C855 1.403 . S
C856 C857 1.404 . S
C856 C859 1.539 . S
C857 C853 1.408 . S
C857 C856 1.404 . S
C857 H869 0.930 . S
C858 C854 1.524 . S
C858 H870 0.956 . S
C858 H871 0.961 . S
C858 H872 0.961 . S
C859 C856 1.539 . S
C859 H873 0.958 . S
C859 H874 0.961 . S
C859 H875 0.960 . S
H860 C844 0.931 . S
H861 C849 0.929 . S
H862 C850 0.960 . S
H863 C850 0.962 . S
H864 C850 0.960 . S
H865 C851 0.961 . S
H866 C851 0.961 . S
H867 C851 0.961 . S
H868 C852 0.931 . S
H869 C857 0.930 . S
H870 C858 0.956 . S
H871 C858 0.961 . S
H872 C858 0.961 . S
H873 C859 0.958 . S
H874 C859 0.961 . S
H875 C859 0.960 . S
C876 C877 1.391 1_455 S
C876 C878 1.394 1_556 S
C876 H892 0.931 1_556 S
C877 C876 1.391 1_655 S
C877 C881 1.376 . S
C878 C876 1.394 1_554 S
C878 C879 1.369 1_454 S
C878 C882 1.531 . S
C879 C878 1.369 1_656 S
C879 C880 1.410 . S
C879 C887 1.503 1_655 S
C880 C879 1.410 . S
C880 C881 1.392 . S
C880 C883 1.511 . S
C881 C877 1.376 . S
C881 C880 1.392 . S
C881 H893 0.929 . S
C882 C878 1.531 . S
C882 H894 0.960 . S
C882 H895 0.962 . S
C882 H896 0.960 . S
C883 C880 1.511 . S
C883 H897 0.961 . S
C883 H898 0.961 . S
C883 H899 0.961 . S
C884 C885 1.370 1_556 S
C884 C886 1.363 . S
C884 H900 0.931 . S
C885 C884 1.370 1_554 S
C885 C889 1.412 . S
C886 C884 1.363 . S
C886 C887 1.370 . S
C886 C890 1.524 . S
C887 C879 1.503 1_455 S
C887 C886 1.370 . S
C887 C888 1.403 1_456 S
C888 C887 1.403 1_654 S
C888 C889 1.402 1_655 S
C888 C891 1.539 . S
C889 C885 1.412 . S
C889 C888 1.402 1_455 S
C889 H901 0.928 1_455 S
C890 C886 1.524 . S
C890 H902 0.956 . S
C890 H903 0.961 . S
C890 H904 0.961 . S
C891 C888 1.539 . S
C891 H905 0.958 . S
C891 H906 0.961 . S
C891 H907 0.960 . S
H892 C876 0.931 1_554 S
H893 C881 0.929 . S
H894 C882 0.960 . S
H895 C882 0.962 . S
H896 C882 0.960 . S
H897 C883 0.961 . S
H898 C883 0.961 . S
H899 C883 0.961 . S
H900 C884 0.931 . S
H901 C889 0.928 1_655 S
H902 C890 0.956 . S
H903 C890 0.961 . S
H904 C890 0.961 . S
H905 C891 0.958 . S
H906 C891 0.961 . S
H907 C891 0.960 . S
C908 C909 1.391 . S
C908 C910 1.394 . S
C908 H924 0.931 . S
C909 C908 1.391 . S
C909 C913 1.376 . S
C910 C908 1.394 . S
C910 C911 1.369 . S
C910 C914 1.531 . S
C911 C910 1.369 . S
C911 C912 1.410 . S
C911 C919 1.503 . S
C912 C911 1.410 . S
C912 C913 1.392 . S
C912 C915 1.511 . S
C913 C909 1.376 . S
C913 C912 1.392 . S
C913 H925 0.929 . S
C914 C910 1.531 . S
C914 H926 0.960 . S
C914 H927 0.962 . S
C914 H928 0.960 . S
C915 C912 1.511 . S
C915 H929 0.961 . S
C915 H930 0.961 . S
C915 H931 0.961 . S
C916 C917 1.370 . S
C916 C918 1.363 . S
C916 H932 0.931 . S
C917 C916 1.370 . S
C917 C921 1.408 . S
C918 C916 1.363 . S
C918 C919 1.370 . S
C918 C922 1.524 . S
C919 C911 1.503 . S
C919 C918 1.370 . S
C919 C920 1.403 . S
C920 C919 1.403 . S
C920 C921 1.404 . S
C920 C923 1.539 . S
C921 C917 1.408 . S
C921 C920 1.404 . S
C921 H933 0.930 . S
C922 C918 1.524 . S
C922 H934 0.956 . S
C922 H935 0.961 . S
C922 H936 0.961 . S
C923 C920 1.539 . S
C923 H937 0.958 . S
C923 H938 0.961 . S
C923 H939 0.960 . S
H924 C908 0.931 . S
H925 C913 0.929 . S
H926 C914 0.960 . S
H927 C914 0.962 . S
H928 C914 0.960 . S
H929 C915 0.961 . S
H930 C915 0.961 . S
H931 C915 0.961 . S
H932 C916 0.931 . S
H933 C921 0.930 . S
H934 C922 0.956 . S
H935 C922 0.961 . S
H936 C922 0.961 . S
H937 C923 0.958 . S
H938 C923 0.961 . S
H939 C923 0.960 . S
C940 C941 1.391 . S
C940 C942 1.394 . S
C940 H956 0.931 . S
C941 C940 1.391 . S
C941 C945 1.376 . S
C942 C940 1.394 . S
C942 C943 1.369 . S
C942 C946 1.531 . S
C943 C942 1.369 . S
C943 C944 1.410 . S
C943 C951 1.503 . S
C944 C943 1.410 . S
C944 C945 1.392 . S
C944 C947 1.511 1_455 S
C945 C941 1.376 . S
C945 C944 1.392 . S
C945 H957 0.929 . S
C946 C942 1.531 . S
C946 H958 0.960 . S
C946 H959 0.962 . S
C946 H960 0.960 . S
C947 C944 1.511 1_655 S
C947 H961 0.961 . S
C947 H962 0.961 . S
C947 H963 0.961 . S
C948 C949 1.370 . S
C948 C950 1.363 . S
C948 H964 0.931 . S
C949 C948 1.370 . S
C949 C953 1.408 . S
C950 C948 1.363 . S
C950 C951 1.370 . S
C950 C954 1.524 . S
C951 C943 1.503 . S
C951 C950 1.370 . S
C951 C952 1.403 . S
C952 C951 1.403 . S
C952 C953 1.404 . S
C952 C955 1.539 . S
C953 C949 1.408 . S
C953 C952 1.404 . S
C953 H965 0.930 . S
C954 C950 1.524 . S
C954 H966 0.956 . S
C954 H967 0.961 . S
C954 H968 0.961 . S
C955 C952 1.539 . S
C955 H969 0.958 . S
C955 H970 0.961 . S
C955 H971 0.960 . S
H956 C940 0.931 . S
H957 C945 0.929 . S
H958 C946 0.960 . S
H959 C946 0.962 . S
H960 C946 0.960 . S
H961 C947 0.961 . S
H962 C947 0.961 . S
H963 C947 0.961 . S
H964 C948 0.931 . S
H965 C953 0.930 . S
H966 C954 0.956 . S
H967 C954 0.961 . S
H968 C954 0.961 . S
H969 C955 0.958 . S
H970 C955 0.961 . S
H971 C955 0.960 . S
C972 C973 1.391 . S
C972 C974 1.394 . S
C972 H988 0.931 . S
C973 C972 1.391 . S
C973 C977 1.376 . S
C974 C972 1.394 . S
C974 C975 1.369 . S
C974 C978 1.531 . S
C975 C974 1.369 . S
C975 C976 1.410 . S
C975 C983 1.503 . S
C976 C975 1.410 . S
C976 C977 1.392 . S
C976 C979 1.511 . S
C977 C973 1.376 . S
C977 C976 1.392 . S
C977 H989 0.929 . S
C978 C974 1.531 . S
C978 H990 0.960 . S
C978 H991 0.962 . S
C978 H992 0.960 . S
C979 C976 1.511 . S
C979 H993 0.961 . S
C979 H994 0.961 . S
C979 H995 0.961 . S
C980 C981 1.370 . S
C980 C982 1.363 . S
C980 H996 0.931 . S
C981 C980 1.370 . S
C981 C985 1.408 . S
C982 C980 1.363 . S
C982 C983 1.370 . S
C982 C986 1.524 . S
C983 C975 1.503 . S
C983 C982 1.370 . S
C983 C984 1.403 . S
C984 C983 1.403 . S
C984 C985 1.404 . S
C984 C987 1.539 . S
C985 C981 1.408 . S
C985 C984 1.404 . S
C985 H997 0.930 . S
C986 C982 1.524 . S
C986 H998 0.956 . S
C986 H999 0.961 . S
C986 H1000 0.961 . S
C987 C984 1.539 . S
C987 H1001 0.958 . S
C987 H1002 0.961 . S
C987 H1003 0.960 . S
H988 C972 0.931 . S
H989 C977 0.929 . S
H990 C978 0.960 . S
H991 C978 0.962 . S
H992 C978 0.960 . S
H993 C979 0.961 . S
H994 C979 0.961 . S
H995 C979 0.961 . S
H996 C980 0.931 . S
H997 C985 0.930 . S
H998 C986 0.956 . S
H999 C986 0.961 . S
H1000 C986 0.961 . S
H1001 C987 0.958 . S
H1002 C987 0.961 . S
H1003 C987 0.960 . S
C237 C6 1.811 . S
C245 C155 1.692 . S
C269 C21 2.042 . S
C277 C189 1.903 1_566 S
C309 C201 0.881 . S
C301 C49 0.883 . S
C333 C68 1.231 . S
C341 C235 1.176 . S
C373 C192 2.072 . S
C365 C2 2.255 . S
C405 C172 1.249 . S
C397 C30 1.182 . S
C437 C219 1.195 1_556 S
C429 C40 1.351 . S
C469 C210 1.313 . S
C461 C63 1.369 . S
C493 C11 1.475 . S
C501 C218 1.513 . S
C533 C180 1.566 . S
C525 C44 1.678 . S
C557 C59 1.159 . S
C565 C156 1.058 . S
C589 C25 1.803 . S
C597 C213 1.697 . S
C629 C171 1.992 . S
C621 C82 2.072 1_545 S
C653 C101 1.840 . S
C661 C193 1.682 . S
C685 C125 1.459 . S
C693 C198 1.376 . S
C717 C144 1.127 . S
C725 C231 1.161 . S
C749 C87 1.258 . S
C757 C176 1.403 . S
C789 C168 2.084 . S
C781 C97 2.204 . S
C821 C222 1.402 . S
C813 C120 1.443 . S
C853 C214 1.314 . S
C845 C135 1.450 . S
C877 C78 1.916 . S
C885 C234 1.840 . S
C917 C177 1.226 . S
C909 C116 1.255 . S
C949 C159 1.614 . S
C941 C139 1.717 . S
C973 C106 1.554 . S
C981 C197 1.527 . S
