# Generated by pormake.
# Topology pyr, (3,6)-cn, num edge types: 1
# Building blocks:
#     Node 0, Type 0, BuildingBlock: BELTOD_clean_linker_0, # of connection points: 3
#     Node 1, Type 0, BuildingBlock: BELTOD_clean_linker_0, # of connection points: 3
#     Node 2, Type 0, BuildingBlock: BELTOD_clean_linker_0, # of connection points: 3
#     Node 3, Type 0, BuildingBlock: BELTOD_clean_linker_0, # of connection points: 3
#     Node 4, Type 0, BuildingBlock: BELTOD_clean_linker_0, # of connection points: 3
#     Node 5, Type 0, BuildingBlock: BELTOD_clean_linker_0, # of connection points: 3
#     Node 6, Type 0, BuildingBlock: BELTOD_clean_linker_0, # of connection points: 3
#     Node 7, Type 0, BuildingBlock: BELTOD_clean_linker_0, # of connection points: 3
#     Node 8, Type 1, BuildingBlock: JUFBIX_clean_sbu_0, # of connection points: 6
#     Node 9, Type 1, BuildingBlock: JUFBIX_clean_sbu_0, # of connection points: 6
#     Node 10, Type 1, BuildingBlock: JUFBIX_clean_sbu_0, # of connection points: 6
#     Node 11, Type 1, BuildingBlock: JUFBIX_clean_sbu_0, # of connection points: 6
#     Edge 12, Type (0, 1), BuildingBlock: EZIPEK_clean_linker_0, # of connection points: 2
#     Edge 13, Type (0, 1), BuildingBlock: EZIPEK_clean_linker_0, # of connection points: 2
#     Edge 14, Type (0, 1), BuildingBlock: EZIPEK_clean_linker_0, # of connection points: 2
#     Edge 15, Type (0, 1), BuildingBlock: EZIPEK_clean_linker_0, # of connection points: 2
#     Edge 16, Type (0, 1), BuildingBlock: EZIPEK_clean_linker_0, # of connection points: 2
#     Edge 17, Type (0, 1), BuildingBlock: EZIPEK_clean_linker_0, # of connection points: 2
#     Edge 18, Type (0, 1), BuildingBlock: EZIPEK_clean_linker_0, # of connection points: 2
#     Edge 19, Type (0, 1), BuildingBlock: EZIPEK_clean_linker_0, # of connection points: 2
#     Edge 20, Type (0, 1), BuildingBlock: EZIPEK_clean_linker_0, # of connection points: 2
#     Edge 21, Type (0, 1), BuildingBlock: EZIPEK_clean_linker_0, # of connection points: 2
#     Edge 22, Type (0, 1), BuildingBlock: EZIPEK_clean_linker_0, # of connection points: 2
#     Edge 23, Type (0, 1), BuildingBlock: EZIPEK_clean_linker_0, # of connection points: 2
#     Edge 24, Type (0, 1), BuildingBlock: EZIPEK_clean_linker_0, # of connection points: 2
#     Edge 25, Type (0, 1), BuildingBlock: EZIPEK_clean_linker_0, # of connection points: 2
#     Edge 26, Type (0, 1), BuildingBlock: EZIPEK_clean_linker_0, # of connection points: 2
#     Edge 27, Type (0, 1), BuildingBlock: EZIPEK_clean_linker_0, # of connection points: 2
#     Edge 28, Type (0, 1), BuildingBlock: EZIPEK_clean_linker_0, # of connection points: 2
#     Edge 29, Type (0, 1), BuildingBlock: EZIPEK_clean_linker_0, # of connection points: 2
#     Edge 30, Type (0, 1), BuildingBlock: EZIPEK_clean_linker_0, # of connection points: 2
#     Edge 31, Type (0, 1), BuildingBlock: EZIPEK_clean_linker_0, # of connection points: 2
#     Edge 32, Type (0, 1), BuildingBlock: EZIPEK_clean_linker_0, # of connection points: 2
#     Edge 33, Type (0, 1), BuildingBlock: EZIPEK_clean_linker_0, # of connection points: 2
#     Edge 34, Type (0, 1), BuildingBlock: EZIPEK_clean_linker_0, # of connection points: 2
#     Edge 35, Type (0, 1), BuildingBlock: EZIPEK_clean_linker_0, # of connection points: 2
# Relax obj value: 0.077
# Max RMSD: 0.102
# Mean RMSD: 0.044
data_MOF--net-pyr--node1-JUFBIX_clean_sbu_0--node2-BELTOD_clean_linker_0--edge1-EZIPEK_clean_linker_0
_symmetry_space_group_name_H-M    P1
_symmetry_Int_Tables_number       1
_symmetry_cell_setting            triclinic
loop_
_symmetry_equiv_pos_as_xyz
'x, y, z'
_cell_length_a     32.788982
_cell_length_b     31.148877
_cell_length_c     32.530206
_cell_angle_alpha  83.104039
_cell_angle_beta   90.055739
_cell_angle_gamma 91.399191
loop_
_atom_site_label
_atom_site_type_symbol
_atom_site_fract_x
_atom_site_fract_y
_atom_site_fract_z
_atom_type_partial_charge
P0 P 0.20682 0.18026 0.21846 0.0
H1 H 0.29557 0.175 0.22856 0.0
H2 H 0.34945 0.14423 0.1902 0.0
H3 H 0.25932 0.09487 0.11035 0.0
H4 H 0.20475 0.12558 0.14933 0.0
H5 H 0.13558 0.23017 0.23452 0.0
H6 H 0.09804 0.28662 0.19239 0.0
H7 H 0.17079 0.26772 0.08614 0.0
H8 H 0.20875 0.21153 0.12829 0.0
H9 H 0.23016 0.13468 0.29838 0.0
H10 H 0.12086 0.14634 0.22453 0.0
O11 O 0.23179 0.21471 0.24563 0.0
H12 H 0.1908 0.09665 0.35646 0.0
H13 H 0.08135 0.1088 0.28301 0.0
C14 C 0.24583 0.15332 0.19158 0.0
C15 C 0.28701 0.15748 0.20296 0.0
C16 C 0.318 0.1399 0.18099 0.0
C17 C 0.3087 0.11753 0.14705 0.0
C18 C 0.26738 0.1122 0.13625 0.0
C19 C 0.23621 0.12964 0.15855 0.0
C20 C 0.17417 0.21513 0.18448 0.0
C21 C 0.14274 0.23706 0.20187 0.0
C22 C 0.12145 0.2696 0.1779 0.0
C23 C 0.13143 0.28136 0.13603 0.0
C24 C 0.16233 0.25897 0.11828 0.0
C25 C 0.18378 0.22649 0.14239 0.0
C26 C 0.17856 0.14397 0.25708 0.0
C27 C 0.19785 0.12845 0.29433 0.0
C28 C 0.17535 0.10687 0.32762 0.0
C29 C 0.13296 0.1002 0.3244 0.0
C30 C 0.11394 0.11371 0.28638 0.0
C31 C 0.13657 0.13517 0.25294 0.0
P32 P 0.45126 0.90313 0.60241 0.0
H33 H 0.42432 0.86437 0.6841 0.0
H34 H 0.43171 0.88787 0.75266 0.0
H35 H 0.51319 0.99176 0.7025 0.0
H36 H 0.50569 0.96827 0.63328 0.0
H37 H 0.51266 0.8454 0.57664 0.0
H38 H 0.51275 0.76686 0.57439 0.0
H39 H 0.3905 0.75553 0.62385 0.0
H40 H 0.39022 0.83399 0.62605 0.0
H41 H 0.40539 0.97143 0.63518 0.0
H42 H 0.38697 0.88185 0.54485 0.0
O43 O 0.48411 0.92776 0.56761 0.0
H44 H 0.33395 0.99143 0.62869 0.0
H45 H 0.31503 0.90217 0.53853 0.0
C46 C 0.46506 0.91406 0.65368 0.0
C47 C 0.4448 0.89134 0.68782 0.0
C48 C 0.44875 0.90491 0.72693 0.0
C49 C 0.47281 0.94156 0.73237 0.0
C50 C 0.49455 0.96333 0.69867 0.0
C51 C 0.49047 0.94976 0.65938 0.0
C52 C 0.45115 0.8456 0.60062 0.0
C53 C 0.4858 0.82612 0.58679 0.0
C54 C 0.48593 0.78143 0.58567 0.0
C55 C 0.45152 0.75575 0.59869 0.0
C56 C 0.41717 0.77503 0.61348 0.0
C57 C 0.41705 0.81972 0.61453 0.0
C58 C 0.40111 0.92384 0.59166 0.0
C59 C 0.38622 0.95624 0.61373 0.0
C60 C 0.34551 0.96791 0.60993 0.0
C61 C 0.3194 0.94773 0.58365 0.0
C62 C 0.3349 0.91772 0.5592 0.0
C63 C 0.37577 0.90611 0.56293 0.0
P64 P 0.71441 0.339 0.84116 0.0
H65 H 0.7952 0.37623 0.82028 0.0
H66 H 0.84963 0.40617 0.86079 0.0
H67 H 0.77384 0.38534 0.96988 0.0
H68 H 0.71888 0.35592 0.92919 0.0
H69 H 0.71162 0.24438 0.85126 0.0
H70 H 0.66778 0.19012 0.89099 0.0
H71 H 0.60271 0.29095 0.94071 0.0
H72 H 0.6463 0.34597 0.89965 0.0
H73 H 0.73641 0.42295 0.79442 0.0
H74 H 0.62944 0.33932 0.8119 0.0
O75 O 0.73991 0.31221 0.80833 0.0
H76 H 0.70243 0.46681 0.73748 0.0
H77 H 0.59521 0.38394 0.75577 0.0
C78 C 0.75284 0.36364 0.87158 0.0
C79 C 0.78997 0.37839 0.85282 0.0
C80 C 0.82115 0.39537 0.87592 0.0
C81 C 0.8159 0.3978 0.91837 0.0
C82 C 0.77853 0.38367 0.93716 0.0
C83 C 0.74714 0.36692 0.91387 0.0
C84 C 0.68223 0.29943 0.87225 0.0
C85 C 0.68789 0.25518 0.87041 0.0
C86 C 0.66279 0.22405 0.8931 0.0
C87 C 0.63172 0.2364 0.91857 0.0
C88 C 0.62627 0.2807 0.92098 0.0
C89 C 0.65124 0.31201 0.89777 0.0
C90 C 0.68532 0.37819 0.80836 0.0
C91 C 0.70516 0.41485 0.78724 0.0
C92 C 0.68582 0.43992 0.75457 0.0
C93 C 0.64621 0.42879 0.74247 0.0
C94 C 0.62562 0.39337 0.76485 0.0
C95 C 0.64516 0.36803 0.79717 0.0
P96 P 0.93005 0.69179 0.35264 0.0
H97 H 0.93506 0.78355 0.35611 0.0
H98 H 0.96839 0.82772 0.4039 0.0
H99 H 0.02448 0.71451 0.46692 0.0
H100 H 0.9915 0.66989 0.41839 0.0
H101 H 0.94951 0.60984 0.40409 0.0
H102 H 0.97302 0.54036 0.38532 0.0
H103 H 0.97918 0.59569 0.25715 0.0
H104 H 0.95884 0.66487 0.276 0.0
H105 H 0.84635 0.69332 0.32268 0.0
H106 H 0.90866 0.66087 0.43884 0.0
O107 O 0.92095 0.7224 0.30797 0.0
H108 H 0.7808 0.67523 0.35714 0.0
H109 H 0.84288 0.64142 0.47305 0.0
C110 C 0.96111 0.72354 0.38341 0.0
C111 C 0.95539 0.76821 0.37938 0.0
C112 C 0.97431 0.79342 0.40661 0.0
C113 C 0.9988 0.7742 0.43861 0.0
C114 C 1.00586 0.7297 0.44204 0.0
C115 C 0.98696 0.70436 0.41444 0.0
C116 C 0.95251 0.6426 0.3414 0.0
C117 C 0.95703 0.60725 0.37214 0.0
C118 C 0.97001 0.5675 0.36147 0.0
C119 C 0.97722 0.56267 0.31982 0.0
C120 C 0.97382 0.59861 0.28956 0.0
C121 C 0.96202 0.63822 0.30031 0.0
C122 C 0.88223 0.67899 0.37836 0.0
C123 C 0.84596 0.68249 0.35557 0.0
C124 C 0.80863 0.67207 0.37512 0.0
C125 C 0.80721 0.65734 0.41757 0.0
C126 C 0.84355 0.65306 0.44031 0.0
C127 C 0.88092 0.66409 0.42079 0.0
P128 P 0.8518 0.87436 0.90482 0.0
H129 H 0.81539 0.87872 0.98568 0.0
H130 H 0.74885 0.90178 1.0082 0.0
H131 H 0.70693 0.91492 0.88179 0.0
H132 H 0.77414 0.89267 0.85907 0.0
H133 H 0.93329 0.83981 0.91044 0.0
H134 H 0.96069 0.76958 0.93805 0.0
H135 H 0.83876 0.72058 0.96716 0.0
H136 H 0.81117 0.79128 0.93961 0.0
H137 H 0.86901 0.95657 0.85378 0.0
H138 H 0.85856 0.82216 0.83472 0.0
O139 O 0.88096 0.90843 0.92861 0.0
H140 H 0.89386 0.97486 0.78258 0.0
H141 H 0.88289 0.84064 0.76299 0.0
C142 C 0.79993 0.88394 0.92067 0.0
C143 C 0.79178 0.88599 0.96277 0.0
C144 C 0.75378 0.89928 0.97566 0.0
C145 C 0.72277 0.91045 0.94677 0.0
C146 C 0.73033 0.90666 0.9047 0.0
C147 C 0.76867 0.89377 0.89174 0.0
C148 C 0.8702 0.82098 0.92315 0.0
C149 C 0.91234 0.81401 0.92268 0.0
C150 C 0.92803 0.77398 0.93852 0.0
C151 C 0.90185 0.73993 0.95495 0.0
C152 C 0.85952 0.74652 0.95482 0.0
C153 C 0.84379 0.78681 0.93903 0.0
C154 C 0.86231 0.88791 0.84988 0.0
C155 C 0.87143 0.93104 0.83413 0.0
C156 C 0.88573 0.94152 0.79347 0.0
C157 C 0.89081 0.90911 0.76747 0.0
C158 C 0.87959 0.86617 0.78252 0.0
C159 C 0.86553 0.85565 0.82342 0.0
P160 P 0.72733 0.29104 0.31367 0.0
H161 H 0.71488 0.38359 0.3145 0.0
H162 H 0.67402 0.42423 0.35919 0.0
H163 H 0.63097 0.30451 0.42742 0.0
H164 H 0.67159 0.26388 0.38303 0.0
H165 H 0.80986 0.27773 0.3473 0.0
H166 H 0.84246 0.21349 0.38329 0.0
H167 H 0.7282 0.142 0.3833 0.0
H168 H 0.69574 0.20551 0.347 0.0
H169 H 0.75243 0.24521 0.2466 0.0
H170 H 0.6388 0.28026 0.2989 0.0
O171 O 0.76351 0.32356 0.28992 0.0
H172 H 0.71564 0.19408 0.20767 0.0
H173 H 0.60185 0.22968 0.25907 0.0
C174 C 0.69679 0.32074 0.34583 0.0
C175 C 0.69677 0.36605 0.33911 0.0
C176 C 0.67352 0.38921 0.36447 0.0
C177 C 0.64982 0.36719 0.39654 0.0
C178 C 0.6493 0.32189 0.40286 0.0
C179 C 0.67259 0.29879 0.37758 0.0
C180 C 0.75048 0.24632 0.34438 0.0
C181 C 0.79175 0.24839 0.35535 0.0
C182 C 0.81032 0.21189 0.37573 0.0
C183 C 0.78759 0.17327 0.38554 0.0
C184 C 0.74605 0.17163 0.37582 0.0
C185 C 0.72763 0.20792 0.35527 0.0
C186 C 0.69836 0.26663 0.27543 0.0
C187 C 0.71944 0.24315 0.24845 0.0
C188 C 0.69855 0.21377 0.22653 0.0
C189 C 0.6562 0.20785 0.23102 0.0
C190 C 0.63461 0.23379 0.2555 0.0
C191 C 0.65568 0.2628 0.27798 0.0
P192 P 0.35875 0.63722 0.17084 0.0
H193 H 0.31645 0.64702 0.09224 0.0
H194 H 0.24739 0.62719 0.07122 0.0
H195 H 0.21417 0.59224 0.19929 0.0
H196 H 0.28386 0.61043 0.22028 0.0
H197 H 0.4414 0.67088 0.15735 0.0
H198 H 0.47033 0.74325 0.13486 0.0
H199 H 0.34953 0.79528 0.12984 0.0
H200 H 0.32043 0.7226 0.15257 0.0
H201 H 0.41775 0.57623 0.20939 0.0
H202 H 0.33211 0.66542 0.24994 0.0
O203 O 0.3835 0.60527 0.1421 0.0
H204 H 0.44167 0.5591 0.28034 0.0
H205 H 0.35548 0.64702 0.32192 0.0
C206 C 0.30543 0.63048 0.15784 0.0
C207 C 0.29419 0.63573 0.11592 0.0
C208 C 0.25479 0.62435 0.10388 0.0
C209 C 0.22558 0.60799 0.13361 0.0
C210 C 0.23621 0.60473 0.1758 0.0
C211 C 0.276 0.61538 0.1878 0.0
C212 C 0.37875 0.69128 0.15593 0.0
C213 C 0.42107 0.69782 0.15148 0.0
C214 C 0.43761 0.73904 0.13876 0.0
C215 C 0.41205 0.77449 0.1305 0.0
C216 C 0.3697 0.76823 0.13595 0.0
C217 C 0.35313 0.72683 0.14878 0.0
C218 C 0.37243 0.62148 0.22434 0.0
C219 C 0.4035 0.59165 0.23358 0.0
C220 C 0.41738 0.58195 0.27415 0.0
C221 C 0.40045 0.60177 0.30647 0.0
C222 C 0.36899 0.63137 0.29744 0.0
C223 C 0.35546 0.64158 0.25651 0.0
P224 P 0.1357 0.28976 0.68761 0.0
H225 H 0.14207 0.23908 0.61981 0.0
H226 H 0.09096 0.1981 0.58506 0.0
H227 H 0.99495 0.25862 0.64611 0.0
H228 H 0.04638 0.29905 0.68203 0.0
H229 H 0.2222 0.2922 0.70563 0.0
H230 H 0.27999 0.3319 0.67028 0.0
H231 H 0.19995 0.38563 0.57312 0.0
H232 H 0.14186 0.34522 0.60831 0.0
H233 H 0.12302 0.28507 0.77675 0.0
H234 H 0.10783 0.37823 0.66868 0.0
O235 O 0.15191 0.24614 0.71742 0.0
H236 H 0.10624 0.34018 0.82125 0.0
H237 H 0.09144 0.43361 0.71352 0.0
C238 C 0.09793 0.27172 0.65355 0.0
C239 C 0.11005 0.24465 0.62475 0.0
C240 C 0.08095 0.22143 0.60485 0.0
C241 C 0.03942 0.22508 0.61361 0.0
C242 C 0.02697 0.25555 0.63918 0.0
C243 C 0.0563 0.2784 0.65969 0.0
C244 C 0.17812 0.31514 0.65904 0.0
C245 C 0.21715 0.31179 0.67634 0.0
C246 C 0.24997 0.33452 0.65636 0.0
C247 C 0.24399 0.36124 0.61913 0.0
C248 C 0.20493 0.36474 0.60169 0.0
C249 C 0.17204 0.34168 0.62164 0.0
C250 C 0.11701 0.32785 0.71955 0.0
C251 C 0.11555 0.31714 0.76257 0.0
C252 C 0.10601 0.34845 0.78793 0.0
C253 C 0.09788 0.39068 0.77043 0.0
C254 C 0.09766 0.40103 0.72731 0.0
C255 C 0.10706 0.36958 0.70191 0.0
Co256 Co 0.97649 0.99635 0.52325 0.0
C257 C 1.01604 0.91958 0.52123 0.0
Co258 Co 0.03502 0.99332 0.55635 0.0
C259 C 0.91256 0.0347 0.47408 0.0
C260 C 0.89762 0.96839 0.49504 0.0
N261 N 0.92753 0.99891 0.49555 0.0
N262 N 0.87449 0.02799 0.46069 0.0
C263 C 0.86464 0.98638 0.47353 0.0
H264 H 0.92856 0.06573 0.46973 0.0
H265 H 0.89912 0.93578 0.51064 0.0
C266 C 0.99582 0.0702 0.5584 0.0
N267 N 0.08393 0.99148 0.58408 0.0
C268 C 0.11994 0.97912 0.57008 0.0
C269 C 0.09203 1.00359 0.6218 0.0
N270 N 0.15007 0.98324 0.59747 0.0
C271 C 0.13294 0.99847 0.63016 0.0
C272 C 0.04283 0.02652 0.47273 0.0
O273 O 0.9681 0.05243 0.5387 0.0
O274 O 0.02801 0.04999 0.56875 0.0
O275 O 0.06273 0.01567 0.50578 0.0
O276 O 1.00418 0.02153 0.47332 0.0
O277 O 0.04207 0.93609 0.54396 0.0
H278 H 0.06972 0.0158 0.64165 0.0
H279 H 0.12415 0.9677 0.54026 0.0
O280 O 0.98499 0.9407 0.50837 0.0
O281 O 0.94912 0.97108 0.57304 0.0
O282 O 1.00687 0.97156 0.60671 0.0
C283 C 0.96854 0.96386 0.60697 0.0
H284 H 0.83533 0.97087 0.46911 0.0
H285 H 0.14896 0.00561 0.65774 0.0
Co286 Co 0.49472 0.01341 1.00703 0.0
C287 C 0.48328 0.94258 0.06825 0.0
Co288 Co 0.52721 0.01913 0.06523 0.0
C289 C 0.48309 0.00542 0.92099 0.0
C290 C 0.4275 0.99366 0.95553 0.0
N291 N 0.46701 0.00585 0.95906 0.0
N292 N 0.45539 0.99256 0.8942 0.0
C293 C 0.42028 0.98534 0.91551 0.0
H294 H 0.51501 0.01186 0.91355 0.0
H295 H 0.40594 0.98892 0.98092 0.0
C296 C 0.54013 0.08941 1.00335 0.0
N297 N 0.55513 0.02706 0.11292 0.0
C298 C 0.55806 0.0646 0.12954 0.0
C299 C 0.58248 1.00106 0.13373 0.0
N300 N 0.58703 0.06362 0.15889 0.0
C301 C 0.60241 0.02369 0.162 0.0
C302 C 0.5737 0.9805 1.00849 0.0
O303 O 0.51702 0.06755 0.98182 0.0
O304 O 0.54653 0.07503 0.04095 0.0
O305 O 0.5747 0.99377 0.04394 0.0
O306 O 0.54114 0.98472 0.98733 0.0
O307 O 0.50827 0.96325 0.08896 0.0
H308 H 0.58943 0.96892 0.1268 0.0
H309 H 0.54173 0.09336 0.11799 0.0
O310 O 0.473 0.95913 0.0322 0.0
O311 O 0.4483 0.04194 0.02717 0.0
O312 O 0.47957 0.04418 0.0865 0.0
C313 C 0.44805 0.05144 0.06415 0.0
H314 H 0.39214 0.97296 0.90346 0.0
H315 H 0.62779 0.01271 0.18148 0.0
Co316 Co 0.54614 0.55358 0.51858 0.0
C317 C 0.47963 0.55237 0.46478 0.0
Co318 Co 0.4975 0.50732 0.54156 0.0
C319 C 0.62576 0.58946 0.49741 0.0
C320 C 0.57881 0.63538 0.4824 0.0
N321 N 0.58519 0.59457 0.49989 0.0
N322 N 0.64471 0.62515 0.47825 0.0
C323 C 0.61549 0.65425 0.46885 0.0
H324 H 0.64091 0.55959 0.5077 0.0
H325 H 0.54925 0.64996 0.47857 0.0
C326 C 0.56399 0.50768 0.595 0.0
N327 N 0.45887 0.46595 0.55991 0.0
C328 C 0.41791 0.4684 0.55838 0.0
C329 C 0.4663 0.42548 0.5777 0.0
N330 N 0.39975 0.4311 0.57489 0.0
C331 C 0.42985 0.40393 0.587 0.0
C332 C 0.55742 0.47423 0.49325 0.0
O333 O 0.57839 0.53618 0.56712 0.0
O334 O 0.52858 0.49167 0.59029 0.0
O335 O 0.52533 0.46506 0.51462 0.0
O336 O 0.57204 0.51253 0.49026 0.0
O337 O 0.4661 0.52339 0.49262 0.0
H338 H 0.49632 0.41248 0.58346 0.0
H339 H 0.40174 0.49687 0.54572 0.0
O340 O 0.51427 0.57006 0.47013 0.0
O341 O 0.51984 0.59492 0.54658 0.0
O342 O 0.47006 0.54941 0.56843 0.0
C343 C 0.48642 0.58701 0.56593 0.0
H344 H 0.62031 0.68628 0.45236 0.0
H345 H 0.42559 0.371 0.60154 0.0
Co346 Co 0.02993 0.50865 1.00701 0.0
C347 C 0.95297 0.46775 1.00507 0.0
Co348 Co 0.99722 0.50164 0.06633 0.0
C349 C 0.05806 0.48546 0.9301 0.0
C350 C 0.07423 0.5512 0.93719 0.0
N351 N 0.05586 0.51514 0.95673 0.0
N352 N 0.07682 0.50163 0.89471 0.0
C353 C 0.08709 0.54297 0.89867 0.0
H354 H 0.04537 0.45288 0.93609 0.0
H355 H 0.07727 0.58171 0.94981 0.0
C356 C 0.07407 0.54249 0.06864 0.0
N357 N 0.97183 0.4959 0.1171 0.0
C358 C 0.98922 0.48072 0.15339 0.0
C359 C 0.93717 0.51435 0.12747 0.0
N360 N 0.96832 0.49166 0.18596 0.0
C361 C 0.93508 0.512 0.16986 0.0
C362 C 0.04817 0.43257 0.05705 0.0
O363 O 0.07538 0.53622 0.03081 0.0
O364 O 0.0422 0.531 0.08965 0.0
O365 O 0.02321 0.44758 0.08119 0.0
O366 O 0.05496 0.45347 0.02156 0.0
O367 O 0.95243 0.47244 0.04335 0.0
H368 H 0.91646 0.5314 0.10572 0.0
H369 H 0.01855 0.46542 0.15585 0.0
O370 O 0.98411 0.48096 0.98341 0.0
O371 O 1.00518 0.56337 0.9924 0.0
O372 O 0.9713 0.55627 0.05077 0.0
C373 C 0.97944 0.57796 0.01596 0.0
H374 H 0.10232 0.56541 0.8753 0.0
H375 H 0.91243 0.5268 0.18745 0.0
C376 C 0.10213 0.10685 0.39464 0.0
C377 C 0.10842 0.08152 0.36171 0.0
C378 C 0.06759 0.02185 0.39962 0.0
C379 C 0.06465 0.04573 0.4341 0.0
N380 N 0.08276 0.10935 0.46633 0.0
N381 N 0.10157 0.01299 0.33482 0.0
C382 C 0.08312 0.08772 0.43216 0.0
C383 C 0.09213 0.03853 0.36466 0.0
N384 N 0.11288 0.14987 0.38937 0.0
N385 N 0.04685 0.98316 0.40022 0.0
H386 H 0.1192 0.0241 0.30886 0.0
H387 H 0.09471 0.97999 0.33718 0.0
H388 H 0.03017 0.96896 0.42578 0.0
H389 H 0.04385 0.96639 0.37453 0.0
H390 H 0.10512 0.17135 0.41008 0.0
H391 H 0.12652 0.16515 0.36237 0.0
H392 H 0.09987 0.13753 0.46875 0.0
H393 H 0.06732 0.09776 0.49357 0.0
C394 C 0.49324 0.93521 0.80688 0.0
C395 C 0.47269 0.95826 0.77311 0.0
C396 C 0.4468 0.00834 0.81891 0.0
C397 C 0.46302 0.98211 0.85317 0.0
N398 N 0.49695 0.91752 0.88137 0.0
N399 N 0.42602 0.01393 0.74705 0.0
C400 C 0.4853 0.94484 0.84761 0.0
C401 C 0.44863 0.99436 0.77901 0.0
N402 N 0.5206 0.90448 0.79983 0.0
N403 N 0.43015 0.04691 0.82475 0.0
H404 H 0.42651 0.00475 0.71727 0.0
H405 H 0.40448 0.0372 0.75068 0.0
H406 H 0.42846 0.0576 0.8539 0.0
H407 H 0.42127 0.06976 0.80059 0.0
H408 H 0.53946 0.88949 0.82271 0.0
H409 H 0.52707 0.89677 0.77022 0.0
H410 H 0.5096 0.8875 0.87941 0.0
H411 H 0.49075 0.92316 0.91166 0.0
C412 C 0.61534 0.4943 0.70107 0.0
C413 C 0.62808 0.45079 0.70353 0.0
C414 C 0.60071 0.44552 0.63397 0.0
C415 C 0.58927 0.48955 0.63079 0.0
N416 N 0.59409 0.55853 0.65728 0.0
N417 N 0.64266 0.38909 0.66824 0.0
C418 C 0.59943 0.51487 0.66303 0.0
C419 C 0.62358 0.42759 0.66875 0.0
N420 N 0.6168 0.51535 0.73558 0.0
N421 N 0.58951 0.4205 0.60387 0.0
H422 H 0.66047 0.37526 0.69268 0.0
H423 H 0.64429 0.37293 0.64208 0.0
H424 H 0.5755 0.43275 0.57636 0.0
H425 H 0.59203 0.387 0.60718 0.0
H426 H 0.60386 0.5453 0.73713 0.0
H427 H 0.62811 0.50129 0.7639 0.0
H428 H 0.60449 0.57934 0.67799 0.0
H429 H 0.58248 0.57457 0.62997 0.0
C430 C 0.02172 0.52067 0.28121 0.0
C431 C 0.98625 0.52058 0.30541 0.0
C432 C 0.95205 0.47512 0.25948 0.0
C433 C 0.98099 0.49018 0.22851 0.0
N434 N 0.04576 0.52815 0.21086 0.0
N435 N 0.92063 0.48827 0.32418 0.0
C436 C 0.01759 0.51159 0.23977 0.0
C437 C 0.95287 0.49326 0.29746 0.0
N438 N 0.05759 0.53514 0.29635 0.0
N439 N 0.92293 0.44537 0.25124 0.0
H440 H 0.92157 0.50022 0.35275 0.0
H441 H 0.89309 0.47312 0.31776 0.0
H442 H 0.92243 0.43233 0.2231 0.0
H443 H 0.90205 0.4311 0.27315 0.0
H444 H 0.0854 0.53408 0.28106 0.0
H445 H 0.05926 0.54418 0.32625 0.0
H446 H 0.07047 0.54768 0.21775 0.0
H447 H 0.04326 0.52597 0.17941 0.0
C448 C 0.34865 0.05513 0.12503 0.0
C449 C 0.34262 0.10039 0.12287 0.0
C450 C 0.406 0.11383 0.08186 0.0
C451 C 0.4106 0.06862 0.08208 0.0
N452 N 0.38146 0.99659 0.09589 0.0
N453 N 0.36093 0.17249 0.09189 0.0
C454 C 0.38035 0.0394 0.10117 0.0
C455 C 0.37002 0.12966 0.09911 0.0
N456 N 0.32536 0.02714 0.15139 0.0
N457 N 0.4364 0.14168 0.06581 0.0
H458 H 0.33465 0.18507 0.1034 0.0
H459 H 0.37729 0.19479 0.07145 0.0
H460 H 0.46245 0.13131 0.05188 0.0
H461 H 0.43716 0.1746 0.06878 0.0
H462 H 0.33137 0.99435 0.15795 0.0
H463 H 0.30213 0.03725 0.16958 0.0
H464 H 0.3582 0.97431 0.10556 0.0
H465 H 0.40394 0.98404 0.07843 0.0
C466 C 0.25939 0.99351 0.56249 0.0
C467 C 0.27513 0.95553 0.5847 0.0
C468 C 0.20698 0.9339 0.6115 0.0
C469 C 0.19216 0.97361 0.5925 0.0
N470 N 0.20318 0.04316 0.55318 0.0
N471 N 0.2657 0.89156 0.63395 0.0
C472 C 0.21807 1.00393 0.56869 0.0
C473 C 0.24937 0.92607 0.61008 0.0
N474 N 0.28383 0.01901 0.53507 0.0
N475 N 0.1801 0.90343 0.63012 0.0
H476 H 0.29656 0.88427 0.63333 0.0
H477 H 0.24932 0.87172 0.65648 0.0
H478 H 0.14889 0.90878 0.63189 0.0
H479 H 0.18801 0.87193 0.64093 0.0
H480 H 0.27333 0.04493 0.51501 0.0
H481 H 0.31434 0.01229 0.53014 0.0
H482 H 0.22118 0.06866 0.53896 0.0
H483 H 0.17285 0.05124 0.55709 0.0
C484 C 0.8476 0.45603 0.95681 0.0
C485 C 0.85001 0.41464 0.94298 0.0
C486 C 0.92036 0.40838 0.96909 0.0
C487 C 0.91701 0.44855 0.98524 0.0
N488 N 0.87523 0.50762 1.0003 0.0
N489 N 0.8854 0.34777 0.94274 0.0
C490 C 0.87983 0.4713 0.98112 0.0
C491 C 0.88553 0.38979 0.95102 0.0
N492 N 0.81543 0.48176 0.94492 0.0
N493 N 0.95693 0.38805 0.97076 0.0
H494 H 0.86034 0.33293 0.92996 0.0
H495 H 0.90855 0.3264 0.95183 0.0
H496 H 0.98249 0.39916 0.98578 0.0
H497 H 0.96276 0.3616 0.95508 0.0
H498 H 0.81419 0.51416 0.94969 0.0
H499 H 0.79129 0.47188 0.92708 0.0
H500 H 0.84739 0.52255 1.0026 0.0
H501 H 0.89855 0.52142 0.0165 0.0
C502 C 0.75054 0.67271 0.46527 0.0
C503 C 0.76728 0.64587 0.43759 0.0
C504 C 0.70279 0.60494 0.43702 0.0
C505 C 0.68685 0.63015 0.46639 0.0
N506 N 0.69759 0.68095 0.51554 0.0
N507 N 0.76322 0.58011 0.40529 0.0
C508 C 0.71148 0.66186 0.48277 0.0
C509 C 0.74461 0.60984 0.42613 0.0
N510 N 0.77097 0.70956 0.4733 0.0
N511 N 0.67748 0.57821 0.41773 0.0
H512 H 0.79407 0.58252 0.39726 0.0
H513 H 0.74915 0.55105 0.39963 0.0
H514 H 0.64625 0.57515 0.42365 0.0
H515 H 0.68666 0.56229 0.39304 0.0
H516 H 0.75818 0.73266 0.48968 0.0
H517 H 0.79956 0.7189 0.46084 0.0
H518 H 0.71556 0.70144 0.5315 0.0
H519 H 0.6692 0.67293 0.52921 0.0
C520 C 0.1327 0.3589 0.10213 0.0
C521 C 0.11102 0.31888 0.11174 0.0
C522 C 0.04837 0.3527 0.08286 0.0
C523 C 0.07048 0.39225 0.07175 0.0
N524 N 0.13561 0.43042 0.06344 0.0
N525 N 0.0505 0.27523 0.10427 0.0
C526 C 0.1133 0.39438 0.07875 0.0
C527 C 0.06946 0.3151 0.10002 0.0
N528 N 0.17114 0.36392 0.1175 0.0
N529 N 1.00703 0.35115 0.07738 0.0
H530 H 0.06508 0.24716 0.11652 0.0
H531 H 0.02164 0.26925 0.09255 0.0
H532 H 0.99091 0.37689 0.06234 0.0
H533 H 0.98835 0.32521 0.0895 0.0
H534 H 0.18658 0.39367 0.11615 0.0
H535 H 0.18644 0.33904 0.13494 0.0
H536 H 0.16738 0.43179 0.06323 0.0
H537 H 0.12278 0.45815 0.04823 0.0
C538 C 0.62546 0.17377 0.97465 0.0
C539 C 0.60636 0.20219 0.9436 0.0
C540 C 0.54166 0.16148 0.95786 0.0
C541 C 0.56245 0.12924 0.98399 0.0
N542 N 0.62729 0.10107 1.00948 0.0
N543 N 0.54708 0.21982 0.90148 0.0
C544 C 0.60518 0.13449 0.9906 0.0
C545 C 0.56457 0.19531 0.93414 0.0
N546 N 0.66299 0.18446 0.98924 0.0
N547 N 0.5 0.16074 0.95666 0.0
H548 H 0.56275 0.24476 0.88332 0.0
H549 H 0.51813 0.21305 0.89032 0.0
H550 H 0.48211 0.13746 0.97455 0.0
H551 H 0.4832 0.18569 0.94128 0.0
H552 H 0.67658 0.16695 1.01474 0.0
H553 H 0.67854 0.2133 0.97868 0.0
H554 H 0.65904 0.10207 1.01103 0.0
H555 H 0.61485 0.07055 0.01942 0.0
C556 C 0.98561 0.80689 0.50314 0.0
C557 C 1.01271 0.80111 0.47046 0.0
C558 C 0.0503 0.86774 0.48027 0.0
C559 C 0.02072 0.87562 0.51008 0.0
N560 N 0.9682 0.84868 0.5587 0.0
N561 N 0.07673 0.81738 0.43575 0.0
C562 C 0.99113 0.84355 0.52463 0.0
C563 C 0.04739 0.82859 0.462 0.0
N564 N 0.9531 0.77887 0.51151 0.0
N565 N 0.07923 0.89882 0.4675 0.0
H566 H 0.07465 0.78872 0.42213 0.0
H567 H 0.10439 0.83418 0.43025 0.0
H568 H 0.08273 0.92746 0.48089 0.0
H569 H 0.09868 0.89735 0.44248 0.0
H570 H 0.9292 0.78408 0.5312 0.0
H571 H 0.94926 0.75068 0.49741 0.0
H572 H 0.94844 0.82495 0.57323 0.0
H573 H 0.97149 0.8757 0.57459 0.0
C574 C 0.43366 0.69198 0.5613 0.0
C575 C 0.45163 0.70861 0.59602 0.0
C576 C 0.48151 0.63842 0.61864 0.0
C577 C 0.46611 0.62308 0.58234 0.0
N578 N 0.41743 0.6287 0.52686 0.0
N579 N 0.48385 0.69616 0.6628 0.0
C580 C 0.43855 0.64773 0.55635 0.0
C581 C 0.4726 0.68115 0.62653 0.0
N582 N 0.41407 0.71904 0.53188 0.0
N583 N 0.50548 0.61225 0.6447 0.0
H584 H 0.47757 0.72737 0.6692 0.0
H585 H 0.49677 0.67715 0.68768 0.0
H586 H 0.50936 0.57978 0.64094 0.0
H587 H 0.52178 0.62242 0.66937 0.0
H588 H 0.40468 0.71012 0.50347 0.0
H589 H 0.40926 0.75152 0.53476 0.0
H590 H 0.39431 0.64373 0.50897 0.0
H591 H 0.42063 0.59622 0.52288 0.0
C592 C 0.94865 0.90589 0.71622 0.0
C593 C 0.90924 0.92037 0.72513 0.0
C594 C 0.90891 0.96498 0.6573 0.0
C595 C 0.94685 0.94749 0.64678 0.0
N596 N 0.99673 0.89207 0.66329 0.0
N597 N 0.84801 0.95575 0.70009 0.0
C598 C 0.96494 0.91525 0.6754 0.0
C599 C 0.88819 0.94741 0.69434 0.0
N600 N 0.97143 0.88464 0.74708 0.0
N601 N 0.89352 1.00007 0.63355 0.0
H602 H 0.83178 0.94321 0.72659 0.0
H603 H 0.82983 0.97139 0.67692 0.0
H604 H 0.90785 0.01566 0.60718 0.0
H605 H 0.8685 0.01676 0.64249 0.0
H606 H 1.00204 0.87767 0.74336 0.0
H607 H 0.96108 0.87759 0.77749 0.0
H608 H 1.00825 0.86536 0.6816 0.0
H609 H 1.00863 0.8962 0.63336 0.0
C610 C 0.62061 0.13488 0.2385 0.0
C611 C 0.63545 0.17195 0.21253 0.0
C612 C 0.62197 0.13525 0.15142 0.0
C613 C 0.60341 0.10017 0.17704 0.0
N614 N 0.57822 0.06956 0.24371 0.0
N615 N 0.64295 0.21084 0.14413 0.0
C616 C 0.60068 0.10091 0.22028 0.0
C617 C 0.63381 0.17321 0.16886 0.0
N618 N 0.62729 0.13109 0.28026 0.0
N619 N 0.63017 0.13135 0.1109 0.0
H620 H 0.65131 0.23946 0.156 0.0
H621 H 0.63849 0.2147 0.1122 0.0
H622 H 0.62392 0.10301 0.09774 0.0
H623 H 0.647 0.15436 0.09162 0.0
H624 H 0.62086 0.10282 0.29992 0.0
H625 H 0.64263 0.1547 0.29492 0.0
H626 H 0.57163 0.07066 0.27488 0.0
H627 H 0.56311 0.04444 0.23094 0.0
C628 C 0.41165 0.54778 0.36906 0.0
C629 C 0.41614 0.59081 0.34952 0.0
C630 C 0.45373 0.61014 0.41025 0.0
C631 C 0.45557 0.56562 0.42629 0.0
N632 N 0.44145 0.49102 0.41553 0.0
N633 N 0.44694 0.66206 0.34916 0.0
C634 C 0.43558 0.53411 0.40447 0.0
C635 C 0.43853 0.62187 0.36953 0.0
N636 N 0.38417 0.51995 0.35396 0.0
N637 N 0.46499 0.64146 0.43434 0.0
H638 H 0.43688 0.67193 0.31918 0.0
H639 H 0.46696 0.68421 0.36065 0.0
H640 H 0.47439 0.63456 0.46496 0.0
H641 H 0.46049 0.67428 0.42552 0.0
H642 H 0.37671 0.48949 0.36937 0.0
H643 H 0.36573 0.52906 0.32839 0.0
H644 H 0.43109 0.4672 0.39788 0.0
H645 H 0.46038 0.47919 0.43963 0.0
C646 C 0.12762 0.44065 0.81732 0.0
C647 C 0.09268 0.42454 0.79786 0.0
C648 C 0.04868 0.46803 0.83607 0.0
C649 C 0.08289 0.47904 0.85951 0.0
N650 N 0.1541 0.47318 0.87619 0.0
N651 N 0.01963 0.42023 0.7896 0.0
C652 C 0.1223 0.46507 0.85086 0.0
C653 C 0.05303 0.43782 0.80713 0.0
N654 N 0.16576 0.43282 0.80343 0.0
N655 N 1.01229 0.48706 0.84143 0.0
H656 H 0.02181 0.39855 0.76767 0.0
H657 H 0.98977 0.42498 0.79856 0.0
H658 H 1.00871 0.50959 0.86237 0.0
H659 H 0.98683 0.48349 0.82289 0.0
H660 H 0.19226 0.44715 0.81376 0.0
H661 H 0.17071 0.41493 0.77883 0.0
H662 H 0.18272 0.45977 0.87437 0.0
H663 H 0.15096 0.49079 0.90127 0.0
C664 C 0.65658 0.90077 0.98773 0.0
C665 C 0.6832 0.92768 0.96074 0.0
C666 C 0.63483 0.98712 0.96071 0.0
C667 C 0.61074 0.96178 0.9913 0.0
N668 N 0.60107 0.89598 0.03769 0.0
N669 N 0.70101 0.99918 0.92756 0.0
C670 C 0.6224 0.91904 1.00597 0.0
C671 C 0.67311 0.97157 0.94866 0.0
N672 N 0.66312 0.85734 0.99475 0.0
N673 N 0.62115 0.02612 0.94294 0.0
H674 H 0.72966 0.98955 0.91889 0.0
H675 H 0.69736 0.0325 0.92201 0.0
H676 H 0.59397 0.03923 0.95159 0.0
H677 H 0.63505 0.04387 0.91734 0.0
H678 H 0.64264 0.83522 1.01061 0.0
H679 H 0.68726 0.84275 0.98138 0.0
H680 H 0.61061 0.86662 0.05292 0.0
H681 H 0.57524 0.90767 0.05089 0.0
C682 C 0.80949 0.12576 0.44885 0.0
C683 C 0.80756 0.13394 0.40505 0.0
C684 C 0.84725 0.06955 0.39825 0.0
C685 C 0.8485 0.06104 0.44185 0.0
N686 N 0.82727 0.07586 0.50915 0.0
N687 N 0.81876 0.11129 0.33765 0.0
C688 C 0.82834 0.08761 0.46731 0.0
C689 C 0.82462 0.105 0.37957 0.0
N690 N 0.79429 0.15511 0.47257 0.0
N691 N 0.86914 0.04447 0.37502 0.0
H692 H 0.80336 0.13767 0.32278 0.0
H693 H 0.82681 0.08912 0.31774 0.0
H694 H 0.88499 0.01761 0.38821 0.0
H695 H 0.8735 0.05137 0.34321 0.0
H696 H 0.79831 0.15355 0.50443 0.0
H697 H 0.77926 0.1828 0.46003 0.0
H698 H 0.8102 0.09134 0.52965 0.0
H699 H 0.84151 0.04834 0.52327 0.0
C700 C 0.17409 0.54727 0.12749 0.0
C701 C 0.18482 0.59203 0.12004 0.0
C702 C 0.1223 0.60468 0.07879 0.0
C703 C 0.1105 0.56049 0.08861 0.0
N704 N 0.12057 0.49208 0.13038 0.0
N705 N 0.16495 0.66476 0.09609 0.0
C706 C 0.13481 0.53264 0.11576 0.0
C707 C 0.15765 0.62119 0.09782 0.0
N708 N 0.20227 0.51815 0.14334 0.0
N709 N 0.09991 0.63082 0.05103 0.0
H710 H 0.19 0.67792 0.11042 0.0
H711 H 0.14437 0.68782 0.08389 0.0
H712 H 0.07284 0.62044 0.03806 0.0
H713 H 0.10943 0.66191 0.03893 0.0
H714 H 0.19764 0.48478 0.14493 0.0
H715 H 0.2319 0.52702 0.15107 0.0
H716 H 0.13506 0.47225 0.15374 0.0
H717 H 0.09258 0.47946 0.12174 0.0
C718 C 0.30085 0.37143 0.56725 0.0
C719 C 0.27907 0.38668 0.59999 0.0
C720 C 0.33477 0.43744 0.61115 0.0
C721 C 0.35699 0.42131 0.57934 0.0
N722 N 0.35879 0.38221 0.5203 0.0
N723 N 0.26939 0.44148 0.64512 0.0
C724 C 0.33898 0.39138 0.55498 0.0
C725 C 0.29408 0.4224 0.61914 0.0
N726 N 0.28618 0.33652 0.54958 0.0
N727 N 0.35353 0.46491 0.63536 0.0
H728 H 0.23933 0.43092 0.6514 0.0
H729 H 0.27728 0.46994 0.65733 0.0
H730 H 0.38345 0.47637 0.63028 0.0
H731 H 0.3405 0.4741 0.66204 0.0
H732 H 0.3028 0.32081 0.52888 0.0
H733 H 0.25788 0.32171 0.55727 0.0
H734 H 0.34608 0.36335 0.49901 0.0
H735 H 0.38682 0.39682 0.51104 0.0
C736 C 0.9369 0.69219 1.012 0.0
C737 C 0.91922 0.69737 0.97187 0.0
C738 C 0.93608 0.6224 0.96342 0.0
C739 C 0.95768 0.61875 1.00164 0.0
N740 N 0.98353 0.65253 0.05968 0.0
N741 N 0.90646 0.66954 0.90697 0.0
C742 C 0.95916 0.6542 0.02541 0.0
C743 C 0.91998 0.66299 0.94696 0.0
N744 N 0.93181 0.72338 0.03761 0.0
N745 N 0.92946 0.5866 0.94352 0.0
H746 H 0.89363 0.69839 0.89406 0.0
H747 H 0.91078 0.64769 0.88562 0.0
H748 H 0.94027 0.55619 0.95446 0.0
H749 H 0.91 0.58601 0.91827 0.0
H750 H 0.94003 0.71961 0.06874 0.0
H751 H 0.91615 0.75174 0.02866 0.0
H752 H 0.98959 0.67902 0.07561 0.0
H753 H 1.00066 0.62569 0.07028 0.0
C754 C 0.44472 0.82561 0.07365 0.0
C755 C 0.42992 0.81784 0.11488 0.0
C756 C 0.44804 0.89273 0.12537 0.0
C757 C 0.46632 0.89925 0.08534 0.0
N758 N 0.49023 0.86812 0.02543 0.0
N759 N 0.42398 0.84118 0.18257 0.0
C760 C 0.4669 0.86463 0.06056 0.0
C761 C 0.43349 0.8506 0.14153 0.0
N762 N 0.43673 0.79614 0.04657 0.0
N763 N 0.44267 0.92699 0.14727 0.0
H764 H 0.41285 0.81086 0.19543 0.0
H765 H 0.43038 0.86219 0.20447 0.0
H766 H 0.45208 0.95854 0.13667 0.0
H767 H 0.42538 0.9249 0.17431 0.0
H768 H 0.4428 0.80224 1.01495 0.0
H769 H 0.42055 0.76716 0.05493 0.0
H770 H 0.49509 0.84231 1.00856 0.0
H771 H 0.50837 0.89531 0.01546 0.0
C772 C 1.00284 0.15413 0.63013 0.0
C773 C 1.01111 0.19132 0.60135 0.0
C774 C 0.99458 0.15085 0.54342 0.0
C775 C 0.99045 0.11297 0.57205 0.0
N776 N 0.97652 0.08029 0.64149 0.0
N777 N 1.00313 0.22925 0.5333 0.0
C778 C 0.98943 0.11545 0.61512 0.0
C779 C 1.00245 0.19107 0.55877 0.0
N780 N 1.01132 0.15462 0.67125 0.0
N781 N 0.99381 0.14783 0.50187 0.0
H782 H 1.00901 0.2588 0.54457 0.0
H783 H 0.99457 0.23212 0.50229 0.0
H784 H 0.98717 0.11888 0.48988 0.0
H785 H 1.00128 0.17339 0.47932 0.0
H786 H 1.01142 0.12694 0.69264 0.0
H787 H 0.02033 0.18244 0.68398 0.0
H788 H 0.97131 0.08105 0.67296 0.0
H789 H 0.96737 0.05127 0.63095 0.0
C790 C 0.58301 0.39529 0.41739 0.0
C791 C 0.62555 0.3916 0.4238 0.0
C792 C 0.62241 0.43707 0.4801 0.0
C793 C 0.57956 0.44068 0.4738 0.0
N794 N 0.51785 0.41128 0.44561 0.0
N795 N 0.68474 0.40082 0.46603 0.0
C796 C 0.55938 0.41601 0.44541 0.0
C797 C 0.645 0.41012 0.45662 0.0
N798 N 0.56534 0.38032 0.38358 0.0
N799 N 0.64153 0.4593 0.50871 0.0
H800 H 0.70229 0.38155 0.44918 0.0
H801 H 0.69959 0.40932 0.49227 0.0
H802 H 0.6258 0.47481 0.53028 0.0
H803 H 0.67305 0.46341 0.51051 0.0
H804 H 0.53549 0.38689 0.37435 0.0
H805 H 0.58151 0.36442 0.36257 0.0
H806 H 0.5021 0.39038 0.42816 0.0
H807 H 0.4991 0.42379 0.46667 0.0
loop_
_geom_bond_atom_site_label_1
_geom_bond_atom_site_label_2
_geom_bond_distance
_geom_bond_site_symmetry_2
_ccdc_geom_bond_type
P0 O11 1.490 . S
P0 C14 1.812 . S
P0 C20 1.803 . S
P0 C26 1.819 . S
H1 C15 0.941 . S
H2 C16 0.939 . S
H3 C18 0.940 . S
H4 C19 0.940 . S
H5 C21 0.939 . S
H6 C22 0.942 . S
H7 C24 0.940 . S
H8 C25 0.939 . S
H9 C27 0.941 . S
H10 C31 0.939 . S
O11 P0 1.490 . S
H12 C28 0.939 . S
H13 C30 0.940 . S
C14 P0 1.812 . S
C14 C15 1.389 . S
C14 C19 1.391 . S
C15 H1 0.941 . S
C15 C14 1.389 . S
C15 C16 1.397 . S
C16 H2 0.939 . S
C16 C15 1.397 . S
C16 C17 1.378 . S
C17 C16 1.378 . S
C17 C18 1.378 . S
C18 H3 0.940 . S
C18 C17 1.378 . S
C18 C19 1.396 . S
C19 H4 0.940 . S
C19 C14 1.391 . S
C19 C18 1.396 . S
C20 P0 1.803 . S
C20 C21 1.378 . S
C20 C25 1.400 . S
C21 H5 0.939 . S
C21 C20 1.378 . S
C21 C22 1.361 . S
C22 H6 0.942 . S
C22 C21 1.361 . S
C22 C23 1.369 . S
C23 C22 1.369 . S
C23 C24 1.404 . S
C24 H7 0.940 . S
C24 C23 1.404 . S
C24 C25 1.389 . S
C25 H8 0.939 . S
C25 C20 1.400 . S
C25 C24 1.389 . S
C26 P0 1.819 . S
C26 C27 1.391 . S
C26 C31 1.391 . S
C27 H9 0.941 . S
C27 C26 1.391 . S
C27 C28 1.396 . S
C28 H12 0.939 . S
C28 C27 1.396 . S
C28 C29 1.397 . S
C29 C28 1.397 . S
C29 C30 1.385 . S
C30 H13 0.940 . S
C30 C29 1.385 . S
C30 C31 1.388 . S
C31 H10 0.939 . S
C31 C26 1.391 . S
C31 C30 1.388 . S
P32 O43 1.490 . S
P32 C46 1.812 . S
P32 C52 1.803 . S
P32 C58 1.819 . S
H33 C47 0.941 . S
H34 C48 0.939 . S
H35 C50 0.940 . S
H36 C51 0.940 . S
H37 C53 0.939 . S
H38 C54 0.942 . S
H39 C56 0.940 . S
H40 C57 0.939 . S
H41 C59 0.941 . S
H42 C63 0.939 . S
O43 P32 1.490 . S
H44 C60 0.939 . S
H45 C62 0.940 . S
C46 P32 1.812 . S
C46 C47 1.389 . S
C46 C51 1.391 . S
C47 H33 0.941 . S
C47 C46 1.389 . S
C47 C48 1.397 . S
C48 H34 0.939 . S
C48 C47 1.397 . S
C48 C49 1.378 . S
C49 C48 1.378 . S
C49 C50 1.378 . S
C50 H35 0.940 . S
C50 C49 1.378 . S
C50 C51 1.396 . S
C51 H36 0.940 . S
C51 C46 1.391 . S
C51 C50 1.396 . S
C52 P32 1.803 . S
C52 C53 1.378 . S
C52 C57 1.400 . S
C53 H37 0.939 . S
C53 C52 1.378 . S
C53 C54 1.361 . S
C54 H38 0.942 . S
C54 C53 1.361 . S
C54 C55 1.369 . S
C55 C54 1.369 . S
C55 C56 1.404 . S
C56 H39 0.940 . S
C56 C55 1.404 . S
C56 C57 1.389 . S
C57 H40 0.939 . S
C57 C52 1.400 . S
C57 C56 1.389 . S
C58 P32 1.819 . S
C58 C59 1.391 . S
C58 C63 1.391 . S
C59 H41 0.941 . S
C59 C58 1.391 . S
C59 C60 1.396 . S
C60 H44 0.939 . S
C60 C59 1.396 . S
C60 C61 1.397 . S
C61 C60 1.397 . S
C61 C62 1.385 . S
C62 H45 0.940 . S
C62 C61 1.385 . S
C62 C63 1.388 . S
C63 H42 0.939 . S
C63 C58 1.391 . S
C63 C62 1.388 . S
P64 O75 1.490 . S
P64 C78 1.812 . S
P64 C84 1.803 . S
P64 C90 1.819 . S
H65 C79 0.941 . S
H66 C80 0.939 . S
H67 C82 0.940 . S
H68 C83 0.940 . S
H69 C85 0.939 . S
H70 C86 0.942 . S
H71 C88 0.940 . S
H72 C89 0.939 . S
H73 C91 0.941 . S
H74 C95 0.939 . S
O75 P64 1.490 . S
H76 C92 0.939 . S
H77 C94 0.940 . S
C78 P64 1.812 . S
C78 C79 1.389 . S
C78 C83 1.391 . S
C79 H65 0.941 . S
C79 C78 1.389 . S
C79 C80 1.397 . S
C80 H66 0.939 . S
C80 C79 1.397 . S
C80 C81 1.378 . S
C81 C80 1.378 . S
C81 C82 1.378 . S
C82 H67 0.940 . S
C82 C81 1.378 . S
C82 C83 1.396 . S
C83 H68 0.940 . S
C83 C78 1.391 . S
C83 C82 1.396 . S
C84 P64 1.803 . S
C84 C85 1.378 . S
C84 C89 1.400 . S
C85 H69 0.939 . S
C85 C84 1.378 . S
C85 C86 1.361 . S
C86 H70 0.942 . S
C86 C85 1.361 . S
C86 C87 1.369 . S
C87 C86 1.369 . S
C87 C88 1.404 . S
C88 H71 0.940 . S
C88 C87 1.404 . S
C88 C89 1.389 . S
C89 H72 0.939 . S
C89 C84 1.400 . S
C89 C88 1.389 . S
C90 P64 1.819 . S
C90 C91 1.391 . S
C90 C95 1.391 . S
C91 H73 0.941 . S
C91 C90 1.391 . S
C91 C92 1.396 . S
C92 H76 0.939 . S
C92 C91 1.396 . S
C92 C93 1.397 . S
C93 C92 1.397 . S
C93 C94 1.385 . S
C94 H77 0.940 . S
C94 C93 1.385 . S
C94 C95 1.388 . S
C95 H74 0.939 . S
C95 C90 1.391 . S
C95 C94 1.388 . S
P96 O107 1.490 . S
P96 C110 1.812 . S
P96 C116 1.803 . S
P96 C122 1.819 . S
H97 C111 0.941 . S
H98 C112 0.939 . S
H99 C114 0.940 . S
H100 C115 0.940 . S
H101 C117 0.939 . S
H102 C118 0.942 . S
H103 C120 0.940 . S
H104 C121 0.939 . S
H105 C123 0.941 . S
H106 C127 0.939 . S
O107 P96 1.490 . S
H108 C124 0.939 . S
H109 C126 0.940 . S
C110 P96 1.812 . S
C110 C111 1.389 . S
C110 C115 1.391 . S
C111 H97 0.941 . S
C111 C110 1.389 . S
C111 C112 1.397 . S
C112 H98 0.939 . S
C112 C111 1.397 . S
C112 C113 1.378 . S
C113 C112 1.378 . S
C113 C114 1.378 . S
C114 H99 0.940 . S
C114 C113 1.378 . S
C114 C115 1.396 . S
C115 H100 0.940 . S
C115 C110 1.391 . S
C115 C114 1.396 . S
C116 P96 1.803 . S
C116 C117 1.378 . S
C116 C121 1.400 . S
C117 H101 0.939 . S
C117 C116 1.378 . S
C117 C118 1.361 . S
C118 H102 0.942 . S
C118 C117 1.361 . S
C118 C119 1.369 . S
C119 C118 1.369 . S
C119 C120 1.404 . S
C120 H103 0.940 . S
C120 C119 1.404 . S
C120 C121 1.389 . S
C121 H104 0.939 . S
C121 C116 1.400 . S
C121 C120 1.389 . S
C122 P96 1.819 . S
C122 C123 1.391 . S
C122 C127 1.391 . S
C123 H105 0.941 . S
C123 C122 1.391 . S
C123 C124 1.396 . S
C124 H108 0.939 . S
C124 C123 1.396 . S
C124 C125 1.397 . S
C125 C124 1.397 . S
C125 C126 1.385 . S
C126 H109 0.940 . S
C126 C125 1.385 . S
C126 C127 1.388 . S
C127 H106 0.939 . S
C127 C122 1.391 . S
C127 C126 1.388 . S
P128 O139 1.490 . S
P128 C142 1.812 . S
P128 C148 1.803 . S
P128 C154 1.819 . S
H129 C143 0.941 . S
H130 C144 0.940 1_554 S
H131 C146 0.940 . S
H132 C147 0.940 . S
H133 C149 0.939 . S
H134 C150 0.942 . S
H135 C152 0.940 . S
H136 C153 0.939 . S
H137 C155 0.941 . S
H138 C159 0.939 . S
O139 P128 1.490 . S
H140 C156 0.939 1_545 S
H141 C158 0.940 . S
C142 P128 1.812 . S
C142 C143 1.389 . S
C142 C147 1.391 . S
C143 H129 0.941 . S
C143 C142 1.389 . S
C143 C144 1.397 . S
C144 H130 0.940 1_556 S
C144 C143 1.397 . S
C144 C145 1.378 . S
C145 C144 1.378 . S
C145 C146 1.378 . S
C146 H131 0.940 . S
C146 C145 1.378 . S
C146 C147 1.396 . S
C147 H132 0.940 . S
C147 C142 1.391 . S
C147 C146 1.396 . S
C148 P128 1.803 . S
C148 C149 1.378 . S
C148 C153 1.400 . S
C149 H133 0.939 . S
C149 C148 1.378 . S
C149 C150 1.361 . S
C150 H134 0.942 . S
C150 C149 1.361 . S
C150 C151 1.369 . S
C151 C150 1.369 . S
C151 C152 1.404 . S
C152 H135 0.940 . S
C152 C151 1.404 . S
C152 C153 1.389 . S
C153 H136 0.939 . S
C153 C148 1.400 . S
C153 C152 1.389 . S
C154 P128 1.819 . S
C154 C155 1.391 . S
C154 C159 1.391 . S
C155 H137 0.941 . S
C155 C154 1.391 . S
C155 C156 1.396 . S
C156 H140 0.939 1_565 S
C156 C155 1.396 . S
C156 C157 1.397 . S
C157 C156 1.397 . S
C157 C158 1.385 . S
C158 H141 0.940 . S
C158 C157 1.385 . S
C158 C159 1.388 . S
C159 H138 0.939 . S
C159 C154 1.391 . S
C159 C158 1.388 . S
P160 O171 1.490 . S
P160 C174 1.812 . S
P160 C180 1.803 . S
P160 C186 1.819 . S
H161 C175 0.941 . S
H162 C176 0.939 . S
H163 C178 0.940 . S
H164 C179 0.940 . S
H165 C181 0.939 . S
H166 C182 0.942 . S
H167 C184 0.940 . S
H168 C185 0.939 . S
H169 C187 0.941 . S
H170 C191 0.939 . S
O171 P160 1.490 . S
H172 C188 0.939 . S
H173 C190 0.940 . S
C174 P160 1.812 . S
C174 C175 1.389 . S
C174 C179 1.391 . S
C175 H161 0.941 . S
C175 C174 1.389 . S
C175 C176 1.397 . S
C176 H162 0.939 . S
C176 C175 1.397 . S
C176 C177 1.378 . S
C177 C176 1.378 . S
C177 C178 1.378 . S
C178 H163 0.940 . S
C178 C177 1.378 . S
C178 C179 1.396 . S
C179 H164 0.940 . S
C179 C174 1.391 . S
C179 C178 1.396 . S
C180 P160 1.803 . S
C180 C181 1.378 . S
C180 C185 1.400 . S
C181 H165 0.939 . S
C181 C180 1.378 . S
C181 C182 1.361 . S
C182 H166 0.942 . S
C182 C181 1.361 . S
C182 C183 1.369 . S
C183 C182 1.369 . S
C183 C184 1.404 . S
C184 H167 0.940 . S
C184 C183 1.404 . S
C184 C185 1.389 . S
C185 H168 0.939 . S
C185 C180 1.400 . S
C185 C184 1.389 . S
C186 P160 1.819 . S
C186 C187 1.391 . S
C186 C191 1.391 . S
C187 H169 0.941 . S
C187 C186 1.391 . S
C187 C188 1.396 . S
C188 H172 0.939 . S
C188 C187 1.396 . S
C188 C189 1.397 . S
C189 C188 1.397 . S
C189 C190 1.385 . S
C190 H173 0.940 . S
C190 C189 1.385 . S
C190 C191 1.388 . S
C191 H170 0.939 . S
C191 C186 1.391 . S
C191 C190 1.388 . S
P192 O203 1.490 . S
P192 C206 1.812 . S
P192 C212 1.803 . S
P192 C218 1.819 . S
H193 C207 0.941 . S
H194 C208 0.939 . S
H195 C210 0.940 . S
H196 C211 0.940 . S
H197 C213 0.939 . S
H198 C214 0.942 . S
H199 C216 0.940 . S
H200 C217 0.939 . S
H201 C219 0.941 . S
H202 C223 0.939 . S
O203 P192 1.490 . S
H204 C220 0.939 . S
H205 C222 0.940 . S
C206 P192 1.812 . S
C206 C207 1.389 . S
C206 C211 1.391 . S
C207 H193 0.941 . S
C207 C206 1.389 . S
C207 C208 1.397 . S
C208 H194 0.939 . S
C208 C207 1.397 . S
C208 C209 1.378 . S
C209 C208 1.378 . S
C209 C210 1.378 . S
C210 H195 0.940 . S
C210 C209 1.378 . S
C210 C211 1.396 . S
C211 H196 0.940 . S
C211 C206 1.391 . S
C211 C210 1.396 . S
C212 P192 1.803 . S
C212 C213 1.378 . S
C212 C217 1.400 . S
C213 H197 0.939 . S
C213 C212 1.378 . S
C213 C214 1.361 . S
C214 H198 0.942 . S
C214 C213 1.361 . S
C214 C215 1.369 . S
C215 C214 1.369 . S
C215 C216 1.404 . S
C216 H199 0.940 . S
C216 C215 1.404 . S
C216 C217 1.389 . S
C217 H200 0.939 . S
C217 C212 1.400 . S
C217 C216 1.389 . S
C218 P192 1.819 . S
C218 C219 1.391 . S
C218 C223 1.391 . S
C219 H201 0.941 . S
C219 C218 1.391 . S
C219 C220 1.396 . S
C220 H204 0.939 . S
C220 C219 1.396 . S
C220 C221 1.397 . S
C221 C220 1.397 . S
C221 C222 1.385 . S
C222 H205 0.940 . S
C222 C221 1.385 . S
C222 C223 1.388 . S
C223 H202 0.939 . S
C223 C218 1.391 . S
C223 C222 1.388 . S
P224 O235 1.490 . S
P224 C238 1.812 . S
P224 C244 1.803 . S
P224 C250 1.819 . S
H225 C239 0.941 . S
H226 C240 0.939 . S
H227 C242 0.940 . S
H228 C243 0.940 . S
H229 C245 0.939 . S
H230 C246 0.942 . S
H231 C248 0.940 . S
H232 C249 0.939 . S
H233 C251 0.941 . S
H234 C255 0.939 . S
O235 P224 1.490 . S
H236 C252 0.939 . S
H237 C254 0.940 . S
C238 P224 1.812 . S
C238 C239 1.389 . S
C238 C243 1.391 . S
C239 H225 0.941 . S
C239 C238 1.389 . S
C239 C240 1.397 . S
C240 H226 0.939 . S
C240 C239 1.397 . S
C240 C241 1.378 . S
C241 C240 1.378 . S
C241 C242 1.378 . S
C242 H227 0.940 . S
C242 C241 1.378 . S
C242 C243 1.396 . S
C243 H228 0.940 . S
C243 C238 1.391 . S
C243 C242 1.396 . S
C244 P224 1.803 . S
C244 C245 1.378 . S
C244 C249 1.400 . S
C245 H229 0.939 . S
C245 C244 1.378 . S
C245 C246 1.361 . S
C246 H230 0.942 . S
C246 C245 1.361 . S
C246 C247 1.369 . S
C247 C246 1.369 . S
C247 C248 1.404 . S
C248 H231 0.940 . S
C248 C247 1.404 . S
C248 C249 1.389 . S
C249 H232 0.939 . S
C249 C244 1.400 . S
C249 C248 1.389 . S
C250 P224 1.819 . S
C250 C251 1.391 . S
C250 C255 1.391 . S
C251 H233 0.941 . S
C251 C250 1.391 . S
C251 C252 1.396 . S
C252 H236 0.939 . S
C252 C251 1.396 . S
C252 C253 1.397 . S
C253 C252 1.397 . S
C253 C254 1.385 . S
C254 H237 0.940 . S
C254 C253 1.385 . S
C254 C255 1.388 . S
C255 H234 0.939 . S
C255 C250 1.391 . S
C255 C254 1.388 . S
Co256 N261 2.057 . S
Co256 O273 2.021 . S
Co256 O276 2.062 . S
Co256 O280 2.117 1_545 S
Co256 O281 2.020 . S
C257 O277 1.259 1_655 S
C257 O280 1.258 . S
Co258 N267 2.057 . S
Co258 O274 2.117 1_565 S
Co258 O275 2.020 1_565 S
Co258 O277 2.021 . S
Co258 O282 2.062 . S
C259 N261 1.316 . S
C259 N262 1.347 . S
C259 H264 0.931 . S
C260 N261 1.375 . S
C260 C263 1.350 . S
C260 H265 0.930 1_545 S
N261 Co256 2.057 . S
N261 C259 1.316 . S
N261 C260 1.375 . S
N262 C259 1.347 . S
N262 C263 1.373 . S
C263 C260 1.350 . S
C263 N262 1.373 . S
C263 H284 0.931 . S
H264 C259 0.931 . S
H265 C260 0.930 1_565 S
C266 O273 1.259 1_455 S
C266 O274 1.258 . S
N267 Co258 2.057 . S
N267 C268 1.316 . S
N267 C269 1.375 1_565 S
C268 N267 1.316 . S
C268 N270 1.347 . S
C268 H279 0.931 . S
C269 N267 1.375 1_545 S
C269 C271 1.350 1_545 S
C269 H278 0.930 . S
N270 C268 1.347 . S
N270 C271 1.373 . S
C271 C269 1.350 1_565 S
C271 N270 1.373 . S
C271 H285 0.931 1_565 S
C272 O275 1.256 . S
C272 O276 1.255 1_455 S
O273 Co256 2.021 . S
O273 C266 1.259 1_655 S
O274 Co258 2.117 1_545 S
O274 C266 1.258 . S
O275 Co258 2.020 1_545 S
O275 C272 1.256 . S
O276 Co256 2.062 . S
O276 C272 1.255 1_655 S
O277 C257 1.259 1_455 S
O277 Co258 2.021 . S
H278 C269 0.930 . S
H279 C268 0.931 . S
O280 Co256 2.117 1_565 S
O280 C257 1.258 . S
O281 Co256 2.020 . S
O281 C283 1.256 1_545 S
O282 Co258 2.062 . S
O282 C283 1.255 1_455 S
C283 O281 1.256 1_565 S
C283 O282 1.255 1_655 S
H284 C263 0.931 . S
H285 C271 0.931 1_545 S
Co286 N291 2.057 1_545 S
Co286 O303 2.021 . S
Co286 O306 2.062 1_545 S
Co286 O310 2.117 1_546 S
Co286 O311 2.020 . S
C287 O307 1.259 . S
C287 O310 1.258 . S
Co288 N297 2.057 . S
Co288 O304 2.117 . S
Co288 O305 2.020 1_545 S
Co288 O307 2.021 1_545 S
Co288 O312 2.062 . S
C289 N291 1.316 . S
C289 N292 1.347 . S
C289 H294 0.931 1_565 S
C290 N291 1.375 . S
C290 C293 1.350 . S
C290 H295 0.930 . S
N291 Co286 2.057 1_565 S
N291 C289 1.316 . S
N291 C290 1.375 . S
N292 C289 1.347 . S
N292 C293 1.373 . S
C293 C290 1.350 . S
C293 N292 1.373 . S
C293 H314 0.931 . S
H294 C289 0.931 1_545 S
H295 C290 0.930 . S
C296 O303 1.259 . S
C296 O304 1.258 1_556 S
N297 Co288 2.057 . S
N297 C298 1.316 . S
N297 C299 1.375 . S
C298 N297 1.316 . S
C298 N300 1.347 . S
C298 H309 0.931 . S
C299 N297 1.375 . S
C299 C301 1.350 . S
C299 H308 0.930 . S
N300 C298 1.347 . S
N300 C301 1.373 . S
C301 C299 1.350 . S
C301 N300 1.373 . S
C301 H315 0.931 . S
C302 O305 1.256 1_556 S
C302 O306 1.255 . S
O303 Co286 2.021 . S
O303 C296 1.259 . S
O304 Co288 2.117 . S
O304 C296 1.258 1_554 S
O305 Co288 2.020 1_565 S
O305 C302 1.256 1_554 S
O306 Co286 2.062 1_565 S
O306 C302 1.255 . S
O307 C287 1.259 . S
O307 Co288 2.021 1_565 S
H308 C299 0.930 . S
H309 C298 0.931 . S
O310 Co286 2.117 1_564 S
O310 C287 1.258 . S
O311 Co286 2.020 . S
O311 C313 1.256 1_556 S
O312 Co288 2.062 . S
O312 C313 1.255 . S
C313 O311 1.256 1_554 S
C313 O312 1.255 . S
H314 C293 0.931 . S
H315 C301 0.931 . S
Co316 N321 2.057 . S
Co316 O333 2.021 . S
Co316 O336 2.062 . S
Co316 O340 2.117 . S
Co316 O341 2.020 . S
C317 O337 1.259 . S
C317 O340 1.258 . S
Co318 N327 2.057 . S
Co318 O334 2.117 . S
Co318 O335 2.020 . S
Co318 O337 2.021 . S
Co318 O342 2.062 . S
C319 N321 1.316 . S
C319 N322 1.347 . S
C319 H324 0.931 . S
C320 N321 1.375 . S
C320 C323 1.350 . S
C320 H325 0.930 . S
N321 Co316 2.057 . S
N321 C319 1.316 . S
N321 C320 1.375 . S
N322 C319 1.347 . S
N322 C323 1.373 . S
C323 C320 1.350 . S
C323 N322 1.373 . S
C323 H344 0.931 . S
H324 C319 0.931 . S
H325 C320 0.930 . S
C326 O333 1.259 . S
C326 O334 1.258 . S
N327 Co318 2.057 . S
N327 C328 1.316 . S
N327 C329 1.375 . S
C328 N327 1.316 . S
C328 N330 1.347 . S
C328 H339 0.931 . S
C329 N327 1.375 . S
C329 C331 1.350 . S
C329 H338 0.930 . S
N330 C328 1.347 . S
N330 C331 1.373 . S
C331 C329 1.350 . S
C331 N330 1.373 . S
C331 H345 0.931 . S
C332 O335 1.256 . S
C332 O336 1.255 . S
O333 Co316 2.021 . S
O333 C326 1.259 . S
O334 Co318 2.117 . S
O334 C326 1.258 . S
O335 Co318 2.020 . S
O335 C332 1.256 . S
O336 Co316 2.062 . S
O336 C332 1.255 . S
O337 C317 1.259 . S
O337 Co318 2.021 . S
H338 C329 0.930 . S
H339 C328 0.931 . S
O340 Co316 2.117 . S
O340 C317 1.258 . S
O341 Co316 2.020 . S
O341 C343 1.256 . S
O342 Co318 2.062 . S
O342 C343 1.255 . S
C343 O341 1.256 . S
C343 O342 1.255 . S
H344 C323 0.931 . S
H345 C331 0.931 . S
Co346 N351 2.057 . S
Co346 O363 2.021 . S
Co346 O366 2.062 . S
Co346 O370 2.117 1_455 S
Co346 O371 2.015 1_455 S
C347 O367 1.259 1_556 S
C347 O370 1.258 . S
Co348 N357 2.057 . S
Co348 O364 2.117 1_655 S
Co348 O365 2.020 1_655 S
Co348 O367 2.021 . S
Co348 O372 2.062 . S
C349 N351 1.316 . S
C349 N352 1.347 . S
C349 H354 0.931 . S
C350 N351 1.375 1_655 S
C350 C353 1.350 1_655 S
C350 H355 0.930 . S
N351 Co346 2.057 . S
N351 C349 1.316 . S
N351 C350 1.375 1_455 S
N352 C349 1.347 . S
N352 C353 1.373 . S
C353 C350 1.350 1_455 S
C353 N352 1.373 . S
C353 H374 0.931 1_455 S
H354 C349 0.931 . S
H355 C350 0.930 . S
C356 O363 1.259 1_554 S
C356 O364 1.258 . S
N357 Co348 2.057 . S
N357 C358 1.316 . S
N357 C359 1.375 1_655 S
C358 N357 1.316 . S
C358 N360 1.347 . S
C358 H369 0.931 . S
C359 N357 1.375 1_455 S
C359 C361 1.350 1_455 S
C359 H368 0.930 . S
N360 C358 1.347 . S
N360 C361 1.373 . S
C361 C359 1.350 1_655 S
C361 N360 1.373 . S
C361 H375 0.931 1_655 S
C362 O365 1.256 . S
C362 O366 1.255 1_554 S
O363 Co346 2.021 . S
O363 C356 1.259 1_556 S
O364 Co348 2.117 1_455 S
O364 C356 1.258 . S
O365 Co348 2.020 1_455 S
O365 C362 1.256 . S
O366 Co346 2.062 . S
O366 C362 1.255 1_556 S
O367 C347 1.259 1_554 S
O367 Co348 2.021 . S
H368 C359 0.930 . S
H369 C358 0.931 . S
O370 Co346 2.117 1_655 S
O370 C347 1.258 . S
O371 Co346 2.015 1_655 S
O371 C373 1.262 . S
O372 Co348 2.062 . S
O372 C373 1.255 1_554 S
C373 O371 1.262 . S
C373 O372 1.255 1_556 S
H374 C353 0.931 1_655 S
H375 C361 0.931 1_455 S
C376 C377 1.363 . S
C376 C382 1.379 . S
C376 N384 1.356 . S
C377 C376 1.363 . S
C377 C383 1.363 . S
C378 C379 1.363 . S
C378 C383 1.379 . S
C378 N385 1.356 1_545 S
C379 C378 1.363 . S
C379 C382 1.363 . S
N380 C382 1.356 . S
N380 H392 0.984 . S
N380 H393 0.985 . S
N381 C383 1.356 . S
N381 H386 0.984 . S
N381 H387 0.985 1_545 S
C382 C376 1.379 . S
C382 C379 1.363 . S
C382 N380 1.356 . S
C383 C377 1.363 . S
C383 C378 1.379 . S
C383 N381 1.356 . S
N384 C376 1.356 . S
N384 H390 0.984 . S
N384 H391 0.984 . S
N385 C378 1.356 1_565 S
N385 H388 0.984 . S
N385 H389 0.985 1_455 S
H386 N381 0.984 . S
H387 N381 0.985 1_565 S
H388 N385 0.984 . S
H389 N385 0.985 1_655 S
H390 N384 0.984 . S
H391 N384 0.984 . S
H392 N380 0.984 . S
H393 N380 0.985 . S
C394 C395 1.363 . S
C394 C400 1.379 . S
C394 N402 1.356 . S
C395 C394 1.363 . S
C395 C401 1.363 . S
C396 C397 1.363 . S
C396 C401 1.379 . S
C396 N403 1.356 . S
C397 C396 1.363 . S
C397 C400 1.363 . S
N398 C400 1.356 1_545 S
N398 H410 0.984 . S
N398 H411 0.985 . S
N399 C401 1.356 . S
N399 H404 0.984 . S
N399 H405 0.985 . S
C400 C394 1.379 . S
C400 C397 1.363 . S
C400 N398 1.356 1_565 S
C401 C395 1.363 . S
C401 C396 1.379 . S
C401 N399 1.356 . S
N402 C394 1.356 . S
N402 H408 0.984 . S
N402 H409 0.984 . S
N403 C396 1.356 . S
N403 H406 0.984 . S
N403 H407 0.985 . S
H404 N399 0.984 . S
H405 N399 0.985 . S
H406 N403 0.984 . S
H407 N403 0.985 . S
H408 N402 0.984 . S
H409 N402 0.984 . S
H410 N398 0.984 . S
H411 N398 0.985 . S
C412 C413 1.363 . S
C412 C418 1.379 . S
C412 N420 1.356 . S
C413 C412 1.363 . S
C413 C419 1.363 . S
C414 C415 1.363 . S
C414 C419 1.379 . S
C414 N421 1.356 . S
C415 C414 1.363 . S
C415 C418 1.363 . S
N416 C418 1.356 . S
N416 H428 0.984 . S
N416 H429 0.985 . S
N417 C419 1.356 . S
N417 H422 0.984 . S
N417 H423 0.985 . S
C418 C412 1.379 . S
C418 C415 1.363 . S
C418 N416 1.356 . S
C419 C413 1.363 . S
C419 C414 1.379 . S
C419 N417 1.356 . S
N420 C412 1.356 . S
N420 H426 0.984 . S
N420 H427 0.984 . S
N421 C414 1.356 . S
N421 H424 0.984 . S
N421 H425 0.985 . S
H422 N417 0.984 . S
H423 N417 0.985 . S
H424 N421 0.984 . S
H425 N421 0.985 . S
H426 N420 0.984 . S
H427 N420 0.984 . S
H428 N416 0.984 . S
H429 N416 0.985 . S
C430 C431 1.363 . S
C430 C436 1.379 . S
C430 N438 1.356 1_655 S
C431 C430 1.363 . S
C431 C437 1.363 . S
C432 C433 1.363 . S
C432 C437 1.379 . S
C432 N439 1.356 . S
C433 C432 1.363 . S
C433 C436 1.363 . S
N434 C436 1.356 . S
N434 H446 0.984 1_655 S
N434 H447 0.985 . S
N435 C437 1.356 . S
N435 H440 0.984 . S
N435 H441 0.985 . S
C436 C430 1.379 . S
C436 C433 1.363 . S
C436 N434 1.356 . S
C437 C431 1.363 . S
C437 C432 1.379 . S
C437 N435 1.356 . S
N438 C430 1.356 1_455 S
N438 H444 0.984 . S
N438 H445 0.984 . S
N439 C432 1.356 . S
N439 H442 0.984 . S
N439 H443 0.985 . S
H440 N435 0.984 . S
H441 N435 0.985 . S
H442 N439 0.984 . S
H443 N439 0.985 . S
H444 N438 0.984 . S
H445 N438 0.984 . S
H446 N434 0.984 1_455 S
H447 N434 0.985 . S
C448 C449 1.363 . S
C448 C454 1.379 . S
C448 N456 1.356 . S
C449 C448 1.363 . S
C449 C455 1.363 . S
C450 C451 1.363 . S
C450 C455 1.379 . S
C450 N457 1.350 1_554 S
C451 C450 1.363 . S
C451 C454 1.363 . S
N452 C454 1.356 . S
N452 H464 0.984 1_545 S
N452 H465 0.985 . S
N453 C455 1.356 . S
N453 H458 0.984 . S
N453 H459 0.985 1_554 S
C454 C448 1.379 . S
C454 C451 1.363 . S
C454 N452 1.356 . S
C455 C449 1.363 . S
C455 C450 1.379 . S
C455 N453 1.356 . S
N456 C448 1.356 . S
N456 H462 0.984 1_545 S
N456 H463 0.984 . S
N457 C450 1.350 1_556 S
N457 H460 0.985 . S
N457 H461 0.990 . S
H458 N453 0.984 . S
H459 N453 0.985 1_556 S
H460 N457 0.985 . S
H461 N457 0.990 . S
H462 N456 0.984 1_565 S
H463 N456 0.984 . S
H464 N452 0.984 1_565 S
H465 N452 0.985 . S
C466 C467 1.363 . S
C466 C472 1.379 . S
C466 N474 1.356 . S
C467 C466 1.363 . S
C467 C473 1.363 . S
C468 C469 1.363 . S
C468 C473 1.379 . S
C468 N475 1.356 . S
C469 C468 1.363 . S
C469 C472 1.363 . S
N470 C472 1.356 . S
N470 H482 0.984 1_565 S
N470 H483 0.985 . S
N471 C473 1.356 . S
N471 H476 0.984 . S
N471 H477 0.985 . S
C472 C466 1.379 . S
C472 C469 1.363 . S
C472 N470 1.356 . S
C473 C467 1.363 . S
C473 C468 1.379 . S
C473 N471 1.356 . S
N474 C466 1.356 . S
N474 H480 0.984 1_565 S
N474 H481 0.984 . S
N475 C468 1.356 . S
N475 H478 0.984 . S
N475 H479 0.985 . S
H476 N471 0.984 . S
H477 N471 0.985 . S
H478 N475 0.984 . S
H479 N475 0.985 . S
H480 N474 0.984 1_545 S
H481 N474 0.984 . S
H482 N470 0.984 1_545 S
H483 N470 0.985 . S
C484 C485 1.363 . S
C484 C490 1.379 . S
C484 N492 1.356 . S
C485 C484 1.363 . S
C485 C491 1.363 . S
C486 C487 1.363 . S
C486 C491 1.379 . S
C486 N493 1.356 1_556 S
C487 C486 1.363 . S
C487 C490 1.363 . S
N488 C490 1.356 . S
N488 H500 0.984 . S
N488 H501 0.985 . S
N489 C491 1.356 . S
N489 H494 0.984 . S
N489 H495 0.985 1_556 S
C490 C484 1.379 . S
C490 C487 1.363 . S
C490 N488 1.356 . S
C491 C485 1.363 . S
C491 C486 1.379 . S
C491 N489 1.356 . S
N492 C484 1.356 . S
N492 H498 0.984 . S
N492 H499 0.984 . S
N493 C486 1.356 1_554 S
N493 H496 0.984 . S
N493 H497 0.985 . S
H494 N489 0.984 . S
H495 N489 0.985 1_554 S
H496 N493 0.984 . S
H497 N493 0.985 . S
H498 N492 0.984 . S
H499 N492 0.984 . S
H500 N488 0.984 . S
H501 N488 0.985 . S
C502 C503 1.363 . S
C502 C508 1.379 . S
C502 N510 1.356 . S
C503 C502 1.363 . S
C503 C509 1.363 . S
C504 C505 1.363 . S
C504 C509 1.379 . S
C504 N511 1.356 . S
C505 C504 1.363 . S
C505 C508 1.363 . S
N506 C508 1.356 . S
N506 H518 0.984 . S
N506 H519 0.985 . S
N507 C509 1.356 . S
N507 H512 0.984 . S
N507 H513 0.985 . S
C508 C502 1.379 . S
C508 C505 1.363 . S
C508 N506 1.356 . S
C509 C503 1.363 . S
C509 C504 1.379 . S
C509 N507 1.356 . S
N510 C502 1.356 . S
N510 H516 0.984 . S
N510 H517 0.984 . S
N511 C504 1.356 . S
N511 H514 0.984 . S
N511 H515 0.985 . S
H512 N507 0.984 . S
H513 N507 0.985 . S
H514 N511 0.984 . S
H515 N511 0.985 . S
H516 N510 0.984 . S
H517 N510 0.984 . S
H518 N506 0.984 . S
H519 N506 0.985 . S
C520 C521 1.363 . S
C520 C526 1.379 . S
C520 N528 1.356 . S
C521 C520 1.363 . S
C521 C527 1.363 . S
C522 C523 1.363 . S
C522 C527 1.379 . S
C522 N529 1.356 1_455 S
C523 C522 1.363 . S
C523 C526 1.363 . S
N524 C526 1.356 . S
N524 H536 0.984 . S
N524 H537 0.985 . S
N525 C527 1.356 . S
N525 H530 0.984 . S
N525 H531 0.985 1_455 S
C526 C520 1.379 . S
C526 C523 1.363 . S
C526 N524 1.356 . S
C527 C521 1.363 . S
C527 C522 1.379 . S
C527 N525 1.356 . S
N528 C520 1.356 . S
N528 H534 0.984 . S
N528 H535 0.984 . S
N529 C522 1.356 1_655 S
N529 H532 0.984 . S
N529 H533 0.985 . S
H530 N525 0.984 . S
H531 N525 0.985 1_655 S
H532 N529 0.984 . S
H533 N529 0.985 . S
H534 N528 0.984 . S
H535 N528 0.984 . S
H536 N524 0.984 . S
H537 N524 0.985 . S
C538 C539 1.363 . S
C538 C544 1.379 . S
C538 N546 1.356 1_556 S
C539 C538 1.363 . S
C539 C545 1.363 . S
C540 C541 1.363 . S
C540 C545 1.379 . S
C540 N547 1.356 . S
C541 C540 1.363 . S
C541 C544 1.363 . S
N542 C544 1.356 1_554 S
N542 H554 0.984 . S
N542 H555 0.985 . S
N543 C545 1.356 . S
N543 H548 0.984 . S
N543 H549 0.985 . S
C544 C538 1.379 . S
C544 C541 1.363 . S
C544 N542 1.356 1_556 S
C545 C539 1.363 . S
C545 C540 1.379 . S
C545 N543 1.356 . S
N546 C538 1.356 1_554 S
N546 H552 0.984 . S
N546 H553 0.984 1_554 S
N547 C540 1.356 . S
N547 H550 0.984 . S
N547 H551 0.985 . S
H548 N543 0.984 . S
H549 N543 0.985 . S
H550 N547 0.984 . S
H551 N547 0.985 . S
H552 N546 0.984 . S
H553 N546 0.984 1_556 S
H554 N542 0.984 . S
H555 N542 0.985 . S
C556 C557 1.363 . S
C556 C562 1.379 . S
C556 N564 1.356 . S
C557 C556 1.363 . S
C557 C563 1.363 . S
C558 C559 1.363 . S
C558 C563 1.379 . S
C558 N565 1.356 1_655 S
C559 C558 1.363 . S
C559 C562 1.363 . S
N560 C562 1.356 . S
N560 H572 0.984 . S
N560 H573 0.985 . S
N561 C563 1.356 1_455 S
N561 H566 0.983 1_455 S
N561 H567 0.985 . S
C562 C556 1.379 . S
C562 C559 1.363 . S
C562 N560 1.356 . S
C563 C557 1.363 . S
C563 C558 1.379 . S
C563 N561 1.356 1_655 S
N564 C556 1.356 . S
N564 H570 0.984 . S
N564 H571 0.984 . S
N565 C558 1.356 1_455 S
N565 H568 0.984 . S
N565 H569 0.985 . S
H566 N561 0.983 1_655 S
H567 N561 0.985 . S
H568 N565 0.984 . S
H569 N565 0.985 . S
H570 N564 0.984 . S
H571 N564 0.984 . S
H572 N560 0.984 . S
H573 N560 0.985 . S
C574 C575 1.363 . S
C574 C580 1.379 . S
C574 N582 1.356 . S
C575 C574 1.363 . S
C575 C581 1.363 . S
C576 C577 1.363 . S
C576 C581 1.379 . S
C576 N583 1.356 . S
C577 C576 1.363 . S
C577 C580 1.363 . S
N578 C580 1.356 . S
N578 H590 0.984 . S
N578 H591 0.985 . S
N579 C581 1.356 . S
N579 H584 0.984 . S
N579 H585 0.985 . S
C580 C574 1.379 . S
C580 C577 1.363 . S
C580 N578 1.356 . S
C581 C575 1.363 . S
C581 C576 1.379 . S
C581 N579 1.356 . S
N582 C574 1.356 . S
N582 H588 0.984 . S
N582 H589 0.984 . S
N583 C576 1.356 . S
N583 H586 0.984 . S
N583 H587 0.985 . S
H584 N579 0.984 . S
H585 N579 0.985 . S
H586 N583 0.984 . S
H587 N583 0.985 . S
H588 N582 0.984 . S
H589 N582 0.984 . S
H590 N578 0.984 . S
H591 N578 0.985 . S
C592 C593 1.363 . S
C592 C598 1.379 . S
C592 N600 1.356 . S
C593 C592 1.363 . S
C593 C599 1.363 . S
C594 C595 1.357 1_545 S
C594 C599 1.378 1_545 S
C594 N601 1.362 . S
C595 C594 1.357 1_565 S
C595 C598 1.363 . S
N596 C598 1.356 . S
N596 H608 0.984 1_655 S
N596 H609 0.985 1_655 S
N597 C599 1.356 1_545 S
N597 H602 0.984 . S
N597 H603 0.985 . S
C598 C592 1.379 . S
C598 C595 1.363 . S
C598 N596 1.356 . S
C599 C593 1.363 . S
C599 C594 1.378 1_565 S
C599 N597 1.356 1_565 S
N600 C592 1.356 . S
N600 H606 0.984 . S
N600 H607 0.984 . S
N601 C594 1.362 . S
N601 H604 0.984 . S
N601 H605 0.985 . S
H602 N597 0.984 . S
H603 N597 0.985 . S
H604 N601 0.984 . S
H605 N601 0.985 . S
H606 N600 0.984 . S
H607 N600 0.984 . S
H608 N596 0.984 1_455 S
H609 N596 0.985 1_455 S
C610 C611 1.363 . S
C610 C616 1.379 . S
C610 N618 1.356 . S
C611 C610 1.363 . S
C611 C617 1.363 . S
C612 C613 1.363 . S
C612 C617 1.379 . S
C612 N619 1.356 . S
C613 C612 1.363 . S
C613 C616 1.363 . S
N614 C616 1.356 . S
N614 H626 0.984 1_545 S
N614 H627 0.985 . S
N615 C617 1.356 . S
N615 H620 0.984 . S
N615 H621 0.985 . S
C616 C610 1.379 . S
C616 C613 1.363 . S
C616 N614 1.356 . S
C617 C611 1.363 . S
C617 C612 1.379 . S
C617 N615 1.356 . S
N618 C610 1.356 . S
N618 H624 0.984 . S
N618 H625 0.984 . S
N619 C612 1.356 . S
N619 H622 0.984 . S
N619 H623 0.985 . S
H620 N615 0.984 . S
H621 N615 0.985 . S
H622 N619 0.984 . S
H623 N619 0.985 . S
H624 N618 0.984 . S
H625 N618 0.984 . S
H626 N614 0.984 1_565 S
H627 N614 0.985 . S
C628 C629 1.363 . S
C628 C634 1.379 . S
C628 N636 1.356 . S
C629 C628 1.363 . S
C629 C635 1.363 . S
C630 C631 1.363 . S
C630 C635 1.379 . S
C630 N637 1.356 . S
C631 C630 1.363 . S
C631 C634 1.363 . S
N632 C634 1.356 . S
N632 H644 0.984 . S
N632 H645 0.985 . S
N633 C635 1.356 . S
N633 H638 0.984 . S
N633 H639 0.985 . S
C634 C628 1.379 . S
C634 C631 1.363 . S
C634 N632 1.356 . S
C635 C629 1.363 . S
C635 C630 1.379 . S
C635 N633 1.356 . S
N636 C628 1.356 . S
N636 H642 0.984 . S
N636 H643 0.984 . S
N637 C630 1.356 . S
N637 H640 0.984 . S
N637 H641 0.985 . S
H638 N633 0.984 . S
H639 N633 0.985 . S
H640 N637 0.984 . S
H641 N637 0.985 . S
H642 N636 0.984 . S
H643 N636 0.984 . S
H644 N632 0.984 . S
H645 N632 0.985 . S
C646 C647 1.363 . S
C646 C652 1.379 . S
C646 N654 1.356 . S
C647 C646 1.363 . S
C647 C653 1.363 . S
C648 C649 1.363 . S
C648 C653 1.379 . S
C648 N655 1.356 . S
C649 C648 1.363 . S
C649 C652 1.363 . S
N650 C652 1.356 . S
N650 H662 0.984 . S
N650 H663 0.985 . S
N651 C653 1.356 . S
N651 H656 0.984 . S
N651 H657 0.985 1_455 S
C652 C646 1.379 . S
C652 C649 1.363 . S
C652 N650 1.356 . S
C653 C647 1.363 . S
C653 C648 1.379 . S
C653 N651 1.356 . S
N654 C646 1.356 . S
N654 H660 0.984 . S
N654 H661 0.984 . S
N655 C648 1.356 . S
N655 H658 0.984 . S
N655 H659 0.985 . S
H656 N651 0.984 . S
H657 N651 0.985 1_655 S
H658 N655 0.984 . S
H659 N655 0.985 . S
H660 N654 0.984 . S
H661 N654 0.984 . S
H662 N650 0.984 . S
H663 N650 0.985 . S
C664 C665 1.363 . S
C664 C670 1.379 . S
C664 N672 1.356 . S
C665 C664 1.363 . S
C665 C671 1.363 . S
C666 C667 1.363 1_545 S
C666 C671 1.379 1_545 S
C666 N673 1.356 . S
C667 C666 1.363 1_565 S
C667 C670 1.363 . S
N668 C670 1.357 1_554 S
N668 H680 0.984 . S
N668 H681 0.984 . S
N669 C671 1.356 1_545 S
N669 H674 0.984 . S
N669 H675 0.985 . S
C670 C664 1.379 . S
C670 C667 1.363 . S
C670 N668 1.357 1_556 S
C671 C665 1.363 . S
C671 C666 1.379 1_565 S
C671 N669 1.356 1_565 S
N672 C664 1.356 . S
N672 H678 0.984 . S
N672 H679 0.984 . S
N673 C666 1.356 . S
N673 H676 0.984 . S
N673 H677 0.985 . S
H674 N669 0.984 . S
H675 N669 0.985 . S
H676 N673 0.984 . S
H677 N673 0.985 . S
H678 N672 0.984 . S
H679 N672 0.984 . S
H680 N668 0.984 . S
H681 N668 0.984 . S
C682 C683 1.363 . S
C682 C688 1.379 . S
C682 N690 1.356 . S
C683 C682 1.363 . S
C683 C689 1.363 . S
C684 C685 1.363 . S
C684 C689 1.379 . S
C684 N691 1.356 . S
C685 C684 1.363 . S
C685 C688 1.363 . S
N686 C688 1.356 . S
N686 H698 0.984 . S
N686 H699 0.985 . S
N687 C689 1.356 . S
N687 H692 0.984 . S
N687 H693 0.985 . S
C688 C682 1.379 . S
C688 C685 1.363 . S
C688 N686 1.356 . S
C689 C683 1.363 . S
C689 C684 1.379 . S
C689 N687 1.356 . S
N690 C682 1.356 . S
N690 H696 0.984 . S
N690 H697 0.984 . S
N691 C684 1.356 . S
N691 H694 0.984 . S
N691 H695 0.985 . S
H692 N687 0.984 . S
H693 N687 0.985 . S
H694 N691 0.984 . S
H695 N691 0.985 . S
H696 N690 0.984 . S
H697 N690 0.984 . S
H698 N686 0.984 . S
H699 N686 0.985 . S
C700 C701 1.363 . S
C700 C706 1.379 . S
C700 N708 1.356 . S
C701 C700 1.363 . S
C701 C707 1.363 . S
C702 C703 1.363 . S
C702 C707 1.379 . S
C702 N709 1.356 . S
C703 C702 1.363 . S
C703 C706 1.363 . S
N704 C706 1.356 . S
N704 H716 0.984 . S
N704 H717 0.985 . S
N705 C707 1.356 . S
N705 H710 0.984 . S
N705 H711 0.985 . S
C706 C700 1.379 . S
C706 C703 1.363 . S
C706 N704 1.356 . S
C707 C701 1.363 . S
C707 C702 1.379 . S
C707 N705 1.356 . S
N708 C700 1.356 . S
N708 H714 0.984 . S
N708 H715 0.984 . S
N709 C702 1.356 . S
N709 H712 0.984 . S
N709 H713 0.985 . S
H710 N705 0.984 . S
H711 N705 0.985 . S
H712 N709 0.984 . S
H713 N709 0.985 . S
H714 N708 0.984 . S
H715 N708 0.984 . S
H716 N704 0.984 . S
H717 N704 0.985 . S
C718 C719 1.363 . S
C718 C724 1.379 . S
C718 N726 1.356 . S
C719 C718 1.363 . S
C719 C725 1.363 . S
C720 C721 1.363 . S
C720 C725 1.379 . S
C720 N727 1.356 . S
C721 C720 1.363 . S
C721 C724 1.363 . S
N722 C724 1.356 . S
N722 H734 0.984 . S
N722 H735 0.985 . S
N723 C725 1.356 . S
N723 H728 0.984 . S
N723 H729 0.985 . S
C724 C718 1.379 . S
C724 C721 1.363 . S
C724 N722 1.356 . S
C725 C719 1.363 . S
C725 C720 1.379 . S
C725 N723 1.356 . S
N726 C718 1.356 . S
N726 H732 0.984 . S
N726 H733 0.984 . S
N727 C720 1.356 . S
N727 H730 0.984 . S
N727 H731 0.985 . S
H728 N723 0.984 . S
H729 N723 0.985 . S
H730 N727 0.984 . S
H731 N727 0.985 . S
H732 N726 0.984 . S
H733 N726 0.984 . S
H734 N722 0.984 . S
H735 N722 0.985 . S
C736 C737 1.363 . S
C736 C742 1.379 1_556 S
C736 N744 1.356 1_556 S
C737 C736 1.363 . S
C737 C743 1.363 . S
C738 C739 1.363 . S
C738 C743 1.379 . S
C738 N745 1.356 . S
C739 C738 1.363 . S
C739 C742 1.363 1_556 S
N740 C742 1.356 1_455 S
N740 H752 0.984 . S
N740 H753 0.985 . S
N741 C743 1.356 . S
N741 H746 0.984 . S
N741 H747 0.985 . S
C742 C736 1.379 1_554 S
C742 C739 1.363 1_554 S
C742 N740 1.356 1_655 S
C743 C737 1.363 . S
C743 C738 1.379 . S
C743 N741 1.356 . S
N744 C736 1.356 1_554 S
N744 H750 0.984 . S
N744 H751 0.984 . S
N745 C738 1.356 . S
N745 H748 0.984 . S
N745 H749 0.985 . S
H746 N741 0.984 . S
H747 N741 0.985 . S
H748 N745 0.984 . S
H749 N745 0.985 . S
H750 N744 0.984 . S
H751 N744 0.984 . S
H752 N740 0.984 . S
H753 N740 0.985 . S
C754 C755 1.363 . S
C754 C760 1.379 . S
C754 N762 1.356 . S
C755 C754 1.363 . S
C755 C761 1.363 . S
C756 C757 1.363 . S
C756 C761 1.379 . S
C756 N763 1.356 . S
C757 C756 1.363 . S
C757 C760 1.363 . S
N758 C760 1.356 . S
N758 H770 0.984 1_554 S
N758 H771 0.985 . S
N759 C761 1.356 . S
N759 H764 0.984 . S
N759 H765 0.985 . S
C760 C754 1.379 . S
C760 C757 1.363 . S
C760 N758 1.356 . S
C761 C755 1.363 . S
C761 C756 1.379 . S
C761 N759 1.356 . S
N762 C754 1.356 . S
N762 H768 0.984 . S
N762 H769 0.984 . S
N763 C756 1.356 . S
N763 H766 0.984 . S
N763 H767 0.985 . S
H764 N759 0.984 . S
H765 N759 0.985 . S
H766 N763 0.984 . S
H767 N763 0.985 . S
H768 N762 0.984 . S
H769 N762 0.984 . S
H770 N758 0.984 1_556 S
H771 N758 0.985 . S
C772 C773 1.363 . S
C772 C778 1.379 . S
C772 N780 1.356 . S
C773 C772 1.363 . S
C773 C779 1.363 . S
C774 C775 1.363 . S
C774 C779 1.379 . S
C774 N781 1.356 . S
C775 C774 1.363 . S
C775 C778 1.363 . S
N776 C778 1.356 . S
N776 H788 0.984 . S
N776 H789 0.985 . S
N777 C779 1.356 . S
N777 H782 0.984 . S
N777 H783 0.985 1_455 S
C778 C772 1.379 . S
C778 C775 1.363 . S
C778 N776 1.356 . S
C779 C773 1.363 . S
C779 C774 1.379 . S
C779 N777 1.356 . S
N780 C772 1.356 . S
N780 H786 0.984 . S
N780 H787 0.984 . S
N781 C774 1.356 . S
N781 H784 0.984 . S
N781 H785 0.985 1_455 S
H782 N777 0.984 . S
H783 N777 0.985 1_655 S
H784 N781 0.984 . S
H785 N781 0.985 1_655 S
H786 N780 0.984 . S
H787 N780 0.984 . S
H788 N776 0.984 . S
H789 N776 0.985 . S
C790 C791 1.363 . S
C790 C796 1.379 . S
C790 N798 1.356 . S
C791 C790 1.363 . S
C791 C797 1.363 . S
C792 C793 1.363 . S
C792 C797 1.379 . S
C792 N799 1.356 . S
C793 C792 1.363 . S
C793 C796 1.363 . S
N794 C796 1.356 . S
N794 H806 0.984 . S
N794 H807 0.985 . S
N795 C797 1.356 . S
N795 H800 0.984 . S
N795 H801 0.985 . S
C796 C790 1.379 . S
C796 C793 1.363 . S
C796 N794 1.356 . S
C797 C791 1.363 . S
C797 C792 1.379 . S
C797 N795 1.356 . S
N798 C790 1.356 . S
N798 H804 0.984 . S
N798 H805 0.984 . S
N799 C792 1.356 . S
N799 H802 0.984 . S
N799 H803 0.985 . S
H800 N795 0.984 . S
H801 N795 0.985 . S
H802 N799 0.984 . S
H803 N799 0.985 . S
H804 N798 0.984 . S
H805 N798 0.984 . S
H806 N794 0.984 . S
H807 N794 0.985 . S
C377 C29 2.062 . S
C379 C272 2.195 . S
C395 C49 1.147 . S
C397 N292 1.129 . S
C415 C326 2.039 . S
C413 C93 1.919 . S
C431 C119 1.239 . S
C433 N360 1.239 . S
C451 C313 2.284 . S
C449 C17 2.174 . S
C469 N270 1.211 . S
C467 C61 1.311 . S
C487 C347 2.035 . S
C485 C81 1.930 . S
C505 N322 1.136 . S
C503 C125 1.029 . S
C521 C23 1.692 . S
C523 C362 1.800 . S
C541 C296 1.715 . S
C539 C87 1.608 . S
C557 C113 1.377 . S
C559 C257 1.498 . S
C575 C55 1.457 . S
C577 C343 1.444 . S
C595 C283 2.139 . S
C593 C157 2.131 . S
C611 C189 1.113 . S
C613 N300 1.178 . S
C629 C221 2.015 . S
C631 C317 2.011 . S
C647 C253 1.257 . S
C649 N352 1.289 . S
C665 C145 2.324 . S
C667 C302 2.320 . S
C685 N262 1.152 . S
C683 C183 1.124 . S
C703 C356 2.058 . S
C701 C209 2.046 . S
C721 N330 1.087 . S
C719 C247 1.004 . S
C737 C151 1.818 . S
C739 C373 1.815 . S
C757 C287 1.723 . S
C755 C215 1.732 . S
C775 C266 1.499 . S
C773 C241 1.368 . S
C791 C177 1.367 . S
C793 C332 1.479 . S
