# Generated by pormake.
# Topology pth, (4,4)-cn, num edge types: 1
# Building blocks:
#     Node 0, Type 0, BuildingBlock: CEKHIL_clean_sbu_0, # of connection points: 4
#     Node 1, Type 0, BuildingBlock: CEKHIL_clean_sbu_0, # of connection points: 4
#     Node 2, Type 0, BuildingBlock: CEKHIL_clean_sbu_0, # of connection points: 4
#     Node 3, Type 1, BuildingBlock: MUDLON_clean_linker_0, # of connection points: 4
#     Node 4, Type 1, BuildingBlock: MUDLON_clean_linker_0, # of connection points: 4
#     Node 5, Type 1, BuildingBlock: MUDLON_clean_linker_0, # of connection points: 4
#     Edge 6, Type (0, 1), BuildingBlock: AJUNOK_clean_linker_0, # of connection points: 2
#     Edge 7, Type (0, 1), BuildingBlock: AJUNOK_clean_linker_0, # of connection points: 2
#     Edge 8, Type (0, 1), BuildingBlock: AJUNOK_clean_linker_0, # of connection points: 2
#     Edge 9, Type (0, 1), BuildingBlock: AJUNOK_clean_linker_0, # of connection points: 2
#     Edge 10, Type (0, 1), BuildingBlock: AJUNOK_clean_linker_0, # of connection points: 2
#     Edge 11, Type (0, 1), BuildingBlock: AJUNOK_clean_linker_0, # of connection points: 2
#     Edge 12, Type (0, 1), BuildingBlock: AJUNOK_clean_linker_0, # of connection points: 2
#     Edge 13, Type (0, 1), BuildingBlock: AJUNOK_clean_linker_0, # of connection points: 2
#     Edge 14, Type (0, 1), BuildingBlock: AJUNOK_clean_linker_0, # of connection points: 2
#     Edge 15, Type (0, 1), BuildingBlock: AJUNOK_clean_linker_0, # of connection points: 2
#     Edge 16, Type (0, 1), BuildingBlock: AJUNOK_clean_linker_0, # of connection points: 2
#     Edge 17, Type (0, 1), BuildingBlock: AJUNOK_clean_linker_0, # of connection points: 2
# Relax obj value: 0.037
# Max RMSD: 0.091
# Mean RMSD: 0.088
data_MOF--net-pth--node1-CEKHIL_clean_sbu_0--node2-MUDLON_clean_linker_0--edge1-AJUNOK_clean_linker_0
_symmetry_space_group_name_H-M    P1
_symmetry_Int_Tables_number       1
_symmetry_cell_setting            triclinic
loop_
_symmetry_equiv_pos_as_xyz
'x, y, z'
_cell_length_a     26.756093
_cell_length_b     26.849796
_cell_length_c     54.973507
_cell_angle_alpha  90.899
_cell_angle_beta   89.975155
_cell_angle_gamma 120.35847
loop_
_atom_site_label
_atom_site_type_symbol
_atom_site_fract_x
_atom_site_fract_y
_atom_site_fract_z
_atom_type_partial_charge
Co0 Co 0.00596 0.02998 0.05478 0.0
O1 O 0.96786 0.97188 0.07885 0.0
O2 O 0.04147 0.98219 0.05685 0.0
C3 C 0.01447 0.1031 0.07874 0.0
O4 O 0.05738 0.08667 0.02888 0.0
Co5 Co 0.94763 0.09462 0.03501 0.0
O6 O 0.02544 0.14806 0.02169 0.0
C7 C 0.90761 0.97609 0.01728 0.0
C8 C 0.00431 0.95488 0.07399 0.0
C9 C 0.0631 0.13269 0.01921 0.0
O10 O 0.94961 0.97681 0.029 0.0
O11 O 0.89663 0.01727 0.01869 0.0
O12 O 0.0523 0.08654 0.07986 0.0
O13 O 0.97034 0.07254 0.06457 0.0
Co14 Co 0.00432 0.01574 0.3693 0.0
O15 O 0.96813 0.03722 0.34475 0.0
O16 O 0.04002 0.09941 0.36846 0.0
C17 C 0.01407 0.95278 0.34455 0.0
O18 O 0.05408 0.00895 0.39589 0.0
Co19 Co 0.94456 0.89036 0.38677 0.0
O20 O 0.02142 0.9147 0.40142 0.0
C21 C 0.90343 0.96732 0.40488 0.0
C22 C 0.00482 0.09056 0.35039 0.0
C23 C 0.05876 0.96774 0.40526 0.0
O24 O 0.94611 0.00999 0.3942 0.0
O25 O 0.89279 0.91527 0.40272 0.0
O26 O 0.05191 0.00753 0.34461 0.0
O27 O 0.96962 0.93819 0.35828 0.0
Co28 Co 0.00382 0.03357 0.70357 0.0
O29 O 0.05976 0.07622 0.67902 0.0
O30 O 0.05579 0.00343 0.69878 0.0
C31 C 0.92784 0.02273 0.68101 0.0
O32 O 0.95061 0.97746 0.72931 0.0
Co33 Co 0.93056 0.07877 0.72743 0.0
O34 O 0.88086 0.99798 0.73792 0.0
C35 C 0.05163 0.12523 0.74409 0.0
C36 C 0.07948 0.04142 0.68174 0.0
C37 C 0.90209 0.96507 0.73921 0.0
O38 O 0.05596 0.08936 0.72968 0.0
O39 O 0.0062 0.12973 0.74496 0.0
O40 O 0.94758 0.9877 0.67837 0.0
O41 O 0.95619 0.06498 0.69639 0.0
H42 H 0.90397 0.7059 0.2263 0.0
N43 N 0.98597 0.69354 0.20476 0.0
H44 H 0.9139 0.76597 0.26209 0.0
H45 H 0.08401 0.75611 0.23275 0.0
H46 H 0.09366 0.81398 0.269 0.0
H47 H 0.0836 0.79119 0.19006 0.0
H48 H 0.09099 0.84871 0.15462 0.0
H49 H 0.90931 0.66397 0.16892 0.0
H50 H 0.91693 0.72002 0.13295 0.0
H51 H 0.91092 0.58228 0.21019 0.0
H52 H 0.09243 0.70326 0.20059 0.0
H53 H 0.93095 0.50337 0.21273 0.0
H54 H 0.11404 0.62574 0.20506 0.0
H55 H 0.96665 0.28456 0.23309 0.0
H56 H 0.94627 0.22366 0.26859 0.0
H57 H 0.12748 0.32053 0.28892 0.0
H58 H 0.14633 0.38366 0.25431 0.0
H59 H 0.13773 0.33051 0.20247 0.0
H60 H 0.11997 0.26781 0.167 0.0
H61 H 0.96526 0.27401 0.15038 0.0
H62 H 0.98095 0.33273 0.18716 0.0
H63 H 0.98549 0.38264 0.24166 0.0
H64 H 0.96753 0.46166 0.23794 0.0
H65 H 0.10994 0.54462 0.18771 0.0
N66 N 0.0726 0.37192 0.21917 0.0
H67 H 0.13031 0.46648 0.19291 0.0
C68 C 0.99293 0.72629 0.22682 0.0
C69 C 0.94537 0.72924 0.23565 0.0
C70 C 0.95109 0.76331 0.25614 0.0
C71 C 0.00473 0.7952 0.26825 0.0
C72 C 0.05207 0.79092 0.25978 0.0
C73 C 0.04642 0.75724 0.23913 0.0
C74 C 0.99543 0.72362 0.18223 0.0
C75 C 0.04747 0.77494 0.17746 0.0
C76 C 0.05181 0.80752 0.15704 0.0
C77 C 0.00448 0.78894 0.14096 0.0
C78 C 0.95396 0.73572 0.14508 0.0
C79 C 0.94954 0.70356 0.16553 0.0
C80 C 1.00007 0.64849 0.20562 0.0
C81 C 0.95526 0.59171 0.20892 0.0
C82 C 0.96704 0.5468 0.21064 0.0
C83 C 0.02437 0.55784 0.20952 0.0
C84 C 0.0693 0.6151 0.20582 0.0
C85 C 0.05718 0.65986 0.2036 0.0
C86 C 0.05798 0.33934 0.24132 0.0
C87 C 1.00154 0.29376 0.24566 0.0
C88 C 0.99013 0.25869 0.26587 0.0
C89 C 0.03513 0.26725 0.28182 0.0
C90 C 0.09135 0.31358 0.2776 0.0
C91 C 0.10241 0.34945 0.25767 0.0
C92 C 0.06121 0.33677 0.1974 0.0
C93 C 0.0999 0.31808 0.19119 0.0
C94 C 0.0898 0.28257 0.17078 0.0
C95 C 0.04105 0.26553 0.15571 0.0
C96 C 0.00247 0.28493 0.1618 0.0
C97 C 0.01186 0.31934 0.18267 0.0
C98 C 0.05999 0.41834 0.21765 0.0
C99 C 0.01348 0.41765 0.22998 0.0
C100 C 0.00266 0.46313 0.22759 0.0
C101 C 0.03695 0.50991 0.21239 0.0
C102 C 0.0831 0.51019 0.19995 0.0
C103 C 0.09462 0.46524 0.20274 0.0
H104 H 0.80657 0.13555 0.56211 0.0
N105 N 0.70812 0.05729 0.54091 0.0
H106 H 0.85264 0.12447 0.59855 0.0
H107 H 0.66161 0.96344 0.57099 0.0
H108 H 0.70648 0.95278 0.60761 0.0
H109 H 0.70139 0.95368 0.53089 0.0
H110 H 0.74419 0.93154 0.49623 0.0
H111 H 0.75787 0.12248 0.50247 0.0
H112 H 0.79846 0.09959 0.46691 0.0
H113 H 0.67632 0.1359 0.54496 0.0
H114 H 0.60754 0.95304 0.53585 0.0
H115 H 0.57824 0.12055 0.545 0.0
H116 H 0.50927 0.93636 0.53773 0.0
H117 H 0.3187 0.08854 0.56225 0.0
H118 H 0.27619 0.1091 0.59759 0.0
H119 H 0.18932 0.92881 0.61633 0.0
H120 H 0.23573 0.90969 0.58187 0.0
H121 H 0.20426 0.89823 0.52757 0.0
H122 H 0.15344 0.90175 0.49127 0.0
H123 H 0.28523 0.08015 0.48159 0.0
H124 H 0.33542 0.07626 0.51845 0.0
H125 H 0.39837 0.07213 0.56998 0.0
H126 H 0.4957 0.08838 0.56793 0.0
H127 H 0.43702 0.94322 0.51787 0.0
N128 N 0.30036 0.98284 0.54763 0.0
H129 H 0.33826 0.92475 0.52138 0.0
C130 C 0.73077 0.05066 0.56371 0.0
C131 C 0.7843 0.0958 0.57213 0.0
C132 C 0.81039 0.08944 0.59296 0.0
C133 C 0.78342 0.03752 0.6058 0.0
C134 C 0.72879 0.9929 0.59784 0.0
C135 C 0.70281 0.99923 0.57694 0.0
C136 C 0.72694 0.04017 0.51938 0.0
C137 C 0.72203 0.98564 0.51696 0.0
C138 C 0.74607 0.97277 0.49692 0.0
C139 C 0.77445 0.01364 0.47863 0.0
C140 C 0.77732 0.06731 0.48073 0.0
C141 C 0.75389 0.08035 0.50091 0.0
C142 C 0.64934 0.04582 0.54076 0.0
C143 C 0.63983 0.09232 0.54327 0.0
C144 C 0.58357 0.08325 0.54351 0.0
C145 C 0.53517 0.02704 0.54163 0.0
C146 C 0.54505 0.98037 0.53892 0.0
C147 C 0.60147 0.9897 0.5382 0.0
C148 C 0.28076 0.99753 0.56959 0.0
C149 C 0.29164 0.05376 0.5743 0.0
C150 C 0.26657 0.06524 0.59435 0.0
C151 C 0.22814 0.02033 0.60952 0.0
C152 C 0.21885 0.96449 0.60515 0.0
C153 C 0.2451 0.95338 0.58543 0.0
C154 C 0.27337 0.98672 0.52561 0.0
C155 C 0.22218 0.93797 0.51755 0.0
C156 C 0.19342 0.94011 0.49679 0.0
C157 C 0.21525 0.99127 0.48354 0.0
C158 C 0.26692 0.04035 0.49158 0.0
C159 C 0.29578 0.03814 0.51251 0.0
C160 C 0.36002 0.99663 0.54587 0.0
C161 C 0.40575 0.04348 0.55855 0.0
C162 C 0.46224 0.05319 0.55718 0.0
C163 C 0.47491 0.01717 0.54274 0.0
C164 C 0.42925 0.97126 0.52964 0.0
C165 C 0.37265 0.96094 0.53139 0.0
H166 H 0.70796 0.7864 0.88994 0.0
N167 N 0.72017 0.69353 0.87764 0.0
H168 H 0.7496 0.84992 0.92524 0.0
H169 H 0.77524 0.68037 0.91514 0.0
H170 H 0.81416 0.7421 0.9517 0.0
H171 H 0.81224 0.70888 0.85297 0.0
H172 H 0.8528 0.7649 0.81608 0.0
H173 H 0.67347 0.74594 0.85142 0.0
H174 H 0.71642 0.80667 0.81607 0.0
H175 H 0.62016 0.68027 0.89817 0.0
H176 H 0.6896 0.5935 0.85556 0.0
H177 H 0.52676 0.59121 0.8996 0.0
H178 H 0.5953 0.5055 0.85509 0.0
H179 H 0.25518 0.34593 0.89826 0.0
H180 H 0.19418 0.30361 0.9338 0.0
H181 H 0.28976 0.21851 0.95142 0.0
H182 H 0.34859 0.25881 0.91494 0.0
H183 H 0.31415 0.22686 0.85731 0.0
H184 H 0.24957 0.18264 0.82206 0.0
H185 H 0.21964 0.32625 0.82055 0.0
H186 H 0.28275 0.36916 0.85606 0.0
H187 H 0.35075 0.43101 0.88365 0.0
H188 H 0.44176 0.52267 0.88084 0.0
H189 H 0.53511 0.42986 0.87885 0.0
N190 N 0.33752 0.32285 0.88139 0.0
H191 H 0.44345 0.33885 0.87949 0.0
C192 C 0.73924 0.7288 0.89961 0.0
C193 C 0.73109 0.77622 0.90318 0.0
C194 C 0.75421 0.81219 0.92374 0.0
C195 C 0.78477 0.80089 0.94155 0.0
C196 C 0.79121 0.75233 0.93829 0.0
C197 C 0.76877 0.71683 0.91752 0.0
C198 C 0.74056 0.72404 0.85512 0.0
C199 C 0.7907 0.72936 0.84464 0.0
C200 C 0.81395 0.76172 0.82366 0.0
C201 C 0.78803 0.79047 0.81289 0.0
C202 C 0.73693 0.78408 0.82328 0.0
C203 C 0.71282 0.75028 0.84388 0.0
C204 C 0.6626 0.64333 0.87715 0.0
C205 C 0.61529 0.64225 0.88888 0.0
C206 C 0.56135 0.59106 0.88945 0.0
C207 C 0.55301 0.54017 0.87779 0.0
C208 C 0.59995 0.54271 0.86505 0.0
C209 C 0.65397 0.59333 0.865 0.0
C210 C 0.30621 0.3051 0.9039 0.0
C211 C 0.2634 0.31869 0.90988 0.0
C212 C 0.22889 0.29483 0.93042 0.0
C213 C 0.23728 0.25789 0.94565 0.0
C214 C 0.2818 0.24638 0.94003 0.0
C215 C 0.31572 0.26964 0.91934 0.0
C216 C 0.30378 0.3014 0.85926 0.0
C217 C 0.2943 0.24912 0.84909 0.0
C218 C 0.25772 0.22417 0.82887 0.0
C219 C 0.23 0.25131 0.81831 0.0
C220 C 0.24037 0.30432 0.82828 0.0
C221 C 0.27683 0.32912 0.84856 0.0
C222 C 0.39035 0.37798 0.88107 0.0
C223 C 0.39075 0.4305 0.88205 0.0
C224 C 0.44323 0.48313 0.88084 0.0
C225 C 0.4965 0.48437 0.87926 0.0
C226 C 0.49543 0.43131 0.87919 0.0
C227 C 0.44304 0.37898 0.87984 0.0
C228 C 0.07235 0.1963 0.1013 0.0
C229 C 0.01805 0.14814 0.09562 0.0
C230 C 0.07866 0.23548 0.11987 0.0
C231 C 0.03115 0.22721 0.13402 0.0
H232 H 0.11054 0.20318 0.0916 0.0
H233 H 0.12157 0.27185 0.12354 0.0
S234 S 0.87934 0.10683 0.12623 0.0
N235 N 0.91547 0.0948 0.10483 0.0
N236 N 0.92743 0.16648 0.14065 0.0
C237 C 0.97615 0.17974 0.12802 0.0
C238 C 0.96961 0.14063 0.10863 0.0
C239 C 0.89174 0.03349 0.43393 0.0
C240 C 0.86754 0.97946 0.42191 0.0
C241 C 0.86091 0.0444 0.45183 0.0
C242 C 0.80434 0.00197 0.4583 0.0
H243 H 0.93571 0.06707 0.43015 0.0
H244 H 0.88239 0.08593 0.4612 0.0
S245 S 0.71839 0.85596 0.42998 0.0
N246 N 0.78179 0.88454 0.41638 0.0
N247 N 0.72338 0.90564 0.44952 0.0
C248 C 0.77867 0.94862 0.44566 0.0
C249 C 0.81031 0.93726 0.4276 0.0
C250 C 0.90511 0.90776 0.77386 0.0
C251 C 0.87317 0.91502 0.75542 0.0
C252 C 0.87734 0.86649 0.79195 0.0
C253 C 0.81656 0.83005 0.79206 0.0
H254 H 0.95162 0.93625 0.77508 0.0
H255 H 0.90371 0.8649 0.80651 0.0
S256 S 0.71469 0.82633 0.74515 0.0
N257 N 0.77862 0.87977 0.73693 0.0
N258 N 0.72645 0.79982 0.76999 0.0
C259 C 0.78465 0.83473 0.77271 0.0
C260 C 0.81293 0.87772 0.75464 0.0
C261 C 0.95734 0.87677 0.10429 0.0
C262 C 0.00421 0.90883 0.08867 0.0
C263 C 0.95746 0.8372 0.12048 0.0
C264 C 0.00452 0.8278 0.12189 0.0
H265 H 0.92044 0.88312 0.10448 0.0
H266 H 0.92104 0.8152 0.13262 0.0
S267 S 0.13633 0.89724 0.08381 0.0
N268 N 0.09794 0.92624 0.07475 0.0
N269 N 0.09798 0.85127 0.10525 0.0
C270 C 0.05103 0.85809 0.10588 0.0
C271 C 0.05082 0.89851 0.08921 0.0
C272 C 0.12458 0.94044 0.42566 0.0
C273 C 0.10639 0.98089 0.42276 0.0
C274 C 0.16223 0.94602 0.44456 0.0
C275 C 0.18309 0.99207 0.46155 0.0
H276 H 0.10816 0.903 0.41362 0.0
H277 H 0.17368 0.91287 0.44634 0.0
S278 S 0.15126 0.11153 0.46141 0.0
N279 N 0.11478 0.07054 0.43773 0.0
N280 N 0.18491 0.08051 0.47359 0.0
C281 C 0.16767 0.0345 0.45821 0.0
C282 C 0.12949 0.02903 0.43875 0.0
C283 C 0.08984 0.18777 0.7817 0.0
C284 C 0.09974 0.16063 0.76163 0.0
C285 C 0.13256 0.21791 0.79954 0.0
C286 C 0.18719 0.22246 0.79812 0.0
H287 H 0.04812 0.18454 0.7841 0.0
H288 H 0.122 0.23638 0.81498 0.0
S289 S 0.23793 0.16482 0.74816 0.0
N290 N 0.1703 0.1439 0.74066 0.0
N291 N 0.25063 0.20116 0.77412 0.0
C292 C 0.19858 0.19732 0.7778 0.0
C293 C 0.15496 0.16639 0.7596 0.0
C294 C 0.87476 0.06843 0.66318 0.0
C295 C 0.88421 0.02142 0.6639 0.0
C296 C 0.84056 0.07242 0.64482 0.0
C297 C 0.81404 0.02934 0.62659 0.0
H298 H 0.89568 0.10359 0.67635 0.0
H299 H 0.8358 0.11015 0.64461 0.0
S300 S 0.82201 0.89559 0.62106 0.0
N301 N 0.86131 0.92915 0.64547 0.0
N302 N 0.79782 0.93713 0.6109 0.0
C303 C 0.82108 0.98093 0.62768 0.0
C304 C 0.85593 0.97685 0.64635 0.0
C305 C 0.89972 0.90055 0.98768 0.0
C306 C 0.87329 0.92762 0.99987 0.0
C307 C 0.87032 0.85872 0.96933 0.0
C308 C 0.81297 0.84165 0.9626 0.0
H309 H 0.94433 0.91337 0.99165 0.0
H310 H 0.89353 0.84112 0.95979 0.0
S311 S 0.72145 0.89325 0.99147 0.0
N312 N 0.78483 0.93083 1.00539 0.0
N313 N 0.72887 0.85081 0.97155 0.0
C314 C 0.78507 0.86629 0.97553 0.0
C315 C 0.81533 0.90953 0.99398 0.0
C316 C 0.97192 0.85363 0.32592 0.0
C317 C 0.01647 0.91186 0.32673 0.0
C318 C 0.96938 0.81577 0.3074 0.0
C319 C 0.01134 0.83457 0.28898 0.0
H320 H 0.93779 0.83741 0.33931 0.0
H321 H 0.93372 0.77158 0.30731 0.0
S322 S 0.13793 0.98239 0.28311 0.0
N323 N 0.10489 0.98589 0.30788 0.0
N324 N 0.09928 0.91516 0.27292 0.0
C325 C 0.05708 0.89222 0.28998 0.0
C326 C 0.05985 0.93071 0.30888 0.0
C327 C 0.14986 0.00987 0.66908 0.0
C328 C 0.12184 0.04115 0.66429 0.0
C329 C 0.18564 0.00481 0.65165 0.0
C330 C 0.19439 0.03041 0.62865 0.0
H331 H 0.14348 0.98843 0.68629 0.0
H332 H 0.20602 0.98002 0.65611 0.0
S333 S 0.12899 0.11507 0.60666 0.0
N334 N 0.10532 0.09805 0.63473 0.0
N335 N 0.17041 0.08676 0.6019 0.0
C336 C 0.16694 0.06219 0.62375 0.0
C337 C 0.13124 0.06798 0.64156 0.0
C338 C 0.13342 0.13863 0.98766 0.0
C339 C 0.11236 0.16667 1.0027 0.0
C340 C 0.1748 0.16875 0.96971 0.0
C341 C 0.1973 0.22828 0.96628 0.0
H342 H 0.11596 0.09253 0.98901 0.0
H343 H 0.18764 0.14465 0.95786 0.0
S344 S 0.16277 0.32331 1.00355 0.0
N345 N 0.12091 0.25827 0.01456 0.0
N346 N 0.19992 0.31518 0.98142 0.0
C347 C 0.17883 0.25735 0.98213 0.0
C348 C 0.13616 0.22653 1.00019 0.0
C349 C 0.98244 0.12266 0.31174 0.0
C350 C 0.00966 0.13744 0.33476 0.0
C351 C 0.98996 0.16488 0.29519 0.0
C352 C 0.02446 0.22407 0.30094 0.0
H353 H 0.95654 0.07787 0.30595 0.0
H354 H 0.97002 0.15071 0.27737 0.0
S355 S 0.10002 0.28601 0.35992 0.0
N356 N 0.06965 0.21553 0.36314 0.0
N357 N 0.08226 0.29532 0.33228 0.0
C358 C 0.0501 0.23966 0.32432 0.0
C359 C 0.04299 0.19633 0.34115 0.0
loop_
_geom_bond_atom_site_label_1
_geom_bond_atom_site_label_2
_geom_bond_distance
_geom_bond_site_symmetry_2
_ccdc_geom_bond_type
Co0 O1 2.216 1_445 S
Co0 O2 2.091 1_545 S
Co0 O4 2.004 . S
Co0 O10 2.021 1_445 S
Co0 O12 2.137 . S
Co0 O13 2.244 1_455 S
O1 Co0 2.216 1_665 S
O1 C8 1.247 1_655 S
O2 Co0 2.091 1_565 S
O2 C8 1.261 . S
C3 O12 1.247 . S
C3 O13 1.272 1_455 S
O4 Co0 2.004 . S
O4 C9 1.259 . S
Co5 O6 2.065 1_655 S
Co5 O11 2.052 1_545 S
Co5 O13 2.135 . S
O6 Co5 2.065 1_455 S
O6 C9 1.237 . S
C7 O10 1.238 . S
C7 O11 1.241 . S
C8 O1 1.247 1_455 S
C8 O2 1.261 . S
C9 O4 1.259 . S
C9 O6 1.237 . S
O10 Co0 2.021 1_665 S
O10 C7 1.238 . S
O11 Co5 2.052 1_565 S
O11 C7 1.241 . S
O12 Co0 2.137 . S
O12 C3 1.247 . S
O13 Co0 2.244 1_655 S
O13 C3 1.272 1_655 S
O13 Co5 2.135 . S
Co14 O15 2.216 1_455 S
Co14 O16 2.091 . S
Co14 O18 2.004 . S
Co14 O24 2.021 1_455 S
Co14 O26 2.136 . S
Co14 O27 2.244 1_445 S
O15 Co14 2.216 1_655 S
O15 C22 1.247 1_655 S
O16 Co14 2.091 . S
O16 C22 1.261 . S
C17 O26 1.249 1_565 S
C17 O27 1.272 1_455 S
O18 Co14 2.004 . S
O18 C23 1.259 . S
Co19 O20 2.061 1_655 S
Co19 O25 2.052 . S
Co19 O27 2.135 . S
O20 Co19 2.061 1_455 S
O20 C23 1.235 1_565 S
C21 O24 1.238 . S
C21 O25 1.241 1_545 S
C22 O15 1.247 1_455 S
C22 O16 1.261 . S
C23 O18 1.259 . S
C23 O20 1.235 1_545 S
O24 Co14 2.021 1_655 S
O24 C21 1.238 . S
O25 Co19 2.052 . S
O25 C21 1.241 1_565 S
O26 Co14 2.136 . S
O26 C17 1.249 1_545 S
O27 Co14 2.244 1_665 S
O27 C17 1.272 1_655 S
O27 Co19 2.135 . S
Co28 O29 2.217 . S
Co28 O30 2.086 1_545 S
Co28 O32 2.001 1_445 S
Co28 O38 2.023 . S
Co28 O40 2.138 1_445 S
Co28 O41 2.250 1_455 S
O29 Co28 2.217 . S
O29 C36 1.247 . S
O30 Co28 2.086 1_565 S
O30 C36 1.261 1_565 S
C31 O40 1.247 1_545 S
C31 O41 1.272 . S
O32 Co28 2.001 1_665 S
O32 C37 1.259 . S
Co33 O34 2.061 1_545 S
Co33 O39 2.052 1_655 S
Co33 O41 2.135 . S
O34 Co33 2.061 1_565 S
O34 C37 1.235 . S
C35 O38 1.238 . S
C35 O39 1.241 . S
C36 O29 1.247 . S
C36 O30 1.261 1_545 S
C37 O32 1.259 . S
C37 O34 1.235 . S
O38 Co28 2.023 . S
O38 C35 1.238 . S
O39 Co33 2.052 1_455 S
O39 C35 1.241 . S
O40 Co28 2.138 1_665 S
O40 C31 1.247 1_565 S
O41 Co28 2.250 1_655 S
O41 C31 1.272 . S
O41 Co33 2.135 . S
H42 C69 0.929 . S
N43 C68 1.433 . S
N43 C74 1.435 . S
N43 C80 1.423 . S
H44 C70 0.930 . S
H45 C73 0.931 . S
H46 C72 0.929 . S
H47 C75 0.930 . S
H48 C76 0.932 . S
H49 C79 0.929 . S
H50 C78 0.931 . S
H51 C81 0.929 . S
H52 C85 0.932 . S
H53 C82 0.931 . S
H54 C84 0.929 1_455 S
H55 C87 0.929 . S
H56 C88 0.930 . S
H57 C90 0.929 . S
H58 C91 0.931 . S
H59 C93 0.930 . S
H60 C94 0.932 . S
H61 C96 0.931 . S
H62 C97 0.929 . S
H63 C99 0.929 . S
H64 C100 0.931 . S
H65 C102 0.929 1_455 S
N66 C86 1.433 . S
N66 C92 1.435 . S
N66 C98 1.423 . S
H67 C103 0.932 . S
C68 N43 1.433 . S
C68 C69 1.363 . S
C68 C73 1.370 1_655 S
C69 H42 0.929 . S
C69 C68 1.363 . S
C69 C70 1.385 . S
C70 H44 0.930 . S
C70 C69 1.385 . S
C70 C71 1.357 1_655 S
C71 C70 1.357 1_455 S
C71 C72 1.406 . S
C72 H46 0.929 . S
C72 C71 1.406 . S
C72 C73 1.391 . S
C73 H45 0.931 . S
C73 C68 1.370 1_455 S
C73 C72 1.391 . S
C74 N43 1.435 . S
C74 C75 1.358 1_655 S
C74 C79 1.371 . S
C75 H47 0.930 . S
C75 C74 1.358 1_455 S
C75 C76 1.405 . S
C76 H48 0.932 . S
C76 C75 1.405 . S
C76 C77 1.383 . S
C77 C76 1.383 . S
C77 C78 1.393 1_455 S
C78 H50 0.931 . S
C78 C77 1.393 1_655 S
C78 C79 1.382 . S
C79 H49 0.929 . S
C79 C74 1.371 . S
C79 C78 1.382 . S
C80 N43 1.423 . S
C80 C81 1.362 . S
C80 C85 1.388 1_655 S
C81 H51 0.929 . S
C81 C80 1.362 . S
C81 C82 1.376 . S
C82 H53 0.931 . S
C82 C81 1.376 . S
C82 C83 1.396 . S
C83 C82 1.396 . S
C83 C84 1.348 . S
C83 C101 1.472 . S
C84 H54 0.929 1_655 S
C84 C83 1.348 . S
C84 C85 1.443 1_655 S
C85 H52 0.932 . S
C85 C80 1.388 1_455 S
C85 C84 1.443 1_455 S
C86 N66 1.433 . S
C86 C87 1.363 . S
C86 C91 1.370 1_655 S
C87 H55 0.929 . S
C87 C86 1.363 . S
C87 C88 1.385 . S
C88 H56 0.930 . S
C88 C87 1.385 . S
C88 C89 1.357 1_655 S
C89 C88 1.357 1_455 S
C89 C90 1.406 . S
C90 H57 0.929 . S
C90 C89 1.406 . S
C90 C91 1.391 . S
C91 H58 0.931 . S
C91 C86 1.370 1_455 S
C91 C90 1.391 . S
C92 N66 1.435 . S
C92 C93 1.358 1_655 S
C92 C97 1.371 . S
C93 H59 0.930 . S
C93 C92 1.358 1_455 S
C93 C94 1.405 . S
C94 H60 0.932 . S
C94 C93 1.405 . S
C94 C95 1.383 . S
C95 C94 1.383 . S
C95 C96 1.393 1_455 S
C96 H61 0.931 . S
C96 C95 1.393 1_655 S
C96 C97 1.382 . S
C97 H62 0.929 . S
C97 C92 1.371 . S
C97 C96 1.382 . S
C98 N66 1.423 . S
C98 C99 1.362 . S
C98 C103 1.388 1_655 S
C99 H63 0.929 . S
C99 C98 1.362 . S
C99 C100 1.376 . S
C100 H64 0.931 . S
C100 C99 1.376 . S
C100 C101 1.396 . S
C101 C83 1.472 . S
C101 C100 1.396 . S
C101 C102 1.348 . S
C102 H65 0.929 1_655 S
C102 C101 1.348 . S
C102 C103 1.443 1_655 S
C103 H67 0.932 . S
C103 C98 1.388 1_455 S
C103 C102 1.443 1_455 S
H104 C131 0.929 . S
N105 C130 1.433 . S
N105 C136 1.435 . S
N105 C142 1.423 . S
H106 C132 0.930 . S
H107 C135 0.931 . S
H108 C134 0.929 . S
H109 C137 0.930 . S
H110 C138 0.932 . S
H111 C141 0.929 . S
H112 C140 0.931 . S
H113 C143 0.929 . S
H114 C147 0.932 1_565 S
H115 C144 0.931 . S
H116 C146 0.929 . S
H117 C149 0.929 . S
H118 C150 0.930 . S
H119 C152 0.929 . S
H120 C153 0.931 . S
H121 C155 0.930 . S
H122 C156 0.932 . S
H123 C158 0.931 . S
H124 C159 0.929 . S
H125 C161 0.929 . S
H126 C162 0.931 . S
H127 C164 0.929 . S
N128 C148 1.433 . S
N128 C154 1.435 . S
N128 C160 1.423 . S
H129 C165 0.932 1_565 S
C130 N105 1.433 . S
C130 C131 1.363 . S
C130 C135 1.370 1_545 S
C131 H104 0.929 . S
C131 C130 1.363 . S
C131 C132 1.385 . S
C132 H106 0.930 . S
C132 C131 1.385 . S
C132 C133 1.357 . S
C133 C132 1.357 . S
C133 C134 1.406 1_545 S
C134 H108 0.929 . S
C134 C133 1.406 1_565 S
C134 C135 1.391 . S
C135 H107 0.931 . S
C135 C130 1.370 1_565 S
C135 C134 1.391 . S
C136 N105 1.435 . S
C136 C137 1.358 1_545 S
C136 C141 1.371 . S
C137 H109 0.930 . S
C137 C136 1.358 1_565 S
C137 C138 1.405 . S
C138 H110 0.932 . S
C138 C137 1.405 . S
C138 C139 1.383 1_565 S
C139 C138 1.383 1_545 S
C139 C140 1.393 . S
C140 H112 0.931 . S
C140 C139 1.393 . S
C140 C141 1.382 . S
C141 H111 0.929 . S
C141 C136 1.371 . S
C141 C140 1.382 . S
C142 N105 1.423 . S
C142 C143 1.362 . S
C142 C147 1.388 . S
C143 H113 0.929 . S
C143 C142 1.362 . S
C143 C144 1.376 . S
C144 H115 0.931 . S
C144 C143 1.376 . S
C144 C145 1.396 . S
C145 C144 1.396 . S
C145 C146 1.348 . S
C145 C163 1.472 . S
C146 H116 0.929 . S
C146 C145 1.348 . S
C146 C147 1.443 . S
C147 H114 0.932 1_545 S
C147 C142 1.388 . S
C147 C146 1.443 . S
C148 N128 1.433 . S
C148 C149 1.363 . S
C148 C153 1.370 1_545 S
C149 H117 0.929 . S
C149 C148 1.363 . S
C149 C150 1.385 . S
C150 H118 0.930 . S
C150 C149 1.385 . S
C150 C151 1.357 . S
C151 C150 1.357 . S
C151 C152 1.406 1_545 S
C152 H119 0.929 . S
C152 C151 1.406 1_565 S
C152 C153 1.391 . S
C153 H120 0.931 . S
C153 C148 1.370 1_565 S
C153 C152 1.391 . S
C154 N128 1.435 . S
C154 C155 1.358 1_545 S
C154 C159 1.371 . S
C155 H121 0.930 . S
C155 C154 1.358 1_565 S
C155 C156 1.405 . S
C156 H122 0.932 . S
C156 C155 1.405 . S
C156 C157 1.383 1_565 S
C157 C156 1.383 1_545 S
C157 C158 1.393 . S
C158 H123 0.931 . S
C158 C157 1.393 . S
C158 C159 1.382 . S
C159 H124 0.929 . S
C159 C154 1.371 . S
C159 C158 1.382 . S
C160 N128 1.423 . S
C160 C161 1.362 . S
C160 C165 1.388 . S
C161 H125 0.929 . S
C161 C160 1.362 . S
C161 C162 1.376 . S
C162 H126 0.931 . S
C162 C161 1.376 . S
C162 C163 1.396 . S
C163 C145 1.472 . S
C163 C162 1.396 . S
C163 C164 1.348 . S
C164 H127 0.929 . S
C164 C163 1.348 . S
C164 C165 1.443 . S
C165 H129 0.932 1_545 S
C165 C160 1.388 . S
C165 C164 1.443 . S
H166 C193 0.929 . S
N167 C192 1.433 . S
N167 C198 1.435 . S
N167 C204 1.423 . S
H168 C194 0.930 . S
H169 C197 0.931 . S
H170 C196 0.929 . S
H171 C199 0.930 . S
H172 C200 0.932 . S
H173 C203 0.929 . S
H174 C202 0.931 . S
H175 C205 0.929 . S
H176 C209 0.932 . S
H177 C206 0.931 . S
H178 C208 0.929 . S
H179 C211 0.929 . S
H180 C212 0.930 . S
H181 C214 0.929 . S
H182 C215 0.931 . S
H183 C217 0.930 . S
H184 C218 0.932 . S
H185 C220 0.931 . S
H186 C221 0.929 . S
H187 C223 0.929 . S
H188 C224 0.931 . S
H189 C226 0.929 . S
N190 C210 1.433 . S
N190 C216 1.435 . S
N190 C222 1.423 . S
H191 C227 0.932 . S
C192 N167 1.433 . S
C192 C193 1.363 . S
C192 C197 1.370 . S
C193 H166 0.929 . S
C193 C192 1.363 . S
C193 C194 1.385 . S
C194 H168 0.930 . S
C194 C193 1.385 . S
C194 C195 1.357 . S
C195 C194 1.357 . S
C195 C196 1.406 . S
C196 H170 0.929 . S
C196 C195 1.406 . S
C196 C197 1.391 . S
C197 H169 0.931 . S
C197 C192 1.370 . S
C197 C196 1.391 . S
C198 N167 1.435 . S
C198 C199 1.358 . S
C198 C203 1.371 . S
C199 H171 0.930 . S
C199 C198 1.358 . S
C199 C200 1.405 . S
C200 H172 0.932 . S
C200 C199 1.405 . S
C200 C201 1.383 . S
C201 C200 1.383 . S
C201 C202 1.393 . S
C202 H174 0.931 . S
C202 C201 1.393 . S
C202 C203 1.382 . S
C203 H173 0.929 . S
C203 C198 1.371 . S
C203 C202 1.382 . S
C204 N167 1.423 . S
C204 C205 1.362 . S
C204 C209 1.388 . S
C205 H175 0.929 . S
C205 C204 1.362 . S
C205 C206 1.376 . S
C206 H177 0.931 . S
C206 C205 1.376 . S
C206 C207 1.396 . S
C207 C206 1.396 . S
C207 C208 1.348 . S
C207 C225 1.472 . S
C208 H178 0.929 . S
C208 C207 1.348 . S
C208 C209 1.443 . S
C209 H176 0.932 . S
C209 C204 1.388 . S
C209 C208 1.443 . S
C210 N190 1.433 . S
C210 C211 1.363 . S
C210 C215 1.370 . S
C211 H179 0.929 . S
C211 C210 1.363 . S
C211 C212 1.385 . S
C212 H180 0.930 . S
C212 C211 1.385 . S
C212 C213 1.357 . S
C213 C212 1.357 . S
C213 C214 1.406 . S
C214 H181 0.929 . S
C214 C213 1.406 . S
C214 C215 1.391 . S
C215 H182 0.931 . S
C215 C210 1.370 . S
C215 C214 1.391 . S
C216 N190 1.435 . S
C216 C217 1.358 . S
C216 C221 1.371 . S
C217 H183 0.930 . S
C217 C216 1.358 . S
C217 C218 1.405 . S
C218 H184 0.932 . S
C218 C217 1.405 . S
C218 C219 1.383 . S
C219 C218 1.383 . S
C219 C220 1.393 . S
C220 H185 0.931 . S
C220 C219 1.393 . S
C220 C221 1.382 . S
C221 H186 0.929 . S
C221 C216 1.371 . S
C221 C220 1.382 . S
C222 N190 1.423 . S
C222 C223 1.362 . S
C222 C227 1.388 . S
C223 H187 0.929 . S
C223 C222 1.362 . S
C223 C224 1.376 . S
C224 H188 0.931 . S
C224 C223 1.376 . S
C224 C225 1.396 . S
C225 C207 1.472 . S
C225 C224 1.396 . S
C225 C226 1.348 . S
C226 H189 0.929 . S
C226 C225 1.348 . S
C226 C227 1.443 . S
C227 H191 0.932 . S
C227 C222 1.388 . S
C227 C226 1.443 . S
C228 C229 1.369 . S
C228 C230 1.419 . S
C228 H232 0.930 . S
C229 C228 1.369 . S
C229 C238 1.429 1_455 S
C230 C228 1.419 . S
C230 C231 1.363 . S
C230 H233 0.929 . S
C231 C230 1.363 . S
C231 C237 1.428 1_455 S
H232 C228 0.930 . S
H233 C230 0.929 . S
S234 N235 1.613 . S
S234 N236 1.610 . S
N235 S234 1.613 . S
N235 C238 1.350 . S
N236 S234 1.610 . S
N236 C237 1.351 . S
C237 C231 1.428 1_655 S
C237 N236 1.351 . S
C237 C238 1.434 . S
C238 C229 1.429 1_655 S
C238 N235 1.350 . S
C238 C237 1.434 . S
C239 C240 1.369 . S
C239 C241 1.419 . S
C239 H243 0.930 . S
C240 C239 1.369 . S
C240 C249 1.429 1_545 S
C241 C239 1.419 . S
C241 C242 1.363 . S
C241 H244 0.929 . S
C242 C241 1.363 . S
C242 C248 1.428 1_545 S
H243 C239 0.930 . S
H244 C241 0.929 . S
S245 N246 1.613 . S
S245 N247 1.610 . S
N246 S245 1.613 . S
N246 C249 1.350 . S
N247 S245 1.610 . S
N247 C248 1.351 . S
C248 C242 1.428 1_565 S
C248 N247 1.351 . S
C248 C249 1.434 . S
C249 C240 1.429 1_565 S
C249 N246 1.350 . S
C249 C248 1.434 . S
C250 C251 1.369 . S
C250 C252 1.419 . S
C250 H254 0.930 . S
C251 C250 1.369 . S
C251 C260 1.429 . S
C252 C250 1.419 . S
C252 C253 1.363 . S
C252 H255 0.929 . S
C253 C252 1.363 . S
C253 C259 1.428 . S
H254 C250 0.930 . S
H255 C252 0.929 . S
S256 N257 1.613 . S
S256 N258 1.610 . S
N257 S256 1.613 . S
N257 C260 1.350 . S
N258 S256 1.610 . S
N258 C259 1.351 . S
C259 C253 1.428 . S
C259 N258 1.351 . S
C259 C260 1.434 . S
C260 C251 1.429 . S
C260 N257 1.350 . S
C260 C259 1.434 . S
C261 C262 1.369 1_655 S
C261 C263 1.419 . S
C261 H265 0.930 . S
C262 C261 1.369 1_455 S
C262 C271 1.429 . S
C263 C261 1.419 . S
C263 C264 1.363 1_655 S
C263 H266 0.929 . S
C264 C263 1.363 1_455 S
C264 C270 1.428 . S
H265 C261 0.930 . S
H266 C263 0.929 . S
S267 N268 1.613 . S
S267 N269 1.610 . S
N268 S267 1.613 . S
N268 C271 1.350 . S
N269 S267 1.610 . S
N269 C270 1.351 . S
C270 C264 1.428 . S
C270 N269 1.351 . S
C270 C271 1.434 . S
C271 C262 1.429 . S
C271 N268 1.350 . S
C271 C270 1.434 . S
C272 C273 1.369 . S
C272 C274 1.419 . S
C272 H276 0.930 . S
C273 C272 1.369 . S
C273 C282 1.429 . S
C274 C272 1.419 . S
C274 C275 1.363 . S
C274 H277 0.929 . S
C275 C274 1.363 . S
C275 C281 1.428 1_545 S
H276 C272 0.930 . S
H277 C274 0.929 . S
S278 N279 1.613 . S
S278 N280 1.610 . S
N279 S278 1.613 . S
N279 C282 1.350 1_565 S
N280 S278 1.610 . S
N280 C281 1.351 . S
C281 C275 1.428 1_565 S
C281 N280 1.351 . S
C281 C282 1.434 1_565 S
C282 C273 1.429 . S
C282 N279 1.350 1_545 S
C282 C281 1.434 1_545 S
C283 C284 1.369 . S
C283 C285 1.419 . S
C283 H287 0.930 . S
C284 C283 1.369 . S
C284 C293 1.429 . S
C285 C283 1.419 . S
C285 C286 1.363 . S
C285 H288 0.929 . S
C286 C285 1.363 . S
C286 C292 1.428 . S
H287 C283 0.930 . S
H288 C285 0.929 . S
S289 N290 1.613 . S
S289 N291 1.610 . S
N290 S289 1.613 . S
N290 C293 1.350 . S
N291 S289 1.610 . S
N291 C292 1.351 . S
C292 C286 1.428 . S
C292 N291 1.351 . S
C292 C293 1.434 . S
C293 C284 1.429 . S
C293 N290 1.350 . S
C293 C292 1.434 . S
C294 C295 1.369 . S
C294 C296 1.419 . S
C294 H298 0.930 . S
C295 C294 1.369 . S
C295 C304 1.429 . S
C296 C294 1.419 . S
C296 C297 1.363 . S
C296 H299 0.929 . S
C297 C296 1.363 . S
C297 C303 1.428 . S
H298 C294 0.930 . S
H299 C296 0.929 . S
S300 N301 1.613 . S
S300 N302 1.610 . S
N301 S300 1.613 . S
N301 C304 1.350 . S
N302 S300 1.610 . S
N302 C303 1.351 . S
C303 C297 1.428 . S
C303 N302 1.351 . S
C303 C304 1.434 . S
C304 C295 1.429 . S
C304 N301 1.350 . S
C304 C303 1.434 . S
C305 C306 1.369 . S
C305 C307 1.419 . S
C305 H309 0.930 1_556 S
C306 C305 1.369 . S
C306 C315 1.429 . S
C307 C305 1.419 . S
C307 C308 1.363 . S
C307 H310 0.929 . S
C308 C307 1.363 . S
C308 C314 1.428 . S
H309 C305 0.930 1_554 S
H310 C307 0.929 . S
S311 N312 1.613 . S
S311 N313 1.610 . S
N312 S311 1.613 . S
N312 C315 1.350 . S
N313 S311 1.610 . S
N313 C314 1.351 . S
C314 C308 1.428 . S
C314 N313 1.351 . S
C314 C315 1.434 . S
C315 C306 1.429 . S
C315 N312 1.350 . S
C315 C314 1.434 . S
C316 C317 1.369 . S
C316 C318 1.419 . S
C316 H320 0.930 . S
C317 C316 1.369 . S
C317 C326 1.429 . S
C318 C316 1.419 . S
C318 C319 1.363 . S
C318 H321 0.932 1_455 S
C319 C318 1.363 . S
C319 C325 1.428 . S
H320 C316 0.930 . S
H321 C318 0.932 1_655 S
S322 N323 1.613 . S
S322 N324 1.610 . S
N323 S322 1.613 . S
N323 C326 1.350 . S
N324 S322 1.610 . S
N324 C325 1.351 . S
C325 C319 1.428 . S
C325 N324 1.351 . S
C325 C326 1.434 . S
C326 C317 1.429 . S
C326 N323 1.350 . S
C326 C325 1.434 . S
C327 C328 1.369 1_565 S
C327 C329 1.419 . S
C327 H331 0.930 . S
C328 C327 1.369 1_545 S
C328 C337 1.429 . S
C329 C327 1.419 . S
C329 C330 1.363 1_565 S
C329 H332 0.929 . S
C330 C329 1.363 1_545 S
C330 C336 1.428 . S
H331 C327 0.930 . S
H332 C329 0.929 . S
S333 N334 1.613 . S
S333 N335 1.610 . S
N334 S333 1.613 . S
N334 C337 1.350 . S
N335 S333 1.610 . S
N335 C336 1.351 . S
C336 C330 1.428 . S
C336 N335 1.351 . S
C336 C337 1.434 . S
C337 C328 1.429 . S
C337 N334 1.350 . S
C337 C336 1.434 . S
C338 C339 1.369 . S
C338 C340 1.419 . S
C338 H342 0.930 . S
C339 C338 1.369 . S
C339 C348 1.426 . S
C340 C338 1.419 . S
C340 C341 1.363 . S
C340 H343 0.929 . S
C341 C340 1.363 . S
C341 C347 1.428 . S
H342 C338 0.930 . S
H343 C340 0.929 . S
S344 N345 1.613 . S
S344 N346 1.648 . S
N345 S344 1.613 . S
N345 C348 1.355 1_554 S
N346 S344 1.648 . S
N346 C347 1.329 1_554 S
C347 C341 1.428 . S
C347 N346 1.329 1_556 S
C347 C348 1.431 . S
C348 C339 1.426 . S
C348 N345 1.355 1_556 S
C348 C347 1.431 . S
C349 C350 1.369 . S
C349 C351 1.419 . S
C349 H353 0.931 . S
C350 C349 1.369 . S
C350 C359 1.429 . S
C351 C349 1.419 . S
C351 C352 1.363 . S
C351 H354 0.929 1_455 S
C352 C351 1.363 . S
C352 C358 1.428 . S
H353 C349 0.931 . S
H354 C351 0.929 1_655 S
S355 N356 1.613 . S
S355 N357 1.610 . S
N356 S355 1.613 . S
N356 C359 1.350 . S
N357 S355 1.610 . S
N357 C358 1.351 . S
C358 C352 1.428 . S
C358 N357 1.351 . S
C358 C359 1.434 . S
C359 C350 1.429 . S
C359 N356 1.350 . S
C359 C358 1.434 . S
C231 C95 1.447 . S
C229 C3 1.438 . S
C240 C21 1.446 . S
C242 C139 1.488 . S
C251 C37 1.438 . S
C253 C201 1.476 . S
C262 C8 1.453 . S
C264 C77 1.459 . S
C275 C157 1.460 . S
C273 C23 1.434 . S
C284 C35 1.430 . S
C286 C219 1.477 . S
C297 C133 1.577 . S
C295 C31 1.687 . S
C306 C7 1.700 1_556 S
C308 C195 1.616 . S
C319 C71 1.592 . S
C317 C17 1.705 . S
C330 C151 1.575 . S
C328 C36 1.694 . S
C341 C213 1.626 . S
C339 C9 1.692 1_556 S
C350 C22 1.713 . S
C352 C89 1.608 . S
