# Generated by pormake.
# Topology anh, (6,3)-cn, num edge types: 1
# Building blocks:
#     Node 0, Type 0, BuildingBlock: PAMTUU_clean_sbu_0, # of connection points: 6
#     Node 1, Type 0, BuildingBlock: PAMTUU_clean_sbu_0, # of connection points: 6
#     Node 2, Type 0, BuildingBlock: PAMTUU_clean_sbu_0, # of connection points: 6
#     Node 3, Type 1, BuildingBlock: CUQRIR_clean_linker_1, # of connection points: 3
#     Node 4, Type 1, BuildingBlock: CUQRIR_clean_linker_1, # of connection points: 3
#     Node 5, Type 1, BuildingBlock: CUQRIR_clean_linker_1, # of connection points: 3
#     Node 6, Type 1, BuildingBlock: CUQRIR_clean_linker_1, # of connection points: 3
#     Node 7, Type 1, BuildingBlock: CUQRIR_clean_linker_1, # of connection points: 3
#     Node 8, Type 1, BuildingBlock: CUQRIR_clean_linker_1, # of connection points: 3
#     Edge 9, Type (0, 1), BuildingBlock: TEMPAE_clean_linker_10, # of connection points: 2
#     Edge 10, Type (0, 1), BuildingBlock: TEMPAE_clean_linker_10, # of connection points: 2
#     Edge 11, Type (0, 1), BuildingBlock: TEMPAE_clean_linker_10, # of connection points: 2
#     Edge 12, Type (0, 1), BuildingBlock: TEMPAE_clean_linker_10, # of connection points: 2
#     Edge 13, Type (0, 1), BuildingBlock: TEMPAE_clean_linker_10, # of connection points: 2
#     Edge 14, Type (0, 1), BuildingBlock: TEMPAE_clean_linker_10, # of connection points: 2
#     Edge 15, Type (0, 1), BuildingBlock: TEMPAE_clean_linker_10, # of connection points: 2
#     Edge 16, Type (0, 1), BuildingBlock: TEMPAE_clean_linker_10, # of connection points: 2
#     Edge 17, Type (0, 1), BuildingBlock: TEMPAE_clean_linker_10, # of connection points: 2
#     Edge 18, Type (0, 1), BuildingBlock: TEMPAE_clean_linker_10, # of connection points: 2
#     Edge 19, Type (0, 1), BuildingBlock: TEMPAE_clean_linker_10, # of connection points: 2
#     Edge 20, Type (0, 1), BuildingBlock: TEMPAE_clean_linker_10, # of connection points: 2
#     Edge 21, Type (0, 1), BuildingBlock: TEMPAE_clean_linker_10, # of connection points: 2
#     Edge 22, Type (0, 1), BuildingBlock: TEMPAE_clean_linker_10, # of connection points: 2
#     Edge 23, Type (0, 1), BuildingBlock: TEMPAE_clean_linker_10, # of connection points: 2
#     Edge 24, Type (0, 1), BuildingBlock: TEMPAE_clean_linker_10, # of connection points: 2
#     Edge 25, Type (0, 1), BuildingBlock: TEMPAE_clean_linker_10, # of connection points: 2
#     Edge 26, Type (0, 1), BuildingBlock: TEMPAE_clean_linker_10, # of connection points: 2
# Relax obj value: 0.313
# Max RMSD: 0.219
# Mean RMSD: 0.167
data_MOF--net-anh--node1-PAMTUU_clean_sbu_0--node2-CUQRIR_clean_linker_1--edge1-TEMPAE_clean_linker_10
_symmetry_space_group_name_H-M    P1
_symmetry_Int_Tables_number       1
_symmetry_cell_setting            triclinic
loop_
_symmetry_equiv_pos_as_xyz
'x, y, z'
_cell_length_a     28.506443
_cell_length_b     28.576825
_cell_length_c     47.526422
_cell_angle_alpha  89.649844
_cell_angle_beta   89.548375
_cell_angle_gamma 120.10151
loop_
_atom_site_label
_atom_site_type_symbol
_atom_site_fract_x
_atom_site_fract_y
_atom_site_fract_z
_atom_type_partial_charge
Tb0 Tb 0.16853 0.66695 0.15577 0.0
Tb1 Tb 0.22959 0.60727 0.17904 0.0
C2 C 0.22376 0.62665 0.11461 0.0
C3 C 1.0553 0.67665 0.13021 0.0
C4 C 0.9509 0.60311 0.11089 0.0
C5 C 0.98313 0.65295 0.09685 0.0
C6 C 1.03516 0.68927 0.10634 0.0
C7 C 1.02187 0.62888 0.14542 0.0
C8 C 0.97027 0.59238 0.13581 0.0
C9 C 1.11377 0.705 0.13493 0.0
O10 O 1.10544 0.57882 0.15397 0.0
O11 O 0.14305 0.54508 0.18435 0.0
O12 O 0.22192 0.65201 0.21405 0.0
O13 O 0.14343 0.6459 0.19925 0.0
O14 O 0.28572 0.58142 0.17316 0.0
O15 O 0.23541 0.55899 0.21087 0.0
O16 O 0.29701 0.69228 0.17526 0.0
O17 O 0.24904 0.73652 0.1679 0.0
O18 O 0.22123 0.66896 0.12233 0.0
O19 O 0.21715 0.59016 0.1336 0.0
C20 C 1.10045 0.5388 0.17045 0.0
O21 O 0.12968 0.71263 0.16105 0.0
O22 O 0.13829 0.68534 0.12008 0.0
C23 C 0.17688 0.65215 0.21937 0.0
C24 C 0.31965 0.56181 0.21412 0.0
C25 C 0.40946 0.55221 0.22834 0.0
C26 C 0.35691 0.51121 0.23607 0.0
C27 C 0.31223 0.51596 0.22881 0.0
C28 C 0.37201 0.60664 0.21093 0.0
C29 C 0.41688 0.60205 0.2184 0.0
C30 C 0.27421 0.55665 0.19755 0.0
C31 C 0.29567 0.7379 0.17278 0.0
H32 H 0.96889 0.66322 0.07804 0.0
H33 H 1.06077 0.7256 0.09412 0.0
H34 H 1.03701 0.61795 0.16367 0.0
H35 H 0.94688 0.5545 0.14717 0.0
H36 H 0.34957 0.47244 0.24395 0.0
H37 H 0.27194 0.4813 0.23181 0.0
H38 H 0.37846 0.64294 0.20014 0.0
H39 H 0.45707 0.63482 0.2129 0.0
Tb40 Tb 0.66318 0.09507 0.49183 0.0
Tb41 Tb 0.78901 0.1587 0.50564 0.0
C42 C 0.74764 0.13983 0.44339 0.0
C43 C 0.51762 1.05495 0.48921 0.0
C44 C 0.42535 1.06593 0.49587 0.0
C45 C 0.42364 1.01735 0.50339 0.0
C46 C 0.46928 1.01196 0.50002 0.0
C47 C 0.5208 0.10482 0.48344 0.0
C48 C 0.47485 0.11016 0.48661 0.0
C49 C 0.56298 1.04576 0.483 0.0
O50 O 0.6798 1.02998 0.5064 0.0
O51 O 0.7721 1.07411 0.50074 0.0
O52 O 0.74422 0.12025 0.54489 0.0
O53 O 0.67348 0.13 0.53266 0.0
O54 O 0.86832 0.17785 0.49487 0.0
O55 O 0.85223 0.21106 0.53203 0.0
O56 O 0.7691 0.22467 0.50729 0.0
O57 O 0.68149 0.18108 0.49125 0.0
O58 O 0.70443 0.09655 0.45294 0.0
O59 O 0.78141 0.17549 0.46122 0.0
C60 C 0.72569 1.02861 0.50547 0.0
O61 O 0.59928 1.07836 0.46467 0.0
O62 O 0.58468 1.03593 0.50466 0.0
C63 C 0.70011 0.12117 0.55202 0.0
C64 C 0.92432 0.27154 0.50291 0.0
C65 C 0.96903 0.37961 0.48424 0.0
C66 C 0.97267 0.36782 0.51265 0.0
C67 C 0.95059 0.31421 0.52189 0.0
C68 C 0.92389 0.28361 0.47419 0.0
C69 C 0.94612 0.33707 0.46496 0.0
C70 C 0.88881 0.21594 0.51369 0.0
C71 C 0.72517 0.22601 0.4997 0.0
H72 H 0.386 0.98207 0.51004 0.0
H73 H 0.46614 0.97333 0.50476 0.0
H74 H 0.55808 0.13898 0.4755 0.0
H75 H 0.47737 0.14803 0.4807 0.0
H76 H 0.99076 0.39995 0.5279 0.0
H77 H 0.95111 0.30596 0.54413 0.0
H78 H 0.90343 0.25175 0.45898 0.0
H79 H 0.94227 0.34479 0.443 0.0
Tb80 Tb 0.66893 0.56404 0.82991 0.0
Tb81 Tb 0.73622 0.69121 0.84313 0.0
C82 C 0.70759 0.64832 0.77962 0.0
C83 C 0.58973 0.40747 0.8299 0.0
C84 C 0.53758 0.29396 0.82891 0.0
C85 C 0.5916 0.3256 0.81927 0.0
C86 C 0.61734 0.38202 0.8195 0.0
C87 C 0.53811 0.37592 0.84227 0.0
C88 C 0.51221 0.31967 0.84177 0.0
C89 C 0.60756 0.46418 0.82292 0.0
O90 O 0.75479 0.5815 0.82836 0.0
O91 O 0.7967 0.66485 0.84938 0.0
O92 O 0.6888 0.64724 0.88029 0.0
O93 O 0.69508 0.57259 0.87302 0.0
O94 O 0.78315 0.77172 0.82944 0.0
O95 O 0.77076 0.75232 0.87361 0.0
O96 O 0.65325 0.67933 0.83993 0.0
O97 O 0.60527 0.58663 0.83757 0.0
O98 O 0.67351 0.59951 0.78895 0.0
O99 O 0.73882 0.6875 0.79682 0.0
C100 C 0.79855 0.62236 0.83978 0.0
O101 O 0.59932 0.49219 0.84178 0.0
O102 O 0.65185 0.49333 0.80809 0.0
C103 C 0.68727 0.60364 0.89001 0.0
C104 C 0.76226 0.82552 0.85668 0.0
C105 C 0.69672 0.86579 0.83727 0.0
C106 C 0.75257 0.89336 0.83082 0.0
C107 C 0.78517 0.87313 0.84041 0.0
C108 C 0.70888 0.80352 0.86693 0.0
C109 C 0.67628 0.8235 0.85724 0.0
C110 C 0.78589 0.79041 0.85462 0.0
C111 C 0.60629 0.63332 0.84005 0.0
H112 H 0.61268 0.30678 0.80986 0.0
H113 H 0.65722 0.40539 0.80989 0.0
H114 H 0.51578 0.39463 0.85024 0.0
H115 H 0.47063 0.29667 0.84927 0.0
H116 H 0.7699 0.92736 0.81624 0.0
H117 H 0.82636 0.89084 0.83238 0.0
H118 H 0.69024 0.76688 0.87966 0.0
H119 H 0.6337 0.80185 0.86299 0.0
C120 C 0.69684 0.14174 0.19301 0.0
N121 N 0.73735 0.17773 0.21052 0.0
N122 N 0.65656 0.09745 0.20747 0.0
C123 C 0.69446 0.15148 0.16217 0.0
C124 C 0.67507 0.10779 0.23427 0.0
N125 N 0.72238 0.15564 0.23625 0.0
C126 C 0.64825 1.06945 0.25886 0.0
H127 H 0.71481 0.19545 0.15735 0.0
H128 H 0.6518 0.13152 0.15507 0.0
H129 H 0.71567 0.13401 0.15035 0.0
H130 H 0.6241 1.02696 0.25183 0.0
H131 H 0.62115 1.08073 0.27009 0.0
H132 H 0.67872 1.07197 0.27406 0.0
C133 C 0.72889 0.6301 0.52649 0.0
N134 N 0.72673 0.66673 0.54479 0.0
N135 N 0.72455 0.58519 0.54022 0.0
C136 C 0.74026 0.64018 0.49552 0.0
C137 C 0.7187 0.59587 0.56746 0.0
N138 N 0.72127 0.64447 0.57036 0.0
C139 C 0.70677 0.55694 0.5917 0.0
H140 H 0.70122 0.62271 0.48424 0.0
H141 H 0.76269 0.62032 0.48772 0.0
H142 H 0.76416 0.68418 0.49076 0.0
H143 H 0.74535 0.56628 0.6019 0.0
H144 H 0.68593 0.51443 0.5845 0.0
H145 H 0.68072 0.56106 0.60781 0.0
C146 C 0.20091 0.62157 0.86265 0.0
N147 N 0.23871 0.62154 0.88088 0.0
N148 N 0.15784 0.62082 0.87664 0.0
C149 C 0.20316 0.61743 0.83128 0.0
C150 C 0.17155 0.62117 0.90395 0.0
N151 N 0.21867 0.62041 0.90663 0.0
C152 C 0.1403 0.62565 0.92858 0.0
H153 H 0.22536 0.65876 0.82198 0.0
H154 H 0.16168 0.59641 0.8225 0.0
H155 H 0.22451 0.59541 0.8253 0.0
H156 H 1.11121 0.58453 0.93674 0.0
H157 H 1.11754 0.64608 0.92235 0.0
H158 H 0.16796 0.64878 0.94591 0.0
C159 C 1.06317 0.78993 0.43617 0.0
N160 N 1.05183 0.74803 0.41903 0.0
N161 N 1.09026 0.83778 0.42214 0.0
C162 C 1.05546 0.78518 0.46762 0.0
C163 C 1.09308 0.82297 0.39539 0.0
N164 N 1.07014 0.7686 0.39349 0.0
C165 C 0.12827 0.86223 0.37266 0.0
H166 H 1.04824 0.81755 0.47551 0.0
H167 H 1.09288 0.79041 0.47754 0.0
H168 H 1.02096 0.74498 0.47382 0.0
H169 H 0.16286 0.85591 0.36789 0.0
H170 H 0.14395 0.90479 0.379 0.0
H171 H 1.10464 0.85482 0.35314 0.0
C172 C 0.38606 0.9034 0.74469 0.0
N173 N 0.42415 0.90638 0.72639 0.0
N174 N 0.3763 0.94482 0.74074 0.0
C175 C 0.36695 0.86685 0.77031 0.0
C176 C 0.40398 0.96804 0.71649 0.0
N177 N 0.43373 0.94569 0.70817 0.0
C178 C 0.40945 1.01895 0.70374 0.0
H179 H 0.33333 0.86863 0.78123 0.0
H180 H 0.40091 0.87871 0.78511 0.0
H181 H 0.35302 0.82466 0.76385 0.0
H182 H 0.43874 1.05425 0.71609 0.0
H183 H 0.36983 1.01745 0.70435 0.0
H184 H 0.4241 1.02452 0.68159 0.0
C185 C 0.55471 0.35318 0.10007 0.0
N186 N 0.56991 0.37114 0.07327 0.0
N187 N 0.51256 0.35909 0.10871 0.0
C188 C 0.58637 0.33733 0.11931 0.0
C189 C 0.49958 0.37698 0.08511 0.0
N190 N 0.5344 0.38453 0.06375 0.0
C191 C 0.45765 0.39429 0.08413 0.0
H192 H 0.59316 0.30653 0.10893 0.0
H193 H 0.56448 0.32046 0.13957 0.0
H194 H 0.62674 0.37301 0.12344 0.0
H195 H 0.47202 0.43193 0.09633 0.0
H196 H 0.41908 0.36263 0.09379 0.0
H197 H 0.44943 0.40147 0.06223 0.0
C198 C 0.47113 0.54625 0.19372 0.0
C199 C 0.44992 0.53587 0.22123 0.0
C200 C 0.48995 0.51436 0.18152 0.0
C201 C 0.48933 0.47216 0.1976 0.0
C202 C 0.47572 0.46677 0.22659 0.0
C203 C 0.4554 0.49839 0.23807 0.0
C204 C 0.5041 0.52185 0.15044 0.0
C205 C 0.47802 0.42479 0.24497 0.0
C206 C 0.45533 0.3581 0.14806 0.0
C207 C 0.50678 0.37496 0.13669 0.0
C208 C 0.44886 0.38607 0.17053 0.0
C209 C 0.49534 0.43014 0.18254 0.0
C210 C 0.5475 0.44128 0.17408 0.0
C211 C 0.55269 0.41494 0.15059 0.0
C212 C 0.39231 0.37265 0.17906 0.0
C213 C 0.59799 0.48534 0.18762 0.0
H214 H 0.46705 0.57494 0.18044 0.0
H215 H 0.43992 0.49081 0.25953 0.0
H216 H 0.54436 0.52589 0.14664 0.0
H217 H 0.47374 0.48581 0.13889 0.0
H218 H 0.50478 0.55813 0.14139 0.0
H219 H 0.48641 0.43846 0.26713 0.0
H220 H 0.43818 0.38687 0.24469 0.0
H221 H 0.50952 0.41564 0.23752 0.0
H222 H 0.42006 0.32624 0.13779 0.0
H223 H 0.59278 0.42888 0.14184 0.0
H224 H 0.38534 0.4058 0.17207 0.0
H225 H 0.38746 0.36919 0.20227 0.0
H226 H 0.36073 0.33429 0.16966 0.0
H227 H 0.60916 0.52492 0.17776 0.0
H228 H 0.63272 0.47837 0.18472 0.0
H229 H 0.59125 0.48786 0.21046 0.0
C230 C 1.01221 0.45669 0.44956 0.0
C231 C 0.98423 0.4352 0.47507 0.0
C232 C 1.02318 0.50766 0.43976 0.0
C233 C 1.00539 0.53755 0.4558 0.0
C234 C 0.97765 0.51635 0.48169 0.0
C235 C 0.96742 0.46541 0.49102 0.0
C236 C 1.05384 0.52959 0.4123 0.0
C237 C 0.95802 0.5471 0.49932 0.0
C238 C 1.07534 0.68939 0.44589 0.0
C239 C 1.03927 0.69501 0.4283 0.0
C240 C 1.06515 0.6383 0.45465 0.0
C241 C 1.01719 0.59179 0.44593 0.0
C242 C 0.98048 0.59729 0.42815 0.0
C243 C 0.99241 0.64912 0.41922 0.0
C244 C 1.10573 0.63411 0.47318 0.0
C245 C 0.92859 0.54854 0.41879 0.0
H246 H 1.02557 0.43358 0.43728 0.0
H247 H 0.94488 0.44853 0.51048 0.0
H248 H 1.02894 0.53751 0.3973 0.0
H249 H 1.09144 0.56875 0.41586 0.0
H250 H 1.06501 0.50134 0.40242 0.0
H251 H 0.94056 0.52679 0.51987 0.0
H252 H 0.99178 0.58859 0.50338 0.0
H253 H 0.92656 0.55108 0.4877 0.0
H254 H 1.11226 0.72526 0.45218 0.0
H255 H 0.96506 0.65408 0.40545 0.0
H256 H 1.11993 0.60853 0.46297 0.0
H257 H 1.08625 0.61431 0.49349 0.0
H258 H 0.14154 0.67428 0.47757 0.0
H259 H 0.93789 0.5206 0.40712 0.0
H260 H 0.90431 0.55979 0.40509 0.0
H261 H 0.90356 0.52603 0.43745 0.0
C262 C 0.66712 0.88008 0.79032 0.0
C263 C 0.65854 0.8736 0.81958 0.0
C264 C 0.62895 0.88167 0.77264 0.0
C265 C 0.58069 0.87588 0.78444 0.0
C266 C 0.57121 0.86852 0.81385 0.0
C267 C 0.61055 0.86804 0.83112 0.0
C268 C 0.64052 0.89018 0.74138 0.0
C269 C 0.51983 0.86188 0.8271 0.0
C270 C 0.51143 0.94233 0.74907 0.0
C271 C 0.46697 0.89849 0.73658 0.0
C272 C 0.54993 0.93572 0.76359 0.0
C273 C 0.54279 0.88335 0.7665 0.0
C274 C 0.49825 0.83863 0.75365 0.0
C275 C 0.46066 0.84685 0.7386 0.0
C276 C 0.59667 0.98449 0.777 0.0
C277 C 0.48953 0.78219 0.75653 0.0
H278 H 0.70318 0.8826 0.78105 0.0
H279 H 0.60358 0.86299 0.85367 0.0
H280 H 0.6069 0.85713 0.72961 0.0
H281 H 0.64308 0.92864 0.7346 0.0
H282 H 0.67902 0.89171 0.7354 0.0
H283 H 0.51599 0.85049 0.84974 0.0
H284 H 0.51939 0.90036 0.82512 0.0
H285 H 0.48377 0.83042 0.81597 0.0
H286 H 0.51431 0.98154 0.74879 0.0
H287 H 0.42531 0.81299 0.72948 0.0
H288 H 0.63571 0.98719 0.77114 0.0
H289 H 0.59248 0.98044 0.80025 0.0
H290 H 0.59853 1.02289 0.77067 0.0
H291 H 0.52253 0.77989 0.74527 0.0
H292 H 0.45005 0.75121 0.74781 0.0
H293 H 0.49117 0.77226 0.77897 0.0
C294 C 0.85455 0.52918 0.11737 0.0
C295 C 0.89809 0.56176 0.09923 0.0
C296 C 0.80397 0.49141 0.10681 0.0
C297 C 0.79619 0.48702 0.07734 0.0
C298 C 0.84043 0.51767 0.05884 0.0
C299 C 0.89106 0.55451 0.07002 0.0
C300 C 0.75784 0.45889 0.12733 0.0
C301 C 0.83354 0.51399 0.02732 0.0
C302 C 0.65543 0.37318 0.06142 0.0
C303 C 0.62638 0.40023 0.06527 0.0
C304 C 0.71239 0.40173 0.06245 0.0
C305 C 0.74003 0.45836 0.06675 0.0
C306 C 0.71084 0.48627 0.06707 0.0
C307 C 0.65447 0.45663 0.06735 0.0
C308 C 0.74218 0.37057 0.06199 0.0
C309 C 0.73848 0.54678 0.07094 0.0
H310 H 0.85924 0.53452 0.13992 0.0
H311 H 0.92489 0.57823 0.05581 0.0
H312 H 0.72857 0.47373 0.12673 0.0
H313 H 0.73575 0.41563 0.12143 0.0
H314 H 0.77216 0.46196 0.14928 0.0
H315 H 0.87316 0.53234 0.01597 0.0
H316 H 0.80837 0.47127 0.02081 0.0
H317 H 0.8122 0.53568 0.02072 0.0
H318 H 0.63351 0.32946 0.06008 0.0
H319 H 0.63244 0.47736 0.07202 0.0
H320 H 0.74936 0.3625 0.08394 0.0
H321 H 0.78222 0.39403 0.05128 0.0
H322 H 0.71823 0.3311 0.05134 0.0
H323 H 0.75054 0.5565 0.09323 0.0
H324 H 0.71131 0.56286 0.06554 0.0
H325 H 0.77567 0.56795 0.05766 0.0
C326 C 0.33083 1.03659 0.51191 0.0
C327 C 0.37348 1.0656 0.49263 0.0
C328 C 0.27683 1.01367 0.50336 0.0
C329 C 0.26613 1.02015 0.47504 0.0
C330 C 0.30852 1.05925 0.45778 0.0
C331 C 0.3622 1.08144 0.46673 0.0
C332 C 0.23224 0.9749 0.52301 0.0
C333 C 0.29825 1.06992 0.428 0.0
C334 C 0.18307 0.88725 0.43833 0.0
C335 C 0.13342 0.88493 0.43487 0.0
C336 C 0.22612 0.93109 0.45136 0.0
C337 C 0.21937 0.97418 0.46119 0.0
C338 C 0.16907 0.97224 0.45759 0.0
C339 C 0.12619 0.92701 0.44455 0.0
C340 C 0.27871 0.93072 0.45467 0.0
C341 C 0.15981 1.01677 0.46793 0.0
H342 H 0.33949 1.0262 0.53246 0.0
H343 H 0.3949 0.10508 0.45188 0.0
H344 H 0.19466 0.97664 0.51978 0.0
H345 H 0.22306 0.93303 0.51862 0.0
H346 H 0.2444 0.98378 0.54537 0.0
H347 H 0.33095 0.10991 0.42017 0.0
H348 H 0.29708 1.03826 0.4141 0.0
H349 H 0.2587 1.06843 0.42646 0.0
H350 H 0.18765 0.85392 0.43093 0.0
H351 H 1.08718 0.92434 0.44198 0.0
H352 H 0.289 0.93286 0.47726 0.0
H353 H 0.31229 0.96641 0.4438 0.0
H354 H 0.2766 0.89379 0.44586 0.0
H355 H 0.14604 1.00842 0.49023 0.0
H356 H 0.12778 1.01864 0.45565 0.0
H357 H 0.19741 1.05686 0.46681 0.0
C358 C 0.46561 0.19792 0.84019 0.0
C359 C 0.50515 0.23592 0.82162 0.0
C360 C 0.43199 0.14396 0.83209 0.0
C361 C 0.43863 0.12783 0.80498 0.0
C362 C 0.47822 0.16614 0.78615 0.0
C363 C 0.51064 0.21961 0.79465 0.0
C364 C 0.38999 0.10418 0.85259 0.0
C365 C 0.48687 0.15065 0.75699 0.0
C366 C 0.4188 0.99406 0.78375 0.0
C367 C 0.37768 0.97819 0.76374 0.0
C368 C 0.4343 1.0393 0.80045 0.0
C369 C 0.40875 1.07026 0.79665 0.0
C370 C 0.36279 1.05085 0.77914 0.0
C371 C 0.3476 1.00461 0.76282 0.0
C372 C 0.48345 1.0582 0.81883 0.0
C373 C 0.33376 1.08224 0.77505 0.0
H374 H 0.46106 0.21034 0.86105 0.0
H375 H 0.53974 0.24901 0.77982 0.0
H376 H 0.34992 1.0818 0.84234 0.0
H377 H 0.40126 1.0739 0.85928 0.0
H378 H 0.38599 0.12433 0.87163 0.0
H379 H 0.51919 0.18553 0.74494 0.0
H380 H 0.49822 0.11882 0.75844 0.0
H381 H 0.44872 0.13386 0.74496 0.0
H382 H 0.44306 0.97468 0.78432 0.0
H383 H 0.31554 0.99209 0.74758 0.0
H384 H 0.47849 1.07516 0.83881 0.0
H385 H 0.51957 0.09063 0.8076 0.0
H386 H 0.49148 1.02484 0.82384 0.0
H387 H 0.33131 0.10087 0.79501 0.0
H388 H 0.29215 1.05607 0.76698 0.0
H389 H 0.35664 0.11533 0.75949 0.0
C390 C 0.68301 0.93066 0.52558 0.0
C391 C 0.72542 0.97475 0.5106 0.0
C392 C 0.68324 0.88136 0.53128 0.0
C393 C 0.72606 0.87336 0.52122 0.0
C394 C 0.76848 0.91741 0.50566 0.0
C395 C 0.76809 0.9669 0.50102 0.0
C396 C 0.63756 0.83782 0.54866 0.0
C397 C 0.81461 0.91216 0.49352 0.0
C398 C 0.75565 0.76504 0.55553 0.0
C399 C 0.72796 0.71876 0.53843 0.0
C400 C 0.75455 0.81405 0.55057 0.0
C401 C 0.72675 0.81979 0.52712 0.0
C402 C 0.6998 0.77375 0.50938 0.0
C403 C 0.69998 0.72452 0.51539 0.0
C404 C 0.78324 0.86001 0.57085 0.0
C405 C 0.67044 0.77638 0.48372 0.0
H406 H 0.64972 0.93507 0.53353 0.0
H407 H 0.80134 0.99953 0.48937 0.0
H408 H 0.61519 0.80059 0.53608 0.0
H409 H 0.65418 0.82739 0.56718 0.0
H410 H 0.60849 0.85029 0.55617 0.0
H411 H 0.84281 0.9479 0.48049 0.0
H412 H 0.83785 0.90725 0.51075 0.0
H413 H 0.79845 0.87545 0.48034 0.0
H414 H 0.77914 0.76362 0.5729 0.0
H415 H 0.67731 0.69002 0.50198 0.0
H416 H 0.75517 0.87363 0.57845 0.0
H417 H 0.81766 0.89493 0.55997 0.0
H418 H 0.79907 0.84849 0.58932 0.0
H419 H 0.63573 0.78131 0.49022 0.0
H420 H 0.65493 0.73947 0.47072 0.0
H421 H 0.69796 0.81212 0.47053 0.0
C422 C 0.86325 0.58585 0.82718 0.0
C423 C 0.85166 0.62071 0.84296 0.0
C424 C 0.91301 0.58522 0.83 0.0
C425 C 0.95318 0.61918 0.8497 0.0
C426 C 0.94137 0.65402 0.86582 0.0
C427 C 0.89204 0.65483 0.86207 0.0
C428 C 0.92273 0.54804 0.81162 0.0
C429 C 0.98078 0.69025 0.88764 0.0
C430 C 1.05612 0.57906 0.87925 0.0
C431 C 1.10646 0.6165 0.86665 0.0
C432 C 1.00706 0.5793 0.87384 0.0
C433 C 1.00597 0.61686 0.85439 0.0
C434 C 1.05615 0.65308 0.84043 0.0
C435 C 1.10522 0.65285 0.84682 0.0
C436 C 0.95636 0.54014 0.88992 0.0
C437 C 1.05835 0.69322 0.81901 0.0
H438 H 0.83354 0.55928 0.81217 0.0
H439 H 0.88471 0.682 0.87471 0.0
H440 H 0.96205 0.57143 0.8002 0.0
H441 H 0.92533 0.51733 0.82484 0.0
H442 H 0.89005 0.52683 0.79604 0.0
H443 H 0.96614 0.71459 0.89885 0.0
H444 H 0.98769 0.66547 0.90333 0.0
H445 H 1.0205 0.7182 0.87754 0.0
H446 H 1.05536 0.54999 0.89424 0.0
H447 H 0.14304 0.68237 0.83684 0.0
H448 H 0.9237 0.51468 0.8751 0.0
H449 H 0.94171 0.56286 0.90261 0.0
H450 H 0.96311 0.51328 0.90424 0.0
H451 H 1.02564 0.67247 0.80341 0.0
H452 H 1.09801 0.71452 0.80769 0.0
H453 H 1.05148 0.72377 0.82962 0.0
C454 C 0.3564 0.84111 0.16403 0.0
C455 C 0.34874 0.79239 0.17609 0.0
C456 C 0.40612 0.89148 0.16659 0.0
C457 C 0.4502 0.89526 0.18247 0.0
C458 C 0.44234 0.84625 0.19493 0.0
C459 C 0.39295 0.79618 0.19126 0.0
C460 C 0.41159 0.94094 0.15194 0.0
C461 C 0.48606 0.84676 0.2128 0.0
C462 C 0.60012 1.01699 0.17593 0.0
C463 C 0.60411 1.05075 0.19845 0.0
C464 C 0.55065 0.96795 0.16992 0.0
C465 C 0.50308 0.95016 0.18709 0.0
C466 C 0.50685 0.98489 0.20938 0.0
C467 C 0.55598 1.03432 0.21427 0.0
C468 C 0.54965 0.93453 0.1453 0.0
C469 C 0.45916 0.96894 0.22897 0.0
H470 H 0.32362 0.83979 0.15202 0.0
H471 H 0.38859 0.75974 0.20093 0.0
H472 H 0.41556 0.97107 0.16773 0.0
H473 H 0.44894 0.96021 0.13866 0.0
H474 H 0.37623 0.93126 0.13849 0.0
H475 H 0.47397 0.80618 0.22172 0.0
H476 H 0.52368 0.86101 0.20009 0.0
H477 H 0.49581 0.8755 0.23037 0.0
H478 H 0.63616 1.0281 0.16338 0.0
H479 H 0.55718 1.05978 0.23134 0.0
H480 H 0.51362 0.92357 0.13217 0.0
H481 H 0.54636 0.8963 0.15305 0.0
H482 H 0.58674 0.95617 0.13191 0.0
H483 H 0.42384 0.96408 0.21695 0.0
H484 H 0.46829 0.9992 0.24571 0.0
H485 H 0.44709 0.9293 0.23908 0.0
C486 C 0.67822 0.28117 0.51171 0.0
C487 C 0.7245 0.27958 0.50225 0.0
C488 C 0.67865 0.33093 0.51647 0.0
C489 C 0.7257 0.38224 0.51029 0.0
C490 C 0.77176 0.38043 0.49944 0.0
C491 C 0.77108 0.33023 0.49646 0.0
C492 C 0.62819 0.32775 0.52874 0.0
C493 C 0.82297 0.43153 0.491 0.0
C494 C 0.69962 0.50589 0.50721 0.0
C495 C 0.72892 0.53801 0.53024 0.0
C496 C 0.69957 0.45706 0.49992 0.0
C497 C 0.72771 0.43694 0.51651 0.0
C498 C 0.75786 0.46996 0.53953 0.0
C499 C 0.75937 0.51969 0.54533 0.0
C500 C 0.6685 0.42734 0.47425 0.0
C501 C 0.78855 0.4532 0.55899 0.0
H502 H 0.64173 0.24315 0.51655 0.0
H503 H 0.80745 0.33081 0.48906 0.0
H504 H 0.638 0.3622 0.54285 0.0
H505 H 0.60293 0.32869 0.51137 0.0
H506 H 0.60347 0.28945 0.54078 0.0
H507 H 0.8433 0.42426 0.47289 0.0
H508 H 0.81541 0.46488 0.48531 0.0
H509 H 0.85141 0.44454 0.50884 0.0
H510 H 0.6757 0.51829 0.49499 0.0
H511 H 0.78393 0.54395 0.56257 0.0
H512 H 0.62467 0.40372 0.4797 0.0
H513 H 0.68153 0.39944 0.46587 0.0
H514 H 0.6734 0.45651 0.45733 0.0
H515 H 0.77209 0.40884 0.55938 0.0
H516 H 0.7877 0.46642 0.58083 0.0
H517 H 0.83166 0.4735 0.5521 0.0
C518 C 0.55001 0.67351 0.86076 0.0
C519 C 0.55259 0.63339 0.84471 0.0
C520 C 0.50011 0.6725 0.86664 0.0
C521 C 0.44986 0.63105 0.85571 0.0
C522 C 0.45247 0.59107 0.83895 0.0
C523 C 0.50272 0.59213 0.83419 0.0
C524 C 0.5015 0.71605 0.88497 0.0
C525 C 0.40182 0.54696 0.82565 0.0
C526 C 0.30916 0.59334 0.89004 0.0
C527 C 0.29096 0.62328 0.87429 0.0
C528 C 0.36021 0.59649 0.88473 0.0
C529 C 0.395 0.62873 0.86216 0.0
C530 C 0.37654 0.65835 0.84585 0.0
C531 C 0.32617 0.65603 0.85229 0.0
C532 C 0.37728 0.56543 0.90377 0.0
C533 C 0.41015 0.69277 0.82128 0.0
H534 H 0.58718 0.70517 0.86965 0.0
H535 H 0.50295 0.56059 0.82176 0.0
H536 H 0.49591 0.74496 0.87176 0.0
H537 H 0.46806 0.69836 0.90082 0.0
H538 H 0.54065 0.73903 0.89608 0.0
H539 H 0.41045 0.52145 0.81139 0.0
H540 H 0.37286 0.52061 0.84223 0.0
H541 H 0.38156 0.56495 0.81347 0.0
H542 H 0.28322 0.56651 0.90658 0.0
H543 H 0.3147 0.68068 0.84006 0.0
H544 H 0.41843 0.59288 0.91202 0.0
H545 H 0.37941 0.53345 0.8917 0.0
H546 H 0.34882 0.54613 0.92184 0.0
H547 H 0.44902 0.72653 0.82891 0.0
H548 H 0.38911 0.71005 0.80916 0.0
H549 H 0.42012 0.66844 0.80689 0.0
C550 C 0.99746 0.475 0.161 0.0
C551 C 1.0457 0.48549 0.17458 0.0
C552 C 0.94668 0.42603 0.16575 0.0
C553 C 0.94234 0.38487 0.18467 0.0
C554 C 0.99101 0.39521 0.19823 0.0
C555 C 1.041 0.44438 0.19315 0.0
C556 C 0.8972 0.41874 0.15062 0.0
C557 C 0.99035 0.35405 0.21849 0.0
C558 C 0.80332 0.27725 0.21904 0.0
C559 C 0.78737 0.22981 0.20337 0.0
C560 C 0.85217 0.32716 0.21302 0.0
C561 C 0.88773 0.33159 0.19053 0.0
C562 C 0.87146 0.28393 0.17443 0.0
C563 C 0.82235 0.23447 0.18093 0.0
C564 C 0.86592 0.37551 0.23103 0.0
C565 C 0.9066 0.28489 0.15032 0.0
H566 H 0.99924 0.5053 0.14656 0.0
H567 H 1.07687 0.45064 0.20409 0.0
H568 H 0.87659 0.37907 0.13995 0.0
H569 H 0.86795 0.41891 0.1661 0.0
H570 H 0.90727 0.45123 0.13474 0.0
H571 H 1.03104 0.36701 0.22723 0.0
H572 H 0.96182 0.34696 0.23618 0.0
H573 H 0.97562 0.31484 0.20775 0.0
H574 H 0.77708 0.2757 0.23603 0.0
H575 H 0.81184 0.19884 0.16863 0.0
H576 H 0.87048 0.40953 0.21765 0.0
H577 H 0.90531 0.38923 0.24149 0.0
H578 H 0.83447 0.36656 0.24744 0.0
H579 H 0.91371 0.31751 0.13513 0.0
H580 H 0.88819 0.24582 0.13903 0.0
H581 H 0.94676 0.29399 0.1583 0.0
C582 C 0.26094 0.59858 0.07319 0.0
C583 C 0.22931 0.61965 0.08382 0.0
C584 C 0.26863 0.59655 0.04379 0.0
C585 C 0.24277 0.61444 0.02456 0.0
C586 C 0.20976 0.63439 0.03539 0.0
C587 C 0.20419 0.63745 0.06465 0.0
C588 C 0.3052 0.57627 0.03328 0.0
C589 C 0.17974 0.65228 0.01604 0.0
C590 C 0.27905 0.65855 0.94754 0.0
C591 C 0.23806 0.61378 0.93363 0.0
C592 C 0.28488 0.65752 0.97705 0.0
C593 C 0.24796 0.61111 0.9931 0.0
C594 C 0.20961 0.56434 0.97866 0.0
C595 C 0.20559 0.56619 0.94922 0.0
C596 C 0.32751 0.70784 0.99125 0.0
C597 C 0.16859 0.51417 0.99446 0.0
H598 H 0.28098 0.5853 0.08782 0.0
H599 H 0.17935 0.65344 0.0726 0.0
H600 H 0.28247 0.54115 0.01932 0.0
H601 H 0.33892 0.60839 0.02055 0.0
H602 H 0.32257 0.56404 0.05076 0.0
H603 H 0.15463 0.66553 0.02777 0.0
H604 H 0.20898 0.68628 0.00241 0.0
H605 H 0.15287 0.6186 0.00205 0.0
H606 H 0.30366 0.69564 0.93568 0.0
H607 H 0.17328 0.53191 0.93851 0.0
H608 H 0.34691 0.69732 0.0084 0.0
H609 H 0.30823 0.72947 0.0008 0.0
H610 H 0.35935 0.73577 0.97611 0.0
H611 H 0.18817 0.50354 0.01142 0.0
H612 H 0.14727 0.47894 0.98033 0.0
H613 H 0.13791 0.52196 0.00449 0.0
C614 C 0.71995 0.11011 0.39351 0.0
C615 C 0.75577 0.1496 0.4122 0.0
C616 C 0.72416 0.11934 0.3642 0.0
C617 C 0.76523 0.16949 0.35287 0.0
C618 C 0.80241 0.20917 0.37151 0.0
C619 C 0.7973 0.19879 0.40087 0.0
C620 C 0.68365 1.07555 0.34535 0.0
C621 C 0.8468 0.26312 0.3605 0.0
C622 C 0.78506 0.16278 0.27357 0.0
C623 C 0.74864 0.17754 0.26277 0.0
C624 C 0.79452 0.16408 0.30279 0.0
C625 C 0.76678 0.18048 0.3217 0.0
C626 C 0.73389 0.20015 0.31048 0.0
C627 C 0.72505 0.1981 0.28127 0.0
C628 C 0.83016 0.14301 0.31352 0.0
C629 C 0.70368 0.21845 0.32948 0.0
H630 H 0.68779 1.07186 0.40181 0.0
H631 H 0.82526 0.22974 0.41496 0.0
H632 H 0.65981 0.09046 0.33393 0.0
H633 H 0.70516 1.06491 0.32932 0.0
H634 H 0.65508 1.03828 0.35727 0.0
H635 H 0.87479 0.2882 0.37734 0.0
H636 H 0.87061 0.25715 0.34377 0.0
H637 H 0.82863 0.28573 0.35088 0.0
H638 H 0.80214 0.14545 0.25944 0.0
H639 H 0.69582 0.20818 0.27304 0.0
H640 H 0.80432 0.10167 0.32237 0.0
H641 H 0.85652 0.16882 0.33063 0.0
H642 H 0.85607 0.14106 0.29651 0.0
H643 H 0.66979 0.18269 0.34018 0.0
H644 H 0.68661 0.23998 0.31761 0.0
H645 H 0.7307 0.24555 0.34603 0.0
C646 C 0.69335 0.61371 0.73011 0.0
C647 C 0.71128 0.65784 0.74836 0.0
C648 C 0.69636 0.62055 0.70065 0.0
C649 C 0.71683 0.67286 0.68862 0.0
C650 C 0.73413 0.71764 0.70686 0.0
C651 C 0.73179 0.70974 0.73643 0.0
C652 C 0.67846 0.57155 0.68233 0.0
C653 C 0.75516 0.77391 0.69511 0.0
C654 C 0.77106 0.68232 0.61395 0.0
C655 C 0.72525 0.66865 0.59762 0.0
C656 C 0.77025 0.68776 0.64335 0.0
C657 C 0.72243 0.67997 0.65703 0.0
C658 C 0.67761 0.67105 0.64027 0.0
C659 C 0.67934 0.66491 0.61081 0.0
C660 C 0.81888 0.69653 0.65993 0.0
C661 C 0.6262 0.66372 0.65366 0.0
H662 H 0.67772 0.57341 0.73888 0.0
H663 H 0.74537 0.74413 0.75021 0.0
H664 H 0.64556 0.56679 0.66823 0.0
H665 H 0.71277 0.57703 0.66876 0.0
H666 H 0.66361 0.53367 0.69486 0.0
H667 H 0.76369 0.80394 0.71189 0.0
H668 H 0.793 0.78674 0.68281 0.0
H669 H 0.72518 0.77426 0.68048 0.0
H670 H 0.80614 0.68409 0.60382 0.0
H671 H 0.64352 0.65332 0.59838 0.0
H672 H 0.80913 0.65846 0.67115 0.0
H673 H 0.8293 0.72805 0.67604 0.0
H674 H 0.855 0.70865 0.64621 0.0
H675 H 0.60353 0.62299 0.66362 0.0
H676 H 0.59954 0.66741 0.63795 0.0
H677 H 0.63559 0.69397 0.6704 0.0
C678 C 0.62774 0.10849 0.58567 0.0
C679 C 0.67329 0.10322 0.57999 0.0
C680 C 0.59366 1.08255 0.60878 0.0
C681 C 0.60624 1.05185 0.62746 0.0
C682 C 0.65435 1.04954 0.62317 0.0
C683 C 0.68717 1.07483 0.59919 0.0
C684 C 0.54257 0.08578 0.61227 0.0
C685 C 0.67001 1.01874 0.64324 0.0
C686 C 0.52329 1.02227 0.6944 0.0
C687 C 0.47976 0.97037 0.68918 0.0
C688 C 0.56756 1.04737 0.6757 0.0
C689 C 0.56711 1.02081 0.65059 0.0
C690 C 0.524 0.96752 0.64575 0.0
C691 C 0.4812 0.94256 0.66545 0.0
C692 C 0.61348 0.10332 0.6822 0.0
C693 C 0.52125 0.93827 0.61894 0.0
H694 H 0.61697 0.13097 0.5712 0.0
H695 H 0.72224 1.07056 0.59496 0.0
H696 H 0.50648 1.04457 0.61153 0.0
H697 H 0.54203 0.10294 0.63305 0.0
H698 H 0.5386 0.11108 0.59567 0.0
H699 H 0.71251 1.02831 0.63972 0.0
H700 H 0.66521 1.02797 0.66537 0.0
H701 H 0.64284 0.97467 0.64036 0.0
H702 H 0.52234 1.04336 0.71307 0.0
H703 H 0.44755 0.90225 0.66178 0.0
H704 H 0.61041 0.13353 0.66876 0.0
H705 H 0.65318 0.10649 0.6775 0.0
H706 H 0.61265 0.11398 0.70457 0.0
H707 H 0.51521 0.95941 0.60086 0.0
H708 H 0.48755 0.89561 0.61942 0.0
H709 H 0.5599 0.93874 0.61514 0.0
C710 C 0.69243 0.57129 0.93778 0.0
C711 C 0.66302 0.58135 0.91765 0.0
C712 C 0.66701 0.54214 0.9625 0.0
C713 C 0.61045 0.52066 0.96635 0.0
C714 C 0.58094 0.53195 0.94624 0.0
C715 C 0.6079 0.56293 0.92223 0.0
C716 C 0.70025 0.53264 0.98399 0.0
C717 C 0.52046 0.50862 0.94922 0.0
C718 C 0.548 0.39501 0.01262 0.0
C719 C 0.54257 0.41547 0.03828 0.0
C720 C 0.56647 0.42803 0.98845 0.0
C721 C 0.58197 0.4834 0.99043 0.0
C722 C 0.57449 0.50373 0.01611 0.0
C723 C 0.55383 0.46914 0.03963 0.0
C724 C 0.57203 0.40432 0.96118 0.0
C725 C 0.5924 0.56284 0.01945 0.0
H726 H 0.73503 0.58535 0.9339 0.0
H727 H 0.58524 0.57008 0.9062 0.0
H728 H 0.69231 0.54272 0.00537 0.0
H729 H 0.68846 0.48928 0.98434 0.0
H730 H 0.74445 0.55706 0.97938 0.0
H731 H 0.50432 0.52463 0.9329 0.0
H732 H 0.49974 0.46396 0.94736 0.0
H733 H 0.51 0.51752 0.97027 0.0
H734 H 0.53951 0.35358 0.01183 0.0
H735 H 0.55095 0.48524 0.05974 0.0
H736 H 0.61557 0.42019 0.95627 0.0
H737 H 0.55482 0.41637 0.94357 0.0
H738 H 0.55136 0.35946 0.96221 0.0
H739 H 0.63738 0.58684 0.01905 0.0
H740 H 0.57765 0.57074 0.03958 0.0
H741 H 0.57785 0.57757 0.00179 0.0
C742 C 0.19726 0.71028 0.26128 0.0
C743 C 0.16363 0.66137 0.24792 0.0
C744 C 0.18047 0.72339 0.28641 0.0
C745 C 0.12973 0.68575 0.29877 0.0
C746 C 1.09727 0.63484 0.28611 0.0
C747 C 1.1141 0.62375 0.26042 0.0
C748 C 0.21562 0.77863 0.29886 0.0
C749 C 1.0441 0.59278 0.29924 0.0
C750 C 1.11094 0.71701 0.3741 0.0
C751 C 1.07891 0.74104 0.37051 0.0
C752 C 1.12486 0.69553 0.35117 0.0
C753 C 1.10916 0.7013 0.32379 0.0
C754 C 1.0763 0.72507 0.3201 0.0
C755 C 1.06069 0.74365 0.34365 0.0
C756 C 0.15799 0.6685 0.3562 0.0
C757 C 1.05982 0.7333 0.2912 0.0
H758 H 0.23522 0.73947 0.25123 0.0
H759 H 1.08824 0.58591 0.24988 0.0
H760 H 0.19326 0.80116 0.29902 0.0
H761 H 0.2253 0.77472 0.32098 0.0
H762 H 0.25421 0.80285 0.28689 0.0
H763 H 1.02721 0.55307 0.28867 0.0
H764 H 1.04946 0.58725 0.32189 0.0
H765 H 1.01406 0.60652 0.29784 0.0
H766 H 0.12691 0.71682 0.39462 0.0
H767 H 1.0361 0.76245 0.34102 0.0
H768 H 0.20026 0.69548 0.34877 0.0
H769 H 0.14142 0.63037 0.34419 0.0
H770 H 0.15886 0.65916 0.37886 0.0
H771 H 1.09657 0.75966 0.27832 0.0
H772 H 1.03395 0.75216 0.29201 0.0
H773 H 1.03735 0.69407 0.28027 0.0
loop_
_geom_bond_atom_site_label_1
_geom_bond_atom_site_label_2
_geom_bond_distance
_geom_bond_site_symmetry_2
_ccdc_geom_bond_type
Tb0 C9 2.764 . S
Tb0 O10 2.325 . S
Tb0 O13 2.303 . S
Tb0 O17 2.322 1_655 S
Tb0 O18 2.349 . S
Tb0 O21 2.415 . S
Tb0 O22 2.399 . S
Tb1 O11 2.322 1_455 S
Tb1 O12 2.349 . S
Tb1 O14 2.415 . S
Tb1 O15 2.399 . S
Tb1 O16 2.325 . S
Tb1 O19 2.303 . S
Tb1 C30 2.764 . S
C2 O18 1.261 1_455 S
C2 O19 1.257 . S
C3 C6 1.358 . S
C3 C7 1.332 . S
C3 C9 1.504 . S
C4 C5 1.373 . S
C4 C8 1.308 . S
C5 C4 1.373 . S
C5 C6 1.429 . S
C5 H32 0.932 . S
C6 C3 1.358 . S
C6 C5 1.429 . S
C6 H33 0.930 . S
C7 C3 1.332 . S
C7 C8 1.394 . S
C7 H34 0.932 . S
C8 C4 1.308 . S
C8 C7 1.394 . S
C8 H35 0.929 . S
C9 Tb0 2.764 . S
C9 C3 1.504 . S
C9 O21 1.239 . S
C9 O22 1.263 . S
O10 Tb0 2.325 . S
O10 C20 1.236 . S
O11 Tb1 2.322 1_655 S
O11 C20 1.257 . S
O12 Tb1 2.349 . S
O12 C23 1.261 . S
O13 Tb0 2.303 . S
O13 C23 1.257 1_655 S
O14 Tb1 2.415 . S
O14 C30 1.239 . S
O15 Tb1 2.399 . S
O15 C30 1.263 . S
O16 Tb1 2.325 . S
O16 C31 1.236 . S
O17 Tb0 2.322 1_455 S
O17 C31 1.257 . S
O18 Tb0 2.349 . S
O18 C2 1.261 1_655 S
O19 Tb1 2.303 . S
O19 C2 1.257 . S
C20 O10 1.236 . S
C20 O11 1.257 . S
O21 Tb0 2.415 . S
O21 C9 1.239 . S
O22 Tb0 2.399 . S
O22 C9 1.263 . S
C23 O12 1.261 . S
C23 O13 1.257 1_455 S
C24 C27 1.358 . S
C24 C28 1.332 . S
C24 C30 1.504 . S
C25 C26 1.373 . S
C25 C29 1.308 . S
C26 C25 1.373 . S
C26 C27 1.429 . S
C26 H36 0.932 . S
C27 C24 1.358 . S
C27 C26 1.429 . S
C27 H37 0.930 . S
C28 C24 1.332 . S
C28 C29 1.394 . S
C28 H38 0.932 . S
C29 C25 1.308 . S
C29 C28 1.394 . S
C29 H39 0.929 . S
C30 Tb1 2.764 . S
C30 O14 1.239 . S
C30 O15 1.263 . S
C30 C24 1.504 . S
C31 O16 1.236 . S
C31 O17 1.257 . S
H32 C5 0.932 . S
H33 C6 0.930 . S
H34 C7 0.932 . S
H35 C8 0.929 . S
H36 C26 0.932 . S
H37 C27 0.930 . S
H38 C28 0.932 . S
H39 C29 0.929 . S
Tb40 C49 2.764 . S
Tb40 O50 2.325 . S
Tb40 O53 2.303 1_565 S
Tb40 O57 2.322 1_565 S
Tb40 O58 2.349 1_565 S
Tb40 O61 2.415 . S
Tb40 O62 2.399 . S
Tb41 O51 2.322 1_545 S
Tb41 O52 2.349 . S
Tb41 O54 2.415 . S
Tb41 O55 2.399 . S
Tb41 O56 2.325 . S
Tb41 O59 2.303 . S
Tb41 C70 2.764 . S
C42 O58 1.261 . S
C42 O59 1.257 . S
C43 C46 1.358 . S
C43 C47 1.332 . S
C43 C49 1.504 . S
C44 C45 1.373 . S
C44 C48 1.308 . S
C45 C44 1.373 . S
C45 C46 1.429 . S
C45 H72 0.932 . S
C46 C43 1.358 . S
C46 C45 1.429 . S
C46 H73 0.930 . S
C47 C43 1.332 . S
C47 C48 1.394 . S
C47 H74 0.932 . S
C48 C44 1.308 . S
C48 C47 1.394 . S
C48 H75 0.929 . S
C49 Tb40 2.764 . S
C49 C43 1.504 . S
C49 O61 1.239 . S
C49 O62 1.263 . S
O50 Tb40 2.325 . S
O50 C60 1.236 . S
O51 Tb41 2.322 1_565 S
O51 C60 1.257 . S
O52 Tb41 2.349 . S
O52 C63 1.261 . S
O53 Tb40 2.303 1_545 S
O53 C63 1.257 . S
O54 Tb41 2.415 . S
O54 C70 1.239 . S
O55 Tb41 2.399 . S
O55 C70 1.263 . S
O56 Tb41 2.325 . S
O56 C71 1.236 . S
O57 Tb40 2.322 1_545 S
O57 C71 1.257 . S
O58 Tb40 2.349 1_545 S
O58 C42 1.261 . S
O59 Tb41 2.303 . S
O59 C42 1.257 . S
C60 O50 1.236 . S
C60 O51 1.257 . S
O61 Tb40 2.415 . S
O61 C49 1.239 . S
O62 Tb40 2.399 . S
O62 C49 1.263 . S
C63 O52 1.261 . S
C63 O53 1.257 . S
C64 C67 1.358 . S
C64 C68 1.332 . S
C64 C70 1.504 . S
C65 C66 1.373 . S
C65 C69 1.308 . S
C66 C65 1.373 . S
C66 C67 1.429 . S
C66 H76 0.932 . S
C67 C64 1.358 . S
C67 C66 1.429 . S
C67 H77 0.930 . S
C68 C64 1.332 . S
C68 C69 1.394 . S
C68 H78 0.932 . S
C69 C65 1.308 . S
C69 C68 1.394 . S
C69 H79 0.929 . S
C70 Tb41 2.764 . S
C70 O54 1.239 . S
C70 O55 1.263 . S
C70 C64 1.504 . S
C71 O56 1.236 . S
C71 O57 1.257 . S
H72 C45 0.932 . S
H73 C46 0.930 . S
H74 C47 0.932 . S
H75 C48 0.929 . S
H76 C66 0.932 . S
H77 C67 0.930 . S
H78 C68 0.932 . S
H79 C69 0.929 . S
Tb80 C89 2.764 . S
Tb80 O90 2.325 . S
Tb80 O93 2.303 . S
Tb80 O97 2.322 . S
Tb80 O98 2.349 . S
Tb80 O101 2.415 . S
Tb80 O102 2.399 . S
Tb81 O91 2.322 . S
Tb81 O92 2.349 . S
Tb81 O94 2.415 . S
Tb81 O95 2.399 . S
Tb81 O96 2.325 . S
Tb81 O99 2.303 . S
Tb81 C110 2.764 . S
C82 O98 1.261 . S
C82 O99 1.257 . S
C83 C86 1.358 . S
C83 C87 1.332 . S
C83 C89 1.504 . S
C84 C85 1.373 . S
C84 C88 1.308 . S
C85 C84 1.373 . S
C85 C86 1.429 . S
C85 H112 0.932 . S
C86 C83 1.358 . S
C86 C85 1.429 . S
C86 H113 0.930 . S
C87 C83 1.332 . S
C87 C88 1.394 . S
C87 H114 0.932 . S
C88 C84 1.308 . S
C88 C87 1.394 . S
C88 H115 0.929 . S
C89 Tb80 2.764 . S
C89 C83 1.504 . S
C89 O101 1.239 . S
C89 O102 1.263 . S
O90 Tb80 2.325 . S
O90 C100 1.236 . S
O91 Tb81 2.322 . S
O91 C100 1.257 . S
O92 Tb81 2.349 . S
O92 C103 1.261 . S
O93 Tb80 2.303 . S
O93 C103 1.257 . S
O94 Tb81 2.415 . S
O94 C110 1.239 . S
O95 Tb81 2.399 . S
O95 C110 1.263 . S
O96 Tb81 2.325 . S
O96 C111 1.236 . S
O97 Tb80 2.322 . S
O97 C111 1.257 . S
O98 Tb80 2.349 . S
O98 C82 1.261 . S
O99 Tb81 2.303 . S
O99 C82 1.257 . S
C100 O90 1.236 . S
C100 O91 1.257 . S
O101 Tb80 2.415 . S
O101 C89 1.239 . S
O102 Tb80 2.399 . S
O102 C89 1.263 . S
C103 O92 1.261 . S
C103 O93 1.257 . S
C104 C107 1.358 . S
C104 C108 1.332 . S
C104 C110 1.504 . S
C105 C106 1.373 . S
C105 C109 1.308 . S
C106 C105 1.373 . S
C106 C107 1.429 . S
C106 H116 0.932 . S
C107 C104 1.358 . S
C107 C106 1.429 . S
C107 H117 0.930 . S
C108 C104 1.332 . S
C108 C109 1.394 . S
C108 H118 0.932 . S
C109 C105 1.308 . S
C109 C108 1.394 . S
C109 H119 0.929 . S
C110 Tb81 2.764 . S
C110 O94 1.239 . S
C110 O95 1.263 . S
C110 C104 1.504 . S
C111 O96 1.236 . S
C111 O97 1.257 . S
H112 C85 0.932 . S
H113 C86 0.930 . S
H114 C87 0.932 . S
H115 C88 0.929 . S
H116 C106 0.932 . S
H117 C107 0.930 . S
H118 C108 0.932 . S
H119 C109 0.929 . S
C120 N121 1.317 1_565 S
C120 N122 1.348 . S
C120 C123 1.485 1_565 S
N121 C120 1.317 1_545 S
N121 N125 1.370 . S
N122 C120 1.348 . S
N122 C124 1.346 . S
C123 C120 1.485 1_545 S
C123 H127 0.960 . S
C123 H128 0.961 1_545 S
C123 H129 0.960 . S
C124 N122 1.346 . S
C124 N125 1.307 1_565 S
C124 C126 1.486 . S
N125 N121 1.370 . S
N125 C124 1.307 1_545 S
C126 C124 1.486 . S
C126 H130 0.960 . S
C126 H131 0.960 . S
C126 H132 0.959 . S
H127 C123 0.960 . S
H128 C123 0.961 1_565 S
H129 C123 0.960 . S
H130 C126 0.960 . S
H131 C126 0.960 . S
H132 C126 0.959 . S
C133 N134 1.317 . S
C133 N135 1.348 . S
C133 C136 1.485 . S
N134 C133 1.317 . S
N134 N138 1.370 . S
N135 C133 1.348 . S
N135 C137 1.346 . S
C136 C133 1.485 . S
C136 H140 0.960 . S
C136 H141 0.961 . S
C136 H142 0.960 . S
C137 N135 1.346 . S
C137 N138 1.307 . S
C137 C139 1.486 . S
N138 N134 1.370 . S
N138 C137 1.307 . S
C139 C137 1.486 . S
C139 H143 0.960 . S
C139 H144 0.960 . S
C139 H145 0.959 . S
H140 C136 0.960 . S
H141 C136 0.961 . S
H142 C136 0.960 . S
H143 C139 0.960 . S
H144 C139 0.960 . S
H145 C139 0.959 . S
C146 N147 1.317 . S
C146 N148 1.348 . S
C146 C149 1.485 . S
N147 C146 1.317 . S
N147 N151 1.370 . S
N148 C146 1.348 . S
N148 C150 1.346 . S
C149 C146 1.485 . S
C149 H153 0.960 . S
C149 H154 0.961 . S
C149 H155 0.960 . S
C150 N148 1.346 . S
C150 N151 1.307 . S
C150 C152 1.486 1_455 S
N151 N147 1.370 . S
N151 C150 1.307 . S
C152 C150 1.486 1_655 S
C152 H156 0.960 . S
C152 H157 0.960 . S
C152 H158 0.959 . S
H153 C149 0.960 . S
H154 C149 0.961 . S
H155 C149 0.960 . S
H156 C152 0.960 . S
H157 C152 0.960 . S
H158 C152 0.959 . S
C159 N160 1.317 1_455 S
C159 N161 1.348 . S
C159 C162 1.485 . S
N160 C159 1.317 1_655 S
N160 N164 1.370 1_655 S
N161 C159 1.348 . S
N161 C163 1.346 . S
C162 C159 1.485 . S
C162 H166 0.960 1_455 S
C162 H167 0.961 . S
C162 H168 0.960 1_455 S
C163 N161 1.346 . S
C163 N164 1.307 . S
C163 C165 1.486 . S
N164 N160 1.370 1_455 S
N164 C163 1.307 . S
C165 C163 1.486 . S
C165 H169 0.960 . S
C165 H170 0.960 . S
C165 H171 0.959 . S
H166 C162 0.960 1_655 S
H167 C162 0.961 . S
H168 C162 0.960 1_655 S
H169 C165 0.960 . S
H170 C165 0.960 . S
H171 C165 0.959 . S
C172 N173 1.317 . S
C172 N174 1.348 . S
C172 C175 1.485 . S
N173 C172 1.317 . S
N173 N177 1.370 . S
N174 C172 1.348 . S
N174 C176 1.346 . S
C175 C172 1.485 . S
C175 H179 0.960 . S
C175 H180 0.961 . S
C175 H181 0.960 . S
C176 N174 1.346 . S
C176 N177 1.307 . S
C176 C178 1.486 . S
N177 N173 1.370 . S
N177 C176 1.307 . S
C178 C176 1.486 . S
C178 H182 0.960 . S
C178 H183 0.960 . S
C178 H184 0.959 . S
H179 C175 0.960 . S
H180 C175 0.961 . S
H181 C175 0.960 . S
H182 C178 0.960 . S
H183 C178 0.960 . S
H184 C178 0.959 . S
C185 N186 1.317 . S
C185 N187 1.348 . S
C185 C188 1.485 . S
N186 C185 1.317 . S
N186 N190 1.370 . S
N187 C185 1.348 . S
N187 C189 1.346 . S
C188 C185 1.485 . S
C188 H192 0.960 . S
C188 H193 0.961 . S
C188 H194 0.960 . S
C189 N187 1.346 . S
C189 N190 1.307 . S
C189 C191 1.486 . S
N190 N186 1.370 . S
N190 C189 1.307 . S
C191 C189 1.486 . S
C191 H195 0.960 . S
C191 H196 0.960 . S
C191 H197 0.959 . S
H192 C188 0.960 . S
H193 C188 0.961 . S
H194 C188 0.960 . S
H195 C191 0.960 . S
H196 C191 0.960 . S
H197 C191 0.959 . S
C198 C199 1.391 . S
C198 C200 1.394 . S
C198 H214 0.931 . S
C199 C198 1.391 . S
C199 C203 1.376 . S
C200 C198 1.394 . S
C200 C201 1.369 . S
C200 C204 1.531 . S
C201 C200 1.369 . S
C201 C202 1.410 . S
C201 C209 1.503 . S
C202 C201 1.410 . S
C202 C203 1.392 . S
C202 C205 1.511 . S
C203 C199 1.376 . S
C203 C202 1.392 . S
C203 H215 0.929 . S
C204 C200 1.531 . S
C204 H216 0.960 . S
C204 H217 0.962 . S
C204 H218 0.960 . S
C205 C202 1.511 . S
C205 H219 0.961 . S
C205 H220 0.961 . S
C205 H221 0.961 . S
C206 C207 1.370 . S
C206 C208 1.363 . S
C206 H222 0.931 . S
C207 C206 1.370 . S
C207 C211 1.408 . S
C208 C206 1.363 . S
C208 C209 1.370 . S
C208 C212 1.524 . S
C209 C201 1.503 . S
C209 C208 1.370 . S
C209 C210 1.403 . S
C210 C209 1.403 . S
C210 C211 1.404 . S
C210 C213 1.539 . S
C211 C207 1.408 . S
C211 C210 1.404 . S
C211 H223 0.930 . S
C212 C208 1.524 . S
C212 H224 0.956 . S
C212 H225 0.961 . S
C212 H226 0.961 . S
C213 C210 1.539 . S
C213 H227 0.958 . S
C213 H228 0.961 . S
C213 H229 0.960 . S
H214 C198 0.931 . S
H215 C203 0.929 . S
H216 C204 0.960 . S
H217 C204 0.962 . S
H218 C204 0.960 . S
H219 C205 0.961 . S
H220 C205 0.961 . S
H221 C205 0.961 . S
H222 C206 0.931 . S
H223 C211 0.930 . S
H224 C212 0.956 . S
H225 C212 0.961 . S
H226 C212 0.961 . S
H227 C213 0.958 . S
H228 C213 0.961 . S
H229 C213 0.960 . S
C230 C231 1.391 . S
C230 C232 1.394 . S
C230 H246 0.931 . S
C231 C230 1.391 . S
C231 C235 1.376 . S
C232 C230 1.394 . S
C232 C233 1.369 . S
C232 C236 1.531 . S
C233 C232 1.369 . S
C233 C234 1.410 . S
C233 C241 1.503 . S
C234 C233 1.410 . S
C234 C235 1.392 . S
C234 C237 1.511 . S
C235 C231 1.376 . S
C235 C234 1.392 . S
C235 H247 0.929 . S
C236 C232 1.531 . S
C236 H248 0.960 . S
C236 H249 0.962 . S
C236 H250 0.960 . S
C237 C234 1.511 . S
C237 H251 0.961 . S
C237 H252 0.961 . S
C237 H253 0.961 . S
C238 C239 1.370 . S
C238 C240 1.363 . S
C238 H254 0.931 1_655 S
C239 C238 1.370 . S
C239 C243 1.408 . S
C240 C238 1.363 . S
C240 C241 1.370 . S
C240 C244 1.524 . S
C241 C233 1.503 . S
C241 C240 1.370 . S
C241 C242 1.403 . S
C242 C241 1.403 . S
C242 C243 1.404 . S
C242 C245 1.539 . S
C243 C239 1.408 . S
C243 C242 1.404 . S
C243 H255 0.930 . S
C244 C240 1.524 . S
C244 H256 0.956 . S
C244 H257 0.961 . S
C244 H258 0.961 1_655 S
C245 C242 1.539 . S
C245 H259 0.958 . S
C245 H260 0.961 . S
C245 H261 0.960 . S
H246 C230 0.931 . S
H247 C235 0.929 . S
H248 C236 0.960 . S
H249 C236 0.962 . S
H250 C236 0.960 . S
H251 C237 0.961 . S
H252 C237 0.961 . S
H253 C237 0.961 . S
H254 C238 0.931 1_455 S
H255 C243 0.930 . S
H256 C244 0.956 . S
H257 C244 0.961 . S
H258 C244 0.961 1_455 S
H259 C245 0.958 . S
H260 C245 0.961 . S
H261 C245 0.960 . S
C262 C263 1.391 . S
C262 C264 1.394 . S
C262 H278 0.931 . S
C263 C262 1.391 . S
C263 C267 1.376 . S
C264 C262 1.394 . S
C264 C265 1.369 . S
C264 C268 1.531 . S
C265 C264 1.369 . S
C265 C266 1.410 . S
C265 C273 1.503 . S
C266 C265 1.410 . S
C266 C267 1.392 . S
C266 C269 1.511 . S
C267 C263 1.376 . S
C267 C266 1.392 . S
C267 H279 0.929 . S
C268 C264 1.531 . S
C268 H280 0.960 . S
C268 H281 0.962 . S
C268 H282 0.960 . S
C269 C266 1.511 . S
C269 H283 0.961 . S
C269 H284 0.961 . S
C269 H285 0.961 . S
C270 C271 1.370 1_545 S
C270 C272 1.363 1_545 S
C270 H286 0.931 . S
C271 C270 1.370 1_565 S
C271 C275 1.408 . S
C272 C270 1.363 1_565 S
C272 C273 1.370 . S
C272 C276 1.524 . S
C273 C265 1.503 . S
C273 C272 1.370 . S
C273 C274 1.403 . S
C274 C273 1.403 . S
C274 C275 1.404 . S
C274 C277 1.539 . S
C275 C271 1.408 . S
C275 C274 1.404 . S
C275 H287 0.930 . S
C276 C272 1.524 . S
C276 H288 0.956 . S
C276 H289 0.961 . S
C276 H290 0.961 1_565 S
C277 C274 1.539 . S
C277 H291 0.958 . S
C277 H292 0.961 . S
C277 H293 0.960 . S
H278 C262 0.931 . S
H279 C267 0.929 . S
H280 C268 0.960 . S
H281 C268 0.962 . S
H282 C268 0.960 . S
H283 C269 0.961 . S
H284 C269 0.961 . S
H285 C269 0.961 . S
H286 C270 0.931 . S
H287 C275 0.930 . S
H288 C276 0.956 . S
H289 C276 0.961 . S
H290 C276 0.961 1_545 S
H291 C277 0.958 . S
H292 C277 0.961 . S
H293 C277 0.960 . S
C294 C295 1.391 . S
C294 C296 1.394 . S
C294 H310 0.931 . S
C295 C294 1.391 . S
C295 C299 1.376 . S
C296 C294 1.394 . S
C296 C297 1.369 . S
C296 C300 1.531 . S
C297 C296 1.369 . S
C297 C298 1.410 . S
C297 C305 1.503 . S
C298 C297 1.410 . S
C298 C299 1.392 . S
C298 C301 1.511 . S
C299 C295 1.376 . S
C299 C298 1.392 . S
C299 H311 0.929 . S
C300 C296 1.531 . S
C300 H312 0.960 . S
C300 H313 0.962 . S
C300 H314 0.960 . S
C301 C298 1.511 . S
C301 H315 0.961 . S
C301 H316 0.961 . S
C301 H317 0.961 . S
C302 C303 1.370 . S
C302 C304 1.363 . S
C302 H318 0.931 . S
C303 C302 1.370 . S
C303 C307 1.408 . S
C304 C302 1.363 . S
C304 C305 1.370 . S
C304 C308 1.524 . S
C305 C297 1.503 . S
C305 C304 1.370 . S
C305 C306 1.403 . S
C306 C305 1.403 . S
C306 C307 1.404 . S
C306 C309 1.539 . S
C307 C303 1.408 . S
C307 C306 1.404 . S
C307 H319 0.930 . S
C308 C304 1.524 . S
C308 H320 0.956 . S
C308 H321 0.961 . S
C308 H322 0.961 . S
C309 C306 1.539 . S
C309 H323 0.958 . S
C309 H324 0.961 . S
C309 H325 0.960 . S
H310 C294 0.931 . S
H311 C299 0.929 . S
H312 C300 0.960 . S
H313 C300 0.962 . S
H314 C300 0.960 . S
H315 C301 0.961 . S
H316 C301 0.961 . S
H317 C301 0.961 . S
H318 C302 0.931 . S
H319 C307 0.930 . S
H320 C308 0.956 . S
H321 C308 0.961 . S
H322 C308 0.961 . S
H323 C309 0.958 . S
H324 C309 0.961 . S
H325 C309 0.960 . S
C326 C327 1.391 . S
C326 C328 1.394 . S
C326 H342 0.931 . S
C327 C326 1.391 . S
C327 C331 1.376 . S
C328 C326 1.394 . S
C328 C329 1.369 . S
C328 C332 1.531 . S
C329 C328 1.369 . S
C329 C330 1.410 . S
C329 C337 1.503 . S
C330 C329 1.410 . S
C330 C331 1.392 . S
C330 C333 1.511 . S
C331 C327 1.376 . S
C331 C330 1.392 . S
C331 H343 0.929 . S
C332 C328 1.531 . S
C332 H344 0.960 . S
C332 H345 0.962 . S
C332 H346 0.960 . S
C333 C330 1.511 . S
C333 H347 0.961 . S
C333 H348 0.961 . S
C333 H349 0.961 . S
C334 C335 1.370 . S
C334 C336 1.363 . S
C334 H350 0.931 . S
C335 C334 1.370 . S
C335 C339 1.408 . S
C336 C334 1.363 . S
C336 C337 1.370 . S
C336 C340 1.524 . S
C337 C329 1.503 . S
C337 C336 1.370 . S
C337 C338 1.403 . S
C338 C337 1.403 . S
C338 C339 1.404 . S
C338 C341 1.539 . S
C339 C335 1.408 . S
C339 C338 1.404 . S
C339 H351 0.930 . S
C340 C336 1.524 . S
C340 H352 0.956 . S
C340 H353 0.961 . S
C340 H354 0.961 . S
C341 C338 1.539 . S
C341 H355 0.958 . S
C341 H356 0.961 . S
C341 H357 0.960 . S
H342 C326 0.931 . S
H343 C331 0.929 . S
H344 C332 0.960 . S
H345 C332 0.962 . S
H346 C332 0.960 . S
H347 C333 0.961 . S
H348 C333 0.961 . S
H349 C333 0.961 . S
H350 C334 0.931 . S
H351 C339 0.930 . S
H352 C340 0.956 . S
H353 C340 0.961 . S
H354 C340 0.961 . S
H355 C341 0.958 . S
H356 C341 0.961 . S
H357 C341 0.960 . S
C358 C359 1.391 . S
C358 C360 1.394 . S
C358 H374 0.931 . S
C359 C358 1.391 . S
C359 C363 1.376 . S
C360 C358 1.394 . S
C360 C361 1.369 . S
C360 C364 1.531 . S
C361 C360 1.369 . S
C361 C362 1.410 . S
C361 C369 1.503 . S
C362 C361 1.410 . S
C362 C363 1.392 . S
C362 C365 1.511 . S
C363 C359 1.376 . S
C363 C362 1.392 . S
C363 H375 0.929 . S
C364 C360 1.531 . S
C364 H376 0.960 . S
C364 H377 0.962 . S
C364 H378 0.960 . S
C365 C362 1.511 . S
C365 H379 0.961 . S
C365 H380 0.961 . S
C365 H381 0.961 . S
C366 C367 1.370 . S
C366 C368 1.363 . S
C366 H382 0.931 . S
C367 C366 1.370 . S
C367 C371 1.408 . S
C368 C366 1.363 . S
C368 C369 1.370 . S
C368 C372 1.524 . S
C369 C361 1.503 . S
C369 C368 1.370 . S
C369 C370 1.403 . S
C370 C369 1.403 . S
C370 C371 1.404 . S
C370 C373 1.539 . S
C371 C367 1.408 . S
C371 C370 1.404 . S
C371 H383 0.930 . S
C372 C368 1.524 . S
C372 H384 0.956 . S
C372 H385 0.961 . S
C372 H386 0.961 . S
C373 C370 1.539 . S
C373 H387 0.958 . S
C373 H388 0.961 . S
C373 H389 0.960 . S
H374 C358 0.931 . S
H375 C363 0.929 . S
H376 C364 0.960 . S
H377 C364 0.962 . S
H378 C364 0.960 . S
H379 C365 0.961 . S
H380 C365 0.961 . S
H381 C365 0.961 . S
H382 C366 0.931 . S
H383 C371 0.930 . S
H384 C372 0.956 . S
H385 C372 0.961 . S
H386 C372 0.961 . S
H387 C373 0.958 . S
H388 C373 0.961 . S
H389 C373 0.960 . S
C390 C391 1.391 . S
C390 C392 1.394 . S
C390 H406 0.931 . S
C391 C390 1.391 . S
C391 C395 1.376 . S
C392 C390 1.394 . S
C392 C393 1.369 . S
C392 C396 1.531 . S
C393 C392 1.369 . S
C393 C394 1.410 . S
C393 C401 1.503 . S
C394 C393 1.410 . S
C394 C395 1.392 . S
C394 C397 1.511 . S
C395 C391 1.376 . S
C395 C394 1.392 . S
C395 H407 0.929 . S
C396 C392 1.531 . S
C396 H408 0.960 . S
C396 H409 0.962 . S
C396 H410 0.960 . S
C397 C394 1.511 . S
C397 H411 0.961 . S
C397 H412 0.961 . S
C397 H413 0.961 . S
C398 C399 1.370 . S
C398 C400 1.363 . S
C398 H414 0.931 . S
C399 C398 1.370 . S
C399 C403 1.408 . S
C400 C398 1.363 . S
C400 C401 1.370 . S
C400 C404 1.524 . S
C401 C393 1.503 . S
C401 C400 1.370 . S
C401 C402 1.403 . S
C402 C401 1.403 . S
C402 C403 1.404 . S
C402 C405 1.539 . S
C403 C399 1.408 . S
C403 C402 1.404 . S
C403 H415 0.930 . S
C404 C400 1.524 . S
C404 H416 0.956 . S
C404 H417 0.961 . S
C404 H418 0.961 . S
C405 C402 1.539 . S
C405 H419 0.958 . S
C405 H420 0.961 . S
C405 H421 0.960 . S
H406 C390 0.931 . S
H407 C395 0.929 . S
H408 C396 0.960 . S
H409 C396 0.962 . S
H410 C396 0.960 . S
H411 C397 0.961 . S
H412 C397 0.961 . S
H413 C397 0.961 . S
H414 C398 0.931 . S
H415 C403 0.930 . S
H416 C404 0.956 . S
H417 C404 0.961 . S
H418 C404 0.961 . S
H419 C405 0.958 . S
H420 C405 0.961 . S
H421 C405 0.960 . S
C422 C423 1.391 . S
C422 C424 1.394 . S
C422 H438 0.931 . S
C423 C422 1.391 . S
C423 C427 1.376 . S
C424 C422 1.394 . S
C424 C425 1.369 . S
C424 C428 1.531 . S
C425 C424 1.369 . S
C425 C426 1.410 . S
C425 C433 1.503 . S
C426 C425 1.410 . S
C426 C427 1.392 . S
C426 C429 1.511 . S
C427 C423 1.376 . S
C427 C426 1.392 . S
C427 H439 0.929 . S
C428 C424 1.531 . S
C428 H440 0.960 . S
C428 H441 0.962 . S
C428 H442 0.960 . S
C429 C426 1.511 . S
C429 H443 0.961 . S
C429 H444 0.961 . S
C429 H445 0.961 . S
C430 C431 1.370 . S
C430 C432 1.363 . S
C430 H446 0.931 . S
C431 C430 1.370 . S
C431 C435 1.408 . S
C432 C430 1.363 . S
C432 C433 1.370 . S
C432 C436 1.524 . S
C433 C425 1.503 . S
C433 C432 1.370 . S
C433 C434 1.403 . S
C434 C433 1.403 . S
C434 C435 1.404 . S
C434 C437 1.539 . S
C435 C431 1.408 . S
C435 C434 1.404 . S
C435 H447 0.930 . S
C436 C432 1.524 . S
C436 H448 0.956 . S
C436 H449 0.961 . S
C436 H450 0.961 . S
C437 C434 1.539 . S
C437 H451 0.958 . S
C437 H452 0.961 . S
C437 H453 0.960 . S
H438 C422 0.931 . S
H439 C427 0.929 . S
H440 C428 0.960 . S
H441 C428 0.962 . S
H442 C428 0.960 . S
H443 C429 0.961 . S
H444 C429 0.961 . S
H445 C429 0.961 . S
H446 C430 0.931 . S
H447 C435 0.930 . S
H448 C436 0.956 . S
H449 C436 0.961 . S
H450 C436 0.961 . S
H451 C437 0.958 . S
H452 C437 0.961 . S
H453 C437 0.960 . S
C454 C455 1.391 . S
C454 C456 1.394 . S
C454 H470 0.931 . S
C455 C454 1.391 . S
C455 C459 1.376 . S
C456 C454 1.394 . S
C456 C457 1.369 . S
C456 C460 1.531 . S
C457 C456 1.369 . S
C457 C458 1.410 . S
C457 C465 1.503 . S
C458 C457 1.410 . S
C458 C459 1.392 . S
C458 C461 1.511 . S
C459 C455 1.376 . S
C459 C458 1.392 . S
C459 H471 0.929 . S
C460 C456 1.531 . S
C460 H472 0.960 . S
C460 H473 0.962 . S
C460 H474 0.960 . S
C461 C458 1.511 . S
C461 H475 0.961 . S
C461 H476 0.961 . S
C461 H477 0.961 . S
C462 C463 1.370 . S
C462 C464 1.363 . S
C462 H478 0.931 . S
C463 C462 1.370 . S
C463 C467 1.408 . S
C464 C462 1.363 . S
C464 C465 1.370 . S
C464 C468 1.524 . S
C465 C457 1.503 . S
C465 C464 1.370 . S
C465 C466 1.403 . S
C466 C465 1.403 . S
C466 C467 1.404 . S
C466 C469 1.539 . S
C467 C463 1.408 . S
C467 C466 1.404 . S
C467 H479 0.930 . S
C468 C464 1.524 . S
C468 H480 0.956 . S
C468 H481 0.961 . S
C468 H482 0.961 . S
C469 C466 1.539 . S
C469 H483 0.958 . S
C469 H484 0.961 . S
C469 H485 0.960 . S
H470 C454 0.931 . S
H471 C459 0.929 . S
H472 C460 0.960 . S
H473 C460 0.962 . S
H474 C460 0.960 . S
H475 C461 0.961 . S
H476 C461 0.961 . S
H477 C461 0.961 . S
H478 C462 0.931 . S
H479 C467 0.930 . S
H480 C468 0.956 . S
H481 C468 0.961 . S
H482 C468 0.961 . S
H483 C469 0.958 . S
H484 C469 0.961 . S
H485 C469 0.960 . S
C486 C487 1.391 . S
C486 C488 1.394 . S
C486 H502 0.931 . S
C487 C486 1.391 . S
C487 C491 1.376 . S
C488 C486 1.394 . S
C488 C489 1.369 . S
C488 C492 1.531 . S
C489 C488 1.369 . S
C489 C490 1.410 . S
C489 C497 1.503 . S
C490 C489 1.410 . S
C490 C491 1.392 . S
C490 C493 1.511 . S
C491 C487 1.376 . S
C491 C490 1.392 . S
C491 H503 0.929 . S
C492 C488 1.531 . S
C492 H504 0.960 . S
C492 H505 0.962 . S
C492 H506 0.960 . S
C493 C490 1.511 . S
C493 H507 0.961 . S
C493 H508 0.961 . S
C493 H509 0.961 . S
C494 C495 1.370 . S
C494 C496 1.363 . S
C494 H510 0.931 . S
C495 C494 1.370 . S
C495 C499 1.408 . S
C496 C494 1.363 . S
C496 C497 1.370 . S
C496 C500 1.524 . S
C497 C489 1.503 . S
C497 C496 1.370 . S
C497 C498 1.403 . S
C498 C497 1.403 . S
C498 C499 1.404 . S
C498 C501 1.539 . S
C499 C495 1.408 . S
C499 C498 1.404 . S
C499 H511 0.930 . S
C500 C496 1.524 . S
C500 H512 0.956 . S
C500 H513 0.961 . S
C500 H514 0.961 . S
C501 C498 1.539 . S
C501 H515 0.958 . S
C501 H516 0.961 . S
C501 H517 0.960 . S
H502 C486 0.931 . S
H503 C491 0.929 . S
H504 C492 0.960 . S
H505 C492 0.962 . S
H506 C492 0.960 . S
H507 C493 0.961 . S
H508 C493 0.961 . S
H509 C493 0.961 . S
H510 C494 0.931 . S
H511 C499 0.930 . S
H512 C500 0.956 . S
H513 C500 0.961 . S
H514 C500 0.961 . S
H515 C501 0.958 . S
H516 C501 0.961 . S
H517 C501 0.960 . S
C518 C519 1.391 . S
C518 C520 1.394 . S
C518 H534 0.931 . S
C519 C518 1.391 . S
C519 C523 1.376 . S
C520 C518 1.394 . S
C520 C521 1.369 . S
C520 C524 1.531 . S
C521 C520 1.369 . S
C521 C522 1.410 . S
C521 C529 1.503 . S
C522 C521 1.410 . S
C522 C523 1.392 . S
C522 C525 1.511 . S
C523 C519 1.376 . S
C523 C522 1.392 . S
C523 H535 0.929 . S
C524 C520 1.531 . S
C524 H536 0.960 . S
C524 H537 0.962 . S
C524 H538 0.960 . S
C525 C522 1.511 . S
C525 H539 0.961 . S
C525 H540 0.961 . S
C525 H541 0.961 . S
C526 C527 1.370 . S
C526 C528 1.363 . S
C526 H542 0.931 . S
C527 C526 1.370 . S
C527 C531 1.408 . S
C528 C526 1.363 . S
C528 C529 1.370 . S
C528 C532 1.524 . S
C529 C521 1.503 . S
C529 C528 1.370 . S
C529 C530 1.403 . S
C530 C529 1.403 . S
C530 C531 1.404 . S
C530 C533 1.539 . S
C531 C527 1.408 . S
C531 C530 1.404 . S
C531 H543 0.930 . S
C532 C528 1.524 . S
C532 H544 0.956 . S
C532 H545 0.961 . S
C532 H546 0.961 . S
C533 C530 1.539 . S
C533 H547 0.958 . S
C533 H548 0.961 . S
C533 H549 0.960 . S
H534 C518 0.931 . S
H535 C523 0.929 . S
H536 C524 0.960 . S
H537 C524 0.962 . S
H538 C524 0.960 . S
H539 C525 0.961 . S
H540 C525 0.961 . S
H541 C525 0.961 . S
H542 C526 0.931 . S
H543 C531 0.930 . S
H544 C532 0.956 . S
H545 C532 0.961 . S
H546 C532 0.961 . S
H547 C533 0.958 . S
H548 C533 0.961 . S
H549 C533 0.960 . S
C550 C551 1.391 . S
C550 C552 1.394 . S
C550 H566 0.931 . S
C551 C550 1.391 . S
C551 C555 1.376 . S
C552 C550 1.394 . S
C552 C553 1.369 . S
C552 C556 1.531 . S
C553 C552 1.369 . S
C553 C554 1.410 . S
C553 C561 1.503 . S
C554 C553 1.410 . S
C554 C555 1.392 . S
C554 C557 1.511 . S
C555 C551 1.376 . S
C555 C554 1.392 . S
C555 H567 0.929 . S
C556 C552 1.531 . S
C556 H568 0.960 . S
C556 H569 0.962 . S
C556 H570 0.960 . S
C557 C554 1.511 . S
C557 H571 0.961 . S
C557 H572 0.961 . S
C557 H573 0.961 . S
C558 C559 1.370 . S
C558 C560 1.363 . S
C558 H574 0.931 . S
C559 C558 1.370 . S
C559 C563 1.408 . S
C560 C558 1.363 . S
C560 C561 1.370 . S
C560 C564 1.524 . S
C561 C553 1.503 . S
C561 C560 1.370 . S
C561 C562 1.403 . S
C562 C561 1.403 . S
C562 C563 1.404 . S
C562 C565 1.539 . S
C563 C559 1.408 . S
C563 C562 1.404 . S
C563 H575 0.930 . S
C564 C560 1.524 . S
C564 H576 0.956 . S
C564 H577 0.961 . S
C564 H578 0.961 . S
C565 C562 1.539 . S
C565 H579 0.958 . S
C565 H580 0.961 . S
C565 H581 0.960 . S
H566 C550 0.931 . S
H567 C555 0.929 . S
H568 C556 0.960 . S
H569 C556 0.962 . S
H570 C556 0.960 . S
H571 C557 0.961 . S
H572 C557 0.961 . S
H573 C557 0.961 . S
H574 C558 0.931 . S
H575 C563 0.930 . S
H576 C564 0.956 . S
H577 C564 0.961 . S
H578 C564 0.961 . S
H579 C565 0.958 . S
H580 C565 0.961 . S
H581 C565 0.960 . S
C582 C583 1.391 . S
C582 C584 1.394 . S
C582 H598 0.931 . S
C583 C582 1.391 . S
C583 C587 1.376 . S
C584 C582 1.394 . S
C584 C585 1.369 . S
C584 C588 1.531 . S
C585 C584 1.369 . S
C585 C586 1.410 . S
C585 C593 1.503 1_554 S
C586 C585 1.410 . S
C586 C587 1.392 . S
C586 C589 1.511 . S
C587 C583 1.376 . S
C587 C586 1.392 . S
C587 H599 0.929 . S
C588 C584 1.531 . S
C588 H600 0.960 1_554 S
C588 H601 0.962 . S
C588 H602 0.960 . S
C589 C586 1.511 . S
C589 H603 0.961 . S
C589 H604 0.961 . S
C589 H605 0.961 1_455 S
C590 C591 1.370 . S
C590 C592 1.363 . S
C590 H606 0.931 . S
C591 C590 1.370 . S
C591 C595 1.408 . S
C592 C590 1.363 . S
C592 C593 1.370 . S
C592 C596 1.524 1_556 S
C593 C585 1.503 1_556 S
C593 C592 1.370 . S
C593 C594 1.403 1_455 S
C594 C593 1.403 1_655 S
C594 C595 1.404 1_655 S
C594 C597 1.539 . S
C595 C591 1.408 . S
C595 C594 1.404 1_455 S
C595 H607 0.930 1_455 S
C596 C592 1.524 1_554 S
C596 H608 0.956 . S
C596 H609 0.961 . S
C596 H610 0.961 1_554 S
C597 C594 1.539 . S
C597 H611 0.958 . S
C597 H612 0.961 . S
C597 H613 0.960 . S
H598 C582 0.931 . S
H599 C587 0.929 . S
H600 C588 0.960 1_556 S
H601 C588 0.962 . S
H602 C588 0.960 . S
H603 C589 0.961 . S
H604 C589 0.961 . S
H605 C589 0.961 1_655 S
H606 C590 0.931 . S
H607 C595 0.930 1_655 S
H608 C596 0.956 . S
H609 C596 0.961 . S
H610 C596 0.961 1_556 S
H611 C597 0.958 . S
H612 C597 0.961 . S
H613 C597 0.960 . S
C614 C615 1.391 1_565 S
C614 C616 1.394 . S
C614 H630 0.931 . S
C615 C614 1.391 1_545 S
C615 C619 1.376 . S
C616 C614 1.394 . S
C616 C617 1.369 1_565 S
C616 C620 1.531 . S
C617 C616 1.369 1_545 S
C617 C618 1.410 . S
C617 C625 1.503 . S
C618 C617 1.410 . S
C618 C619 1.392 . S
C618 C621 1.511 . S
C619 C615 1.376 . S
C619 C618 1.392 . S
C619 H631 0.929 . S
C620 C616 1.531 . S
C620 H632 0.960 . S
C620 H633 0.962 . S
C620 H634 0.960 . S
C621 C618 1.511 . S
C621 H635 0.961 . S
C621 H636 0.961 . S
C621 H637 0.961 . S
C622 C623 1.370 . S
C622 C624 1.363 . S
C622 H638 0.931 . S
C623 C622 1.370 . S
C623 C627 1.408 1_545 S
C624 C622 1.363 . S
C624 C625 1.370 . S
C624 C628 1.524 . S
C625 C617 1.503 . S
C625 C624 1.370 . S
C625 C626 1.403 1_545 S
C626 C625 1.403 1_565 S
C626 C627 1.404 . S
C626 C629 1.539 . S
C627 C623 1.408 1_565 S
C627 C626 1.404 . S
C627 H639 0.930 . S
C628 C624 1.524 . S
C628 H640 0.956 . S
C628 H641 0.961 . S
C628 H642 0.961 . S
C629 C626 1.539 . S
C629 H643 0.958 . S
C629 H644 0.961 . S
C629 H645 0.960 . S
H630 C614 0.931 . S
H631 C619 0.929 . S
H632 C620 0.960 . S
H633 C620 0.962 . S
H634 C620 0.960 . S
H635 C621 0.961 . S
H636 C621 0.961 . S
H637 C621 0.961 . S
H638 C622 0.931 . S
H639 C627 0.930 . S
H640 C628 0.956 . S
H641 C628 0.961 . S
H642 C628 0.961 . S
H643 C629 0.958 . S
H644 C629 0.961 . S
H645 C629 0.960 . S
C646 C647 1.391 . S
C646 C648 1.394 . S
C646 H662 0.931 . S
C647 C646 1.391 . S
C647 C651 1.376 . S
C648 C646 1.394 . S
C648 C649 1.369 . S
C648 C652 1.531 . S
C649 C648 1.369 . S
C649 C650 1.410 . S
C649 C657 1.503 . S
C650 C649 1.410 . S
C650 C651 1.392 . S
C650 C653 1.511 . S
C651 C647 1.376 . S
C651 C650 1.392 . S
C651 H663 0.929 . S
C652 C648 1.531 . S
C652 H664 0.960 . S
C652 H665 0.962 . S
C652 H666 0.960 . S
C653 C650 1.511 . S
C653 H667 0.961 . S
C653 H668 0.961 . S
C653 H669 0.961 . S
C654 C655 1.370 . S
C654 C656 1.363 . S
C654 H670 0.931 . S
C655 C654 1.370 . S
C655 C659 1.408 . S
C656 C654 1.363 . S
C656 C657 1.370 . S
C656 C660 1.524 . S
C657 C649 1.503 . S
C657 C656 1.370 . S
C657 C658 1.403 . S
C658 C657 1.403 . S
C658 C659 1.404 . S
C658 C661 1.539 . S
C659 C655 1.408 . S
C659 C658 1.404 . S
C659 H671 0.930 . S
C660 C656 1.524 . S
C660 H672 0.956 . S
C660 H673 0.961 . S
C660 H674 0.961 . S
C661 C658 1.539 . S
C661 H675 0.958 . S
C661 H676 0.961 . S
C661 H677 0.960 . S
H662 C646 0.931 . S
H663 C651 0.929 . S
H664 C652 0.960 . S
H665 C652 0.962 . S
H666 C652 0.960 . S
H667 C653 0.961 . S
H668 C653 0.961 . S
H669 C653 0.961 . S
H670 C654 0.931 . S
H671 C659 0.930 . S
H672 C660 0.956 . S
H673 C660 0.961 . S
H674 C660 0.961 . S
H675 C661 0.958 . S
H676 C661 0.961 . S
H677 C661 0.960 . S
C678 C679 1.391 . S
C678 C680 1.394 . S
C678 H694 0.931 . S
C679 C678 1.391 . S
C679 C683 1.376 1_545 S
C680 C678 1.394 . S
C680 C681 1.369 . S
C680 C684 1.531 . S
C681 C680 1.369 . S
C681 C682 1.410 1_545 S
C681 C689 1.503 . S
C682 C681 1.410 1_565 S
C682 C683 1.392 . S
C682 C685 1.511 . S
C683 C679 1.376 1_565 S
C683 C682 1.392 . S
C683 H695 0.929 . S
C684 C680 1.531 . S
C684 H696 0.960 . S
C684 H697 0.962 . S
C684 H698 0.960 . S
C685 C682 1.511 . S
C685 H699 0.961 . S
C685 H700 0.961 . S
C685 H701 0.961 . S
C686 C687 1.382 . S
C686 C688 1.362 . S
C686 H702 0.920 1_545 S
C687 C686 1.382 . S
C687 C691 1.408 . S
C688 C686 1.362 . S
C688 C689 1.370 . S
C688 C692 1.524 1_545 S
C689 C681 1.503 . S
C689 C688 1.370 . S
C689 C690 1.403 . S
C690 C689 1.403 . S
C690 C691 1.404 . S
C690 C693 1.539 . S
C691 C687 1.408 . S
C691 C690 1.404 . S
C691 H703 0.930 . S
C692 C688 1.524 1_565 S
C692 H704 0.956 1_565 S
C692 H705 0.961 . S
C692 H706 0.961 . S
C693 C690 1.539 . S
C693 H707 0.958 . S
C693 H708 0.961 . S
C693 H709 0.960 . S
H694 C678 0.931 . S
H695 C683 0.929 . S
H696 C684 0.960 . S
H697 C684 0.962 . S
H698 C684 0.960 . S
H699 C685 0.961 . S
H700 C685 0.961 . S
H701 C685 0.961 . S
H702 C686 0.920 1_565 S
H703 C691 0.930 . S
H704 C692 0.956 1_545 S
H705 C692 0.961 . S
H706 C692 0.961 . S
H707 C693 0.958 . S
H708 C693 0.961 . S
H709 C693 0.960 . S
C710 C711 1.391 . S
C710 C712 1.394 . S
C710 H726 0.931 . S
C711 C710 1.391 . S
C711 C715 1.376 . S
C712 C710 1.394 . S
C712 C713 1.369 . S
C712 C716 1.531 . S
C713 C712 1.369 . S
C713 C714 1.410 . S
C713 C721 1.503 1_556 S
C714 C713 1.410 . S
C714 C715 1.392 . S
C714 C717 1.511 . S
C715 C711 1.376 . S
C715 C714 1.392 . S
C715 H727 0.929 . S
C716 C712 1.531 . S
C716 H728 0.940 1_556 S
C716 H729 0.962 . S
C716 H730 0.960 . S
C717 C714 1.511 . S
C717 H731 0.961 . S
C717 H732 0.961 . S
C717 H733 0.961 . S
C718 C719 1.370 . S
C718 C720 1.363 . S
C718 H734 0.931 . S
C719 C718 1.370 . S
C719 C723 1.408 . S
C720 C718 1.363 . S
C720 C721 1.370 . S
C720 C724 1.524 1_554 S
C721 C713 1.503 1_554 S
C721 C720 1.370 . S
C721 C722 1.403 . S
C722 C721 1.403 . S
C722 C723 1.404 . S
C722 C725 1.539 . S
C723 C719 1.408 . S
C723 C722 1.404 . S
C723 H735 0.930 . S
C724 C720 1.524 1_556 S
C724 H736 0.956 . S
C724 H737 0.961 . S
C724 H738 0.961 . S
C725 C722 1.539 . S
C725 H739 0.958 . S
C725 H740 0.961 . S
C725 H741 0.960 1_554 S
H726 C710 0.931 . S
H727 C715 0.929 . S
H728 C716 0.940 1_554 S
H729 C716 0.962 . S
H730 C716 0.960 . S
H731 C717 0.961 . S
H732 C717 0.961 . S
H733 C717 0.961 . S
H734 C718 0.931 . S
H735 C723 0.930 . S
H736 C724 0.956 . S
H737 C724 0.961 . S
H738 C724 0.961 . S
H739 C725 0.958 . S
H740 C725 0.961 . S
H741 C725 0.960 1_556 S
C742 C743 1.391 1_455 S
C742 C744 1.394 . S
C742 H758 0.931 . S
C743 C742 1.391 1_655 S
C743 C747 1.376 . S
C744 C742 1.394 . S
C744 C745 1.369 1_455 S
C744 C748 1.531 . S
C745 C744 1.369 1_655 S
C745 C746 1.410 . S
C745 C753 1.503 . S
C746 C745 1.410 . S
C746 C747 1.392 . S
C746 C749 1.511 . S
C747 C743 1.376 . S
C747 C746 1.392 . S
C747 H759 0.929 . S
C748 C744 1.531 . S
C748 H760 0.960 . S
C748 H761 0.962 . S
C748 H762 0.960 . S
C749 C746 1.511 . S
C749 H763 0.961 . S
C749 H764 0.961 . S
C749 H765 0.961 . S
C750 C751 1.370 . S
C750 C752 1.363 . S
C750 H766 0.931 . S
C751 C750 1.370 . S
C751 C755 1.408 1_655 S
C752 C750 1.363 . S
C752 C753 1.370 . S
C752 C756 1.524 . S
C753 C745 1.503 . S
C753 C752 1.370 . S
C753 C754 1.403 1_655 S
C754 C753 1.403 1_455 S
C754 C755 1.404 . S
C754 C757 1.539 . S
C755 C751 1.408 1_455 S
C755 C754 1.404 . S
C755 H767 0.930 . S
C756 C752 1.524 . S
C756 H768 0.956 1_655 S
C756 H769 0.961 . S
C756 H770 0.961 . S
C757 C754 1.539 . S
C757 H771 0.958 . S
C757 H772 0.961 1_455 S
C757 H773 0.960 1_455 S
H758 C742 0.931 . S
H759 C747 0.929 . S
H760 C748 0.960 . S
H761 C748 0.962 . S
H762 C748 0.960 . S
H763 C749 0.961 . S
H764 C749 0.961 . S
H765 C749 0.961 . S
H766 C750 0.931 . S
H767 C755 0.930 . S
H768 C756 0.956 1_455 S
H769 C756 0.961 . S
H770 C756 0.961 . S
H771 C757 0.958 . S
H772 C757 0.961 1_655 S
H773 C757 0.960 1_655 S
C199 C25 0.226 . S
C207 N187 0.111 . S
C231 C65 0.297 . S
C239 N160 0.432 . S
C263 C105 0.322 . S
C271 N173 0.454 1_565 S
C295 C4 0.527 . S
C303 N186 0.532 . S
C335 N161 0.547 . S
C327 C44 0.608 . S
C367 N174 0.536 . S
C359 C84 0.527 . S
C391 C60 2.854 . S
C399 N134 2.859 . S
C423 C100 2.807 . S
C431 N148 2.767 1_655 S
C455 C31 3.100 . S
C463 N122 3.084 . S
C495 N135 3.101 . S
C487 C71 3.107 . S
C527 N147 3.232 . S
C519 C111 3.199 . S
C551 C20 2.862 . S
C559 N121 2.862 . S
C591 N151 1.772 . S
C583 C2 1.749 . S
C615 C42 1.682 . S
C623 N125 1.773 . S
C647 C82 1.734 . S
C655 N138 1.801 . S
C687 N177 1.234 . S
C679 C63 1.234 . S
C719 N190 1.219 . S
C711 C103 1.212 . S
C743 C23 1.240 1_655 S
C751 N164 1.244 1_655 S
