# Generated by pormake.
# Topology ssa, (4,4)-cn, num edge types: 1
# Building blocks:
#     Node 0, Type 0, BuildingBlock: KOZSID_clean_sbu_0, # of connection points: 4
#     Node 1, Type 0, BuildingBlock: KOZSID_clean_sbu_0, # of connection points: 4
#     Node 2, Type 0, BuildingBlock: KOZSID_clean_sbu_0, # of connection points: 4
#     Node 3, Type 0, BuildingBlock: KOZSID_clean_sbu_0, # of connection points: 4
#     Node 4, Type 0, BuildingBlock: KOZSID_clean_sbu_0, # of connection points: 4
#     Node 5, Type 0, BuildingBlock: KOZSID_clean_sbu_0, # of connection points: 4
#     Node 6, Type 1, BuildingBlock: MIFKUJ_clean_linker_1, # of connection points: 4
#     Node 7, Type 1, BuildingBlock: MIFKUJ_clean_linker_1, # of connection points: 4
#     Node 8, Type 1, BuildingBlock: MIFKUJ_clean_linker_1, # of connection points: 4
#     Node 9, Type 1, BuildingBlock: MIFKUJ_clean_linker_1, # of connection points: 4
#     Node 10, Type 1, BuildingBlock: MIFKUJ_clean_linker_1, # of connection points: 4
#     Node 11, Type 1, BuildingBlock: MIFKUJ_clean_linker_1, # of connection points: 4
#     Edge 12, Type (0, 1), BuildingBlock: KIFKEQ_clean_linker_1, # of connection points: 2
#     Edge 13, Type (0, 1), BuildingBlock: KIFKEQ_clean_linker_1, # of connection points: 2
#     Edge 14, Type (0, 1), BuildingBlock: KIFKEQ_clean_linker_1, # of connection points: 2
#     Edge 15, Type (0, 1), BuildingBlock: KIFKEQ_clean_linker_1, # of connection points: 2
#     Edge 16, Type (0, 1), BuildingBlock: KIFKEQ_clean_linker_1, # of connection points: 2
#     Edge 17, Type (0, 1), BuildingBlock: KIFKEQ_clean_linker_1, # of connection points: 2
#     Edge 18, Type (0, 1), BuildingBlock: KIFKEQ_clean_linker_1, # of connection points: 2
#     Edge 19, Type (0, 1), BuildingBlock: KIFKEQ_clean_linker_1, # of connection points: 2
#     Edge 20, Type (0, 1), BuildingBlock: KIFKEQ_clean_linker_1, # of connection points: 2
#     Edge 21, Type (0, 1), BuildingBlock: KIFKEQ_clean_linker_1, # of connection points: 2
#     Edge 22, Type (0, 1), BuildingBlock: KIFKEQ_clean_linker_1, # of connection points: 2
#     Edge 23, Type (0, 1), BuildingBlock: KIFKEQ_clean_linker_1, # of connection points: 2
#     Edge 24, Type (0, 1), BuildingBlock: KIFKEQ_clean_linker_1, # of connection points: 2
#     Edge 25, Type (0, 1), BuildingBlock: KIFKEQ_clean_linker_1, # of connection points: 2
#     Edge 26, Type (0, 1), BuildingBlock: KIFKEQ_clean_linker_1, # of connection points: 2
#     Edge 27, Type (0, 1), BuildingBlock: KIFKEQ_clean_linker_1, # of connection points: 2
#     Edge 28, Type (0, 1), BuildingBlock: KIFKEQ_clean_linker_1, # of connection points: 2
#     Edge 29, Type (0, 1), BuildingBlock: KIFKEQ_clean_linker_1, # of connection points: 2
#     Edge 30, Type (0, 1), BuildingBlock: KIFKEQ_clean_linker_1, # of connection points: 2
#     Edge 31, Type (0, 1), BuildingBlock: KIFKEQ_clean_linker_1, # of connection points: 2
#     Edge 32, Type (0, 1), BuildingBlock: KIFKEQ_clean_linker_1, # of connection points: 2
#     Edge 33, Type (0, 1), BuildingBlock: KIFKEQ_clean_linker_1, # of connection points: 2
#     Edge 34, Type (0, 1), BuildingBlock: KIFKEQ_clean_linker_1, # of connection points: 2
#     Edge 35, Type (0, 1), BuildingBlock: KIFKEQ_clean_linker_1, # of connection points: 2
# Relax obj value: 0.005
# Max RMSD: 0.021
# Mean RMSD: 0.012
data_MOF--net-ssa--node1-KOZSID_clean_sbu_0--node2-MIFKUJ_clean_linker_1--edge1-KIFKEQ_clean_linker_1
_symmetry_space_group_name_H-M    P1
_symmetry_Int_Tables_number       1
_symmetry_cell_setting            triclinic
loop_
_symmetry_equiv_pos_as_xyz
'x, y, z'
_cell_length_a     65.905812
_cell_length_b     67.329965
_cell_length_c     42.998736
_cell_angle_alpha  87.680173
_cell_angle_beta   90.043538
_cell_angle_gamma 122.1254
loop_
_atom_site_label
_atom_site_type_symbol
_atom_site_fract_x
_atom_site_fract_y
_atom_site_fract_z
_atom_type_partial_charge
C0 C 0.95885 0.50579 0.99509 0.0
C1 C 0.93731 0.49917 0.00995 0.0
C2 C 0.93743 0.48975 0.03859 0.0
C3 C 0.9589 0.49108 0.03956 0.0
N4 N 0.97259 0.50089 0.01332 0.0
Co5 Co 0.00479 0.50561 0.00456 0.0
N6 N 0.00384 0.48948 0.0453 0.0
C7 C 0.98713 0.48208 0.06843 0.0
C8 C 0.99396 0.47686 0.09607 0.0
C9 C 0.01597 0.48037 0.08986 0.0
C10 C 0.0207 0.48619 0.05821 0.0
N11 N 0.03716 0.5107 0.9962 0.0
C12 C 0.05058 0.50561 0.01483 0.0
C13 C 0.07456 0.51898 0.00545 0.0
C14 C 0.07568 0.53027 0.97781 0.0
C15 C 0.05267 0.52445 0.97292 0.0
N16 N 0.0056 0.52126 0.96344 0.0
C17 C 0.02356 0.53081 0.9417 0.0
C18 C 0.0186 0.53933 0.91523 0.0
C19 C 0.99601 0.53474 0.92019 0.0
C20 C 0.98851 0.52368 0.94957 0.0
N21 N 0.02069 0.53649 0.02501 0.0
C22 C 0.04902 0.57774 0.05801 0.0
C23 C 0.05366 0.57703 0.02652 0.0
C24 C 0.03923 0.55657 0.01055 0.0
C25 C 0.02861 0.55818 0.07182 0.0
C26 C 0.01464 0.53815 0.05489 0.0
N27 N 0.98914 0.47522 0.98426 0.0
C28 C 0.98449 0.45357 0.93856 0.0
C29 C 0.96228 0.43479 0.94984 0.0
C30 C 0.95472 0.43595 0.97976 0.0
C31 C 0.96843 0.45613 0.99655 0.0
C32 C 0.99767 0.47338 0.95619 0.0
H33 H 0.96164 0.45631 0.01904 0.0
H34 H 0.01442 0.48735 0.94641 0.0
H35 H 0.04371 0.55752 0.98663 0.0
H36 H 0.99926 0.52423 0.06684 0.0
C37 C 0.96642 0.48267 0.06434 0.0
C38 C 0.96516 0.51614 0.96342 0.0
C39 C 0.04071 0.48768 0.04068 0.0
C40 C 0.04524 0.53239 0.94748 0.0
H41 H 0.92287 0.50075 0.00091 0.0
H42 H 0.9234 0.48249 0.05642 0.0
H43 H 0.98449 0.47195 0.11834 0.0
H44 H 0.0272 0.4788 0.10686 0.0
H45 H 0.08983 0.5207 0.01739 0.0
H46 H 0.0915 0.5419 0.96351 0.0
H47 H 0.03009 0.54798 0.89484 0.0
H48 H 0.98621 0.53914 0.90408 0.0
H49 H 0.06853 0.59213 0.01418 0.0
H50 H 0.02376 0.55788 0.09597 0.0
H51 H 0.99152 0.45318 0.91599 0.0
H52 H 0.93779 0.42181 0.98972 0.0
C53 C 0.5403 0.01814 0.55721 0.0
C54 C 0.54163 0.01014 0.58694 0.0
C55 C 0.52046 0.98941 0.59284 0.0
C56 C 0.50748 0.98595 0.56648 0.0
N57 N 0.51925 0.00294 0.54379 0.0
Co58 Co 0.50629 0.00568 0.50266 0.0
N59 N 0.47463 0.97586 0.51202 0.0
C60 C 0.46841 0.96154 0.53791 0.0
C61 C 0.44579 0.94191 0.53736 0.0
C62 C 0.43718 0.9435 0.50913 0.0
C63 C 0.45519 0.96405 0.49398 0.0
N64 N 0.49299 0.00899 0.46209 0.0
C65 C 0.47162 0.99425 0.44895 0.0
C66 C 0.46999 0.0031 0.41995 0.0
C67 C 0.491 0.02408 0.41458 0.0
C68 C 0.5043 0.02686 0.44038 0.0
N69 N 0.53834 0.03496 0.49273 0.0
C70 C 0.5451 0.04837 0.46593 0.0
C71 C 0.56802 0.06758 0.46603 0.0
C72 C 0.57635 0.06656 0.49472 0.0
C73 C 0.55794 0.04667 0.51055 0.0
N74 N 0.51746 0.98689 0.48276 0.0
C75 C 0.52848 0.95742 0.45217 0.0
C76 C 0.53077 0.97713 0.43667 0.0
C77 C 0.52551 0.99166 0.45236 0.0
C78 C 0.52159 0.95321 0.48362 0.0
C79 C 0.5161 0.968 0.49833 0.0
N80 N 0.49504 0.02442 0.52249 0.0
C81 C 0.49594 0.06068 0.52568 0.0
C82 C 0.4812 0.05216 0.55249 0.0
C83 C 0.47315 0.02926 0.56358 0.0
C84 C 0.48033 0.0159 0.54851 0.0
C85 C 0.50235 0.04659 0.51105 0.0
H86 H 0.47389 0.99879 0.55855 0.0
H87 H 0.51354 0.0542 0.49073 0.0
H88 H 0.52768 0.0064 0.43916 0.0
H89 H 0.51031 0.9635 0.5221 0.0
C90 C 0.48415 0.96712 0.56245 0.0
C91 C 0.55924 0.04057 0.54313 0.0
C92 C 0.45318 0.97114 0.46214 0.0
C93 C 0.5285 0.04423 0.44293 0.0
H94 H 0.55628 0.01862 0.60287 0.0
H95 H 0.51501 0.97838 0.61402 0.0
H96 H 0.43673 0.928 0.55522 0.0
H97 H 0.41972 0.9308 0.5005 0.0
H98 H 0.45555 0.99495 0.40372 0.0
H99 H 0.4964 0.03538 0.39366 0.0
H100 H 0.57716 0.08133 0.44798 0.0
H101 H 0.5937 0.07948 0.50336 0.0
H102 H 0.53651 0.9813 0.4124 0.0
H103 H 0.51963 0.93811 0.49654 0.0
H104 H 0.50304 0.07837 0.51622 0.0
H105 H 0.4613 0.02152 0.58385 0.0
C106 C 0.54392 0.52962 0.95562 0.0
C107 C 0.55044 0.5434 0.92819 0.0
C108 C 0.53139 0.5452 0.92037 0.0
C109 C 0.51442 0.53247 0.94339 0.0
N110 N 0.52162 0.52299 0.96578 0.0
Co111 Co 0.50222 0.50205 0.00257 0.0
N112 N 0.47341 0.50287 0.98955 0.0
C113 C 0.47164 0.51441 0.96422 0.0
C114 C 0.44988 0.51242 0.96212 0.0
C115 C 0.43709 0.49912 0.98792 0.0
C116 C 0.45187 0.49377 0.00428 0.0
N117 N 0.48273 0.48088 0.03916 0.0
C118 C 0.4602 0.47371 0.04892 0.0
C119 C 0.45353 0.45951 0.07599 0.0
C120 C 0.47269 0.45792 0.0839 0.0
C121 C 0.48986 0.47116 0.0613 0.0
N122 N 0.53112 0.50145 0.01577 0.0
C123 C 0.53309 0.49042 0.04153 0.0
C124 C 0.55493 0.4926 0.04377 0.0
C125 C 0.56757 0.50551 0.01767 0.0
C126 C 0.55262 0.51045 0.00096 0.0
N127 N 0.51256 0.5299 0.02774 0.0
C128 C 0.52375 0.56787 0.06493 0.0
C129 C 0.52422 0.54857 0.07707 0.0
C130 C 0.51875 0.53002 0.05821 0.0
C131 C 0.51827 0.56815 0.0336 0.0
C132 C 0.51277 0.54915 0.0156 0.0
N133 N 0.49189 0.47423 0.97742 0.0
C134 C 0.48818 0.43695 0.97072 0.0
C135 C 0.4809 0.4364 0.94009 0.0
C136 C 0.47846 0.45475 0.9288 0.0
C137 C 0.48399 0.47332 0.9477 0.0
C138 C 0.49345 0.4558 0.98883 0.0
H139 H 0.48214 0.48693 0.93754 0.0
H140 H 0.49907 0.45519 0.01185 0.0
H141 H 0.51935 0.51586 0.06897 0.0
H142 H 0.50834 0.5503 0.99208 0.0
C143 C 0.49112 0.52791 0.94365 0.0
C144 C 0.55904 0.52237 0.97026 0.0
C145 C 0.44505 0.48097 0.0344 0.0
C146 C 0.51341 0.47636 0.06161 0.0
H147 H 0.56705 0.5509 0.91485 0.0
H148 H 0.52982 0.55411 0.89986 0.0
H149 H 0.44423 0.52022 0.94439 0.0
H150 H 0.4191 0.49432 0.99435 0.0
H151 H 0.43678 0.45165 0.08909 0.0
H152 H 0.47421 0.44885 0.10428 0.0
H153 H 0.56065 0.48496 0.06165 0.0
H154 H 0.58549 0.51016 0.01117 0.0
H155 H 0.52879 0.54774 0.10109 0.0
H156 H 0.51753 0.58266 0.02315 0.0
H157 H 0.48989 0.4229 0.98075 0.0
H158 H 0.47297 0.45519 0.90515 0.0
C159 C 0.95747 0.45101 0.5052 0.0
C160 C 0.93612 0.43512 0.4914 0.0
C161 C 0.93466 0.44624 0.46506 0.0
C162 C 0.95511 0.46818 0.46431 0.0
N163 N 0.96975 0.47166 0.48834 0.0
Co164 Co 1.00076 0.50133 0.49729 0.0
N165 N 0.99754 0.5184 0.46011 0.0
C166 C 0.9794 0.50971 0.43977 0.0
C167 C 0.98228 0.52555 0.41645 0.0
C168 C 0.0037 0.54547 0.42193 0.0
C169 C 0.01274 0.54056 0.4483 0.0
N170 N 0.03169 0.53102 0.50634 0.0
C171 C 0.04372 0.55195 0.49001 0.0
C172 C 0.06519 0.56765 0.50383 0.0
C173 C 0.06677 0.55627 0.52977 0.0
C174 C 0.04639 0.53434 0.53026 0.0
N175 N 0.00398 0.48423 0.5344 0.0
C176 C 0.02227 0.49273 0.55447 0.0
C177 C 0.01907 0.47702 0.57818 0.0
C178 C 0.99725 0.45739 0.57326 0.0
C179 C 0.9884 0.46236 0.54676 0.0
N180 N 0.01851 0.49168 0.47083 0.0
C181 C 0.04462 0.47968 0.43217 0.0
C182 C 0.05267 0.48814 0.46168 0.0
C183 C 0.03946 0.49396 0.48045 0.0
C184 C 0.02309 0.477 0.42256 0.0
C185 C 0.01045 0.48302 0.44208 0.0
N186 N 0.98296 0.51089 0.52372 0.0
C187 C 0.97704 0.52369 0.57284 0.0
C188 C 0.95543 0.52073 0.56298 0.0
C189 C 0.94833 0.51359 0.53274 0.0
C190 C 0.96223 0.50884 0.5137 0.0
C191 C 0.99044 0.51875 0.55297 0.0
H192 H 0.95561 0.50322 0.49112 0.0
H193 H 0.00655 0.52102 0.56199 0.0
H194 H 0.04673 0.50052 0.50247 0.0
H195 H 0.99428 0.48063 0.43323 0.0
C196 C 0.96027 0.48636 0.44258 0.0
C197 C 0.96463 0.44617 0.53518 0.0
C198 C 0.03615 0.5573 0.46057 0.0
C199 C 0.04133 0.51606 0.55173 0.0
H200 H 0.92268 0.41753 0.49994 0.0
H201 H 0.92008 0.43941 0.44892 0.0
H202 H 0.97041 0.5228 0.39744 0.0
H203 H 0.01193 0.5617 0.40784 0.0
H204 H 0.07867 0.58531 0.49571 0.0
H205 H 0.0814 0.56296 0.54583 0.0
H206 H 0.03085 0.47977 0.59731 0.0
H207 H 0.98854 0.44142 0.58792 0.0
H208 H 0.0694 0.4908 0.4701 0.0
H209 H 0.01589 0.47017 0.40009 0.0
H210 H 0.98331 0.52914 0.5961 0.0
H211 H 0.93201 0.51157 0.52372 0.0
C212 C 0.46732 0.99286 0.05599 0.0
C213 C 0.46556 0.0021 0.08341 0.0
C214 C 0.48666 0.02301 0.08601 0.0
C215 C 0.50001 0.02533 0.06013 0.0
N216 N 0.48858 0.00734 0.04084 0.0
Co217 Co 0.50173 0.00295 0.00137 0.0
N218 N 0.53353 0.03277 0.00647 0.0
C219 C 0.53975 0.04784 0.02969 0.0
C220 C 0.56232 0.06743 0.0261 0.0
C221 C 0.57103 0.06491 0.99879 0.0
C222 C 0.55322 0.04372 0.98733 0.0
N223 N 0.51494 0.99837 0.96214 0.0
C224 C 0.53659 0.0123 0.94762 0.0
C225 C 0.5386 0.00247 0.92093 0.0
C226 C 0.51726 0.98184 0.91806 0.0
C227 C 0.50356 0.98017 0.94316 0.0
N228 N 0.46984 0.97327 0.9961 0.0
C229 C 0.46325 0.95866 0.9723 0.0
C230 C 0.44041 0.93939 0.97555 0.0
C231 C 0.43196 0.94164 0.00328 0.0
C232 C 0.45024 0.96227 0.01535 0.0
N233 N 0.49066 0.021 0.97698 0.0
C234 C 0.47875 0.04886 0.94032 0.0
C235 C 0.47452 0.02762 0.92989 0.0
C236 C 0.48049 0.01404 0.9485 0.0
C237 C 0.48815 0.05541 0.96989 0.0
C238 C 0.4939 0.04137 0.98764 0.0
N239 N 0.51283 0.98497 0.02572 0.0
C240 C 0.51474 0.95027 0.03408 0.0
C241 C 0.52603 0.95821 0.06238 0.0
C242 C 0.53117 0.98001 0.07164 0.0
C243 C 0.52462 0.99306 0.05301 0.0
C244 C 0.50827 0.96379 0.0163 0.0
H245 H 0.52905 0.00951 0.06139 0.0
H246 H 0.49926 0.95656 0.9953 0.0
H247 H 0.47711 0.99822 0.93906 0.0
H248 H 0.50125 0.0476 0.00971 0.0
C249 C 0.52366 0.04362 0.05395 0.0
C250 C 0.4487 0.96989 0.046 0.0
C251 C 0.5554 0.0353 0.95749 0.0
C252 C 0.47958 0.96244 0.94862 0.0
H253 H 0.4507 0.99428 0.10007 0.0
H254 H 0.49188 0.03485 0.10487 0.0
H255 H 0.57118 0.08208 0.04115 0.0
H256 H 0.58835 0.07758 0.98828 0.0
H257 H 0.55379 0.00969 0.90487 0.0
H258 H 0.51216 0.96974 0.89954 0.0
H259 H 0.43129 0.92499 0.96014 0.0
H260 H 0.41457 0.92917 0.01383 0.0
H261 H 0.46728 0.02179 0.9071 0.0
H262 H 0.49121 0.07143 0.97936 0.0
H263 H 0.51025 0.93337 0.02609 0.0
H264 H 0.54022 0.98699 0.09322 0.0
C265 C 0.51194 0.5525 0.49577 0.0
C266 C 0.50832 0.56818 0.51103 0.0
C267 C 0.49463 0.55637 0.53701 0.0
C268 C 0.49069 0.53426 0.53611 0.0
N269 N 0.50135 0.53132 0.51136 0.0
Co270 Co 0.49955 0.50178 0.50015 0.0
N271 N 0.47765 0.48383 0.53684 0.0
C272 C 0.46891 0.49195 0.55797 0.0
C273 C 0.45497 0.47565 0.5811 0.0
C274 C 0.4551 0.45604 0.57468 0.0
C275 C 0.46921 0.4616 0.54792 0.0
N276 N 0.4978 0.47226 0.48901 0.0
C277 C 0.48735 0.45113 0.50472 0.0
C278 C 0.49108 0.43549 0.48957 0.0
C279 C 0.5047 0.44726 0.46353 0.0
C280 C 0.50851 0.46932 0.4643 0.0
N281 N 0.52139 0.51972 0.46342 0.0
C282 C 0.53 0.51155 0.44217 0.0
C283 C 0.54393 0.52785 0.41903 0.0
C284 C 0.54393 0.54751 0.42557 0.0
C285 C 0.52991 0.54198 0.45241 0.0
N286 N 0.52766 0.51015 0.52629 0.0
C287 C 0.56626 0.51941 0.56461 0.0
C288 C 0.56522 0.51251 0.53414 0.0
C289 C 0.54598 0.50806 0.51556 0.0
C290 C 0.54791 0.52213 0.57531 0.0
C291 C 0.52897 0.51746 0.55593 0.0
N292 N 0.47142 0.49343 0.474 0.0
C293 C 0.45111 0.4812 0.42507 0.0
C294 C 0.43299 0.48438 0.43545 0.0
C295 C 0.43417 0.49164 0.46574 0.0
C296 C 0.45332 0.49596 0.48446 0.0
C297 C 0.46997 0.48578 0.44454 0.0
H298 H 0.45318 0.50157 0.50718 0.0
H299 H 0.48332 0.48332 0.43503 0.0
H300 H 0.54623 0.50271 0.49271 0.0
H301 H 0.51542 0.51956 0.56566 0.0
C302 C 0.47566 0.51547 0.55682 0.0
C303 C 0.52417 0.55804 0.46556 0.0
C304 C 0.47514 0.44563 0.53494 0.0
C305 C 0.52338 0.48807 0.44344 0.0
H306 H 0.51437 0.58609 0.50367 0.0
H307 H 0.48769 0.56288 0.55396 0.0
H308 H 0.44641 0.47799 0.60087 0.0
H309 H 0.44636 0.43968 0.58853 0.0
H310 H 0.48512 0.41762 0.49703 0.0
H311 H 0.51168 0.44077 0.44662 0.0
H312 H 0.55246 0.52549 0.39923 0.0
H313 H 0.55273 0.56388 0.41177 0.0
H314 H 0.57923 0.51056 0.52454 0.0
H315 H 0.54778 0.52726 0.59882 0.0
H316 H 0.45112 0.47577 0.4017 0.0
H317 H 0.42034 0.49395 0.47509 0.0
H318 H 0.17478 0.41733 0.16345 0.0
H319 H 0.14253 0.41555 0.13268 0.0
H320 H 0.15718 0.48005 0.17115 0.0
H321 H 0.1896 0.48205 0.20118 0.0
H322 H 0.22179 0.4485 0.1633 0.0
H323 H 0.15671 0.42184 0.24076 0.0
H324 H 0.12725 0.42383 0.27312 0.0
H325 H 0.18352 0.49064 0.3054 0.0
H326 H 0.21272 0.4886 0.27316 0.0
H327 H 0.27112 0.49071 0.27581 0.0
H328 H 0.30331 0.49479 0.30847 0.0
H329 H 0.29373 0.43129 0.27292 0.0
H330 H 0.26146 0.4273 0.24016 0.0
H331 H 0.22569 0.45786 0.27733 0.0
H332 H 0.28878 0.49011 0.20189 0.0
H333 H 0.32256 0.49393 0.17279 0.0
H334 H 0.27551 0.42586 0.13543 0.0
H335 H 0.24181 0.42186 0.16542 0.0
C336 C 0.18434 0.44957 0.18516 0.0
C337 C 0.17106 0.43111 0.16519 0.0
C338 C 0.15267 0.43011 0.14761 0.0
C339 C 0.14715 0.44751 0.14979 0.0
C340 C 0.16067 0.46612 0.16947 0.0
C341 C 0.17919 0.46725 0.18672 0.0
C342 C 0.2039 0.45066 0.20382 0.0
C343 C 0.22239 0.4501 0.18833 0.0
C344 C 0.20529 0.45374 0.23633 0.0
C345 C 0.18693 0.45508 0.25452 0.0
C346 C 0.16262 0.43702 0.25456 0.0
C347 C 0.14582 0.43818 0.27305 0.0
C348 C 0.15311 0.4573 0.29202 0.0
C349 C 0.1774 0.47547 0.29151 0.0
C350 C 0.1941 0.47436 0.273 0.0
C351 C 0.26388 0.45874 0.25546 0.0
C352 C 0.27594 0.47765 0.27502 0.0
C353 C 0.29429 0.47992 0.29377 0.0
C354 C 0.30099 0.46328 0.29346 0.0
C355 C 0.28916 0.44453 0.27348 0.0
C356 C 0.27071 0.44223 0.25475 0.0
C357 C 0.24358 0.45593 0.23683 0.0
C358 C 0.22493 0.45602 0.25233 0.0
C359 C 0.24246 0.45325 0.20429 0.0
C360 C 0.26282 0.45556 0.18615 0.0
C361 C 0.28576 0.47591 0.18764 0.0
C362 C 0.30502 0.47818 0.17074 0.0
C363 C 0.30174 0.4602 0.15177 0.0
C364 C 0.27869 0.43989 0.15011 0.0
C365 C 0.25939 0.43765 0.16704 0.0
H366 H 0.7238 0.2137 0.80834 0.0
H367 H 0.69156 0.18174 0.84056 0.0
H368 H 0.6987 0.13139 0.79052 0.0
H369 H 0.73159 0.1635 0.75886 0.0
H370 H 0.76836 0.22862 0.80344 0.0
H371 H 0.70384 0.19745 0.73175 0.0
H372 H 0.67115 0.16778 0.70133 0.0
H373 H 0.72114 0.15582 0.6536 0.0
H374 H 0.75362 0.18503 0.68482 0.0
H375 H 0.8188 0.2494 0.68449 0.0
H376 H 0.84911 0.28288 0.65203 0.0
H377 H 0.8336 0.32863 0.70019 0.0
H378 H 0.80273 0.29496 0.73166 0.0
H379 H 0.7715 0.23123 0.68807 0.0
H380 H 0.83683 0.26627 0.76054 0.0
H381 H 0.86767 0.29702 0.79198 0.0
H382 H 0.81353 0.30435 0.837 0.0
H383 H 0.78287 0.2735 0.80581 0.0
C384 C 0.73006 0.19106 0.78098 0.0
C385 C 0.71856 0.19581 0.80436 0.0
C386 C 0.70015 0.17756 0.82276 0.0
C387 C 0.69271 0.15415 0.81802 0.0
C388 C 0.704 0.1493 0.79444 0.0
C389 C 0.7227 0.16763 0.77629 0.0
C390 C 0.75017 0.21077 0.7623 0.0
C391 C 0.7689 0.22931 0.77818 0.0
C392 C 0.75113 0.21142 0.72933 0.0
C393 C 0.73118 0.1933 0.71087 0.0
C394 C 0.70773 0.18827 0.71497 0.0
C395 C 0.68908 0.17144 0.69731 0.0
C396 C 0.69348 0.15937 0.67499 0.0
C397 C 0.71702 0.16453 0.67086 0.0
C398 C 0.73567 0.18137 0.68852 0.0
C399 C 0.80867 0.2697 0.71072 0.0
C400 C 0.82198 0.26666 0.68806 0.0
C401 C 0.83942 0.28585 0.66969 0.0
C402 C 0.8438 0.30845 0.67353 0.0
C403 C 0.83051 0.31144 0.69639 0.0
C404 C 0.81304 0.29224 0.71468 0.0
C405 C 0.78948 0.24916 0.72926 0.0
C406 C 0.77099 0.23044 0.71333 0.0
C407 C 0.78849 0.24856 0.7622 0.0
C408 C 0.8075 0.26761 0.78068 0.0
C409 C 0.83165 0.27464 0.77702 0.0
C410 C 0.84928 0.29226 0.79501 0.0
C411 C 0.84312 0.30316 0.81716 0.0
C412 C 0.81892 0.2961 0.82062 0.0
C413 C 0.80134 0.2785 0.80267 0.0
H414 H 0.58295 0.81819 0.32617 0.0
H415 H 0.58075 0.84723 0.35628 0.0
H416 H 0.51817 0.83349 0.30602 0.0
H417 H 0.51969 0.80383 0.27706 0.0
H418 H 0.55394 0.77283 0.3221 0.0
H419 H 0.58512 0.83851 0.2446 0.0
H420 H 0.58305 0.86913 0.21442 0.0
H421 H 0.51478 0.81619 0.17892 0.0
H422 H 0.51692 0.78577 0.20898 0.0
H423 H 0.51602 0.72709 0.20835 0.0
H424 H 0.51266 0.6954 0.17845 0.0
H425 H 0.57817 0.70699 0.21807 0.0
H426 H 0.58166 0.73902 0.24762 0.0
H427 H 0.54989 0.77304 0.20688 0.0
H428 H 0.51596 0.70861 0.28108 0.0
H429 H 0.51236 0.67556 0.31178 0.0
H430 H 0.57937 0.72275 0.35555 0.0
H431 H 0.5833 0.75569 0.32378 0.0
C432 C 0.55184 0.80917 0.29876 0.0
C433 C 0.5687 0.82136 0.32171 0.0
C434 C 0.56745 0.83792 0.33889 0.0
C435 C 0.54945 0.84274 0.33318 0.0
C436 C 0.53248 0.83039 0.31047 0.0
C437 C 0.53345 0.81355 0.29377 0.0
C438 C 0.55299 0.7914 0.28066 0.0
C439 C 0.55363 0.7732 0.29686 0.0
C440 C 0.55178 0.79134 0.24777 0.0
C441 C 0.55112 0.80993 0.22908 0.0
C442 C 0.56976 0.83356 0.23026 0.0
C443 C 0.56861 0.85097 0.21296 0.0
C444 C 0.5487 0.84498 0.19452 0.0
C445 C 0.53019 0.82129 0.19323 0.0
C446 C 0.53148 0.80391 0.21018 0.0
C447 C 0.54902 0.73534 0.23032 0.0
C448 C 0.52971 0.72286 0.21053 0.0
C449 C 0.5277 0.70464 0.19365 0.0
C450 C 0.54509 0.69863 0.19602 0.0
C451 C 0.56458 0.71131 0.21562 0.0
C452 C 0.5665 0.72949 0.23267 0.0
C453 C 0.55077 0.75452 0.24833 0.0
C454 C 0.55072 0.77296 0.23209 0.0
C455 C 0.55213 0.75458 0.28117 0.0
C456 C 0.55008 0.73456 0.29982 0.0
C457 C 0.53004 0.7118 0.29698 0.0
C458 C 0.52787 0.69296 0.31483 0.0
C459 C 0.54557 0.69652 0.33616 0.0
C460 C 0.56559 0.71937 0.33905 0.0
C461 C 0.56777 0.73823 0.3211 0.0
H462 H 0.72704 0.50962 0.71905 0.0
H463 H 0.69552 0.50752 0.68692 0.0
H464 H 0.70645 0.57024 0.72698 0.0
H465 H 0.73815 0.57226 0.75926 0.0
H466 H 0.77291 0.54216 0.71842 0.0
H467 H 0.70822 0.5088 0.79298 0.0
H468 H 0.6754 0.50602 0.8232 0.0
H469 H 0.72559 0.57085 0.86609 0.0
H470 H 0.7583 0.57393 0.83487 0.0
H471 H 0.82338 0.57299 0.83496 0.0
H472 H 0.85358 0.5697 0.86399 0.0
H473 H 0.83228 0.50538 0.81905 0.0
H474 H 0.80215 0.50868 0.79037 0.0
H475 H 0.77495 0.54441 0.83356 0.0
H476 H 0.84094 0.57286 0.75847 0.0
H477 H 0.87061 0.57132 0.72601 0.0
H478 H 0.81369 0.50878 0.68518 0.0
H479 H 0.78428 0.51041 0.71749 0.0
C480 C 0.73498 0.54108 0.74158 0.0
C481 C 0.72269 0.52295 0.72093 0.0
C482 C 0.70472 0.52181 0.70249 0.0
C483 C 0.69862 0.53883 0.70419 0.0
C484 C 0.71062 0.55678 0.7253 0.0
C485 C 0.72873 0.55795 0.74375 0.0
C486 C 0.75484 0.54254 0.75984 0.0
C487 C 0.77326 0.54248 0.74364 0.0
C488 C 0.75555 0.54349 0.79267 0.0
C489 C 0.73568 0.54176 0.81132 0.0
C490 C 0.71213 0.52256 0.80864 0.0
C491 C 0.69341 0.52085 0.82621 0.0
C492 C 0.69785 0.53821 0.8471 0.0
C493 C 0.7215 0.55734 0.84993 0.0
C494 C 0.74024 0.55905 0.83229 0.0
C495 C 0.81078 0.54131 0.8101 0.0
C496 C 0.8252 0.55816 0.83146 0.0
C497 C 0.8424 0.55623 0.84805 0.0
C498 C 0.84546 0.53738 0.84361 0.0
C499 C 0.83072 0.52035 0.82255 0.0
C500 C 0.81347 0.52222 0.80614 0.0
C501 C 0.79272 0.54343 0.79211 0.0
C502 C 0.77475 0.54437 0.80834 0.0
C503 C 0.79207 0.54272 0.75925 0.0
C504 C 0.81038 0.54174 0.74042 0.0
C505 C 0.83491 0.55872 0.7427 0.0
C506 C 0.85184 0.55782 0.72417 0.0
C507 C 0.84448 0.54003 0.70286 0.0
C508 C 0.81992 0.52296 0.70093 0.0
C509 C 0.80308 0.52383 0.71945 0.0
H510 H 0.25549 0.83038 0.20776 0.0
H511 H 0.28863 0.86048 0.17453 0.0
H512 H 0.33673 0.8439 0.21994 0.0
H513 H 0.30337 0.81324 0.25211 0.0
H514 H 0.2374 0.78379 0.20994 0.0
H515 H 0.271 0.84451 0.28751 0.0
H516 H 0.3044 0.8747 0.31706 0.0
H517 H 0.32077 0.8235 0.35021 0.0
H518 H 0.28717 0.79333 0.32109 0.0
H519 H 0.22163 0.73369 0.32961 0.0
H520 H 0.18915 0.70033 0.35987 0.0
H521 H 0.1374 0.70941 0.31032 0.0
H522 H 0.16999 0.74325 0.28065 0.0
H523 H 0.23762 0.77768 0.32526 0.0
H524 H 0.20363 0.71634 0.25377 0.0
H525 H 0.17359 0.68517 0.22234 0.0
H526 H 0.16185 0.73536 0.17315 0.0
H527 H 0.19111 0.76622 0.20573 0.0
C528 C 0.27699 0.81974 0.23266 0.0
C529 C 0.27321 0.83334 0.21063 0.0
C530 C 0.29221 0.85064 0.19181 0.0
C531 C 0.31534 0.8546 0.19457 0.0
C532 C 0.3191 0.84114 0.21698 0.0
C533 C 0.30009 0.8238 0.23569 0.0
C534 C 0.25652 0.80036 0.25114 0.0
C535 C 0.23713 0.78263 0.2352 0.0
C536 C 0.25673 0.79846 0.28398 0.0
C537 C 0.27666 0.81671 0.30211 0.0
C538 C 0.28176 0.83981 0.30123 0.0
C539 C 0.30075 0.85698 0.31815 0.0
C540 C 0.31518 0.85141 0.33581 0.0
C541 C 0.31004 0.82828 0.33659 0.0
C542 C 0.2908 0.81104 0.32015 0.0
C543 C 0.1983 0.74087 0.30257 0.0
C544 C 0.20333 0.72867 0.32542 0.0
C545 C 0.18476 0.70962 0.34271 0.0
C546 C 0.16078 0.70228 0.33735 0.0
C547 C 0.15573 0.71455 0.31464 0.0
C548 C 0.17433 0.73383 0.29764 0.0
C549 C 0.21819 0.76098 0.2841 0.0
C550 C 0.23757 0.77885 0.30002 0.0
C551 C 0.21813 0.76275 0.25112 0.0
C552 C 0.19944 0.74362 0.23245 0.0
C553 C 0.1943 0.72057 0.23658 0.0
C554 C 0.1773 0.70279 0.21828 0.0
C555 C 0.16528 0.70771 0.1951 0.0
C556 C 0.17047 0.73082 0.19104 0.0
C557 C 0.18737 0.74856 0.20949 0.0
H558 H 0.48389 0.2761 0.79314 0.0
H559 H 0.48819 0.30805 0.82311 0.0
H560 H 0.42407 0.29917 0.78229 0.0
H561 H 0.41941 0.26656 0.75305 0.0
H562 H 0.45087 0.23137 0.794 0.0
H563 H 0.4837 0.29507 0.71922 0.0
H564 H 0.48737 0.32811 0.68843 0.0
H565 H 0.41971 0.28113 0.64589 0.0
H566 H 0.41572 0.24821 0.67779 0.0
H567 H 0.4117 0.17656 0.68819 0.0
H568 H 0.4153 0.14794 0.65873 0.0
H569 H 0.48988 0.18224 0.6824 0.0
H570 H 0.48606 0.2104 0.71228 0.0
H571 H 0.44462 0.23053 0.679 0.0
H572 H 0.41746 0.1653 0.75512 0.0
H573 H 0.42048 0.13577 0.78633 0.0
H574 H 0.487 0.19073 0.82347 0.0
H575 H 0.48386 0.22007 0.79233 0.0
C576 C 0.45139 0.26898 0.77072 0.0
C577 C 0.47066 0.28093 0.79075 0.0
C578 C 0.47324 0.29937 0.80764 0.0
C579 C 0.45658 0.3063 0.80493 0.0
C580 C 0.43714 0.29418 0.78505 0.0
C581 C 0.43456 0.27567 0.76813 0.0
C582 C 0.4491 0.24954 0.7527 0.0
C583 C 0.44956 0.23126 0.76884 0.0
C584 C 0.44717 0.24923 0.71988 0.0
C585 C 0.44925 0.26924 0.70116 0.0
C586 C 0.46949 0.29193 0.70358 0.0
C587 C 0.4717 0.31076 0.68567 0.0
C588 C 0.45384 0.30726 0.66466 0.0
C589 C 0.43363 0.28447 0.66215 0.0
C590 C 0.4314 0.26562 0.68017 0.0
C591 C 0.4486 0.19547 0.70239 0.0
C592 C 0.42877 0.17783 0.68701 0.0
C593 C 0.43082 0.1615 0.67037 0.0
C594 C 0.45287 0.16299 0.66832 0.0
C595 C 0.47274 0.18084 0.68349 0.0
C596 C 0.47057 0.19684 0.70057 0.0
C597 C 0.44662 0.21264 0.72039 0.0
C598 C 0.4454 0.23047 0.70421 0.0
C599 C 0.44862 0.21297 0.75308 0.0
C600 C 0.45049 0.19488 0.77132 0.0
C601 C 0.43281 0.17093 0.76975 0.0
C602 C 0.43455 0.15409 0.78758 0.0
C603 C 0.45391 0.16093 0.80748 0.0
C604 C 0.47165 0.18492 0.80878 0.0
C605 C 0.46993 0.2017 0.79093 0.0
H606 H 0.02245 0.44769 0.08246 0.0
H607 H 0.07772 0.48396 0.01193 0.0
H608 H 0.04579 0.43424 0.10839 0.0
H609 H 0.10133 0.47103 0.03776 0.0
H610 H 0.13774 0.43851 0.08808 0.0
H611 H 0.10757 0.44047 0.0572 0.0
H612 H 0.08263 0.45689 0.13937 0.0
H613 H 0.11239 0.45454 0.17012 0.0
C614 C 0.04046 0.45479 0.07378 0.0
C615 C 0.05086 0.47241 0.04952 0.0
C616 C 0.05348 0.44611 0.08806 0.0
C617 C 0.07647 0.45332 0.07684 0.0
C618 C 0.08442 0.46644 0.04845 0.0
C619 C 0.0713 0.47511 0.03442 0.0
C620 C 0.1255 0.44213 0.09957 0.0
C621 C 0.12757 0.4466 0.13145 0.0
C622 C 0.10833 0.44339 0.08186 0.0
C623 C 0.0927 0.44889 0.09578 0.0
C624 C 0.09417 0.45235 0.12795 0.0
C625 C 0.11142 0.45129 0.14553 0.0
H626 H 0.55654 0.06622 0.58819 0.0
H627 H 0.60605 0.0532 0.54197 0.0
H628 H 0.58875 0.09452 0.62066 0.0
H629 H 0.6386 0.0819 0.57378 0.0
H630 H 0.685 0.11675 0.65817 0.0
H631 H 0.65269 0.08793 0.62665 0.0
H632 H 0.62483 0.13315 0.61678 0.0
H633 H 0.65708 0.16191 0.64832 0.0
C634 C 0.57443 0.06958 0.585 0.0
C635 C 0.579 0.05778 0.56262 0.0
C636 C 0.59291 0.08585 0.60339 0.0
C637 C 0.61635 0.0906 0.59979 0.0
C638 C 0.62075 0.07852 0.57744 0.0
C639 C 0.60224 0.06224 0.55907 0.0
C640 C 0.67209 0.12062 0.64908 0.0
C641 C 0.67367 0.14167 0.65585 0.0
C642 C 0.65354 0.10409 0.63098 0.0
C643 C 0.6361 0.10817 0.61915 0.0
C644 C 0.63769 0.12922 0.62592 0.0
C645 C 0.65621 0.14573 0.64403 0.0
H646 H 0.50694 0.56408 0.1243 0.0
H647 H 0.55042 0.61525 0.05097 0.0
H648 H 0.51321 0.59557 0.15697 0.0
H649 H 0.55621 0.64676 0.08343 0.0
H650 H 0.58012 0.69795 0.16275 0.0
H651 H 0.57596 0.66627 0.13198 0.0
H652 H 0.50062 0.62409 0.15722 0.0
H653 H 0.50489 0.65549 0.18845 0.0
C654 C 0.51799 0.58207 0.11524 0.0
C655 C 0.52819 0.58717 0.08504 0.0
C656 C 0.52137 0.60009 0.13385 0.0
C657 C 0.53514 0.62364 0.12275 0.0
C658 C 0.54567 0.62879 0.09274 0.0
C659 C 0.54216 0.61075 0.07403 0.0
C660 C 0.56274 0.68181 0.16196 0.0
C661 C 0.54282 0.67922 0.17797 0.0
C662 C 0.56031 0.66377 0.14412 0.0
C663 C 0.53795 0.6427 0.14214 0.0
C664 C 0.51813 0.64002 0.1585 0.0
C665 C 0.52052 0.65809 0.17614 0.0
H666 H 0.90674 0.49392 0.5699 0.0
H667 H 0.96915 0.55558 0.60431 0.0
H668 H 0.88108 0.49991 0.60368 0.0
H669 H 0.94331 0.56154 0.63838 0.0
H670 H 0.88831 0.54722 0.71803 0.0
H671 H 0.91603 0.54355 0.68453 0.0
H672 H 0.86816 0.52756 0.60778 0.0
H673 H 0.8406 0.53121 0.6411 0.0
C674 C 0.91499 0.50891 0.58445 0.0
C675 C 0.94 0.5244 0.58416 0.0
C676 C 0.90026 0.51233 0.60385 0.0
C677 C 0.91013 0.53132 0.62352 0.0
C678 C 0.93517 0.54664 0.62366 0.0
C679 C 0.94996 0.54322 0.60415 0.0
C680 C 0.88388 0.54319 0.6939 0.0
C681 C 0.86213 0.53924 0.68231 0.0
C682 C 0.89975 0.54109 0.67472 0.0
C683 C 0.89416 0.535 0.64359 0.0
C684 C 0.87275 0.53175 0.63184 0.0
C685 C 0.85694 0.53384 0.65094 0.0
H686 H 0.40257 0.95897 0.04758 0.0
H687 H 0.45145 0.94432 0.09412 0.0
H688 H 0.37026 0.93136 0.08413 0.0
H689 H 0.41945 0.91698 0.13108 0.0
H690 H 0.34971 0.85022 0.16599 0.0
H691 H 0.38203 0.87852 0.13067 0.0
H692 H 0.35828 0.92677 0.1395 0.0
H693 H 0.32595 0.89848 0.17509 0.0
C694 C 0.40627 0.94981 0.06579 0.0
C695 C 0.4292 0.95345 0.0682 0.0
C696 C 0.38794 0.93418 0.08678 0.0
C697 C 0.3923 0.92195 0.11046 0.0
C698 C 0.41544 0.92588 0.11285 0.0
C699 C 0.43375 0.94154 0.09191 0.0
C700 C 0.35155 0.86699 0.16075 0.0
C701 C 0.33528 0.87211 0.17346 0.0
C702 C 0.37006 0.88319 0.14046 0.0
C703 C 0.37273 0.90489 0.13231 0.0
C704 C 0.3565 0.91007 0.14502 0.0
C705 C 0.33799 0.89386 0.1654 0.0
H706 H 0.50398 0.44548 0.57954 0.0
H707 H 0.43793 0.40023 0.53324 0.0
H708 H 0.49844 0.41182 0.61124 0.0
H709 H 0.43232 0.36629 0.56455 0.0
H710 H 0.41932 0.3169 0.65026 0.0
H711 H 0.42401 0.3502 0.61888 0.0
H712 H 0.49908 0.37624 0.60384 0.0
H713 H 0.4944 0.34296 0.63496 0.0
C714 C 0.48829 0.42822 0.57627 0.0
C715 C 0.47137 0.42517 0.55417 0.0
C716 C 0.48516 0.40898 0.59418 0.0
C717 C 0.46498 0.38638 0.59031 0.0
C718 C 0.44791 0.3835 0.56828 0.0
C719 C 0.45112 0.40278 0.5503 0.0
C720 C 0.43677 0.32961 0.64 0.0
C721 C 0.45651 0.32731 0.64523 0.0
C722 C 0.43945 0.34869 0.62205 0.0
C723 C 0.46194 0.3659 0.609 0.0
C724 C 0.48161 0.3635 0.61404 0.0
C725 C 0.47893 0.34443 0.6319 0.0
H726 H 0.55581 0.93942 0.46917 0.0
H727 H 0.50965 0.93812 0.39703 0.0
H728 H 0.56252 0.91275 0.44043 0.0
H729 H 0.51531 0.91073 0.36893 0.0
H730 H 0.54615 0.87907 0.30994 0.0
H731 H 0.54261 0.90754 0.33875 0.0
H732 H 0.54502 0.87397 0.42541 0.0
H733 H 0.54975 0.84625 0.39624 0.0
C734 C 0.54695 0.93323 0.44727 0.0
C735 C 0.53237 0.94094 0.43518 0.0
C736 C 0.55067 0.91785 0.43082 0.0
C737 C 0.53957 0.90957 0.40216 0.0
C738 C 0.52469 0.91712 0.39045 0.0
C739 C 0.5213 0.93274 0.40663 0.0
C740 C 0.54601 0.87791 0.33516 0.0
C741 C 0.54815 0.86047 0.3509 0.0
C742 C 0.54381 0.89411 0.35175 0.0
C743 C 0.54325 0.89301 0.38454 0.0
C744 C 0.54571 0.87565 0.40023 0.0
C745 C 0.54831 0.85967 0.38356 0.0
H746 H 0.60604 0.55727 0.97331 0.0
H747 H 0.55803 0.49347 0.92752 0.0
H748 H 0.64014 0.56142 0.94402 0.0
H749 H 0.59184 0.49757 0.89777 0.0
H750 H 0.66038 0.49877 0.87635 0.0
H751 H 0.62715 0.49524 0.90628 0.0
H752 H 0.65681 0.56959 0.89068 0.0
H753 H 0.69006 0.57313 0.86058 0.0
C754 C 0.60292 0.54422 0.95685 0.0
C755 C 0.57968 0.52505 0.95253 0.0
C756 C 0.62231 0.5466 0.93999 0.0
C757 C 0.61871 0.52979 0.9186 0.0
C758 C 0.59528 0.51064 0.91436 0.0
C759 C 0.57594 0.50832 0.93117 0.0
C760 C 0.65973 0.51435 0.87907 0.0
C761 C 0.67785 0.53622 0.86594 0.0
C762 C 0.64068 0.51232 0.89625 0.0
C763 C 0.63927 0.53212 0.90079 0.0
C764 C 0.65751 0.55405 0.88795 0.0
C765 C 0.67658 0.55608 0.87071 0.0
H766 H 0.05767 0.56045 0.40524 0.0
H767 H 0.05228 0.60261 0.47366 0.0
H768 H 0.08662 0.59612 0.37469 0.0
H769 H 0.08151 0.63842 0.44341 0.0
H770 H 0.15733 0.69304 0.40013 0.0
H771 H 0.12587 0.65823 0.42945 0.0
H772 H 0.08851 0.63026 0.34424 0.0
H773 H 0.12007 0.66508 0.31487 0.0
C774 C 0.06268 0.57743 0.41355 0.0
C775 C 0.05306 0.57899 0.44176 0.0
C776 C 0.07911 0.59776 0.3961 0.0
C777 C 0.08634 0.62001 0.40676 0.0
C778 C 0.07641 0.6215 0.43484 0.0
C779 C 0.05974 0.60112 0.45207 0.0
C780 C 0.14237 0.67946 0.38771 0.0
C781 C 0.14114 0.68169 0.35525 0.0
C782 C 0.12429 0.65965 0.4045 0.0
C783 C 0.10478 0.64156 0.38909 0.0
C784 C 0.10344 0.64389 0.35665 0.0
C785 C 0.12137 0.66385 0.33991 0.0
H786 H 0.50675 0.09653 0.9327 0.0
H787 H 0.44065 0.03664 0.90235 0.0
H788 H 0.49938 0.12258 0.90078 0.0
H789 H 0.43333 0.06288 0.87009 0.0
H790 H 0.44501 0.11807 0.79126 0.0
H791 H 0.44989 0.09009 0.82326 0.0
H792 H 0.47141 0.13603 0.90014 0.0
H793 H 0.46651 0.16386 0.86832 0.0
C794 C 0.4905 0.08893 0.91946 0.0
C795 C 0.47417 0.06452 0.92032 0.0
C796 C 0.48629 0.10387 0.90113 0.0
C797 C 0.46567 0.0948 0.88312 0.0
C798 C 0.44947 0.07036 0.88355 0.0
C799 C 0.45367 0.05536 0.902 0.0
C800 C 0.45051 0.12203 0.81511 0.0
C801 C 0.45563 0.14329 0.82717 0.0
C802 C 0.4533 0.10601 0.83342 0.0
C803 C 0.46126 0.11097 0.86411 0.0
C804 C 0.46573 0.13193 0.87637 0.0
C805 C 0.46295 0.14789 0.85813 0.0
H806 H 0.40819 0.4492 0.39493 0.0
H807 H 0.41343 0.51129 0.42874 0.0
H808 H 0.37609 0.44342 0.36067 0.0
H809 H 0.38147 0.50556 0.39454 0.0
H810 H 0.30732 0.47481 0.3544 0.0
H811 H 0.33879 0.47924 0.3886 0.0
H812 H 0.36902 0.46083 0.31431 0.0
H813 H 0.33738 0.4563 0.28004 0.0
C814 C 0.4026 0.4617 0.39491 0.0
C815 C 0.41331 0.48065 0.41468 0.0
C816 C 0.38422 0.4584 0.37525 0.0
C817 C 0.37614 0.47398 0.37491 0.0
C818 C 0.38693 0.49297 0.39462 0.0
C819 C 0.40527 0.49625 0.41425 0.0
C820 C 0.32078 0.47187 0.34527 0.0
C821 C 0.31994 0.46537 0.31441 0.0
C822 C 0.33883 0.47441 0.36489 0.0
C823 C 0.35654 0.47054 0.35416 0.0
C824 C 0.35551 0.4637 0.32343 0.0
C825 C 0.3374 0.46112 0.30377 0.0
H826 H 0.93465 0.38781 0.96708 0.0
H827 H 0.95404 0.43644 0.88771 0.0
H828 H 0.90707 0.35553 0.9351 0.0
H829 H 0.92641 0.40429 0.85585 0.0
H830 H 0.88879 0.33878 0.79973 0.0
H831 H 0.91885 0.36948 0.83164 0.0
H832 H 0.86929 0.3409 0.91046 0.0
H833 H 0.8397 0.30966 0.87901 0.0
C834 C 0.93302 0.39163 0.94282 0.0
C835 C 0.94659 0.41475 0.93001 0.0
C836 C 0.91716 0.37311 0.92447 0.0
C837 C 0.9144 0.37725 0.89285 0.0
C838 C 0.92831 0.40033 0.87994 0.0
C839 C 0.9442 0.41881 0.89825 0.0
C840 C 0.88442 0.33884 0.82399 0.0
C841 C 0.86174 0.32174 0.83671 0.0
C842 C 0.90158 0.35663 0.84222 0.0
C843 C 0.89653 0.35777 0.87367 0.0
C844 C 0.87396 0.34048 0.88647 0.0
C845 C 0.85683 0.3227 0.86827 0.0
H846 H 0.9561 0.55076 0.96931 0.0
H847 H 0.93605 0.48964 0.91769 0.0
H848 H 0.92786 0.55687 0.93987 0.0
H849 H 0.90732 0.49517 0.8886 0.0
H850 H 0.8762 0.52547 0.82114 0.0
H851 H 0.90556 0.52095 0.84973 0.0
H852 H 0.8854 0.53978 0.93401 0.0
H853 H 0.85621 0.54453 0.90526 0.0
C854 C 0.94549 0.53863 0.95166 0.0
C855 C 0.94804 0.51977 0.94558 0.0
C856 C 0.92926 0.54199 0.93494 0.0
C857 C 0.91527 0.5265 0.91186 0.0
C858 C 0.91801 0.50763 0.90587 0.0
C859 C 0.93429 0.50433 0.92257 0.0
C860 C 0.87797 0.52854 0.84581 0.0
C861 C 0.86381 0.53529 0.86095 0.0
C862 C 0.89478 0.52591 0.86222 0.0
C863 C 0.8978 0.52989 0.89423 0.0
C864 C 0.8838 0.53688 0.9093 0.0
C865 C 0.86704 0.53959 0.89284 0.0
H866 H 0.41654 0.97445 0.43831 0.0
H867 H 0.44458 0.92942 0.4431 0.0
H868 H 0.38381 0.94651 0.40634 0.0
H869 H 0.41113 0.90058 0.41303 0.0
H870 H 0.36138 0.8624 0.33483 0.0
H871 H 0.39492 0.89201 0.36393 0.0
H872 H 0.34798 0.91025 0.40689 0.0
H873 H 0.31486 0.88139 0.3764 0.0
C874 C 0.41557 0.95847 0.43248 0.0
C875 C 0.43314 0.95414 0.44271 0.0
C876 C 0.39668 0.94228 0.41449 0.0
C877 C 0.39466 0.92113 0.40689 0.0
C878 C 0.41223 0.9168 0.41767 0.0
C879 C 0.43131 0.93319 0.43517 0.0
C880 C 0.35834 0.87282 0.35049 0.0
C881 C 0.33556 0.86962 0.3534 0.0
C882 C 0.37752 0.88973 0.36738 0.0
C883 C 0.37431 0.90359 0.38808 0.0
C884 C 0.3514 0.90032 0.39085 0.0
C885 C 0.33232 0.88367 0.37352 0.0
H886 H 0.50758 0.41652 0.93541 0.0
H887 H 0.44476 0.41304 0.89881 0.0
H888 H 0.50101 0.38527 0.9022 0.0
H889 H 0.4386 0.38216 0.86475 0.0
H890 H 0.42188 0.30919 0.83581 0.0
H891 H 0.42727 0.34078 0.86774 0.0
H892 H 0.50336 0.37948 0.84693 0.0
H893 H 0.49798 0.34803 0.81499 0.0
C894 C 0.4923 0.40901 0.92036 0.0
C895 C 0.47665 0.41722 0.91984 0.0
C896 C 0.4887 0.39129 0.90103 0.0
C897 C 0.46935 0.38131 0.88071 0.0
C898 C 0.45358 0.38939 0.8803 0.0
C899 C 0.45724 0.40721 0.89958 0.0
C900 C 0.43971 0.32458 0.83773 0.0
C901 C 0.45953 0.326 0.82304 0.0
C902 C 0.4428 0.34267 0.85604 0.0
C903 C 0.46577 0.36255 0.86008 0.0
C904 C 0.48549 0.36419 0.8448 0.0
C905 C 0.4824 0.34615 0.8265 0.0
H906 H 0.05278 0.48904 0.3693 0.0
H907 H 0.0687 0.45794 0.4479 0.0
H908 H 0.07743 0.48153 0.33553 0.0
H909 H 0.09344 0.45051 0.41411 0.0
H910 H 0.15909 0.46999 0.35237 0.0
H911 H 0.13171 0.47384 0.38583 0.0
H912 H 0.08003 0.45005 0.31263 0.0
H913 H 0.10785 0.44686 0.27869 0.0
C914 C 0.06126 0.4803 0.3793 0.0
C915 C 0.05884 0.47418 0.41135 0.0
C916 C 0.07539 0.47599 0.35992 0.0
C917 C 0.08746 0.46548 0.37213 0.0
C918 C 0.08468 0.45896 0.40406 0.0
C919 C 0.07053 0.46325 0.42344 0.0
C920 C 0.14192 0.46567 0.34335 0.0
C921 C 0.13571 0.4583 0.31279 0.0
C922 C 0.12611 0.46761 0.36267 0.0
C923 C 0.10368 0.46226 0.35191 0.0
C924 C 0.09728 0.45452 0.3215 0.0
C925 C 0.1131 0.45248 0.30217 0.0
H926 H 0.55406 0.0553 0.9021 0.0
H927 H 0.60245 0.05003 0.96444 0.0
H928 H 0.58787 0.08237 0.86714 0.0
H929 H 0.63643 0.07741 0.92978 0.0
H930 H 0.68869 0.15137 0.88124 0.0
H931 H 0.6557 0.12085 0.91417 0.0
H932 H 0.61994 0.08317 0.83258 0.0
H933 H 0.65305 0.1138 0.79956 0.0
C934 C 0.57199 0.0599 0.9081 0.0
C935 C 0.57588 0.05092 0.93591 0.0
C936 C 0.59125 0.07524 0.88814 0.0
C937 C 0.61474 0.08201 0.89585 0.0
C938 C 0.61852 0.07263 0.92346 0.0
C939 C 0.59919 0.05703 0.94321 0.0
C940 C 0.6738 0.13652 0.87039 0.0
C941 C 0.67331 0.13495 0.8379 0.0
C942 C 0.65505 0.11899 0.88922 0.0
C943 C 0.6353 0.09969 0.87589 0.0
C944 C 0.63493 0.09795 0.8434 0.0
C945 C 0.65388 0.11535 0.82457 0.0
H946 H 0.5612 0.60348 0.46779 0.0
H947 H 0.49563 0.55822 0.42056 0.0
H948 H 0.56687 0.63749 0.43656 0.0
H949 H 0.50124 0.59193 0.38893 0.0
H950 H 0.50493 0.66059 0.36533 0.0
H951 H 0.50026 0.6273 0.39642 0.0
H952 H 0.57553 0.65384 0.38235 0.0
H953 H 0.58021 0.68716 0.35101 0.0
C954 C 0.54813 0.60095 0.45055 0.0
C955 C 0.52799 0.57853 0.4464 0.0
C956 C 0.55137 0.62026 0.43262 0.0
C957 C 0.53445 0.61739 0.41036 0.0
C958 C 0.5144 0.59477 0.40618 0.0
C959 C 0.51122 0.5755 0.42405 0.0
C960 C 0.52045 0.65923 0.3686 0.0
C961 C 0.54292 0.67647 0.35555 0.0
C962 C 0.51777 0.64015 0.38644 0.0
C963 C 0.5375 0.63789 0.39173 0.0
C964 C 0.56004 0.65524 0.37897 0.0
C965 C 0.56272 0.67432 0.36105 0.0
H966 H 0.47323 0.0856 0.52724 0.0
H967 H 0.47471 0.05319 0.6155 0.0
H968 H 0.46549 0.11198 0.55468 0.0
H969 H 0.46572 0.07885 0.64252 0.0
H970 H 0.42553 0.11513 0.67363 0.0
H971 H 0.43082 0.08726 0.64512 0.0
H972 H 0.49095 0.14508 0.59385 0.0
H973 H 0.4859 0.17288 0.62264 0.0
C974 C 0.47194 0.08403 0.55241 0.0
C975 C 0.47481 0.06725 0.56905 0.0
C976 C 0.46733 0.09907 0.56807 0.0
C977 C 0.46502 0.09741 0.60065 0.0
C978 C 0.46718 0.0803 0.61732 0.0
C979 C 0.47221 0.06552 0.60174 0.0
C980 C 0.43975 0.1218 0.65612 0.0
C981 C 0.45534 0.14609 0.65029 0.0
C982 C 0.44285 0.10592 0.63999 0.0
C983 C 0.46126 0.11408 0.61731 0.0
C984 C 0.47652 0.13836 0.61107 0.0
C985 C 0.47373 0.15422 0.62762 0.0
H986 H 0.44335 0.51115 0.07239 0.0
H987 H 0.39945 0.44286 0.03488 0.0
H988 H 0.40848 0.50578 0.10084 0.0
H989 H 0.36423 0.43743 0.06273 0.0
H990 H 0.31304 0.42699 0.14361 0.0
H991 H 0.34748 0.43163 0.1152 0.0
H992 H 0.37133 0.50383 0.09076 0.0
H993 H 0.33701 0.4992 0.11919 0.0
C994 C 0.4261 0.49502 0.07029 0.0
C995 C 0.42383 0.47738 0.05168 0.0
C996 C 0.40614 0.49196 0.08634 0.0
C997 C 0.38352 0.4712 0.08398 0.0
C998 C 0.38141 0.4535 0.06534 0.0
C999 C 0.40143 0.45659 0.04929 0.0
C1000 C 0.32552 0.44378 0.13191 0.0
C1001 C 0.32233 0.46275 0.13378 0.0
C1002 C 0.34526 0.44644 0.11563 0.0
C1003 C 0.36224 0.46813 0.10081 0.0
C1004 C 0.35886 0.48701 0.10239 0.0
C1005 C 0.33916 0.48435 0.11868 0.0
H1006 H 0.93803 0.44642 0.58286 0.0
H1007 H 0.95206 0.4007 0.53263 0.0
H1008 H 0.909 0.4131 0.61684 0.0
H1009 H 0.92279 0.3671 0.56622 0.0
H1010 H 0.88821 0.31886 0.6543 0.0
H1011 H 0.91749 0.35203 0.62072 0.0
H1012 H 0.86935 0.37709 0.61353 0.0
H1013 H 0.84003 0.3439 0.64687 0.0
C1014 C 0.93471 0.42911 0.57916 0.0
C1015 C 0.94698 0.42585 0.55532 0.0
C1016 C 0.91809 0.41007 0.59841 0.0
C1017 C 0.91356 0.38745 0.59416 0.0
C1018 C 0.92606 0.38434 0.57027 0.0
C1019 C 0.94264 0.40341 0.55097 0.0
C1020 C 0.8838 0.33134 0.64535 0.0
C1021 C 0.8618 0.32875 0.65334 0.0
C1022 C 0.90058 0.35034 0.62611 0.0
C1023 C 0.89575 0.3672 0.61451 0.0
C1024 C 0.87376 0.3646 0.6225 0.0
C1025 C 0.85698 0.34559 0.64165 0.0
H1026 H 0.54675 0.93409 0.0456 0.0
H1027 H 0.51751 0.9489 0.12487 0.0
H1028 H 0.55381 0.90808 0.07887 0.0
H1029 H 0.52477 0.92312 0.15812 0.0
H1030 H 0.51067 0.85042 0.19261 0.0
H1031 H 0.50684 0.87932 0.16137 0.0
H1032 H 0.579 0.90971 0.12498 0.0
H1033 H 0.58278 0.88063 0.15625 0.0
C1034 C 0.54195 0.93185 0.07014 0.0
C1035 C 0.53155 0.94345 0.08267 0.0
C1036 C 0.54617 0.91715 0.0892 0.0
C1037 C 0.53979 0.91359 0.12103 0.0
C1038 C 0.5297 0.92545 0.13361 0.0
C1039 C 0.52573 0.94032 0.11465 0.0
C1040 C 0.52571 0.86331 0.17797 0.0
C1041 C 0.54698 0.86328 0.17671 0.0
C1042 C 0.52359 0.87994 0.1603 0.0
C1043 C 0.54263 0.89673 0.14078 0.0
C1044 C 0.56401 0.89686 0.13971 0.0
C1045 C 0.56624 0.88037 0.15772 0.0
H1046 H 0.59064 0.55412 0.60595 0.0
H1047 H 0.58643 0.49302 0.57017 0.0
H1048 H 0.62309 0.56003 0.63969 0.0
H1049 H 0.61873 0.49891 0.60375 0.0
H1050 H 0.69292 0.52976 0.64249 0.0
H1051 H 0.66146 0.52608 0.60893 0.0
H1052 H 0.63081 0.54211 0.68537 0.0
H1053 H 0.66249 0.54588 0.71905 0.0
C1054 C 0.59653 0.54187 0.60542 0.0
C1055 C 0.58603 0.52318 0.58521 0.0
C1056 C 0.61511 0.54526 0.62476 0.0
C1057 C 0.6236 0.53003 0.62429 0.0
C1058 C 0.61296 0.51126 0.60424 0.0
C1059 C 0.59444 0.50788 0.58496 0.0
C1060 C 0.67941 0.53239 0.65221 0.0
C1061 C 0.68006 0.53786 0.68353 0.0
C1062 C 0.66136 0.53027 0.63296 0.0
C1063 C 0.64347 0.53356 0.64453 0.0
C1064 C 0.64444 0.53965 0.67566 0.0
C1065 C 0.66257 0.5418 0.69496 0.0
H1066 H 0.03819 0.59763 0.10482 0.0
H1067 H 0.09801 0.60416 0.05361 0.0
H1068 H 0.06597 0.62889 0.13784 0.0
H1069 H 0.12568 0.6362 0.08546 0.0
H1070 H 0.16846 0.67257 0.17031 0.0
H1071 H 0.14012 0.64187 0.13726 0.0
H1072 H 0.09483 0.67031 0.13907 0.0
H1073 H 0.12263 0.70035 0.17356 0.0
C1074 C 0.05724 0.60579 0.10045 0.0
C1075 C 0.06579 0.59822 0.07657 0.0
C1076 C 0.0732 0.62394 0.11918 0.0
C1077 C 0.09812 0.63503 0.11449 0.0
C1078 C 0.10664 0.62783 0.09012 0.0
C1079 C 0.09071 0.60965 0.07149 0.0
C1080 C 0.15231 0.67212 0.16405 0.0
C1081 C 0.14785 0.68895 0.17475 0.0
C1082 C 0.13619 0.65469 0.14466 0.0
C1083 C 0.1152 0.65364 0.13527 0.0
C1084 C 0.11069 0.67043 0.14601 0.0
C1085 C 0.1268 0.68785 0.16552 0.0
loop_
_geom_bond_atom_site_label_1
_geom_bond_atom_site_label_2
_geom_bond_distance
_geom_bond_site_symmetry_2
_ccdc_geom_bond_type
C0 C1 1.443 1_556 S
C0 N4 1.376 1_556 S
C0 C38 1.389 . S
C1 C0 1.443 1_554 S
C1 C2 1.340 . S
C1 H41 0.951 1_554 S
C2 C1 1.340 . S
C2 C3 1.439 . S
C2 H42 0.950 . S
C3 C2 1.439 . S
C3 N4 1.374 . S
C3 C37 1.395 . S
N4 C0 1.376 1_554 S
N4 C3 1.374 . S
N4 Co5 1.985 1_655 S
Co5 N4 1.985 1_455 S
Co5 N6 2.021 1_455 S
Co5 N11 2.032 1_554 S
Co5 N16 1.969 1_554 S
Co5 N21 2.299 . S
Co5 N27 2.266 1_454 S
N6 Co5 2.021 1_655 S
N6 C7 1.376 . S
N6 C10 1.383 1_655 S
C7 N6 1.376 . S
C7 C8 1.446 . S
C7 C37 1.391 . S
C8 C7 1.446 . S
C8 C9 1.339 1_655 S
C8 H43 0.949 . S
C9 C8 1.339 1_455 S
C9 C10 1.439 . S
C9 H44 0.950 . S
C10 N6 1.383 1_455 S
C10 C9 1.439 . S
C10 C39 1.392 . S
N11 Co5 2.032 1_556 S
N11 C12 1.376 1_556 S
N11 C15 1.374 . S
C12 N11 1.376 1_554 S
C12 C13 1.443 1_554 S
C12 C39 1.389 . S
C13 C12 1.443 1_556 S
C13 C14 1.340 . S
C13 H45 0.951 1_556 S
C14 C13 1.340 . S
C14 C15 1.439 . S
C14 H46 0.950 . S
C15 N11 1.374 . S
C15 C14 1.439 . S
C15 C40 1.395 . S
N16 Co5 1.969 1_556 S
N16 C17 1.376 . S
N16 C20 1.383 1_455 S
C17 N16 1.376 . S
C17 C18 1.446 . S
C17 C40 1.391 . S
C18 C17 1.446 . S
C18 C19 1.339 1_455 S
C18 H47 0.949 . S
C19 C18 1.339 1_655 S
C19 C20 1.439 . S
C19 H48 0.950 . S
C20 N16 1.383 1_655 S
C20 C19 1.439 . S
C20 C38 1.392 . S
N21 Co5 2.299 . S
N21 C24 1.332 . S
N21 C26 1.332 . S
C22 C23 1.386 . S
C22 C25 1.388 . S
C23 C22 1.386 . S
C23 C24 1.382 . S
C23 H49 0.950 . S
C24 N21 1.332 . S
C24 C23 1.382 . S
C24 H35 0.952 1_554 S
C25 C22 1.388 . S
C25 C26 1.382 . S
C25 H50 0.950 . S
C26 N21 1.332 . S
C26 C25 1.382 . S
C26 H36 0.948 . S
N27 Co5 2.266 1_656 S
N27 C31 1.332 . S
N27 C32 1.332 . S
C28 C29 1.388 . S
C28 C32 1.382 . S
C28 H51 0.950 . S
C29 C28 1.388 . S
C29 C30 1.386 . S
C30 C29 1.386 . S
C30 C31 1.382 . S
C30 H52 0.950 . S
C31 N27 1.332 . S
C31 C30 1.382 . S
C31 H33 0.952 1_556 S
C32 N27 1.332 . S
C32 C28 1.382 . S
C32 H34 0.948 . S
H33 C31 0.952 1_554 S
H34 C32 0.948 . S
H35 C24 0.952 1_556 S
H36 C26 0.948 . S
C37 C3 1.395 . S
C37 C7 1.391 . S
C38 C0 1.389 . S
C38 C20 1.392 . S
C39 C10 1.392 . S
C39 C12 1.389 . S
C40 C15 1.395 . S
C40 C17 1.391 . S
H41 C1 0.951 1_556 S
H42 C2 0.950 . S
H43 C8 0.949 . S
H44 C9 0.950 . S
H45 C13 0.951 1_554 S
H46 C14 0.950 . S
H47 C18 0.949 . S
H48 C19 0.950 . S
H49 C23 0.950 . S
H50 C25 0.950 . S
H51 C28 0.950 . S
H52 C30 0.950 . S
C53 C54 1.443 . S
C53 N57 1.375 . S
C53 C91 1.389 . S
C54 C53 1.443 . S
C54 C55 1.340 1_545 S
C54 H94 0.951 . S
C55 C54 1.340 1_565 S
C55 C56 1.439 . S
C55 H95 0.950 . S
C56 C55 1.439 . S
C56 N57 1.375 1_565 S
C56 C90 1.395 . S
N57 C53 1.375 . S
N57 C56 1.375 1_545 S
N57 Co58 2.007 . S
Co58 N57 2.007 . S
Co58 N59 1.995 1_545 S
Co58 N64 2.008 . S
Co58 N69 1.995 . S
Co58 N74 2.282 1_545 S
Co58 N80 2.282 . S
N59 Co58 1.995 1_565 S
N59 C60 1.376 . S
N59 C63 1.383 . S
C60 N59 1.376 . S
C60 C61 1.446 . S
C60 C90 1.391 . S
C61 C60 1.446 . S
C61 C62 1.339 . S
C61 H96 0.949 . S
C62 C61 1.339 . S
C62 C63 1.439 . S
C62 H97 0.950 . S
C63 N59 1.383 . S
C63 C62 1.439 . S
C63 C92 1.392 . S
N64 Co58 2.008 . S
N64 C65 1.376 1_545 S
N64 C68 1.374 . S
C65 N64 1.376 1_565 S
C65 C66 1.443 . S
C65 C92 1.389 . S
C66 C65 1.443 . S
C66 C67 1.340 1_565 S
C66 H98 0.951 . S
C67 C66 1.340 1_545 S
C67 C68 1.439 . S
C67 H99 0.950 . S
C68 N64 1.374 . S
C68 C67 1.439 . S
C68 C93 1.395 . S
N69 Co58 1.995 . S
N69 C70 1.376 . S
N69 C73 1.383 . S
C70 N69 1.376 . S
C70 C71 1.446 . S
C70 C93 1.391 . S
C71 C70 1.446 . S
C71 C72 1.339 . S
C71 H100 0.949 . S
C72 C71 1.339 . S
C72 C73 1.439 . S
C72 H101 0.950 . S
C73 N69 1.383 . S
C73 C72 1.439 . S
C73 C91 1.392 . S
N74 Co58 2.282 1_565 S
N74 C77 1.332 . S
N74 C79 1.332 . S
C75 C76 1.386 . S
C75 C78 1.388 . S
C76 C75 1.386 . S
C76 C77 1.382 . S
C76 H102 0.950 . S
C77 N74 1.332 . S
C77 C76 1.382 . S
C77 H88 0.952 1_565 S
C78 C75 1.388 . S
C78 C79 1.382 . S
C78 H103 0.950 . S
C79 N74 1.332 . S
C79 C78 1.382 . S
C79 H89 0.948 . S
N80 Co58 2.282 . S
N80 C84 1.332 . S
N80 C85 1.332 . S
C81 C82 1.388 . S
C81 C85 1.382 . S
C81 H104 0.950 . S
C82 C81 1.388 . S
C82 C83 1.386 . S
C83 C82 1.386 . S
C83 C84 1.382 . S
C83 H105 0.950 . S
C84 N80 1.332 . S
C84 C83 1.382 . S
C84 H86 0.950 1_545 S
C85 N80 1.332 . S
C85 C81 1.382 . S
C85 H87 0.948 . S
H86 C84 0.950 1_565 S
H87 C85 0.948 . S
H88 C77 0.952 1_545 S
H89 C79 0.948 . S
C90 C56 1.395 . S
C90 C60 1.391 . S
C91 C53 1.389 . S
C91 C73 1.392 . S
C92 C63 1.392 . S
C92 C65 1.389 . S
C93 C68 1.395 . S
C93 C70 1.391 . S
H94 C54 0.951 . S
H95 C55 0.950 . S
H96 C61 0.949 . S
H97 C62 0.950 . S
H98 C66 0.951 . S
H99 C67 0.950 . S
H100 C71 0.949 . S
H101 C72 0.950 . S
H102 C76 0.950 . S
H103 C78 0.950 . S
H104 C81 0.950 . S
H105 C83 0.950 . S
C106 C107 1.443 . S
C106 N110 1.376 . S
C106 C144 1.389 . S
C107 C106 1.443 . S
C107 C108 1.340 . S
C107 H147 0.951 . S
C108 C107 1.340 . S
C108 C109 1.439 . S
C108 H148 0.950 . S
C109 C108 1.439 . S
C109 N110 1.374 . S
C109 C143 1.395 . S
N110 C106 1.376 . S
N110 C109 1.374 . S
N110 Co111 1.986 1_556 S
Co111 N110 1.986 1_554 S
Co111 N112 1.988 1_554 S
Co111 N117 2.031 . S
Co111 N122 2.001 . S
Co111 N127 2.296 . S
Co111 N133 2.270 1_554 S
N112 Co111 1.988 1_556 S
N112 C113 1.376 . S
N112 C116 1.383 1_556 S
C113 N112 1.376 . S
C113 C114 1.446 . S
C113 C143 1.391 . S
C114 C113 1.446 . S
C114 C115 1.339 . S
C114 H149 0.949 . S
C115 C114 1.339 . S
C115 C116 1.439 1_556 S
C115 H150 0.950 1_556 S
C116 N112 1.383 1_554 S
C116 C115 1.439 1_554 S
C116 C145 1.392 . S
N117 Co111 2.031 . S
N117 C118 1.376 . S
N117 C121 1.374 . S
C118 N117 1.376 . S
C118 C119 1.443 . S
C118 C145 1.389 . S
C119 C118 1.443 . S
C119 C120 1.340 . S
C119 H151 0.951 . S
C120 C119 1.340 . S
C120 C121 1.439 . S
C120 H152 0.950 . S
C121 N117 1.374 . S
C121 C120 1.439 . S
C121 C146 1.395 . S
N122 Co111 2.001 . S
N122 C123 1.376 . S
N122 C126 1.383 1_554 S
C123 N122 1.376 . S
C123 C124 1.446 . S
C123 C146 1.391 . S
C124 C123 1.446 . S
C124 C125 1.339 . S
C124 H153 0.949 . S
C125 C124 1.339 . S
C125 C126 1.439 1_554 S
C125 H154 0.940 1_554 S
C126 N122 1.383 1_556 S
C126 C125 1.439 1_556 S
C126 C144 1.392 . S
N127 Co111 2.296 . S
N127 C130 1.332 . S
N127 C132 1.332 . S
C128 C129 1.386 . S
C128 C131 1.388 . S
C129 C128 1.386 . S
C129 C130 1.382 . S
C129 H155 0.950 . S
C130 N127 1.332 . S
C130 C129 1.382 . S
C130 H141 0.952 . S
C131 C128 1.388 . S
C131 C132 1.382 . S
C131 H156 0.950 . S
C132 N127 1.332 . S
C132 C131 1.382 . S
C132 H142 0.948 1_554 S
N133 Co111 2.270 1_556 S
N133 C137 1.332 . S
N133 C138 1.332 . S
C134 C135 1.388 . S
C134 C138 1.382 . S
C134 H157 0.950 . S
C135 C134 1.388 . S
C135 C136 1.386 . S
C136 C135 1.386 . S
C136 C137 1.382 . S
C136 H158 0.950 . S
C137 N133 1.332 . S
C137 C136 1.382 . S
C137 H139 0.952 . S
C138 N133 1.332 . S
C138 C134 1.382 . S
C138 H140 0.948 1_556 S
H139 C137 0.952 . S
H140 C138 0.948 1_554 S
H141 C130 0.952 . S
H142 C132 0.948 1_556 S
C143 C109 1.395 . S
C143 C113 1.391 . S
C144 C106 1.389 . S
C144 C126 1.392 . S
C145 C116 1.392 . S
C145 C118 1.389 . S
C146 C121 1.395 . S
C146 C123 1.391 . S
H147 C107 0.951 . S
H148 C108 0.950 . S
H149 C114 0.949 . S
H150 C115 0.950 1_554 S
H151 C119 0.951 . S
H152 C120 0.950 . S
H153 C124 0.949 . S
H154 C125 0.940 1_556 S
H155 C129 0.950 . S
H156 C131 0.950 . S
H157 C134 0.950 . S
H158 C136 0.950 . S
C159 C160 1.443 . S
C159 N163 1.376 . S
C159 C197 1.389 . S
C160 C159 1.443 . S
C160 C161 1.340 . S
C160 H200 0.951 . S
C161 C160 1.340 . S
C161 C162 1.439 . S
C161 H201 0.950 . S
C162 C161 1.439 . S
C162 N163 1.374 . S
C162 C196 1.395 . S
N163 C159 1.376 . S
N163 C162 1.374 . S
N163 Co164 1.991 1_655 S
Co164 N163 1.991 1_455 S
Co164 N165 1.984 1_455 S
Co164 N170 2.026 . S
Co164 N175 2.005 . S
Co164 N180 2.305 . S
Co164 N186 2.260 1_455 S
N165 Co164 1.984 1_655 S
N165 C166 1.376 . S
N165 C169 1.383 1_655 S
C166 N165 1.376 . S
C166 C167 1.446 . S
C166 C196 1.391 . S
C167 C166 1.446 . S
C167 C168 1.339 1_655 S
C167 H202 0.949 . S
C168 C167 1.339 1_455 S
C168 C169 1.439 . S
C168 H203 0.950 . S
C169 N165 1.383 1_455 S
C169 C168 1.439 . S
C169 C198 1.392 . S
N170 Co164 2.026 . S
N170 C171 1.376 . S
N170 C174 1.374 . S
C171 N170 1.376 . S
C171 C172 1.443 . S
C171 C198 1.389 . S
C172 C171 1.443 . S
C172 C173 1.340 . S
C172 H204 0.951 . S
C173 C172 1.340 . S
C173 C174 1.439 . S
C173 H205 0.950 . S
C174 N170 1.374 . S
C174 C173 1.439 . S
C174 C199 1.395 . S
N175 Co164 2.005 . S
N175 C176 1.376 . S
N175 C179 1.383 1_455 S
C176 N175 1.376 . S
C176 C177 1.446 . S
C176 C199 1.391 . S
C177 C176 1.446 . S
C177 C178 1.339 1_455 S
C177 H206 0.949 . S
C178 C177 1.339 1_655 S
C178 C179 1.439 . S
C178 H207 0.950 . S
C179 N175 1.383 1_655 S
C179 C178 1.439 . S
C179 C197 1.392 . S
N180 Co164 2.305 . S
N180 C183 1.332 . S
N180 C185 1.332 . S
C181 C182 1.386 . S
C181 C184 1.388 . S
C182 C181 1.386 . S
C182 C183 1.382 . S
C182 H208 0.950 . S
C183 N180 1.332 . S
C183 C182 1.382 . S
C183 H194 0.952 . S
C184 C181 1.388 . S
C184 C185 1.382 . S
C184 H209 0.950 . S
C185 N180 1.332 . S
C185 C184 1.382 . S
C185 H195 0.948 . S
N186 Co164 2.260 1_655 S
N186 C190 1.332 . S
N186 C191 1.332 . S
C187 C188 1.388 . S
C187 C191 1.382 . S
C187 H210 0.950 . S
C188 C187 1.388 . S
C188 C189 1.386 . S
C189 C188 1.386 . S
C189 C190 1.382 . S
C189 H211 0.950 . S
C190 N186 1.332 . S
C190 C189 1.382 . S
C190 H192 0.952 . S
C191 N186 1.332 . S
C191 C187 1.382 . S
C191 H193 0.948 . S
H192 C190 0.952 . S
H193 C191 0.948 . S
H194 C183 0.952 . S
H195 C185 0.948 . S
C196 C162 1.395 . S
C196 C166 1.391 . S
C197 C159 1.389 . S
C197 C179 1.392 . S
C198 C169 1.392 . S
C198 C171 1.389 . S
C199 C174 1.395 . S
C199 C176 1.391 . S
H200 C160 0.951 . S
H201 C161 0.950 . S
H202 C167 0.949 . S
H203 C168 0.950 . S
H204 C172 0.951 . S
H205 C173 0.950 . S
H206 C177 0.949 . S
H207 C178 0.950 . S
H208 C182 0.950 . S
H209 C184 0.950 . S
H210 C187 0.950 . S
H211 C189 0.950 . S
C212 C213 1.443 . S
C212 N216 1.376 1_565 S
C212 C250 1.389 . S
C213 C212 1.443 . S
C213 C214 1.340 1_565 S
C213 H253 0.951 . S
C214 C213 1.340 1_545 S
C214 C215 1.439 . S
C214 H254 0.950 . S
C215 C214 1.439 . S
C215 N216 1.374 . S
C215 C249 1.395 . S
N216 C212 1.376 1_545 S
N216 C215 1.374 . S
N216 Co217 2.028 . S
Co217 N216 2.028 . S
Co217 N218 1.999 . S
Co217 N223 1.995 1_554 S
Co217 N228 1.991 1_544 S
Co217 N233 2.273 1_554 S
Co217 N239 2.292 1_545 S
N218 Co217 1.999 . S
N218 C219 1.376 . S
N218 C222 1.383 1_554 S
C219 N218 1.376 . S
C219 C220 1.446 . S
C219 C249 1.391 . S
C220 C219 1.446 . S
C220 C221 1.339 1_554 S
C220 H255 0.949 . S
C221 C220 1.339 1_556 S
C221 C222 1.439 . S
C221 H256 0.950 . S
C222 N218 1.383 1_556 S
C222 C221 1.439 . S
C222 C251 1.392 . S
N223 Co217 1.995 1_556 S
N223 C224 1.385 . S
N223 C227 1.361 1_545 S
C224 N223 1.385 . S
C224 C225 1.443 . S
C224 C251 1.389 . S
C225 C224 1.443 . S
C225 C226 1.340 1_545 S
C225 H257 0.951 . S
C226 C225 1.340 1_565 S
C226 C227 1.439 . S
C226 H258 0.950 . S
C227 N223 1.361 1_565 S
C227 C226 1.439 . S
C227 C252 1.395 . S
N228 Co217 1.991 1_566 S
N228 C229 1.376 . S
N228 C232 1.383 1_556 S
C229 N228 1.376 . S
C229 C230 1.446 . S
C229 C252 1.391 . S
C230 C229 1.446 . S
C230 C231 1.339 1_556 S
C230 H259 0.949 . S
C231 C230 1.339 1_554 S
C231 C232 1.439 . S
C231 H260 0.950 . S
C232 N228 1.383 1_554 S
C232 C231 1.439 . S
C232 C250 1.392 . S
N233 Co217 2.273 1_556 S
N233 C236 1.332 . S
N233 C238 1.332 . S
C234 C235 1.386 . S
C234 C237 1.388 . S
C235 C234 1.386 . S
C235 C236 1.382 . S
C235 H261 0.950 . S
C236 N233 1.332 . S
C236 C235 1.382 . S
C236 H247 0.970 . S
C237 C234 1.388 . S
C237 C238 1.382 . S
C237 H262 0.950 . S
C238 N233 1.332 . S
C238 C237 1.382 . S
C238 H248 0.970 . S
N239 Co217 2.292 1_565 S
N239 C243 1.332 . S
N239 C244 1.332 . S
C240 C241 1.388 . S
C240 C244 1.382 . S
C240 H263 0.950 . S
C241 C240 1.388 . S
C241 C242 1.386 . S
C242 C241 1.386 . S
C242 C243 1.382 . S
C242 H264 0.950 . S
C243 N239 1.332 . S
C243 C242 1.382 . S
C243 H245 0.952 1_565 S
C244 N239 1.332 . S
C244 C240 1.382 . S
C244 H246 0.948 . S
H245 C243 0.952 1_545 S
H246 C244 0.948 . S
H247 C236 0.970 . S
H248 C238 0.970 . S
C249 C215 1.395 . S
C249 C219 1.391 . S
C250 C212 1.389 . S
C250 C232 1.392 . S
C251 C222 1.392 . S
C251 C224 1.389 . S
C252 C227 1.395 . S
C252 C229 1.391 . S
H253 C213 0.951 . S
H254 C214 0.950 . S
H255 C220 0.949 . S
H256 C221 0.950 . S
H257 C225 0.951 . S
H258 C226 0.950 . S
H259 C230 0.949 . S
H260 C231 0.950 . S
H261 C235 0.950 . S
H262 C237 0.950 . S
H263 C240 0.950 . S
H264 C242 0.950 . S
C265 C266 1.443 . S
C265 N269 1.376 . S
C265 C303 1.389 . S
C266 C265 1.443 . S
C266 C267 1.340 . S
C266 H306 0.951 . S
C267 C266 1.340 . S
C267 C268 1.439 . S
C267 H307 0.950 . S
C268 C267 1.439 . S
C268 N269 1.374 . S
C268 C302 1.395 . S
N269 C265 1.376 . S
N269 C268 1.374 . S
N269 Co270 2.008 . S
Co270 N269 2.008 . S
Co270 N271 1.995 . S
Co270 N276 2.008 . S
Co270 N281 1.995 . S
Co270 N286 2.282 . S
Co270 N292 2.282 . S
N271 Co270 1.995 . S
N271 C272 1.376 . S
N271 C275 1.383 . S
C272 N271 1.376 . S
C272 C273 1.446 . S
C272 C302 1.391 . S
C273 C272 1.446 . S
C273 C274 1.339 . S
C273 H308 0.949 . S
C274 C273 1.339 . S
C274 C275 1.439 . S
C274 H309 0.950 . S
C275 N271 1.383 . S
C275 C274 1.439 . S
C275 C304 1.392 . S
N276 Co270 2.008 . S
N276 C277 1.376 . S
N276 C280 1.374 . S
C277 N276 1.376 . S
C277 C278 1.443 . S
C277 C304 1.389 . S
C278 C277 1.443 . S
C278 C279 1.340 . S
C278 H310 0.951 . S
C279 C278 1.340 . S
C279 C280 1.439 . S
C279 H311 0.950 . S
C280 N276 1.374 . S
C280 C279 1.439 . S
C280 C305 1.395 . S
N281 Co270 1.995 . S
N281 C282 1.376 . S
N281 C285 1.383 . S
C282 N281 1.376 . S
C282 C283 1.446 . S
C282 C305 1.391 . S
C283 C282 1.446 . S
C283 C284 1.339 . S
C283 H312 0.949 . S
C284 C283 1.339 . S
C284 C285 1.439 . S
C284 H313 0.950 . S
C285 N281 1.383 . S
C285 C284 1.439 . S
C285 C303 1.392 . S
N286 Co270 2.282 . S
N286 C289 1.332 . S
N286 C291 1.332 . S
C287 C288 1.386 . S
C287 C290 1.388 . S
C288 C287 1.386 . S
C288 C289 1.382 . S
C288 H314 0.950 . S
C289 N286 1.332 . S
C289 C288 1.382 . S
C289 H300 0.952 . S
C290 C287 1.388 . S
C290 C291 1.382 . S
C290 H315 0.950 . S
C291 N286 1.332 . S
C291 C290 1.382 . S
C291 H301 0.948 . S
N292 Co270 2.282 . S
N292 C296 1.332 . S
N292 C297 1.332 . S
C293 C294 1.388 . S
C293 C297 1.382 . S
C293 H316 0.950 . S
C294 C293 1.388 . S
C294 C295 1.386 . S
C295 C294 1.386 . S
C295 C296 1.382 . S
C295 H317 0.950 . S
C296 N292 1.332 . S
C296 C295 1.382 . S
C296 H298 0.952 . S
C297 N292 1.332 . S
C297 C293 1.382 . S
C297 H299 0.948 . S
H298 C296 0.952 . S
H299 C297 0.948 . S
H300 C289 0.952 . S
H301 C291 0.948 . S
C302 C268 1.395 . S
C302 C272 1.391 . S
C303 C265 1.389 . S
C303 C285 1.392 . S
C304 C275 1.392 . S
C304 C277 1.389 . S
C305 C280 1.395 . S
C305 C282 1.391 . S
H306 C266 0.951 . S
H307 C267 0.950 . S
H308 C273 0.949 . S
H309 C274 0.950 . S
H310 C278 0.951 . S
H311 C279 0.950 . S
H312 C283 0.949 . S
H313 C284 0.950 . S
H314 C288 0.950 . S
H315 C290 0.950 . S
H316 C293 0.950 . S
H317 C295 0.950 . S
H318 C337 0.949 . S
H319 C338 0.950 . S
H320 C340 0.950 . S
H321 C341 0.950 . S
H322 C343 0.950 . S
H323 C346 0.950 . S
H324 C347 0.950 . S
H325 C349 0.951 . S
H326 C350 0.949 . S
H327 C352 0.949 . S
H328 C353 0.950 . S
H329 C355 0.950 . S
H330 C356 0.950 . S
H331 C358 0.950 . S
H332 C361 0.950 . S
H333 C362 0.950 . S
H334 C364 0.951 . S
H335 C365 0.949 . S
C336 C337 1.376 . S
C336 C341 1.386 . S
C336 C342 1.483 . S
C337 H318 0.949 . S
C337 C336 1.376 . S
C337 C338 1.397 . S
C338 H319 0.950 . S
C338 C337 1.397 . S
C338 C339 1.391 . S
C339 C338 1.391 . S
C339 C340 1.405 . S
C340 H320 0.950 . S
C340 C339 1.405 . S
C340 C341 1.367 . S
C341 H321 0.950 . S
C341 C336 1.386 . S
C341 C340 1.367 . S
C342 C336 1.483 . S
C342 C343 1.382 . S
C342 C344 1.403 . S
C343 H322 0.950 . S
C343 C342 1.382 . S
C343 C359 1.411 . S
C344 C342 1.403 . S
C344 C345 1.489 . S
C344 C358 1.411 . S
C345 C344 1.489 . S
C345 C346 1.383 . S
C345 C350 1.382 . S
C346 H323 0.950 . S
C346 C345 1.383 . S
C346 C347 1.395 . S
C347 H324 0.950 . S
C347 C346 1.395 . S
C347 C348 1.288 . S
C348 C347 1.288 . S
C348 C349 1.392 . S
C349 H325 0.951 . S
C349 C348 1.392 . S
C349 C350 1.392 . S
C350 H326 0.949 . S
C350 C345 1.382 . S
C350 C349 1.392 . S
C351 C352 1.376 . S
C351 C356 1.386 . S
C351 C357 1.483 . S
C352 H327 0.949 . S
C352 C351 1.376 . S
C352 C353 1.397 . S
C353 H328 0.950 . S
C353 C352 1.397 . S
C353 C354 1.391 . S
C354 C353 1.391 . S
C354 C355 1.405 . S
C355 H329 0.950 . S
C355 C354 1.405 . S
C355 C356 1.367 . S
C356 H330 0.950 . S
C356 C351 1.386 . S
C356 C355 1.367 . S
C357 C351 1.483 . S
C357 C358 1.382 . S
C357 C359 1.403 . S
C358 H331 0.950 . S
C358 C344 1.411 . S
C358 C357 1.382 . S
C359 C343 1.411 . S
C359 C357 1.403 . S
C359 C360 1.489 . S
C360 C359 1.489 . S
C360 C361 1.383 . S
C360 C365 1.382 . S
C361 H332 0.950 . S
C361 C360 1.383 . S
C361 C362 1.395 . S
C362 H333 0.950 . S
C362 C361 1.395 . S
C362 C363 1.288 . S
C363 C362 1.288 . S
C363 C364 1.392 . S
C364 H334 0.951 . S
C364 C363 1.392 . S
C364 C365 1.392 . S
C365 H335 0.949 . S
C365 C360 1.382 . S
C365 C364 1.392 . S
H366 C385 0.949 . S
H367 C386 0.950 . S
H368 C388 0.950 . S
H369 C389 0.950 . S
H370 C391 0.950 . S
H371 C394 0.950 . S
H372 C395 0.950 . S
H373 C397 0.951 . S
H374 C398 0.949 . S
H375 C400 0.949 . S
H376 C401 0.950 . S
H377 C403 0.950 . S
H378 C404 0.950 . S
H379 C406 0.950 . S
H380 C409 0.950 . S
H381 C410 0.950 . S
H382 C412 0.951 . S
H383 C413 0.949 . S
C384 C385 1.376 . S
C384 C389 1.386 . S
C384 C390 1.483 . S
C385 H366 0.949 . S
C385 C384 1.376 . S
C385 C386 1.397 . S
C386 H367 0.950 . S
C386 C385 1.397 . S
C386 C387 1.391 . S
C387 C386 1.391 . S
C387 C388 1.405 . S
C388 H368 0.950 . S
C388 C387 1.405 . S
C388 C389 1.367 . S
C389 H369 0.950 . S
C389 C384 1.386 . S
C389 C388 1.367 . S
C390 C384 1.483 . S
C390 C391 1.382 . S
C390 C392 1.403 . S
C391 H370 0.950 . S
C391 C390 1.382 . S
C391 C407 1.411 . S
C392 C390 1.403 . S
C392 C393 1.489 . S
C392 C406 1.411 . S
C393 C392 1.489 . S
C393 C394 1.383 . S
C393 C398 1.382 . S
C394 H371 0.950 . S
C394 C393 1.383 . S
C394 C395 1.395 . S
C395 H372 0.950 . S
C395 C394 1.395 . S
C395 C396 1.288 . S
C396 C395 1.288 . S
C396 C397 1.392 . S
C397 H373 0.951 . S
C397 C396 1.392 . S
C397 C398 1.392 . S
C398 H374 0.949 . S
C398 C393 1.382 . S
C398 C397 1.392 . S
C399 C400 1.376 . S
C399 C404 1.386 . S
C399 C405 1.483 . S
C400 H375 0.949 . S
C400 C399 1.376 . S
C400 C401 1.397 . S
C401 H376 0.950 . S
C401 C400 1.397 . S
C401 C402 1.391 . S
C402 C401 1.391 . S
C402 C403 1.405 . S
C403 H377 0.950 . S
C403 C402 1.405 . S
C403 C404 1.367 . S
C404 H378 0.950 . S
C404 C399 1.386 . S
C404 C403 1.367 . S
C405 C399 1.483 . S
C405 C406 1.382 . S
C405 C407 1.403 . S
C406 H379 0.950 . S
C406 C392 1.411 . S
C406 C405 1.382 . S
C407 C391 1.411 . S
C407 C405 1.403 . S
C407 C408 1.489 . S
C408 C407 1.489 . S
C408 C409 1.383 . S
C408 C413 1.382 . S
C409 H380 0.950 . S
C409 C408 1.383 . S
C409 C410 1.395 . S
C410 H381 0.950 . S
C410 C409 1.395 . S
C410 C411 1.288 . S
C411 C410 1.288 . S
C411 C412 1.392 . S
C412 H382 0.951 . S
C412 C411 1.392 . S
C412 C413 1.392 . S
C413 H383 0.949 . S
C413 C408 1.382 . S
C413 C412 1.392 . S
H414 C433 0.949 . S
H415 C434 0.950 . S
H416 C436 0.950 . S
H417 C437 0.950 . S
H418 C439 0.950 . S
H419 C442 0.950 . S
H420 C443 0.950 . S
H421 C445 0.951 . S
H422 C446 0.949 . S
H423 C448 0.949 . S
H424 C449 0.950 . S
H425 C451 0.950 . S
H426 C452 0.950 . S
H427 C454 0.950 . S
H428 C457 0.950 . S
H429 C458 0.950 . S
H430 C460 0.951 . S
H431 C461 0.949 . S
C432 C433 1.376 . S
C432 C437 1.386 . S
C432 C438 1.483 . S
C433 H414 0.949 . S
C433 C432 1.376 . S
C433 C434 1.397 . S
C434 H415 0.950 . S
C434 C433 1.397 . S
C434 C435 1.391 . S
C435 C434 1.391 . S
C435 C436 1.405 . S
C436 H416 0.950 . S
C436 C435 1.405 . S
C436 C437 1.367 . S
C437 H417 0.950 . S
C437 C432 1.386 . S
C437 C436 1.367 . S
C438 C432 1.483 . S
C438 C439 1.382 . S
C438 C440 1.403 . S
C439 H418 0.950 . S
C439 C438 1.382 . S
C439 C455 1.411 . S
C440 C438 1.403 . S
C440 C441 1.489 . S
C440 C454 1.411 . S
C441 C440 1.489 . S
C441 C442 1.383 . S
C441 C446 1.382 . S
C442 H419 0.950 . S
C442 C441 1.383 . S
C442 C443 1.395 . S
C443 H420 0.950 . S
C443 C442 1.395 . S
C443 C444 1.288 . S
C444 C443 1.288 . S
C444 C445 1.392 . S
C445 H421 0.951 . S
C445 C444 1.392 . S
C445 C446 1.392 . S
C446 H422 0.949 . S
C446 C441 1.382 . S
C446 C445 1.392 . S
C447 C448 1.376 . S
C447 C452 1.386 . S
C447 C453 1.483 . S
C448 H423 0.949 . S
C448 C447 1.376 . S
C448 C449 1.397 . S
C449 H424 0.950 . S
C449 C448 1.397 . S
C449 C450 1.391 . S
C450 C449 1.391 . S
C450 C451 1.405 . S
C451 H425 0.950 . S
C451 C450 1.405 . S
C451 C452 1.367 . S
C452 H426 0.950 . S
C452 C447 1.386 . S
C452 C451 1.367 . S
C453 C447 1.483 . S
C453 C454 1.382 . S
C453 C455 1.403 . S
C454 H427 0.950 . S
C454 C440 1.411 . S
C454 C453 1.382 . S
C455 C439 1.411 . S
C455 C453 1.403 . S
C455 C456 1.489 . S
C456 C455 1.489 . S
C456 C457 1.383 . S
C456 C461 1.382 . S
C457 H428 0.950 . S
C457 C456 1.383 . S
C457 C458 1.395 . S
C458 H429 0.950 . S
C458 C457 1.395 . S
C458 C459 1.288 . S
C459 C458 1.288 . S
C459 C460 1.392 . S
C460 H430 0.951 . S
C460 C459 1.392 . S
C460 C461 1.392 . S
C461 H431 0.949 . S
C461 C456 1.382 . S
C461 C460 1.392 . S
H462 C481 0.949 . S
H463 C482 0.950 . S
H464 C484 0.950 . S
H465 C485 0.950 . S
H466 C487 0.950 . S
H467 C490 0.950 . S
H468 C491 0.950 . S
H469 C493 0.951 . S
H470 C494 0.949 . S
H471 C496 0.949 . S
H472 C497 0.950 . S
H473 C499 0.950 . S
H474 C500 0.950 . S
H475 C502 0.950 . S
H476 C505 0.950 . S
H477 C506 0.950 . S
H478 C508 0.951 . S
H479 C509 0.949 . S
C480 C481 1.376 . S
C480 C485 1.386 . S
C480 C486 1.483 . S
C481 H462 0.949 . S
C481 C480 1.376 . S
C481 C482 1.397 . S
C482 H463 0.950 . S
C482 C481 1.397 . S
C482 C483 1.391 . S
C483 C482 1.391 . S
C483 C484 1.405 . S
C484 H464 0.950 . S
C484 C483 1.405 . S
C484 C485 1.367 . S
C485 H465 0.950 . S
C485 C480 1.386 . S
C485 C484 1.367 . S
C486 C480 1.483 . S
C486 C487 1.382 . S
C486 C488 1.403 . S
C487 H466 0.950 . S
C487 C486 1.382 . S
C487 C503 1.411 . S
C488 C486 1.403 . S
C488 C489 1.489 . S
C488 C502 1.411 . S
C489 C488 1.489 . S
C489 C490 1.383 . S
C489 C494 1.382 . S
C490 H467 0.950 . S
C490 C489 1.383 . S
C490 C491 1.395 . S
C491 H468 0.950 . S
C491 C490 1.395 . S
C491 C492 1.288 . S
C492 C491 1.288 . S
C492 C493 1.392 . S
C493 H469 0.951 . S
C493 C492 1.392 . S
C493 C494 1.392 . S
C494 H470 0.949 . S
C494 C489 1.382 . S
C494 C493 1.392 . S
C495 C496 1.376 . S
C495 C500 1.386 . S
C495 C501 1.483 . S
C496 H471 0.949 . S
C496 C495 1.376 . S
C496 C497 1.397 . S
C497 H472 0.950 . S
C497 C496 1.397 . S
C497 C498 1.391 . S
C498 C497 1.391 . S
C498 C499 1.405 . S
C499 H473 0.950 . S
C499 C498 1.405 . S
C499 C500 1.367 . S
C500 H474 0.950 . S
C500 C495 1.386 . S
C500 C499 1.367 . S
C501 C495 1.483 . S
C501 C502 1.382 . S
C501 C503 1.403 . S
C502 H475 0.950 . S
C502 C488 1.411 . S
C502 C501 1.382 . S
C503 C487 1.411 . S
C503 C501 1.403 . S
C503 C504 1.489 . S
C504 C503 1.489 . S
C504 C505 1.383 . S
C504 C509 1.382 . S
C505 H476 0.950 . S
C505 C504 1.383 . S
C505 C506 1.395 . S
C506 H477 0.950 . S
C506 C505 1.395 . S
C506 C507 1.288 . S
C507 C506 1.288 . S
C507 C508 1.392 . S
C508 H478 0.951 . S
C508 C507 1.392 . S
C508 C509 1.392 . S
C509 H479 0.949 . S
C509 C504 1.382 . S
C509 C508 1.392 . S
H510 C529 0.949 . S
H511 C530 0.950 . S
H512 C532 0.950 . S
H513 C533 0.950 . S
H514 C535 0.950 . S
H515 C538 0.950 . S
H516 C539 0.950 . S
H517 C541 0.951 . S
H518 C542 0.949 . S
H519 C544 0.949 . S
H520 C545 0.950 . S
H521 C547 0.950 . S
H522 C548 0.950 . S
H523 C550 0.950 . S
H524 C553 0.950 . S
H525 C554 0.950 . S
H526 C556 0.951 . S
H527 C557 0.949 . S
C528 C529 1.376 . S
C528 C533 1.386 . S
C528 C534 1.483 . S
C529 H510 0.949 . S
C529 C528 1.376 . S
C529 C530 1.397 . S
C530 H511 0.950 . S
C530 C529 1.397 . S
C530 C531 1.391 . S
C531 C530 1.391 . S
C531 C532 1.405 . S
C532 H512 0.950 . S
C532 C531 1.405 . S
C532 C533 1.367 . S
C533 H513 0.950 . S
C533 C528 1.386 . S
C533 C532 1.367 . S
C534 C528 1.483 . S
C534 C535 1.382 . S
C534 C536 1.403 . S
C535 H514 0.950 . S
C535 C534 1.382 . S
C535 C551 1.411 . S
C536 C534 1.403 . S
C536 C537 1.489 . S
C536 C550 1.411 . S
C537 C536 1.489 . S
C537 C538 1.383 . S
C537 C542 1.382 . S
C538 H515 0.950 . S
C538 C537 1.383 . S
C538 C539 1.395 . S
C539 H516 0.950 . S
C539 C538 1.395 . S
C539 C540 1.288 . S
C540 C539 1.288 . S
C540 C541 1.392 . S
C541 H517 0.951 . S
C541 C540 1.392 . S
C541 C542 1.392 . S
C542 H518 0.949 . S
C542 C537 1.382 . S
C542 C541 1.392 . S
C543 C544 1.376 . S
C543 C548 1.386 . S
C543 C549 1.483 . S
C544 H519 0.949 . S
C544 C543 1.376 . S
C544 C545 1.397 . S
C545 H520 0.950 . S
C545 C544 1.397 . S
C545 C546 1.391 . S
C546 C545 1.391 . S
C546 C547 1.405 . S
C547 H521 0.950 . S
C547 C546 1.405 . S
C547 C548 1.367 . S
C548 H522 0.950 . S
C548 C543 1.386 . S
C548 C547 1.367 . S
C549 C543 1.483 . S
C549 C550 1.382 . S
C549 C551 1.403 . S
C550 H523 0.950 . S
C550 C536 1.411 . S
C550 C549 1.382 . S
C551 C535 1.411 . S
C551 C549 1.403 . S
C551 C552 1.489 . S
C552 C551 1.489 . S
C552 C553 1.383 . S
C552 C557 1.382 . S
C553 H524 0.950 . S
C553 C552 1.383 . S
C553 C554 1.395 . S
C554 H525 0.950 . S
C554 C553 1.395 . S
C554 C555 1.288 . S
C555 C554 1.288 . S
C555 C556 1.392 . S
C556 H526 0.951 . S
C556 C555 1.392 . S
C556 C557 1.392 . S
C557 H527 0.949 . S
C557 C552 1.382 . S
C557 C556 1.392 . S
H558 C577 0.949 . S
H559 C578 0.950 . S
H560 C580 0.950 . S
H561 C581 0.950 . S
H562 C583 0.950 . S
H563 C586 0.950 . S
H564 C587 0.950 . S
H565 C589 0.951 . S
H566 C590 0.949 . S
H567 C592 0.949 . S
H568 C593 0.950 . S
H569 C595 0.950 . S
H570 C596 0.950 . S
H571 C598 0.950 . S
H572 C601 0.950 . S
H573 C602 0.950 . S
H574 C604 0.951 . S
H575 C605 0.949 . S
C576 C577 1.376 . S
C576 C581 1.386 . S
C576 C582 1.483 . S
C577 H558 0.949 . S
C577 C576 1.376 . S
C577 C578 1.397 . S
C578 H559 0.950 . S
C578 C577 1.397 . S
C578 C579 1.391 . S
C579 C578 1.391 . S
C579 C580 1.405 . S
C580 H560 0.950 . S
C580 C579 1.405 . S
C580 C581 1.367 . S
C581 H561 0.950 . S
C581 C576 1.386 . S
C581 C580 1.367 . S
C582 C576 1.483 . S
C582 C583 1.382 . S
C582 C584 1.403 . S
C583 H562 0.950 . S
C583 C582 1.382 . S
C583 C599 1.411 . S
C584 C582 1.403 . S
C584 C585 1.489 . S
C584 C598 1.411 . S
C585 C584 1.489 . S
C585 C586 1.383 . S
C585 C590 1.382 . S
C586 H563 0.950 . S
C586 C585 1.383 . S
C586 C587 1.395 . S
C587 H564 0.950 . S
C587 C586 1.395 . S
C587 C588 1.288 . S
C588 C587 1.288 . S
C588 C589 1.392 . S
C589 H565 0.951 . S
C589 C588 1.392 . S
C589 C590 1.392 . S
C590 H566 0.949 . S
C590 C585 1.382 . S
C590 C589 1.392 . S
C591 C592 1.376 . S
C591 C596 1.386 . S
C591 C597 1.483 . S
C592 H567 0.949 . S
C592 C591 1.376 . S
C592 C593 1.397 . S
C593 H568 0.950 . S
C593 C592 1.397 . S
C593 C594 1.391 . S
C594 C593 1.391 . S
C594 C595 1.405 . S
C595 H569 0.950 . S
C595 C594 1.405 . S
C595 C596 1.367 . S
C596 H570 0.950 . S
C596 C591 1.386 . S
C596 C595 1.367 . S
C597 C591 1.483 . S
C597 C598 1.382 . S
C597 C599 1.403 . S
C598 H571 0.950 . S
C598 C584 1.411 . S
C598 C597 1.382 . S
C599 C583 1.411 . S
C599 C597 1.403 . S
C599 C600 1.489 . S
C600 C599 1.489 . S
C600 C601 1.383 . S
C600 C605 1.382 . S
C601 H572 0.950 . S
C601 C600 1.383 . S
C601 C602 1.395 . S
C602 H573 0.950 . S
C602 C601 1.395 . S
C602 C603 1.288 . S
C603 C602 1.288 . S
C603 C604 1.392 . S
C604 H574 0.951 . S
C604 C603 1.392 . S
C604 C605 1.392 . S
C605 H575 0.949 . S
C605 C600 1.382 . S
C605 C604 1.392 . S
H606 C614 0.950 . S
H607 C619 0.950 . S
H608 C616 0.950 . S
H609 C618 0.950 . S
H610 C620 0.950 . S
H611 C622 0.950 . S
H612 C624 0.950 . S
H613 C625 0.950 . S
C614 H606 0.950 . S
C614 C615 1.386 . S
C614 C616 1.391 . S
C615 C614 1.386 . S
C615 C619 1.393 . S
C616 H608 0.950 . S
C616 C614 1.391 . S
C616 C617 1.400 . S
C617 C616 1.400 . S
C617 C618 1.398 . S
C617 C623 1.491 . S
C618 H609 0.950 . S
C618 C617 1.398 . S
C618 C619 1.391 . S
C619 H607 0.950 . S
C619 C615 1.393 . S
C619 C618 1.391 . S
C620 H610 0.950 . S
C620 C621 1.386 . S
C620 C622 1.391 . S
C621 C620 1.386 . S
C621 C625 1.393 . S
C622 H611 0.950 . S
C622 C620 1.391 . S
C622 C623 1.400 . S
C623 C617 1.491 . S
C623 C622 1.400 . S
C623 C624 1.398 . S
C624 H612 0.950 . S
C624 C623 1.398 . S
C624 C625 1.391 . S
C625 H613 0.950 . S
C625 C621 1.393 . S
C625 C624 1.391 . S
H626 C634 0.950 . S
H627 C639 0.950 . S
H628 C636 0.950 . S
H629 C638 0.950 . S
H630 C640 0.950 . S
H631 C642 0.950 . S
H632 C644 0.950 . S
H633 C645 0.950 . S
C634 H626 0.950 . S
C634 C635 1.386 . S
C634 C636 1.391 . S
C635 C634 1.386 . S
C635 C639 1.393 . S
C636 H628 0.950 . S
C636 C634 1.391 . S
C636 C637 1.400 . S
C637 C636 1.400 . S
C637 C638 1.398 . S
C637 C643 1.491 . S
C638 H629 0.950 . S
C638 C637 1.398 . S
C638 C639 1.391 . S
C639 H627 0.950 . S
C639 C635 1.393 . S
C639 C638 1.391 . S
C640 H630 0.950 . S
C640 C641 1.386 . S
C640 C642 1.391 . S
C641 C640 1.386 . S
C641 C645 1.393 . S
C642 H631 0.950 . S
C642 C640 1.391 . S
C642 C643 1.400 . S
C643 C637 1.491 . S
C643 C642 1.400 . S
C643 C644 1.398 . S
C644 H632 0.950 . S
C644 C643 1.398 . S
C644 C645 1.391 . S
C645 H633 0.950 . S
C645 C641 1.393 . S
C645 C644 1.391 . S
H646 C654 0.950 . S
H647 C659 0.950 . S
H648 C656 0.950 . S
H649 C658 0.950 . S
H650 C660 0.950 . S
H651 C662 0.950 . S
H652 C664 0.950 . S
H653 C665 0.950 . S
C654 H646 0.950 . S
C654 C655 1.386 . S
C654 C656 1.391 . S
C655 C654 1.386 . S
C655 C659 1.393 . S
C656 H648 0.950 . S
C656 C654 1.391 . S
C656 C657 1.400 . S
C657 C656 1.400 . S
C657 C658 1.398 . S
C657 C663 1.491 . S
C658 H649 0.950 . S
C658 C657 1.398 . S
C658 C659 1.391 . S
C659 H647 0.950 . S
C659 C655 1.393 . S
C659 C658 1.391 . S
C660 H650 0.950 . S
C660 C661 1.386 . S
C660 C662 1.391 . S
C661 C660 1.386 . S
C661 C665 1.393 . S
C662 H651 0.950 . S
C662 C660 1.391 . S
C662 C663 1.400 . S
C663 C657 1.491 . S
C663 C662 1.400 . S
C663 C664 1.398 . S
C664 H652 0.950 . S
C664 C663 1.398 . S
C664 C665 1.391 . S
C665 H653 0.950 . S
C665 C661 1.393 . S
C665 C664 1.391 . S
H666 C674 0.950 . S
H667 C679 0.950 . S
H668 C676 0.950 . S
H669 C678 0.950 . S
H670 C680 0.950 . S
H671 C682 0.950 . S
H672 C684 0.950 . S
H673 C685 0.950 . S
C674 H666 0.950 . S
C674 C675 1.386 . S
C674 C676 1.391 . S
C675 C674 1.386 . S
C675 C679 1.393 . S
C676 H668 0.950 . S
C676 C674 1.391 . S
C676 C677 1.400 . S
C677 C676 1.400 . S
C677 C678 1.398 . S
C677 C683 1.491 . S
C678 H669 0.950 . S
C678 C677 1.398 . S
C678 C679 1.391 . S
C679 H667 0.950 . S
C679 C675 1.393 . S
C679 C678 1.391 . S
C680 H670 0.950 . S
C680 C681 1.386 . S
C680 C682 1.391 . S
C681 C680 1.386 . S
C681 C685 1.393 . S
C682 H671 0.950 . S
C682 C680 1.391 . S
C682 C683 1.400 . S
C683 C677 1.491 . S
C683 C682 1.400 . S
C683 C684 1.398 . S
C684 H672 0.950 . S
C684 C683 1.398 . S
C684 C685 1.391 . S
C685 H673 0.950 . S
C685 C681 1.393 . S
C685 C684 1.391 . S
H686 C694 0.950 . S
H687 C699 0.950 . S
H688 C696 0.950 . S
H689 C698 0.950 . S
H690 C700 0.950 . S
H691 C702 0.950 . S
H692 C704 0.950 . S
H693 C705 0.950 . S
C694 H686 0.950 . S
C694 C695 1.386 . S
C694 C696 1.391 . S
C695 C694 1.386 . S
C695 C699 1.393 . S
C696 H688 0.950 . S
C696 C694 1.391 . S
C696 C697 1.400 . S
C697 C696 1.400 . S
C697 C698 1.398 . S
C697 C703 1.491 . S
C698 H689 0.950 . S
C698 C697 1.398 . S
C698 C699 1.391 . S
C699 H687 0.950 . S
C699 C695 1.393 . S
C699 C698 1.391 . S
C700 H690 0.950 . S
C700 C701 1.386 . S
C700 C702 1.391 . S
C701 C700 1.386 . S
C701 C705 1.393 . S
C702 H691 0.950 . S
C702 C700 1.391 . S
C702 C703 1.400 . S
C703 C697 1.491 . S
C703 C702 1.400 . S
C703 C704 1.398 . S
C704 H692 0.950 . S
C704 C703 1.398 . S
C704 C705 1.391 . S
C705 H693 0.950 . S
C705 C701 1.393 . S
C705 C704 1.391 . S
H706 C714 0.950 . S
H707 C719 0.950 . S
H708 C716 0.950 . S
H709 C718 0.950 . S
H710 C720 0.950 . S
H711 C722 0.950 . S
H712 C724 0.950 . S
H713 C725 0.950 . S
C714 H706 0.950 . S
C714 C715 1.386 . S
C714 C716 1.391 . S
C715 C714 1.386 . S
C715 C719 1.393 . S
C716 H708 0.950 . S
C716 C714 1.391 . S
C716 C717 1.400 . S
C717 C716 1.400 . S
C717 C718 1.398 . S
C717 C723 1.491 . S
C718 H709 0.950 . S
C718 C717 1.398 . S
C718 C719 1.391 . S
C719 H707 0.950 . S
C719 C715 1.393 . S
C719 C718 1.391 . S
C720 H710 0.950 . S
C720 C721 1.386 . S
C720 C722 1.391 . S
C721 C720 1.386 . S
C721 C725 1.393 . S
C722 H711 0.950 . S
C722 C720 1.391 . S
C722 C723 1.400 . S
C723 C717 1.491 . S
C723 C722 1.400 . S
C723 C724 1.398 . S
C724 H712 0.950 . S
C724 C723 1.398 . S
C724 C725 1.391 . S
C725 H713 0.950 . S
C725 C721 1.393 . S
C725 C724 1.391 . S
H726 C734 0.950 . S
H727 C739 0.950 . S
H728 C736 0.950 . S
H729 C738 0.950 . S
H730 C740 0.950 . S
H731 C742 0.950 . S
H732 C744 0.950 . S
H733 C745 0.950 . S
C734 H726 0.950 . S
C734 C735 1.386 . S
C734 C736 1.391 . S
C735 C734 1.386 . S
C735 C739 1.393 . S
C736 H728 0.950 . S
C736 C734 1.391 . S
C736 C737 1.400 . S
C737 C736 1.400 . S
C737 C738 1.398 . S
C737 C743 1.491 . S
C738 H729 0.950 . S
C738 C737 1.398 . S
C738 C739 1.391 . S
C739 H727 0.950 . S
C739 C735 1.393 . S
C739 C738 1.391 . S
C740 H730 0.950 . S
C740 C741 1.386 . S
C740 C742 1.391 . S
C741 C740 1.386 . S
C741 C745 1.393 . S
C742 H731 0.950 . S
C742 C740 1.391 . S
C742 C743 1.400 . S
C743 C737 1.491 . S
C743 C742 1.400 . S
C743 C744 1.398 . S
C744 H732 0.950 . S
C744 C743 1.398 . S
C744 C745 1.391 . S
C745 H733 0.950 . S
C745 C741 1.393 . S
C745 C744 1.391 . S
H746 C754 0.950 . S
H747 C759 0.950 . S
H748 C756 0.950 . S
H749 C758 0.950 . S
H750 C760 0.950 . S
H751 C762 0.950 . S
H752 C764 0.950 . S
H753 C765 0.950 . S
C754 H746 0.950 . S
C754 C755 1.386 . S
C754 C756 1.391 . S
C755 C754 1.386 . S
C755 C759 1.393 . S
C756 H748 0.950 . S
C756 C754 1.391 . S
C756 C757 1.400 . S
C757 C756 1.400 . S
C757 C758 1.398 . S
C757 C763 1.491 . S
C758 H749 0.950 . S
C758 C757 1.398 . S
C758 C759 1.391 . S
C759 H747 0.950 . S
C759 C755 1.393 . S
C759 C758 1.391 . S
C760 H750 0.950 . S
C760 C761 1.386 . S
C760 C762 1.391 . S
C761 C760 1.386 . S
C761 C765 1.393 . S
C762 H751 0.950 . S
C762 C760 1.391 . S
C762 C763 1.400 . S
C763 C757 1.491 . S
C763 C762 1.400 . S
C763 C764 1.398 . S
C764 H752 0.950 . S
C764 C763 1.398 . S
C764 C765 1.391 . S
C765 H753 0.950 . S
C765 C761 1.393 . S
C765 C764 1.391 . S
H766 C774 0.950 . S
H767 C779 0.950 . S
H768 C776 0.950 . S
H769 C778 0.950 . S
H770 C780 0.950 . S
H771 C782 0.950 . S
H772 C784 0.950 . S
H773 C785 0.950 . S
C774 H766 0.950 . S
C774 C775 1.386 . S
C774 C776 1.391 . S
C775 C774 1.386 . S
C775 C779 1.393 . S
C776 H768 0.950 . S
C776 C774 1.391 . S
C776 C777 1.400 . S
C777 C776 1.400 . S
C777 C778 1.398 . S
C777 C783 1.491 . S
C778 H769 0.950 . S
C778 C777 1.398 . S
C778 C779 1.391 . S
C779 H767 0.950 . S
C779 C775 1.393 . S
C779 C778 1.391 . S
C780 H770 0.950 . S
C780 C781 1.386 . S
C780 C782 1.391 . S
C781 C780 1.386 . S
C781 C785 1.393 . S
C782 H771 0.950 . S
C782 C780 1.391 . S
C782 C783 1.400 . S
C783 C777 1.491 . S
C783 C782 1.400 . S
C783 C784 1.398 . S
C784 H772 0.950 . S
C784 C783 1.398 . S
C784 C785 1.391 . S
C785 H773 0.950 . S
C785 C781 1.393 . S
C785 C784 1.391 . S
H786 C794 0.950 . S
H787 C799 0.950 . S
H788 C796 0.950 . S
H789 C798 0.950 . S
H790 C800 0.950 . S
H791 C802 0.950 . S
H792 C804 0.950 . S
H793 C805 0.950 . S
C794 H786 0.950 . S
C794 C795 1.386 . S
C794 C796 1.391 . S
C795 C794 1.386 . S
C795 C799 1.393 . S
C796 H788 0.950 . S
C796 C794 1.391 . S
C796 C797 1.400 . S
C797 C796 1.400 . S
C797 C798 1.398 . S
C797 C803 1.491 . S
C798 H789 0.950 . S
C798 C797 1.398 . S
C798 C799 1.391 . S
C799 H787 0.950 . S
C799 C795 1.393 . S
C799 C798 1.391 . S
C800 H790 0.950 . S
C800 C801 1.386 . S
C800 C802 1.391 . S
C801 C800 1.386 . S
C801 C805 1.393 . S
C802 H791 0.950 . S
C802 C800 1.391 . S
C802 C803 1.400 . S
C803 C797 1.491 . S
C803 C802 1.400 . S
C803 C804 1.398 . S
C804 H792 0.950 . S
C804 C803 1.398 . S
C804 C805 1.391 . S
C805 H793 0.950 . S
C805 C801 1.393 . S
C805 C804 1.391 . S
H806 C814 0.950 . S
H807 C819 0.950 . S
H808 C816 0.950 . S
H809 C818 0.950 . S
H810 C820 0.950 . S
H811 C822 0.950 . S
H812 C824 0.950 . S
H813 C825 0.950 . S
C814 H806 0.950 . S
C814 C815 1.386 . S
C814 C816 1.391 . S
C815 C814 1.386 . S
C815 C819 1.393 . S
C816 H808 0.950 . S
C816 C814 1.391 . S
C816 C817 1.400 . S
C817 C816 1.400 . S
C817 C818 1.398 . S
C817 C823 1.491 . S
C818 H809 0.950 . S
C818 C817 1.398 . S
C818 C819 1.391 . S
C819 H807 0.950 . S
C819 C815 1.393 . S
C819 C818 1.391 . S
C820 H810 0.950 . S
C820 C821 1.386 . S
C820 C822 1.391 . S
C821 C820 1.386 . S
C821 C825 1.393 . S
C822 H811 0.950 . S
C822 C820 1.391 . S
C822 C823 1.400 . S
C823 C817 1.491 . S
C823 C822 1.400 . S
C823 C824 1.398 . S
C824 H812 0.950 . S
C824 C823 1.398 . S
C824 C825 1.391 . S
C825 H813 0.950 . S
C825 C821 1.393 . S
C825 C824 1.391 . S
H826 C834 0.950 . S
H827 C839 0.950 . S
H828 C836 0.950 . S
H829 C838 0.950 . S
H830 C840 0.950 . S
H831 C842 0.950 . S
H832 C844 0.950 . S
H833 C845 0.950 . S
C834 H826 0.950 . S
C834 C835 1.386 . S
C834 C836 1.391 . S
C835 C834 1.386 . S
C835 C839 1.393 . S
C836 H828 0.950 . S
C836 C834 1.391 . S
C836 C837 1.400 . S
C837 C836 1.400 . S
C837 C838 1.398 . S
C837 C843 1.491 . S
C838 H829 0.950 . S
C838 C837 1.398 . S
C838 C839 1.391 . S
C839 H827 0.950 . S
C839 C835 1.393 . S
C839 C838 1.391 . S
C840 H830 0.950 . S
C840 C841 1.386 . S
C840 C842 1.391 . S
C841 C840 1.386 . S
C841 C845 1.393 . S
C842 H831 0.950 . S
C842 C840 1.391 . S
C842 C843 1.400 . S
C843 C837 1.491 . S
C843 C842 1.400 . S
C843 C844 1.398 . S
C844 H832 0.950 . S
C844 C843 1.398 . S
C844 C845 1.391 . S
C845 H833 0.950 . S
C845 C841 1.393 . S
C845 C844 1.391 . S
H846 C854 0.950 . S
H847 C859 0.950 . S
H848 C856 0.950 . S
H849 C858 0.950 . S
H850 C860 0.950 . S
H851 C862 0.950 . S
H852 C864 0.950 . S
H853 C865 0.950 . S
C854 H846 0.950 . S
C854 C855 1.386 . S
C854 C856 1.391 . S
C855 C854 1.386 . S
C855 C859 1.393 . S
C856 H848 0.950 . S
C856 C854 1.391 . S
C856 C857 1.400 . S
C857 C856 1.400 . S
C857 C858 1.398 . S
C857 C863 1.491 . S
C858 H849 0.950 . S
C858 C857 1.398 . S
C858 C859 1.391 . S
C859 H847 0.950 . S
C859 C855 1.393 . S
C859 C858 1.391 . S
C860 H850 0.950 . S
C860 C861 1.386 . S
C860 C862 1.391 . S
C861 C860 1.386 . S
C861 C865 1.393 . S
C862 H851 0.950 . S
C862 C860 1.391 . S
C862 C863 1.400 . S
C863 C857 1.491 . S
C863 C862 1.400 . S
C863 C864 1.398 . S
C864 H852 0.950 . S
C864 C863 1.398 . S
C864 C865 1.391 . S
C865 H853 0.950 . S
C865 C861 1.393 . S
C865 C864 1.391 . S
H866 C874 0.950 . S
H867 C879 0.950 . S
H868 C876 0.950 . S
H869 C878 0.950 . S
H870 C880 0.950 . S
H871 C882 0.950 . S
H872 C884 0.950 . S
H873 C885 0.950 . S
C874 H866 0.950 . S
C874 C875 1.386 . S
C874 C876 1.391 . S
C875 C874 1.386 . S
C875 C879 1.393 . S
C876 H868 0.950 . S
C876 C874 1.391 . S
C876 C877 1.400 . S
C877 C876 1.400 . S
C877 C878 1.398 . S
C877 C883 1.491 . S
C878 H869 0.950 . S
C878 C877 1.398 . S
C878 C879 1.391 . S
C879 H867 0.950 . S
C879 C875 1.393 . S
C879 C878 1.391 . S
C880 H870 0.950 . S
C880 C881 1.386 . S
C880 C882 1.391 . S
C881 C880 1.386 . S
C881 C885 1.393 . S
C882 H871 0.950 . S
C882 C880 1.391 . S
C882 C883 1.400 . S
C883 C877 1.491 . S
C883 C882 1.400 . S
C883 C884 1.398 . S
C884 H872 0.950 . S
C884 C883 1.398 . S
C884 C885 1.391 . S
C885 H873 0.950 . S
C885 C881 1.393 . S
C885 C884 1.391 . S
H886 C894 0.950 . S
H887 C899 0.950 . S
H888 C896 0.950 . S
H889 C898 0.950 . S
H890 C900 0.950 . S
H891 C902 0.950 . S
H892 C904 0.950 . S
H893 C905 0.950 . S
C894 H886 0.950 . S
C894 C895 1.386 . S
C894 C896 1.391 . S
C895 C894 1.386 . S
C895 C899 1.393 . S
C896 H888 0.950 . S
C896 C894 1.391 . S
C896 C897 1.400 . S
C897 C896 1.400 . S
C897 C898 1.398 . S
C897 C903 1.491 . S
C898 H889 0.950 . S
C898 C897 1.398 . S
C898 C899 1.391 . S
C899 H887 0.950 . S
C899 C895 1.393 . S
C899 C898 1.391 . S
C900 H890 0.950 . S
C900 C901 1.386 . S
C900 C902 1.391 . S
C901 C900 1.386 . S
C901 C905 1.393 . S
C902 H891 0.950 . S
C902 C900 1.391 . S
C902 C903 1.400 . S
C903 C897 1.491 . S
C903 C902 1.400 . S
C903 C904 1.398 . S
C904 H892 0.950 . S
C904 C903 1.398 . S
C904 C905 1.391 . S
C905 H893 0.950 . S
C905 C901 1.393 . S
C905 C904 1.391 . S
H906 C914 0.950 . S
H907 C919 0.950 . S
H908 C916 0.950 . S
H909 C918 0.950 . S
H910 C920 0.950 . S
H911 C922 0.950 . S
H912 C924 0.950 . S
H913 C925 0.950 . S
C914 H906 0.950 . S
C914 C915 1.386 . S
C914 C916 1.391 . S
C915 C914 1.386 . S
C915 C919 1.393 . S
C916 H908 0.950 . S
C916 C914 1.391 . S
C916 C917 1.400 . S
C917 C916 1.400 . S
C917 C918 1.398 . S
C917 C923 1.491 . S
C918 H909 0.950 . S
C918 C917 1.398 . S
C918 C919 1.391 . S
C919 H907 0.950 . S
C919 C915 1.393 . S
C919 C918 1.391 . S
C920 H910 0.950 . S
C920 C921 1.386 . S
C920 C922 1.391 . S
C921 C920 1.386 . S
C921 C925 1.393 . S
C922 H911 0.950 . S
C922 C920 1.391 . S
C922 C923 1.400 . S
C923 C917 1.491 . S
C923 C922 1.400 . S
C923 C924 1.398 . S
C924 H912 0.950 . S
C924 C923 1.398 . S
C924 C925 1.391 . S
C925 H913 0.950 . S
C925 C921 1.393 . S
C925 C924 1.391 . S
H926 C934 0.950 . S
H927 C939 0.950 . S
H928 C936 0.950 . S
H929 C938 0.950 . S
H930 C940 0.950 . S
H931 C942 0.950 . S
H932 C944 0.950 . S
H933 C945 0.950 . S
C934 H926 0.950 . S
C934 C935 1.386 . S
C934 C936 1.391 . S
C935 C934 1.386 . S
C935 C939 1.393 . S
C936 H928 0.950 . S
C936 C934 1.391 . S
C936 C937 1.400 . S
C937 C936 1.400 . S
C937 C938 1.398 . S
C937 C943 1.491 . S
C938 H929 0.950 . S
C938 C937 1.398 . S
C938 C939 1.391 . S
C939 H927 0.950 . S
C939 C935 1.393 . S
C939 C938 1.391 . S
C940 H930 0.950 . S
C940 C941 1.386 . S
C940 C942 1.391 . S
C941 C940 1.386 . S
C941 C945 1.393 . S
C942 H931 0.950 . S
C942 C940 1.391 . S
C942 C943 1.400 . S
C943 C937 1.491 . S
C943 C942 1.400 . S
C943 C944 1.398 . S
C944 H932 0.950 . S
C944 C943 1.398 . S
C944 C945 1.391 . S
C945 H933 0.950 . S
C945 C941 1.393 . S
C945 C944 1.391 . S
H946 C954 0.950 . S
H947 C959 0.950 . S
H948 C956 0.950 . S
H949 C958 0.950 . S
H950 C960 0.950 . S
H951 C962 0.950 . S
H952 C964 0.950 . S
H953 C965 0.950 . S
C954 H946 0.950 . S
C954 C955 1.386 . S
C954 C956 1.391 . S
C955 C954 1.386 . S
C955 C959 1.393 . S
C956 H948 0.950 . S
C956 C954 1.391 . S
C956 C957 1.400 . S
C957 C956 1.400 . S
C957 C958 1.398 . S
C957 C963 1.491 . S
C958 H949 0.950 . S
C958 C957 1.398 . S
C958 C959 1.391 . S
C959 H947 0.950 . S
C959 C955 1.393 . S
C959 C958 1.391 . S
C960 H950 0.950 . S
C960 C961 1.386 . S
C960 C962 1.391 . S
C961 C960 1.386 . S
C961 C965 1.393 . S
C962 H951 0.950 . S
C962 C960 1.391 . S
C962 C963 1.400 . S
C963 C957 1.491 . S
C963 C962 1.400 . S
C963 C964 1.398 . S
C964 H952 0.950 . S
C964 C963 1.398 . S
C964 C965 1.391 . S
C965 H953 0.950 . S
C965 C961 1.393 . S
C965 C964 1.391 . S
H966 C974 0.950 . S
H967 C979 0.950 . S
H968 C976 0.950 . S
H969 C978 0.950 . S
H970 C980 0.950 . S
H971 C982 0.950 . S
H972 C984 0.950 . S
H973 C985 0.950 . S
C974 H966 0.950 . S
C974 C975 1.386 . S
C974 C976 1.391 . S
C975 C974 1.386 . S
C975 C979 1.393 . S
C976 H968 0.950 . S
C976 C974 1.391 . S
C976 C977 1.400 . S
C977 C976 1.400 . S
C977 C978 1.398 . S
C977 C983 1.491 . S
C978 H969 0.950 . S
C978 C977 1.398 . S
C978 C979 1.391 . S
C979 H967 0.950 . S
C979 C975 1.393 . S
C979 C978 1.391 . S
C980 H970 0.950 . S
C980 C981 1.386 . S
C980 C982 1.391 . S
C981 C980 1.386 . S
C981 C985 1.393 . S
C982 H971 0.950 . S
C982 C980 1.391 . S
C982 C983 1.400 . S
C983 C977 1.491 . S
C983 C982 1.400 . S
C983 C984 1.398 . S
C984 H972 0.950 . S
C984 C983 1.398 . S
C984 C985 1.391 . S
C985 H973 0.950 . S
C985 C981 1.393 . S
C985 C984 1.391 . S
H986 C994 0.950 . S
H987 C999 0.950 . S
H988 C996 0.950 . S
H989 C998 0.950 . S
H990 C1000 0.950 . S
H991 C1002 0.950 . S
H992 C1004 0.950 . S
H993 C1005 0.950 . S
C994 H986 0.950 . S
C994 C995 1.386 . S
C994 C996 1.391 . S
C995 C994 1.386 . S
C995 C999 1.393 . S
C996 H988 0.950 . S
C996 C994 1.391 . S
C996 C997 1.400 . S
C997 C996 1.400 . S
C997 C998 1.398 . S
C997 C1003 1.491 . S
C998 H989 0.950 . S
C998 C997 1.398 . S
C998 C999 1.391 . S
C999 H987 0.950 . S
C999 C995 1.393 . S
C999 C998 1.391 . S
C1000 H990 0.950 . S
C1000 C1001 1.386 . S
C1000 C1002 1.391 . S
C1001 C1000 1.386 . S
C1001 C1005 1.393 . S
C1002 H991 0.950 . S
C1002 C1000 1.391 . S
C1002 C1003 1.400 . S
C1003 C997 1.491 . S
C1003 C1002 1.400 . S
C1003 C1004 1.398 . S
C1004 H992 0.950 . S
C1004 C1003 1.398 . S
C1004 C1005 1.391 . S
C1005 H993 0.950 . S
C1005 C1001 1.393 . S
C1005 C1004 1.391 . S
H1006 C1014 0.950 . S
H1007 C1019 0.950 . S
H1008 C1016 0.950 . S
H1009 C1018 0.950 . S
H1010 C1020 0.950 . S
H1011 C1022 0.950 . S
H1012 C1024 0.950 . S
H1013 C1025 0.950 . S
C1014 H1006 0.950 . S
C1014 C1015 1.386 . S
C1014 C1016 1.391 . S
C1015 C1014 1.386 . S
C1015 C1019 1.393 . S
C1016 H1008 0.950 . S
C1016 C1014 1.391 . S
C1016 C1017 1.400 . S
C1017 C1016 1.400 . S
C1017 C1018 1.398 . S
C1017 C1023 1.491 . S
C1018 H1009 0.950 . S
C1018 C1017 1.398 . S
C1018 C1019 1.391 . S
C1019 H1007 0.950 . S
C1019 C1015 1.393 . S
C1019 C1018 1.391 . S
C1020 H1010 0.950 . S
C1020 C1021 1.386 . S
C1020 C1022 1.391 . S
C1021 C1020 1.386 . S
C1021 C1025 1.393 . S
C1022 H1011 0.950 . S
C1022 C1020 1.391 . S
C1022 C1023 1.400 . S
C1023 C1017 1.491 . S
C1023 C1022 1.400 . S
C1023 C1024 1.398 . S
C1024 H1012 0.950 . S
C1024 C1023 1.398 . S
C1024 C1025 1.391 . S
C1025 H1013 0.950 . S
C1025 C1021 1.393 . S
C1025 C1024 1.391 . S
H1026 C1034 0.950 . S
H1027 C1039 0.950 . S
H1028 C1036 0.950 . S
H1029 C1038 0.950 . S
H1030 C1040 0.950 . S
H1031 C1042 0.950 . S
H1032 C1044 0.950 . S
H1033 C1045 0.950 . S
C1034 H1026 0.950 . S
C1034 C1035 1.386 . S
C1034 C1036 1.391 . S
C1035 C1034 1.386 . S
C1035 C1039 1.393 . S
C1036 H1028 0.950 . S
C1036 C1034 1.391 . S
C1036 C1037 1.400 . S
C1037 C1036 1.400 . S
C1037 C1038 1.398 . S
C1037 C1043 1.491 . S
C1038 H1029 0.950 . S
C1038 C1037 1.398 . S
C1038 C1039 1.391 . S
C1039 H1027 0.950 . S
C1039 C1035 1.393 . S
C1039 C1038 1.391 . S
C1040 H1030 0.950 . S
C1040 C1041 1.386 . S
C1040 C1042 1.391 . S
C1041 C1040 1.386 . S
C1041 C1045 1.393 . S
C1042 H1031 0.950 . S
C1042 C1040 1.391 . S
C1042 C1043 1.400 . S
C1043 C1037 1.491 . S
C1043 C1042 1.400 . S
C1043 C1044 1.398 . S
C1044 H1032 0.950 . S
C1044 C1043 1.398 . S
C1044 C1045 1.391 . S
C1045 H1033 0.950 . S
C1045 C1041 1.393 . S
C1045 C1044 1.391 . S
H1046 C1054 0.950 . S
H1047 C1059 0.950 . S
H1048 C1056 0.950 . S
H1049 C1058 0.950 . S
H1050 C1060 0.950 . S
H1051 C1062 0.950 . S
H1052 C1064 0.950 . S
H1053 C1065 0.950 . S
C1054 H1046 0.950 . S
C1054 C1055 1.386 . S
C1054 C1056 1.391 . S
C1055 C1054 1.386 . S
C1055 C1059 1.393 . S
C1056 H1048 0.950 . S
C1056 C1054 1.391 . S
C1056 C1057 1.400 . S
C1057 C1056 1.400 . S
C1057 C1058 1.398 . S
C1057 C1063 1.491 . S
C1058 H1049 0.950 . S
C1058 C1057 1.398 . S
C1058 C1059 1.391 . S
C1059 H1047 0.950 . S
C1059 C1055 1.393 . S
C1059 C1058 1.391 . S
C1060 H1050 0.950 . S
C1060 C1061 1.386 . S
C1060 C1062 1.391 . S
C1061 C1060 1.386 . S
C1061 C1065 1.393 . S
C1062 H1051 0.950 . S
C1062 C1060 1.391 . S
C1062 C1063 1.400 . S
C1063 C1057 1.491 . S
C1063 C1062 1.400 . S
C1063 C1064 1.398 . S
C1064 H1052 0.950 . S
C1064 C1063 1.398 . S
C1064 C1065 1.391 . S
C1065 H1053 0.950 . S
C1065 C1061 1.393 . S
C1065 C1064 1.391 . S
H1066 C1074 0.950 . S
H1067 C1079 0.950 . S
H1068 C1076 0.950 . S
H1069 C1078 0.950 . S
H1070 C1080 0.950 . S
H1071 C1082 0.950 . S
H1072 C1084 0.950 . S
H1073 C1085 0.950 . S
C1074 H1066 0.950 . S
C1074 C1075 1.386 . S
C1074 C1076 1.391 . S
C1075 C1074 1.386 . S
C1075 C1079 1.393 . S
C1076 H1068 0.950 . S
C1076 C1074 1.391 . S
C1076 C1077 1.400 . S
C1077 C1076 1.400 . S
C1077 C1078 1.398 . S
C1077 C1083 1.491 . S
C1078 H1069 0.950 . S
C1078 C1077 1.398 . S
C1078 C1079 1.391 . S
C1079 H1067 0.950 . S
C1079 C1075 1.393 . S
C1079 C1078 1.391 . S
C1080 H1070 0.950 . S
C1080 C1081 1.386 . S
C1080 C1082 1.391 . S
C1081 C1080 1.386 . S
C1081 C1085 1.393 . S
C1082 H1071 0.950 . S
C1082 C1080 1.391 . S
C1082 C1083 1.400 . S
C1083 C1077 1.491 . S
C1083 C1082 1.400 . S
C1083 C1084 1.398 . S
C1084 H1072 0.950 . S
C1084 C1083 1.398 . S
C1084 C1085 1.391 . S
C1085 H1073 0.950 . S
C1085 C1081 1.393 . S
C1085 C1084 1.391 . S
C615 C39 1.765 . S
C621 C339 1.746 . S
C635 C91 1.720 . S
C641 C396 1.721 . S
C661 C450 1.563 . S
C655 C128 1.595 . S
C681 C507 1.508 . S
C675 C188 1.545 . S
C701 C531 1.635 . S
C695 C250 1.644 . S
C721 C588 1.727 . S
C715 C304 1.731 . S
C735 C75 1.661 . S
C741 C435 1.644 . S
C755 C144 1.750 . S
C761 C492 1.749 . S
C781 C546 1.667 . S
C775 C198 1.699 . S
C801 C603 1.525 . S
C795 C234 1.569 . S
C815 C294 1.535 . S
C821 C354 1.509 . S
C841 C411 1.534 . S
C835 C29 1.565 . S
C861 C498 1.747 . S
C855 C38 1.766 . S
C875 C92 1.721 . S
C881 C540 1.679 . S
C901 C579 1.570 . S
C895 C135 1.599 . S
C915 C181 1.547 . S
C921 C348 1.512 . S
C935 C251 1.649 . S
C941 C387 1.630 . S
C955 C303 1.736 . S
C961 C459 1.733 . S
C975 C82 1.655 . S
C981 C594 1.633 . S
C1001 C363 1.749 . S
C995 C145 1.750 . S
C1015 C197 1.700 . S
C1021 C402 1.687 . S
C1035 C241 1.563 . S
C1041 C444 1.507 . S
C1055 C287 1.537 . S
C1061 C483 1.518 . S
C1075 C22 1.562 . S
C1081 C555 1.562 . S
