# Generated by pormake.
# Topology pyr, (3,6)-cn, num edge types: 1
# Building blocks:
#     Node 0, Type 0, BuildingBlock: BELTOD_clean_linker_0, # of connection points: 3
#     Node 1, Type 0, BuildingBlock: BELTOD_clean_linker_0, # of connection points: 3
#     Node 2, Type 0, BuildingBlock: BELTOD_clean_linker_0, # of connection points: 3
#     Node 3, Type 0, BuildingBlock: BELTOD_clean_linker_0, # of connection points: 3
#     Node 4, Type 0, BuildingBlock: BELTOD_clean_linker_0, # of connection points: 3
#     Node 5, Type 0, BuildingBlock: BELTOD_clean_linker_0, # of connection points: 3
#     Node 6, Type 0, BuildingBlock: BELTOD_clean_linker_0, # of connection points: 3
#     Node 7, Type 0, BuildingBlock: BELTOD_clean_linker_0, # of connection points: 3
#     Node 8, Type 1, BuildingBlock: BETDAH_clean_sbu_0, # of connection points: 6
#     Node 9, Type 1, BuildingBlock: BETDAH_clean_sbu_0, # of connection points: 6
#     Node 10, Type 1, BuildingBlock: BETDAH_clean_sbu_0, # of connection points: 6
#     Node 11, Type 1, BuildingBlock: BETDAH_clean_sbu_0, # of connection points: 6
#     Edge 12, Type (0, 1), BuildingBlock: OJICUG_clean_linker_0, # of connection points: 2
#     Edge 13, Type (0, 1), BuildingBlock: OJICUG_clean_linker_0, # of connection points: 2
#     Edge 14, Type (0, 1), BuildingBlock: OJICUG_clean_linker_0, # of connection points: 2
#     Edge 15, Type (0, 1), BuildingBlock: OJICUG_clean_linker_0, # of connection points: 2
#     Edge 16, Type (0, 1), BuildingBlock: OJICUG_clean_linker_0, # of connection points: 2
#     Edge 17, Type (0, 1), BuildingBlock: OJICUG_clean_linker_0, # of connection points: 2
#     Edge 18, Type (0, 1), BuildingBlock: OJICUG_clean_linker_0, # of connection points: 2
#     Edge 19, Type (0, 1), BuildingBlock: OJICUG_clean_linker_0, # of connection points: 2
#     Edge 20, Type (0, 1), BuildingBlock: OJICUG_clean_linker_0, # of connection points: 2
#     Edge 21, Type (0, 1), BuildingBlock: OJICUG_clean_linker_0, # of connection points: 2
#     Edge 22, Type (0, 1), BuildingBlock: OJICUG_clean_linker_0, # of connection points: 2
#     Edge 23, Type (0, 1), BuildingBlock: OJICUG_clean_linker_0, # of connection points: 2
#     Edge 24, Type (0, 1), BuildingBlock: OJICUG_clean_linker_0, # of connection points: 2
#     Edge 25, Type (0, 1), BuildingBlock: OJICUG_clean_linker_0, # of connection points: 2
#     Edge 26, Type (0, 1), BuildingBlock: OJICUG_clean_linker_0, # of connection points: 2
#     Edge 27, Type (0, 1), BuildingBlock: OJICUG_clean_linker_0, # of connection points: 2
#     Edge 28, Type (0, 1), BuildingBlock: OJICUG_clean_linker_0, # of connection points: 2
#     Edge 29, Type (0, 1), BuildingBlock: OJICUG_clean_linker_0, # of connection points: 2
#     Edge 30, Type (0, 1), BuildingBlock: OJICUG_clean_linker_0, # of connection points: 2
#     Edge 31, Type (0, 1), BuildingBlock: OJICUG_clean_linker_0, # of connection points: 2
#     Edge 32, Type (0, 1), BuildingBlock: OJICUG_clean_linker_0, # of connection points: 2
#     Edge 33, Type (0, 1), BuildingBlock: OJICUG_clean_linker_0, # of connection points: 2
#     Edge 34, Type (0, 1), BuildingBlock: OJICUG_clean_linker_0, # of connection points: 2
#     Edge 35, Type (0, 1), BuildingBlock: OJICUG_clean_linker_0, # of connection points: 2
# Relax obj value: 0.155
# Max RMSD: 0.138
# Mean RMSD: 0.067
data_MOF--net-pyr--node1-BETDAH_clean_sbu_0--node2-BELTOD_clean_linker_0--edge1-OJICUG_clean_linker_0
_symmetry_space_group_name_H-M    P1
_symmetry_Int_Tables_number       1
_symmetry_cell_setting            triclinic
loop_
_symmetry_equiv_pos_as_xyz
'x, y, z'
_cell_length_a     32.831754
_cell_length_b     35.687922
_cell_length_c     31.705851
_cell_angle_alpha  90.973999
_cell_angle_beta   88.567283
_cell_angle_gamma 103.34053
loop_
_atom_site_label
_atom_site_type_symbol
_atom_site_fract_x
_atom_site_fract_y
_atom_site_fract_z
_atom_type_partial_charge
P0 P 0.39398 0.33123 0.24103 0.0
H1 H 0.47065 0.31776 0.20101 0.0
H2 H 0.49223 0.25896 0.17912 0.0
H3 H 0.37357 0.19074 0.22526 0.0
H4 H 0.35176 0.24912 0.24506 0.0
H5 H 0.37934 0.40763 0.23257 0.0
H6 H 0.32928 0.42903 0.18923 0.0
H7 H 0.31801 0.32699 0.11087 0.0
H8 H 0.36733 0.30523 0.15538 0.0
H9 H 0.38601 0.31363 0.3314 0.0
H10 H 0.30346 0.31742 0.22849 0.0
O11 O 0.43325 0.36145 0.26502 0.0
H12 H 0.32499 0.28652 0.37679 0.0
H13 H 0.2437 0.2903 0.27251 0.0
C14 C 0.40993 0.28794 0.22523 0.0
C15 C 0.44941 0.29008 0.20638 0.0
C16 C 0.46177 0.2564 0.19421 0.0
C17 C 0.43475 0.21998 0.20069 0.0
C18 C 0.39507 0.21817 0.21936 0.0
C19 C 0.38268 0.25177 0.23114 0.0
C20 C 0.37697 0.35483 0.19737 0.0
C21 C 0.36778 0.39083 0.20478 0.0
C22 C 0.33888 0.40298 0.17991 0.0
C23 C 0.31875 0.37923 0.14715 0.0
C24 C 0.33222 0.34551 0.1365 0.0
C25 C 0.36098 0.33328 0.1616 0.0
C26 C 0.34952 0.31843 0.27677 0.0
C27 C 0.35489 0.30961 0.31888 0.0
C28 C 0.32004 0.29383 0.34461 0.0
C29 C 0.27936 0.28645 0.32838 0.0
C30 C 0.27431 0.29646 0.28653 0.0
C31 C 0.3089 0.31205 0.26104 0.0
P32 P 0.36756 0.97822 0.56845 0.0
H33 H 0.43859 1.00974 0.62225 0.0
H34 H 0.44333 1.02383 0.69809 0.0
H35 H 0.3082 0.9937 0.7093 0.0
H36 H 0.30377 0.98121 0.63435 0.0
H37 H 0.42055 0.93869 0.51682 0.0
H38 H 0.43894 0.87656 0.52461 0.0
H39 H 0.35009 0.84987 0.6289 0.0
H40 H 0.3331 0.9123 0.6219 0.0
H41 H 0.33843 1.04049 0.53138 0.0
H42 H 0.28532 0.92298 0.56705 0.0
O43 O 0.40509 1.00652 0.53943 0.0
H44 H 0.26847 0.05155 0.52519 0.0
H45 H 0.21525 0.93447 0.56382 0.0
C46 C 0.37093 0.99507 0.62234 0.0
C47 C 0.41007 1.00722 0.64098 0.0
C48 C 0.41269 1.01483 0.68437 0.0
C49 C 0.3761 1.00985 0.70983 0.0
C50 C 0.337 0.99862 0.69067 0.0
C51 C 0.33446 0.99129 0.64745 0.0
C52 C 0.37564 0.93015 0.56891 0.0
C53 C 0.40469 0.91923 0.54099 0.0
C54 C 0.41505 0.88364 0.54539 0.0
C55 C 0.39635 0.85849 0.57774 0.0
C56 C 0.36573 0.86891 0.60425 0.0
C57 C 0.35566 0.90448 0.6 0.0
C58 C 0.31719 0.98098 0.54965 0.0
C59 C 0.31168 1.01675 0.53687 0.0
C60 C 0.27158 1.02323 0.53423 0.0
C61 C 0.23619 0.99429 0.54547 0.0
C62 C 0.24171 0.95748 0.55508 0.0
C63 C 0.28195 0.95083 0.55689 0.0
P64 P 0.66921 0.34071 0.85845 0.0
H65 H 0.75511 0.33305 0.86927 0.0
H66 H 0.81388 0.36797 0.91004 0.0
H67 H 0.73849 0.44398 0.95881 0.0
H68 H 0.67914 0.40853 0.91722 0.0
H69 H 0.60819 0.26867 0.83705 0.0
H70 H 0.57646 0.21106 0.87622 0.0
H71 H 0.63698 0.26351 0.98914 0.0
H72 H 0.6659 0.32229 0.95015 0.0
H73 H 0.6857 0.42409 0.83766 0.0
H74 H 0.59255 0.32145 0.80735 0.0
O75 O 0.69162 0.31877 0.82059 0.0
H76 H 0.65611 0.45998 0.78612 0.0
H77 H 0.56392 0.35692 0.75472 0.0
C78 C 0.71271 0.36863 0.88901 0.0
C79 C 0.75103 0.35742 0.88832 0.0
C80 C 0.78477 0.37731 0.91219 0.0
C81 C 0.78132 0.40902 0.93792 0.0
C82 C 0.74267 0.42009 0.93898 0.0
C83 C 0.70861 0.39982 0.91518 0.0
C84 C 0.63885 0.30087 0.89034 0.0
C85 C 0.61336 0.26862 0.87059 0.0
C86 C 0.59599 0.23484 0.89315 0.0
C87 C 0.60438 0.23148 0.93628 0.0
C88 C 0.62907 0.26437 0.95631 0.0
C89 C 0.64589 0.29844 0.93376 0.0
C90 C 0.64076 0.36986 0.82827 0.0
C91 C 0.65806 0.40929 0.82118 0.0
C92 C 0.64131 0.42991 0.79104 0.0
C93 C 0.60758 0.41151 0.7658 0.0
C94 C 0.59002 0.37219 0.77319 0.0
C95 C 0.60621 0.35183 0.80397 0.0
P96 P 0.83196 0.69918 0.35213 0.0
H97 H 0.84937 0.77961 0.32371 0.0
H98 H 0.88171 0.84126 0.35632 0.0
H99 H 0.91568 0.78177 0.46264 0.0
H100 H 0.88265 0.71974 0.42965 0.0
H101 H 0.87698 0.7171 0.27147 0.0
H102 H 0.90931 0.67993 0.22071 0.0
H103 H 0.88784 0.58533 0.30781 0.0
H104 H 0.85523 0.62286 0.35841 0.0
H105 H 0.80097 0.71622 0.43742 0.0
H106 H 0.77783 0.62053 0.34976 0.0
O107 O 0.79962 0.71211 0.31837 0.0
H108 H 0.74438 0.6824 0.48315 0.0
H109 H 0.72111 0.58604 0.39589 0.0
C110 C 0.86261 0.74458 0.37439 0.0
C111 C 0.86401 0.77955 0.35391 0.0
C112 C 0.88287 0.81515 0.37266 0.0
C113 C 0.90112 0.81709 0.41265 0.0
C114 C 0.90132 0.78183 0.43229 0.0
C115 C 0.88269 0.74611 0.41324 0.0
C116 C 0.86306 0.67296 0.31894 0.0
C117 C 0.87974 0.68855 0.28004 0.0
C118 C 0.8984 0.66708 0.25081 0.0
C119 C 0.90108 0.62905 0.25939 0.0
C120 C 0.88575 0.61405 0.29925 0.0
C121 C 0.86722 0.63572 0.32861 0.0
C122 C 0.79578 0.67044 0.39071 0.0
C123 C 0.78506 0.68725 0.4286 0.0
C124 C 0.75205 0.66777 0.45489 0.0
C125 C 0.72787 0.63104 0.4438 0.0
C126 C 0.73866 0.61421 0.40578 0.0
C127 C 0.77185 0.63373 0.37956 0.0
P128 P 0.68452 0.8215 0.8407 0.0
H129 H 0.66052 0.80957 0.9297 0.0
H130 H 0.61559 0.84032 0.97335 0.0
H131 H 0.56575 0.87891 0.86151 0.0
H132 H 0.60981 0.84661 0.8177 0.0
H133 H 0.77453 0.83836 0.85155 0.0
H134 H 0.82132 0.80235 0.88058 0.0
H135 H 0.71518 0.70997 0.913 0.0
H136 H 0.66804 0.74733 0.88505 0.0
H137 H 0.67011 0.85696 0.7622 0.0
H138 H 0.68257 0.74516 0.80144 0.0
O139 O 0.712 0.86693 0.83637 0.0
H140 H 0.69846 0.84596 0.69312 0.0
H141 H 0.71174 0.73416 0.73229 0.0
C142 C 0.63839 0.82545 0.87029 0.0
C143 C 0.63827 0.82259 0.91431 0.0
C144 C 0.61294 0.84077 0.93937 0.0
C145 C 0.58805 0.86291 0.92082 0.0
C146 C 0.58462 0.86208 0.87672 0.0
C147 C 0.60973 0.84345 0.8516 0.0
C148 C 0.71771 0.79589 0.86696 0.0
C149 C 0.7611 0.81072 0.86562 0.0
C150 C 0.78798 0.78974 0.88169 0.0
C151 C 0.77211 0.75304 0.89877 0.0
C152 C 0.72844 0.73832 0.90048 0.0
C153 C 0.70145 0.7596 0.8846 0.0
C154 C 0.67663 0.80292 0.78768 0.0
C155 C 0.67668 0.82909 0.7553 0.0
C156 C 0.69289 0.82259 0.71544 0.0
C157 C 0.70944 0.78996 0.70802 0.0
C158 C 0.70054 0.76015 0.73765 0.0
C159 C 0.68406 0.76662 0.77746 0.0
P160 P 0.89678 0.30029 0.40036 0.0
H161 H 0.87948 0.37605 0.39253 0.0
H162 H 0.82245 0.40298 0.42114 0.0
H163 H 0.78425 0.30511 0.50323 0.0
H164 H 0.84067 0.27812 0.47411 0.0
H165 H 0.84806 0.22041 0.39878 0.0
H166 H 0.85304 0.16342 0.43744 0.0
H167 H 0.96143 0.22952 0.50152 0.0
H168 H 0.95585 0.28697 0.46285 0.0
H169 H 0.92741 0.28085 0.31705 0.0
H170 H 0.80899 0.28571 0.37632 0.0
O171 O 0.94368 0.3294 0.39127 0.0
H172 H 0.89077 0.25218 0.25367 0.0
H173 H 0.77257 0.25664 0.31447 0.0
C174 C 0.86452 0.32525 0.43127 0.0
C175 C 0.85973 0.36111 0.41776 0.0
C176 C 0.82707 0.37643 0.43412 0.0
C177 C 0.79857 0.3559 0.4641 0.0
C178 C 0.80535 0.32128 0.47972 0.0
C179 C 0.83795 0.306 0.4633 0.0
C180 C 0.90233 0.25774 0.42711 0.0
C181 C 0.87326 0.22269 0.42069 0.0
C182 C 0.87605 0.19004 0.44294 0.0
C183 C 0.90773 0.19187 0.47239 0.0
C184 C 0.93645 0.22725 0.47928 0.0
C185 C 0.93363 0.25997 0.45688 0.0
C186 C 0.87111 0.28607 0.35115 0.0
C187 C 0.89371 0.2766 0.31608 0.0
C188 C 0.87268 0.25996 0.28004 0.0
C189 C 0.82866 0.25217 0.27883 0.0
C190 C 0.80646 0.26301 0.31367 0.0
C191 C 0.82742 0.27964 0.34941 0.0
P192 P 0.37851 0.69111 0.23174 0.0
H193 H 0.34482 0.61724 0.18924 0.0
H194 H 0.27855 0.58877 0.15626 0.0
H195 H 0.23078 0.68723 0.19587 0.0
H196 H 0.29836 0.71622 0.22775 0.0
H197 H 0.40559 0.73 0.15289 0.0
H198 H 0.4277 0.79673 0.13164 0.0
H199 H 0.40372 0.83337 0.25863 0.0
H200 H 0.3828 0.76546 0.28003 0.0
H201 H 0.33683 0.62334 0.28098 0.0
H202 H 0.43837 0.72232 0.29957 0.0
O203 O 0.41228 0.6718 0.20354 0.0
H204 H 0.35595 0.59414 0.34434 0.0
H205 H 0.45758 0.69327 0.36368 0.0
C206 C 0.32702 0.66917 0.21078 0.0
C207 C 0.32017 0.63283 0.19094 0.0
C208 C 0.2818 0.61632 0.17222 0.0
C209 C 0.24869 0.63546 0.17301 0.0
C210 C 0.25545 0.67169 0.19377 0.0
C211 C 0.29409 0.68827 0.21246 0.0
C212 C 0.39318 0.7423 0.21833 0.0
C213 C 0.40518 0.75228 0.17641 0.0
C214 C 0.41746 0.79089 0.16407 0.0
C215 C 0.41764 0.82129 0.19309 0.0
C216 C 0.40475 0.81118 0.23521 0.0
C217 C 0.39252 0.77218 0.24762 0.0
C218 C 0.38516 0.67587 0.28563 0.0
C219 C 0.36247 0.63956 0.29935 0.0
C220 C 0.37391 0.62246 0.33556 0.0
C221 C 0.40862 0.641 0.35944 0.0
C222 C 0.43042 0.6781 0.34662 0.0
C223 C 0.41919 0.69501 0.30994 0.0
P224 P 0.16961 0.35476 0.7681 0.0
H225 H 0.18954 0.28061 0.75073 0.0
H226 H 0.1573 0.22343 0.71034 0.0
H227 H 0.05885 0.27776 0.67469 0.0
H228 H 0.0919 0.33574 0.71585 0.0
H229 H 0.25866 0.38675 0.78479 0.0
H230 H 0.31795 0.4195 0.74169 0.0
H231 H 0.2352 0.42119 0.63814 0.0
H232 H 0.17595 0.38646 0.68145 0.0
H233 H 0.09557 0.33431 0.82506 0.0
H234 H 0.17732 0.43867 0.77976 0.0
O235 O 0.19243 0.33637 0.80667 0.0
H236 H 0.0636 0.37181 0.87637 0.0
H237 H 0.1461 0.47624 0.83089 0.0
C238 C 0.1428 0.3125 0.73751 0.0
C239 C 0.1607 0.28033 0.73476 0.0
C240 C 0.14203 0.24728 0.7115 0.0
C241 C 0.10486 0.2452 0.68942 0.0
C242 C 0.08738 0.27798 0.69119 0.0
C243 C 0.10612 0.31121 0.71498 0.0
C244 C 0.21257 0.38348 0.7364 0.0
C245 C 0.25303 0.39413 0.75284 0.0
C246 C 0.28723 0.41341 0.72799 0.0
C247 C 0.28213 0.42324 0.68586 0.0
C248 C 0.24106 0.41364 0.66997 0.0
C249 C 0.20681 0.39399 0.69489 0.0
C250 C 0.13821 0.38343 0.79725 0.0
C251 C 0.1059 0.36541 0.82522 0.0
C252 C 0.08808 0.38699 0.85526 0.0
C253 C 0.10205 0.42743 0.85843 0.0
C254 C 0.13372 0.44539 0.82948 0.0
C255 C 0.15165 0.42377 0.79971 0.0
Ho256 Ho 1.01582 0.05675 0.50392 0.0
Ho257 Ho 0.98818 1.01564 0.58435 0.0
C258 C 0.03512 0.10333 0.5924 0.0
C259 C 0.0292 0.09428 0.43435 0.0
C260 C 0.06278 0.12755 0.4229 0.0
C261 C 0.06602 0.14247 0.3821 0.0
C262 C 0.10014 0.17224 0.37071 0.0
C263 C 0.1316 0.18698 0.3999 0.0
C264 C 0.12758 0.17261 0.44106 0.0
C265 C 0.09323 0.14337 0.45256 0.0
C266 C 0.07891 1.0384 0.54612 0.0
C267 C 0.96579 0.96672 0.49745 0.0
C268 C 0.96629 0.96446 0.64176 0.0
C269 C 0.93068 0.93057 0.64105 0.0
C270 C 0.9366 0.89359 0.64849 0.0
C271 C 0.90267 0.86154 0.64714 0.0
C272 C 0.8621 0.866 0.63865 0.0
C273 C 0.8569 0.90303 0.6295 0.0
C274 C 0.89072 0.93477 0.63036 0.0
C275 C 0.93651 0.05815 0.55481 0.0
O276 O 0.02334 0.10545 0.55284 0.0
O277 O 0.032 0.0692 0.60986 0.0
O278 O 0.04162 0.06251 0.44044 0.0
O279 O 1.00299 0.10085 0.46382 0.0
O280 O 0.08162 0.07028 0.52652 0.0
O281 O 0.04285 1.01719 0.54172 0.0
O282 O 0.9586 0.96881 0.53852 0.0
O283 O 0.98783 0.99698 0.47663 0.0
O284 O 0.95664 0.99797 0.64379 0.0
O285 O 0.99657 0.96381 0.61445 0.0
O286 O 0.94499 0.05636 0.59428 0.0
O287 O 0.95482 1.03653 0.53396 0.0
H288 H 0.04274 0.13058 0.35888 0.0
H289 H 0.10278 0.18273 0.33866 0.0
H290 H 0.15124 0.18373 0.46417 0.0
H291 H 0.09088 0.13259 0.48441 0.0
H292 H 0.96737 0.88954 0.65569 0.0
H293 H 0.90807 0.83343 0.65372 0.0
H294 H 0.82628 0.90809 0.62362 0.0
H295 H 0.88523 0.96278 0.62334 0.0
Ho296 Ho 0.54763 1.03779 0.10159 0.0
Ho297 Ho 0.47248 1.02916 0.05661 0.0
C298 C 0.48615 0.08538 0.13568 0.0
C299 C 0.62435 0.05033 0.12595 0.0
C300 C 0.65767 0.08248 0.14035 0.0
C301 C 0.65989 0.1205 0.12801 0.0
C302 C 0.69136 0.1506 0.14355 0.0
C303 C 0.72084 0.14312 0.17186 0.0
C304 C 0.71851 0.10479 0.18356 0.0
C305 C 0.68732 0.07483 0.16785 0.0
C306 C 0.48579 0.9794 0.13425 0.0
C307 C 0.53313 0.98024 1.02003 0.0
C308 C 0.39929 1.02159 1.02496 0.0
C309 C 0.38632 1.01592 0.98067 0.0
C310 C 0.39184 0.98356 0.95731 0.0
C311 C 0.38728 0.98209 0.91365 0.0
C312 C 0.37759 1.01307 0.89237 0.0
C313 C 0.36972 0.0444 0.91609 0.0
C314 C 0.37385 0.04569 0.95985 0.0
C315 C 0.53596 0.08428 1.02188 0.0
O316 O 0.52625 0.08833 0.12803 0.0
O317 O 0.45872 0.05689 0.11818 0.0
O318 O 0.59198 1.04019 0.15145 0.0
O319 O 0.61389 0.05054 0.08648 0.0
O320 O 0.51204 1.00426 0.15627 0.0
O321 O 0.49373 0.98679 0.09568 0.0
O322 O 0.49415 0.98359 1.01955 0.0
O323 O 0.56003 1.00104 0.04635 0.0
O324 O 0.42412 0.0549 1.03324 0.0
O325 O 0.41138 0.99331 1.0427 0.0
O326 O 0.51087 0.05748 1.00101 0.0
O327 O 0.52719 0.07975 0.06088 0.0
H328 H 0.63711 0.12692 0.10679 0.0
H329 H 0.69239 0.17971 0.13368 0.0
H330 H 0.73994 0.09794 0.20603 0.0
H331 H 0.68588 0.04565 0.17784 0.0
H332 H 0.40139 0.96005 0.97236 0.0
H333 H 0.39246 0.95706 0.89645 0.0
H334 H 0.36237 0.06883 0.90074 0.0
H335 H 0.3695 0.07097 0.97716 0.0
Ho336 Ho 0.50488 0.49403 0.53736 0.0
Ho337 Ho 0.50654 0.55921 0.59353 0.0
C338 C 0.54364 0.49319 0.63126 0.0
C339 C 0.52763 0.44142 0.49181 0.0
C340 C 0.56695 0.42783 0.48935 0.0
C341 C 0.6017 0.44835 0.46593 0.0
C342 C 0.63946 0.43677 0.46528 0.0
C343 C 0.64341 0.40432 0.48784 0.0
C344 C 0.60855 0.38345 0.51081 0.0
C345 C 0.57068 0.39505 0.5115 0.0
C346 C 0.43123 0.48751 0.58107 0.0
C347 C 0.46901 0.5615 0.49831 0.0
C348 C 0.48683 0.61393 0.63804 0.0
C349 C 0.47427 0.64969 0.62808 0.0
C350 C 0.44642 0.65075 0.59542 0.0
C351 C 0.4348 0.68492 0.58637 0.0
C352 C 0.45087 0.71868 0.60975 0.0
C353 C 0.47917 0.71758 0.64208 0.0
C354 C 0.4907 0.68335 0.65116 0.0
C355 C 0.58008 0.56481 0.54926 0.0
O356 O 0.54582 0.48269 0.59106 0.0
O357 O 0.52454 0.52081 0.64177 0.0
O358 O 0.50495 0.43387 0.52642 0.0
O359 O 0.53014 0.47642 0.47887 0.0
O360 O 0.4345 0.47681 0.54207 0.0
O361 O 0.46758 0.49981 0.59551 0.0
O362 O 0.47551 0.57788 0.53616 0.0
O363 O 0.47884 0.52823 0.49013 0.0
O364 O 0.52546 0.61306 0.62814 0.0
O365 O 0.46018 0.58179 0.62853 0.0
O366 O 0.57726 0.57468 0.58862 0.0
O367 O 0.54353 0.55331 0.53523 0.0
H368 H 0.59993 0.47359 0.44821 0.0
H369 H 0.66543 0.45299 0.44655 0.0
H370 H 0.61068 0.35838 0.52865 0.0
H371 H 0.54446 0.3786 0.52973 0.0
H372 H 0.4333 0.62514 0.57706 0.0
H373 H 0.4126 0.68467 0.56162 0.0
H374 H 0.49261 0.74324 0.66023 0.0
H375 H 0.51248 0.68315 0.67624 0.0
Ho376 Ho 1.00999 0.48976 0.08649 0.0
Ho377 Ho 1.00472 0.567 0.04401 0.0
C378 C 0.08897 0.56518 0.09306 0.0
C379 C 0.03448 0.42988 0.11018 0.0
C380 C 0.07592 0.42084 0.10951 0.0
C381 C 0.10855 0.44178 0.0839 0.0
C382 C 0.14849 0.43433 0.0848 0.0
C383 C 0.15645 0.40576 0.11131 0.0
C384 C 0.12344 0.38464 0.13659 0.0
C385 C 0.08354 0.39216 0.13569 0.0
C386 C 0.9677 0.53492 0.13195 0.0
C387 C 0.93043 0.48916 1.02895 0.0
C388 C 0.98131 0.63023 1.03326 0.0
C389 C 0.95134 0.64398 1.00724 0.0
C390 C 0.9104 0.62178 1.00188 0.0
C391 C 0.88086 0.63709 0.98137 0.0
C392 C 0.89186 0.67463 0.96542 0.0
C393 C 0.93328 0.69617 0.96929 0.0
C394 C 0.96271 0.681 0.99021 0.0
C395 C 0.0369 0.5218 0.98678 0.0
O396 O 0.07546 0.52716 0.09453 0.0
O397 O 0.06592 0.58743 0.07739 0.0
O398 O 0.03005 0.45764 0.13611 0.0
O399 O 0.0186 0.43252 0.07321 0.0
O400 O 0.95767 0.49745 0.13148 0.0
O401 O 1.00063 0.54604 0.10953 0.0
O402 O 0.9419 0.5274 1.02839 0.0
O403 O 0.95346 0.46804 0.04676 0.0
O404 O 1.01443 0.62274 1.01403 0.0
O405 O 0.96476 0.60472 0.06178 0.0
O406 O 0.03119 0.55582 0.97882 0.0
O407 O 0.02537 0.51496 1.02476 0.0
H408 H 0.10323 0.46411 0.06345 0.0
H409 H 0.17309 0.45088 0.06474 0.0
H410 H 0.12867 0.36293 0.15794 0.0
H411 H 0.0588 0.37596 0.15588 0.0
H412 H 0.90087 0.59301 1.01454 0.0
H413 H 0.84929 0.61974 0.97837 0.0
H414 H 0.94251 0.7253 0.95754 0.0
H415 H 0.99405 0.6986 0.99415 0.0
C416 C 0.24543 0.2328 0.37674 0.0
C417 C 0.24245 0.26484 0.35282 0.0
H418 H 0.21241 0.183 0.41035 0.0
C419 C 0.2029 0.27312 0.34826 0.0
H420 H 0.27523 0.22523 0.38042 0.0
C421 C 0.16687 0.24844 0.36464 0.0
C422 C 0.16979 0.21544 0.38661 0.0
H423 H 0.1996 0.29802 0.33077 0.0
H424 H 0.13665 0.2547 0.35941 0.0
C425 C 0.20943 0.20844 0.39365 0.0
C426 C 0.34875 1.02859 0.77989 0.0
C427 C 0.3783 1.01341 0.75647 0.0
H428 H 0.32457 1.03952 0.84097 0.0
C429 C 0.40823 0.99914 0.77814 0.0
H430 H 0.32556 1.04025 0.76418 0.0
C431 C 0.40812 0.99936 0.82213 0.0
C432 C 0.37783 1.01351 0.84556 0.0
H433 H 0.43112 0.98678 0.76118 0.0
H434 H 0.43186 0.98839 0.83775 0.0
C435 C 0.3484 1.02849 0.82393 0.0
C436 C 0.58465 0.46989 0.73799 0.0
C437 C 0.59175 0.43276 0.7311 0.0
H438 H 0.56368 0.5176 0.71273 0.0
C439 C 0.58381 0.4162 0.69052 0.0
H440 H 0.5902 0.48366 0.76868 0.0
C441 C 0.56935 0.43605 0.65801 0.0
C442 C 0.56146 0.47286 0.66517 0.0
H443 H 0.58923 0.38789 0.68368 0.0
H444 H 0.56362 0.42217 0.62739 0.0
C445 C 0.56931 0.48938 0.70577 0.0
C446 C 0.95182 0.6217 0.19867 0.0
C447 C 0.91853 0.60503 0.22658 0.0
H448 H 0.9934 0.61322 0.14753 0.0
C449 C 0.90145 0.5651 0.22211 0.0
H450 H 0.96637 0.65211 0.201 0.0
C451 C 0.917 0.54281 0.19121 0.0
C452 C 0.95033 0.55947 0.16361 0.0
H453 H 0.87545 0.55096 0.24214 0.0
H454 H 0.90286 0.51228 0.18905 0.0
C455 C 0.9675 0.59931 0.16785 0.0
C456 C 0.48887 0.18055 0.19123 0.0
C457 C 0.44735 0.18405 0.18717 0.0
H458 H 0.53358 0.14634 0.17876 0.0
C459 C 0.41803 0.15317 0.16922 0.0
H460 H 0.51209 0.20339 0.20565 0.0
C461 C 0.43017 0.12016 0.15459 0.0
C462 C 0.47201 0.11738 0.15714 0.0
H463 H 0.38591 0.15497 0.16505 0.0
H464 H 0.40706 0.09755 0.13966 0.0
C465 C 0.50109 0.14764 0.17625 0.0
C466 C 0.19116 1.03993 0.56534 0.0
C467 C 0.1944 1.00354 0.54978 0.0
H468 H 0.15155 0.07916 0.57657 0.0
C469 C 0.15764 0.9767 0.53831 0.0
H470 H 0.21845 0.06084 0.57601 0.0
C471 C 0.11894 0.9869 0.54017 0.0
C472 C 0.11664 1.0242 0.55299 0.0
H473 H 0.15894 0.94843 0.52623 0.0
H474 H 0.09138 0.96648 0.52919 0.0
C475 C 0.15278 0.05028 0.56642 0.0
C476 C 0.84397 0.40932 0.9831 0.0
C477 C 0.81802 0.4299 0.96339 0.0
H478 H 0.89882 0.41135 1.01904 0.0
C479 C 0.82853 0.47039 0.96705 0.0
H480 H 0.83672 0.37815 0.98172 0.0
C481 C 0.86449 0.48965 0.98869 0.0
C482 C 0.89087 0.46898 1.00763 0.0
H483 H 0.80961 0.48734 0.95215 0.0
H484 H 0.87188 0.52082 0.99005 0.0
C485 C 0.87966 0.42848 1.00485 0.0
C486 C 0.65341 0.59017 0.45282 0.0
C487 C 0.6907 0.61148 0.4709 0.0
H488 H 0.58963 0.55879 0.46296 0.0
C489 C 0.69149 0.61517 0.51526 0.0
H490 H 0.65109 0.58682 0.41891 0.0
C491 C 0.6561 0.59913 0.54048 0.0
C492 C 0.61858 0.57892 0.52229 0.0
H493 H 0.71956 0.63063 0.5307 0.0
H494 H 0.65797 0.60319 0.57436 0.0
C495 C 0.61792 0.57419 0.47812 0.0
C496 C 0.24431 0.35486 0.12587 0.0
C497 C 0.27925 0.38596 0.13007 0.0
H498 H 0.17847 0.33668 0.11601 0.0
C499 C 0.27413 0.42348 0.12365 0.0
H500 H 0.24679 0.32558 0.13118 0.0
C501 C 0.23455 0.42988 0.11574 0.0
C502 C 0.19926 0.39886 0.11407 0.0
H503 H 0.30042 0.44805 0.12633 0.0
H504 H 0.23131 0.45925 0.11303 0.0
C505 C 0.20487 0.36124 0.11789 0.0
C506 C 0.57996 0.19235 1.00339 0.0
C507 C 0.58862 0.19366 0.95939 0.0
H508 H 0.55743 0.15737 0.05772 0.0
C509 C 0.58205 0.15804 0.93747 0.0
H510 H 0.58402 0.21867 1.02185 0.0
C511 C 0.56611 0.12295 0.9581 0.0
C512 C 0.55678 0.12181 1.00165 0.0
H513 H 0.58933 0.15692 0.90407 0.0
H514 H 0.56078 0.09648 0.93968 0.0
C515 C 0.56455 0.157 1.02419 0.0
C516 C 0.91304 0.86034 0.47799 0.0
C517 C 0.91838 0.85556 0.43414 0.0
H518 H 0.9229 0.89827 0.5318 0.0
C519 C 0.93927 0.88824 0.4111 0.0
H520 H 0.89664 0.8364 0.49701 0.0
C521 C 0.95439 0.92421 0.43121 0.0
C522 C 0.94888 0.92887 0.47505 0.0
H523 H 0.9445 0.88597 0.3774 0.0
H524 H 0.97054 0.94835 0.41233 0.0
C525 C 0.92789 0.89625 0.49801 0.0
C526 C 0.41883 0.79923 0.55181 0.0
C527 C 0.41022 0.82254 0.58549 0.0
H528 H 0.43894 0.74836 0.533 0.0
C529 C 0.41556 0.81163 0.62701 0.0
H530 H 0.41482 0.80677 0.51948 0.0
C531 C 0.42883 0.77805 0.63476 0.0
C532 C 0.43734 0.75465 0.60118 0.0
H533 H 0.40989 0.82927 0.65366 0.0
H534 H 0.43194 0.77022 0.66718 0.0
C535 C 0.43224 0.76561 0.55958 0.0
C536 C 0.78431 0.78959 0.69674 0.0
C537 C 0.7467 0.79414 0.67947 0.0
H538 H 0.85054 0.80929 0.69776 0.0
C539 C 0.74853 0.81341 0.64098 0.0
H540 H 0.78426 0.7749 0.72637 0.0
C541 C 0.78716 0.83299 0.62399 0.0
C542 C 0.82439 0.83412 0.64571 0.0
H543 H 0.72006 0.81674 0.62647 0.0
H544 H 0.78743 0.8502 0.59614 0.0
C545 C 0.82277 0.80962 0.68023 0.0
C546 C 0.7669 0.2356 0.23111 0.0
C547 C 0.80525 0.22889 0.24408 0.0
H548 H 0.70992 0.21364 0.19867 0.0
C549 C 0.81823 0.19661 0.22762 0.0
H550 H 0.75636 0.26064 0.24245 0.0
C551 C 0.79198 0.17008 0.20165 0.0
C552 C 0.75197 0.17496 0.19192 0.0
H553 H 0.84747 0.1904 0.23691 0.0
H554 H 0.80231 0.14479 0.19078 0.0
C555 C 0.74044 0.20883 0.20553 0.0
C556 C 0.4237 0.58134 0.39265 0.0
C557 C 0.42319 0.62072 0.39581 0.0
H558 H 0.43844 0.5322 0.42152 0.0
C559 C 0.43729 0.64026 0.43367 0.0
H560 H 0.4137 0.5652 0.36403 0.0
C561 C 0.45121 0.62105 0.46712 0.0
C562 C 0.4522 0.58177 0.46361 0.0
H563 H 0.43725 0.67045 0.43764 0.0
H564 H 0.46186 0.63724 0.49553 0.0
C565 C 0.43818 0.56232 0.42575 0.0
C566 C 0.07327 0.43685 0.93308 0.0
C567 C 0.08447 0.45082 0.89185 0.0
H568 H 0.05009 0.4478 0.99536 0.0
C569 C 0.07942 0.48804 0.88299 0.0
H570 H 0.077 0.40862 0.94168 0.0
C571 C 0.06413 0.5104 0.91386 0.0
C572 C 0.05325 0.49665 0.955 0.0
H573 H 0.08686 0.49998 0.85183 0.0
H574 H 0.06077 0.53877 0.9053 0.0
C575 C 0.05801 0.45944 0.96417 0.0
C576 C 0.53243 0.89876 0.94106 0.0
C577 C 0.57239 0.89186 0.94667 0.0
H578 H 0.48839 0.93224 0.96 0.0
C579 C 0.59933 0.9149 0.97551 0.0
H580 H 0.51117 0.8816 0.9188 0.0
C581 C 0.58666 0.94389 0.99855 0.0
C582 C 0.54661 0.95063 0.99351 0.0
H583 H 0.63076 0.91108 0.97973 0.0
H584 H 0.6084 0.96088 1.02052 0.0
C585 C 0.51952 0.92778 0.96452 0.0
C586 C 0.92087 0.15829 0.53806 0.0
C587 C 0.91137 0.15673 0.49495 0.0
H588 H 0.93548 0.12783 0.59124 0.0
C589 C 0.90644 0.12143 0.47305 0.0
H590 H 0.92428 0.18494 0.5559 0.0
C591 C 0.91246 0.08881 0.49335 0.0
C592 C 0.92354 0.09081 0.53589 0.0
H593 H 0.89952 0.11934 0.43976 0.0
H594 H 0.91005 0.06235 0.47531 0.0
C595 C 0.92671 0.12553 0.55842 0.0
C596 C 0.18424 0.64041 0.13209 0.0
C597 C 0.20772 0.61762 0.15215 0.0
H598 H 0.12919 0.6422 0.09763 0.0
C599 C 0.19186 0.57735 0.15157 0.0
H600 H 0.19538 0.6714 0.13109 0.0
C601 C 0.15407 0.56053 0.13179 0.0
C602 C 0.13051 0.58332 0.112 0.0
H603 H 0.20825 0.55858 0.16709 0.0
H604 H 0.14309 0.5295 0.1326 0.0
C605 C 0.14627 0.62356 0.11241 0.0
C606 C 0.35534 0.46676 0.67602 0.0
C607 C 0.3196 0.44199 0.65856 0.0
H608 H 0.41818 0.5004 0.66574 0.0
C609 C 0.32083 0.43413 0.61485 0.0
H610 H 0.3558 0.47444 0.70919 0.0
C611 C 0.3565 0.44973 0.58984 0.0
C612 C 0.39244 0.47345 0.6076 0.0
H613 H 0.29467 0.41491 0.59988 0.0
H614 H 0.35621 0.44236 0.55655 0.0
C615 C 0.39122 0.48206 0.65099 0.0
C616 C 0.83968 0.73156 0.89289 0.0
C617 C 0.80137 0.73047 0.91435 0.0
H618 H 0.89817 0.71461 0.89212 0.0
C619 C 0.79209 0.70883 0.95144 0.0
H620 H 0.84743 0.74713 0.86366 0.0
C621 C 0.82101 0.68974 0.96735 0.0
C622 C 0.85987 0.69211 0.94665 0.0
H623 H 0.7631 0.70766 0.96896 0.0
H624 H 0.81358 0.67425 0.99668 0.0
C625 C 0.8687 0.7128 0.90901 0.0
C626 C 0.42592 0.87377 0.13754 0.0
C627 C 0.43209 0.86286 0.17917 0.0
H628 H 0.43758 0.91837 0.09094 0.0
C629 C 0.45388 0.89186 0.2065 0.0
H630 H 0.40853 0.853 0.11549 0.0
C631 C 0.46996 0.92979 0.19237 0.0
C632 C 0.46506 0.94007 0.15038 0.0
H633 H 0.45986 0.88509 0.23857 0.0
H634 H 0.48736 0.95085 0.21417 0.0
C635 C 0.44228 0.91158 0.12337 0.0
C636 C 0.06735 0.21033 0.62512 0.0
C637 C 0.08517 0.20893 0.66493 0.0
H638 H 0.0382 0.17883 0.57107 0.0
C639 C 0.08535 0.17221 0.68074 0.0
H640 H 0.06675 0.23781 0.6115 0.0
C641 C 0.06896 0.13832 0.65752 0.0
C642 C 0.05192 0.13972 0.61742 0.0
H643 H 0.09806 0.16952 0.71143 0.0
H644 H 0.07002 0.1109 0.67104 0.0
C645 C 0.05119 0.17634 0.60168 0.0
C646 C 0.72089 0.34089 0.47548 0.0
C647 C 0.7594 0.36815 0.4751 0.0
H648 H 0.65417 0.33096 0.47926 0.0
C649 C 0.75962 0.4072 0.48173 0.0
H650 H 0.7196 0.31064 0.46966 0.0
C651 C 0.72201 0.41886 0.48724 0.0
C652 C 0.68343 0.3917 0.48605 0.0
H653 H 0.78884 0.4288 0.48203 0.0
H654 H 0.7231 0.44921 0.4919 0.0
C655 C 0.68333 0.35253 0.4809 0.0
loop_
_geom_bond_atom_site_label_1
_geom_bond_atom_site_label_2
_geom_bond_distance
_geom_bond_site_symmetry_2
_ccdc_geom_bond_type
P0 O11 1.490 . S
P0 C14 1.812 . S
P0 C20 1.803 . S
P0 C26 1.819 . S
H1 C15 0.941 . S
H2 C16 0.939 . S
H3 C18 0.940 . S
H4 C19 0.940 . S
H5 C21 0.939 . S
H6 C22 0.942 . S
H7 C24 0.940 . S
H8 C25 0.939 . S
H9 C27 0.941 . S
H10 C31 0.939 . S
O11 P0 1.490 . S
H12 C28 0.939 . S
H13 C30 0.940 . S
C14 P0 1.812 . S
C14 C15 1.389 . S
C14 C19 1.391 . S
C15 H1 0.941 . S
C15 C14 1.389 . S
C15 C16 1.397 . S
C16 H2 0.939 . S
C16 C15 1.397 . S
C16 C17 1.378 . S
C17 C16 1.378 . S
C17 C18 1.378 . S
C18 H3 0.940 . S
C18 C17 1.378 . S
C18 C19 1.396 . S
C19 H4 0.940 . S
C19 C14 1.391 . S
C19 C18 1.396 . S
C20 P0 1.803 . S
C20 C21 1.378 . S
C20 C25 1.400 . S
C21 H5 0.939 . S
C21 C20 1.378 . S
C21 C22 1.361 . S
C22 H6 0.942 . S
C22 C21 1.361 . S
C22 C23 1.369 . S
C23 C22 1.369 . S
C23 C24 1.404 . S
C24 H7 0.940 . S
C24 C23 1.404 . S
C24 C25 1.389 . S
C25 H8 0.939 . S
C25 C20 1.400 . S
C25 C24 1.389 . S
C26 P0 1.819 . S
C26 C27 1.391 . S
C26 C31 1.391 . S
C27 H9 0.941 . S
C27 C26 1.391 . S
C27 C28 1.396 . S
C28 H12 0.939 . S
C28 C27 1.396 . S
C28 C29 1.397 . S
C29 C28 1.397 . S
C29 C30 1.385 . S
C30 H13 0.940 . S
C30 C29 1.385 . S
C30 C31 1.388 . S
C31 H10 0.939 . S
C31 C26 1.391 . S
C31 C30 1.388 . S
P32 O43 1.490 . S
P32 C46 1.812 . S
P32 C52 1.803 . S
P32 C58 1.819 . S
H33 C47 0.941 . S
H34 C48 0.939 . S
H35 C50 0.940 . S
H36 C51 0.940 . S
H37 C53 0.939 . S
H38 C54 0.942 . S
H39 C56 0.940 . S
H40 C57 0.939 . S
H41 C59 0.941 . S
H42 C63 0.939 . S
O43 P32 1.490 . S
H44 C60 0.939 . S
H45 C62 0.940 . S
C46 P32 1.812 . S
C46 C47 1.389 . S
C46 C51 1.391 . S
C47 H33 0.941 . S
C47 C46 1.389 . S
C47 C48 1.397 . S
C48 H34 0.939 . S
C48 C47 1.397 . S
C48 C49 1.378 . S
C49 C48 1.378 . S
C49 C50 1.378 . S
C50 H35 0.940 . S
C50 C49 1.378 . S
C50 C51 1.396 . S
C51 H36 0.940 . S
C51 C46 1.391 . S
C51 C50 1.396 . S
C52 P32 1.803 . S
C52 C53 1.378 . S
C52 C57 1.400 . S
C53 H37 0.939 . S
C53 C52 1.378 . S
C53 C54 1.361 . S
C54 H38 0.942 . S
C54 C53 1.361 . S
C54 C55 1.369 . S
C55 C54 1.369 . S
C55 C56 1.404 . S
C56 H39 0.940 . S
C56 C55 1.404 . S
C56 C57 1.389 . S
C57 H40 0.939 . S
C57 C52 1.400 . S
C57 C56 1.389 . S
C58 P32 1.819 . S
C58 C59 1.391 . S
C58 C63 1.391 . S
C59 H41 0.941 . S
C59 C58 1.391 . S
C59 C60 1.396 . S
C60 H44 0.939 . S
C60 C59 1.396 . S
C60 C61 1.397 . S
C61 C60 1.397 . S
C61 C62 1.385 . S
C62 H45 0.940 . S
C62 C61 1.385 . S
C62 C63 1.388 . S
C63 H42 0.939 . S
C63 C58 1.391 . S
C63 C62 1.388 . S
P64 O75 1.490 . S
P64 C78 1.812 . S
P64 C84 1.803 . S
P64 C90 1.819 . S
H65 C79 0.941 . S
H66 C80 0.939 . S
H67 C82 0.940 . S
H68 C83 0.940 . S
H69 C85 0.939 . S
H70 C86 0.942 . S
H71 C88 0.940 . S
H72 C89 0.939 . S
H73 C91 0.941 . S
H74 C95 0.939 . S
O75 P64 1.490 . S
H76 C92 0.939 . S
H77 C94 0.940 . S
C78 P64 1.812 . S
C78 C79 1.389 . S
C78 C83 1.391 . S
C79 H65 0.941 . S
C79 C78 1.389 . S
C79 C80 1.397 . S
C80 H66 0.939 . S
C80 C79 1.397 . S
C80 C81 1.378 . S
C81 C80 1.378 . S
C81 C82 1.378 . S
C82 H67 0.940 . S
C82 C81 1.378 . S
C82 C83 1.396 . S
C83 H68 0.940 . S
C83 C78 1.391 . S
C83 C82 1.396 . S
C84 P64 1.803 . S
C84 C85 1.378 . S
C84 C89 1.400 . S
C85 H69 0.939 . S
C85 C84 1.378 . S
C85 C86 1.361 . S
C86 H70 0.942 . S
C86 C85 1.361 . S
C86 C87 1.369 . S
C87 C86 1.369 . S
C87 C88 1.404 . S
C88 H71 0.940 . S
C88 C87 1.404 . S
C88 C89 1.389 . S
C89 H72 0.939 . S
C89 C84 1.400 . S
C89 C88 1.389 . S
C90 P64 1.819 . S
C90 C91 1.391 . S
C90 C95 1.391 . S
C91 H73 0.941 . S
C91 C90 1.391 . S
C91 C92 1.396 . S
C92 H76 0.939 . S
C92 C91 1.396 . S
C92 C93 1.397 . S
C93 C92 1.397 . S
C93 C94 1.385 . S
C94 H77 0.940 . S
C94 C93 1.385 . S
C94 C95 1.388 . S
C95 H74 0.939 . S
C95 C90 1.391 . S
C95 C94 1.388 . S
P96 O107 1.490 . S
P96 C110 1.812 . S
P96 C116 1.803 . S
P96 C122 1.819 . S
H97 C111 0.941 . S
H98 C112 0.939 . S
H99 C114 0.940 . S
H100 C115 0.940 . S
H101 C117 0.939 . S
H102 C118 0.942 . S
H103 C120 0.940 . S
H104 C121 0.939 . S
H105 C123 0.941 . S
H106 C127 0.939 . S
O107 P96 1.490 . S
H108 C124 0.939 . S
H109 C126 0.940 . S
C110 P96 1.812 . S
C110 C111 1.389 . S
C110 C115 1.391 . S
C111 H97 0.941 . S
C111 C110 1.389 . S
C111 C112 1.397 . S
C112 H98 0.939 . S
C112 C111 1.397 . S
C112 C113 1.378 . S
C113 C112 1.378 . S
C113 C114 1.378 . S
C114 H99 0.940 . S
C114 C113 1.378 . S
C114 C115 1.396 . S
C115 H100 0.940 . S
C115 C110 1.391 . S
C115 C114 1.396 . S
C116 P96 1.803 . S
C116 C117 1.378 . S
C116 C121 1.400 . S
C117 H101 0.939 . S
C117 C116 1.378 . S
C117 C118 1.361 . S
C118 H102 0.942 . S
C118 C117 1.361 . S
C118 C119 1.369 . S
C119 C118 1.369 . S
C119 C120 1.404 . S
C120 H103 0.940 . S
C120 C119 1.404 . S
C120 C121 1.389 . S
C121 H104 0.939 . S
C121 C116 1.400 . S
C121 C120 1.389 . S
C122 P96 1.819 . S
C122 C123 1.391 . S
C122 C127 1.391 . S
C123 H105 0.941 . S
C123 C122 1.391 . S
C123 C124 1.396 . S
C124 H108 0.939 . S
C124 C123 1.396 . S
C124 C125 1.397 . S
C125 C124 1.397 . S
C125 C126 1.385 . S
C126 H109 0.940 . S
C126 C125 1.385 . S
C126 C127 1.388 . S
C127 H106 0.939 . S
C127 C122 1.391 . S
C127 C126 1.388 . S
P128 O139 1.490 . S
P128 C142 1.812 . S
P128 C148 1.803 . S
P128 C154 1.819 . S
H129 C143 0.941 . S
H130 C144 0.939 . S
H131 C146 0.940 . S
H132 C147 0.940 . S
H133 C149 0.939 . S
H134 C150 0.942 . S
H135 C152 0.940 . S
H136 C153 0.939 . S
H137 C155 0.941 . S
H138 C159 0.939 . S
O139 P128 1.490 . S
H140 C156 0.939 . S
H141 C158 0.940 . S
C142 P128 1.812 . S
C142 C143 1.389 . S
C142 C147 1.391 . S
C143 H129 0.941 . S
C143 C142 1.389 . S
C143 C144 1.397 . S
C144 H130 0.939 . S
C144 C143 1.397 . S
C144 C145 1.378 . S
C145 C144 1.378 . S
C145 C146 1.378 . S
C146 H131 0.940 . S
C146 C145 1.378 . S
C146 C147 1.396 . S
C147 H132 0.940 . S
C147 C142 1.391 . S
C147 C146 1.396 . S
C148 P128 1.803 . S
C148 C149 1.378 . S
C148 C153 1.400 . S
C149 H133 0.939 . S
C149 C148 1.378 . S
C149 C150 1.361 . S
C150 H134 0.942 . S
C150 C149 1.361 . S
C150 C151 1.369 . S
C151 C150 1.369 . S
C151 C152 1.404 . S
C152 H135 0.940 . S
C152 C151 1.404 . S
C152 C153 1.389 . S
C153 H136 0.939 . S
C153 C148 1.400 . S
C153 C152 1.389 . S
C154 P128 1.819 . S
C154 C155 1.391 . S
C154 C159 1.391 . S
C155 H137 0.941 . S
C155 C154 1.391 . S
C155 C156 1.396 . S
C156 H140 0.939 . S
C156 C155 1.396 . S
C156 C157 1.397 . S
C157 C156 1.397 . S
C157 C158 1.385 . S
C158 H141 0.940 . S
C158 C157 1.385 . S
C158 C159 1.388 . S
C159 H138 0.939 . S
C159 C154 1.391 . S
C159 C158 1.388 . S
P160 O171 1.490 . S
P160 C174 1.812 . S
P160 C180 1.803 . S
P160 C186 1.819 . S
H161 C175 0.941 . S
H162 C176 0.939 . S
H163 C178 0.940 . S
H164 C179 0.940 . S
H165 C181 0.939 . S
H166 C182 0.942 . S
H167 C184 0.940 . S
H168 C185 0.939 . S
H169 C187 0.941 . S
H170 C191 0.939 . S
O171 P160 1.490 . S
H172 C188 0.939 . S
H173 C190 0.940 . S
C174 P160 1.812 . S
C174 C175 1.389 . S
C174 C179 1.391 . S
C175 H161 0.941 . S
C175 C174 1.389 . S
C175 C176 1.397 . S
C176 H162 0.939 . S
C176 C175 1.397 . S
C176 C177 1.378 . S
C177 C176 1.378 . S
C177 C178 1.378 . S
C178 H163 0.940 . S
C178 C177 1.378 . S
C178 C179 1.396 . S
C179 H164 0.940 . S
C179 C174 1.391 . S
C179 C178 1.396 . S
C180 P160 1.803 . S
C180 C181 1.378 . S
C180 C185 1.400 . S
C181 H165 0.939 . S
C181 C180 1.378 . S
C181 C182 1.361 . S
C182 H166 0.942 . S
C182 C181 1.361 . S
C182 C183 1.369 . S
C183 C182 1.369 . S
C183 C184 1.404 . S
C184 H167 0.940 . S
C184 C183 1.404 . S
C184 C185 1.389 . S
C185 H168 0.939 . S
C185 C180 1.400 . S
C185 C184 1.389 . S
C186 P160 1.819 . S
C186 C187 1.391 . S
C186 C191 1.391 . S
C187 H169 0.941 . S
C187 C186 1.391 . S
C187 C188 1.396 . S
C188 H172 0.939 . S
C188 C187 1.396 . S
C188 C189 1.397 . S
C189 C188 1.397 . S
C189 C190 1.385 . S
C190 H173 0.940 . S
C190 C189 1.385 . S
C190 C191 1.388 . S
C191 H170 0.939 . S
C191 C186 1.391 . S
C191 C190 1.388 . S
P192 O203 1.490 . S
P192 C206 1.812 . S
P192 C212 1.803 . S
P192 C218 1.819 . S
H193 C207 0.941 . S
H194 C208 0.939 . S
H195 C210 0.940 . S
H196 C211 0.940 . S
H197 C213 0.939 . S
H198 C214 0.942 . S
H199 C216 0.940 . S
H200 C217 0.939 . S
H201 C219 0.941 . S
H202 C223 0.939 . S
O203 P192 1.490 . S
H204 C220 0.939 . S
H205 C222 0.940 . S
C206 P192 1.812 . S
C206 C207 1.389 . S
C206 C211 1.391 . S
C207 H193 0.941 . S
C207 C206 1.389 . S
C207 C208 1.397 . S
C208 H194 0.939 . S
C208 C207 1.397 . S
C208 C209 1.378 . S
C209 C208 1.378 . S
C209 C210 1.378 . S
C210 H195 0.940 . S
C210 C209 1.378 . S
C210 C211 1.396 . S
C211 H196 0.940 . S
C211 C206 1.391 . S
C211 C210 1.396 . S
C212 P192 1.803 . S
C212 C213 1.378 . S
C212 C217 1.400 . S
C213 H197 0.939 . S
C213 C212 1.378 . S
C213 C214 1.361 . S
C214 H198 0.942 . S
C214 C213 1.361 . S
C214 C215 1.369 . S
C215 C214 1.369 . S
C215 C216 1.404 . S
C216 H199 0.940 . S
C216 C215 1.404 . S
C216 C217 1.389 . S
C217 H200 0.939 . S
C217 C212 1.400 . S
C217 C216 1.389 . S
C218 P192 1.819 . S
C218 C219 1.391 . S
C218 C223 1.391 . S
C219 H201 0.941 . S
C219 C218 1.391 . S
C219 C220 1.396 . S
C220 H204 0.939 . S
C220 C219 1.396 . S
C220 C221 1.397 . S
C221 C220 1.397 . S
C221 C222 1.385 . S
C222 H205 0.940 . S
C222 C221 1.385 . S
C222 C223 1.388 . S
C223 H202 0.939 . S
C223 C218 1.391 . S
C223 C222 1.388 . S
P224 O235 1.490 . S
P224 C238 1.812 . S
P224 C244 1.803 . S
P224 C250 1.819 . S
H225 C239 0.941 . S
H226 C240 0.939 . S
H227 C242 0.940 . S
H228 C243 0.940 . S
H229 C245 0.939 . S
H230 C246 0.942 . S
H231 C248 0.940 . S
H232 C249 0.939 . S
H233 C251 0.941 . S
H234 C255 0.939 . S
O235 P224 1.490 . S
H236 C252 0.939 . S
H237 C254 0.940 . S
C238 P224 1.812 . S
C238 C239 1.389 . S
C238 C243 1.391 . S
C239 H225 0.941 . S
C239 C238 1.389 . S
C239 C240 1.397 . S
C240 H226 0.939 . S
C240 C239 1.397 . S
C240 C241 1.378 . S
C241 C240 1.378 . S
C241 C242 1.378 . S
C242 H227 0.940 . S
C242 C241 1.378 . S
C242 C243 1.396 . S
C243 H228 0.940 . S
C243 C238 1.391 . S
C243 C242 1.396 . S
C244 P224 1.803 . S
C244 C245 1.378 . S
C244 C249 1.400 . S
C245 H229 0.939 . S
C245 C244 1.378 . S
C245 C246 1.361 . S
C246 H230 0.942 . S
C246 C245 1.361 . S
C246 C247 1.369 . S
C247 C246 1.369 . S
C247 C248 1.404 . S
C248 H231 0.940 . S
C248 C247 1.404 . S
C248 C249 1.389 . S
C249 H232 0.939 . S
C249 C244 1.400 . S
C249 C248 1.389 . S
C250 P224 1.819 . S
C250 C251 1.391 . S
C250 C255 1.391 . S
C251 H233 0.941 . S
C251 C250 1.391 . S
C251 C252 1.396 . S
C252 H236 0.939 . S
C252 C251 1.396 . S
C252 C253 1.397 . S
C253 C252 1.397 . S
C253 C254 1.385 . S
C254 H237 0.940 . S
C254 C253 1.385 . S
C254 C255 1.388 . S
C255 H234 0.939 . S
C255 C250 1.391 . S
C255 C254 1.388 . S
Ho256 C259 2.811 . S
Ho256 O276 2.322 . S
Ho256 O278 2.378 . S
Ho256 O279 2.524 . S
Ho256 O280 2.381 1_545 S
Ho256 O281 2.669 1_545 S
Ho256 O283 2.346 1_445 S
Ho256 O287 2.305 1_455 S
Ho257 C268 2.830 . S
Ho257 O277 2.325 1_665 S
Ho257 O281 2.317 1_655 S
Ho257 O282 2.338 . S
Ho257 O284 2.387 . S
Ho257 O285 2.549 . S
Ho257 O286 2.365 1_565 S
Ho257 O287 2.657 1_565 S
C258 O276 1.259 . S
C258 O277 1.268 . S
C259 Ho256 2.811 . S
C259 C260 1.488 . S
C259 O278 1.215 . S
C259 O279 1.289 . S
C260 C259 1.488 . S
C260 C261 1.348 . S
C260 C265 1.413 . S
C261 C260 1.348 . S
C261 C262 1.442 . S
C261 H288 0.930 . S
C262 C261 1.442 . S
C262 C263 1.381 . S
C262 H289 0.931 . S
C263 C262 1.381 . S
C263 C264 1.321 . S
C264 C263 1.321 . S
C264 C265 1.403 . S
C264 H290 0.934 . S
C265 C260 1.413 . S
C265 C264 1.403 . S
C265 H291 0.930 . S
C266 O280 1.275 . S
C266 O281 1.256 . S
C267 O282 1.259 . S
C267 O283 1.268 . S
C268 Ho257 2.830 . S
C268 C269 1.488 . S
C268 O284 1.215 . S
C268 O285 1.289 . S
C269 C268 1.488 . S
C269 C270 1.348 . S
C269 C274 1.413 . S
C270 C269 1.348 . S
C270 C271 1.442 . S
C270 H292 0.930 . S
C271 C270 1.442 . S
C271 C272 1.381 . S
C271 H293 0.931 . S
C272 C271 1.381 . S
C272 C273 1.321 . S
C273 C272 1.321 . S
C273 C274 1.403 . S
C273 H294 0.934 . S
C274 C269 1.413 . S
C274 C273 1.403 . S
C274 H295 0.930 . S
C275 O286 1.275 . S
C275 O287 1.256 . S
O276 Ho256 2.322 . S
O276 C258 1.259 . S
O277 Ho257 2.325 1_445 S
O277 C258 1.268 . S
O278 Ho256 2.378 . S
O278 C259 1.215 . S
O279 Ho256 2.524 . S
O279 C259 1.289 . S
O280 Ho256 2.381 1_565 S
O280 C266 1.275 . S
O281 Ho256 2.669 1_565 S
O281 Ho257 2.317 1_455 S
O281 C266 1.256 . S
O282 Ho257 2.338 . S
O282 C267 1.259 . S
O283 Ho256 2.346 1_665 S
O283 C267 1.268 . S
O284 Ho257 2.387 . S
O284 C268 1.215 . S
O285 Ho257 2.549 . S
O285 C268 1.289 . S
O286 Ho257 2.365 1_545 S
O286 C275 1.275 . S
O287 Ho256 2.305 1_655 S
O287 Ho257 2.657 1_545 S
O287 C275 1.256 . S
H288 C261 0.930 . S
H289 C262 0.931 . S
H290 C264 0.934 . S
H291 C265 0.930 . S
H292 C270 0.930 . S
H293 C271 0.931 . S
H294 C273 0.934 . S
H295 C274 0.930 . S
Ho296 C299 2.811 . S
Ho296 O316 2.322 . S
Ho296 O318 2.378 . S
Ho296 O319 2.524 . S
Ho296 O320 2.381 1_545 S
Ho296 O321 2.669 1_545 S
Ho296 O323 2.346 1_544 S
Ho296 O327 2.305 1_554 S
Ho297 C308 2.811 1_545 S
Ho297 O317 2.346 1_556 S
Ho297 O321 2.305 1_546 S
Ho297 O322 2.322 1_545 S
Ho297 O324 2.378 . S
Ho297 O325 2.524 1_545 S
Ho297 O326 2.381 . S
Ho297 O327 2.669 . S
C298 O316 1.259 . S
C298 O317 1.268 . S
C299 Ho296 2.811 . S
C299 C300 1.488 . S
C299 O318 1.215 . S
C299 O319 1.289 . S
C300 C299 1.488 . S
C300 C301 1.348 . S
C300 C305 1.413 . S
C301 C300 1.348 . S
C301 C302 1.442 . S
C301 H328 0.930 . S
C302 C301 1.442 . S
C302 C303 1.381 . S
C302 H329 0.931 . S
C303 C302 1.381 . S
C303 C304 1.321 . S
C304 C303 1.321 . S
C304 C305 1.403 . S
C304 H330 0.934 . S
C305 C300 1.413 . S
C305 C304 1.403 . S
C305 H331 0.930 . S
C306 O320 1.275 . S
C306 O321 1.256 . S
C307 O322 1.259 . S
C307 O323 1.268 . S
C308 Ho297 2.811 1_565 S
C308 C309 1.488 . S
C308 O324 1.215 1_565 S
C308 O325 1.289 . S
C309 C308 1.488 . S
C309 C310 1.348 . S
C309 C314 1.413 . S
C310 C309 1.348 . S
C310 C311 1.442 . S
C310 H332 0.930 . S
C311 C310 1.442 . S
C311 C312 1.381 . S
C311 H333 0.931 . S
C312 C311 1.381 . S
C312 C313 1.321 . S
C313 C312 1.321 . S
C313 C314 1.403 . S
C313 H334 0.934 . S
C314 C309 1.413 . S
C314 C313 1.403 . S
C314 H335 0.930 . S
C315 O326 1.275 . S
C315 O327 1.256 . S
O316 Ho296 2.322 . S
O316 C298 1.259 . S
O317 Ho297 2.346 1_554 S
O317 C298 1.268 . S
O318 Ho296 2.378 . S
O318 C299 1.215 . S
O319 Ho296 2.524 . S
O319 C299 1.289 . S
O320 Ho296 2.381 1_565 S
O320 C306 1.275 . S
O321 Ho296 2.669 1_565 S
O321 Ho297 2.305 1_564 S
O321 C306 1.256 . S
O322 Ho297 2.322 1_565 S
O322 C307 1.259 . S
O323 Ho296 2.346 1_566 S
O323 C307 1.268 . S
O324 Ho297 2.378 . S
O324 C308 1.215 1_545 S
O325 Ho297 2.524 1_565 S
O325 C308 1.289 . S
O326 Ho297 2.381 . S
O326 C315 1.275 . S
O327 Ho296 2.305 1_556 S
O327 Ho297 2.669 . S
O327 C315 1.256 . S
H328 C301 0.930 . S
H329 C302 0.931 . S
H330 C304 0.934 . S
H331 C305 0.930 . S
H332 C310 0.930 . S
H333 C311 0.931 . S
H334 C313 0.934 . S
H335 C314 0.930 . S
Ho336 C339 2.811 . S
Ho336 O356 2.322 . S
Ho336 O358 2.378 . S
Ho336 O359 2.524 . S
Ho336 O360 2.381 . S
Ho336 O361 2.669 . S
Ho336 O363 2.346 . S
Ho336 O367 2.305 . S
Ho337 C348 2.811 . S
Ho337 O357 2.346 . S
Ho337 O361 2.305 . S
Ho337 O362 2.322 . S
Ho337 O364 2.378 . S
Ho337 O365 2.524 . S
Ho337 O366 2.381 . S
Ho337 O367 2.669 . S
C338 O356 1.259 . S
C338 O357 1.268 . S
C339 Ho336 2.811 . S
C339 C340 1.488 . S
C339 O358 1.215 . S
C339 O359 1.289 . S
C340 C339 1.488 . S
C340 C341 1.348 . S
C340 C345 1.413 . S
C341 C340 1.348 . S
C341 C342 1.442 . S
C341 H368 0.930 . S
C342 C341 1.442 . S
C342 C343 1.381 . S
C342 H369 0.931 . S
C343 C342 1.381 . S
C343 C344 1.321 . S
C344 C343 1.321 . S
C344 C345 1.403 . S
C344 H370 0.934 . S
C345 C340 1.413 . S
C345 C344 1.403 . S
C345 H371 0.930 . S
C346 O360 1.275 . S
C346 O361 1.256 . S
C347 O362 1.259 . S
C347 O363 1.268 . S
C348 Ho337 2.811 . S
C348 C349 1.488 . S
C348 O364 1.215 . S
C348 O365 1.289 . S
C349 C348 1.488 . S
C349 C350 1.348 . S
C349 C354 1.413 . S
C350 C349 1.348 . S
C350 C351 1.442 . S
C350 H372 0.930 . S
C351 C350 1.442 . S
C351 C352 1.381 . S
C351 H373 0.931 . S
C352 C351 1.381 . S
C352 C353 1.321 . S
C353 C352 1.321 . S
C353 C354 1.403 . S
C353 H374 0.934 . S
C354 C349 1.413 . S
C354 C353 1.403 . S
C354 H375 0.930 . S
C355 O366 1.275 . S
C355 O367 1.256 . S
O356 Ho336 2.322 . S
O356 C338 1.259 . S
O357 Ho337 2.346 . S
O357 C338 1.268 . S
O358 Ho336 2.378 . S
O358 C339 1.215 . S
O359 Ho336 2.524 . S
O359 C339 1.289 . S
O360 Ho336 2.381 . S
O360 C346 1.275 . S
O361 Ho336 2.669 . S
O361 Ho337 2.305 . S
O361 C346 1.256 . S
O362 Ho337 2.322 . S
O362 C347 1.259 . S
O363 Ho336 2.346 . S
O363 C347 1.268 . S
O364 Ho337 2.378 . S
O364 C348 1.215 . S
O365 Ho337 2.524 . S
O365 C348 1.289 . S
O366 Ho337 2.381 . S
O366 C355 1.275 . S
O367 Ho336 2.305 . S
O367 Ho337 2.669 . S
O367 C355 1.256 . S
H368 C341 0.930 . S
H369 C342 0.931 . S
H370 C344 0.934 . S
H371 C345 0.930 . S
H372 C350 0.930 . S
H373 C351 0.931 . S
H374 C353 0.934 . S
H375 C354 0.930 . S
Ho376 C379 2.811 . S
Ho376 O396 2.322 . S
Ho376 O398 2.378 . S
Ho376 O399 2.524 . S
Ho376 O400 2.381 1_455 S
Ho376 O401 2.669 1_455 S
Ho376 O403 2.346 1_454 S
Ho376 O407 2.305 1_554 S
Ho377 C388 2.811 . S
Ho377 O397 2.346 1_656 S
Ho377 O401 2.305 1_556 S
Ho377 O402 2.322 . S
Ho377 O404 2.378 . S
Ho377 O405 2.524 . S
Ho377 O406 2.381 1_655 S
Ho377 O407 2.669 1_655 S
C378 O396 1.259 . S
C378 O397 1.268 . S
C379 Ho376 2.811 . S
C379 C380 1.488 . S
C379 O398 1.215 . S
C379 O399 1.289 . S
C380 C379 1.488 . S
C380 C381 1.348 . S
C380 C385 1.413 . S
C381 C380 1.348 . S
C381 C382 1.442 . S
C381 H408 0.930 . S
C382 C381 1.442 . S
C382 C383 1.381 . S
C382 H409 0.931 . S
C383 C382 1.381 . S
C383 C384 1.321 . S
C384 C383 1.321 . S
C384 C385 1.403 . S
C384 H410 0.934 . S
C385 C380 1.413 . S
C385 C384 1.403 . S
C385 H411 0.930 . S
C386 O400 1.275 . S
C386 O401 1.256 . S
C387 O402 1.259 . S
C387 O403 1.268 . S
C388 Ho377 2.811 . S
C388 C389 1.488 . S
C388 O404 1.215 . S
C388 O405 1.289 . S
C389 C388 1.488 . S
C389 C390 1.348 . S
C389 C394 1.413 . S
C390 C389 1.348 . S
C390 C391 1.442 . S
C390 H412 0.930 . S
C391 C390 1.442 . S
C391 C392 1.381 . S
C391 H413 0.931 . S
C392 C391 1.381 . S
C392 C393 1.321 . S
C393 C392 1.321 . S
C393 C394 1.403 . S
C393 H414 0.934 . S
C394 C389 1.413 . S
C394 C393 1.403 . S
C394 H415 0.930 . S
C395 O406 1.275 . S
C395 O407 1.256 . S
O396 Ho376 2.322 . S
O396 C378 1.259 . S
O397 Ho377 2.346 1_454 S
O397 C378 1.268 . S
O398 Ho376 2.378 . S
O398 C379 1.215 . S
O399 Ho376 2.524 . S
O399 C379 1.289 . S
O400 Ho376 2.381 1_655 S
O400 C386 1.275 . S
O401 Ho376 2.669 1_655 S
O401 Ho377 2.305 1_554 S
O401 C386 1.256 . S
O402 Ho377 2.322 . S
O402 C387 1.259 . S
O403 Ho376 2.346 1_656 S
O403 C387 1.268 . S
O404 Ho377 2.378 . S
O404 C388 1.215 . S
O405 Ho377 2.524 . S
O405 C388 1.289 . S
O406 Ho377 2.381 1_455 S
O406 C395 1.275 . S
O407 Ho376 2.305 1_556 S
O407 Ho377 2.669 1_455 S
O407 C395 1.256 . S
H408 C381 0.930 . S
H409 C382 0.931 . S
H410 C384 0.934 . S
H411 C385 0.930 . S
H412 C390 0.930 . S
H413 C391 0.931 . S
H414 C393 0.934 . S
H415 C394 0.930 . S
C416 C417 1.387 . S
C416 H420 0.950 . S
C416 C425 1.390 . S
C417 C416 1.387 . S
C417 C419 1.387 . S
H418 C425 0.950 . S
C419 C417 1.387 . S
C419 C421 1.390 . S
C419 H423 0.950 . S
H420 C416 0.950 . S
C421 C419 1.390 . S
C421 C422 1.387 . S
C421 H424 0.950 . S
C422 C421 1.387 . S
C422 C425 1.387 . S
H423 C419 0.950 . S
H424 C421 0.950 . S
C425 C416 1.390 . S
C425 H418 0.950 . S
C425 C422 1.387 . S
C426 C427 1.387 . S
C426 H430 0.950 . S
C426 C435 1.390 . S
C427 C426 1.387 . S
C427 C429 1.387 . S
H428 C435 0.950 . S
C429 C427 1.387 . S
C429 C431 1.390 . S
C429 H433 0.950 . S
H430 C426 0.950 . S
C431 C429 1.390 . S
C431 C432 1.387 . S
C431 H434 0.950 . S
C432 C431 1.387 . S
C432 C435 1.387 . S
H433 C429 0.950 . S
H434 C431 0.950 . S
C435 C426 1.390 . S
C435 H428 0.950 . S
C435 C432 1.387 . S
C436 C437 1.387 . S
C436 H440 0.950 . S
C436 C445 1.390 . S
C437 C436 1.387 . S
C437 C439 1.387 . S
H438 C445 0.950 . S
C439 C437 1.387 . S
C439 C441 1.390 . S
C439 H443 0.950 . S
H440 C436 0.950 . S
C441 C439 1.390 . S
C441 C442 1.387 . S
C441 H444 0.950 . S
C442 C441 1.387 . S
C442 C445 1.387 . S
H443 C439 0.950 . S
H444 C441 0.950 . S
C445 C436 1.390 . S
C445 H438 0.950 . S
C445 C442 1.387 . S
C446 C447 1.387 . S
C446 H450 0.950 . S
C446 C455 1.390 . S
C447 C446 1.387 . S
C447 C449 1.387 . S
H448 C455 0.950 . S
C449 C447 1.387 . S
C449 C451 1.390 . S
C449 H453 0.950 . S
H450 C446 0.950 . S
C451 C449 1.390 . S
C451 C452 1.387 . S
C451 H454 0.950 . S
C452 C451 1.387 . S
C452 C455 1.387 . S
H453 C449 0.950 . S
H454 C451 0.950 . S
C455 C446 1.390 . S
C455 H448 0.950 . S
C455 C452 1.387 . S
C456 C457 1.387 . S
C456 H460 0.950 . S
C456 C465 1.390 . S
C457 C456 1.387 . S
C457 C459 1.387 . S
H458 C465 0.950 . S
C459 C457 1.387 . S
C459 C461 1.390 . S
C459 H463 0.950 . S
H460 C456 0.950 . S
C461 C459 1.390 . S
C461 C462 1.387 . S
C461 H464 0.950 . S
C462 C461 1.387 . S
C462 C465 1.387 . S
H463 C459 0.950 . S
H464 C461 0.950 . S
C465 C456 1.390 . S
C465 H458 0.950 . S
C465 C462 1.387 . S
C466 C467 1.387 . S
C466 H470 0.950 . S
C466 C475 1.390 . S
C467 C466 1.387 . S
C467 C469 1.387 . S
H468 C475 0.950 . S
C469 C467 1.387 . S
C469 C471 1.390 . S
C469 H473 0.950 . S
H470 C466 0.950 . S
C471 C469 1.390 . S
C471 C472 1.387 . S
C471 H474 0.950 . S
C472 C471 1.387 . S
C472 C475 1.387 . S
H473 C469 0.950 . S
H474 C471 0.950 . S
C475 C466 1.390 . S
C475 H468 0.950 . S
C475 C472 1.387 . S
C476 C477 1.387 . S
C476 H480 0.950 . S
C476 C485 1.390 . S
C477 C476 1.387 . S
C477 C479 1.387 . S
H478 C485 0.950 . S
C479 C477 1.387 . S
C479 C481 1.390 . S
C479 H483 0.950 . S
H480 C476 0.950 . S
C481 C479 1.390 . S
C481 C482 1.387 . S
C481 H484 0.950 . S
C482 C481 1.387 . S
C482 C485 1.387 . S
H483 C479 0.950 . S
H484 C481 0.950 . S
C485 C476 1.390 . S
C485 H478 0.950 . S
C485 C482 1.387 . S
C486 C487 1.387 . S
C486 H490 0.950 . S
C486 C495 1.390 . S
C487 C486 1.387 . S
C487 C489 1.387 . S
H488 C495 0.950 . S
C489 C487 1.387 . S
C489 C491 1.390 . S
C489 H493 0.950 . S
H490 C486 0.950 . S
C491 C489 1.390 . S
C491 C492 1.387 . S
C491 H494 0.950 . S
C492 C491 1.387 . S
C492 C495 1.387 . S
H493 C489 0.950 . S
H494 C491 0.950 . S
C495 C486 1.390 . S
C495 H488 0.950 . S
C495 C492 1.387 . S
C496 C497 1.387 . S
C496 H500 0.950 . S
C496 C505 1.390 . S
C497 C496 1.387 . S
C497 C499 1.387 . S
H498 C505 0.950 . S
C499 C497 1.387 . S
C499 C501 1.390 . S
C499 H503 0.950 . S
H500 C496 0.950 . S
C501 C499 1.390 . S
C501 C502 1.387 . S
C501 H504 0.950 . S
C502 C501 1.387 . S
C502 C505 1.387 . S
H503 C499 0.950 . S
H504 C501 0.950 . S
C505 C496 1.390 . S
C505 H498 0.950 . S
C505 C502 1.387 . S
C506 C507 1.387 . S
C506 H510 0.950 . S
C506 C515 1.390 . S
C507 C506 1.387 . S
C507 C509 1.387 . S
H508 C515 0.950 . S
C509 C507 1.387 . S
C509 C511 1.390 . S
C509 H513 0.950 . S
H510 C506 0.950 . S
C511 C509 1.390 . S
C511 C512 1.387 . S
C511 H514 0.950 . S
C512 C511 1.387 . S
C512 C515 1.387 . S
H513 C509 0.950 . S
H514 C511 0.950 . S
C515 C506 1.390 . S
C515 H508 0.950 . S
C515 C512 1.387 . S
C516 C517 1.387 . S
C516 H520 0.950 . S
C516 C525 1.390 . S
C517 C516 1.387 . S
C517 C519 1.387 . S
H518 C525 0.950 . S
C519 C517 1.387 . S
C519 C521 1.390 . S
C519 H523 0.950 . S
H520 C516 0.950 . S
C521 C519 1.390 . S
C521 C522 1.387 . S
C521 H524 0.950 . S
C522 C521 1.387 . S
C522 C525 1.387 . S
H523 C519 0.950 . S
H524 C521 0.950 . S
C525 C516 1.390 . S
C525 H518 0.950 . S
C525 C522 1.387 . S
C526 C527 1.387 . S
C526 H530 0.950 . S
C526 C535 1.390 . S
C527 C526 1.387 . S
C527 C529 1.387 . S
H528 C535 0.950 . S
C529 C527 1.387 . S
C529 C531 1.390 . S
C529 H533 0.950 . S
H530 C526 0.950 . S
C531 C529 1.390 . S
C531 C532 1.387 . S
C531 H534 0.950 . S
C532 C531 1.387 . S
C532 C535 1.387 . S
H533 C529 0.950 . S
H534 C531 0.950 . S
C535 C526 1.390 . S
C535 H528 0.950 . S
C535 C532 1.387 . S
C536 C537 1.387 . S
C536 H540 0.950 . S
C536 C545 1.390 . S
C537 C536 1.387 . S
C537 C539 1.387 . S
H538 C545 0.950 . S
C539 C537 1.387 . S
C539 C541 1.390 . S
C539 H543 0.950 . S
H540 C536 0.950 . S
C541 C539 1.390 . S
C541 C542 1.387 . S
C541 H544 0.950 . S
C542 C541 1.387 . S
C542 C545 1.387 . S
H543 C539 0.950 . S
H544 C541 0.950 . S
C545 C536 1.390 . S
C545 H538 0.950 . S
C545 C542 1.387 . S
C546 C547 1.387 . S
C546 H550 0.950 . S
C546 C555 1.390 . S
C547 C546 1.387 . S
C547 C549 1.387 . S
H548 C555 0.950 . S
C549 C547 1.387 . S
C549 C551 1.390 . S
C549 H553 0.950 . S
H550 C546 0.950 . S
C551 C549 1.390 . S
C551 C552 1.387 . S
C551 H554 0.950 . S
C552 C551 1.387 . S
C552 C555 1.387 . S
H553 C549 0.950 . S
H554 C551 0.950 . S
C555 C546 1.390 . S
C555 H548 0.950 . S
C555 C552 1.387 . S
C556 C557 1.387 . S
C556 H560 0.950 . S
C556 C565 1.390 . S
C557 C556 1.387 . S
C557 C559 1.387 . S
H558 C565 0.950 . S
C559 C557 1.387 . S
C559 C561 1.390 . S
C559 H563 0.950 . S
H560 C556 0.950 . S
C561 C559 1.390 . S
C561 C562 1.387 . S
C561 H564 0.950 . S
C562 C561 1.387 . S
C562 C565 1.387 . S
H563 C559 0.950 . S
H564 C561 0.950 . S
C565 C556 1.390 . S
C565 H558 0.950 . S
C565 C562 1.387 . S
C566 C567 1.387 . S
C566 H570 0.950 . S
C566 C575 1.390 . S
C567 C566 1.387 . S
C567 C569 1.387 . S
H568 C575 0.950 . S
C569 C567 1.387 . S
C569 C571 1.390 . S
C569 H573 0.950 . S
H570 C566 0.950 . S
C571 C569 1.390 . S
C571 C572 1.387 . S
C571 H574 0.950 . S
C572 C571 1.387 . S
C572 C575 1.387 . S
H573 C569 0.950 . S
H574 C571 0.950 . S
C575 C566 1.390 . S
C575 H568 0.950 . S
C575 C572 1.387 . S
C576 C577 1.387 . S
C576 H580 0.950 . S
C576 C585 1.390 . S
C577 C576 1.387 . S
C577 C579 1.387 . S
H578 C585 0.950 . S
C579 C577 1.387 . S
C579 C581 1.390 . S
C579 H583 0.950 . S
H580 C576 0.950 . S
C581 C579 1.390 . S
C581 C582 1.387 . S
C581 H584 0.950 . S
C582 C581 1.387 . S
C582 C585 1.387 . S
H583 C579 0.950 . S
H584 C581 0.950 . S
C585 C576 1.390 . S
C585 H578 0.950 . S
C585 C582 1.387 . S
C586 C587 1.387 . S
C586 H590 0.950 . S
C586 C595 1.390 . S
C587 C586 1.387 . S
C587 C589 1.387 . S
H588 C595 0.950 . S
C589 C587 1.387 . S
C589 C591 1.390 . S
C589 H593 0.950 . S
H590 C586 0.950 . S
C591 C589 1.390 . S
C591 C592 1.387 . S
C591 H594 0.950 . S
C592 C591 1.387 . S
C592 C595 1.387 . S
H593 C589 0.950 . S
H594 C591 0.950 . S
C595 C586 1.390 . S
C595 H588 0.950 . S
C595 C592 1.387 . S
C596 C597 1.387 . S
C596 H600 0.950 . S
C596 C605 1.390 . S
C597 C596 1.387 . S
C597 C599 1.387 . S
H598 C605 0.950 . S
C599 C597 1.387 . S
C599 C601 1.390 . S
C599 H603 0.950 . S
H600 C596 0.950 . S
C601 C599 1.390 . S
C601 C602 1.387 . S
C601 H604 0.950 . S
C602 C601 1.387 . S
C602 C605 1.387 . S
H603 C599 0.950 . S
H604 C601 0.950 . S
C605 C596 1.390 . S
C605 H598 0.950 . S
C605 C602 1.387 . S
C606 C607 1.387 . S
C606 H610 0.950 . S
C606 C615 1.390 . S
C607 C606 1.387 . S
C607 C609 1.387 . S
H608 C615 0.950 . S
C609 C607 1.387 . S
C609 C611 1.390 . S
C609 H613 0.950 . S
H610 C606 0.950 . S
C611 C609 1.390 . S
C611 C612 1.387 . S
C611 H614 0.950 . S
C612 C611 1.387 . S
C612 C615 1.387 . S
H613 C609 0.950 . S
H614 C611 0.950 . S
C615 C606 1.390 . S
C615 H608 0.950 . S
C615 C612 1.387 . S
C616 C617 1.387 . S
C616 H620 0.950 . S
C616 C625 1.390 . S
C617 C616 1.387 . S
C617 C619 1.387 . S
H618 C625 0.950 . S
C619 C617 1.387 . S
C619 C621 1.390 . S
C619 H623 0.950 . S
H620 C616 0.950 . S
C621 C619 1.390 . S
C621 C622 1.387 . S
C621 H624 0.950 . S
C622 C621 1.387 . S
C622 C625 1.387 . S
H623 C619 0.950 . S
H624 C621 0.950 . S
C625 C616 1.390 . S
C625 H618 0.950 . S
C625 C622 1.387 . S
C626 C627 1.387 . S
C626 H630 0.950 . S
C626 C635 1.390 . S
C627 C626 1.387 . S
C627 C629 1.387 . S
H628 C635 0.950 . S
C629 C627 1.387 . S
C629 C631 1.390 . S
C629 H633 0.950 . S
H630 C626 0.950 . S
C631 C629 1.390 . S
C631 C632 1.387 . S
C631 H634 0.950 . S
C632 C631 1.387 . S
C632 C635 1.387 . S
H633 C629 0.950 . S
H634 C631 0.950 . S
C635 C626 1.390 . S
C635 H628 0.950 . S
C635 C632 1.387 . S
C636 C637 1.387 . S
C636 H640 0.950 . S
C636 C645 1.390 . S
C637 C636 1.387 . S
C637 C639 1.387 . S
H638 C645 0.950 . S
C639 C637 1.387 . S
C639 C641 1.390 . S
C639 H643 0.950 . S
H640 C636 0.950 . S
C641 C639 1.390 . S
C641 C642 1.387 . S
C641 H644 0.950 . S
C642 C641 1.387 . S
C642 C645 1.387 . S
H643 C639 0.950 . S
H644 C641 0.950 . S
C645 C636 1.390 . S
C645 H638 0.950 . S
C645 C642 1.387 . S
C646 C647 1.387 . S
C646 H650 0.950 . S
C646 C655 1.390 . S
C647 C646 1.387 . S
C647 C649 1.387 . S
H648 C655 0.950 . S
C649 C647 1.387 . S
C649 C651 1.390 . S
C649 H653 0.950 . S
H650 C646 0.950 . S
C651 C649 1.390 . S
C651 C652 1.387 . S
C651 H654 0.950 . S
C652 C651 1.387 . S
C652 C655 1.387 . S
H653 C649 0.950 . S
H654 C651 0.950 . S
C655 C646 1.390 . S
C655 H648 0.950 . S
C655 C652 1.387 . S
C417 C29 1.281 . S
C422 C263 1.294 . S
C427 C49 1.028 . S
C432 C312 1.060 . S
C442 C338 2.533 . S
C437 C93 2.543 . S
C447 C119 2.373 . S
C452 C386 2.374 . S
C462 C298 2.403 . S
C457 C17 2.332 . S
C472 C266 0.846 . S
C467 C61 0.857 . S
C482 C387 1.929 . S
C477 C81 1.971 . S
C492 C355 1.754 . S
C487 C125 1.732 . S
C497 C23 1.653 . S
C502 C383 1.672 . S
C512 C315 2.322 . S
C507 C87 2.366 . S
C517 C113 2.336 . S
C522 C267 2.372 . S
C527 C55 1.037 . S
C532 C352 1.149 . S
C542 C272 1.305 . S
C537 C157 1.094 . S
C547 C189 1.084 . S
C552 C303 1.087 . S
C557 C221 2.513 . S
C562 C347 2.493 . S
C567 C253 2.439 . S
C572 C395 2.459 . S
C577 C145 2.104 . S
C582 C307 2.472 . S
C592 C275 0.817 . S
C587 C183 0.825 . S
C602 C378 1.962 . S
C597 C209 1.957 . S
C612 C346 1.723 . S
C607 C247 1.693 . S
C617 C151 1.483 . S
C622 C392 1.695 . S
C632 C306 2.322 . S
C627 C215 2.368 . S
C642 C258 2.350 . S
C637 C241 2.296 . S
C647 C177 1.121 . S
C652 C343 1.119 . S
