# Generated by pormake.
# Topology pto, (3,4)-cn, num edge types: 1
# Building blocks:
#     Node 0, Type 0, BuildingBlock: WUSLED_clean_sbu_0, # of connection points: 3
#     Node 1, Type 0, BuildingBlock: WUSLED_clean_sbu_0, # of connection points: 3
#     Node 2, Type 0, BuildingBlock: WUSLED_clean_sbu_0, # of connection points: 3
#     Node 3, Type 0, BuildingBlock: WUSLED_clean_sbu_0, # of connection points: 3
#     Node 4, Type 0, BuildingBlock: WUSLED_clean_sbu_0, # of connection points: 3
#     Node 5, Type 0, BuildingBlock: WUSLED_clean_sbu_0, # of connection points: 3
#     Node 6, Type 0, BuildingBlock: WUSLED_clean_sbu_0, # of connection points: 3
#     Node 7, Type 0, BuildingBlock: WUSLED_clean_sbu_0, # of connection points: 3
#     Node 8, Type 1, BuildingBlock: KUFVIS_clean_linker_0, # of connection points: 4
#     Node 9, Type 1, BuildingBlock: KUFVIS_clean_linker_0, # of connection points: 4
#     Node 10, Type 1, BuildingBlock: KUFVIS_clean_linker_0, # of connection points: 4
#     Node 11, Type 1, BuildingBlock: KUFVIS_clean_linker_0, # of connection points: 4
#     Node 12, Type 1, BuildingBlock: KUFVIS_clean_linker_0, # of connection points: 4
#     Node 13, Type 1, BuildingBlock: KUFVIS_clean_linker_0, # of connection points: 4
#     Edge 14, Type (0, 1), BuildingBlock: TEMPAE_clean_linker_10, # of connection points: 2
#     Edge 15, Type (0, 1), BuildingBlock: TEMPAE_clean_linker_10, # of connection points: 2
#     Edge 16, Type (0, 1), BuildingBlock: TEMPAE_clean_linker_10, # of connection points: 2
#     Edge 17, Type (0, 1), BuildingBlock: TEMPAE_clean_linker_10, # of connection points: 2
#     Edge 18, Type (0, 1), BuildingBlock: TEMPAE_clean_linker_10, # of connection points: 2
#     Edge 19, Type (0, 1), BuildingBlock: TEMPAE_clean_linker_10, # of connection points: 2
#     Edge 20, Type (0, 1), BuildingBlock: TEMPAE_clean_linker_10, # of connection points: 2
#     Edge 21, Type (0, 1), BuildingBlock: TEMPAE_clean_linker_10, # of connection points: 2
#     Edge 22, Type (0, 1), BuildingBlock: TEMPAE_clean_linker_10, # of connection points: 2
#     Edge 23, Type (0, 1), BuildingBlock: TEMPAE_clean_linker_10, # of connection points: 2
#     Edge 24, Type (0, 1), BuildingBlock: TEMPAE_clean_linker_10, # of connection points: 2
#     Edge 25, Type (0, 1), BuildingBlock: TEMPAE_clean_linker_10, # of connection points: 2
#     Edge 26, Type (0, 1), BuildingBlock: TEMPAE_clean_linker_10, # of connection points: 2
#     Edge 27, Type (0, 1), BuildingBlock: TEMPAE_clean_linker_10, # of connection points: 2
#     Edge 28, Type (0, 1), BuildingBlock: TEMPAE_clean_linker_10, # of connection points: 2
#     Edge 29, Type (0, 1), BuildingBlock: TEMPAE_clean_linker_10, # of connection points: 2
#     Edge 30, Type (0, 1), BuildingBlock: TEMPAE_clean_linker_10, # of connection points: 2
#     Edge 31, Type (0, 1), BuildingBlock: TEMPAE_clean_linker_10, # of connection points: 2
#     Edge 32, Type (0, 1), BuildingBlock: TEMPAE_clean_linker_10, # of connection points: 2
#     Edge 33, Type (0, 1), BuildingBlock: TEMPAE_clean_linker_10, # of connection points: 2
#     Edge 34, Type (0, 1), BuildingBlock: TEMPAE_clean_linker_10, # of connection points: 2
#     Edge 35, Type (0, 1), BuildingBlock: TEMPAE_clean_linker_10, # of connection points: 2
#     Edge 36, Type (0, 1), BuildingBlock: TEMPAE_clean_linker_10, # of connection points: 2
#     Edge 37, Type (0, 1), BuildingBlock: TEMPAE_clean_linker_10, # of connection points: 2
# Relax obj value: 0.002
# Max RMSD: 0.051
# Mean RMSD: 0.028
data_MOF--net-pto--node1-WUSLED_clean_sbu_0--node2-KUFVIS_clean_linker_0--edge1-TEMPAE_clean_linker_10
_symmetry_space_group_name_H-M    P1
_symmetry_Int_Tables_number       1
_symmetry_cell_setting            triclinic
loop_
_symmetry_equiv_pos_as_xyz
'x, y, z'
_cell_length_a     40.014782
_cell_length_b     65.746298
_cell_length_c     53.580861
_cell_angle_alpha  89.536354
_cell_angle_beta   90.681021
_cell_angle_gamma 90.623305
loop_
_atom_site_label
_atom_site_type_symbol
_atom_site_fract_x
_atom_site_fract_y
_atom_site_fract_z
_atom_type_partial_charge
C0 C 0.19479 0.22941 0.35122 0.0
C1 C 0.20221 0.21207 0.33725 0.0
C2 C 0.19511 0.1905 0.37413 0.0
C3 C 0.20221 0.19277 0.34858 0.0
C4 C 0.18748 0.20796 0.38793 0.0
C5 C 0.18732 0.22719 0.37657 0.0
U6 U 0.22044 0.26555 0.29869 0.0
O7 O 0.19413 0.29086 0.28036 0.0
O8 O 0.24164 0.29664 0.30012 0.0
C9 C 0.21625 0.30453 0.2878 0.0
C10 C 0.19571 0.24991 0.33987 0.0
C11 C 0.2029 0.32367 0.29749 0.0
C12 C 0.16196 0.34251 0.32092 0.0
C13 C 0.17571 0.32395 0.31378 0.0
C14 C 0.20302 0.36065 0.29615 0.0
C15 C 0.17519 0.36109 0.31191 0.0
C16 C 0.21667 0.34212 0.28902 0.0
C17 C 0.26804 0.24537 0.24338 0.0
C18 C 0.2909 0.26829 0.21197 0.0
C19 C 0.29719 0.23186 0.2078 0.0
C20 C 0.27972 0.22876 0.22997 0.0
C21 C 0.30337 0.25168 0.19869 0.0
C22 C 0.27337 0.26516 0.23413 0.0
C23 C 0.25108 0.24195 0.26723 0.0
O24 O 0.22551 0.25845 0.33877 0.0
O25 O 0.17804 0.25227 0.31921 0.0
O26 O 0.2186 0.24468 0.26677 0.0
O27 O 0.26596 0.25017 0.28674 0.0
H28 H 0.20829 0.2135 0.31765 0.0
H29 H 0.20849 0.17968 0.33749 0.0
H30 H 0.18146 0.20674 0.40754 0.0
H31 H 0.18157 0.24038 0.38766 0.0
H32 H 0.14082 0.34231 0.33336 0.0
H33 H 0.16479 0.30985 0.32061 0.0
H34 H 0.2136 0.3746 0.28862 0.0
H35 H 0.23758 0.34221 0.27635 0.0
H36 H 0.29553 0.28374 0.20564 0.0
H37 H 0.30604 0.21873 0.19786 0.0
H38 H 0.27565 0.21338 0.2368 0.0
H39 H 0.26446 0.27817 0.2443 0.0
C40 C 0.19657 0.82351 0.66934 0.0
C41 C 0.18992 0.8413 0.68271 0.0
C42 C 0.19678 0.86191 0.64493 0.0
C43 C 0.18991 0.8603 0.6706 0.0
C44 C 0.20372 0.84401 0.63177 0.0
C45 C 0.20348 0.82507 0.64381 0.0
U46 U 0.22103 0.78807 0.72342 0.0
O47 O 0.19411 0.7628 0.74154 0.0
O48 O 0.24158 0.75709 0.72281 0.0
C49 C 0.21592 0.74918 0.73468 0.0
C50 C 0.19704 0.80323 0.68151 0.0
C51 C 0.20218 0.72991 0.72489 0.0
C52 C 0.15949 0.71057 0.70245 0.0
C53 C 0.1736 0.7293 0.70947 0.0
C54 C 0.20299 0.69293 0.72548 0.0
C55 C 0.17375 0.69216 0.71069 0.0
C56 C 0.21699 0.71162 0.73252 0.0
C57 C 0.26898 0.80846 0.7794 0.0
C58 C 0.28997 0.78534 0.81138 0.0
C59 C 0.29988 0.82163 0.8151 0.0
C60 C 0.28243 0.82492 0.79269 0.0
C61 C 0.30424 0.80177 0.82455 0.0
C62 C 0.27249 0.78866 0.78899 0.0
C63 C 0.25222 0.81196 0.75524 0.0
O64 O 0.22658 0.79475 0.68333 0.0
O65 O 0.17909 0.80093 0.70178 0.0
O66 O 0.21965 0.80919 0.75506 0.0
O67 O 0.2669 0.80374 0.73603 0.0
H68 H 0.18473 0.84056 0.70249 0.0
H69 H 0.18421 0.87369 0.68132 0.0
H70 H 0.20986 0.84461 0.61215 0.0
H71 H 0.20896 0.81158 0.63317 0.0
H72 H 0.13723 0.7105 0.69075 0.0
H73 H 0.16185 0.74325 0.70328 0.0
H74 H 0.21441 0.67909 0.73237 0.0
H75 H 0.239 0.71179 0.74451 0.0
H76 H 0.29319 0.76986 0.81797 0.0
H77 H 0.31016 0.83463 0.82495 0.0
H78 H 0.2798 0.8403 0.78558 0.0
H79 H 0.26222 0.77577 0.7789 0.0
C80 C 0.73828 0.80889 0.25003 0.0
C81 C 0.75503 0.80472 0.22772 0.0
C82 C 0.702 0.80322 0.2049 0.0
C83 C 0.73707 0.80192 0.2054 0.0
C84 C 0.68539 0.80744 0.22724 0.0
C85 C 0.70332 0.81037 0.24946 0.0
U86 U 0.78974 0.78789 0.30473 0.0
O87 O 0.83246 0.80111 0.32542 0.0
O88 O 0.78601 0.79368 0.34501 0.0
C89 C 0.81552 0.80262 0.34621 0.0
C90 C 0.75659 0.81172 0.27398 0.0
C91 C 0.8161 0.82279 0.35804 0.0
C92 C 0.80717 0.85937 0.35628 0.0
C93 C 0.80734 0.84039 0.34453 0.0
C94 C 0.82439 0.84334 0.39514 0.0
C95 C 0.81547 0.86105 0.3818 0.0
C96 C 0.8247 0.82443 0.38336 0.0
C97 C 0.80846 0.72987 0.30123 0.0
C98 C 0.8492 0.71001 0.32466 0.0
C99 C 0.80922 0.69306 0.2974 0.0
C100 C 0.79536 0.71185 0.29108 0.0
C101 C 0.83657 0.69189 0.31406 0.0
C102 C 0.83526 0.72886 0.3183 0.0
C103 C 0.79458 0.74937 0.29257 0.0
O104 O 0.74299 0.80293 0.29357 0.0
O105 O 0.78928 0.80986 0.27354 0.0
O106 O 0.81619 0.76347 0.28565 0.0
O107 O 0.76956 0.75656 0.30535 0.0
H108 H 0.782 0.80359 0.22743 0.0
H109 H 0.75071 0.79895 0.1885 0.0
H110 H 0.65838 0.80821 0.22769 0.0
H111 H 0.68975 0.81363 0.26632 0.0
H112 H 0.79989 0.87265 0.34554 0.0
H113 H 0.80037 0.83941 0.32497 0.0
H114 H 0.83135 0.84412 0.41471 0.0
H115 H 0.83151 0.81103 0.3941 0.0
H116 H 0.86997 0.70963 0.3378 0.0
H117 H 0.79912 0.67951 0.28862 0.0
H118 H 0.77475 0.71235 0.27779 0.0
H119 H 0.84566 0.74262 0.3264 0.0
C120 C 0.7812 0.20987 0.70166 0.0
C121 C 0.81319 0.2032 0.69508 0.0
C122 C 0.78856 0.17629 0.66943 0.0
C123 C 0.8168 0.18656 0.67917 0.0
C124 C 0.75664 0.18312 0.67589 0.0
C125 C 0.75304 0.19965 0.69188 0.0
U126 U 0.79023 0.26543 0.72492 0.0
O127 O 0.7535 0.28427 0.74395 0.0
O128 O 0.80058 0.27645 0.76295 0.0
C129 C 0.77147 0.28538 0.76459 0.0
C130 C 0.7764 0.22649 0.7198 0.0
C131 C 0.75318 0.282 0.78786 0.0
C132 C 0.72152 0.2604 0.8162 0.0
C133 C 0.74025 0.26281 0.79442 0.0
C134 C 0.72901 0.29626 0.82507 0.0
C135 C 0.71543 0.27717 0.83167 0.0
C136 C 0.74771 0.29862 0.80339 0.0
C137 C 0.83265 0.30785 0.68963 0.0
C138 C 0.83517 0.34133 0.70861 0.0
C139 C 0.86043 0.33596 0.66836 0.0
C140 C 0.85022 0.31552 0.66909 0.0
C141 C 0.85323 0.34909 0.68821 0.0
C142 C 0.82499 0.32091 0.70931 0.0
C143 C 0.82256 0.28627 0.69076 0.0
O144 O 0.80313 0.23341 0.73164 0.0
O145 O 0.75567 0.24095 0.71297 0.0
O146 O 0.79014 0.28289 0.6897 0.0
O147 O 0.83766 0.2755 0.70823 0.0
H148 H 0.83545 0.21069 0.70234 0.0
H149 H 0.84173 0.18183 0.67433 0.0
H150 H 0.73437 0.17542 0.66897 0.0
H151 H 0.72811 0.2043 0.69688 0.0
H152 H 0.71167 0.24546 0.82086 0.0
H153 H 0.7443 0.2498 0.78258 0.0
H154 H 0.72435 0.30957 0.83624 0.0
H155 H 0.75741 0.31356 0.79851 0.0
H156 H 0.82958 0.3509 0.72435 0.0
H157 H 0.87394 0.34149 0.65223 0.0
H158 H 0.85621 0.30567 0.65369 0.0
H159 H 0.81144 0.31523 0.72536 0.0
C160 C 0.80044 0.72221 0.719 0.0
C161 C 0.83096 0.72292 0.70631 0.0
C162 C 0.82976 0.68599 0.702 0.0
C163 C 0.84551 0.70497 0.69797 0.0
C164 C 0.7986 0.68546 0.71386 0.0
C165 C 0.78418 0.70339 0.72234 0.0
U166 U 0.77865 0.77944 0.72036 0.0
O167 O 0.73357 0.79404 0.73449 0.0
O168 O 0.78232 0.80051 0.75202 0.0
C169 C 0.74983 0.80298 0.7529 0.0
C170 C 0.78618 0.74054 0.73037 0.0
C171 C 0.73489 0.80061 0.77768 0.0
C172 C 0.71226 0.77942 0.81092 0.0
C173 C 0.72796 0.78129 0.78779 0.0
C174 C 0.71116 0.81614 0.8143 0.0
C175 C 0.70337 0.79685 0.82432 0.0
C176 C 0.72676 0.81798 0.79118 0.0
C177 C 0.79839 0.81607 0.66715 0.0
C178 C 0.77816 0.85086 0.66693 0.0
C179 C 0.81464 0.83958 0.63417 0.0
C180 C 0.81602 0.82027 0.64526 0.0
C181 C 0.79547 0.85509 0.64473 0.0
C182 C 0.77961 0.83151 0.67804 0.0
C183 C 0.79937 0.79551 0.6782 0.0
O184 O 0.80758 0.75471 0.73755 0.0
O185 O 0.75916 0.7479 0.7196 0.0
O186 O 0.77015 0.78642 0.68061 0.0
O187 O 0.81877 0.79343 0.69801 0.0
H188 H 0.84393 0.73727 0.70334 0.0
H189 H 0.86932 0.70591 0.68859 0.0
H190 H 0.78596 0.6711 0.71745 0.0
H191 H 0.76066 0.70249 0.73213 0.0
H192 H 0.70687 0.76435 0.81824 0.0
H193 H 0.73428 0.7677 0.77764 0.0
H194 H 0.70425 0.82986 0.82394 0.0
H195 H 0.73194 0.83301 0.78362 0.0
H196 H 0.76296 0.86236 0.67546 0.0
H197 H 0.82877 0.84239 0.61735 0.0
H198 H 0.83078 0.80857 0.63667 0.0
H199 H 0.76583 0.82853 0.695 0.0
C200 C 0.73631 0.24394 0.24962 0.0
C201 C 0.73048 0.26339 0.23964 0.0
C202 C 0.70378 0.24835 0.20295 0.0
C203 C 0.71429 0.26558 0.2165 0.0
C204 C 0.71054 0.22891 0.21281 0.0
C205 C 0.72663 0.22675 0.23596 0.0
U206 U 0.78116 0.26486 0.30756 0.0
O207 O 0.77247 0.25776 0.3472 0.0
O208 O 0.82097 0.25112 0.33057 0.0
C209 C 0.80151 0.24884 0.35003 0.0
C210 C 0.75148 0.24131 0.27453 0.0
C211 C 0.80016 0.22829 0.36126 0.0
C212 C 0.79643 0.19144 0.3575 0.0
C213 C 0.7982 0.2108 0.3464 0.0
C214 C 0.79798 0.20689 0.39838 0.0
C215 C 0.79637 0.18923 0.38367 0.0
C216 C 0.79993 0.22618 0.38728 0.0
C217 C 0.80398 0.32235 0.30906 0.0
C218 C 0.85023 0.34048 0.32909 0.0
C219 C 0.80173 0.35904 0.31454 0.0
C220 C 0.78706 0.34083 0.3063 0.0
C221 C 0.83379 0.35914 0.32557 0.0
C222 C 0.83545 0.32226 0.32098 0.0
C223 C 0.78938 0.30382 0.29768 0.0
O224 O 0.78405 0.24389 0.27584 0.0
O225 O 0.73564 0.25005 0.29284 0.0
O226 O 0.7623 0.29629 0.30809 0.0
O227 O 0.8105 0.28977 0.29084 0.0
H228 H 0.73798 0.27684 0.24993 0.0
H229 H 0.70974 0.28075 0.20929 0.0
H230 H 0.70239 0.21534 0.20303 0.0
H231 H 0.73094 0.21162 0.24343 0.0
H232 H 0.79549 0.17822 0.34558 0.0
H233 H 0.79805 0.2121 0.32623 0.0
H234 H 0.79726 0.20586 0.41854 0.0
H235 H 0.80104 0.2395 0.39905 0.0
H236 H 0.87475 0.34002 0.33784 0.0
H237 H 0.78852 0.37314 0.31137 0.0
H238 H 0.76283 0.34127 0.29708 0.0
H239 H 0.84898 0.30819 0.32349 0.0
C240 C 0.2067 0.22732 0.66327 0.0
C241 C 0.21093 0.20959 0.67773 0.0
C242 C 0.21106 0.18893 0.64009 0.0
C243 C 0.21298 0.19057 0.66626 0.0
C244 C 0.20719 0.20683 0.62575 0.0
C245 C 0.20496 0.22579 0.63724 0.0
U246 U 0.22695 0.26271 0.71724 0.0
O247 O 0.24339 0.29477 0.7177 0.0
O248 O 0.1968 0.28565 0.7362 0.0
C249 C 0.21663 0.30075 0.72951 0.0
C250 C 0.20477 0.2475 0.67498 0.0
C251 C 0.20009 0.31944 0.72031 0.0
C252 C 0.19211 0.34649 0.68948 0.0
C253 C 0.20658 0.32796 0.69666 0.0
C254 C 0.16426 0.34807 0.72926 0.0
C255 C 0.17081 0.35678 0.70574 0.0
C256 C 0.17876 0.32966 0.73644 0.0
C257 C 0.27681 0.24124 0.77257 0.0
C258 C 0.29224 0.2616 0.80864 0.0
C259 C 0.31228 0.22709 0.80523 0.0
C260 C 0.29518 0.22501 0.78249 0.0
C261 C 0.31132 0.24547 0.81844 0.0
C262 C 0.27517 0.25951 0.78583 0.0
C263 C 0.26035 0.23902 0.74809 0.0
O264 O 0.1865 0.24845 0.69518 0.0
O265 O 0.23333 0.25744 0.67703 0.0
O266 O 0.27438 0.2492 0.72972 0.0
O267 O 0.2276 0.24031 0.74796 0.0
H268 H 0.2126 0.21045 0.69789 0.0
H269 H 0.21567 0.17715 0.67793 0.0
H270 H 0.20632 0.20626 0.60556 0.0
H271 H 0.20206 0.23931 0.62574 0.0
H272 H 0.19743 0.3527 0.67115 0.0
H273 H 0.22302 0.32044 0.68383 0.0
H274 H 0.14842 0.3557 0.74241 0.0
H275 H 0.17369 0.32354 0.75487 0.0
H276 H 0.2913 0.27601 0.81823 0.0
H277 H 0.32643 0.21432 0.81242 0.0
H278 H 0.29661 0.21079 0.7725 0.0
H279 H 0.26112 0.27222 0.77835 0.0
C280 C 0.18699 0.73873 0.34098 0.0
C281 C 0.17666 0.72776 0.3198 0.0
C282 C 0.1653 0.6978 0.34555 0.0
C283 C 0.16574 0.70755 0.32209 0.0
C284 C 0.17651 0.70865 0.36663 0.0
C285 C 0.18714 0.72896 0.36436 0.0
U286 U 0.22825 0.78105 0.30362 0.0
O287 O 0.21461 0.81307 0.29712 0.0
O288 O 0.26304 0.80565 0.31442 0.0
C289 C 0.24224 0.82007 0.30759 0.0
C290 C 0.19786 0.76022 0.3388 0.0
C291 C 0.23853 0.83722 0.3249 0.0
C292 C 0.23831 0.85145 0.36667 0.0
C293 C 0.23986 0.83457 0.35092 0.0
C294 C 0.23337 0.87372 0.33062 0.0
C295 C 0.23537 0.87128 0.3567 0.0
C296 C 0.23497 0.85687 0.31494 0.0
C297 C 0.26293 0.7667 0.23982 0.0
C298 C 0.28852 0.79113 0.2114 0.0
C299 C 0.29264 0.75499 0.20354 0.0
C300 C 0.27404 0.75082 0.2249 0.0
C301 C 0.30047 0.77518 0.19671 0.0
C302 C 0.26999 0.78692 0.23289 0.0
C303 C 0.24542 0.76177 0.26307 0.0
O304 O 0.23036 0.76333 0.33874 0.0
O305 O 0.18188 0.77116 0.32191 0.0
O306 O 0.21604 0.77015 0.26583 0.0
O307 O 0.26407 0.76238 0.28339 0.0
H308 H 0.1768 0.73485 0.30148 0.0
H309 H 0.15763 0.69952 0.30547 0.0
H310 H 0.17624 0.7016 0.38497 0.0
H311 H 0.19522 0.7371 0.3809 0.0
H312 H 0.24023 0.84901 0.38665 0.0
H313 H 0.24261 0.81953 0.35903 0.0
H314 H 0.23053 0.88867 0.32229 0.0
H315 H 0.23382 0.85924 0.2949 0.0
H316 H 0.29443 0.80681 0.20673 0.0
H317 H 0.30118 0.7424 0.19246 0.0
H318 H 0.26878 0.73513 0.23 0.0
H319 H 0.26173 0.79937 0.24432 0.0
H320 H 0.00798 0.45494 0.34985 0.0
H321 H 0.95267 0.51 0.35396 0.0
H322 H 0.05936 0.51167 0.33944 0.0
H323 H 0.05831 0.54151 0.35765 0.0
H324 H 0.00272 0.59658 0.35218 0.0
H325 H 0.95291 0.54025 0.3368 0.0
C326 C 0.00747 0.47146 0.34943 0.0
C327 C 0.03702 0.48233 0.34528 0.0
C328 C 0.97708 0.48138 0.35181 0.0
C329 C 0.97638 0.50274 0.35103 0.0
C330 C 0.00608 0.51435 0.34717 0.0
C331 C 0.0363 0.50367 0.34356 0.0
C332 C 0.00558 0.53735 0.34747 0.0
C333 C 0.03484 0.54887 0.35351 0.0
C334 C 0.03382 0.5702 0.35507 0.0
C335 C 0.00356 0.5801 0.35112 0.0
C336 C 0.9745 0.56933 0.34496 0.0
C337 C 0.97558 0.54811 0.34249 0.0
H338 H 0.00375 0.59463 0.67334 0.0
H339 H 0.05836 0.54031 0.68785 0.0
H340 H 0.95107 0.53782 0.67393 0.0
H341 H 0.95275 0.50806 0.6908 0.0
H342 H 0.00768 0.45296 0.68619 0.0
H343 H 0.05908 0.50938 0.67432 0.0
C344 C 0.00413 0.57815 0.67484 0.0
C345 C 0.97415 0.56718 0.67365 0.0
C346 C 0.03437 0.56844 0.67959 0.0
C347 C 0.03476 0.54724 0.68304 0.0
C348 C 0.00502 0.53538 0.68042 0.0
C349 C 0.97459 0.54587 0.67596 0.0
C350 C 0.0058 0.51238 0.68234 0.0
C351 C 0.97633 0.50083 0.68735 0.0
C352 C 0.9771 0.47949 0.68847 0.0
C353 C 0.00717 0.46947 0.68513 0.0
C354 C 0.0366 0.48024 0.68045 0.0
C355 C 0.03601 0.50158 0.67883 0.0
H356 H 0.20921 0.09568 0.50564 0.0
H357 H 0.23026 0.04066 0.54572 0.0
H358 H 0.20125 0.03907 0.4673 0.0
H359 H 0.22997 1.01085 0.46714 0.0
H360 H 0.23037 0.95457 0.50756 0.0
H361 H 0.20937 1.00941 0.54656 0.0
C362 C 0.21105 0.07921 0.50596 0.0
C363 C 0.20483 0.06841 0.48408 0.0
C364 C 0.21991 0.06928 0.52816 0.0
C365 C 0.22235 0.04795 0.52851 0.0
C366 C 0.21594 0.03642 0.50662 0.0
C367 C 0.20705 0.04709 0.48438 0.0
C368 C 0.21929 1.01353 0.50685 0.0
C369 C 0.2265 1.00286 0.48465 0.0
C370 C 0.23036 0.98163 0.48489 0.0
C371 C 0.22786 0.97099 0.50745 0.0
C372 C 0.22101 0.98094 0.52973 0.0
C373 C 0.21585 1.00209 0.52931 0.0
H374 H 0.5049 0.78959 0.10033 0.0
H375 H 0.55788 0.78144 0.03236 0.0
H376 H 0.45221 0.79556 0.03089 0.0
H377 H 0.45207 0.78024 0.99512 0.0
H378 H 0.50427 0.78782 0.92651 0.0
H379 H 0.55781 0.79567 0.99533 0.0
C380 C 0.50495 0.78927 0.0801 0.0
C381 C 0.47507 0.79238 0.06689 0.0
C382 C 0.53487 0.78573 0.0677 0.0
C383 C 0.53476 0.78501 0.04151 0.0
C384 C 0.50504 0.78838 0.0275 0.0
C385 C 0.47531 0.79224 0.0407 0.0
C386 C 0.505 0.78791 0.99939 0.0
C387 C 0.47517 0.78384 0.98572 0.0
C388 C 0.47476 0.78406 0.95952 0.0
C389 C 0.50451 0.78769 0.94676 0.0
C390 C 0.53448 0.79152 0.95963 0.0
C391 C 0.53464 0.79181 0.98584 0.0
H392 H 0.79116 0.09478 0.51771 0.0
H393 H 0.80944 0.03879 0.55623 0.0
H394 H 0.78362 0.03911 0.47722 0.0
H395 H 0.8101 1.0102 0.47651 0.0
H396 H 0.81114 0.95359 0.51637 0.0
H397 H 0.78877 1.00784 0.55589 0.0
C398 C 0.79256 0.07831 0.51745 0.0
C399 C 0.78703 0.06806 0.49501 0.0
C400 C 0.80018 0.06782 0.53951 0.0
C401 C 0.80231 0.04649 0.53911 0.0
C402 C 0.7966 0.03548 0.51671 0.0
C403 C 0.78886 0.04672 0.49467 0.0
C404 C 0.79944 1.01256 0.51632 0.0
C405 C 0.80663 1.00208 0.49392 0.0
C406 C 0.81053 0.98084 0.49392 0.0
C407 C 0.80806 0.96998 0.51632 0.0
C408 C 0.8007 0.97974 0.53855 0.0
C409 C 0.79559 1.00083 0.53852 0.0
H410 H 0.50276 0.26127 0.09916 0.0
H411 H 0.55621 0.2564 0.03088 0.0
H412 H 0.45183 0.27363 0.0302 0.0
H413 H 0.45187 0.26091 0.99245 0.0
H414 H 0.50678 0.27329 0.92592 0.0
H415 H 0.55825 0.27412 0.99624 0.0
C416 C 0.50317 0.26239 0.07896 0.0
C417 C 0.47388 0.26734 0.06591 0.0
C418 C 0.53291 0.25875 0.0664 0.0
C419 C 0.53326 0.26003 0.04023 0.0
C420 C 0.50417 0.26538 0.02645 0.0
C421 C 0.47448 0.26902 0.03979 0.0
C422 C 0.50488 0.26736 0.99844 0.0
C423 C 0.47535 0.26497 0.98385 0.0
C424 C 0.47576 0.26786 0.95784 0.0
C425 C 0.50613 0.27206 0.94611 0.0
C426 C 0.53589 0.27374 0.95987 0.0
C427 C 0.53513 0.2718 0.98596 0.0
C428 C 0.12427 0.38243 0.31751 0.0
C429 C 0.15919 0.38081 0.31793 0.0
C430 C 0.10868 0.40102 0.32223 0.0
C431 C 0.12844 0.41851 0.32754 0.0
C432 C 0.16371 0.41701 0.32807 0.0
C433 C 0.17866 0.3982 0.32326 0.0
C434 C 0.07097 0.40193 0.32145 0.0
C435 C 0.18559 0.43526 0.33381 0.0
C436 C 0.08039 0.46754 0.31804 0.0
C437 C 0.06781 0.47046 0.34199 0.0
C438 C 0.10234 0.45149 0.31331 0.0
C439 C 0.11175 0.43813 0.33304 0.0
C440 C 0.10128 0.44219 0.35764 0.0
C441 C 0.07928 0.45825 0.36178 0.0
C442 C 0.11305 0.44778 0.28685 0.0
C443 C 0.11085 0.42849 0.37926 0.0
H444 H 0.10903 0.36921 0.31299 0.0
H445 H 0.20566 0.39705 0.32386 0.0
H446 H 0.06153 0.40688 0.33979 0.0
H447 H 0.06273 0.4133 0.30732 0.0
H448 H 0.05924 0.38701 0.31684 0.0
H449 H 0.21263 0.43168 0.33311 0.0
H450 H 0.18029 0.44772 0.32029 0.0
H451 H 0.1799 0.44106 0.35266 0.0
H452 H 0.07102 0.47679 0.30269 0.0
H453 H 0.06915 0.46041 0.38025 0.0
H454 H 0.09925 0.43438 0.27935 0.0
H455 H 0.14009 0.44433 0.28622 0.0
H456 H 0.10794 0.46105 0.27447 0.0
H457 H 0.09706 0.41382 0.37765 0.0
H458 H 0.10486 0.43535 0.39753 0.0
H459 H 0.13793 0.42509 0.37896 0.0
C460 C 0.17641 0.6553 0.69842 0.0
C461 C 0.15738 0.67224 0.70495 0.0
C462 C 0.16115 0.6363 0.69378 0.0
C463 C 0.12604 0.63418 0.69577 0.0
C464 C 0.10673 0.65122 0.70236 0.0
C465 C 0.12261 0.66999 0.70684 0.0
C466 C 0.18252 0.61855 0.68662 0.0
C467 C 0.0692 0.64962 0.70474 0.0
C468 C 0.07379 0.59426 0.66239 0.0
C469 C 0.06469 0.58138 0.6822 0.0
C470 C 0.09592 0.61067 0.66614 0.0
C471 C 0.10896 0.61439 0.69037 0.0
C472 C 0.10188 0.60046 0.71001 0.0
C473 C 0.07978 0.58404 0.70566 0.0
C474 C 0.10302 0.62497 0.64461 0.0
C475 C 0.11535 0.60384 0.73609 0.0
H476 H 0.20327 0.65694 0.69672 0.0
H477 H 0.10778 0.68288 0.7123 0.0
H478 H 0.17871 0.60574 0.69992 0.0
H479 H 0.17494 0.61304 0.66785 0.0
H480 H 0.20955 0.62258 0.68636 0.0
H481 H 0.05788 0.66422 0.71036 0.0
H482 H 0.05782 0.64491 0.68668 0.0
H483 H 0.06262 0.63779 0.71878 0.0
H484 H 0.06188 0.59222 0.64428 0.0
H485 H 0.07235 0.57423 0.72103 0.0
H486 H 0.13005 0.62879 0.64384 0.0
H487 H 0.08939 0.63938 0.64732 0.0
H488 H 0.09504 0.61841 0.62642 0.0
H489 H 0.14238 0.60774 0.7357 0.0
H490 H 0.11166 0.59025 0.74824 0.0
H491 H 0.10229 0.61685 0.74454 0.0
C492 C 0.8331 0.65419 0.32272 0.0
C493 C 0.85257 0.67191 0.31943 0.0
C494 C 0.84805 0.63516 0.32679 0.0
C495 C 0.88332 0.6338 0.32765 0.0
C496 C 0.90309 0.65163 0.32446 0.0
C497 C 0.88751 0.67041 0.32038 0.0
C498 C 0.82615 0.61654 0.33022 0.0
C499 C 0.94082 0.65087 0.32528 0.0
C500 C 0.931 0.59209 0.36113 0.0
C501 C 0.9437 0.5812 0.34104 0.0
C502 C 0.90912 0.60836 0.35715 0.0
C503 C 0.89996 0.61393 0.33245 0.0
C504 C 0.91054 0.60186 0.31224 0.0
C505 C 0.93243 0.5856 0.3168 0.0
C506 C 0.89836 0.62068 0.37926 0.0
C507 C 0.90113 0.60717 0.28565 0.0
H508 H 0.80609 0.65521 0.32229 0.0
H509 H 0.90277 0.68392 0.31744 0.0
H510 H 0.83224 0.60497 0.31606 0.0
H511 H 0.83102 0.60959 0.34883 0.0
H512 H 0.79912 0.62009 0.32861 0.0
H513 H 0.95256 0.66608 0.32236 0.0
H514 H 0.94943 0.64475 0.34359 0.0
H515 H 0.94986 0.64046 0.31069 0.0
H516 H 0.94015 0.5888 0.37985 0.0
H517 H 0.94275 0.57738 0.30126 0.0
H518 H 0.87129 0.62405 0.37798 0.0
H519 H 0.91209 0.63543 0.37933 0.0
H520 H 0.90349 0.61272 0.39725 0.0
H521 H 0.8741 0.6106 0.28405 0.0
H522 H 0.90701 0.5947 0.27259 0.0
H523 H 0.91514 0.62103 0.27977 0.0
C524 C 0.89818 0.37513 0.6802 0.0
C525 C 0.86566 0.37056 0.68813 0.0
C526 C 0.91099 0.39506 0.68107 0.0
C527 C 0.89085 0.41093 0.69011 0.0
C528 C 0.8578 0.40654 0.69776 0.0
C529 C 0.8456 0.3864 0.6967 0.0
C530 C 0.94647 0.39905 0.6728 0.0
C531 C 0.83556 0.42303 0.70744 0.0
C532 C 0.94499 0.45439 0.71354 0.0
C533 C 0.94694 0.46671 0.69216 0.0
C534 C 0.92425 0.43704 0.71399 0.0
C535 C 0.90535 0.43184 0.6924 0.0
C536 C 0.90486 0.44536 0.67165 0.0
C537 C 0.92576 0.46269 0.67178 0.0
C538 C 0.92532 0.42323 0.73662 0.0
C539 C 0.88495 0.44048 0.64833 0.0
H540 H 0.91404 0.36298 0.67392 0.0
H541 H 0.8203 0.38306 0.70259 0.0
H542 H 0.9469 0.41101 0.65808 0.0
H543 H 0.96175 0.40472 0.68876 0.0
H544 H 0.95841 0.38519 0.66542 0.0
H545 H 0.80994 0.41733 0.71147 0.0
H546 H 0.84655 0.42944 0.72482 0.0
H547 H 0.83385 0.43567 0.69365 0.0
H548 H 0.96178 0.4574 0.72915 0.0
H549 H 0.92777 0.47205 0.65509 0.0
H550 H 0.94041 0.40965 0.73241 0.0
H551 H 0.89984 0.41784 0.74149 0.0
H552 H 0.93667 0.43093 0.75309 0.0
H553 H 0.89775 0.42836 0.63791 0.0
H554 H 0.88241 0.45398 0.63587 0.0
H555 H 0.85965 0.43468 0.65305 0.0
C556 C 0.18162 0.15295 0.37525 0.0
C557 C 0.19613 0.17014 0.38659 0.0
C558 C 0.18132 0.1339 0.38748 0.0
C559 C 0.196 0.13198 0.41156 0.0
C560 C 0.21142 0.14919 0.42278 0.0
C561 C 0.21125 0.168 0.4102 0.0
C562 C 0.16456 0.11596 0.37494 0.0
C563 C 0.22763 0.14784 0.44835 0.0
C564 C 0.16999 0.09322 0.46047 0.0
C565 C 0.19762 0.08031 0.46109 0.0
C566 C 0.16777 0.10916 0.44296 0.0
C567 C 0.19405 0.1124 0.42584 0.0
C568 C 0.22066 0.09835 0.42509 0.0
C569 C 0.2221 0.08241 0.44276 0.0
C570 C 0.13876 0.12358 0.44431 0.0
C571 C 0.24914 0.10119 0.40715 0.0
H572 H 0.1697 0.15449 0.35708 0.0
H573 H 0.22306 0.1811 0.4189 0.0
H574 H 0.18179 0.10287 0.37454 0.0
H575 H 0.14237 0.1111 0.38578 0.0
H576 H 0.15638 0.11957 0.35553 0.0
H577 H 0.23967 0.16241 0.45404 0.0
H578 H 0.20861 0.1436 0.46242 0.0
H579 H 0.24682 0.13578 0.44865 0.0
H580 H 0.15124 0.09168 0.47483 0.0
H581 H 0.24373 0.07261 0.44351 0.0
H582 H 0.1287 0.12698 0.42538 0.0
H583 H 0.14747 0.13817 0.45253 0.0
H584 H 0.11822 0.11736 0.45598 0.0
H585 H 0.23964 0.10506 0.38819 0.0
H586 H 0.26474 0.08736 0.40603 0.0
H587 H 0.26528 0.11402 0.41347 0.0
C588 C 0.35534 0.80879 0.85058 0.0
C589 C 0.32507 0.79815 0.84732 0.0
C590 C 0.37623 0.80499 0.87123 0.0
C591 C 0.36672 0.79012 0.88914 0.0
C592 C 0.33593 0.77955 0.88626 0.0
C593 C 0.31547 0.78367 0.86534 0.0
C594 C 0.40895 0.81656 0.87354 0.0
C595 C 0.32493 0.76366 0.90501 0.0
C596 C 0.44191 0.76942 0.92391 0.0
C597 C 0.44321 0.78201 0.9449 0.0
C598 C 0.41564 0.77081 0.90647 0.0
C599 C 0.39008 0.78517 0.9101 0.0
C600 C 0.3898 0.79669 0.93234 0.0
C601 C 0.41642 0.79495 0.94954 0.0
C602 C 0.41675 0.75807 0.88317 0.0
C603 C 0.3629 0.81207 0.937 0.0
H604 H 0.36322 0.81976 0.83656 0.0
H605 H 0.29194 0.77554 0.86308 0.0
H606 H 0.41057 0.8243 0.89184 0.0
H607 H 0.4301 0.80582 0.87271 0.0
H608 H 0.41206 0.82815 0.85852 0.0
H609 H 0.29945 0.75762 0.90083 0.0
H610 H 0.34268 0.75082 0.90514 0.0
H611 H 0.32522 0.77015 0.92406 0.0
H612 H 0.46246 0.75923 0.92047 0.0
H613 H 0.41744 0.80476 0.9657 0.0
H614 H 0.42328 0.76793 0.867 0.0
H615 H 0.39192 0.7511 0.87915 0.0
H616 H 0.43554 0.7458 0.88474 0.0
H617 H 0.36681 0.82548 0.92463 0.0
H618 H 0.36319 0.81731 0.95666 0.0
H619 H 0.33784 0.8056 0.93253 0.0
C620 C 0.80069 0.88244 0.41854 0.0
C621 C 0.8145 0.88107 0.39468 0.0
C622 C 0.80073 0.90091 0.43151 0.0
C623 C 0.81501 0.91857 0.42043 0.0
C624 C 0.82829 0.91744 0.3961 0.0
C625 C 0.82782 0.89872 0.38348 0.0
C626 C 0.78604 0.90141 0.45734 0.0
C627 C 0.84381 0.93587 0.38368 0.0
C628 C 0.79024 0.96725 0.45301 0.0
C629 C 0.81596 0.9691 0.47084 0.0
C630 C 0.79066 0.95167 0.43514 0.0
C631 C 0.81749 0.93775 0.43514 0.0
C632 C 0.84486 0.94075 0.45176 0.0
C633 C 0.84367 0.95632 0.46948 0.0
C634 C 0.76103 0.94909 0.41773 0.0
C635 C 0.87415 0.92646 0.4523 0.0
H636 H 0.78978 0.86898 0.42713 0.0
H637 H 0.83873 0.89778 0.36512 0.0
H638 H 0.80583 0.90539 0.4712 0.0
H639 H 0.76665 0.91331 0.45824 0.0
H640 H 0.77463 0.88659 0.46286 0.0
H641 H 0.85078 0.93289 0.36405 0.0
H642 H 0.82628 0.94882 0.38394 0.0
H643 H 0.8666 0.94061 0.3942 0.0
H644 H 0.7686 0.97695 0.45428 0.0
H645 H 0.86346 0.9577 0.48339 0.0
H646 H 0.7456 0.93595 0.42407 0.0
H647 H 0.76933 0.94581 0.39851 0.0
H648 H 0.74507 0.96281 0.41722 0.0
H649 H 0.86614 0.91157 0.46024 0.0
H650 H 0.89528 0.93245 0.4638 0.0
H651 H 0.88315 0.92371 0.43313 0.0
C652 C 0.70109 0.28583 0.87588 0.0
C653 C 0.69352 0.27519 0.85385 0.0
C654 C 0.6788 0.28584 0.89594 0.0
C655 C 0.64826 0.27489 0.89398 0.0
C656 C 0.64114 0.26341 0.87226 0.0
C657 C 0.66379 0.26374 0.85246 0.0
C658 C 0.68734 0.29821 0.9188 0.0
C659 C 0.60888 0.25145 0.86947 0.0
C660 C 0.59355 0.26238 0.94968 0.0
C661 C 0.56773 0.27641 0.9463 0.0
C662 C 0.62092 0.26226 0.93348 0.0
C663 C 0.62248 0.27661 0.91364 0.0
C664 C 0.59754 0.29164 0.91125 0.0
C665 C 0.5704 0.2913 0.92756 0.0
C666 C 0.64699 0.24599 0.93663 0.0
C667 C 0.59848 0.30739 0.89059 0.0
H668 H 0.72428 0.29444 0.87729 0.0
H669 H 0.65751 0.25567 0.83546 0.0
H670 H 0.66982 0.31112 0.92014 0.0
H671 H 0.68438 0.28882 0.93594 0.0
H672 H 0.71327 0.3044 0.91836 0.0
H673 H 0.60825 0.24211 0.85229 0.0
H674 H 0.60527 0.24126 0.88584 0.0
H675 H 0.58749 0.26205 0.86876 0.0
H676 H 0.59134 0.25075 0.96404 0.0
H677 H 0.55051 0.30223 0.92507 0.0
H678 H 0.67249 0.2527 0.93555 0.0
H679 H 0.64433 0.23488 0.92124 0.0
H680 H 0.64455 0.23768 0.95466 0.0
H681 H 0.6233 0.31505 0.89011 0.0
H682 H 0.57898 0.31913 0.89274 0.0
H683 H 0.59451 0.29985 0.87232 0.0
C684 C 0.21073 0.89947 0.64337 0.0
C685 C 0.19718 0.88207 0.63181 0.0
C686 C 0.21342 0.91812 0.63039 0.0
C687 C 0.20274 0.91936 0.60514 0.0
C688 C 0.18791 0.90209 0.59369 0.0
C689 C 0.18509 0.88377 0.60718 0.0
C690 C 0.22894 0.93624 0.6434 0.0
C691 C 0.17626 0.90267 0.56677 0.0
C692 C 0.19018 0.96819 0.56752 0.0
C693 C 0.21905 0.96847 0.55296 0.0
C694 C 0.18538 0.95306 0.58598 0.0
C695 C 0.20993 0.93789 0.58972 0.0
C696 C 0.24017 0.93914 0.57633 0.0
C697 C 0.2444 0.95445 0.55826 0.0
C698 C 0.15311 0.95253 0.60024 0.0
C699 C 0.26709 0.92338 0.57965 0.0
H700 H 0.22035 0.89838 0.66232 0.0
H701 H 0.17377 0.87063 0.59824 0.0
H702 H 0.25412 0.93934 0.63572 0.0
H703 H 0.21371 0.95002 0.64003 0.0
H704 H 0.23152 0.9337 0.66385 0.0
H705 H 0.16375 0.88827 0.561 0.0
H706 H 0.15861 0.91536 0.56371 0.0
H707 H 0.19797 0.90546 0.55445 0.0
H708 H 0.1705 0.97896 0.56344 0.0
H709 H 0.26692 0.95479 0.54719 0.0
H710 H 0.15793 0.94936 0.62032 0.0
H711 H 0.13685 0.94009 0.59299 0.0
H712 H 0.13935 0.96706 0.59839 0.0
H713 H 0.27334 0.92123 0.5997 0.0
H714 H 0.29029 0.92758 0.56957 0.0
H715 H 0.25782 0.90854 0.57247 0.0
C716 C 0.69127 0.78477 0.1645 0.0
C717 C 0.68258 0.80007 0.18131 0.0
C718 C 0.6717 0.7809 0.14304 0.0
C719 C 0.64257 0.79243 0.13847 0.0
C720 C 0.63428 0.80829 0.15495 0.0
C721 C 0.65448 0.81199 0.17601 0.0
C722 C 0.68159 0.76405 0.12574 0.0
C723 C 0.60337 0.82094 0.15082 0.0
C724 C 0.59415 0.79592 0.0773 0.0
C725 C 0.56614 0.78375 0.08272 0.0
C726 C 0.62079 0.7977 0.09454 0.0
C727 C 0.61911 0.78717 0.11767 0.0
C728 C 0.5922 0.77354 0.12221 0.0
C729 C 0.56616 0.77191 0.10461 0.0
C730 C 0.64941 0.81205 0.08877 0.0
C731 C 0.58942 0.76195 0.14656 0.0
H732 H 0.71279 0.77537 0.16848 0.0
H733 H 0.64801 0.82417 0.18853 0.0
H734 H 0.6635 0.75121 0.12735 0.0
H735 H 0.68085 0.76941 0.10605 0.0
H736 H 0.707 0.75828 0.1301 0.0
H737 H 0.60107 0.83313 0.16491 0.0
H738 H 0.60377 0.82807 0.13199 0.0
H739 H 0.58077 0.81104 0.1517 0.0
H740 H 0.59425 0.8051 0.0604 0.0
H741 H 0.54479 0.76219 0.10862 0.0
H742 H 0.67364 0.80519 0.09426 0.0
H743 H 0.64668 0.8262 0.09967 0.0
H744 H 0.6501 0.81619 0.06864 0.0
H745 H 0.61327 0.7543 0.15125 0.0
H746 H 0.56909 0.75031 0.14602 0.0
H747 H 0.58421 0.77273 0.16183 0.0
C748 C 0.81583 0.1434 0.65775 0.0
C749 C 0.79224 0.15856 0.65252 0.0
C750 C 0.8195 0.12666 0.64182 0.0
C751 C 0.79927 0.12511 0.62004 0.0
C752 C 0.77526 0.14029 0.61478 0.0
C753 C 0.77201 0.15676 0.63107 0.0
C754 C 0.84521 0.11075 0.64817 0.0
C755 C 0.75339 0.13936 0.59164 0.0
C756 C 0.82648 0.09691 0.56239 0.0
C757 C 0.80523 0.0798 0.56269 0.0
C758 C 0.82619 0.11118 0.5817 0.0
C759 C 0.80413 0.10829 0.60191 0.0
C760 C 0.78438 0.09027 0.60323 0.0
C761 C 0.78518 0.07619 0.58356 0.0
C762 C 0.84784 0.13006 0.57955 0.0
C763 C 0.76073 0.08651 0.62453 0.0
H764 H 0.83126 0.14453 0.67446 0.0
H765 H 0.754 0.16851 0.62673 0.0
H766 H 0.83319 0.09547 0.64891 0.0
H767 H 0.86434 0.11036 0.63337 0.0
H768 H 0.85795 0.11369 0.66634 0.0
H769 H 0.73525 0.15203 0.59063 0.0
H770 H 0.76917 0.14003 0.57475 0.0
H771 H 0.73931 0.12474 0.59116 0.0
H772 H 0.84218 0.09965 0.54632 0.0
H773 H 0.76858 0.06305 0.58377 0.0
H774 H 0.86174 0.13281 0.59725 0.0
H775 H 0.8318 0.14346 0.57598 0.0
H776 H 0.86608 0.129 0.56415 0.0
H777 H 0.77345 0.08944 0.64268 0.0
H778 H 0.75062 0.07071 0.62462 0.0
H779 H 0.73947 0.09717 0.62293 0.0
C780 C 0.35327 0.24366 0.17296 0.0
C781 C 0.32419 0.25502 0.17615 0.0
C782 C 0.37419 0.24715 0.15254 0.0
C783 C 0.36595 0.26243 0.13479 0.0
C784 C 0.33632 0.27372 0.13758 0.0
C785 C 0.31579 0.2699 0.15826 0.0
C786 C 0.40566 0.23482 0.15034 0.0
C787 C 0.32668 0.29007 0.119 0.0
C788 C 0.44277 0.28197 0.10149 0.0
C789 C 0.44266 0.26975 0.08017 0.0
C790 C 0.41655 0.28087 0.11858 0.0
C791 C 0.38962 0.26715 0.11425 0.0
C792 C 0.38806 0.25603 0.09171 0.0
C793 C 0.41467 0.25749 0.07486 0.0
C794 C 0.41908 0.29318 0.14221 0.0
C795 C 0.3597 0.24134 0.08633 0.0
H796 H 0.36025 0.23238 0.18688 0.0
H797 H 0.29316 0.27858 0.16045 0.0
H798 H 0.40633 0.22735 0.13187 0.0
H799 H 0.42789 0.24501 0.1517 0.0
H800 H 0.40771 0.22293 0.16511 0.0
H801 H 0.30181 0.29658 0.12296 0.0
H802 H 0.3456 0.30252 0.1194 0.0
H803 H 0.32626 0.28385 0.09982 0.0
H804 H 0.46433 0.29161 0.10546 0.0
H805 H 0.41464 0.24797 0.05843 0.0
H806 H 0.42469 0.28291 0.15823 0.0
H807 H 0.39501 0.30068 0.14605 0.0
H808 H 0.43907 0.305 0.14122 0.0
H809 H 0.36242 0.22767 0.09843 0.0
H810 H 0.35934 0.2364 0.06654 0.0
H811 H 0.33531 0.24828 0.09063 0.0
C812 C 0.8806 0.66416 0.70096 0.0
C813 C 0.84664 0.66675 0.69519 0.0
C814 C 0.89688 0.64593 0.6956 0.0
C815 C 0.87886 0.62985 0.68398 0.0
C816 C 0.84461 0.63238 0.67791 0.0
C817 C 0.82885 0.65077 0.68371 0.0
C818 C 0.93339 0.64386 0.70257 0.0
C819 C 0.82469 0.61571 0.66525 0.0
C820 C 0.93807 0.59336 0.65342 0.0
C821 C 0.94274 0.57892 0.67249 0.0
C822 C 0.91493 0.6091 0.65591 0.0
C823 C 0.89642 0.61056 0.67818 0.0
C824 C 0.89892 0.59494 0.69649 0.0
C825 C 0.92202 0.57921 0.69336 0.0
C826 C 0.9127 0.62519 0.63572 0.0
C827 C 0.87971 0.59587 0.7205 0.0
H828 H 0.89438 0.67629 0.71021 0.0
H829 H 0.80264 0.65273 0.67905 0.0
H830 H 0.93679 0.63068 0.71538 0.0
H831 H 0.94823 0.64093 0.68564 0.0
H832 H 0.94368 0.65769 0.71179 0.0
H833 H 0.79829 0.62007 0.66173 0.0
H834 H 0.83627 0.61191 0.64719 0.0
H835 H 0.825 0.60171 0.67694 0.0
H836 H 0.95427 0.59318 0.63734 0.0
H837 H 0.92596 0.5682 0.70826 0.0
H838 H 0.92611 0.63913 0.642 0.0
H839 H 0.8863 0.62932 0.63198 0.0
H840 H 0.92404 0.6201 0.61804 0.0
H841 H 0.89088 0.60784 0.73259 0.0
H842 H 0.88028 0.58119 0.7309 0.0
H843 H 0.8533 0.6 0.71681 0.0
C844 C 0.8336 0.39429 0.34402 0.0
C845 C 0.8508 0.37871 0.33202 0.0
C846 C 0.84943 0.41299 0.34949 0.0
C847 C 0.88313 0.41625 0.34257 0.0
C848 C 0.90053 0.40057 0.33042 0.0
C849 C 0.88422 0.38202 0.32538 0.0
C850 C 0.8302 0.42922 0.36273 0.0
C851 C 0.93643 0.40342 0.32253 0.0
C852 C 0.92433 0.46794 0.33278 0.0
C853 C 0.94641 0.46863 0.35323 0.0
C854 C 0.90155 0.45165 0.32994 0.0
C855 C 0.90078 0.43585 0.3481 0.0
C856 C 0.92083 0.43759 0.36996 0.0
C857 C 0.94361 0.45389 0.37216 0.0
C858 C 0.88067 0.45042 0.30635 0.0
C859 C 0.92049 0.42132 0.38998 0.0
H860 H 0.80783 0.39178 0.34934 0.0
H861 H 0.89749 0.37021 0.31574 0.0
H862 H 0.84303 0.43316 0.38055 0.0
H863 H 0.82943 0.44328 0.35117 0.0
H864 H 0.80416 0.42434 0.36684 0.0
H865 H 0.94623 0.38985 0.31294 0.0
H866 H 0.9386 0.41672 0.30976 0.0
H867 H 0.95251 0.40656 0.3391 0.0
H868 H 0.92685 0.47918 0.31798 0.0
H869 H 0.9609 0.45438 0.38789 0.0
H870 H 0.85462 0.44576 0.3106 0.0
H871 H 0.89116 0.43871 0.29395 0.0
H872 H 0.88025 0.46515 0.29605 0.0
H873 H 0.89449 0.41663 0.39438 0.0
H874 H 0.93315 0.42649 0.40741 0.0
H875 H 0.9336 0.40768 0.38318 0.0
C876 C 0.122 0.38036 0.70424 0.0
C877 C 0.15547 0.37659 0.69853 0.0
C878 C 0.10743 0.39923 0.6989 0.0
C879 C 0.12671 0.41484 0.68746 0.0
C880 C 0.16034 0.41106 0.68117 0.0
C881 C 0.17434 0.39197 0.68677 0.0
C882 C 0.07135 0.4025 0.70573 0.0
C883 C 0.18163 0.42726 0.66887 0.0
C884 C 0.07028 0.4546 0.65854 0.0
C885 C 0.06752 0.46831 0.67828 0.0
C886 C 0.09209 0.43804 0.66023 0.0
C887 C 0.11118 0.43502 0.68236 0.0
C888 C 0.11076 0.44995 0.70131 0.0
C889 C 0.08887 0.46647 0.69902 0.0
C890 C 0.09199 0.42271 0.63943 0.0
C891 C 0.13074 0.44739 0.72517 0.0
H892 H 0.10707 0.36846 0.71292 0.0
H893 H 0.2003 0.38925 0.68249 0.0
H894 H 0.06959 0.41538 0.71891 0.0
H895 H 0.05652 0.40655 0.68882 0.0
H896 H 0.05981 0.38881 0.71452 0.0
H897 H 0.20684 0.42164 0.66413 0.0
H898 H 0.16919 0.43284 0.65155 0.0
H899 H 0.18458 0.44046 0.6815 0.0
H900 H 0.05337 0.45591 0.64266 0.0
H901 H 0.08625 0.47687 0.71446 0.0
H902 H 0.07705 0.40915 0.64509 0.0
H903 H 0.11771 0.41755 0.63559 0.0
H904 H 0.08092 0.429 0.62193 0.0
H905 H 0.11885 0.4354 0.73688 0.0
H906 H 0.13203 0.46168 0.73608 0.0
H907 H 0.15653 0.44244 0.72117 0.0
C908 C 0.12144 0.6714 0.33639 0.0
C909 C 0.15179 0.6767 0.34809 0.0
C910 C 0.1074 0.65189 0.33926 0.0
C911 C 0.12425 0.63712 0.354 0.0
C912 C 0.15531 0.6422 0.3654 0.0
C913 C 0.16859 0.662 0.36249 0.0
C914 C 0.07399 0.64726 0.32701 0.0
C915 C 0.17425 0.62683 0.38094 0.0
C916 C 0.06323 0.59769 0.37848 0.0
C917 C 0.06391 0.58308 0.35958 0.0
C918 C 0.0849 0.6146 0.37812 0.0
C919 C 0.10795 0.61689 0.35842 0.0
C920 C 0.11116 0.60105 0.34083 0.0
C921 C 0.08897 0.58429 0.34158 0.0
C922 C 0.08057 0.63101 0.39733 0.0
C923 C 0.13579 0.60269 0.3198 0.0
H924 H 0.10815 0.68276 0.32549 0.0
H925 H 0.19222 0.66596 0.37138 0.0
H926 H 0.07603 0.63386 0.31469 0.0
H927 H 0.05529 0.64341 0.34148 0.0
H928 H 0.0645 0.66026 0.31572 0.0
H929 H 0.19918 0.63266 0.38701 0.0
H930 H 0.15968 0.62272 0.39776 0.0
H931 H 0.17766 0.61266 0.37018 0.0
H932 H 0.04377 0.59675 0.39237 0.0
H933 H 0.08934 0.5731 0.32682 0.0
H934 H 0.06783 0.64419 0.38851 0.0
H935 H 0.10515 0.63645 0.4045 0.0
H936 H 0.06535 0.62564 0.41334 0.0
H937 H 0.12615 0.61346 0.30544 0.0
H938 H 0.13977 0.58777 0.31079 0.0
H939 H 0.16021 0.60874 0.3266 0.0
C940 C 0.79463 0.89342 0.64642 0.0
C941 C 0.79338 0.87547 0.63237 0.0
C942 C 0.79403 0.91267 0.63471 0.0
C943 C 0.79225 0.914 0.60833 0.0
C944 C 0.79014 0.89594 0.59412 0.0
C945 C 0.79064 0.87696 0.60629 0.0
C946 C 0.79621 0.93155 0.65049 0.0
C947 C 0.78811 0.89662 0.56595 0.0
C948 C 0.76774 0.96088 0.57069 0.0
C949 C 0.79881 0.96711 0.56145 0.0
C950 C 0.76528 0.94445 0.58759 0.0
C951 C 0.79462 0.93406 0.59521 0.0
C952 C 0.82622 0.94142 0.58736 0.0
C953 C 0.82789 0.9578 0.57047 0.0
C954 C 0.73114 0.93719 0.59563 0.0
C955 C 0.85814 0.93092 0.59505 0.0
H956 H 0.79697 0.89245 0.66656 0.0
H957 H 0.78892 0.86321 0.5953 0.0
H958 H 0.82021 0.93962 0.64699 0.0
H959 H 0.77583 0.94215 0.64531 0.0
H960 H 0.79463 0.92801 0.67076 0.0
H961 H 0.78542 0.88124 0.5577 0.0
H962 H 0.76654 0.90593 0.55976 0.0
H963 H 0.811 0.90396 0.5584 0.0
H964 H 0.74524 0.96791 0.56336 0.0
H965 H 0.85186 0.96252 0.56301 0.0
H966 H 0.7311 0.93358 0.61589 0.0
H967 H 0.72444 0.92302 0.58555 0.0
H968 H 0.71161 0.94867 0.59156 0.0
H969 H 0.85864 0.92796 0.61545 0.0
H970 H 0.88068 0.94002 0.59004 0.0
H971 H 0.85945 0.916 0.58559 0.0
C972 C 0.65777 0.26451 0.17801 0.0
C973 C 0.68396 0.25054 0.17943 0.0
C974 C 0.63663 0.26544 0.15697 0.0
C975 C 0.64182 0.25211 0.13677 0.0
C976 C 0.66906 0.23856 0.13761 0.0
C977 C 0.68976 0.23789 0.15898 0.0
C978 C 0.60778 0.28008 0.15687 0.0
C979 C 0.6756 0.22427 0.11636 0.0
C980 C 0.56204 0.24013 0.10095 0.0
C981 C 0.56353 0.25427 0.08126 0.0
C982 C 0.58829 0.23847 0.11836 0.0
C983 C 0.61682 0.25123 0.11599 0.0
C984 C 0.61952 0.2645 0.09512 0.0
C985 C 0.59276 0.26587 0.07795 0.0
C986 C 0.58445 0.22399 0.1402 0.0
C987 C 0.64966 0.27821 0.09181 0.0
H988 H 0.65287 0.27416 0.19383 0.0
H989 H 0.71025 0.22725 0.15982 0.0
H990 H 0.60795 0.2895 0.13961 0.0
H991 H 0.58382 0.27142 0.15706 0.0
H992 H 0.60853 0.29034 0.17324 0.0
H993 H 0.69976 0.21627 0.1187 0.0
H994 H 0.65523 0.21272 0.11521 0.0
H995 H 0.67575 0.23271 0.09834 0.0
H996 H 0.5396 0.23095 0.10334 0.0
H997 H 0.59391 0.27687 0.06279 0.0
H998 H 0.58183 0.2328 0.15764 0.0
H999 H 0.607 0.21445 0.1424 0.0
H1000 H 0.56223 0.21385 0.13809 0.0
H1001 H 0.64923 0.29048 0.10589 0.0
H1002 H 0.6502 0.28533 0.07294 0.0
H1003 H 0.67306 0.2696 0.09487 0.0
C1004 C 0.19321 0.16446 0.60659 0.0
C1005 C 0.21317 0.16873 0.62766 0.0
C1006 C 0.19625 0.14613 0.59363 0.0
C1007 C 0.21959 0.13145 0.60202 0.0
C1008 C 0.23892 0.13526 0.62382 0.0
C1009 C 0.23561 0.15388 0.63631 0.0
C1010 C 0.17513 0.14274 0.57044 0.0
C1011 C 0.26386 0.11996 0.63349 0.0
C1012 C 0.20544 0.08002 0.57142 0.0
C1013 C 0.22607 0.08194 0.55058 0.0
C1014 C 0.20483 0.09538 0.58958 0.0
C1015 C 0.22525 0.11299 0.58666 0.0
C1016 C 0.24819 0.11405 0.56676 0.0
C1017 C 0.24832 0.09851 0.549 0.0
C1018 C 0.18043 0.09349 0.61074 0.0
C1019 C 0.27054 0.13243 0.5629 0.0
H1020 H 0.17524 0.17557 0.60006 0.0
H1021 H 0.25136 0.15703 0.65244 0.0
H1022 H 0.1915 0.14147 0.55396 0.0
H1023 H 0.16082 0.12825 0.5721 0.0
H1024 H 0.15725 0.15528 0.56694 0.0
H1025 H 0.27407 0.12411 0.65216 0.0
H1026 H 0.25214 0.10462 0.63473 0.0
H1027 H 0.28494 0.11896 0.62031 0.0
H1028 H 0.18807 0.06728 0.57257 0.0
H1029 H 0.26436 0.09994 0.53289 0.0
H1030 H 0.15892 0.10364 0.60704 0.0
H1031 H 0.19227 0.09833 0.62859 0.0
H1032 H 0.17078 0.07768 0.61292 0.0
H1033 H 0.25513 0.14558 0.55696 0.0
H1034 H 0.28966 0.12983 0.54844 0.0
H1035 H 0.28344 0.13664 0.58058 0.0
C1036 C 0.35176 0.76811 0.17228 0.0
C1037 C 0.32255 0.77939 0.17513 0.0
C1038 C 0.37351 0.77201 0.15246 0.0
C1039 C 0.36584 0.78754 0.1349 0.0
C1040 C 0.33618 0.79885 0.13746 0.0
C1041 C 0.31494 0.79472 0.15766 0.0
C1042 C 0.40509 0.75974 0.15062 0.0
C1043 C 0.32705 0.81538 0.11897 0.0
C1044 C 0.44321 0.80706 0.10223 0.0
C1045 C 0.44364 0.79466 0.08106 0.0
C1046 C 0.41673 0.80597 0.1191 0.0
C1047 C 0.38988 0.79224 0.11459 0.0
C1048 C 0.38876 0.78102 0.09212 0.0
C1049 C 0.41574 0.78234 0.0756 0.0
C1050 C 0.41891 0.81828 0.14275 0.0
C1051 C 0.36037 0.76641 0.08646 0.0
H1052 H 0.35803 0.75646 0.18593 0.0
H1053 H 0.29224 0.80337 0.1597 0.0
H1054 H 0.40594 0.75209 0.13226 0.0
H1055 H 0.42727 0.76997 0.15193 0.0
H1056 H 0.40707 0.74798 0.16556 0.0
H1057 H 0.30246 0.82223 0.12302 0.0
H1058 H 0.34642 0.82758 0.11929 0.0
H1059 H 0.32626 0.80915 0.09979 0.0
H1060 H 0.46451 0.81687 0.10629 0.0
H1061 H 0.41598 0.7727 0.05928 0.0
H1062 H 0.42423 0.80801 0.15881 0.0
H1063 H 0.3948 0.82581 0.14638 0.0
H1064 H 0.43895 0.83009 0.14194 0.0
H1065 H 0.3627 0.75276 0.09863 0.0
H1066 H 0.36039 0.76142 0.0667 0.0
H1067 H 0.33596 0.77346 0.09043 0.0
C1068 C 0.77363 0.15329 0.38601 0.0
C1069 C 0.79449 0.1687 0.39576 0.0
C1070 C 0.77035 0.13433 0.39822 0.0
C1071 C 0.78806 0.13076 0.42084 0.0
C1072 C 0.80989 0.14602 0.43034 0.0
C1073 C 0.81298 0.16468 0.41763 0.0
C1074 C 0.74712 0.11839 0.38734 0.0
C1075 C 0.82927 0.14291 0.45441 0.0
C1076 C 0.75746 0.09604 0.47254 0.0
C1077 C 0.78115 0.08048 0.47213 0.0
C1078 C 0.75776 0.11174 0.45468 0.0
C1079 C 0.78225 0.11183 0.43581 0.0
C1080 C 0.80407 0.09508 0.43386 0.0
C1081 C 0.80332 0.07957 0.45214 0.0
C1082 C 0.73388 0.12918 0.45747 0.0
C1083 C 0.8301 0.09438 0.41376 0.0
H1084 H 0.75904 0.15622 0.36923 0.0
H1085 H 0.82978 0.17625 0.42502 0.0
H1086 H 0.75968 0.10345 0.38675 0.0
H1087 H 0.72493 0.11655 0.3994 0.0
H1088 H 0.73843 0.12249 0.3682 0.0
H1089 H 0.84604 0.156 0.45883 0.0
H1090 H 0.81167 0.14069 0.47008 0.0
H1091 H 0.8446 0.129 0.4533 0.0
H1092 H 0.74015 0.09667 0.48793 0.0
H1093 H 0.82176 0.06761 0.45184 0.0
H1094 H 0.72223 0.1332 0.43924 0.0
H1095 H 0.74786 0.14279 0.46417 0.0
H1096 H 0.71377 0.1256 0.47098 0.0
H1097 H 0.81937 0.09916 0.39548 0.0
H1098 H 0.84074 0.07893 0.41194 0.0
H1099 H 0.85077 0.10514 0.41842 0.0
C1100 C 0.31832 0.25785 0.86254 0.0
C1101 C 0.33153 0.24811 0.84169 0.0
C1102 C 0.3379 0.26109 0.88414 0.0
C1103 C 0.37153 0.2546 0.88478 0.0
C1104 C 0.38476 0.24444 0.86395 0.0
C1105 C 0.36462 0.24131 0.84271 0.0
C1106 C 0.32288 0.27184 0.90604 0.0
C1107 C 0.42059 0.23744 0.86375 0.0
C1108 C 0.43851 0.28071 0.92372 0.0
C1109 C 0.44502 0.26602 0.94221 0.0
C1110 C 0.41325 0.27771 0.90576 0.0
C1111 C 0.39389 0.25957 0.90634 0.0
C1112 C 0.39876 0.24532 0.92601 0.0
C1113 C 0.42435 0.24872 0.94377 0.0
C1114 C 0.40882 0.29336 0.88522 0.0
C1115 C 0.37842 0.22589 0.92738 0.0
H1116 H 0.29265 0.26294 0.86194 0.0
H1117 H 0.37514 0.23404 0.82656 0.0
H1118 H 0.32663 0.26277 0.92339 0.0
H1119 H 0.33569 0.28671 0.90883 0.0
H1120 H 0.29571 0.27455 0.90334 0.0
H1121 H 0.42657 0.22895 0.84656 0.0
H1122 H 0.43771 0.25079 0.86511 0.0
H1123 H 0.42571 0.22751 0.88016 0.0
H1124 H 0.45418 0.29425 0.92271 0.0
H1125 H 0.42939 0.23731 0.958 0.0
H1126 H 0.38209 0.29735 0.88297 0.0
H1127 H 0.41709 0.28692 0.86726 0.0
H1128 H 0.42347 0.3075 0.88886 0.0
H1129 H 0.35146 0.22906 0.92454 0.0
H1130 H 0.38188 0.21788 0.94554 0.0
H1131 H 0.38609 0.21557 0.91225 0.0
C1132 C 0.21715 0.88882 0.39574 0.0
C1133 C 0.23496 0.88938 0.37334 0.0
C1134 C 0.21722 0.90559 0.41185 0.0
C1135 C 0.23553 0.92342 0.40546 0.0
C1136 C 0.25312 0.92423 0.38271 0.0
C1137 C 0.25269 0.90721 0.36697 0.0
C1138 C 0.19808 0.90409 0.43593 0.0
C1139 C 0.27301 0.9429 0.37526 0.0
C1140 C 0.21256 0.97061 0.44205 0.0
C1141 C 0.23579 0.96982 0.4618 0.0
C1142 C 0.2131 0.95618 0.42279 0.0
C1143 C 0.23754 0.94071 0.42333 0.0
C1144 C 0.26243 0.94079 0.44234 0.0
C1145 C 0.26121 0.95531 0.46133 0.0
C1146 C 0.18626 0.95671 0.40279 0.0
C1147 C 0.28914 0.92475 0.44354 0.0
H1148 H 0.20297 0.87527 0.40065 0.0
H1149 H 0.26689 0.90773 0.34988 0.0
H1150 H 0.21558 0.90556 0.45204 0.0
H1151 H 0.18003 0.91673 0.43704 0.0
H1152 H 0.18418 0.88944 0.43776 0.0
H1153 H 0.2836 0.94161 0.35627 0.0
H1154 H 0.25703 0.95657 0.37578 0.0
H1155 H 0.29386 0.94536 0.38877 0.0
H1156 H 0.19271 0.9817 0.4425 0.0
H1157 H 0.27927 0.95475 0.47656 0.0
H1158 H 0.16885 0.94363 0.40544 0.0
H1159 H 0.19739 0.95521 0.38404 0.0
H1160 H 0.17164 0.97096 0.40325 0.0
H1161 H 0.27753 0.90975 0.44788 0.0
H1162 H 0.30848 0.9281 0.45802 0.0
H1163 H 0.30154 0.92343 0.42522 0.0
C1164 C 0.69143 0.80784 0.86814 0.0
C1165 C 0.68417 0.79507 0.84787 0.0
C1166 C 0.67122 0.80772 0.88942 0.0
C1167 C 0.64298 0.7946 0.89036 0.0
C1168 C 0.63639 0.78105 0.87042 0.0
C1169 C 0.65706 0.78144 0.84946 0.0
C1170 C 0.67926 0.82222 0.91039 0.0
C1171 C 0.60647 0.76685 0.87065 0.0
C1172 C 0.59352 0.78301 0.94908 0.0
C1173 C 0.56529 0.79507 0.94503 0.0
C1174 C 0.62014 0.78347 0.93214 0.0
C1175 C 0.6183 0.79632 0.91081 0.0
C1176 C 0.59085 0.80955 0.90769 0.0
C1177 C 0.56472 0.80876 0.92485 0.0
C1178 C 0.64911 0.76929 0.93623 0.0
C1179 C 0.58797 0.82361 0.88535 0.0
H1180 H 0.71265 0.8182 0.86719 0.0
H1181 H 0.65106 0.77168 0.83379 0.0
H1182 H 0.65999 0.83421 0.91095 0.0
H1183 H 0.67881 0.81411 0.92863 0.0
H1184 H 0.70411 0.82967 0.90816 0.0
H1185 H 0.60629 0.75621 0.85464 0.0
H1186 H 0.6061 0.75782 0.88822 0.0
H1187 H 0.58316 0.77584 0.86986 0.0
H1188 H 0.59391 0.77236 0.96463 0.0
H1189 H 0.54303 0.81827 0.92189 0.0
H1190 H 0.6732 0.77738 0.93315 0.0
H1191 H 0.64743 0.75673 0.92256 0.0
H1192 H 0.6493 0.76258 0.95533 0.0
H1193 H 0.61125 0.83273 0.88317 0.0
H1194 H 0.56659 0.83415 0.88684 0.0
H1195 H 0.5845 0.81448 0.86816 0.0
loop_
_geom_bond_atom_site_label_1
_geom_bond_atom_site_label_2
_geom_bond_distance
_geom_bond_site_symmetry_2
_ccdc_geom_bond_type
C0 C1 1.264 . S
C0 C5 1.479 . S
C0 C10 1.465 . S
C1 C0 1.264 . S
C1 C3 1.339 . S
C1 H28 0.931 . S
C2 C3 1.395 . S
C2 C4 1.320 . S
C3 C1 1.339 . S
C3 C2 1.395 . S
C3 H29 0.929 . S
C4 C2 1.320 . S
C4 C5 1.405 . S
C4 H30 0.930 . S
C5 C0 1.479 . S
C5 C4 1.405 . S
C5 H31 0.931 . S
U6 O7 2.454 . S
U6 O8 2.458 . S
U6 C9 2.984 . S
U6 C10 2.847 . S
U6 C23 2.882 . S
U6 O24 2.441 . S
U6 O25 2.420 . S
U6 O26 2.455 . S
U6 O27 2.449 . S
O7 U6 2.454 . S
O7 C9 1.353 . S
O8 U6 2.458 . S
O8 C9 1.286 . S
C9 U6 2.984 . S
C9 O7 1.353 . S
C9 O8 1.286 . S
C9 C11 1.363 . S
C10 C0 1.465 . S
C10 U6 2.847 . S
C10 O24 1.249 . S
C10 O25 1.202 . S
C11 C9 1.363 . S
C11 C13 1.408 . S
C11 C16 1.342 . S
C12 C13 1.310 . S
C12 C15 1.461 . S
C12 H32 0.932 . S
C13 C11 1.408 . S
C13 C12 1.310 . S
C13 H33 0.930 . S
C14 C15 1.474 . S
C14 C16 1.285 . S
C14 H34 0.929 . S
C15 C12 1.461 . S
C15 C14 1.474 . S
C16 C11 1.342 . S
C16 C14 1.285 . S
C16 H35 0.930 . S
C17 C20 1.424 . S
C17 C22 1.245 . S
C17 C23 1.428 . S
C18 C21 1.260 . S
C18 C22 1.477 . S
C18 H36 0.932 . S
C19 C20 1.384 . S
C19 C21 1.479 . S
C19 H37 0.929 . S
C20 C17 1.424 . S
C20 C19 1.384 . S
C20 H38 0.928 . S
C21 C18 1.260 . S
C21 C19 1.479 . S
C22 C17 1.245 . S
C22 C18 1.477 . S
C22 H39 0.932 . S
C23 U6 2.882 . S
C23 C17 1.428 . S
C23 O26 1.301 . S
C23 O27 1.282 . S
O24 U6 2.441 . S
O24 C10 1.249 . S
O25 U6 2.420 . S
O25 C10 1.202 . S
O26 U6 2.455 . S
O26 C23 1.301 . S
O27 U6 2.449 . S
O27 C23 1.282 . S
H28 C1 0.931 . S
H29 C3 0.929 . S
H30 C4 0.930 . S
H31 C5 0.931 . S
H32 C12 0.932 . S
H33 C13 0.930 . S
H34 C14 0.929 . S
H35 C16 0.930 . S
H36 C18 0.932 . S
H37 C19 0.929 . S
H38 C20 0.928 . S
H39 C22 0.932 . S
C40 C41 1.264 . S
C40 C45 1.479 . S
C40 C50 1.465 . S
C41 C40 1.264 . S
C41 C43 1.339 . S
C41 H68 0.931 . S
C42 C43 1.395 . S
C42 C44 1.320 . S
C43 C41 1.339 . S
C43 C42 1.395 . S
C43 H69 0.929 . S
C44 C42 1.320 . S
C44 C45 1.405 . S
C44 H70 0.930 . S
C45 C40 1.479 . S
C45 C44 1.405 . S
C45 H71 0.931 . S
U46 O47 2.454 . S
U46 O48 2.458 . S
U46 C49 2.984 . S
U46 C50 2.847 . S
U46 C63 2.882 . S
U46 O64 2.441 . S
U46 O65 2.420 . S
U46 O66 2.455 . S
U46 O67 2.449 . S
O47 U46 2.454 . S
O47 C49 1.353 . S
O48 U46 2.458 . S
O48 C49 1.286 . S
C49 U46 2.984 . S
C49 O47 1.353 . S
C49 O48 1.286 . S
C49 C51 1.363 . S
C50 C40 1.465 . S
C50 U46 2.847 . S
C50 O64 1.249 . S
C50 O65 1.202 . S
C51 C49 1.363 . S
C51 C53 1.408 . S
C51 C56 1.342 . S
C52 C53 1.310 . S
C52 C55 1.461 . S
C52 H72 0.932 . S
C53 C51 1.408 . S
C53 C52 1.310 . S
C53 H73 0.930 . S
C54 C55 1.474 . S
C54 C56 1.285 . S
C54 H74 0.929 . S
C55 C52 1.461 . S
C55 C54 1.474 . S
C56 C51 1.342 . S
C56 C54 1.285 . S
C56 H75 0.930 . S
C57 C60 1.424 . S
C57 C62 1.245 . S
C57 C63 1.428 . S
C58 C61 1.260 . S
C58 C62 1.477 . S
C58 H76 0.932 . S
C59 C60 1.384 . S
C59 C61 1.479 . S
C59 H77 0.929 . S
C60 C57 1.424 . S
C60 C59 1.384 . S
C60 H78 0.928 . S
C61 C58 1.260 . S
C61 C59 1.479 . S
C62 C57 1.245 . S
C62 C58 1.477 . S
C62 H79 0.932 . S
C63 U46 2.882 . S
C63 C57 1.428 . S
C63 O66 1.301 . S
C63 O67 1.282 . S
O64 U46 2.441 . S
O64 C50 1.249 . S
O65 U46 2.420 . S
O65 C50 1.202 . S
O66 U46 2.455 . S
O66 C63 1.301 . S
O67 U46 2.449 . S
O67 C63 1.282 . S
H68 C41 0.931 . S
H69 C43 0.929 . S
H70 C44 0.930 . S
H71 C45 0.931 . S
H72 C52 0.932 . S
H73 C53 0.930 . S
H74 C54 0.929 . S
H75 C56 0.930 . S
H76 C58 0.932 . S
H77 C59 0.929 . S
H78 C60 0.928 . S
H79 C62 0.932 . S
C80 C81 1.264 . S
C80 C85 1.479 . S
C80 C90 1.465 . S
C81 C80 1.264 . S
C81 C83 1.339 . S
C81 H108 0.931 . S
C82 C83 1.395 . S
C82 C84 1.320 . S
C83 C81 1.339 . S
C83 C82 1.395 . S
C83 H109 0.929 . S
C84 C82 1.320 . S
C84 C85 1.405 . S
C84 H110 0.930 . S
C85 C80 1.479 . S
C85 C84 1.405 . S
C85 H111 0.931 . S
U86 O87 2.454 . S
U86 O88 2.458 . S
U86 C89 2.984 . S
U86 C90 2.847 . S
U86 C103 2.882 . S
U86 O104 2.441 . S
U86 O105 2.420 . S
U86 O106 2.455 . S
U86 O107 2.449 . S
O87 U86 2.454 . S
O87 C89 1.353 . S
O88 U86 2.458 . S
O88 C89 1.286 . S
C89 U86 2.984 . S
C89 O87 1.353 . S
C89 O88 1.286 . S
C89 C91 1.363 . S
C90 C80 1.465 . S
C90 U86 2.847 . S
C90 O104 1.249 . S
C90 O105 1.202 . S
C91 C89 1.363 . S
C91 C93 1.408 . S
C91 C96 1.342 . S
C92 C93 1.310 . S
C92 C95 1.461 . S
C92 H112 0.932 . S
C93 C91 1.408 . S
C93 C92 1.310 . S
C93 H113 0.930 . S
C94 C95 1.474 . S
C94 C96 1.285 . S
C94 H114 0.929 . S
C95 C92 1.461 . S
C95 C94 1.474 . S
C96 C91 1.342 . S
C96 C94 1.285 . S
C96 H115 0.930 . S
C97 C100 1.424 . S
C97 C102 1.245 . S
C97 C103 1.428 . S
C98 C101 1.260 . S
C98 C102 1.477 . S
C98 H116 0.932 . S
C99 C100 1.384 . S
C99 C101 1.479 . S
C99 H117 0.929 . S
C100 C97 1.424 . S
C100 C99 1.384 . S
C100 H118 0.928 . S
C101 C98 1.260 . S
C101 C99 1.479 . S
C102 C97 1.245 . S
C102 C98 1.477 . S
C102 H119 0.932 . S
C103 U86 2.882 . S
C103 C97 1.428 . S
C103 O106 1.301 . S
C103 O107 1.282 . S
O104 U86 2.441 . S
O104 C90 1.249 . S
O105 U86 2.420 . S
O105 C90 1.202 . S
O106 U86 2.455 . S
O106 C103 1.301 . S
O107 U86 2.449 . S
O107 C103 1.282 . S
H108 C81 0.931 . S
H109 C83 0.929 . S
H110 C84 0.930 . S
H111 C85 0.931 . S
H112 C92 0.932 . S
H113 C93 0.930 . S
H114 C94 0.929 . S
H115 C96 0.930 . S
H116 C98 0.932 . S
H117 C99 0.929 . S
H118 C100 0.928 . S
H119 C102 0.932 . S
C120 C121 1.264 . S
C120 C125 1.479 . S
C120 C130 1.465 . S
C121 C120 1.264 . S
C121 C123 1.339 . S
C121 H148 0.931 . S
C122 C123 1.395 . S
C122 C124 1.320 . S
C123 C121 1.339 . S
C123 C122 1.395 . S
C123 H149 0.929 . S
C124 C122 1.320 . S
C124 C125 1.405 . S
C124 H150 0.930 . S
C125 C120 1.479 . S
C125 C124 1.405 . S
C125 H151 0.931 . S
U126 O127 2.454 . S
U126 O128 2.458 . S
U126 C129 2.984 . S
U126 C130 2.847 . S
U126 C143 2.882 . S
U126 O144 2.441 . S
U126 O145 2.420 . S
U126 O146 2.455 . S
U126 O147 2.449 . S
O127 U126 2.454 . S
O127 C129 1.353 . S
O128 U126 2.458 . S
O128 C129 1.286 . S
C129 U126 2.984 . S
C129 O127 1.353 . S
C129 O128 1.286 . S
C129 C131 1.363 . S
C130 C120 1.465 . S
C130 U126 2.847 . S
C130 O144 1.249 . S
C130 O145 1.202 . S
C131 C129 1.363 . S
C131 C133 1.408 . S
C131 C136 1.342 . S
C132 C133 1.310 . S
C132 C135 1.461 . S
C132 H152 0.932 . S
C133 C131 1.408 . S
C133 C132 1.310 . S
C133 H153 0.930 . S
C134 C135 1.474 . S
C134 C136 1.285 . S
C134 H154 0.929 . S
C135 C132 1.461 . S
C135 C134 1.474 . S
C136 C131 1.342 . S
C136 C134 1.285 . S
C136 H155 0.930 . S
C137 C140 1.424 . S
C137 C142 1.245 . S
C137 C143 1.428 . S
C138 C141 1.260 . S
C138 C142 1.477 . S
C138 H156 0.932 . S
C139 C140 1.384 . S
C139 C141 1.479 . S
C139 H157 0.929 . S
C140 C137 1.424 . S
C140 C139 1.384 . S
C140 H158 0.928 . S
C141 C138 1.260 . S
C141 C139 1.479 . S
C142 C137 1.245 . S
C142 C138 1.477 . S
C142 H159 0.932 . S
C143 U126 2.882 . S
C143 C137 1.428 . S
C143 O146 1.301 . S
C143 O147 1.282 . S
O144 U126 2.441 . S
O144 C130 1.249 . S
O145 U126 2.420 . S
O145 C130 1.202 . S
O146 U126 2.455 . S
O146 C143 1.301 . S
O147 U126 2.449 . S
O147 C143 1.282 . S
H148 C121 0.931 . S
H149 C123 0.929 . S
H150 C124 0.930 . S
H151 C125 0.931 . S
H152 C132 0.932 . S
H153 C133 0.930 . S
H154 C134 0.929 . S
H155 C136 0.930 . S
H156 C138 0.932 . S
H157 C139 0.929 . S
H158 C140 0.928 . S
H159 C142 0.932 . S
C160 C161 1.264 . S
C160 C165 1.479 . S
C160 C170 1.465 . S
C161 C160 1.264 . S
C161 C163 1.339 . S
C161 H188 0.931 . S
C162 C163 1.395 . S
C162 C164 1.320 . S
C163 C161 1.339 . S
C163 C162 1.395 . S
C163 H189 0.929 . S
C164 C162 1.320 . S
C164 C165 1.405 . S
C164 H190 0.930 . S
C165 C160 1.479 . S
C165 C164 1.405 . S
C165 H191 0.931 . S
U166 O167 2.454 . S
U166 O168 2.458 . S
U166 C169 2.984 . S
U166 C170 2.847 . S
U166 C183 2.882 . S
U166 O184 2.441 . S
U166 O185 2.420 . S
U166 O186 2.455 . S
U166 O187 2.449 . S
O167 U166 2.454 . S
O167 C169 1.353 . S
O168 U166 2.458 . S
O168 C169 1.286 . S
C169 U166 2.984 . S
C169 O167 1.353 . S
C169 O168 1.286 . S
C169 C171 1.363 . S
C170 C160 1.465 . S
C170 U166 2.847 . S
C170 O184 1.249 . S
C170 O185 1.202 . S
C171 C169 1.363 . S
C171 C173 1.408 . S
C171 C176 1.342 . S
C172 C173 1.310 . S
C172 C175 1.461 . S
C172 H192 0.932 . S
C173 C171 1.408 . S
C173 C172 1.310 . S
C173 H193 0.930 . S
C174 C175 1.474 . S
C174 C176 1.285 . S
C174 H194 0.929 . S
C175 C172 1.461 . S
C175 C174 1.474 . S
C176 C171 1.342 . S
C176 C174 1.285 . S
C176 H195 0.930 . S
C177 C180 1.424 . S
C177 C182 1.245 . S
C177 C183 1.428 . S
C178 C181 1.260 . S
C178 C182 1.477 . S
C178 H196 0.932 . S
C179 C180 1.384 . S
C179 C181 1.479 . S
C179 H197 0.929 . S
C180 C177 1.424 . S
C180 C179 1.384 . S
C180 H198 0.928 . S
C181 C178 1.260 . S
C181 C179 1.479 . S
C182 C177 1.245 . S
C182 C178 1.477 . S
C182 H199 0.932 . S
C183 U166 2.882 . S
C183 C177 1.428 . S
C183 O186 1.301 . S
C183 O187 1.282 . S
O184 U166 2.441 . S
O184 C170 1.249 . S
O185 U166 2.420 . S
O185 C170 1.202 . S
O186 U166 2.455 . S
O186 C183 1.301 . S
O187 U166 2.449 . S
O187 C183 1.282 . S
H188 C161 0.931 . S
H189 C163 0.929 . S
H190 C164 0.930 . S
H191 C165 0.931 . S
H192 C172 0.932 . S
H193 C173 0.930 . S
H194 C174 0.929 . S
H195 C176 0.930 . S
H196 C178 0.932 . S
H197 C179 0.929 . S
H198 C180 0.928 . S
H199 C182 0.932 . S
C200 C201 1.264 . S
C200 C205 1.479 . S
C200 C210 1.465 . S
C201 C200 1.264 . S
C201 C203 1.339 . S
C201 H228 0.931 . S
C202 C203 1.395 . S
C202 C204 1.320 . S
C203 C201 1.339 . S
C203 C202 1.395 . S
C203 H229 0.929 . S
C204 C202 1.320 . S
C204 C205 1.405 . S
C204 H230 0.930 . S
C205 C200 1.479 . S
C205 C204 1.405 . S
C205 H231 0.931 . S
U206 O207 2.454 . S
U206 O208 2.458 . S
U206 C209 2.984 . S
U206 C210 2.847 . S
U206 C223 2.882 . S
U206 O224 2.441 . S
U206 O225 2.420 . S
U206 O226 2.455 . S
U206 O227 2.449 . S
O207 U206 2.454 . S
O207 C209 1.353 . S
O208 U206 2.458 . S
O208 C209 1.286 . S
C209 U206 2.984 . S
C209 O207 1.353 . S
C209 O208 1.286 . S
C209 C211 1.363 . S
C210 C200 1.465 . S
C210 U206 2.847 . S
C210 O224 1.249 . S
C210 O225 1.202 . S
C211 C209 1.363 . S
C211 C213 1.408 . S
C211 C216 1.342 . S
C212 C213 1.310 . S
C212 C215 1.461 . S
C212 H232 0.932 . S
C213 C211 1.408 . S
C213 C212 1.310 . S
C213 H233 0.930 . S
C214 C215 1.474 . S
C214 C216 1.285 . S
C214 H234 0.929 . S
C215 C212 1.461 . S
C215 C214 1.474 . S
C216 C211 1.342 . S
C216 C214 1.285 . S
C216 H235 0.930 . S
C217 C220 1.424 . S
C217 C222 1.245 . S
C217 C223 1.428 . S
C218 C221 1.260 . S
C218 C222 1.477 . S
C218 H236 0.932 . S
C219 C220 1.384 . S
C219 C221 1.479 . S
C219 H237 0.929 . S
C220 C217 1.424 . S
C220 C219 1.384 . S
C220 H238 0.928 . S
C221 C218 1.260 . S
C221 C219 1.479 . S
C222 C217 1.245 . S
C222 C218 1.477 . S
C222 H239 0.932 . S
C223 U206 2.882 . S
C223 C217 1.428 . S
C223 O226 1.301 . S
C223 O227 1.282 . S
O224 U206 2.441 . S
O224 C210 1.249 . S
O225 U206 2.420 . S
O225 C210 1.202 . S
O226 U206 2.455 . S
O226 C223 1.301 . S
O227 U206 2.449 . S
O227 C223 1.282 . S
H228 C201 0.931 . S
H229 C203 0.929 . S
H230 C204 0.930 . S
H231 C205 0.931 . S
H232 C212 0.932 . S
H233 C213 0.930 . S
H234 C214 0.929 . S
H235 C216 0.930 . S
H236 C218 0.932 . S
H237 C219 0.929 . S
H238 C220 0.928 . S
H239 C222 0.932 . S
C240 C241 1.264 . S
C240 C245 1.479 . S
C240 C250 1.465 . S
C241 C240 1.264 . S
C241 C243 1.339 . S
C241 H268 0.931 . S
C242 C243 1.395 . S
C242 C244 1.320 . S
C243 C241 1.339 . S
C243 C242 1.395 . S
C243 H269 0.929 . S
C244 C242 1.320 . S
C244 C245 1.405 . S
C244 H270 0.930 . S
C245 C240 1.479 . S
C245 C244 1.405 . S
C245 H271 0.931 . S
U246 O247 2.454 . S
U246 O248 2.458 . S
U246 C249 2.984 . S
U246 C250 2.847 . S
U246 C263 2.882 . S
U246 O264 2.441 . S
U246 O265 2.420 . S
U246 O266 2.455 . S
U246 O267 2.449 . S
O247 U246 2.454 . S
O247 C249 1.353 . S
O248 U246 2.458 . S
O248 C249 1.286 . S
C249 U246 2.984 . S
C249 O247 1.353 . S
C249 O248 1.286 . S
C249 C251 1.363 . S
C250 C240 1.465 . S
C250 U246 2.847 . S
C250 O264 1.249 . S
C250 O265 1.202 . S
C251 C249 1.363 . S
C251 C253 1.408 . S
C251 C256 1.342 . S
C252 C253 1.310 . S
C252 C255 1.461 . S
C252 H272 0.932 . S
C253 C251 1.408 . S
C253 C252 1.310 . S
C253 H273 0.930 . S
C254 C255 1.474 . S
C254 C256 1.285 . S
C254 H274 0.929 . S
C255 C252 1.461 . S
C255 C254 1.474 . S
C256 C251 1.342 . S
C256 C254 1.285 . S
C256 H275 0.930 . S
C257 C260 1.424 . S
C257 C262 1.245 . S
C257 C263 1.428 . S
C258 C261 1.260 . S
C258 C262 1.477 . S
C258 H276 0.932 . S
C259 C260 1.384 . S
C259 C261 1.479 . S
C259 H277 0.929 . S
C260 C257 1.424 . S
C260 C259 1.384 . S
C260 H278 0.928 . S
C261 C258 1.260 . S
C261 C259 1.479 . S
C262 C257 1.245 . S
C262 C258 1.477 . S
C262 H279 0.932 . S
C263 U246 2.882 . S
C263 C257 1.428 . S
C263 O266 1.301 . S
C263 O267 1.282 . S
O264 U246 2.441 . S
O264 C250 1.249 . S
O265 U246 2.420 . S
O265 C250 1.202 . S
O266 U246 2.455 . S
O266 C263 1.301 . S
O267 U246 2.449 . S
O267 C263 1.282 . S
H268 C241 0.931 . S
H269 C243 0.929 . S
H270 C244 0.930 . S
H271 C245 0.931 . S
H272 C252 0.932 . S
H273 C253 0.930 . S
H274 C254 0.929 . S
H275 C256 0.930 . S
H276 C258 0.932 . S
H277 C259 0.929 . S
H278 C260 0.928 . S
H279 C262 0.932 . S
C280 C281 1.264 . S
C280 C285 1.479 . S
C280 C290 1.465 . S
C281 C280 1.264 . S
C281 C283 1.339 . S
C281 H308 0.931 . S
C282 C283 1.395 . S
C282 C284 1.320 . S
C283 C281 1.339 . S
C283 C282 1.395 . S
C283 H309 0.929 . S
C284 C282 1.320 . S
C284 C285 1.405 . S
C284 H310 0.930 . S
C285 C280 1.479 . S
C285 C284 1.405 . S
C285 H311 0.931 . S
U286 O287 2.454 . S
U286 O288 2.458 . S
U286 C289 2.984 . S
U286 C290 2.847 . S
U286 C303 2.882 . S
U286 O304 2.441 . S
U286 O305 2.420 . S
U286 O306 2.455 . S
U286 O307 2.449 . S
O287 U286 2.454 . S
O287 C289 1.353 . S
O288 U286 2.458 . S
O288 C289 1.286 . S
C289 U286 2.984 . S
C289 O287 1.353 . S
C289 O288 1.286 . S
C289 C291 1.363 . S
C290 C280 1.465 . S
C290 U286 2.847 . S
C290 O304 1.249 . S
C290 O305 1.202 . S
C291 C289 1.363 . S
C291 C293 1.408 . S
C291 C296 1.342 . S
C292 C293 1.310 . S
C292 C295 1.461 . S
C292 H312 0.932 . S
C293 C291 1.408 . S
C293 C292 1.310 . S
C293 H313 0.930 . S
C294 C295 1.474 . S
C294 C296 1.285 . S
C294 H314 0.929 . S
C295 C292 1.461 . S
C295 C294 1.474 . S
C296 C291 1.342 . S
C296 C294 1.285 . S
C296 H315 0.930 . S
C297 C300 1.424 . S
C297 C302 1.245 . S
C297 C303 1.428 . S
C298 C301 1.260 . S
C298 C302 1.477 . S
C298 H316 0.932 . S
C299 C300 1.384 . S
C299 C301 1.479 . S
C299 H317 0.929 . S
C300 C297 1.424 . S
C300 C299 1.384 . S
C300 H318 0.928 . S
C301 C298 1.260 . S
C301 C299 1.479 . S
C302 C297 1.245 . S
C302 C298 1.477 . S
C302 H319 0.932 . S
C303 U286 2.882 . S
C303 C297 1.428 . S
C303 O306 1.301 . S
C303 O307 1.282 . S
O304 U286 2.441 . S
O304 C290 1.249 . S
O305 U286 2.420 . S
O305 C290 1.202 . S
O306 U286 2.455 . S
O306 C303 1.301 . S
O307 U286 2.449 . S
O307 C303 1.282 . S
H308 C281 0.931 . S
H309 C283 0.929 . S
H310 C284 0.930 . S
H311 C285 0.931 . S
H312 C292 0.932 . S
H313 C293 0.930 . S
H314 C294 0.929 . S
H315 C296 0.930 . S
H316 C298 0.932 . S
H317 C299 0.929 . S
H318 C300 0.928 . S
H319 C302 0.932 . S
H320 C326 0.930 . S
H321 C329 0.931 . S
H322 C331 0.931 . S
H323 C333 0.930 . S
H324 C335 0.930 . S
H325 C337 0.931 . S
C326 H320 0.930 . S
C326 C327 1.380 . S
C326 C328 1.394 1_455 S
C327 C326 1.380 . S
C327 C331 1.382 . S
C328 C326 1.394 1_655 S
C328 C329 1.400 . S
C329 H321 0.931 . S
C329 C328 1.400 . S
C329 C330 1.375 1_655 S
C330 C329 1.375 1_455 S
C330 C331 1.415 . S
C330 C332 1.501 . S
C331 H322 0.931 . S
C331 C327 1.382 . S
C331 C330 1.415 . S
C332 C330 1.501 . S
C332 C333 1.384 . S
C332 C337 1.408 1_455 S
C333 H323 0.930 . S
C333 C332 1.384 . S
C333 C334 1.389 . S
C334 C333 1.389 . S
C334 C335 1.405 . S
C335 H324 0.930 . S
C335 C334 1.405 . S
C335 C336 1.364 1_455 S
C336 C335 1.364 1_655 S
C336 C337 1.400 . S
C337 H325 0.931 . S
C337 C332 1.408 1_655 S
C337 C336 1.400 . S
H338 C344 0.930 . S
H339 C347 0.931 . S
H340 C349 0.931 . S
H341 C351 0.930 . S
H342 C353 0.930 . S
H343 C355 0.931 . S
C344 H338 0.930 . S
C344 C345 1.380 1_455 S
C344 C346 1.394 . S
C345 C344 1.380 1_655 S
C345 C349 1.382 . S
C346 C344 1.394 . S
C346 C347 1.400 . S
C347 H339 0.931 . S
C347 C346 1.400 . S
C347 C348 1.375 . S
C348 C347 1.375 . S
C348 C349 1.415 1_455 S
C348 C350 1.501 . S
C349 H340 0.931 . S
C349 C345 1.382 . S
C349 C348 1.415 1_655 S
C350 C348 1.501 . S
C350 C351 1.384 1_455 S
C350 C355 1.408 . S
C351 H341 0.930 . S
C351 C350 1.384 1_655 S
C351 C352 1.389 . S
C352 C351 1.389 . S
C352 C353 1.405 1_655 S
C353 H342 0.930 . S
C353 C352 1.405 1_455 S
C353 C354 1.364 . S
C354 C353 1.364 . S
C354 C355 1.400 . S
C355 H343 0.931 . S
C355 C350 1.408 . S
C355 C354 1.400 . S
H356 C362 0.930 . S
H357 C365 0.931 . S
H358 C367 0.931 . S
H359 C369 0.930 . S
H360 C371 0.930 . S
H361 C373 0.931 . S
C362 H356 0.930 . S
C362 C363 1.380 . S
C362 C364 1.394 . S
C363 C362 1.380 . S
C363 C367 1.382 . S
C364 C362 1.394 . S
C364 C365 1.400 . S
C365 H357 0.931 . S
C365 C364 1.400 . S
C365 C366 1.375 . S
C366 C365 1.375 . S
C366 C367 1.415 . S
C366 C368 1.501 1_545 S
C367 H358 0.931 . S
C367 C363 1.382 . S
C367 C366 1.415 . S
C368 C366 1.501 1_565 S
C368 C369 1.384 . S
C368 C373 1.408 . S
C369 H359 0.930 . S
C369 C368 1.384 . S
C369 C370 1.389 . S
C370 C369 1.389 . S
C370 C371 1.405 . S
C371 H360 0.930 . S
C371 C370 1.405 . S
C371 C372 1.364 . S
C372 C371 1.364 . S
C372 C373 1.400 . S
C373 H361 0.931 . S
C373 C368 1.408 . S
C373 C372 1.400 . S
H374 C380 0.930 . S
H375 C383 0.931 . S
H376 C385 0.931 . S
H377 C387 0.930 . S
H378 C389 0.930 . S
H379 C391 0.931 . S
C380 H374 0.930 . S
C380 C381 1.380 . S
C380 C382 1.394 . S
C381 C380 1.380 . S
C381 C385 1.382 . S
C382 C380 1.394 . S
C382 C383 1.400 . S
C383 H375 0.931 . S
C383 C382 1.400 . S
C383 C384 1.375 . S
C384 C383 1.375 . S
C384 C385 1.415 . S
C384 C386 1.501 1_554 S
C385 H376 0.931 . S
C385 C381 1.382 . S
C385 C384 1.415 . S
C386 C384 1.501 1_556 S
C386 C387 1.384 . S
C386 C391 1.408 . S
C387 H377 0.930 . S
C387 C386 1.384 . S
C387 C388 1.389 . S
C388 C387 1.389 . S
C388 C389 1.405 . S
C389 H378 0.930 . S
C389 C388 1.405 . S
C389 C390 1.364 . S
C390 C389 1.364 . S
C390 C391 1.400 . S
C391 H379 0.931 . S
C391 C386 1.408 . S
C391 C390 1.400 . S
H392 C398 0.930 . S
H393 C401 0.931 . S
H394 C403 0.931 . S
H395 C405 0.930 . S
H396 C407 0.930 . S
H397 C409 0.931 . S
C398 H392 0.930 . S
C398 C399 1.380 . S
C398 C400 1.394 . S
C399 C398 1.380 . S
C399 C403 1.382 . S
C400 C398 1.394 . S
C400 C401 1.400 . S
C401 H393 0.931 . S
C401 C400 1.400 . S
C401 C402 1.375 . S
C402 C401 1.375 . S
C402 C403 1.415 . S
C402 C404 1.501 1_545 S
C403 H394 0.931 . S
C403 C399 1.382 . S
C403 C402 1.415 . S
C404 C402 1.501 1_565 S
C404 C405 1.384 . S
C404 C409 1.408 . S
C405 H395 0.930 . S
C405 C404 1.384 . S
C405 C406 1.389 . S
C406 C405 1.389 . S
C406 C407 1.405 . S
C407 H396 0.930 . S
C407 C406 1.405 . S
C407 C408 1.364 . S
C408 C407 1.364 . S
C408 C409 1.400 . S
C409 H397 0.931 . S
C409 C404 1.408 . S
C409 C408 1.400 . S
H410 C416 0.930 . S
H411 C419 0.931 . S
H412 C421 0.931 . S
H413 C423 0.930 . S
H414 C425 0.930 . S
H415 C427 0.931 . S
C416 H410 0.930 . S
C416 C417 1.380 . S
C416 C418 1.394 . S
C417 C416 1.380 . S
C417 C421 1.382 . S
C418 C416 1.394 . S
C418 C419 1.400 . S
C419 H411 0.931 . S
C419 C418 1.400 . S
C419 C420 1.375 . S
C420 C419 1.375 . S
C420 C421 1.415 . S
C420 C422 1.501 1_554 S
C421 H412 0.931 . S
C421 C417 1.382 . S
C421 C420 1.415 . S
C422 C420 1.501 1_556 S
C422 C423 1.384 . S
C422 C427 1.408 . S
C423 H413 0.930 . S
C423 C422 1.384 . S
C423 C424 1.389 . S
C424 C423 1.389 . S
C424 C425 1.405 . S
C425 H414 0.930 . S
C425 C424 1.405 . S
C425 C426 1.364 . S
C426 C425 1.364 . S
C426 C427 1.400 . S
C427 H415 0.931 . S
C427 C422 1.408 . S
C427 C426 1.400 . S
C428 C429 1.391 . S
C428 C430 1.394 . S
C428 H444 0.931 . S
C429 C428 1.391 . S
C429 C433 1.376 . S
C430 C428 1.394 . S
C430 C431 1.369 . S
C430 C434 1.531 . S
C431 C430 1.369 . S
C431 C432 1.410 . S
C431 C439 1.503 . S
C432 C431 1.410 . S
C432 C433 1.392 . S
C432 C435 1.511 . S
C433 C429 1.376 . S
C433 C432 1.392 . S
C433 H445 0.929 . S
C434 C430 1.531 . S
C434 H446 0.960 . S
C434 H447 0.962 . S
C434 H448 0.960 . S
C435 C432 1.511 . S
C435 H449 0.961 . S
C435 H450 0.961 . S
C435 H451 0.961 . S
C436 C437 1.370 . S
C436 C438 1.363 . S
C436 H452 0.931 . S
C437 C436 1.370 . S
C437 C441 1.408 . S
C438 C436 1.363 . S
C438 C439 1.370 . S
C438 C442 1.524 . S
C439 C431 1.503 . S
C439 C438 1.370 . S
C439 C440 1.403 . S
C440 C439 1.403 . S
C440 C441 1.404 . S
C440 C443 1.539 . S
C441 C437 1.408 . S
C441 C440 1.404 . S
C441 H453 0.930 . S
C442 C438 1.524 . S
C442 H454 0.956 . S
C442 H455 0.961 . S
C442 H456 0.961 . S
C443 C440 1.539 . S
C443 H457 0.958 . S
C443 H458 0.961 . S
C443 H459 0.960 . S
H444 C428 0.931 . S
H445 C433 0.929 . S
H446 C434 0.960 . S
H447 C434 0.962 . S
H448 C434 0.960 . S
H449 C435 0.961 . S
H450 C435 0.961 . S
H451 C435 0.961 . S
H452 C436 0.931 . S
H453 C441 0.930 . S
H454 C442 0.956 . S
H455 C442 0.961 . S
H456 C442 0.961 . S
H457 C443 0.958 . S
H458 C443 0.961 . S
H459 C443 0.960 . S
C460 C461 1.391 . S
C460 C462 1.394 . S
C460 H476 0.931 . S
C461 C460 1.391 . S
C461 C465 1.376 . S
C462 C460 1.394 . S
C462 C463 1.369 . S
C462 C466 1.531 . S
C463 C462 1.369 . S
C463 C464 1.410 . S
C463 C471 1.503 . S
C464 C463 1.410 . S
C464 C465 1.392 . S
C464 C467 1.511 . S
C465 C461 1.376 . S
C465 C464 1.392 . S
C465 H477 0.929 . S
C466 C462 1.531 . S
C466 H478 0.960 . S
C466 H479 0.962 . S
C466 H480 0.960 . S
C467 C464 1.511 . S
C467 H481 0.961 . S
C467 H482 0.961 . S
C467 H483 0.961 . S
C468 C469 1.370 . S
C468 C470 1.363 . S
C468 H484 0.931 . S
C469 C468 1.370 . S
C469 C473 1.408 . S
C470 C468 1.363 . S
C470 C471 1.370 . S
C470 C474 1.524 . S
C471 C463 1.503 . S
C471 C470 1.370 . S
C471 C472 1.403 . S
C472 C471 1.403 . S
C472 C473 1.404 . S
C472 C475 1.539 . S
C473 C469 1.408 . S
C473 C472 1.404 . S
C473 H485 0.930 . S
C474 C470 1.524 . S
C474 H486 0.956 . S
C474 H487 0.961 . S
C474 H488 0.961 . S
C475 C472 1.539 . S
C475 H489 0.958 . S
C475 H490 0.961 . S
C475 H491 0.960 . S
H476 C460 0.931 . S
H477 C465 0.929 . S
H478 C466 0.960 . S
H479 C466 0.962 . S
H480 C466 0.960 . S
H481 C467 0.961 . S
H482 C467 0.961 . S
H483 C467 0.961 . S
H484 C468 0.931 . S
H485 C473 0.930 . S
H486 C474 0.956 . S
H487 C474 0.961 . S
H488 C474 0.961 . S
H489 C475 0.958 . S
H490 C475 0.961 . S
H491 C475 0.960 . S
C492 C493 1.391 . S
C492 C494 1.394 . S
C492 H508 0.931 . S
C493 C492 1.391 . S
C493 C497 1.376 . S
C494 C492 1.394 . S
C494 C495 1.369 . S
C494 C498 1.531 . S
C495 C494 1.369 . S
C495 C496 1.410 . S
C495 C503 1.503 . S
C496 C495 1.410 . S
C496 C497 1.392 . S
C496 C499 1.511 . S
C497 C493 1.376 . S
C497 C496 1.392 . S
C497 H509 0.929 . S
C498 C494 1.531 . S
C498 H510 0.960 . S
C498 H511 0.962 . S
C498 H512 0.960 . S
C499 C496 1.511 . S
C499 H513 0.961 . S
C499 H514 0.961 . S
C499 H515 0.961 . S
C500 C501 1.370 . S
C500 C502 1.363 . S
C500 H516 0.931 . S
C501 C500 1.370 . S
C501 C505 1.408 . S
C502 C500 1.363 . S
C502 C503 1.370 . S
C502 C506 1.524 . S
C503 C495 1.503 . S
C503 C502 1.370 . S
C503 C504 1.403 . S
C504 C503 1.403 . S
C504 C505 1.404 . S
C504 C507 1.539 . S
C505 C501 1.408 . S
C505 C504 1.404 . S
C505 H517 0.930 . S
C506 C502 1.524 . S
C506 H518 0.956 . S
C506 H519 0.961 . S
C506 H520 0.961 . S
C507 C504 1.539 . S
C507 H521 0.958 . S
C507 H522 0.961 . S
C507 H523 0.960 . S
H508 C492 0.931 . S
H509 C497 0.929 . S
H510 C498 0.960 . S
H511 C498 0.962 . S
H512 C498 0.960 . S
H513 C499 0.961 . S
H514 C499 0.961 . S
H515 C499 0.961 . S
H516 C500 0.931 . S
H517 C505 0.930 . S
H518 C506 0.956 . S
H519 C506 0.961 . S
H520 C506 0.961 . S
H521 C507 0.958 . S
H522 C507 0.961 . S
H523 C507 0.960 . S
C524 C525 1.391 . S
C524 C526 1.394 . S
C524 H540 0.931 . S
C525 C524 1.391 . S
C525 C529 1.376 . S
C526 C524 1.394 . S
C526 C527 1.369 . S
C526 C530 1.531 . S
C527 C526 1.369 . S
C527 C528 1.410 . S
C527 C535 1.503 . S
C528 C527 1.410 . S
C528 C529 1.392 . S
C528 C531 1.511 . S
C529 C525 1.376 . S
C529 C528 1.392 . S
C529 H541 0.929 . S
C530 C526 1.531 . S
C530 H542 0.960 . S
C530 H543 0.962 . S
C530 H544 0.960 . S
C531 C528 1.511 . S
C531 H545 0.961 . S
C531 H546 0.961 . S
C531 H547 0.961 . S
C532 C533 1.370 . S
C532 C534 1.363 . S
C532 H548 0.931 . S
C533 C532 1.370 . S
C533 C537 1.408 . S
C534 C532 1.363 . S
C534 C535 1.370 . S
C534 C538 1.524 . S
C535 C527 1.503 . S
C535 C534 1.370 . S
C535 C536 1.403 . S
C536 C535 1.403 . S
C536 C537 1.404 . S
C536 C539 1.539 . S
C537 C533 1.408 . S
C537 C536 1.404 . S
C537 H549 0.930 . S
C538 C534 1.524 . S
C538 H550 0.956 . S
C538 H551 0.961 . S
C538 H552 0.961 . S
C539 C536 1.539 . S
C539 H553 0.958 . S
C539 H554 0.961 . S
C539 H555 0.960 . S
H540 C524 0.931 . S
H541 C529 0.929 . S
H542 C530 0.960 . S
H543 C530 0.962 . S
H544 C530 0.960 . S
H545 C531 0.961 . S
H546 C531 0.961 . S
H547 C531 0.961 . S
H548 C532 0.931 . S
H549 C537 0.930 . S
H550 C538 0.956 . S
H551 C538 0.961 . S
H552 C538 0.961 . S
H553 C539 0.958 . S
H554 C539 0.961 . S
H555 C539 0.960 . S
C556 C557 1.391 . S
C556 C558 1.394 . S
C556 H572 0.931 . S
C557 C556 1.391 . S
C557 C561 1.376 . S
C558 C556 1.394 . S
C558 C559 1.369 . S
C558 C562 1.531 . S
C559 C558 1.369 . S
C559 C560 1.410 . S
C559 C567 1.503 . S
C560 C559 1.410 . S
C560 C561 1.392 . S
C560 C563 1.511 . S
C561 C557 1.376 . S
C561 C560 1.392 . S
C561 H573 0.929 . S
C562 C558 1.531 . S
C562 H574 0.960 . S
C562 H575 0.962 . S
C562 H576 0.960 . S
C563 C560 1.511 . S
C563 H577 0.961 . S
C563 H578 0.961 . S
C563 H579 0.961 . S
C564 C565 1.370 . S
C564 C566 1.363 . S
C564 H580 0.931 . S
C565 C564 1.370 . S
C565 C569 1.408 . S
C566 C564 1.363 . S
C566 C567 1.370 . S
C566 C570 1.524 . S
C567 C559 1.503 . S
C567 C566 1.370 . S
C567 C568 1.403 . S
C568 C567 1.403 . S
C568 C569 1.404 . S
C568 C571 1.539 . S
C569 C565 1.408 . S
C569 C568 1.404 . S
C569 H581 0.930 . S
C570 C566 1.524 . S
C570 H582 0.956 . S
C570 H583 0.961 . S
C570 H584 0.961 . S
C571 C568 1.539 . S
C571 H585 0.958 . S
C571 H586 0.961 . S
C571 H587 0.960 . S
H572 C556 0.931 . S
H573 C561 0.929 . S
H574 C562 0.960 . S
H575 C562 0.962 . S
H576 C562 0.960 . S
H577 C563 0.961 . S
H578 C563 0.961 . S
H579 C563 0.961 . S
H580 C564 0.931 . S
H581 C569 0.930 . S
H582 C570 0.956 . S
H583 C570 0.961 . S
H584 C570 0.961 . S
H585 C571 0.958 . S
H586 C571 0.961 . S
H587 C571 0.960 . S
C588 C589 1.391 . S
C588 C590 1.394 . S
C588 H604 0.931 . S
C589 C588 1.391 . S
C589 C593 1.376 . S
C590 C588 1.394 . S
C590 C591 1.369 . S
C590 C594 1.531 . S
C591 C590 1.369 . S
C591 C592 1.410 . S
C591 C599 1.503 . S
C592 C591 1.410 . S
C592 C593 1.392 . S
C592 C595 1.511 . S
C593 C589 1.376 . S
C593 C592 1.392 . S
C593 H605 0.929 . S
C594 C590 1.531 . S
C594 H606 0.960 . S
C594 H607 0.962 . S
C594 H608 0.960 . S
C595 C592 1.511 . S
C595 H609 0.961 . S
C595 H610 0.961 . S
C595 H611 0.961 . S
C596 C597 1.370 . S
C596 C598 1.363 . S
C596 H612 0.931 . S
C597 C596 1.370 . S
C597 C601 1.408 . S
C598 C596 1.363 . S
C598 C599 1.370 . S
C598 C602 1.524 . S
C599 C591 1.503 . S
C599 C598 1.370 . S
C599 C600 1.403 . S
C600 C599 1.403 . S
C600 C601 1.404 . S
C600 C603 1.539 . S
C601 C597 1.408 . S
C601 C600 1.404 . S
C601 H613 0.930 . S
C602 C598 1.524 . S
C602 H614 0.956 . S
C602 H615 0.961 . S
C602 H616 0.961 . S
C603 C600 1.539 . S
C603 H617 0.958 . S
C603 H618 0.961 . S
C603 H619 0.960 . S
H604 C588 0.931 . S
H605 C593 0.929 . S
H606 C594 0.960 . S
H607 C594 0.962 . S
H608 C594 0.960 . S
H609 C595 0.961 . S
H610 C595 0.961 . S
H611 C595 0.961 . S
H612 C596 0.931 . S
H613 C601 0.930 . S
H614 C602 0.956 . S
H615 C602 0.961 . S
H616 C602 0.961 . S
H617 C603 0.958 . S
H618 C603 0.961 . S
H619 C603 0.960 . S
C620 C621 1.391 . S
C620 C622 1.394 . S
C620 H636 0.931 . S
C621 C620 1.391 . S
C621 C625 1.376 . S
C622 C620 1.394 . S
C622 C623 1.369 . S
C622 C626 1.531 . S
C623 C622 1.369 . S
C623 C624 1.410 . S
C623 C631 1.503 . S
C624 C623 1.410 . S
C624 C625 1.392 . S
C624 C627 1.511 . S
C625 C621 1.376 . S
C625 C624 1.392 . S
C625 H637 0.929 . S
C626 C622 1.531 . S
C626 H638 0.960 . S
C626 H639 0.962 . S
C626 H640 0.960 . S
C627 C624 1.511 . S
C627 H641 0.961 . S
C627 H642 0.961 . S
C627 H643 0.961 . S
C628 C629 1.370 . S
C628 C630 1.363 . S
C628 H644 0.931 . S
C629 C628 1.370 . S
C629 C633 1.408 . S
C630 C628 1.363 . S
C630 C631 1.370 . S
C630 C634 1.524 . S
C631 C623 1.503 . S
C631 C630 1.370 . S
C631 C632 1.403 . S
C632 C631 1.403 . S
C632 C633 1.404 . S
C632 C635 1.539 . S
C633 C629 1.408 . S
C633 C632 1.404 . S
C633 H645 0.930 . S
C634 C630 1.524 . S
C634 H646 0.956 . S
C634 H647 0.961 . S
C634 H648 0.961 . S
C635 C632 1.539 . S
C635 H649 0.958 . S
C635 H650 0.961 . S
C635 H651 0.960 . S
H636 C620 0.931 . S
H637 C625 0.929 . S
H638 C626 0.960 . S
H639 C626 0.962 . S
H640 C626 0.960 . S
H641 C627 0.961 . S
H642 C627 0.961 . S
H643 C627 0.961 . S
H644 C628 0.931 . S
H645 C633 0.930 . S
H646 C634 0.956 . S
H647 C634 0.961 . S
H648 C634 0.961 . S
H649 C635 0.958 . S
H650 C635 0.961 . S
H651 C635 0.960 . S
C652 C653 1.391 . S
C652 C654 1.394 . S
C652 H668 0.931 . S
C653 C652 1.391 . S
C653 C657 1.376 . S
C654 C652 1.394 . S
C654 C655 1.369 . S
C654 C658 1.531 . S
C655 C654 1.369 . S
C655 C656 1.410 . S
C655 C663 1.503 . S
C656 C655 1.410 . S
C656 C657 1.392 . S
C656 C659 1.511 . S
C657 C653 1.376 . S
C657 C656 1.392 . S
C657 H669 0.929 . S
C658 C654 1.531 . S
C658 H670 0.960 . S
C658 H671 0.962 . S
C658 H672 0.960 . S
C659 C656 1.511 . S
C659 H673 0.961 . S
C659 H674 0.961 . S
C659 H675 0.961 . S
C660 C661 1.370 . S
C660 C662 1.363 . S
C660 H676 0.931 . S
C661 C660 1.370 . S
C661 C665 1.408 . S
C662 C660 1.363 . S
C662 C663 1.370 . S
C662 C666 1.524 . S
C663 C655 1.503 . S
C663 C662 1.370 . S
C663 C664 1.403 . S
C664 C663 1.403 . S
C664 C665 1.404 . S
C664 C667 1.539 . S
C665 C661 1.408 . S
C665 C664 1.404 . S
C665 H677 0.930 . S
C666 C662 1.524 . S
C666 H678 0.956 . S
C666 H679 0.961 . S
C666 H680 0.961 . S
C667 C664 1.539 . S
C667 H681 0.958 . S
C667 H682 0.961 . S
C667 H683 0.960 . S
H668 C652 0.931 . S
H669 C657 0.929 . S
H670 C658 0.960 . S
H671 C658 0.962 . S
H672 C658 0.960 . S
H673 C659 0.961 . S
H674 C659 0.961 . S
H675 C659 0.961 . S
H676 C660 0.931 . S
H677 C665 0.930 . S
H678 C666 0.956 . S
H679 C666 0.961 . S
H680 C666 0.961 . S
H681 C667 0.958 . S
H682 C667 0.961 . S
H683 C667 0.960 . S
C684 C685 1.391 . S
C684 C686 1.394 . S
C684 H700 0.931 . S
C685 C684 1.391 . S
C685 C689 1.376 . S
C686 C684 1.394 . S
C686 C687 1.369 . S
C686 C690 1.531 . S
C687 C686 1.369 . S
C687 C688 1.410 . S
C687 C695 1.503 . S
C688 C687 1.410 . S
C688 C689 1.392 . S
C688 C691 1.511 . S
C689 C685 1.376 . S
C689 C688 1.392 . S
C689 H701 0.929 . S
C690 C686 1.531 . S
C690 H702 0.960 . S
C690 H703 0.962 . S
C690 H704 0.960 . S
C691 C688 1.511 . S
C691 H705 0.961 . S
C691 H706 0.961 . S
C691 H707 0.961 . S
C692 C693 1.370 . S
C692 C694 1.363 . S
C692 H708 0.931 . S
C693 C692 1.370 . S
C693 C697 1.408 . S
C694 C692 1.363 . S
C694 C695 1.370 . S
C694 C698 1.524 . S
C695 C687 1.503 . S
C695 C694 1.370 . S
C695 C696 1.403 . S
C696 C695 1.403 . S
C696 C697 1.404 . S
C696 C699 1.539 . S
C697 C693 1.408 . S
C697 C696 1.404 . S
C697 H709 0.930 . S
C698 C694 1.524 . S
C698 H710 0.956 . S
C698 H711 0.961 . S
C698 H712 0.961 . S
C699 C696 1.539 . S
C699 H713 0.958 . S
C699 H714 0.961 . S
C699 H715 0.960 . S
H700 C684 0.931 . S
H701 C689 0.929 . S
H702 C690 0.960 . S
H703 C690 0.962 . S
H704 C690 0.960 . S
H705 C691 0.961 . S
H706 C691 0.961 . S
H707 C691 0.961 . S
H708 C692 0.931 . S
H709 C697 0.930 . S
H710 C698 0.956 . S
H711 C698 0.961 . S
H712 C698 0.961 . S
H713 C699 0.958 . S
H714 C699 0.961 . S
H715 C699 0.960 . S
C716 C717 1.391 . S
C716 C718 1.394 . S
C716 H732 0.931 . S
C717 C716 1.391 . S
C717 C721 1.376 . S
C718 C716 1.394 . S
C718 C719 1.369 . S
C718 C722 1.531 . S
C719 C718 1.369 . S
C719 C720 1.410 . S
C719 C727 1.503 . S
C720 C719 1.410 . S
C720 C721 1.392 . S
C720 C723 1.511 . S
C721 C717 1.376 . S
C721 C720 1.392 . S
C721 H733 0.929 . S
C722 C718 1.531 . S
C722 H734 0.960 . S
C722 H735 0.962 . S
C722 H736 0.960 . S
C723 C720 1.511 . S
C723 H737 0.961 . S
C723 H738 0.961 . S
C723 H739 0.961 . S
C724 C725 1.370 . S
C724 C726 1.363 . S
C724 H740 0.931 . S
C725 C724 1.370 . S
C725 C729 1.408 . S
C726 C724 1.363 . S
C726 C727 1.370 . S
C726 C730 1.524 . S
C727 C719 1.503 . S
C727 C726 1.370 . S
C727 C728 1.403 . S
C728 C727 1.403 . S
C728 C729 1.404 . S
C728 C731 1.539 . S
C729 C725 1.408 . S
C729 C728 1.404 . S
C729 H741 0.930 . S
C730 C726 1.524 . S
C730 H742 0.956 . S
C730 H743 0.961 . S
C730 H744 0.961 . S
C731 C728 1.539 . S
C731 H745 0.958 . S
C731 H746 0.961 . S
C731 H747 0.960 . S
H732 C716 0.931 . S
H733 C721 0.929 . S
H734 C722 0.960 . S
H735 C722 0.962 . S
H736 C722 0.960 . S
H737 C723 0.961 . S
H738 C723 0.961 . S
H739 C723 0.961 . S
H740 C724 0.931 . S
H741 C729 0.930 . S
H742 C730 0.956 . S
H743 C730 0.961 . S
H744 C730 0.961 . S
H745 C731 0.958 . S
H746 C731 0.961 . S
H747 C731 0.960 . S
C748 C749 1.391 . S
C748 C750 1.394 . S
C748 H764 0.931 . S
C749 C748 1.391 . S
C749 C753 1.376 . S
C750 C748 1.394 . S
C750 C751 1.369 . S
C750 C754 1.531 . S
C751 C750 1.369 . S
C751 C752 1.410 . S
C751 C759 1.503 . S
C752 C751 1.410 . S
C752 C753 1.392 . S
C752 C755 1.511 . S
C753 C749 1.376 . S
C753 C752 1.392 . S
C753 H765 0.929 . S
C754 C750 1.531 . S
C754 H766 0.960 . S
C754 H767 0.962 . S
C754 H768 0.960 . S
C755 C752 1.511 . S
C755 H769 0.961 . S
C755 H770 0.961 . S
C755 H771 0.961 . S
C756 C757 1.370 . S
C756 C758 1.363 . S
C756 H772 0.931 . S
C757 C756 1.370 . S
C757 C761 1.408 . S
C758 C756 1.363 . S
C758 C759 1.370 . S
C758 C762 1.524 . S
C759 C751 1.503 . S
C759 C758 1.370 . S
C759 C760 1.403 . S
C760 C759 1.403 . S
C760 C761 1.404 . S
C760 C763 1.539 . S
C761 C757 1.408 . S
C761 C760 1.404 . S
C761 H773 0.930 . S
C762 C758 1.524 . S
C762 H774 0.956 . S
C762 H775 0.961 . S
C762 H776 0.961 . S
C763 C760 1.539 . S
C763 H777 0.958 . S
C763 H778 0.961 . S
C763 H779 0.960 . S
H764 C748 0.931 . S
H765 C753 0.929 . S
H766 C754 0.960 . S
H767 C754 0.962 . S
H768 C754 0.960 . S
H769 C755 0.961 . S
H770 C755 0.961 . S
H771 C755 0.961 . S
H772 C756 0.931 . S
H773 C761 0.930 . S
H774 C762 0.956 . S
H775 C762 0.961 . S
H776 C762 0.961 . S
H777 C763 0.958 . S
H778 C763 0.961 . S
H779 C763 0.960 . S
C780 C781 1.391 . S
C780 C782 1.394 . S
C780 H796 0.931 . S
C781 C780 1.391 . S
C781 C785 1.376 . S
C782 C780 1.394 . S
C782 C783 1.369 . S
C782 C786 1.531 . S
C783 C782 1.369 . S
C783 C784 1.410 . S
C783 C791 1.503 . S
C784 C783 1.410 . S
C784 C785 1.392 . S
C784 C787 1.511 . S
C785 C781 1.376 . S
C785 C784 1.392 . S
C785 H797 0.929 . S
C786 C782 1.531 . S
C786 H798 0.960 . S
C786 H799 0.962 . S
C786 H800 0.960 . S
C787 C784 1.511 . S
C787 H801 0.961 . S
C787 H802 0.961 . S
C787 H803 0.961 . S
C788 C789 1.370 . S
C788 C790 1.363 . S
C788 H804 0.931 . S
C789 C788 1.370 . S
C789 C793 1.408 . S
C790 C788 1.363 . S
C790 C791 1.370 . S
C790 C794 1.524 . S
C791 C783 1.503 . S
C791 C790 1.370 . S
C791 C792 1.403 . S
C792 C791 1.403 . S
C792 C793 1.404 . S
C792 C795 1.539 . S
C793 C789 1.408 . S
C793 C792 1.404 . S
C793 H805 0.930 . S
C794 C790 1.524 . S
C794 H806 0.956 . S
C794 H807 0.961 . S
C794 H808 0.961 . S
C795 C792 1.539 . S
C795 H809 0.958 . S
C795 H810 0.961 . S
C795 H811 0.960 . S
H796 C780 0.931 . S
H797 C785 0.929 . S
H798 C786 0.960 . S
H799 C786 0.962 . S
H800 C786 0.960 . S
H801 C787 0.961 . S
H802 C787 0.961 . S
H803 C787 0.961 . S
H804 C788 0.931 . S
H805 C793 0.930 . S
H806 C794 0.956 . S
H807 C794 0.961 . S
H808 C794 0.961 . S
H809 C795 0.958 . S
H810 C795 0.961 . S
H811 C795 0.960 . S
C812 C813 1.391 . S
C812 C814 1.394 . S
C812 H828 0.931 . S
C813 C812 1.391 . S
C813 C817 1.376 . S
C814 C812 1.394 . S
C814 C815 1.369 . S
C814 C818 1.531 . S
C815 C814 1.369 . S
C815 C816 1.410 . S
C815 C823 1.503 . S
C816 C815 1.410 . S
C816 C817 1.392 . S
C816 C819 1.511 . S
C817 C813 1.376 . S
C817 C816 1.392 . S
C817 H829 0.929 . S
C818 C814 1.531 . S
C818 H830 0.960 . S
C818 H831 0.962 . S
C818 H832 0.960 . S
C819 C816 1.511 . S
C819 H833 0.961 . S
C819 H834 0.961 . S
C819 H835 0.961 . S
C820 C821 1.370 . S
C820 C822 1.363 . S
C820 H836 0.931 . S
C821 C820 1.370 . S
C821 C825 1.408 . S
C822 C820 1.363 . S
C822 C823 1.370 . S
C822 C826 1.524 . S
C823 C815 1.503 . S
C823 C822 1.370 . S
C823 C824 1.403 . S
C824 C823 1.403 . S
C824 C825 1.404 . S
C824 C827 1.539 . S
C825 C821 1.408 . S
C825 C824 1.404 . S
C825 H837 0.930 . S
C826 C822 1.524 . S
C826 H838 0.956 . S
C826 H839 0.961 . S
C826 H840 0.961 . S
C827 C824 1.539 . S
C827 H841 0.958 . S
C827 H842 0.961 . S
C827 H843 0.960 . S
H828 C812 0.931 . S
H829 C817 0.929 . S
H830 C818 0.960 . S
H831 C818 0.962 . S
H832 C818 0.960 . S
H833 C819 0.961 . S
H834 C819 0.961 . S
H835 C819 0.961 . S
H836 C820 0.931 . S
H837 C825 0.930 . S
H838 C826 0.956 . S
H839 C826 0.961 . S
H840 C826 0.961 . S
H841 C827 0.958 . S
H842 C827 0.961 . S
H843 C827 0.960 . S
C844 C845 1.391 . S
C844 C846 1.394 . S
C844 H860 0.931 . S
C845 C844 1.391 . S
C845 C849 1.376 . S
C846 C844 1.394 . S
C846 C847 1.369 . S
C846 C850 1.531 . S
C847 C846 1.369 . S
C847 C848 1.410 . S
C847 C855 1.503 . S
C848 C847 1.410 . S
C848 C849 1.392 . S
C848 C851 1.511 . S
C849 C845 1.376 . S
C849 C848 1.392 . S
C849 H861 0.929 . S
C850 C846 1.531 . S
C850 H862 0.960 . S
C850 H863 0.962 . S
C850 H864 0.960 . S
C851 C848 1.511 . S
C851 H865 0.961 . S
C851 H866 0.961 . S
C851 H867 0.961 . S
C852 C853 1.370 . S
C852 C854 1.363 . S
C852 H868 0.931 . S
C853 C852 1.370 . S
C853 C857 1.408 . S
C854 C852 1.363 . S
C854 C855 1.370 . S
C854 C858 1.524 . S
C855 C847 1.503 . S
C855 C854 1.370 . S
C855 C856 1.403 . S
C856 C855 1.403 . S
C856 C857 1.404 . S
C856 C859 1.539 . S
C857 C853 1.408 . S
C857 C856 1.404 . S
C857 H869 0.930 . S
C858 C854 1.524 . S
C858 H870 0.956 . S
C858 H871 0.961 . S
C858 H872 0.961 . S
C859 C856 1.539 . S
C859 H873 0.958 . S
C859 H874 0.961 . S
C859 H875 0.960 . S
H860 C844 0.931 . S
H861 C849 0.929 . S
H862 C850 0.960 . S
H863 C850 0.962 . S
H864 C850 0.960 . S
H865 C851 0.961 . S
H866 C851 0.961 . S
H867 C851 0.961 . S
H868 C852 0.931 . S
H869 C857 0.930 . S
H870 C858 0.956 . S
H871 C858 0.961 . S
H872 C858 0.961 . S
H873 C859 0.958 . S
H874 C859 0.961 . S
H875 C859 0.960 . S
C876 C877 1.391 . S
C876 C878 1.394 . S
C876 H892 0.931 . S
C877 C876 1.391 . S
C877 C881 1.376 . S
C878 C876 1.394 . S
C878 C879 1.369 . S
C878 C882 1.531 . S
C879 C878 1.369 . S
C879 C880 1.410 . S
C879 C887 1.503 . S
C880 C879 1.410 . S
C880 C881 1.392 . S
C880 C883 1.511 . S
C881 C877 1.376 . S
C881 C880 1.392 . S
C881 H893 0.929 . S
C882 C878 1.531 . S
C882 H894 0.960 . S
C882 H895 0.962 . S
C882 H896 0.960 . S
C883 C880 1.511 . S
C883 H897 0.961 . S
C883 H898 0.961 . S
C883 H899 0.961 . S
C884 C885 1.370 . S
C884 C886 1.363 . S
C884 H900 0.931 . S
C885 C884 1.370 . S
C885 C889 1.408 . S
C886 C884 1.363 . S
C886 C887 1.370 . S
C886 C890 1.524 . S
C887 C879 1.503 . S
C887 C886 1.370 . S
C887 C888 1.403 . S
C888 C887 1.403 . S
C888 C889 1.404 . S
C888 C891 1.539 . S
C889 C885 1.408 . S
C889 C888 1.404 . S
C889 H901 0.930 . S
C890 C886 1.524 . S
C890 H902 0.956 . S
C890 H903 0.961 . S
C890 H904 0.961 . S
C891 C888 1.539 . S
C891 H905 0.958 . S
C891 H906 0.961 . S
C891 H907 0.960 . S
H892 C876 0.931 . S
H893 C881 0.929 . S
H894 C882 0.960 . S
H895 C882 0.962 . S
H896 C882 0.960 . S
H897 C883 0.961 . S
H898 C883 0.961 . S
H899 C883 0.961 . S
H900 C884 0.931 . S
H901 C889 0.930 . S
H902 C890 0.956 . S
H903 C890 0.961 . S
H904 C890 0.961 . S
H905 C891 0.958 . S
H906 C891 0.961 . S
H907 C891 0.960 . S
C908 C909 1.391 . S
C908 C910 1.394 . S
C908 H924 0.931 . S
C909 C908 1.391 . S
C909 C913 1.376 . S
C910 C908 1.394 . S
C910 C911 1.369 . S
C910 C914 1.531 . S
C911 C910 1.369 . S
C911 C912 1.410 . S
C911 C919 1.503 . S
C912 C911 1.410 . S
C912 C913 1.392 . S
C912 C915 1.511 . S
C913 C909 1.376 . S
C913 C912 1.392 . S
C913 H925 0.929 . S
C914 C910 1.531 . S
C914 H926 0.960 . S
C914 H927 0.962 . S
C914 H928 0.960 . S
C915 C912 1.511 . S
C915 H929 0.961 . S
C915 H930 0.961 . S
C915 H931 0.961 . S
C916 C917 1.370 . S
C916 C918 1.363 . S
C916 H932 0.931 . S
C917 C916 1.370 . S
C917 C921 1.408 . S
C918 C916 1.363 . S
C918 C919 1.370 . S
C918 C922 1.524 . S
C919 C911 1.503 . S
C919 C918 1.370 . S
C919 C920 1.403 . S
C920 C919 1.403 . S
C920 C921 1.404 . S
C920 C923 1.539 . S
C921 C917 1.408 . S
C921 C920 1.404 . S
C921 H933 0.930 . S
C922 C918 1.524 . S
C922 H934 0.956 . S
C922 H935 0.961 . S
C922 H936 0.961 . S
C923 C920 1.539 . S
C923 H937 0.958 . S
C923 H938 0.961 . S
C923 H939 0.960 . S
H924 C908 0.931 . S
H925 C913 0.929 . S
H926 C914 0.960 . S
H927 C914 0.962 . S
H928 C914 0.960 . S
H929 C915 0.961 . S
H930 C915 0.961 . S
H931 C915 0.961 . S
H932 C916 0.931 . S
H933 C921 0.930 . S
H934 C922 0.956 . S
H935 C922 0.961 . S
H936 C922 0.961 . S
H937 C923 0.958 . S
H938 C923 0.961 . S
H939 C923 0.960 . S
C940 C941 1.391 . S
C940 C942 1.394 . S
C940 H956 0.931 . S
C941 C940 1.391 . S
C941 C945 1.376 . S
C942 C940 1.394 . S
C942 C943 1.369 . S
C942 C946 1.531 . S
C943 C942 1.369 . S
C943 C944 1.410 . S
C943 C951 1.503 . S
C944 C943 1.410 . S
C944 C945 1.392 . S
C944 C947 1.511 . S
C945 C941 1.376 . S
C945 C944 1.392 . S
C945 H957 0.929 . S
C946 C942 1.531 . S
C946 H958 0.960 . S
C946 H959 0.962 . S
C946 H960 0.960 . S
C947 C944 1.511 . S
C947 H961 0.961 . S
C947 H962 0.961 . S
C947 H963 0.961 . S
C948 C949 1.370 . S
C948 C950 1.363 . S
C948 H964 0.931 . S
C949 C948 1.370 . S
C949 C953 1.408 . S
C950 C948 1.363 . S
C950 C951 1.370 . S
C950 C954 1.524 . S
C951 C943 1.503 . S
C951 C950 1.370 . S
C951 C952 1.403 . S
C952 C951 1.403 . S
C952 C953 1.404 . S
C952 C955 1.539 . S
C953 C949 1.408 . S
C953 C952 1.404 . S
C953 H965 0.930 . S
C954 C950 1.524 . S
C954 H966 0.956 . S
C954 H967 0.961 . S
C954 H968 0.961 . S
C955 C952 1.539 . S
C955 H969 0.958 . S
C955 H970 0.961 . S
C955 H971 0.960 . S
H956 C940 0.931 . S
H957 C945 0.929 . S
H958 C946 0.960 . S
H959 C946 0.962 . S
H960 C946 0.960 . S
H961 C947 0.961 . S
H962 C947 0.961 . S
H963 C947 0.961 . S
H964 C948 0.931 . S
H965 C953 0.930 . S
H966 C954 0.956 . S
H967 C954 0.961 . S
H968 C954 0.961 . S
H969 C955 0.958 . S
H970 C955 0.961 . S
H971 C955 0.960 . S
C972 C973 1.391 . S
C972 C974 1.394 . S
C972 H988 0.931 . S
C973 C972 1.391 . S
C973 C977 1.376 . S
C974 C972 1.394 . S
C974 C975 1.369 . S
C974 C978 1.531 . S
C975 C974 1.369 . S
C975 C976 1.410 . S
C975 C983 1.503 . S
C976 C975 1.410 . S
C976 C977 1.392 . S
C976 C979 1.511 . S
C977 C973 1.376 . S
C977 C976 1.392 . S
C977 H989 0.929 . S
C978 C974 1.531 . S
C978 H990 0.960 . S
C978 H991 0.962 . S
C978 H992 0.960 . S
C979 C976 1.511 . S
C979 H993 0.961 . S
C979 H994 0.961 . S
C979 H995 0.961 . S
C980 C981 1.370 . S
C980 C982 1.363 . S
C980 H996 0.931 . S
C981 C980 1.370 . S
C981 C985 1.408 . S
C982 C980 1.363 . S
C982 C983 1.370 . S
C982 C986 1.524 . S
C983 C975 1.503 . S
C983 C982 1.370 . S
C983 C984 1.403 . S
C984 C983 1.403 . S
C984 C985 1.404 . S
C984 C987 1.539 . S
C985 C981 1.408 . S
C985 C984 1.404 . S
C985 H997 0.930 . S
C986 C982 1.524 . S
C986 H998 0.956 . S
C986 H999 0.961 . S
C986 H1000 0.961 . S
C987 C984 1.539 . S
C987 H1001 0.958 . S
C987 H1002 0.961 . S
C987 H1003 0.960 . S
H988 C972 0.931 . S
H989 C977 0.929 . S
H990 C978 0.960 . S
H991 C978 0.962 . S
H992 C978 0.960 . S
H993 C979 0.961 . S
H994 C979 0.961 . S
H995 C979 0.961 . S
H996 C980 0.931 . S
H997 C985 0.930 . S
H998 C986 0.956 . S
H999 C986 0.961 . S
H1000 C986 0.961 . S
H1001 C987 0.958 . S
H1002 C987 0.961 . S
H1003 C987 0.960 . S
C1004 C1005 1.391 . S
C1004 C1006 1.394 . S
C1004 H1020 0.931 . S
C1005 C1004 1.391 . S
C1005 C1009 1.376 . S
C1006 C1004 1.394 . S
C1006 C1007 1.369 . S
C1006 C1010 1.531 . S
C1007 C1006 1.369 . S
C1007 C1008 1.410 . S
C1007 C1015 1.503 . S
C1008 C1007 1.410 . S
C1008 C1009 1.392 . S
C1008 C1011 1.511 . S
C1009 C1005 1.376 . S
C1009 C1008 1.392 . S
C1009 H1021 0.929 . S
C1010 C1006 1.531 . S
C1010 H1022 0.960 . S
C1010 H1023 0.962 . S
C1010 H1024 0.960 . S
C1011 C1008 1.511 . S
C1011 H1025 0.961 . S
C1011 H1026 0.961 . S
C1011 H1027 0.961 . S
C1012 C1013 1.370 . S
C1012 C1014 1.363 . S
C1012 H1028 0.931 . S
C1013 C1012 1.370 . S
C1013 C1017 1.408 . S
C1014 C1012 1.363 . S
C1014 C1015 1.370 . S
C1014 C1018 1.524 . S
C1015 C1007 1.503 . S
C1015 C1014 1.370 . S
C1015 C1016 1.403 . S
C1016 C1015 1.403 . S
C1016 C1017 1.404 . S
C1016 C1019 1.539 . S
C1017 C1013 1.408 . S
C1017 C1016 1.404 . S
C1017 H1029 0.930 . S
C1018 C1014 1.524 . S
C1018 H1030 0.956 . S
C1018 H1031 0.961 . S
C1018 H1032 0.961 . S
C1019 C1016 1.539 . S
C1019 H1033 0.958 . S
C1019 H1034 0.961 . S
C1019 H1035 0.960 . S
H1020 C1004 0.931 . S
H1021 C1009 0.929 . S
H1022 C1010 0.960 . S
H1023 C1010 0.962 . S
H1024 C1010 0.960 . S
H1025 C1011 0.961 . S
H1026 C1011 0.961 . S
H1027 C1011 0.961 . S
H1028 C1012 0.931 . S
H1029 C1017 0.930 . S
H1030 C1018 0.956 . S
H1031 C1018 0.961 . S
H1032 C1018 0.961 . S
H1033 C1019 0.958 . S
H1034 C1019 0.961 . S
H1035 C1019 0.960 . S
C1036 C1037 1.391 . S
C1036 C1038 1.394 . S
C1036 H1052 0.931 . S
C1037 C1036 1.391 . S
C1037 C1041 1.376 . S
C1038 C1036 1.394 . S
C1038 C1039 1.369 . S
C1038 C1042 1.531 . S
C1039 C1038 1.369 . S
C1039 C1040 1.410 . S
C1039 C1047 1.503 . S
C1040 C1039 1.410 . S
C1040 C1041 1.392 . S
C1040 C1043 1.511 . S
C1041 C1037 1.376 . S
C1041 C1040 1.392 . S
C1041 H1053 0.929 . S
C1042 C1038 1.531 . S
C1042 H1054 0.960 . S
C1042 H1055 0.962 . S
C1042 H1056 0.960 . S
C1043 C1040 1.511 . S
C1043 H1057 0.961 . S
C1043 H1058 0.961 . S
C1043 H1059 0.961 . S
C1044 C1045 1.370 . S
C1044 C1046 1.363 . S
C1044 H1060 0.931 . S
C1045 C1044 1.370 . S
C1045 C1049 1.408 . S
C1046 C1044 1.363 . S
C1046 C1047 1.370 . S
C1046 C1050 1.524 . S
C1047 C1039 1.503 . S
C1047 C1046 1.370 . S
C1047 C1048 1.403 . S
C1048 C1047 1.403 . S
C1048 C1049 1.404 . S
C1048 C1051 1.539 . S
C1049 C1045 1.408 . S
C1049 C1048 1.404 . S
C1049 H1061 0.930 . S
C1050 C1046 1.524 . S
C1050 H1062 0.956 . S
C1050 H1063 0.961 . S
C1050 H1064 0.961 . S
C1051 C1048 1.539 . S
C1051 H1065 0.958 . S
C1051 H1066 0.961 . S
C1051 H1067 0.960 . S
H1052 C1036 0.931 . S
H1053 C1041 0.929 . S
H1054 C1042 0.960 . S
H1055 C1042 0.962 . S
H1056 C1042 0.960 . S
H1057 C1043 0.961 . S
H1058 C1043 0.961 . S
H1059 C1043 0.961 . S
H1060 C1044 0.931 . S
H1061 C1049 0.930 . S
H1062 C1050 0.956 . S
H1063 C1050 0.961 . S
H1064 C1050 0.961 . S
H1065 C1051 0.958 . S
H1066 C1051 0.961 . S
H1067 C1051 0.960 . S
C1068 C1069 1.391 . S
C1068 C1070 1.394 . S
C1068 H1084 0.931 . S
C1069 C1068 1.391 . S
C1069 C1073 1.376 . S
C1070 C1068 1.394 . S
C1070 C1071 1.369 . S
C1070 C1074 1.531 . S
C1071 C1070 1.369 . S
C1071 C1072 1.410 . S
C1071 C1079 1.503 . S
C1072 C1071 1.410 . S
C1072 C1073 1.392 . S
C1072 C1075 1.511 . S
C1073 C1069 1.376 . S
C1073 C1072 1.392 . S
C1073 H1085 0.929 . S
C1074 C1070 1.531 . S
C1074 H1086 0.960 . S
C1074 H1087 0.962 . S
C1074 H1088 0.960 . S
C1075 C1072 1.511 . S
C1075 H1089 0.961 . S
C1075 H1090 0.961 . S
C1075 H1091 0.961 . S
C1076 C1077 1.370 . S
C1076 C1078 1.363 . S
C1076 H1092 0.931 . S
C1077 C1076 1.370 . S
C1077 C1081 1.408 . S
C1078 C1076 1.363 . S
C1078 C1079 1.370 . S
C1078 C1082 1.524 . S
C1079 C1071 1.503 . S
C1079 C1078 1.370 . S
C1079 C1080 1.403 . S
C1080 C1079 1.403 . S
C1080 C1081 1.404 . S
C1080 C1083 1.539 . S
C1081 C1077 1.408 . S
C1081 C1080 1.404 . S
C1081 H1093 0.930 . S
C1082 C1078 1.524 . S
C1082 H1094 0.956 . S
C1082 H1095 0.961 . S
C1082 H1096 0.961 . S
C1083 C1080 1.539 . S
C1083 H1097 0.958 . S
C1083 H1098 0.961 . S
C1083 H1099 0.960 . S
H1084 C1068 0.931 . S
H1085 C1073 0.929 . S
H1086 C1074 0.960 . S
H1087 C1074 0.962 . S
H1088 C1074 0.960 . S
H1089 C1075 0.961 . S
H1090 C1075 0.961 . S
H1091 C1075 0.961 . S
H1092 C1076 0.931 . S
H1093 C1081 0.930 . S
H1094 C1082 0.956 . S
H1095 C1082 0.961 . S
H1096 C1082 0.961 . S
H1097 C1083 0.958 . S
H1098 C1083 0.961 . S
H1099 C1083 0.960 . S
C1100 C1101 1.391 . S
C1100 C1102 1.394 . S
C1100 H1116 0.931 . S
C1101 C1100 1.391 . S
C1101 C1105 1.376 . S
C1102 C1100 1.394 . S
C1102 C1103 1.369 . S
C1102 C1106 1.531 . S
C1103 C1102 1.369 . S
C1103 C1104 1.410 . S
C1103 C1111 1.503 . S
C1104 C1103 1.410 . S
C1104 C1105 1.392 . S
C1104 C1107 1.511 . S
C1105 C1101 1.376 . S
C1105 C1104 1.392 . S
C1105 H1117 0.929 . S
C1106 C1102 1.531 . S
C1106 H1118 0.960 . S
C1106 H1119 0.962 . S
C1106 H1120 0.960 . S
C1107 C1104 1.511 . S
C1107 H1121 0.961 . S
C1107 H1122 0.961 . S
C1107 H1123 0.961 . S
C1108 C1109 1.370 . S
C1108 C1110 1.363 . S
C1108 H1124 0.931 . S
C1109 C1108 1.370 . S
C1109 C1113 1.408 . S
C1110 C1108 1.363 . S
C1110 C1111 1.370 . S
C1110 C1114 1.524 . S
C1111 C1103 1.503 . S
C1111 C1110 1.370 . S
C1111 C1112 1.403 . S
C1112 C1111 1.403 . S
C1112 C1113 1.404 . S
C1112 C1115 1.539 . S
C1113 C1109 1.408 . S
C1113 C1112 1.404 . S
C1113 H1125 0.930 . S
C1114 C1110 1.524 . S
C1114 H1126 0.956 . S
C1114 H1127 0.961 . S
C1114 H1128 0.961 . S
C1115 C1112 1.539 . S
C1115 H1129 0.958 . S
C1115 H1130 0.961 . S
C1115 H1131 0.960 . S
H1116 C1100 0.931 . S
H1117 C1105 0.929 . S
H1118 C1106 0.960 . S
H1119 C1106 0.962 . S
H1120 C1106 0.960 . S
H1121 C1107 0.961 . S
H1122 C1107 0.961 . S
H1123 C1107 0.961 . S
H1124 C1108 0.931 . S
H1125 C1113 0.930 . S
H1126 C1114 0.956 . S
H1127 C1114 0.961 . S
H1128 C1114 0.961 . S
H1129 C1115 0.958 . S
H1130 C1115 0.961 . S
H1131 C1115 0.960 . S
C1132 C1133 1.391 . S
C1132 C1134 1.394 . S
C1132 H1148 0.931 . S
C1133 C1132 1.391 . S
C1133 C1137 1.376 . S
C1134 C1132 1.394 . S
C1134 C1135 1.369 . S
C1134 C1138 1.531 . S
C1135 C1134 1.369 . S
C1135 C1136 1.410 . S
C1135 C1143 1.503 . S
C1136 C1135 1.410 . S
C1136 C1137 1.392 . S
C1136 C1139 1.511 . S
C1137 C1133 1.376 . S
C1137 C1136 1.392 . S
C1137 H1149 0.929 . S
C1138 C1134 1.531 . S
C1138 H1150 0.960 . S
C1138 H1151 0.962 . S
C1138 H1152 0.960 . S
C1139 C1136 1.511 . S
C1139 H1153 0.961 . S
C1139 H1154 0.961 . S
C1139 H1155 0.961 . S
C1140 C1141 1.370 . S
C1140 C1142 1.363 . S
C1140 H1156 0.931 . S
C1141 C1140 1.370 . S
C1141 C1145 1.408 . S
C1142 C1140 1.363 . S
C1142 C1143 1.370 . S
C1142 C1146 1.524 . S
C1143 C1135 1.503 . S
C1143 C1142 1.370 . S
C1143 C1144 1.403 . S
C1144 C1143 1.403 . S
C1144 C1145 1.404 . S
C1144 C1147 1.539 . S
C1145 C1141 1.408 . S
C1145 C1144 1.404 . S
C1145 H1157 0.930 . S
C1146 C1142 1.524 . S
C1146 H1158 0.956 . S
C1146 H1159 0.961 . S
C1146 H1160 0.961 . S
C1147 C1144 1.539 . S
C1147 H1161 0.958 . S
C1147 H1162 0.961 . S
C1147 H1163 0.960 . S
H1148 C1132 0.931 . S
H1149 C1137 0.929 . S
H1150 C1138 0.960 . S
H1151 C1138 0.962 . S
H1152 C1138 0.960 . S
H1153 C1139 0.961 . S
H1154 C1139 0.961 . S
H1155 C1139 0.961 . S
H1156 C1140 0.931 . S
H1157 C1145 0.930 . S
H1158 C1146 0.956 . S
H1159 C1146 0.961 . S
H1160 C1146 0.961 . S
H1161 C1147 0.958 . S
H1162 C1147 0.961 . S
H1163 C1147 0.960 . S
C1164 C1165 1.391 . S
C1164 C1166 1.394 . S
C1164 H1180 0.931 . S
C1165 C1164 1.391 . S
C1165 C1169 1.376 . S
C1166 C1164 1.394 . S
C1166 C1167 1.369 . S
C1166 C1170 1.531 . S
C1167 C1166 1.369 . S
C1167 C1168 1.410 . S
C1167 C1175 1.503 . S
C1168 C1167 1.410 . S
C1168 C1169 1.392 . S
C1168 C1171 1.511 . S
C1169 C1165 1.376 . S
C1169 C1168 1.392 . S
C1169 H1181 0.929 . S
C1170 C1166 1.531 . S
C1170 H1182 0.960 . S
C1170 H1183 0.962 . S
C1170 H1184 0.960 . S
C1171 C1168 1.511 . S
C1171 H1185 0.961 . S
C1171 H1186 0.961 . S
C1171 H1187 0.961 . S
C1172 C1173 1.370 . S
C1172 C1174 1.363 . S
C1172 H1188 0.931 . S
C1173 C1172 1.370 . S
C1173 C1177 1.408 . S
C1174 C1172 1.363 . S
C1174 C1175 1.370 . S
C1174 C1178 1.524 . S
C1175 C1167 1.503 . S
C1175 C1174 1.370 . S
C1175 C1176 1.403 . S
C1176 C1175 1.403 . S
C1176 C1177 1.404 . S
C1176 C1179 1.539 . S
C1177 C1173 1.408 . S
C1177 C1176 1.404 . S
C1177 H1189 0.930 . S
C1178 C1174 1.524 . S
C1178 H1190 0.956 . S
C1178 H1191 0.961 . S
C1178 H1192 0.961 . S
C1179 C1176 1.539 . S
C1179 H1193 0.958 . S
C1179 H1194 0.961 . S
C1179 H1195 0.960 . S
H1180 C1164 0.931 . S
H1181 C1169 0.929 . S
H1182 C1170 0.960 . S
H1183 C1170 0.962 . S
H1184 C1170 0.960 . S
H1185 C1171 0.961 . S
H1186 C1171 0.961 . S
H1187 C1171 0.961 . S
H1188 C1172 0.931 . S
H1189 C1177 0.930 . S
H1190 C1178 0.956 . S
H1191 C1178 0.961 . S
H1192 C1178 0.961 . S
H1193 C1179 0.958 . S
H1194 C1179 0.961 . S
H1195 C1179 0.960 . S
C437 C327 1.544 . S
C429 C15 1.582 . S
C469 C346 1.530 . S
C461 C55 1.576 . S
C501 C336 1.584 . S
C493 C101 1.584 . S
C533 C352 1.617 . S
C525 C141 1.649 . S
C565 C363 1.523 . S
C557 C2 1.549 . S
C597 C388 1.485 . S
C589 C61 1.508 . S
C621 C95 1.652 . S
C629 C406 1.568 . S
C661 C426 1.465 . S
C653 C135 1.545 . S
C693 C372 1.498 . S
C685 C42 1.532 . S
C717 C82 1.540 . S
C725 C382 1.476 . S
C757 C400 1.596 . S
C749 C122 1.655 . S
C789 C417 1.487 . S
C781 C21 1.505 . S
C813 C162 1.687 . S
C821 C345 1.626 . S
C853 C328 1.612 . S
C845 C221 1.656 . S
C877 C255 1.634 . S
C885 C354 1.567 . S
C909 C282 1.607 . S
C917 C334 1.574 . S
C949 C408 1.625 . S
C941 C181 1.740 . S
C981 C418 1.501 . S
C973 C202 1.569 . S
C1013 C364 1.524 . S
C1005 C242 1.604 . S
C1037 C301 1.524 . S
C1045 C381 1.498 . S
C1077 C399 1.621 . S
C1069 C215 1.698 . S
C1109 C424 1.503 . S
C1101 C261 1.564 . S
C1141 C370 1.535 . S
C1133 C295 1.622 . S
C1165 C175 1.558 . S
C1173 C390 1.479 . S
