# Generated by pormake.
# Topology ftw, (4,12)-cn, num edge types: 1
# Building blocks:
#     Node 0, Type 0, BuildingBlock: AZAVOO_clean_linker_0, # of connection points: 4
#     Node 1, Type 0, BuildingBlock: AZAVOO_clean_linker_0, # of connection points: 4
#     Node 2, Type 0, BuildingBlock: AZAVOO_clean_linker_0, # of connection points: 4
#     Node 3, Type 1, BuildingBlock: QEWDON_clean_sbu_0, # of connection points: 12
#     Edge 4, Type (0, 1), BuildingBlock: FUNLAD_clean_linker_0, # of connection points: 2
#     Edge 5, Type (0, 1), BuildingBlock: FUNLAD_clean_linker_0, # of connection points: 2
#     Edge 6, Type (0, 1), BuildingBlock: FUNLAD_clean_linker_0, # of connection points: 2
#     Edge 7, Type (0, 1), BuildingBlock: FUNLAD_clean_linker_0, # of connection points: 2
#     Edge 8, Type (0, 1), BuildingBlock: FUNLAD_clean_linker_0, # of connection points: 2
#     Edge 9, Type (0, 1), BuildingBlock: FUNLAD_clean_linker_0, # of connection points: 2
#     Edge 10, Type (0, 1), BuildingBlock: FUNLAD_clean_linker_0, # of connection points: 2
#     Edge 11, Type (0, 1), BuildingBlock: FUNLAD_clean_linker_0, # of connection points: 2
#     Edge 12, Type (0, 1), BuildingBlock: FUNLAD_clean_linker_0, # of connection points: 2
#     Edge 13, Type (0, 1), BuildingBlock: FUNLAD_clean_linker_0, # of connection points: 2
#     Edge 14, Type (0, 1), BuildingBlock: FUNLAD_clean_linker_0, # of connection points: 2
#     Edge 15, Type (0, 1), BuildingBlock: FUNLAD_clean_linker_0, # of connection points: 2
# Relax obj value: 0.073
# Max RMSD: 0.223
# Mean RMSD: 0.192
data_MOF--net-ftw--node1-QEWDON_clean_sbu_0--node2-AZAVOO_clean_linker_0--edge1-FUNLAD_clean_linker_0
_symmetry_space_group_name_H-M    P1
_symmetry_Int_Tables_number       1
_symmetry_cell_setting            triclinic
loop_
_symmetry_equiv_pos_as_xyz
'x, y, z'
_cell_length_a     31.346803
_cell_length_b     31.0864
_cell_length_c     32.371697
_cell_angle_alpha  91.07149
_cell_angle_beta   89.02629
_cell_angle_gamma 91.224764
loop_
_atom_site_label
_atom_site_type_symbol
_atom_site_fract_x
_atom_site_fract_y
_atom_site_fract_z
_atom_type_partial_charge
H0 H 0.05627 0.22887 0.44108 0.0
H1 H 0.8988 0.57936 0.76063 0.0
H2 H 0.06567 0.46073 0.43204 0.0
H3 H 0.0754 0.41177 0.37282 0.0
H4 H 0.94156 0.42092 0.34533 0.0
H5 H 0.93229 0.47027 0.40451 0.0
H6 H 0.05637 0.40439 0.50955 0.0
H7 H 0.06789 0.32996 0.48665 0.0
H8 H 0.94083 0.324 0.43653 0.0
H9 H 0.92962 0.39825 0.46005 0.0
H10 H 0.03559 0.45022 0.59993 0.0
H11 H 0.02747 0.3984 0.65572 0.0
H12 H 0.90703 0.35445 0.60524 0.0
H13 H 0.91482 0.40743 0.55056 0.0
H14 H 0.03333 0.54564 0.60187 0.0
H15 H 0.02015 0.57311 0.67217 0.0
H16 H 0.88824 0.5305 0.66428 0.0
H17 H 0.90179 0.50371 0.59375 0.0
H18 H 0.04349 0.59848 0.52764 0.0
H19 H 0.04244 0.66129 0.57412 0.0
H20 H 0.90528 0.64803 0.58584 0.0
H21 H 0.90688 0.58477 0.53986 0.0
H22 H 0.05194 0.55331 0.42665 0.0
H23 H 0.05258 0.60657 0.37183 0.0
H24 H 0.91929 0.63064 0.39711 0.0
H25 H 0.91878 0.57656 0.45115 0.0
O26 O 0.05063 0.25784 0.45088 0.0
O27 O 0.98511 0.25652 0.42554 0.0
O28 O 0.9731 0.58968 0.73548 0.0
O29 O 0.90508 0.56804 0.7332 0.0
C30 C 0.98978 0.48413 0.46573 0.0
C31 C 0.98684 0.45288 0.49711 0.0
C32 C 0.97964 0.46553 0.5386 0.0
C33 C 0.97573 0.5095 0.54894 0.0
C34 C 0.97806 0.54091 0.5177 0.0
C35 C 0.98467 0.52827 0.47586 0.0
C36 C -0.00173 0.46901 0.42262 0.0
C37 C 0.03889 0.45375 0.41209 0.0
C38 C 0.04423 0.42524 0.37862 0.0
C39 C 0.00905 0.41169 0.35495 0.0
C40 C 0.96932 0.43074 0.36289 0.0
C41 C 0.96399 0.45924 0.39654 0.0
C42 C -0.00775 0.40664 0.48632 0.0
C43 C 0.03092 0.38673 0.49407 0.0
C44 C 0.03747 0.34432 0.48076 0.0
C45 C 0.00536 0.32111 0.45954 0.0
C46 C 0.96626 0.34098 0.45267 0.0
C47 C 0.95974 0.38333 0.4661 0.0
C48 C 0.97573 0.43266 0.57131 0.0
C49 C 0.00747 0.42938 0.60103 0.0
C50 C 0.0029 0.39953 0.63268 0.0
C51 C 0.96651 0.37229 0.63509 0.0
C52 C 0.93511 0.37534 0.60475 0.0
C53 C 0.93966 0.4053 0.57325 0.0
C54 C 0.96846 0.52292 0.59275 0.0
C55 C 0.00167 0.54214 0.61548 0.0
C56 C -0.00596 0.5578 0.65559 0.0
C57 C 0.95307 0.55414 0.6738 0.0
C58 C 0.92011 0.53393 0.65117 0.0
C59 C 0.92778 0.51843 0.61098 0.0
C60 C 0.97531 0.58692 0.53054 0.0
C61 C 0.01303 0.61043 0.5386 0.0
C62 C 0.01235 0.64621 0.56548 0.0
C63 C 0.97385 0.65906 0.58453 0.0
C64 C 0.93557 0.63837 0.57244 0.0
C65 C 0.9363 0.60264 0.5456 0.0
C66 C 0.98532 0.56096 0.44289 0.0
C67 C 0.02287 0.56998 0.42021 0.0
C68 C 0.02322 0.60069 0.38911 0.0
C69 C 0.98597 0.623 0.38003 0.0
C70 C 0.9484 0.61377 0.4029 0.0
C71 C 0.94812 0.58311 0.43402 0.0
C72 C 0.01289 0.27654 0.4443 0.0
C73 C 0.94455 0.57167 0.71603 0.0
H74 H 0.59222 0.95037 0.23745 0.0
H75 H 0.22548 0.03437 0.54735 0.0
H76 H 0.59006 0.91824 0.46505 0.0
H77 H 0.6575 0.91703 0.42627 0.0
H78 H 0.67218 0.05457 0.44461 0.0
H79 H 0.60429 0.05534 0.48347 0.0
H80 H 0.51668 0.92354 0.40175 0.0
H81 H 0.54469 0.92221 0.33066 0.0
H82 H 0.57944 0.05723 0.34254 0.0
H83 H 0.55088 0.05813 0.41341 0.0
H84 H 0.42207 0.92819 0.43369 0.0
H85 H 0.37304 0.93193 0.37573 0.0
H86 H 0.40479 0.0673 0.36385 0.0
H87 H 0.45464 0.06261 0.42068 0.0
H88 H 0.40803 0.92764 0.53675 0.0
H89 H 0.33174 0.92913 0.55403 0.0
H90 H 0.32827 0.06136 0.51518 0.0
H91 H 0.40467 0.05956 0.49851 0.0
H92 H 0.48505 0.92712 0.59537 0.0
H93 H 0.44725 0.92702 0.66236 0.0
H94 H 0.41438 0.0599 0.64569 0.0
H95 H 0.45322 0.05991 0.57979 0.0
H96 H 0.58196 0.92276 0.55105 0.0
H97 H 0.63087 0.91922 0.60901 0.0
H98 H 0.60102 0.05013 0.64408 0.0
H99 H 0.55204 0.05321 0.58613 0.0
O100 O 0.58078 0.95174 0.26539 0.0
O101 O 0.59833 0.02107 0.27324 0.0
O102 O 0.25917 0.96491 0.56043 0.0
O103 O 0.25564 0.03286 0.54069 0.0
C104 C 0.54652 0.98904 0.48857 0.0
C105 C 0.51675 0.99101 0.4563 0.0
C106 C 0.47273 0.99265 0.46539 0.0
C107 C 0.45827 0.99265 0.50686 0.0
C108 C 0.48796 0.99173 0.53936 0.0
C109 C 0.53226 0.9896 0.53027 0.0
C110 C 0.59249 0.98679 0.47733 0.0
C111 C 0.60875 0.94779 0.46223 0.0
C112 C 0.64722 0.94726 0.43986 0.0
C113 C 0.66998 0.98582 0.43198 0.0
C114 C 0.65511 0.02444 0.44979 0.0
C115 C 0.61672 0.02487 0.4725 0.0
C116 C 0.53191 0.99088 0.4126 0.0
C117 C 0.53008 0.95282 0.38877 0.0
C118 C 0.54623 0.95215 0.34826 0.0
C119 C 0.56445 0.98959 0.33096 0.0
C120 C 0.5657 0.02782 0.35492 0.0
C121 C 0.54942 0.02845 0.39536 0.0
C122 C 0.44189 -0.00489 0.43123 0.0
C123 C 0.4183 0.95857 0.41845 0.0
C124 C 0.39017 0.96087 0.38546 0.0
C125 C 0.38501 -0.00012 0.36483 0.0
C126 C 0.40851 0.0365 0.37829 0.0
C127 C 0.43679 0.03405 0.411 0.0
C128 C 0.41176 0.99344 0.51631 0.0
C129 C 0.39069 0.95687 0.53201 0.0
C130 C 0.34714 0.95782 0.54182 0.0
C131 C 0.32389 -0.00461 0.53596 0.0
C132 C 0.34518 0.03192 0.52003 0.0
C133 C 0.38876 0.03094 0.51034 0.0
C134 C 0.47181 0.99351 0.58277 0.0
C135 C 0.47061 0.95646 0.60684 0.0
C136 C 0.44858 0.95635 0.64483 0.0
C137 C 0.4274 0.99334 0.65932 0.0
C138 C 0.43066 0.03099 0.63589 0.0
C139 C 0.45273 0.03107 0.59808 0.0
C140 C 0.56345 0.98825 0.5643 0.0
C141 C 0.58636 0.9508 0.571 0.0
C142 C 0.61436 0.94889 0.60411 0.0
C143 C 0.61987 0.98438 0.6313 0.0
C144 C 0.59715 0.02203 0.62411 0.0
C145 C 0.56929 0.02394 0.59092 0.0
C146 C 0.58222 0.9886 0.28816 0.0
C147 C 0.27765 -0.00338 0.54647 0.0
H148 H 0.28656 0.25025 0.01851 0.0
H149 H 0.74859 0.45104 0.11655 0.0
H150 H 0.39494 0.4902 0.96674 0.0
H151 H 0.31924 0.48273 0.95086 0.0
H152 H 0.2909 0.45864 0.07975 0.0
H153 H 0.36611 0.46903 0.09548 0.0
H154 H 0.40598 0.39302 0.98551 0.0
H155 H 0.35431 0.33297 0.98687 0.0
H156 H 0.3656 0.32764 0.11965 0.0
H157 H 0.41678 0.38821 0.11788 0.0
H158 H 0.50217 0.35735 0.00674 0.0
H159 H 0.53332 0.28835 0.02324 0.0
H160 H 0.54052 0.32847 0.15161 0.0
H161 H 0.50993 0.39766 0.13451 0.0
H162 H 0.57778 0.43631 0.99628 0.0
H163 H 0.65495 0.43038 1.00457 0.0
H164 H 0.64026 0.46232 0.13459 0.0
H165 H 0.56319 0.46818 0.12575 0.0
H166 H 0.5423 0.5238 0.97016 0.0
H167 H 0.60778 0.56714 0.96099 0.0
H168 H 0.60882 0.59494 0.09225 0.0
H169 H 0.54295 0.55185 0.10102 0.0
H170 H 0.462 0.54613 0.96114 0.0
H171 H 0.43749 0.61841 0.94562 0.0
H172 H 0.40513 0.63902 0.0747 0.0
H173 H 0.43 0.56689 0.08984 0.0
O174 O 0.30703 0.274 0.01871 0.0
O175 O 0.31436 0.27221 0.08686 0.0
O176 O 0.72385 0.43494 0.04576 0.0
O177 O 0.7181 0.45208 0.1126 0.0
C178 C 0.43191 0.47343 0.04 0.0
C179 C 0.44576 0.43199 0.05053 0.0
C180 C 0.48917 0.42548 0.05862 0.0
C181 C 0.51899 0.45968 0.05447 0.0
C182 C 0.50542 0.5006 0.04271 0.0
C183 C 0.46188 0.50773 0.03602 0.0
C184 C 0.38601 0.47986 0.03222 0.0
C185 C 0.37209 0.48529 0.99177 0.0
C186 C 0.32884 0.48035 0.9827 0.0
C187 C 0.29895 0.46907 0.01383 0.0
C188 C 0.31272 0.46757 0.05494 0.0
C189 C 0.35585 0.47324 0.06405 0.0
C190 C 0.41505 0.39495 0.05159 0.0
C191 C 0.39716 0.37888 0.01486 0.0
C192 C 0.36771 0.34454 0.01573 0.0
C193 C 0.35582 0.32547 0.05337 0.0
C194 C 0.37406 0.34157 0.09013 0.0
C195 C 0.40339 0.37604 0.08922 0.0
C196 C 0.50411 0.38236 0.06942 0.0
C197 C 0.50998 0.35088 0.03847 0.0
C198 C 0.5275 0.31145 0.04804 0.0
C199 C 0.53946 0.30297 0.08876 0.0
C200 C 0.5321 0.33422 0.11991 0.0
C201 C 0.51457 0.37363 0.11028 0.0
C202 C 0.56507 0.45241 0.06046 0.0
C203 C 0.59132 0.4415 0.02658 0.0
C204 C 0.63534 0.43832 0.0314 0.0
C205 C 0.65379 0.44601 0.07026 0.0
C206 C 0.62713 0.45623 0.10427 0.0
C207 C 0.58311 0.45939 0.09938 0.0
C208 C 0.53787 0.53509 0.03617 0.0
C209 C 0.55582 0.54061 0.99664 0.0
C210 C 0.5933 0.56508 0.99153 0.0
C211 C 0.61354 0.58388 0.02601 0.0
C212 C 0.59408 0.5803 0.06527 0.0
C213 C 0.55631 0.55623 0.07027 0.0
C214 C 0.44759 0.55144 0.02655 0.0
C215 C 0.44978 0.56643 0.98599 0.0
C216 C 0.43568 0.60756 0.97721 0.0
C217 C 0.4195 0.6344 0.00898 0.0
C218 C 0.41798 0.61933 0.04969 0.0
C219 C 0.43182 0.57812 0.05836 0.0
C220 C 0.32452 0.28897 0.05417 0.0
C221 C 0.70067 0.4439 0.07531 0.0
Zn222 Zn 0.06958 0.09671 0.96031 0.0
Zn223 Zn 0.05081 0.09421 0.05912 0.0
O224 O 0.05521 0.05712 0.00791 0.0
H225 H 0.04507 0.02767 0.00507 0.0
C226 C 0.93971 0.12329 0.93062 0.0
O227 O 0.96327 0.12616 0.96379 0.0
Zn228 Zn 0.95105 0.89792 0.07077 0.0
Zn229 Zn 0.93374 0.89589 0.97273 0.0
O230 O 0.93789 0.93589 0.02317 0.0
H231 H 0.94655 0.96576 0.02146 0.0
Zn232 Zn 0.89251 0.05867 0.98049 0.0
O233 O 0.9369 0.04998 0.02408 0.0
Zn234 Zn 0.90644 0.04321 0.07872 0.0
H235 H 0.96602 0.04229 0.01787 0.0
Zn236 Zn 0.09657 0.93624 0.95565 0.0
O237 O 0.058 0.93729 0.007 0.0
H238 H 0.02769 0.94231 0.00695 0.0
Zn239 Zn 0.0974 0.94725 0.05481 0.0
C240 C 0.04184 0.88678 0.89602 0.0
O241 O 0.02051 0.87581 0.92963 0.0
O242 O 0.06808 0.16092 0.97705 0.0
O243 O 0.0616 0.15722 0.04548 0.0
O244 O 0.9219 0.83314 0.98913 0.0
O245 O 0.93136 0.83649 0.05711 0.0
O246 O 0.83165 0.06268 0.00494 0.0
O247 O 0.84294 0.054 0.072 0.0
C248 C 0.10822 0.03674 0.09905 0.0
O249 O 0.15919 0.92405 0.96908 0.0
O250 O 0.15813 0.93209 0.03754 0.0
O251 O 0.90287 0.91571 0.91972 0.0
C252 C 0.06618 0.17907 0.01263 0.0
O253 O 0.11747 0.08015 0.91789 0.0
C254 C 0.90915 0.95739 0.1267 0.0
O255 O 0.90825 0.09676 0.92994 0.0
C256 C 0.9214 0.81541 0.02432 0.0
O257 O 0.07403 0.91218 0.89915 0.0
C258 C 0.96921 0.10144 0.11277 0.0
O259 O 0.09482 0.07513 0.09943 0.0
O260 O 0.09261 0.01014 0.07259 0.0
C261 C 0.81789 0.06064 0.04216 0.0
O262 O 0.92108 0.91868 0.12284 0.0
O263 O 0.91591 0.98218 0.09632 0.0
C264 C 0.04138 0.89455 0.10692 0.0
O265 O 0.93146 0.08699 0.11908 0.0
O266 O 0.99121 0.08511 0.08323 0.0
C267 C 0.17798 0.92358 1.00368 0.0
O268 O 0.07939 0.9088 0.10212 0.0
O269 O 0.01431 0.90403 0.07985 0.0
C270 C 0.86851 0.93672 0.92224 0.0
O271 O 0.85339 0.94778 0.95894 0.0
C272 C 0.14316 0.04949 0.9222 0.0
O273 O 0.13919 0.02499 0.95473 0.0
C274 C -0.00783 0.37345 0.28755 0.0
C275 C 0.01259 0.3742 0.32589 0.0
C276 C -0.00702 0.33655 0.26201 0.0
C277 C 0.0142 0.29949 0.27436 0.0
C278 C 0.03471 0.30048 0.31259 0.0
C279 C 0.03411 0.33734 0.33794 0.0
C280 C 0.0131 0.2583 0.24996 0.0
C281 C 0.00554 0.25559 0.20908 0.0
C282 C 0.00103 0.21407 0.18546 0.0
C283 C 0.00457 0.2145 0.14212 0.0
C284 C -0.0036 0.17715 0.1185 0.0
C285 C 0.98479 0.13849 0.1377 0.0
H286 H 0.9851 0.1733 0.23777 0.0
C287 C 0.9815 0.13771 0.18094 0.0
C288 C 0.9897 0.175 0.20466 0.0
H289 H 0.97125 0.1085 0.19633 0.0
H290 H 0.97512 0.40123 0.27753 0.0
H291 H 0.97572 0.33686 0.23337 0.0
H292 H 0.0508 0.27234 0.32326 0.0
H293 H 0.0493 0.3364 0.36771 0.0
H294 H 0.01959 0.22921 0.26656 0.0
H295 H 0.00288 0.28496 0.19177 0.0
H296 H 0.01228 0.24418 0.12636 0.0
H297 H -0.0036 0.17922 0.0852 0.0
C298 C 0.70905 0.01671 0.3706 0.0
C299 C 0.70639 0.98594 0.40192 0.0
C300 C 0.74005 0.01373 0.33907 0.0
C301 C 0.76926 0.97991 0.33832 0.0
C302 C 0.76732 0.95005 0.3704 0.0
C303 C 0.73637 0.95303 0.40184 0.0
C304 C 0.79978 0.97217 0.30327 0.0
C305 C 0.81206 0.00176 0.27515 0.0
C306 C 0.84005 0.99174 0.23853 0.0
C307 C 0.84037 0.01926 0.20449 0.0
C308 C 0.86392 0.00927 0.16848 0.0
C309 C 0.8874 0.97135 0.16561 0.0
H310 H 0.86858 0.93404 0.26231 0.0
C311 C 0.88876 0.94499 0.20038 0.0
C312 C 0.86582 0.95518 0.23643 0.0
H313 H 0.90741 0.91603 0.19972 0.0
H314 H 0.68583 0.04195 0.36929 0.0
H315 H 0.73955 0.03686 0.31457 0.0
H316 H 0.7893 0.92362 0.3707 0.0
H317 H 0.73534 0.92898 0.42565 0.0
H318 H 0.81155 0.93971 0.30036 0.0
H319 H 0.80004 0.03417 0.27783 0.0
H320 H 0.82148 0.04806 0.20532 0.0
H321 H 0.86274 0.03063 0.1427 0.0
C322 C 0.02121 0.68454 0.34209 0.0
C323 C 0.98634 0.65577 0.34693 0.0
C324 C 0.02186 0.71504 0.31081 0.0
C325 C 0.98744 0.71776 0.28359 0.0
C326 C 0.95276 0.68879 0.28825 0.0
C327 C 0.95205 0.65835 0.31964 0.0
C328 C 0.98772 0.74867 0.24877 0.0
C329 C 0.01109 0.78565 0.24877 0.0
C330 C 0.01574 0.81477 0.21279 0.0
C331 C 0.0521 0.84177 0.21061 0.0
C332 C 0.05954 0.86812 0.1767 0.0
C333 C 0.03049 0.86878 0.14407 0.0
H334 H 0.95666 0.79703 0.1819 0.0
C335 C -0.00692 0.84323 0.14699 0.0
C336 C 0.98576 0.81633 0.18089 0.0
H337 H 0.96993 0.84322 0.1228 0.0
H338 H 0.04808 0.68363 0.36263 0.0
H339 H 0.04993 0.73562 0.30765 0.0
H340 H 0.92606 0.68965 0.26747 0.0
H341 H 0.92495 0.63629 0.32204 0.0
H342 H 0.96848 0.74002 0.22221 0.0
H343 H 0.02972 0.79432 0.27574 0.0
H344 H 0.07556 0.84173 0.23481 0.0
H345 H 0.08856 0.88768 0.17592 0.0
C346 C 0.31587 0.9801 0.3296 0.0
C347 C 0.3553 0.00266 0.32949 0.0
C348 C 0.28726 0.98449 0.29724 0.0
C349 C 0.29746 0.01168 0.26406 0.0
C350 C 0.33699 0.0337 0.26369 0.0
C351 C 0.36571 0.02899 0.29573 0.0
C352 C 0.26654 0.0206 0.23112 0.0
C353 C 0.23524 0.99296 0.21907 0.0
C354 C 0.20341 0.00439 0.18774 0.0
C355 C 0.18573 0.97227 0.16177 0.0
C356 C 0.15525 0.98249 0.13251 0.0
C357 C 0.14111 0.02485 0.12919 0.0
H358 H 0.20113 0.07219 0.20482 0.0
C359 C 0.15856 0.05681 0.15567 0.0
C360 C 0.18925 0.04677 0.18451 0.0
H361 H 0.14843 0.08985 0.15435 0.0
H362 H 0.30643 0.96008 0.35535 0.0
H363 H 0.25663 0.96786 0.29915 0.0
H364 H 0.34564 0.05491 0.23857 0.0
H365 H 0.39607 0.0462 0.29406 0.0
H366 H 0.2705 0.0511 0.21548 0.0
H367 H 0.23352 0.96072 0.23144 0.0
H368 H 0.19582 0.93927 0.16382 0.0
H369 H 0.14283 0.95714 0.11281 0.0
C370 C 0.00186 0.72584 0.62147 0.0
C371 C 0.97433 0.68955 0.62061 0.0
C372 C 0.0052 0.75173 0.65724 0.0
C373 C 0.98099 0.74185 0.6931 0.0
C374 C 0.95306 0.70593 0.69184 0.0
C375 C 0.94968 0.68021 0.65615 0.0
C376 C 0.98557 0.76603 0.73316 0.0
C377 C 0.0048 0.80509 0.73746 0.0
C378 C 0.01192 0.82699 0.77827 0.0
C379 C 0.04527 0.85769 0.78161 0.0
C380 C 0.05449 0.87765 0.81959 0.0
C381 C 0.03031 0.86763 0.85524 0.0
H382 H 0.9597 0.79589 0.81231 0.0
C383 C -0.00411 0.83811 0.8517 0.0
C384 C 0.98669 0.81808 0.81368 0.0
H385 H 0.97623 0.83007 0.87842 0.0
H386 H 0.02135 0.73388 0.59466 0.0
H387 H 0.02784 0.77842 0.65676 0.0
H388 H 0.93428 0.69713 0.71892 0.0
H389 H 0.92886 0.65197 0.65703 0.0
H390 H 0.97318 0.74998 0.76046 0.0
H391 H 0.0177 0.82124 0.71047 0.0
H392 H 0.06495 0.86562 0.75486 0.0
H393 H 0.08105 0.90046 0.82107 0.0
C394 C 0.39694 0.02817 0.72383 0.0
C395 C 0.39944 0.99216 0.69699 0.0
C396 C 0.36711 0.02898 0.75642 0.0
C397 C 0.33903 0.99376 0.76296 0.0
C398 C 0.34308 0.95688 0.73765 0.0
C399 C 0.37273 0.95616 0.70483 0.0
C400 C 0.3047 -0.00503 0.79524 0.0
C401 C 0.28457 0.03157 0.80577 0.0
C402 C 0.24786 0.03392 0.8354 0.0
C403 C 0.2198 0.06825 0.83228 0.0
C404 C 0.18546 0.07272 0.85993 0.0
C405 C 0.17859 0.04323 0.89187 0.0
H406 H 0.26242 0.97778 0.87123 0.0
C407 C 0.20667 0.00879 0.89515 0.0
C408 C 0.24095 0.0041 0.86718 0.0
H409 H 0.20248 0.98569 0.91959 0.0
H410 H 0.41772 0.05603 0.71935 0.0
H411 H 0.366 0.05734 0.7763 0.0
H412 H 0.32212 0.92916 0.74224 0.0
H413 H 0.37345 0.928 0.68465 0.0
H414 H 0.29341 0.96456 0.80778 0.0
H415 H 0.29349 0.06101 0.78992 0.0
H416 H 0.22443 0.0918 0.80827 0.0
H417 H 0.16464 0.09975 0.85654 0.0
C418 C -0.00428 0.31824 0.68372 0.0
C419 C 0.96094 0.34131 0.66942 0.0
C420 C 0.99029 0.28912 0.71596 0.0
C421 C 0.94991 0.28256 0.73478 0.0
C422 C 0.91519 0.30536 0.72025 0.0
C423 C 0.92062 0.33451 0.68816 0.0
C424 C 0.94221 0.2513 0.76854 0.0
C425 C 0.97276 0.23815 0.794 0.0
C426 C 0.96405 0.20776 0.8283 0.0
C427 C 0.9906 0.2092 0.86284 0.0
C428 C 0.98291 0.18163 0.89595 0.0
C429 C 0.94872 0.15163 0.89504 0.0
H430 H 0.91014 0.1738 0.80034 0.0
C431 C 0.9228 0.14941 0.86001 0.0
C432 C 0.93042 0.17704 0.82698 0.0
H433 H 0.89646 0.12637 0.85808 0.0
H434 H 0.02704 0.32207 0.66947 0.0
H435 H 0.01763 0.27124 0.7253 0.0
H436 H 0.88369 0.30086 0.734 0.0
H437 H 0.89323 0.35211 0.67837 0.0
H438 H 0.90942 0.24054 0.77384 0.0
H439 H 0.00479 0.25192 0.79139 0.0
H440 H 0.01701 0.2322 0.86454 0.0
H441 H 0.00359 0.18409 0.92236 0.0
C442 C 0.68791 0.96138 0.66413 0.0
C443 C 0.64836 0.98181 0.66756 0.0
C444 C 0.71418 0.95826 0.69848 0.0
C445 C 0.70153 0.97565 0.73719 0.0
C446 C 0.66193 -0.00413 0.74053 0.0
C447 C 0.63577 -0.0009 0.7062 0.0
C448 C 0.72742 0.97184 0.7752 0.0
C449 C 0.76968 0.96416 0.77506 0.0
C450 C 0.79498 0.95907 0.8133 0.0
C451 C 0.83385 0.9374 0.81036 0.0
C452 C 0.85811 0.93078 0.84549 0.0
C453 C 0.84421 0.94595 0.88453 0.0
H454 H 0.75293 0.99371 0.8559 0.0
C455 C 0.80601 0.96881 0.88737 0.0
C456 C 0.78175 0.97544 0.85223 0.0
H457 H 0.7946 0.98141 0.91687 0.0
H458 H 0.69867 0.94783 0.63479 0.0
H459 H 0.74381 0.94137 0.69454 0.0
H460 H 0.65103 0.00918 0.76994 0.0
H461 H 0.60522 0.01441 0.71018 0.0
H462 H 0.71042 0.97557 0.80447 0.0
H463 H 0.78671 0.96031 0.74582 0.0
H464 H 0.84518 0.92483 0.78081 0.0
H465 H 0.88747 0.9132 0.84209 0.0
C466 C 0.22055 0.45772 0.03007 0.0
C467 C 0.25571 0.45216 1.003 0.0
C468 C 0.1826 0.43404 0.02411 0.0
C469 C 0.17915 0.40447 0.99084 0.0
C470 C 0.21274 0.402 0.9618 0.0
C471 C 0.2507 0.42522 0.96794 0.0
C472 C 0.14353 0.37242 0.98733 0.0
C473 C 0.1232 0.35572 0.02061 0.0
C474 C 0.10016 0.31337 0.01916 0.0
C475 C 0.098 0.28893 0.05524 0.0
C476 C 0.08457 0.2458 0.05367 0.0
C477 C 0.073 0.22624 0.0159 0.0
H478 H 0.08362 0.31312 0.9541 0.0
C479 C 0.0715 0.25168 0.98054 0.0
C480 C 0.08454 0.29491 0.98219 0.0
H481 H 0.06164 0.23784 0.95117 0.0
H482 H 0.22293 0.47905 0.0568 0.0
H483 H 0.15669 0.43795 0.04629 0.0
H484 H 0.21084 0.37971 0.93571 0.0
H485 H 0.27703 0.41958 0.94658 0.0
H486 H 0.13978 0.35692 0.95728 0.0
H487 H 0.12967 0.36939 0.05104 0.0
H488 H 0.1092 0.30243 0.0843 0.0
H489 H 0.08563 0.22723 0.08161 0.0
C490 C 0.41121 0.71307 0.02542 0.0
C491 C 0.40243 0.67722 0.99962 0.0
C492 C 0.39207 0.75249 0.01863 0.0
C493 C 0.36322 0.75667 0.98612 0.0
C494 C 0.3562 0.72133 0.95922 0.0
C495 C 0.37551 0.68205 0.96588 0.0
C496 C 0.33783 0.79599 0.9803 0.0
C497 C 0.33081 0.82597 0.0102 0.0
C498 C 0.29676 0.85837 0.00751 0.0
C499 C 0.277 0.87296 0.04425 0.0
C500 C 0.23989 0.89698 0.04311 0.0
C501 C 0.22187 0.907 0.00508 0.0
H502 H 0.29673 0.86338 0.94057 0.0
C503 C 0.24401 0.89607 0.96835 0.0
C504 C 0.28121 0.87216 0.96953 0.0
H505 H 0.23157 0.90419 0.93853 0.0
H506 H 0.43264 0.71051 0.05112 0.0
H507 H 0.39977 0.77918 0.03924 0.0
H508 H 0.33441 0.72357 0.93375 0.0
H509 H 0.36797 0.65499 0.94553 0.0
H510 H 0.32011 0.79725 0.95185 0.0
H511 H 0.34587 0.82323 0.03991 0.0
H512 H 0.28873 0.86353 0.07398 0.0
H513 H 0.22404 0.90541 0.07205 0.0
C514 C 0.59882 0.2654 0.12297 0.0
C515 C 0.56272 0.26325 0.09781 0.0
C516 C 0.62419 0.22948 0.12726 0.0
C517 C 0.61434 0.19075 0.10621 0.0
C518 C 0.5766 0.18767 0.08329 0.0
C519 C 0.55116 0.22367 0.07901 0.0
C520 C 0.64614 0.156 0.10627 0.0
C521 C 0.65112 0.12781 0.0745 0.0
C522 C 0.69076 0.1031 0.06787 0.0
C523 C 0.71727 0.09203 0.10051 0.0
C524 C 0.75787 0.07585 0.09223 0.0
C525 C 0.77262 0.07032 0.05123 0.0
H526 H 0.68405 0.10156 1.0014 0.0
C527 C 0.74462 0.07792 0.01882 0.0
C528 C 0.70407 0.09394 0.02711 0.0
H529 H 0.75464 0.07332 0.98688 0.0
H530 H 0.60881 0.29545 0.13769 0.0
H531 H 0.65289 0.23272 0.14535 0.0
H532 H 0.56702 0.15791 0.0679 0.0
H533 H 0.52292 0.22077 0.06025 0.0
H534 H 0.67025 0.15832 0.12995 0.0
H535 H 0.62906 0.12796 0.04902 0.0
H536 H 0.70739 0.09701 0.1324 0.0
H537 H 0.77833 0.06953 0.11798 0.0
C538 C 0.68917 0.59409 0.04805 0.0
C539 C 0.6562 0.60459 0.0214 0.0
C540 C 0.72982 0.61282 0.04333 0.0
C541 C 0.73814 0.64288 0.01205 0.0
C542 C 0.70525 0.65261 0.98499 0.0
C543 C 0.66473 0.63366 0.98956 0.0
C544 C 0.77995 0.66578 0.00688 0.0
C545 C 0.81006 0.66872 0.03614 0.0
C546 C 0.84658 0.6997 0.03294 0.0
C547 C 0.86131 0.72037 0.06903 0.0
C548 C 0.88892 0.75615 0.06654 0.0
C549 C 0.90229 0.7717 0.0278 0.0
H550 H 0.85494 0.69552 0.96622 0.0
C551 C 0.89141 0.74794 0.992 0.0
C552 C 0.86398 0.71211 0.99454 0.0
H553 H 0.90207 0.75841 0.96173 0.0
H554 H 0.68367 0.57081 0.07216 0.0
H555 H 0.75438 0.60324 0.06409 0.0
H556 H 0.7107 0.67548 0.9605 0.0
H557 H 0.63989 0.64219 0.96852 0.0
H558 H 0.78406 0.68467 0.97914 0.0
H559 H 0.80505 0.65303 0.0655 0.0
H560 H 0.84904 0.71085 0.09907 0.0
H561 H 0.8972 0.77333 0.0948 0.0
loop_
_geom_bond_atom_site_label_1
_geom_bond_atom_site_label_2
_geom_bond_distance
_geom_bond_site_symmetry_2
_ccdc_geom_bond_type
H0 O26 0.856 . S
H1 O29 0.854 . S
H2 C37 0.930 . S
H3 C38 0.930 . S
H4 C40 0.930 . S
H5 C41 0.930 . S
H6 C43 0.931 . S
H7 C44 0.930 . S
H8 C46 0.930 . S
H9 C47 0.929 . S
H10 C49 0.930 . S
H11 C50 0.931 . S
H12 C52 0.930 . S
H13 C53 0.929 . S
H14 C55 0.931 . S
H15 C56 0.930 . S
H16 C58 0.930 . S
H17 C59 0.932 . S
H18 C61 0.930 . S
H19 C62 0.929 . S
H20 C64 0.931 . S
H21 C65 0.930 . S
H22 C67 0.929 . S
H23 C68 0.931 . S
H24 C70 0.930 . S
H25 C71 0.929 . S
O26 H0 0.856 . S
O26 C72 1.300 1_455 S
O27 C72 1.209 . S
O28 C73 1.199 1_455 S
O29 H1 0.854 . S
O29 C73 1.297 . S
C30 C31 1.404 1_455 S
C30 C35 1.397 . S
C30 C36 1.493 . S
C31 C30 1.404 1_655 S
C31 C32 1.396 . S
C31 C42 1.492 . S
C32 C31 1.396 . S
C32 C33 1.397 . S
C32 C48 1.509 . S
C33 C32 1.397 . S
C33 C34 1.412 1_655 S
C33 C54 1.485 . S
C34 C33 1.412 1_455 S
C34 C35 1.388 . S
C34 C60 1.490 . S
C35 C30 1.397 . S
C35 C34 1.388 . S
C35 C66 1.519 . S
C36 C30 1.493 . S
C36 C37 1.363 . S
C36 C41 1.390 1_455 S
C37 H2 0.930 . S
C37 C36 1.363 . S
C37 C38 1.372 . S
C38 H3 0.930 . S
C38 C37 1.372 . S
C38 C39 1.383 . S
C39 C38 1.383 . S
C39 C40 1.395 1_455 S
C40 H4 0.930 . S
C40 C39 1.395 1_655 S
C40 C41 1.362 . S
C41 H5 0.930 . S
C41 C36 1.390 1_655 S
C41 C40 1.362 . S
C42 C31 1.492 . S
C42 C43 1.377 1_655 S
C42 C47 1.397 . S
C43 H6 0.931 . S
C43 C42 1.377 1_455 S
C43 C44 1.376 . S
C44 H7 0.930 . S
C44 C43 1.376 . S
C44 C45 1.376 1_455 S
C45 C44 1.376 1_655 S
C45 C46 1.378 . S
C45 C72 1.486 . S
C46 H8 0.930 . S
C46 C45 1.378 . S
C46 C47 1.376 . S
C47 H9 0.929 . S
C47 C42 1.397 . S
C47 C46 1.376 . S
C48 C32 1.509 . S
C48 C49 1.391 1_655 S
C48 C53 1.386 . S
C49 H10 0.930 . S
C49 C48 1.391 1_455 S
C49 C50 1.375 . S
C50 H11 0.931 . S
C50 C49 1.375 . S
C50 C51 1.375 1_455 S
C51 C50 1.375 1_655 S
C51 C52 1.361 . S
C52 H12 0.930 . S
C52 C51 1.361 . S
C52 C53 1.399 . S
C53 H13 0.929 . S
C53 C48 1.386 . S
C53 C52 1.399 . S
C54 C33 1.485 . S
C54 C55 1.394 1_655 S
C54 C59 1.360 . S
C55 H14 0.931 . S
C55 C54 1.394 1_455 S
C55 C56 1.372 . S
C56 H15 0.930 . S
C56 C55 1.372 . S
C56 C57 1.397 1_455 S
C57 C56 1.397 1_655 S
C57 C58 1.390 . S
C57 C73 1.476 . S
C58 H16 0.930 . S
C58 C57 1.390 . S
C58 C59 1.366 . S
C59 H17 0.932 . S
C59 C54 1.360 . S
C59 C58 1.366 . S
C60 C34 1.490 . S
C60 C61 1.380 . S
C60 C65 1.386 1_455 S
C61 H18 0.930 . S
C61 C60 1.380 . S
C61 C62 1.381 . S
C62 H19 0.929 . S
C62 C61 1.381 . S
C62 C63 1.371 . S
C63 C62 1.371 . S
C63 C64 1.380 1_455 S
C64 H20 0.931 . S
C64 C63 1.380 1_655 S
C64 C65 1.387 . S
C65 H21 0.930 . S
C65 C60 1.386 1_655 S
C65 C64 1.387 . S
C66 C35 1.519 . S
C66 C67 1.380 . S
C66 C71 1.358 1_455 S
C67 H22 0.929 . S
C67 C66 1.380 . S
C67 C68 1.386 . S
C68 H23 0.931 . S
C68 C67 1.386 . S
C68 C69 1.363 1_455 S
C69 C68 1.363 1_655 S
C69 C70 1.385 . S
C70 H24 0.930 . S
C70 C69 1.385 . S
C70 C71 1.396 . S
C71 H25 0.929 . S
C71 C66 1.358 1_655 S
C71 C70 1.396 . S
C72 O26 1.300 1_655 S
C72 O27 1.209 . S
C72 C45 1.486 . S
C73 O28 1.199 1_655 S
C73 O29 1.297 . S
C73 C57 1.476 . S
H74 O100 0.856 . S
H75 O103 0.854 . S
H76 C111 0.930 . S
H77 C112 0.930 . S
H78 C114 0.930 . S
H79 C115 0.930 . S
H80 C117 0.931 . S
H81 C118 0.930 . S
H82 C120 0.930 . S
H83 C121 0.929 . S
H84 C123 0.930 . S
H85 C124 0.931 . S
H86 C126 0.930 . S
H87 C127 0.929 . S
H88 C129 0.931 . S
H89 C130 0.930 . S
H90 C132 0.930 . S
H91 C133 0.932 . S
H92 C135 0.930 . S
H93 C136 0.929 . S
H94 C138 0.931 . S
H95 C139 0.930 . S
H96 C141 0.929 . S
H97 C142 0.931 . S
H98 C144 0.930 . S
H99 C145 0.929 . S
O100 H74 0.856 . S
O100 C146 1.300 1_565 S
O101 C146 1.209 . S
O102 C147 1.199 1_565 S
O103 H75 0.854 . S
O103 C147 1.297 . S
C104 C105 1.404 . S
C104 C109 1.397 . S
C104 C110 1.492 . S
C105 C104 1.404 . S
C105 C106 1.396 . S
C105 C116 1.492 . S
C106 C105 1.396 . S
C106 C107 1.397 . S
C106 C122 1.509 . S
C107 C106 1.397 . S
C107 C108 1.412 . S
C107 C128 1.485 . S
C108 C107 1.412 . S
C108 C109 1.388 . S
C108 C134 1.493 . S
C109 C104 1.397 . S
C109 C108 1.388 . S
C109 C140 1.519 . S
C110 C104 1.492 . S
C110 C111 1.363 1_545 S
C110 C115 1.390 . S
C111 H76 0.930 . S
C111 C110 1.363 1_565 S
C111 C112 1.372 . S
C112 H77 0.930 . S
C112 C111 1.372 . S
C112 C113 1.383 . S
C113 C112 1.383 . S
C113 C114 1.395 1_565 S
C114 H78 0.930 . S
C114 C113 1.395 1_545 S
C114 C115 1.362 . S
C115 H79 0.930 . S
C115 C110 1.390 . S
C115 C114 1.362 . S
C116 C105 1.492 . S
C116 C117 1.377 1_545 S
C116 C121 1.397 . S
C117 H80 0.931 . S
C117 C116 1.377 1_565 S
C117 C118 1.376 . S
C118 H81 0.930 . S
C118 C117 1.376 . S
C118 C119 1.376 1_565 S
C119 C118 1.376 1_545 S
C119 C120 1.378 . S
C119 C146 1.486 . S
C120 H82 0.930 . S
C120 C119 1.378 . S
C120 C121 1.376 . S
C121 H83 0.929 . S
C121 C116 1.397 . S
C121 C120 1.376 . S
C122 C106 1.509 . S
C122 C123 1.391 1_545 S
C122 C127 1.386 . S
C123 H84 0.930 . S
C123 C122 1.391 1_565 S
C123 C124 1.375 . S
C124 H85 0.931 . S
C124 C123 1.375 . S
C124 C125 1.375 1_565 S
C125 C124 1.375 1_545 S
C125 C126 1.361 . S
C126 H86 0.930 . S
C126 C125 1.361 . S
C126 C127 1.399 . S
C127 H87 0.929 . S
C127 C122 1.386 . S
C127 C126 1.399 . S
C128 C107 1.485 . S
C128 C129 1.394 1_545 S
C128 C133 1.360 . S
C129 H88 0.931 . S
C129 C128 1.394 1_565 S
C129 C130 1.372 . S
C130 H89 0.930 . S
C130 C129 1.372 . S
C130 C131 1.397 1_565 S
C131 C130 1.397 1_545 S
C131 C132 1.390 . S
C131 C147 1.476 . S
C132 H90 0.930 . S
C132 C131 1.390 . S
C132 C133 1.366 . S
C133 H91 0.932 . S
C133 C128 1.360 . S
C133 C132 1.366 . S
C134 C108 1.493 . S
C134 C135 1.362 1_545 S
C134 C139 1.401 . S
C135 H92 0.930 . S
C135 C134 1.362 1_565 S
C135 C136 1.381 . S
C136 H93 0.929 . S
C136 C135 1.381 . S
C136 C137 1.371 . S
C137 C136 1.371 . S
C137 C138 1.380 1_565 S
C138 H94 0.931 . S
C138 C137 1.380 1_545 S
C138 C139 1.387 . S
C139 H95 0.930 . S
C139 C134 1.401 . S
C139 C138 1.387 . S
C140 C109 1.519 . S
C140 C141 1.377 1_545 S
C140 C145 1.361 . S
C141 H96 0.929 . S
C141 C140 1.377 1_565 S
C141 C142 1.386 . S
C142 H97 0.931 . S
C142 C141 1.386 . S
C142 C143 1.363 1_565 S
C143 C142 1.363 1_545 S
C143 C144 1.385 . S
C144 H98 0.930 . S
C144 C143 1.385 . S
C144 C145 1.396 . S
C145 H99 0.929 . S
C145 C140 1.361 . S
C145 C144 1.396 . S
C146 O100 1.300 1_545 S
C146 O101 1.209 . S
C146 C119 1.486 . S
C147 O102 1.199 1_545 S
C147 O103 1.297 . S
C147 C131 1.476 . S
H148 O174 0.856 . S
H149 O177 0.854 . S
H150 C185 0.930 . S
H151 C186 0.930 . S
H152 C188 0.930 . S
H153 C189 0.930 . S
H154 C191 0.931 . S
H155 C192 0.930 . S
H156 C194 0.930 . S
H157 C195 0.929 . S
H158 C197 0.930 . S
H159 C198 0.941 . S
H160 C200 0.930 . S
H161 C201 0.929 . S
H162 C203 0.931 . S
H163 C204 0.930 . S
H164 C206 0.930 . S
H165 C207 0.932 . S
H166 C209 0.930 . S
H167 C210 0.929 . S
H168 C212 0.931 . S
H169 C213 0.930 . S
H170 C215 0.929 . S
H171 C216 0.931 . S
H172 C218 0.930 . S
H173 C219 0.929 . S
O174 H148 0.856 . S
O174 C220 1.300 . S
O175 C220 1.209 . S
O176 C221 1.184 1_556 S
O177 H149 0.854 . S
O177 C221 1.297 . S
C178 C179 1.404 . S
C178 C183 1.397 . S
C178 C184 1.492 . S
C179 C178 1.404 . S
C179 C180 1.396 . S
C179 C190 1.492 . S
C180 C179 1.396 . S
C180 C181 1.397 . S
C180 C196 1.509 . S
C181 C180 1.397 . S
C181 C182 1.412 . S
C181 C202 1.485 . S
C182 C181 1.412 . S
C182 C183 1.388 . S
C182 C208 1.490 . S
C183 C178 1.397 . S
C183 C182 1.388 . S
C183 C214 1.519 . S
C184 C178 1.492 . S
C184 C185 1.363 1_554 S
C184 C189 1.390 . S
C185 H150 0.930 . S
C185 C184 1.363 1_556 S
C185 C186 1.372 . S
C186 H151 0.930 . S
C186 C185 1.372 . S
C186 C187 1.383 1_556 S
C187 C186 1.383 1_554 S
C187 C188 1.395 . S
C188 H152 0.930 . S
C188 C187 1.395 . S
C188 C189 1.362 . S
C189 H153 0.930 . S
C189 C184 1.390 . S
C189 C188 1.362 . S
C190 C179 1.492 . S
C190 C191 1.377 1_554 S
C190 C195 1.397 . S
C191 H154 0.931 . S
C191 C190 1.377 1_556 S
C191 C192 1.376 . S
C192 H155 0.930 . S
C192 C191 1.376 . S
C192 C193 1.376 1_556 S
C193 C192 1.376 1_554 S
C193 C194 1.378 . S
C193 C220 1.486 . S
C194 H156 0.930 . S
C194 C193 1.378 . S
C194 C195 1.376 . S
C195 H157 0.929 . S
C195 C190 1.397 . S
C195 C194 1.376 . S
C196 C180 1.509 . S
C196 C197 1.391 1_554 S
C196 C201 1.386 . S
C197 H158 0.930 . S
C197 C196 1.391 1_556 S
C197 C198 1.377 . S
C198 H159 0.941 . S
C198 C197 1.377 . S
C198 C199 1.364 1_556 S
C199 C198 1.364 1_554 S
C199 C200 1.361 . S
C200 H160 0.930 . S
C200 C199 1.361 . S
C200 C201 1.399 . S
C201 H161 0.929 . S
C201 C196 1.386 . S
C201 C200 1.399 . S
C202 C181 1.485 . S
C202 C203 1.394 1_554 S
C202 C207 1.360 . S
C203 H162 0.931 . S
C203 C202 1.394 1_556 S
C203 C204 1.372 . S
C204 H163 0.930 . S
C204 C203 1.372 . S
C204 C205 1.397 1_556 S
C205 C204 1.397 1_554 S
C205 C206 1.390 . S
C205 C221 1.476 . S
C206 H164 0.930 . S
C206 C205 1.390 . S
C206 C207 1.366 . S
C207 H165 0.932 . S
C207 C202 1.360 . S
C207 C206 1.366 . S
C208 C182 1.490 . S
C208 C209 1.380 1_554 S
C208 C213 1.386 . S
C209 H166 0.930 . S
C209 C208 1.380 1_556 S
C209 C210 1.381 . S
C210 H167 0.929 . S
C210 C209 1.381 . S
C210 C211 1.371 1_556 S
C211 C210 1.371 1_554 S
C211 C212 1.380 . S
C212 H168 0.931 . S
C212 C211 1.380 . S
C212 C213 1.387 . S
C213 H169 0.930 . S
C213 C208 1.386 . S
C213 C212 1.387 . S
C214 C183 1.519 . S
C214 C215 1.377 1_554 S
C214 C219 1.361 . S
C215 H170 0.929 . S
C215 C214 1.377 1_556 S
C215 C216 1.386 . S
C216 H171 0.931 . S
C216 C215 1.386 . S
C216 C217 1.363 1_556 S
C217 C216 1.363 1_554 S
C217 C218 1.385 . S
C218 H172 0.930 . S
C218 C217 1.385 . S
C218 C219 1.396 . S
C219 H173 0.929 . S
C219 C214 1.361 . S
C219 C218 1.396 . S
C220 O174 1.300 . S
C220 O175 1.209 . S
C220 C193 1.486 . S
C221 O176 1.184 1_554 S
C221 O177 1.297 . S
C221 C205 1.476 . S
Zn222 O224 1.933 1_556 S
Zn222 O242 1.985 . S
Zn222 O253 1.955 . S
Zn223 O224 1.911 . S
Zn223 O243 1.970 . S
Zn223 O259 1.945 . S
Zn223 O266 1.981 . S
O224 Zn222 1.933 1_554 S
O224 Zn223 1.911 . S
O224 H225 0.841 . S
H225 O224 0.841 . S
C226 O227 1.246 . S
C226 O255 1.276 1_455 S
O227 C226 1.246 . S
Zn228 O230 1.911 . S
Zn228 O245 1.970 . S
Zn228 O262 1.945 . S
Zn228 O269 1.981 . S
Zn229 O230 1.933 1_556 S
Zn229 O244 1.985 . S
Zn229 O251 1.955 . S
O230 Zn228 1.911 . S
O230 Zn229 1.933 1_554 S
O230 H231 0.841 . S
H231 O230 0.841 . S
Zn232 O233 1.933 1_556 S
Zn232 O246 1.985 . S
Zn232 O255 1.955 . S
O233 Zn232 1.933 1_554 S
O233 Zn234 1.911 . S
O233 H235 0.841 . S
Zn234 O233 1.911 . S
Zn234 O247 1.970 . S
Zn234 O263 1.981 . S
Zn234 O265 1.945 . S
H235 O233 0.841 . S
Zn236 O237 1.933 1_556 S
Zn236 O249 1.985 . S
Zn236 O257 1.955 . S
O237 Zn236 1.933 1_554 S
O237 H238 0.841 . S
O237 Zn239 1.911 . S
H238 O237 0.841 . S
Zn239 O237 1.911 . S
Zn239 O250 1.970 . S
Zn239 O260 1.981 . S
Zn239 O268 1.945 . S
C240 O241 1.246 . S
C240 O257 1.276 1_655 S
O241 C240 1.246 . S
O242 Zn222 1.985 . S
O242 C252 1.245 1_556 S
O243 Zn223 1.970 . S
O243 C252 1.263 . S
O244 Zn229 1.985 . S
O244 C256 1.245 1_556 S
O245 Zn228 1.970 . S
O245 C256 1.263 . S
O246 Zn232 1.985 . S
O246 C261 1.245 1_556 S
O247 Zn234 1.970 . S
O247 C261 1.263 . S
C248 O259 1.262 . S
C248 O260 1.245 1_545 S
O249 Zn236 1.985 . S
O249 C267 1.245 1_556 S
O250 Zn239 1.970 . S
O250 C267 1.263 . S
O251 Zn229 1.955 . S
O251 C270 1.276 1_565 S
C252 O242 1.245 1_554 S
C252 O243 1.263 . S
O253 Zn222 1.955 . S
O253 C272 1.276 . S
C254 O262 1.262 1_545 S
C254 O263 1.245 . S
O255 C226 1.276 1_655 S
O255 Zn232 1.955 . S
C256 O244 1.245 1_554 S
C256 O245 1.263 . S
O257 Zn236 1.955 . S
O257 C240 1.276 1_455 S
C258 O265 1.236 1_455 S
C258 O266 1.259 . S
O259 Zn223 1.945 . S
O259 C248 1.262 . S
O260 Zn239 1.981 . S
O260 C248 1.245 1_565 S
C261 O246 1.245 1_554 S
C261 O247 1.263 . S
O262 Zn228 1.945 . S
O262 C254 1.262 1_565 S
O263 Zn234 1.981 . S
O263 C254 1.245 . S
C264 O268 1.262 1_655 S
C264 O269 1.245 . S
O265 Zn234 1.945 . S
O265 C258 1.236 1_655 S
O266 Zn223 1.981 . S
O266 C258 1.259 . S
C267 O249 1.245 1_554 S
C267 O250 1.263 . S
O268 Zn239 1.945 . S
O268 C264 1.262 1_455 S
O269 Zn228 1.981 . S
O269 C264 1.245 . S
C270 O251 1.276 1_545 S
C270 O271 1.246 . S
O271 C270 1.246 . S
C272 O253 1.276 . S
C272 O273 1.246 1_545 S
O273 C272 1.246 1_565 S
C274 C275 1.386 . S
C274 C276 1.383 . S
C274 H290 0.951 . S
C275 C274 1.386 . S
C275 C279 1.383 . S
C276 C274 1.383 . S
C276 C277 1.402 . S
C276 H291 0.951 . S
C277 C276 1.402 . S
C277 C278 1.375 . S
C277 C280 1.481 . S
C278 C277 1.375 . S
C278 C279 1.367 . S
C278 H292 0.951 . S
C279 C275 1.383 . S
C279 C278 1.367 . S
C279 H293 0.950 . S
C280 C277 1.481 . S
C280 C281 1.297 . S
C280 H294 0.950 . S
C281 C280 1.297 . S
C281 C282 1.479 . S
C281 H295 0.950 . S
C282 C281 1.479 . S
C282 C283 1.375 . S
C282 C288 1.404 . S
C283 C282 1.375 . S
C283 C284 1.369 . S
C283 H296 0.950 . S
C284 C283 1.369 . S
C284 C285 1.392 . S
C284 H297 0.951 . S
C285 C284 1.392 . S
C285 C287 1.384 . S
H286 C288 0.949 . S
C287 C285 1.384 . S
C287 C288 1.385 . S
C287 H289 0.950 . S
C288 C282 1.404 . S
C288 H286 0.949 . S
C288 C287 1.385 . S
H289 C287 0.950 . S
H290 C274 0.951 . S
H291 C276 0.951 . S
H292 C278 0.951 . S
H293 C279 0.950 . S
H294 C280 0.950 . S
H295 C281 0.950 . S
H296 C283 0.950 . S
H297 C284 0.951 . S
C298 C299 1.386 1_545 S
C298 C300 1.383 . S
C298 H314 0.951 . S
C299 C298 1.386 1_565 S
C299 C303 1.383 . S
C300 C298 1.383 . S
C300 C301 1.402 1_545 S
C300 H315 0.951 . S
C301 C300 1.402 1_565 S
C301 C302 1.375 . S
C301 C304 1.481 . S
C302 C301 1.375 . S
C302 C303 1.367 . S
C302 H316 0.951 . S
C303 C299 1.383 . S
C303 C302 1.367 . S
C303 H317 0.950 . S
C304 C301 1.481 . S
C304 C305 1.297 1_565 S
C304 H318 0.950 . S
C305 C304 1.297 1_545 S
C305 C306 1.479 . S
C305 H319 0.950 . S
C306 C305 1.479 . S
C306 C307 1.375 . S
C306 C312 1.404 1_545 S
C307 C306 1.375 . S
C307 C308 1.369 . S
C307 H320 0.950 . S
C308 C307 1.369 . S
C308 C309 1.392 . S
C308 H321 0.951 . S
C309 C308 1.392 . S
C309 C311 1.384 1_545 S
H310 C312 0.949 . S
C311 C309 1.384 1_565 S
C311 C312 1.385 . S
C311 H313 0.950 . S
C312 C306 1.404 1_565 S
C312 H310 0.949 . S
C312 C311 1.385 . S
H313 C311 0.950 . S
H314 C298 0.951 . S
H315 C300 0.951 . S
H316 C302 0.951 . S
H317 C303 0.950 . S
H318 C304 0.950 . S
H319 C305 0.950 . S
H320 C307 0.950 . S
H321 C308 0.951 . S
C322 C323 1.386 1_455 S
C322 C324 1.383 . S
C322 H338 0.951 . S
C323 C322 1.386 1_655 S
C323 C327 1.383 . S
C324 C322 1.383 . S
C324 C325 1.402 1_455 S
C324 H339 0.951 . S
C325 C324 1.402 1_655 S
C325 C326 1.375 . S
C325 C328 1.481 . S
C326 C325 1.375 . S
C326 C327 1.367 . S
C326 H340 0.951 . S
C327 C323 1.383 . S
C327 C326 1.367 . S
C327 H341 0.950 . S
C328 C325 1.481 . S
C328 C329 1.297 1_655 S
C328 H342 0.950 . S
C329 C328 1.297 1_455 S
C329 C330 1.479 . S
C329 H343 0.950 . S
C330 C329 1.479 . S
C330 C331 1.375 . S
C330 C336 1.404 1_455 S
C331 C330 1.375 . S
C331 C332 1.369 . S
C331 H344 0.950 . S
C332 C331 1.369 . S
C332 C333 1.392 1_455 S
C332 H345 0.951 . S
C333 C332 1.392 1_655 S
C333 C335 1.384 . S
H334 C336 0.949 . S
C335 C333 1.384 . S
C335 C336 1.385 . S
C335 H337 0.950 . S
C336 C330 1.404 1_655 S
C336 H334 0.949 . S
C336 C335 1.385 . S
H337 C335 0.950 . S
H338 C322 0.951 . S
H339 C324 0.951 . S
H340 C326 0.951 . S
H341 C327 0.950 . S
H342 C328 0.950 . S
H343 C329 0.950 . S
H344 C331 0.950 . S
H345 C332 0.951 . S
C346 C347 1.386 . S
C346 C348 1.383 . S
C346 H362 0.951 . S
C347 C346 1.386 . S
C347 C351 1.383 . S
C348 C346 1.383 . S
C348 C349 1.402 . S
C348 H363 0.951 . S
C349 C348 1.402 . S
C349 C350 1.375 . S
C349 C352 1.481 . S
C350 C349 1.375 . S
C350 C351 1.367 . S
C350 H364 0.951 . S
C351 C347 1.383 . S
C351 C350 1.367 . S
C351 H365 0.950 . S
C352 C349 1.481 . S
C352 C353 1.297 . S
C352 H366 0.950 . S
C353 C352 1.297 . S
C353 C354 1.479 . S
C353 H367 0.950 . S
C354 C353 1.479 . S
C354 C355 1.375 . S
C354 C360 1.404 . S
C355 C354 1.375 . S
C355 C356 1.369 . S
C355 H368 0.950 . S
C356 C355 1.369 . S
C356 C357 1.392 . S
C356 H369 0.951 . S
C357 C356 1.392 . S
C357 C359 1.384 . S
H358 C360 0.949 . S
C359 C357 1.384 . S
C359 C360 1.385 . S
C359 H361 0.950 . S
C360 C354 1.404 . S
C360 H358 0.949 . S
C360 C359 1.385 . S
H361 C359 0.950 . S
H362 C346 0.951 . S
H363 C348 0.951 . S
H364 C350 0.951 . S
H365 C351 0.950 . S
H366 C352 0.950 . S
H367 C353 0.950 . S
H368 C355 0.950 . S
H369 C356 0.951 . S
C370 C371 1.386 . S
C370 C372 1.383 . S
C370 H386 0.951 . S
C371 C370 1.386 . S
C371 C375 1.383 1_455 S
C372 C370 1.383 . S
C372 C373 1.402 1_455 S
C372 H387 0.951 . S
C373 C372 1.402 1_655 S
C373 C374 1.375 . S
C373 C376 1.481 . S
C374 C373 1.375 . S
C374 C375 1.367 . S
C374 H388 0.951 . S
C375 C371 1.383 1_655 S
C375 C374 1.367 . S
C375 H389 0.950 . S
C376 C373 1.481 . S
C376 C377 1.297 . S
C376 H390 0.950 . S
C377 C376 1.297 . S
C377 C378 1.479 . S
C377 H391 0.947 1_655 S
C378 C377 1.479 . S
C378 C379 1.375 1_655 S
C378 C384 1.404 . S
C379 C378 1.375 1_455 S
C379 C380 1.369 . S
C379 H392 0.950 . S
C380 C379 1.369 . S
C380 C381 1.392 1_455 S
C380 H393 0.951 . S
C381 C380 1.392 1_655 S
C381 C383 1.384 . S
H382 C384 0.949 . S
C383 C381 1.384 . S
C383 C384 1.385 . S
C383 H385 0.950 . S
C384 C378 1.404 . S
C384 H382 0.949 . S
C384 C383 1.385 . S
H385 C383 0.950 . S
H386 C370 0.951 . S
H387 C372 0.951 . S
H388 C374 0.951 . S
H389 C375 0.950 . S
H390 C376 0.950 . S
H391 C377 0.947 1_455 S
H392 C379 0.950 . S
H393 C380 0.951 . S
C394 C395 1.386 1_545 S
C394 C396 1.383 . S
C394 H410 0.951 . S
C395 C394 1.386 1_565 S
C395 C399 1.383 . S
C396 C394 1.383 . S
C396 C397 1.402 1_545 S
C396 H411 0.951 . S
C397 C396 1.402 1_565 S
C397 C398 1.375 . S
C397 C400 1.481 . S
C398 C397 1.375 . S
C398 C399 1.367 . S
C398 H412 0.951 . S
C399 C395 1.383 . S
C399 C398 1.367 . S
C399 H413 0.950 . S
C400 C397 1.481 . S
C400 C401 1.297 1_565 S
C400 H414 0.950 . S
C401 C400 1.297 1_545 S
C401 C402 1.479 . S
C401 H415 0.950 . S
C402 C401 1.479 . S
C402 C403 1.375 . S
C402 C408 1.404 1_545 S
C403 C402 1.375 . S
C403 C404 1.369 . S
C403 H416 0.950 . S
C404 C403 1.369 . S
C404 C405 1.392 1_545 S
C404 H417 0.951 . S
C405 C404 1.392 1_565 S
C405 C407 1.384 . S
H406 C408 0.949 . S
C407 C405 1.384 . S
C407 C408 1.385 . S
C407 H409 0.950 . S
C408 C402 1.404 1_565 S
C408 H406 0.949 . S
C408 C407 1.385 . S
H409 C407 0.950 . S
H410 C394 0.951 . S
H411 C396 0.951 . S
H412 C398 0.951 . S
H413 C399 0.950 . S
H414 C400 0.950 . S
H415 C401 0.950 . S
H416 C403 0.950 . S
H417 C404 0.951 . S
C418 C419 1.386 1_455 S
C418 C420 1.383 . S
C418 H434 0.951 . S
C419 C418 1.386 1_655 S
C419 C423 1.383 . S
C420 C418 1.383 . S
C420 C421 1.402 1_455 S
C420 H435 0.951 . S
C421 C420 1.402 1_655 S
C421 C422 1.375 . S
C421 C424 1.481 . S
C422 C421 1.375 . S
C422 C423 1.367 . S
C422 H436 0.951 . S
C423 C419 1.383 . S
C423 C422 1.367 . S
C423 H437 0.950 . S
C424 C421 1.481 . S
C424 C425 1.297 1_655 S
C424 H438 0.950 . S
C425 C424 1.297 1_455 S
C425 C426 1.479 . S
C425 H439 0.950 . S
C426 C425 1.479 . S
C426 C427 1.375 . S
C426 C432 1.404 1_455 S
C427 C426 1.375 . S
C427 C428 1.369 . S
C427 H440 0.950 . S
C428 C427 1.369 . S
C428 C429 1.392 . S
C428 H441 0.951 . S
C429 C428 1.392 . S
C429 C431 1.384 1_455 S
H430 C432 0.949 . S
C431 C429 1.384 1_655 S
C431 C432 1.385 . S
C431 H433 0.950 . S
C432 C426 1.404 1_655 S
C432 H430 0.949 . S
C432 C431 1.385 . S
H433 C431 0.950 . S
H434 C418 0.951 . S
H435 C420 0.951 . S
H436 C422 0.951 . S
H437 C423 0.950 . S
H438 C424 0.950 . S
H439 C425 0.950 . S
H440 C427 0.950 . S
H441 C428 0.951 . S
C442 C443 1.388 . S
C442 C444 1.383 . S
C442 H458 0.948 1_545 S
C443 C442 1.388 . S
C443 C447 1.383 . S
C444 C442 1.383 . S
C444 C445 1.402 . S
C444 H459 0.951 1_545 S
C445 C444 1.402 . S
C445 C446 1.375 . S
C445 C448 1.481 . S
C446 C445 1.375 . S
C446 C447 1.367 . S
C446 H460 0.951 . S
C447 C443 1.383 . S
C447 C446 1.367 . S
C447 H461 0.950 . S
C448 C445 1.481 . S
C448 C449 1.297 . S
C448 H462 0.950 . S
C449 C448 1.297 . S
C449 C450 1.479 . S
C449 H463 0.950 . S
C450 C449 1.479 . S
C450 C451 1.375 . S
C450 C456 1.404 . S
C451 C450 1.375 . S
C451 C452 1.369 1_545 S
C451 H464 0.950 1_545 S
C452 C451 1.369 1_565 S
C452 C453 1.392 1_565 S
C452 H465 0.951 . S
C453 C452 1.392 1_545 S
C453 C455 1.384 . S
H454 C456 0.949 . S
C455 C453 1.384 . S
C455 C456 1.385 . S
C455 H457 0.950 . S
C456 C450 1.404 . S
C456 H454 0.949 . S
C456 C455 1.385 . S
H457 C455 0.950 . S
H458 C442 0.948 1_565 S
H459 C444 0.951 1_565 S
H460 C446 0.951 . S
H461 C447 0.950 . S
H462 C448 0.950 . S
H463 C449 0.950 . S
H464 C451 0.950 1_565 S
H465 C452 0.951 . S
C466 C467 1.386 1_554 S
C466 C468 1.383 . S
C466 H482 0.951 . S
C467 C466 1.386 1_556 S
C467 C471 1.383 . S
C468 C466 1.383 . S
C468 C469 1.402 1_554 S
C468 H483 0.951 . S
C469 C468 1.402 1_556 S
C469 C470 1.375 . S
C469 C472 1.481 . S
C470 C469 1.375 . S
C470 C471 1.367 . S
C470 H484 0.951 . S
C471 C467 1.383 . S
C471 C470 1.367 . S
C471 H485 0.950 . S
C472 C469 1.481 . S
C472 C473 1.297 . S
C472 H486 0.950 . S
C473 C472 1.297 . S
C473 C474 1.479 . S
C473 H487 0.950 . S
C474 C473 1.479 . S
C474 C475 1.375 1_556 S
C474 C480 1.404 . S
C475 C474 1.375 1_554 S
C475 C476 1.369 . S
C475 H488 0.950 . S
C476 C475 1.369 . S
C476 C477 1.392 . S
C476 H489 0.951 . S
C477 C476 1.392 . S
C477 C479 1.384 1_554 S
H478 C480 0.949 . S
C479 C477 1.384 1_556 S
C479 C480 1.385 . S
C479 H481 0.950 . S
C480 C474 1.404 . S
C480 H478 0.949 . S
C480 C479 1.385 . S
H481 C479 0.950 . S
H482 C466 0.951 . S
H483 C468 0.951 . S
H484 C470 0.951 . S
H485 C471 0.950 . S
H486 C472 0.950 . S
H487 C473 0.950 . S
H488 C475 0.950 . S
H489 C476 0.951 . S
C490 C491 1.386 . S
C490 C492 1.383 . S
C490 H506 0.951 . S
C491 C490 1.386 . S
C491 C495 1.383 . S
C492 C490 1.383 . S
C492 C493 1.402 . S
C492 H507 0.951 . S
C493 C492 1.402 . S
C493 C494 1.373 1_554 S
C493 C496 1.481 . S
C494 C493 1.373 1_556 S
C494 C495 1.365 1_556 S
C494 H508 0.956 . S
C495 C491 1.383 . S
C495 C494 1.365 1_554 S
C495 H509 0.944 1_554 S
C496 C493 1.481 . S
C496 C497 1.297 . S
C496 H510 0.950 1_554 S
C497 C496 1.297 . S
C497 C498 1.479 . S
C497 H511 0.950 . S
C498 C497 1.479 . S
C498 C499 1.375 . S
C498 C504 1.404 1_554 S
C499 C498 1.375 . S
C499 C500 1.369 . S
C499 H512 0.950 . S
C500 C499 1.369 . S
C500 C501 1.392 . S
C500 H513 0.951 . S
C501 C500 1.392 . S
C501 C503 1.384 1_554 S
H502 C504 0.949 . S
C503 C501 1.384 1_556 S
C503 C504 1.385 . S
C503 H505 0.950 . S
C504 C498 1.404 1_556 S
C504 H502 0.949 . S
C504 C503 1.385 . S
H505 C503 0.950 . S
H506 C490 0.951 . S
H507 C492 0.951 . S
H508 C494 0.956 . S
H509 C495 0.944 1_556 S
H510 C496 0.950 1_556 S
H511 C497 0.950 . S
H512 C499 0.950 . S
H513 C500 0.951 . S
C514 C515 1.386 . S
C514 C516 1.383 . S
C514 H530 0.951 . S
C515 C514 1.386 . S
C515 C519 1.383 1_554 S
C516 C514 1.383 . S
C516 C517 1.402 . S
C516 H531 0.951 . S
C517 C516 1.402 . S
C517 C518 1.375 1_554 S
C517 C520 1.481 . S
C518 C517 1.375 1_556 S
C518 C519 1.367 . S
C518 H532 0.951 . S
C519 C515 1.383 1_556 S
C519 C518 1.367 . S
C519 H533 0.950 . S
C520 C517 1.481 . S
C520 C521 1.297 . S
C520 H534 0.950 1_554 S
C521 C520 1.297 . S
C521 C522 1.479 . S
C521 H535 0.950 . S
C522 C521 1.479 . S
C522 C523 1.375 . S
C522 C528 1.404 1_554 S
C523 C522 1.375 . S
C523 C524 1.369 . S
C523 H536 0.950 . S
C524 C523 1.369 . S
C524 C525 1.392 . S
C524 H537 0.951 . S
C525 C524 1.392 . S
C525 C527 1.384 1_554 S
H526 C528 0.949 . S
C527 C525 1.384 1_556 S
C527 C528 1.385 . S
C527 H529 0.950 . S
C528 C522 1.404 1_556 S
C528 H526 0.949 . S
C528 C527 1.385 . S
H529 C527 0.950 . S
H530 C514 0.951 . S
H531 C516 0.951 . S
H532 C518 0.951 . S
H533 C519 0.950 . S
H534 C520 0.950 1_556 S
H535 C521 0.950 . S
H536 C523 0.950 . S
H537 C524 0.951 . S
C538 C539 1.386 1_554 S
C538 C540 1.383 . S
C538 H554 0.951 . S
C539 C538 1.386 1_556 S
C539 C543 1.383 . S
C540 C538 1.383 . S
C540 C541 1.402 1_554 S
C540 H555 0.951 . S
C541 C540 1.402 1_556 S
C541 C542 1.375 . S
C541 C544 1.481 . S
C542 C541 1.375 . S
C542 C543 1.367 . S
C542 H556 0.951 . S
C543 C539 1.383 . S
C543 C542 1.367 . S
C543 H557 0.950 . S
C544 C541 1.481 . S
C544 C545 1.297 1_556 S
C544 H558 0.950 . S
C545 C544 1.297 1_554 S
C545 C546 1.479 . S
C545 H559 0.950 . S
C546 C545 1.479 . S
C546 C547 1.375 . S
C546 C552 1.404 1_554 S
C547 C546 1.375 . S
C547 C548 1.369 . S
C547 H560 0.950 . S
C548 C547 1.369 . S
C548 C549 1.392 . S
C548 H561 0.951 . S
C549 C548 1.392 . S
C549 C551 1.384 1_554 S
H550 C552 0.949 . S
C551 C549 1.384 1_556 S
C551 C552 1.385 . S
C551 H553 0.950 . S
C552 C546 1.404 1_556 S
C552 H550 0.949 . S
C552 C551 1.385 . S
H553 C551 0.950 . S
H554 C538 0.951 . S
H555 C540 0.951 . S
H556 C542 0.951 . S
H557 C543 0.950 . S
H558 C544 0.950 . S
H559 C545 0.950 . S
H560 C547 0.950 . S
H561 C548 0.951 . S
C285 C258 1.722 . S
C275 C39 1.702 . S
C309 C254 1.904 . S
C299 C113 1.859 . S
C333 C264 2.142 . S
C323 C69 2.292 . S
C357 C248 0.866 . S
C347 C125 0.983 . S
C371 C63 1.874 . S
C381 C240 1.944 . S
C405 C272 1.798 1_565 S
C395 C137 1.814 . S
C419 C51 1.106 . S
C429 C226 1.012 . S
C443 C143 2.433 . S
C453 C270 2.350 . S
C467 C187 1.007 1_556 S
C477 C252 1.060 . S
C491 C217 1.584 . S
C501 C267 1.575 . S
C525 C261 0.521 . S
C515 C199 0.182 . S
C549 C256 1.186 . S
C539 C211 1.098 1_556 S
