# Generated by pormake.
# Topology nom, (4,4)-cn, num edge types: 1
# Building blocks:
#     Node 0, Type 0, BuildingBlock: KUFVIS_clean_linker_0, # of connection points: 4
#     Node 1, Type 0, BuildingBlock: KUFVIS_clean_linker_0, # of connection points: 4
#     Node 2, Type 0, BuildingBlock: KUFVIS_clean_linker_0, # of connection points: 4
#     Node 3, Type 0, BuildingBlock: KUFVIS_clean_linker_0, # of connection points: 4
#     Node 4, Type 0, BuildingBlock: KUFVIS_clean_linker_0, # of connection points: 4
#     Node 5, Type 0, BuildingBlock: KUFVIS_clean_linker_0, # of connection points: 4
#     Node 6, Type 1, BuildingBlock: TATPOV_clean_sbu_0, # of connection points: 4
#     Node 7, Type 1, BuildingBlock: TATPOV_clean_sbu_0, # of connection points: 4
#     Node 8, Type 1, BuildingBlock: TATPOV_clean_sbu_0, # of connection points: 4
#     Node 9, Type 1, BuildingBlock: TATPOV_clean_sbu_0, # of connection points: 4
#     Node 10, Type 1, BuildingBlock: TATPOV_clean_sbu_0, # of connection points: 4
#     Node 11, Type 1, BuildingBlock: TATPOV_clean_sbu_0, # of connection points: 4
#     Edge 12, Type (0, 1), BuildingBlock: TEMPAE_clean_linker_10, # of connection points: 2
#     Edge 13, Type (0, 1), BuildingBlock: TEMPAE_clean_linker_10, # of connection points: 2
#     Edge 14, Type (0, 1), BuildingBlock: TEMPAE_clean_linker_10, # of connection points: 2
#     Edge 15, Type (0, 1), BuildingBlock: TEMPAE_clean_linker_10, # of connection points: 2
#     Edge 16, Type (0, 1), BuildingBlock: TEMPAE_clean_linker_10, # of connection points: 2
#     Edge 17, Type (0, 1), BuildingBlock: TEMPAE_clean_linker_10, # of connection points: 2
#     Edge 18, Type (0, 1), BuildingBlock: TEMPAE_clean_linker_10, # of connection points: 2
#     Edge 19, Type (0, 1), BuildingBlock: TEMPAE_clean_linker_10, # of connection points: 2
#     Edge 20, Type (0, 1), BuildingBlock: TEMPAE_clean_linker_10, # of connection points: 2
#     Edge 21, Type (0, 1), BuildingBlock: TEMPAE_clean_linker_10, # of connection points: 2
#     Edge 22, Type (0, 1), BuildingBlock: TEMPAE_clean_linker_10, # of connection points: 2
#     Edge 23, Type (0, 1), BuildingBlock: TEMPAE_clean_linker_10, # of connection points: 2
#     Edge 24, Type (0, 1), BuildingBlock: TEMPAE_clean_linker_10, # of connection points: 2
#     Edge 25, Type (0, 1), BuildingBlock: TEMPAE_clean_linker_10, # of connection points: 2
#     Edge 26, Type (0, 1), BuildingBlock: TEMPAE_clean_linker_10, # of connection points: 2
#     Edge 27, Type (0, 1), BuildingBlock: TEMPAE_clean_linker_10, # of connection points: 2
#     Edge 28, Type (0, 1), BuildingBlock: TEMPAE_clean_linker_10, # of connection points: 2
#     Edge 29, Type (0, 1), BuildingBlock: TEMPAE_clean_linker_10, # of connection points: 2
#     Edge 30, Type (0, 1), BuildingBlock: TEMPAE_clean_linker_10, # of connection points: 2
#     Edge 31, Type (0, 1), BuildingBlock: TEMPAE_clean_linker_10, # of connection points: 2
#     Edge 32, Type (0, 1), BuildingBlock: TEMPAE_clean_linker_10, # of connection points: 2
#     Edge 33, Type (0, 1), BuildingBlock: TEMPAE_clean_linker_10, # of connection points: 2
#     Edge 34, Type (0, 1), BuildingBlock: TEMPAE_clean_linker_10, # of connection points: 2
#     Edge 35, Type (0, 1), BuildingBlock: TEMPAE_clean_linker_10, # of connection points: 2
# Relax obj value: 0.020
# Max RMSD: 0.118
# Mean RMSD: 0.080
data_MOF--net-nom--node1-TATPOV_clean_sbu_0--node2-KUFVIS_clean_linker_0--edge1-TEMPAE_clean_linker_10
_symmetry_space_group_name_H-M    P1
_symmetry_Int_Tables_number       1
_symmetry_cell_setting            triclinic
loop_
_symmetry_equiv_pos_as_xyz
'x, y, z'
_cell_length_a     45.830774
_cell_length_b     46.273437
_cell_length_c     46.905846
_cell_angle_alpha  90.705146
_cell_angle_beta   90.825464
_cell_angle_gamma 120.07506
loop_
_atom_site_label
_atom_site_type_symbol
_atom_site_fract_x
_atom_site_fract_y
_atom_site_fract_z
_atom_type_partial_charge
H0 H 0.13987 0.56129 0.32147 0.0
H1 H 0.05276 0.52624 0.26657 0.0
H2 H 0.0427 0.48935 0.35224 0.0
H3 H 0.99601 0.49912 0.34663 0.0
H4 H 0.9084 0.44091 0.29347 0.0
H5 H 1.00625 0.46878 0.26151 0.0
C6 C 0.11306 0.54452 0.31776 0.0
C7 C 0.0932 0.5247 0.33987 0.0
C8 C 0.09876 0.54511 0.29144 0.0
C9 C 0.06386 0.52482 0.28669 0.0
C10 C 0.04317 0.50458 0.30867 0.0
C11 C 0.05822 0.5046 0.33515 0.0
C12 C 1.00574 0.48545 0.30481 0.0
C13 C 0.98493 0.48535 0.32683 0.0
C14 C 0.94986 0.46935 0.3226 0.0
C15 C 0.93548 0.45251 0.29676 0.0
C16 C 0.95543 0.45207 0.27461 0.0
C17 C 0.99066 0.46875 0.27868 0.0
H18 H 0.57026 0.15045 0.48405 0.0
H19 H 0.51059 0.06993 0.42562 0.0
H20 H 0.5337 0.04977 0.51047 0.0
H21 H 0.48143 1.00483 0.50511 0.0
H22 H 0.44093 0.9224 0.44551 0.0
H23 H 0.50744 0.02065 0.4158 0.0
C24 C 0.55708 0.1238 0.47937 0.0
C25 C 0.5537 0.10143 0.50063 0.0
C26 C 0.54235 0.11254 0.45233 0.0
C27 C 0.5231 0.07812 0.4463 0.0
C28 C 0.51941 0.05473 0.46724 0.0
C29 C 0.53542 0.06694 0.49425 0.0
C30 C 0.49815 0.0178 0.46138 0.0
C31 C 0.48037 0.99556 0.4836 0.0
C32 C 0.45963 0.96118 0.47782 0.0
C33 C 0.45669 0.949 0.44995 0.0
C34 C 0.47283 0.97035 0.42752 0.0
C35 C 0.49435 1.00455 0.43331 0.0
H36 H 0.5314 0.43971 0.63962 0.0
H37 H 0.48119 0.47791 0.69024 0.0
H38 H 0.50765 0.51009 0.60313 0.0
H39 H 0.46301 0.51795 0.60603 0.0
H40 H 0.44442 0.58211 0.65974 0.0
H41 H 0.48936 0.52895 0.69625 0.0
C42 C 0.51996 0.45528 0.64135 0.0
C43 C 0.51944 0.4733 0.61789 0.0
C44 C 0.50632 0.4569 0.66722 0.0
C45 C 0.49256 0.47783 0.67022 0.0
C46 C 0.49291 0.4977 0.64721 0.0
C47 C 0.50668 0.49515 0.62105 0.0
C48 C 0.47925 0.52108 0.65051 0.0
C49 C 0.46527 0.52927 0.62687 0.0
C50 C 0.45355 0.55194 0.63021 0.0
C51 C 0.45438 0.56534 0.6572 0.0
C52 C 0.46575 0.55593 0.68117 0.0
C53 C 0.47944 0.53497 0.67762 0.0
H54 H 0.1145 0.55564 0.78422 0.0
H55 H 0.03282 0.49181 0.83747 0.0
H56 H 1.01278 0.51758 0.75379 0.0
H57 H 0.9656 0.46286 0.75789 0.0
H58 H 0.88442 0.43459 0.81561 0.0
H59 H 0.98614 0.49813 0.8459 0.0
C60 C 0.08757 0.54069 0.78757 0.0
C61 C 0.06497 0.53846 0.7662 0.0
C62 C 0.07622 0.52405 0.81317 0.0
C63 C 0.0414 0.50486 0.81761 0.0
C64 C 0.01788 0.50194 0.79618 0.0
C65 C 0.03012 0.51874 0.7703 0.0
C66 C 0.9808 0.48263 0.80133 0.0
C67 C 0.95717 0.46415 0.77907 0.0
C68 C 0.92241 0.44704 0.78436 0.0
C69 C 0.91128 0.44821 0.81164 0.0
C70 C 0.93404 0.46638 0.83384 0.0
C71 C 0.96873 0.48342 0.82871 0.0
H72 H 0.51884 0.89628 0.98626 0.0
H73 H 0.55275 0.97631 0.92784 0.0
H74 H 0.55936 0.9962 0.01907 0.0
H75 H 0.60272 0.04588 0.00763 0.0
H76 H 0.60498 0.12297 0.95678 0.0
H77 H 0.54621 0.02127 0.92728 0.0
C78 C 0.53106 0.92295 0.98272 0.0
C79 C 0.54018 0.94518 0.00596 0.0
C80 C 0.53517 0.93391 0.95478 0.0
C81 C 0.54934 0.96821 0.94969 0.0
C82 C 0.55891 0.9916 0.97284 0.0
C83 C 0.55372 0.9794 0.00095 0.0
C84 C 0.57272 0.02828 0.96798 0.0
C85 C 0.59434 0.05284 0.98857 0.0
C86 C 0.6055 0.08683 0.98456 0.0
C87 C 0.59588 0.09661 0.95988 0.0
C88 C 0.57489 0.07317 0.93916 0.0
C89 C 0.56334 0.03911 0.94316 0.0
H90 H 0.5004 0.61985 0.156 0.0
H91 H 0.56093 0.59402 0.20799 0.0
H92 H 0.52131 0.54446 0.12579 0.0
H93 H 0.57074 0.54366 0.12626 0.0
H94 H 0.60717 0.496 0.18247 0.0
H95 H 0.5569 0.5447 0.21753 0.0
C96 C 0.51234 0.6049 0.1591 0.0
C97 C 0.50896 0.58185 0.13798 0.0
C98 C 0.53048 0.6089 0.18436 0.0
C99 C 0.54633 0.58998 0.1885 0.0
C100 C 0.54382 0.56668 0.16723 0.0
C101 C 0.52477 0.56283 0.14201 0.0
C102 C 0.56076 0.54635 0.17129 0.0
C103 C 0.57295 0.53637 0.14766 0.0
C104 C 0.58962 0.51817 0.1518 0.0
C105 C 0.5942 0.50999 0.17937 0.0
C106 C 0.58345 0.52035 0.20304 0.0
C107 C 0.56587 0.53762 0.19899 0.0
Zn108 Zn 0.71139 0.48128 0.43126 0.0
Zn109 Zn 0.67445 0.41618 0.41876 0.0
O110 O 0.72472 0.42813 0.4179 0.0
O111 O 0.75525 0.48183 0.42822 0.0
O112 O 0.64889 0.36538 0.41704 0.0
O113 O 0.69039 0.47781 0.46913 0.0
O114 O 0.65453 0.42649 0.45411 0.0
C115 C 0.75351 0.45439 0.42178 0.0
C116 C 0.66721 0.46255 0.37959 0.0
O117 O 0.66029 0.43267 0.38405 0.0
O118 O 0.68737 0.48621 0.39631 0.0
C119 C 0.63292 0.34592 0.39594 0.0
O120 O 0.63166 0.35869 0.37141 0.0
C121 C 0.66319 0.45055 0.47198 0.0
Zn122 Zn 0.23447 0.69851 0.55217 0.0
Zn123 Zn 0.27024 0.66938 0.56494 0.0
O124 O 0.30575 0.72016 0.56176 0.0
O125 O 0.27489 0.74425 0.5579 0.0
O126 O 0.29876 0.64798 0.57357 0.0
O127 O 0.20432 0.67569 0.58491 0.0
O128 O 0.23692 0.65569 0.59822 0.0
C129 C 0.30347 0.74652 0.56043 0.0
C130 C 0.22737 0.65078 0.5097 0.0
O131 O 0.24454 0.64511 0.52803 0.0
O132 O 0.22187 0.67475 0.51361 0.0
C133 C 0.31256 0.64026 0.55378 0.0
O134 O 0.30849 0.64662 0.52726 0.0
C135 C 0.21117 0.65894 0.60211 0.0
Zn136 Zn 0.54718 0.23098 0.72954 0.0
Zn137 Zn 0.61399 0.26725 0.73611 0.0
O138 O 0.59719 0.30181 0.73615 0.0
O139 O 0.54189 0.27064 0.73815 0.0
O140 O 0.66521 0.29604 0.74093 0.0
O141 O 0.54551 0.20146 0.76115 0.0
O142 O 0.59981 0.23486 0.76989 0.0
C143 C 0.56818 0.29915 0.73842 0.0
C144 C 0.58145 0.2243 0.68201 0.0
O145 O 0.60707 0.2413 0.69838 0.0
O146 O 0.5526 0.21877 0.68918 0.0
C147 C 0.68527 0.30528 0.72009 0.0
O148 O 0.67276 0.29634 0.69402 0.0
C149 C 0.57184 0.20909 0.77589 0.0
Zn150 Zn 0.33951 0.56079 0.91462 0.0
Zn151 Zn 0.37031 0.62669 0.91533 0.0
O152 O 0.31879 0.61114 0.91047 0.0
O153 O 0.29404 0.55636 0.91286 0.0
O154 O 0.39445 0.67783 0.91764 0.0
O155 O 0.35962 0.55931 0.9517 0.0
O156 O 0.38605 0.61426 0.95304 0.0
C157 C 0.29196 0.58246 0.91054 0.0
C158 C 0.38534 0.58904 0.86888 0.0
O159 O 0.39047 0.6165 0.88008 0.0
O160 O 0.36391 0.56153 0.87934 0.0
C161 C 0.40458 0.6965 0.89598 0.0
O162 O 0.39861 0.68255 0.8704 0.0
C163 C 0.37998 0.58671 0.96408 0.0
Zn164 Zn 0.79317 0.45582 0.06843 0.0
Zn165 Zn 0.758 0.39033 0.05853 0.0
O166 O 0.72135 0.4045 0.06388 0.0
O167 O 0.75172 0.45952 0.06502 0.0
O168 O 0.73119 0.33976 0.05042 0.0
O169 O 0.82043 0.46193 0.03386 0.0
O170 O 0.78742 0.40862 0.02286 0.0
C171 C 0.7233 0.43306 0.06454 0.0
C172 C 0.80617 0.42058 0.11087 0.0
O173 O 0.78797 0.39608 0.09392 0.0
O174 O 0.81012 0.44919 0.10622 0.0
C175 C 0.73093 0.31788 0.06688 0.0
O176 O 0.74796 0.32763 0.09121 0.0
C177 C 0.81202 0.43735 0.01697 0.0
Zn178 Zn 0.3526 0.79438 0.20042 0.0
Zn179 Zn 0.38614 0.76395 0.21853 0.0
O180 O 0.33537 0.72735 0.21737 0.0
O181 O 0.30768 0.75212 0.2028 0.0
O182 O 0.41003 0.73761 0.22517 0.0
O183 O 0.37693 0.80723 0.16345 0.0
O184 O 0.40914 0.78931 0.18224 0.0
C185 C 0.30758 0.72611 0.21095 0.0
C186 C 0.39361 0.822 0.25348 0.0
O187 O 0.39914 0.79767 0.25143 0.0
O188 O 0.37536 0.8256 0.23487 0.0
C189 C 0.43357 0.74355 0.24315 0.0
O190 O 0.44408 0.76892 0.26122 0.0
C191 C 0.40282 0.80419 0.16251 0.0
C192 C 0.13138 0.56013 0.24641 0.0
C193 C 0.12107 0.56999 0.2708 0.0
C194 C 0.15948 0.58356 0.23125 0.0
C195 C 0.1777 0.61728 0.24114 0.0
C196 C 0.16571 0.62757 0.26459 0.0
C197 C 0.13746 0.60382 0.27901 0.0
C198 C 0.17096 0.57178 0.20593 0.0
C199 C 0.18426 0.66318 0.27596 0.0
C200 C 0.27247 0.67114 0.23426 0.0
C201 C 0.27485 0.69517 0.21507 0.0
C202 C 0.24092 0.64444 0.24171 0.0
C203 C 0.21107 0.64133 0.22925 0.0
C204 C 0.2135 0.66407 0.20825 0.0
C205 C 0.24532 0.69093 0.20164 0.0
C206 C 0.23948 0.62091 0.2644 0.0
C207 C 0.1824 0.66114 0.19391 0.0
H208 H 0.11888 0.53387 0.24029 0.0
H209 H 0.12948 0.61127 0.29803 0.0
H210 H 0.17842 0.58985 0.18839 0.0
H211 H 0.19341 0.56998 0.21221 0.0
H212 H 0.15099 0.54685 0.19781 0.0
H213 H 0.17033 0.66753 0.29311 0.0
H214 H 0.20936 0.66915 0.2847 0.0
H215 H 0.18856 0.6808 0.25857 0.0
H216 H 0.29515 0.67423 0.2447 0.0
H217 H 0.24699 0.70916 0.18648 0.0
H218 H 0.22332 0.5946 0.25701 0.0
H219 H 0.22802 0.62454 0.28382 0.0
H220 H 0.26486 0.62501 0.2703 0.0
H221 H 0.16455 0.63485 0.18732 0.0
H222 H 0.18866 0.67708 0.17488 0.0
H223 H 0.16925 0.66895 0.20918 0.0
C224 C 0.57756 0.15475 0.41722 0.0
C225 C 0.54708 0.13819 0.43157 0.0
C226 C 0.58895 0.18665 0.40617 0.0
C227 C 0.56944 0.20234 0.40986 0.0
C228 C 0.5371 0.18424 0.42192 0.0
C229 C 0.52636 0.15236 0.43278 0.0
C230 C 0.62344 0.20485 0.39332 0.0
C231 C 0.51533 0.19982 0.42612 0.0
C232 C 0.61857 0.29588 0.42534 0.0
C233 C 0.61622 0.3091 0.3992 0.0
C234 C 0.60335 0.26128 0.42895 0.0
C235 C 0.58517 0.2391 0.40588 0.0
C236 C 0.58248 0.25216 0.37945 0.0
C237 C 0.59807 0.28701 0.37641 0.0
C238 C 0.60691 0.24848 0.45753 0.0
C239 C 0.56327 0.22933 0.35443 0.0
H240 H 0.59385 0.14401 0.41684 0.0
H241 H 0.50311 0.13978 0.44443 0.0
H242 H 0.62316 0.21836 0.37404 0.0
H243 H 0.64158 0.22367 0.409 0.0
H244 H 0.63271 0.18755 0.38749 0.0
H245 H 0.48893 0.18083 0.43092 0.0
H246 H 0.52577 0.21813 0.44421 0.0
H247 H 0.51522 0.2135 0.4069 0.0
H248 H 0.63249 0.31262 0.4431 0.0
H249 H 0.59604 0.29692 0.35613 0.0
H250 H 0.61951 0.23348 0.45497 0.0
H251 H 0.58163 0.23185 0.46628 0.0
H252 H 0.62176 0.26901 0.47332 0.0
H253 H 0.57466 0.2139 0.34858 0.0
H254 H 0.5631 0.24335 0.33543 0.0
H255 H 0.53683 0.21191 0.36032 0.0
C256 C 0.40376 0.53744 0.59879 0.0
C257 C 0.43719 0.56031 0.60689 0.0
C258 C 0.38333 0.54827 0.58547 0.0
C259 C 0.39677 0.58273 0.5803 0.0
C260 C 0.43148 0.60528 0.58592 0.0
C261 C 0.45125 0.59378 0.59924 0.0
C262 C 0.34658 0.52332 0.57954 0.0
C263 C 0.44701 0.64214 0.58057 0.0
C264 C 0.34708 0.61465 0.53843 0.0
C265 C 0.33325 0.62455 0.56044 0.0
C266 C 0.36724 0.60036 0.54444 0.0
C267 C 0.37388 0.59598 0.57313 0.0
C268 C 0.35964 0.60553 0.59541 0.0
C269 C 0.33949 0.61961 0.5888 0.0
C270 C 0.3818 0.59036 0.52012 0.0
C271 C 0.36612 0.60135 0.62635 0.0
H272 H 0.39275 0.51168 0.60519 0.0
H273 H 0.477 0.61151 0.60592 0.0
H274 H 0.33111 0.52634 0.59601 0.0
H275 H 0.33825 0.52767 0.55851 0.0
H276 H 0.3415 0.4972 0.57994 0.0
H277 H 0.47499 0.65535 0.58206 0.0
H278 H 0.43926 0.64632 0.55921 0.0
H279 H 0.43796 0.65347 0.59663 0.0
H280 H 0.34232 0.61821 0.51642 0.0
H281 H 0.3289 0.62709 0.60595 0.0
H282 H 0.37491 0.56381 0.52192 0.0
H283 H 0.40973 0.60552 0.52117 0.0
H284 H 0.37286 0.59379 0.49897 0.0
H285 H 0.35809 0.57484 0.63032 0.0
H286 H 0.35259 0.60931 0.64111 0.0
H287 H 0.39354 0.61632 0.63148 0.0
C288 C 0.88225 0.39313 0.76042 0.0
C289 C 0.89612 0.42782 0.76231 0.0
C290 C 0.84954 0.37243 0.74899 0.0
C291 C 0.83024 0.38686 0.7396 0.0
C292 C 0.84544 0.4221 0.73909 0.0
C293 C 0.87823 0.44216 0.75052 0.0
C294 C 0.83455 0.33504 0.7496 0.0
C295 C 0.82594 0.43861 0.72922 0.0
C296 C 0.74457 0.33336 0.70232 0.0
C297 C 0.7224 0.32585 0.72505 0.0
C298 C 0.77972 0.35288 0.70667 0.0
C299 C 0.7931 0.3654 0.73437 0.0
C300 C 0.77086 0.35785 0.75739 0.0
C301 C 0.73587 0.33812 0.75248 0.0
C302 C 0.80255 0.36017 0.68163 0.0
C303 C 0.78404 0.37082 0.78729 0.0
H304 H 0.89581 0.38204 0.77016 0.0
H305 H 0.88869 0.46896 0.75264 0.0
H306 H 0.81664 0.32488 0.76736 0.0
H307 H 0.82024 0.32306 0.72952 0.0
H308 H 0.85422 0.32798 0.75281 0.0
H309 H 0.84268 0.4658 0.72604 0.0
H310 H 0.81189 0.4269 0.70898 0.0
H311 H 0.80718 0.43527 0.74546 0.0
H312 H 0.73447 0.32392 0.68104 0.0
H313 H 0.71903 0.33252 0.77017 0.0
H314 H 0.82066 0.35138 0.68593 0.0
H315 H 0.81757 0.38752 0.67855 0.0
H316 H 0.78826 0.34804 0.66153 0.0
H317 H 0.80134 0.36195 0.79442 0.0
H318 H 0.76346 0.36268 0.80285 0.0
H319 H 0.79873 0.39853 0.78761 0.0
C320 C 0.48769 0.89432 0.92318 0.0
C321 C 0.52139 0.90758 0.93212 0.0
C322 C 0.46877 0.86132 0.91238 0.0
C323 C 0.48399 0.84121 0.91055 0.0
C324 C 0.51899 0.85578 0.91675 0.0
C325 C 0.53722 0.88876 0.92759 0.0
C326 C 0.43166 0.84701 0.90584 0.0
C327 C 0.53644 0.83553 0.91482 0.0
C328 C 0.43024 0.74873 0.92675 0.0
C329 C 0.42396 0.7336 0.89953 0.0
C330 C 0.44933 0.78365 0.93046 0.0
C331 C 0.46265 0.80415 0.9064 0.0
C332 C 0.45613 0.78911 0.87883 0.0
C333 C 0.43688 0.75407 0.87572 0.0
C334 C 0.45555 0.79861 0.96028 0.0
C335 C 0.46985 0.80999 0.85267 0.0
H336 H 0.47521 0.90855 0.92731 0.0
H337 H 0.56307 0.89874 0.9351 0.0
H338 H 0.42397 0.83141 0.886 0.0
H339 H 0.41686 0.83072 0.92348 0.0
H340 H 0.42503 0.86691 0.90351 0.0
H341 H 0.56434 0.85163 0.91583 0.0
H342 H 0.5287 0.81805 0.93283 0.0
H343 H 0.52906 0.82034 0.89476 0.0
H344 H 0.42039 0.73326 0.94528 0.0
H345 H 0.43224 0.74273 0.85457 0.0
H346 H 0.4463 0.8166 0.96176 0.0
H347 H 0.48303 0.81266 0.96531 0.0
H348 H 0.44292 0.77935 0.97668 0.0
H349 H 0.46151 0.82871 0.85165 0.0
H350 H 0.46163 0.79462 0.83266 0.0
H351 H 0.49782 0.82399 0.85392 0.0
C352 C 0.6398 0.52093 0.13027 0.0
C353 C 0.60508 0.50906 0.12843 0.0
C354 C 0.6544 0.50576 0.11452 0.0
C355 C 0.63385 0.47832 0.09596 0.0
C356 C 0.59922 0.46813 0.09209 0.0
C357 C 0.58509 0.48345 0.10868 0.0
C358 C 0.69141 0.5176 0.11945 0.0
C359 C 0.57668 0.43975 0.07186 0.0
C360 C 0.69039 0.46017 0.05066 0.0
C361 C 0.69319 0.43658 0.06718 0.0
C362 C 0.66788 0.47119 0.05781 0.0
C363 C 0.6487 0.45926 0.08272 0.0
C364 C 0.64933 0.43328 0.09802 0.0
C365 C 0.67138 0.42195 0.08983 0.0
C366 C 0.66702 0.49785 0.04023 0.0
C367 C 0.62948 0.41997 0.12481 0.0
H368 H 0.65514 0.54063 0.14572 0.0
H369 H 0.55815 0.47402 0.10751 0.0
H370 H 0.69433 0.49728 0.12888 0.0
H371 H 0.70471 0.52399 0.09892 0.0
H372 H 0.70398 0.53986 0.13399 0.0
H373 H 0.55311 0.43996 0.06644 0.0
H374 H 0.58987 0.44091 0.05189 0.0
H375 H 0.56967 0.41565 0.08198 0.0
H376 H 0.70725 0.47141 0.03304 0.0
H377 H 0.67379 0.40395 0.10275 0.0
H378 H 0.68252 0.52254 0.05109 0.0
H379 H 0.64089 0.49327 0.03795 0.0
H380 H 0.67723 0.49908 0.01866 0.0
H381 H 0.64078 0.43939 0.14204 0.0
H382 H 0.62938 0.39719 0.13219 0.0
H383 H 0.60305 0.41403 0.12132 0.0
C384 C 0.45405 0.9311 0.52352 0.0
C385 C 0.43902 0.93692 0.49973 0.0
C386 C 0.43555 0.90247 0.54001 0.0
C387 C 0.40166 0.87908 0.53201 0.0
C388 C 0.38591 0.88629 0.50919 0.0
C389 C 0.40464 0.9153 0.49368 0.0
C390 C 0.4529 0.89639 0.56485 0.0
C391 C 0.3499 0.8622 0.49974 0.0
C392 C 0.35974 0.78551 0.54063 0.0
C393 C 0.33377 0.77999 0.55903 0.0
C394 C 0.38411 0.81816 0.53337 0.0
C395 C 0.38289 0.84578 0.5455 0.0
C396 C 0.35895 0.84022 0.56657 0.0
C397 C 0.3342 0.80736 0.57264 0.0
C398 C 0.40896 0.82286 0.51059 0.0
C399 C 0.35768 0.8689 0.58098 0.0
H400 H 0.48066 0.94775 0.5282 0.0
H401 H 0.39295 0.92002 0.47541 0.0
H402 H 0.43552 0.88535 0.58286 0.0
H403 H 0.46101 0.87847 0.55816 0.0
H404 H 0.47559 0.91983 0.57244 0.0
H405 H 0.34132 0.87189 0.48187 0.0
H406 H 0.34754 0.83811 0.49271 0.0
H407 H 0.33268 0.85698 0.51776 0.0
H408 H 0.35932 0.76434 0.53002 0.0
H409 H 0.31427 0.80306 0.58715 0.0
H410 H 0.43479 0.84247 0.51727 0.0
H411 H 0.40218 0.83126 0.49077 0.0
H412 H 0.40917 0.79943 0.50563 0.0
H413 H 0.3835 0.88974 0.58619 0.0
H414 H 0.34303 0.86105 0.60086 0.0
H415 H 0.34546 0.87853 0.56634 0.0
C416 C 0.53158 0.44988 0.71218 0.0
C417 C 0.50716 0.43571 0.69018 0.0
C418 C 0.54195 0.43027 0.7272 0.0
C419 C 0.5281 0.3961 0.71939 0.0
C420 C 0.50115 0.38122 0.69904 0.0
C421 C 0.49078 0.40117 0.68496 0.0
C422 C 0.56969 0.4468 0.74962 0.0
C423 C 0.48565 0.34497 0.68983 0.0
C424 C 0.5804 0.3535 0.71819 0.0
C425 C 0.56406 0.32881 0.73842 0.0
C426 C 0.57041 0.37719 0.71304 0.0
C427 C 0.54422 0.37673 0.7292 0.0
C428 C 0.53016 0.35394 0.75164 0.0
C429 C 0.53971 0.32974 0.75557 0.0
C430 C 0.58579 0.40071 0.6886 0.0
C431 C 0.50337 0.35357 0.77022 0.0
H432 H 0.54453 0.47668 0.71599 0.0
H433 H 0.47214 0.39038 0.6677 0.0
H434 H 0.56541 0.42981 0.76757 0.0
H435 H 0.59414 0.4531 0.74012 0.0
H436 H 0.57169 0.47027 0.75811 0.0
H437 H 0.46347 0.33676 0.67522 0.0
H438 H 0.50473 0.34119 0.67869 0.0
H439 H 0.47762 0.32868 0.70862 0.0
H440 H 0.59903 0.3526 0.7048 0.0
H441 H 0.52722 0.31073 0.7714 0.0
H442 H 0.59455 0.42678 0.69571 0.0
H443 H 0.56639 0.3942 0.67145 0.0
H444 H 0.60742 0.39955 0.67947 0.0
H445 H 0.50932 0.37938 0.77572 0.0
H446 H 0.50064 0.33993 0.79024 0.0
H447 H 0.47876 0.34099 0.7585 0.0
C448 C 0.12608 0.51925 0.82665 0.0
C449 C 0.10189 0.52765 0.83462 0.0
C450 C 0.15525 0.52924 0.84342 0.0
C451 C 0.16041 0.54815 0.86888 0.0
C452 C 0.13511 0.5551 0.8779 0.0
C453 C 0.10605 0.54477 0.86056 0.0
C454 C 0.1813 0.5209 0.83308 0.0
C455 C 0.13952 0.57487 0.90502 0.0
C456 C 0.22954 0.54943 0.91471 0.0
C457 C 0.25811 0.57833 0.90535 0.0
C458 C 0.19702 0.54079 0.90501 0.0
C459 C 0.19297 0.5613 0.88513 0.0
C460 C 0.22144 0.59195 0.87745 0.0
C461 C 0.25375 0.60023 0.88782 0.0
C462 C 0.16739 0.50827 0.91421 0.0
C463 C 0.21817 0.61461 0.85639 0.0
H464 H 0.12284 0.50614 0.80648 0.0
H465 H 0.08753 0.55168 0.86648 0.0
H466 H 0.20509 0.54428 0.82865 0.0
H467 H 0.18709 0.50767 0.84982 0.0
H468 H 0.17284 0.505 0.81336 0.0
H469 H 0.11579 0.57409 0.91107 0.0
H470 H 0.14817 0.56528 0.92288 0.0
H471 H 0.15918 0.60131 0.90208 0.0
H472 H 0.23273 0.53262 0.92862 0.0
H473 H 0.27572 0.62258 0.88053 0.0
H474 H 0.15939 0.48948 0.89654 0.0
H475 H 0.14559 0.51151 0.91915 0.0
H476 H 0.17375 0.49823 0.93323 0.0
H477 H 0.21273 0.60277 0.83478 0.0
H478 H 0.24156 0.63936 0.8556 0.0
H479 H 0.19685 0.6184 0.86188 0.0
C480 C 0.61042 0.12389 0.0252 0.0
C481 C 0.62639 0.11343 0.00581 0.0
C482 C 0.62799 0.15564 0.03857 0.0
C483 C 0.66231 0.17742 0.03225 0.0
C484 C 0.67915 0.16583 0.01436 0.0
C485 C 0.66089 0.13402 0.00118 0.0
C486 C 0.60902 0.16687 0.0575 0.0
C487 C 0.71574 0.18802 0.00723 0.0
C488 C 0.69422 0.27095 0.03249 0.0
C489 C 0.71263 0.28182 0.05836 0.0
C490 C 0.67759 0.23706 0.02393 0.0
C491 C 0.6794 0.21334 0.04161 0.0
C492 C 0.69772 0.22408 0.06784 0.0
C493 C 0.71406 0.25812 0.07591 0.0
C494 C 0.6582 0.22668 -0.00418 0.0
C495 C 0.70031 0.19964 0.08725 0.0
H496 H 0.58351 0.10827 0.02816 0.0
H497 H 0.67298 0.12621 0.98562 0.0
H498 H 0.62386 0.1792 0.07729 0.0
H499 H 0.60487 0.18547 0.04617 0.0
H500 H 0.58408 0.14572 0.06338 0.0
H501 H 0.72625 0.17393 -0.00371 0.0
H502 H 0.71821 0.20808 -0.00698 0.0
H503 H 0.73112 0.20023 0.02683 0.0
H504 H 0.6929 0.28896 0.01878 0.0
H505 H 0.72821 0.26618 0.09594 0.0
H506 H 0.63151 0.20754 -0.00068 0.0
H507 H 0.66891 0.21519 0.98158 0.0
H508 H 0.65881 0.24805 0.98474 0.0
H509 H 0.67474 0.17968 0.09305 0.0
H510 H 0.71509 0.21186 0.10715 0.0
H511 H 0.71248 0.18738 0.07597 0.0
C512 C 0.50674 0.61926 0.22785 0.0
C513 C 0.53034 0.63214 0.20617 0.0
C514 C 0.49474 0.63883 0.24065 0.0
C515 C 0.50653 0.67179 0.23124 0.0
C516 C 0.53348 0.68606 0.21199 0.0
C517 C 0.54507 0.666 0.19966 0.0
C518 C 0.46658 0.62285 0.26159 0.0
C519 C 0.54708 0.72112 0.20148 0.0
C520 C 0.44218 0.69951 0.21997 0.0
C521 C 0.45072 0.72352 0.24188 0.0
C522 C 0.45966 0.68206 0.21686 0.0
C523 C 0.48628 0.6884 0.23632 0.0
C524 C 0.49428 0.71167 0.25915 0.0
C525 C 0.47654 0.72913 0.26157 0.0
C526 C 0.45025 0.6575 0.19211 0.0
C527 C 0.52213 0.71878 0.28052 0.0
H528 H 0.49506 0.59295 0.23262 0.0
H529 H 0.56306 0.67578 0.18263 0.0
H530 H 0.46948 0.6409 0.27873 0.0
H531 H 0.44213 0.61464 0.2503 0.0
H532 H 0.46558 0.60065 0.27141 0.0
H533 H 0.57158 0.73042 0.1908 0.0
H534 H 0.52876 0.72139 0.1859 0.0
H535 H 0.55046 0.73857 0.2193 0.0
H536 H 0.42226 0.69488 0.20468 0.0
H537 H 0.48324 0.7475 0.27866 0.0
H538 H 0.44385 0.63255 0.20001 0.0
H539 H 0.47203 0.66577 0.17786 0.0
H540 H 0.42844 0.65486 0.1793 0.0
H541 H 0.51963 0.69513 0.28833 0.0
H542 H 0.52218 0.73396 0.29908 0.0
H543 H 0.54687 0.73261 0.27012 0.0
C544 C 0.90645 0.48413 0.33488 0.0
C545 C 0.92746 0.47187 0.34369 0.0
C546 C 0.88044 0.48126 0.35202 0.0
C547 C 0.87533 0.46583 0.3788 0.0
C548 C 0.89776 0.45517 0.3886 0.0
C549 C 0.92368 0.45829 0.37083 0.0
C550 C 0.85737 0.49325 0.34076 0.0
C551 C 0.89337 0.43899 0.41714 0.0
C552 C 0.81648 0.48179 0.42339 0.0
C553 C 0.78504 0.45402 0.41579 0.0
C554 C 0.84658 0.48469 0.4135 0.0
C555 C 0.8452 0.4594 0.39532 0.0
C556 C 0.81378 0.43015 0.38938 0.0
C557 C 0.78406 0.42773 0.39981 0.0
C558 C 0.87958 0.516 0.42077 0.0
C559 C 0.8112 0.40255 0.37011 0.0
H560 H 0.90958 0.49481 0.31392 0.0
H561 H 0.93985 0.44864 0.37752 0.0
H562 H 0.83142 0.47171 0.33772 0.0
H563 H 0.85616 0.51081 0.35636 0.0
H564 H 0.86575 0.50602 0.32008 0.0
H565 H 0.91554 0.43662 0.4234 0.0
H566 H 0.88926 0.45355 0.43397 0.0
H567 H 0.87074 0.41366 0.41616 0.0
H568 H 0.81755 0.50204 0.4361 0.0
H569 H 0.75992 0.40611 0.39395 0.0
H570 H 0.88808 0.53228 0.40195 0.0
H571 H 0.89944 0.50985 0.42625 0.0
H572 H 0.87719 0.53034 0.43887 0.0
H573 H 0.81629 0.41139 0.34787 0.0
H574 H 0.78582 0.37982 0.37049 0.0
H575 H 0.83036 0.39573 0.37641 0.0
C576 C 0.09477 0.53521 0.39247 0.0
C577 C 0.10926 0.52931 0.36859 0.0
C578 C 0.11387 0.54935 0.41769 0.0
C579 C 0.14831 0.5583 0.41873 0.0
C580 C 0.16193 0.54913 0.39581 0.0
C581 C 0.14203 0.53424 0.37117 0.0
C582 C 0.09807 0.55764 0.44213 0.0
C583 C 0.19851 0.55824 0.39597 0.0
C584 C 0.20397 0.63901 0.46002 0.0
C585 C 0.21074 0.62749 0.4853 0.0
C586 C 0.18475 0.61671 0.43781 0.0
C587 C 0.17112 0.58194 0.44135 0.0
C588 C 0.1785 0.57018 0.46661 0.0
C589 C 0.19864 0.59321 0.4882 0.0
C590 C 0.1783 0.63037 0.41084 0.0
C591 C 0.16382 0.5333 0.47141 0.0
H592 H 0.06947 0.53142 0.39076 0.0
H593 H 0.15306 0.52891 0.35299 0.0
H594 H 0.10573 0.55179 0.46282 0.0
H595 H 0.10692 0.58479 0.44238 0.0
H596 H 0.07009 0.54378 0.44023 0.0
H597 H 0.20363 0.54458 0.37894 0.0
H598 H 0.21448 0.58544 0.39243 0.0
H599 H 0.20627 0.55296 0.41686 0.0
H600 H 0.21344 0.66553 0.45776 0.0
H601 H 0.20351 0.58423 0.50794 0.0
H602 H 0.15106 0.622 0.4086 0.0
H603 H 0.18522 0.62063 0.39193 0.0
H604 H 0.19277 0.6581 0.41067 0.0
H605 H 0.13618 0.52151 0.47406 0.0
H606 H 0.17492 0.52844 0.4907 0.0
H607 H 0.16784 0.52094 0.4527 0.0
C608 C 0.54615 0.09964 0.55353 0.0
C609 C 0.56642 0.11478 0.53002 0.0
C610 C 0.55351 0.11647 0.58007 0.0
C611 C 0.58124 0.14943 0.58287 0.0
C612 C 0.60355 0.1635 0.56003 0.0
C613 C 0.59622 0.14568 0.53405 0.0
C614 C 0.52987 0.10007 0.60435 0.0
C615 C 0.63325 0.19865 0.56197 0.0
C616 C 0.5649 0.20543 0.63157 0.0
C617 C 0.58447 0.20834 0.65575 0.0
C618 C 0.56477 0.18737 0.60734 0.0
C619 C 0.58372 0.1708 0.60776 0.0
C620 C 0.60393 0.17405 0.63204 0.0
C621 C 0.60448 0.19329 0.65566 0.0
C622 C 0.54375 0.18545 0.58149 0.0
C623 C 0.62364 0.15597 0.63361 0.0
H624 H 0.52315 0.07575 0.55077 0.0
H625 H 0.61265 0.15708 0.51623 0.0
H626 H 0.54423 0.10455 0.62474 0.0
H627 H 0.51335 0.11106 0.60671 0.0
H628 H 0.5136 0.07271 0.60061 0.0
H629 H 0.65087 0.20396 0.54418 0.0
H630 H 0.62391 0.21661 0.56112 0.0
H631 H 0.64738 0.20321 0.58247 0.0
H632 H 0.54952 0.21717 0.6317 0.0
H633 H 0.61923 0.19519 0.67461 0.0
H634 H 0.52289 0.1594 0.57797 0.0
H635 H 0.55936 0.19271 0.56216 0.0
H636 H 0.5327 0.20191 0.58383 0.0
H637 H 0.60584 0.12867 0.63428 0.0
H638 H 0.64057 0.16362 0.6528 0.0
H639 H 0.639 0.16056 0.61435 0.0
C640 C 0.42794 0.56201 0.71516 0.0
C641 C 0.45947 0.5652 0.70989 0.0
C642 C 0.42044 0.56977 0.74194 0.0
C643 C 0.44492 0.58062 0.76429 0.0
C644 C 0.47701 0.58434 0.75918 0.0
C645 C 0.48392 0.57646 0.73194 0.0
C646 C 0.38579 0.56519 0.7465 0.0
C647 C 0.50365 0.59585 0.78259 0.0
C648 C 0.42248 0.61713 0.8274 0.0
C649 C 0.40426 0.5886 0.84374 0.0
C650 C 0.43797 0.61561 0.80222 0.0
C651 C 0.43522 0.58492 0.79342 0.0
C652 C 0.41862 0.55666 0.81079 0.0
C653 C 0.40328 0.55883 0.83565 0.0
C654 C 0.45554 0.64625 0.78422 0.0
C655 C 0.41518 0.52348 0.80223 0.0
H656 H 0.40864 0.5526 0.69841 0.0
H657 H 0.50836 0.57912 0.7279 0.0
H658 H 0.37201 0.54493 0.76184 0.0
H659 H 0.38792 0.58835 0.7558 0.0
H660 H 0.37051 0.5587 0.72638 0.0
H661 H 0.52821 0.60027 0.77456 0.0
H662 H 0.5074 0.61923 0.79288 0.0
H663 H 0.49524 0.57672 0.79931 0.0
H664 H 0.42359 0.64029 0.83368 0.0
H665 H 0.38979 0.5368 0.84843 0.0
H666 H 0.43989 0.64283 0.76482 0.0
H667 H 0.48015 0.64998 0.77709 0.0
H668 H 0.45983 0.66915 0.79589 0.0
H669 H 0.39788 0.51286 0.78337 0.0
H670 H 0.40503 0.50513 0.81962 0.0
H671 H 0.43993 0.52677 0.7961 0.0
C672 C 0.89365 0.47292 0.86434 0.0
C673 C 0.9207 0.46701 0.86222 0.0
C674 C 0.87725 0.46898 0.89013 0.0
C675 C 0.88829 0.459 0.91445 0.0
C676 C 0.91653 0.45437 0.91278 0.0
C677 C 0.93251 0.4585 0.88659 0.0
C678 C 0.84745 0.47449 0.89112 0.0
C679 C 0.92909 0.44394 0.93837 0.0
C680 C 0.8596 0.4739 0.98563 0.0
C681 C 0.83163 0.44238 -0.00915 0.0
C682 C 0.87875 0.47944 0.96119 0.0
C683 C 0.8697 0.45286 0.9414 0.0
C684 C 0.84178 0.42088 0.94661 0.0
C685 C 0.82305 0.41599 0.97132 0.0
C686 C 0.90833 0.51388 0.95632 0.0
C687 C 0.83138 0.39197 0.92584 0.0
H688 H 0.88478 0.47988 0.84551 0.0
H689 H 0.95329 0.45371 0.88488 0.0
H690 H 0.8244 0.45083 0.8964 0.0
H691 H 0.85156 0.49311 0.90813 0.0
H692 H 0.84286 0.48334 0.87054 0.0
H693 H 0.95249 0.44326 0.93395 0.0
H694 H 0.93412 0.46136 0.95667 0.0
H695 H 0.90939 0.41874 0.94493 0.0
H696 H 0.86659 0.49445 0.00064 0.0
H697 H 0.8016 0.39156 0.97524 0.0
H698 H 0.90368 0.52427 0.93671 0.0
H699 H 0.93152 0.51249 0.95303 0.0
H700 H 0.91299 0.53147 0.97445 0.0
H701 H 0.82395 0.39778 0.90501 0.0
H702 H 0.80991 0.36839 0.93357 0.0
H703 H 0.85296 0.38799 0.92205 0.0
C704 C 0.53549 0.90364 0.04176 0.0
C705 C 0.53173 0.9311 0.03496 0.0
C706 C 0.51873 0.88342 0.06478 0.0
C707 C 0.49894 0.89174 0.08213 0.0
C708 C 0.49854 0.92176 0.07753 0.0
C709 C 0.51462 0.94093 0.05371 0.0
C710 C 0.51952 0.85146 0.06865 0.0
C711 C 0.47883 0.93218 0.09636 0.0
C712 C 0.41813 0.82325 0.11288 0.0
C713 C 0.42818 0.82273 0.14105 0.0
C714 C 0.44141 0.84464 0.09319 0.0
C715 C 0.47514 0.867 0.10233 0.0
C716 C 0.48552 0.86614 0.13071 0.0
C717 C 0.46195 0.84354 0.14966 0.0
C718 C 0.42967 0.84394 0.06279 0.0
C719 C 0.5209 0.89029 0.14147 0.0
H720 H 0.54949 0.89646 0.02773 0.0
H721 H 0.51164 0.96212 0.04872 0.0
H722 H 0.52341 0.84786 0.09141 0.0
H723 H 0.49487 0.82996 0.06151 0.0
H724 H 0.53965 0.85099 0.05609 0.0
H725 H 0.48589 0.95864 0.09319 0.0
H726 H 0.45149 0.91618 0.09136 0.0
H727 H 0.48298 0.92886 0.11917 0.0
H728 H 0.39193 0.80719 0.10638 0.0
H729 H 0.46945 0.84354 0.17169 0.0
H730 H 0.4467 0.8413 0.04773 0.0
H731 H 0.43055 0.86781 0.0582 0.0
H732 H 0.40352 0.82313 0.05859 0.0
H733 H 0.53977 0.89024 0.12698 0.0
H734 H 0.52577 0.88438 0.1633 0.0
H735 H 0.52483 0.91599 0.14187 0.0
C736 C 0.56923 0.49879 0.25282 0.0
C737 C 0.59317 0.51463 0.23175 0.0
C738 C 0.57825 0.48976 0.27862 0.0
C739 C 0.61184 0.49673 0.28314 0.0
C740 C 0.63626 0.51386 0.26229 0.0
C741 C 0.62667 0.5228 0.237 0.0
C742 C 0.55172 0.47194 0.30063 0.0
C743 C 0.67239 0.52194 0.26628 0.0
C744 C 0.651 0.50038 0.35554 0.0
C745 C 0.6509 0.47 0.35559 0.0
C746 C 0.63647 0.50853 0.33283 0.0
C747 C 0.62193 0.48597 0.30936 0.0
C748 C 0.62076 0.45479 0.30966 0.0
C749 C 0.63508 0.44705 0.33291 0.0
C750 C 0.63786 0.54185 0.33345 0.0
C751 C 0.60576 0.43025 0.28484 0.0
H752 H 0.54333 0.49243 0.24871 0.0
H753 H 0.64532 0.53556 0.22085 0.0
H754 H 0.54706 0.44615 0.30296 0.0
H755 H 0.56066 0.4848 0.32174 0.0
H756 H 0.52749 0.47061 0.29482 0.0
H757 H 0.68828 0.53565 0.24802 0.0
H758 H 0.68365 0.53733 0.28599 0.0
H759 H 0.67319 0.49853 0.26878 0.0
H760 H 0.66264 0.51802 0.37325 0.0
H761 H 0.63473 0.42345 0.33292 0.0
H762 H 0.6127 0.53855 0.32809 0.0
H763 H 0.65554 0.55822 0.31717 0.0
H764 H 0.64641 0.55477 0.3546 0.0
H765 H 0.58011 0.42558 0.27933 0.0
H766 H 0.60419 0.40601 0.28939 0.0
H767 H 0.62148 0.44095 0.26582 0.0
C768 C 0.49015 0.95965 0.37972 0.0
C769 C 0.46481 0.95595 0.39817 0.0
C770 C 0.48184 0.94092 0.354 0.0
C771 C 0.44753 0.91797 0.34699 0.0
C772 C 0.42192 0.91564 0.36491 0.0
C773 C 0.43089 0.93491 0.39007 0.0
C774 C 0.50973 0.94458 0.33502 0.0
C775 C 0.38503 0.8915 0.3583 0.0
C776 C 0.41387 0.87919 0.27377 0.0
C777 C 0.40953 0.84714 0.27687 0.0
C778 C 0.4283 0.90332 0.29581 0.0
C779 C 0.43792 0.89495 0.32181 0.0
C780 C 0.43449 0.86296 0.3248 0.0
C781 C 0.42064 0.83951 0.30214 0.0
C782 C 0.43215 0.93736 0.29162 0.0
C783 C 0.44398 0.85294 0.3524 0.0
H784 H 0.51637 0.97591 0.38602 0.0
H785 H 0.41127 0.93247 0.4042 0.0
H786 H 0.51166 0.92164 0.33586 0.0
H787 H 0.50406 0.94754 0.31252 0.0
H788 H 0.53454 0.96629 0.34158 0.0
H789 H 0.36826 0.8935 0.3741 0.0
H790 H 0.37799 0.89607 0.33681 0.0
H791 H 0.38032 0.86552 0.35816 0.0
H792 H 0.40592 0.88546 0.25405 0.0
H793 H 0.4175 0.81485 0.30456 0.0
H794 H 0.45784 0.95727 0.2984 0.0
H795 H 0.41398 0.94015 0.30509 0.0
H796 H 0.42753 0.94131 0.26907 0.0
H797 H 0.47014 0.87168 0.35913 0.0
H798 H 0.442 0.82805 0.35061 0.0
H799 H 0.4271 0.85216 0.36948 0.0
C800 C 0.52715 0.43704 0.58268 0.0
C801 C 0.53339 0.46901 0.59079 0.0
C802 C 0.54618 0.43273 0.5618 0.0
C803 C 0.57089 0.46093 0.54753 0.0
C804 C 0.57484 0.49285 0.5534 0.0
C805 C 0.55633 0.49664 0.57533 0.0
C806 C 0.54159 0.39836 0.55667 0.0
C807 C 0.5999 0.52326 0.53763 0.0
C808 C 0.64789 0.45947 0.52067 0.0
C809 C 0.63859 0.4496 0.49216 0.0
C810 C 0.6257 0.46256 0.5391 0.0
C811 C 0.59429 0.45723 0.52825 0.0
C812 C 0.58501 0.44753 0.49932 0.0
C813 C 0.60706 0.44319 0.48173 0.0
C814 C 0.63593 0.47165 0.57011 0.0
C815 C 0.55238 0.44291 0.48672 0.0
H816 H 0.50869 0.41543 0.59401 0.0
H817 H 0.56118 0.52137 0.58135 0.0
H818 H 0.53753 0.39157 0.53363 0.0
H819 H 0.56484 0.39837 0.56364 0.0
H820 H 0.52 0.37879 0.56844 0.0
H821 H 0.59609 0.54488 0.54136 0.0
H822 H 0.62588 0.53049 0.54486 0.0
H823 H 0.59794 0.5177 0.51437 0.0
H824 H 0.67252 0.46479 0.52848 0.0
H825 H 0.60039 0.43642 0.45939 0.0
H826 H 0.61619 0.45292 0.5839 0.0
H827 H 0.63832 0.4962 0.57533 0.0
H828 H 0.66029 0.47302 0.57545 0.0
H829 H 0.53059 0.42357 0.49837 0.0
H830 H 0.54903 0.43553 0.46376 0.0
H831 H 0.55188 0.46655 0.48909 0.0
C832 C 0.07281 0.54035 0.71352 0.0
C833 C 0.07906 0.5572 0.73985 0.0
C834 C 0.09212 0.55673 0.68975 0.0
C835 C 0.11808 0.59059 0.69262 0.0
C836 C 0.1229 0.60817 0.71875 0.0
C837 C 0.10328 0.59124 0.74204 0.0
C838 C 0.08604 0.53731 0.6621 0.0
C839 C 0.15009 0.64433 0.72265 0.0
C840 C 0.19452 0.62328 0.64547 0.0
C841 C 0.18781 0.64175 0.62565 0.0
C842 C 0.17176 0.6061 0.66716 0.0
C843 C 0.14153 0.6073 0.66894 0.0
C844 C 0.13453 0.62572 0.64892 0.0
C845 C 0.15777 0.64279 0.6276 0.0
C846 C 0.18017 0.58686 0.68832 0.0
C847 C 0.10257 0.62755 0.65011 0.0
H848 H 0.05428 0.51394 0.71197 0.0
H849 H 0.10798 0.6042 0.76249 0.0
H850 H 0.08387 0.55139 0.64401 0.0
H851 H 0.10783 0.53375 0.65801 0.0
H852 H 0.06283 0.51237 0.66249 0.0
H853 H 0.14889 0.65498 0.74366 0.0
H854 H 0.17524 0.64651 0.72097 0.0
H855 H 0.14795 0.65959 0.70559 0.0
H856 H 0.21756 0.62223 0.64408 0.0
H857 H 0.15217 0.65681 0.6123 0.0
H858 H 0.1597 0.56036 0.68823 0.0
H859 H 0.18206 0.59724 0.71016 0.0
H860 H 0.2043 0.58777 0.68362 0.0
H861 H 0.08023 0.60202 0.64931 0.0
H862 H 0.10032 0.64197 0.6323 0.0
H863 H 0.10193 0.63949 0.67056 0.0
C864 C 0.55437 0.1082 0.91654 0.0
C865 C 0.56597 0.0855 0.91342 0.0
C866 C 0.55295 0.1262 0.89333 0.0
C867 C 0.56322 0.12123 0.8663 0.0
C868 C 0.57276 0.09666 0.8626 0.0
C869 C 0.57403 0.079 0.88631 0.0
C870 C 0.54236 0.15195 0.89814 0.0
C871 C 0.58349 0.09041 0.83399 0.0
C872 C 0.53998 0.15638 0.80293 0.0
C873 C 0.56991 0.18686 0.79916 0.0
C874 C 0.53766 0.13443 0.82427 0.0
C875 C 0.56585 0.14323 0.84248 0.0
C876 C 0.59618 0.17386 0.8388 0.0
C877 C 0.59789 0.19528 0.81711 0.0
C878 C 0.50496 0.10196 0.82749 0.0
C879 C 0.62671 0.18418 0.858 0.0
H880 H 0.54795 0.11302 0.93755 0.0
H881 H 0.58324 0.06163 0.88397 0.0
H882 H 0.56423 0.17731 0.8951 0.0
H883 H 0.52247 0.14827 0.88236 0.0
H884 H 0.53272 0.15095 0.91992 0.0
H885 H 0.58672 0.06817 0.83399 0.0
H886 H 0.56467 0.08681 0.81712 0.0
H887 H 0.6078 0.11251 0.82832 0.0
H888 H 0.51825 0.14947 0.78906 0.0
H889 H 0.6211 0.21869 0.81431 0.0
H890 H 0.49439 0.1015 0.84872 0.0
H891 H 0.50957 0.08062 0.82634 0.0
H892 H 0.48582 0.0982 0.81083 0.0
H893 H 0.62048 0.18643 0.8804 0.0
H894 H 0.64861 0.20839 0.8519 0.0
H895 H 0.63416 0.16477 0.85729 0.0
C896 C 0.50163 0.57996 0.0848 0.0
C897 C 0.48863 0.57833 0.11195 0.0
C898 C 0.48437 0.58137 0.06033 0.0
C899 C 0.45352 0.58116 0.06323 0.0
C900 C 0.43984 0.57845 0.09055 0.0
C901 C 0.45744 0.57685 0.11452 0.0
C902 C 0.49947 0.58383 0.03145 0.0
C903 C 0.40691 0.57791 0.09453 0.0
C904 C 0.42248 0.61544 0.00414 0.0
C905 C 0.39817 0.58595 -0.00981 0.0
C906 C 0.44095 0.61433 0.0279 0.0
C907 C 0.435 0.58302 0.03773 0.0
C908 C 0.41044 0.55324 0.0238 0.0
C909 C 0.39228 0.55506 0.00034 0.0
C910 C 0.46679 0.64658 0.04249 0.0
C911 C 0.40337 0.5194 0.03365 0.0
H912 H 0.52585 0.58139 0.08281 0.0
H913 H 0.44714 0.57516 0.13551 0.0
H914 H 0.48117 0.56318 0.01715 0.0
H915 H 0.50496 0.6076 0.02147 0.0
H916 H 0.52315 0.58281 0.03277 0.0
H917 H 0.39982 0.57582 0.11728 0.0
H918 H 0.40878 0.60107 0.08611 0.0
H919 H 0.38633 0.55658 0.0823 0.0
H920 H 0.42728 0.63937 -0.0036 0.0
H921 H 0.37362 0.53206 -0.01027 0.0
H922 H 0.49194 0.64859 0.04237 0.0
H923 H 0.46018 0.6468 0.06513 0.0
H924 H 0.46862 0.66885 0.03208 0.0
H925 H 0.42685 0.51803 0.03346 0.0
H926 H 0.38394 0.49863 0.02005 0.0
H927 H 0.39459 0.51561 0.05593 0.0
C928 C 0.90726 0.40783 0.24554 0.0
C929 C 0.93869 0.43743 0.24656 0.0
C930 C 0.88565 0.39929 0.2216 0.0
C931 C 0.8962 0.4204 0.19783 0.0
C932 C 0.92964 0.44775 0.19728 0.0
C933 C 0.95048 0.45616 0.22182 0.0
C934 C 0.85027 0.36992 0.22316 0.0
C935 C 0.94225 0.47015 0.1719 0.0
C936 C 0.84014 0.39671 0.13096 0.0
C937 C 0.82561 0.41691 0.13445 0.0
C938 C 0.86304 0.39719 0.1515 0.0
C939 C 0.87078 0.41773 0.1763 0.0
C940 C 0.85474 0.43681 0.18049 0.0
C941 C 0.83276 0.43654 0.1593 0.0
C942 C 0.88016 0.37711 0.14598 0.0
C943 C 0.86147 0.45828 0.20704 0.0
H944 H 0.89838 0.39283 0.26445 0.0
H945 H 0.97478 0.47896 0.22236 0.0
H946 H 0.83259 0.37924 0.22728 0.0
H947 H 0.84225 0.3555 0.20271 0.0
H948 H 0.84795 0.35285 0.24055 0.0
H949 H 0.97017 0.48603 0.1725 0.0
H950 H 0.93425 0.45518 0.1517 0.0
H951 H 0.93127 0.48677 0.17177 0.0
H952 H 0.83497 0.38188 0.1115 0.0
H953 H 0.82144 0.45209 0.162 0.0
H954 H 0.87953 0.36296 0.16509 0.0
H955 H 0.90707 0.39433 0.14129 0.0
H956 H 0.86833 0.35931 0.12763 0.0
H957 H 0.85723 0.44318 0.22637 0.0
H958 H 0.84514 0.46966 0.20789 0.0
H959 H 0.88819 0.47865 0.20781 0.0
loop_
_geom_bond_atom_site_label_1
_geom_bond_atom_site_label_2
_geom_bond_distance
_geom_bond_site_symmetry_2
_ccdc_geom_bond_type
H0 C6 0.930 . S
H1 C9 0.931 . S
H2 C11 0.931 . S
H3 C13 0.930 . S
H4 C15 0.930 . S
H5 C17 0.931 . S
C6 H0 0.930 . S
C6 C7 1.380 . S
C6 C8 1.394 . S
C7 C6 1.380 . S
C7 C11 1.382 . S
C8 C6 1.394 . S
C8 C9 1.400 . S
C9 H1 0.931 . S
C9 C8 1.400 . S
C9 C10 1.375 . S
C10 C9 1.375 . S
C10 C11 1.415 . S
C10 C12 1.501 1_455 S
C11 H2 0.931 . S
C11 C7 1.382 . S
C11 C10 1.415 . S
C12 C10 1.501 1_655 S
C12 C13 1.384 . S
C12 C17 1.408 . S
C13 H3 0.930 . S
C13 C12 1.384 . S
C13 C14 1.389 . S
C14 C13 1.389 . S
C14 C15 1.405 . S
C15 H4 0.930 . S
C15 C14 1.405 . S
C15 C16 1.364 . S
C16 C15 1.364 . S
C16 C17 1.400 . S
C17 H5 0.931 . S
C17 C12 1.408 . S
C17 C16 1.400 . S
H18 C24 0.930 . S
H19 C27 0.931 . S
H20 C29 0.931 . S
H21 C31 0.930 . S
H22 C33 0.930 . S
H23 C35 0.931 . S
C24 H18 0.930 . S
C24 C25 1.380 . S
C24 C26 1.394 . S
C25 C24 1.380 . S
C25 C29 1.382 . S
C26 C24 1.394 . S
C26 C27 1.400 . S
C27 H19 0.931 . S
C27 C26 1.400 . S
C27 C28 1.375 . S
C28 C27 1.375 . S
C28 C29 1.415 . S
C28 C30 1.501 1_545 S
C29 H20 0.931 . S
C29 C25 1.382 . S
C29 C28 1.415 . S
C30 C28 1.501 1_565 S
C30 C31 1.384 . S
C30 C35 1.408 . S
C31 H21 0.930 . S
C31 C30 1.384 . S
C31 C32 1.389 . S
C32 C31 1.389 . S
C32 C33 1.405 . S
C33 H22 0.930 . S
C33 C32 1.405 . S
C33 C34 1.364 . S
C34 C33 1.364 . S
C34 C35 1.400 . S
C35 H23 0.931 . S
C35 C30 1.408 . S
C35 C34 1.400 . S
H36 C42 0.930 . S
H37 C45 0.931 . S
H38 C47 0.931 . S
H39 C49 0.930 . S
H40 C51 0.930 . S
H41 C53 0.931 . S
C42 H36 0.930 . S
C42 C43 1.380 . S
C42 C44 1.394 . S
C43 C42 1.380 . S
C43 C47 1.382 . S
C44 C42 1.394 . S
C44 C45 1.400 . S
C45 H37 0.931 . S
C45 C44 1.400 . S
C45 C46 1.375 . S
C46 C45 1.375 . S
C46 C47 1.415 . S
C46 C48 1.501 . S
C47 H38 0.931 . S
C47 C43 1.382 . S
C47 C46 1.415 . S
C48 C46 1.501 . S
C48 C49 1.384 . S
C48 C53 1.408 . S
C49 H39 0.930 . S
C49 C48 1.384 . S
C49 C50 1.389 . S
C50 C49 1.389 . S
C50 C51 1.405 . S
C51 H40 0.930 . S
C51 C50 1.405 . S
C51 C52 1.364 . S
C52 C51 1.364 . S
C52 C53 1.400 . S
C53 H41 0.931 . S
C53 C48 1.408 . S
C53 C52 1.400 . S
H54 C60 0.930 . S
H55 C63 0.931 . S
H56 C65 0.931 . S
H57 C67 0.930 . S
H58 C69 0.930 . S
H59 C71 0.950 . S
C60 H54 0.930 . S
C60 C61 1.380 . S
C60 C62 1.394 . S
C61 C60 1.380 . S
C61 C65 1.382 . S
C62 C60 1.394 . S
C62 C63 1.400 . S
C63 H55 0.931 . S
C63 C62 1.400 . S
C63 C64 1.375 . S
C64 C63 1.375 . S
C64 C65 1.415 . S
C64 C66 1.501 1_455 S
C65 H56 0.931 . S
C65 C61 1.382 . S
C65 C64 1.415 . S
C66 C64 1.501 1_655 S
C66 C67 1.384 . S
C66 C71 1.408 . S
C67 H57 0.930 . S
C67 C66 1.384 . S
C67 C68 1.389 . S
C68 C67 1.389 . S
C68 C69 1.405 . S
C69 H58 0.930 . S
C69 C68 1.405 . S
C69 C70 1.364 . S
C70 C69 1.364 . S
C70 C71 1.400 . S
C71 H59 0.950 . S
C71 C66 1.408 . S
C71 C70 1.400 . S
H72 C78 0.930 . S
H73 C81 0.931 . S
H74 C83 0.921 1_545 S
H75 C85 0.930 . S
H76 C87 0.930 . S
H77 C89 0.931 . S
C78 H72 0.930 . S
C78 C79 1.380 . S
C78 C80 1.394 1_554 S
C79 C78 1.380 . S
C79 C83 1.382 . S
C80 C78 1.394 1_556 S
C80 C81 1.400 . S
C81 H73 0.931 . S
C81 C80 1.400 . S
C81 C82 1.375 . S
C82 C81 1.375 . S
C82 C83 1.415 1_556 S
C82 C84 1.501 1_565 S
C83 H74 0.921 1_565 S
C83 C79 1.382 . S
C83 C82 1.415 1_554 S
C84 C82 1.501 1_545 S
C84 C85 1.384 1_556 S
C84 C89 1.408 . S
C85 H75 0.930 . S
C85 C84 1.384 1_554 S
C85 C86 1.389 1_554 S
C86 C85 1.389 1_556 S
C86 C87 1.405 . S
C87 H76 0.930 . S
C87 C86 1.405 . S
C87 C88 1.364 . S
C88 C87 1.364 . S
C88 C89 1.400 . S
C89 H77 0.931 . S
C89 C84 1.408 . S
C89 C88 1.400 . S
H90 C96 0.930 . S
H91 C99 0.931 . S
H92 C101 0.931 . S
H93 C103 0.930 . S
H94 C105 0.930 . S
H95 C107 0.931 . S
C96 H90 0.930 . S
C96 C97 1.380 . S
C96 C98 1.394 . S
C97 C96 1.380 . S
C97 C101 1.382 . S
C98 C96 1.394 . S
C98 C99 1.400 . S
C99 H91 0.931 . S
C99 C98 1.400 . S
C99 C100 1.375 . S
C100 C99 1.375 . S
C100 C101 1.415 . S
C100 C102 1.501 . S
C101 H92 0.931 . S
C101 C97 1.382 . S
C101 C100 1.415 . S
C102 C100 1.501 . S
C102 C103 1.384 . S
C102 C107 1.408 . S
C103 H93 0.930 . S
C103 C102 1.384 . S
C103 C104 1.389 . S
C104 C103 1.389 . S
C104 C105 1.405 . S
C105 H94 0.930 . S
C105 C104 1.405 . S
C105 C106 1.364 . S
C106 C105 1.364 . S
C106 C107 1.400 . S
C107 H95 0.931 . S
C107 C102 1.408 . S
C107 C106 1.400 . S
Zn108 O111 2.031 . S
Zn108 O113 2.049 . S
Zn108 O118 2.067 . S
Zn109 O110 1.962 . S
Zn109 O112 1.986 . S
Zn109 O114 1.996 . S
Zn109 O117 1.943 . S
O110 Zn109 1.962 . S
O110 C115 1.254 . S
O111 Zn108 2.031 . S
O111 C115 1.269 . S
O112 Zn109 1.986 . S
O112 C119 1.262 . S
O113 Zn108 2.049 . S
O113 C121 1.260 . S
O114 Zn109 1.996 . S
O114 C121 1.257 . S
C115 O110 1.254 . S
C115 O111 1.269 . S
C116 O117 1.249 . S
C116 O118 1.270 . S
O117 Zn109 1.943 . S
O117 C116 1.249 . S
O118 Zn108 2.067 . S
O118 C116 1.270 . S
C119 O112 1.262 . S
C119 O120 1.232 . S
O120 C119 1.232 . S
C121 O113 1.260 . S
C121 O114 1.257 . S
Zn122 O125 2.031 . S
Zn122 O127 2.049 . S
Zn122 O132 2.067 . S
Zn123 O124 1.962 . S
Zn123 O126 1.986 . S
Zn123 O128 1.996 . S
Zn123 O131 1.943 . S
O124 Zn123 1.962 . S
O124 C129 1.254 . S
O125 Zn122 2.031 . S
O125 C129 1.269 . S
O126 Zn123 1.986 . S
O126 C133 1.262 . S
O127 Zn122 2.049 . S
O127 C135 1.260 . S
O128 Zn123 1.996 . S
O128 C135 1.257 . S
C129 O124 1.254 . S
C129 O125 1.269 . S
C130 O131 1.249 . S
C130 O132 1.270 . S
O131 Zn123 1.943 . S
O131 C130 1.249 . S
O132 Zn122 2.067 . S
O132 C130 1.270 . S
C133 O126 1.262 . S
C133 O134 1.232 . S
O134 C133 1.232 . S
C135 O127 1.260 . S
C135 O128 1.257 . S
Zn136 O139 2.031 . S
Zn136 O141 2.049 . S
Zn136 O146 2.067 . S
Zn137 O138 1.962 . S
Zn137 O140 1.986 . S
Zn137 O142 1.996 . S
Zn137 O145 1.943 . S
O138 Zn137 1.962 . S
O138 C143 1.254 . S
O139 Zn136 2.031 . S
O139 C143 1.269 . S
O140 Zn137 1.986 . S
O140 C147 1.262 . S
O141 Zn136 2.049 . S
O141 C149 1.260 . S
O142 Zn137 1.996 . S
O142 C149 1.257 . S
C143 O138 1.254 . S
C143 O139 1.269 . S
C144 O145 1.249 . S
C144 O146 1.270 . S
O145 Zn137 1.943 . S
O145 C144 1.249 . S
O146 Zn136 2.067 . S
O146 C144 1.270 . S
C147 O140 1.262 . S
C147 O148 1.232 . S
O148 C147 1.232 . S
C149 O141 1.260 . S
C149 O142 1.257 . S
Zn150 O153 2.031 . S
Zn150 O155 2.049 . S
Zn150 O160 2.067 . S
Zn151 O152 1.962 . S
Zn151 O154 1.986 . S
Zn151 O156 1.996 . S
Zn151 O159 1.943 . S
O152 Zn151 1.962 . S
O152 C157 1.254 . S
O153 Zn150 2.031 . S
O153 C157 1.269 . S
O154 Zn151 1.986 . S
O154 C161 1.262 . S
O155 Zn150 2.049 . S
O155 C163 1.260 . S
O156 Zn151 1.996 . S
O156 C163 1.257 . S
C157 O152 1.254 . S
C157 O153 1.269 . S
C158 O159 1.249 . S
C158 O160 1.270 . S
O159 Zn151 1.943 . S
O159 C158 1.249 . S
O160 Zn150 2.067 . S
O160 C158 1.270 . S
C161 O154 1.262 . S
C161 O162 1.232 . S
O162 C161 1.232 . S
C163 O155 1.260 . S
C163 O156 1.257 . S
Zn164 O167 2.031 . S
Zn164 O169 2.049 . S
Zn164 O174 2.067 . S
Zn165 O166 1.962 . S
Zn165 O168 1.986 . S
Zn165 O170 1.996 . S
Zn165 O173 1.943 . S
O166 Zn165 1.962 . S
O166 C171 1.254 . S
O167 Zn164 2.031 . S
O167 C171 1.269 . S
O168 Zn165 1.986 . S
O168 C175 1.262 . S
O169 Zn164 2.049 . S
O169 C177 1.260 . S
O170 Zn165 1.996 . S
O170 C177 1.257 . S
C171 O166 1.254 . S
C171 O167 1.269 . S
C172 O173 1.249 . S
C172 O174 1.270 . S
O173 Zn165 1.943 . S
O173 C172 1.249 . S
O174 Zn164 2.067 . S
O174 C172 1.270 . S
C175 O168 1.262 . S
C175 O176 1.232 . S
O176 C175 1.232 . S
C177 O169 1.260 . S
C177 O170 1.257 . S
Zn178 O181 2.031 . S
Zn178 O183 2.049 . S
Zn178 O188 2.067 . S
Zn179 O180 1.962 . S
Zn179 O182 1.986 . S
Zn179 O184 1.996 . S
Zn179 O187 1.943 . S
O180 Zn179 1.962 . S
O180 C185 1.254 . S
O181 Zn178 2.031 . S
O181 C185 1.269 . S
O182 Zn179 1.986 . S
O182 C189 1.262 . S
O183 Zn178 2.049 . S
O183 C191 1.260 . S
O184 Zn179 1.996 . S
O184 C191 1.257 . S
C185 O180 1.254 . S
C185 O181 1.269 . S
C186 O187 1.249 . S
C186 O188 1.270 . S
O187 Zn179 1.943 . S
O187 C186 1.249 . S
O188 Zn178 2.067 . S
O188 C186 1.270 . S
C189 O182 1.262 . S
C189 O190 1.232 . S
O190 C189 1.232 . S
C191 O183 1.260 . S
C191 O184 1.257 . S
C192 C193 1.391 . S
C192 C194 1.394 . S
C192 H208 0.931 . S
C193 C192 1.391 . S
C193 C197 1.376 . S
C194 C192 1.394 . S
C194 C195 1.369 . S
C194 C198 1.531 . S
C195 C194 1.369 . S
C195 C196 1.410 . S
C195 C203 1.503 . S
C196 C195 1.410 . S
C196 C197 1.392 . S
C196 C199 1.511 . S
C197 C193 1.376 . S
C197 C196 1.392 . S
C197 H209 0.929 . S
C198 C194 1.531 . S
C198 H210 0.960 . S
C198 H211 0.962 . S
C198 H212 0.960 . S
C199 C196 1.511 . S
C199 H213 0.961 . S
C199 H214 0.961 . S
C199 H215 0.961 . S
C200 C201 1.370 . S
C200 C202 1.363 . S
C200 H216 0.931 . S
C201 C200 1.370 . S
C201 C205 1.408 . S
C202 C200 1.363 . S
C202 C203 1.370 . S
C202 C206 1.524 . S
C203 C195 1.503 . S
C203 C202 1.370 . S
C203 C204 1.403 . S
C204 C203 1.403 . S
C204 C205 1.404 . S
C204 C207 1.539 . S
C205 C201 1.408 . S
C205 C204 1.404 . S
C205 H217 0.930 . S
C206 C202 1.524 . S
C206 H218 0.956 . S
C206 H219 0.961 . S
C206 H220 0.961 . S
C207 C204 1.539 . S
C207 H221 0.958 . S
C207 H222 0.961 . S
C207 H223 0.960 . S
H208 C192 0.931 . S
H209 C197 0.929 . S
H210 C198 0.960 . S
H211 C198 0.962 . S
H212 C198 0.960 . S
H213 C199 0.961 . S
H214 C199 0.961 . S
H215 C199 0.961 . S
H216 C200 0.931 . S
H217 C205 0.930 . S
H218 C206 0.956 . S
H219 C206 0.961 . S
H220 C206 0.961 . S
H221 C207 0.958 . S
H222 C207 0.961 . S
H223 C207 0.960 . S
C224 C225 1.391 . S
C224 C226 1.394 . S
C224 H240 0.931 . S
C225 C224 1.391 . S
C225 C229 1.376 . S
C226 C224 1.394 . S
C226 C227 1.369 . S
C226 C230 1.531 . S
C227 C226 1.369 . S
C227 C228 1.410 . S
C227 C235 1.503 . S
C228 C227 1.410 . S
C228 C229 1.392 . S
C228 C231 1.511 . S
C229 C225 1.376 . S
C229 C228 1.392 . S
C229 H241 0.929 . S
C230 C226 1.531 . S
C230 H242 0.960 . S
C230 H243 0.962 . S
C230 H244 0.960 . S
C231 C228 1.511 . S
C231 H245 0.961 . S
C231 H246 0.961 . S
C231 H247 0.961 . S
C232 C233 1.370 . S
C232 C234 1.363 . S
C232 H248 0.931 . S
C233 C232 1.370 . S
C233 C237 1.408 . S
C234 C232 1.363 . S
C234 C235 1.370 . S
C234 C238 1.524 . S
C235 C227 1.503 . S
C235 C234 1.370 . S
C235 C236 1.403 . S
C236 C235 1.403 . S
C236 C237 1.404 . S
C236 C239 1.539 . S
C237 C233 1.408 . S
C237 C236 1.404 . S
C237 H249 0.930 . S
C238 C234 1.524 . S
C238 H250 0.956 . S
C238 H251 0.961 . S
C238 H252 0.961 . S
C239 C236 1.539 . S
C239 H253 0.958 . S
C239 H254 0.961 . S
C239 H255 0.960 . S
H240 C224 0.931 . S
H241 C229 0.929 . S
H242 C230 0.960 . S
H243 C230 0.962 . S
H244 C230 0.960 . S
H245 C231 0.961 . S
H246 C231 0.961 . S
H247 C231 0.961 . S
H248 C232 0.931 . S
H249 C237 0.930 . S
H250 C238 0.956 . S
H251 C238 0.961 . S
H252 C238 0.961 . S
H253 C239 0.958 . S
H254 C239 0.961 . S
H255 C239 0.960 . S
C256 C257 1.391 . S
C256 C258 1.394 . S
C256 H272 0.931 . S
C257 C256 1.391 . S
C257 C261 1.376 . S
C258 C256 1.394 . S
C258 C259 1.369 . S
C258 C262 1.531 . S
C259 C258 1.369 . S
C259 C260 1.410 . S
C259 C267 1.503 . S
C260 C259 1.410 . S
C260 C261 1.392 . S
C260 C263 1.511 . S
C261 C257 1.376 . S
C261 C260 1.392 . S
C261 H273 0.929 . S
C262 C258 1.531 . S
C262 H274 0.960 . S
C262 H275 0.962 . S
C262 H276 0.960 . S
C263 C260 1.511 . S
C263 H277 0.961 . S
C263 H278 0.961 . S
C263 H279 0.961 . S
C264 C265 1.370 . S
C264 C266 1.363 . S
C264 H280 0.931 . S
C265 C264 1.370 . S
C265 C269 1.408 . S
C266 C264 1.363 . S
C266 C267 1.370 . S
C266 C270 1.524 . S
C267 C259 1.503 . S
C267 C266 1.370 . S
C267 C268 1.403 . S
C268 C267 1.403 . S
C268 C269 1.404 . S
C268 C271 1.539 . S
C269 C265 1.408 . S
C269 C268 1.404 . S
C269 H281 0.930 . S
C270 C266 1.524 . S
C270 H282 0.956 . S
C270 H283 0.961 . S
C270 H284 0.961 . S
C271 C268 1.539 . S
C271 H285 0.958 . S
C271 H286 0.961 . S
C271 H287 0.960 . S
H272 C256 0.931 . S
H273 C261 0.929 . S
H274 C262 0.960 . S
H275 C262 0.962 . S
H276 C262 0.960 . S
H277 C263 0.961 . S
H278 C263 0.961 . S
H279 C263 0.961 . S
H280 C264 0.931 . S
H281 C269 0.930 . S
H282 C270 0.956 . S
H283 C270 0.961 . S
H284 C270 0.961 . S
H285 C271 0.958 . S
H286 C271 0.961 . S
H287 C271 0.960 . S
C288 C289 1.391 . S
C288 C290 1.394 . S
C288 H304 0.931 . S
C289 C288 1.391 . S
C289 C293 1.376 . S
C290 C288 1.394 . S
C290 C291 1.369 . S
C290 C294 1.531 . S
C291 C290 1.369 . S
C291 C292 1.410 . S
C291 C299 1.503 . S
C292 C291 1.410 . S
C292 C293 1.392 . S
C292 C295 1.511 . S
C293 C289 1.376 . S
C293 C292 1.392 . S
C293 H305 0.929 . S
C294 C290 1.531 . S
C294 H306 0.960 . S
C294 H307 0.962 . S
C294 H308 0.960 . S
C295 C292 1.511 . S
C295 H309 0.961 . S
C295 H310 0.961 . S
C295 H311 0.961 . S
C296 C297 1.370 . S
C296 C298 1.363 . S
C296 H312 0.931 . S
C297 C296 1.370 . S
C297 C301 1.408 . S
C298 C296 1.363 . S
C298 C299 1.370 . S
C298 C302 1.524 . S
C299 C291 1.503 . S
C299 C298 1.370 . S
C299 C300 1.403 . S
C300 C299 1.403 . S
C300 C301 1.404 . S
C300 C303 1.539 . S
C301 C297 1.408 . S
C301 C300 1.404 . S
C301 H313 0.930 . S
C302 C298 1.524 . S
C302 H314 0.956 . S
C302 H315 0.961 . S
C302 H316 0.961 . S
C303 C300 1.539 . S
C303 H317 0.958 . S
C303 H318 0.961 . S
C303 H319 0.960 . S
H304 C288 0.931 . S
H305 C293 0.929 . S
H306 C294 0.960 . S
H307 C294 0.962 . S
H308 C294 0.960 . S
H309 C295 0.961 . S
H310 C295 0.961 . S
H311 C295 0.961 . S
H312 C296 0.931 . S
H313 C301 0.930 . S
H314 C302 0.956 . S
H315 C302 0.961 . S
H316 C302 0.961 . S
H317 C303 0.958 . S
H318 C303 0.961 . S
H319 C303 0.960 . S
C320 C321 1.391 . S
C320 C322 1.394 . S
C320 H336 0.931 . S
C321 C320 1.391 . S
C321 C325 1.376 . S
C322 C320 1.394 . S
C322 C323 1.369 . S
C322 C326 1.531 . S
C323 C322 1.369 . S
C323 C324 1.410 . S
C323 C331 1.503 . S
C324 C323 1.410 . S
C324 C325 1.392 . S
C324 C327 1.511 . S
C325 C321 1.376 . S
C325 C324 1.392 . S
C325 H337 0.929 . S
C326 C322 1.531 . S
C326 H338 0.960 . S
C326 H339 0.962 . S
C326 H340 0.960 . S
C327 C324 1.511 . S
C327 H341 0.961 . S
C327 H342 0.961 . S
C327 H343 0.961 . S
C328 C329 1.370 . S
C328 C330 1.363 . S
C328 H344 0.931 . S
C329 C328 1.370 . S
C329 C333 1.408 . S
C330 C328 1.363 . S
C330 C331 1.370 . S
C330 C334 1.524 . S
C331 C323 1.503 . S
C331 C330 1.370 . S
C331 C332 1.403 . S
C332 C331 1.403 . S
C332 C333 1.404 . S
C332 C335 1.539 . S
C333 C329 1.408 . S
C333 C332 1.404 . S
C333 H345 0.930 . S
C334 C330 1.524 . S
C334 H346 0.956 . S
C334 H347 0.961 . S
C334 H348 0.961 . S
C335 C332 1.539 . S
C335 H349 0.958 . S
C335 H350 0.961 . S
C335 H351 0.960 . S
H336 C320 0.931 . S
H337 C325 0.929 . S
H338 C326 0.960 . S
H339 C326 0.962 . S
H340 C326 0.960 . S
H341 C327 0.961 . S
H342 C327 0.961 . S
H343 C327 0.961 . S
H344 C328 0.931 . S
H345 C333 0.930 . S
H346 C334 0.956 . S
H347 C334 0.961 . S
H348 C334 0.961 . S
H349 C335 0.958 . S
H350 C335 0.961 . S
H351 C335 0.960 . S
C352 C353 1.391 . S
C352 C354 1.394 . S
C352 H368 0.931 . S
C353 C352 1.391 . S
C353 C357 1.376 . S
C354 C352 1.394 . S
C354 C355 1.369 . S
C354 C358 1.531 . S
C355 C354 1.369 . S
C355 C356 1.410 . S
C355 C363 1.503 . S
C356 C355 1.410 . S
C356 C357 1.392 . S
C356 C359 1.511 . S
C357 C353 1.376 . S
C357 C356 1.392 . S
C357 H369 0.929 . S
C358 C354 1.531 . S
C358 H370 0.960 . S
C358 H371 0.962 . S
C358 H372 0.960 . S
C359 C356 1.511 . S
C359 H373 0.961 . S
C359 H374 0.961 . S
C359 H375 0.961 . S
C360 C361 1.370 . S
C360 C362 1.363 . S
C360 H376 0.931 . S
C361 C360 1.370 . S
C361 C365 1.408 . S
C362 C360 1.363 . S
C362 C363 1.370 . S
C362 C366 1.524 . S
C363 C355 1.503 . S
C363 C362 1.370 . S
C363 C364 1.403 . S
C364 C363 1.403 . S
C364 C365 1.404 . S
C364 C367 1.539 . S
C365 C361 1.408 . S
C365 C364 1.404 . S
C365 H377 0.930 . S
C366 C362 1.524 . S
C366 H378 0.956 . S
C366 H379 0.961 . S
C366 H380 0.961 . S
C367 C364 1.539 . S
C367 H381 0.958 . S
C367 H382 0.961 . S
C367 H383 0.960 . S
H368 C352 0.931 . S
H369 C357 0.929 . S
H370 C358 0.960 . S
H371 C358 0.962 . S
H372 C358 0.960 . S
H373 C359 0.961 . S
H374 C359 0.961 . S
H375 C359 0.961 . S
H376 C360 0.931 . S
H377 C365 0.930 . S
H378 C366 0.956 . S
H379 C366 0.961 . S
H380 C366 0.961 . S
H381 C367 0.958 . S
H382 C367 0.961 . S
H383 C367 0.960 . S
C384 C385 1.391 . S
C384 C386 1.394 . S
C384 H400 0.931 . S
C385 C384 1.391 . S
C385 C389 1.376 . S
C386 C384 1.394 . S
C386 C387 1.369 . S
C386 C390 1.531 . S
C387 C386 1.369 . S
C387 C388 1.410 . S
C387 C395 1.503 . S
C388 C387 1.410 . S
C388 C389 1.392 . S
C388 C391 1.511 . S
C389 C385 1.376 . S
C389 C388 1.392 . S
C389 H401 0.929 . S
C390 C386 1.531 . S
C390 H402 0.960 . S
C390 H403 0.962 . S
C390 H404 0.960 . S
C391 C388 1.511 . S
C391 H405 0.961 . S
C391 H406 0.961 . S
C391 H407 0.961 . S
C392 C393 1.370 . S
C392 C394 1.363 . S
C392 H408 0.931 . S
C393 C392 1.370 . S
C393 C397 1.408 . S
C394 C392 1.363 . S
C394 C395 1.370 . S
C394 C398 1.524 . S
C395 C387 1.503 . S
C395 C394 1.370 . S
C395 C396 1.403 . S
C396 C395 1.403 . S
C396 C397 1.404 . S
C396 C399 1.539 . S
C397 C393 1.408 . S
C397 C396 1.404 . S
C397 H409 0.930 . S
C398 C394 1.524 . S
C398 H410 0.956 . S
C398 H411 0.961 . S
C398 H412 0.961 . S
C399 C396 1.539 . S
C399 H413 0.958 . S
C399 H414 0.961 . S
C399 H415 0.960 . S
H400 C384 0.931 . S
H401 C389 0.929 . S
H402 C390 0.960 . S
H403 C390 0.962 . S
H404 C390 0.960 . S
H405 C391 0.961 . S
H406 C391 0.961 . S
H407 C391 0.961 . S
H408 C392 0.931 . S
H409 C397 0.930 . S
H410 C398 0.956 . S
H411 C398 0.961 . S
H412 C398 0.961 . S
H413 C399 0.958 . S
H414 C399 0.961 . S
H415 C399 0.960 . S
C416 C417 1.391 . S
C416 C418 1.394 . S
C416 H432 0.931 . S
C417 C416 1.391 . S
C417 C421 1.376 . S
C418 C416 1.394 . S
C418 C419 1.369 . S
C418 C422 1.531 . S
C419 C418 1.369 . S
C419 C420 1.410 . S
C419 C427 1.503 . S
C420 C419 1.410 . S
C420 C421 1.392 . S
C420 C423 1.511 . S
C421 C417 1.376 . S
C421 C420 1.392 . S
C421 H433 0.929 . S
C422 C418 1.531 . S
C422 H434 0.960 . S
C422 H435 0.962 . S
C422 H436 0.960 . S
C423 C420 1.511 . S
C423 H437 0.961 . S
C423 H438 0.961 . S
C423 H439 0.961 . S
C424 C425 1.370 . S
C424 C426 1.363 . S
C424 H440 0.931 . S
C425 C424 1.370 . S
C425 C429 1.408 . S
C426 C424 1.363 . S
C426 C427 1.370 . S
C426 C430 1.524 . S
C427 C419 1.503 . S
C427 C426 1.370 . S
C427 C428 1.403 . S
C428 C427 1.403 . S
C428 C429 1.404 . S
C428 C431 1.539 . S
C429 C425 1.408 . S
C429 C428 1.404 . S
C429 H441 0.930 . S
C430 C426 1.524 . S
C430 H442 0.956 . S
C430 H443 0.961 . S
C430 H444 0.961 . S
C431 C428 1.539 . S
C431 H445 0.958 . S
C431 H446 0.961 . S
C431 H447 0.960 . S
H432 C416 0.931 . S
H433 C421 0.929 . S
H434 C422 0.960 . S
H435 C422 0.962 . S
H436 C422 0.960 . S
H437 C423 0.961 . S
H438 C423 0.961 . S
H439 C423 0.961 . S
H440 C424 0.931 . S
H441 C429 0.930 . S
H442 C430 0.956 . S
H443 C430 0.961 . S
H444 C430 0.961 . S
H445 C431 0.958 . S
H446 C431 0.961 . S
H447 C431 0.960 . S
C448 C449 1.391 . S
C448 C450 1.394 . S
C448 H464 0.931 . S
C449 C448 1.391 . S
C449 C453 1.376 . S
C450 C448 1.394 . S
C450 C451 1.369 . S
C450 C454 1.531 . S
C451 C450 1.369 . S
C451 C452 1.410 . S
C451 C459 1.503 . S
C452 C451 1.410 . S
C452 C453 1.392 . S
C452 C455 1.511 . S
C453 C449 1.376 . S
C453 C452 1.392 . S
C453 H465 0.929 . S
C454 C450 1.531 . S
C454 H466 0.960 . S
C454 H467 0.962 . S
C454 H468 0.960 . S
C455 C452 1.511 . S
C455 H469 0.961 . S
C455 H470 0.961 . S
C455 H471 0.961 . S
C456 C457 1.370 . S
C456 C458 1.363 . S
C456 H472 0.931 . S
C457 C456 1.370 . S
C457 C461 1.408 . S
C458 C456 1.363 . S
C458 C459 1.370 . S
C458 C462 1.524 . S
C459 C451 1.503 . S
C459 C458 1.370 . S
C459 C460 1.403 . S
C460 C459 1.403 . S
C460 C461 1.404 . S
C460 C463 1.539 . S
C461 C457 1.408 . S
C461 C460 1.404 . S
C461 H473 0.930 . S
C462 C458 1.524 . S
C462 H474 0.956 . S
C462 H475 0.961 . S
C462 H476 0.961 . S
C463 C460 1.539 . S
C463 H477 0.958 . S
C463 H478 0.961 . S
C463 H479 0.960 . S
H464 C448 0.931 . S
H465 C453 0.929 . S
H466 C454 0.960 . S
H467 C454 0.962 . S
H468 C454 0.960 . S
H469 C455 0.961 . S
H470 C455 0.961 . S
H471 C455 0.961 . S
H472 C456 0.931 . S
H473 C461 0.930 . S
H474 C462 0.956 . S
H475 C462 0.961 . S
H476 C462 0.961 . S
H477 C463 0.958 . S
H478 C463 0.961 . S
H479 C463 0.960 . S
C480 C481 1.391 1_556 S
C480 C482 1.394 1_556 S
C480 H496 0.931 . S
C481 C480 1.391 1_554 S
C481 C485 1.376 . S
C482 C480 1.394 1_554 S
C482 C483 1.369 . S
C482 C486 1.531 1_554 S
C483 C482 1.369 . S
C483 C484 1.410 . S
C483 C491 1.503 . S
C484 C483 1.410 . S
C484 C485 1.392 . S
C484 C487 1.511 . S
C485 C481 1.376 . S
C485 C484 1.392 . S
C485 H497 0.929 . S
C486 C482 1.531 1_556 S
C486 H498 0.960 1_556 S
C486 H499 0.962 . S
C486 H500 0.960 . S
C487 C484 1.511 . S
C487 H501 0.961 . S
C487 H502 0.961 . S
C487 H503 0.961 . S
C488 C489 1.370 . S
C488 C490 1.363 . S
C488 H504 0.931 . S
C489 C488 1.370 . S
C489 C493 1.408 . S
C490 C488 1.363 . S
C490 C491 1.370 . S
C490 C494 1.524 . S
C491 C483 1.503 . S
C491 C490 1.370 . S
C491 C492 1.403 . S
C492 C491 1.403 . S
C492 C493 1.404 . S
C492 C495 1.539 . S
C493 C489 1.408 . S
C493 C492 1.404 . S
C493 H505 0.930 . S
C494 C490 1.524 . S
C494 H506 0.956 1_554 S
C494 H507 0.961 . S
C494 H508 0.961 . S
C495 C492 1.539 . S
C495 H509 0.958 . S
C495 H510 0.961 . S
C495 H511 0.960 . S
H496 C480 0.931 . S
H497 C485 0.929 . S
H498 C486 0.960 1_554 S
H499 C486 0.962 . S
H500 C486 0.960 . S
H501 C487 0.961 . S
H502 C487 0.961 . S
H503 C487 0.961 . S
H504 C488 0.931 . S
H505 C493 0.930 . S
H506 C494 0.956 1_556 S
H507 C494 0.961 . S
H508 C494 0.961 . S
H509 C495 0.958 . S
H510 C495 0.961 . S
H511 C495 0.960 . S
C512 C513 1.391 . S
C512 C514 1.394 . S
C512 H528 0.931 . S
C513 C512 1.391 . S
C513 C517 1.376 . S
C514 C512 1.394 . S
C514 C515 1.369 . S
C514 C518 1.531 . S
C515 C514 1.369 . S
C515 C516 1.410 . S
C515 C523 1.503 . S
C516 C515 1.410 . S
C516 C517 1.392 . S
C516 C519 1.511 . S
C517 C513 1.376 . S
C517 C516 1.392 . S
C517 H529 0.929 . S
C518 C514 1.531 . S
C518 H530 0.960 . S
C518 H531 0.962 . S
C518 H532 0.960 . S
C519 C516 1.511 . S
C519 H533 0.961 . S
C519 H534 0.961 . S
C519 H535 0.961 . S
C520 C521 1.370 . S
C520 C522 1.363 . S
C520 H536 0.931 . S
C521 C520 1.370 . S
C521 C525 1.408 . S
C522 C520 1.363 . S
C522 C523 1.370 . S
C522 C526 1.524 . S
C523 C515 1.503 . S
C523 C522 1.370 . S
C523 C524 1.403 . S
C524 C523 1.403 . S
C524 C525 1.404 . S
C524 C527 1.539 . S
C525 C521 1.408 . S
C525 C524 1.404 . S
C525 H537 0.930 . S
C526 C522 1.524 . S
C526 H538 0.956 . S
C526 H539 0.961 . S
C526 H540 0.961 . S
C527 C524 1.539 . S
C527 H541 0.958 . S
C527 H542 0.961 . S
C527 H543 0.960 . S
H528 C512 0.931 . S
H529 C517 0.929 . S
H530 C518 0.960 . S
H531 C518 0.962 . S
H532 C518 0.960 . S
H533 C519 0.961 . S
H534 C519 0.961 . S
H535 C519 0.961 . S
H536 C520 0.931 . S
H537 C525 0.930 . S
H538 C526 0.956 . S
H539 C526 0.961 . S
H540 C526 0.961 . S
H541 C527 0.958 . S
H542 C527 0.961 . S
H543 C527 0.960 . S
C544 C545 1.391 . S
C544 C546 1.394 . S
C544 H560 0.931 . S
C545 C544 1.391 . S
C545 C549 1.376 . S
C546 C544 1.394 . S
C546 C547 1.369 . S
C546 C550 1.531 . S
C547 C546 1.369 . S
C547 C548 1.410 . S
C547 C555 1.503 . S
C548 C547 1.410 . S
C548 C549 1.392 . S
C548 C551 1.511 . S
C549 C545 1.376 . S
C549 C548 1.392 . S
C549 H561 0.929 . S
C550 C546 1.531 . S
C550 H562 0.960 . S
C550 H563 0.962 . S
C550 H564 0.960 . S
C551 C548 1.511 . S
C551 H565 0.961 . S
C551 H566 0.961 . S
C551 H567 0.961 . S
C552 C553 1.370 . S
C552 C554 1.363 . S
C552 H568 0.931 . S
C553 C552 1.370 . S
C553 C557 1.408 . S
C554 C552 1.363 . S
C554 C555 1.370 . S
C554 C558 1.524 . S
C555 C547 1.503 . S
C555 C554 1.370 . S
C555 C556 1.403 . S
C556 C555 1.403 . S
C556 C557 1.404 . S
C556 C559 1.539 . S
C557 C553 1.408 . S
C557 C556 1.404 . S
C557 H569 0.930 . S
C558 C554 1.524 . S
C558 H570 0.956 . S
C558 H571 0.961 . S
C558 H572 0.961 . S
C559 C556 1.539 . S
C559 H573 0.958 . S
C559 H574 0.961 . S
C559 H575 0.960 . S
H560 C544 0.931 . S
H561 C549 0.929 . S
H562 C550 0.960 . S
H563 C550 0.962 . S
H564 C550 0.960 . S
H565 C551 0.961 . S
H566 C551 0.961 . S
H567 C551 0.961 . S
H568 C552 0.931 . S
H569 C557 0.930 . S
H570 C558 0.956 . S
H571 C558 0.961 . S
H572 C558 0.961 . S
H573 C559 0.958 . S
H574 C559 0.961 . S
H575 C559 0.960 . S
C576 C577 1.391 . S
C576 C578 1.394 . S
C576 H592 0.931 . S
C577 C576 1.391 . S
C577 C581 1.376 . S
C578 C576 1.394 . S
C578 C579 1.369 . S
C578 C582 1.531 . S
C579 C578 1.369 . S
C579 C580 1.410 . S
C579 C587 1.503 . S
C580 C579 1.410 . S
C580 C581 1.392 . S
C580 C583 1.511 . S
C581 C577 1.376 . S
C581 C580 1.392 . S
C581 H593 0.929 . S
C582 C578 1.531 . S
C582 H594 0.960 . S
C582 H595 0.962 . S
C582 H596 0.960 . S
C583 C580 1.511 . S
C583 H597 0.961 . S
C583 H598 0.961 . S
C583 H599 0.961 . S
C584 C585 1.370 . S
C584 C586 1.363 . S
C584 H600 0.931 . S
C585 C584 1.370 . S
C585 C589 1.408 . S
C586 C584 1.363 . S
C586 C587 1.370 . S
C586 C590 1.524 . S
C587 C579 1.503 . S
C587 C586 1.370 . S
C587 C588 1.403 . S
C588 C587 1.403 . S
C588 C589 1.404 . S
C588 C591 1.539 . S
C589 C585 1.408 . S
C589 C588 1.404 . S
C589 H601 0.930 . S
C590 C586 1.524 . S
C590 H602 0.956 . S
C590 H603 0.961 . S
C590 H604 0.961 . S
C591 C588 1.539 . S
C591 H605 0.958 . S
C591 H606 0.961 . S
C591 H607 0.960 . S
H592 C576 0.931 . S
H593 C581 0.929 . S
H594 C582 0.960 . S
H595 C582 0.962 . S
H596 C582 0.960 . S
H597 C583 0.961 . S
H598 C583 0.961 . S
H599 C583 0.961 . S
H600 C584 0.931 . S
H601 C589 0.930 . S
H602 C590 0.956 . S
H603 C590 0.961 . S
H604 C590 0.961 . S
H605 C591 0.958 . S
H606 C591 0.961 . S
H607 C591 0.960 . S
C608 C609 1.391 . S
C608 C610 1.394 . S
C608 H624 0.931 . S
C609 C608 1.391 . S
C609 C613 1.376 . S
C610 C608 1.394 . S
C610 C611 1.369 . S
C610 C614 1.531 . S
C611 C610 1.369 . S
C611 C612 1.410 . S
C611 C619 1.503 . S
C612 C611 1.410 . S
C612 C613 1.392 . S
C612 C615 1.511 . S
C613 C609 1.376 . S
C613 C612 1.392 . S
C613 H625 0.929 . S
C614 C610 1.531 . S
C614 H626 0.960 . S
C614 H627 0.962 . S
C614 H628 0.960 . S
C615 C612 1.511 . S
C615 H629 0.961 . S
C615 H630 0.961 . S
C615 H631 0.961 . S
C616 C617 1.370 . S
C616 C618 1.363 . S
C616 H632 0.931 . S
C617 C616 1.370 . S
C617 C621 1.408 . S
C618 C616 1.363 . S
C618 C619 1.370 . S
C618 C622 1.524 . S
C619 C611 1.503 . S
C619 C618 1.370 . S
C619 C620 1.403 . S
C620 C619 1.403 . S
C620 C621 1.404 . S
C620 C623 1.539 . S
C621 C617 1.408 . S
C621 C620 1.404 . S
C621 H633 0.930 . S
C622 C618 1.524 . S
C622 H634 0.956 . S
C622 H635 0.961 . S
C622 H636 0.961 . S
C623 C620 1.539 . S
C623 H637 0.958 . S
C623 H638 0.961 . S
C623 H639 0.960 . S
H624 C608 0.931 . S
H625 C613 0.929 . S
H626 C614 0.960 . S
H627 C614 0.962 . S
H628 C614 0.960 . S
H629 C615 0.961 . S
H630 C615 0.961 . S
H631 C615 0.961 . S
H632 C616 0.931 . S
H633 C621 0.930 . S
H634 C622 0.956 . S
H635 C622 0.961 . S
H636 C622 0.961 . S
H637 C623 0.958 . S
H638 C623 0.961 . S
H639 C623 0.960 . S
C640 C641 1.391 . S
C640 C642 1.394 . S
C640 H656 0.931 . S
C641 C640 1.391 . S
C641 C645 1.376 . S
C642 C640 1.394 . S
C642 C643 1.369 . S
C642 C646 1.531 . S
C643 C642 1.369 . S
C643 C644 1.410 . S
C643 C651 1.503 . S
C644 C643 1.410 . S
C644 C645 1.392 . S
C644 C647 1.511 . S
C645 C641 1.376 . S
C645 C644 1.392 . S
C645 H657 0.929 . S
C646 C642 1.531 . S
C646 H658 0.960 . S
C646 H659 0.962 . S
C646 H660 0.960 . S
C647 C644 1.511 . S
C647 H661 0.961 . S
C647 H662 0.961 . S
C647 H663 0.961 . S
C648 C649 1.370 . S
C648 C650 1.363 . S
C648 H664 0.931 . S
C649 C648 1.370 . S
C649 C653 1.408 . S
C650 C648 1.363 . S
C650 C651 1.370 . S
C650 C654 1.524 . S
C651 C643 1.503 . S
C651 C650 1.370 . S
C651 C652 1.403 . S
C652 C651 1.403 . S
C652 C653 1.404 . S
C652 C655 1.539 . S
C653 C649 1.408 . S
C653 C652 1.404 . S
C653 H665 0.930 . S
C654 C650 1.524 . S
C654 H666 0.956 . S
C654 H667 0.961 . S
C654 H668 0.961 . S
C655 C652 1.539 . S
C655 H669 0.958 . S
C655 H670 0.961 . S
C655 H671 0.960 . S
H656 C640 0.931 . S
H657 C645 0.929 . S
H658 C646 0.960 . S
H659 C646 0.962 . S
H660 C646 0.960 . S
H661 C647 0.961 . S
H662 C647 0.961 . S
H663 C647 0.961 . S
H664 C648 0.931 . S
H665 C653 0.930 . S
H666 C654 0.956 . S
H667 C654 0.961 . S
H668 C654 0.961 . S
H669 C655 0.958 . S
H670 C655 0.961 . S
H671 C655 0.960 . S
C672 C673 1.391 . S
C672 C674 1.394 . S
C672 H688 0.931 . S
C673 C672 1.391 . S
C673 C677 1.376 . S
C674 C672 1.394 . S
C674 C675 1.369 . S
C674 C678 1.531 . S
C675 C674 1.369 . S
C675 C676 1.410 . S
C675 C683 1.503 . S
C676 C675 1.410 . S
C676 C677 1.392 . S
C676 C679 1.511 . S
C677 C673 1.376 . S
C677 C676 1.392 . S
C677 H689 0.929 . S
C678 C674 1.531 . S
C678 H690 0.960 . S
C678 H691 0.962 . S
C678 H692 0.960 . S
C679 C676 1.511 . S
C679 H693 0.961 . S
C679 H694 0.961 . S
C679 H695 0.961 . S
C680 C681 1.370 . S
C680 C682 1.363 1_554 S
C680 H696 0.931 . S
C681 C680 1.370 . S
C681 C685 1.408 1_554 S
C682 C680 1.363 1_556 S
C682 C683 1.370 . S
C682 C686 1.524 . S
C683 C675 1.503 . S
C683 C682 1.370 . S
C683 C684 1.403 . S
C684 C683 1.403 . S
C684 C685 1.404 . S
C684 C687 1.539 . S
C685 C681 1.408 1_556 S
C685 C684 1.404 . S
C685 H697 0.930 . S
C686 C682 1.524 . S
C686 H698 0.956 . S
C686 H699 0.961 . S
C686 H700 0.961 1_556 S
C687 C684 1.539 . S
C687 H701 0.958 . S
C687 H702 0.961 . S
C687 H703 0.960 . S
H688 C672 0.931 . S
H689 C677 0.929 . S
H690 C678 0.960 . S
H691 C678 0.962 . S
H692 C678 0.960 . S
H693 C679 0.961 . S
H694 C679 0.961 . S
H695 C679 0.961 . S
H696 C680 0.931 . S
H697 C685 0.930 . S
H698 C686 0.956 . S
H699 C686 0.961 . S
H700 C686 0.961 1_554 S
H701 C687 0.958 . S
H702 C687 0.961 . S
H703 C687 0.960 . S
C704 C705 1.391 . S
C704 C706 1.394 . S
C704 H720 0.931 . S
C705 C704 1.391 . S
C705 C709 1.376 . S
C706 C704 1.394 . S
C706 C707 1.369 . S
C706 C710 1.531 . S
C707 C706 1.369 . S
C707 C708 1.410 . S
C707 C715 1.503 . S
C708 C707 1.410 . S
C708 C709 1.392 . S
C708 C711 1.511 . S
C709 C705 1.376 . S
C709 C708 1.392 . S
C709 H721 0.929 . S
C710 C706 1.531 . S
C710 H722 0.960 . S
C710 H723 0.962 . S
C710 H724 0.960 . S
C711 C708 1.511 . S
C711 H725 0.961 . S
C711 H726 0.961 . S
C711 H727 0.961 . S
C712 C713 1.370 . S
C712 C714 1.363 . S
C712 H728 0.931 . S
C713 C712 1.370 . S
C713 C717 1.408 . S
C714 C712 1.363 . S
C714 C715 1.370 . S
C714 C718 1.524 . S
C715 C707 1.503 . S
C715 C714 1.370 . S
C715 C716 1.403 . S
C716 C715 1.403 . S
C716 C717 1.404 . S
C716 C719 1.539 . S
C717 C713 1.408 . S
C717 C716 1.404 . S
C717 H729 0.930 . S
C718 C714 1.524 . S
C718 H730 0.956 . S
C718 H731 0.961 . S
C718 H732 0.961 . S
C719 C716 1.539 . S
C719 H733 0.958 . S
C719 H734 0.961 . S
C719 H735 0.960 . S
H720 C704 0.931 . S
H721 C709 0.929 . S
H722 C710 0.960 . S
H723 C710 0.962 . S
H724 C710 0.960 . S
H725 C711 0.961 . S
H726 C711 0.961 . S
H727 C711 0.961 . S
H728 C712 0.931 . S
H729 C717 0.930 . S
H730 C718 0.956 . S
H731 C718 0.961 . S
H732 C718 0.961 . S
H733 C719 0.958 . S
H734 C719 0.961 . S
H735 C719 0.960 . S
C736 C737 1.391 . S
C736 C738 1.394 . S
C736 H752 0.931 . S
C737 C736 1.391 . S
C737 C741 1.376 . S
C738 C736 1.394 . S
C738 C739 1.369 . S
C738 C742 1.531 . S
C739 C738 1.369 . S
C739 C740 1.410 . S
C739 C747 1.503 . S
C740 C739 1.410 . S
C740 C741 1.392 . S
C740 C743 1.511 . S
C741 C737 1.376 . S
C741 C740 1.392 . S
C741 H753 0.929 . S
C742 C738 1.531 . S
C742 H754 0.960 . S
C742 H755 0.962 . S
C742 H756 0.960 . S
C743 C740 1.511 . S
C743 H757 0.961 . S
C743 H758 0.961 . S
C743 H759 0.961 . S
C744 C745 1.370 . S
C744 C746 1.363 . S
C744 H760 0.931 . S
C745 C744 1.370 . S
C745 C749 1.408 . S
C746 C744 1.363 . S
C746 C747 1.370 . S
C746 C750 1.524 . S
C747 C739 1.503 . S
C747 C746 1.370 . S
C747 C748 1.403 . S
C748 C747 1.403 . S
C748 C749 1.404 . S
C748 C751 1.539 . S
C749 C745 1.408 . S
C749 C748 1.404 . S
C749 H761 0.930 . S
C750 C746 1.524 . S
C750 H762 0.956 . S
C750 H763 0.961 . S
C750 H764 0.961 . S
C751 C748 1.539 . S
C751 H765 0.958 . S
C751 H766 0.961 . S
C751 H767 0.960 . S
H752 C736 0.931 . S
H753 C741 0.929 . S
H754 C742 0.960 . S
H755 C742 0.962 . S
H756 C742 0.960 . S
H757 C743 0.961 . S
H758 C743 0.961 . S
H759 C743 0.961 . S
H760 C744 0.931 . S
H761 C749 0.930 . S
H762 C750 0.956 . S
H763 C750 0.961 . S
H764 C750 0.961 . S
H765 C751 0.958 . S
H766 C751 0.961 . S
H767 C751 0.960 . S
C768 C769 1.391 . S
C768 C770 1.394 . S
C768 H784 0.931 . S
C769 C768 1.391 . S
C769 C773 1.376 . S
C770 C768 1.394 . S
C770 C771 1.369 . S
C770 C774 1.531 . S
C771 C770 1.369 . S
C771 C772 1.410 . S
C771 C779 1.503 . S
C772 C771 1.410 . S
C772 C773 1.392 . S
C772 C775 1.511 . S
C773 C769 1.376 . S
C773 C772 1.392 . S
C773 H785 0.929 . S
C774 C770 1.531 . S
C774 H786 0.960 . S
C774 H787 0.962 . S
C774 H788 0.960 . S
C775 C772 1.511 . S
C775 H789 0.961 . S
C775 H790 0.961 . S
C775 H791 0.961 . S
C776 C777 1.370 . S
C776 C778 1.363 . S
C776 H792 0.931 . S
C777 C776 1.370 . S
C777 C781 1.408 . S
C778 C776 1.363 . S
C778 C779 1.370 . S
C778 C782 1.524 . S
C779 C771 1.503 . S
C779 C778 1.370 . S
C779 C780 1.403 . S
C780 C779 1.403 . S
C780 C781 1.404 . S
C780 C783 1.539 . S
C781 C777 1.408 . S
C781 C780 1.404 . S
C781 H793 0.930 . S
C782 C778 1.524 . S
C782 H794 0.956 . S
C782 H795 0.961 . S
C782 H796 0.961 . S
C783 C780 1.539 . S
C783 H797 0.958 . S
C783 H798 0.961 . S
C783 H799 0.960 . S
H784 C768 0.931 . S
H785 C773 0.929 . S
H786 C774 0.960 . S
H787 C774 0.962 . S
H788 C774 0.960 . S
H789 C775 0.961 . S
H790 C775 0.961 . S
H791 C775 0.961 . S
H792 C776 0.931 . S
H793 C781 0.930 . S
H794 C782 0.956 . S
H795 C782 0.961 . S
H796 C782 0.961 . S
H797 C783 0.958 . S
H798 C783 0.961 . S
H799 C783 0.960 . S
C800 C801 1.391 . S
C800 C802 1.394 . S
C800 H816 0.931 . S
C801 C800 1.391 . S
C801 C805 1.376 . S
C802 C800 1.394 . S
C802 C803 1.369 . S
C802 C806 1.531 . S
C803 C802 1.369 . S
C803 C804 1.410 . S
C803 C811 1.503 . S
C804 C803 1.410 . S
C804 C805 1.392 . S
C804 C807 1.511 . S
C805 C801 1.376 . S
C805 C804 1.392 . S
C805 H817 0.929 . S
C806 C802 1.531 . S
C806 H818 0.960 . S
C806 H819 0.962 . S
C806 H820 0.960 . S
C807 C804 1.511 . S
C807 H821 0.961 . S
C807 H822 0.961 . S
C807 H823 0.961 . S
C808 C809 1.370 . S
C808 C810 1.363 . S
C808 H824 0.931 . S
C809 C808 1.370 . S
C809 C813 1.408 . S
C810 C808 1.363 . S
C810 C811 1.370 . S
C810 C814 1.524 . S
C811 C803 1.503 . S
C811 C810 1.370 . S
C811 C812 1.403 . S
C812 C811 1.403 . S
C812 C813 1.404 . S
C812 C815 1.539 . S
C813 C809 1.408 . S
C813 C812 1.404 . S
C813 H825 0.930 . S
C814 C810 1.524 . S
C814 H826 0.956 . S
C814 H827 0.961 . S
C814 H828 0.961 . S
C815 C812 1.539 . S
C815 H829 0.958 . S
C815 H830 0.961 . S
C815 H831 0.960 . S
H816 C800 0.931 . S
H817 C805 0.929 . S
H818 C806 0.960 . S
H819 C806 0.962 . S
H820 C806 0.960 . S
H821 C807 0.961 . S
H822 C807 0.961 . S
H823 C807 0.961 . S
H824 C808 0.931 . S
H825 C813 0.930 . S
H826 C814 0.956 . S
H827 C814 0.961 . S
H828 C814 0.961 . S
H829 C815 0.958 . S
H830 C815 0.961 . S
H831 C815 0.960 . S
C832 C833 1.391 . S
C832 C834 1.394 . S
C832 H848 0.931 . S
C833 C832 1.391 . S
C833 C837 1.376 . S
C834 C832 1.394 . S
C834 C835 1.369 . S
C834 C838 1.531 . S
C835 C834 1.369 . S
C835 C836 1.410 . S
C835 C843 1.503 . S
C836 C835 1.410 . S
C836 C837 1.392 . S
C836 C839 1.511 . S
C837 C833 1.376 . S
C837 C836 1.392 . S
C837 H849 0.929 . S
C838 C834 1.531 . S
C838 H850 0.960 . S
C838 H851 0.962 . S
C838 H852 0.960 . S
C839 C836 1.511 . S
C839 H853 0.961 . S
C839 H854 0.961 . S
C839 H855 0.961 . S
C840 C841 1.370 . S
C840 C842 1.363 . S
C840 H856 0.931 . S
C841 C840 1.370 . S
C841 C845 1.408 . S
C842 C840 1.363 . S
C842 C843 1.370 . S
C842 C846 1.524 . S
C843 C835 1.503 . S
C843 C842 1.370 . S
C843 C844 1.403 . S
C844 C843 1.403 . S
C844 C845 1.404 . S
C844 C847 1.539 . S
C845 C841 1.408 . S
C845 C844 1.404 . S
C845 H857 0.930 . S
C846 C842 1.524 . S
C846 H858 0.956 . S
C846 H859 0.961 . S
C846 H860 0.961 . S
C847 C844 1.539 . S
C847 H861 0.958 . S
C847 H862 0.961 . S
C847 H863 0.960 . S
H848 C832 0.931 . S
H849 C837 0.929 . S
H850 C838 0.960 . S
H851 C838 0.962 . S
H852 C838 0.960 . S
H853 C839 0.961 . S
H854 C839 0.961 . S
H855 C839 0.961 . S
H856 C840 0.931 . S
H857 C845 0.930 . S
H858 C846 0.956 . S
H859 C846 0.961 . S
H860 C846 0.961 . S
H861 C847 0.958 . S
H862 C847 0.961 . S
H863 C847 0.960 . S
C864 C865 1.391 . S
C864 C866 1.394 . S
C864 H880 0.931 . S
C865 C864 1.391 . S
C865 C869 1.376 . S
C866 C864 1.394 . S
C866 C867 1.369 . S
C866 C870 1.531 . S
C867 C866 1.369 . S
C867 C868 1.410 . S
C867 C875 1.503 . S
C868 C867 1.410 . S
C868 C869 1.392 . S
C868 C871 1.511 . S
C869 C865 1.376 . S
C869 C868 1.392 . S
C869 H881 0.929 . S
C870 C866 1.531 . S
C870 H882 0.960 . S
C870 H883 0.962 . S
C870 H884 0.960 . S
C871 C868 1.511 . S
C871 H885 0.961 . S
C871 H886 0.961 . S
C871 H887 0.961 . S
C872 C873 1.370 . S
C872 C874 1.363 . S
C872 H888 0.931 . S
C873 C872 1.370 . S
C873 C877 1.408 . S
C874 C872 1.363 . S
C874 C875 1.370 . S
C874 C878 1.524 . S
C875 C867 1.503 . S
C875 C874 1.370 . S
C875 C876 1.403 . S
C876 C875 1.403 . S
C876 C877 1.404 . S
C876 C879 1.539 . S
C877 C873 1.408 . S
C877 C876 1.404 . S
C877 H889 0.930 . S
C878 C874 1.524 . S
C878 H890 0.956 . S
C878 H891 0.961 . S
C878 H892 0.961 . S
C879 C876 1.539 . S
C879 H893 0.958 . S
C879 H894 0.961 . S
C879 H895 0.960 . S
H880 C864 0.931 . S
H881 C869 0.929 . S
H882 C870 0.960 . S
H883 C870 0.962 . S
H884 C870 0.960 . S
H885 C871 0.961 . S
H886 C871 0.961 . S
H887 C871 0.961 . S
H888 C872 0.931 . S
H889 C877 0.930 . S
H890 C878 0.956 . S
H891 C878 0.961 . S
H892 C878 0.961 . S
H893 C879 0.958 . S
H894 C879 0.961 . S
H895 C879 0.960 . S
C896 C897 1.391 . S
C896 C898 1.394 . S
C896 H912 0.931 . S
C897 C896 1.391 . S
C897 C901 1.376 . S
C898 C896 1.394 . S
C898 C899 1.369 . S
C898 C902 1.531 . S
C899 C898 1.369 . S
C899 C900 1.410 . S
C899 C907 1.503 . S
C900 C899 1.410 . S
C900 C901 1.392 . S
C900 C903 1.511 . S
C901 C897 1.376 . S
C901 C900 1.392 . S
C901 H913 0.929 . S
C902 C898 1.531 . S
C902 H914 0.928 1_554 S
C902 H915 0.962 . S
C902 H916 0.960 . S
C903 C900 1.511 . S
C903 H917 0.961 . S
C903 H918 0.961 . S
C903 H919 0.961 . S
C904 C905 1.370 1_554 S
C904 C906 1.363 . S
C904 H920 0.931 . S
C905 C904 1.370 1_556 S
C905 C909 1.408 . S
C906 C904 1.363 . S
C906 C907 1.370 . S
C906 C910 1.524 . S
C907 C899 1.503 . S
C907 C906 1.370 . S
C907 C908 1.403 1_554 S
C908 C907 1.403 1_556 S
C908 C909 1.404 . S
C908 C911 1.539 . S
C909 C905 1.408 . S
C909 C908 1.404 . S
C909 H921 0.930 . S
C910 C906 1.524 . S
C910 H922 0.956 . S
C910 H923 0.961 . S
C910 H924 0.961 . S
C911 C908 1.539 . S
C911 H925 0.958 . S
C911 H926 0.961 . S
C911 H927 0.960 1_556 S
H912 C896 0.931 . S
H913 C901 0.929 . S
H914 C902 0.928 1_556 S
H915 C902 0.962 . S
H916 C902 0.960 . S
H917 C903 0.961 . S
H918 C903 0.961 . S
H919 C903 0.961 . S
H920 C904 0.931 . S
H921 C909 0.930 . S
H922 C910 0.956 . S
H923 C910 0.961 . S
H924 C910 0.961 . S
H925 C911 0.958 . S
H926 C911 0.961 . S
H927 C911 0.960 1_554 S
C928 C929 1.391 . S
C928 C930 1.394 . S
C928 H944 0.931 . S
C929 C928 1.391 . S
C929 C933 1.376 . S
C930 C928 1.394 . S
C930 C931 1.369 . S
C930 C934 1.531 . S
C931 C930 1.369 . S
C931 C932 1.410 . S
C931 C939 1.503 . S
C932 C931 1.410 . S
C932 C933 1.392 . S
C932 C935 1.511 . S
C933 C929 1.376 . S
C933 C932 1.392 . S
C933 H945 0.929 . S
C934 C930 1.531 . S
C934 H946 0.960 . S
C934 H947 0.962 . S
C934 H948 0.960 . S
C935 C932 1.511 . S
C935 H949 0.961 . S
C935 H950 0.961 . S
C935 H951 0.961 . S
C936 C937 1.370 . S
C936 C938 1.363 . S
C936 H952 0.931 . S
C937 C936 1.370 . S
C937 C941 1.408 . S
C938 C936 1.363 . S
C938 C939 1.370 . S
C938 C942 1.524 . S
C939 C931 1.503 . S
C939 C938 1.370 . S
C939 C940 1.403 . S
C940 C939 1.403 . S
C940 C941 1.404 . S
C940 C943 1.539 . S
C941 C937 1.408 . S
C941 C940 1.404 . S
C941 H953 0.930 . S
C942 C938 1.524 . S
C942 H954 0.956 . S
C942 H955 0.961 . S
C942 H956 0.961 . S
C943 C940 1.539 . S
C943 H957 0.958 . S
C943 H958 0.961 . S
C943 H959 0.960 . S
H944 C928 0.931 . S
H945 C933 0.929 . S
H946 C934 0.960 . S
H947 C934 0.962 . S
H948 C934 0.960 . S
H949 C935 0.961 . S
H950 C935 0.961 . S
H951 C935 0.961 . S
H952 C936 0.931 . S
H953 C941 0.930 . S
H954 C942 0.956 . S
H955 C942 0.961 . S
H956 C942 0.961 . S
H957 C943 0.958 . S
H958 C943 0.961 . S
H959 C943 0.960 . S
C201 C185 1.556 . S
C193 C8 1.533 . S
C225 C26 1.449 . S
C233 C119 1.471 . S
C257 C50 1.375 . S
C265 C133 1.400 . S
C289 C68 1.384 . S
C297 C147 1.451 . S
C329 C161 1.467 . S
C321 C80 1.468 . S
C353 C104 1.459 . S
C361 C171 1.511 . S
C385 C32 1.523 . S
C393 C129 1.561 . S
C417 C44 1.588 . S
C425 C143 1.614 . S
C449 C62 1.472 . S
C457 C157 1.548 . S
C489 C175 1.453 . S
C481 C86 1.448 1_554 S
C521 C189 1.505 . S
C513 C98 1.490 . S
C553 C115 1.546 . S
C545 C14 1.482 . S
C577 C7 1.480 . S
C585 C130 1.457 . S
C609 C25 1.548 . S
C617 C144 1.525 . S
C649 C158 1.513 . S
C641 C52 1.553 . S
C673 C70 1.411 . S
C681 C177 1.434 . S
C713 C191 1.398 . S
C705 C79 1.441 . S
C745 C116 1.450 . S
C737 C106 1.444 . S
C777 C186 1.449 . S
C769 C34 1.426 . S
C801 C43 1.355 . S
C809 C121 1.346 . S
C841 C135 1.353 . S
C833 C61 1.376 . S
C865 C88 1.398 . S
C873 C149 1.421 . S
C897 C97 1.460 . S
C905 C163 1.400 . S
C929 C16 1.456 . S
C937 C172 1.454 . S
