# Generated by pormake.
# Topology sqc, (4,8)-cn, num edge types: 1
# Building blocks:
#     Node 0, Type 0, BuildingBlock: KUFVIS_clean_linker_0, # of connection points: 4
#     Node 1, Type 0, BuildingBlock: KUFVIS_clean_linker_0, # of connection points: 4
#     Node 2, Type 0, BuildingBlock: KUFVIS_clean_linker_0, # of connection points: 4
#     Node 3, Type 0, BuildingBlock: KUFVIS_clean_linker_0, # of connection points: 4
#     Node 4, Type 0, BuildingBlock: KUFVIS_clean_linker_0, # of connection points: 4
#     Node 5, Type 0, BuildingBlock: KUFVIS_clean_linker_0, # of connection points: 4
#     Node 6, Type 0, BuildingBlock: KUFVIS_clean_linker_0, # of connection points: 4
#     Node 7, Type 0, BuildingBlock: KUFVIS_clean_linker_0, # of connection points: 4
#     Node 8, Type 1, BuildingBlock: VETTIZ_charged_sbu_0, # of connection points: 8
#     Node 9, Type 1, BuildingBlock: VETTIZ_charged_sbu_0, # of connection points: 8
#     Node 10, Type 1, BuildingBlock: VETTIZ_charged_sbu_0, # of connection points: 8
#     Node 11, Type 1, BuildingBlock: VETTIZ_charged_sbu_0, # of connection points: 8
#     Edge 12, Type (0, 1), BuildingBlock: TEMPAE_clean_linker_10, # of connection points: 2
#     Edge 13, Type (0, 1), BuildingBlock: TEMPAE_clean_linker_10, # of connection points: 2
#     Edge 14, Type (0, 1), BuildingBlock: TEMPAE_clean_linker_10, # of connection points: 2
#     Edge 15, Type (0, 1), BuildingBlock: TEMPAE_clean_linker_10, # of connection points: 2
#     Edge 16, Type (0, 1), BuildingBlock: TEMPAE_clean_linker_10, # of connection points: 2
#     Edge 17, Type (0, 1), BuildingBlock: TEMPAE_clean_linker_10, # of connection points: 2
#     Edge 18, Type (0, 1), BuildingBlock: TEMPAE_clean_linker_10, # of connection points: 2
#     Edge 19, Type (0, 1), BuildingBlock: TEMPAE_clean_linker_10, # of connection points: 2
#     Edge 20, Type (0, 1), BuildingBlock: TEMPAE_clean_linker_10, # of connection points: 2
#     Edge 21, Type (0, 1), BuildingBlock: TEMPAE_clean_linker_10, # of connection points: 2
#     Edge 22, Type (0, 1), BuildingBlock: TEMPAE_clean_linker_10, # of connection points: 2
#     Edge 23, Type (0, 1), BuildingBlock: TEMPAE_clean_linker_10, # of connection points: 2
#     Edge 24, Type (0, 1), BuildingBlock: TEMPAE_clean_linker_10, # of connection points: 2
#     Edge 25, Type (0, 1), BuildingBlock: TEMPAE_clean_linker_10, # of connection points: 2
#     Edge 26, Type (0, 1), BuildingBlock: TEMPAE_clean_linker_10, # of connection points: 2
#     Edge 27, Type (0, 1), BuildingBlock: TEMPAE_clean_linker_10, # of connection points: 2
#     Edge 28, Type (0, 1), BuildingBlock: TEMPAE_clean_linker_10, # of connection points: 2
#     Edge 29, Type (0, 1), BuildingBlock: TEMPAE_clean_linker_10, # of connection points: 2
#     Edge 30, Type (0, 1), BuildingBlock: TEMPAE_clean_linker_10, # of connection points: 2
#     Edge 31, Type (0, 1), BuildingBlock: TEMPAE_clean_linker_10, # of connection points: 2
#     Edge 32, Type (0, 1), BuildingBlock: TEMPAE_clean_linker_10, # of connection points: 2
#     Edge 33, Type (0, 1), BuildingBlock: TEMPAE_clean_linker_10, # of connection points: 2
#     Edge 34, Type (0, 1), BuildingBlock: TEMPAE_clean_linker_10, # of connection points: 2
#     Edge 35, Type (0, 1), BuildingBlock: TEMPAE_clean_linker_10, # of connection points: 2
#     Edge 36, Type (0, 1), BuildingBlock: TEMPAE_clean_linker_10, # of connection points: 2
#     Edge 37, Type (0, 1), BuildingBlock: TEMPAE_clean_linker_10, # of connection points: 2
#     Edge 38, Type (0, 1), BuildingBlock: TEMPAE_clean_linker_10, # of connection points: 2
#     Edge 39, Type (0, 1), BuildingBlock: TEMPAE_clean_linker_10, # of connection points: 2
#     Edge 40, Type (0, 1), BuildingBlock: TEMPAE_clean_linker_10, # of connection points: 2
#     Edge 41, Type (0, 1), BuildingBlock: TEMPAE_clean_linker_10, # of connection points: 2
#     Edge 42, Type (0, 1), BuildingBlock: TEMPAE_clean_linker_10, # of connection points: 2
#     Edge 43, Type (0, 1), BuildingBlock: TEMPAE_clean_linker_10, # of connection points: 2
# Relax obj value: 0.164
# Max RMSD: 0.278
# Mean RMSD: 0.218
data_MOF--net-sqc--node1-VETTIZ_charged_sbu_0--node2-KUFVIS_clean_linker_0--edge1-TEMPAE_clean_linker_10
_symmetry_space_group_name_H-M    P1
_symmetry_Int_Tables_number       1
_symmetry_cell_setting            triclinic
loop_
_symmetry_equiv_pos_as_xyz
'x, y, z'
_cell_length_a     24.748276
_cell_length_b     24.666483
_cell_length_c     69.058979
_cell_angle_alpha  89.634074
_cell_angle_beta   90.142622
_cell_angle_gamma 88.88063
loop_
_atom_site_label
_atom_site_type_symbol
_atom_site_fract_x
_atom_site_fract_y
_atom_site_fract_z
_atom_type_partial_charge
H0 H 0.82603 0.04124 0.4909 0.0
H1 H 0.97338 0.10601 0.51152 0.0
H2 H 0.97473 0.9946 0.46312 0.0
H3 H 0.05126 0.03768 0.45547 0.0
H4 H 0.19824 0.08097 0.48401 0.0
H5 H 0.05323 0.07234 0.51695 0.0
C6 C 0.86956 0.04439 0.48959 0.0
C7 C 0.89701 0.01614 0.47497 0.0
C8 C 0.89757 0.07507 0.50301 0.0
C9 C 0.95354 0.07929 0.50152 0.0
C10 C 0.98295 0.0505 0.48722 0.0
C11 C 0.95384 0.0181 0.47406 0.0
C12 C 0.04335 0.05551 0.48622 0.0
C13 C 0.07198 0.04884 0.46862 0.0
C14 C 0.12793 0.05793 0.46781 0.0
C15 C 0.15498 0.07472 0.48449 0.0
C16 C 0.12785 0.08103 0.50204 0.0
C17 C 0.07282 0.06942 0.50301 0.0
H18 H 0.29393 0.95337 0.74968 0.0
H19 H 0.18835 0.82255 0.76409 0.0
H20 H 0.30699 0.80645 0.71811 0.0
H21 H 0.24955 0.75182 0.70577 0.0
H22 H 0.18363 0.60194 0.7238 0.0
H23 H 0.20647 0.7266 0.76604 0.0
C24 C 0.28071 0.91213 0.74755 0.0
C25 C 0.30331 0.88222 0.73251 0.0
C26 C 0.23846 0.89204 0.75876 0.0
C27 C 0.22165 0.83802 0.75569 0.0
C28 C 0.24596 0.80551 0.74094 0.0
C29 C 0.28709 0.82893 0.72952 0.0
C30 C 0.22735 0.74874 0.73644 0.0
C31 C 0.23324 0.72766 0.71739 0.0
C32 C 0.21899 0.67432 0.71302 0.0
C33 C 0.19527 0.6429 0.72733 0.0
C34 C 0.19301 0.65981 0.7466 0.0
C35 C 0.20765 0.71352 0.75111 0.0
H36 H 0.70178 0.05683 0.01811 0.0
H37 H 0.55274 0.98791 0.03612 0.0
H38 H 0.56363 0.07944 0.98214 0.0
H39 H 0.47906 0.09172 0.98252 0.0
H40 H 0.33201 1.01239 0.99525 0.0
H41 H 0.47367 0.96578 0.02704 0.0
C42 C 0.65884 0.051 0.01586 0.0
C43 C 0.63437 0.07311 -0.00058 0.0
C44 C 0.63012 0.01918 0.02884 0.0
C45 C 0.57429 1.01129 0.0255 0.0
C46 C 0.54748 0.03445 0.00887 0.0
C47 C 0.57977 0.0637 0.99561 0.0
C48 C 0.48701 0.02846 0.00506 0.0
C49 C 0.4591 0.06059 0.99069 0.0
C50 C 0.4035 0.05426 0.98708 0.0
C51 C 0.37505 0.01661 0.99782 0.0
C52 C 0.40017 0.98574 0.01229 0.0
C53 C 0.45578 0.99123 0.01589 0.0
H54 H 0.23097 0.4678 0.26823 0.0
H55 H 0.26063 0.31594 0.2967 0.0
H56 H 0.21024 0.32135 0.23637 0.0
H57 H 0.1756 0.24118 0.24293 0.0
H58 H 0.23451 0.08976 0.26553 0.0
H59 H 0.29562 0.23651 0.28905 0.0
C60 C 0.2309 0.42379 0.26782 0.0
C61 C 0.21675 0.3978 0.25071 0.0
C62 C 0.24794 0.39437 0.28407 0.0
C63 C 0.24892 0.33752 0.28363 0.0
C64 C 0.23432 0.30939 0.26661 0.0
C65 C 0.21953 0.3407 0.24995 0.0
C66 C 0.2347 0.24806 0.26631 0.0
C67 C 0.2019 0.21971 0.25302 0.0
C68 C 0.20327 0.1628 0.25251 0.0
C69 C 0.235 0.13377 0.26579 0.0
C70 C 0.26813 0.15991 0.279 0.0
C71 C 0.26816 0.217 0.27923 0.0
H72 H 0.77547 0.43708 0.26268 0.0
H73 H 0.73462 0.28095 0.28459 0.0
H74 H 0.86687 0.29709 0.24404 0.0
H75 H 0.83655 0.20946 0.23579 0.0
H76 H 0.824 0.06315 0.26942 0.0
H77 H 0.78908 0.21555 0.29605 0.0
C78 C 0.78234 0.39348 0.2629 0.0
C79 C 0.82362 0.37066 0.25159 0.0
C80 C 0.75123 0.36135 0.27507 0.0
C81 C 0.76059 0.30524 0.27558 0.0
C82 C 0.80232 0.2808 0.26445 0.0
C83 C 0.83414 0.31435 0.25252 0.0
C84 C 0.81234 0.2207 0.26578 0.0
C85 C 0.82926 0.18978 0.24958 0.0
C86 C 0.83538 0.13285 0.25106 0.0
C87 C 0.82303 0.10711 0.2686 0.0
C88 C 0.80498 0.13675 0.28458 0.0
C89 C 0.80158 0.1933 0.28331 0.0
H90 H 0.77153 0.95014 0.73282 0.0
H91 H 0.82273 0.81433 0.76791 0.0
H92 H 0.72653 0.79144 0.71603 0.0
H93 H 0.77792 0.7182 0.71268 0.0
H94 H 0.79986 0.57514 0.74715 0.0
H95 H 0.79488 0.72979 0.77514 0.0
C96 C 0.77256 0.90682 0.73568 0.0
C97 C 0.74714 0.87294 0.72265 0.0
C98 C 0.79677 0.88678 0.75263 0.0
C99 C 0.80137 0.82998 0.75533 0.0
C100 C 0.77819 0.79391 0.74177 0.0
C101 C 0.74845 0.81677 0.72595 0.0
C102 C 0.78532 0.73302 0.74368 0.0
C103 C 0.78319 0.70025 0.72691 0.0
C104 C 0.78828 0.64362 0.72815 0.0
C105 C 0.79685 0.61905 0.74616 0.0
C106 C 0.79952 0.64963 0.76305 0.0
C107 C 0.79397 0.70671 0.76189 0.0
H108 H 0.69974 0.53706 0.9877 0.0
H109 H 0.54703 0.47512 0.97274 0.0
H110 H 0.57441 0.54025 0.03038 0.0
H111 H 0.48742 0.54985 0.03384 0.0
H112 H 0.33692 0.47863 0.01845 0.0
H113 H 0.4723 0.44994 0.98231 0.0
C114 C 0.65819 0.52959 0.99181 0.0
C115 C 0.64098 0.54076 0.0106 0.0
C116 C 0.62526 0.50342 0.97877 0.0
C117 C 0.571 0.49447 0.98362 0.0
C118 C 0.54958 0.50992 0.0021 0.0
C119 C 0.58653 0.53198 0.01566 0.0
C120 C 0.49037 0.50069 0.00741 0.0
C121 C 0.46528 0.52399 0.02423 0.0
C122 C 0.41027 0.51414 0.02868 0.0
C123 C 0.37978 0.48389 0.01584 0.0
C124 C 0.40233 0.46251 -0.00087 0.0
C125 C 0.4572 0.46912 0.99522 0.0
H126 H 0.18972 0.48718 0.50321 0.0
H127 H 0.04648 0.50225 0.53727 0.0
H128 H 0.04124 0.53418 0.47536 0.0
H129 H 0.97067 0.58468 0.48257 0.0
H130 H 0.82086 0.56563 0.51229 0.0
H131 H 0.9611 0.47861 0.53278 0.0
C132 C 0.14645 0.49503 0.50394 0.0
C133 C 0.11826 0.51174 0.48734 0.0
C134 C 0.12045 0.49118 0.52176 0.0
C135 C 0.06511 0.50367 0.52313 0.0
C136 C 0.03476 0.51874 0.50644 0.0
C137 C 0.06242 0.52278 0.48852 0.0
C138 C 0.97509 0.5313 0.50789 0.0
C139 C 0.94875 0.56624 0.49434 0.0
C140 C 0.89326 0.57814 0.49587 0.0
C141 C 0.86397 0.55707 0.51134 0.0
C142 C 0.88844 0.52163 0.52471 0.0
C143 C 0.94352 0.50791 0.52276 0.0
Fe144 Fe 0.02246 0.76628 0.15651 0.0
O145 O 0.06091 0.79841 0.13411 0.0
Fe146 Fe 0.90202 0.7258 0.13785 0.0
Fe147 Fe 0.13976 0.80212 0.13438 0.0
O148 O 0.98065 0.72884 0.13618 0.0
O149 O 0.98095 0.72787 0.13418 0.0
O150 O 0.0605 0.79852 0.13201 0.0
Fe151 Fe 0.01972 0.75941 0.11133 0.0
C152 C 0.09682 0.85607 0.17053 0.0
O153 O 0.07457 0.70208 0.15696 0.0
O154 O 0.15118 0.74662 0.15743 0.0
O155 O 0.96822 0.7131 0.0935 0.0
O156 O 0.91062 0.67211 0.11543 0.0
O157 O 0.92083 0.67264 0.15977 0.0
O158 O 0.97883 0.72363 0.17783 0.0
O159 O 0.15399 0.73939 0.11597 0.0
O160 O 0.07691 0.69484 0.11111 0.0
C161 C 0.94987 0.68081 0.17503 0.0
O162 O 0.96284 0.8237 0.10879 0.0
O163 O 0.88584 0.78299 0.11714 0.0
O164 O 0.0694 0.8135 0.17533 0.0
O165 O 0.12318 0.86106 0.15447 0.0
C166 C 0.12465 0.70338 0.16032 0.0
C167 C 0.1287 0.69809 0.11029 0.0
C168 C 0.10787 0.83378 0.09324 0.0
O169 O 0.12755 0.84896 0.10979 0.0
O170 O 0.06978 0.79824 0.09086 0.0
C171 C 0.93052 0.67873 0.09818 0.0
O172 O 0.89377 0.78673 0.15882 0.0
O173 O 0.9703 0.83057 0.15579 0.0
C174 C 0.91098 0.82168 0.10924 0.0
C175 C 0.92092 0.83 0.16026 0.0
Fe176 Fe 0.48263 0.76826 0.42868 0.0
O177 O 0.47369 0.76552 0.40029 0.0
Fe178 Fe 0.51015 0.82584 0.38378 0.0
Fe179 Fe 0.49877 0.70221 0.38454 0.0
O180 O 0.47398 0.77056 0.40025 0.0
O181 O 0.53495 0.76268 0.368 0.0
O182 O 0.53468 0.75773 0.36804 0.0
Fe183 Fe 0.52863 0.76137 0.3397 0.0
C184 C 0.57407 0.69112 0.41868 0.0
O185 O 0.42283 0.71178 0.42736 0.0
O186 O 0.45495 0.65266 0.40391 0.0
O187 O 0.47791 0.82909 0.33821 0.0
O188 O 0.44121 0.83615 0.36738 0.0
O189 O 0.47708 0.88564 0.40208 0.0
O190 O 0.43497 0.83725 0.42633 0.0
O191 O 0.4297 0.7067 0.36818 0.0
O192 O 0.46414 0.70948 0.33842 0.0
C193 C 0.4418 0.88067 0.41595 0.0
O194 O 0.589 0.81783 0.34182 0.0
O195 O 0.55375 0.87559 0.36505 0.0
O196 O 0.53558 0.70266 0.43017 0.0
O197 O 0.56901 0.69573 0.40045 0.0
C198 C 0.42232 0.66621 0.41804 0.0
C199 C 0.42775 0.69496 0.35029 0.0
C200 C 0.56412 0.64618 0.35137 0.0
O201 O 0.53069 0.64251 0.3659 0.0
O202 O 0.57491 0.69068 0.34201 0.0
C203 C 0.44298 0.84973 0.34964 0.0
O204 O 0.58 0.8185 0.39949 0.0
O205 O 0.54827 0.81942 0.42949 0.0
C206 C 0.58748 0.86345 0.35122 0.0
C207 C 0.58675 0.82533 0.41748 0.0
Fe208 Fe 0.50598 0.29674 0.67387 0.0
O209 O 0.51167 0.30667 0.64555 0.0
Fe210 Fe 0.44744 0.27941 0.62871 0.0
Fe211 Fe 0.57181 0.27531 0.62957 0.0
O212 O 0.50661 0.30687 0.6455 0.0
O213 O 0.50732 0.24682 0.61304 0.0
O214 O 0.51248 0.24709 0.61301 0.0
Fe215 Fe 0.51078 0.25378 0.58474 0.0
C216 C 0.61719 0.34244 0.66386 0.0
O217 O 0.56059 0.23147 0.6753 0.0
O218 O 0.57099 0.20384 0.64486 0.0
O219 O 0.44685 0.2013 0.58665 0.0
O220 O 0.39275 0.24445 0.60929 0.0
O221 O 0.44513 0.20836 0.64437 0.0
O222 O 0.4435 0.2423 0.67398 0.0
O223 O 0.62732 0.23837 0.61071 0.0
O224 O 0.57499 0.19895 0.58709 0.0
C225 C 0.43648 0.20336 0.66236 0.0
O226 O 0.45129 0.31344 0.58306 0.0
O227 O 0.44719 0.34923 0.61247 0.0
O228 O 0.57205 0.34616 0.67335 0.0
O229 O 0.62631 0.31085 0.64907 0.0
C230 C 0.57307 0.19499 0.66297 0.0
C231 C 0.62065 0.20621 0.59603 0.0
C232 C 0.58691 0.34693 0.59549 0.0
O233 O 0.57627 0.34552 0.61353 0.0
O234 O 0.56963 0.31166 0.58373 0.0
C235 C 0.40071 0.21008 0.59524 0.0
O236 O 0.39277 0.32125 0.64714 0.0
O237 O 0.44638 0.35605 0.67145 0.0
C238 C 0.43485 0.35019 0.5946 0.0
C239 C 0.40277 0.35591 0.66091 0.0
Fe240 Fe 0.01584 0.27402 0.90076 0.0
O241 O 0.98368 0.22772 0.88047 0.0
Fe242 Fe 0.03997 0.39416 0.87817 0.0
Fe243 Fe 0.98888 0.1487 0.88221 0.0
O244 O 0.04382 0.31513 0.8782 0.0
O245 O 0.04494 0.3142 0.87602 0.0
O246 O 0.98273 0.22794 0.87838 0.0
Fe247 Fe 1.00988 0.26967 0.85534 0.0
C248 C 0.09118 0.17901 0.90491 0.0
O249 O 0.97983 0.22629 0.9222 0.0
O250 O 0.93681 0.16076 0.90479 0.0
O251 O 0.941 0.32028 0.85504 0.0
O252 O 0.97772 0.40192 0.85902 0.0
O253 O 0.98356 0.40038 0.9007 0.0
O254 O 0.94588 0.31978 0.90081 0.0
O255 O 0.93262 0.15271 0.8603 0.0
O256 O 0.96711 0.21343 0.83781 0.0
C257 C 0.94283 0.37044 0.90355 0.0
O258 O 0.04529 0.32381 0.83481 0.0
O259 O 0.08833 0.38643 0.85429 0.0
O260 O 0.08567 0.22891 0.90089 0.0
O261 O 0.05244 0.14627 0.90242 0.0
C262 C 0.94281 0.19027 0.91999 0.0
C263 C 0.9363 0.17279 0.84288 0.0
C264 C 0.07737 0.16656 0.85146 0.0
O265 O 0.04314 0.13854 0.86054 0.0
O266 O 0.07827 0.21846 0.85255 0.0
C267 C 0.93945 0.37213 0.85353 0.0
O268 O 0.09912 0.38399 0.89872 0.0
O269 O 0.05645 0.32623 0.91953 0.0
C270 C 0.07823 0.3643 0.83766 0.0
C271 C 0.09611 0.35749 0.91489 0.0
C272 C 0.16283 0.9927 0.44327 0.0
C273 C 0.16101 0.04563 0.45044 0.0
C274 C 0.20751 0.97408 0.43252 0.0
C275 C 0.25111 1.00931 0.42902 0.0
C276 C 0.2455 0.0648 0.43379 0.0
C277 C 0.20034 0.08237 0.44445 0.0
C278 C 0.21112 0.91491 0.42717 0.0
C279 C 0.29024 0.1041 0.42997 0.0
C280 C 0.38462 0.93623 0.43781 0.0
C281 C 0.40176 0.92475 0.41898 0.0
C282 C 0.33738 0.96683 0.44114 0.0
C283 C 0.30583 0.98559 0.42518 0.0
C284 C 0.32494 0.97729 0.40608 0.0
C285 C 0.37308 0.94708 0.4032 0.0
C286 C 0.31942 0.97582 0.4618 0.0
C287 C 0.29287 0.99658 0.38867 0.0
H288 H 0.13239 0.96427 0.4478 0.0
H289 H 0.19851 0.12365 0.44977 0.0
H290 H 0.229 0.90978 0.41257 0.0
H291 H 0.23778 0.89307 0.43769 0.0
H292 H 0.17085 0.89579 0.42741 0.0
H293 H 0.27508 0.14679 0.43021 0.0
H294 H 0.32165 0.09913 0.44137 0.0
H295 H 0.30973 0.09613 0.41579 0.0
H296 H 0.40687 0.91887 0.44998 0.0
H297 H 0.38595 0.9375 0.38859 0.0
H298 H 0.28203 0.95297 0.46463 0.0
H299 H 0.30997 0.01938 0.46425 0.0
H300 H 0.35064 0.96235 0.47247 0.0
H301 H 0.259 0.96865 0.38615 0.0
H302 H 0.31812 0.99729 0.37539 0.0
H303 H 0.27518 0.03766 0.39104 0.0
C304 C 0.38222 0.93909 0.72433 0.0
C305 C 0.33622 0.91172 0.71821 0.0
C306 C 0.4033 0.98146 0.71319 0.0
C307 C 0.37694 0.99746 0.69578 0.0
C308 C 0.33314 0.967 0.6888 0.0
C309 C 0.31359 0.92403 0.70006 0.0
C310 C 0.4507 1.01209 0.72103 0.0
C311 C 0.30354 0.98309 0.67046 0.0
C312 C 0.3829 0.14862 0.6856 0.0
C313 C 0.41913 0.15063 0.67011 0.0
C314 C 0.36745 0.09881 0.69355 0.0
C315 C 0.39063 0.04992 0.68636 0.0
C316 C 0.42758 0.05182 0.67075 0.0
C317 C 0.44045 0.10218 0.66253 0.0
C318 C 0.32629 0.09859 0.70968 0.0
C319 C 0.45371 1.0011 0.66262 0.0
H320 H 0.3993 0.92991 0.73848 0.0
H321 H 0.27741 0.90344 0.69552 0.0
H322 H 0.47716 0.02635 0.70917 0.0
H323 H 0.43564 0.04827 0.72897 0.0
H324 H 0.47504 0.98674 0.73129 0.0
H325 H 0.27259 0.95319 0.66636 0.0
H326 H 0.28321 0.02317 0.67248 0.0
H327 H 0.3324 0.98726 0.65832 0.0
H328 H 0.36611 0.1861 0.69136 0.0
H329 H 0.46865 0.10374 0.65055 0.0
H330 H 0.34554 0.08382 0.72329 0.0
H331 H 0.29319 0.07054 0.70616 0.0
H332 H 0.30845 0.13955 0.71232 0.0
H333 H 0.46041 0.96951 0.67392 0.0
H334 H 0.49299 1.01003 0.65568 0.0
H335 H 0.42697 0.98422 0.65135 0.0
C336 C 0.37432 0.07292 0.95291 0.0
C337 C 0.37198 0.08658 0.97256 0.0
C338 C 0.33298 0.0898 0.93998 0.0
C339 C 0.28809 0.12054 0.94694 0.0
C340 C 0.28769 0.13749 0.96651 0.0
C341 C 0.32952 0.12028 0.97904 0.0
C342 C 0.33571 0.07214 0.91913 0.0
C343 C 0.2409 0.17001 0.97472 0.0
C344 C 0.18787 0.19508 0.91375 0.0
C345 C 0.14321 0.16064 0.91401 0.0
C346 C 0.23609 0.18143 0.92355 0.0
C347 C 0.23999 0.13237 0.93425 0.0
C348 C 0.19583 0.09644 0.93402 0.0
C349 C 0.14813 0.11084 0.92384 0.0
C350 C 0.28132 0.22153 0.92329 0.0
C351 C 0.19823 0.0436 0.94516 0.0
H352 H 0.40646 0.04596 0.94795 0.0
H353 H 0.32705 0.12996 0.99431 0.0
H354 H 0.30311 0.04302 0.9162 0.0
H355 H 0.32902 0.10754 0.90936 0.0
H356 H 0.37517 0.05247 0.91557 0.0
H357 H 0.2518 0.18968 0.98858 0.0
H358 H 0.22652 0.20169 0.96436 0.0
H359 H 0.20673 0.14258 0.9775 0.0
H360 H 0.18495 0.23363 0.90615 0.0
H361 H 0.11406 0.08391 0.92415 0.0
H362 H 0.32165 0.20127 0.92427 0.0
H363 H 0.27654 0.24867 0.93591 0.0
H364 H 0.27982 0.24715 0.91001 0.0
H365 H 0.23501 0.01986 0.94114 0.0
H366 H 0.16223 0.01848 0.94249 0.0
H367 H 0.20086 0.05196 0.9609 0.0
C368 C 0.1203 0.12182 0.2384 0.0
C369 C 0.17582 0.13117 0.23742 0.0
C370 C 0.09707 0.0802 0.22746 0.0
C371 C 0.1306 0.04675 0.21569 0.0
C372 C 0.18625 0.05828 0.21397 0.0
C373 C 0.20798 0.10052 0.22475 0.0
C374 C 0.03749 0.07027 0.22949 0.0
C375 C 0.2237 0.02402 0.2016 0.0
C376 C 0.10484 0.89969 0.20319 0.0
C377 C 0.09569 0.90406 0.18324 0.0
C378 C 0.11219 0.94649 0.21443 0.0
C379 C 0.10922 0.99849 0.20549 0.0
C380 C 0.09476 1.00287 0.18572 0.0
C381 C 0.08876 0.95564 0.17481 0.0
C382 C 0.12713 0.94014 0.23552 0.0
C383 C 0.08925 0.05739 0.17578 0.0
H384 H 0.0957 0.14491 0.24851 0.0
H385 H 0.25111 0.10749 0.22425 0.0
H386 H 0.01953 0.05788 0.21553 0.0
H387 H 0.03162 0.03707 0.24013 0.0
H388 H 0.01532 0.10684 0.23479 0.0
H389 H 0.26573 0.03903 0.20162 0.0
H390 H 0.22439 0.98154 0.20701 0.0
H391 H 0.2089 0.02351 0.18644 0.0
H392 H 0.10958 0.85982 0.20975 0.0
H393 H 0.08014 0.95905 0.15943 0.0
H394 H 0.10153 0.96739 0.24452 0.0
H395 H 0.16976 0.95199 0.23766 0.0
H396 H 0.12263 0.89779 0.24075 0.0
H397 H 0.06458 0.08573 0.1847 0.0
H398 H 0.07037 0.0543 0.16123 0.0
H399 H 0.12977 0.07524 0.17405 0.0
C400 C 0.15492 0.07392 0.53711 0.0
C401 C 0.1578 0.10065 0.51917 0.0
C402 C 0.18796 0.0893 0.55266 0.0
C403 C 0.22454 0.13218 0.55007 0.0
C404 C 0.22532 0.16104 0.53229 0.0
C405 C 0.19192 0.14495 0.5171 0.0
C406 C 0.18576 0.05779 0.57143 0.0
C407 C 0.26371 0.20699 0.52885 0.0
C408 C 0.3009 0.20524 0.58933 0.0
C409 C 0.35315 0.18322 0.58684 0.0
C410 C 0.25717 0.18615 0.57849 0.0
C411 C 0.26605 0.14404 0.56495 0.0
C412 C 0.31772 0.1188 0.56358 0.0
C413 C 0.3606 0.13869 0.57453 0.0
C414 C 0.20229 0.21323 0.58058 0.0
C415 C 0.32882 0.07351 0.54943 0.0
H416 H 0.12859 0.03959 0.53874 0.0
H417 H 0.19346 0.16631 0.50334 0.0
H418 H 0.22187 0.0306 0.57259 0.0
H419 H 0.1864 0.0855 0.58401 0.0
H420 H 0.14912 0.03258 0.57233 0.0
H421 H 0.25347 0.23043 0.5155 0.0
H422 H 0.26354 0.23515 0.54128 0.0
H423 H 0.30544 0.19027 0.52738 0.0
H424 H 0.29465 0.23947 0.59889 0.0
H425 H 0.40062 0.12077 0.57278 0.0
H426 H 0.17189 0.18259 0.58447 0.0
H427 H 0.18947 0.23163 0.56656 0.0
H428 H 0.20198 0.24533 0.59179 0.0
H429 H 0.29753 0.04209 0.55061 0.0
H430 H 0.36914 0.05396 0.55179 0.0
H431 H 0.32723 0.08991 0.53443 0.0
C432 C 0.19995 0.98456 0.76559 0.0
C433 C 0.2109 0.9313 0.77217 0.0
C434 C 0.18345 0.02591 0.77823 0.0
C435 C 0.17513 1.01382 0.79802 0.0
C436 C 0.18358 0.95963 0.8047 0.0
C437 C 0.20181 0.91905 0.79173 0.0
C438 C 0.17512 0.08277 0.77035 0.0
C439 C 0.17333 0.9446 0.82555 0.0
C440 C 0.16175 0.12992 0.83482 0.0
C441 C 0.10546 0.13645 0.83577 0.0
C442 C 0.18548 0.0906 0.8224 0.0
C443 C 0.15201 0.05677 0.81106 0.0
C444 C 0.0954 0.06487 0.81167 0.0
C445 C 0.07316 0.10457 0.82381 0.0
C446 C 0.24614 0.08425 0.82176 0.0
C447 C 0.05783 0.03022 0.80003 0.0
H448 H 0.20576 0.99437 0.75041 0.0
H449 H 0.21031 0.87826 0.79698 0.0
H450 H 0.13181 0.09484 0.7713 0.0
H451 H 0.19818 0.11193 0.77914 0.0
H452 H 0.18799 0.08648 0.75501 0.0
H453 H 0.18246 0.90109 0.82858 0.0
H454 H 0.19841 0.96962 0.83522 0.0
H455 H 0.1304 0.9533 0.82921 0.0
H456 H 0.18689 0.15363 0.84429 0.0
H457 H 0.02961 0.10894 0.8247 0.0
H458 H 0.26044 0.08689 0.80657 0.0
H459 H 0.25836 0.04361 0.8274 0.0
H460 H 0.26662 0.11556 0.83046 0.0
H461 H 0.06617 0.03472 0.78435 0.0
H462 H 0.0148 0.04119 0.8026 0.0
H463 H 0.06442 0.98684 0.80388 0.0
C464 C 0.33341 0.91228 0.0153 0.0
C465 C 0.36507 0.95144 0.02428 0.0
C466 C 0.2892 0.88971 0.02488 0.0
C467 C 0.2762 0.90714 0.0438 0.0
C468 C 0.30955 0.94497 0.05324 0.0
C469 C 0.35379 0.96661 0.04335 0.0
C470 C 0.25522 0.84881 0.01449 0.0
C471 C 0.29747 0.96392 0.07355 0.0
C472 C 0.13546 0.8918 0.06523 0.0
C473 C 0.14351 0.8458 0.07689 0.0
C474 C 0.17759 0.91081 0.05345 0.0
C475 C 0.22901 0.88425 0.0541 0.0
C476 C 0.23642 0.83708 0.06554 0.0
C477 C 0.19321 0.81772 0.07639 0.0
C478 C 0.16811 0.96096 0.04121 0.0
C479 C 0.29091 0.80895 0.06729 0.0
H480 H 0.34179 0.90136 0.00041 0.0
H481 H 0.37758 0.99783 0.05007 0.0
H482 H 0.25363 0.81071 0.02307 0.0
H483 H 0.21314 0.86468 0.01299 0.0
H484 H 0.27111 0.83918 -0.00015 0.0
H485 H 0.32826 0.99223 0.07902 0.0
H486 H 0.25734 0.98474 0.07388 0.0
H487 H 0.29565 0.92866 0.08357 0.0
H488 H 0.09739 0.91416 0.06601 0.0
H489 H 0.19961 0.78261 0.08569 0.0
H490 H 0.18235 0.95388 0.02619 0.0
H491 H 0.19172 0.99484 0.04716 0.0
H492 H 0.12477 0.97352 0.04075 0.0
H493 H 0.29094 0.77632 0.07842 0.0
H494 H 0.32237 0.83829 0.07131 0.0
H495 H 0.30257 0.79153 0.05311 0.0
C496 C 0.33148 0.0813 0.28385 0.0
C497 C 0.30296 0.12539 0.29189 0.0
C498 C 0.35442 0.04035 0.29555 0.0
C499 C 0.35047 0.0442 0.31594 0.0
C500 C 0.32547 0.0908 0.32424 0.0
C501 C 0.30144 0.13072 0.31208 0.0
C502 C 0.38053 0.99157 0.28596 0.0
C503 C 0.32158 0.09749 0.34589 0.0
C504 C 0.36115 0.90619 0.34077 0.0
C505 C 0.41697 0.90143 0.34364 0.0
C506 C 0.33811 0.95411 0.33284 0.0
C507 C 0.37173 0.99831 0.32814 0.0
C508 C 0.42755 0.99481 0.33254 0.0
C509 C 0.44958 0.94611 0.33993 0.0
C510 C 0.27838 0.95632 0.32846 0.0
C511 C 0.46453 0.04153 0.32855 0.0
H512 H 0.33344 0.07744 0.26823 0.0
H513 H 0.27928 0.16457 0.31838 0.0
H514 H 0.42314 0.98673 0.29077 0.0
H515 H 0.35916 0.95427 0.29032 0.0
H516 H 0.37985 0.9947 0.26991 0.0
H517 H 0.31599 0.14079 0.34989 0.0
H518 H 0.28613 0.07516 0.35129 0.0
H519 H 0.35811 0.08087 0.35336 0.0
H520 H 0.33603 0.87168 0.34385 0.0
H521 H 0.49276 0.94261 0.34243 0.0
H522 H 0.27208 0.95909 0.31256 0.0
H523 H 0.25957 0.99307 0.33496 0.0
H524 H 0.25731 0.92007 0.33403 0.0
H525 H 0.47019 0.04626 0.31271 0.0
H526 H 0.50493 0.03529 0.33537 0.0
H527 H 0.44628 0.07995 0.33399 0.0
C528 C 0.82799 0.13998 0.51542 0.0
C529 C 0.8678 0.1003 0.51917 0.0
C530 C 0.79389 0.15856 0.53023 0.0
C531 C 0.79896 0.13565 0.54904 0.0
C532 C 0.84078 0.0972 0.55305 0.0
C533 C 0.8751 0.08022 0.53802 0.0
C534 C 0.75073 0.20078 0.52552 0.0
C535 C 0.84706 0.07137 0.57282 0.0
C536 C 0.71882 0.20904 0.58794 0.0
C537 C 0.66946 0.18206 0.58702 0.0
C538 C 0.76261 0.19284 0.57631 0.0
C539 C 0.75698 0.14818 0.56376 0.0
C540 C 0.70858 0.11848 0.56385 0.0
C541 C 0.66525 0.13603 0.57538 0.0
C542 C 0.81379 0.22513 0.57671 0.0
C543 C 0.70134 0.07005 0.55088 0.0
H544 H 0.82267 0.15532 0.50077 0.0
H545 H 0.90577 0.04909 0.54075 0.0
H546 H 0.71031 0.18226 0.52644 0.0
H547 H 0.75169 0.23419 0.5362 0.0
H548 H 0.75561 0.21823 0.51077 0.0
H549 H 0.88583 0.04822 0.57428 0.0
H550 H 0.84494 0.10248 0.58432 0.0
H551 H 0.81338 0.04314 0.57531 0.0
H552 H 0.72224 0.24486 0.59685 0.0
H553 H 0.62733 0.11481 0.57476 0.0
H554 H 0.82286 0.24072 0.56199 0.0
H555 H 0.84836 0.19858 0.58116 0.0
H556 H 0.81102 0.25993 0.58682 0.0
H557 H 0.69967 0.08366 0.53554 0.0
H558 H 0.66369 0.04804 0.55419 0.0
H559 H 0.73623 0.04139 0.55238 0.0
C560 C 0.80871 0.0627 0.30948 0.0
C561 C 0.78139 0.10746 0.3012 0.0
C562 C 0.7815 0.02633 0.32153 0.0
C563 C 0.72558 0.03455 0.32497 0.0
C564 C 0.69919 0.0824 0.31812 0.0
C565 C 0.72761 0.11854 0.30639 0.0
C566 C 0.81139 0.97655 0.32902 0.0
C567 C 0.63953 0.09256 0.32138 0.0
C568 C 0.63936 0.90966 0.32542 0.0
C569 C 0.6249 0.90578 0.34495 0.0
C570 C 0.67257 0.95116 0.31888 0.0
C571 C 0.69279 0.98906 0.33228 0.0
C572 C 0.67981 0.98429 0.35216 0.0
C573 C 0.64526 0.94303 0.35824 0.0
C574 C 0.68494 0.95514 0.29749 0.0
C575 C 0.70172 0.02303 0.36693 0.0
H576 H 0.85048 0.05445 0.3056 0.0
H577 H 0.70632 0.15297 0.2999 0.0
H578 H 0.79942 0.96725 0.34414 0.0
H579 H 0.80095 0.94118 0.32 0.0
H580 H 0.85589 0.98149 0.3285 0.0
H581 H 0.62702 0.13484 0.31762 0.0
H582 H 0.61607 0.06454 0.31224 0.0
H583 H 0.62866 0.08445 0.33668 0.0
H584 H 0.62333 0.88111 0.31512 0.0
H585 H 0.63448 0.93964 0.37341 0.0
H586 H 0.72925 0.95304 0.29515 0.0
H587 H 0.67003 0.99475 0.29168 0.0
H588 H 0.66608 0.92231 0.28903 0.0
H589 H 0.74597 0.02733 0.3651 0.0
H590 H 0.6936 1.00952 0.38201 0.0
H591 H 0.68282 0.06376 0.36474 0.0
C592 C 0.66727 0.93668 0.04636 0.0
C593 C 0.66182 0.99326 0.04501 0.0
C594 C 0.70849 0.9121 0.05781 0.0
C595 C 0.74537 0.94487 0.06806 0.0
C596 C 0.73805 1.00193 0.06754 0.0
C597 C 0.69638 0.02527 0.05616 0.0
C598 C 0.71408 0.85106 0.05823 0.0
C599 C 0.77597 0.03859 0.07821 0.0
C600 C 0.82663 0.87791 0.10898 0.0
C601 C 0.87557 0.86368 0.09986 0.0
C602 C 0.78474 0.90544 0.099 0.0
C603 C 0.7916 0.91957 0.07929 0.0
C604 C 0.84218 0.90827 0.07028 0.0
C605 C 0.88362 0.88037 0.08067 0.0
C606 C 0.73203 0.91676 0.10933 0.0
C607 C 0.85158 0.92332 0.04937 0.0
H608 H 0.64146 0.91171 0.03756 0.0
H609 H 0.69266 0.06906 0.05507 0.0
H610 H 0.75287 0.83843 0.05143 0.0
H611 H 0.715 0.83608 0.07341 0.0
H612 H 0.68055 0.83121 0.05044 0.0
H613 H 0.76316 0.08193 0.07718 0.0
H614 H 0.77845 0.02683 0.09372 0.0
H615 H 0.81725 0.03414 0.07211 0.0
H616 H 0.82007 0.86497 0.12382 0.0
H617 H 0.92083 0.86872 0.07342 0.0
H618 H 0.69961 0.89253 0.10269 0.0
H619 H 0.71998 0.9601 0.10773 0.0
H620 H 0.73442 0.9066 0.12501 0.0
H621 H 0.82476 0.89935 0.03995 0.0
H622 H 0.89413 0.91567 0.0449 0.0
H623 H 0.84123 0.96678 0.04688 0.0
C624 C 0.78519 0.97564 0.7696 0.0
C625 C 0.81542 0.92724 0.76709 0.0
C626 C 0.80498 0.01866 0.78044 0.0
C627 C 0.85474 1.01225 0.79033 0.0
C628 C 0.88387 0.96213 0.78904 0.0
C629 C 0.86443 0.92066 0.7771 0.0
C630 C 0.77262 0.07124 0.78115 0.0
C631 C 0.9363 0.95186 0.79972 0.0
C632 C 0.92665 0.13787 0.80872 0.0
C633 C 0.90851 0.14003 0.82794 0.0
C634 C 0.9092 0.09675 0.79616 0.0
C635 C 0.87338 0.05681 0.80307 0.0
C636 C 0.85337 0.06026 0.82215 0.0
C637 C 0.87005 0.10235 0.83411 0.0
C638 C 0.93035 0.09486 0.77571 0.0
C639 C 0.8164 0.01779 0.83034 0.0
H640 H 0.74611 0.98061 0.76262 0.0
H641 H 0.88825 0.8837 0.77531 0.0
H642 H 0.75766 0.07835 0.79606 0.0
H643 H 0.79862 0.10579 0.77725 0.0
H644 H 0.73734 0.07132 0.77117 0.0
H645 H 0.93956 0.90893 0.80461 0.0
H646 H 0.97018 0.95886 0.78958 0.0
H647 H 0.94098 0.97838 0.81249 0.0
H648 H 0.95654 0.16637 0.8038 0.0
H649 H 0.85496 0.10379 0.84882 0.0
H650 H 0.89607 0.09777 0.76534 0.0
H651 H 0.95149 0.05546 0.77317 0.0
H652 H 0.95872 0.12815 0.77261 0.0
H653 H 0.77854 0.01641 0.82176 0.0
H654 H 0.80571 0.02547 0.84571 0.0
H655 H 0.83635 0.97719 0.82937 0.0
C656 C 0.81929 1.00868 0.45239 0.0
C657 C 0.86446 0.98403 0.46131 0.0
C658 C 0.7798 0.97769 0.44336 0.0
C659 C 0.7858 0.9205 0.44308 0.0
C660 C 0.83377 0.89573 0.45055 0.0
C661 C 0.87255 0.92788 0.4597 0.0
C662 C 0.72969 1.00604 0.43544 0.0
C663 C 0.84284 0.83514 0.45022 0.0
C664 C 0.65016 0.85166 0.44411 0.0
C665 C 0.64036 0.84353 0.42435 0.0
C666 C 0.69903 0.87345 0.45051 0.0
C667 C 0.73911 0.88749 0.43684 0.0
C668 C 0.73097 0.87599 0.41703 0.0
C669 C 0.6817 0.85432 0.411 0.0
C670 C 0.70674 0.88386 0.47185 0.0
C671 C 0.77343 0.88855 0.4021 0.0
H672 H 0.81332 0.05223 0.45349 0.0
H673 H 0.90735 0.90868 0.46666 0.0
H674 H 0.72167 0.99287 0.4204 0.0
H675 H 0.69423 0.99493 0.44433 0.0
H676 H 0.73312 0.05088 0.43549 0.0
H677 H 0.88661 0.8247 0.44923 0.0
H678 H 0.82765 0.81756 0.46393 0.0
H679 H 0.82145 0.81608 0.43798 0.0
H680 H 0.61905 0.84245 0.45458 0.0
H681 H 0.67514 0.84724 0.39571 0.0
H682 H 0.70944 0.92813 0.47436 0.0
H683 H 0.74518 0.86469 0.47694 0.0
H684 H 0.67312 0.86791 0.48072 0.0
H685 H 0.77653 0.93312 0.40034 0.0
H686 H 0.76392 0.87089 0.38776 0.0
H687 H 0.81355 0.87273 0.40696 0.0
C688 C 0.88845 0.05585 0.23686 0.0
C689 C 0.8501 0.09797 0.2343 0.0
C690 C 0.89549 1.01524 0.22292 0.0
C691 C 0.8639 0.01698 0.2058 0.0
C692 C 0.827 0.06087 0.20265 0.0
C693 C 0.82046 0.10091 0.21698 0.0
C694 C 0.93552 0.96937 0.22685 0.0
C695 C 0.79289 0.06432 0.18453 0.0
C696 C 0.92454 0.92925 0.16638 0.0
C697 C 0.89823 0.87988 0.16932 0.0
C698 C 0.91104 0.97541 0.17718 0.0
C699 C 0.87019 0.97243 0.19139 0.0
C700 C 0.84063 0.92397 0.19345 0.0
C701 C 0.85494 0.87816 0.18233 0.0
C702 C 0.9433 0.02614 0.17432 0.0
C703 C 0.79642 0.91931 0.20833 0.0
H704 H 0.91161 0.0536 0.2502 0.0
H705 H 0.79027 0.13294 0.21505 0.0
H706 H 0.96695 0.96841 0.21541 0.0
H707 H 0.95567 0.97305 0.24115 0.0
H708 H 0.91475 0.92994 0.22645 0.0
H709 H 0.76963 0.10321 0.18348 0.0
H710 H 0.81864 0.05999 0.17148 0.0
H711 H 0.76403 0.03047 0.18441 0.0
H712 H 0.95753 0.9313 0.15611 0.0
H713 H 0.83431 0.84031 0.18464 0.0
H714 H 0.97093 0.031 0.18681 0.0
H715 H 0.91633 0.06255 0.1737 0.0
H716 H 0.96792 0.02459 0.1609 0.0
H717 H 0.81454 0.91865 0.22305 0.0
H718 H 0.77279 0.88187 0.20646 0.0
H719 H 0.76848 0.95496 0.20748 0.0
C720 C 0.6836 0.08035 0.96827 0.0
C721 C 0.66866 0.1035 0.98593 0.0
C722 C 0.72702 0.1009 0.95767 0.0
C723 C 0.75547 0.14583 0.96492 0.0
C724 C 0.7378 0.17168 0.98206 0.0
C725 C 0.69482 0.1498 0.99248 0.0
C726 C 0.74473 0.0722 0.93944 0.0
C727 C 0.7665 0.21996 0.99021 0.0
C728 C 0.90251 0.15152 0.94975 0.0
C729 C 0.89912 0.1876 0.93412 0.0
C730 C 0.8562 0.13931 0.96051 0.0
C731 C 0.8057 0.16333 0.95521 0.0
C732 C 0.80288 0.20164 0.93991 0.0
C733 C 0.84981 0.2134 0.92954 0.0
C734 C 0.86069 0.09848 0.97684 0.0
C735 C 0.74981 0.22765 0.93375 0.0
H736 H 0.66377 0.04398 0.96346 0.0
H737 H 0.68341 0.16716 0.00631 0.0
H738 H 0.74926 0.10166 0.92738 0.0
H739 H 0.78482 0.05232 0.94187 0.0
H740 H 0.71574 0.04082 0.93493 0.0
H741 H 0.74006 0.24352 0.0002 0.0
H742 H 0.80258 0.20555 -0.00154 0.0
H743 H 0.78052 0.24734 0.97854 0.0
H744 H 0.94067 0.13095 0.95291 0.0
H745 H 0.84748 0.24064 0.91715 0.0
H746 H 0.8373 0.06199 0.97317 0.0
H747 H 0.84309 0.11571 0.99027 0.0
H748 H 0.90325 0.08576 0.97979 0.0
H749 H 0.72365 0.19665 0.92721 0.0
H750 H 0.75548 0.26053 0.92295 0.0
H751 H 0.72804 0.24434 0.94648 0.0
C752 C 0.74388 0.93518 0.69435 0.0
C753 C 0.71649 0.89971 0.70668 0.0
C754 C 0.71643 0.97811 0.68491 0.0
C755 C 0.66005 0.98521 0.68766 0.0
C756 C 0.6314 0.94552 0.6982 0.0
C757 C 0.66007 0.90331 0.70773 0.0
C758 C 0.74883 0.01912 0.6738 0.0
C759 C 0.57133 0.95055 0.70131 0.0
C760 C 0.61059 0.13235 0.68876 0.0
C761 C 0.59198 0.14044 0.66975 0.0
C762 C 0.63157 0.08164 0.69487 0.0
C763 C 0.63316 0.03756 0.68177 0.0
C764 C 0.6122 0.04482 0.66284 0.0
C765 C 0.59238 0.09619 0.657 0.0
C766 C 0.65351 0.07565 0.71521 0.0
C767 C 0.61146 0.99849 0.64868 0.0
H768 H 0.78764 0.93262 0.69371 0.0
H769 H 0.63887 0.87645 0.71747 0.0
H770 H 0.72923 0.02908 0.65973 0.0
H771 H 0.75066 0.0572 0.68223 0.0
H772 H 0.79081 1.00442 0.67104 0.0
H773 H 0.55318 0.91016 0.70356 0.0
H774 H 0.56395 0.97478 0.71454 0.0
H775 H 0.55074 0.97123 0.68897 0.0
H776 H 0.61026 0.16609 0.69874 0.0
H777 H 0.57721 0.10168 0.64237 0.0
H778 H 0.69699 0.06381 0.71474 0.0
H779 H 0.63211 0.04297 0.72298 0.0
H780 H 0.64909 0.11367 0.72365 0.0
H781 H 0.65344 0.98623 0.64488 0.0
H782 H 0.58935 1.00937 0.63514 0.0
H783 H 0.5922 0.96274 0.6554 0.0
C784 C 0.66827 0.50851 0.94603 0.0
C785 C 0.65331 0.47742 0.96215 0.0
C786 C 0.71112 0.49151 0.93391 0.0
C787 C 0.74102 0.44342 0.93849 0.0
C788 C 0.7239 0.41055 0.95415 0.0
C789 C 0.67998 0.42765 0.96559 0.0
C790 C 0.72672 0.52697 0.91703 0.0
C791 C 0.75497 0.35992 0.96017 0.0
C792 C 0.84183 0.37412 0.90451 0.0
C793 C 0.89137 0.39358 0.91123 0.0
C794 C 0.79246 0.39218 0.91251 0.0
C795 C 0.79251 0.42937 0.92806 0.0
C796 C 0.84249 0.44985 0.93466 0.0
C797 C 0.89123 0.43241 0.92594 0.0
C798 C 0.74023 0.37081 0.90456 0.0
C799 C 0.84469 0.48839 0.95152 0.0
H800 H 0.64882 0.54776 0.94366 0.0
H801 H 0.6698 0.40449 0.97844 0.0
H802 H 0.76417 0.54877 0.92063 0.0
H803 H 0.73521 0.50205 0.90402 0.0
H804 H 0.69456 0.55747 0.91343 0.0
H805 H 0.72955 0.33245 0.96893 0.0
H806 H 0.77074 0.33741 0.94749 0.0
H807 H 0.79011 0.37155 0.96914 0.0
H808 H 0.84175 0.34454 0.89297 0.0
H809 H 0.92942 0.44726 0.93124 0.0
H810 H 0.71563 0.40489 0.89843 0.0
H811 H 0.71619 0.35234 0.91634 0.0
H812 H 0.74707 0.34011 0.89308 0.0
H813 H 0.81876 0.5247 0.9486 0.0
H814 H 0.88643 0.50177 0.95459 0.0
H815 H 0.82868 0.46834 0.96469 0.0
C816 C 0.82689 0.44141 0.226 0.0
C817 C 0.85488 0.40765 0.23913 0.0
C818 C 0.85246 0.48447 0.21673 0.0
C819 C 0.90763 0.49424 0.22067 0.0
C820 C 0.9369 0.45874 0.23328 0.0
C821 C 0.91005 0.41569 0.24241 0.0
C822 C 0.81978 0.52052 0.20312 0.0
C823 C 0.99574 0.46759 0.23774 0.0
C824 C 0.964 0.58309 0.18137 0.0
C825 C 0.95318 0.63495 0.1888 0.0
C826 C 0.95447 0.5364 0.19238 0.0
C827 C 0.93352 0.54175 0.21131 0.0
C828 C 0.92784 0.59415 0.21957 0.0
C829 C 0.93777 0.64046 0.20816 0.0
C830 C 0.9615 0.48156 0.18302 0.0
C831 C 0.90638 0.60148 0.23982 0.0
H832 H 0.78415 0.43517 0.22355 0.0
H833 H 0.93144 0.39003 0.2528 0.0
H834 H 0.81832 0.56259 0.20872 0.0
H835 H 0.8392 0.52173 0.18867 0.0
H836 H 0.77767 0.50655 0.20131 0.0
H837 H 0.99976 0.50558 0.24609 0.0
H838 H 0.014 0.43365 0.24633 0.0
H839 H 0.0191 0.47236 0.22417 0.0
H840 H 0.9768 0.57904 0.16642 0.0
H841 H 0.92956 0.68059 0.21388 0.0
H842 H 0.92125 0.46411 0.18024 0.0
H843 H 0.98382 0.45318 0.19281 0.0
H844 H 0.98344 0.48401 0.16903 0.0
H845 H 0.86233 0.59383 0.23991 0.0
H846 H 0.9129 0.64315 0.24525 0.0
H847 H 0.92595 0.57193 0.24993 0.0
C848 C 0.85371 0.57944 0.46288 0.0
C849 C 0.86291 0.60655 0.48029 0.0
C850 C 0.81199 0.59661 0.45032 0.0
C851 C 0.77953 0.64233 0.45526 0.0
C852 C 0.79265 0.67316 0.47179 0.0
C853 C 0.83369 0.65432 0.48434 0.0
C854 C 0.79958 0.56309 0.43272 0.0
C855 C 0.76053 0.72359 0.47704 0.0
C856 C 0.67458 0.69617 0.41917 0.0
C857 C 0.627 0.6753 0.42697 0.0
C858 C 0.72475 0.68642 0.42822 0.0
C859 C 0.72744 0.65307 0.44499 0.0
C860 C 0.67953 0.63038 0.45248 0.0
C861 C 0.62977 0.64266 0.44359 0.0
C862 C 0.77429 0.71211 0.41973 0.0
C863 C 0.68068 0.59346 0.47003 0.0
H864 H 0.87606 0.54217 0.45991 0.0
H865 H 0.84083 0.67508 0.49787 0.0
H866 H 0.7602 0.54303 0.43474 0.0
H867 H 0.79594 0.58948 0.41971 0.0
H868 H 0.83113 0.53137 0.43005 0.0
H869 H 0.78205 0.74846 0.48785 0.0
H870 H 0.75197 0.74879 0.46397 0.0
H871 H 0.72117 0.71189 0.4833 0.0
H872 H 0.67233 0.72197 0.4064 0.0
H873 H 0.59291 0.62654 0.44958 0.0
H874 H 0.79172 0.68476 0.40859 0.0
H875 H 0.80582 0.71924 0.43081 0.0
H876 H 0.76377 0.75133 0.41252 0.0
H877 H 0.71013 0.55956 0.46782 0.0
H878 H 0.64048 0.57619 0.47316 0.0
H879 H 0.69405 0.61625 0.48292 0.0
C880 C 0.72835 0.61139 0.70185 0.0
C881 C 0.77844 0.6083 0.71129 0.0
C882 C 0.71077 0.56834 0.69039 0.0
C883 C 0.74439 0.52156 0.68827 0.0
C884 C 0.79759 0.52138 0.6958 0.0
C885 C 0.81388 0.56466 0.7074 0.0
C886 C 0.65401 0.57055 0.68233 0.0
C887 C 0.83533 0.47322 0.69326 0.0
C888 C 0.66457 0.39249 0.68965 0.0
C889 C 0.65931 0.38039 0.66996 0.0
C890 C 0.69474 0.43667 0.69576 0.0
C891 C 0.72006 0.46998 0.68181 0.0
C892 C 0.71747 0.45619 0.66195 0.0
C893 C 0.68731 0.41115 0.65628 0.0
C894 C 0.69652 0.44965 0.71712 0.0
C895 C 0.74472 0.48991 0.64664 0.0
H896 H 0.70089 0.64506 0.70487 0.0
H897 H 0.85291 0.56259 0.71457 0.0
H898 H 0.65355 0.55639 0.66711 0.0
H899 H 0.62814 0.54311 0.6909 0.0
H900 H 0.63601 0.61213 0.68286 0.0
H901 H 0.87784 0.48341 0.69663 0.0
H902 H 0.82302 0.44001 0.70312 0.0
H903 H 0.8332 0.45778 0.67823 0.0
H904 H 0.64298 0.36866 0.70026 0.0
H905 H 0.68261 0.40241 0.64109 0.0
H906 H 0.67532 0.48898 0.71975 0.0
H907 H 0.73895 0.45377 0.72202 0.0
H908 H 0.67719 0.41802 0.72613 0.0
H909 H 0.73786 0.53386 0.64921 0.0
H910 H 0.73019 0.48028 0.63185 0.0
H911 H 0.78895 0.48188 0.64724 0.0
C912 C 0.73394 0.53027 0.02422 0.0
C913 C 0.68312 0.55679 0.02476 0.0
C914 C 0.77807 0.54958 0.03456 0.0
C915 C 0.77078 0.59472 0.04679 0.0
C916 C 0.71891 0.61995 0.04839 0.0
C917 C 0.67564 0.60103 0.03714 0.0
C918 C 0.83278 0.52218 0.03207 0.0
C919 C 0.70931 0.66712 0.06184 0.0
C920 C 0.86981 0.60505 0.08832 0.0
C921 C 0.90041 0.65009 0.08292 0.0
C922 C 0.82747 0.58702 0.07675 0.0
C923 C 0.81688 0.61293 0.0588 0.0
C924 C 0.8507 0.65517 0.05237 0.0
C925 C 0.89184 0.67378 0.06464 0.0
C926 C 0.79206 0.54236 0.08431 0.0
C927 C 0.84196 0.6822 0.03292 0.0
H928 H 0.73974 0.49504 0.01508 0.0
H929 H 0.63659 0.62164 0.03763 0.0
H930 H 0.86325 0.5526 0.02798 0.0
H931 H 0.84622 0.50338 0.04593 0.0
H932 H 0.83237 0.49021 0.02081 0.0
H933 H 0.66625 0.68069 0.06206 0.0
H934 H 0.72182 0.65567 0.07679 0.0
H935 H 0.73431 0.70179 0.05732 0.0
H936 H 0.87654 0.58607 0.10236 0.0
H937 H 0.91493 0.7088 0.0604 0.0
H938 H 0.79189 0.50797 0.07405 0.0
H939 H 0.74975 0.55768 0.08557 0.0
H940 H 0.80553 0.52686 0.0987 0.0
H941 H 0.83824 0.65128 0.02142 0.0
H942 H 0.87541 0.70967 0.02911 0.0
H943 H 0.80366 0.70631 0.03312 0.0
C944 C 0.67258 0.42397 0.28058 0.0
C945 C 0.71183 0.38808 0.28816 0.0
C946 C 0.64281 0.45864 0.29274 0.0
C947 C 0.65351 0.4581 0.3129 0.0
C948 C 0.69029 0.41905 0.32076 0.0
C949 C 0.71887 0.38417 0.30826 0.0
C950 C 0.60308 0.49878 0.2838 0.0
C951 C 0.70299 0.41723 0.34214 0.0
C952 C 0.64016 0.59777 0.33497 0.0
C953 C 0.58952 0.59576 0.34393 0.0
C954 C 0.66241 0.5523 0.32566 0.0
C955 C 0.63291 0.50369 0.32502 0.0
C956 C 0.58263 0.50068 0.33468 0.0
C957 C 0.56159 0.54679 0.34415 0.0
C958 C 0.71659 0.55707 0.31582 0.0
C959 C 0.54988 0.44975 0.3342 0.0
H960 H 0.66707 0.4267 0.26501 0.0
H961 H 0.74955 0.35659 0.31409 0.0
H962 H 0.56484 0.49999 0.29215 0.0
H963 H 0.62024 0.53999 0.2842 0.0
H964 H 0.59372 0.48886 0.2685 0.0
H965 H 0.72502 0.37926 0.34635 0.0
H966 H 0.7286 0.45211 0.34588 0.0
H967 H 0.66549 0.42077 0.35084 0.0
H968 H 0.66206 0.63542 0.33492 0.0
H969 H 0.52213 0.54523 0.35091 0.0
H970 H 0.71135 0.55376 0.29991 0.0
H971 H 0.74418 0.52349 0.32052 0.0
H972 H 0.73616 0.5962 0.31897 0.0
H973 H 0.53414 0.44371 0.31933 0.0
H974 H 0.51513 0.45167 0.34435 0.0
H975 H 0.57552 0.41377 0.3379 0.0
C976 C 0.84487 0.44058 0.5392 0.0
C977 C 0.85398 0.49638 0.53961 0.0
C978 C 0.80347 0.41784 0.55032 0.0
C979 C 0.77099 0.45181 0.56225 0.0
C980 C 0.78261 0.5076 0.56367 0.0
C981 C 0.82364 0.52933 0.55216 0.0
C982 C 0.79212 0.35825 0.54821 0.0
C983 C 0.74973 0.54487 0.57651 0.0
C984 C 0.62693 0.40619 0.57021 0.0
C985 C 0.63061 0.38171 0.58852 0.0
C986 C 0.67199 0.43062 0.56177 0.0
C987 C 0.72203 0.42998 0.57182 0.0
C988 C 0.72557 0.4063 0.59052 0.0
C989 C 0.67984 0.38209 0.59857 0.0
C990 C 0.66659 0.4551 0.54174 0.0
C991 C 0.77826 0.40395 0.60157 0.0
H992 H 0.86783 0.41531 0.52926 0.0
H993 H 0.8307 0.57258 0.55239 0.0
H994 H 0.78375 0.33941 0.56248 0.0
H995 H 0.75561 0.35342 0.53907 0.0
H996 H 0.8263 0.33585 0.54131 0.0
H997 H 0.76743 0.5858 0.57753 0.0
H998 H 0.70807 0.5493 0.57066 0.0
H999 H 0.74662 0.52737 0.5913 0.0
H1000 H 0.58916 0.40465 0.56226 0.0
H1001 H 0.68353 0.36015 0.61214 0.0
H1002 H 0.69291 0.43233 0.53152 0.0
H1003 H 0.68022 0.49768 0.54179 0.0
H1004 H 0.62438 0.45445 0.53625 0.0
H1005 H 0.80753 0.37699 0.59395 0.0
H1006 H 0.77314 0.3884 0.61658 0.0
H1007 H 0.79614 0.4448 0.60221 0.0
C1008 C 0.76799 0.58198 0.78721 0.0
C1009 C 0.80735 0.61899 0.78147 0.0
C1010 C 0.78002 0.54013 0.80056 0.0
C1011 C 0.83289 0.53483 0.80831 0.0
C1012 C 0.8718 0.57428 0.80349 0.0
C1013 C 0.85856 0.61586 0.79011 0.0
C1014 C 0.73723 0.49938 0.80528 0.0
C1015 C 0.92861 0.57043 0.81145 0.0
C1016 C 0.86991 0.44527 0.85168 0.0
C1017 C 0.89612 0.40114 0.84275 0.0
C1018 C 0.84589 0.48749 0.84068 0.0
C1019 C 0.84896 0.48604 0.82021 0.0
C1020 C 0.87181 0.43947 0.81113 0.0
C1021 C 0.89498 0.39748 0.82253 0.0
C1022 C 0.82147 0.53573 0.85103 0.0
C1023 C 0.87604 0.43601 0.78937 0.0
H1024 H 0.72868 0.58368 0.78022 0.0
H1025 H 0.8894 0.64354 0.78534 0.0
H1026 H 0.7478 0.4601 0.79838 0.0
H1027 H 0.73526 0.49212 0.82113 0.0
H1028 H 0.69661 0.5128 0.80005 0.0
H1029 H 0.95248 0.60674 0.80776 0.0
H1030 H 0.92785 0.56563 0.82743 0.0
H1031 H 0.9496 0.53409 0.80547 0.0
H1032 H 0.87196 0.44882 0.86731 0.0
H1033 H 0.91675 0.36437 0.81559 0.0
H1034 H 0.78254 0.54847 0.84425 0.0
H1035 H 0.84923 0.57039 0.84988 0.0
H1036 H 0.81449 0.527 0.86662 0.0
H1037 H 0.83671 0.44672 0.78247 0.0
H1038 H 0.88895 0.39489 0.78454 0.0
H1039 H 0.90604 0.46553 0.78413 0.0
C1040 C 0.34826 0.50271 0.05693 0.0
C1041 C 0.38038 0.53718 0.04565 0.0
C1042 C 0.3066 0.52322 0.06883 0.0
C1043 C 0.29683 0.57987 0.06979 0.0
C1044 C 0.33167 0.61494 0.0595 0.0
C1045 C 0.37286 0.59328 0.04753 0.0
C1046 C 0.27105 0.48401 0.07949 0.0
C1047 C 0.32427 0.67549 0.06063 0.0
C1048 C 0.15639 0.63873 0.08237 0.0
C1049 C 0.16382 0.65511 0.10157 0.0
C1050 C 0.19864 0.61238 0.07207 0.0
C1051 C 0.24959 0.60236 0.08114 0.0
C1052 C 0.25585 0.61589 0.1009 0.0
C1053 C 0.21313 0.64197 0.11079 0.0
C1054 C 0.18979 0.59817 0.05111 0.0
C1055 C 0.30884 0.606 0.11134 0.0
H1056 H 0.35354 0.45919 0.05543 0.0
H1057 H 0.39683 0.62015 0.0387 0.0
H1058 H 0.26819 0.49492 0.09501 0.0
H1059 H 0.22953 0.48643 0.07339 0.0
H1060 H 0.28623 0.44146 0.07839 0.0
H1061 H 0.28246 0.68745 0.05633 0.0
H1062 H 0.3303 0.68839 0.07582 0.0
H1063 H 0.35316 0.69737 0.05126 0.0
H1064 H 0.11908 0.64993 0.07498 0.0
H1065 H 0.21944 0.65519 0.12557 0.0
H1066 H 0.20206 0.55534 0.04848 0.0
H1067 H 0.21541 0.62396 0.04181 0.0
H1068 H 0.14694 0.60417 0.04661 0.0
H1069 H 0.30531 0.61299 0.12717 0.0
H1070 H 0.33961 0.6337 0.10545 0.0
H1071 H 0.32389 0.56392 0.10898 0.0
C1072 C 0.20406 0.56492 0.75898 0.0
C1073 C 0.18115 0.61717 0.7614 0.0
C1074 C 0.18642 0.52041 0.76971 0.0
C1075 C 0.14753 0.52842 0.78438 0.0
C1076 C 0.12688 0.58162 0.78796 0.0
C1077 C 0.14336 0.6254 0.77622 0.0
C1078 C 0.20863 0.46453 0.76496 0.0
C1079 C 0.08742 0.59216 0.80417 0.0
C1080 C 0.07008 0.40818 0.80486 0.0
C1081 C 0.10144 0.39467 0.82118 0.0
C1082 C 0.08512 0.45089 0.7924 0.0
C1083 C 0.1317 0.48142 0.79672 0.0
C1084 C 0.16462 0.46608 0.81267 0.0
C1085 C 0.1498 0.42227 0.82435 0.0
C1086 C 0.04999 0.46473 0.77512 0.0
C1087 C 0.21392 0.49791 0.81813 0.0
H1088 H 0.23469 0.5583 0.748 0.0
H1089 H 0.12573 0.6655 0.77828 0.0
H1090 H 0.23255 0.4481 0.77734 0.0
H1091 H 0.17494 0.43638 0.7624 0.0
H1092 H 0.23491 0.46469 0.75194 0.0
H1093 H 0.07372 0.63528 0.80472 0.0
H1094 H 0.05159 0.56633 0.80249 0.0
H1095 H 0.10662 0.58108 0.81823 0.0
H1096 H 0.0322 0.38783 0.80251 0.0
H1097 H 0.17421 0.41207 0.83697 0.0
H1098 H 0.07513 0.4686 0.76191 0.0
H1099 H 0.02917 0.50438 0.77743 0.0
H1100 H 0.01886 0.4337 0.77256 0.0
H1101 H 0.24353 0.49758 0.80611 0.0
H1102 H 0.23431 0.48154 0.83133 0.0
H1103 H 0.20209 0.54087 0.82074 0.0
C1104 C 0.17936 0.51448 0.54958 0.0
C1105 C 0.1534 0.47494 0.53869 0.0
C1106 C 0.22277 0.50027 0.56189 0.0
C1107 C 0.24064 0.44544 0.56303 0.0
C1108 C 0.21177 0.40504 0.55309 0.0
C1109 C 0.16854 0.42038 0.54096 0.0
C1110 C 0.25198 0.54432 0.57248 0.0
C1111 C 0.22921 0.34609 0.554 0.0
C1112 C 0.38846 0.4062 0.56924 0.0
C1113 C 0.38912 0.38488 0.58805 0.0
C1114 C 0.34096 0.42926 0.56133 0.0
C1115 C 0.29297 0.43066 0.57252 0.0
C1116 C 0.29428 0.4118 0.59191 0.0
C1117 C 0.34215 0.38829 0.59932 0.0
C1118 C 0.3413 0.44884 0.54057 0.0
C1119 C 0.24433 0.41276 0.6044 0.0
H1120 H 0.16804 0.5568 0.54748 0.0
H1121 H 0.14883 0.39013 0.53224 0.0
H1122 H 0.26044 0.53191 0.58768 0.0
H1123 H 0.29141 0.55138 0.56538 0.0
H1124 H 0.22842 0.58313 0.57249 0.0
H1125 H 0.19943 0.31936 0.54698 0.0
H1126 H 0.26863 0.34067 0.54656 0.0
H1127 H 0.23491 0.33278 0.56925 0.0
H1128 H 0.42452 0.40262 0.56041 0.0
H1129 H 0.34165 0.36908 0.61346 0.0
H1130 H 0.32308 0.49019 0.53945 0.0
H1131 H 0.31649 0.4217 0.53155 0.0
H1132 H 0.38277 0.44956 0.53446 0.0
H1133 H 0.2213 0.45149 0.60254 0.0
H1134 H 0.25447 0.4073 0.61999 0.0
H1135 H 0.21755 0.37942 0.60001 0.0
C1136 C 0.32564 0.42816 0.30277 0.0
C1137 C 0.2696 0.42519 0.30051 0.0
C1138 C 0.34845 0.47009 0.31353 0.0
C1139 C 0.31413 0.50936 0.32237 0.0
C1140 C 0.25739 0.50338 0.32159 0.0
C1141 C 0.23573 0.46166 0.31043 0.0
C1142 C 0.40917 0.47509 0.31388 0.0
C1143 C 0.21954 0.5435 0.33125 0.0
C1144 C 0.38271 0.60726 0.35628 0.0
C1145 C 0.39107 0.65191 0.34405 0.0
C1146 C 0.35547 0.56147 0.34975 0.0
C1147 C 0.33746 0.55974 0.33033 0.0
C1148 C 0.34496 0.60514 0.31798 0.0
C1149 C 0.37177 0.6507 0.325 0.0
C1150 C 0.3484 0.51396 0.36335 0.0
C1151 C 0.32687 0.60465 0.29708 0.0
H1152 H 0.35169 0.40051 0.29476 0.0
H1153 H 0.19235 0.45959 0.30842 0.0
H1154 H 0.421 0.50916 0.30431 0.0
H1155 H 0.42365 0.48433 0.32868 0.0
H1156 H 0.43005 0.43755 0.3088 0.0
H1157 H 0.17744 0.52873 0.33177 0.0
H1158 H 0.23325 0.55189 0.34623 0.0
H1159 H 0.21955 0.58244 0.32312 0.0
H1160 H 0.40065 0.60666 0.37058 0.0
H1161 H 0.37923 0.68471 0.31541 0.0
H1162 H 0.37333 0.47894 0.35835 0.0
H1163 H 0.30567 0.50118 0.36334 0.0
H1164 H 0.36046 0.52355 0.37843 0.0
H1165 H 0.34927 0.57227 0.28919 0.0
H1166 H 0.33371 0.64397 0.28963 0.0
H1167 H 0.28326 0.59539 0.29616 0.0
C1168 C 0.35916 0.38281 0.98385 0.0
C1169 C 0.36543 0.43889 0.98492 0.0
C1170 C 0.31671 0.36108 0.973 0.0
C1171 C 0.28036 0.39661 0.96299 0.0
C1172 C 0.28776 0.45336 0.96376 0.0
C1173 C 0.33024 0.47374 0.97473 0.0
C1174 C 0.3113 0.30035 0.97245 0.0
C1175 C 0.2499 0.49278 0.95343 0.0
C1176 C 0.19509 0.36183 0.91972 0.0
C1177 C 0.14329 0.36029 0.92788 0.0
C1178 C 0.24089 0.36886 0.93128 0.0
C1179 C 0.23459 0.37577 0.95143 0.0
C1180 C 0.18282 0.37056 0.95993 0.0
C1181 C 0.13757 0.36231 0.94801 0.0
C1182 C 0.29568 0.37168 0.9218 0.0
C1183 C 0.17497 0.37656 0.98147 0.0
H1184 H 0.3862 0.35615 0.99203 0.0
H1185 H 0.33499 0.51722 0.97594 0.0
H1186 H 0.26896 0.28825 0.97005 0.0
H1187 H 0.33645 0.28409 0.96046 0.0
H1188 H 0.32623 0.2812 0.98611 0.0
H1189 H 0.261 0.53568 0.95575 0.0
H1190 H 0.2502 0.48473 0.93764 0.0
H1191 H 0.20793 0.48726 0.95861 0.0
H1192 H 0.19975 0.35833 0.90416 0.0
H1193 H 0.09761 0.36012 0.95433 0.0
H1194 H 0.32548 0.34585 0.92983 0.0
H1195 H 0.31009 0.41397 0.92224 0.0
H1196 H 0.29465 0.35842 0.90646 0.0
H1197 H 0.20399 0.34965 0.98941 0.0
H1198 H 0.13325 0.36673 0.98602 0.0
H1199 H 0.18333 0.4189 0.98573 0.0
C1200 C 0.20616 0.60849 0.68605 0.0
C1201 C 0.2396 0.64513 0.69565 0.0
C1202 C 0.22821 0.56347 0.67625 0.0
C1203 C 0.28498 0.55533 0.67588 0.0
C1204 C 0.31877 0.59629 0.68317 0.0
C1205 C 0.29563 0.64081 0.69295 0.0
C1206 C 0.1906 0.52159 0.66831 0.0
C1207 C 0.37953 0.59007 0.68267 0.0
C1208 C 0.34514 0.41333 0.68244 0.0
C1209 C 0.36458 0.40188 0.66388 0.0
C1210 C 0.31695 0.46211 0.68626 0.0
C1211 C 0.3087 0.5008 0.67117 0.0
C1212 C 0.32668 0.48848 0.65222 0.0
C1213 C 0.35501 0.43943 0.64889 0.0
C1214 C 0.29808 0.47323 0.70667 0.0
C1215 C 0.31885 0.5282 0.63569 0.0
H1216 H 0.16276 0.61183 0.688 0.0
H1217 H 0.32177 0.66877 0.70036 0.0
H1218 H 0.20567 0.50538 0.65434 0.0
H1219 H 0.18852 0.48713 0.67867 0.0
H1220 H 0.14906 0.53848 0.66615 0.0
H1221 H 0.39979 0.62875 0.68596 0.0
H1222 H 0.39269 0.55929 0.69358 0.0
H1223 H 0.39325 0.57566 0.66828 0.0
H1224 H 0.35353 0.38477 0.69412 0.0
H1225 H 0.37282 0.43217 0.63484 0.0
H1226 H 0.25446 0.48455 0.70669 0.0
H1227 H 0.32034 0.50797 0.71268 0.0
H1228 H 0.30449 0.43769 0.71642 0.0
H1229 H 0.27722 0.54571 0.63569 0.0
H1230 H 0.32661 0.50899 0.62143 0.0
H1231 H 0.34713 0.56217 0.63744 0.0
C1232 C 0.18772 0.48528 0.4628 0.0
C1233 C 0.14997 0.52364 0.4697 0.0
C1234 C 0.22978 0.50076 0.45046 0.0
C1235 C 0.23455 0.55601 0.44522 0.0
C1236 C 0.19329 0.59372 0.45055 0.0
C1237 C 0.15121 0.57693 0.46266 0.0
C1238 C 0.27196 0.45898 0.44469 0.0
C1239 C 0.19664 0.65303 0.44525 0.0
C1240 C 0.3733 0.61803 0.44394 0.0
C1241 C 0.38017 0.62836 0.42417 0.0
C1242 C 0.32718 0.59212 0.45082 0.0
C1243 C 0.28669 0.57629 0.43756 0.0
C1244 C 0.29463 0.5843 0.41745 0.0
C1245 C 0.34127 0.61065 0.411 0.0
C1246 C 0.32044 0.58459 0.47241 0.0
C1247 C 0.25293 0.56718 0.40284 0.0
H1248 H 0.18659 0.44393 0.4682 0.0
H1249 H 0.12228 0.60669 0.46809 0.0
H1250 H 0.28495 0.46539 0.42949 0.0
H1251 H 0.30808 0.46289 0.45409 0.0
H1252 H 0.25685 0.41707 0.44627 0.0
H1253 H 0.15801 0.67532 0.44803 0.0
H1254 H 0.22891 0.67184 0.45397 0.0
H1255 H 0.20736 0.65808 0.42977 0.0
H1256 H 0.40311 0.6324 0.45414 0.0
H1257 H 0.34533 0.62069 0.39585 0.0
H1258 H 0.31218 0.54157 0.47586 0.0
H1259 H 0.28531 0.60923 0.47748 0.0
H1260 H 0.35678 0.5968 0.48066 0.0
H1261 H 0.24846 0.52254 0.40353 0.0
H1262 H 0.26393 0.57877 0.38781 0.0
H1263 H 0.21293 0.58573 0.40629 0.0
C1264 C 0.23242 0.43275 0.21698 0.0
C1265 C 0.20116 0.43258 0.23388 0.0
C1266 C 0.22516 0.47385 0.20286 0.0
C1267 C 0.18591 0.51565 0.20582 0.0
C1268 C 0.15269 0.51405 0.22248 0.0
C1269 C 0.16061 0.47252 0.23622 0.0
C1270 C 0.26091 0.47379 0.1852 0.0
C1271 C 0.10981 0.55724 0.22613 0.0
C1272 C 0.19103 0.65672 0.18301 0.0
C1273 C 0.14916 0.654 0.16939 0.0
C1274 C 0.206 0.6108 0.19424 0.0
C1275 C 0.17867 0.56123 0.19163 0.0
C1276 C 0.13922 0.55754 0.17689 0.0
C1277 C 0.12505 0.60379 0.16599 0.0
C1278 C 0.24832 0.61638 0.20982 0.0
C1279 C 0.10937 0.50564 0.17347 0.0
H1280 H 0.26431 0.40241 0.21529 0.0
H1281 H 0.13648 0.47244 0.24931 0.0
H1282 H 0.23611 0.47792 0.17185 0.0
H1283 H 0.28791 0.50914 0.18568 0.0
H1284 H 0.28624 0.43624 0.18422 0.0
H1285 H 0.08939 0.55171 0.24028 0.0
H1286 H 0.12801 0.59799 0.22586 0.0
H1287 H 0.07884 0.55656 0.21449 0.0
H1288 H 0.20973 0.69532 0.18572 0.0
H1289 H 0.09313 0.60115 0.15527 0.0
H1290 H 0.27807 0.58222 0.20917 0.0
H1291 H 0.22872 0.61479 0.22424 0.0
H1292 H 0.27017 0.65515 0.20855 0.0
H1293 H 0.13835 0.47108 0.17191 0.0
H1294 H 0.08339 0.50803 0.16034 0.0
H1295 H 0.08347 0.49677 0.18615 0.0
loop_
_geom_bond_atom_site_label_1
_geom_bond_atom_site_label_2
_geom_bond_distance
_geom_bond_site_symmetry_2
_ccdc_geom_bond_type
H0 C6 0.930 . S
H1 C9 0.931 . S
H2 C11 0.931 . S
H3 C13 0.930 . S
H4 C15 0.930 . S
H5 C17 0.931 . S
C6 H0 0.930 . S
C6 C7 1.380 1_545 S
C6 C8 1.394 . S
C7 C6 1.380 1_565 S
C7 C11 1.382 . S
C8 C6 1.394 . S
C8 C9 1.400 . S
C9 H1 0.931 . S
C9 C8 1.400 . S
C9 C10 1.375 . S
C10 C9 1.375 . S
C10 C11 1.415 1_545 S
C10 C12 1.501 1_655 S
C11 H2 0.931 . S
C11 C7 1.382 . S
C11 C10 1.415 1_565 S
C12 C10 1.501 1_455 S
C12 C13 1.384 1_545 S
C12 C17 1.408 . S
C13 H3 0.930 . S
C13 C12 1.384 1_565 S
C13 C14 1.389 . S
C14 C13 1.389 . S
C14 C15 1.405 1_565 S
C15 H4 0.930 . S
C15 C14 1.405 1_545 S
C15 C16 1.364 . S
C16 C15 1.364 . S
C16 C17 1.400 . S
C17 H5 0.931 . S
C17 C12 1.408 . S
C17 C16 1.400 . S
H18 C24 0.930 . S
H19 C27 0.931 . S
H20 C29 0.931 . S
H21 C31 0.930 . S
H22 C33 0.930 . S
H23 C35 0.931 . S
C24 H18 0.930 . S
C24 C25 1.380 . S
C24 C26 1.394 . S
C25 C24 1.380 . S
C25 C29 1.382 . S
C26 C24 1.394 . S
C26 C27 1.400 . S
C27 H19 0.931 . S
C27 C26 1.400 . S
C27 C28 1.375 . S
C28 C27 1.375 . S
C28 C29 1.415 . S
C28 C30 1.501 . S
C29 H20 0.931 . S
C29 C25 1.382 . S
C29 C28 1.415 . S
C30 C28 1.501 . S
C30 C31 1.384 . S
C30 C35 1.408 . S
C31 H21 0.930 . S
C31 C30 1.384 . S
C31 C32 1.389 . S
C32 C31 1.389 . S
C32 C33 1.405 . S
C33 H22 0.930 . S
C33 C32 1.405 . S
C33 C34 1.364 . S
C34 C33 1.364 . S
C34 C35 1.400 . S
C35 H23 0.931 . S
C35 C30 1.408 . S
C35 C34 1.400 . S
H36 C42 0.930 . S
H37 C45 0.931 . S
H38 C47 0.931 . S
H39 C49 0.930 . S
H40 C51 0.930 . S
H41 C53 0.931 . S
C42 H36 0.930 . S
C42 C43 1.375 1_564 S
C42 C44 1.399 . S
C43 C42 1.375 1_546 S
C43 C47 1.382 . S
C44 C42 1.399 . S
C44 C45 1.400 . S
C45 H37 0.931 . S
C45 C44 1.400 . S
C45 C46 1.375 1_565 S
C46 C45 1.375 1_545 S
C46 C47 1.415 1_554 S
C46 C48 1.501 . S
C47 H38 0.931 . S
C47 C43 1.382 . S
C47 C46 1.415 1_556 S
C48 C46 1.501 . S
C48 C49 1.384 1_554 S
C48 C53 1.408 1_545 S
C49 H39 0.930 . S
C49 C48 1.384 1_556 S
C49 C50 1.389 . S
C50 C49 1.389 . S
C50 C51 1.405 1_556 S
C51 H40 0.930 . S
C51 C50 1.405 1_554 S
C51 C52 1.364 1_545 S
C52 C51 1.364 1_565 S
C52 C53 1.400 . S
C53 H41 0.931 . S
C53 C48 1.408 1_565 S
C53 C52 1.400 . S
H54 C60 0.930 . S
H55 C63 0.931 . S
H56 C65 0.931 . S
H57 C67 0.930 . S
H58 C69 0.930 . S
H59 C71 0.931 . S
C60 H54 0.930 . S
C60 C61 1.380 . S
C60 C62 1.394 . S
C61 C60 1.380 . S
C61 C65 1.382 . S
C62 C60 1.394 . S
C62 C63 1.400 . S
C63 H55 0.931 . S
C63 C62 1.400 . S
C63 C64 1.375 . S
C64 C63 1.375 . S
C64 C65 1.415 . S
C64 C66 1.501 . S
C65 H56 0.931 . S
C65 C61 1.382 . S
C65 C64 1.415 . S
C66 C64 1.501 . S
C66 C67 1.384 . S
C66 C71 1.408 . S
C67 H57 0.930 . S
C67 C66 1.384 . S
C67 C68 1.389 . S
C68 C67 1.389 . S
C68 C69 1.405 . S
C69 H58 0.930 . S
C69 C68 1.405 . S
C69 C70 1.364 . S
C70 C69 1.364 . S
C70 C71 1.400 . S
C71 H59 0.931 . S
C71 C66 1.408 . S
C71 C70 1.400 . S
H72 C78 0.930 . S
H73 C81 0.931 . S
H74 C83 0.931 . S
H75 C85 0.930 . S
H76 C87 0.930 . S
H77 C89 0.931 . S
C78 H72 0.930 . S
C78 C79 1.380 . S
C78 C80 1.394 . S
C79 C78 1.380 . S
C79 C83 1.382 . S
C80 C78 1.394 . S
C80 C81 1.400 . S
C81 H73 0.931 . S
C81 C80 1.400 . S
C81 C82 1.375 . S
C82 C81 1.375 . S
C82 C83 1.415 . S
C82 C84 1.501 . S
C83 H74 0.931 . S
C83 C79 1.382 . S
C83 C82 1.415 . S
C84 C82 1.501 . S
C84 C85 1.384 . S
C84 C89 1.408 . S
C85 H75 0.930 . S
C85 C84 1.384 . S
C85 C86 1.389 . S
C86 C85 1.389 . S
C86 C87 1.405 . S
C87 H76 0.930 . S
C87 C86 1.405 . S
C87 C88 1.364 . S
C88 C87 1.364 . S
C88 C89 1.400 . S
C89 H77 0.931 . S
C89 C84 1.408 . S
C89 C88 1.400 . S
H90 C96 0.930 . S
H91 C99 0.931 . S
H92 C101 0.931 . S
H93 C103 0.930 . S
H94 C105 0.930 . S
H95 C107 0.931 . S
C96 H90 0.930 . S
C96 C97 1.380 . S
C96 C98 1.394 . S
C97 C96 1.380 . S
C97 C101 1.382 . S
C98 C96 1.394 . S
C98 C99 1.400 . S
C99 H91 0.931 . S
C99 C98 1.400 . S
C99 C100 1.375 . S
C100 C99 1.375 . S
C100 C101 1.415 . S
C100 C102 1.501 . S
C101 H92 0.931 . S
C101 C97 1.382 . S
C101 C100 1.415 . S
C102 C100 1.501 . S
C102 C103 1.384 . S
C102 C107 1.408 . S
C103 H93 0.930 . S
C103 C102 1.384 . S
C103 C104 1.389 . S
C104 C103 1.389 . S
C104 C105 1.405 . S
C105 H94 0.930 . S
C105 C104 1.405 . S
C105 C106 1.364 . S
C106 C105 1.364 . S
C106 C107 1.400 . S
C107 H95 0.931 . S
C107 C102 1.408 . S
C107 C106 1.400 . S
H108 C114 0.930 . S
H109 C117 0.931 . S
H110 C119 0.931 . S
H111 C121 0.930 . S
H112 C123 0.930 . S
H113 C125 0.931 . S
C114 H108 0.930 . S
C114 C115 1.380 . S
C114 C116 1.394 1_554 S
C115 C114 1.380 . S
C115 C119 1.382 . S
C116 C114 1.394 1_556 S
C116 C117 1.400 . S
C117 H109 0.931 . S
C117 C116 1.400 . S
C117 C118 1.375 1_556 S
C118 C117 1.375 1_554 S
C118 C119 1.415 . S
C118 C120 1.501 . S
C119 H110 0.931 . S
C119 C115 1.382 . S
C119 C118 1.415 . S
C120 C118 1.501 . S
C120 C121 1.384 . S
C120 C125 1.408 1_554 S
C121 H111 0.930 . S
C121 C120 1.384 . S
C121 C122 1.389 . S
C122 C121 1.389 . S
C122 C123 1.405 . S
C123 H112 0.930 . S
C123 C122 1.405 . S
C123 C124 1.364 1_554 S
C124 C123 1.364 1_556 S
C124 C125 1.400 . S
C125 H113 0.931 . S
C125 C120 1.408 1_556 S
C125 C124 1.400 . S
H126 C132 0.930 . S
H127 C135 0.931 . S
H128 C137 0.931 . S
H129 C139 0.930 . S
H130 C141 0.930 . S
H131 C143 0.931 . S
C132 H126 0.930 . S
C132 C133 1.380 . S
C132 C134 1.394 . S
C133 C132 1.380 . S
C133 C137 1.382 . S
C134 C132 1.394 . S
C134 C135 1.400 . S
C135 H127 0.931 . S
C135 C134 1.400 . S
C135 C136 1.375 . S
C136 C135 1.375 . S
C136 C137 1.415 . S
C136 C138 1.501 1_455 S
C137 H128 0.931 . S
C137 C133 1.382 . S
C137 C136 1.415 . S
C138 C136 1.501 1_655 S
C138 C139 1.384 . S
C138 C143 1.408 . S
C139 H129 0.930 . S
C139 C138 1.384 . S
C139 C140 1.389 . S
C140 C139 1.389 . S
C140 C141 1.405 . S
C141 H130 0.930 . S
C141 C140 1.405 . S
C141 C142 1.364 . S
C142 C141 1.364 . S
C142 C143 1.400 . S
C143 H131 0.931 . S
C143 C138 1.408 . S
C143 C142 1.400 . S
Fe144 O145 1.886 . S
Fe144 O148 1.715 1_455 S
Fe144 O153 2.077 . S
Fe144 O158 1.935 1_455 S
Fe144 O164 2.077 . S
Fe144 O173 1.935 1_455 S
O145 Fe144 1.886 . S
O145 Fe147 1.715 . S
Fe146 O148 1.886 . S
Fe146 O149 1.715 . S
Fe146 O156 1.935 . S
Fe146 O157 2.077 . S
Fe146 O163 1.935 . S
Fe146 O172 2.077 . S
Fe147 O145 1.715 . S
Fe147 O150 1.886 . S
Fe147 O154 1.935 . S
Fe147 O159 2.077 . S
Fe147 O165 1.935 . S
Fe147 O169 2.077 . S
O148 Fe144 1.715 1_655 S
O148 Fe146 1.886 . S
O149 Fe146 1.715 . S
O149 Fe151 1.886 . S
O150 Fe147 1.886 . S
O150 Fe151 1.715 1_455 S
Fe151 O149 1.886 . S
Fe151 O150 1.715 1_655 S
Fe151 O155 2.077 . S
Fe151 O160 1.935 1_655 S
Fe151 O162 2.077 . S
Fe151 O170 1.935 1_655 S
C152 O164 1.381 . S
C152 O165 1.421 . S
O153 Fe144 2.077 . S
O153 C166 1.381 . S
O154 Fe147 1.935 . S
O154 C166 1.421 . S
O155 Fe151 2.077 . S
O155 C171 1.381 . S
O156 Fe146 1.935 . S
O156 C171 1.421 . S
O157 Fe146 2.077 . S
O157 C161 1.381 . S
O158 Fe144 1.935 1_655 S
O158 C161 1.421 . S
O159 Fe147 2.077 . S
O159 C167 1.381 . S
O160 Fe151 1.935 1_455 S
O160 C167 1.421 . S
C161 O157 1.381 . S
C161 O158 1.421 . S
O162 Fe151 2.077 . S
O162 C174 1.381 . S
O163 Fe146 1.935 . S
O163 C174 1.421 . S
O164 Fe144 2.077 . S
O164 C152 1.381 . S
O165 Fe147 1.935 . S
O165 C152 1.421 . S
C166 O153 1.381 . S
C166 O154 1.421 . S
C167 O159 1.381 . S
C167 O160 1.421 . S
C168 O169 1.381 . S
C168 O170 1.421 . S
O169 Fe147 2.077 . S
O169 C168 1.381 . S
O170 Fe151 1.935 1_455 S
O170 C168 1.421 . S
C171 O155 1.381 . S
C171 O156 1.421 . S
O172 Fe146 2.077 . S
O172 C175 1.381 . S
O173 Fe144 1.935 1_655 S
O173 C175 1.421 . S
C174 O162 1.381 . S
C174 O163 1.421 . S
C175 O172 1.381 . S
C175 O173 1.421 . S
Fe176 O177 1.886 . S
Fe176 O180 1.715 . S
Fe176 O185 2.077 . S
Fe176 O190 1.935 . S
Fe176 O196 2.077 . S
Fe176 O205 1.935 . S
O177 Fe176 1.886 . S
O177 Fe179 1.715 . S
Fe178 O180 1.886 . S
Fe178 O181 1.715 . S
Fe178 O188 1.935 . S
Fe178 O189 2.077 . S
Fe178 O195 1.935 . S
Fe178 O204 2.077 . S
Fe179 O177 1.715 . S
Fe179 O182 1.886 . S
Fe179 O186 1.935 . S
Fe179 O191 2.077 . S
Fe179 O197 1.935 . S
Fe179 O201 2.077 . S
O180 Fe176 1.715 . S
O180 Fe178 1.886 . S
O181 Fe178 1.715 . S
O181 Fe183 1.886 . S
O182 Fe179 1.886 . S
O182 Fe183 1.715 . S
Fe183 O181 1.886 . S
Fe183 O182 1.715 . S
Fe183 O187 2.077 . S
Fe183 O192 1.935 . S
Fe183 O194 2.077 . S
Fe183 O202 1.935 . S
C184 O196 1.381 . S
C184 O197 1.421 . S
O185 Fe176 2.077 . S
O185 C198 1.381 . S
O186 Fe179 1.935 . S
O186 C198 1.421 . S
O187 Fe183 2.077 . S
O187 C203 1.381 . S
O188 Fe178 1.935 . S
O188 C203 1.421 . S
O189 Fe178 2.077 . S
O189 C193 1.381 . S
O190 Fe176 1.935 . S
O190 C193 1.421 . S
O191 Fe179 2.077 . S
O191 C199 1.381 . S
O192 Fe183 1.935 . S
O192 C199 1.421 . S
C193 O189 1.381 . S
C193 O190 1.421 . S
O194 Fe183 2.077 . S
O194 C206 1.381 . S
O195 Fe178 1.935 . S
O195 C206 1.421 . S
O196 Fe176 2.077 . S
O196 C184 1.381 . S
O197 Fe179 1.935 . S
O197 C184 1.421 . S
C198 O185 1.381 . S
C198 O186 1.421 . S
C199 O191 1.381 . S
C199 O192 1.421 . S
C200 O201 1.381 . S
C200 O202 1.421 . S
O201 Fe179 2.077 . S
O201 C200 1.381 . S
O202 Fe183 1.935 . S
O202 C200 1.421 . S
C203 O187 1.381 . S
C203 O188 1.421 . S
O204 Fe178 2.077 . S
O204 C207 1.381 . S
O205 Fe176 1.935 . S
O205 C207 1.421 . S
C206 O194 1.381 . S
C206 O195 1.421 . S
C207 O204 1.381 . S
C207 O205 1.421 . S
Fe208 O209 1.886 . S
Fe208 O212 1.715 . S
Fe208 O217 2.077 . S
Fe208 O222 1.935 . S
Fe208 O228 2.077 . S
Fe208 O237 1.935 . S
O209 Fe208 1.886 . S
O209 Fe211 1.715 . S
Fe210 O212 1.886 . S
Fe210 O213 1.715 . S
Fe210 O220 1.935 . S
Fe210 O221 2.077 . S
Fe210 O227 1.935 . S
Fe210 O236 2.077 . S
Fe211 O209 1.715 . S
Fe211 O214 1.886 . S
Fe211 O218 1.935 . S
Fe211 O223 2.077 . S
Fe211 O229 1.935 . S
Fe211 O233 2.077 . S
O212 Fe208 1.715 . S
O212 Fe210 1.886 . S
O213 Fe210 1.715 . S
O213 Fe215 1.886 . S
O214 Fe211 1.886 . S
O214 Fe215 1.715 . S
Fe215 O213 1.886 . S
Fe215 O214 1.715 . S
Fe215 O219 2.077 . S
Fe215 O224 1.935 . S
Fe215 O226 2.077 . S
Fe215 O234 1.935 . S
C216 O228 1.381 . S
C216 O229 1.421 . S
O217 Fe208 2.077 . S
O217 C230 1.381 . S
O218 Fe211 1.935 . S
O218 C230 1.421 . S
O219 Fe215 2.077 . S
O219 C235 1.381 . S
O220 Fe210 1.935 . S
O220 C235 1.421 . S
O221 Fe210 2.077 . S
O221 C225 1.381 . S
O222 Fe208 1.935 . S
O222 C225 1.421 . S
O223 Fe211 2.077 . S
O223 C231 1.381 . S
O224 Fe215 1.935 . S
O224 C231 1.421 . S
C225 O221 1.381 . S
C225 O222 1.421 . S
O226 Fe215 2.077 . S
O226 C238 1.381 . S
O227 Fe210 1.935 . S
O227 C238 1.421 . S
O228 Fe208 2.077 . S
O228 C216 1.381 . S
O229 Fe211 1.935 . S
O229 C216 1.421 . S
C230 O217 1.381 . S
C230 O218 1.421 . S
C231 O223 1.381 . S
C231 O224 1.421 . S
C232 O233 1.381 . S
C232 O234 1.421 . S
O233 Fe211 2.077 . S
O233 C232 1.381 . S
O234 Fe215 1.935 . S
O234 C232 1.421 . S
C235 O219 1.381 . S
C235 O220 1.421 . S
O236 Fe210 2.077 . S
O236 C239 1.381 . S
O237 Fe208 1.935 . S
O237 C239 1.421 . S
C238 O226 1.381 . S
C238 O227 1.421 . S
C239 O236 1.381 . S
C239 O237 1.421 . S
Fe240 O241 1.886 . S
Fe240 O244 1.715 . S
Fe240 O249 2.077 1_455 S
Fe240 O254 1.935 1_455 S
Fe240 O260 2.077 . S
Fe240 O269 1.935 . S
O241 Fe240 1.886 . S
O241 Fe243 1.715 . S
Fe242 O244 1.886 . S
Fe242 O245 1.715 . S
Fe242 O252 1.935 1_455 S
Fe242 O253 2.077 1_455 S
Fe242 O259 1.936 . S
Fe242 O268 2.078 . S
Fe243 O241 1.715 . S
Fe243 O246 1.886 . S
Fe243 O250 1.936 1_455 S
Fe243 O255 2.078 1_455 S
Fe243 O261 1.935 . S
Fe243 O265 2.077 . S
O244 Fe240 1.715 . S
O244 Fe242 1.886 . S
O245 Fe242 1.715 . S
O245 Fe247 1.886 . S
O246 Fe243 1.886 . S
O246 Fe247 1.715 . S
Fe247 O245 1.886 . S
Fe247 O246 1.715 . S
Fe247 O251 2.077 1_455 S
Fe247 O256 1.935 1_455 S
Fe247 O258 2.077 . S
Fe247 O266 1.935 . S
C248 O260 1.381 . S
C248 O261 1.421 . S
O249 Fe240 2.077 1_655 S
O249 C262 1.381 . S
O250 Fe243 1.936 1_655 S
O250 C262 1.421 . S
O251 Fe247 2.077 1_655 S
O251 C267 1.381 . S
O252 Fe242 1.935 1_655 S
O252 C267 1.421 . S
O253 Fe242 2.077 1_655 S
O253 C257 1.381 . S
O254 Fe240 1.935 1_655 S
O254 C257 1.421 . S
O255 Fe243 2.078 1_655 S
O255 C263 1.381 . S
O256 Fe247 1.935 1_655 S
O256 C263 1.421 . S
C257 O253 1.381 . S
C257 O254 1.421 . S
O258 Fe247 2.077 . S
O258 C270 1.381 . S
O259 Fe242 1.936 . S
O259 C270 1.421 . S
O260 Fe240 2.077 . S
O260 C248 1.381 . S
O261 Fe243 1.935 . S
O261 C248 1.421 . S
C262 O249 1.381 . S
C262 O250 1.421 . S
C263 O255 1.381 . S
C263 O256 1.421 . S
C264 O265 1.381 . S
C264 O266 1.421 . S
O265 Fe243 2.077 . S
O265 C264 1.381 . S
O266 Fe247 1.935 . S
O266 C264 1.421 . S
C267 O251 1.381 . S
C267 O252 1.421 . S
O268 Fe242 2.078 . S
O268 C271 1.381 . S
O269 Fe240 1.935 . S
O269 C271 1.421 . S
C270 O258 1.381 . S
C270 O259 1.421 . S
C271 O268 1.381 . S
C271 O269 1.421 . S
C272 C273 1.391 . S
C272 C274 1.394 . S
C272 H288 0.931 . S
C273 C272 1.391 . S
C273 C277 1.376 . S
C274 C272 1.394 . S
C274 C275 1.369 . S
C274 C278 1.531 . S
C275 C274 1.369 . S
C275 C276 1.410 . S
C275 C283 1.503 . S
C276 C275 1.410 . S
C276 C277 1.392 . S
C276 C279 1.511 . S
C277 C273 1.376 . S
C277 C276 1.392 . S
C277 H289 0.929 . S
C278 C274 1.531 . S
C278 H290 0.960 . S
C278 H291 0.962 . S
C278 H292 0.960 . S
C279 C276 1.511 . S
C279 H293 0.961 . S
C279 H294 0.961 . S
C279 H295 0.961 . S
C280 C281 1.370 . S
C280 C282 1.363 . S
C280 H296 0.931 . S
C281 C280 1.370 . S
C281 C285 1.408 . S
C282 C280 1.363 . S
C282 C283 1.370 . S
C282 C286 1.524 . S
C283 C275 1.503 . S
C283 C282 1.370 . S
C283 C284 1.403 . S
C284 C283 1.403 . S
C284 C285 1.404 . S
C284 C287 1.539 . S
C285 C281 1.408 . S
C285 C284 1.404 . S
C285 H297 0.930 . S
C286 C282 1.524 . S
C286 H298 0.956 . S
C286 H299 0.957 1_565 S
C286 H300 0.961 . S
C287 C284 1.539 . S
C287 H301 0.958 . S
C287 H302 0.961 . S
C287 H303 0.960 . S
H288 C272 0.931 . S
H289 C277 0.929 . S
H290 C278 0.960 . S
H291 C278 0.962 . S
H292 C278 0.960 . S
H293 C279 0.961 . S
H294 C279 0.961 . S
H295 C279 0.961 . S
H296 C280 0.931 . S
H297 C285 0.930 . S
H298 C286 0.956 . S
H299 C286 0.957 1_545 S
H300 C286 0.961 . S
H301 C287 0.958 . S
H302 C287 0.961 . S
H303 C287 0.960 . S
C304 C305 1.391 . S
C304 C306 1.394 . S
C304 H320 0.931 . S
C305 C304 1.391 . S
C305 C309 1.376 . S
C306 C304 1.394 . S
C306 C307 1.369 . S
C306 C310 1.531 . S
C307 C306 1.369 . S
C307 C308 1.410 . S
C307 C315 1.503 1_565 S
C308 C307 1.410 . S
C308 C309 1.392 . S
C308 C311 1.511 1_565 S
C309 C305 1.376 . S
C309 C308 1.392 . S
C309 H321 0.929 . S
C310 C306 1.531 . S
C310 H322 0.960 . S
C310 H323 0.962 . S
C310 H324 0.960 . S
C311 C308 1.511 1_545 S
C311 H325 0.961 . S
C311 H326 0.961 . S
C311 H327 0.961 1_545 S
C312 C313 1.370 . S
C312 C314 1.363 . S
C312 H328 0.931 . S
C313 C312 1.370 . S
C313 C317 1.408 . S
C314 C312 1.363 . S
C314 C315 1.370 . S
C314 C318 1.524 . S
C315 C307 1.503 1_545 S
C315 C314 1.370 . S
C315 C316 1.403 . S
C316 C315 1.403 . S
C316 C317 1.404 . S
C316 C319 1.539 1_545 S
C317 C313 1.408 . S
C317 C316 1.404 . S
C317 H329 0.930 . S
C318 C314 1.524 . S
C318 H330 0.956 . S
C318 H331 0.961 . S
C318 H332 0.961 . S
C319 C316 1.539 1_565 S
C319 H333 0.958 . S
C319 H334 0.961 . S
C319 H335 0.960 . S
H320 C304 0.931 . S
H321 C309 0.929 . S
H322 C310 0.960 . S
H323 C310 0.962 . S
H324 C310 0.960 . S
H325 C311 0.961 . S
H326 C311 0.961 . S
H327 C311 0.961 1_565 S
H328 C312 0.931 . S
H329 C317 0.930 . S
H330 C318 0.956 . S
H331 C318 0.961 . S
H332 C318 0.961 . S
H333 C319 0.958 . S
H334 C319 0.961 . S
H335 C319 0.960 . S
C336 C337 1.391 . S
C336 C338 1.394 . S
C336 H352 0.931 . S
C337 C336 1.391 . S
C337 C341 1.376 . S
C338 C336 1.394 . S
C338 C339 1.369 . S
C338 C342 1.531 . S
C339 C338 1.369 . S
C339 C340 1.410 . S
C339 C347 1.503 . S
C340 C339 1.410 . S
C340 C341 1.392 . S
C340 C343 1.511 . S
C341 C337 1.376 . S
C341 C340 1.392 . S
C341 H353 0.929 1_556 S
C342 C338 1.531 . S
C342 H354 0.960 . S
C342 H355 0.962 . S
C342 H356 0.960 1_545 S
C343 C340 1.511 . S
C343 H357 0.961 . S
C343 H358 0.961 . S
C343 H359 0.961 . S
C344 C345 1.370 . S
C344 C346 1.363 . S
C344 H360 0.931 . S
C345 C344 1.370 . S
C345 C349 1.408 . S
C346 C344 1.363 . S
C346 C347 1.370 . S
C346 C350 1.524 . S
C347 C339 1.503 . S
C347 C346 1.370 . S
C347 C348 1.403 . S
C348 C347 1.403 . S
C348 C349 1.404 . S
C348 C351 1.539 . S
C349 C345 1.408 . S
C349 C348 1.404 . S
C349 H361 0.930 . S
C350 C346 1.524 . S
C350 H362 0.956 . S
C350 H363 0.961 . S
C350 H364 0.961 . S
C351 C348 1.539 . S
C351 H365 0.958 1_545 S
C351 H366 0.961 . S
C351 H367 0.960 . S
H352 C336 0.931 . S
H353 C341 0.929 1_554 S
H354 C342 0.960 . S
H355 C342 0.962 . S
H356 C342 0.960 1_565 S
H357 C343 0.961 . S
H358 C343 0.961 . S
H359 C343 0.961 . S
H360 C344 0.931 . S
H361 C349 0.930 . S
H362 C350 0.956 . S
H363 C350 0.961 . S
H364 C350 0.961 . S
H365 C351 0.958 1_565 S
H366 C351 0.961 . S
H367 C351 0.960 . S
C368 C369 1.391 . S
C368 C370 1.394 . S
C368 H384 0.931 . S
C369 C368 1.391 . S
C369 C373 1.376 . S
C370 C368 1.394 . S
C370 C371 1.369 . S
C370 C374 1.531 . S
C371 C370 1.369 . S
C371 C372 1.410 . S
C371 C379 1.503 1_545 S
C372 C371 1.410 . S
C372 C373 1.392 . S
C372 C375 1.511 1_545 S
C373 C369 1.376 . S
C373 C372 1.392 . S
C373 H385 0.929 . S
C374 C370 1.531 . S
C374 H386 0.960 . S
C374 H387 0.962 . S
C374 H388 0.960 . S
C375 C372 1.511 1_565 S
C375 H389 0.961 . S
C375 H390 0.961 . S
C375 H391 0.961 . S
C376 C377 1.370 . S
C376 C378 1.363 . S
C376 H392 0.931 . S
C377 C376 1.370 . S
C377 C381 1.408 . S
C378 C376 1.363 . S
C378 C379 1.370 . S
C378 C382 1.524 . S
C379 C371 1.503 1_565 S
C379 C378 1.370 . S
C379 C380 1.403 . S
C380 C379 1.403 . S
C380 C381 1.404 . S
C380 C383 1.539 . S
C381 C377 1.408 . S
C381 C380 1.404 . S
C381 H393 0.930 . S
C382 C378 1.524 . S
C382 H394 0.956 1_565 S
C382 H395 0.961 . S
C382 H396 0.961 . S
C383 C380 1.539 . S
C383 H397 0.958 . S
C383 H398 0.961 . S
C383 H399 0.960 . S
H384 C368 0.931 . S
H385 C373 0.929 . S
H386 C374 0.960 . S
H387 C374 0.962 . S
H388 C374 0.960 . S
H389 C375 0.961 . S
H390 C375 0.961 . S
H391 C375 0.961 . S
H392 C376 0.931 . S
H393 C381 0.930 . S
H394 C382 0.956 1_545 S
H395 C382 0.961 . S
H396 C382 0.961 . S
H397 C383 0.958 . S
H398 C383 0.961 . S
H399 C383 0.960 . S
C400 C401 1.391 . S
C400 C402 1.394 . S
C400 H416 0.931 . S
C401 C400 1.391 . S
C401 C405 1.376 . S
C402 C400 1.394 . S
C402 C403 1.369 . S
C402 C406 1.531 . S
C403 C402 1.369 . S
C403 C404 1.410 . S
C403 C411 1.503 . S
C404 C403 1.410 . S
C404 C405 1.392 . S
C404 C407 1.511 . S
C405 C401 1.376 . S
C405 C404 1.392 . S
C405 H417 0.929 . S
C406 C402 1.531 . S
C406 H418 0.960 . S
C406 H419 0.962 . S
C406 H420 0.960 . S
C407 C404 1.511 . S
C407 H421 0.961 . S
C407 H422 0.961 . S
C407 H423 0.961 . S
C408 C409 1.370 . S
C408 C410 1.363 . S
C408 H424 0.931 . S
C409 C408 1.370 . S
C409 C413 1.408 . S
C410 C408 1.363 . S
C410 C411 1.370 . S
C410 C414 1.524 . S
C411 C403 1.503 . S
C411 C410 1.370 . S
C411 C412 1.403 . S
C412 C411 1.403 . S
C412 C413 1.404 . S
C412 C415 1.539 . S
C413 C409 1.408 . S
C413 C412 1.404 . S
C413 H425 0.930 . S
C414 C410 1.524 . S
C414 H426 0.956 . S
C414 H427 0.961 . S
C414 H428 0.961 . S
C415 C412 1.539 . S
C415 H429 0.958 1_545 S
C415 H430 0.961 . S
C415 H431 0.960 . S
H416 C400 0.931 . S
H417 C405 0.929 . S
H418 C406 0.960 . S
H419 C406 0.962 . S
H420 C406 0.960 . S
H421 C407 0.961 . S
H422 C407 0.961 . S
H423 C407 0.961 . S
H424 C408 0.931 . S
H425 C413 0.930 . S
H426 C414 0.956 . S
H427 C414 0.961 . S
H428 C414 0.961 . S
H429 C415 0.958 1_565 S
H430 C415 0.961 . S
H431 C415 0.960 . S
C432 C433 1.391 . S
C432 C434 1.394 1_565 S
C432 H448 0.931 . S
C433 C432 1.391 . S
C433 C437 1.376 . S
C434 C432 1.394 1_545 S
C434 C435 1.369 1_545 S
C434 C438 1.531 . S
C435 C434 1.369 1_565 S
C435 C436 1.410 . S
C435 C443 1.503 1_565 S
C436 C435 1.410 . S
C436 C437 1.392 . S
C436 C439 1.511 . S
C437 C433 1.376 . S
C437 C436 1.392 . S
C437 H449 0.929 . S
C438 C434 1.531 . S
C438 H450 0.960 . S
C438 H451 0.962 . S
C438 H452 0.960 . S
C439 C436 1.511 . S
C439 H453 0.961 . S
C439 H454 0.961 . S
C439 H455 0.961 . S
C440 C441 1.370 . S
C440 C442 1.363 . S
C440 H456 0.931 . S
C441 C440 1.370 . S
C441 C445 1.408 . S
C442 C440 1.363 . S
C442 C443 1.370 . S
C442 C446 1.524 . S
C443 C435 1.503 1_545 S
C443 C442 1.370 . S
C443 C444 1.403 . S
C444 C443 1.403 . S
C444 C445 1.404 . S
C444 C447 1.539 . S
C445 C441 1.408 . S
C445 C444 1.404 . S
C445 H457 0.930 . S
C446 C442 1.524 . S
C446 H458 0.956 . S
C446 H459 0.961 1_545 S
C446 H460 0.961 . S
C447 C444 1.539 . S
C447 H461 0.958 . S
C447 H462 0.961 . S
C447 H463 0.960 . S
H448 C432 0.931 . S
H449 C437 0.929 . S
H450 C438 0.960 . S
H451 C438 0.962 . S
H452 C438 0.960 . S
H453 C439 0.961 . S
H454 C439 0.961 . S
H455 C439 0.961 . S
H456 C440 0.931 . S
H457 C445 0.930 . S
H458 C446 0.956 . S
H459 C446 0.961 1_565 S
H460 C446 0.961 . S
H461 C447 0.958 . S
H462 C447 0.961 . S
H463 C447 0.960 . S
C464 C465 1.391 . S
C464 C466 1.394 . S
C464 H480 0.931 . S
C465 C464 1.391 . S
C465 C469 1.376 . S
C466 C464 1.394 . S
C466 C467 1.369 . S
C466 C470 1.531 . S
C467 C466 1.369 . S
C467 C468 1.410 . S
C467 C475 1.503 . S
C468 C467 1.410 . S
C468 C469 1.392 . S
C468 C471 1.511 . S
C469 C465 1.376 . S
C469 C468 1.392 . S
C469 H481 0.929 . S
C470 C466 1.531 . S
C470 H482 0.960 . S
C470 H483 0.962 . S
C470 H484 0.960 . S
C471 C468 1.511 . S
C471 H485 0.961 . S
C471 H486 0.961 . S
C471 H487 0.961 . S
C472 C473 1.370 . S
C472 C474 1.363 . S
C472 H488 0.931 . S
C473 C472 1.370 . S
C473 C477 1.408 . S
C474 C472 1.363 . S
C474 C475 1.370 . S
C474 C478 1.524 . S
C475 C467 1.503 . S
C475 C474 1.370 . S
C475 C476 1.403 . S
C476 C475 1.403 . S
C476 C477 1.404 . S
C476 C479 1.539 . S
C477 C473 1.408 . S
C477 C476 1.404 . S
C477 H489 0.930 . S
C478 C474 1.524 . S
C478 H490 0.956 . S
C478 H491 0.961 . S
C478 H492 0.956 1_565 S
C479 C476 1.539 . S
C479 H493 0.958 . S
C479 H494 0.961 . S
C479 H495 0.960 . S
H480 C464 0.931 . S
H481 C469 0.929 . S
H482 C470 0.960 . S
H483 C470 0.962 . S
H484 C470 0.960 . S
H485 C471 0.961 . S
H486 C471 0.961 . S
H487 C471 0.961 . S
H488 C472 0.931 . S
H489 C477 0.930 . S
H490 C478 0.956 . S
H491 C478 0.961 . S
H492 C478 0.956 1_545 S
H493 C479 0.958 . S
H494 C479 0.961 . S
H495 C479 0.960 . S
C496 C497 1.391 . S
C496 C498 1.394 . S
C496 H512 0.931 . S
C497 C496 1.391 . S
C497 C501 1.376 . S
C498 C496 1.394 . S
C498 C499 1.369 . S
C498 C502 1.531 1_545 S
C499 C498 1.369 . S
C499 C500 1.410 . S
C499 C507 1.503 1_545 S
C500 C499 1.410 . S
C500 C501 1.392 . S
C500 C503 1.511 . S
C501 C497 1.376 . S
C501 C500 1.392 . S
C501 H513 0.929 . S
C502 C498 1.531 1_565 S
C502 H514 0.960 . S
C502 H515 0.962 . S
C502 H516 0.960 . S
C503 C500 1.511 . S
C503 H517 0.961 . S
C503 H518 0.961 . S
C503 H519 0.961 . S
C504 C505 1.370 . S
C504 C506 1.363 . S
C504 H520 0.931 . S
C505 C504 1.370 . S
C505 C509 1.408 . S
C506 C504 1.363 . S
C506 C507 1.370 . S
C506 C510 1.524 . S
C507 C499 1.503 1_565 S
C507 C506 1.370 . S
C507 C508 1.403 . S
C508 C507 1.403 . S
C508 C509 1.404 . S
C508 C511 1.539 . S
C509 C505 1.408 . S
C509 C508 1.404 . S
C509 H521 0.930 . S
C510 C506 1.524 . S
C510 H522 0.956 . S
C510 H523 0.961 1_565 S
C510 H524 0.961 . S
C511 C508 1.539 . S
C511 H525 0.958 . S
C511 H526 0.961 . S
C511 H527 0.960 . S
H512 C496 0.931 . S
H513 C501 0.929 . S
H514 C502 0.960 . S
H515 C502 0.962 . S
H516 C502 0.960 . S
H517 C503 0.961 . S
H518 C503 0.961 . S
H519 C503 0.961 . S
H520 C504 0.931 . S
H521 C509 0.930 . S
H522 C510 0.956 . S
H523 C510 0.961 1_545 S
H524 C510 0.961 . S
H525 C511 0.958 . S
H526 C511 0.961 . S
H527 C511 0.960 . S
C528 C529 1.391 . S
C528 C530 1.394 . S
C528 H544 0.931 . S
C529 C528 1.391 . S
C529 C533 1.376 . S
C530 C528 1.394 . S
C530 C531 1.369 . S
C530 C534 1.531 . S
C531 C530 1.369 . S
C531 C532 1.410 . S
C531 C539 1.503 . S
C532 C531 1.410 . S
C532 C533 1.392 . S
C532 C535 1.511 . S
C533 C529 1.376 . S
C533 C532 1.392 . S
C533 H545 0.929 . S
C534 C530 1.531 . S
C534 H546 0.960 . S
C534 H547 0.962 . S
C534 H548 0.960 . S
C535 C532 1.511 . S
C535 H549 0.961 . S
C535 H550 0.961 . S
C535 H551 0.961 . S
C536 C537 1.370 . S
C536 C538 1.363 . S
C536 H552 0.931 . S
C537 C536 1.370 . S
C537 C541 1.408 . S
C538 C536 1.363 . S
C538 C539 1.370 . S
C538 C542 1.524 . S
C539 C531 1.503 . S
C539 C538 1.370 . S
C539 C540 1.403 . S
C540 C539 1.403 . S
C540 C541 1.404 . S
C540 C543 1.539 . S
C541 C537 1.408 . S
C541 C540 1.404 . S
C541 H553 0.930 . S
C542 C538 1.524 . S
C542 H554 0.956 . S
C542 H555 0.961 . S
C542 H556 0.961 . S
C543 C540 1.539 . S
C543 H557 0.958 . S
C543 H558 0.961 1_545 S
C543 H559 0.960 . S
H544 C528 0.931 . S
H545 C533 0.929 . S
H546 C534 0.960 . S
H547 C534 0.962 . S
H548 C534 0.960 . S
H549 C535 0.961 . S
H550 C535 0.961 . S
H551 C535 0.961 . S
H552 C536 0.931 . S
H553 C541 0.930 . S
H554 C542 0.956 . S
H555 C542 0.961 . S
H556 C542 0.961 . S
H557 C543 0.958 . S
H558 C543 0.961 1_565 S
H559 C543 0.960 . S
C560 C561 1.391 . S
C560 C562 1.394 . S
C560 H576 0.931 . S
C561 C560 1.391 . S
C561 C565 1.376 . S
C562 C560 1.394 . S
C562 C563 1.369 . S
C562 C566 1.531 . S
C563 C562 1.369 . S
C563 C564 1.410 . S
C563 C571 1.503 1_545 S
C564 C563 1.410 . S
C564 C565 1.392 . S
C564 C567 1.511 . S
C565 C561 1.376 . S
C565 C564 1.392 . S
C565 H577 0.929 . S
C566 C562 1.531 . S
C566 H578 0.960 1_545 S
C566 H579 0.962 1_545 S
C566 H580 0.960 . S
C567 C564 1.511 . S
C567 H581 0.961 . S
C567 H582 0.961 . S
C567 H583 0.961 . S
C568 C569 1.370 . S
C568 C570 1.363 . S
C568 H584 0.931 . S
C569 C568 1.370 . S
C569 C573 1.408 . S
C570 C568 1.363 . S
C570 C571 1.370 . S
C570 C574 1.524 . S
C571 C563 1.503 1_565 S
C571 C570 1.370 . S
C571 C572 1.403 . S
C572 C571 1.403 . S
C572 C573 1.404 . S
C572 C575 1.539 1_565 S
C573 C569 1.408 . S
C573 C572 1.404 . S
C573 H585 0.930 . S
C574 C570 1.524 . S
C574 H586 0.956 . S
C574 H587 0.961 . S
C574 H588 0.961 . S
C575 C572 1.539 1_545 S
C575 H589 0.958 . S
C575 H590 0.961 . S
C575 H591 0.960 . S
H576 C560 0.931 . S
H577 C565 0.929 . S
H578 C566 0.960 1_565 S
H579 C566 0.962 1_565 S
H580 C566 0.960 . S
H581 C567 0.961 . S
H582 C567 0.961 . S
H583 C567 0.961 . S
H584 C568 0.931 . S
H585 C573 0.930 . S
H586 C574 0.956 . S
H587 C574 0.961 . S
H588 C574 0.961 . S
H589 C575 0.958 . S
H590 C575 0.961 . S
H591 C575 0.960 . S
C592 C593 1.391 . S
C592 C594 1.394 . S
C592 H608 0.931 . S
C593 C592 1.391 . S
C593 C597 1.376 . S
C594 C592 1.394 . S
C594 C595 1.369 . S
C594 C598 1.531 . S
C595 C594 1.369 . S
C595 C596 1.410 . S
C595 C603 1.503 . S
C596 C595 1.410 . S
C596 C597 1.392 . S
C596 C599 1.511 . S
C597 C593 1.376 . S
C597 C596 1.392 . S
C597 H609 0.929 . S
C598 C594 1.531 . S
C598 H610 0.960 . S
C598 H611 0.962 . S
C598 H612 0.960 . S
C599 C596 1.511 . S
C599 H613 0.961 . S
C599 H614 0.961 . S
C599 H615 0.961 . S
C600 C601 1.370 . S
C600 C602 1.363 . S
C600 H616 0.931 . S
C601 C600 1.370 . S
C601 C605 1.408 . S
C602 C600 1.363 . S
C602 C603 1.370 . S
C602 C606 1.524 . S
C603 C595 1.503 . S
C603 C602 1.370 . S
C603 C604 1.403 . S
C604 C603 1.403 . S
C604 C605 1.404 . S
C604 C607 1.539 . S
C605 C601 1.408 . S
C605 C604 1.404 . S
C605 H617 0.930 . S
C606 C602 1.524 . S
C606 H618 0.956 . S
C606 H619 0.964 . S
C606 H620 0.957 1_565 S
C607 C604 1.539 . S
C607 H621 0.958 . S
C607 H622 0.961 . S
C607 H623 0.960 . S
H608 C592 0.931 . S
H609 C597 0.929 . S
H610 C598 0.960 . S
H611 C598 0.962 . S
H612 C598 0.960 . S
H613 C599 0.961 . S
H614 C599 0.961 . S
H615 C599 0.961 . S
H616 C600 0.931 . S
H617 C605 0.930 . S
H618 C606 0.956 . S
H619 C606 0.964 . S
H620 C606 0.957 1_545 S
H621 C607 0.958 . S
H622 C607 0.961 . S
H623 C607 0.960 . S
C624 C625 1.391 . S
C624 C626 1.394 . S
C624 H640 0.931 . S
C625 C624 1.391 . S
C625 C629 1.376 . S
C626 C624 1.394 . S
C626 C627 1.369 . S
C626 C630 1.531 1_565 S
C627 C626 1.369 . S
C627 C628 1.410 . S
C627 C635 1.503 1_565 S
C628 C627 1.410 . S
C628 C629 1.392 . S
C628 C631 1.511 . S
C629 C625 1.376 . S
C629 C628 1.392 . S
C629 H641 0.929 . S
C630 C626 1.531 1_545 S
C630 H642 0.960 . S
C630 H643 0.962 . S
C630 H644 0.960 . S
C631 C628 1.511 . S
C631 H645 0.961 . S
C631 H646 0.961 . S
C631 H647 0.961 . S
C632 C633 1.370 . S
C632 C634 1.363 . S
C632 H648 0.931 . S
C633 C632 1.370 . S
C633 C637 1.408 . S
C634 C632 1.363 . S
C634 C635 1.370 . S
C634 C638 1.524 . S
C635 C627 1.503 1_545 S
C635 C634 1.370 . S
C635 C636 1.403 . S
C636 C635 1.403 . S
C636 C637 1.404 . S
C636 C639 1.539 . S
C637 C633 1.408 . S
C637 C636 1.404 . S
C637 H649 0.930 . S
C638 C634 1.524 . S
C638 H650 0.956 . S
C638 H651 0.961 . S
C638 H652 0.961 . S
C639 C636 1.539 . S
C639 H653 0.958 . S
C639 H654 0.961 . S
C639 H655 0.960 1_545 S
H640 C624 0.931 . S
H641 C629 0.929 . S
H642 C630 0.960 . S
H643 C630 0.962 . S
H644 C630 0.960 . S
H645 C631 0.961 . S
H646 C631 0.961 . S
H647 C631 0.961 . S
H648 C632 0.931 . S
H649 C637 0.930 . S
H650 C638 0.956 . S
H651 C638 0.961 . S
H652 C638 0.961 . S
H653 C639 0.958 . S
H654 C639 0.961 . S
H655 C639 0.960 1_565 S
C656 C657 1.391 . S
C656 C658 1.394 . S
C656 H672 0.931 . S
C657 C656 1.391 . S
C657 C661 1.376 . S
C658 C656 1.394 . S
C658 C659 1.369 . S
C658 C662 1.531 . S
C659 C658 1.369 . S
C659 C660 1.410 . S
C659 C667 1.503 . S
C660 C659 1.410 . S
C660 C661 1.392 . S
C660 C663 1.511 . S
C661 C657 1.376 . S
C661 C660 1.392 . S
C661 H673 0.929 . S
C662 C658 1.531 . S
C662 H674 0.960 . S
C662 H675 0.962 . S
C662 H676 0.960 . S
C663 C660 1.511 . S
C663 H677 0.961 . S
C663 H678 0.961 . S
C663 H679 0.961 . S
C664 C665 1.370 . S
C664 C666 1.363 . S
C664 H680 0.931 . S
C665 C664 1.370 . S
C665 C669 1.408 . S
C666 C664 1.363 . S
C666 C667 1.370 . S
C666 C670 1.524 . S
C667 C659 1.503 . S
C667 C666 1.370 . S
C667 C668 1.403 . S
C668 C667 1.403 . S
C668 C669 1.404 . S
C668 C671 1.539 . S
C669 C665 1.408 . S
C669 C668 1.404 . S
C669 H681 0.930 . S
C670 C666 1.524 . S
C670 H682 0.956 1_565 S
C670 H683 0.961 . S
C670 H684 0.961 . S
C671 C668 1.539 . S
C671 H685 0.958 . S
C671 H686 0.961 . S
C671 H687 0.960 . S
H672 C656 0.931 . S
H673 C661 0.929 . S
H674 C662 0.960 . S
H675 C662 0.962 . S
H676 C662 0.960 . S
H677 C663 0.961 . S
H678 C663 0.961 . S
H679 C663 0.961 . S
H680 C664 0.931 . S
H681 C669 0.930 . S
H682 C670 0.956 1_545 S
H683 C670 0.961 . S
H684 C670 0.961 . S
H685 C671 0.958 . S
H686 C671 0.961 . S
H687 C671 0.960 . S
C688 C689 1.391 . S
C688 C690 1.394 . S
C688 H704 0.931 . S
C689 C688 1.391 . S
C689 C693 1.376 . S
C690 C688 1.394 . S
C690 C691 1.369 . S
C690 C694 1.531 1_545 S
C691 C690 1.369 . S
C691 C692 1.410 . S
C691 C699 1.503 1_545 S
C692 C691 1.410 . S
C692 C693 1.392 . S
C692 C695 1.511 . S
C693 C689 1.376 . S
C693 C692 1.392 . S
C693 H705 0.929 . S
C694 C690 1.531 1_565 S
C694 H706 0.960 . S
C694 H707 0.962 1_565 S
C694 H708 0.960 . S
C695 C692 1.511 . S
C695 H709 0.961 . S
C695 H710 0.961 . S
C695 H711 0.961 1_545 S
C696 C697 1.370 . S
C696 C698 1.363 . S
C696 H712 0.931 . S
C697 C696 1.370 . S
C697 C701 1.408 . S
C698 C696 1.363 . S
C698 C699 1.370 . S
C698 C702 1.524 1_565 S
C699 C691 1.503 1_565 S
C699 C698 1.370 . S
C699 C700 1.403 . S
C700 C699 1.403 . S
C700 C701 1.404 . S
C700 C703 1.539 . S
C701 C697 1.408 . S
C701 C700 1.404 . S
C701 H713 0.930 . S
C702 C698 1.524 1_545 S
C702 H714 0.956 . S
C702 H715 0.961 . S
C702 H716 0.961 . S
C703 C700 1.539 . S
C703 H717 0.958 . S
C703 H718 0.961 . S
C703 H719 0.960 . S
H704 C688 0.931 . S
H705 C693 0.929 . S
H706 C694 0.960 . S
H707 C694 0.962 1_545 S
H708 C694 0.960 . S
H709 C695 0.961 . S
H710 C695 0.961 . S
H711 C695 0.961 1_565 S
H712 C696 0.931 . S
H713 C701 0.930 . S
H714 C702 0.956 . S
H715 C702 0.961 . S
H716 C702 0.961 . S
H717 C703 0.958 . S
H718 C703 0.961 . S
H719 C703 0.960 . S
C720 C721 1.391 . S
C720 C722 1.394 . S
C720 H736 0.931 . S
C721 C720 1.391 . S
C721 C725 1.376 . S
C722 C720 1.394 . S
C722 C723 1.369 . S
C722 C726 1.531 . S
C723 C722 1.369 . S
C723 C724 1.410 . S
C723 C731 1.503 . S
C724 C723 1.410 . S
C724 C725 1.392 . S
C724 C727 1.511 . S
C725 C721 1.376 . S
C725 C724 1.392 . S
C725 H737 0.953 . S
C726 C722 1.531 . S
C726 H738 0.960 . S
C726 H739 0.962 . S
C726 H740 0.960 . S
C727 C724 1.511 . S
C727 H741 0.951 1_556 S
C727 H742 0.961 . S
C727 H743 0.961 . S
C728 C729 1.370 . S
C728 C730 1.363 . S
C728 H744 0.931 . S
C729 C728 1.370 . S
C729 C733 1.408 . S
C730 C728 1.363 . S
C730 C731 1.370 . S
C730 C734 1.524 . S
C731 C723 1.503 . S
C731 C730 1.370 . S
C731 C732 1.403 . S
C732 C731 1.403 . S
C732 C733 1.404 . S
C732 C735 1.539 . S
C733 C729 1.408 . S
C733 C732 1.404 . S
C733 H745 0.930 . S
C734 C730 1.524 . S
C734 H746 0.956 . S
C734 H747 0.961 . S
C734 H748 0.961 . S
C735 C732 1.539 . S
C735 H749 0.958 . S
C735 H750 0.961 . S
C735 H751 0.960 . S
H736 C720 0.931 . S
H737 C725 0.953 . S
H738 C726 0.960 . S
H739 C726 0.962 . S
H740 C726 0.960 . S
H741 C727 0.951 1_554 S
H742 C727 0.961 . S
H743 C727 0.961 . S
H744 C728 0.931 . S
H745 C733 0.930 . S
H746 C734 0.956 . S
H747 C734 0.961 . S
H748 C734 0.961 . S
H749 C735 0.958 . S
H750 C735 0.961 . S
H751 C735 0.960 . S
C752 C753 1.391 . S
C752 C754 1.394 . S
C752 H768 0.931 . S
C753 C752 1.391 . S
C753 C757 1.376 . S
C754 C752 1.394 . S
C754 C755 1.369 . S
C754 C758 1.531 1_565 S
C755 C754 1.369 . S
C755 C756 1.410 . S
C755 C763 1.503 1_565 S
C756 C755 1.410 . S
C756 C757 1.392 . S
C756 C759 1.511 . S
C757 C753 1.376 . S
C757 C756 1.392 . S
C757 H769 0.929 . S
C758 C754 1.531 1_545 S
C758 H770 0.960 . S
C758 H771 0.962 . S
C758 H772 0.960 . S
C759 C756 1.511 . S
C759 H773 0.961 . S
C759 H774 0.961 . S
C759 H775 0.961 . S
C760 C761 1.370 . S
C760 C762 1.363 . S
C760 H776 0.931 . S
C761 C760 1.370 . S
C761 C765 1.408 . S
C762 C760 1.363 . S
C762 C763 1.370 . S
C762 C766 1.524 . S
C763 C755 1.503 1_545 S
C763 C762 1.370 . S
C763 C764 1.403 . S
C764 C763 1.403 . S
C764 C765 1.404 . S
C764 C767 1.539 . S
C765 C761 1.408 . S
C765 C764 1.404 . S
C765 H777 0.930 . S
C766 C762 1.524 . S
C766 H778 0.956 . S
C766 H779 0.961 . S
C766 H780 0.961 . S
C767 C764 1.539 . S
C767 H781 0.958 . S
C767 H782 0.961 . S
C767 H783 0.960 1_545 S
H768 C752 0.931 . S
H769 C757 0.929 . S
H770 C758 0.960 . S
H771 C758 0.962 . S
H772 C758 0.960 . S
H773 C759 0.961 . S
H774 C759 0.961 . S
H775 C759 0.961 . S
H776 C760 0.931 . S
H777 C765 0.930 . S
H778 C766 0.956 . S
H779 C766 0.961 . S
H780 C766 0.961 . S
H781 C767 0.958 . S
H782 C767 0.961 . S
H783 C767 0.960 1_565 S
C784 C785 1.391 . S
C784 C786 1.394 . S
C784 H800 0.931 . S
C785 C784 1.391 . S
C785 C789 1.376 . S
C786 C784 1.394 . S
C786 C787 1.369 . S
C786 C790 1.531 . S
C787 C786 1.369 . S
C787 C788 1.410 . S
C787 C795 1.503 . S
C788 C787 1.410 . S
C788 C789 1.392 . S
C788 C791 1.511 . S
C789 C785 1.376 . S
C789 C788 1.392 . S
C789 H801 0.929 1_556 S
C790 C786 1.531 . S
C790 H802 0.960 . S
C790 H803 0.962 . S
C790 H804 0.960 . S
C791 C788 1.511 . S
C791 H805 0.917 1_556 S
C791 H806 0.961 . S
C791 H807 0.961 . S
C792 C793 1.370 . S
C792 C794 1.363 . S
C792 H808 0.931 . S
C793 C792 1.370 . S
C793 C797 1.408 . S
C794 C792 1.363 . S
C794 C795 1.370 . S
C794 C798 1.524 . S
C795 C787 1.503 . S
C795 C794 1.370 . S
C795 C796 1.403 . S
C796 C795 1.403 . S
C796 C797 1.404 . S
C796 C799 1.539 . S
C797 C793 1.408 . S
C797 C796 1.404 . S
C797 H809 0.930 . S
C798 C794 1.524 . S
C798 H810 0.956 . S
C798 H811 0.961 . S
C798 H812 0.961 . S
C799 C796 1.539 . S
C799 H813 0.958 . S
C799 H814 0.961 . S
C799 H815 0.960 . S
H800 C784 0.931 . S
H801 C789 0.929 1_554 S
H802 C790 0.960 . S
H803 C790 0.962 . S
H804 C790 0.960 . S
H805 C791 0.917 1_554 S
H806 C791 0.961 . S
H807 C791 0.961 . S
H808 C792 0.931 . S
H809 C797 0.930 . S
H810 C798 0.956 . S
H811 C798 0.961 . S
H812 C798 0.961 . S
H813 C799 0.958 . S
H814 C799 0.961 . S
H815 C799 0.960 . S
C816 C817 1.391 . S
C816 C818 1.394 . S
C816 H832 0.931 . S
C817 C816 1.391 . S
C817 C821 1.376 . S
C818 C816 1.394 . S
C818 C819 1.369 . S
C818 C822 1.531 . S
C819 C818 1.369 . S
C819 C820 1.410 . S
C819 C827 1.503 . S
C820 C819 1.410 . S
C820 C821 1.392 . S
C820 C823 1.511 . S
C821 C817 1.376 . S
C821 C820 1.392 . S
C821 H833 0.929 . S
C822 C818 1.531 . S
C822 H834 0.960 . S
C822 H835 0.962 . S
C822 H836 0.960 . S
C823 C820 1.511 . S
C823 H837 0.961 . S
C823 H838 0.961 . S
C823 H839 0.961 . S
C824 C825 1.370 . S
C824 C826 1.363 . S
C824 H840 0.931 . S
C825 C824 1.370 . S
C825 C829 1.408 . S
C826 C824 1.363 . S
C826 C827 1.370 . S
C826 C830 1.524 . S
C827 C819 1.503 . S
C827 C826 1.370 . S
C827 C828 1.403 . S
C828 C827 1.403 . S
C828 C829 1.404 . S
C828 C831 1.539 . S
C829 C825 1.408 . S
C829 C828 1.404 . S
C829 H841 0.930 . S
C830 C826 1.524 . S
C830 H842 0.956 . S
C830 H843 0.961 . S
C830 H844 0.961 . S
C831 C828 1.539 . S
C831 H845 0.958 . S
C831 H846 0.961 . S
C831 H847 0.960 . S
H832 C816 0.931 . S
H833 C821 0.929 . S
H834 C822 0.960 . S
H835 C822 0.962 . S
H836 C822 0.960 . S
H837 C823 0.961 . S
H838 C823 0.961 . S
H839 C823 0.961 . S
H840 C824 0.931 . S
H841 C829 0.930 . S
H842 C830 0.956 . S
H843 C830 0.961 . S
H844 C830 0.961 . S
H845 C831 0.958 . S
H846 C831 0.961 . S
H847 C831 0.960 . S
C848 C849 1.391 . S
C848 C850 1.394 . S
C848 H864 0.931 . S
C849 C848 1.391 . S
C849 C853 1.376 . S
C850 C848 1.394 . S
C850 C851 1.369 . S
C850 C854 1.531 . S
C851 C850 1.369 . S
C851 C852 1.410 . S
C851 C859 1.503 . S
C852 C851 1.410 . S
C852 C853 1.392 . S
C852 C855 1.511 . S
C853 C849 1.376 . S
C853 C852 1.392 . S
C853 H865 0.929 . S
C854 C850 1.531 . S
C854 H866 0.960 . S
C854 H867 0.962 . S
C854 H868 0.960 . S
C855 C852 1.511 . S
C855 H869 0.961 . S
C855 H870 0.961 . S
C855 H871 0.961 . S
C856 C857 1.370 . S
C856 C858 1.363 . S
C856 H872 0.931 . S
C857 C856 1.370 . S
C857 C861 1.408 . S
C858 C856 1.363 . S
C858 C859 1.370 . S
C858 C862 1.524 . S
C859 C851 1.503 . S
C859 C858 1.370 . S
C859 C860 1.403 . S
C860 C859 1.403 . S
C860 C861 1.404 . S
C860 C863 1.539 . S
C861 C857 1.408 . S
C861 C860 1.404 . S
C861 H873 0.930 . S
C862 C858 1.524 . S
C862 H874 0.956 . S
C862 H875 0.961 . S
C862 H876 0.961 . S
C863 C860 1.539 . S
C863 H877 0.958 . S
C863 H878 0.961 . S
C863 H879 0.960 . S
H864 C848 0.931 . S
H865 C853 0.929 . S
H866 C854 0.960 . S
H867 C854 0.962 . S
H868 C854 0.960 . S
H869 C855 0.961 . S
H870 C855 0.961 . S
H871 C855 0.961 . S
H872 C856 0.931 . S
H873 C861 0.930 . S
H874 C862 0.956 . S
H875 C862 0.961 . S
H876 C862 0.961 . S
H877 C863 0.958 . S
H878 C863 0.961 . S
H879 C863 0.960 . S
C880 C881 1.391 . S
C880 C882 1.394 . S
C880 H896 0.931 . S
C881 C880 1.391 . S
C881 C885 1.376 . S
C882 C880 1.394 . S
C882 C883 1.369 . S
C882 C886 1.531 . S
C883 C882 1.369 . S
C883 C884 1.410 . S
C883 C891 1.503 . S
C884 C883 1.410 . S
C884 C885 1.392 . S
C884 C887 1.511 . S
C885 C881 1.376 . S
C885 C884 1.392 . S
C885 H897 0.929 . S
C886 C882 1.531 . S
C886 H898 0.960 . S
C886 H899 0.962 . S
C886 H900 0.960 . S
C887 C884 1.511 . S
C887 H901 0.961 . S
C887 H902 0.961 . S
C887 H903 0.961 . S
C888 C889 1.370 . S
C888 C890 1.363 . S
C888 H904 0.931 . S
C889 C888 1.370 . S
C889 C893 1.408 . S
C890 C888 1.363 . S
C890 C891 1.370 . S
C890 C894 1.524 . S
C891 C883 1.503 . S
C891 C890 1.370 . S
C891 C892 1.403 . S
C892 C891 1.403 . S
C892 C893 1.404 . S
C892 C895 1.539 . S
C893 C889 1.408 . S
C893 C892 1.404 . S
C893 H905 0.930 . S
C894 C890 1.524 . S
C894 H906 0.956 . S
C894 H907 0.961 . S
C894 H908 0.961 . S
C895 C892 1.539 . S
C895 H909 0.958 . S
C895 H910 0.961 . S
C895 H911 0.960 . S
H896 C880 0.931 . S
H897 C885 0.929 . S
H898 C886 0.960 . S
H899 C886 0.962 . S
H900 C886 0.960 . S
H901 C887 0.961 . S
H902 C887 0.961 . S
H903 C887 0.961 . S
H904 C888 0.931 . S
H905 C893 0.930 . S
H906 C894 0.956 . S
H907 C894 0.961 . S
H908 C894 0.961 . S
H909 C895 0.958 . S
H910 C895 0.961 . S
H911 C895 0.960 . S
C912 C913 1.391 . S
C912 C914 1.394 . S
C912 H928 0.931 . S
C913 C912 1.391 . S
C913 C917 1.376 . S
C914 C912 1.394 . S
C914 C915 1.369 . S
C914 C918 1.531 . S
C915 C914 1.369 . S
C915 C916 1.410 . S
C915 C923 1.503 . S
C916 C915 1.410 . S
C916 C917 1.392 . S
C916 C919 1.511 . S
C917 C913 1.376 . S
C917 C916 1.392 . S
C917 H929 0.929 . S
C918 C914 1.531 . S
C918 H930 0.960 . S
C918 H931 0.962 . S
C918 H932 0.960 . S
C919 C916 1.511 . S
C919 H933 0.961 . S
C919 H934 0.961 . S
C919 H935 0.961 . S
C920 C921 1.370 . S
C920 C922 1.363 . S
C920 H936 0.931 . S
C921 C920 1.370 . S
C921 C925 1.408 . S
C922 C920 1.363 . S
C922 C923 1.370 . S
C922 C926 1.524 . S
C923 C915 1.503 . S
C923 C922 1.370 . S
C923 C924 1.403 . S
C924 C923 1.403 . S
C924 C925 1.404 . S
C924 C927 1.539 . S
C925 C921 1.408 . S
C925 C924 1.404 . S
C925 H937 0.930 . S
C926 C922 1.524 . S
C926 H938 0.956 . S
C926 H939 0.961 . S
C926 H940 0.961 . S
C927 C924 1.539 . S
C927 H941 0.958 . S
C927 H942 0.961 . S
C927 H943 0.960 . S
H928 C912 0.931 . S
H929 C917 0.929 . S
H930 C918 0.960 . S
H931 C918 0.962 . S
H932 C918 0.960 . S
H933 C919 0.961 . S
H934 C919 0.961 . S
H935 C919 0.961 . S
H936 C920 0.931 . S
H937 C925 0.930 . S
H938 C926 0.956 . S
H939 C926 0.961 . S
H940 C926 0.961 . S
H941 C927 0.958 . S
H942 C927 0.961 . S
H943 C927 0.960 . S
C944 C945 1.391 . S
C944 C946 1.394 . S
C944 H960 0.931 . S
C945 C944 1.391 . S
C945 C949 1.376 . S
C946 C944 1.394 . S
C946 C947 1.369 . S
C946 C950 1.531 . S
C947 C946 1.369 . S
C947 C948 1.410 . S
C947 C955 1.503 . S
C948 C947 1.410 . S
C948 C949 1.392 . S
C948 C951 1.511 . S
C949 C945 1.376 . S
C949 C948 1.392 . S
C949 H961 0.929 . S
C950 C946 1.531 . S
C950 H962 0.960 . S
C950 H963 0.962 . S
C950 H964 0.960 . S
C951 C948 1.511 . S
C951 H965 0.961 . S
C951 H966 0.961 . S
C951 H967 0.961 . S
C952 C953 1.370 . S
C952 C954 1.363 . S
C952 H968 0.931 . S
C953 C952 1.370 . S
C953 C957 1.408 . S
C954 C952 1.363 . S
C954 C955 1.370 . S
C954 C958 1.524 . S
C955 C947 1.503 . S
C955 C954 1.370 . S
C955 C956 1.403 . S
C956 C955 1.403 . S
C956 C957 1.404 . S
C956 C959 1.539 . S
C957 C953 1.408 . S
C957 C956 1.404 . S
C957 H969 0.930 . S
C958 C954 1.524 . S
C958 H970 0.956 . S
C958 H971 0.961 . S
C958 H972 0.961 . S
C959 C956 1.539 . S
C959 H973 0.958 . S
C959 H974 0.961 . S
C959 H975 0.960 . S
H960 C944 0.931 . S
H961 C949 0.929 . S
H962 C950 0.960 . S
H963 C950 0.962 . S
H964 C950 0.960 . S
H965 C951 0.961 . S
H966 C951 0.961 . S
H967 C951 0.961 . S
H968 C952 0.931 . S
H969 C957 0.930 . S
H970 C958 0.956 . S
H971 C958 0.961 . S
H972 C958 0.961 . S
H973 C959 0.958 . S
H974 C959 0.961 . S
H975 C959 0.960 . S
C976 C977 1.391 . S
C976 C978 1.394 . S
C976 H992 0.931 . S
C977 C976 1.391 . S
C977 C981 1.376 . S
C978 C976 1.394 . S
C978 C979 1.369 . S
C978 C982 1.531 . S
C979 C978 1.369 . S
C979 C980 1.410 . S
C979 C987 1.503 . S
C980 C979 1.410 . S
C980 C981 1.392 . S
C980 C983 1.511 . S
C981 C977 1.376 . S
C981 C980 1.392 . S
C981 H993 0.929 . S
C982 C978 1.531 . S
C982 H994 0.960 . S
C982 H995 0.962 . S
C982 H996 0.960 . S
C983 C980 1.511 . S
C983 H997 0.961 . S
C983 H998 0.961 . S
C983 H999 0.961 . S
C984 C985 1.370 . S
C984 C986 1.363 . S
C984 H1000 0.931 . S
C985 C984 1.370 . S
C985 C989 1.408 . S
C986 C984 1.363 . S
C986 C987 1.370 . S
C986 C990 1.524 . S
C987 C979 1.503 . S
C987 C986 1.370 . S
C987 C988 1.403 . S
C988 C987 1.403 . S
C988 C989 1.404 . S
C988 C991 1.539 . S
C989 C985 1.408 . S
C989 C988 1.404 . S
C989 H1001 0.930 . S
C990 C986 1.524 . S
C990 H1002 0.956 . S
C990 H1003 0.961 . S
C990 H1004 0.961 . S
C991 C988 1.539 . S
C991 H1005 0.958 . S
C991 H1006 0.961 . S
C991 H1007 0.960 . S
H992 C976 0.931 . S
H993 C981 0.929 . S
H994 C982 0.960 . S
H995 C982 0.962 . S
H996 C982 0.960 . S
H997 C983 0.961 . S
H998 C983 0.961 . S
H999 C983 0.961 . S
H1000 C984 0.931 . S
H1001 C989 0.930 . S
H1002 C990 0.956 . S
H1003 C990 0.961 . S
H1004 C990 0.961 . S
H1005 C991 0.958 . S
H1006 C991 0.961 . S
H1007 C991 0.960 . S
C1008 C1009 1.391 . S
C1008 C1010 1.394 . S
C1008 H1024 0.931 . S
C1009 C1008 1.391 . S
C1009 C1013 1.376 . S
C1010 C1008 1.394 . S
C1010 C1011 1.369 . S
C1010 C1014 1.531 . S
C1011 C1010 1.369 . S
C1011 C1012 1.410 . S
C1011 C1019 1.503 . S
C1012 C1011 1.410 . S
C1012 C1013 1.392 . S
C1012 C1015 1.511 . S
C1013 C1009 1.376 . S
C1013 C1012 1.392 . S
C1013 H1025 0.929 . S
C1014 C1010 1.531 . S
C1014 H1026 0.960 . S
C1014 H1027 0.962 . S
C1014 H1028 0.960 . S
C1015 C1012 1.511 . S
C1015 H1029 0.961 . S
C1015 H1030 0.961 . S
C1015 H1031 0.961 . S
C1016 C1017 1.370 . S
C1016 C1018 1.363 . S
C1016 H1032 0.931 . S
C1017 C1016 1.370 . S
C1017 C1021 1.408 . S
C1018 C1016 1.363 . S
C1018 C1019 1.370 . S
C1018 C1022 1.524 . S
C1019 C1011 1.503 . S
C1019 C1018 1.370 . S
C1019 C1020 1.403 . S
C1020 C1019 1.403 . S
C1020 C1021 1.404 . S
C1020 C1023 1.539 . S
C1021 C1017 1.408 . S
C1021 C1020 1.404 . S
C1021 H1033 0.930 . S
C1022 C1018 1.524 . S
C1022 H1034 0.956 . S
C1022 H1035 0.961 . S
C1022 H1036 0.961 . S
C1023 C1020 1.539 . S
C1023 H1037 0.958 . S
C1023 H1038 0.961 . S
C1023 H1039 0.960 . S
H1024 C1008 0.931 . S
H1025 C1013 0.929 . S
H1026 C1014 0.960 . S
H1027 C1014 0.962 . S
H1028 C1014 0.960 . S
H1029 C1015 0.961 . S
H1030 C1015 0.961 . S
H1031 C1015 0.961 . S
H1032 C1016 0.931 . S
H1033 C1021 0.930 . S
H1034 C1022 0.956 . S
H1035 C1022 0.961 . S
H1036 C1022 0.961 . S
H1037 C1023 0.958 . S
H1038 C1023 0.961 . S
H1039 C1023 0.960 . S
C1040 C1041 1.391 . S
C1040 C1042 1.394 . S
C1040 H1056 0.931 . S
C1041 C1040 1.391 . S
C1041 C1045 1.376 . S
C1042 C1040 1.394 . S
C1042 C1043 1.369 . S
C1042 C1046 1.531 . S
C1043 C1042 1.369 . S
C1043 C1044 1.410 . S
C1043 C1051 1.503 . S
C1044 C1043 1.410 . S
C1044 C1045 1.392 . S
C1044 C1047 1.511 . S
C1045 C1041 1.376 . S
C1045 C1044 1.392 . S
C1045 H1057 0.929 . S
C1046 C1042 1.531 . S
C1046 H1058 0.960 . S
C1046 H1059 0.962 . S
C1046 H1060 0.960 . S
C1047 C1044 1.511 . S
C1047 H1061 0.961 . S
C1047 H1062 0.961 . S
C1047 H1063 0.961 . S
C1048 C1049 1.370 . S
C1048 C1050 1.363 . S
C1048 H1064 0.931 . S
C1049 C1048 1.370 . S
C1049 C1053 1.408 . S
C1050 C1048 1.363 . S
C1050 C1051 1.370 . S
C1050 C1054 1.524 . S
C1051 C1043 1.503 . S
C1051 C1050 1.370 . S
C1051 C1052 1.403 . S
C1052 C1051 1.403 . S
C1052 C1053 1.404 . S
C1052 C1055 1.539 . S
C1053 C1049 1.408 . S
C1053 C1052 1.404 . S
C1053 H1065 0.930 . S
C1054 C1050 1.524 . S
C1054 H1066 0.956 . S
C1054 H1067 0.961 . S
C1054 H1068 0.961 . S
C1055 C1052 1.539 . S
C1055 H1069 0.958 . S
C1055 H1070 0.961 . S
C1055 H1071 0.960 . S
H1056 C1040 0.931 . S
H1057 C1045 0.929 . S
H1058 C1046 0.960 . S
H1059 C1046 0.962 . S
H1060 C1046 0.960 . S
H1061 C1047 0.961 . S
H1062 C1047 0.961 . S
H1063 C1047 0.961 . S
H1064 C1048 0.931 . S
H1065 C1053 0.930 . S
H1066 C1054 0.956 . S
H1067 C1054 0.961 . S
H1068 C1054 0.961 . S
H1069 C1055 0.958 . S
H1070 C1055 0.961 . S
H1071 C1055 0.960 . S
C1072 C1073 1.391 . S
C1072 C1074 1.394 . S
C1072 H1088 0.931 . S
C1073 C1072 1.391 . S
C1073 C1077 1.376 . S
C1074 C1072 1.394 . S
C1074 C1075 1.369 . S
C1074 C1078 1.531 . S
C1075 C1074 1.369 . S
C1075 C1076 1.410 . S
C1075 C1083 1.503 . S
C1076 C1075 1.410 . S
C1076 C1077 1.392 . S
C1076 C1079 1.511 . S
C1077 C1073 1.376 . S
C1077 C1076 1.392 . S
C1077 H1089 0.929 . S
C1078 C1074 1.531 . S
C1078 H1090 0.960 . S
C1078 H1091 0.962 . S
C1078 H1092 0.960 . S
C1079 C1076 1.511 . S
C1079 H1093 0.961 . S
C1079 H1094 0.961 . S
C1079 H1095 0.961 . S
C1080 C1081 1.370 . S
C1080 C1082 1.363 . S
C1080 H1096 0.931 . S
C1081 C1080 1.370 . S
C1081 C1085 1.408 . S
C1082 C1080 1.363 . S
C1082 C1083 1.370 . S
C1082 C1086 1.524 . S
C1083 C1075 1.503 . S
C1083 C1082 1.370 . S
C1083 C1084 1.403 . S
C1084 C1083 1.403 . S
C1084 C1085 1.404 . S
C1084 C1087 1.539 . S
C1085 C1081 1.408 . S
C1085 C1084 1.404 . S
C1085 H1097 0.930 . S
C1086 C1082 1.524 . S
C1086 H1098 0.956 . S
C1086 H1099 0.961 . S
C1086 H1100 0.961 . S
C1087 C1084 1.539 . S
C1087 H1101 0.958 . S
C1087 H1102 0.961 . S
C1087 H1103 0.960 . S
H1088 C1072 0.931 . S
H1089 C1077 0.929 . S
H1090 C1078 0.960 . S
H1091 C1078 0.962 . S
H1092 C1078 0.960 . S
H1093 C1079 0.961 . S
H1094 C1079 0.961 . S
H1095 C1079 0.961 . S
H1096 C1080 0.931 . S
H1097 C1085 0.930 . S
H1098 C1086 0.956 . S
H1099 C1086 0.961 . S
H1100 C1086 0.961 . S
H1101 C1087 0.958 . S
H1102 C1087 0.961 . S
H1103 C1087 0.960 . S
C1104 C1105 1.391 . S
C1104 C1106 1.394 . S
C1104 H1120 0.931 . S
C1105 C1104 1.391 . S
C1105 C1109 1.376 . S
C1106 C1104 1.394 . S
C1106 C1107 1.369 . S
C1106 C1110 1.531 . S
C1107 C1106 1.369 . S
C1107 C1108 1.410 . S
C1107 C1115 1.503 . S
C1108 C1107 1.410 . S
C1108 C1109 1.392 . S
C1108 C1111 1.511 . S
C1109 C1105 1.376 . S
C1109 C1108 1.392 . S
C1109 H1121 0.929 . S
C1110 C1106 1.531 . S
C1110 H1122 0.960 . S
C1110 H1123 0.962 . S
C1110 H1124 0.960 . S
C1111 C1108 1.511 . S
C1111 H1125 0.961 . S
C1111 H1126 0.961 . S
C1111 H1127 0.961 . S
C1112 C1113 1.370 . S
C1112 C1114 1.363 . S
C1112 H1128 0.931 . S
C1113 C1112 1.370 . S
C1113 C1117 1.408 . S
C1114 C1112 1.363 . S
C1114 C1115 1.370 . S
C1114 C1118 1.524 . S
C1115 C1107 1.503 . S
C1115 C1114 1.370 . S
C1115 C1116 1.403 . S
C1116 C1115 1.403 . S
C1116 C1117 1.404 . S
C1116 C1119 1.539 . S
C1117 C1113 1.408 . S
C1117 C1116 1.404 . S
C1117 H1129 0.930 . S
C1118 C1114 1.524 . S
C1118 H1130 0.956 . S
C1118 H1131 0.961 . S
C1118 H1132 0.961 . S
C1119 C1116 1.539 . S
C1119 H1133 0.958 . S
C1119 H1134 0.961 . S
C1119 H1135 0.960 . S
H1120 C1104 0.931 . S
H1121 C1109 0.929 . S
H1122 C1110 0.960 . S
H1123 C1110 0.962 . S
H1124 C1110 0.960 . S
H1125 C1111 0.961 . S
H1126 C1111 0.961 . S
H1127 C1111 0.961 . S
H1128 C1112 0.931 . S
H1129 C1117 0.930 . S
H1130 C1118 0.956 . S
H1131 C1118 0.961 . S
H1132 C1118 0.961 . S
H1133 C1119 0.958 . S
H1134 C1119 0.961 . S
H1135 C1119 0.960 . S
C1136 C1137 1.391 . S
C1136 C1138 1.394 . S
C1136 H1152 0.931 . S
C1137 C1136 1.391 . S
C1137 C1141 1.376 . S
C1138 C1136 1.394 . S
C1138 C1139 1.369 . S
C1138 C1142 1.531 . S
C1139 C1138 1.369 . S
C1139 C1140 1.410 . S
C1139 C1147 1.503 . S
C1140 C1139 1.410 . S
C1140 C1141 1.392 . S
C1140 C1143 1.511 . S
C1141 C1137 1.376 . S
C1141 C1140 1.392 . S
C1141 H1153 0.929 . S
C1142 C1138 1.531 . S
C1142 H1154 0.960 . S
C1142 H1155 0.962 . S
C1142 H1156 0.960 . S
C1143 C1140 1.511 . S
C1143 H1157 0.961 . S
C1143 H1158 0.961 . S
C1143 H1159 0.961 . S
C1144 C1145 1.370 . S
C1144 C1146 1.363 . S
C1144 H1160 0.931 . S
C1145 C1144 1.370 . S
C1145 C1149 1.408 . S
C1146 C1144 1.363 . S
C1146 C1147 1.370 . S
C1146 C1150 1.524 . S
C1147 C1139 1.503 . S
C1147 C1146 1.370 . S
C1147 C1148 1.403 . S
C1148 C1147 1.403 . S
C1148 C1149 1.404 . S
C1148 C1151 1.539 . S
C1149 C1145 1.408 . S
C1149 C1148 1.404 . S
C1149 H1161 0.930 . S
C1150 C1146 1.524 . S
C1150 H1162 0.956 . S
C1150 H1163 0.961 . S
C1150 H1164 0.961 . S
C1151 C1148 1.539 . S
C1151 H1165 0.958 . S
C1151 H1166 0.961 . S
C1151 H1167 0.960 . S
H1152 C1136 0.931 . S
H1153 C1141 0.929 . S
H1154 C1142 0.960 . S
H1155 C1142 0.962 . S
H1156 C1142 0.960 . S
H1157 C1143 0.961 . S
H1158 C1143 0.961 . S
H1159 C1143 0.961 . S
H1160 C1144 0.931 . S
H1161 C1149 0.930 . S
H1162 C1150 0.956 . S
H1163 C1150 0.961 . S
H1164 C1150 0.961 . S
H1165 C1151 0.958 . S
H1166 C1151 0.961 . S
H1167 C1151 0.960 . S
C1168 C1169 1.391 . S
C1168 C1170 1.394 . S
C1168 H1184 0.931 . S
C1169 C1168 1.391 . S
C1169 C1173 1.376 . S
C1170 C1168 1.394 . S
C1170 C1171 1.369 . S
C1170 C1174 1.531 . S
C1171 C1170 1.369 . S
C1171 C1172 1.410 . S
C1171 C1179 1.503 . S
C1172 C1171 1.410 . S
C1172 C1173 1.392 . S
C1172 C1175 1.511 . S
C1173 C1169 1.376 . S
C1173 C1172 1.392 . S
C1173 H1185 0.929 . S
C1174 C1170 1.531 . S
C1174 H1186 0.960 . S
C1174 H1187 0.962 . S
C1174 H1188 0.960 . S
C1175 C1172 1.511 . S
C1175 H1189 0.961 . S
C1175 H1190 0.961 . S
C1175 H1191 0.961 . S
C1176 C1177 1.370 . S
C1176 C1178 1.363 . S
C1176 H1192 0.931 . S
C1177 C1176 1.370 . S
C1177 C1181 1.408 . S
C1178 C1176 1.363 . S
C1178 C1179 1.370 . S
C1178 C1182 1.524 . S
C1179 C1171 1.503 . S
C1179 C1178 1.370 . S
C1179 C1180 1.403 . S
C1180 C1179 1.403 . S
C1180 C1181 1.404 . S
C1180 C1183 1.539 . S
C1181 C1177 1.408 . S
C1181 C1180 1.404 . S
C1181 H1193 0.930 . S
C1182 C1178 1.524 . S
C1182 H1194 0.956 . S
C1182 H1195 0.961 . S
C1182 H1196 0.961 . S
C1183 C1180 1.539 . S
C1183 H1197 0.958 . S
C1183 H1198 0.961 . S
C1183 H1199 0.960 . S
H1184 C1168 0.931 . S
H1185 C1173 0.929 . S
H1186 C1174 0.960 . S
H1187 C1174 0.962 . S
H1188 C1174 0.960 . S
H1189 C1175 0.961 . S
H1190 C1175 0.961 . S
H1191 C1175 0.961 . S
H1192 C1176 0.931 . S
H1193 C1181 0.930 . S
H1194 C1182 0.956 . S
H1195 C1182 0.961 . S
H1196 C1182 0.961 . S
H1197 C1183 0.958 . S
H1198 C1183 0.961 . S
H1199 C1183 0.960 . S
C1200 C1201 1.391 . S
C1200 C1202 1.394 . S
C1200 H1216 0.931 . S
C1201 C1200 1.391 . S
C1201 C1205 1.376 . S
C1202 C1200 1.394 . S
C1202 C1203 1.369 . S
C1202 C1206 1.531 . S
C1203 C1202 1.369 . S
C1203 C1204 1.410 . S
C1203 C1211 1.503 . S
C1204 C1203 1.410 . S
C1204 C1205 1.392 . S
C1204 C1207 1.511 . S
C1205 C1201 1.376 . S
C1205 C1204 1.392 . S
C1205 H1217 0.929 . S
C1206 C1202 1.531 . S
C1206 H1218 0.960 . S
C1206 H1219 0.962 . S
C1206 H1220 0.960 . S
C1207 C1204 1.511 . S
C1207 H1221 0.961 . S
C1207 H1222 0.961 . S
C1207 H1223 0.961 . S
C1208 C1209 1.370 . S
C1208 C1210 1.363 . S
C1208 H1224 0.931 . S
C1209 C1208 1.370 . S
C1209 C1213 1.408 . S
C1210 C1208 1.363 . S
C1210 C1211 1.370 . S
C1210 C1214 1.524 . S
C1211 C1203 1.503 . S
C1211 C1210 1.370 . S
C1211 C1212 1.403 . S
C1212 C1211 1.403 . S
C1212 C1213 1.404 . S
C1212 C1215 1.539 . S
C1213 C1209 1.408 . S
C1213 C1212 1.404 . S
C1213 H1225 0.930 . S
C1214 C1210 1.524 . S
C1214 H1226 0.956 . S
C1214 H1227 0.961 . S
C1214 H1228 0.961 . S
C1215 C1212 1.539 . S
C1215 H1229 0.958 . S
C1215 H1230 0.961 . S
C1215 H1231 0.960 . S
H1216 C1200 0.931 . S
H1217 C1205 0.929 . S
H1218 C1206 0.960 . S
H1219 C1206 0.962 . S
H1220 C1206 0.960 . S
H1221 C1207 0.961 . S
H1222 C1207 0.961 . S
H1223 C1207 0.961 . S
H1224 C1208 0.931 . S
H1225 C1213 0.930 . S
H1226 C1214 0.956 . S
H1227 C1214 0.961 . S
H1228 C1214 0.961 . S
H1229 C1215 0.958 . S
H1230 C1215 0.961 . S
H1231 C1215 0.960 . S
C1232 C1233 1.391 . S
C1232 C1234 1.394 . S
C1232 H1248 0.931 . S
C1233 C1232 1.391 . S
C1233 C1237 1.376 . S
C1234 C1232 1.394 . S
C1234 C1235 1.369 . S
C1234 C1238 1.531 . S
C1235 C1234 1.369 . S
C1235 C1236 1.410 . S
C1235 C1243 1.503 . S
C1236 C1235 1.410 . S
C1236 C1237 1.392 . S
C1236 C1239 1.511 . S
C1237 C1233 1.376 . S
C1237 C1236 1.392 . S
C1237 H1249 0.929 . S
C1238 C1234 1.531 . S
C1238 H1250 0.960 . S
C1238 H1251 0.962 . S
C1238 H1252 0.960 . S
C1239 C1236 1.511 . S
C1239 H1253 0.961 . S
C1239 H1254 0.961 . S
C1239 H1255 0.961 . S
C1240 C1241 1.370 . S
C1240 C1242 1.363 . S
C1240 H1256 0.931 . S
C1241 C1240 1.370 . S
C1241 C1245 1.408 . S
C1242 C1240 1.363 . S
C1242 C1243 1.370 . S
C1242 C1246 1.524 . S
C1243 C1235 1.503 . S
C1243 C1242 1.370 . S
C1243 C1244 1.403 . S
C1244 C1243 1.403 . S
C1244 C1245 1.404 . S
C1244 C1247 1.539 . S
C1245 C1241 1.408 . S
C1245 C1244 1.404 . S
C1245 H1257 0.930 . S
C1246 C1242 1.524 . S
C1246 H1258 0.956 . S
C1246 H1259 0.961 . S
C1246 H1260 0.961 . S
C1247 C1244 1.539 . S
C1247 H1261 0.958 . S
C1247 H1262 0.961 . S
C1247 H1263 0.960 . S
H1248 C1232 0.931 . S
H1249 C1237 0.929 . S
H1250 C1238 0.960 . S
H1251 C1238 0.962 . S
H1252 C1238 0.960 . S
H1253 C1239 0.961 . S
H1254 C1239 0.961 . S
H1255 C1239 0.961 . S
H1256 C1240 0.931 . S
H1257 C1245 0.930 . S
H1258 C1246 0.956 . S
H1259 C1246 0.961 . S
H1260 C1246 0.961 . S
H1261 C1247 0.958 . S
H1262 C1247 0.961 . S
H1263 C1247 0.960 . S
C1264 C1265 1.391 . S
C1264 C1266 1.394 . S
C1264 H1280 0.931 . S
C1265 C1264 1.391 . S
C1265 C1269 1.376 . S
C1266 C1264 1.394 . S
C1266 C1267 1.369 . S
C1266 C1270 1.531 . S
C1267 C1266 1.369 . S
C1267 C1268 1.410 . S
C1267 C1275 1.503 . S
C1268 C1267 1.410 . S
C1268 C1269 1.392 . S
C1268 C1271 1.511 . S
C1269 C1265 1.376 . S
C1269 C1268 1.392 . S
C1269 H1281 0.929 . S
C1270 C1266 1.531 . S
C1270 H1282 0.960 . S
C1270 H1283 0.962 . S
C1270 H1284 0.960 . S
C1271 C1268 1.511 . S
C1271 H1285 0.961 . S
C1271 H1286 0.961 . S
C1271 H1287 0.961 . S
C1272 C1273 1.370 . S
C1272 C1274 1.363 . S
C1272 H1288 0.931 . S
C1273 C1272 1.370 . S
C1273 C1277 1.408 . S
C1274 C1272 1.363 . S
C1274 C1275 1.370 . S
C1274 C1278 1.524 . S
C1275 C1267 1.503 . S
C1275 C1274 1.370 . S
C1275 C1276 1.403 . S
C1276 C1275 1.403 . S
C1276 C1277 1.404 . S
C1276 C1279 1.539 . S
C1277 C1273 1.408 . S
C1277 C1276 1.404 . S
C1277 H1289 0.930 . S
C1278 C1274 1.524 . S
C1278 H1290 0.956 . S
C1278 H1291 0.961 . S
C1278 H1292 0.961 . S
C1279 C1276 1.539 . S
C1279 H1293 0.958 . S
C1279 H1294 0.961 . S
C1279 H1295 0.960 . S
H1280 C1264 0.931 . S
H1281 C1269 0.929 . S
H1282 C1270 0.960 . S
H1283 C1270 0.962 . S
H1284 C1270 0.960 . S
H1285 C1271 0.961 . S
H1286 C1271 0.961 . S
H1287 C1271 0.961 . S
H1288 C1272 0.931 . S
H1289 C1277 0.930 . S
H1290 C1278 0.956 . S
H1291 C1278 0.961 . S
H1292 C1278 0.961 . S
H1293 C1279 0.958 . S
H1294 C1279 0.961 . S
H1295 C1279 0.960 . S
C281 C193 1.557 . S
C273 C14 1.555 . S
C305 C25 1.545 . S
C313 C225 1.560 . S
C337 C50 1.511 . S
C345 C248 1.559 . S
C377 C152 1.565 . S
C369 C68 1.525 . S
C409 C235 1.417 . S
C401 C16 1.465 . S
C441 C264 1.391 . S
C433 C26 1.503 . S
C473 C168 1.392 . S
C465 C52 1.511 . S
C505 C203 1.380 . S
C497 C70 1.506 . S
C529 C8 1.465 . S
C537 C231 1.422 . S
C561 C88 1.511 . S
C569 C206 1.379 . S
C593 C44 1.487 . S
C601 C174 1.375 . S
C633 C263 1.412 . S
C625 C98 1.495 . S
C665 C207 1.553 . S
C657 C7 1.547 . S
C689 C86 1.506 . S
C697 C175 1.549 . S
C721 C43 1.541 . S
C729 C262 1.564 . S
C761 C230 1.561 . S
C753 C97 1.538 . S
C785 C116 1.506 . S
C793 C257 1.546 . S
C817 C79 1.531 . S
C825 C161 1.548 . S
C849 C140 1.528 . S
C857 C184 1.565 . S
C881 C104 1.535 . S
C889 C216 1.567 . S
C921 C171 1.392 . S
C913 C115 1.495 . S
C945 C80 1.513 . S
C953 C200 1.413 . S
C977 C142 1.520 . S
C985 C232 1.398 . S
C1017 C267 1.384 . S
C1009 C106 1.500 . S
C1041 C122 1.502 . S
C1049 C167 1.390 . S
C1073 C34 1.507 . S
C1081 C270 1.388 . S
C1105 C134 1.496 . S
C1113 C238 1.368 . S
C1145 C199 1.422 . S
C1137 C62 1.470 . S
C1177 C271 1.545 . S
C1169 C124 1.501 . S
C1209 C239 1.556 . S
C1201 C32 1.553 . S
C1241 C198 1.561 . S
C1233 C133 1.532 . S
C1273 C166 1.563 . S
C1265 C61 1.547 . S
