# Generated by pormake.
# Topology anh, (6,3)-cn, num edge types: 1
# Building blocks:
#     Node 0, Type 0, BuildingBlock: CUKXOW_clean_sbu_0, # of connection points: 6
#     Node 1, Type 0, BuildingBlock: CUKXOW_clean_sbu_0, # of connection points: 6
#     Node 2, Type 0, BuildingBlock: CUKXOW_clean_sbu_0, # of connection points: 6
#     Node 3, Type 1, BuildingBlock: BETDIP_clean_linker_0, # of connection points: 3
#     Node 4, Type 1, BuildingBlock: BETDIP_clean_linker_0, # of connection points: 3
#     Node 5, Type 1, BuildingBlock: BETDIP_clean_linker_0, # of connection points: 3
#     Node 6, Type 1, BuildingBlock: BETDIP_clean_linker_0, # of connection points: 3
#     Node 7, Type 1, BuildingBlock: BETDIP_clean_linker_0, # of connection points: 3
#     Node 8, Type 1, BuildingBlock: BETDIP_clean_linker_0, # of connection points: 3
#     Edge 9, Type (0, 1), BuildingBlock: KIFKEQ_clean_linker_1, # of connection points: 2
#     Edge 10, Type (0, 1), BuildingBlock: KIFKEQ_clean_linker_1, # of connection points: 2
#     Edge 11, Type (0, 1), BuildingBlock: KIFKEQ_clean_linker_1, # of connection points: 2
#     Edge 12, Type (0, 1), BuildingBlock: KIFKEQ_clean_linker_1, # of connection points: 2
#     Edge 13, Type (0, 1), BuildingBlock: KIFKEQ_clean_linker_1, # of connection points: 2
#     Edge 14, Type (0, 1), BuildingBlock: KIFKEQ_clean_linker_1, # of connection points: 2
#     Edge 15, Type (0, 1), BuildingBlock: KIFKEQ_clean_linker_1, # of connection points: 2
#     Edge 16, Type (0, 1), BuildingBlock: KIFKEQ_clean_linker_1, # of connection points: 2
#     Edge 17, Type (0, 1), BuildingBlock: KIFKEQ_clean_linker_1, # of connection points: 2
#     Edge 18, Type (0, 1), BuildingBlock: KIFKEQ_clean_linker_1, # of connection points: 2
#     Edge 19, Type (0, 1), BuildingBlock: KIFKEQ_clean_linker_1, # of connection points: 2
#     Edge 20, Type (0, 1), BuildingBlock: KIFKEQ_clean_linker_1, # of connection points: 2
#     Edge 21, Type (0, 1), BuildingBlock: KIFKEQ_clean_linker_1, # of connection points: 2
#     Edge 22, Type (0, 1), BuildingBlock: KIFKEQ_clean_linker_1, # of connection points: 2
#     Edge 23, Type (0, 1), BuildingBlock: KIFKEQ_clean_linker_1, # of connection points: 2
#     Edge 24, Type (0, 1), BuildingBlock: KIFKEQ_clean_linker_1, # of connection points: 2
#     Edge 25, Type (0, 1), BuildingBlock: KIFKEQ_clean_linker_1, # of connection points: 2
#     Edge 26, Type (0, 1), BuildingBlock: KIFKEQ_clean_linker_1, # of connection points: 2
# Relax obj value: 0.081
# Max RMSD: 0.172
# Mean RMSD: 0.106
data_MOF--net-anh--node1-CUKXOW_clean_sbu_0--node2-BETDIP_clean_linker_0--edge1-KIFKEQ_clean_linker_1
_symmetry_space_group_name_H-M    P1
_symmetry_Int_Tables_number       1
_symmetry_cell_setting            triclinic
loop_
_symmetry_equiv_pos_as_xyz
'x, y, z'
_cell_length_a     29.259358
_cell_length_b     28.629835
_cell_length_c     49.573117
_cell_angle_alpha  99.213397
_cell_angle_beta   89.980381
_cell_angle_gamma 112.20114
loop_
_atom_site_label
_atom_site_type_symbol
_atom_site_fract_x
_atom_site_fract_y
_atom_site_fract_z
_atom_type_partial_charge
Tb0 Tb 0.10391 0.56091 0.14851 0.0
C1 C 0.06925 0.51607 0.20257 0.0
Tb2 Tb 0.03632 0.44428 0.14484 0.0
O3 O 0.04343 0.58939 0.14475 0.0
O4 O 1.02865 0.51395 0.14438 0.0
O5 O 0.10406 0.55089 0.1911 0.0
C6 C 0.95658 0.35855 0.1433 0.0
O7 O 0.03502 0.47433 0.18808 0.0
C8 C 0.13243 0.46542 0.14212 0.0
C9 C 0.07251 0.4876 0.0909 0.0
O10 O 0.99677 0.37126 0.15883 0.0
O11 O 0.96199 0.39357 0.12856 0.0
O12 O 0.09796 0.42107 0.1324 0.0
O13 O 0.11196 0.49281 0.15541 0.0
O14 O 0.03799 0.45213 0.10202 0.0
O15 O 0.10516 0.53036 0.10544 0.0
C16 C 0.18271 0.64847 0.15351 0.0
O17 O 0.17419 0.60917 0.13419 0.0
O18 O 0.14679 0.63847 0.16981 0.0
C19 C 1.00769 0.54486 0.1436 0.0
Tb20 Tb 0.53028 0.0294 0.50014 0.0
C21 C 0.58428 0.05892 0.44657 0.0
Tb22 Tb 0.64331 0.10566 0.50465 0.0
O23 O 0.49806 0.08906 0.50331 0.0
O24 O 0.57258 0.1069 0.50443 0.0
O25 O 0.54908 0.02374 0.45766 0.0
C26 C 0.72529 0.18855 0.50545 0.0
O27 O 0.62165 0.09742 0.4613 0.0
C28 C 0.6259 0.00936 0.50713 0.0
C29 C 0.58846 0.07854 0.55829 0.0
O30 O 0.71783 0.14348 0.49147 0.0
O31 O 0.68693 0.18657 0.51909 0.0
O32 O 0.66651 0.04728 0.51735 0.0
O33 O 0.6008 0.02627 0.49381 0.0
O34 O 0.62588 0.11167 0.54741 0.0
O35 O 0.55053 0.04091 0.54364 0.0
C36 C 0.45071 0.94317 0.49581 0.0
O37 O 0.48596 0.95907 0.51505 0.0
O38 O 0.46009 0.97601 0.47922 0.0
C39 C 0.54102 0.12664 0.50475 0.0
Tb40 Tb 0.54184 0.60339 0.83471 0.0
C41 C 0.59178 0.62692 0.89332 0.0
Tb42 Tb 0.65646 0.63482 0.84107 0.0
O43 O 0.53093 0.5321 0.84915 0.0
O44 O 0.59328 0.5667 0.82836 0.0
O45 O 0.55376 0.62759 0.87885 0.0
C46 C 0.74298 0.62573 0.84536 0.0
O47 O 0.63215 0.62396 0.88208 0.0
C48 C 0.63362 0.71647 0.84548 0.0
C49 C 0.60543 0.61879 0.78297 0.0
O50 O 0.70882 0.61381 0.86264 0.0
O51 O 0.72869 0.64331 0.82581 0.0
O52 O 0.67887 0.71898 0.84738 0.0
O53 O 0.60598 0.66998 0.84177 0.0
O54 O 0.64273 0.6158 0.79681 0.0
O55 O 0.56583 0.62211 0.79479 0.0
C56 C 0.44862 0.58035 0.81769 0.0
O57 O 0.47607 0.55561 0.80866 0.0
O58 O 0.47367 0.61891 0.83673 0.0
C59 C 0.57281 0.53077 0.84149 0.0
H60 H 0.52377 0.98116 0.16124 0.0
H61 H 0.61408 0.07302 0.23362 0.0
H62 H 0.47693 0.94884 0.24081 0.0
H63 H 0.60826 0.13514 0.2002 0.0
C64 C 0.62722 0.11604 0.18641 0.0
C65 C 0.53014 0.98956 0.18334 0.0
C66 C 0.49515 0.96056 0.1997 0.0
C67 C 0.57218 0.03121 0.19561 0.0
C68 C 0.58058 0.04202 0.22427 0.0
C69 C 0.54701 0.01167 0.24071 0.0
C70 C 0.50387 0.97167 0.22826 0.0
N71 N 0.60625 0.06189 0.17906 0.0
H72 H 0.58079 0.51992 0.49718 0.0
H73 H 0.59184 0.63055 0.56919 0.0
H74 H 0.60028 0.48655 0.57699 0.0
H75 H 0.5168 0.62388 0.53451 0.0
C76 C 0.54803 0.64027 0.52237 0.0
C77 C 0.58554 0.53117 0.51925 0.0
C78 C 0.59155 0.49784 0.53574 0.0
C79 C 0.58483 0.57877 0.53139 0.0
C80 C 0.59097 0.59322 0.56001 0.0
C81 C 0.59732 0.5606 0.57669 0.0
C82 C 0.59742 0.51298 0.56431 0.0
N83 N 0.57897 0.6127 0.5149 0.0
H84 H 1.0057 0.45386 0.81259 0.0
H85 H 0.07872 0.40189 0.86968 0.0
H86 H 0.9982 0.49586 0.89904 0.0
H87 H 0.05908 0.44 0.78354 0.0
C88 C 0.08187 0.42476 0.79367 0.0
C89 C 1.01501 0.45206 0.8334 0.0
C90 C 0.99873 0.47835 0.85514 0.0
C91 C 0.04381 0.42429 0.83858 0.0
C92 C 0.05546 0.42218 0.86569 0.0
C93 C 0.04048 0.44951 0.88756 0.0
C94 C 1.01136 0.47646 0.88208 0.0
N95 N 0.06537 0.40216 0.81718 0.0
H96 H 0.13 0.59436 0.48768 0.0
H97 H 0.03447 0.50878 0.41609 0.0
H98 H 0.17517 0.62621 0.40769 0.0
H99 H 0.97786 0.52748 0.4516 0.0
C100 C 0.99062 0.50745 0.46486 0.0
C101 C 0.12304 0.5868 0.46563 0.0
C102 C 0.15865 0.6146 0.44909 0.0
C103 C 0.07777 0.5498 0.45384 0.0
C104 C 0.06869 0.53888 0.42523 0.0
C105 C 0.10436 0.56535 0.40838 0.0
C106 C 0.14874 0.60371 0.42055 0.0
N107 N 0.04211 0.52272 0.47095 0.0
H108 H 0.60869 0.16772 0.84326 0.0
H109 H 0.58426 0.05552 0.77011 0.0
H110 H 0.6061 0.20955 0.76352 0.0
H111 H 0.52482 0.00905 0.80072 0.0
C112 C 0.55403 0.01716 0.81643 0.0
C113 C 0.6049 0.15798 0.82112 0.0
C114 C 0.60968 0.19581 0.80503 0.0
C115 C 0.59419 0.10699 0.80867 0.0
C116 C 0.59084 0.09433 0.77994 0.0
C117 C 0.59551 0.13144 0.76376 0.0
C118 C 0.60405 0.1816 0.77634 0.0
N119 N 0.58735 0.06875 0.8251 0.0
H120 H 0.52601 0.50693 0.15658 0.0
H121 H 0.6192 0.54309 0.0894 0.0
H122 H 0.47536 0.55012 0.08643 0.0
H123 H 0.62465 0.45978 0.10437 0.0
C124 C 0.64266 0.48679 0.12288 0.0
C125 C 0.53212 0.51851 0.1367 0.0
C126 C 0.4951 0.52877 0.1231 0.0
C127 C 0.57703 0.52297 0.12431 0.0
C128 C 0.5844 0.53816 0.09855 0.0
C129 C 0.54828 0.54868 0.08494 0.0
C130 C 0.50399 0.54371 0.09733 0.0
N131 N 0.61549 0.51381 0.13772 0.0
H132 H 0.17772 0.40266 0.1191 0.0
H133 H 0.21011 0.5531 0.16613 0.0
H134 H 0.2658 0.419 0.11949 0.0
H135 H 0.29873 0.56967 0.16677 0.0
H136 H 0.45256 0.59943 0.13001 0.0
H137 H 0.36621 0.58518 0.13718 0.0
H138 H 0.33816 0.42982 0.14715 0.0
H139 H 0.42497 0.44424 0.13943 0.0
C140 C 0.20372 0.43929 0.12963 0.0
C141 C 0.18669 0.47662 0.14247 0.0
C142 C 0.25443 0.44854 0.1301 0.0
C143 C 0.28997 0.49561 0.14332 0.0
C144 C 0.27282 0.53307 0.15619 0.0
C145 C 0.2219 0.52362 0.15586 0.0
C146 C 0.42822 0.56256 0.1344 0.0
C147 C 0.44587 0.52302 0.13419 0.0
C148 C 0.37848 0.55433 0.13853 0.0
C149 C 0.34449 0.50608 0.14244 0.0
C150 C 0.36281 0.46727 0.14374 0.0
C151 C 0.41285 0.47568 0.13975 0.0
H152 H 0.73427 0.28567 0.52537 0.0
H153 H 0.81133 0.19816 0.48124 0.0
H154 H 0.80104 0.36512 0.51889 0.0
H155 H 0.87843 0.27785 0.4749 0.0
H156 H 1.00751 0.43565 0.48954 0.0
H157 H 0.94524 0.35899 0.50263 0.0
H158 H 0.8294 0.40315 0.4757 0.0
H159 H 0.89156 0.47947 0.4624 0.0
C160 C 0.76587 0.28352 0.51463 0.0
C161 C 0.7678 0.23597 0.50372 0.0
C162 C 0.80387 0.3289 0.51083 0.0
C163 C 0.8447 0.32749 0.49635 0.0
C164 C 0.8475 0.27992 0.48634 0.0
C165 C 0.80913 0.23444 0.48985 0.0
C166 C 0.96877 0.42923 0.48672 0.0
C167 C 0.95412 0.46337 0.47501 0.0
C168 C 0.93323 0.3853 0.49406 0.0
C169 C 0.88264 0.3753 0.49018 0.0
C170 C 0.8682 0.41026 0.47917 0.0
C171 C 0.90365 0.45373 0.47149 0.0
H172 H 0.69461 0.81574 0.84888 0.0
H173 H 0.5402 0.71624 0.8416 0.0
H174 H 0.67256 0.88838 0.84523 0.0
H175 H 0.51753 0.78945 0.83889 0.0
H176 H 0.50376 0.91693 0.79675 0.0
H177 H 0.52018 0.84407 0.80691 0.0
H178 H 0.63729 0.94594 0.86662 0.0
H179 H 0.62176 0.01903 0.85559 0.0
C180 C 0.6558 0.80962 0.8469 0.0
C181 C 0.61905 0.76041 0.84535 0.0
C182 C 0.64309 0.85138 0.84504 0.0
C183 C 0.59322 0.84498 0.84177 0.0
C184 C 0.55634 0.79572 0.841 0.0
C185 C 0.56918 0.7538 0.8427 0.0
C186 C 0.5327 0.92358 0.81223 0.0
C187 C 0.56174 0.97355 0.82519 0.0
C188 C 0.54192 0.88178 0.81822 0.0
C189 C 0.58026 0.88899 0.83751 0.0
C190 C 0.60806 0.93902 0.85129 0.0
C191 C 0.59902 0.98093 0.84511 0.0
H192 H 0.92803 0.45673 0.14933 0.0
H193 H 0.96465 0.6121 0.1373 0.0
H194 H 0.83991 0.44199 0.14683 0.0
H195 H 0.87689 0.59824 0.1357 0.0
H196 H 0.71522 0.56783 0.15686 0.0
H197 H 0.80291 0.58133 0.16387 0.0
H198 H 0.77561 0.43598 0.11204 0.0
H199 H 0.68885 0.42308 0.10488 0.0
C200 C 0.91734 0.48745 0.1457 0.0
C201 C 0.95358 0.53503 0.14268 0.0
C202 C 0.86671 0.47929 0.14458 0.0
C203 C 0.85088 0.5189 0.141 0.0
C204 C 0.88738 0.5669 0.13872 0.0
C205 C 0.93784 0.57474 0.13945 0.0
C206 C 0.72788 0.53852 0.14733 0.0
C207 C 0.69488 0.49423 0.13041 0.0
C208 C 0.77827 0.54638 0.15114 0.0
C209 C 0.79669 0.50976 0.1385 0.0
C210 C 0.76304 0.46484 0.12235 0.0
C211 C 0.71316 0.45748 0.11818 0.0
H212 H 0.38987 0.89671 0.45017 0.0
H213 H 0.41746 0.87817 0.53262 0.0
H214 H 0.32203 0.81273 0.44251 0.0
H215 H 0.34819 0.79419 0.52507 0.0
H216 H 0.17137 0.68762 0.49477 0.0
H217 H 0.24517 0.7654 0.5095 0.0
H218 H 0.32381 0.71637 0.44464 0.0
H219 H 0.25123 0.63773 0.43053 0.0
C220 C 0.38111 0.87478 0.4667 0.0
C221 C 0.40865 0.89367 0.49196 0.0
C222 C 0.34259 0.82679 0.46227 0.0
C223 C 0.33041 0.79731 0.48319 0.0
C224 C 0.35719 0.81649 0.50871 0.0
C225 C 0.39657 0.86425 0.51297 0.0
C226 C 0.20487 0.69258 0.48422 0.0
C227 C 0.2052 0.65694 0.46117 0.0
C228 C 0.24692 0.73711 0.49261 0.0
C229 C 0.28955 0.74671 0.47791 0.0
C230 C 0.29098 0.70976 0.45604 0.0
C231 C 0.24939 0.66504 0.44792 0.0
H232 H 0.66025 0.52144 0.82803 0.0
H233 H 0.51709 0.4406 0.85647 0.0
H234 H 0.68044 0.44585 0.8267 0.0
H235 H 0.53488 0.36407 0.85301 0.0
H236 H 0.5718 0.22981 0.85154 0.0
H237 H 0.57362 0.31553 0.86682 0.0
H238 H 0.66364 0.36806 0.80011 0.0
H239 H 0.66614 0.28422 0.78688 0.0
C240 C 0.63323 0.48751 0.83409 0.0
C241 C 0.58711 0.48678 0.84226 0.0
C242 C 0.64446 0.44384 0.83307 0.0
C243 C 0.6092 0.39805 0.83946 0.0
C244 C 0.56363 0.39837 0.84843 0.0
C245 C 0.55302 0.44229 0.8501 0.0
C246 C 0.59338 0.26008 0.84072 0.0
C247 C 0.61764 0.24955 0.81746 0.0
C248 C 0.5937 0.30928 0.84918 0.0
C249 C 0.61738 0.34891 0.83424 0.0
C250 C 0.64484 0.33911 0.8123 0.0
C251 C 0.64552 0.29039 0.80431 0.0
H252 H 0.54578 0.9266 0.48273 0.0
H253 H 0.681 0.96855 0.53238 0.0
H254 H 0.5266 0.83617 0.4843 0.0
H255 H 0.66255 0.87803 0.53334 0.0
H256 H 0.63439 0.70694 0.50546 0.0
H257 H 0.6534 0.79601 0.50028 0.0
H258 H 0.5057 0.78029 0.52127 0.0
H259 H 0.48702 0.6917 0.52676 0.0
C260 C 0.57122 0.91649 0.49412 0.0
C261 C 0.61448 0.95463 0.50779 0.0
C262 C 0.56038 0.86474 0.4949 0.0
C263 C 0.59313 0.84999 0.5089 0.0
C264 C 0.63686 0.88817 0.52216 0.0
C265 C 0.64727 0.93997 0.52175 0.0
C266 C 0.60587 0.72237 0.50862 0.0
C267 C 0.55914 0.69243 0.51642 0.0
C268 C 0.61684 0.77342 0.50586 0.0
C269 C 0.58105 0.79515 0.51043 0.0
C270 C 0.5339 0.76455 0.51741 0.0
C271 C 0.52324 0.71392 0.5206 0.0
H272 H 0.80025 0.61774 0.80309 0.0
H273 H 0.78495 0.60647 0.88872 0.0
H274 H 0.8688 0.58817 0.80286 0.0
H275 H 0.85404 0.5782 0.88863 0.0
H276 H 1.00694 0.57204 0.88272 0.0
H277 H 0.9501 0.61518 0.87905 0.0
H278 H 0.86716 0.49683 0.81195 0.0
H279 H 0.9227 0.45217 0.81623 0.0
C280 C 0.81227 0.60993 0.82194 0.0
C281 C 0.78764 0.61425 0.84595 0.0
C282 C 0.85115 0.59289 0.82175 0.0
C283 C 0.86645 0.58117 0.84573 0.0
C284 C 0.84305 0.58754 0.86998 0.0
C285 C 0.80359 0.60351 0.87002 0.0
C286 C 0.97659 0.55514 0.86717 0.0
C287 C 0.96868 0.50812 0.85012 0.0
C288 C 0.94444 0.58007 0.86498 0.0
C289 C 0.9044 0.55901 0.84536 0.0
C290 C 0.89815 0.51386 0.82712 0.0
C291 C 0.92994 0.48842 0.82956 0.0
H292 H 0.21004 0.72445 0.19765 0.0
H293 H 0.25566 0.67943 0.11821 0.0
H294 H 0.28487 0.80158 0.20554 0.0
H295 H 0.33008 0.75826 0.12543 0.0
H296 H 0.48434 0.87247 0.16497 0.0
H297 H 0.4074 0.79791 0.15125 0.0
H298 H 0.32487 0.88198 0.19311 0.0
H299 H 0.402 0.95496 0.20781 0.0
C300 C 0.23588 0.73156 0.18169 0.0
C301 C 0.22718 0.69614 0.15734 0.0
C302 C 0.27868 0.77606 0.18607 0.0
C303 C 0.31355 0.78661 0.16602 0.0
C304 C 0.30439 0.75121 0.14144 0.0
C305 C 0.26169 0.70623 0.13721 0.0
C306 C 0.4495 0.8749 0.17078 0.0
C307 C 0.44875 0.91892 0.18754 0.0
C308 C 0.40541 0.83237 0.1629 0.0
C309 C 0.35983 0.83351 0.17143 0.0
C310 C 0.35927 0.87908 0.18681 0.0
C311 C 0.4033 0.92109 0.19502 0.0
H312 H 0.4762 0.17301 0.51698 0.0
H313 H 0.6244 0.2026 0.49235 0.0
H314 H 0.49051 0.26343 0.51924 0.0
H315 H 0.63963 0.29352 0.49542 0.0
H316 H 0.65852 0.45599 0.54445 0.0
H317 H 0.64739 0.36598 0.53312 0.0
H318 H 0.50679 0.33143 0.49038 0.0
H319 H 0.51814 0.42188 0.50183 0.0
C320 C 0.51195 0.19897 0.51214 0.0
C321 C 0.54986 0.18122 0.50545 0.0
C322 C 0.52006 0.25067 0.51323 0.0
C323 C 0.56632 0.28579 0.50765 0.0
C324 C 0.60386 0.26764 0.50028 0.0
C325 C 0.59549 0.21577 0.49893 0.0
C326 C 0.62579 0.42929 0.53209 0.0
C327 C 0.58916 0.44581 0.52403 0.0
C328 C 0.61943 0.37777 0.52556 0.0
C329 C 0.57596 0.34143 0.51109 0.0
C330 C 0.54041 0.35843 0.50183 0.0
C331 C 0.54711 0.41022 0.5081 0.0
H332 H 0.38277 0.6245 0.83497 0.0
H333 H 0.39576 0.49627 0.7811 0.0
H334 H 0.29291 0.58784 0.82384 0.0
H335 H 0.3067 0.45977 0.77042 0.0
H336 H 0.14863 0.38396 0.80398 0.0
H337 H 0.23871 0.4256 0.80554 0.0
H338 H 0.22602 0.55758 0.77985 0.0
H339 H 0.13537 0.51516 0.77765 0.0
C340 C 0.36653 0.58905 0.8205 0.0
C341 C 0.3959 0.5629 0.80911 0.0
C342 C 0.3154 0.56827 0.81405 0.0
C343 C 0.29324 0.52095 0.79641 0.0
C344 C 0.32302 0.49613 0.78418 0.0
C345 C 0.3739 0.51707 0.79033 0.0
C346 C 0.16513 0.4214 0.79814 0.0
C347 C 0.13546 0.44647 0.79064 0.0
C348 C 0.21649 0.44517 0.79903 0.0
C349 C 0.23897 0.49477 0.79292 0.0
C350 C 0.20932 0.51939 0.78473 0.0
C351 C 0.15776 0.49505 0.78325 0.0
H352 H 0.86768 0.34334 0.11967 0.0
H353 H 0.93861 0.27928 0.17149 0.0
H354 H 0.78702 0.28032 0.12705 0.0
H355 H 0.8574 0.21538 0.17855 0.0
H356 H 0.69869 0.0846 0.16366 0.0
H357 H 0.77956 0.13919 0.15016 0.0
H358 H 0.74245 0.27191 0.17292 0.0
H359 H 0.66234 0.21774 0.18688 0.0
C360 C 0.86606 0.31512 0.13222 0.0
C361 C 0.90924 0.31615 0.14512 0.0
C362 C 0.81992 0.27926 0.1365 0.0
C363 C 0.81616 0.2433 0.15343 0.0
C364 C 0.85951 0.24262 0.16527 0.0
C365 C 0.90579 0.27913 0.16131 0.0
C366 C 0.70773 0.12536 0.16549 0.0
C367 C 0.67439 0.14716 0.17616 0.0
C368 C 0.75397 0.15648 0.15794 0.0
C369 C 0.76695 0.20956 0.16045 0.0
C370 C 0.73306 0.231 0.17055 0.0
C371 C 0.6874 0.20012 0.17857 0.0
H372 H 0.14311 0.5445 0.06015 0.0
H373 H 1.00744 0.41022 0.05344 0.0
H374 H 0.14495 0.53157 0.01046 0.0
H375 H 1.00876 0.39817 0.00383 0.0
H376 H 0.03467 0.37108 0.91444 0.0
H377 H 0.0505 0.37726 0.96375 0.0
H378 H 0.09652 0.54179 0.9743 0.0
H379 H 0.08214 0.53552 0.92538 0.0
C380 C 0.11369 0.51223 0.04813 0.0
C381 C 0.07478 0.4788 0.06079 0.0
C382 C 0.11479 0.50481 0.01964 0.0
C383 C 0.0769 0.46396 0.00318 0.0
C384 C 0.03888 0.4296 0.0159 0.0
C385 C 0.03787 0.43687 0.04438 0.0
C386 C 0.04925 0.40848 0.92734 0.0
C387 C 0.05656 0.45275 0.9163 0.0
C388 C 0.0579 0.41206 0.95552 0.0
C389 C 0.07431 0.45999 0.97297 0.0
C390 C 0.08432 0.50434 0.9615 0.0
C391 C 0.07561 0.50074 0.9335 0.0
H392 H 0.64898 0.11997 0.41439 0.0
H393 H 0.51307 0.98656 0.41023 0.0
H394 H 0.64362 0.11003 0.36441 0.0
H395 H 0.50746 0.9775 0.36081 0.0
H396 H 0.53715 0.94027 0.2728 0.0
H397 H 0.54973 0.95333 0.32238 0.0
H398 H 0.59259 0.11632 0.32634 0.0
H399 H 0.58035 0.10314 0.27641 0.0
C400 C 0.618 0.08865 0.4029 0.0
C401 C 0.58165 0.05389 0.41636 0.0
C402 C 0.61482 0.08315 0.37429 0.0
C403 C 0.57533 0.04273 0.35866 0.0
C404 C 0.53888 0.00843 0.3722 0.0
C405 C 0.54201 0.01387 0.40064 0.0
C406 C 0.54909 0.97888 0.28426 0.0
C407 C 0.55713 0.02061 0.27079 0.0
C408 C 0.55631 0.98638 0.31265 0.0
C409 C 0.57158 0.0358 0.32831 0.0
C410 C 0.58113 0.07783 0.31481 0.0
C411 C 0.57403 0.07029 0.28627 0.0
H412 H 0.5286 0.59944 0.7461 0.0
H413 H 0.68532 0.63173 0.75198 0.0
H414 H 0.52939 0.58965 0.69657 0.0
H415 H 0.68661 0.62399 0.70233 0.0
H416 H 0.65708 0.54284 0.61294 0.0
H417 H 0.66031 0.56025 0.66264 0.0
H418 H 0.55515 0.63243 0.65901 0.0
H419 H 0.54925 0.61169 0.60929 0.0
C420 C 0.56343 0.60525 0.73684 0.0
C421 C 0.60687 0.61614 0.75298 0.0
C422 C 0.56397 0.59995 0.70837 0.0
C423 C 0.60807 0.606 0.69535 0.0
C424 C 0.65179 0.61816 0.7116 0.0
C425 C 0.65113 0.62288 0.74009 0.0
C426 C 0.63429 0.56202 0.62273 0.0
C427 C 0.6025 0.57533 0.60705 0.0
C428 C 0.63673 0.57276 0.65129 0.0
C429 C 0.60786 0.59762 0.66493 0.0
C430 C 0.5773 0.61246 0.64923 0.0
C431 C 0.57445 0.60122 0.62066 0.0
H432 H 0.50973 0.04174 0.58916 0.0
H433 H 0.66796 0.12658 0.59543 0.0
H434 H 0.51005 0.05079 0.63901 0.0
H435 H 0.66809 0.13499 0.64531 0.0
H436 H 0.64938 0.08816 0.73157 0.0
H437 H 0.64727 0.07272 0.68135 0.0
H438 H 0.5308 0.13006 0.67818 0.0
H439 H 0.53341 0.14606 0.72829 0.0
C440 C 0.54459 0.06207 0.60115 0.0
C441 C 0.58882 0.08363 0.5884 0.0
C442 C 0.54467 0.06734 0.62964 0.0
C443 C 0.58909 0.09345 0.64587 0.0
C444 C 0.63344 0.11432 0.63317 0.0
C445 C 0.63326 0.10984 0.60468 0.0
C446 C 0.62308 0.0969 0.72003 0.0
C447 C 0.5916 0.1183 0.73359 0.0
C448 C 0.62209 0.08844 0.69144 0.0
C449 C 0.58896 0.10036 0.67604 0.0
C450 C 0.55648 0.12033 0.68964 0.0
C451 C 0.55808 0.12963 0.71819 0.0
H452 H 0.66153 0.625 0.92918 0.0
H453 H 0.51263 0.62156 0.92442 0.0
H454 H 0.65211 0.60986 0.97604 0.0
H455 H 0.50334 0.60603 0.97157 0.0
H456 H 0.52417 0.62167 0.06568 0.0
H457 H 0.53552 0.64535 0.02022 0.0
H458 H 0.60236 0.53497 -0.00308 0.0
H459 H 0.59034 0.51063 0.04206 0.0
C460 C 0.62687 0.6215 0.93815 0.0
C461 C 0.58765 0.62412 0.92287 0.0
C462 C 0.62146 0.6125 0.96501 0.0
C463 C 0.57681 0.6061 0.97735 0.0
C464 C 0.53827 0.61098 0.9626 0.0
C465 C 0.5436 0.6198 0.93557 0.0
C466 C 0.54095 0.60217 0.05078 0.0
C467 C 0.55637 0.56424 0.05753 0.0
C468 C 0.54749 0.61583 0.02478 0.0
C469 C 0.56998 0.59218 0.00507 0.0
C470 C 0.58565 0.5545 0.01185 0.0
C471 C 0.57884 0.54062 0.03774 0.0
H472 H 0.14083 0.58839 0.2388 0.0
H473 H 1.00173 0.4589 0.23489 0.0
H474 H 0.14633 0.59743 0.28838 0.0
H475 H 1.00764 0.46813 0.28485 0.0
H476 H 1.01914 0.5456 0.37744 0.0
H477 H 1.00781 0.53164 0.32744 0.0
H478 H 0.15926 0.54486 0.32119 0.0
H479 H 0.17043 0.55791 0.37086 0.0
C480 C 0.11128 0.56191 0.24847 0.0
C481 C 0.07094 0.52271 0.23281 0.0
C482 C 0.11464 0.56696 0.2769 0.0
C483 C 0.07765 0.53317 0.2904 0.0
C484 C 0.0366 0.49476 0.27492 0.0
C485 C 1.03338 0.4894 0.24634 0.0
C486 C 0.04974 0.54475 0.36535 0.0
C487 C 0.09587 0.55349 0.3781 0.0
C488 C 0.04326 0.53685 0.33677 0.0
C489 C 0.08286 0.53784 0.32052 0.0
C490 C 0.12841 0.54497 0.33326 0.0
C491 C 0.13479 0.55253 0.36169 0.0
loop_
_geom_bond_atom_site_label_1
_geom_bond_atom_site_label_2
_geom_bond_distance
_geom_bond_site_symmetry_2
_ccdc_geom_bond_type
Tb0 O3 2.453 . S
Tb0 O4 2.596 . S
Tb0 O5 2.374 . S
Tb0 O13 2.343 . S
Tb0 O15 2.353 . S
Tb0 O17 2.427 . S
Tb0 O18 2.513 . S
C1 O5 1.251 . S
C1 O7 1.263 . S
Tb2 O4 2.343 . S
Tb2 O7 2.353 . S
Tb2 O10 2.427 1_455 S
Tb2 O11 2.513 1_455 S
Tb2 O12 2.453 . S
Tb2 O13 2.596 . S
Tb2 O14 2.374 . S
O3 Tb0 2.453 . S
O3 C19 1.245 1_455 S
O4 Tb0 2.596 . S
O4 Tb2 2.343 . S
O4 C19 1.259 1_455 S
O5 Tb0 2.374 . S
O5 C1 1.251 . S
C6 O10 1.275 . S
C6 O11 1.246 . S
O7 C1 1.263 . S
O7 Tb2 2.353 . S
C8 O12 1.245 . S
C8 O13 1.259 . S
C9 O14 1.250 . S
C9 O15 1.263 . S
O10 Tb2 2.427 1_655 S
O10 C6 1.275 . S
O11 Tb2 2.513 1_655 S
O11 C6 1.246 . S
O12 Tb2 2.453 . S
O12 C8 1.245 . S
O13 Tb0 2.343 . S
O13 Tb2 2.596 . S
O13 C8 1.259 . S
O14 Tb2 2.374 . S
O14 C9 1.250 . S
O15 Tb0 2.353 . S
O15 C9 1.263 . S
C16 O17 1.275 . S
C16 O18 1.246 . S
O17 Tb0 2.427 . S
O17 C16 1.275 . S
O18 Tb0 2.513 . S
O18 C16 1.246 . S
C19 O3 1.245 1_655 S
C19 O4 1.259 1_655 S
Tb20 O23 2.453 . S
Tb20 O24 2.596 . S
Tb20 O25 2.374 . S
Tb20 O33 2.343 . S
Tb20 O35 2.353 . S
Tb20 O37 2.427 1_545 S
Tb20 O38 2.513 1_545 S
C21 O25 1.251 . S
C21 O27 1.263 . S
Tb22 O24 2.343 . S
Tb22 O27 2.353 . S
Tb22 O30 2.427 . S
Tb22 O31 2.513 . S
Tb22 O32 2.453 1_545 S
Tb22 O33 2.596 . S
Tb22 O34 2.374 . S
O23 Tb20 2.453 . S
O23 C39 1.245 . S
O24 Tb20 2.596 . S
O24 Tb22 2.343 . S
O24 C39 1.259 . S
O25 Tb20 2.374 . S
O25 C21 1.251 . S
C26 O30 1.275 . S
C26 O31 1.246 . S
O27 C21 1.263 . S
O27 Tb22 2.353 . S
C28 O32 1.245 . S
C28 O33 1.259 1_565 S
C29 O34 1.250 . S
C29 O35 1.263 . S
O30 Tb22 2.427 . S
O30 C26 1.275 . S
O31 Tb22 2.513 . S
O31 C26 1.246 . S
O32 Tb22 2.453 1_565 S
O32 C28 1.245 . S
O33 Tb20 2.343 . S
O33 Tb22 2.596 . S
O33 C28 1.259 1_545 S
O34 Tb22 2.374 . S
O34 C29 1.250 . S
O35 Tb20 2.353 . S
O35 C29 1.263 . S
C36 O37 1.275 . S
C36 O38 1.246 . S
O37 Tb20 2.427 1_565 S
O37 C36 1.275 . S
O38 Tb20 2.513 1_565 S
O38 C36 1.246 . S
C39 O23 1.245 . S
C39 O24 1.259 . S
Tb40 O43 2.453 . S
Tb40 O44 2.596 . S
Tb40 O45 2.374 . S
Tb40 O53 2.343 . S
Tb40 O55 2.353 . S
Tb40 O57 2.427 . S
Tb40 O58 2.513 . S
C41 O45 1.251 . S
C41 O47 1.263 . S
Tb42 O44 2.343 . S
Tb42 O47 2.353 . S
Tb42 O50 2.427 . S
Tb42 O51 2.513 . S
Tb42 O52 2.453 . S
Tb42 O53 2.596 . S
Tb42 O54 2.374 . S
O43 Tb40 2.453 . S
O43 C59 1.245 . S
O44 Tb40 2.596 . S
O44 Tb42 2.343 . S
O44 C59 1.259 . S
O45 Tb40 2.374 . S
O45 C41 1.251 . S
C46 O50 1.275 . S
C46 O51 1.246 . S
O47 C41 1.263 . S
O47 Tb42 2.353 . S
C48 O52 1.245 . S
C48 O53 1.259 . S
C49 O54 1.250 . S
C49 O55 1.263 . S
O50 Tb42 2.427 . S
O50 C46 1.275 . S
O51 Tb42 2.513 . S
O51 C46 1.246 . S
O52 Tb42 2.453 . S
O52 C48 1.245 . S
O53 Tb40 2.343 . S
O53 Tb42 2.596 . S
O53 C48 1.259 . S
O54 Tb42 2.374 . S
O54 C49 1.250 . S
O55 Tb40 2.353 . S
O55 C49 1.263 . S
C56 O57 1.275 . S
C56 O58 1.246 . S
O57 Tb40 2.427 . S
O57 C56 1.275 . S
O58 Tb40 2.513 . S
O58 C56 1.246 . S
C59 O43 1.245 . S
C59 O44 1.259 . S
H60 C65 0.930 . S
H61 C68 0.930 . S
H62 C70 0.930 . S
H63 C64 1.016 . S
C64 H63 1.016 . S
C64 N71 1.286 . S
C65 H60 0.930 . S
C65 C66 1.397 . S
C65 C67 1.361 . S
C66 C65 1.397 . S
C66 C70 1.390 . S
C67 C65 1.361 . S
C67 C68 1.393 . S
C67 N71 1.413 . S
C68 H61 0.930 . S
C68 C67 1.393 . S
C68 C69 1.399 . S
C69 C68 1.399 . S
C69 C70 1.381 . S
C70 H62 0.930 . S
C70 C66 1.390 . S
C70 C69 1.381 . S
N71 C64 1.286 . S
N71 C67 1.413 . S
H72 C77 0.930 . S
H73 C80 0.930 . S
H74 C82 0.930 . S
H75 C76 1.016 . S
C76 H75 1.016 . S
C76 N83 1.286 . S
C77 H72 0.930 . S
C77 C78 1.397 . S
C77 C79 1.361 . S
C78 C77 1.397 . S
C78 C82 1.390 . S
C79 C77 1.361 . S
C79 C80 1.393 . S
C79 N83 1.413 . S
C80 H73 0.930 . S
C80 C79 1.393 . S
C80 C81 1.399 . S
C81 C80 1.399 . S
C81 C82 1.381 . S
C82 H74 0.930 . S
C82 C78 1.390 . S
C82 C81 1.381 . S
N83 C76 1.286 . S
N83 C79 1.413 . S
H84 C89 0.930 . S
H85 C92 0.930 . S
H86 C94 0.930 . S
H87 C88 1.016 . S
C88 H87 1.016 . S
C88 N95 1.286 . S
C89 H84 0.930 . S
C89 C90 1.397 . S
C89 C91 1.361 . S
C90 C89 1.397 . S
C90 C94 1.390 . S
C91 C89 1.361 . S
C91 C92 1.393 . S
C91 N95 1.413 . S
C92 H85 0.930 . S
C92 C91 1.393 . S
C92 C93 1.399 . S
C93 C92 1.399 . S
C93 C94 1.381 . S
C94 H86 0.930 . S
C94 C90 1.390 . S
C94 C93 1.381 . S
N95 C88 1.286 . S
N95 C91 1.413 . S
H96 C101 0.930 . S
H97 C104 0.930 . S
H98 C106 0.930 . S
H99 C100 1.016 . S
C100 H99 1.016 . S
C100 N107 1.286 . S
C101 H96 0.930 . S
C101 C102 1.397 . S
C101 C103 1.361 1_455 S
C102 C101 1.397 . S
C102 C106 1.390 . S
C103 C101 1.361 1_655 S
C103 C104 1.393 . S
C103 N107 1.413 . S
C104 H97 0.930 . S
C104 C103 1.393 . S
C104 C105 1.399 1_655 S
C105 C104 1.399 1_455 S
C105 C106 1.381 . S
C106 H98 0.930 . S
C106 C102 1.390 . S
C106 C105 1.381 . S
N107 C100 1.286 . S
N107 C103 1.413 . S
H108 C113 0.930 . S
H109 C116 0.930 1_565 S
H110 C118 0.930 . S
H111 C112 1.016 . S
C112 H111 1.016 . S
C112 N119 1.286 . S
C113 H108 0.930 . S
C113 C114 1.397 . S
C113 C115 1.361 . S
C114 C113 1.397 . S
C114 C118 1.390 . S
C115 C113 1.361 . S
C115 C116 1.393 . S
C115 N119 1.413 1_545 S
C116 H109 0.930 1_545 S
C116 C115 1.393 . S
C116 C117 1.399 . S
C117 C116 1.399 . S
C117 C118 1.381 . S
C118 H110 0.930 . S
C118 C114 1.390 . S
C118 C117 1.381 . S
N119 C112 1.286 . S
N119 C115 1.413 1_565 S
H120 C125 0.930 . S
H121 C128 0.930 . S
H122 C130 0.930 . S
H123 C124 1.016 . S
C124 H123 1.016 . S
C124 N131 1.286 . S
C125 H120 0.930 . S
C125 C126 1.397 . S
C125 C127 1.361 . S
C126 C125 1.397 . S
C126 C130 1.390 . S
C127 C125 1.361 . S
C127 C128 1.393 . S
C127 N131 1.413 . S
C128 H121 0.930 . S
C128 C127 1.393 . S
C128 C129 1.399 . S
C129 C128 1.399 . S
C129 C130 1.381 . S
C130 H122 0.930 . S
C130 C126 1.390 . S
C130 C129 1.381 . S
N131 C124 1.286 . S
N131 C127 1.413 . S
H132 C140 0.950 . S
H133 C145 0.950 . S
H134 C142 0.950 . S
H135 C144 0.950 . S
H136 C146 0.950 . S
H137 C148 0.950 . S
H138 C150 0.950 . S
H139 C151 0.950 . S
C140 H132 0.950 . S
C140 C141 1.386 . S
C140 C142 1.391 . S
C141 C140 1.386 . S
C141 C145 1.393 . S
C142 H134 0.950 . S
C142 C140 1.391 . S
C142 C143 1.400 . S
C143 C142 1.400 . S
C143 C144 1.398 . S
C143 C149 1.491 . S
C144 H135 0.950 . S
C144 C143 1.398 . S
C144 C145 1.391 . S
C145 H133 0.950 . S
C145 C141 1.393 . S
C145 C144 1.391 . S
C146 H136 0.950 . S
C146 C147 1.386 . S
C146 C148 1.391 . S
C147 C146 1.386 . S
C147 C151 1.393 . S
C148 H137 0.950 . S
C148 C146 1.391 . S
C148 C149 1.400 . S
C149 C143 1.491 . S
C149 C148 1.400 . S
C149 C150 1.398 . S
C150 H138 0.950 . S
C150 C149 1.398 . S
C150 C151 1.391 . S
C151 H139 0.950 . S
C151 C147 1.393 . S
C151 C150 1.391 . S
H152 C160 0.950 . S
H153 C165 0.950 . S
H154 C162 0.950 . S
H155 C164 0.950 . S
H156 C166 0.950 . S
H157 C168 0.950 . S
H158 C170 0.950 . S
H159 C171 0.950 . S
C160 H152 0.950 . S
C160 C161 1.386 . S
C160 C162 1.391 . S
C161 C160 1.386 . S
C161 C165 1.393 . S
C162 H154 0.950 . S
C162 C160 1.391 . S
C162 C163 1.400 . S
C163 C162 1.400 . S
C163 C164 1.398 . S
C163 C169 1.491 . S
C164 H155 0.950 . S
C164 C163 1.398 . S
C164 C165 1.391 . S
C165 H153 0.950 . S
C165 C161 1.393 . S
C165 C164 1.391 . S
C166 H156 0.950 . S
C166 C167 1.386 . S
C166 C168 1.391 . S
C167 C166 1.386 . S
C167 C171 1.393 . S
C168 H157 0.950 . S
C168 C166 1.391 . S
C168 C169 1.400 . S
C169 C163 1.491 . S
C169 C168 1.400 . S
C169 C170 1.398 . S
C170 H158 0.950 . S
C170 C169 1.398 . S
C170 C171 1.391 . S
C171 H159 0.950 . S
C171 C167 1.393 . S
C171 C170 1.391 . S
H172 C180 0.950 . S
H173 C185 0.950 . S
H174 C182 0.950 . S
H175 C184 0.950 . S
H176 C186 0.950 . S
H177 C188 0.950 . S
H178 C190 0.950 . S
H179 C191 0.950 . S
C180 H172 0.950 . S
C180 C181 1.386 . S
C180 C182 1.391 . S
C181 C180 1.386 . S
C181 C185 1.393 . S
C182 H174 0.950 . S
C182 C180 1.391 . S
C182 C183 1.400 . S
C183 C182 1.400 . S
C183 C184 1.398 . S
C183 C189 1.491 . S
C184 H175 0.950 . S
C184 C183 1.398 . S
C184 C185 1.391 . S
C185 H173 0.950 . S
C185 C181 1.393 . S
C185 C184 1.391 . S
C186 H176 0.950 . S
C186 C187 1.386 . S
C186 C188 1.391 . S
C187 C186 1.386 . S
C187 C191 1.393 . S
C188 H177 0.950 . S
C188 C186 1.391 . S
C188 C189 1.400 . S
C189 C183 1.491 . S
C189 C188 1.400 . S
C189 C190 1.398 . S
C190 H178 0.950 . S
C190 C189 1.398 . S
C190 C191 1.391 . S
C191 H179 0.950 . S
C191 C187 1.393 . S
C191 C190 1.391 . S
H192 C200 0.950 . S
H193 C205 0.950 . S
H194 C202 0.950 . S
H195 C204 0.950 . S
H196 C206 0.950 . S
H197 C208 0.950 . S
H198 C210 0.950 . S
H199 C211 0.950 . S
C200 H192 0.950 . S
C200 C201 1.386 . S
C200 C202 1.391 . S
C201 C200 1.386 . S
C201 C205 1.393 . S
C202 H194 0.950 . S
C202 C200 1.391 . S
C202 C203 1.400 . S
C203 C202 1.400 . S
C203 C204 1.398 . S
C203 C209 1.491 . S
C204 H195 0.950 . S
C204 C203 1.398 . S
C204 C205 1.391 . S
C205 H193 0.950 . S
C205 C201 1.393 . S
C205 C204 1.391 . S
C206 H196 0.950 . S
C206 C207 1.386 . S
C206 C208 1.391 . S
C207 C206 1.386 . S
C207 C211 1.393 . S
C208 H197 0.950 . S
C208 C206 1.391 . S
C208 C209 1.400 . S
C209 C203 1.491 . S
C209 C208 1.400 . S
C209 C210 1.398 . S
C210 H198 0.950 . S
C210 C209 1.398 . S
C210 C211 1.391 . S
C211 H199 0.950 . S
C211 C207 1.393 . S
C211 C210 1.391 . S
H212 C220 0.950 . S
H213 C225 0.950 . S
H214 C222 0.950 . S
H215 C224 0.950 . S
H216 C226 0.950 . S
H217 C228 0.950 . S
H218 C230 0.950 . S
H219 C231 0.950 . S
C220 H212 0.950 . S
C220 C221 1.386 . S
C220 C222 1.391 . S
C221 C220 1.386 . S
C221 C225 1.393 . S
C222 H214 0.950 . S
C222 C220 1.391 . S
C222 C223 1.400 . S
C223 C222 1.400 . S
C223 C224 1.398 . S
C223 C229 1.491 . S
C224 H215 0.950 . S
C224 C223 1.398 . S
C224 C225 1.391 . S
C225 H213 0.950 . S
C225 C221 1.393 . S
C225 C224 1.391 . S
C226 H216 0.950 . S
C226 C227 1.386 . S
C226 C228 1.391 . S
C227 C226 1.386 . S
C227 C231 1.393 . S
C228 H217 0.950 . S
C228 C226 1.391 . S
C228 C229 1.400 . S
C229 C223 1.491 . S
C229 C228 1.400 . S
C229 C230 1.398 . S
C230 H218 0.950 . S
C230 C229 1.398 . S
C230 C231 1.391 . S
C231 H219 0.950 . S
C231 C227 1.393 . S
C231 C230 1.391 . S
H232 C240 0.950 . S
H233 C245 0.950 . S
H234 C242 0.950 . S
H235 C244 0.950 . S
H236 C246 0.950 . S
H237 C248 0.950 . S
H238 C250 0.950 . S
H239 C251 0.950 . S
C240 H232 0.950 . S
C240 C241 1.386 . S
C240 C242 1.391 . S
C241 C240 1.386 . S
C241 C245 1.393 . S
C242 H234 0.950 . S
C242 C240 1.391 . S
C242 C243 1.400 . S
C243 C242 1.400 . S
C243 C244 1.398 . S
C243 C249 1.491 . S
C244 H235 0.950 . S
C244 C243 1.398 . S
C244 C245 1.391 . S
C245 H233 0.950 . S
C245 C241 1.393 . S
C245 C244 1.391 . S
C246 H236 0.950 . S
C246 C247 1.386 . S
C246 C248 1.391 . S
C247 C246 1.386 . S
C247 C251 1.393 . S
C248 H237 0.950 . S
C248 C246 1.391 . S
C248 C249 1.400 . S
C249 C243 1.491 . S
C249 C248 1.400 . S
C249 C250 1.398 . S
C250 H238 0.950 . S
C250 C249 1.398 . S
C250 C251 1.391 . S
C251 H239 0.950 . S
C251 C247 1.393 . S
C251 C250 1.391 . S
H252 C260 0.950 . S
H253 C265 0.950 . S
H254 C262 0.950 . S
H255 C264 0.950 . S
H256 C266 0.950 . S
H257 C268 0.950 . S
H258 C270 0.950 . S
H259 C271 0.950 . S
C260 H252 0.950 . S
C260 C261 1.386 . S
C260 C262 1.391 . S
C261 C260 1.386 . S
C261 C265 1.393 . S
C262 H254 0.950 . S
C262 C260 1.391 . S
C262 C263 1.400 . S
C263 C262 1.400 . S
C263 C264 1.398 . S
C263 C269 1.491 . S
C264 H255 0.950 . S
C264 C263 1.398 . S
C264 C265 1.391 . S
C265 H253 0.950 . S
C265 C261 1.393 . S
C265 C264 1.391 . S
C266 H256 0.950 . S
C266 C267 1.386 . S
C266 C268 1.391 . S
C267 C266 1.386 . S
C267 C271 1.393 . S
C268 H257 0.950 . S
C268 C266 1.391 . S
C268 C269 1.400 . S
C269 C263 1.491 . S
C269 C268 1.400 . S
C269 C270 1.398 . S
C270 H258 0.950 . S
C270 C269 1.398 . S
C270 C271 1.391 . S
C271 H259 0.950 . S
C271 C267 1.393 . S
C271 C270 1.391 . S
H272 C280 0.950 . S
H273 C285 0.950 . S
H274 C282 0.950 . S
H275 C284 0.950 . S
H276 C286 0.950 . S
H277 C288 0.950 . S
H278 C290 0.950 . S
H279 C291 0.950 . S
C280 H272 0.950 . S
C280 C281 1.386 . S
C280 C282 1.391 . S
C281 C280 1.386 . S
C281 C285 1.393 . S
C282 H274 0.950 . S
C282 C280 1.391 . S
C282 C283 1.400 . S
C283 C282 1.400 . S
C283 C284 1.398 . S
C283 C289 1.491 . S
C284 H275 0.950 . S
C284 C283 1.398 . S
C284 C285 1.391 . S
C285 H273 0.950 . S
C285 C281 1.393 . S
C285 C284 1.391 . S
C286 H276 0.950 . S
C286 C287 1.386 . S
C286 C288 1.391 . S
C287 C286 1.386 . S
C287 C291 1.393 . S
C288 H277 0.950 . S
C288 C286 1.391 . S
C288 C289 1.400 . S
C289 C283 1.491 . S
C289 C288 1.400 . S
C289 C290 1.398 . S
C290 H278 0.950 . S
C290 C289 1.398 . S
C290 C291 1.391 . S
C291 H279 0.950 . S
C291 C287 1.393 . S
C291 C290 1.391 . S
H292 C300 0.950 . S
H293 C305 0.950 . S
H294 C302 0.950 . S
H295 C304 0.950 . S
H296 C306 0.950 . S
H297 C308 0.950 . S
H298 C310 0.950 . S
H299 C311 0.950 . S
C300 H292 0.950 . S
C300 C301 1.386 . S
C300 C302 1.391 . S
C301 C300 1.386 . S
C301 C305 1.393 . S
C302 H294 0.950 . S
C302 C300 1.391 . S
C302 C303 1.400 . S
C303 C302 1.400 . S
C303 C304 1.398 . S
C303 C309 1.491 . S
C304 H295 0.950 . S
C304 C303 1.398 . S
C304 C305 1.391 . S
C305 H293 0.950 . S
C305 C301 1.393 . S
C305 C304 1.391 . S
C306 H296 0.950 . S
C306 C307 1.386 . S
C306 C308 1.391 . S
C307 C306 1.386 . S
C307 C311 1.393 . S
C308 H297 0.950 . S
C308 C306 1.391 . S
C308 C309 1.400 . S
C309 C303 1.491 . S
C309 C308 1.400 . S
C309 C310 1.398 . S
C310 H298 0.950 . S
C310 C309 1.398 . S
C310 C311 1.391 . S
C311 H299 0.950 . S
C311 C307 1.393 . S
C311 C310 1.391 . S
H312 C320 0.950 . S
H313 C325 0.950 . S
H314 C322 0.950 . S
H315 C324 0.950 . S
H316 C326 0.950 . S
H317 C328 0.950 . S
H318 C330 0.950 . S
H319 C331 0.950 . S
C320 H312 0.950 . S
C320 C321 1.386 . S
C320 C322 1.391 . S
C321 C320 1.386 . S
C321 C325 1.393 . S
C322 H314 0.950 . S
C322 C320 1.391 . S
C322 C323 1.400 . S
C323 C322 1.400 . S
C323 C324 1.398 . S
C323 C329 1.491 . S
C324 H315 0.950 . S
C324 C323 1.398 . S
C324 C325 1.391 . S
C325 H313 0.950 . S
C325 C321 1.393 . S
C325 C324 1.391 . S
C326 H316 0.950 . S
C326 C327 1.386 . S
C326 C328 1.391 . S
C327 C326 1.386 . S
C327 C331 1.393 . S
C328 H317 0.950 . S
C328 C326 1.391 . S
C328 C329 1.400 . S
C329 C323 1.491 . S
C329 C328 1.400 . S
C329 C330 1.398 . S
C330 H318 0.950 . S
C330 C329 1.398 . S
C330 C331 1.391 . S
C331 H319 0.950 . S
C331 C327 1.393 . S
C331 C330 1.391 . S
H332 C340 0.950 . S
H333 C345 0.950 . S
H334 C342 0.950 . S
H335 C344 0.950 . S
H336 C346 0.950 . S
H337 C348 0.950 . S
H338 C350 0.950 . S
H339 C351 0.950 . S
C340 H332 0.950 . S
C340 C341 1.386 . S
C340 C342 1.391 . S
C341 C340 1.386 . S
C341 C345 1.393 . S
C342 H334 0.950 . S
C342 C340 1.391 . S
C342 C343 1.400 . S
C343 C342 1.400 . S
C343 C344 1.398 . S
C343 C349 1.491 . S
C344 H335 0.950 . S
C344 C343 1.398 . S
C344 C345 1.391 . S
C345 H333 0.950 . S
C345 C341 1.393 . S
C345 C344 1.391 . S
C346 H336 0.950 . S
C346 C347 1.386 . S
C346 C348 1.391 . S
C347 C346 1.386 . S
C347 C351 1.393 . S
C348 H337 0.950 . S
C348 C346 1.391 . S
C348 C349 1.400 . S
C349 C343 1.491 . S
C349 C348 1.400 . S
C349 C350 1.398 . S
C350 H338 0.950 . S
C350 C349 1.398 . S
C350 C351 1.391 . S
C351 H339 0.950 . S
C351 C347 1.393 . S
C351 C350 1.391 . S
H352 C360 0.950 . S
H353 C365 0.950 . S
H354 C362 0.950 . S
H355 C364 0.950 . S
H356 C366 0.950 . S
H357 C368 0.950 . S
H358 C370 0.950 . S
H359 C371 0.950 . S
C360 H352 0.950 . S
C360 C361 1.386 . S
C360 C362 1.391 . S
C361 C360 1.386 . S
C361 C365 1.393 . S
C362 H354 0.950 . S
C362 C360 1.391 . S
C362 C363 1.400 . S
C363 C362 1.400 . S
C363 C364 1.398 . S
C363 C369 1.491 . S
C364 H355 0.950 . S
C364 C363 1.398 . S
C364 C365 1.391 . S
C365 H353 0.950 . S
C365 C361 1.393 . S
C365 C364 1.391 . S
C366 H356 0.950 . S
C366 C367 1.386 . S
C366 C368 1.391 . S
C367 C366 1.386 . S
C367 C371 1.393 . S
C368 H357 0.950 . S
C368 C366 1.391 . S
C368 C369 1.400 . S
C369 C363 1.491 . S
C369 C368 1.400 . S
C369 C370 1.398 . S
C370 H358 0.950 . S
C370 C369 1.398 . S
C370 C371 1.391 . S
C371 H359 0.950 . S
C371 C367 1.393 . S
C371 C370 1.391 . S
H372 C380 0.950 . S
H373 C385 0.950 . S
H374 C382 0.950 . S
H375 C384 0.950 . S
H376 C386 0.950 . S
H377 C388 0.950 . S
H378 C390 0.950 . S
H379 C391 0.950 . S
C380 H372 0.950 . S
C380 C381 1.386 . S
C380 C382 1.391 . S
C381 C380 1.386 . S
C381 C385 1.393 . S
C382 H374 0.950 . S
C382 C380 1.391 . S
C382 C383 1.400 . S
C383 C382 1.400 . S
C383 C384 1.398 . S
C383 C389 1.491 1_554 S
C384 H375 0.950 . S
C384 C383 1.398 . S
C384 C385 1.391 . S
C385 H373 0.950 . S
C385 C381 1.393 . S
C385 C384 1.391 . S
C386 H376 0.950 . S
C386 C387 1.386 . S
C386 C388 1.391 . S
C387 C386 1.386 . S
C387 C391 1.393 . S
C388 H377 0.950 . S
C388 C386 1.391 . S
C388 C389 1.400 . S
C389 C383 1.491 1_556 S
C389 C388 1.400 . S
C389 C390 1.398 . S
C390 H378 0.950 . S
C390 C389 1.398 . S
C390 C391 1.391 . S
C391 H379 0.950 . S
C391 C387 1.393 . S
C391 C390 1.391 . S
H392 C400 0.950 . S
H393 C405 0.950 1_565 S
H394 C402 0.950 . S
H395 C404 0.950 1_565 S
H396 C406 0.937 1_565 S
H397 C408 0.950 1_565 S
H398 C410 0.950 . S
H399 C411 0.950 . S
C400 H392 0.950 . S
C400 C401 1.386 . S
C400 C402 1.391 . S
C401 C400 1.386 . S
C401 C405 1.393 . S
C402 H394 0.950 . S
C402 C400 1.391 . S
C402 C403 1.400 . S
C403 C402 1.400 . S
C403 C404 1.398 . S
C403 C409 1.491 . S
C404 H395 0.950 1_545 S
C404 C403 1.398 . S
C404 C405 1.391 . S
C405 H393 0.950 1_545 S
C405 C401 1.393 . S
C405 C404 1.391 . S
C406 H396 0.937 1_545 S
C406 C407 1.386 . S
C406 C408 1.391 . S
C407 C406 1.386 . S
C407 C411 1.393 . S
C408 H397 0.950 1_545 S
C408 C406 1.391 . S
C408 C409 1.400 . S
C409 C403 1.491 . S
C409 C408 1.400 . S
C409 C410 1.398 . S
C410 H398 0.950 . S
C410 C409 1.398 . S
C410 C411 1.391 . S
C411 H399 0.950 . S
C411 C407 1.393 . S
C411 C410 1.391 . S
H412 C420 0.950 . S
H413 C425 0.950 . S
H414 C422 0.950 . S
H415 C424 0.950 . S
H416 C426 0.950 . S
H417 C428 0.950 . S
H418 C430 0.950 . S
H419 C431 0.950 . S
C420 H412 0.950 . S
C420 C421 1.386 . S
C420 C422 1.391 . S
C421 C420 1.386 . S
C421 C425 1.393 . S
C422 H414 0.950 . S
C422 C420 1.391 . S
C422 C423 1.400 . S
C423 C422 1.400 . S
C423 C424 1.398 . S
C423 C429 1.491 . S
C424 H415 0.950 . S
C424 C423 1.398 . S
C424 C425 1.391 . S
C425 H413 0.950 . S
C425 C421 1.393 . S
C425 C424 1.391 . S
C426 H416 0.950 . S
C426 C427 1.386 . S
C426 C428 1.391 . S
C427 C426 1.386 . S
C427 C431 1.393 . S
C428 H417 0.950 . S
C428 C426 1.391 . S
C428 C429 1.400 . S
C429 C423 1.491 . S
C429 C428 1.400 . S
C429 C430 1.398 . S
C430 H418 0.950 . S
C430 C429 1.398 . S
C430 C431 1.391 . S
C431 H419 0.950 . S
C431 C427 1.393 . S
C431 C430 1.391 . S
H432 C440 0.950 . S
H433 C445 0.950 . S
H434 C442 0.950 . S
H435 C444 0.950 . S
H436 C446 0.950 . S
H437 C448 0.950 . S
H438 C450 0.950 . S
H439 C451 0.950 . S
C440 H432 0.950 . S
C440 C441 1.386 . S
C440 C442 1.391 . S
C441 C440 1.386 . S
C441 C445 1.393 . S
C442 H434 0.950 . S
C442 C440 1.391 . S
C442 C443 1.400 . S
C443 C442 1.400 . S
C443 C444 1.398 . S
C443 C449 1.491 . S
C444 H435 0.950 . S
C444 C443 1.398 . S
C444 C445 1.391 . S
C445 H433 0.950 . S
C445 C441 1.393 . S
C445 C444 1.391 . S
C446 H436 0.950 . S
C446 C447 1.386 . S
C446 C448 1.391 . S
C447 C446 1.386 . S
C447 C451 1.393 . S
C448 H437 0.950 . S
C448 C446 1.391 . S
C448 C449 1.400 . S
C449 C443 1.491 . S
C449 C448 1.400 . S
C449 C450 1.398 . S
C450 H438 0.950 . S
C450 C449 1.398 . S
C450 C451 1.391 . S
C451 H439 0.950 . S
C451 C447 1.393 . S
C451 C450 1.391 . S
H452 C460 0.950 . S
H453 C465 0.950 . S
H454 C462 0.950 . S
H455 C464 0.950 . S
H456 C466 0.950 . S
H457 C468 0.950 . S
H458 C470 0.950 . S
H459 C471 0.950 . S
C460 H452 0.950 . S
C460 C461 1.386 . S
C460 C462 1.391 . S
C461 C460 1.386 . S
C461 C465 1.393 . S
C462 H454 0.950 . S
C462 C460 1.391 . S
C462 C463 1.400 . S
C463 C462 1.400 . S
C463 C464 1.398 . S
C463 C469 1.491 1_556 S
C464 H455 0.950 . S
C464 C463 1.398 . S
C464 C465 1.391 . S
C465 H453 0.950 . S
C465 C461 1.393 . S
C465 C464 1.391 . S
C466 H456 0.950 . S
C466 C467 1.386 . S
C466 C468 1.391 . S
C467 C466 1.386 . S
C467 C471 1.393 . S
C468 H457 0.950 . S
C468 C466 1.391 . S
C468 C469 1.400 . S
C469 C463 1.491 1_554 S
C469 C468 1.400 . S
C469 C470 1.398 . S
C470 H458 0.950 . S
C470 C469 1.398 . S
C470 C471 1.391 . S
C471 H459 0.950 . S
C471 C467 1.393 . S
C471 C470 1.391 . S
H472 C480 0.950 . S
H473 C485 0.950 . S
H474 C482 0.950 . S
H475 C484 0.950 1_655 S
H476 C486 0.950 . S
H477 C488 0.950 1_655 S
H478 C490 0.950 . S
H479 C491 0.950 . S
C480 H472 0.950 . S
C480 C481 1.386 . S
C480 C482 1.391 . S
C481 C480 1.386 . S
C481 C485 1.393 . S
C482 H474 0.950 . S
C482 C480 1.391 . S
C482 C483 1.400 . S
C483 C482 1.400 . S
C483 C484 1.398 . S
C483 C489 1.491 . S
C484 H475 0.950 1_455 S
C484 C483 1.398 . S
C484 C485 1.391 . S
C485 H473 0.950 . S
C485 C481 1.393 . S
C485 C484 1.391 . S
C486 H476 0.950 . S
C486 C487 1.386 1_655 S
C486 C488 1.391 1_655 S
C487 C486 1.386 1_455 S
C487 C491 1.393 . S
C488 H477 0.950 1_455 S
C488 C486 1.391 1_455 S
C488 C489 1.400 . S
C489 C483 1.491 . S
C489 C488 1.400 . S
C489 C490 1.398 . S
C490 H478 0.950 . S
C490 C489 1.398 . S
C490 C491 1.391 . S
C491 H479 0.950 . S
C491 C487 1.393 . S
C491 C490 1.391 . S
C141 C8 2.196 . S
C147 C126 2.279 . S
C161 C26 1.386 . S
C167 C100 1.374 . S
C181 C48 1.569 . S
C187 C112 1.593 . S
C201 C19 1.588 . S
C207 C124 1.562 . S
C227 C102 1.344 . S
C221 C36 1.354 . S
C247 C114 1.536 . S
C241 C59 1.495 . S
C261 C28 1.555 . S
C267 C76 1.581 . S
C281 C46 1.413 . S
C287 C90 1.436 1_655 S
C301 C16 1.373 . S
C307 C66 1.373 1_565 S
C327 C78 1.553 . S
C321 C39 1.502 . S
C347 C88 0.775 . S
C341 C56 0.813 . S
C361 C6 1.413 . S
C367 C64 1.392 . S
C387 C93 1.487 . S
C381 C9 1.460 . S
C401 C21 1.519 . S
C407 C69 1.541 . S
C421 C49 1.485 . S
C427 C81 1.475 . S
C447 C117 1.494 . S
C441 C29 1.509 . S
C467 C129 1.626 . S
C461 C41 1.594 . S
C481 C1 1.509 . S
C487 C105 1.502 . S
