# Generated by pormake.
# Topology anh, (6,3)-cn, num edge types: 1
# Building blocks:
#     Node 0, Type 0, BuildingBlock: GEDQOX_clean_sbu_0, # of connection points: 6
#     Node 1, Type 0, BuildingBlock: GEDQOX_clean_sbu_0, # of connection points: 6
#     Node 2, Type 0, BuildingBlock: GEDQOX_clean_sbu_0, # of connection points: 6
#     Node 3, Type 1, BuildingBlock: VETTIZ_charged_linker_0, # of connection points: 3
#     Node 4, Type 1, BuildingBlock: VETTIZ_charged_linker_0, # of connection points: 3
#     Node 5, Type 1, BuildingBlock: VETTIZ_charged_linker_0, # of connection points: 3
#     Node 6, Type 1, BuildingBlock: VETTIZ_charged_linker_0, # of connection points: 3
#     Node 7, Type 1, BuildingBlock: VETTIZ_charged_linker_0, # of connection points: 3
#     Node 8, Type 1, BuildingBlock: VETTIZ_charged_linker_0, # of connection points: 3
#     Edge 9, Type (0, 1), None
#     Edge 10, Type (0, 1), None
#     Edge 11, Type (0, 1), None
#     Edge 12, Type (0, 1), None
#     Edge 13, Type (0, 1), None
#     Edge 14, Type (0, 1), None
#     Edge 15, Type (0, 1), None
#     Edge 16, Type (0, 1), None
#     Edge 17, Type (0, 1), None
#     Edge 18, Type (0, 1), None
#     Edge 19, Type (0, 1), None
#     Edge 20, Type (0, 1), None
#     Edge 21, Type (0, 1), None
#     Edge 22, Type (0, 1), None
#     Edge 23, Type (0, 1), None
#     Edge 24, Type (0, 1), None
#     Edge 25, Type (0, 1), None
#     Edge 26, Type (0, 1), None
# Relax obj value: 0.285
# Max RMSD: 0.264
# Mean RMSD: 0.186
data_MOF--net-anh--node1-GEDQOX_clean_sbu_0--node2-VETTIZ_charged_linker_0--edge1-none
_symmetry_space_group_name_H-M    P1
_symmetry_Int_Tables_number       1
_symmetry_cell_setting            triclinic
loop_
_symmetry_equiv_pos_as_xyz
'x, y, z'
_cell_length_a     20.066068
_cell_length_b     18.780522
_cell_length_c     37.95405
_cell_angle_alpha  92.288277
_cell_angle_beta   90.822179
_cell_angle_gamma 94.578127
loop_
_atom_site_label
_atom_site_type_symbol
_atom_site_fract_x
_atom_site_fract_y
_atom_site_fract_z
_atom_type_partial_charge
Nd0 Nd 0.13741 0.67464 0.13948 0.0
Nd1 Nd 1.11053 0.51492 0.1429 0.0
C2 C 0.18191 0.80696 0.12563 0.0
C3 C 0.24888 0.84309 0.12062 0.0
C4 C 0.30382 0.80307 0.1136 0.0
C5 C 0.36913 0.834 0.11927 0.0
C6 C 0.38025 0.9056 0.13146 0.0
C7 C 0.32551 0.94722 0.13525 0.0
C8 C 0.26023 0.91611 0.12992 0.0
C9 C 1.09546 0.6301 0.20364 0.0
C10 C 0.27591 0.58176 0.14126 0.0
C11 C 1.09608 0.38004 0.16146 0.0
C12 C 1.04017 0.32876 0.17083 0.0
C13 C 1.05243 0.27365 0.19327 0.0
C14 C 0.99953 0.22849 0.20534 0.0
C15 C 0.93302 0.23755 0.19526 0.0
C16 C 0.92101 0.29191 0.17201 0.0
C17 C 0.9741 0.33739 0.16007 0.0
C18 C 1.10661 0.56948 0.07732 0.0
C19 C 0.97366 0.60659 0.1349 0.0
O20 O 0.15829 0.76009 0.10115 0.0
O21 O 0.1719 0.78486 0.15749 0.0
O22 O 1.07799 0.68804 0.18993 0.0
O23 O 0.13699 0.6004 0.18458 0.0
O24 O 0.25107 0.64543 0.14569 0.0
O25 O 0.23174 0.52369 0.13738 0.0
O26 O 1.1088 0.43419 0.18389 0.0
O27 O 1.09972 0.3985 0.12859 0.0
O28 O 1.06137 0.52156 0.08753 0.0
O29 O 0.14963 0.58499 0.10115 0.0
O30 O 0.99715 0.54812 0.14816 0.0
O31 O 1.01943 0.65801 0.12454 0.0
H32 H 0.2963 0.74673 0.10622 0.0
H33 H 0.41057 0.8006 0.11685 0.0
H34 H 0.33297 1.00208 0.14538 0.0
H35 H 0.2186 0.94772 0.13581 0.0
H36 H 1.10295 0.26643 0.2021 0.0
H37 H 1.01071 0.18673 0.22286 0.0
H38 H 0.87042 0.30088 0.16404 0.0
H39 H 0.96342 0.38031 0.14313 0.0
Nd40 Nd 0.56243 0.95675 0.49774 0.0
Nd41 Nd 0.70918 0.97099 0.4849 0.0
C42 C 0.44172 0.92374 0.52252 0.0
C43 C 0.38913 0.86451 0.51785 0.0
C44 C 0.40454 0.79267 0.5164 0.0
C45 C 0.35496 0.73804 0.50727 0.0
C46 C 0.28965 0.75463 0.49911 0.0
C47 C 0.27365 0.82603 0.50258 0.0
C48 C 0.32293 0.88044 0.512 0.0
C49 C 0.59291 0.9656 0.42801 0.0
C50 C 0.64535 0.80886 0.49435 0.0
C51 C 0.83134 1.00495 0.46237 0.0
C52 C 0.8673 0.06925 0.44879 0.0
C53 C 0.83411 0.11568 0.42784 0.0
C54 C 0.86854 0.17678 0.41531 0.0
C55 C 0.93651 0.19327 0.424 0.0
C56 C 0.96933 0.1476 0.44562 0.0
C57 C 0.93499 0.08579 0.45777 0.0
C58 C 0.67604 0.96631 0.55483 0.0
C59 C 0.62871 0.11787 0.49379 0.0
O60 O 0.49692 0.9102 0.53885 0.0
O61 O 0.45256 0.9631 0.49519 0.0
O62 O 0.54102 0.99152 0.44195 0.0
O63 O 0.62294 0.92966 0.44969 0.0
O64 O 0.59038 0.84012 0.5023 0.0
O65 O 0.69944 0.84704 0.48418 0.0
O66 O 0.78338 0.9733 0.44224 0.0
O67 O 0.81535 1.00908 0.49557 0.0
O68 O 0.72347 0.93164 0.54116 0.0
O69 O 0.64877 1.00186 0.53203 0.0
O70 O 0.67855 0.08833 0.47766 0.0
O71 O 0.58211 0.07702 0.50927 0.0
H72 H 0.45535 0.77895 0.52073 0.0
H73 H 0.3687 0.68353 0.50423 0.0
H74 H 0.22366 0.84008 0.49621 0.0
H75 H 0.30997 0.9354 0.51308 0.0
H76 H 0.78152 0.10497 0.42126 0.0
H77 H 0.84178 0.21166 0.39912 0.0
H78 H 1.02174 0.15905 0.45259 0.0
H79 H 0.96123 0.05092 0.47421 0.0
Nd80 Nd 0.54823 0.46808 0.82482 0.0
Nd81 Nd 0.68674 0.47705 0.82157 0.0
C82 C 0.41973 0.47331 0.82307 0.0
C83 C 0.39163 0.54025 0.83535 0.0
C84 C 0.39783 0.60085 0.81446 0.0
C85 C 0.38989 0.66893 0.82914 0.0
C86 C 0.37515 0.678 0.86496 0.0
C87 C 0.36634 0.61726 0.88549 0.0
C88 C 0.37426 0.54926 0.87085 0.0
C89 C 0.60662 0.51462 0.88928 0.0
C90 C 0.61999 0.62648 0.81551 0.0
C91 C 0.81784 0.49449 0.82215 0.0
C92 C 0.85524 0.56114 0.81262 0.0
C93 C 0.92227 0.57533 0.82276 0.0
C94 C 0.95031 0.64589 0.82465 0.0
C95 C 0.91035 0.70268 0.81824 0.0
C96 C 0.84611 0.68772 0.80394 0.0
C97 C 0.81943 0.61692 0.80026 0.0
C98 C 0.62593 0.47878 0.75606 0.0
C99 C 0.61494 0.3143 0.82374 0.0
O100 O 0.45482 0.47804 0.79429 0.0
O101 O 0.44898 0.43877 0.84756 0.0
O102 O 0.5608 0.54538 0.87295 0.0
O103 O 0.62391 0.46265 0.87032 0.0
O104 O 0.56948 0.58236 0.80367 0.0
O105 O 0.67021 0.59807 0.83089 0.0
O106 O 0.78377 0.45963 0.7965 0.0
O107 O 0.78284 0.50094 0.85077 0.0
O108 O 0.67304 0.52476 0.76752 0.0
O109 O 0.60987 0.43552 0.77938 0.0
O110 O 0.6728 0.3535 0.82463 0.0
O111 O 0.55818 0.34555 0.82272 0.0
H112 H 0.41177 0.59633 0.78705 0.0
H113 H 0.39544 0.71453 0.81253 0.0
H114 H 0.35211 0.62202 0.91286 0.0
H115 H 0.36958 0.50406 0.88777 0.0
H116 H 0.95084 0.5332 0.83224 0.0
H117 H 1.0002 0.65675 0.83594 0.0
H118 H 0.81444 0.73051 0.79903 0.0
H119 H 0.76834 0.60676 0.79126 0.0
C120 C 0.82126 0.16484 0.18938 0.0
C121 C 0.87663 0.19259 0.21039 0.0
C122 C 0.87785 0.17748 0.24651 0.0
C123 C 0.77071 0.10835 0.24021 0.0
C124 C 0.76923 0.12263 0.20474 0.0
C125 C 0.70689 0.08818 0.18635 0.0
H126 H 0.41271 0.88339 0.19804 0.0
C127 C 0.70932 0.06326 0.24813 0.0
C128 C 0.67176 0.05057 0.21653 0.0
H129 H 0.48945 0.98568 0.10566 0.0
H130 H 0.58992 1.03214 0.13878 0.0
H131 H 0.55373 0.82945 0.22731 0.0
H132 H 0.43998 1.01013 0.2467 0.0
H133 H 0.48023 0.99908 0.28708 0.0
H134 H 0.42217 0.92836 0.26873 0.0
H135 H 0.47584 0.82576 0.25009 0.0
H136 H 0.55459 0.84614 0.27325 0.0
C137 C 0.72795 1.03445 0.15748 0.0
C138 C 0.66645 0.14804 0.17218 0.0
C139 C 0.65879 0.99793 0.37486 0.0
C140 C 0.60262 0.96201 0.38979 0.0
C141 C 0.55127 0.92947 0.36774 0.0
C142 C 0.55496 0.93358 0.33112 0.0
C143 C 0.60982 0.97237 0.31638 0.0
C144 C 0.66107 1.00308 0.33805 0.0
C145 C 0.71395 0.04445 0.31751 0.0
C146 C 0.68501 1.03457 0.28011 0.0
C147 C 0.62421 0.99228 0.27983 0.0
C148 C 0.78029 1.00842 0.3216 0.0
C149 C 0.71764 0.12367 0.331 0.0
C150 C 0.45176 0.91488 0.18485 0.0
C151 C 0.44417 0.93044 0.14937 0.0
C152 C 0.49498 0.97281 0.13305 0.0
C153 C 0.55283 0.99982 0.15237 0.0
C154 C 0.55906 0.98488 0.18838 0.0
C155 C 0.50868 0.94283 0.20377 0.0
C156 C 0.52025 0.93536 0.24243 0.0
C157 C 0.58667 0.97872 0.24802 0.0
C158 C 0.60982 1.00769 0.21642 0.0
C159 C 0.52603 0.85507 0.24894 0.0
C160 C 0.46279 0.96937 0.26248 0.0
H161 H 0.82958 0.12659 0.28907 0.0
H162 H 0.81887 0.17497 0.16152 0.0
H163 H 0.66851 0.19469 0.1913 0.0
H164 H 0.61278 0.13133 0.16843 0.0
H165 H 0.68684 0.1671 0.14686 0.0
H166 H 0.76849 1.00317 0.16754 0.0
H167 H 0.74693 0.06266 0.13401 0.0
H168 H 0.68695 0.99457 0.149 0.0
H169 H 0.69818 1.02445 0.3915 0.0
H170 H 0.50751 0.90199 0.37896 0.0
H171 H 0.51389 0.90796 0.31585 0.0
H172 H 0.77071 0.94962 0.3239 0.0
H173 H 0.80867 1.02963 0.34564 0.0
H174 H 0.81262 1.01453 0.29842 0.0
H175 H 0.66673 0.14055 0.33637 0.0
H176 H 0.73864 0.16114 0.31163 0.0
H177 H 0.74754 0.13183 0.35589 0.0
H178 H 0.9191 0.19898 0.26348 0.0
C179 C 0.8255 0.13565 0.26144 0.0
C180 C 0.65277 0.67052 0.49313 0.0
C181 C 0.65215 0.73894 0.5109 0.0
C182 C 0.65169 0.74243 0.54778 0.0
C183 C 0.64745 0.61381 0.54986 0.0
C184 C 0.65068 0.60784 0.51351 0.0
C185 C 0.65144 0.52882 0.50149 0.0
H186 H 0.59858 0.17905 0.55502 0.0
C187 C 0.63985 0.54185 0.56417 0.0
C188 C 0.64161 0.49 0.53633 0.0
H189 H 0.66497 0.23602 0.45166 0.0
H190 H 0.66402 0.36406 0.46949 0.0
H191 H 0.70342 0.27377 0.59192 0.0
H192 H 0.4971 0.29878 0.56937 0.0
H193 H 0.51206 0.33203 0.61294 0.0
H194 H 0.52535 0.24008 0.60161 0.0
H195 H 0.63825 0.23656 0.61903 0.0
H196 H 0.67816 0.32509 0.628 0.0
C197 C 0.72026 0.51764 0.48571 0.0
C198 C 0.59376 0.50803 0.47504 0.0
C199 C 0.61838 0.52488 0.6963 0.0
C200 C 0.61 0.46709 0.71839 0.0
C201 C 0.59404 0.39792 0.70356 0.0
C202 C 0.59196 0.38607 0.66683 0.0
C203 C 0.60582 0.44416 0.64493 0.0
C204 C 0.61606 0.51226 0.65986 0.0
C205 C 0.62724 0.56793 0.63294 0.0
C206 C 0.62773 0.5215 0.59923 0.0
C207 C 0.61503 0.44952 0.60644 0.0
C208 C 0.69615 0.6099 0.64112 0.0
C209 C 0.56601 0.61363 0.63426 0.0
C210 C 0.6125 0.21835 0.53576 0.0
C211 C 0.63098 0.19685 0.5019 0.0
C212 C 0.65046 0.25089 0.47814 0.0
C213 C 0.65003 0.32492 0.48849 0.0
C214 C 0.63215 0.34489 0.52322 0.0
C215 C 0.61505 0.29066 0.54597 0.0
C216 C 0.60484 0.31707 0.58281 0.0
C217 C 0.61718 0.39654 0.57911 0.0
C218 C 0.63177 0.415 0.54406 0.0
C219 C 0.65832 0.28655 0.60691 0.0
C220 C 0.53125 0.29571 0.59254 0.0
H221 H 0.6492 0.68982 0.59509 0.0
H222 H 0.65324 0.666 0.46462 0.0
H223 H 0.5452 0.52011 0.4867 0.0
H224 H 0.59078 0.45028 0.46763 0.0
H225 H 0.60055 0.53825 0.4506 0.0
H226 H 0.76099 0.53909 0.50432 0.0
H227 H 0.72654 0.5458 0.46062 0.0
H228 H 0.72729 0.46061 0.48042 0.0
H229 H 0.62896 0.57881 0.70702 0.0
H230 H 0.58662 0.35267 0.72027 0.0
H231 H 0.58184 0.33184 0.65708 0.0
H232 H 0.73081 0.57667 0.65507 0.0
H233 H 0.69063 0.65852 0.65814 0.0
H234 H 0.72323 0.6253 0.61704 0.0
H235 H 0.51946 0.58048 0.64041 0.0
H236 H 0.55438 0.63674 0.60881 0.0
H237 H 0.57305 0.65703 0.65502 0.0
H238 H 0.65067 0.79348 0.56193 0.0
C239 C 0.64984 0.68132 0.56713 0.0
C240 C 0.30579 0.78039 0.86212 0.0
C241 C 0.3563 0.7475 0.87973 0.0
C242 C 0.37029 0.76707 0.91546 0.0
C243 C 0.26327 0.81558 0.91864 0.0
C244 C 0.25785 0.81276 0.88236 0.0
C245 C 0.18883 0.82707 0.86991 0.0
H246 H 0.87705 0.7309 0.88418 0.0
C247 C 0.19562 0.81556 0.93296 0.0
C248 C 0.15206 0.82826 0.90494 0.0
H249 H 0.98612 0.82354 0.79812 0.0
H250 H 1.0671 0.8838 0.83999 0.0
H251 H 1.00903 0.64926 0.94229 0.0
H252 H 0.93996 0.85601 0.95611 0.0
H253 H 0.95629 0.79254 -0.01234 0.0
H254 H 0.88573 0.77532 0.95762 0.0
H255 H 0.96914 0.65642 0.90213 0.0
H256 H 0.92034 0.65952 0.94115 0.0
C257 C 0.16174 0.76357 0.84468 0.0
C258 C 0.19295 0.90058 0.85243 0.0
C259 C 0.15643 0.65593 0.03618 0.0
C260 C 1.09943 0.61629 0.04778 0.0
C261 C 1.03655 0.62735 0.03326 0.0
C262 C 1.03066 0.67881 0.00785 0.0
C263 C 1.0888 0.71567 -0.00489 0.0
C264 C 0.15032 0.70371 0.00931 0.0
C265 C 0.20728 0.74359 -0.00853 0.0
C266 C 0.16965 0.78068 0.96309 0.0
C267 C 1.10026 0.7643 0.96572 0.0
C268 C 0.25447 0.68804 0.97642 0.0
C269 C 0.24211 0.79841 0.01862 0.0
C270 C 0.91692 0.76718 0.87462 0.0
C271 C 0.92759 0.77032 0.83822 0.0
C272 C 0.9784 0.81857 0.82613 0.0
C273 C 1.02646 0.85087 0.85014 0.0
C274 C 1.02646 0.82725 0.88478 0.0
C275 C 0.97 0.79072 0.89749 0.0
C276 C 0.98258 0.76081 0.933 0.0
C277 C 1.05624 0.78442 0.93896 0.0
C278 C 1.08198 0.82074 0.90988 0.0
C279 C 0.9693 0.67762 0.92987 0.0
C280 C 0.93865 0.79758 0.96021 0.0
H281 H 0.33321 0.81378 0.9627 0.0
H282 H 0.29658 0.7692 0.83423 0.0
H283 H 0.24422 0.92802 0.85387 0.0
H284 H 0.1602 0.93801 0.86569 0.0
H285 H 0.17874 0.89489 0.824 0.0
H286 H 0.17057 0.71162 0.85632 0.0
H287 H 0.18667 0.76592 0.81878 0.0
H288 H 1.10792 0.76143 0.83901 0.0
H289 H 0.20538 0.64875 0.04735 0.0
H290 H 0.99208 0.59721 0.04204 0.0
H291 H 0.9813 0.68637 -0.00168 0.0
H292 H 0.24725 0.67859 0.9475 0.0
H293 H 0.24581 0.6345 -0.01232 0.0
H294 H 0.3078 0.70427 0.98262 0.0
H295 H 0.20469 0.82512 0.03473 0.0
H296 H 0.27206 0.84179 0.00587 0.0
H297 H 0.27507 0.77169 0.03682 0.0
H298 H 0.41171 0.74607 0.92918 0.0
C299 C 0.32405 0.80353 0.93498 0.0
C300 C 1.0125 0.30623 0.43205 0.0
C301 C 0.97277 0.25746 0.40987 0.0
C302 C 0.96593 0.2713 0.37387 0.0
C303 C 1.03417 0.3828 0.38278 0.0
C304 C 1.04222 0.36891 0.41802 0.0
C305 C 1.08369 0.42867 0.43781 0.0
H306 H 0.23422 0.76628 0.43531 0.0
C307 C 1.06684 0.45418 0.37683 0.0
C308 C 1.09512 0.48229 0.40907 0.0
H309 H 0.24244 0.6207 0.52009 0.0
H310 H 0.17183 0.53076 0.48571 0.0
H311 H 0.26737 0.6538 0.37875 0.0
H312 H 1.08169 0.7315 0.41136 0.0
H313 H 1.07369 0.71663 0.36549 0.0
H314 H 0.13827 0.78101 0.38351 0.0
H315 H 0.24253 0.74 0.36782 0.0
H316 H 0.22075 0.66152 0.33997 0.0
C317 C 0.14978 0.39954 0.45016 0.0
C318 C 1.04188 0.45798 0.4682 0.0
C319 C 1.07027 0.55143 0.25371 0.0
C320 C 1.09098 0.61891 0.24139 0.0
C321 C 1.1112 0.67549 0.26547 0.0
C322 C 1.11444 0.66408 0.30155 0.0
C323 C 1.0968 0.59545 0.31358 0.0
C324 C 1.07258 0.54121 0.29004 0.0
C325 C 1.05012 0.47399 0.3083 0.0
C326 C 1.07025 0.49548 0.34632 0.0
C327 C 1.09835 0.56614 0.34894 0.0
C328 C 1.09014 0.41258 0.29355 0.0
C329 C 0.97313 0.46022 0.30316 0.0
C330 C 0.2195 0.71565 0.44685 0.0
C331 C 0.24241 0.70081 0.48055 0.0
C332 C 0.22459 0.63327 0.49417 0.0
C333 C 0.18406 0.58128 0.47415 0.0
C334 C 0.16274 0.5967 0.43994 0.0
C335 C 0.1812 0.66302 0.42694 0.0
C336 C 0.16103 0.66866 0.38911 0.0
C337 C 0.12674 0.59498 0.3813 0.0
C338 C 0.12656 0.55307 0.41116 0.0
C339 C 0.22578 0.68216 0.36756 0.0
C340 C 1.11147 0.72774 0.38694 0.0
H341 H 0.98952 0.34074 0.33262 0.0
H342 H 1.01852 0.29682 0.45984 0.0
H343 H 0.99091 0.46745 0.45847 0.0
H344 H 1.06366 0.50959 0.47975 0.0
H345 H 1.03649 0.41938 0.4896 0.0
H346 H 0.16595 0.35825 0.43098 0.0
H347 H 0.14393 0.37457 0.4761 0.0
H348 H 0.19191 0.4412 0.45187 0.0
H349 H 1.05249 0.50793 0.23553 0.0
H350 H 0.12692 0.72796 0.25622 0.0
H351 H 0.13202 0.70879 0.31856 0.0
H352 H 0.14413 0.4307 0.292 0.0
H353 H 1.07209 0.39457 0.26659 0.0
H354 H 1.08748 0.36583 0.31035 0.0
H355 H 0.94962 0.50887 0.29509 0.0
H356 H 0.94796 0.44546 0.32793 0.0
H357 H 0.96 0.41764 0.2825 0.0
H358 H 0.93654 0.2339 0.35622 0.0
C359 C 0.9966 0.33342 0.36021 0.0
C360 C 0.61811 0.76516 0.8166 0.0
C361 C 0.63153 0.69855 0.79979 0.0
C362 C 0.65648 0.69939 0.76549 0.0
C363 C 0.6462 0.82663 0.76263 0.0
C364 C 0.62688 0.8293 0.79743 0.0
C365 C 0.61977 0.90705 0.8098 0.0
H366 H 0.62006 0.25925 0.75831 0.0
C367 C 0.64546 0.89866 0.74824 0.0
C368 C 0.63063 0.94782 0.7756 0.0
H369 H 0.60755 0.19317 0.86544 0.0
H370 H 0.60956 0.06724 0.84477 0.0
H371 H 0.73179 0.16056 0.7329 0.0
H372 H 0.51747 0.14098 0.72722 0.0
H373 H 0.54206 0.09265 0.68976 0.0
H374 H 0.5659 0.18749 0.69478 0.0
H375 H 0.68209 0.21514 0.70698 0.0
H376 H 0.70779 0.13171 0.68956 0.0
C377 C 0.67543 0.92884 0.83742 0.0
C378 C 0.54938 0.91413 0.8244 0.0
C379 C 0.67761 0.92179 0.61609 0.0
C380 C 0.66621 0.97642 0.59309 0.0
C381 C 0.64531 0.0414 0.607 0.0
C382 C 0.63722 0.0524 0.64337 0.0
C383 C 0.64868 0.99721 0.6662 0.0
C384 C 0.66652 0.93261 0.65226 0.0
C385 C 0.66836 0.87733 0.67973 0.0
C386 C 0.65171 0.92047 0.7129 0.0
C387 C 0.64193 0.9909 0.70485 0.0
C388 C 0.74022 0.85229 0.68145 0.0
C389 C 0.61285 0.81742 0.66949 0.0
C390 C 0.61809 0.21796 0.77747 0.0
C391 C 0.61436 0.23641 0.81338 0.0
C392 C 0.61111 0.18054 0.83748 0.0
C393 C 0.61287 0.10769 0.82551 0.0
C394 C 0.61846 0.09052 0.78912 0.0
C395 C 0.62021 0.14621 0.76606 0.0
C396 C 0.62531 0.12134 0.72841 0.0
C397 C 0.63078 0.04206 0.73218 0.0
C398 C 0.62574 1.02212 0.7677 0.0
C399 C 0.68978 0.15911 0.71336 0.0
C400 C 0.55974 0.13661 0.70879 0.0
H401 H 0.68243 0.75715 0.72084 0.0
H402 H 0.60111 0.76706 0.84353 0.0
H403 H 0.51067 0.89303 0.80459 0.0
H404 H 0.5407 0.97053 0.83084 0.0
H405 H 0.54209 0.88353 0.8487 0.0
H406 H 0.72484 0.91543 0.82729 0.0
H407 H 0.66615 0.90008 0.86213 0.0
H408 H 0.67968 0.98675 0.84392 0.0
H409 H 0.69334 0.87113 0.6062 0.0
H410 H 0.63652 0.08437 0.58977 0.0
H411 H 0.62272 0.1037 0.65225 0.0
H412 H 0.77794 0.89417 0.67258 0.0
H413 H 0.74462 0.80349 0.66439 0.0
H414 H 0.7564 0.84204 0.70868 0.0
H415 H 0.56744 0.84048 0.65912 0.0
H416 H 0.59485 0.78596 0.69184 0.0
H417 H 0.63012 0.78057 0.64854 0.0
H418 H 0.67036 0.65089 0.7525 0.0
C419 C 0.66376 0.76203 0.74701 0.0
C420 C 0.83571 0.58779 0.14416 0.0
C421 C 0.89655 0.61039 0.12475 0.0
C422 C 0.88354 0.64095 0.09227 0.0
C423 C 0.76191 0.61032 0.09423 0.0
C424 C 0.76793 0.59214 0.12873 0.0
C425 C 0.69401 0.5804 0.14307 0.0
H426 H 0.34434 0.52442 0.08519 0.0
C427 C 0.6902 0.59828 0.08162 0.0
C428 C 0.64579 0.58791 0.11032 0.0
H429 H 0.39167 0.63511 0.18456 0.0
H430 H 0.51366 0.63242 0.17261 0.0
H431 H 0.42913 0.6317 0.04992 0.0
H432 H 0.46692 0.42077 0.07899 0.0
H433 H 0.50296 0.42981 0.03745 0.0
H434 H 0.41431 0.43803 0.04222 0.0
H435 H 0.39716 0.55368 0.02448 0.0
H436 H 0.47655 0.60061 0.01535 0.0
C437 C 0.68297 0.6378 0.17182 0.0
C438 C 0.6826 0.50538 0.15758 0.0
C439 C 0.66078 0.54124 0.94905 0.0
C440 C 0.60539 0.51471 0.92811 0.0
C441 C 0.54441 0.49602 0.94441 0.0
C442 C 0.5378 0.50557 0.98088 0.0
C443 C 0.59246 0.53555 0.00169 0.0
C444 C 0.65316 0.55092 -0.01419 0.0
C445 C 0.70602 0.58101 0.01202 0.0
C446 C 0.66664 0.58148 0.04646 0.0
C447 C 0.59981 0.5561 0.03998 0.0
C448 C 0.73076 0.65756 0.00131 0.0
C449 C 0.76153 0.52826 0.01197 0.0
C450 C 0.37965 0.54586 0.10552 0.0
C451 C 0.35438 0.57694 0.13662 0.0
C452 C 0.40634 0.60822 0.16049 0.0
C453 C 0.47798 0.60624 0.15375 0.0
C454 C 0.5016 0.57438 0.12201 0.0
C455 C 0.45025 0.5482 0.09841 0.0
C456 C 0.47748 0.53308 0.06276 0.0
C457 C 0.55213 0.55488 0.06755 0.0
C458 C 0.57148 0.57456 0.10308 0.0
C459 C 0.4434 0.58145 0.03654 0.0
C460 C 0.46451 0.45142 0.05456 0.0
H461 H 0.81517 0.66419 0.05227 0.0
H462 H 0.8407 0.56865 0.17049 0.0
H463 H 0.69122 0.46403 0.13673 0.0
H464 H 0.63043 0.49583 0.16679 0.0
H465 H 0.7174 0.49909 0.18009 0.0
H466 H 0.68994 0.69198 0.16102 0.0
H467 H 0.71917 0.63498 0.19407 0.0
H468 H 0.63161 0.63023 0.18224 0.0
H469 H 0.70801 0.5569 0.93696 0.0
H470 H 0.50097 0.47575 0.92866 0.0
H471 H 0.48937 0.49118 -0.00892 0.0
H472 H 0.69913 0.6777 0.98017 0.0
H473 H 0.78266 0.65944 -0.00866 0.0
H474 H 0.7286 0.69726 0.02365 0.0
H475 H 0.74101 0.47466 0.01999 0.0
H476 H 0.80408 0.54535 0.02968 0.0
H477 H 0.78257 0.52204 -0.0148 0.0
H478 H 0.92463 0.66419 0.07732 0.0
C479 C 0.81876 0.64076 0.07734 0.0
loop_
_geom_bond_atom_site_label_1
_geom_bond_atom_site_label_2
_geom_bond_distance
_geom_bond_site_symmetry_2
_ccdc_geom_bond_type
Nd0 C2 2.836 . S
Nd0 O20 2.500 . S
Nd0 O21 2.492 . S
Nd0 O22 2.487 . S
Nd0 O23 2.682 . S
Nd0 O24 2.410 . S
Nd0 O29 2.414 . S
Nd0 O31 2.424 1_455 S
Nd1 C11 2.836 . S
Nd1 O23 2.414 1_655 S
Nd1 O25 2.424 1_655 S
Nd1 O26 2.500 . S
Nd1 O27 2.492 . S
Nd1 O28 2.487 . S
Nd1 O29 2.682 1_655 S
Nd1 O30 2.410 . S
C2 Nd0 2.836 . S
C2 C3 1.498 . S
C2 O20 1.258 . S
C2 O21 1.239 . S
C3 C2 1.498 . S
C3 C4 1.366 . S
C3 C8 1.407 . S
C4 C3 1.366 . S
C4 C5 1.392 . S
C4 H32 0.930 . S
C5 C4 1.392 . S
C5 C6 1.398 . S
C5 H33 0.929 . S
C6 C5 1.398 . S
C6 C7 1.352 . S
C7 C6 1.352 . S
C7 C8 1.384 . S
C7 H34 0.930 . S
C8 C3 1.407 . S
C8 C7 1.384 . S
C8 H35 0.929 . S
C9 O22 1.241 . S
C9 O23 1.273 . S
C10 O24 1.251 . S
C10 O25 1.268 . S
C11 Nd1 2.836 . S
C11 C12 1.498 . S
C11 O26 1.258 . S
C11 O27 1.239 . S
C12 C11 1.498 . S
C12 C13 1.366 . S
C12 C17 1.407 . S
C13 C12 1.366 . S
C13 C14 1.392 . S
C13 H36 0.930 . S
C14 C13 1.392 . S
C14 C15 1.398 . S
C14 H37 0.929 . S
C15 C14 1.398 . S
C15 C16 1.352 . S
C16 C15 1.352 . S
C16 C17 1.384 . S
C16 H38 0.930 . S
C17 C12 1.407 . S
C17 C16 1.384 . S
C17 H39 0.929 . S
C18 O28 1.241 1_455 S
C18 O29 1.273 . S
C19 O30 1.251 . S
C19 O31 1.268 . S
O20 Nd0 2.500 . S
O20 C2 1.258 . S
O21 Nd0 2.492 . S
O21 C2 1.239 . S
O22 Nd0 2.487 . S
O22 C9 1.241 . S
O23 Nd0 2.682 . S
O23 Nd1 2.414 1_455 S
O23 C9 1.273 . S
O24 Nd0 2.410 . S
O24 C10 1.251 . S
O25 Nd1 2.424 1_455 S
O25 C10 1.268 . S
O26 Nd1 2.500 . S
O26 C11 1.258 . S
O27 Nd1 2.492 . S
O27 C11 1.239 . S
O28 Nd1 2.487 . S
O28 C18 1.241 1_655 S
O29 Nd0 2.414 . S
O29 Nd1 2.682 1_455 S
O29 C18 1.273 . S
O30 Nd1 2.410 . S
O30 C19 1.251 . S
O31 Nd0 2.424 1_655 S
O31 C19 1.268 . S
H32 C4 0.930 . S
H33 C5 0.929 . S
H34 C7 0.930 . S
H35 C8 0.929 . S
H36 C13 0.930 . S
H37 C14 0.929 . S
H38 C16 0.930 . S
H39 C17 0.929 . S
Nd40 C42 2.832 1_545 S
Nd40 O60 2.496 1_545 S
Nd40 O61 2.489 1_545 S
Nd40 O62 2.487 1_545 S
Nd40 O63 2.682 . S
Nd40 O64 2.404 1_545 S
Nd40 O69 2.413 . S
Nd40 O71 2.430 . S
Nd41 C51 2.836 . S
Nd41 O63 2.414 . S
Nd41 O65 2.424 1_545 S
Nd41 O66 2.500 . S
Nd41 O67 2.492 . S
Nd41 O68 2.487 . S
Nd41 O69 2.682 . S
Nd41 O70 2.410 . S
C42 Nd40 2.832 1_565 S
C42 C43 1.498 . S
C42 O60 1.258 . S
C42 O61 1.239 . S
C43 C42 1.498 . S
C43 C44 1.366 . S
C43 C48 1.407 . S
C44 C43 1.366 . S
C44 C45 1.392 . S
C44 H72 0.930 . S
C45 C44 1.392 . S
C45 C46 1.398 . S
C45 H73 0.929 . S
C46 C45 1.398 . S
C46 C47 1.352 . S
C47 C46 1.352 . S
C47 C48 1.384 . S
C47 H74 0.930 . S
C48 C43 1.407 . S
C48 C47 1.384 . S
C48 H75 0.929 . S
C49 O62 1.241 1_545 S
C49 O63 1.273 . S
C50 O64 1.251 . S
C50 O65 1.268 . S
C51 Nd41 2.836 . S
C51 C52 1.498 . S
C51 O66 1.258 . S
C51 O67 1.239 . S
C52 C51 1.498 . S
C52 C53 1.366 . S
C52 C57 1.407 . S
C53 C52 1.366 . S
C53 C54 1.392 . S
C53 H76 0.930 . S
C54 C53 1.392 . S
C54 C55 1.398 . S
C54 H77 0.929 . S
C55 C54 1.398 . S
C55 C56 1.352 . S
C56 C55 1.352 . S
C56 C57 1.384 . S
C56 H78 0.930 . S
C57 C52 1.407 . S
C57 C56 1.384 . S
C57 H79 0.929 . S
C58 O68 1.241 . S
C58 O69 1.273 . S
C59 O70 1.251 . S
C59 O71 1.268 . S
O60 Nd40 2.496 1_565 S
O60 C42 1.258 . S
O61 Nd40 2.489 1_565 S
O61 C42 1.239 . S
O62 Nd40 2.487 1_565 S
O62 C49 1.241 1_565 S
O63 Nd40 2.682 . S
O63 Nd41 2.414 . S
O63 C49 1.273 . S
O64 Nd40 2.404 1_565 S
O64 C50 1.251 . S
O65 Nd41 2.424 1_565 S
O65 C50 1.268 . S
O66 Nd41 2.500 . S
O66 C51 1.258 . S
O67 Nd41 2.492 . S
O67 C51 1.239 . S
O68 Nd41 2.487 . S
O68 C58 1.241 . S
O69 Nd40 2.413 . S
O69 Nd41 2.682 . S
O69 C58 1.273 . S
O70 Nd41 2.410 . S
O70 C59 1.251 . S
O71 Nd40 2.430 . S
O71 C59 1.268 . S
H72 C44 0.930 . S
H73 C45 0.929 . S
H74 C47 0.930 . S
H75 C48 0.929 . S
H76 C53 0.930 . S
H77 C54 0.929 . S
H78 C56 0.930 . S
H79 C57 0.929 . S
Nd80 C82 2.836 . S
Nd80 O100 2.500 . S
Nd80 O101 2.492 . S
Nd80 O102 2.487 . S
Nd80 O103 2.682 . S
Nd80 O104 2.410 . S
Nd80 O109 2.414 . S
Nd80 O111 2.424 . S
Nd81 C91 2.836 . S
Nd81 O103 2.414 . S
Nd81 O105 2.424 . S
Nd81 O106 2.500 . S
Nd81 O107 2.492 . S
Nd81 O108 2.487 . S
Nd81 O109 2.682 . S
Nd81 O110 2.410 . S
C82 Nd80 2.836 . S
C82 C83 1.498 . S
C82 O100 1.258 . S
C82 O101 1.239 . S
C83 C82 1.498 . S
C83 C84 1.366 . S
C83 C88 1.407 . S
C84 C83 1.366 . S
C84 C85 1.392 . S
C84 H112 0.930 . S
C85 C84 1.392 . S
C85 C86 1.398 . S
C85 H113 0.929 . S
C86 C85 1.398 . S
C86 C87 1.352 . S
C87 C86 1.352 . S
C87 C88 1.384 . S
C87 H114 0.930 . S
C88 C83 1.407 . S
C88 C87 1.384 . S
C88 H115 0.929 . S
C89 O102 1.241 . S
C89 O103 1.273 . S
C90 O104 1.251 . S
C90 O105 1.268 . S
C91 Nd81 2.836 . S
C91 C92 1.498 . S
C91 O106 1.258 . S
C91 O107 1.239 . S
C92 C91 1.498 . S
C92 C93 1.366 . S
C92 C97 1.407 . S
C93 C92 1.366 . S
C93 C94 1.392 . S
C93 H116 0.930 . S
C94 C93 1.392 . S
C94 C95 1.398 . S
C94 H117 0.929 . S
C95 C94 1.398 . S
C95 C96 1.352 . S
C96 C95 1.352 . S
C96 C97 1.384 . S
C96 H118 0.930 . S
C97 C92 1.407 . S
C97 C96 1.384 . S
C97 H119 0.929 . S
C98 O108 1.241 . S
C98 O109 1.273 . S
C99 O110 1.251 . S
C99 O111 1.268 . S
O100 Nd80 2.500 . S
O100 C82 1.258 . S
O101 Nd80 2.492 . S
O101 C82 1.239 . S
O102 Nd80 2.487 . S
O102 C89 1.241 . S
O103 Nd80 2.682 . S
O103 Nd81 2.414 . S
O103 C89 1.273 . S
O104 Nd80 2.410 . S
O104 C90 1.251 . S
O105 Nd81 2.424 . S
O105 C90 1.268 . S
O106 Nd81 2.500 . S
O106 C91 1.258 . S
O107 Nd81 2.492 . S
O107 C91 1.239 . S
O108 Nd81 2.487 . S
O108 C98 1.241 . S
O109 Nd80 2.414 . S
O109 Nd81 2.682 . S
O109 C98 1.273 . S
O110 Nd81 2.410 . S
O110 C99 1.251 . S
O111 Nd80 2.424 . S
O111 C99 1.268 . S
H112 C84 0.930 . S
H113 C85 0.929 . S
H114 C87 0.930 . S
H115 C88 0.929 . S
H116 C93 0.930 . S
H117 C94 0.929 . S
H118 C96 0.930 . S
H119 C97 0.929 . S
C120 C121 1.391 . S
C120 C124 1.391 . S
C120 H162 0.948 . S
C121 C120 1.391 . S
C121 C122 1.391 . S
C122 C121 1.391 . S
C122 H178 0.947 . S
C122 C179 1.392 . S
C123 C124 1.391 . S
C123 C127 1.397 . S
C123 C179 1.419 . S
C124 C120 1.391 . S
C124 C123 1.391 . S
C124 C125 1.399 . S
C125 C124 1.399 . S
C125 C128 1.396 . S
C125 C137 1.453 . S
C125 C138 1.684 . S
H126 C150 0.948 . S
C127 C123 1.397 . S
C127 C128 1.394 . S
C127 C146 1.723 . S
C128 C125 1.396 . S
C128 C127 1.394 . S
C128 C158 1.723 1_545 S
H129 C152 0.947 . S
H130 C153 0.948 . S
H131 C159 0.982 . S
H132 C160 0.979 . S
H133 C160 0.980 . S
H134 C160 0.983 . S
H135 C159 0.979 . S
H136 C159 0.977 . S
C137 C125 1.453 . S
C137 H166 0.982 1_545 S
C137 H167 0.979 . S
C137 H168 0.977 1_545 S
C138 C125 1.684 . S
C138 H163 0.979 . S
C138 H164 0.980 . S
C138 H165 0.983 . S
C139 C140 1.391 . S
C139 C144 1.391 . S
C139 H169 0.948 . S
C140 C139 1.391 . S
C140 C141 1.391 . S
C141 C140 1.391 . S
C141 C142 1.392 1_545 S
C141 H170 0.947 1_545 S
C142 C141 1.392 1_565 S
C142 C143 1.419 1_565 S
C142 H171 0.948 . S
C143 C142 1.419 1_545 S
C143 C144 1.391 . S
C143 C147 1.397 . S
C144 C139 1.391 . S
C144 C143 1.391 . S
C144 C145 1.399 . S
C145 C144 1.399 . S
C145 C146 1.396 . S
C145 C148 1.453 . S
C145 C149 1.684 . S
C146 C127 1.723 . S
C146 C145 1.396 . S
C146 C147 1.394 . S
C147 C143 1.397 . S
C147 C146 1.394 . S
C147 C157 1.723 1_545 S
C148 C145 1.453 . S
C148 H172 0.982 . S
C148 H173 0.979 . S
C148 H174 0.977 . S
C149 C145 1.684 . S
C149 H175 0.979 . S
C149 H176 0.980 . S
C149 H177 0.983 . S
C150 H126 0.948 . S
C150 C151 1.391 . S
C150 C155 1.391 . S
C151 C150 1.391 . S
C151 C152 1.391 . S
C152 H129 0.947 . S
C152 C151 1.391 . S
C152 C153 1.392 . S
C153 H130 0.948 . S
C153 C152 1.392 . S
C153 C154 1.419 . S
C154 C153 1.419 . S
C154 C155 1.391 . S
C154 C158 1.397 . S
C155 C150 1.391 . S
C155 C154 1.391 . S
C155 C156 1.399 . S
C156 C155 1.399 . S
C156 C157 1.396 . S
C156 C159 1.453 . S
C156 C160 1.684 . S
C157 C147 1.723 1_565 S
C157 C156 1.396 . S
C157 C158 1.394 . S
C158 C128 1.723 1_565 S
C158 C154 1.397 . S
C158 C157 1.394 . S
C159 H131 0.982 . S
C159 H135 0.979 . S
C159 H136 0.977 . S
C159 C156 1.453 . S
C160 H132 0.979 . S
C160 H133 0.980 . S
C160 H134 0.983 . S
C160 C156 1.684 . S
H161 C179 0.948 . S
H162 C120 0.948 . S
H163 C138 0.979 . S
H164 C138 0.980 . S
H165 C138 0.983 . S
H166 C137 0.982 1_565 S
H167 C137 0.979 . S
H168 C137 0.977 1_565 S
H169 C139 0.948 . S
H170 C141 0.947 1_565 S
H171 C142 0.948 . S
H172 C148 0.982 . S
H173 C148 0.979 . S
H174 C148 0.977 . S
H175 C149 0.979 . S
H176 C149 0.980 . S
H177 C149 0.983 . S
H178 C122 0.947 . S
C179 C122 1.392 . S
C179 C123 1.419 . S
C179 H161 0.948 . S
C180 C181 1.391 . S
C180 C184 1.391 . S
C180 H222 0.948 . S
C181 C180 1.391 . S
C181 C182 1.391 . S
C182 C181 1.391 . S
C182 H238 0.947 . S
C182 C239 1.392 . S
C183 C184 1.391 . S
C183 C187 1.397 . S
C183 C239 1.419 . S
C184 C180 1.391 . S
C184 C183 1.391 . S
C184 C185 1.399 . S
C185 C184 1.399 . S
C185 C188 1.396 . S
C185 C197 1.453 . S
C185 C198 1.684 . S
H186 C210 0.948 . S
C187 C183 1.397 . S
C187 C188 1.394 . S
C187 C206 1.723 . S
C188 C185 1.396 . S
C188 C187 1.394 . S
C188 C218 1.723 . S
H189 C212 0.947 . S
H190 C213 0.948 . S
H191 C219 0.982 . S
H192 C220 0.979 . S
H193 C220 0.980 . S
H194 C220 0.983 . S
H195 C219 0.979 . S
H196 C219 0.977 . S
C197 C185 1.453 . S
C197 H226 0.982 . S
C197 H227 0.979 . S
C197 H228 0.977 . S
C198 C185 1.684 . S
C198 H223 0.979 . S
C198 H224 0.980 . S
C198 H225 0.983 . S
C199 C200 1.391 . S
C199 C204 1.391 . S
C199 H229 0.948 . S
C200 C199 1.391 . S
C200 C201 1.391 . S
C201 C200 1.391 . S
C201 C202 1.392 . S
C201 H230 0.947 . S
C202 C201 1.392 . S
C202 C203 1.419 . S
C202 H231 0.948 . S
C203 C202 1.419 . S
C203 C204 1.391 . S
C203 C207 1.397 . S
C204 C199 1.391 . S
C204 C203 1.391 . S
C204 C205 1.399 . S
C205 C204 1.399 . S
C205 C206 1.396 . S
C205 C208 1.453 . S
C205 C209 1.684 . S
C206 C187 1.723 . S
C206 C205 1.396 . S
C206 C207 1.394 . S
C207 C203 1.397 . S
C207 C206 1.394 . S
C207 C217 1.723 . S
C208 C205 1.453 . S
C208 H232 0.982 . S
C208 H233 0.979 . S
C208 H234 0.977 . S
C209 C205 1.684 . S
C209 H235 0.979 . S
C209 H236 0.980 . S
C209 H237 0.983 . S
C210 H186 0.948 . S
C210 C211 1.391 . S
C210 C215 1.391 . S
C211 C210 1.391 . S
C211 C212 1.391 . S
C212 H189 0.947 . S
C212 C211 1.391 . S
C212 C213 1.392 . S
C213 H190 0.948 . S
C213 C212 1.392 . S
C213 C214 1.419 . S
C214 C213 1.419 . S
C214 C215 1.391 . S
C214 C218 1.397 . S
C215 C210 1.391 . S
C215 C214 1.391 . S
C215 C216 1.399 . S
C216 C215 1.399 . S
C216 C217 1.396 . S
C216 C219 1.453 . S
C216 C220 1.684 . S
C217 C207 1.723 . S
C217 C216 1.396 . S
C217 C218 1.394 . S
C218 C188 1.723 . S
C218 C214 1.397 . S
C218 C217 1.394 . S
C219 H191 0.982 . S
C219 H195 0.979 . S
C219 H196 0.977 . S
C219 C216 1.453 . S
C220 H192 0.979 . S
C220 H193 0.980 . S
C220 H194 0.983 . S
C220 C216 1.684 . S
H221 C239 0.948 . S
H222 C180 0.948 . S
H223 C198 0.979 . S
H224 C198 0.980 . S
H225 C198 0.983 . S
H226 C197 0.982 . S
H227 C197 0.979 . S
H228 C197 0.977 . S
H229 C199 0.948 . S
H230 C201 0.947 . S
H231 C202 0.948 . S
H232 C208 0.982 . S
H233 C208 0.979 . S
H234 C208 0.977 . S
H235 C209 0.979 . S
H236 C209 0.980 . S
H237 C209 0.983 . S
H238 C182 0.947 . S
C239 C182 1.392 . S
C239 C183 1.419 . S
C239 H221 0.948 . S
C240 C241 1.391 . S
C240 C244 1.391 . S
C240 H282 0.948 . S
C241 C240 1.391 . S
C241 C242 1.391 . S
C242 C241 1.391 . S
C242 H298 0.947 . S
C242 C299 1.392 . S
C243 C244 1.391 . S
C243 C247 1.397 . S
C243 C299 1.419 . S
C244 C240 1.391 . S
C244 C243 1.391 . S
C244 C245 1.399 . S
C245 C244 1.399 . S
C245 C248 1.396 . S
C245 C257 1.453 . S
C245 C258 1.684 . S
H246 C270 0.948 . S
C247 C243 1.397 . S
C247 C248 1.394 . S
C247 C266 1.723 . S
C248 C245 1.396 . S
C248 C247 1.394 . S
C248 C278 1.723 1_455 S
H249 C272 0.947 . S
H250 C273 0.948 . S
H251 C279 0.982 . S
H252 C280 0.979 . S
H253 C280 0.980 . S
H254 C280 0.983 . S
H255 C279 0.979 . S
H256 C279 0.977 . S
C257 C245 1.453 . S
C257 H286 0.982 . S
C257 H287 0.979 . S
C257 H288 0.977 . S
C258 C245 1.684 . S
C258 H283 0.979 . S
C258 H284 0.980 . S
C258 H285 0.983 . S
C259 C260 1.391 . S
C259 C264 1.391 . S
C259 H289 0.948 . S
C260 C259 1.391 . S
C260 C261 1.391 1_455 S
C261 C260 1.391 1_655 S
C261 C262 1.392 . S
C261 H290 0.947 . S
C262 C261 1.392 . S
C262 C263 1.419 1_655 S
C262 H291 0.948 . S
C263 C262 1.419 1_455 S
C263 C264 1.391 . S
C263 C267 1.397 1_554 S
C264 C259 1.391 . S
C264 C263 1.391 . S
C264 C265 1.399 1_554 S
C265 C264 1.399 1_556 S
C265 C266 1.396 . S
C265 C268 1.453 . S
C265 C269 1.684 1_556 S
C266 C247 1.723 . S
C266 C265 1.396 . S
C266 C267 1.394 . S
C267 C263 1.397 1_556 S
C267 C266 1.394 . S
C267 C277 1.723 1_455 S
C268 C265 1.453 . S
C268 H292 0.982 . S
C268 H293 0.979 1_556 S
C268 H294 0.977 . S
C269 C265 1.684 1_554 S
C269 H295 0.979 . S
C269 H296 0.980 1_554 S
C269 H297 0.983 . S
C270 H246 0.948 . S
C270 C271 1.391 . S
C270 C275 1.391 . S
C271 C270 1.391 . S
C271 C272 1.391 . S
C272 H249 0.947 . S
C272 C271 1.391 . S
C272 C273 1.392 . S
C273 H250 0.948 . S
C273 C272 1.392 . S
C273 C274 1.419 . S
C274 C273 1.419 . S
C274 C275 1.391 . S
C274 C278 1.397 . S
C275 C270 1.391 . S
C275 C274 1.391 . S
C275 C276 1.399 . S
C276 C275 1.399 . S
C276 C277 1.396 . S
C276 C279 1.453 . S
C276 C280 1.684 . S
C277 C267 1.723 1_655 S
C277 C276 1.396 . S
C277 C278 1.394 . S
C278 C248 1.723 1_655 S
C278 C274 1.397 . S
C278 C277 1.394 . S
C279 H251 0.982 . S
C279 H255 0.979 . S
C279 H256 0.977 . S
C279 C276 1.453 . S
C280 H252 0.979 . S
C280 H253 0.980 . S
C280 H254 0.983 . S
C280 C276 1.684 . S
H281 C299 0.948 . S
H282 C240 0.948 . S
H283 C258 0.979 . S
H284 C258 0.980 . S
H285 C258 0.983 . S
H286 C257 0.982 . S
H287 C257 0.979 . S
H288 C257 0.977 . S
H289 C259 0.948 . S
H290 C261 0.947 . S
H291 C262 0.948 . S
H292 C268 0.982 . S
H293 C268 0.979 1_554 S
H294 C268 0.977 . S
H295 C269 0.979 . S
H296 C269 0.980 1_556 S
H297 C269 0.983 . S
H298 C242 0.947 . S
C299 C242 1.392 . S
C299 C243 1.419 . S
C299 H281 0.948 . S
C300 C301 1.391 . S
C300 C304 1.391 . S
C300 H342 0.948 . S
C301 C300 1.391 . S
C301 C302 1.391 . S
C302 C301 1.391 . S
C302 H358 0.947 . S
C302 C359 1.392 . S
C303 C304 1.391 . S
C303 C307 1.397 . S
C303 C359 1.419 . S
C304 C300 1.391 . S
C304 C303 1.391 . S
C304 C305 1.399 . S
C305 C304 1.399 . S
C305 C308 1.396 . S
C305 C317 1.453 . S
C305 C318 1.684 . S
H306 C330 0.948 . S
C307 C303 1.397 . S
C307 C308 1.394 . S
C307 C326 1.723 . S
C308 C305 1.396 . S
C308 C307 1.394 . S
C308 C338 1.723 1_655 S
H309 C332 0.947 . S
H310 C333 0.948 . S
H311 C339 0.982 . S
H312 C340 0.979 . S
H313 C340 0.980 . S
H314 C340 0.983 . S
H315 C339 0.979 . S
H316 C339 0.977 . S
C317 C305 1.453 . S
C317 H346 0.982 1_655 S
C317 H347 0.979 . S
C317 H348 0.977 1_655 S
C318 C305 1.684 . S
C318 H343 0.979 . S
C318 H344 0.980 . S
C318 H345 0.983 . S
C319 C320 1.391 1_655 S
C319 C324 1.391 . S
C319 H349 0.948 . S
C320 C319 1.391 1_455 S
C320 C321 1.391 . S
C321 C320 1.391 . S
C321 C322 1.392 . S
C321 H350 0.947 . S
C322 C321 1.392 . S
C322 C323 1.419 . S
C322 H351 0.948 . S
C323 C322 1.419 . S
C323 C324 1.391 1_455 S
C323 C327 1.397 . S
C324 C319 1.391 . S
C324 C323 1.391 1_655 S
C324 C325 1.399 . S
C325 C324 1.399 . S
C325 C326 1.396 . S
C325 C328 1.453 . S
C325 C329 1.684 . S
C326 C307 1.723 . S
C326 C325 1.396 . S
C326 C327 1.394 1_655 S
C327 C323 1.397 . S
C327 C326 1.394 1_455 S
C327 C337 1.723 . S
C328 C325 1.453 . S
C328 H352 0.982 . S
C328 H353 0.979 . S
C328 H354 0.977 . S
C329 C325 1.684 . S
C329 H355 0.979 . S
C329 H356 0.980 . S
C329 H357 0.983 . S
C330 H306 0.948 . S
C330 C331 1.391 . S
C330 C335 1.391 . S
C331 C330 1.391 . S
C331 C332 1.391 . S
C332 H309 0.947 . S
C332 C331 1.391 . S
C332 C333 1.392 . S
C333 H310 0.948 . S
C333 C332 1.392 . S
C333 C334 1.419 . S
C334 C333 1.419 . S
C334 C335 1.391 . S
C334 C338 1.397 . S
C335 C330 1.391 . S
C335 C334 1.391 . S
C335 C336 1.399 . S
C336 C335 1.399 . S
C336 C337 1.396 . S
C336 C339 1.453 . S
C336 C340 1.684 . S
C337 C327 1.723 . S
C337 C336 1.396 . S
C337 C338 1.394 . S
C338 C308 1.723 1_455 S
C338 C334 1.397 . S
C338 C337 1.394 . S
C339 H311 0.982 . S
C339 H315 0.979 . S
C339 H316 0.977 . S
C339 C336 1.453 . S
C340 H312 0.979 . S
C340 H313 0.980 . S
C340 H314 0.983 . S
C340 C336 1.684 . S
H341 C359 0.948 . S
H342 C300 0.948 . S
H343 C318 0.979 . S
H344 C318 0.980 . S
H345 C318 0.983 . S
H346 C317 0.982 1_455 S
H347 C317 0.979 . S
H348 C317 0.977 1_455 S
H349 C319 0.948 . S
H350 C321 0.947 . S
H351 C322 0.948 . S
H352 C328 0.982 . S
H353 C328 0.979 . S
H354 C328 0.977 . S
H355 C329 0.979 . S
H356 C329 0.980 . S
H357 C329 0.983 . S
H358 C302 0.947 . S
C359 C302 1.392 . S
C359 C303 1.419 . S
C359 H341 0.948 . S
C360 C361 1.391 . S
C360 C364 1.391 . S
C360 H402 0.948 . S
C361 C360 1.391 . S
C361 C362 1.391 . S
C362 C361 1.391 . S
C362 H418 0.947 . S
C362 C419 1.392 . S
C363 C364 1.391 . S
C363 C367 1.397 . S
C363 C419 1.419 . S
C364 C360 1.391 . S
C364 C363 1.391 . S
C364 C365 1.399 . S
C365 C364 1.399 . S
C365 C368 1.396 . S
C365 C377 1.453 . S
C365 C378 1.684 . S
H366 C390 0.948 . S
C367 C363 1.397 . S
C367 C368 1.394 . S
C367 C386 1.723 . S
C368 C365 1.396 . S
C368 C367 1.394 . S
C368 C398 1.723 1_565 S
H369 C392 0.947 . S
H370 C393 0.948 . S
H371 C399 0.982 . S
H372 C400 0.979 . S
H373 C400 0.980 . S
H374 C400 0.983 . S
H375 C399 0.979 . S
H376 C399 0.977 . S
C377 C365 1.453 . S
C377 H406 0.982 . S
C377 H407 0.979 . S
C377 H408 0.977 1_565 S
C378 C365 1.684 . S
C378 H403 0.979 . S
C378 H404 0.980 1_565 S
C378 H405 0.983 . S
C379 C380 1.391 1_565 S
C379 C384 1.391 . S
C379 H409 0.948 . S
C380 C379 1.391 1_545 S
C380 C381 1.391 . S
C381 C380 1.391 . S
C381 C382 1.392 . S
C381 H410 0.947 . S
C382 C381 1.392 . S
C382 C383 1.419 . S
C382 H411 0.948 . S
C383 C382 1.419 . S
C383 C384 1.391 1_545 S
C383 C387 1.397 . S
C384 C379 1.391 . S
C384 C383 1.391 1_565 S
C384 C385 1.399 . S
C385 C384 1.399 . S
C385 C386 1.396 . S
C385 C388 1.453 . S
C385 C389 1.684 . S
C386 C367 1.723 . S
C386 C385 1.396 . S
C386 C387 1.394 1_565 S
C387 C383 1.397 . S
C387 C386 1.394 1_545 S
C387 C397 1.723 . S
C388 C385 1.453 . S
C388 H412 0.982 . S
C388 H413 0.979 . S
C388 H414 0.977 . S
C389 C385 1.684 . S
C389 H415 0.979 . S
C389 H416 0.980 . S
C389 H417 0.983 . S
C390 H366 0.948 . S
C390 C391 1.391 . S
C390 C395 1.391 . S
C391 C390 1.391 . S
C391 C392 1.391 . S
C392 H369 0.947 . S
C392 C391 1.391 . S
C392 C393 1.392 . S
C393 H370 0.948 . S
C393 C392 1.392 . S
C393 C394 1.419 . S
C394 C393 1.419 . S
C394 C395 1.391 . S
C394 C398 1.397 . S
C395 C390 1.391 . S
C395 C394 1.391 . S
C395 C396 1.399 . S
C396 C395 1.399 . S
C396 C397 1.396 . S
C396 C399 1.453 . S
C396 C400 1.684 . S
C397 C387 1.723 . S
C397 C396 1.396 . S
C397 C398 1.394 . S
C398 C368 1.723 1_545 S
C398 C394 1.397 . S
C398 C397 1.394 . S
C399 H371 0.982 . S
C399 H375 0.979 . S
C399 H376 0.977 . S
C399 C396 1.453 . S
C400 H372 0.979 . S
C400 H373 0.980 . S
C400 H374 0.983 . S
C400 C396 1.684 . S
H401 C419 0.948 . S
H402 C360 0.948 . S
H403 C378 0.979 . S
H404 C378 0.980 1_545 S
H405 C378 0.983 . S
H406 C377 0.982 . S
H407 C377 0.979 . S
H408 C377 0.977 1_545 S
H409 C379 0.948 . S
H410 C381 0.947 . S
H411 C382 0.948 . S
H412 C388 0.982 . S
H413 C388 0.979 . S
H414 C388 0.977 . S
H415 C389 0.979 . S
H416 C389 0.980 . S
H417 C389 0.983 . S
H418 C362 0.947 . S
C419 C362 1.392 . S
C419 C363 1.419 . S
C419 H401 0.948 . S
C420 C421 1.391 . S
C420 C424 1.391 . S
C420 H462 0.948 . S
C421 C420 1.391 . S
C421 C422 1.391 . S
C422 C421 1.391 . S
C422 H478 0.947 . S
C422 C479 1.392 . S
C423 C424 1.391 . S
C423 C427 1.397 . S
C423 C479 1.419 . S
C424 C420 1.391 . S
C424 C423 1.391 . S
C424 C425 1.399 . S
C425 C424 1.399 . S
C425 C428 1.396 . S
C425 C437 1.453 . S
C425 C438 1.684 . S
H426 C450 0.948 . S
C427 C423 1.397 . S
C427 C428 1.394 . S
C427 C446 1.723 . S
C428 C425 1.396 . S
C428 C427 1.394 . S
C428 C458 1.723 . S
H429 C452 0.947 . S
H430 C453 0.948 . S
H431 C459 0.982 . S
H432 C460 0.979 . S
H433 C460 0.980 . S
H434 C460 0.983 . S
H435 C459 0.979 . S
H436 C459 0.977 . S
C437 C425 1.453 . S
C437 H466 0.982 . S
C437 H467 0.979 . S
C437 H468 0.977 . S
C438 C425 1.684 . S
C438 H463 0.979 . S
C438 H464 0.980 . S
C438 H465 0.983 . S
C439 C440 1.391 . S
C439 C444 1.391 . S
C439 H469 0.948 . S
C440 C439 1.391 . S
C440 C441 1.391 . S
C441 C440 1.391 . S
C441 C442 1.392 . S
C441 H470 0.947 . S
C442 C441 1.392 . S
C442 C443 1.419 1_556 S
C442 H471 0.948 1_556 S
C443 C442 1.419 1_554 S
C443 C444 1.391 1_554 S
C443 C447 1.397 . S
C444 C439 1.391 . S
C444 C443 1.391 1_556 S
C444 C445 1.399 1_556 S
C445 C444 1.399 1_554 S
C445 C446 1.396 . S
C445 C448 1.453 . S
C445 C449 1.684 . S
C446 C427 1.723 . S
C446 C445 1.396 . S
C446 C447 1.394 . S
C447 C443 1.397 . S
C447 C446 1.394 . S
C447 C457 1.723 . S
C448 C445 1.453 . S
C448 H472 0.982 . S
C448 H473 0.979 . S
C448 H474 0.977 . S
C449 C445 1.684 . S
C449 H475 0.979 . S
C449 H476 0.980 . S
C449 H477 0.983 1_554 S
C450 H426 0.948 . S
C450 C451 1.391 . S
C450 C455 1.391 . S
C451 C450 1.391 . S
C451 C452 1.391 . S
C452 H429 0.947 . S
C452 C451 1.391 . S
C452 C453 1.392 . S
C453 H430 0.948 . S
C453 C452 1.392 . S
C453 C454 1.419 . S
C454 C453 1.419 . S
C454 C455 1.391 . S
C454 C458 1.397 . S
C455 C450 1.391 . S
C455 C454 1.391 . S
C455 C456 1.399 . S
C456 C455 1.399 . S
C456 C457 1.396 . S
C456 C459 1.453 . S
C456 C460 1.684 . S
C457 C447 1.723 . S
C457 C456 1.396 . S
C457 C458 1.394 . S
C458 C428 1.723 . S
C458 C454 1.397 . S
C458 C457 1.394 . S
C459 H431 0.982 . S
C459 H435 0.979 . S
C459 H436 0.977 . S
C459 C456 1.453 . S
C460 H432 0.979 . S
C460 H433 0.980 . S
C460 H434 0.983 . S
C460 C456 1.684 . S
H461 C479 0.948 . S
H462 C420 0.948 . S
H463 C438 0.979 . S
H464 C438 0.980 . S
H465 C438 0.983 . S
H466 C437 0.982 . S
H467 C437 0.979 . S
H468 C437 0.977 . S
H469 C439 0.948 . S
H470 C441 0.947 . S
H471 C442 0.948 1_554 S
H472 C448 0.982 . S
H473 C448 0.979 . S
H474 C448 0.977 . S
H475 C449 0.979 . S
H476 C449 0.980 . S
H477 C449 0.983 1_556 S
H478 C422 0.947 . S
C479 C422 1.392 . S
C479 C423 1.419 . S
C479 H461 0.948 . S
C10 C451 5.113 . S
C55 C301 1.842 . S
C90 C361 2.629 . S
C19 C421 4.757 . S
C331 C46 1.614 . S
C391 C99 3.558 . S
C50 C181 2.602 . S
C95 C271 3.386 . S
C6 C151 1.472 . S
C211 C59 3.395 . S
C241 C86 2.006 . S
C15 C121 2.887 . S
C260 C18 1.870 . S
C49 C140 1.435 . S
C98 C200 1.181 . S
C380 C58 1.163 . S
C440 C89 1.981 . S
C9 C320 1.320 . S
