# Generated by pormake.
# Topology pyr, (3,6)-cn, num edge types: 1
# Building blocks:
#     Node 0, Type 0, BuildingBlock: KAKCAD_clean_linker_0, # of connection points: 3
#     Node 1, Type 0, BuildingBlock: KAKCAD_clean_linker_0, # of connection points: 3
#     Node 2, Type 0, BuildingBlock: KAKCAD_clean_linker_0, # of connection points: 3
#     Node 3, Type 0, BuildingBlock: KAKCAD_clean_linker_0, # of connection points: 3
#     Node 4, Type 0, BuildingBlock: KAKCAD_clean_linker_0, # of connection points: 3
#     Node 5, Type 0, BuildingBlock: KAKCAD_clean_linker_0, # of connection points: 3
#     Node 6, Type 0, BuildingBlock: KAKCAD_clean_linker_0, # of connection points: 3
#     Node 7, Type 0, BuildingBlock: KAKCAD_clean_linker_0, # of connection points: 3
#     Node 8, Type 1, BuildingBlock: JUFBIX_clean_sbu_0, # of connection points: 6
#     Node 9, Type 1, BuildingBlock: JUFBIX_clean_sbu_0, # of connection points: 6
#     Node 10, Type 1, BuildingBlock: JUFBIX_clean_sbu_0, # of connection points: 6
#     Node 11, Type 1, BuildingBlock: JUFBIX_clean_sbu_0, # of connection points: 6
#     Edge 12, Type (0, 1), BuildingBlock: KIFKEQ_clean_linker_1, # of connection points: 2
#     Edge 13, Type (0, 1), BuildingBlock: KIFKEQ_clean_linker_1, # of connection points: 2
#     Edge 14, Type (0, 1), BuildingBlock: KIFKEQ_clean_linker_1, # of connection points: 2
#     Edge 15, Type (0, 1), BuildingBlock: KIFKEQ_clean_linker_1, # of connection points: 2
#     Edge 16, Type (0, 1), BuildingBlock: KIFKEQ_clean_linker_1, # of connection points: 2
#     Edge 17, Type (0, 1), BuildingBlock: KIFKEQ_clean_linker_1, # of connection points: 2
#     Edge 18, Type (0, 1), BuildingBlock: KIFKEQ_clean_linker_1, # of connection points: 2
#     Edge 19, Type (0, 1), BuildingBlock: KIFKEQ_clean_linker_1, # of connection points: 2
#     Edge 20, Type (0, 1), BuildingBlock: KIFKEQ_clean_linker_1, # of connection points: 2
#     Edge 21, Type (0, 1), BuildingBlock: KIFKEQ_clean_linker_1, # of connection points: 2
#     Edge 22, Type (0, 1), BuildingBlock: KIFKEQ_clean_linker_1, # of connection points: 2
#     Edge 23, Type (0, 1), BuildingBlock: KIFKEQ_clean_linker_1, # of connection points: 2
#     Edge 24, Type (0, 1), BuildingBlock: KIFKEQ_clean_linker_1, # of connection points: 2
#     Edge 25, Type (0, 1), BuildingBlock: KIFKEQ_clean_linker_1, # of connection points: 2
#     Edge 26, Type (0, 1), BuildingBlock: KIFKEQ_clean_linker_1, # of connection points: 2
#     Edge 27, Type (0, 1), BuildingBlock: KIFKEQ_clean_linker_1, # of connection points: 2
#     Edge 28, Type (0, 1), BuildingBlock: KIFKEQ_clean_linker_1, # of connection points: 2
#     Edge 29, Type (0, 1), BuildingBlock: KIFKEQ_clean_linker_1, # of connection points: 2
#     Edge 30, Type (0, 1), BuildingBlock: KIFKEQ_clean_linker_1, # of connection points: 2
#     Edge 31, Type (0, 1), BuildingBlock: KIFKEQ_clean_linker_1, # of connection points: 2
#     Edge 32, Type (0, 1), BuildingBlock: KIFKEQ_clean_linker_1, # of connection points: 2
#     Edge 33, Type (0, 1), BuildingBlock: KIFKEQ_clean_linker_1, # of connection points: 2
#     Edge 34, Type (0, 1), BuildingBlock: KIFKEQ_clean_linker_1, # of connection points: 2
#     Edge 35, Type (0, 1), BuildingBlock: KIFKEQ_clean_linker_1, # of connection points: 2
# Relax obj value: 0.046
# Max RMSD: 0.092
# Mean RMSD: 0.032
data_MOF--net-pry--node1-JUFBIX_clean_sbu_0--node2-KAKCAD_clean_linker_0--edge1-KIFKEQ_clean_linker_1
_symmetry_space_group_name_H-M    P1
_symmetry_Int_Tables_number       1
_symmetry_cell_setting            triclinic
loop_
_symmetry_equiv_pos_as_xyz
'x, y, z'
_cell_length_a     46.68483
_cell_length_b     44.181993
_cell_length_c     46.564475
_cell_angle_alpha  85.44486
_cell_angle_beta   90.067092
_cell_angle_gamma 91.512133
loop_
_atom_site_label
_atom_site_type_symbol
_atom_site_fract_x
_atom_site_fract_y
_atom_site_fract_z
_atom_type_partial_charge
C0 C 0.12577 0.12168 0.25809 0.0
C1 C 0.14253 0.11144 0.28191 0.0
C2 C 0.13854 0.13457 0.23259 0.0
C3 C 0.16855 0.13781 0.22997 0.0
C4 C 0.1854 0.12724 0.25362 0.0
C5 C 0.17258 0.11432 0.27922 0.0
C6 C 0.18191 0.15288 0.20295 0.0
C7 C 0.16892 0.17821 0.18851 0.0
C8 C 0.18052 0.19263 0.16291 0.0
C9 C 0.20583 0.18136 0.1517 0.0
C10 C 0.21943 0.15599 0.16557 0.0
C11 C 0.2073 0.1421 0.19133 0.0
C12 C 0.24593 0.14368 0.15285 0.0
C13 C 0.24831 0.14145 0.12293 0.0
C14 C 0.26907 0.13396 0.1704 0.0
C15 C 0.29382 0.12254 0.1584 0.0
C16 C 0.29613 0.12018 0.12849 0.0
C17 C 0.16595 0.21944 0.14811 0.0
C18 C 0.13593 0.21941 0.14521 0.0
C19 C 0.18168 0.24555 0.13748 0.0
C20 C 0.16773 0.27109 0.12482 0.0
C21 C 0.13761 0.27122 0.12217 0.0
C22 C 0.12201 0.24478 0.13236 0.0
C23 C 0.27293 0.1298 0.11097 0.0
H24 H 0.10261 0.12028 0.25925 0.0
H25 H 0.12475 0.14197 0.21483 0.0
H26 H 0.20853 0.12948 0.25259 0.0
H27 H 0.18631 0.10643 0.29686 0.0
H28 H 0.14993 0.18729 0.19763 0.0
H29 H 0.21713 0.12223 0.20184 0.0
H30 H 0.21489 0.19233 0.13201 0.0
H31 H 0.23092 0.14836 0.10868 0.0
H32 H 0.2682 0.13549 0.19348 0.0
H33 H 0.31104 0.11516 0.17268 0.0
H34 H 0.12311 0.19956 0.1527 0.0
H35 H 0.20478 0.24655 0.13961 0.0
H36 H 0.2739 0.12866 0.08785 0.0
H37 H 0.09893 0.24347 0.1302 0.0
H38 H 0.18062 0.29099 0.11772 0.0
C39 C 0.42605 0.93264 0.70584 0.0
C40 C 0.45441 0.93323 0.71587 0.0
C41 C 0.41984 0.92455 0.67823 0.0
C42 C 0.44183 0.9172 0.65961 0.0
C43 C 0.47035 0.91828 0.66934 0.0
C44 C 0.47661 0.92637 0.69724 0.0
C45 C 0.43424 0.90682 0.63091 0.0
C46 C 0.41129 0.9201 0.61546 0.0
C47 C 0.39899 0.90632 0.59216 0.0
C48 C 0.41135 0.88036 0.5827 0.0
C49 C 0.43479 0.86713 0.59737 0.0
C50 C 0.44641 0.88068 0.62126 0.0
C51 C 0.44393 0.83672 0.59053 0.0
C52 C 0.42322 0.81348 0.58798 0.0
C53 C 0.473 0.83039 0.58725 0.0
C54 C 0.48112 0.80137 0.58089 0.0
C55 C 0.46029 0.77817 0.57802 0.0
C56 C 0.37016 0.91512 0.58185 0.0
C57 C 0.34841 0.91805 0.60218 0.0
C58 C 0.36332 0.91778 0.55235 0.0
C59 C 0.33505 0.92297 0.54344 0.0
C60 C 0.3133 0.92485 0.56399 0.0
C61 C 0.32032 0.92277 0.59335 0.0
C62 C 0.43128 0.78457 0.58192 0.0
H63 H 0.40848 0.9383 0.71944 0.0
H64 H 0.39756 0.92331 0.67181 0.0
H65 H 0.48774 0.91273 0.65548 0.0
H66 H 0.49867 0.92657 0.70444 0.0
H67 H 0.40159 0.94014 0.6228 0.0
H68 H 0.4632 0.86936 0.63373 0.0
H69 H 0.40141 0.8691 0.56523 0.0
H70 H 0.40069 0.81754 0.59116 0.0
H71 H 0.48935 0.84796 0.58922 0.0
H72 H 0.50363 0.79725 0.57783 0.0
H73 H 0.3529 0.91554 0.62507 0.0
H74 H 0.37972 0.91546 0.5363 0.0
H75 H 0.41473 0.76708 0.58068 0.0
H76 H 0.30393 0.9245 0.60956 0.0
H77 H 0.33004 0.92461 0.52066 0.0
C78 C 0.77553 0.41937 0.88286 0.0
C79 C 0.7952 0.39877 0.89556 0.0
C80 C 0.75015 0.40892 0.87043 0.0
C81 C 0.74388 0.3776 0.87023 0.0
C82 C 0.76384 0.35705 0.88257 0.0
C83 C 0.78907 0.36749 0.89516 0.0
C84 C 0.71652 0.3663 0.85762 0.0
C85 C 0.70491 0.38099 0.83241 0.0
C86 C 0.67937 0.37005 0.82036 0.0
C87 C 0.66523 0.34431 0.83395 0.0
C88 C 0.67629 0.32943 0.85917 0.0
C89 C 0.7019 0.34057 0.87081 0.0
C90 C 0.66113 0.30218 0.87332 0.0
C91 C 0.63128 0.30182 0.87736 0.0
C92 C 0.67639 0.27626 0.88275 0.0
C93 C 0.66213 0.25051 0.89578 0.0
C94 C 0.63225 0.25009 0.89997 0.0
C95 C 0.66742 0.38517 0.79342 0.0
C96 C 0.66471 0.41688 0.79013 0.0
C97 C 0.65792 0.36782 0.77105 0.0
C98 C 0.64579 0.38178 0.74608 0.0
C99 C 0.64257 0.41342 0.74298 0.0
C100 C 0.65223 0.43083 0.76527 0.0
C101 C 0.61704 0.27616 0.89063 0.0
H102 H 0.77944 0.44362 0.88308 0.0
H103 H 0.73517 0.42545 0.86153 0.0
H104 H 0.76012 0.33278 0.88231 0.0
H105 H 0.80399 0.35102 0.90431 0.0
H106 H 0.71616 0.40043 0.82162 0.0
H107 H 0.71006 0.32953 0.89065 0.0
H108 H 0.64553 0.33578 0.8248 0.0
H109 H 0.61898 0.32159 0.87066 0.0
H110 H 0.69935 0.2757 0.87958 0.0
H111 H 0.67454 0.23073 0.90215 0.0
H112 H 0.6717 0.43082 0.80706 0.0
H113 H 0.65993 0.34337 0.77285 0.0
H114 H 0.59413 0.27696 0.89391 0.0
H115 H 0.65024 0.45528 0.76342 0.0
H116 H 0.63836 0.3677 0.72942 0.0
C117 C 0.93368 0.58424 0.31787 0.0
C118 C 0.96257 0.58444 0.30966 0.0
C119 C 0.92565 0.5961 0.34335 0.0
C120 C 0.94635 0.60806 0.36161 0.0
C121 C 0.97528 0.60905 0.35306 0.0
C122 C 0.98332 0.59744 0.32715 0.0
C123 C 0.9372 0.61898 0.3895 0.0
C124 C 0.91527 0.60311 0.40529 0.0
C125 C 0.90275 0.61504 0.4291 0.0
C126 C 0.91439 0.64191 0.43901 0.0
C127 C 0.93716 0.6579 0.42411 0.0
C128 C 0.94825 0.64625 0.39916 0.0
C129 C 0.94792 0.68777 0.43326 0.0
C130 C 0.92909 0.70788 0.44509 0.0
C131 C 0.97693 0.69688 0.42953 0.0
C132 C 0.98665 0.72546 0.43693 0.0
C133 C 0.96775 0.74524 0.44879 0.0
C134 C 0.87544 0.6012 0.44093 0.0
C135 C 0.85433 0.59181 0.42175 0.0
C136 C 0.86967 0.59799 0.47068 0.0
C137 C 0.84337 0.58531 0.48092 0.0
C138 C 0.82253 0.5756 0.46156 0.0
C139 C 0.82835 0.57915 0.4319 0.0
C140 C 0.93897 0.73612 0.45304 0.0
H141 H 0.91718 0.57509 0.30438 0.0
H142 H 0.90307 0.59593 0.34869 0.0
H143 H 0.99171 0.61817 0.36663 0.0
H144 H 1.00574 0.59798 0.32112 0.0
H145 H 0.90701 0.58174 0.39831 0.0
H146 H 0.96442 0.65913 0.38638 0.0
H147 H 0.90498 0.65086 0.4577 0.0
H148 H 0.90648 0.70224 0.44762 0.0
H149 H 0.99221 0.68193 0.42096 0.0
H150 H 1.009 0.73202 0.43361 0.0
H151 H 0.85761 0.59484 0.39866 0.0
H152 H 0.8855 0.60506 0.48597 0.0
H153 H 0.92393 0.75122 0.46182 0.0
H154 H 0.81246 0.57285 0.41633 0.0
H155 H 0.8394 0.58296 0.50391 0.0
C156 C 0.88075 0.87323 0.74776 0.0
C157 C 0.88249 0.905 0.74204 0.0
C158 C 0.8683 0.85998 0.77328 0.0
C159 C 0.85719 0.87802 0.79405 0.0
C160 C 0.8583 0.90979 0.78809 0.0
C161 C 0.87077 0.92309 0.76246 0.0
C162 C 0.84532 0.86356 0.82202 0.0
C163 C 0.85882 0.83832 0.836 0.0
C164 C 0.84797 0.82361 0.86184 0.0
C165 C 0.8233 0.83522 0.87415 0.0
C166 C 0.80935 0.86076 0.86091 0.0
C167 C 0.82065 0.87459 0.83474 0.0
C168 C 0.78292 0.87282 0.87425 0.0
C169 C 0.7627 0.85314 0.88913 0.0
C170 C 0.77761 0.90421 0.8723 0.0
C171 C 0.753 0.91545 0.88469 0.0
C172 C 0.73296 0.89575 0.8997 0.0
C173 C 0.86257 0.79611 0.87565 0.0
C174 C 0.87522 0.77511 0.85857 0.0
C175 C 0.86447 0.79071 0.90584 0.0
C176 C 0.87877 0.76536 0.91843 0.0
C177 C 0.89184 0.74479 0.90125 0.0
C178 C 0.88974 0.75002 0.87114 0.0
C179 C 0.73823 0.86442 0.90175 0.0
H180 H 0.88888 0.85844 0.73238 0.0
H181 H 0.86731 0.83544 0.77667 0.0
H182 H 0.85024 0.92449 0.80359 0.0
H183 H 0.87189 0.94762 0.75904 0.0
H184 H 0.87838 0.83048 0.82695 0.0
H185 H 0.80976 0.8935 0.82374 0.0
H186 H 0.81492 0.82428 0.89412 0.0
H187 H 0.76545 0.82881 0.89073 0.0
H188 H 0.79273 0.92032 0.86158 0.0
H189 H 0.74997 0.93974 0.88296 0.0
H190 H 0.87372 0.77783 0.83531 0.0
H191 H 0.85544 0.8064 0.91985 0.0
H192 H 0.72314 0.84845 0.91273 0.0
H193 H 0.89905 0.73442 0.85719 0.0
H194 H 0.88014 0.76224 0.9417 0.0
C195 C 0.57688 0.06212 0.34052 0.0
C196 C 0.57209 0.08039 0.31492 0.0
C197 C 0.58305 0.07535 0.3662 0.0
C198 C 0.5844 0.1071 0.36683 0.0
C199 C 0.57918 0.12533 0.34137 0.0
C200 C 0.57316 0.11215 0.31572 0.0
C201 C 0.59243 0.12133 0.39359 0.0
C202 C 0.61607 0.11096 0.4099 0.0
C203 C 0.62558 0.12605 0.43379 0.0
C204 C 0.61035 0.15104 0.44187 0.0
C205 C 0.58711 0.16199 0.42543 0.0
C206 C 0.57813 0.14699 0.40146 0.0
C207 C 0.57473 0.19128 0.43125 0.0
C208 C 0.56488 0.19629 0.4589 0.0
C209 C 0.57513 0.21529 0.40959 0.0
C210 C 0.56689 0.24419 0.41578 0.0
C211 C 0.55762 0.24937 0.44357 0.0
C212 C 0.65338 0.11821 0.44777 0.0
C213 C 0.66198 0.08789 0.45162 0.0
C214 C 0.67269 0.1414 0.45495 0.0
C215 C 0.70033 0.1346 0.46435 0.0
C216 C 0.7095 0.10448 0.4665 0.0
C217 C 0.68977 0.0811 0.46083 0.0
C218 C 0.55606 0.2251 0.46494 0.0
H219 H 0.57588 0.03759 0.34072 0.0
H220 H 0.58678 0.06075 0.38558 0.0
H221 H 0.58062 0.14987 0.34104 0.0
H222 H 0.57022 0.12694 0.29632 0.0
H223 H 0.62822 0.0924 0.40272 0.0
H224 H 0.56027 0.15565 0.38868 0.0
H225 H 0.61751 0.1631 0.46007 0.0
H226 H 0.56452 0.17806 0.4759 0.0
H227 H 0.58296 0.21198 0.3882 0.0
H228 H 0.5682 0.26264 0.39901 0.0
H229 H 0.64752 0.06945 0.44667 0.0
H230 H 0.66704 0.16505 0.45196 0.0
H231 H 0.54911 0.22873 0.48656 0.0
H232 H 0.69616 0.05765 0.4621 0.0
H233 H 0.71484 0.1531 0.46901 0.0
C234 C 0.23883 0.61673 0.15911 0.0
C235 C 0.23755 0.6148 0.12908 0.0
C236 C 0.26395 0.6269 0.17221 0.0
C237 C 0.28838 0.63558 0.15562 0.0
C238 C 0.28725 0.6333 0.12569 0.0
C239 C 0.26222 0.62297 0.11261 0.0
C240 C 0.31465 0.64789 0.16929 0.0
C241 C 0.32522 0.63415 0.19541 0.0
C242 C 0.34996 0.64595 0.20838 0.0
C243 C 0.36357 0.6723 0.19526 0.0
C244 C 0.35348 0.68611 0.16916 0.0
C245 C 0.3292 0.67368 0.1562 0.0
C246 C 0.36848 0.71351 0.15541 0.0
C247 C 0.37371 0.73902 0.17096 0.0
C248 C 0.378 0.71415 0.1268 0.0
C249 C 0.39283 0.7397 0.11406 0.0
C250 C 0.39798 0.76552 0.12945 0.0
C251 C 0.3622 0.63059 0.23518 0.0
C252 C 0.34443 0.61869 0.25795 0.0
C253 C 0.39204 0.62808 0.23827 0.0
C254 C 0.40385 0.61452 0.26354 0.0
C255 C 0.38618 0.60288 0.28648 0.0
C256 C 0.35628 0.60505 0.28332 0.0
C257 C 0.38801 0.76482 0.15807 0.0
H258 H 0.2202 0.61106 0.17249 0.0
H259 H 0.264 0.62872 0.19527 0.0
H260 H 0.30583 0.63934 0.11233 0.0
H261 H 0.26233 0.62119 0.08956 0.0
H262 H 0.31467 0.61373 0.20514 0.0
H263 H 0.32117 0.6847 0.13627 0.0
H264 H 0.3823 0.68203 0.20521 0.0
H265 H 0.36634 0.73916 0.193 0.0
H266 H 0.37448 0.6946 0.11447 0.0
H267 H 0.40059 0.73891 0.09224 0.0
H268 H 0.32137 0.62037 0.25639 0.0
H269 H 0.4064 0.63656 0.22104 0.0
H270 H 0.39087 0.78434 0.17052 0.0
H271 H 0.34199 0.59607 0.3004 0.0
H272 H 0.42695 0.61365 0.26525 0.0
C273 C 0.08566 0.29152 0.57211 0.0
C274 C 0.05629 0.28375 0.57076 0.0
C275 C 0.09473 0.32064 0.57815 0.0
C276 C 0.07472 0.3427 0.5834 0.0
C277 C 0.04537 0.33494 0.58287 0.0
C278 C 0.03621 0.30578 0.57643 0.0
C279 C 0.08489 0.37354 0.58966 0.0
C280 C 0.10619 0.38866 0.57225 0.0
C281 C 0.1188 0.41612 0.57973 0.0
C282 C 0.10885 0.42905 0.60431 0.0
C283 C 0.08808 0.41396 0.62252 0.0
C284 C 0.07579 0.38636 0.61465 0.0
C285 C 0.0821 0.42511 0.6513 0.0
C286 C 0.10437 0.43842 0.66679 0.0
C287 C 0.05487 0.42125 0.66424 0.0
C288 C 0.05034 0.42967 0.69225 0.0
C289 C 0.0729 0.44236 0.70783 0.0
C290 C 0.14516 0.42892 0.56482 0.0
C291 C 0.16675 0.40939 0.55724 0.0
C292 C 0.15066 0.46048 0.56153 0.0
C293 C 0.17779 0.47207 0.55308 0.0
C294 C 0.19984 0.45235 0.54738 0.0
C295 C 0.19373 0.42099 0.54851 0.0
C296 C 0.09972 0.4473 0.69438 0.0
H297 H 0.1018 0.27499 0.56877 0.0
H298 H 0.11751 0.32581 0.57908 0.0
H299 H 0.02954 0.3516 0.58689 0.0
H300 H 0.01344 0.30069 0.57541 0.0
H301 H 0.11355 0.37847 0.55326 0.0
H302 H 0.06064 0.37372 0.6289 0.0
H303 H 0.11864 0.45012 0.61029 0.0
H304 H 0.12584 0.44123 0.6581 0.0
H305 H 0.03711 0.41139 0.6529 0.0
H306 H 0.02942 0.42539 0.70195 0.0
H307 H 0.16356 0.38496 0.5599 0.0
H308 H 0.13436 0.4762 0.56663 0.0
H309 H 0.11747 0.45766 0.70535 0.0
H310 H 0.21037 0.40519 0.54457 0.0
H311 H 0.18184 0.49639 0.55201 0.0
Co312 Co 0.99149 0.01813 0.50247 0.0
C313 C 1.00975 0.95899 0.4978 0.0
Co314 Co 0.03236 1.00767 0.52402 0.0
C315 C 0.9337 0.03821 0.492 0.0
C316 C 0.9522 0.01938 0.45554 0.0
N317 N 0.95777 0.02571 0.48287 0.0
N318 N 0.91336 0.04005 0.47134 0.0
C319 C 0.92497 0.02821 0.44837 0.0
H320 H 0.9313 0.04609 0.51327 0.0
H321 H 0.96697 1.00883 0.44175 0.0
C322 C 0.01439 0.06688 0.52861 0.0
N323 N 0.06609 1.00011 0.54346 0.0
C324 C 0.08977 0.987 0.53416 0.0
C325 C 0.07224 1.00686 0.57055 0.0
N326 N 0.11042 0.9852 0.55446 0.0
C327 C 0.09945 0.99767 0.5774 0.0
C328 C 0.04001 0.03103 0.46717 0.0
O329 O 0.99269 0.05844 0.51448 0.0
O330 O 0.03398 0.04808 0.53487 0.0
O331 O 0.05343 0.02063 0.48947 0.0
O332 O 0.01283 0.03208 0.46836 0.0
O333 O 0.03064 0.96721 0.5131 0.0
H334 H 0.05788 0.0179 0.58437 0.0
H335 H 0.09164 0.97865 0.51302 0.0
O336 O 0.99051 0.97791 0.49051 0.0
O337 O 0.97034 1.00409 0.5368 0.0
O338 O 1.01119 0.99474 0.55836 0.0
C339 C 0.98396 0.99465 0.55934 0.0
H340 H 0.91437 0.02561 0.428 0.0
H341 H 0.11046 1.00044 0.59753 0.0
Co342 Co 0.50279 1.00555 0.99558 0.0
C343 C 0.49613 0.95716 0.0379 0.0
Co344 Co 0.52812 0.0105 0.03486 0.0
C345 C 0.48864 0.99954 0.93584 0.0
C346 C 0.45218 0.9931 0.9637 0.0
N347 N 0.48046 1.00001 0.96359 0.0
N348 N 0.46655 0.99242 0.91862 0.0
C349 C 0.44357 0.98846 0.93617 0.0
H350 H 0.51048 1.00383 0.92857 0.0
H351 H 0.43884 0.99054 0.98277 0.0
C352 C 0.53458 0.05896 0.99244 0.0
N353 N 0.55041 0.01594 0.0669 0.0
C354 C 0.54241 0.01406 0.09483 0.0
C355 C 0.57836 0.02435 0.06693 0.0
N356 N 0.56427 0.02115 0.11236 0.0
C357 C 0.58693 0.02756 0.09478 0.0
C358 C 0.55753 0.98166 0.9924 0.0
O359 O 0.51725 0.04323 0.97825 0.0
O360 O 0.54168 0.049 0.01776 0.0
O361 O 0.5595 0.99099 0.01751 0.0
O362 O 0.53403 0.98519 0.9788 0.0
O363 O 0.51446 0.97207 0.05172 0.0
H364 H 0.59147 0.02868 0.04784 0.0
H365 H 0.52086 1.00793 0.10202 0.0
O366 O 0.48831 0.96781 0.01306 0.0
O367 O 0.47183 0.02605 0.01252 0.0
O368 O 0.49645 0.0299 0.0521 0.0
C369 C 0.47334 0.0344 0.03803 0.0
H370 H 0.42227 0.98133 0.92989 0.0
H371 H 0.60796 0.03524 0.10135 0.0
Co372 Co 0.53297 0.52066 0.50719 0.0
C373 C 0.48567 0.52656 0.47063 0.0
Co374 Co 0.49223 0.50425 0.5277 0.0
C375 C 0.59392 0.52721 0.49571 0.0
C376 C 0.56932 0.5584 0.46889 0.0
N377 N 0.56677 0.5356 0.48989 0.0
N378 N 0.61313 0.54374 0.47903 0.0
C379 C 0.59776 0.56329 0.46203 0.0
H380 H 0.59955 0.5093 0.51178 0.0
H381 H 0.5517 0.57109 0.45944 0.0
C382 C 0.53956 0.4982 0.56417 0.0
N383 N 0.45832 0.48956 0.5449 0.0
C384 C 0.43138 0.49821 0.53844 0.0
C385 C 0.45515 0.46672 0.56575 0.0
N386 N 0.41159 0.48165 0.55437 0.0
C387 C 0.42646 0.46191 0.57172 0.0
C388 C 0.52136 0.46018 0.50102 0.0
O389 O 0.55305 0.50945 0.54198 0.0
O390 O 0.51251 0.49455 0.5628 0.0
O391 O 0.49942 0.46509 0.51593 0.0
O392 O 0.53919 0.48181 0.49423 0.0
O393 O 0.4723 0.51415 0.49239 0.0
H394 H 0.47251 0.45384 0.57552 0.0
H395 H 0.42632 0.51617 0.52221 0.0
O396 O 0.51249 0.53152 0.47256 0.0
O397 O 0.52647 0.55946 0.52019 0.0
O398 O 0.48531 0.54347 0.53933 0.0
C399 C 0.50379 0.56477 0.53378 0.0
H400 H 0.60656 0.58044 0.44636 0.0
H401 H 0.41721 0.44449 0.58684 0.0
Co402 Co 0.02833 0.5072 0.99118 0.0
C403 C 0.97412 0.47999 0.98961 0.0
Co404 Co 1.00385 0.51042 0.03117 0.0
C405 C 0.04149 0.50069 0.93109 0.0
C406 C 0.07818 0.4966 0.95868 0.0
N407 N 0.05004 0.50284 0.95861 0.0
N408 N 0.06313 0.4928 0.91426 0.0
C409 C 0.08624 0.49031 0.9315 0.0
H410 H 0.01952 0.50293 0.92395 0.0
H411 H 0.09165 0.49513 0.97763 0.0
C412 C 0.05806 0.5376 0.0328 0.0
N413 N 0.98248 0.51448 0.06393 0.0
C414 C 0.99189 0.51547 0.09126 0.0
C415 C 0.95416 0.51942 0.06522 0.0
N416 N 0.97061 0.52105 0.10956 0.0
C417 C 0.94679 0.5234 0.09322 0.0
C418 C 0.03662 0.45887 0.03368 0.0
O419 O 0.05952 0.52914 1.0074 0.0
O420 O 0.03508 0.53214 0.04705 0.0
O421 O 0.01894 0.47308 0.04807 0.0
O422 O 0.0432 0.46969 1.00832 0.0
O423 O 0.97268 0.4885 0.01501 0.0
H424 H 0.93995 0.52101 0.04683 0.0
H425 H 0.01405 0.51258 0.09752 0.0
O426 O 0.99707 0.48546 0.97527 0.0
O427 O 0.01319 0.54458 0.97426 0.0
O428 O 0.98896 0.54786 0.01414 0.0
C429 C 0.99551 0.55873 0.98877 0.0
H430 H 0.10721 0.48339 0.92508 0.0
H431 H 0.92575 0.52888 0.10069 0.0
H432 H 0.15898 0.11827 0.33807 0.0
H433 H 0.0942 0.07439 0.28836 0.0
H434 H 0.1351 0.09834 0.38248 0.0
H435 H 0.07032 0.05468 0.33267 0.0
H436 H 0.01733 0.05286 0.41553 0.0
H437 H 0.04253 0.07149 0.37159 0.0
H438 H 0.12354 0.05263 0.41322 0.0
H439 H 0.09824 0.03437 0.45747 0.0
C440 C 0.13985 0.10411 0.33652 0.0
C441 C 0.12856 0.0982 0.30937 0.0
C442 C 0.12608 0.09265 0.3621 0.0
C443 C 0.10056 0.07498 0.36136 0.0
C444 C 0.08956 0.06869 0.33424 0.0
C445 C 0.10333 0.08006 0.3087 0.0
C446 C 0.04053 0.05263 0.41539 0.0
C447 C 0.05567 0.04205 0.44019 0.0
C448 C 0.05504 0.06318 0.39002 0.0
C449 C 0.08519 0.06356 0.38861 0.0
C450 C 0.10036 0.05303 0.41346 0.0
C451 C 0.08582 0.04236 0.43886 0.0
H452 H 0.42459 0.91264 0.76395 0.0
H453 H 0.4972 0.97009 0.73582 0.0
H454 H 0.42973 0.92894 0.81239 0.0
H455 H 0.5027 0.98596 0.78494 0.0
H456 H 0.51275 0.97698 0.88769 0.0
H457 H 0.51266 0.96304 0.8379 0.0
H458 H 0.42236 0.98098 0.83165 0.0
H459 H 0.42244 0.99562 0.88088 0.0
C460 C 0.4417 0.92874 0.76813 0.0
C461 C 0.46014 0.94056 0.74593 0.0
C462 C 0.44464 0.93802 0.79587 0.0
C463 C 0.46628 0.9591 0.80219 0.0
C464 C 0.4858 0.96973 0.78051 0.0
C465 C 0.4827 0.96058 0.75251 0.0
C466 C 0.493 0.97855 0.87556 0.0
C467 C 0.46747 0.98703 0.88849 0.0
C468 C 0.49299 0.97048 0.84708 0.0
C469 C 0.46743 0.97051 0.83119 0.0
C470 C 0.44225 0.98018 0.84368 0.0
C471 C 0.44229 0.98847 0.87192 0.0
H472 H 0.60139 0.45653 0.74013 0.0
H473 H 0.65214 0.40305 0.68667 0.0
H474 H 0.57718 0.47894 0.69724 0.0
H475 H 0.62778 0.42523 0.64385 0.0
H476 H 0.59756 0.49404 0.57166 0.0
H477 H 0.62318 0.47525 0.61498 0.0
H478 H 0.5428 0.46085 0.66039 0.0
H479 H 0.51711 0.47958 0.61713 0.0
C480 C 0.60754 0.44976 0.7192 0.0
C481 C 0.62866 0.42799 0.7168 0.0
C482 C 0.5935 0.4624 0.69467 0.0
C483 C 0.60052 0.45383 0.66714 0.0
C484 C 0.62203 0.43249 0.66471 0.0
C485 C 0.63582 0.4196 0.68925 0.0
C486 C 0.58534 0.48705 0.59093 0.0
C487 C 0.55525 0.48829 0.5909 0.0
C488 C 0.60003 0.47612 0.6157 0.0
C489 C 0.58502 0.4665 0.64111 0.0
C490 C 0.555 0.46834 0.64125 0.0
C491 C 0.54027 0.47895 0.6164 0.0
H492 H 0.99521 0.61044 0.26514 0.0
H493 H 0.94691 0.52884 0.2932 0.0
H494 H 1.00065 0.59183 0.21737 0.0
H495 H 0.95281 0.50986 0.24588 0.0
H496 H 0.92927 0.5118 0.15007 0.0
H497 H 0.93168 0.52454 0.19982 0.0
H498 H 0.02014 0.55397 0.18764 0.0
H499 H 0.01734 0.54226 0.13732 0.0
C500 C 0.98643 0.58819 0.26126 0.0
C501 C 0.97032 0.57123 0.28261 0.0
C502 C 0.98955 0.57749 0.23396 0.0
C503 C 0.97674 0.54956 0.2277 0.0
C504 C 0.96233 0.53177 0.24979 0.0
C505 C 0.95906 0.54255 0.2769 0.0
C506 C 0.94923 0.52099 0.15796 0.0
C507 C 0.97301 0.52617 0.13965 0.0
C508 C 0.95076 0.52794 0.18662 0.0
C509 C 0.97616 0.54021 0.19775 0.0
C510 C 1.00021 0.54476 0.17965 0.0
C511 C 0.99868 0.53773 0.15091 0.0
H512 H 0.29937 0.0815 0.08517 0.0
H513 H 0.35283 0.13034 0.14244 0.0
H514 H 0.34181 0.06137 0.064 0.0
H515 H 0.39546 0.11075 0.12089 0.0
H516 H 0.46615 0.04808 0.09423 0.0
H517 H 0.42397 0.06823 0.11622 0.0
H518 H 0.38117 0.07286 0.03371 0.0
H519 H 0.4229 0.05174 0.01213 0.0
C520 C 0.32021 0.08825 0.09308 0.0
C521 C 0.32246 0.10769 0.11557 0.0
C522 C 0.34473 0.07672 0.08083 0.0
C523 C 0.37245 0.08438 0.09045 0.0
C524 C 0.37467 0.10379 0.11304 0.0
C525 C 0.3501 0.11516 0.12544 0.0
C526 C 0.44776 0.05348 0.08076 0.0
C527 C 0.44807 0.04817 0.05134 0.0
C528 C 0.42348 0.06524 0.09337 0.0
C529 C 0.39875 0.07224 0.07694 0.0
C530 C 0.39935 0.06729 0.0474 0.0
C531 C 0.42352 0.05535 0.03486 0.0
H532 H 0.29079 0.96881 0.52665 0.0
H533 H 0.26787 0.88944 0.58274 0.0
H534 H 0.23995 0.9802 0.52047 0.0
H535 H 0.21724 0.90026 0.57617 0.0
H536 H 0.14147 0.95852 0.59777 0.0
H537 H 0.18998 0.94042 0.59517 0.0
H538 H 0.19153 0.96485 0.50345 0.0
H539 H 0.14289 0.98389 0.5063 0.0
C540 C 0.2748 0.95339 0.53695 0.0
C541 C 0.28306 0.92858 0.55551 0.0
C542 C 0.24575 0.95983 0.53341 0.0
C543 C 0.22467 0.94141 0.54829 0.0
C544 C 0.23303 0.91526 0.56499 0.0
C545 C 0.26194 0.90899 0.56867 0.0
C546 C 0.15214 0.96009 0.57706 0.0
C547 C 0.13845 0.97282 0.5523 0.0
C548 C 0.17981 0.94934 0.57547 0.0
C549 C 0.19452 0.95104 0.54905 0.0
C550 C 0.18073 0.96334 0.52411 0.0
C551 C 0.15285 0.974 0.5257 0.0
H552 H 0.83217 0.44484 0.87543 0.0
H553 H 0.81867 0.37769 0.94701 0.0
H554 H 0.87574 0.46312 0.89835 0.0
H555 H 0.86248 0.39562 0.96968 0.0
H556 H 0.92316 0.46155 0.01529 0.0
H557 H 0.8804 0.44124 0.99256 0.0
H558 H 0.92473 0.44604 0.91093 0.0
H559 H 0.96748 0.46647 0.93357 0.0
C560 C 0.83848 0.43401 0.89608 0.0
C561 C 0.82192 0.40981 0.90938 0.0
C562 C 0.8636 0.44429 0.90907 0.0
C563 C 0.87264 0.43079 0.93583 0.0
C564 C 0.85603 0.40665 0.94917 0.0
C565 C 0.83105 0.3962 0.93605 0.0
C566 C 0.92388 0.45805 0.99254 0.0
C567 C 0.94879 0.46565 0.97628 0.0
C568 C 0.89938 0.44631 0.97953 0.0
C569 C 0.8991 0.44212 0.94989 0.0
C570 C 0.92412 0.44934 0.93372 0.0
C571 C 0.9487 0.46084 0.94677 0.0
H572 H 0.78751 0.59656 0.50245 0.0
H573 H 0.79291 0.52705 0.44259 0.0
H574 H 0.73687 0.58281 0.51078 0.0
H575 H 0.7423 0.51395 0.45042 0.0
H576 H 0.64858 0.54842 0.43347 0.0
H577 H 0.7009 0.54999 0.43434 0.0
H578 H 0.69946 0.53798 0.52727 0.0
H579 H 0.64674 0.53596 0.52626 0.0
C580 C 0.77814 0.57781 0.49172 0.0
C581 C 0.79402 0.56328 0.47143 0.0
C582 C 0.74918 0.56999 0.49646 0.0
C583 C 0.7357 0.54766 0.48088 0.0
C584 C 0.75214 0.53155 0.46237 0.0
C585 C 0.78105 0.53913 0.45784 0.0
C586 C 0.65949 0.5458 0.45402 0.0
C587 C 0.6438 0.54212 0.47976 0.0
C588 C 0.68934 0.54647 0.45455 0.0
C589 C 0.70413 0.54399 0.48089 0.0
C590 C 0.68849 0.5399 0.50672 0.0
C591 C 0.65849 0.53859 0.50614 0.0
H592 H 0.15555 0.31243 0.07764 0.0
H593 H 0.08514 0.29293 0.13692 0.0
H594 H 0.13144 0.35725 0.05718 0.0
H595 H 0.06021 0.33657 0.1152 0.0
H596 H 0.0344 0.43424 0.08976 0.0
H597 H 0.05874 0.38972 0.11103 0.0
H598 H 0.09368 0.37456 0.02762 0.0
H599 H 0.07022 0.41971 1.00672 0.0
C600 C 0.13494 0.31758 0.0864 0.0
C601 C 0.1225 0.29871 0.10911 0.0
C602 C 0.1208 0.34321 0.07428 0.0
C603 C 0.09362 0.35081 0.08429 0.0
C604 C 0.08118 0.33192 0.10698 0.0
C605 C 0.0954 0.30642 0.11923 0.0
C606 C 0.0472 0.42135 0.07594 0.0
C607 C 0.05028 0.4307 0.04648 0.0
C608 C 0.06112 0.3956 0.08813 0.0
C609 C 0.07841 0.37823 0.07121 0.0
C610 C 0.08111 0.38746 0.04163 0.0
C611 C 0.06739 0.41333 0.0295 0.0
H612 H 0.57916 0.22639 0.88701 0.0
H613 H 0.6508 0.21128 0.94476 0.0
H614 H 0.55432 0.18186 0.91011 0.0
H615 H 0.62679 0.1657 0.96657 0.0
H616 H 0.56629 0.10155 0.01897 0.0
H617 H 0.58852 0.14831 0.99722 0.0
H618 H 0.55486 0.1281 0.91415 0.0
H619 H 0.53175 0.08192 0.93618 0.0
C620 C 0.58965 0.21364 0.90465 0.0
C621 C 0.61706 0.2226 0.91396 0.0
C622 C 0.57553 0.18777 0.91767 0.0
C623 C 0.58849 0.16999 0.94024 0.0
C624 C 0.61589 0.17897 0.94955 0.0
C625 C 0.62991 0.20495 0.93668 0.0
C626 C 0.56349 0.10718 0.99609 0.0
C627 C 0.54723 0.08797 0.97933 0.0
C628 C 0.57644 0.13393 0.98354 0.0
C629 C 0.57371 0.14204 0.95383 0.0
C630 C 0.55715 0.12292 0.93715 0.0
C631 C 0.54398 0.0963 0.94976 0.0
H632 H 0.96336 0.76954 0.50044 0.0
H633 H 0.99393 0.78955 0.4134 0.0
H634 H 0.97699 0.82125 0.51176 0.0
H635 H 1.00694 0.84155 0.42453 0.0
H636 H 0.97984 0.93877 0.45253 0.0
H637 H 0.97305 0.88625 0.44017 0.0
H638 H 0.02598 0.8556 0.51218 0.0
H639 H 0.03344 0.90825 0.52422 0.0
C640 C 0.97316 0.78501 0.48385 0.0
C641 C 0.97766 0.77573 0.4561 0.0
C642 C 0.98104 0.81443 0.49032 0.0
C643 C 0.99297 0.83522 0.46898 0.0
C644 C 0.99774 0.82586 0.4413 0.0
C645 C 0.99043 0.79621 0.435 0.0
C646 C 0.99026 0.92085 0.46554 0.0
C647 C 1.00712 0.92754 0.48936 0.0
C648 C 0.98648 0.89089 0.45839 0.0
C649 C 0.99899 0.86704 0.47527 0.0
C650 C 0.01609 0.87368 0.4989 0.0
C651 C 0.02041 0.90374 0.50569 0.0
H652 H 0.50641 0.74538 0.59804 0.0
H653 H 0.43259 0.74104 0.5422 0.0
H654 H 0.51802 0.69353 0.58819 0.0
H655 H 0.44378 0.68915 0.53321 0.0
H656 H 0.45374 0.58675 0.55274 0.0
H657 H 0.44443 0.63864 0.56386 0.0
H658 H 0.53259 0.6646 0.54476 0.0
H659 H 0.54201 0.61268 0.53348 0.0
C660 C 0.49282 0.73354 0.5835 0.0
C661 C 0.46842 0.74729 0.57111 0.0
C662 C 0.49941 0.70384 0.578 0.0
C663 C 0.48158 0.68732 0.56023 0.0
C664 C 0.45755 0.70122 0.54744 0.0
C665 C 0.45114 0.73091 0.55266 0.0
C666 C 0.47119 0.60345 0.55109 0.0
C667 C 0.49857 0.59569 0.54211 0.0
C668 C 0.46582 0.63316 0.55731 0.0
C669 C 0.48777 0.65557 0.555 0.0
C670 C 0.51534 0.64767 0.54682 0.0
C671 C 0.52066 0.61802 0.54025 0.0
H672 H 0.867 0.95531 0.70696 0.0
H673 H 0.93114 0.88656 0.71602 0.0
H674 H 0.89106 0.97789 0.66348 0.0
H675 H 0.95449 0.90839 0.67222 0.0
H676 H 1.00728 0.97211 0.61035 0.0
H677 H 0.98273 0.95177 0.65406 0.0
H678 H 0.90106 0.96963 0.61343 0.0
H679 H 0.92576 0.99055 0.56965 0.0
C680 C 0.88623 0.94499 0.69977 0.0
C681 C 0.89699 0.91899 0.71518 0.0
C682 C 0.89989 0.95778 0.67458 0.0
C683 C 0.92484 0.94509 0.66415 0.0
C684 C 0.93557 0.91913 0.67962 0.0
C685 C 0.9219 0.90631 0.70468 0.0
C686 C 0.98407 0.97182 0.61067 0.0
C687 C 0.96857 0.98296 0.58629 0.0
C688 C 0.96993 0.95991 0.63578 0.0
C689 C 0.93979 0.95875 0.63742 0.0
C690 C 0.92425 0.97033 0.61318 0.0
C691 C 0.93844 0.98221 0.58795 0.0
H692 H 0.53504 0.09844 0.27165 0.0
H693 H 0.59845 0.03139 0.29515 0.0
H694 H 0.53151 0.08007 0.2239 0.0
H695 H 0.59371 0.01184 0.24788 0.0
H696 H 0.60881 0.01833 0.14977 0.0
H697 H 0.60817 0.029 0.20008 0.0
H698 H 0.51649 0.03975 0.19558 0.0
H699 H 0.51737 0.03074 0.14474 0.0
C700 C 0.548 0.07954 0.26674 0.0
C701 C 0.5673 0.06667 0.28713 0.0
C702 C 0.54567 0.0687 0.23946 0.0
C703 C 0.56245 0.04456 0.23195 0.0
C704 C 0.58079 0.03077 0.25279 0.0
C705 C 0.58324 0.04174 0.28004 0.0
C706 C 0.58851 0.02305 0.15943 0.0
C707 C 0.56323 0.02409 0.14298 0.0
C708 C 0.58806 0.02873 0.18847 0.0
C709 C 0.56228 0.03539 0.20191 0.0
C710 C 0.53679 0.03515 0.1858 0.0
C711 C 0.53726 0.02962 0.15667 0.0
H712 H 0.36928 0.60849 0.34231 0.0
H713 H 0.43249 0.56594 0.2923 0.0
H714 H 0.39231 0.58833 0.38663 0.0
H715 H 0.45561 0.54615 0.33655 0.0
H716 H 0.50871 0.55002 0.41945 0.0
H717 H 0.48364 0.56672 0.37536 0.0
H718 H 0.40263 0.54081 0.41609 0.0
H719 H 0.42775 0.5243 0.46048 0.0
C720 C 0.38784 0.59452 0.34072 0.0
C721 C 0.39911 0.58907 0.31364 0.0
C722 C 0.40107 0.58299 0.36617 0.0
C723 C 0.42595 0.56581 0.36517 0.0
C724 C 0.4368 0.55977 0.33811 0.0
C725 C 0.42354 0.57117 0.31272 0.0
C726 C 0.48556 0.54775 0.41903 0.0
C727 C 0.47027 0.53579 0.44354 0.0
C728 C 0.47118 0.55719 0.39366 0.0
C729 C 0.44111 0.55505 0.39213 0.0
C730 C 0.42578 0.54302 0.41662 0.0
C731 C 0.4402 0.53339 0.442 0.0
H732 H 0.11172 0.43458 0.7515 0.0
H733 H 0.02582 0.4652 0.7338 0.0
H734 H 0.10745 0.44734 0.80068 0.0
H735 H 0.02065 0.47579 0.78423 0.0
H736 H 0.03536 0.52201 0.8697 0.0
H737 H 0.03573 0.5094 0.81933 0.0
H738 H 0.08571 0.43044 0.84398 0.0
H739 H 0.08642 0.44416 0.89349 0.0
C740 C 0.09184 0.44407 0.75806 0.0
C741 C 0.06925 0.44918 0.73842 0.0
C742 C 0.08917 0.45087 0.78659 0.0
C743 C 0.06357 0.46233 0.79668 0.0
C744 C 0.04077 0.46722 0.77719 0.0
C745 C 0.0436 0.46077 0.74834 0.0
C746 C 0.04628 0.50197 0.86409 0.0
C747 C 0.06132 0.48435 0.88516 0.0
C748 C 0.0464 0.49461 0.83536 0.0
C749 C 0.06117 0.46915 0.8274 0.0
C750 C 0.07492 0.45077 0.84901 0.0
C751 C 0.07526 0.45848 0.87743 0.0
H752 H 0.69742 0.94061 0.87753 0.0
H753 H 0.70892 0.87834 0.95261 0.0
H754 H 0.65516 0.96054 0.89972 0.0
H755 H 0.66644 0.89797 0.97462 0.0
H756 H 0.60856 0.96506 0.01763 0.0
H757 H 0.65019 0.9441 0.99533 0.0
H758 H 0.60544 0.94614 0.91407 0.0
H759 H 0.56374 0.96716 0.93638 0.0
C760 C 0.69101 0.93118 0.8988 0.0
C761 C 0.70677 0.90781 0.91321 0.0
C762 C 0.66654 0.94243 0.91144 0.0
C763 C 0.65721 0.93093 0.93904 0.0
C764 C 0.67301 0.90762 0.95347 0.0
C765 C 0.69729 0.89614 0.9407 0.0
C766 C 0.60749 0.96093 0.99502 0.0
C767 C 0.58263 0.96782 0.97889 0.0
C768 C 0.6314 0.94875 0.98223 0.0
C769 C 0.63135 0.94337 0.95281 0.0
C770 C 0.60646 0.95023 0.93668 0.0
C771 C 0.58241 0.96212 0.94955 0.0
H772 H 0.73233 0.05677 0.49968 0.0
H773 H 0.75615 0.13695 0.44475 0.0
H774 H 0.78271 0.04316 0.50323 0.0
H775 H 0.80627 0.12402 0.44929 0.0
H776 H 0.88259 0.06676 0.42777 0.0
H777 H 0.83372 0.0841 0.4298 0.0
H778 H 0.83095 0.05824 0.52123 0.0
H779 H 0.87991 0.04 0.51897 0.0
C780 C 0.74831 0.07166 0.48868 0.0
C781 C 0.74017 0.09785 0.47181 0.0
C782 C 0.77716 0.06404 0.49097 0.0
C783 C 0.7984 0.0824 0.47633 0.0
C784 C 0.79035 0.10921 0.4605 0.0
C785 C 0.76161 0.1168 0.45821 0.0
C786 C 0.87156 0.06467 0.44829 0.0
C787 C 0.88503 0.05185 0.47316 0.0
C788 C 0.84367 0.07494 0.44954 0.0
C789 C 0.82852 0.07263 0.47571 0.0
C790 C 0.84206 0.06015 0.50073 0.0
C791 C 0.87014 0.04998 0.49949 0.0
H792 H 0.19866 0.57018 0.149 0.0
H793 H 0.21511 0.63625 0.07702 0.0
H794 H 0.15482 0.55352 0.12577 0.0
H795 H 0.17151 0.61916 0.05365 0.0
H796 H 0.10974 0.55455 1.00783 0.0
H797 H 0.15254 0.57404 0.0311 0.0
H798 H 0.10676 0.57163 0.11182 0.0
H799 H 0.06401 0.55196 0.08866 0.0
C800 C 0.19286 0.58137 0.12836 0.0
C801 C 0.2106 0.60457 0.11494 0.0
C802 C 0.16769 0.57177 0.11501 0.0
C803 C 0.15963 0.58498 0.08782 0.0
C804 C 0.17728 0.6082 0.07441 0.0
C805 C 0.20236 0.61793 0.08782 0.0
C806 C 0.10871 0.55842 0.03048 0.0
C807 C 0.08341 0.55167 0.04635 0.0
C808 C 0.13324 0.56969 0.04381 0.0
C809 C 0.13314 0.57428 0.07337 0.0
C810 C 0.10769 0.56799 0.08911 0.0
C811 C 0.08311 0.55693 0.07575 0.0
H812 H 0.23945 0.43742 0.50785 0.0
H813 H 0.22828 0.49215 0.57966 0.0
H814 H 0.29092 0.44945 0.50783 0.0
H815 H 0.27958 0.50433 0.57945 0.0
H816 H 0.37299 0.47141 0.59727 0.0
H817 H 0.32087 0.4697 0.59273 0.0
H818 H 0.32859 0.49272 0.50115 0.0
H819 H 0.38089 0.49434 0.50575 0.0
C820 C 0.24793 0.45247 0.52323 0.0
C821 C 0.22989 0.46375 0.54381 0.0
C822 C 0.27731 0.45949 0.52312 0.0
C823 C 0.28921 0.47761 0.5438 0.0
C824 C 0.27097 0.4901 0.56344 0.0
C825 C 0.24158 0.48336 0.56336 0.0
C826 C 0.36352 0.47628 0.57624 0.0
C827 C 0.38093 0.48292 0.55189 0.0
C828 C 0.33373 0.47559 0.57365 0.0
C829 C 0.32072 0.48115 0.54658 0.0
C830 C 0.33809 0.48829 0.52225 0.0
C831 C 0.36795 0.48942 0.52491 0.0
H832 H 0.94354 0.72333 0.88488 0.0
H833 H 0.87609 0.70552 0.94767 0.0
H834 H 0.96926 0.67977 0.90607 0.0
H835 H 0.90124 0.66134 0.96841 0.0
H836 H 0.96371 0.5988 0.0165 0.0
H837 H 0.93993 0.64388 0.99603 0.0
H838 H 0.97089 0.62689 0.9115 0.0
H839 H 0.9957 0.58248 0.93235 0.0
C840 C 0.93403 0.70991 0.90308 0.0
C841 C 0.90767 0.71805 0.91451 0.0
C842 C 0.94877 0.68473 0.91524 0.0
C843 C 0.93752 0.66662 0.93909 0.0
C844 C 0.91108 0.67483 0.95048 0.0
C845 C 0.8965 0.70023 0.93849 0.0
C846 C 0.96561 0.60477 0.99355 0.0
C847 C 0.98175 0.58692 0.97614 0.0
C848 C 0.95168 0.63061 0.98168 0.0
C849 C 0.95313 0.63932 0.95191 0.0
C850 C 0.96948 0.62147 0.93454 0.0
C851 C 0.98368 0.59578 0.94649 0.0
H852 H 0.39714 0.78816 0.0726 0.0
H853 H 0.43431 0.8057 0.15494 0.0
H854 H 0.42267 0.83226 0.05026 0.0
H855 H 0.4576 0.85153 0.1331 0.0
H856 H 0.51645 0.91931 0.08237 0.0
H857 H 0.49422 0.8722 0.10366 0.0
H858 H 0.42267 0.88444 0.0451 0.0
H859 H 0.44579 0.93028 0.02292 0.0
C860 C 0.41073 0.80133 0.08605 0.0
C861 C 0.4135 0.79304 0.11572 0.0
C862 C 0.42505 0.82714 0.07325 0.0
C863 C 0.44217 0.84591 0.08978 0.0
C864 C 0.44499 0.83761 0.11944 0.0
C865 C 0.43109 0.81146 0.13216 0.0
C866 C 0.49606 0.91172 0.07399 0.0
C867 C 0.48296 0.92841 0.05088 0.0
C868 C 0.48313 0.8848 0.08634 0.0
C869 C 0.4565 0.87422 0.07623 0.0
C870 C 0.44343 0.89122 0.05316 0.0
C871 C 0.45662 0.91774 0.04049 0.0
H872 H 1.01067 0.24825 0.59268 0.0
H873 H 0.08074 0.24892 0.53192 0.0
H874 H 0.99796 0.19602 0.58248 0.0
H875 H 0.06868 0.19664 0.5229 0.0
H876 H 0.06279 0.09396 0.54808 0.0
H877 H 0.07039 0.14687 0.55784 0.0
H878 H 0.98212 0.16487 0.5368 0.0
H879 H 0.97437 0.11158 0.52649 0.0
C880 C 0.02318 0.23749 0.57697 0.0
C881 C 0.04703 0.25275 0.56345 0.0
C882 C 0.01592 0.20758 0.57125 0.0
C883 C 0.03258 0.19232 0.5522 0.0
C884 C 0.05579 0.20779 0.53805 0.0
C885 C 0.06278 0.23769 0.5434 0.0
C886 C 0.04487 0.10905 0.54566 0.0
C887 C 0.01799 0.0986 0.53634 0.0
C888 C 0.04931 0.13937 0.55115 0.0
C889 C 0.0269 0.15989 0.54785 0.0
C890 C 0.99971 0.14939 0.53951 0.0
C891 C 0.99534 0.11901 0.53354 0.0
H892 H 0.50835 0.26933 0.466 0.0
H893 H 0.59307 0.29894 0.43741 0.0
H894 H 0.49844 0.32075 0.47825 0.0
H895 H 0.58417 0.34986 0.45118 0.0
H896 H 0.55294 0.44496 0.4554 0.0
H897 H 0.56015 0.39438 0.43987 0.0
H898 H 0.50883 0.35568 0.51166 0.0
H899 H 0.50028 0.40643 0.52593 0.0
C900 C 0.52487 0.28693 0.46257 0.0
C901 C 0.55136 0.28043 0.4507 0.0
C902 C 0.51936 0.31633 0.46976 0.0
C903 C 0.54052 0.33964 0.46583 0.0
C904 C 0.56709 0.33284 0.45397 0.0
C905 C 0.57233 0.30362 0.44624 0.0
C906 C 0.54317 0.42557 0.46775 0.0
C907 C 0.52606 0.42956 0.49183 0.0
C908 C 0.54742 0.39652 0.45899 0.0
C909 C 0.53517 0.37073 0.47452 0.0
C910 C 0.51814 0.3749 0.49875 0.0
C911 C 0.51341 0.40399 0.50712 0.0
loop_
_geom_bond_atom_site_label_1
_geom_bond_atom_site_label_2
_geom_bond_distance
_geom_bond_site_symmetry_2
_ccdc_geom_bond_type
C0 C1 1.386 . S
C0 C2 1.397 . S
C0 H24 0.931 . S
C1 C0 1.386 . S
C1 C5 1.397 . S
C2 C0 1.397 . S
C2 C3 1.384 . S
C2 H25 0.930 . S
C3 C2 1.384 . S
C3 C4 1.377 . S
C3 C6 1.481 . S
C4 C3 1.377 . S
C4 C5 1.389 . S
C4 H26 0.929 . S
C5 C1 1.397 . S
C5 C4 1.389 . S
C5 H27 0.931 . S
C6 C3 1.481 . S
C6 C7 1.387 . S
C6 C11 1.390 . S
C7 C6 1.387 . S
C7 C8 1.401 . S
C7 H28 0.930 . S
C8 C7 1.401 . S
C8 C9 1.376 . S
C8 C17 1.511 . S
C9 C8 1.376 . S
C9 C10 1.392 . S
C9 H30 0.931 . S
C10 C9 1.392 . S
C10 C11 1.361 . S
C10 C12 1.500 . S
C11 C6 1.390 . S
C11 C10 1.361 . S
C11 H29 0.931 . S
C12 C10 1.500 . S
C12 C13 1.371 . S
C12 C14 1.365 . S
C13 C12 1.371 . S
C13 C23 1.386 . S
C13 H31 0.931 . S
C14 C12 1.365 . S
C14 C15 1.409 . S
C14 H32 0.929 . S
C15 C14 1.409 . S
C15 C16 1.380 . S
C15 H33 0.930 . S
C16 C15 1.380 . S
C16 C23 1.357 . S
C17 C8 1.511 . S
C17 C18 1.341 . S
C17 C19 1.371 . S
C18 C17 1.341 . S
C18 C22 1.394 . S
C18 H34 0.930 . S
C19 C17 1.371 . S
C19 C20 1.392 . S
C19 H35 0.931 . S
C20 C19 1.392 . S
C20 C21 1.331 . S
C20 H38 0.932 . S
C21 C20 1.331 . S
C21 C22 1.336 . S
C22 C18 1.394 . S
C22 C21 1.336 . S
C22 H37 0.929 . S
C23 C13 1.386 . S
C23 C16 1.357 . S
C23 H36 0.928 . S
H24 C0 0.931 . S
H25 C2 0.930 . S
H26 C4 0.929 . S
H27 C5 0.931 . S
H28 C7 0.930 . S
H29 C11 0.931 . S
H30 C9 0.931 . S
H31 C13 0.931 . S
H32 C14 0.929 . S
H33 C15 0.930 . S
H34 C18 0.930 . S
H35 C19 0.931 . S
H36 C23 0.928 . S
H37 C22 0.929 . S
H38 C20 0.932 . S
C39 C40 1.386 . S
C39 C41 1.397 . S
C39 H63 0.931 . S
C40 C39 1.386 . S
C40 C44 1.397 . S
C41 C39 1.397 . S
C41 C42 1.384 . S
C41 H64 0.930 . S
C42 C41 1.384 . S
C42 C43 1.377 . S
C42 C45 1.481 . S
C43 C42 1.377 . S
C43 C44 1.389 . S
C43 H65 0.929 . S
C44 C40 1.397 . S
C44 C43 1.389 . S
C44 H66 0.931 . S
C45 C42 1.481 . S
C45 C46 1.387 . S
C45 C50 1.390 . S
C46 C45 1.387 . S
C46 C47 1.401 . S
C46 H67 0.930 . S
C47 C46 1.401 . S
C47 C48 1.376 . S
C47 C56 1.511 . S
C48 C47 1.376 . S
C48 C49 1.392 . S
C48 H69 0.931 . S
C49 C48 1.392 . S
C49 C50 1.361 . S
C49 C51 1.500 . S
C50 C45 1.390 . S
C50 C49 1.361 . S
C50 H68 0.931 . S
C51 C49 1.500 . S
C51 C52 1.371 . S
C51 C53 1.365 . S
C52 C51 1.371 . S
C52 C62 1.386 . S
C52 H70 0.931 . S
C53 C51 1.365 . S
C53 C54 1.409 . S
C53 H71 0.929 . S
C54 C53 1.409 . S
C54 C55 1.380 . S
C54 H72 0.930 . S
C55 C54 1.380 . S
C55 C62 1.357 . S
C56 C47 1.511 . S
C56 C57 1.341 . S
C56 C58 1.371 . S
C57 C56 1.341 . S
C57 C61 1.394 . S
C57 H73 0.930 . S
C58 C56 1.371 . S
C58 C59 1.392 . S
C58 H74 0.931 . S
C59 C58 1.392 . S
C59 C60 1.331 . S
C59 H77 0.932 . S
C60 C59 1.331 . S
C60 C61 1.336 . S
C61 C57 1.394 . S
C61 C60 1.336 . S
C61 H76 0.929 . S
C62 C52 1.386 . S
C62 C55 1.357 . S
C62 H75 0.928 . S
H63 C39 0.931 . S
H64 C41 0.930 . S
H65 C43 0.929 . S
H66 C44 0.931 . S
H67 C46 0.930 . S
H68 C50 0.931 . S
H69 C48 0.931 . S
H70 C52 0.931 . S
H71 C53 0.929 . S
H72 C54 0.930 . S
H73 C57 0.930 . S
H74 C58 0.931 . S
H75 C62 0.928 . S
H76 C61 0.929 . S
H77 C59 0.932 . S
C78 C79 1.386 . S
C78 C80 1.397 . S
C78 H102 0.931 . S
C79 C78 1.386 . S
C79 C83 1.397 . S
C80 C78 1.397 . S
C80 C81 1.384 . S
C80 H103 0.930 . S
C81 C80 1.384 . S
C81 C82 1.377 . S
C81 C84 1.481 . S
C82 C81 1.377 . S
C82 C83 1.389 . S
C82 H104 0.929 . S
C83 C79 1.397 . S
C83 C82 1.389 . S
C83 H105 0.931 . S
C84 C81 1.481 . S
C84 C85 1.387 . S
C84 C89 1.390 . S
C85 C84 1.387 . S
C85 C86 1.401 . S
C85 H106 0.930 . S
C86 C85 1.401 . S
C86 C87 1.376 . S
C86 C95 1.511 . S
C87 C86 1.376 . S
C87 C88 1.392 . S
C87 H108 0.931 . S
C88 C87 1.392 . S
C88 C89 1.361 . S
C88 C90 1.500 . S
C89 C84 1.390 . S
C89 C88 1.361 . S
C89 H107 0.931 . S
C90 C88 1.500 . S
C90 C91 1.371 . S
C90 C92 1.365 . S
C91 C90 1.371 . S
C91 C101 1.386 . S
C91 H109 0.931 . S
C92 C90 1.365 . S
C92 C93 1.409 . S
C92 H110 0.929 . S
C93 C92 1.409 . S
C93 C94 1.380 . S
C93 H111 0.930 . S
C94 C93 1.380 . S
C94 C101 1.357 . S
C95 C86 1.511 . S
C95 C96 1.341 . S
C95 C97 1.371 . S
C96 C95 1.341 . S
C96 C100 1.394 . S
C96 H112 0.930 . S
C97 C95 1.371 . S
C97 C98 1.392 . S
C97 H113 0.931 . S
C98 C97 1.392 . S
C98 C99 1.331 . S
C98 H116 0.932 . S
C99 C98 1.331 . S
C99 C100 1.336 . S
C100 C96 1.394 . S
C100 C99 1.336 . S
C100 H115 0.929 . S
C101 C91 1.386 . S
C101 C94 1.357 . S
C101 H114 0.928 . S
H102 C78 0.931 . S
H103 C80 0.930 . S
H104 C82 0.929 . S
H105 C83 0.931 . S
H106 C85 0.930 . S
H107 C89 0.931 . S
H108 C87 0.931 . S
H109 C91 0.931 . S
H110 C92 0.929 . S
H111 C93 0.930 . S
H112 C96 0.930 . S
H113 C97 0.931 . S
H114 C101 0.928 . S
H115 C100 0.929 . S
H116 C98 0.932 . S
C117 C118 1.386 . S
C117 C119 1.397 . S
C117 H141 0.931 . S
C118 C117 1.386 . S
C118 C122 1.397 . S
C119 C117 1.397 . S
C119 C120 1.384 . S
C119 H142 0.930 . S
C120 C119 1.384 . S
C120 C121 1.377 . S
C120 C123 1.481 . S
C121 C120 1.377 . S
C121 C122 1.389 . S
C121 H143 0.929 . S
C122 C118 1.397 . S
C122 C121 1.389 . S
C122 H144 0.931 . S
C123 C120 1.481 . S
C123 C124 1.387 . S
C123 C128 1.390 . S
C124 C123 1.387 . S
C124 C125 1.401 . S
C124 H145 0.930 . S
C125 C124 1.401 . S
C125 C126 1.376 . S
C125 C134 1.511 . S
C126 C125 1.376 . S
C126 C127 1.392 . S
C126 H147 0.931 . S
C127 C126 1.392 . S
C127 C128 1.361 . S
C127 C129 1.500 . S
C128 C123 1.390 . S
C128 C127 1.361 . S
C128 H146 0.931 . S
C129 C127 1.500 . S
C129 C130 1.371 . S
C129 C131 1.365 . S
C130 C129 1.371 . S
C130 C140 1.386 . S
C130 H148 0.931 . S
C131 C129 1.365 . S
C131 C132 1.409 . S
C131 H149 0.929 . S
C132 C131 1.409 . S
C132 C133 1.380 . S
C132 H150 0.930 . S
C133 C132 1.380 . S
C133 C140 1.357 . S
C134 C125 1.511 . S
C134 C135 1.341 . S
C134 C136 1.371 . S
C135 C134 1.341 . S
C135 C139 1.394 . S
C135 H151 0.930 . S
C136 C134 1.371 . S
C136 C137 1.392 . S
C136 H152 0.931 . S
C137 C136 1.392 . S
C137 C138 1.331 . S
C137 H155 0.932 . S
C138 C137 1.331 . S
C138 C139 1.336 . S
C139 C135 1.394 . S
C139 C138 1.336 . S
C139 H154 0.929 . S
C140 C130 1.386 . S
C140 C133 1.357 . S
C140 H153 0.928 . S
H141 C117 0.931 . S
H142 C119 0.930 . S
H143 C121 0.929 . S
H144 C122 0.931 . S
H145 C124 0.930 . S
H146 C128 0.931 . S
H147 C126 0.931 . S
H148 C130 0.931 . S
H149 C131 0.929 . S
H150 C132 0.930 . S
H151 C135 0.930 . S
H152 C136 0.931 . S
H153 C140 0.928 . S
H154 C139 0.929 . S
H155 C137 0.932 . S
C156 C157 1.386 . S
C156 C158 1.397 . S
C156 H180 0.931 . S
C157 C156 1.386 . S
C157 C161 1.397 . S
C158 C156 1.397 . S
C158 C159 1.384 . S
C158 H181 0.930 . S
C159 C158 1.384 . S
C159 C160 1.377 . S
C159 C162 1.481 . S
C160 C159 1.377 . S
C160 C161 1.389 . S
C160 H182 0.929 . S
C161 C157 1.397 . S
C161 C160 1.389 . S
C161 H183 0.931 . S
C162 C159 1.481 . S
C162 C163 1.387 . S
C162 C167 1.390 . S
C163 C162 1.387 . S
C163 C164 1.401 . S
C163 H184 0.930 . S
C164 C163 1.401 . S
C164 C165 1.376 . S
C164 C173 1.511 . S
C165 C164 1.376 . S
C165 C166 1.392 . S
C165 H186 0.931 . S
C166 C165 1.392 . S
C166 C167 1.361 . S
C166 C168 1.500 . S
C167 C162 1.390 . S
C167 C166 1.361 . S
C167 H185 0.931 . S
C168 C166 1.500 . S
C168 C169 1.371 . S
C168 C170 1.365 . S
C169 C168 1.371 . S
C169 C179 1.386 . S
C169 H187 0.931 . S
C170 C168 1.365 . S
C170 C171 1.409 . S
C170 H188 0.929 . S
C171 C170 1.409 . S
C171 C172 1.380 . S
C171 H189 0.930 . S
C172 C171 1.380 . S
C172 C179 1.357 . S
C173 C164 1.511 . S
C173 C174 1.341 . S
C173 C175 1.371 . S
C174 C173 1.341 . S
C174 C178 1.394 . S
C174 H190 0.930 . S
C175 C173 1.371 . S
C175 C176 1.392 . S
C175 H191 0.931 . S
C176 C175 1.392 . S
C176 C177 1.331 . S
C176 H194 0.932 . S
C177 C176 1.331 . S
C177 C178 1.336 . S
C178 C174 1.394 . S
C178 C177 1.336 . S
C178 H193 0.929 . S
C179 C169 1.386 . S
C179 C172 1.357 . S
C179 H192 0.928 . S
H180 C156 0.931 . S
H181 C158 0.930 . S
H182 C160 0.929 . S
H183 C161 0.931 . S
H184 C163 0.930 . S
H185 C167 0.931 . S
H186 C165 0.931 . S
H187 C169 0.931 . S
H188 C170 0.929 . S
H189 C171 0.930 . S
H190 C174 0.930 . S
H191 C175 0.931 . S
H192 C179 0.928 . S
H193 C178 0.929 . S
H194 C176 0.932 . S
C195 C196 1.386 . S
C195 C197 1.397 . S
C195 H219 0.931 . S
C196 C195 1.386 . S
C196 C200 1.397 . S
C197 C195 1.397 . S
C197 C198 1.384 . S
C197 H220 0.930 . S
C198 C197 1.384 . S
C198 C199 1.377 . S
C198 C201 1.481 . S
C199 C198 1.377 . S
C199 C200 1.389 . S
C199 H221 0.929 . S
C200 C196 1.397 . S
C200 C199 1.389 . S
C200 H222 0.931 . S
C201 C198 1.481 . S
C201 C202 1.387 . S
C201 C206 1.390 . S
C202 C201 1.387 . S
C202 C203 1.401 . S
C202 H223 0.930 . S
C203 C202 1.401 . S
C203 C204 1.376 . S
C203 C212 1.511 . S
C204 C203 1.376 . S
C204 C205 1.392 . S
C204 H225 0.931 . S
C205 C204 1.392 . S
C205 C206 1.361 . S
C205 C207 1.500 . S
C206 C201 1.390 . S
C206 C205 1.361 . S
C206 H224 0.931 . S
C207 C205 1.500 . S
C207 C208 1.371 . S
C207 C209 1.365 . S
C208 C207 1.371 . S
C208 C218 1.386 . S
C208 H226 0.931 . S
C209 C207 1.365 . S
C209 C210 1.409 . S
C209 H227 0.929 . S
C210 C209 1.409 . S
C210 C211 1.380 . S
C210 H228 0.930 . S
C211 C210 1.380 . S
C211 C218 1.357 . S
C212 C203 1.511 . S
C212 C213 1.341 . S
C212 C214 1.371 . S
C213 C212 1.341 . S
C213 C217 1.394 . S
C213 H229 0.930 . S
C214 C212 1.371 . S
C214 C215 1.392 . S
C214 H230 0.931 . S
C215 C214 1.392 . S
C215 C216 1.331 . S
C215 H233 0.932 . S
C216 C215 1.331 . S
C216 C217 1.336 . S
C217 C213 1.394 . S
C217 C216 1.336 . S
C217 H232 0.929 . S
C218 C208 1.386 . S
C218 C211 1.357 . S
C218 H231 0.928 . S
H219 C195 0.931 . S
H220 C197 0.930 . S
H221 C199 0.929 . S
H222 C200 0.931 . S
H223 C202 0.930 . S
H224 C206 0.931 . S
H225 C204 0.931 . S
H226 C208 0.931 . S
H227 C209 0.929 . S
H228 C210 0.930 . S
H229 C213 0.930 . S
H230 C214 0.931 . S
H231 C218 0.928 . S
H232 C217 0.929 . S
H233 C215 0.932 . S
C234 C235 1.386 . S
C234 C236 1.397 . S
C234 H258 0.931 . S
C235 C234 1.386 . S
C235 C239 1.397 . S
C236 C234 1.397 . S
C236 C237 1.384 . S
C236 H259 0.930 . S
C237 C236 1.384 . S
C237 C238 1.377 . S
C237 C240 1.481 . S
C238 C237 1.377 . S
C238 C239 1.389 . S
C238 H260 0.929 . S
C239 C235 1.397 . S
C239 C238 1.389 . S
C239 H261 0.931 . S
C240 C237 1.481 . S
C240 C241 1.387 . S
C240 C245 1.390 . S
C241 C240 1.387 . S
C241 C242 1.401 . S
C241 H262 0.930 . S
C242 C241 1.401 . S
C242 C243 1.376 . S
C242 C251 1.511 . S
C243 C242 1.376 . S
C243 C244 1.392 . S
C243 H264 0.931 . S
C244 C243 1.392 . S
C244 C245 1.361 . S
C244 C246 1.500 . S
C245 C240 1.390 . S
C245 C244 1.361 . S
C245 H263 0.931 . S
C246 C244 1.500 . S
C246 C247 1.371 . S
C246 C248 1.365 . S
C247 C246 1.371 . S
C247 C257 1.386 . S
C247 H265 0.931 . S
C248 C246 1.365 . S
C248 C249 1.409 . S
C248 H266 0.929 . S
C249 C248 1.409 . S
C249 C250 1.380 . S
C249 H267 0.930 . S
C250 C249 1.380 . S
C250 C257 1.357 . S
C251 C242 1.511 . S
C251 C252 1.341 . S
C251 C253 1.371 . S
C252 C251 1.341 . S
C252 C256 1.394 . S
C252 H268 0.930 . S
C253 C251 1.371 . S
C253 C254 1.392 . S
C253 H269 0.931 . S
C254 C253 1.392 . S
C254 C255 1.331 . S
C254 H272 0.932 . S
C255 C254 1.331 . S
C255 C256 1.336 . S
C256 C252 1.394 . S
C256 C255 1.336 . S
C256 H271 0.929 . S
C257 C247 1.386 . S
C257 C250 1.357 . S
C257 H270 0.928 . S
H258 C234 0.931 . S
H259 C236 0.930 . S
H260 C238 0.929 . S
H261 C239 0.931 . S
H262 C241 0.930 . S
H263 C245 0.931 . S
H264 C243 0.931 . S
H265 C247 0.931 . S
H266 C248 0.929 . S
H267 C249 0.930 . S
H268 C252 0.930 . S
H269 C253 0.931 . S
H270 C257 0.928 . S
H271 C256 0.929 . S
H272 C254 0.932 . S
C273 C274 1.386 . S
C273 C275 1.397 . S
C273 H297 0.931 . S
C274 C273 1.386 . S
C274 C278 1.397 . S
C275 C273 1.397 . S
C275 C276 1.384 . S
C275 H298 0.930 . S
C276 C275 1.384 . S
C276 C277 1.377 . S
C276 C279 1.481 . S
C277 C276 1.377 . S
C277 C278 1.389 . S
C277 H299 0.929 . S
C278 C274 1.397 . S
C278 C277 1.389 . S
C278 H300 0.931 . S
C279 C276 1.481 . S
C279 C280 1.387 . S
C279 C284 1.390 . S
C280 C279 1.387 . S
C280 C281 1.401 . S
C280 H301 0.930 . S
C281 C280 1.401 . S
C281 C282 1.376 . S
C281 C290 1.511 . S
C282 C281 1.376 . S
C282 C283 1.392 . S
C282 H303 0.931 . S
C283 C282 1.392 . S
C283 C284 1.361 . S
C283 C285 1.500 . S
C284 C279 1.390 . S
C284 C283 1.361 . S
C284 H302 0.931 . S
C285 C283 1.500 . S
C285 C286 1.371 . S
C285 C287 1.365 . S
C286 C285 1.371 . S
C286 C296 1.386 . S
C286 H304 0.931 . S
C287 C285 1.365 . S
C287 C288 1.409 . S
C287 H305 0.929 . S
C288 C287 1.409 . S
C288 C289 1.380 . S
C288 H306 0.930 . S
C289 C288 1.380 . S
C289 C296 1.357 . S
C290 C281 1.511 . S
C290 C291 1.341 . S
C290 C292 1.371 . S
C291 C290 1.341 . S
C291 C295 1.394 . S
C291 H307 0.930 . S
C292 C290 1.371 . S
C292 C293 1.392 . S
C292 H308 0.931 . S
C293 C292 1.392 . S
C293 C294 1.331 . S
C293 H311 0.932 . S
C294 C293 1.331 . S
C294 C295 1.336 . S
C295 C291 1.394 . S
C295 C294 1.336 . S
C295 H310 0.929 . S
C296 C286 1.386 . S
C296 C289 1.357 . S
C296 H309 0.928 . S
H297 C273 0.931 . S
H298 C275 0.930 . S
H299 C277 0.929 . S
H300 C278 0.931 . S
H301 C280 0.930 . S
H302 C284 0.931 . S
H303 C282 0.931 . S
H304 C286 0.931 . S
H305 C287 0.929 . S
H306 C288 0.930 . S
H307 C291 0.930 . S
H308 C292 0.931 . S
H309 C296 0.928 . S
H310 C295 0.929 . S
H311 C293 0.932 . S
Co312 N317 2.057 . S
Co312 O329 2.021 . S
Co312 O332 2.062 . S
Co312 O336 2.117 1_545 S
Co312 O337 2.020 1_545 S
C313 O333 1.259 1_655 S
C313 O336 1.258 . S
Co314 N323 2.057 . S
Co314 O330 2.117 1_565 S
Co314 O331 2.020 1_565 S
Co314 O333 2.021 . S
Co314 O338 2.062 . S
C315 N317 1.316 . S
C315 N318 1.347 . S
C315 H320 0.931 . S
C316 N317 1.375 1_565 S
C316 C319 1.350 1_565 S
C316 H321 0.930 . S
N317 Co312 2.057 . S
N317 C315 1.316 . S
N317 C316 1.375 1_545 S
N318 C315 1.347 . S
N318 C319 1.373 . S
C319 C316 1.350 1_545 S
C319 N318 1.373 . S
C319 H340 0.931 1_545 S
H320 C315 0.931 . S
H321 C316 0.930 . S
C322 O329 1.259 1_455 S
C322 O330 1.258 . S
N323 Co314 2.057 . S
N323 C324 1.316 . S
N323 C325 1.375 1_565 S
C324 N323 1.316 . S
C324 N326 1.347 . S
C324 H335 0.931 . S
C325 N323 1.375 1_545 S
C325 C327 1.350 1_545 S
C325 H334 0.930 . S
N326 C324 1.347 . S
N326 C327 1.373 . S
C327 C325 1.350 1_565 S
C327 N326 1.373 . S
C327 H341 0.931 1_565 S
C328 O331 1.256 . S
C328 O332 1.255 1_455 S
O329 Co312 2.021 . S
O329 C322 1.259 1_655 S
O330 Co314 2.117 1_545 S
O330 C322 1.258 . S
O331 Co314 2.020 1_545 S
O331 C328 1.256 . S
O332 Co312 2.062 . S
O332 C328 1.255 1_655 S
O333 C313 1.259 1_455 S
O333 Co314 2.021 . S
H334 C325 0.930 . S
H335 C324 0.931 . S
O336 Co312 2.117 1_565 S
O336 C313 1.258 . S
O337 Co312 2.020 1_565 S
O337 C339 1.256 . S
O338 Co314 2.062 . S
O338 C339 1.255 1_455 S
C339 O337 1.256 . S
C339 O338 1.255 1_655 S
H340 C319 0.931 1_565 S
H341 C327 0.931 1_545 S
Co342 N347 2.057 . S
Co342 O359 2.021 1_565 S
Co342 O362 2.062 . S
Co342 O366 2.134 . S
Co342 O367 2.020 1_565 S
C343 O363 1.259 . S
C343 O366 1.228 1_554 S
Co344 N353 2.057 . S
Co344 O360 2.117 . S
Co344 O361 2.020 1_545 S
Co344 O363 2.021 1_545 S
Co344 O368 2.062 . S
C345 N347 1.316 . S
C345 N348 1.347 . S
C345 H350 0.931 1_565 S
C346 N347 1.375 . S
C346 C349 1.350 . S
C346 H351 0.930 . S
N347 Co342 2.057 . S
N347 C345 1.316 . S
N347 C346 1.375 . S
N348 C345 1.347 . S
N348 C349 1.373 . S
C349 C346 1.350 . S
C349 N348 1.373 . S
C349 H370 0.931 . S
H350 C345 0.931 1_545 S
H351 C346 0.930 . S
C352 O359 1.259 . S
C352 O360 1.258 1_556 S
N353 Co344 2.057 . S
N353 C354 1.316 . S
N353 C355 1.375 . S
C354 N353 1.316 . S
C354 N356 1.347 . S
C354 H365 0.931 1_545 S
C355 N353 1.375 . S
C355 C357 1.350 . S
C355 H364 0.930 . S
N356 C354 1.347 . S
N356 C357 1.373 . S
C357 C355 1.350 . S
C357 N356 1.373 . S
C357 H371 0.931 . S
C358 O361 1.256 1_556 S
C358 O362 1.255 . S
O359 Co342 2.021 1_545 S
O359 C352 1.259 . S
O360 Co344 2.117 . S
O360 C352 1.258 1_554 S
O361 Co344 2.020 1_565 S
O361 C358 1.256 1_554 S
O362 Co342 2.062 . S
O362 C358 1.255 . S
O363 C343 1.259 . S
O363 Co344 2.021 1_565 S
H364 C355 0.930 . S
H365 C354 0.931 1_565 S
O366 Co342 2.134 . S
O366 C343 1.228 1_556 S
O367 Co342 2.020 1_545 S
O367 C369 1.256 1_556 S
O368 Co344 2.062 . S
O368 C369 1.255 . S
C369 O367 1.256 1_554 S
C369 O368 1.255 . S
H370 C349 0.931 . S
H371 C357 0.931 . S
Co372 N377 2.057 . S
Co372 O389 2.021 . S
Co372 O392 2.062 . S
Co372 O396 2.117 . S
Co372 O397 2.020 . S
C373 O393 1.259 . S
C373 O396 1.258 . S
Co374 N383 2.057 . S
Co374 O390 2.117 . S
Co374 O391 2.020 . S
Co374 O393 2.021 . S
Co374 O398 2.062 . S
C375 N377 1.316 . S
C375 N378 1.347 . S
C375 H380 0.931 . S
C376 N377 1.375 . S
C376 C379 1.350 . S
C376 H381 0.930 . S
N377 Co372 2.057 . S
N377 C375 1.316 . S
N377 C376 1.375 . S
N378 C375 1.347 . S
N378 C379 1.373 . S
C379 C376 1.350 . S
C379 N378 1.373 . S
C379 H400 0.931 . S
H380 C375 0.931 . S
H381 C376 0.930 . S
C382 O389 1.259 . S
C382 O390 1.258 . S
N383 Co374 2.057 . S
N383 C384 1.316 . S
N383 C385 1.375 . S
C384 N383 1.316 . S
C384 N386 1.347 . S
C384 H395 0.931 . S
C385 N383 1.375 . S
C385 C387 1.350 . S
C385 H394 0.930 . S
N386 C384 1.347 . S
N386 C387 1.373 . S
C387 C385 1.350 . S
C387 N386 1.373 . S
C387 H401 0.931 . S
C388 O391 1.256 . S
C388 O392 1.255 . S
O389 Co372 2.021 . S
O389 C382 1.259 . S
O390 Co374 2.117 . S
O390 C382 1.258 . S
O391 Co374 2.020 . S
O391 C388 1.256 . S
O392 Co372 2.062 . S
O392 C388 1.255 . S
O393 C373 1.259 . S
O393 Co374 2.021 . S
H394 C385 0.930 . S
H395 C384 0.931 . S
O396 Co372 2.117 . S
O396 C373 1.258 . S
O397 Co372 2.020 . S
O397 C399 1.256 . S
O398 Co374 2.062 . S
O398 C399 1.255 . S
C399 O397 1.256 . S
C399 O398 1.255 . S
H400 C379 0.931 . S
H401 C387 0.931 . S
Co402 N407 2.057 . S
Co402 O419 2.021 . S
Co402 O422 2.062 . S
Co402 O426 2.117 1_455 S
Co402 O427 2.020 1_455 S
C403 O423 1.259 1_556 S
C403 O426 1.258 . S
Co404 N413 2.057 . S
Co404 O420 2.117 1_655 S
Co404 O421 2.020 1_655 S
Co404 O423 2.021 . S
Co404 O428 2.062 . S
C405 N407 1.316 . S
C405 N408 1.347 . S
C405 H410 0.931 . S
C406 N407 1.375 1_655 S
C406 C409 1.350 1_655 S
C406 H411 0.930 . S
N407 Co402 2.057 . S
N407 C405 1.316 . S
N407 C406 1.375 1_455 S
N408 C405 1.347 . S
N408 C409 1.373 . S
C409 C406 1.350 1_455 S
C409 N408 1.373 . S
C409 H430 0.931 1_455 S
H410 C405 0.931 . S
H411 C406 0.930 . S
C412 O419 1.259 1_554 S
C412 O420 1.258 . S
N413 Co404 2.057 . S
N413 C414 1.316 . S
N413 C415 1.375 1_655 S
C414 N413 1.316 . S
C414 N416 1.347 . S
C414 H425 0.931 . S
C415 N413 1.375 1_455 S
C415 C417 1.350 1_455 S
C415 H424 0.930 . S
N416 C414 1.347 . S
N416 C417 1.373 . S
C417 C415 1.350 1_655 S
C417 N416 1.373 . S
C417 H431 0.931 1_655 S
C418 O421 1.256 . S
C418 O422 1.255 1_554 S
O419 Co402 2.021 . S
O419 C412 1.259 1_556 S
O420 Co404 2.117 1_455 S
O420 C412 1.258 . S
O421 Co404 2.020 1_455 S
O421 C418 1.256 . S
O422 Co402 2.062 . S
O422 C418 1.255 1_556 S
O423 C403 1.259 1_554 S
O423 Co404 2.021 . S
H424 C415 0.930 . S
H425 C414 0.931 . S
O426 Co402 2.117 1_655 S
O426 C403 1.258 . S
O427 Co402 2.020 1_655 S
O427 C429 1.256 . S
O428 Co404 2.062 . S
O428 C429 1.255 1_554 S
C429 O427 1.256 . S
C429 O428 1.255 1_556 S
H430 C409 0.931 1_655 S
H431 C417 0.931 1_455 S
H432 C440 0.950 . S
H433 C445 0.950 . S
H434 C442 0.950 . S
H435 C444 0.950 . S
H436 C446 0.950 1_655 S
H437 C448 0.950 . S
H438 C450 0.950 . S
H439 C451 0.950 . S
C440 H432 0.950 . S
C440 C441 1.386 . S
C440 C442 1.391 . S
C441 C440 1.386 . S
C441 C445 1.393 . S
C442 H434 0.950 . S
C442 C440 1.391 . S
C442 C443 1.400 . S
C443 C442 1.400 . S
C443 C444 1.398 . S
C443 C449 1.491 . S
C444 H435 0.950 . S
C444 C443 1.398 . S
C444 C445 1.391 . S
C445 H433 0.950 . S
C445 C441 1.393 . S
C445 C444 1.391 . S
C446 H436 0.950 1_455 S
C446 C447 1.386 . S
C446 C448 1.391 . S
C447 C446 1.386 . S
C447 C451 1.393 . S
C448 H437 0.950 . S
C448 C446 1.391 . S
C448 C449 1.400 . S
C449 C443 1.491 . S
C449 C448 1.400 . S
C449 C450 1.398 . S
C450 H438 0.950 . S
C450 C449 1.398 . S
C450 C451 1.391 . S
C451 H439 0.950 . S
C451 C447 1.393 . S
C451 C450 1.391 . S
H452 C460 0.950 . S
H453 C465 0.950 . S
H454 C462 0.950 . S
H455 C464 0.950 . S
H456 C466 0.950 . S
H457 C468 0.950 . S
H458 C470 0.950 . S
H459 C471 0.950 . S
C460 H452 0.950 . S
C460 C461 1.386 . S
C460 C462 1.391 . S
C461 C460 1.386 . S
C461 C465 1.393 . S
C462 H454 0.950 . S
C462 C460 1.391 . S
C462 C463 1.400 . S
C463 C462 1.400 . S
C463 C464 1.398 . S
C463 C469 1.491 . S
C464 H455 0.950 . S
C464 C463 1.398 . S
C464 C465 1.391 . S
C465 H453 0.950 . S
C465 C461 1.393 . S
C465 C464 1.391 . S
C466 H456 0.950 . S
C466 C467 1.386 . S
C466 C468 1.391 . S
C467 C466 1.386 . S
C467 C471 1.393 . S
C468 H457 0.950 . S
C468 C466 1.391 . S
C468 C469 1.400 . S
C469 C463 1.491 . S
C469 C468 1.400 . S
C469 C470 1.398 . S
C470 H458 0.950 . S
C470 C469 1.398 . S
C470 C471 1.391 . S
C471 H459 0.950 . S
C471 C467 1.393 . S
C471 C470 1.391 . S
H472 C480 0.950 . S
H473 C485 0.950 . S
H474 C482 0.950 . S
H475 C484 0.950 . S
H476 C486 0.950 . S
H477 C488 0.950 . S
H478 C490 0.950 . S
H479 C491 0.950 . S
C480 H472 0.950 . S
C480 C481 1.386 . S
C480 C482 1.391 . S
C481 C480 1.386 . S
C481 C485 1.393 . S
C482 H474 0.950 . S
C482 C480 1.391 . S
C482 C483 1.400 . S
C483 C482 1.400 . S
C483 C484 1.398 . S
C483 C489 1.491 . S
C484 H475 0.950 . S
C484 C483 1.398 . S
C484 C485 1.391 . S
C485 H473 0.950 . S
C485 C481 1.393 . S
C485 C484 1.391 . S
C486 H476 0.950 . S
C486 C487 1.386 . S
C486 C488 1.391 . S
C487 C486 1.386 . S
C487 C491 1.393 . S
C488 H477 0.950 . S
C488 C486 1.391 . S
C488 C489 1.400 . S
C489 C483 1.491 . S
C489 C488 1.400 . S
C489 C490 1.398 . S
C490 H478 0.950 . S
C490 C489 1.398 . S
C490 C491 1.391 . S
C491 H479 0.950 . S
C491 C487 1.393 . S
C491 C490 1.391 . S
H492 C500 0.950 . S
H493 C505 0.950 . S
H494 C502 0.950 . S
H495 C504 0.950 . S
H496 C506 0.950 . S
H497 C508 0.950 . S
H498 C510 0.950 . S
H499 C511 0.950 . S
C500 H492 0.950 . S
C500 C501 1.386 . S
C500 C502 1.391 . S
C501 C500 1.386 . S
C501 C505 1.393 . S
C502 H494 0.950 . S
C502 C500 1.391 . S
C502 C503 1.400 . S
C503 C502 1.400 . S
C503 C504 1.398 . S
C503 C509 1.491 . S
C504 H495 0.950 . S
C504 C503 1.398 . S
C504 C505 1.391 . S
C505 H493 0.950 . S
C505 C501 1.393 . S
C505 C504 1.391 . S
C506 H496 0.950 . S
C506 C507 1.386 . S
C506 C508 1.391 . S
C507 C506 1.386 . S
C507 C511 1.393 . S
C508 H497 0.950 . S
C508 C506 1.391 . S
C508 C509 1.400 . S
C509 C503 1.491 . S
C509 C508 1.400 . S
C509 C510 1.398 . S
C510 H498 0.950 . S
C510 C509 1.398 . S
C510 C511 1.391 . S
C511 H499 0.950 . S
C511 C507 1.393 . S
C511 C510 1.391 . S
H512 C520 0.950 . S
H513 C525 0.950 . S
H514 C522 0.950 . S
H515 C524 0.950 . S
H516 C526 0.950 . S
H517 C528 0.950 . S
H518 C530 0.950 . S
H519 C531 0.950 1_565 S
C520 H512 0.950 . S
C520 C521 1.386 . S
C520 C522 1.391 . S
C521 C520 1.386 . S
C521 C525 1.393 . S
C522 H514 0.950 . S
C522 C520 1.391 . S
C522 C523 1.400 . S
C523 C522 1.400 . S
C523 C524 1.398 . S
C523 C529 1.491 . S
C524 H515 0.950 . S
C524 C523 1.398 . S
C524 C525 1.391 . S
C525 H513 0.950 . S
C525 C521 1.393 . S
C525 C524 1.391 . S
C526 H516 0.950 . S
C526 C527 1.386 . S
C526 C528 1.391 . S
C527 C526 1.386 . S
C527 C531 1.393 . S
C528 H517 0.950 . S
C528 C526 1.391 . S
C528 C529 1.400 . S
C529 C523 1.491 . S
C529 C528 1.400 . S
C529 C530 1.398 . S
C530 H518 0.950 . S
C530 C529 1.398 . S
C530 C531 1.391 . S
C531 H519 0.950 1_545 S
C531 C527 1.393 . S
C531 C530 1.391 . S
H532 C540 0.950 . S
H533 C545 0.950 . S
H534 C542 0.950 . S
H535 C544 0.950 . S
H536 C546 0.950 . S
H537 C548 0.950 . S
H538 C550 0.950 . S
H539 C551 0.950 . S
C540 H532 0.950 . S
C540 C541 1.386 . S
C540 C542 1.391 . S
C541 C540 1.386 . S
C541 C545 1.393 . S
C542 H534 0.950 . S
C542 C540 1.391 . S
C542 C543 1.400 . S
C543 C542 1.400 . S
C543 C544 1.398 . S
C543 C549 1.491 . S
C544 H535 0.950 . S
C544 C543 1.398 . S
C544 C545 1.391 . S
C545 H533 0.950 . S
C545 C541 1.393 . S
C545 C544 1.391 . S
C546 H536 0.950 . S
C546 C547 1.386 . S
C546 C548 1.391 . S
C547 C546 1.386 . S
C547 C551 1.393 . S
C548 H537 0.950 . S
C548 C546 1.391 . S
C548 C549 1.400 . S
C549 C543 1.491 . S
C549 C548 1.400 . S
C549 C550 1.398 . S
C550 H538 0.950 . S
C550 C549 1.398 . S
C550 C551 1.391 . S
C551 H539 0.950 . S
C551 C547 1.393 . S
C551 C550 1.391 . S
H552 C560 0.950 . S
H553 C565 0.950 . S
H554 C562 0.950 . S
H555 C564 0.950 . S
H556 C566 0.950 1_554 S
H557 C568 0.950 . S
H558 C570 0.950 . S
H559 C571 0.950 . S
C560 H552 0.950 . S
C560 C561 1.386 . S
C560 C562 1.391 . S
C561 C560 1.386 . S
C561 C565 1.393 . S
C562 H554 0.950 . S
C562 C560 1.391 . S
C562 C563 1.400 . S
C563 C562 1.400 . S
C563 C564 1.398 . S
C563 C569 1.491 . S
C564 H555 0.950 . S
C564 C563 1.398 . S
C564 C565 1.391 . S
C565 H553 0.950 . S
C565 C561 1.393 . S
C565 C564 1.391 . S
C566 H556 0.950 1_556 S
C566 C567 1.386 . S
C566 C568 1.391 . S
C567 C566 1.386 . S
C567 C571 1.393 . S
C568 H557 0.950 . S
C568 C566 1.391 . S
C568 C569 1.400 . S
C569 C563 1.491 . S
C569 C568 1.400 . S
C569 C570 1.398 . S
C570 H558 0.950 . S
C570 C569 1.398 . S
C570 C571 1.391 . S
C571 H559 0.950 . S
C571 C567 1.393 . S
C571 C570 1.391 . S
H572 C580 0.950 . S
H573 C585 0.950 . S
H574 C582 0.950 . S
H575 C584 0.950 . S
H576 C586 0.950 . S
H577 C588 0.950 . S
H578 C590 0.950 . S
H579 C591 0.950 . S
C580 H572 0.950 . S
C580 C581 1.386 . S
C580 C582 1.391 . S
C581 C580 1.386 . S
C581 C585 1.393 . S
C582 H574 0.950 . S
C582 C580 1.391 . S
C582 C583 1.400 . S
C583 C582 1.400 . S
C583 C584 1.398 . S
C583 C589 1.491 . S
C584 H575 0.950 . S
C584 C583 1.398 . S
C584 C585 1.391 . S
C585 H573 0.950 . S
C585 C581 1.393 . S
C585 C584 1.391 . S
C586 H576 0.950 . S
C586 C587 1.386 . S
C586 C588 1.391 . S
C587 C586 1.386 . S
C587 C591 1.393 . S
C588 H577 0.950 . S
C588 C586 1.391 . S
C588 C589 1.400 . S
C589 C583 1.491 . S
C589 C588 1.400 . S
C589 C590 1.398 . S
C590 H578 0.950 . S
C590 C589 1.398 . S
C590 C591 1.391 . S
C591 H579 0.950 . S
C591 C587 1.393 . S
C591 C590 1.391 . S
H592 C600 0.950 . S
H593 C605 0.950 . S
H594 C602 0.950 . S
H595 C604 0.950 . S
H596 C606 0.950 1_655 S
H597 C608 0.937 1_655 S
H598 C610 0.950 . S
H599 C611 0.950 . S
C600 H592 0.950 . S
C600 C601 1.386 . S
C600 C602 1.391 . S
C601 C600 1.386 . S
C601 C605 1.393 . S
C602 H594 0.950 . S
C602 C600 1.391 . S
C602 C603 1.400 . S
C603 C602 1.400 . S
C603 C604 1.398 . S
C603 C609 1.491 . S
C604 H595 0.950 . S
C604 C603 1.398 . S
C604 C605 1.391 . S
C605 H593 0.950 . S
C605 C601 1.393 . S
C605 C604 1.391 . S
C606 H596 0.950 1_455 S
C606 C607 1.386 . S
C606 C608 1.391 . S
C607 C606 1.386 . S
C607 C611 1.393 . S
C608 H597 0.937 1_455 S
C608 C606 1.391 . S
C608 C609 1.400 . S
C609 C603 1.491 . S
C609 C608 1.400 . S
C609 C610 1.398 . S
C610 H598 0.950 . S
C610 C609 1.398 . S
C610 C611 1.391 . S
C611 H599 0.950 . S
C611 C607 1.393 . S
C611 C610 1.391 . S
H612 C620 0.950 . S
H613 C625 0.950 . S
H614 C622 0.950 . S
H615 C624 0.950 . S
H616 C626 0.950 . S
H617 C628 0.950 . S
H618 C630 0.950 . S
H619 C631 0.950 . S
C620 H612 0.950 . S
C620 C621 1.386 . S
C620 C622 1.391 . S
C621 C620 1.386 . S
C621 C625 1.393 . S
C622 H614 0.950 . S
C622 C620 1.391 . S
C622 C623 1.400 . S
C623 C622 1.400 . S
C623 C624 1.398 . S
C623 C629 1.491 . S
C624 H615 0.950 . S
C624 C623 1.398 . S
C624 C625 1.391 . S
C625 H613 0.950 . S
C625 C621 1.393 . S
C625 C624 1.391 . S
C626 H616 0.950 . S
C626 C627 1.386 . S
C626 C628 1.391 . S
C627 C626 1.386 . S
C627 C631 1.393 . S
C628 H617 0.950 . S
C628 C626 1.391 . S
C628 C629 1.400 . S
C629 C623 1.491 . S
C629 C628 1.400 . S
C629 C630 1.398 . S
C630 H618 0.950 . S
C630 C629 1.398 . S
C630 C631 1.391 . S
C631 H619 0.950 . S
C631 C627 1.393 . S
C631 C630 1.391 . S
H632 C640 0.950 . S
H633 C645 0.950 . S
H634 C642 0.950 . S
H635 C644 0.950 . S
H636 C646 0.950 . S
H637 C648 0.950 . S
H638 C650 0.950 . S
H639 C651 0.950 . S
C640 H632 0.950 . S
C640 C641 1.386 . S
C640 C642 1.391 . S
C641 C640 1.386 . S
C641 C645 1.393 . S
C642 H634 0.950 . S
C642 C640 1.391 . S
C642 C643 1.400 . S
C643 C642 1.400 . S
C643 C644 1.398 . S
C643 C649 1.491 . S
C644 H635 0.950 . S
C644 C643 1.398 . S
C644 C645 1.391 . S
C645 H633 0.950 . S
C645 C641 1.393 . S
C645 C644 1.391 . S
C646 H636 0.950 . S
C646 C647 1.386 . S
C646 C648 1.391 . S
C647 C646 1.386 . S
C647 C651 1.393 . S
C648 H637 0.950 . S
C648 C646 1.391 . S
C648 C649 1.400 . S
C649 C643 1.491 . S
C649 C648 1.400 . S
C649 C650 1.398 . S
C650 H638 0.950 . S
C650 C649 1.398 . S
C650 C651 1.391 . S
C651 H639 0.950 . S
C651 C647 1.393 . S
C651 C650 1.391 . S
H652 C660 0.950 . S
H653 C665 0.950 . S
H654 C662 0.950 . S
H655 C664 0.950 . S
H656 C666 0.950 . S
H657 C668 0.950 . S
H658 C670 0.950 . S
H659 C671 0.950 . S
C660 H652 0.950 . S
C660 C661 1.386 . S
C660 C662 1.391 . S
C661 C660 1.386 . S
C661 C665 1.393 . S
C662 H654 0.950 . S
C662 C660 1.391 . S
C662 C663 1.400 . S
C663 C662 1.400 . S
C663 C664 1.398 . S
C663 C669 1.491 . S
C664 H655 0.950 . S
C664 C663 1.398 . S
C664 C665 1.391 . S
C665 H653 0.950 . S
C665 C661 1.393 . S
C665 C664 1.391 . S
C666 H656 0.950 . S
C666 C667 1.386 . S
C666 C668 1.391 . S
C667 C666 1.386 . S
C667 C671 1.393 . S
C668 H657 0.950 . S
C668 C666 1.391 . S
C668 C669 1.400 . S
C669 C663 1.491 . S
C669 C668 1.400 . S
C669 C670 1.398 . S
C670 H658 0.950 . S
C670 C669 1.398 . S
C670 C671 1.391 . S
C671 H659 0.950 . S
C671 C667 1.393 . S
C671 C670 1.391 . S
H672 C680 0.950 . S
H673 C685 0.950 . S
H674 C682 0.950 . S
H675 C684 0.950 . S
H676 C686 0.950 1_455 S
H677 C688 0.950 . S
H678 C690 0.950 . S
H679 C691 0.950 . S
C680 H672 0.950 . S
C680 C681 1.386 . S
C680 C682 1.391 . S
C681 C680 1.386 . S
C681 C685 1.393 . S
C682 H674 0.950 . S
C682 C680 1.391 . S
C682 C683 1.400 . S
C683 C682 1.400 . S
C683 C684 1.398 . S
C683 C689 1.491 . S
C684 H675 0.950 . S
C684 C683 1.398 . S
C684 C685 1.391 . S
C685 H673 0.950 . S
C685 C681 1.393 . S
C685 C684 1.391 . S
C686 H676 0.950 1_655 S
C686 C687 1.386 . S
C686 C688 1.391 . S
C687 C686 1.386 . S
C687 C691 1.393 . S
C688 H677 0.950 . S
C688 C686 1.391 . S
C688 C689 1.400 . S
C689 C683 1.491 . S
C689 C688 1.400 . S
C689 C690 1.398 . S
C690 H678 0.950 . S
C690 C689 1.398 . S
C690 C691 1.391 . S
C691 H679 0.950 . S
C691 C687 1.393 . S
C691 C690 1.391 . S
H692 C700 0.950 . S
H693 C705 0.950 . S
H694 C702 0.950 . S
H695 C704 0.950 . S
H696 C706 0.950 1_565 S
H697 C708 0.950 . S
H698 C710 0.950 . S
H699 C711 0.950 . S
C700 H692 0.950 . S
C700 C701 1.386 . S
C700 C702 1.391 . S
C701 C700 1.386 . S
C701 C705 1.393 . S
C702 H694 0.950 . S
C702 C700 1.391 . S
C702 C703 1.400 . S
C703 C702 1.400 . S
C703 C704 1.398 . S
C703 C709 1.491 . S
C704 H695 0.950 . S
C704 C703 1.398 . S
C704 C705 1.391 . S
C705 H693 0.950 . S
C705 C701 1.393 . S
C705 C704 1.391 . S
C706 H696 0.950 1_545 S
C706 C707 1.386 . S
C706 C708 1.391 . S
C707 C706 1.386 . S
C707 C711 1.393 . S
C708 H697 0.950 . S
C708 C706 1.391 . S
C708 C709 1.400 . S
C709 C703 1.491 . S
C709 C708 1.400 . S
C709 C710 1.398 . S
C710 H698 0.950 . S
C710 C709 1.398 . S
C710 C711 1.391 . S
C711 H699 0.950 . S
C711 C707 1.393 . S
C711 C710 1.391 . S
H712 C720 0.950 . S
H713 C725 0.950 . S
H714 C722 0.950 . S
H715 C724 0.950 . S
H716 C726 0.950 . S
H717 C728 0.950 . S
H718 C730 0.950 . S
H719 C731 0.950 . S
C720 H712 0.950 . S
C720 C721 1.386 . S
C720 C722 1.391 . S
C721 C720 1.386 . S
C721 C725 1.393 . S
C722 H714 0.950 . S
C722 C720 1.391 . S
C722 C723 1.400 . S
C723 C722 1.400 . S
C723 C724 1.398 . S
C723 C729 1.491 . S
C724 H715 0.950 . S
C724 C723 1.398 . S
C724 C725 1.391 . S
C725 H713 0.950 . S
C725 C721 1.393 . S
C725 C724 1.391 . S
C726 H716 0.950 . S
C726 C727 1.386 . S
C726 C728 1.391 . S
C727 C726 1.386 . S
C727 C731 1.393 . S
C728 H717 0.950 . S
C728 C726 1.391 . S
C728 C729 1.400 . S
C729 C723 1.491 . S
C729 C728 1.400 . S
C729 C730 1.398 . S
C730 H718 0.950 . S
C730 C729 1.398 . S
C730 C731 1.391 . S
C731 H719 0.950 . S
C731 C727 1.393 . S
C731 C730 1.391 . S
H732 C740 0.950 . S
H733 C745 0.950 . S
H734 C742 0.950 . S
H735 C744 0.950 . S
H736 C746 0.950 . S
H737 C748 0.950 . S
H738 C750 0.950 . S
H739 C751 0.950 . S
C740 H732 0.950 . S
C740 C741 1.386 . S
C740 C742 1.391 . S
C741 C740 1.386 . S
C741 C745 1.393 . S
C742 H734 0.950 . S
C742 C740 1.391 . S
C742 C743 1.400 . S
C743 C742 1.400 . S
C743 C744 1.398 . S
C743 C749 1.491 . S
C744 H735 0.950 . S
C744 C743 1.398 . S
C744 C745 1.391 . S
C745 H733 0.950 . S
C745 C741 1.393 . S
C745 C744 1.391 . S
C746 H736 0.950 . S
C746 C747 1.386 . S
C746 C748 1.391 . S
C747 C746 1.386 . S
C747 C751 1.393 . S
C748 H737 0.950 . S
C748 C746 1.391 . S
C748 C749 1.400 . S
C749 C743 1.491 . S
C749 C748 1.400 . S
C749 C750 1.398 . S
C750 H738 0.950 . S
C750 C749 1.398 . S
C750 C751 1.391 . S
C751 H739 0.950 . S
C751 C747 1.393 . S
C751 C750 1.391 . S
H752 C760 0.950 . S
H753 C765 0.950 . S
H754 C762 0.950 . S
H755 C764 0.950 . S
H756 C766 0.950 1_554 S
H757 C768 0.950 1_554 S
H758 C770 0.950 . S
H759 C771 0.950 . S
C760 H752 0.950 . S
C760 C761 1.386 . S
C760 C762 1.391 . S
C761 C760 1.386 . S
C761 C765 1.393 . S
C762 H754 0.950 . S
C762 C760 1.391 . S
C762 C763 1.400 . S
C763 C762 1.400 . S
C763 C764 1.398 . S
C763 C769 1.491 . S
C764 H755 0.950 . S
C764 C763 1.398 . S
C764 C765 1.391 . S
C765 H753 0.950 . S
C765 C761 1.393 . S
C765 C764 1.391 . S
C766 H756 0.950 1_556 S
C766 C767 1.386 . S
C766 C768 1.391 . S
C767 C766 1.386 . S
C767 C771 1.393 . S
C768 H757 0.950 1_556 S
C768 C766 1.391 . S
C768 C769 1.400 . S
C769 C763 1.491 . S
C769 C768 1.400 . S
C769 C770 1.398 . S
C770 H758 0.950 . S
C770 C769 1.398 . S
C770 C771 1.391 . S
C771 H759 0.950 . S
C771 C767 1.393 . S
C771 C770 1.391 . S
H772 C780 0.950 . S
H773 C785 0.950 . S
H774 C782 0.950 . S
H775 C784 0.950 . S
H776 C786 0.950 . S
H777 C788 0.950 . S
H778 C790 0.950 . S
H779 C791 0.950 . S
C780 H772 0.950 . S
C780 C781 1.386 . S
C780 C782 1.391 . S
C781 C780 1.386 . S
C781 C785 1.393 . S
C782 H774 0.950 . S
C782 C780 1.391 . S
C782 C783 1.400 . S
C783 C782 1.400 . S
C783 C784 1.398 . S
C783 C789 1.491 . S
C784 H775 0.950 . S
C784 C783 1.398 . S
C784 C785 1.391 . S
C785 H773 0.950 . S
C785 C781 1.393 . S
C785 C784 1.391 . S
C786 H776 0.950 . S
C786 C787 1.386 . S
C786 C788 1.391 . S
C787 C786 1.386 . S
C787 C791 1.393 . S
C788 H777 0.950 . S
C788 C786 1.391 . S
C788 C789 1.400 . S
C789 C783 1.491 . S
C789 C788 1.400 . S
C789 C790 1.398 . S
C790 H778 0.950 . S
C790 C789 1.398 . S
C790 C791 1.391 . S
C791 H779 0.950 . S
C791 C787 1.393 . S
C791 C790 1.391 . S
H792 C800 0.950 . S
H793 C805 0.950 . S
H794 C802 0.950 . S
H795 C804 0.950 . S
H796 C806 0.950 1_556 S
H797 C808 0.950 . S
H798 C810 0.950 . S
H799 C811 0.950 . S
C800 H792 0.950 . S
C800 C801 1.386 . S
C800 C802 1.391 . S
C801 C800 1.386 . S
C801 C805 1.393 . S
C802 H794 0.950 . S
C802 C800 1.391 . S
C802 C803 1.400 . S
C803 C802 1.400 . S
C803 C804 1.398 . S
C803 C809 1.491 . S
C804 H795 0.950 . S
C804 C803 1.398 . S
C804 C805 1.391 . S
C805 H793 0.950 . S
C805 C801 1.393 . S
C805 C804 1.391 . S
C806 H796 0.950 1_554 S
C806 C807 1.386 . S
C806 C808 1.391 . S
C807 C806 1.386 . S
C807 C811 1.393 . S
C808 H797 0.950 . S
C808 C806 1.391 . S
C808 C809 1.400 . S
C809 C803 1.491 . S
C809 C808 1.400 . S
C809 C810 1.398 . S
C810 H798 0.950 . S
C810 C809 1.398 . S
C810 C811 1.391 . S
C811 H799 0.950 . S
C811 C807 1.393 . S
C811 C810 1.391 . S
H812 C820 0.950 . S
H813 C825 0.950 . S
H814 C822 0.950 . S
H815 C824 0.950 . S
H816 C826 0.950 . S
H817 C828 0.950 . S
H818 C830 0.950 . S
H819 C831 0.950 . S
C820 H812 0.950 . S
C820 C821 1.386 . S
C820 C822 1.391 . S
C821 C820 1.386 . S
C821 C825 1.393 . S
C822 H814 0.950 . S
C822 C820 1.391 . S
C822 C823 1.400 . S
C823 C822 1.400 . S
C823 C824 1.398 . S
C823 C829 1.491 . S
C824 H815 0.950 . S
C824 C823 1.398 . S
C824 C825 1.391 . S
C825 H813 0.950 . S
C825 C821 1.393 . S
C825 C824 1.391 . S
C826 H816 0.950 . S
C826 C827 1.386 . S
C826 C828 1.391 . S
C827 C826 1.386 . S
C827 C831 1.393 . S
C828 H817 0.950 . S
C828 C826 1.391 . S
C828 C829 1.400 . S
C829 C823 1.491 . S
C829 C828 1.400 . S
C829 C830 1.398 . S
C830 H818 0.950 . S
C830 C829 1.398 . S
C830 C831 1.391 . S
C831 H819 0.950 . S
C831 C827 1.393 . S
C831 C830 1.391 . S
H832 C840 0.950 . S
H833 C845 0.950 . S
H834 C842 0.950 . S
H835 C844 0.950 . S
H836 C846 0.950 . S
H837 C848 0.950 . S
H838 C850 0.972 . S
H839 C851 0.950 1_455 S
C840 H832 0.950 . S
C840 C841 1.386 . S
C840 C842 1.391 . S
C841 C840 1.386 . S
C841 C845 1.393 . S
C842 H834 0.950 . S
C842 C840 1.391 . S
C842 C843 1.400 . S
C843 C842 1.400 . S
C843 C844 1.398 . S
C843 C849 1.491 . S
C844 H835 0.950 . S
C844 C843 1.398 . S
C844 C845 1.391 . S
C845 H833 0.950 . S
C845 C841 1.393 . S
C845 C844 1.391 . S
C846 H836 0.950 . S
C846 C847 1.386 . S
C846 C848 1.391 . S
C847 C846 1.386 . S
C847 C851 1.393 . S
C848 H837 0.950 . S
C848 C846 1.391 . S
C848 C849 1.400 . S
C849 C843 1.491 . S
C849 C848 1.400 . S
C849 C850 1.398 . S
C850 H838 0.972 . S
C850 C849 1.398 . S
C850 C851 1.391 . S
C851 H839 0.950 1_655 S
C851 C847 1.393 . S
C851 C850 1.391 . S
H852 C860 0.950 . S
H853 C865 0.950 . S
H854 C862 0.950 . S
H855 C864 0.950 . S
H856 C866 0.950 . S
H857 C868 0.950 . S
H858 C870 0.950 . S
H859 C871 0.950 . S
C860 H852 0.950 . S
C860 C861 1.386 . S
C860 C862 1.391 . S
C861 C860 1.386 . S
C861 C865 1.393 . S
C862 H854 0.950 . S
C862 C860 1.391 . S
C862 C863 1.400 . S
C863 C862 1.400 . S
C863 C864 1.398 . S
C863 C869 1.491 . S
C864 H855 0.950 . S
C864 C863 1.398 . S
C864 C865 1.391 . S
C865 H853 0.950 . S
C865 C861 1.393 . S
C865 C864 1.391 . S
C866 H856 0.950 . S
C866 C867 1.386 . S
C866 C868 1.391 . S
C867 C866 1.386 . S
C867 C871 1.393 . S
C868 H857 0.950 . S
C868 C866 1.391 . S
C868 C869 1.400 . S
C869 C863 1.491 . S
C869 C868 1.400 . S
C869 C870 1.398 . S
C870 H858 0.950 . S
C870 C869 1.398 . S
C870 C871 1.391 . S
C871 H859 0.950 . S
C871 C867 1.393 . S
C871 C870 1.391 . S
H872 C880 0.959 . S
H873 C885 0.950 . S
H874 C882 0.950 1_655 S
H875 C884 0.950 . S
H876 C886 0.950 . S
H877 C888 0.950 . S
H878 C890 0.950 1_655 S
H879 C891 0.950 . S
C880 H872 0.959 . S
C880 C881 1.386 . S
C880 C882 1.391 . S
C881 C880 1.386 . S
C881 C885 1.393 . S
C882 H874 0.950 1_455 S
C882 C880 1.391 . S
C882 C883 1.400 . S
C883 C882 1.400 . S
C883 C884 1.398 . S
C883 C889 1.491 . S
C884 H875 0.950 . S
C884 C883 1.398 . S
C884 C885 1.391 . S
C885 H873 0.950 . S
C885 C881 1.393 . S
C885 C884 1.391 . S
C886 H876 0.950 . S
C886 C887 1.386 . S
C886 C888 1.391 . S
C887 C886 1.386 . S
C887 C891 1.393 1_455 S
C888 H877 0.950 . S
C888 C886 1.391 . S
C888 C889 1.400 . S
C889 C883 1.491 . S
C889 C888 1.400 . S
C889 C890 1.398 . S
C890 H878 0.950 1_455 S
C890 C889 1.398 . S
C890 C891 1.391 1_455 S
C891 H879 0.950 . S
C891 C887 1.393 1_655 S
C891 C890 1.391 1_655 S
H892 C900 0.950 . S
H893 C905 0.950 . S
H894 C902 0.950 . S
H895 C904 0.950 . S
H896 C906 0.950 . S
H897 C908 0.950 . S
H898 C910 0.950 . S
H899 C911 0.950 . S
C900 H892 0.950 . S
C900 C901 1.386 . S
C900 C902 1.391 . S
C901 C900 1.386 . S
C901 C905 1.393 . S
C902 H894 0.950 . S
C902 C900 1.391 . S
C902 C903 1.400 . S
C903 C902 1.400 . S
C903 C904 1.398 . S
C903 C909 1.491 . S
C904 H895 0.950 . S
C904 C903 1.398 . S
C904 C905 1.391 . S
C905 H893 0.950 . S
C905 C901 1.393 . S
C905 C904 1.391 . S
C906 H896 0.950 . S
C906 C907 1.386 . S
C906 C908 1.391 . S
C907 C906 1.386 . S
C907 C911 1.393 . S
C908 H897 0.950 . S
C908 C906 1.391 . S
C908 C909 1.400 . S
C909 C903 1.491 . S
C909 C908 1.400 . S
C909 C910 1.398 . S
C910 H898 0.950 . S
C910 C909 1.398 . S
C910 C911 1.391 . S
C911 H899 0.950 . S
C911 C907 1.393 . S
C911 C910 1.391 . S
C441 C1 2.171 . S
C447 C328 2.190 . S
C461 C40 1.130 . S
C467 N348 1.113 . S
C487 C382 2.005 . S
C481 C99 1.996 . S
C501 C118 1.343 . S
C507 N416 1.282 . S
C527 C369 2.361 . S
C521 C16 2.345 . S
C547 N326 1.174 . S
C541 C60 1.216 . S
C567 C403 2.019 . S
C561 C79 2.011 . S
C587 N378 1.043 . S
C581 C138 1.013 . S
C601 C21 1.844 . S
C607 C418 1.854 . S
C627 C352 1.737 . S
C621 C94 1.715 . S
C641 C133 1.475 . S
C647 C313 1.490 . S
C661 C55 1.453 . S
C667 C399 1.470 . S
C687 C339 2.196 . S
C681 C157 2.178 . S
C701 C196 1.114 . S
C707 N356 1.121 . S
C721 C255 1.986 . S
C727 C373 2.003 . S
C741 C289 1.348 . S
C747 N408 1.284 . S
C761 C172 2.344 . S
C767 C358 2.358 . S
C787 N318 1.176 . S
C781 C216 1.216 . S
C807 C412 2.016 . S
C801 C235 1.998 . S
C827 N386 1.030 . S
C821 C294 1.027 . S
C841 C177 1.834 . S
C847 C429 1.854 . S
C867 C343 1.740 . S
C861 C250 1.721 . S
C887 C322 1.489 . S
C881 C274 1.471 . S
C901 C211 1.444 . S
C907 C388 1.465 . S
