# Generated by pormake.
# Topology ctn, (3,4)-cn, num edge types: 1
# Building blocks:
#     Node 0, Type 0, BuildingBlock: VETTIZ_charged_linker_0, # of connection points: 3
#     Node 1, Type 0, BuildingBlock: VETTIZ_charged_linker_0, # of connection points: 3
#     Node 2, Type 0, BuildingBlock: VETTIZ_charged_linker_0, # of connection points: 3
#     Node 3, Type 0, BuildingBlock: VETTIZ_charged_linker_0, # of connection points: 3
#     Node 4, Type 0, BuildingBlock: VETTIZ_charged_linker_0, # of connection points: 3
#     Node 5, Type 0, BuildingBlock: VETTIZ_charged_linker_0, # of connection points: 3
#     Node 6, Type 0, BuildingBlock: VETTIZ_charged_linker_0, # of connection points: 3
#     Node 7, Type 0, BuildingBlock: VETTIZ_charged_linker_0, # of connection points: 3
#     Node 8, Type 0, BuildingBlock: VETTIZ_charged_linker_0, # of connection points: 3
#     Node 9, Type 0, BuildingBlock: VETTIZ_charged_linker_0, # of connection points: 3
#     Node 10, Type 0, BuildingBlock: VETTIZ_charged_linker_0, # of connection points: 3
#     Node 11, Type 0, BuildingBlock: VETTIZ_charged_linker_0, # of connection points: 3
#     Node 12, Type 0, BuildingBlock: VETTIZ_charged_linker_0, # of connection points: 3
#     Node 13, Type 0, BuildingBlock: VETTIZ_charged_linker_0, # of connection points: 3
#     Node 14, Type 0, BuildingBlock: VETTIZ_charged_linker_0, # of connection points: 3
#     Node 15, Type 0, BuildingBlock: VETTIZ_charged_linker_0, # of connection points: 3
#     Node 16, Type 1, BuildingBlock: KUFVIS_clean_sbu_0, # of connection points: 4
#     Node 17, Type 1, BuildingBlock: KUFVIS_clean_sbu_0, # of connection points: 4
#     Node 18, Type 1, BuildingBlock: KUFVIS_clean_sbu_0, # of connection points: 4
#     Node 19, Type 1, BuildingBlock: KUFVIS_clean_sbu_0, # of connection points: 4
#     Node 20, Type 1, BuildingBlock: KUFVIS_clean_sbu_0, # of connection points: 4
#     Node 21, Type 1, BuildingBlock: KUFVIS_clean_sbu_0, # of connection points: 4
#     Node 22, Type 1, BuildingBlock: KUFVIS_clean_sbu_0, # of connection points: 4
#     Node 23, Type 1, BuildingBlock: KUFVIS_clean_sbu_0, # of connection points: 4
#     Node 24, Type 1, BuildingBlock: KUFVIS_clean_sbu_0, # of connection points: 4
#     Node 25, Type 1, BuildingBlock: KUFVIS_clean_sbu_0, # of connection points: 4
#     Node 26, Type 1, BuildingBlock: KUFVIS_clean_sbu_0, # of connection points: 4
#     Node 27, Type 1, BuildingBlock: KUFVIS_clean_sbu_0, # of connection points: 4
#     Edge 28, Type (0, 1), BuildingBlock: EZIPEK_clean_linker_0, # of connection points: 2
#     Edge 29, Type (0, 1), BuildingBlock: EZIPEK_clean_linker_0, # of connection points: 2
#     Edge 30, Type (0, 1), BuildingBlock: EZIPEK_clean_linker_0, # of connection points: 2
#     Edge 31, Type (0, 1), BuildingBlock: EZIPEK_clean_linker_0, # of connection points: 2
#     Edge 32, Type (0, 1), BuildingBlock: EZIPEK_clean_linker_0, # of connection points: 2
#     Edge 33, Type (0, 1), BuildingBlock: EZIPEK_clean_linker_0, # of connection points: 2
#     Edge 34, Type (0, 1), BuildingBlock: EZIPEK_clean_linker_0, # of connection points: 2
#     Edge 35, Type (0, 1), BuildingBlock: EZIPEK_clean_linker_0, # of connection points: 2
#     Edge 36, Type (0, 1), BuildingBlock: EZIPEK_clean_linker_0, # of connection points: 2
#     Edge 37, Type (0, 1), BuildingBlock: EZIPEK_clean_linker_0, # of connection points: 2
#     Edge 38, Type (0, 1), BuildingBlock: EZIPEK_clean_linker_0, # of connection points: 2
#     Edge 39, Type (0, 1), BuildingBlock: EZIPEK_clean_linker_0, # of connection points: 2
#     Edge 40, Type (0, 1), BuildingBlock: EZIPEK_clean_linker_0, # of connection points: 2
#     Edge 41, Type (0, 1), BuildingBlock: EZIPEK_clean_linker_0, # of connection points: 2
#     Edge 42, Type (0, 1), BuildingBlock: EZIPEK_clean_linker_0, # of connection points: 2
#     Edge 43, Type (0, 1), BuildingBlock: EZIPEK_clean_linker_0, # of connection points: 2
#     Edge 44, Type (0, 1), BuildingBlock: EZIPEK_clean_linker_0, # of connection points: 2
#     Edge 45, Type (0, 1), BuildingBlock: EZIPEK_clean_linker_0, # of connection points: 2
#     Edge 46, Type (0, 1), BuildingBlock: EZIPEK_clean_linker_0, # of connection points: 2
#     Edge 47, Type (0, 1), BuildingBlock: EZIPEK_clean_linker_0, # of connection points: 2
#     Edge 48, Type (0, 1), BuildingBlock: EZIPEK_clean_linker_0, # of connection points: 2
#     Edge 49, Type (0, 1), BuildingBlock: EZIPEK_clean_linker_0, # of connection points: 2
#     Edge 50, Type (0, 1), BuildingBlock: EZIPEK_clean_linker_0, # of connection points: 2
#     Edge 51, Type (0, 1), BuildingBlock: EZIPEK_clean_linker_0, # of connection points: 2
#     Edge 52, Type (0, 1), BuildingBlock: EZIPEK_clean_linker_0, # of connection points: 2
#     Edge 53, Type (0, 1), BuildingBlock: EZIPEK_clean_linker_0, # of connection points: 2
#     Edge 54, Type (0, 1), BuildingBlock: EZIPEK_clean_linker_0, # of connection points: 2
#     Edge 55, Type (0, 1), BuildingBlock: EZIPEK_clean_linker_0, # of connection points: 2
#     Edge 56, Type (0, 1), BuildingBlock: EZIPEK_clean_linker_0, # of connection points: 2
#     Edge 57, Type (0, 1), BuildingBlock: EZIPEK_clean_linker_0, # of connection points: 2
#     Edge 58, Type (0, 1), BuildingBlock: EZIPEK_clean_linker_0, # of connection points: 2
#     Edge 59, Type (0, 1), BuildingBlock: EZIPEK_clean_linker_0, # of connection points: 2
#     Edge 60, Type (0, 1), BuildingBlock: EZIPEK_clean_linker_0, # of connection points: 2
#     Edge 61, Type (0, 1), BuildingBlock: EZIPEK_clean_linker_0, # of connection points: 2
#     Edge 62, Type (0, 1), BuildingBlock: EZIPEK_clean_linker_0, # of connection points: 2
#     Edge 63, Type (0, 1), BuildingBlock: EZIPEK_clean_linker_0, # of connection points: 2
#     Edge 64, Type (0, 1), BuildingBlock: EZIPEK_clean_linker_0, # of connection points: 2
#     Edge 65, Type (0, 1), BuildingBlock: EZIPEK_clean_linker_0, # of connection points: 2
#     Edge 66, Type (0, 1), BuildingBlock: EZIPEK_clean_linker_0, # of connection points: 2
#     Edge 67, Type (0, 1), BuildingBlock: EZIPEK_clean_linker_0, # of connection points: 2
#     Edge 68, Type (0, 1), BuildingBlock: EZIPEK_clean_linker_0, # of connection points: 2
#     Edge 69, Type (0, 1), BuildingBlock: EZIPEK_clean_linker_0, # of connection points: 2
#     Edge 70, Type (0, 1), BuildingBlock: EZIPEK_clean_linker_0, # of connection points: 2
#     Edge 71, Type (0, 1), BuildingBlock: EZIPEK_clean_linker_0, # of connection points: 2
#     Edge 72, Type (0, 1), BuildingBlock: EZIPEK_clean_linker_0, # of connection points: 2
#     Edge 73, Type (0, 1), BuildingBlock: EZIPEK_clean_linker_0, # of connection points: 2
#     Edge 74, Type (0, 1), BuildingBlock: EZIPEK_clean_linker_0, # of connection points: 2
#     Edge 75, Type (0, 1), BuildingBlock: EZIPEK_clean_linker_0, # of connection points: 2
# Relax obj value: 0.012
# Max RMSD: 0.062
# Mean RMSD: 0.030
data_MOF--net-ctn--node1-KUFVIS_clean_sbu_0--node2-VETTIZ_charged_linker_0--edge1-EZIPEK_clean_linker_0
_symmetry_space_group_name_H-M    P1
_symmetry_Int_Tables_number       1
_symmetry_cell_setting            triclinic
loop_
_symmetry_equiv_pos_as_xyz
'x, y, z'
_cell_length_a     51.390992
_cell_length_b     51.212733
_cell_length_c     51.475675
_cell_angle_alpha  90.968058
_cell_angle_beta   90.259028
_cell_angle_gamma 91.671555
loop_
_atom_site_label
_atom_site_type_symbol
_atom_site_fract_x
_atom_site_fract_y
_atom_site_fract_z
_atom_type_partial_charge
C0 C 0.03942 0.1215 0.98992 0.0
C1 C 0.01771 0.13734 0.99342 0.0
C2 C 1.00066 0.13228 0.01418 0.0
C3 C 0.02657 0.09583 0.02732 0.0
C4 C 0.04333 0.10076 0.00693 0.0
C5 C 0.06459 0.08108 1.00532 0.0
H6 H 0.11936 0.97193 0.05244 0.0
C7 C 0.03569 0.07259 0.04106 0.0
C8 C 0.05794 0.06373 0.02822 0.0
H9 H 0.14429 0.01704 0.98658 0.0
H10 H 0.10941 0.04724 0.994 0.0
H11 H 0.10899 0.02098 0.08989 0.0
H12 H 0.05768 0.97396 0.04068 0.0
H13 H 0.04165 0.97922 0.07032 0.0
H14 H 0.07173 0.96198 0.06999 0.0
H15 H 0.09834 0.98859 0.09844 0.0
H16 H 0.0796 0.01678 0.10675 0.0
C17 C 0.09108 0.0958 0.00919 0.0
C18 C 0.06175 0.0661 0.97902 0.0
C19 C 0.98625 0.03987 0.12015 0.0
C20 C 0.98991 0.0189 0.13687 0.0
C21 C 0.01105 1.0025 0.13285 0.0
C22 C 0.02833 0.00682 0.11222 0.0
C23 C 0.0244 0.02778 0.09542 0.0
C24 C 1.0037 0.04396 0.09965 0.0
C25 C 1.00256 0.06525 0.07993 0.0
C26 C 0.02601 0.05928 0.0632 0.0
C27 C 0.03867 0.03725 0.07228 0.0
C28 C 0.00597 0.09186 0.0945 0.0
C29 C 0.97663 0.06166 0.06456 0.0
C30 C 0.11717 0.98834 0.03968 0.0
C31 C 0.13433 0.99223 0.01888 0.0
C32 C 0.13114 0.01379 1.00267 0.0
C33 C 0.11089 0.03121 0.00703 0.0
C34 C 0.09365 0.02701 0.02783 0.0
C35 C 0.09709 0.0059 0.04381 0.0
C36 C 0.07716 1.00453 0.06509 0.0
C37 C 0.061 0.02807 0.05916 0.0
C38 C 0.07066 0.04123 0.03729 0.0
C39 C 0.09159 0.00768 0.09152 0.0
C40 C 0.06121 0.97855 0.06163 0.0
H41 H 0.99125 0.10891 0.04653 0.0
H42 H 0.05267 0.12486 0.97394 0.0
H43 H 0.04086 0.0627 0.97385 0.0
H44 H 0.06996 0.04644 0.97942 0.0
H45 H 0.07101 0.07732 0.96308 0.0
H46 H 0.08962 0.11139 0.02438 0.0
H47 H 0.09753 0.10521 0.99093 0.0
H48 H 0.10656 0.08308 0.01607 0.0
H49 H 0.97005 0.05268 0.12292 0.0
H50 H 0.01404 0.98625 0.14562 0.0
H51 H 0.04401 0.99358 0.11008 0.0
H52 H 0.02042 0.09059 0.11056 0.0
H53 H 0.98731 0.09799 0.10316 0.0
H54 H 0.01368 0.1076 0.08206 0.0
H55 H 0.97068 0.04064 0.0627 0.0
H56 H 0.97813 0.06839 0.04433 0.0
H57 H 0.9606 0.07191 0.07445 0.0
H58 H 0.98379 0.14418 0.01706 0.0
C59 C 1.00502 0.11175 0.03118 0.0
C60 C 0.26501 0.62374 0.21911 0.0
C61 C 0.23922 0.62208 0.20991 0.0
C62 C 0.22993 0.64234 0.19449 0.0
C63 C 0.27143 0.66598 0.19879 0.0
C64 C 0.28049 0.64607 0.21396 0.0
C65 C 0.30743 0.65212 0.22451 0.0
H66 H 0.3873 0.74675 0.26948 0.0
C67 C 0.29163 0.6872 0.19854 0.0
C68 C 0.31243 0.67949 0.21421 0.0
H69 H 0.40143 0.66392 0.27093 0.0
H70 H 0.36461 0.65556 0.24201 0.0
H71 H 0.32461 0.75499 0.25505 0.0
H72 H 0.393 0.73966 0.2112 0.0
H73 H 0.36991 0.74739 0.18732 0.0
H74 H 0.37974 0.77145 0.21179 0.0
H75 H 0.35379 0.77508 0.2523 0.0
H76 H 0.32878 0.77613 0.22796 0.0
C77 C 0.30633 0.65174 0.25452 0.0
C78 C 0.32643 0.6322 0.21275 0.0
C79 C 0.2822 0.76696 0.14175 0.0
C80 C 0.29875 0.78892 0.13757 0.0
C81 C 0.32052 0.79326 0.15402 0.0
C82 C 0.32599 0.77585 0.17397 0.0
C83 C 0.31004 0.75341 0.17707 0.0
C84 C 0.28843 0.74926 0.16126 0.0
C85 C 0.27418 0.72385 0.1672 0.0
C86 C 0.29238 0.71237 0.18714 0.0
C87 C 0.31285 0.73019 0.19339 0.0
C88 C 0.24736 0.73022 0.17904 0.0
C89 C 0.27239 0.70684 0.14211 0.0
C90 C 0.38233 0.72672 0.26398 0.0
C91 C 0.39606 0.70578 0.2745 0.0
C92 C 0.3901 0.68026 0.26486 0.0
C93 C 0.36891 0.67539 0.24801 0.0
C94 C 0.35462 0.69641 0.23916 0.0
C95 C 0.36311 0.7216 0.24498 0.0
C96 C 0.35226 0.74076 0.22606 0.0
C97 C 0.33236 0.72332 0.21146 0.0
C98 C 0.33312 0.6976 0.22027 0.0
C99 C 0.33913 0.76305 0.24113 0.0
C100 C 0.37476 0.75043 0.2082 0.0
H101 H 0.23785 0.67892 0.17683 0.0
H102 H 0.27257 0.60834 0.2309 0.0
H103 H 0.31863 0.62305 0.19445 0.0
H104 H 0.34522 0.6416 0.20718 0.0
H105 H 0.33017 0.61621 0.22647 0.0
H106 H 0.29232 0.66621 0.26193 0.0
H107 H 0.29997 0.63214 0.26141 0.0
H108 H 0.32532 0.65628 0.26376 0.0
H109 H 0.26526 0.76326 0.12949 0.0
H110 H 0.33341 0.81008 0.15126 0.0
H111 H 0.34247 0.78036 0.18618 0.0
H112 H 0.24729 0.75033 0.18757 0.0
H113 H 0.23167 0.72882 0.16412 0.0
H114 H 0.24213 0.71732 0.19537 0.0
H115 H 0.29174 0.70604 0.13259 0.0
H116 H 0.26618 0.68644 0.14583 0.0
H117 H 0.25848 0.71503 0.12805 0.0
H118 H 0.21015 0.64133 0.18712 0.0
C119 C 0.24595 0.66414 0.18869 0.0
C120 C 0.99593 0.3954 0.99458 0.0
C121 C 0.98281 0.39032 0.97054 0.0
C122 C 0.97075 0.41217 0.95939 0.0
C123 C 0.97563 0.43741 0.9993 0.0
C124 C 0.99176 0.41871 0.00866 0.0
C125 C 1.00398 0.42717 0.0343 0.0
H126 H 0.01658 0.51913 0.13105 0.0
C127 C 0.97402 0.45872 0.01883 0.0
C128 C 0.99109 0.45323 0.03926 0.0
H129 H 0.0582 0.4475 0.12261 0.0
H130 H 0.03377 0.4363 0.08338 0.0
H131 H 0.96184 0.49211 0.11902 0.0
H132 H 0.01436 0.53556 0.07006 0.0
H133 H 0.98252 0.54684 0.06558 0.0
H134 H 0.99747 0.54943 0.09723 0.0
H135 H 0.96237 0.52711 0.11883 0.0
H136 H 0.94221 0.5078 0.0965 0.0
C137 C 0.99617 0.40677 0.0549 0.0
C138 C 0.03373 0.4306 0.03028 0.0
C139 C 0.90272 0.52512 0.01049 0.0
C140 C 0.89453 0.54541 0.02694 0.0
C141 C 0.90904 0.55177 0.04955 0.0
C142 C 0.93111 0.53768 0.05607 0.0
C143 C 0.93868 0.51685 0.03989 0.0
C144 C 0.92473 0.51106 0.01736 0.0
C145 C 0.93574 0.48838 1.00246 0.0
C146 C 0.95758 0.48054 0.02061 0.0
C147 C 0.95936 0.49744 0.04235 0.0
C148 C 0.91424 0.46672 0.99969 0.0
C149 C 0.94624 0.49839 0.97609 0.0
C150 C 0.02039 0.50109 0.12064 0.0
C151 C 0.03955 0.48432 0.12961 0.0
C152 C 0.04369 0.46077 0.11586 0.0
C153 C 0.02956 0.45439 0.09309 0.0
C154 C 0.0108 0.47157 0.08407 0.0
C155 C 0.00612 0.49422 0.09809 0.0
C156 C 0.98432 0.50931 0.08651 0.0
C157 C 0.97785 0.49291 0.06233 0.0
C158 C 0.99344 0.4708 0.06095 0.0
C159 C 0.96148 0.50934 0.10614 0.0
C160 C 0.99502 0.53685 0.07954 0.0
H161 H 0.95606 0.45019 0.96448 0.0
H162 H 0.00936 0.38171 1.00247 0.0
H163 H 0.03815 0.43783 0.01047 0.0
H164 H 0.04282 0.44537 0.04358 0.0
H165 H 0.04362 0.41176 0.03253 0.0
H166 H 0.97528 0.40078 0.0527 0.0
H167 H 0.00784 0.38895 0.05277 0.0
H168 H 0.99825 0.4144 0.075 0.0
H169 H 0.89185 0.52001 0.99297 0.0
H170 H 0.90294 0.56737 0.06242 0.0
H171 H 0.94125 0.54334 0.07363 0.0
H172 H 0.90584 0.46206 0.019 0.0
H173 H 0.89821 0.4731 0.98693 0.0
H174 H 0.92142 0.44833 0.99141 0.0
H175 H 0.94831 0.52007 0.97581 0.0
H176 H 0.96604 0.49136 0.97196 0.0
H177 H 0.93305 0.49236 0.95976 0.0
H178 H 0.96504 0.41269 0.93931 0.0
C179 C 0.96634 0.43502 0.97382 0.0
C180 C 0.64041 0.80787 0.27036 0.0
C181 C 0.62224 0.78682 0.26905 0.0
C182 C 0.62246 0.76963 0.24738 0.0
C183 C 0.65959 0.79346 0.22966 0.0
C184 C 0.6586 0.81103 0.25032 0.0
C185 C 0.67846 0.83305 0.24795 0.0
H186 H 0.7899 0.87924 0.19449 0.0
C187 C 0.68164 0.80147 0.21291 0.0
C188 C 0.69266 0.82477 0.22341 0.0
H189 H 0.74142 0.91789 0.2507 0.0
H190 H 0.70939 0.88241 0.2473 0.0
H191 H 0.74394 0.86967 0.15662 0.0
H192 H 0.77857 0.81709 0.21004 0.0
H193 H 0.77497 0.80163 0.17917 0.0
H194 H 0.79473 0.83105 0.18244 0.0
H195 H 0.77139 0.85084 0.14751 0.0
H196 H 0.73839 0.83833 0.14306 0.0
C197 C 0.66389 0.85889 0.24436 0.0
C198 C 0.69641 0.83312 0.27215 0.0
C199 C 0.70679 0.74421 0.13572 0.0
C200 C 0.72657 0.74654 0.11706 0.0
C201 C 0.74497 0.7674 0.11922 0.0
C202 C 0.74362 0.78582 0.1396 0.0
C203 C 0.72344 0.78357 0.15785 0.0
C204 C 0.70547 0.763 0.15576 0.0
C205 C 0.68496 0.76424 0.17651 0.0
C206 C 0.69325 0.78924 0.191 0.0
C207 C 0.71596 0.8003 0.18012 0.0
C208 C 0.65805 0.76657 0.16316 0.0
C209 C 0.68745 0.73984 0.1936 0.0
C210 C 0.7724 0.8799 0.20611 0.0
C211 C 0.76847 0.90085 0.22353 0.0
C212 C 0.74502 0.90164 0.23759 0.0
C213 C 0.7265 0.88107 0.23561 0.0
C214 C 0.73105 0.85988 0.21875 0.0
C215 C 0.75312 0.86007 0.20351 0.0
C216 C 0.75264 0.83791 0.18392 0.0
C217 C 0.72728 0.8237 0.19091 0.0
C218 C 0.71518 0.83627 0.21187 0.0
C219 C 0.7517 0.84961 0.1563 0.0
C220 C 0.77652 0.82096 0.18893 0.0
H221 H 0.64046 0.75881 0.21198 0.0
H222 H 0.64033 0.82158 0.28661 0.0
H223 H 0.70384 0.81324 0.27536 0.0
H224 H 0.71362 0.8463 0.27036 0.0
H225 H 0.68566 0.83917 0.28983 0.0
H226 H 0.64327 0.85531 0.23827 0.0
H227 H 0.66369 0.87066 0.26268 0.0
H228 H 0.67253 0.87094 0.22873 0.0
H229 H 0.69232 0.72842 0.13432 0.0
H230 H 0.76027 0.76951 0.10493 0.0
H231 H 0.75821 0.80121 0.14024 0.0
H232 H 0.65977 0.77765 0.1448 0.0
H233 H 0.64931 0.74701 0.15823 0.0
H234 H 0.64419 0.77763 0.17509 0.0
H235 H 0.70828 0.73577 0.19732 0.0
H236 H 0.67875 0.74218 0.213 0.0
H237 H 0.67843 0.72227 0.18385 0.0
H238 H 0.60844 0.75346 0.24592 0.0
C239 C 0.6411 0.77274 0.22778 0.0
C240 C 0.02792 0.90188 0.53831 0.0
C241 C 0.00596 0.88511 0.53515 0.0
C242 C 0.98817 0.88961 0.51495 0.0
C243 C 0.01479 0.92662 0.50076 0.0
C244 C 0.03192 0.92246 0.52098 0.0
C245 C 0.05445 0.94194 0.52135 0.0
H246 H 0.11764 0.04495 0.46648 0.0
C247 C 0.02497 0.94921 0.48585 0.0
C248 C 0.04816 0.95835 0.49794 0.0
H249 H 0.13968 1.00408 0.53535 0.0
H250 H 0.10157 0.97528 0.53069 0.0
H251 H 0.05839 0.04888 0.47927 0.0
H252 H 0.09963 0.99308 0.43304 0.0
H253 H 0.0714 1.00099 0.41579 0.0
H254 H 0.09542 0.02628 0.4236 0.0
H255 H 0.06907 0.0559 0.44694 0.0
H256 H 0.03786 0.04014 0.45298 0.0
C257 C 0.05342 0.958 0.54707 0.0
C258 C 0.07986 0.92682 0.51747 0.0
C259 C 0.97813 0.97695 0.40375 0.0
C260 C 0.98348 0.9966 0.38564 0.0
C261 C 1.00495 0.01387 0.38977 0.0
C262 C 0.0213 0.01126 0.41141 0.0
C263 C 0.01616 0.99111 0.4291 0.0
C264 C 0.99469 0.97456 0.42528 0.0
C265 C 0.99221 0.95443 0.4462 0.0
C266 C 0.01588 0.96141 0.46302 0.0
C267 C 0.02989 0.98283 0.45281 0.0
C268 C 0.96641 0.95878 0.46089 0.0
C269 C 0.99419 0.92705 0.43324 0.0
C270 C 0.11398 0.03012 0.48075 0.0
C271 C 0.13129 0.02709 0.50158 0.0
C272 C 0.12641 0.00686 0.51929 0.0
C273 C 0.10429 0.99023 0.51652 0.0
C274 C 0.08692 0.99376 0.49572 0.0
C275 C 0.09201 0.01344 0.47825 0.0
C276 C 0.07166 0.01432 0.45723 0.0
C277 C 0.05328 0.99211 0.46508 0.0
C278 C 0.06237 0.97999 0.48754 0.0
C279 C 0.05857 0.0412 0.45892 0.0
C280 C 0.08505 0.00856 0.43091 0.0
H281 H 0.97835 0.91251 0.48258 0.0
H282 H 0.04184 0.89876 0.55374 0.0
H283 H 0.07676 0.91035 0.50331 0.0
H284 H 0.09581 0.93892 0.50924 0.0
H285 H 0.08656 0.9185 0.53605 0.0
H286 H 0.03293 0.96146 0.55278 0.0
H287 H 0.06281 0.94756 0.5632 0.0
H288 H 0.06254 0.9777 0.54555 0.0
H289 H 0.96169 0.96347 0.4009 0.0
H290 H 0.00925 0.02911 0.37596 0.0
H291 H 0.03746 0.02489 0.41339 0.0
H292 H 0.96191 0.9799 0.46192 0.0
H293 H 0.94979 0.94836 0.45099 0.0
H294 H 0.96724 0.95269 0.48136 0.0
H295 H 0.0092 0.9273 0.41772 0.0
H296 H 1.00035 0.91197 0.44683 0.0
H297 H 0.97536 0.92063 0.42417 0.0
H298 H 0.97115 0.87683 0.5123 0.0
C299 C 0.99246 0.91025 0.49774 0.0
C300 C 0.273 0.63986 0.81905 0.0
C301 C 0.27199 0.62108 0.79881 0.0
C302 C 0.25087 0.62085 0.78119 0.0
C303 C 0.23403 0.65954 0.80212 0.0
C304 C 0.25365 0.65862 0.82055 0.0
C305 C 0.25132 0.67969 0.8411 0.0
H306 H 0.20137 0.79487 0.87907 0.0
C307 C 0.21892 0.68319 0.80739 0.0
C308 C 0.22892 0.69505 0.83026 0.0
H309 H 0.25031 0.74461 0.92327 0.0
H310 H 0.24912 0.71261 0.88815 0.0
H311 H 0.16091 0.74529 0.85934 0.0
H312 H 0.22582 0.78641 0.82422 0.0
H313 H 0.20357 0.77805 0.79923 0.0
H314 H 0.19405 0.79997 0.82517 0.0
H315 H 0.16121 0.77951 0.85216 0.0
H316 H 0.15225 0.75532 0.82789 0.0
C317 C 0.24421 0.66653 0.86719 0.0
C318 C 0.27701 0.69621 0.84212 0.0
C319 C 0.14814 0.70998 0.74428 0.0
C320 C 0.13493 0.73343 0.7411 0.0
C321 C 0.14155 0.75503 0.75744 0.0
C322 C 0.15965 0.75285 0.77768 0.0
C323 C 0.17187 0.729 0.78131 0.0
C324 C 0.16696 0.70845 0.76404 0.0
C325 C 0.18467 0.68604 0.76866 0.0
C326 C 0.19957 0.69579 0.79269 0.0
C327 C 0.19148 0.72073 0.80037 0.0
C328 C 0.16773 0.66136 0.77441 0.0
C329 C 0.20255 0.6832 0.74462 0.0
C330 C 0.21174 0.77691 0.88108 0.0
C331 C 0.22638 0.77237 0.90364 0.0
C332 C 0.23916 0.74854 0.90592 0.0
C333 C 0.23843 0.73002 0.88557 0.0
C334 C 0.22426 0.73504 0.86291 0.0
C335 C 0.21055 0.75778 0.86123 0.0
C336 C 0.19473 0.75858 0.83656 0.0
C337 C 0.20113 0.73248 0.82388 0.0
C338 C 0.21905 0.71922 0.83912 0.0
C339 C 0.16569 0.75986 0.84417 0.0
C340 C 0.2048 0.78202 0.8204 0.0
H341 H 0.21675 0.63922 0.76832 0.0
H342 H 0.28877 0.64013 0.83309 0.0
H343 H 0.28276 0.70229 0.82226 0.0
H344 H 0.27545 0.71429 0.8539 0.0
H345 H 0.29306 0.68483 0.85036 0.0
H346 H 0.23729 0.64587 0.86438 0.0
H347 H 0.26123 0.6664 0.88056 0.0
H348 H 0.22793 0.67628 0.87713 0.0
H349 H 0.14401 0.6933 0.73156 0.0
H350 H 0.13203 0.77344 0.75497 0.0
H351 H 0.1634 0.76979 0.7898 0.0
H352 H 0.15166 0.66623 0.7879 0.0
H353 H 0.15886 0.65296 0.75629 0.0
H354 H 0.17875 0.64607 0.78409 0.0
H355 H 0.20555 0.70216 0.73465 0.0
H356 H 0.22239 0.67729 0.74975 0.0
H357 H 0.19402 0.66902 0.73016 0.0
H358 H 0.24958 0.60631 0.76566 0.0
C359 C 0.232 0.64004 0.78264 0.0
C360 C 0.89185 0.50983 0.49495 0.0
C361 C 0.88399 0.48596 0.48305 0.0
C362 C 0.899 0.47576 0.46264 0.0
C363 C 0.92951 0.51271 0.4665 0.0
C364 C 0.91439 0.52309 0.48614 0.0
C365 C 0.92526 0.54904 0.49618 0.0
H366 H 0.02717 0.61759 0.53128 0.0
C367 C 0.95269 0.53017 0.46314 0.0
C368 C 0.94989 0.55183 0.47984 0.0
H369 H 0.95168 0.65124 0.52055 0.0
H370 H 0.93827 0.61348 0.49363 0.0
H371 H 0.02422 0.62216 0.47351 0.0
H372 H 0.0248 0.55174 0.51611 0.0
H373 H 0.04651 0.5524 0.4889 0.0
H374 H 0.04946 0.57734 0.51383 0.0
H375 H 0.05144 0.60152 0.47166 0.0
H376 H 0.0248 0.5979 0.44876 0.0
C377 C 0.9054 0.57047 0.49106 0.0
C378 C 0.9317 0.54715 0.52538 0.0
C379 C 0.02404 0.50997 0.3982 0.0
C380 C 0.04772 0.52319 0.39254 0.0
C381 C 0.05765 0.54228 0.41033 0.0
C382 C 0.04351 0.54923 0.43257 0.0
C383 C 0.01895 0.53748 0.43671 0.0
C384 C 0.0098 0.51769 0.42015 0.0
C385 C 0.98304 0.50768 0.42785 0.0
C386 C 0.9765 0.52698 0.44947 0.0
C387 C 0.99794 0.54394 0.45496 0.0
C388 C 0.96434 0.50968 0.40437 0.0
C389 C 0.98568 0.47959 0.438 0.0
C390 C 0.00726 0.61658 0.52437 0.0
C391 C 0.98931 0.63601 0.53143 0.0
C392 C 0.96478 0.63514 0.51865 0.0
C393 C 0.95652 0.61315 0.50393 0.0
C394 C 0.97347 0.59261 0.50056 0.0
C395 C 0.99936 0.59651 0.50677 0.0
C396 C 0.01615 0.5817 0.48764 0.0
C397 C 0.99544 0.56479 0.47327 0.0
C398 C 0.97083 0.57019 0.48295 0.0
C399 C 0.02993 0.60171 0.46948 0.0
C400 C 0.03538 0.56482 0.50245 0.0
H401 H 0.93225 0.48032 0.43859 0.0
H402 H 0.88046 0.51804 0.51057 0.0
H403 H 0.94573 0.53143 0.52881 0.0
H404 H 0.94039 0.56581 0.53309 0.0
H405 H 0.9138 0.54281 0.53673 0.0
H406 H 0.88504 0.56295 0.49318 0.0
H407 H 0.90746 0.58673 0.50545 0.0
H408 H 0.90746 0.57822 0.47111 0.0
H409 H 0.01619 0.49499 0.38503 0.0
H410 H 0.07607 0.55232 0.40659 0.0
H411 H 0.05192 0.56366 0.44564 0.0
H412 H 0.96742 0.52874 0.39462 0.0
H413 H 0.96769 0.4939 0.38981 0.0
H414 H 0.94365 0.5088 0.41001 0.0
H415 H 1.00482 0.47723 0.44777 0.0
H416 H 0.97114 0.47456 0.45297 0.0
H417 H 0.9842 0.46495 0.42185 0.0
H418 H 0.89308 0.45749 0.45314 0.0
C419 C 0.92171 0.48897 0.45432 0.0
C420 C 0.81563 0.74204 0.87945 0.0
C421 C 0.79465 0.7415 0.89682 0.0
C422 C 0.77598 0.76106 0.8955 0.0
C423 C 0.79894 0.78091 0.85941 0.0
C424 C 0.8172 0.76165 0.86078 0.0
C425 C 0.83726 0.76399 0.83973 0.0
H426 H 0.88921 0.82981 0.7385 0.0
C427 C 0.80627 0.79835 0.83777 0.0
C428 C 0.82876 0.78853 0.82624 0.0
H429 H 0.91018 0.7548 0.76814 0.0
H430 H 0.8772 0.75768 0.80099 0.0
H431 H 0.87752 0.85892 0.79354 0.0
H432 H 0.82658 0.8156 0.74058 0.0
H433 H 0.81131 0.84447 0.75017 0.0
H434 H 0.8415 0.84658 0.73269 0.0
H435 H 0.86741 0.87212 0.76315 0.0
H436 H 0.84791 0.87519 0.79208 0.0
C437 C 0.86431 0.76795 0.8528 0.0
C438 C 0.83457 0.73937 0.82175 0.0
C439 C 0.75014 0.87539 0.8157 0.0
C440 C 0.75293 0.89561 0.79767 0.0
C441 C 0.77575 0.89733 0.78263 0.0
C442 C 0.79502 0.87862 0.78466 0.0
C443 C 0.79157 0.85795 0.80204 0.0
C444 C 0.7698 0.85703 0.81776 0.0
C445 C 0.77026 0.83453 0.83621 0.0
C446 C 0.79525 0.82148 0.82818 0.0
C447 C 0.8075 0.83509 0.80787 0.0
C448 C 0.77194 0.84588 0.86428 0.0
C449 C 0.74597 0.81663 0.83076 0.0
C450 C 0.88658 0.81411 0.75216 0.0
C451 C 0.90233 0.79206 0.75083 0.0
C452 C 0.89829 0.77194 0.76883 0.0
C453 C 0.87904 0.7736 0.78783 0.0
C454 C 0.8631 0.79539 0.78868 0.0
C455 C 0.86671 0.81506 0.77086 0.0
C456 C 0.84642 0.83562 0.77363 0.0
C457 C 0.83028 0.82506 0.79612 0.0
C458 C 0.84051 0.8017 0.80504 0.0
C459 C 0.86037 0.86198 0.7808 0.0
C460 C 0.83059 0.83587 0.74796 0.0
H461 H 0.76313 0.79502 0.87684 0.0
H462 H 0.83008 0.72708 0.87997 0.0
H463 H 0.815 0.72965 0.82325 0.0
H464 H 0.83642 0.74415 0.80092 0.0
H465 H 0.84918 0.72467 0.82675 0.0
H466 H 0.86339 0.78239 0.86914 0.0
H467 H 0.87114 0.74932 0.86079 0.0
H468 H 0.8793 0.77578 0.83953 0.0
H469 H 0.73288 0.87377 0.82763 0.0
H470 H 0.77829 0.91287 0.76875 0.0
H471 H 0.81173 0.88079 0.77239 0.0
H472 H 0.78333 0.8647 0.86495 0.0
H473 H 0.75227 0.84968 0.8721 0.0
H474 H 0.78228 0.83315 0.87774 0.0
H475 H 0.74227 0.81462 0.8095 0.0
H476 H 0.74824 0.79651 0.83758 0.0
H477 H 0.72834 0.82482 0.83982 0.0
H478 H 0.75966 0.76089 0.90875 0.0
C479 C 0.77805 0.7808 0.87697 0.0
C480 C 0.3153 0.24149 0.3797 0.0
C481 C 0.29474 0.24103 0.39758 0.0
C482 C 0.27637 0.26089 0.39702 0.0
C483 C 0.29851 0.28069 0.36039 0.0
C484 C 0.31665 0.26129 0.36119 0.0
C485 C 0.33632 0.26375 0.33975 0.0
H486 H 0.38447 0.32875 0.2361 0.0
C487 C 0.3051 0.29789 0.33834 0.0
C488 C 0.3272 0.288 0.32615 0.0
H489 H 0.40986 0.25636 0.26827 0.0
H490 H 0.37674 0.25844 0.30114 0.0
H491 H 0.37079 0.35928 0.29205 0.0
H492 H 0.32436 0.31215 0.23811 0.0
H493 H 0.30507 0.33768 0.24932 0.0
H494 H 0.33422 0.34519 0.23115 0.0
H495 H 0.36338 0.36947 0.25969 0.0
H496 H 0.34126 0.37488 0.28614 0.0
C497 C 0.36351 0.26827 0.3524 0.0
C498 C 0.33374 0.23896 0.32203 0.0
C499 C 0.24878 0.37537 0.31906 0.0
C500 C 0.24938 0.39421 0.29953 0.0
C501 C 0.26955 0.39399 0.28111 0.0
C502 C 0.28884 0.37511 0.28203 0.0
C503 C 0.2878 0.35608 0.30145 0.0
C504 C 0.268 0.3565 0.31957 0.0
C505 C 0.26952 0.33444 0.3384 0.0
C506 C 0.29344 0.32065 0.32865 0.0
C507 C 0.30417 0.33341 0.30702 0.0
C508 C 0.27382 0.34639 0.36598 0.0
C509 C 0.24446 0.31705 0.33533 0.0
C510 C 0.38285 0.31352 0.25039 0.0
C511 C 0.3998 0.29238 0.24974 0.0
C512 C 0.39703 0.27278 0.26847 0.0
C513 C 0.37773 0.27401 0.28749 0.0
C514 C 0.36062 0.2949 0.28771 0.0
C515 C 0.36313 0.31412 0.26926 0.0
C516 C 0.34193 0.3338 0.27159 0.0
C517 C 0.32671 0.32345 0.29476 0.0
C518 C 0.33798 0.30079 0.3042 0.0
C519 C 0.35484 0.36091 0.27753 0.0
C520 C 0.32553 0.33243 0.24625 0.0
H521 H 0.26348 0.2952 0.37907 0.0
H522 H 0.32958 0.22634 0.37971 0.0
H523 H 0.31376 0.23 0.32275 0.0
H524 H 0.33676 0.24327 0.30125 0.0
H525 H 0.34752 0.22386 0.32803 0.0
H526 H 0.36244 0.28215 0.36921 0.0
H527 H 0.37118 0.24968 0.35967 0.0
H528 H 0.37793 0.27717 0.33916 0.0
H529 H 0.23334 0.37509 0.33333 0.0
H530 H 0.27023 0.40838 0.26592 0.0
H531 H 0.30369 0.37592 0.26745 0.0
H532 H 0.28716 0.36388 0.36537 0.0
H533 H 0.25515 0.35262 0.37455 0.0
H534 H 0.28325 0.33297 0.37942 0.0
H535 H 0.23761 0.31639 0.31478 0.0
H536 H 0.24748 0.29643 0.34017 0.0
H537 H 0.22843 0.32466 0.34743 0.0
H538 H 0.26042 0.26082 0.41072 0.0
C539 C 0.27818 0.28075 0.3786 0.0
C540 C 0.50508 0.89375 0.49778 0.0
C541 C 0.49068 0.88493 0.47586 0.0
C542 C 0.46852 0.89861 0.46843 0.0
C543 C 0.47484 0.92886 0.50488 0.0
C544 C 0.49659 0.91542 0.51218 0.0
C545 C 0.50839 0.92616 0.53712 0.0
H546 H 0.50797 0.01548 0.63617 0.0
C547 C 0.47092 0.95011 0.52426 0.0
C548 C 0.4904 0.94846 0.54337 0.0
H549 H 0.56063 0.95231 0.62437 0.0
H550 H 0.53744 0.93868 0.58518 0.0
H551 H 0.4549 0.98186 0.61993 0.0
H552 H 0.50648 0.03292 0.57722 0.0
H553 H 0.47461 0.0393 0.56725 0.0
H554 H 0.48397 0.04509 0.60073 0.0
H555 H 0.45649 0.01659 0.62531 0.0
H556 H 0.43562 1.00173 0.60063 0.0
C557 C 0.50668 0.90446 0.55773 0.0
C558 C 0.53642 0.93622 0.53128 0.0
C559 C 0.39695 0.01315 0.51238 0.0
C560 C 0.38865 0.03469 0.52712 0.0
C561 C 0.40241 0.04223 0.54986 0.0
C562 C 0.42402 0.02835 0.55805 0.0
C563 C 0.43203 0.00665 0.54333 0.0
C564 C 0.41863 0.99945 0.52083 0.0
C565 C 0.42989 0.97583 0.50776 0.0
C566 C 0.4523 0.9701 0.52602 0.0
C567 C 0.4534 0.98819 0.54688 0.0
C568 C 0.40881 0.95354 0.50735 0.0
C569 C 0.43965 0.98393 0.48057 0.0
C570 C 0.51417 0.99855 0.6252 0.0
C571 C 0.53592 0.98473 0.63327 0.0
C572 C 0.54377 0.96301 0.61847 0.0
C573 C 0.53034 0.95525 0.59571 0.0
C574 C 0.50879 0.96938 0.58758 0.0
C575 C 0.50093 0.99054 0.60235 0.0
C576 C 0.47772 1.0033 0.59058 0.0
C577 C 0.47291 0.9863 0.56642 0.0
C578 C 0.49124 0.96651 0.56471 0.0
C579 C 0.45491 1.00102 0.61005 0.0
C580 C 0.48585 0.03172 0.58368 0.0
H581 H 0.44349 0.92998 0.47608 0.0
H582 H 0.52209 0.88348 0.50398 0.0
H583 H 0.53712 0.94637 0.51234 0.0
H584 H 0.54389 0.95079 0.5457 0.0
H585 H 0.55007 0.91981 0.53017 0.0
H586 H 0.48912 0.89154 0.55454 0.0
H587 H 0.52397 0.89195 0.55692 0.0
H588 H 0.50453 0.91228 0.57771 0.0
H589 H 0.38659 0.00701 0.49484 0.0
H590 H 0.39622 0.05878 0.56141 0.0
H591 H 0.43358 0.035 0.57561 0.0
H592 H 0.39597 0.95485 0.52464 0.0
H593 H 0.39626 0.95445 0.48979 0.0
H594 H 0.41714 0.93393 0.50837 0.0
H595 H 0.44938 1.00363 0.48152 0.0
H596 H 0.45439 0.97084 0.47256 0.0
H597 H 0.42321 0.98477 0.46655 0.0
H598 H 0.45717 0.8921 0.45162 0.0
C599 C 0.4606 0.92053 0.48271 0.0
C600 C 0.13584 0.3119 0.76746 0.0
C601 C 0.11712 0.29136 0.76607 0.0
C602 C 0.11673 0.27437 0.74424 0.0
C603 C 0.15472 0.29698 0.72679 0.0
C604 C 0.1542 0.31453 0.7475 0.0
C605 C 0.175 0.33569 0.74547 0.0
H606 H 0.28928 0.37706 0.69421 0.0
C607 C 0.17746 0.30392 0.7105 0.0
C608 C 0.18934 0.32669 0.72126 0.0
H609 H 0.24092 0.41819 0.74873 0.0
H610 H 0.20781 0.38374 0.74511 0.0
H611 H 0.24277 0.36732 0.65517 0.0
H612 H 0.27585 0.3164 0.71132 0.0
H613 H 0.27147 0.29895 0.6817 0.0
H614 H 0.2927 0.32754 0.68291 0.0
H615 H 0.27181 0.34991 0.64847 0.0
H616 H 0.23986 0.33567 0.64177 0.0
C617 C 0.16163 0.36214 0.74147 0.0
C618 C 0.19242 0.33514 0.77003 0.0
C619 C 0.20214 0.24487 0.63446 0.0
C620 C 0.22355 0.245 0.61758 0.0
C621 C 0.24343 0.26429 0.62085 0.0
C622 C 0.24188 0.28346 0.64051 0.0
C623 C 0.22024 0.28329 0.65716 0.0
C624 C 0.20095 0.26407 0.65413 0.0
C625 C 0.17985 0.26653 0.67415 0.0
C626 C 0.18912 0.29097 0.68903 0.0
C627 C 0.21283 0.30064 0.67899 0.0
C628 C 0.15371 0.27061 0.65989 0.0
C629 C 0.18015 0.24188 0.69119 0.0
C630 C 0.27155 0.37849 0.70539 0.0
C631 C 0.2679 0.39987 0.72235 0.0
C632 C 0.24425 0.40162 0.73594 0.0
C633 C 0.2251 0.38166 0.73381 0.0
C634 C 0.22929 0.36008 0.71736 0.0
C635 C 0.25171 0.35924 0.70269 0.0
C636 C 0.25104 0.33663 0.68361 0.0
C637 C 0.22492 0.32359 0.68998 0.0
C638 C 0.21273 0.33699 0.71036 0.0
C639 C 0.25157 0.34774 0.65576 0.0
C640 C 0.27401 0.31889 0.68996 0.0
H641 H 0.1344 0.26318 0.70877 0.0
H642 H 0.13625 0.32544 0.78386 0.0
H643 H 0.1989 0.31495 0.77351 0.0
H644 H 0.21021 0.34756 0.7685 0.0
H645 H 0.18162 0.34179 0.78745 0.0
H646 H 0.14093 0.35943 0.73529 0.0
H647 H 0.16182 0.37415 0.75965 0.0
H648 H 0.17091 0.37362 0.72576 0.0
H649 H 0.18672 0.23009 0.63237 0.0
H650 H 0.2601 0.26453 0.60804 0.0
H651 H 0.2576 0.29765 0.64202 0.0
H652 H 0.15673 0.28272 0.64235 0.0
H653 H 0.14458 0.25165 0.65345 0.0
H654 H 0.13968 0.2814 0.67186 0.0
H655 H 0.20046 0.2358 0.69473 0.0
H656 H 0.17199 0.24505 0.71072 0.0
H657 H 0.16946 0.22521 0.68154 0.0
H658 H 0.10226 0.2586 0.74273 0.0
C659 C 0.13546 0.277 0.72467 0.0
C660 C 0.76636 0.12455 0.71711 0.0
C661 C 0.74066 0.12228 0.7077 0.0
C662 C 0.73112 0.14212 0.6919 0.0
C663 C 0.77191 0.16681 0.69672 0.0
C664 C 0.78135 0.14722 0.71205 0.0
C665 C 0.80784 0.1542 0.72326 0.0
H666 H 0.88361 0.24973 0.77182 0.0
C667 C 0.79115 0.18885 0.69723 0.0
C668 C 0.81188 0.18186 0.71328 0.0
H669 H 0.90214 0.16786 0.76743 0.0
H670 H 0.86536 0.15962 0.73829 0.0
H671 H 0.81948 0.25409 0.7591 0.0
H672 H 0.88796 0.24737 0.71278 0.0
H673 H 0.86385 0.25684 0.69071 0.0
H674 H 0.87324 0.27824 0.71759 0.0
H675 H 0.84673 0.2769 0.7574 0.0
H676 H 0.82105 0.27736 0.73363 0.0
C677 C 0.80621 0.15368 0.75325 0.0
C678 C 0.82805 0.13514 0.71202 0.0
C679 C 0.78005 0.2689 0.64156 0.0
C680 C 0.79366 0.29314 0.64048 0.0
C681 C 0.81254 0.29946 0.65973 0.0
C682 C 0.81873 0.28142 0.67894 0.0
C683 C 0.8058 0.25687 0.679 0.0
C684 C 0.78624 0.2512 0.66105 0.0
C685 C 0.77323 0.22488 0.66562 0.0
C686 C 0.79076 0.21434 0.68667 0.0
C687 C 0.80949 0.23336 0.6947 0.0
C688 C 0.74516 0.22926 0.67554 0.0
C689 C 0.77422 0.20811 0.64042 0.0
C690 C 0.87959 0.22988 0.76508 0.0
C691 C 0.89458 0.20901 0.77397 0.0
C692 C 0.88981 0.18392 0.76271 0.0
C693 C 0.86862 0.17907 0.7459 0.0
C694 C 0.85303 0.1998 0.73886 0.0
C695 C 0.86026 0.22498 0.74612 0.0
C696 C 0.84773 0.24465 0.72875 0.0
C697 C 0.82903 0.22691 0.71295 0.0
C698 C 0.83137 0.20087 0.72032 0.0
C699 C 0.83293 0.26445 0.7456 0.0
C700 C 0.86917 0.25757 0.71162 0.0
H701 H 0.73851 0.17865 0.67394 0.0
H702 H 0.77414 0.10944 0.72912 0.0
H703 H 0.81939 0.12132 0.69725 0.0
H704 H 0.84417 0.14574 0.70202 0.0
H705 H 0.83653 0.12306 0.72747 0.0
H706 H 0.79138 0.16741 0.76044 0.0
H707 H 0.80072 0.13379 0.75998 0.0
H708 H 0.82494 0.15917 0.76269 0.0
H709 H 0.76493 0.26389 0.62746 0.0
H710 H 0.82275 0.31826 0.65962 0.0
H711 H 0.83318 0.28718 0.69318 0.0
H712 H 0.74218 0.24992 0.68157 0.0
H713 H 0.73041 0.22423 0.66028 0.0
H714 H 0.74068 0.21771 0.69308 0.0
H715 H 0.7944 0.20797 0.63271 0.0
H716 H 0.7681 0.18756 0.64358 0.0
H717 H 0.76137 0.21602 0.62522 0.0
H718 H 0.7115 0.14054 0.68419 0.0
C719 C 0.7467 0.16423 0.68614 0.0
C720 C 0.53709 0.62081 0.49027 0.0
C721 C 0.51436 0.6353 0.49314 0.0
C722 C 0.49686 0.62892 0.51318 0.0
C723 C 0.52458 0.59413 0.52707 0.0
C724 C 0.54162 0.60015 0.5072 0.0
C725 C 0.56383 0.58157 0.50589 0.0
H726 H 0.62228 0.47398 0.55184 0.0
C727 C 0.53465 0.57138 0.54095 0.0
C728 C 0.55755 0.56374 0.52852 0.0
H729 H 0.64557 0.52126 0.48687 0.0
H730 H 0.60994 0.55016 0.49502 0.0
H731 H 0.61018 0.52277 0.59025 0.0
H732 H 0.56021 0.47446 0.54075 0.0
H733 H 0.54475 0.47841 0.57094 0.0
H734 H 0.57552 0.46251 0.56945 0.0
H735 H 0.60074 0.48997 0.59859 0.0
H736 H 0.58088 0.51735 0.60699 0.0
C737 C 0.58955 0.5975 0.51043 0.0
C738 C 0.56219 0.56673 0.47941 0.0
C739 C 0.48627 0.53718 0.61993 0.0
C740 C 0.49075 0.51664 0.63694 0.0
C741 C 0.51257 0.50107 0.63316 0.0
C742 C 0.52974 0.50585 0.6125 0.0
C743 C 0.525 0.52642 0.59546 0.0
C744 C 0.5036 0.54173 0.59944 0.0
C745 C 0.50156 0.5627 0.57949 0.0
C746 C 0.52538 0.55768 0.563 0.0
C747 C 0.539 0.53633 0.57232 0.0
C748 C 0.50364 0.58953 0.59381 0.0
C749 C 0.47587 0.55777 0.56399 0.0
C750 C 0.61962 0.49064 0.53952 0.0
C751 C 0.63655 0.49544 0.51866 0.0
C752 C 0.63265 0.51728 0.503 0.0
C753 C 0.61194 0.53395 0.50774 0.0
C754 C 0.59483 0.52875 0.52838 0.0
C755 C 0.59898 0.50753 0.54404 0.0
C756 C 0.57903 0.50527 0.56528 0.0
C757 C 0.56191 0.52819 0.55944 0.0
C758 C 0.57122 0.54189 0.53775 0.0
C759 C 0.59327 0.50881 0.59176 0.0
C760 C 0.56408 0.47875 0.5617 0.0
H761 H 0.48781 0.60478 0.54508 0.0
H762 H 0.55069 0.62511 0.47479 0.0
H763 H 0.54157 0.56306 0.47339 0.0
H764 H 0.57059 0.54716 0.48002 0.0
H765 H 0.57192 0.57817 0.46389 0.0
H766 H 0.58704 0.61283 0.52571 0.0
H767 H 0.59592 0.60739 0.4924 0.0
H768 H 0.60551 0.58549 0.51754 0.0
H769 H 0.46953 0.54932 0.62248 0.0
H770 H 0.51618 0.48513 0.64613 0.0
H771 H 0.54597 0.49326 0.61052 0.0
H772 H 0.51865 0.58931 0.60946 0.0
H773 H 0.48484 0.59445 0.60298 0.0
H774 H 0.50985 0.60564 0.58108 0.0
H775 H 0.47029 0.53661 0.56312 0.0
H776 H 0.47755 0.56343 0.54341 0.0
H777 H 0.4595 0.56821 0.57307 0.0
H778 H 0.47918 0.6397 0.51556 0.0
C779 C 0.50191 0.60859 0.53022 0.0
C780 C 0.53034 0.40115 0.03698 0.0
C781 C 0.50853 0.38419 0.03395 0.0
C782 C 0.49059 0.38846 0.01382 0.0
C783 C 0.51673 0.42577 0.99953 0.0
C784 C 0.53403 0.42176 0.01964 0.0
C785 C 0.55639 0.4414 0.0199 0.0
H786 H 0.61837 0.54509 0.96525 0.0
C787 C 0.52659 0.44849 0.98462 0.0
C788 C 0.54978 0.4578 0.99658 0.0
H789 H 0.6412 0.50379 0.03359 0.0
H790 H 0.60325 0.47482 0.029 0.0
H791 H 0.55864 0.54811 0.97862 0.0
H792 H 0.60063 0.49357 0.9315 0.0
H793 H 0.57207 0.50103 0.91458 0.0
H794 H 0.59573 0.52671 0.92227 0.0
H795 H 0.56987 0.55597 0.94666 0.0
H796 H 0.53863 0.5399 0.95179 0.0
C797 C 0.55539 0.4574 0.04567 0.0
C798 C 0.5819 0.4265 0.0158 0.0
C799 C 0.47884 0.47618 0.90305 0.0
C800 C 0.48389 0.4959 0.88494 0.0
C801 C 0.50526 0.51333 0.88895 0.0
C802 C 0.52179 0.51082 0.91048 0.0
C803 C 0.51694 0.4906 0.92816 0.0
C804 C 0.49557 0.47389 0.92446 0.0
C805 C 0.49345 0.45364 0.94529 0.0
C806 C 0.51721 0.46073 0.96193 0.0
C807 C 0.53095 0.48233 0.95172 0.0
C808 C 0.46774 0.45772 0.96023 0.0
C809 C 0.49552 0.42633 0.93219 0.0
C810 C 0.61492 0.53011 0.9794 0.0
C811 C 0.63242 0.527 1.00007 0.0
C812 C 0.62779 0.50661 0.01765 0.0
C813 C 0.60576 0.48989 0.01493 0.0
C814 C 0.58822 0.49347 0.99429 0.0
C815 C 0.59303 0.51331 0.97693 0.0
C816 C 0.57251 0.51419 0.95606 0.0
C817 C 0.55437 0.49176 0.96387 0.0
C818 C 0.56372 0.47959 0.98619 0.0
C819 C 0.55922 0.54093 0.95811 0.0
C820 C 0.58574 0.50878 0.9296 0.0
H821 H 0.48034 0.41128 0.98151 0.0
H822 H 0.54437 0.39818 0.05234 0.0
H823 H 0.57877 0.40985 1.00185 0.0
H824 H 0.5976 0.43864 0.00718 0.0
H825 H 0.58898 0.41845 0.03436 0.0
H826 H 0.53491 0.46063 0.05155 0.0
H827 H 0.56502 0.44704 0.06171 0.0
H828 H 0.56428 0.47719 0.04413 0.0
H829 H 0.46249 0.46257 0.90028 0.0
H830 H 0.50935 0.52861 0.87513 0.0
H831 H 0.53788 0.52455 0.91236 0.0
H832 H 0.46324 0.47882 0.96162 0.0
H833 H 0.45108 0.44744 0.95028 0.0
H834 H 0.46871 0.4513 0.98058 0.0
H835 H 0.51028 0.42681 0.91643 0.0
H836 H 0.50209 0.41128 0.94561 0.0
H837 H 0.47663 0.41974 0.9234 0.0
H838 H 0.47369 0.37552 0.01128 0.0
C839 C 0.49456 0.40916 0.9966 0.0
C840 C 0.77277 0.14159 0.32062 0.0
C841 C 0.77274 0.12335 0.29989 0.0
C842 C 0.7522 0.12323 0.28162 0.0
C843 C 0.73347 0.16048 0.30346 0.0
C844 C 0.75276 0.15966 0.32223 0.0
C845 C 0.74911 0.17977 0.3435 0.0
H846 H 0.69559 0.29223 0.38349 0.0
C847 C 0.71682 0.18283 0.30965 0.0
C848 C 0.7258 0.19415 0.33316 0.0
H849 H 0.74603 0.24272 0.42689 0.0
H850 H 0.74467 0.21071 0.39182 0.0
H851 H 0.65636 0.24178 0.36794 0.0
H852 H 0.71707 0.28219 0.3254 0.0
H853 H 0.69009 0.27645 0.30463 0.0
H854 H 0.68678 0.29705 0.33312 0.0
H855 H 0.65294 0.2745 0.3567 0.0
H856 H 0.6453 0.24654 0.33607 0.0
C857 C 0.74275 0.16529 0.36908 0.0
C858 C 0.77386 0.19766 0.34517 0.0
C859 C 0.64376 0.20615 0.24792 0.0
C860 C 0.62436 0.22531 0.24856 0.0
C861 C 0.62928 0.24684 0.26591 0.0
C862 C 0.64883 0.24647 0.28507 0.0
C863 C 0.66491 0.22492 0.28648 0.0
C864 C 0.66292 0.20576 0.26741 0.0
C865 C 0.68305 0.18526 0.27058 0.0
C866 C 0.69641 0.1945 0.29561 0.0
C867 C 0.68581 0.21789 0.30481 0.0
C868 C 0.66877 0.15842 0.2737 0.0
C869 C 0.70163 0.18676 0.24699 0.0
C870 C 0.70631 0.27446 0.38534 0.0
C871 C 0.72167 0.27031 0.40753 0.0
C872 C 0.73455 0.24651 0.40972 0.0
C873 C 0.73377 0.228 0.38938 0.0
C874 C 0.71923 0.23284 0.36692 0.0
C875 C 0.70483 0.25516 0.36563 0.0
C876 C 0.6877 0.25505 0.34178 0.0
C877 C 0.69499 0.22946 0.32859 0.0
C878 C 0.71415 0.21706 0.34308 0.0
C879 C 0.65901 0.25461 0.35086 0.0
C880 C 0.69556 0.27899 0.3253 0.0
H881 H 0.71801 0.14099 0.26831 0.0
H882 H 0.78814 0.14183 0.3351 0.0
H883 H 0.77907 0.20505 0.32562 0.0
H884 H 0.77142 0.21496 0.35787 0.0
H885 H 0.79063 0.1868 0.35269 0.0
H886 H 0.737 0.14441 0.36552 0.0
H887 H 0.75978 0.16566 0.38247 0.0
H888 H 0.7259 0.1737 0.37931 0.0
H889 H 0.64494 0.19167 0.23263 0.0
H890 H 0.61827 0.26443 0.26486 0.0
H891 H 0.65069 0.26306 0.29803 0.0
H892 H 0.65029 0.16057 0.28461 0.0
H893 H 0.66382 0.14934 0.25449 0.0
H894 H 0.68005 0.14459 0.28514 0.0
H895 H 0.70515 0.20738 0.24115 0.0
H896 H 0.72114 0.1794 0.25117 0.0
H897 H 0.69324 0.17586 0.22994 0.0
H898 H 0.75172 0.10918 0.26564 0.0
C899 C 0.73274 0.14178 0.28316 0.0
C900 C 0.39214 0.00999 0.99335 0.0
C901 C 0.38446 0.98581 0.98202 0.0
C902 C 0.39972 0.97508 0.96207 0.0
C903 C 0.43008 0.01221 0.96523 0.0
C904 C 0.41477 0.02302 0.98449 0.0
C905 C 0.42559 0.04908 0.9942 0.0
H906 H 0.52683 0.1163 0.03132 0.0
C907 C 0.45332 0.02957 0.96178 0.0
C908 C 0.45043 0.05146 0.97815 0.0
H909 H 0.45228 0.15111 0.01798 0.0
H910 H 0.43923 0.1135 0.99066 0.0
H911 H 0.52638 0.12098 0.97357 0.0
H912 H 0.52416 0.05058 0.01587 0.0
H913 H 0.54661 0.05093 0.98923 0.0
H914 H 0.54922 0.07586 0.01422 0.0
H915 H 0.55279 0.09939 0.97159 0.0
H916 H 0.52625 0.09695 0.9485 0.0
C917 C 0.4059 0.0705 0.98838 0.0
C918 C 0.43159 0.04771 0.02353 0.0
C919 C 0.52462 0.01 0.89664 0.0
C920 C 0.54856 0.02297 0.89149 0.0
C921 C 0.55875 0.04133 0.90987 0.0
C922 C 0.54456 0.04798 0.93218 0.0
C923 C 0.51978 0.03654 0.93586 0.0
C924 C 0.51045 0.01723 0.91882 0.0
C925 C 0.48371 0.00712 0.9265 0.0
C926 C 0.47725 0.02617 0.94837 0.0
C927 C 0.49878 0.04294 0.95413 0.0
C928 C 0.46486 0.00935 0.90319 0.0
C929 C 0.48632 0.97888 0.93633 0.0
C930 C 0.50718 0.11566 0.02367 0.0
C931 C 0.48923 0.13528 0.03024 0.0
C932 C 0.4652 0.13483 0.01653 0.0
C933 C 0.45714 0.11297 1.00154 0.0
C934 C 0.4739 0.0922 0.9988 0.0
C935 C 0.49962 0.09576 0.00573 0.0
C936 C 0.51673 0.08063 0.98712 0.0
C937 C 0.49617 0.06394 0.97225 0.0
C938 C 0.47143 0.0697 0.98133 0.0
C939 C 0.53134 0.10037 0.9693 0.0
C940 C 0.53529 0.0635 1.00249 0.0
H941 H 0.43321 0.97916 0.93819 0.0
H942 H 0.38054 0.01861 0.00858 0.0
H943 H 0.44557 0.03206 0.02746 0.0
H944 H 0.44014 0.06649 0.03107 0.0
H945 H 0.41353 0.04356 0.03469 0.0
H946 H 0.38549 0.06315 0.99057 0.0
H947 H 0.40799 0.08712 1.00233 0.0
H948 H 0.40813 0.07769 0.96823 0.0
H949 H 0.51661 0.99554 0.88301 0.0
H950 H 0.57738 0.05111 0.90651 0.0
H951 H 0.55308 0.06191 0.94571 0.0
H952 H 0.46726 0.02886 0.89418 0.0
H953 H 0.46873 0.99426 0.88805 0.0
H954 H 0.44422 0.00738 0.90886 0.0
H955 H 0.50585 0.97601 0.94507 0.0
H956 H 0.47247 0.97413 0.95203 0.0
H957 H 0.48367 0.96435 0.9202 0.0
H958 H 0.3939 0.95658 0.95297 0.0
C959 C 0.42248 0.98813 0.95362 0.0
Mn960 Mn 0.25583 0.87987 0.01739 0.0
Mn961 Mn 0.25334 0.90163 0.95558 0.0
C962 C 0.23874 0.85313 0.98387 0.0
C963 C 0.27513 0.85754 0.05166 0.0
C964 C 0.21706 0.9198 0.99843 0.0
O965 O 0.2827 0.91057 0.01787 0.0
O966 O 0.28094 0.92122 0.97542 0.0
C967 C 0.30501 0.88529 0.93716 0.0
N968 N 0.27858 0.8844 0.93474 0.0
C969 C 0.28076 0.85762 0.89599 0.0
C970 C 0.30799 0.85842 0.89797 0.0
C971 C 0.32015 0.87217 0.91874 0.0
C972 C 0.26667 0.87085 0.91508 0.0
H973 H 0.31449 0.89598 0.95297 0.0
C974 C 0.29085 0.9236 0.99825 0.0
O975 O 0.25762 0.87483 0.0557 0.0
O976 O 0.28299 0.85467 0.02786 0.0
N977 N 0.22791 0.88363 0.93399 0.0
C978 C 0.20152 0.88527 0.93441 0.0
C979 C 0.18639 0.87173 0.9155 0.0
C980 C 0.19858 0.85727 0.89585 0.0
C981 C 0.22582 0.85675 0.89513 0.0
C982 C 0.23986 0.87037 0.91471 0.0
H983 H 0.1921 0.89701 0.9489 0.0
O984 O 0.23214 0.84916 0.00781 0.0
O985 O 0.25445 0.873 0.98026 0.0
O986 O 0.22574 0.9052 0.01605 0.0
O987 O 0.22611 0.92038 0.97533 0.0
C988 C 0.23959 0.84346 0.87562 0.0
C989 C 0.26704 0.84394 0.87601 0.0
H990 H 0.31974 0.84837 0.88377 0.0
H991 H 0.34115 0.87276 0.92048 0.0
H992 H 0.16538 0.87264 0.91593 0.0
H993 H 0.18686 0.84693 0.88123 0.0
H994 H 0.22927 0.83282 0.86019 0.0
H995 H 0.2774 0.8335 0.861 0.0
Mn996 Mn 0.14659 0.50154 0.25878 0.0
Mn997 Mn 0.11919 0.56065 0.25527 0.0
C998 C 0.16875 0.53614 0.2386 0.0
C999 C 0.17162 0.4707 0.28067 0.0
C1000 C 0.10276 0.51433 0.22056 0.0
O1001 O 0.11856 0.49968 0.28695 0.0
O1002 O 0.10336 0.54047 0.28444 0.0
C1003 C 0.13826 0.58332 0.30543 0.0
N1004 N 0.13641 0.58455 0.27907 0.0
C1005 C 0.15996 0.62585 0.27891 0.0
C1006 C 0.16195 0.62511 0.30606 0.0
C1007 C 0.15118 0.60367 0.31935 0.0
C1008 C 0.14709 0.60487 0.26605 0.0
H1009 H 0.12995 0.56693 0.31577 0.0
C1010 C 0.10429 0.51808 0.2952 0.0
O1011 O 0.15452 0.464 0.263 0.0
O1012 O 0.17436 0.49561 0.28525 0.0
N1013 N 0.13303 0.58256 0.22857 0.0
C1014 C 0.12969 0.5802 0.20234 0.0
C1015 C 0.13993 0.59974 0.18618 0.0
C1016 C 0.15309 0.6217 0.19714 0.0
C1017 C 0.15579 0.62399 0.22419 0.0
C1018 C 0.14522 0.60387 0.23933 0.0
H1019 H 0.11943 0.56348 0.19375 0.0
O1020 O 0.17436 0.51209 0.23325 0.0
O1021 O 0.15017 0.53913 0.25534 0.0
O1022 O 0.11885 0.49842 0.22989 0.0
O1023 O 0.10073 0.53775 0.22915 0.0
C1024 C 0.16852 0.64547 0.23674 0.0
C1025 C 0.17056 0.64642 0.26408 0.0
H1026 H 0.17187 0.64079 0.31688 0.0
H1027 H 0.15276 0.60288 0.34029 0.0
H1028 H 0.13764 0.59789 0.16531 0.0
H1029 H 0.1609 0.63674 0.18459 0.0
H1030 H 0.17695 0.66128 0.22554 0.0
H1031 H 0.18063 0.66291 0.27349 0.0
Mn1032 Mn 0.76022 0.62382 0.01242 0.0
Mn1033 Mn 0.7081 0.64641 0.98141 0.0
C1034 C 0.72174 0.59882 0.01173 0.0
C1035 C 0.79965 0.60219 0.01215 0.0
C1036 C 0.72964 0.66959 0.03227 0.0
O1037 O 0.77469 0.65343 0.98949 0.0
O1038 O 0.73975 0.65964 0.96364 0.0
C1039 C 0.711 0.61993 0.93002 0.0
N1040 N 0.69772 0.62487 0.95231 0.0
C1041 C 0.65989 0.60087 0.93625 0.0
C1042 C 0.6732 0.59539 0.91316 0.0
C1043 C 0.69892 0.60488 0.91009 0.0
C1044 C 0.67307 0.61565 0.95556 0.0
H1045 H 0.73062 0.62748 0.92749 0.0
C1046 C 0.76371 0.66364 0.96984 0.0
O1047 O 0.79456 0.61972 0.0297 0.0
O1048 O 0.7822 0.5976 0.99418 0.0
N1049 N 0.67611 0.63462 0.99688 0.0
C1050 C 0.66675 0.63968 0.0211 0.0
C1051 C 0.64126 0.63153 0.02739 0.0
C1052 C 0.62574 0.618 0.00879 0.0
C1053 C 0.63603 0.61233 0.98424 0.0
C1054 C 0.66152 0.62106 0.97906 0.0
H1055 H 0.67881 0.64935 0.03572 0.0
O1056 O 0.73975 0.59444 0.02875 0.0
O1057 O 0.72723 0.61726 0.99542 0.0
O1058 O 0.74408 0.65046 0.03722 0.0
O1059 O 0.71695 0.67073 0.01098 0.0
C1060 C 0.62206 0.59823 0.96476 0.0
C1061 C 0.63404 0.5923 0.94085 0.0
H1062 H 0.66388 0.58393 0.89768 0.0
H1063 H 0.70932 0.60076 0.89232 0.0
H1064 H 0.63369 0.63544 0.0466 0.0
H1065 H 0.60614 0.61158 0.01376 0.0
H1066 H 0.60222 0.59145 0.96814 0.0
H1067 H 0.62325 0.581 0.9262 0.0
Mn1068 Mn 0.87576 0.0141 0.25841 0.0
Mn1069 Mn 0.89781 0.95249 0.25469 0.0
C1070 C 0.85017 0.98056 0.23952 0.0
C1071 C 0.85222 0.0477 0.27752 0.0
C1072 C 0.91752 0.99638 0.22024 0.0
O1073 O 0.90452 0.01459 0.28609 0.0
O1074 O 0.9164 0.97244 0.28301 0.0
C1075 C 0.87981 0.93289 0.30555 0.0
N1076 N 0.87974 0.93095 0.27912 0.0
C1077 C 0.85283 0.89171 0.27995 0.0
C1078 C 0.85279 0.8932 0.30717 0.0
C1079 C 0.86621 0.91397 0.32001 0.0
C1080 C 0.86658 0.91125 0.26657 0.0
H1081 H 0.89023 0.9487 0.31555 0.0
C1082 C 0.91791 0.99533 0.29355 0.0
O1083 O 0.87121 0.05245 0.26164 0.0
O1084 O 0.84847 0.02356 0.28424 0.0
N1085 N 0.88074 0.93097 0.22856 0.0
C1086 C 0.88294 0.93209 0.20225 0.0
C1087 C 0.86959 0.91343 0.1865 0.0
C1088 C 0.85467 0.89336 0.19798 0.0
C1089 C 0.85349 0.89199 0.22512 0.0
C1090 C 0.86697 0.91134 0.23981 0.0
H1091 H 0.89492 0.94699 0.19335 0.0
O1092 O 0.84679 1.0047 0.23332 0.0
O1093 O 0.86907 0.9768 0.25572 0.0
O1094 O 0.90289 0.01383 0.22947 0.0
O1095 O 0.91743 0.97288 0.22822 0.0
C1096 C 0.83958 0.87211 0.23817 0.0
C1097 C 0.8394 0.87186 0.26556 0.0
H1098 H 0.84232 0.87864 0.31839 0.0
H1099 H 0.86615 0.91533 0.34101 0.0
H1100 H 0.87095 0.91441 0.16557 0.0
H1101 H 0.84444 0.87896 0.18578 0.0
H1102 H 0.82891 0.85692 0.22733 0.0
H1103 H 0.82852 0.85655 0.27538 0.0
Mn1104 Mn 0.26084 0.12161 0.51104 0.0
Mn1105 Mn 0.20722 0.14683 0.48372 0.0
C1106 C 0.22082 0.09887 0.51279 0.0
C1107 C 0.29818 0.09667 0.5091 0.0
C1108 C 0.23105 0.16723 0.53445 0.0
O1109 O 0.27611 0.14941 0.48692 0.0
O1110 O 0.23916 0.16192 0.4672 0.0
C1111 C 0.21123 0.12392 0.43072 0.0
N1112 N 0.19761 0.12713 0.4531 0.0
C1113 C 0.16092 0.10233 0.43553 0.0
C1114 C 0.17466 0.09859 0.41236 0.0
C1115 C 0.19998 0.10937 0.40999 0.0
C1116 C 0.17337 0.11658 0.4557 0.0
H1117 H 0.23045 0.13251 0.42871 0.0
C1118 C 0.26397 0.16274 0.4702 0.0
O1119 O 0.29563 0.1151 0.52638 0.0
O1120 O 0.27951 0.09324 0.49218 0.0
N1121 N 0.17497 0.13398 0.49773 0.0
C1122 C 0.16416 0.13974 0.5212 0.0
C1123 C 0.13867 0.13085 0.52651 0.0
C1124 C 0.12437 0.11657 0.5075 0.0
C1125 C 0.13572 0.11128 0.48334 0.0
C1126 C 0.16125 0.12051 0.4792 0.0
H1127 H 0.17487 0.15107 0.53577 0.0
O1128 O 0.23929 0.09409 0.52917 0.0
O1129 O 0.22634 0.11687 0.49604 0.0
O1130 O 0.24881 0.15043 0.53594 0.0
O1131 O 0.21492 0.16794 0.51555 0.0
C1132 C 0.12257 0.09753 0.46309 0.0
C1133 C 0.13527 0.09272 0.43932 0.0
H1134 H 0.16593 0.0876 0.39623 0.0
H1135 H 0.21069 0.10667 0.39214 0.0
H1136 H 0.13002 0.1351 0.54518 0.0
H1137 H 0.10468 0.10978 0.51164 0.0
H1138 H 0.10272 0.0904 0.46566 0.0
H1139 H 0.12506 0.08179 0.42402 0.0
Mn1140 Mn 0.37577 0.51226 0.75775 0.0
Mn1141 Mn 0.39787 0.45066 0.75453 0.0
C1142 C 0.35037 0.47864 0.7388 0.0
C1143 C 0.35189 0.54574 0.77662 0.0
C1144 C 0.41782 0.49435 0.71995 0.0
O1145 O 0.40437 0.51295 0.78561 0.0
O1146 O 0.41635 0.47083 0.78279 0.0
C1147 C 0.37952 0.43155 0.80545 0.0
N1148 N 0.37962 0.42936 0.77904 0.0
C1149 C 0.35238 0.39036 0.78003 0.0
C1150 C 0.35214 0.39211 0.80724 0.0
C1151 C 0.36565 0.41288 0.81999 0.0
C1152 C 0.3664 0.40964 0.76657 0.0
H1153 H 0.38997 0.44739 0.81538 0.0
C1154 C 0.4178 0.49377 0.79319 0.0
O1155 O 0.37094 0.5506 0.76083 0.0
O1156 O 0.3483 0.52162 0.7834 0.0
N1157 N 0.38094 0.42893 0.72849 0.0
C1158 C 0.38337 0.42976 0.70218 0.0
C1159 C 0.37001 0.41104 0.68651 0.0
C1160 C 0.35484 0.39121 0.69806 0.0
C1161 C 0.35345 0.39011 0.72521 0.0
C1162 C 0.36697 0.40949 0.73981 0.0
H1163 H 0.39555 0.44446 0.69324 0.0
O1164 O 0.34701 0.50275 0.73249 0.0
O1165 O 0.36915 0.47496 0.75516 0.0
O1166 O 0.40316 0.51188 0.729 0.0
O1167 O 0.41762 0.47088 0.72802 0.0
C1168 C 0.33927 0.37047 0.73834 0.0
C1169 C 0.33889 0.37049 0.76574 0.0
H1170 H 0.34146 0.37775 0.81853 0.0
H1171 H 0.36543 0.41445 0.84098 0.0
H1172 H 0.37155 0.4118 0.66557 0.0
H1173 H 0.34459 0.37677 0.68592 0.0
H1174 H 0.32856 0.35527 0.72756 0.0
H1175 H 0.3278 0.35537 0.77562 0.0
Mn1176 Mn 0.75304 0.38171 0.51733 0.0
Mn1177 Mn 0.75599 0.39902 0.45425 0.0
C1178 C 0.73634 0.35363 0.48492 0.0
C1179 C 0.76918 0.36112 0.55431 0.0
C1180 C 0.71896 0.42347 0.49307 0.0
O1181 O 0.78168 0.41068 0.51735 0.0
O1182 O 0.78371 0.41833 0.47417 0.0
C1183 C 0.80702 0.37825 0.43929 0.0
N1184 N 0.78078 0.37891 0.4357 0.0
C1185 C 0.783 0.35151 0.39739 0.0
C1186 C 0.81008 0.35067 0.40058 0.0
C1187 C 0.8221 0.36394 0.42173 0.0
C1188 C 0.76898 0.36597 0.41559 0.0
H1189 H 0.81638 0.38869 0.45534 0.0
C1190 C 0.79178 0.42197 0.49757 0.0
O1191 O 0.75284 0.37988 0.5561 0.0
O1192 O 0.77758 0.35553 0.53119 0.0
N1193 N 0.73037 0.38103 0.43289 0.0
C1194 C 0.70394 0.38158 0.43417 0.0
C1195 C 0.68878 0.36812 0.41522 0.0
C1196 C 0.70095 0.35395 0.39534 0.0
C1197 C 0.72818 0.35312 0.39478 0.0
C1198 C 0.74225 0.367 0.41415 0.0
H1199 H 0.69453 0.39145 0.45003 0.0
O1200 O 0.72805 0.35188 0.50864 0.0
O1201 O 0.75354 0.37218 0.48089 0.0
O1202 O 0.72471 0.40877 0.51192 0.0
O1203 O 0.72984 0.42154 0.47093 0.0
C1204 C 0.7419 0.33873 0.37602 0.0
C1205 C 0.76931 0.33807 0.37721 0.0
H1206 H 0.82177 0.33963 0.38709 0.0
H1207 H 0.84297 0.36327 0.4244 0.0
H1208 H 0.66775 0.36835 0.41617 0.0
H1209 H 0.68919 0.34342 0.38088 0.0
H1210 H 0.73155 0.32782 0.36078 0.0
H1211 H 0.77962 0.32667 0.36288 0.0
Mn1212 Mn 0.6472 1.00247 0.75685 0.0
Mn1213 Mn 0.62165 0.06258 0.75453 0.0
C1214 C 0.66978 0.03646 0.73595 0.0
C1215 C 0.67331 0.97075 0.77509 0.0
C1216 C 0.60212 0.01664 0.7208 0.0
O1217 O 0.6201 1.00142 0.78609 0.0
O1218 O 0.60617 0.04274 0.78396 0.0
C1219 C 0.6426 0.08455 0.80423 0.0
N1220 N 0.64026 0.08585 0.77791 0.0
C1221 C 0.6643 0.12686 0.77738 0.0
C1222 C 0.66683 0.12603 0.80449 0.0
C1223 C 0.65608 0.10469 0.81794 0.0
C1224 C 0.65096 0.10605 0.76474 0.0
H1225 H 0.63421 0.0683 0.81471 0.0
C1226 C 0.60641 0.02025 0.79455 0.0
O1227 O 0.65389 0.96456 0.75983 0.0
O1228 O 0.6764 0.9953 0.78147 0.0
N1229 N 0.63535 0.08426 0.72755 0.0
C1230 C 0.63096 0.08236 0.70147 0.0
C1231 C 0.64132 0.10164 0.6851 0.0
C1232 C 0.65538 0.12316 0.69579 0.0
C1233 C 0.65888 0.12523 0.72278 0.0
C1234 C 0.64841 0.10519 0.73808 0.0
H1235 H 0.61923 0.06654 0.69324 0.0
O1236 O 0.67417 0.0122 0.73028 0.0
O1237 O 0.65195 0.04004 0.75344 0.0
O1238 O 0.61834 1.00036 0.72911 0.0
O1239 O 0.60136 0.04029 0.72909 0.0
C1240 C 0.67215 0.14651 0.7351 0.0
C1241 C 0.67478 0.14738 0.7624 0.0
H1242 H 0.67714 0.14158 0.81514 0.0
H1243 H 0.65806 0.10385 0.83885 0.0
H1244 H 0.63813 0.10012 0.66433 0.0
H1245 H 0.66305 0.13817 0.68313 0.0
H1246 H 0.68048 0.16228 0.72378 0.0
H1247 H 0.6852 0.16373 0.77164 0.0
Mn1248 Mn 0.00955 0.25188 0.87467 0.0
Mn1249 Mn 0.9493 0.25291 0.90076 0.0
C1250 C 0.97436 0.23034 0.8535 0.0
C1251 C 0.0422 0.26833 0.84745 0.0
C1252 C 0.99248 0.21968 0.92162 0.0
O1253 O 0.01251 0.28314 0.90021 0.0
O1254 O 0.97078 0.28331 0.91385 0.0
C1255 C 0.9313 0.30055 0.87511 0.0
N1256 N 0.92822 0.27458 0.87984 0.0
C1257 C 0.89009 0.27133 0.85251 0.0
C1258 C 0.89304 0.298 0.84716 0.0
C1259 C 0.91375 0.31267 0.85853 0.0
C1260 C 0.90847 0.26026 0.86886 0.0
H1261 H 0.947 0.31189 0.88393 0.0
C1262 C 0.99404 0.29301 0.91337 0.0
O1263 O 0.04753 0.25391 0.86714 0.0
O1264 O 0.0181 0.27459 0.84453 0.0
N1265 N 0.92624 0.22486 0.88961 0.0
C1266 C 0.92521 0.19978 0.89809 0.0
C1267 C 0.90434 0.18304 0.89044 0.0
C1268 C 0.88464 0.1923 0.87433 0.0
C1269 C 0.88604 0.21818 0.8659 0.0
C1270 C 0.907 0.23411 0.87463 0.0
H1271 H 0.94003 0.19263 0.91084 0.0
O1272 O 0.99807 0.22354 0.84906 0.0
O1273 O 0.9721 0.24887 0.87074 0.0
O1274 O 0.00937 0.22616 0.90469 0.0
O1275 O 0.96971 0.2291 0.92264 0.0
C1276 C 0.86733 0.22885 0.84938 0.0
C1277 C 0.86955 0.25534 0.84241 0.0
H1278 H 0.87943 0.30744 0.83452 0.0
H1279 H 0.91612 0.3333 0.85461 0.0
H1280 H 0.90341 0.16308 0.897 0.0
H1281 H 0.86862 0.1793 0.86839 0.0
H1282 H 0.85116 0.21687 0.84194 0.0
H1283 H 0.8551 0.26332 0.82963 0.0
Mn1284 Mn 0.51099 0.74985 0.37511 0.0
Mn1285 Mn 0.45054 0.75494 0.39986 0.0
C1286 C 0.4753 0.72951 0.35391 0.0
C1287 C 0.54496 0.76429 0.34838 0.0
C1288 C 0.49033 0.71833 0.42147 0.0
O1289 O 0.51545 0.78125 0.40004 0.0
O1290 O 0.47431 0.78264 0.41488 0.0
C1291 C 0.43968 0.80506 0.3746 0.0
N1292 N 0.43307 0.77954 0.3789 0.0
C1293 C 0.39647 0.78128 0.34969 0.0
C1294 C 0.40285 0.80758 0.34504 0.0
C1295 C 0.42459 0.8195 0.35752 0.0
C1296 C 0.41249 0.76777 0.36661 0.0
H1297 H 0.45641 0.81429 0.38402 0.0
C1298 C 0.49784 0.79143 0.41405 0.0
O1299 O 0.54915 0.74978 0.36831 0.0
O1300 O 0.52126 0.77149 0.34477 0.0
N1301 N 0.42485 0.73 0.38731 0.0
C1302 C 0.41995 0.70533 0.39592 0.0
C1303 C 0.39753 0.6914 0.38727 0.0
C1304 C 0.38024 0.70305 0.37006 0.0
C1305 C 0.38544 0.7286 0.36179 0.0
C1306 C 0.40771 0.74176 0.37165 0.0
H1307 H 0.4329 0.69642 0.40952 0.0
O1308 O 0.49869 0.72147 0.35007 0.0
O1309 O 0.47358 0.74889 0.37035 0.0
O1310 O 0.5085 0.72495 0.40586 0.0
O1311 O 0.46771 0.72823 0.42122 0.0
C1312 C 0.36908 0.74172 0.34463 0.0
C1313 C 0.37479 0.76796 0.33831 0.0
H1314 H 0.39116 0.81883 0.33199 0.0
H1315 H 0.42969 0.83978 0.35398 0.0
H1316 H 0.39357 0.67174 0.39386 0.0
H1317 H 0.36304 0.69219 0.36331 0.0
H1318 H 0.35198 0.73188 0.33631 0.0
H1319 H 0.3621 0.77786 0.32507 0.0
Mn1320 Mn 0.01288 0.76115 0.62892 0.0
Mn1321 Mn 0.99781 0.70519 0.6602 0.0
C1322 C 0.01314 0.72125 0.60632 0.0
C1323 C 1.00252 0.79741 0.60442 0.0
C1324 C 0.04851 0.73644 0.66849 0.0
O1325 O 0.99296 0.77366 0.66111 0.0
O1326 O 0.98022 0.73469 0.67775 0.0
C1327 C 0.94087 0.69888 0.65243 0.0
N1328 N 0.96527 0.68968 0.64916 0.0
C1329 C 0.94813 0.64833 0.63286 0.0
C1330 C 0.92282 0.65737 0.63601 0.0
C1331 C 0.9192 0.68282 0.64566 0.0
C1332 C 0.96898 0.6653 0.6397 0.0
H1333 H 0.93796 0.71826 0.66028 0.0
C1334 C 0.97993 0.75971 0.67725 0.0
O1335 O 0.02312 0.79732 0.61898 0.0
O1336 O 0.98694 0.77698 0.60508 0.0
N1337 N 0.01321 0.67538 0.64428 0.0
C1338 C 0.03885 0.67008 0.64142 0.0
C1339 C 0.04586 0.64616 0.63012 0.0
C1340 C 0.02644 0.62775 0.62237 0.0
C1341 C 1.00017 0.63351 0.62584 0.0
C1342 C 0.99437 0.65788 0.63672 0.0
H1343 H 0.05382 0.684 0.64767 0.0
O1344 O 0.02678 0.74128 0.59835 0.0
O1345 O 1.0005 0.72499 0.62786 0.0
O1346 O 0.04488 0.75328 0.6511 0.0
O1347 O 0.03181 0.71851 0.67397 0.0
C1348 C 0.9795 0.61604 0.61891 0.0
C1349 C 0.9535 0.62332 0.62272 0.0
H1350 H 0.90605 0.64503 0.63085 0.0
H1351 H 0.89973 0.68996 0.64811 0.0
H1352 H 0.06619 0.64185 0.62757 0.0
H1353 H 0.03192 0.60924 0.61383 0.0
H1354 H 0.98337 0.597 0.61056 0.0
H1355 H 0.93777 0.60979 0.61719 0.0
Mn1356 Mn 0.51114 0.25994 0.1288 0.0
Mn1357 Mn 0.49115 0.20479 0.15926 0.0
C1358 C 0.51074 0.21983 0.10652 0.0
C1359 C 0.50392 0.29645 0.10345 0.0
C1360 C 0.54347 0.23248 0.16978 0.0
O1361 O 0.49021 0.27408 0.15942 0.0
O1362 O 0.47657 0.23593 0.17702 0.0
C1363 C 0.43423 0.20527 0.15015 0.0
N1364 N 0.45732 0.19308 0.14765 0.0
C1365 C 0.43574 0.15379 0.13131 0.0
C1366 C 0.41175 0.16595 0.13363 0.0
C1367 C 0.41102 0.19187 0.14292 0.0
C1368 C 0.45826 0.16827 0.13844 0.0
H1369 H 0.43348 0.22499 0.15775 0.0
C1370 C 0.47701 0.26092 0.17596 0.0
O1371 O 0.52371 0.29554 0.11905 0.0
O1372 O 0.4875 0.27667 0.10333 0.0
N1373 N 0.50312 0.17319 0.14355 0.0
C1374 C 0.52785 0.16468 0.14139 0.0
C1375 C 0.53216 0.13981 0.13065 0.0
C1376 C 0.51091 0.12365 0.12285 0.0
C1377 C 0.48555 0.1326 0.12572 0.0
C1378 C 0.48254 0.15783 0.13599 0.0
H1379 H 0.54407 0.17677 0.14789 0.0
O1380 O 0.52591 0.23911 0.09941 0.0
O1381 O 0.49682 0.22434 0.12711 0.0
O1382 O 0.54104 0.25058 0.15336 0.0
O1383 O 0.52618 0.21448 0.17323 0.0
C1384 C 0.46315 0.11751 0.1188 0.0
C1385 C 0.43823 0.12801 0.12182 0.0
H1386 H 0.39379 0.15563 0.12819 0.0
H1387 H 0.39258 0.2014 0.14477 0.0
H1388 H 0.55181 0.13301 0.12865 0.0
H1389 H 0.51427 0.10438 0.11477 0.0
H1390 H 0.46486 0.09788 0.11095 0.0
H1391 H 0.42116 0.11632 0.11619 0.0
C1392 C 0.20712 0.80101 0.93871 0.0
C1393 C 0.22921 0.79278 0.92457 0.0
C1394 C 0.25745 0.82055 0.95265 0.0
C1395 C 0.23516 0.83185 0.96397 0.0
N1396 N 0.18849 0.83345 0.96744 0.0
N1397 N 0.2752 0.7976 0.91563 0.0
C1398 C 0.20988 0.82213 0.95702 0.0
C1399 C 0.25434 0.8033 0.93093 0.0
N1400 N 0.18376 0.78786 0.93552 0.0
N1401 N 0.28161 0.82547 0.9632 0.0
H1402 H 0.27362 0.78635 0.8986 0.0
H1403 H 0.29361 0.8063 0.91816 0.0
H1404 H 0.28485 0.83729 0.97961 0.0
H1405 H 0.29812 0.81564 0.95742 0.0
H1406 H 0.16759 0.79113 0.94711 0.0
H1407 H 0.18113 0.77189 0.92284 0.0
H1408 H 0.16957 0.82949 0.96085 0.0
H1409 H 0.18979 0.84838 0.98142 0.0
C1410 C 0.08713 0.50913 0.36709 0.0
C1411 C 0.06138 0.51849 0.36729 0.0
C1412 C 0.0621 0.51952 0.31963 0.0
C1413 C 0.08909 0.51459 0.31971 0.0
N1414 N 0.12838 0.50819 0.34458 0.0
N1415 N 0.02588 0.53696 0.34339 0.0
C1416 C 0.10192 0.51005 0.34371 0.0
C1417 C 0.04917 0.52472 0.34343 0.0
N1418 N 0.09735 0.49898 0.38916 0.0
N1419 N 0.04863 0.51858 0.29673 0.0
H1420 H 0.01609 0.54218 0.3603 0.0
H1421 H 0.01757 0.5443 0.32663 0.0
H1422 H 0.05749 0.51334 0.27935 0.0
H1423 H 0.02846 0.51977 0.29556 0.0
H1424 H 0.11503 0.48955 0.38954 0.0
H1425 H 0.08693 0.49766 0.40646 0.0
H1426 H 0.13892 0.50787 0.3619 0.0
H1427 H 0.14014 0.50926 0.32818 0.0
C1428 C 0.79323 0.72652 0.94311 0.0
C1429 C 0.79168 0.72026 0.91616 0.0
C1430 C 0.78212 0.67444 0.92663 0.0
C1431 C 0.77868 0.68176 0.95299 0.0
N1432 N 0.77947 0.71519 0.98656 0.0
N1433 N 0.78219 0.68839 0.88196 0.0
C1434 C 0.78423 0.70785 0.96143 0.0
C1435 C 0.78584 0.69415 0.90777 0.0
N1436 N 0.80352 0.75021 0.95116 0.0
N1437 N 0.78177 0.64857 0.91972 0.0
H1438 H 0.784 0.70228 0.86747 0.0
H1439 H 0.77513 0.67029 0.87507 0.0
H1440 H 0.77949 0.63384 0.93339 0.0
H1441 H 0.78639 0.64178 0.90117 0.0
H1442 H 0.80739 0.75498 0.97057 0.0
H1443 H 0.81055 0.76417 0.93822 0.0
H1444 H 0.78009 0.73456 0.99308 0.0
H1445 H 0.77322 0.70201 1.00058 0.0
C1446 C 0.97687 0.98854 0.33773 0.0
C1447 C 0.96731 0.99831 0.36168 0.0
C1448 C 0.92526 0.00663 0.34106 0.0
C1449 C 0.93542 0.99863 0.3166 0.0
N1450 N 0.97245 0.98633 0.2909 0.0
N1451 N 0.93449 0.02133 0.3853 0.0
C1452 C 0.96173 0.99092 0.31474 0.0
C1453 C 0.94215 0.00888 0.36305 0.0
N1454 N 0.99997 0.97593 0.3371 0.0
N1455 N 0.89916 0.01033 0.34382 0.0
H1456 H 0.94624 0.02305 0.40186 0.0
H1457 H 0.91752 0.03191 0.38657 0.0
H1458 H 0.8858 0.00796 0.32863 0.0
H1459 H 0.89031 0.01332 0.36175 0.0
H1460 H 0.00648 0.96564 0.32089 0.0
H1461 H 0.01175 0.97387 0.35345 0.0
H1462 H 0.99226 0.98369 0.28806 0.0
H1463 H 0.96197 0.98733 0.27361 0.0
C1464 C 0.2226 0.23254 0.5701 0.0
C1465 C 0.2252 0.22502 0.59635 0.0
C1466 C 0.22849 0.17929 0.58219 0.0
C1467 C 0.22899 0.18714 0.5558 0.0
N1468 N 0.23172 0.22241 0.52509 0.0
N1469 N 0.23544 0.19197 0.6273 0.0
C1470 C 0.22742 0.2141 0.54985 0.0
C1471 C 0.22955 0.19859 0.60238 0.0
N1472 N 0.21478 0.2571 0.56445 0.0
N1473 N 0.22574 0.15345 0.5881 0.0
H1474 H 0.23652 0.20554 0.64263 0.0
H1475 H 0.2416 0.1735 0.63229 0.0
H1476 H 0.22407 0.13866 0.57404 0.0
H1477 H 0.22243 0.14689 0.60688 0.0
H1478 H 0.2098 0.26273 0.54576 0.0
H1479 H 0.21084 0.27112 0.57873 0.0
H1480 H 0.23371 0.24206 0.52035 0.0
H1481 H 0.23591 0.20986 0.50965 0.0
C1482 C 0.47796 0.52035 0.68404 0.0
C1483 C 0.47216 0.51118 0.6584 0.0
C1484 C 0.42911 0.49543 0.67257 0.0
C1485 C 0.43601 0.50164 0.69868 0.0
N1486 N 0.46648 0.52056 0.72981 0.0
N1487 N 0.44372 0.48716 0.6286 0.0
C1488 C 0.46032 0.51432 0.70457 0.0
C1489 C 0.44814 0.49792 0.65276 0.0
N1490 N 0.4999 0.53555 0.68852 0.0
N1491 N 0.40393 0.48853 0.66651 0.0
H1492 H 0.45707 0.48878 0.61346 0.0
H1493 H 0.42781 0.4748 0.62416 0.0
H1494 H 0.38936 0.48789 0.68049 0.0
H1495 H 0.39697 0.4862 0.64756 0.0
H1496 H 0.50409 0.54515 0.70608 0.0
H1497 H 0.51333 0.54006 0.67401 0.0
H1498 H 0.48497 0.52672 0.73607 0.0
H1499 H 0.45307 0.51873 0.74485 0.0
C1500 C 0.80742 0.31896 0.60092 0.0
C1501 C 0.78795 0.31186 0.61926 0.0
C1502 C 0.75586 0.33537 0.5939 0.0
C1503 C 0.77588 0.34497 0.57724 0.0
N1504 N 0.82188 0.35024 0.56886 0.0
N1505 N 0.74509 0.31895 0.63646 0.0
C1506 C 0.80204 0.33802 0.5819 0.0
C1507 C 0.76263 0.32186 0.61677 0.0
N1508 N 0.8307 0.30672 0.60084 0.0
N1509 N 0.73025 0.33749 0.58719 0.0
H1510 H 0.74949 0.30971 0.65378 0.0
H1511 H 0.72724 0.32809 0.63667 0.0
H1512 H 0.72412 0.34544 0.56979 0.0
H1513 H 0.71513 0.32851 0.59748 0.0
H1514 H 0.84448 0.30921 0.58624 0.0
H1515 H 0.83521 0.29214 0.61387 0.0
H1516 H 0.84145 0.34773 0.57329 0.0
H1517 H 0.81883 0.365 0.55558 0.0
C1518 C 0.57556 0.00789 0.65178 0.0
C1519 C 0.55184 0.99391 0.65611 0.0
C1520 C 0.5602 0.99578 0.70328 0.0
C1521 C 0.58476 0.00826 0.69867 0.0
N1522 N 0.61821 0.02054 0.6683 0.0
N1523 N 0.52229 0.97206 0.68533 0.0
C1524 C 0.59306 0.01277 0.67283 0.0
C1525 C 0.54425 0.98727 0.68174 0.0
N1526 N 0.58116 0.01704 0.62757 0.0
N1527 N 0.55224 0.99203 0.72825 0.0
H1528 H 0.51002 0.96597 0.67006 0.0
H1529 H 0.51692 0.96418 0.70307 0.0
H1530 H 0.56433 0.99613 0.7442 0.0
H1531 H 0.53348 0.9859 0.7333 0.0
H1532 H 0.59676 0.02984 0.62383 0.0
H1533 H 0.5689 0.01377 0.61156 0.0
H1534 H 0.62642 0.02142 0.64986 0.0
H1535 H 0.63151 0.02379 0.68333 0.0
C1536 C 0.93258 0.23607 0.79275 0.0
C1537 C 0.91581 0.21359 0.79402 0.0
C1538 C 0.94148 0.19941 0.83148 0.0
C1539 C 0.95381 0.22448 0.83351 0.0
N1540 N 0.95788 0.26849 0.81702 0.0
N1541 N 0.9019 0.17586 0.81888 0.0
C1542 C 0.94817 0.24347 0.81462 0.0
C1543 C 0.91971 0.1956 0.81447 0.0
N1544 N 0.93535 0.24927 0.77005 0.0
N1545 N 0.95016 0.17939 0.84601 0.0
H1546 H 0.88361 0.17487 0.81006 0.0
H1547 H 0.90381 0.16243 0.83368 0.0
H1548 H 0.96551 0.1818 0.85916 0.0
H1549 H 0.94347 0.16011 0.84342 0.0
H1550 H 0.94899 0.26452 0.76772 0.0
H1551 H 0.92668 0.24275 0.75267 0.0
H1552 H 0.95197 0.28337 0.80493 0.0
H1553 H 0.96986 0.275 0.83226 0.0
C1554 C 0.50503 0.86314 0.43422 0.0
C1555 C 0.49805 0.86104 0.46082 0.0
C1556 C 0.50241 0.81354 0.45732 0.0
C1557 C 0.50392 0.81531 0.42999 0.0
N1558 N 0.50633 0.84179 0.39179 0.0
N1559 N 0.48757 0.83347 0.49727 0.0
C1560 C 0.50556 0.84015 0.41824 0.0
C1561 C 0.49643 0.83604 0.47242 0.0
N1562 N 0.51144 0.88707 0.42437 0.0
N1563 N 0.50694 0.79025 0.46874 0.0
H1564 H 0.48209 0.84924 0.50886 0.0
H1565 H 0.48344 0.81543 0.5056 0.0
H1566 H 0.51254 0.77397 0.45789 0.0
H1567 H 0.50817 0.78801 0.48879 0.0
H1568 H 0.51892 0.88965 0.4058 0.0
H1569 H 0.51165 0.90417 0.4357 0.0
H1570 H 0.50428 0.85921 0.38193 0.0
H1571 H 0.50752 0.82541 0.37959 0.0
C1572 C 0.09962 0.26251 0.80127 0.0
C1573 C 0.09881 0.28652 0.78801 0.0
C1574 C 0.06402 0.30052 0.8172 0.0
C1575 C 0.06222 0.27501 0.82761 0.0
N1576 N 0.07438 0.22971 0.82379 0.0
N1577 N 0.07701 0.32687 0.78054 0.0
C1578 C 0.079 0.25542 0.81818 0.0
C1579 C 0.08013 0.30519 0.79521 0.0
N1580 N 0.12033 0.24663 0.7982 0.0
N1581 N 0.05112 0.32052 0.82879 0.0
H1582 H 0.08798 0.33071 0.76398 0.0
H1583 H 0.06189 0.33972 0.78342 0.0
H1584 H 0.04004 0.31814 0.84555 0.0
H1585 H 0.0537 0.33995 0.82342 0.0
H1586 H 0.12289 0.2301 0.80937 0.0
H1587 H 0.13632 0.25148 0.78664 0.0
H1588 H 0.08476 0.21464 0.81527 0.0
H1589 H 0.05829 0.22302 0.83426 0.0
C1590 C 0.50387 0.65068 0.44804 0.0
C1591 C 0.50825 0.65662 0.47475 0.0
C1592 C 0.49665 0.70213 0.46718 0.0
C1593 C 0.49559 0.69694 0.43998 0.0
N1594 N 0.50211 0.66663 0.40417 0.0
N1595 N 0.51374 0.68923 0.50886 0.0
C1596 C 0.50052 0.67135 0.43031 0.0
C1597 C 0.50595 0.68271 0.4841 0.0
N1598 N 0.50163 0.62521 0.4397 0.0
N1599 N 0.48864 0.72549 0.47698 0.0
H1600 H 0.52138 0.67577 0.52159 0.0
H1601 H 0.51508 0.70842 0.51588 0.0
H1602 H 0.48181 0.74027 0.46534 0.0
H1603 H 0.48651 0.72929 0.49679 0.0
H1604 H 0.49561 0.61969 0.421 0.0
H1605 H 0.50315 0.60944 0.45211 0.0
H1606 H 0.5087 0.64918 0.39624 0.0
H1607 H 0.49887 0.68074 0.39033 0.0
C1608 C 0.91729 0.78697 0.70402 0.0
C1609 C 0.9233 0.78927 0.73099 0.0
C1610 C 0.96682 0.77298 0.72259 0.0
C1611 C 0.96171 0.77257 0.69547 0.0
N1612 N 0.93353 0.78382 0.65993 0.0
N1613 N 0.95637 0.79223 0.76434 0.0
C1614 C 0.93754 0.78147 0.68604 0.0
C1615 C 0.94901 0.78496 0.73968 0.0
N1616 N 0.89206 0.78797 0.69568 0.0
N1617 N 0.98782 0.76062 0.73232 0.0
H1618 H 0.94389 0.80164 0.77715 0.0
H1619 H 0.97554 0.7915 0.77094 0.0
H1620 H 1.00036 0.75007 0.72065 0.0
H1621 H 0.99103 0.75839 0.75216 0.0
H1622 H 0.88625 0.78343 0.67668 0.0
H1623 H 0.87647 0.79102 0.70811 0.0
H1624 H 0.91739 0.79281 0.65217 0.0
H1625 H 0.94727 0.7787 0.64606 0.0
C1626 C 0.99386 0.86595 0.57839 0.0
C1627 C 1.00218 0.86219 0.55237 0.0
C1628 C 1.00393 0.8149 0.55923 0.0
C1629 C 0.99881 0.81908 0.58605 0.0
N1630 N 0.98974 0.84832 0.62178 0.0
N1631 N 0.01797 0.83373 0.51851 0.0
C1632 C 0.99391 0.84456 0.59579 0.0
C1633 C 0.0077 0.83678 0.54282 0.0
N1634 N 0.98537 0.88986 0.58625 0.0
N1635 N 0.00545 0.79001 0.54942 0.0
H1636 H 0.02109 0.8492 0.50588 0.0
H1637 H 0.02538 0.81628 0.51153 0.0
H1638 H 1.00385 0.77345 0.56085 0.0
H1639 H 0.00617 0.78557 0.52963 0.0
H1640 H 0.97664 0.89339 0.60412 0.0
H1641 H 0.98516 0.90589 0.57402 0.0
H1642 H 0.98923 0.86665 0.63077 0.0
H1643 H 0.98793 0.8329 0.63471 0.0
C1644 C 0.11795 0.73027 0.69455 0.0
C1645 C 0.11348 0.73533 0.72146 0.0
C1646 C 0.06947 0.74876 0.71079 0.0
C1647 C 0.07217 0.73902 0.68516 0.0
N1648 N 0.0989 0.71967 0.6522 0.0
N1649 N 0.08227 0.74396 0.75545 0.0
C1650 C 0.09644 0.72954 0.67684 0.0
C1651 C 0.08848 0.74313 0.72968 0.0
N1652 N 0.14275 0.72735 0.68574 0.0
N1653 N 0.04923 0.76432 0.71686 0.0
H1654 H 0.09492 0.73823 0.77005 0.0
H1655 H 0.06349 0.74745 0.762 0.0
H1656 H 0.03615 0.77035 0.70276 0.0
H1657 H 0.0475 0.77369 0.73489 0.0
H1658 H 0.14738 0.72596 0.6661 0.0
H1659 H 0.15903 0.72891 0.69789 0.0
H1660 H 0.11515 0.70969 0.64593 0.0
H1661 H 0.08397 0.72032 0.63843 0.0
C1662 C 0.97644 0.66689 0.56829 0.0
C1663 C 0.99592 0.65759 0.55109 0.0
C1664 C 0.02751 0.68749 0.57331 0.0
C1665 C 0.00728 0.69881 0.588 0.0
N1666 N 0.96025 0.7036 0.59112 0.0
N1667 N 0.03778 0.66813 0.53173 0.0
C1668 C 0.98121 0.69009 0.58294 0.0
C1669 C 0.021 0.67028 0.55207 0.0
N1670 N 0.95304 0.65393 0.57084 0.0
N1671 N 0.05296 0.69298 0.57948 0.0
H1672 H 0.03248 0.65901 0.51416 0.0
H1673 H 0.05544 0.67864 0.531 0.0
H1674 H 0.05857 0.70492 0.59527 0.0
H1675 H 0.06824 0.6834 0.57053 0.0
H1676 H 0.93775 0.66169 0.58146 0.0
H1677 H 0.94992 0.63457 0.56475 0.0
H1678 H 0.9614 0.72192 0.60027 0.0
H1679 H 0.9614 0.72192 0.60027 0.0
C1680 C 0.79935 0.92687 0.25271 0.0
C1681 C 0.78899 0.92179 0.22746 0.0
C1682 C 0.81932 0.95482 0.20968 0.0
C1683 C 0.82879 0.96067 0.23513 0.0
N1684 N 0.82127 0.95818 0.28144 0.0
N1685 N 0.78442 0.93569 0.18313 0.0
C1686 C 0.81681 0.94851 0.25685 0.0
C1687 C 0.79768 0.93708 0.20623 0.0
N1688 N 0.79329 0.91049 0.27265 0.0
N1689 N 0.83129 0.96578 0.18872 0.0
H1690 H 0.76782 0.92381 0.18016 0.0
H1691 H 0.78821 0.94823 0.1678 0.0
H1692 H 0.84658 0.97946 0.1905 0.0
H1693 H 0.82742 0.9598 0.16961 0.0
H1694 H 0.80163 0.91232 0.29108 0.0
H1695 H 0.78219 0.89327 0.27018 0.0
H1696 H 0.81097 0.95172 0.2976 0.0
H1697 H 0.8331 0.97458 0.28551 0.0
C1698 C 0.80102 0.08624 0.31441 0.0
C1699 C 0.79487 0.10543 0.2959 0.0
C1700 C 0.82478 0.08561 0.26506 0.0
C1701 C 0.83329 0.06824 0.28444 0.0
N1702 N 0.8334 0.05654 0.3297 0.0
N1703 N 0.80738 0.12796 0.25685 0.0
C1704 C 0.82259 0.06989 0.30981 0.0
C1705 C 0.80893 0.10664 0.27232 0.0
N1706 N 0.78572 0.08277 0.33577 0.0
N1707 N 0.82991 0.08111 0.23936 0.0
H1708 H 0.79667 0.14426 0.26193 0.0
H1709 H 0.81909 0.13059 0.24055 0.0
H1710 H 0.83887 0.06444 0.23238 0.0
H1711 H 0.82204 0.0922 0.22461 0.0
H1712 H 0.78786 0.06732 0.34845 0.0
H1713 H 0.76938 0.0938 0.3395 0.0
H1714 H 0.82778 0.05892 0.349 0.0
H1715 H 0.84987 0.04533 0.32734 0.0
C1716 C 0.36159 0.94842 1.00457 0.0
C1717 C 0.36007 0.97188 0.99043 0.0
C1718 C 0.31241 0.9672 0.99035 0.0
C1719 C 0.31413 0.94165 1.0005 0.0
N1720 N 0.34121 0.90662 0.01457 0.0
N1721 N 0.33408 1.00274 0.96774 0.0
C1722 C 0.33891 0.93201 0.00732 0.0
C1723 C 0.33546 0.98124 0.98304 0.0
N1724 N 0.38475 0.94189 0.01549 0.0
N1725 N 0.28859 0.97803 0.98764 0.0
H1726 H 0.35043 0.01358 0.96185 0.0
H1727 H 0.3169 0.00867 0.95913 0.0
H1728 H 0.27132 0.96811 0.99237 0.0
H1729 H 0.28609 0.99752 0.98301 0.0
H1730 H 0.38655 0.92647 0.02825 0.0
H1731 H 0.4017 0.95344 0.01376 0.0
H1732 H 0.35906 0.89772 0.01654 0.0
H1733 H 0.3254 0.89368 0.01668 0.0
C1734 C 0.2331 0.43984 0.30654 0.0
C1735 C 0.22834 0.4136 0.29798 0.0
C1736 C 0.18299 0.42373 0.28821 0.0
C1737 C 0.18889 0.45071 0.29255 0.0
N1738 N 0.21469 0.48132 0.31877 0.0
N1739 N 0.19921 0.38065 0.27903 0.0
C1740 C 0.21262 0.45806 0.30542 0.0
C1741 C 0.20331 0.40549 0.28865 0.0
N1742 N 0.25734 0.44745 0.31534 0.0
N1743 N 0.15761 0.41531 0.28585 0.0
H1744 H 0.21351 0.36662 0.27897 0.0
H1745 H 0.18231 0.37461 0.26913 0.0
H1746 H 0.14218 0.4278 0.28882 0.0
H1747 H 0.15179 0.39567 0.28481 0.0
H1748 H 0.26316 0.46687 0.31858 0.0
H1749 H 0.2723 0.4344 0.31794 0.0
H1750 H 0.23085 0.48721 0.32986 0.0
H1751 H 0.19875 0.49293 0.3223 0.0
C1752 C 0.17446 0.04516 0.48574 0.0
C1753 C 0.15453 0.04511 0.50475 0.0
C1754 C 0.17959 0.07806 0.53048 0.0
C1755 C 0.19788 0.08049 0.51001 0.0
N1756 N 0.21265 0.06666 0.46754 0.0
N1757 N 0.13596 0.06455 0.54318 0.0
C1758 C 0.19519 0.06422 0.48739 0.0
C1759 C 0.15659 0.06225 0.52669 0.0
N1760 N 0.17433 0.02601 0.46687 0.0
N1761 N 0.18407 0.09095 0.55359 0.0
H1762 H 0.11843 0.05403 0.54064 0.0
H1763 H 0.13518 0.07871 0.55788 0.0
H1764 H 0.19982 0.10388 0.55664 0.0
H1765 H 0.17311 0.08756 0.57022 0.0
H1766 H 0.18963 0.02314 0.45406 0.0
H1767 H 0.15993 0.01127 0.46544 0.0
H1768 H 0.20961 0.05831 0.44916 0.0
H1769 H 0.22964 0.0782 0.4688 0.0
C1770 C 0.71408 0.08167 0.69541 0.0
C1771 C 0.72349 0.09948 0.71493 0.0
C1772 C 0.70213 0.07264 0.74824 0.0
C1773 C 0.68909 0.05748 0.72849 0.0
N1774 N 0.68389 0.04651 0.68294 0.0
N1775 N 0.72466 0.11337 0.76001 0.0
C1776 C 0.69554 0.06162 0.70198 0.0
C1777 C 0.71715 0.09527 0.74141 0.0
N1778 N 0.72402 0.08299 0.67084 0.0
N1779 N 0.70115 0.0648 0.7735 0.0
H1780 H 0.73445 0.13088 0.7558 0.0
H1781 H 0.71896 0.11241 0.77935 0.0
H1782 H 0.69138 0.04778 0.77928 0.0
H1783 H 0.71232 0.07352 0.78836 0.0
H1784 H 0.72017 0.06897 0.65635 0.0
H1785 H 0.73817 0.09685 0.66547 0.0
H1786 H 0.68427 0.05116 0.66333 0.0
H1787 H 0.67312 0.02959 0.68684 0.0
C1788 C 0.36834 0.07411 0.50782 0.0
C1789 C 0.36521 0.04922 0.51931 0.0
C1790 C 0.31766 0.05333 0.51838 0.0
C1791 C 0.32099 0.07948 0.5099 0.0
N1792 N 0.34914 0.1154 0.49713 0.0
N1793 N 0.33738 0.01565 0.53759 0.0
C1794 C 0.34626 0.09002 0.50469 0.0
C1795 C 0.33997 0.03882 0.52486 0.0
N1796 N 0.3924 0.08221 0.49938 0.0
N1797 N 0.29317 0.04242 0.52049 0.0
H1798 H 0.35315 1.00428 0.54237 0.0
H1799 H 0.31987 0.00847 0.54509 0.0
H1800 H 0.27629 0.0527 0.51724 0.0
H1801 H 0.28947 0.02264 0.52362 0.0
H1802 H 0.39575 0.09894 0.48855 0.0
H1803 H 0.4089 0.07102 0.50141 0.0
H1804 H 0.36703 0.12538 0.49611 0.0
H1805 H 0.33338 0.12704 0.49296 0.0
C1806 C 0.65613 0.46151 0.48962 0.0
C1807 C 0.65797 0.47728 0.51242 0.0
C1808 C 0.70116 0.45983 0.52145 0.0
C1809 C 0.69962 0.44463 0.49792 0.0
N1810 N 0.67976 0.44125 0.45494 0.0
N1811 N 0.68393 0.49521 0.5478 0.0
C1812 C 0.67838 0.44839 0.48055 0.0
C1813 C 0.68095 0.47743 0.52781 0.0
N1814 N 0.63291 0.45868 0.47667 0.0
N1815 N 0.72239 0.45811 0.53737 0.0
H1816 H 0.66953 0.50822 0.55304 0.0
H1817 H 0.70122 0.49848 0.5581 0.0
H1818 H 0.73945 0.44919 0.53162 0.0
H1819 H 0.72305 0.46529 0.5564 0.0
H1820 H 0.62977 0.44512 0.46156 0.0
H1821 H 0.61606 0.46787 0.48271 0.0
H1822 H 0.69672 0.43538 0.44603 0.0
H1823 H 0.66533 0.44536 0.44145 0.0
C1824 C 0.75053 0.30084 0.43452 0.0
C1825 C 0.72511 0.29105 0.42816 0.0
C1826 C 0.70658 0.32218 0.45945 0.0
C1827 C 0.73211 0.33138 0.46618 0.0
N1828 N 0.7781 0.32269 0.46677 0.0
N1829 N 0.67963 0.28763 0.43946 0.0
C1830 C 0.75402 0.31862 0.45577 0.0
C1831 C 0.70328 0.30035 0.44204 0.0
N1832 N 0.77134 0.294 0.41967 0.0
N1833 N 0.68548 0.33472 0.46905 0.0
H1834 H 0.67666 0.27108 0.42762 0.0
H1835 H 0.66361 0.2918 0.45095 0.0
H1836 H 0.68708 0.35067 0.48188 0.0
H1837 H 0.66652 0.33087 0.46255 0.0
H1838 H 0.79009 0.30179 0.4225 0.0
H1839 H 0.76956 0.28276 0.40266 0.0
H1840 H 0.79423 0.31193 0.46163 0.0
H1841 H 0.78147 0.33466 0.48306 0.0
C1842 C 0.55108 0.02843 0.84283 0.0
C1843 C 0.56217 0.01904 0.86609 0.0
C1844 C 0.60236 0.00942 0.84243 0.0
C1845 C 0.59056 0.01701 0.81873 0.0
N1846 N 0.55146 0.02817 0.79581 0.0
N1847 N 0.59597 0.99514 0.88674 0.0
C1848 C 0.56419 0.02471 0.81879 0.0
C1849 C 0.58704 0.00772 0.86543 0.0
N1850 N 0.52872 0.04225 0.84376 0.0
N1851 N 0.62856 0.00566 0.84359 0.0
H1852 H 0.58521 0.9935 0.90381 0.0
H1853 H 0.61277 0.98425 0.88659 0.0
H1854 H 0.64086 0.00792 0.82772 0.0
H1855 H 0.63855 1.00287 0.86093 0.0
H1856 H 0.52145 0.05215 0.82791 0.0
H1857 H 0.51864 0.04596 0.86089 0.0
H1858 H 0.53149 0.03095 0.79454 0.0
H1859 H 0.56034 0.02577 0.77782 0.0
C1860 C 0.28441 0.19383 0.4078 0.0
C1861 C 0.29177 0.21947 0.41656 0.0
C1862 C 0.28684 0.20588 0.46189 0.0
C1863 C 0.27889 0.18055 0.45293 0.0
N1864 N 0.27922 0.14809 0.41879 0.0
N1865 N 0.3066 0.24811 0.45154 0.0
C1866 C 0.28067 0.17379 0.42628 0.0
C1867 C 0.29512 0.22492 0.44356 0.0
N1868 N 0.27946 0.18888 0.38205 0.0
N1869 N 0.28563 0.21193 0.48779 0.0
H1870 H 0.3131 0.26226 0.43853 0.0
H1871 H 0.31173 0.25244 0.47075 0.0
H1872 H 0.28123 0.19797 0.50175 0.0
H1873 H 0.28791 0.23085 0.49536 0.0
H1874 H 0.27127 0.17128 0.37505 0.0
H1875 H 0.28145 0.20304 0.36782 0.0
H1876 H 0.28261 0.14161 0.39985 0.0
H1877 H 0.27735 0.13312 0.43225 0.0
C1878 C 0.47705 0.48755 0.83711 0.0
C1879 C 0.46759 0.49744 0.86105 0.0
C1880 C 0.42537 0.50545 0.84061 0.0
C1881 C 0.43542 0.4973 0.81615 0.0
N1882 N 0.47236 0.48497 0.79032 0.0
N1883 N 0.4348 0.52045 0.88472 0.0
C1884 C 0.46176 0.48969 0.81419 0.0
C1885 C 0.44239 0.50791 0.86249 0.0
N1886 N 0.50022 0.47507 0.83643 0.0
N1887 N 0.39928 0.50913 0.84346 0.0
H1888 H 0.44664 0.5223 0.90121 0.0
H1889 H 0.41779 0.53096 0.88604 0.0
H1890 H 0.38586 0.50664 0.82834 0.0
H1891 H 0.39051 0.51223 0.86141 0.0
H1892 H 0.50668 0.46468 0.82026 0.0
H1893 H 0.51213 0.47321 0.85272 0.0
H1894 H 0.49217 0.48242 0.78738 0.0
H1895 H 0.46177 0.48578 0.77308 0.0
C1896 C 0.70724 0.72731 0.07572 0.0
C1897 C 0.72742 0.72788 0.09458 0.0
C1898 C 0.75136 0.69696 0.06786 0.0
C1899 C 0.72899 0.69191 0.0518 0.0
N1900 N 0.68413 0.70338 0.0419 0.0
N1901 N 0.76711 0.70984 0.1106 0.0
C1902 C 0.70652 0.70745 0.05597 0.0
C1903 C 0.74899 0.71167 0.09126 0.0
N1904 N 0.68928 0.74652 0.07588 0.0
N1905 N 0.77539 0.68928 0.06003 0.0
H1906 H 0.76588 0.71997 0.12828 0.0
H1907 H 0.78185 0.69629 0.10998 0.0
H1908 H 0.77882 0.6811 0.04174 0.0
H1909 H 0.79243 0.69443 0.07017 0.0
H1910 H 0.676 0.74897 0.06082 0.0
H1911 H 0.68934 0.76169 0.08966 0.0
H1912 H 0.6664 0.71095 0.04765 0.0
H1913 H 0.68234 0.69207 0.02512 0.0
C1914 C 0.97743 0.02244 0.18405 0.0
C1915 C 0.97123 0.0138 0.15833 0.0
C1916 C 0.9282 0.9982 0.17275 0.0
C1917 C 0.93551 1.00383 0.19888 0.0
N1918 N 0.96648 0.02197 0.22994 0.0
N1919 N 0.94212 0.99077 0.1284 0.0
C1920 C 0.95999 0.01621 0.20468 0.0
C1921 C 0.94698 1.00095 0.15273 0.0
N1922 N 0.9996 0.03729 0.18852 0.0
N1923 N 0.9029 0.99156 0.16693 0.0
H1924 H 0.95524 0.99267 0.11309 0.0
H1925 H 0.92605 0.97865 0.12392 0.0
H1926 H 0.88853 0.99065 0.1811 0.0
H1927 H 0.89566 0.98966 0.14805 0.0
H1928 H 1.00415 0.04649 0.2062 0.0
H1929 H 0.01288 0.04195 0.17391 0.0
H1930 H 0.98507 0.02789 0.23609 0.0
H1931 H 0.95323 0.01999 0.24511 0.0
C1932 C 0.29357 0.79676 0.08946 0.0
C1933 C 0.29398 0.80679 0.11536 0.0
C1934 C 0.28828 0.85084 0.09837 0.0
C1935 C 0.28358 0.84017 0.07305 0.0
N1936 N 0.27575 0.80116 0.04639 0.0
N1937 N 0.2867 0.84319 0.14462 0.0
C1938 C 0.28471 0.81263 0.06901 0.0
C1939 C 0.28998 0.83382 0.11988 0.0
N1940 N 0.30225 0.77227 0.08417 0.0
N1941 N 0.29199 0.87719 0.10185 0.0
H1942 H 0.28682 0.83127 0.16085 0.0
H1943 H 0.2812 0.86223 0.14874 0.0
H1944 H 0.29224 0.89017 0.08644 0.0
H1945 H 0.29779 0.88574 0.11954 0.0
H1946 H 0.30466 0.76509 0.0653 0.0
H1947 H 0.30972 0.76029 0.09842 0.0
H1948 H 0.27391 0.78096 0.04379 0.0
H1949 H 0.26726 0.81139 0.03142 0.0
C1950 C 0.08298 0.49556 0.15074 0.0
C1951 C 0.05565 0.4916 0.15309 0.0
C1952 C 0.05878 0.50478 0.19916 0.0
C1953 C 0.08645 0.50573 0.19757 0.0
N1954 N 0.1249 0.49698 0.17215 0.0
N1955 N 0.01824 0.48716 0.18095 0.0
C1956 C 0.09855 0.49941 0.1735 0.0
C1957 C 0.04373 0.49475 0.17771 0.0
N1958 N 0.09402 0.49699 0.12667 0.0
N1959 N 0.04673 0.51365 0.22102 0.0
H1960 H 0.00675 0.47909 0.16593 0.0
H1961 H 0.00926 0.48641 0.19903 0.0
H1962 H 0.0569 0.5207 0.23727 0.0
H1963 H 0.02671 0.51612 0.22215 0.0
H1964 H 0.11339 0.50273 0.12374 0.0
H1965 H 0.08327 0.49518 0.10947 0.0
H1966 H 0.13424 0.48962 0.15578 0.0
H1967 H 0.13732 0.49995 0.18797 0.0
C1968 C 0.43491 0.73239 0.29208 0.0
C1969 C 0.4172 0.71075 0.29458 0.0
C1970 C 0.44137 0.69849 0.33373 0.0
C1971 C 0.45467 0.72313 0.33417 0.0
N1972 N 0.46107 0.76549 0.31454 0.0
N1973 N 0.40126 0.67555 0.3218 0.0
C1974 C 0.4503 0.7408 0.31375 0.0
C1975 C 0.4199 0.69421 0.31641 0.0
N1976 N 0.43872 0.7437 0.2685 0.0
N1977 N 0.44878 0.67938 0.3501 0.0
H1978 H 0.38318 0.67452 0.31255 0.0
H1979 H 0.40219 0.66338 0.33776 0.0
H1980 H 0.46352 0.68236 0.36384 0.0
H1981 H 0.44147 0.6602 0.34871 0.0
H1982 H 0.453 0.75817 0.26539 0.0
H1983 H 0.43016 0.73621 0.25143 0.0
H1984 H 0.45615 0.77965 0.30119 0.0
H1985 H 0.47295 0.77258 0.32964 0.0
C1986 C 0.99238 0.3408 0.96937 0.0
C1987 C 0.98393 0.36363 0.95652 0.0
C1988 C 0.98819 0.3406 0.91475 0.0
C1989 C 0.99794 0.31858 0.92711 0.0
N1990 N 0.01328 0.2988 0.96588 0.0
N1991 N 0.95443 0.37079 0.92081 0.0
C1992 C 1.00135 0.3191 0.95439 0.0
C1993 C 0.97669 0.36031 0.92992 0.0
N1994 N 0.98749 0.33793 0.99522 0.0
N1995 N 0.98827 0.34198 0.88833 0.0
H1996 H 0.94073 0.37856 0.93347 0.0
H1997 H 0.94748 0.36721 0.90196 0.0
H1998 H 0.99642 0.32755 0.87661 0.0
H1999 H 0.9821 0.35849 0.87868 0.0
H2000 H 0.99118 0.321 1.00534 0.0
H2001 H 0.976 0.35094 0.00555 0.0
H2002 H 0.01853 0.29885 0.98545 0.0
H2003 H 0.02034 0.28317 0.95499 0.0
C2004 C 0.60392 0.7581 0.30405 0.0
C2005 C 0.60347 0.78204 0.29062 0.0
C2006 C 0.56816 0.79627 0.319 0.0
C2007 C 0.56587 0.77076 0.32937 0.0
N2008 N 0.57809 0.72544 0.32619 0.0
N2009 N 0.58167 0.82226 0.28233 0.0
C2010 C 0.58286 0.75111 0.3205 0.0
C2011 C 0.58464 0.80075 0.29728 0.0
N2012 N 0.62468 0.74219 0.30157 0.0
N2013 N 0.55539 0.81646 0.33038 0.0
H2014 H 0.59276 0.82589 0.26579 0.0
H2015 H 0.56648 0.83509 0.28488 0.0
H2016 H 0.54422 0.81428 0.34711 0.0
H2017 H 0.55828 0.83584 0.32498 0.0
H2018 H 0.62695 0.7257 0.31288 0.0
H2019 H 0.64094 0.747 0.29038 0.0
H2020 H 0.58866 0.71032 0.31803 0.0
H2021 H 0.56178 0.71883 0.33636 0.0
C2022 C 1.00482 0.1522 0.94883 0.0
C2023 C 0.01201 0.15861 0.97487 0.0
C2024 C 1.00385 0.20489 0.96673 0.0
C2025 C 0.99918 0.19876 0.94008 0.0
N2026 N 0.99954 0.16705 0.90481 0.0
N2027 N 0.02295 0.19155 0.00744 0.0
C2028 C 1.0011 0.17256 0.93084 0.0
C2029 C 0.01276 0.18512 0.98352 0.0
N2030 N 1.00026 0.12667 0.94152 0.0
N2031 N 0.99961 0.22953 0.97606 0.0
H2032 H 0.03013 0.17769 0.02003 0.0
H2033 H 0.02653 0.21072 0.01384 0.0
H2034 H 0.99371 0.24461 0.96424 0.0
H2035 H 0.99997 0.23451 0.99576 0.0
H2036 H 0.99214 0.12099 0.92366 0.0
H2037 H 1.00222 0.11114 0.95416 0.0
H2038 H 1.00376 0.14889 0.89671 0.0
H2039 H 0.99616 0.18117 0.891 0.0
C2040 C 0.44683 0.28851 0.23772 0.0
C2041 C 0.42049 0.28994 0.22959 0.0
C2042 C 0.43396 0.28086 0.18467 0.0
C2043 C 0.45911 0.27465 0.19377 0.0
N2044 N 0.48862 0.26943 0.2297 0.0
N2045 N 0.38834 0.28421 0.19535 0.0
C2046 C 0.4654 0.2778 0.2205 0.0
C2047 C 0.41387 0.28567 0.20296 0.0
N2048 N 0.45408 0.29749 0.2619 0.0
N2049 N 0.42908 0.28152 0.15858 0.0
H2050 H 0.3729 0.28678 0.20809 0.0
H2051 H 0.38234 0.27815 0.17681 0.0
H2052 H 0.44309 0.27734 0.14463 0.0
H2053 H 0.4119 0.28844 0.1508 0.0
H2054 H 0.4734 0.29902 0.26808 0.0
H2055 H 0.44098 0.30595 0.27475 0.0
H2056 H 0.49317 0.26873 0.24942 0.0
H2057 H 0.50242 0.26105 0.21767 0.0
C2058 C 0.51102 0.33599 0.04193 0.0
C2059 C 0.50503 0.36135 0.05129 0.0
C2060 C 0.49657 0.34385 0.09472 0.0
C2061 C 0.50166 0.31836 0.08511 0.0
N2062 N 0.5094 0.28924 0.04876 0.0
N2063 N 0.48778 0.38903 0.08493 0.0
C2064 C 0.50734 0.31414 0.0584 0.0
C2065 C 0.49652 0.36516 0.07725 0.0
N2066 N 0.52155 0.33298 0.01774 0.0
N2067 N 0.4921 0.34768 0.12066 0.0
H2068 H 0.48757 0.40502 0.07264 0.0
H2069 H 0.47885 0.39256 0.1027 0.0
H2070 H 0.49033 0.33234 0.13368 0.0
H2071 H 0.49141 0.36605 0.12956 0.0
H2072 H 0.52927 0.31562 0.0109 0.0
H2073 H 0.52454 0.34843 1.00505 0.0
H2074 H 0.51043 0.28471 0.02901 0.0
H2075 H 0.5081 0.27273 0.06028 0.0
C2076 C 0.58082 0.24317 0.23236 0.0
C2077 C 0.6008 0.22458 0.23005 0.0
C2078 C 0.5839 0.21255 0.18667 0.0
C2079 C 0.56627 0.23315 0.1878 0.0
N2080 N 0.5516 0.27161 0.21026 0.0
N2081 N 0.60337 0.18045 0.21311 0.0
C2082 C 0.56594 0.24962 0.21015 0.0
C2083 C 0.59794 0.20598 0.20929 0.0
N2084 N 0.57281 0.25105 0.25641 0.0
N2085 N 0.58763 0.19941 0.16383 0.0
H2086 H 0.60677 0.17342 0.23171 0.0
H2087 H 0.59976 0.16588 0.19904 0.0
H2088 H 0.57892 0.20516 0.14656 0.0
H2089 H 0.60157 0.18511 0.16179 0.0
H2090 H 0.55671 0.26264 0.25935 0.0
H2091 H 0.5798 0.24264 0.2733 0.0
H2092 H 0.5526 0.28544 0.22537 0.0
H2093 H 0.5407 0.27717 0.19424 0.0
C2094 C 0.52047 0.16871 0.05288 0.0
C2095 C 0.49523 0.15656 0.05041 0.0
C2096 C 0.47946 0.18931 0.08145 0.0
C2097 C 0.50537 0.19741 0.08805 0.0
N2098 N 0.55128 0.19017 0.08242 0.0
N2099 N 0.45137 0.15355 0.06805 0.0
C2100 C 0.52614 0.18555 0.0746 0.0
C2101 C 0.47506 0.16616 0.06662 0.0
N2102 N 0.53832 0.16647 0.03348 0.0
N2103 N 0.45839 0.20335 0.08824 0.0
H2104 H 0.44829 0.1342 0.06193 0.0
H2105 H 0.43569 0.16162 0.07782 0.0
H2106 H 0.45942 0.2217 0.09733 0.0
H2107 H 0.45942 0.2217 0.09733 0.0
H2108 H 0.55622 0.17659 0.0339 0.0
H2109 H 0.53379 0.15778 0.0155 0.0
H2110 H 0.56678 0.18024 0.07427 0.0
H2111 H 0.55622 0.20165 0.09874 0.0
C2112 C 0.29802 0.43535 0.7051 0.0
C2113 C 0.28888 0.4203 0.72632 0.0
C2114 C 0.31675 0.44673 0.75591 0.0
C2115 C 0.32903 0.45875 0.73428 0.0
N2116 N 0.33208 0.46369 0.68787 0.0
N2117 N 0.29253 0.40906 0.77157 0.0
C2118 C 0.31979 0.45289 0.70874 0.0
C2119 C 0.29906 0.4253 0.75165 0.0
N2120 N 0.28508 0.43393 0.68183 0.0
N2121 N 0.32109 0.45637 0.78054 0.0
H2122 H 0.28108 0.39206 0.76902 0.0
H2123 H 0.30074 0.41075 0.79006 0.0
H2124 H 0.33309 0.47262 0.78471 0.0
H2125 H 0.3106 0.45003 0.79662 0.0
H2126 H 0.28918 0.44635 0.66649 0.0
H2127 H 0.26846 0.42212 0.67867 0.0
H2128 H 0.3284 0.45767 0.66875 0.0
H2129 H 0.34743 0.47728 0.68979 0.0
C2130 C 0.30752 0.60377 0.77068 0.0
C2131 C 0.29386 0.60292 0.79452 0.0
C2132 C 0.3222 0.56801 0.80878 0.0
C2133 C 0.33269 0.56608 0.78333 0.0
N2134 N 0.32873 0.57799 0.73805 0.0
N2135 N 0.28558 0.58108 0.83501 0.0
C2136 C 0.32368 0.58289 0.7637 0.0
C2137 C 0.30051 0.5842 0.81334 0.0
N2138 N 0.30543 0.6247 0.75477 0.0
N2139 N 0.33337 0.55509 0.82877 0.0
H2140 H 0.26921 0.59207 0.83873 0.0
H2141 H 0.28805 0.56596 0.848 0.0
H2142 H 0.34989 0.54395 0.8264 0.0
H2143 H 0.32795 0.55771 0.84809 0.0
H2144 H 0.31689 0.62714 0.73827 0.0
H2145 H 0.29453 0.64093 0.75959 0.0
H2146 H 0.32048 0.58856 0.72313 0.0
H2147 H 0.33813 0.56146 0.73135 0.0
C2148 C 0.83496 0.48115 0.48563 0.0
C2149 C 0.8599 0.47151 0.49157 0.0
C2150 C 0.83956 0.43046 0.50659 0.0
C2151 C 0.81465 0.4402 0.5008 0.0
N2152 N 0.78817 0.47685 0.49148 0.0
N2153 N 0.88555 0.4402 0.51392 0.0
C2154 C 0.81227 0.46632 0.4926 0.0
C2155 C 0.86204 0.44718 0.50414 0.0
N2156 N 0.83291 0.50366 0.47196 0.0
N2157 N 0.84195 0.40481 0.51285 0.0
H2158 H 0.90232 0.45208 0.51254 0.0
H2159 H 0.88792 0.42392 0.52546 0.0
H2160 H 0.826 0.39202 0.5151 0.0
H2161 H 0.85978 0.39575 0.51414 0.0
H2162 H 0.81539 0.51006 0.4645 0.0
H2163 H 0.84898 0.51501 0.46624 0.0
H2164 H 0.78517 0.49651 0.48801 0.0
H2165 H 0.77128 0.46638 0.4966 0.0
C2166 C 0.72383 0.93223 0.81245 0.0
C2167 C 0.7314 0.91399 0.79299 0.0
C2168 C 0.70299 0.93476 0.76165 0.0
C2169 C 0.69312 0.95113 0.78168 0.0
N2170 N 0.69081 0.96181 0.82744 0.0
N2171 N 0.72268 0.89369 0.75107 0.0
C2172 C 0.7026 0.94886 0.8075 0.0
C2173 C 0.71922 0.91394 0.76823 0.0
N2174 N 0.73745 0.93439 0.83528 0.0
N2175 N 0.69839 0.93999 0.7361 0.0
H2176 H 0.73385 0.87763 0.75538 0.0
H2177 H 0.71218 0.89153 0.73375 0.0
H2178 H 0.68838 0.95622 0.73 0.0
H2179 H 0.70729 0.93004 0.72088 0.0
H2180 H 0.73453 0.94917 0.84902 0.0
H2181 H 0.75324 0.92281 0.83949 0.0
H2182 H 0.69523 0.95888 0.84692 0.0
H2183 H 0.67483 0.97352 0.82465 0.0
C2184 C 0.67558 0.54517 0.98431 0.0
C2185 C 0.65558 0.5451 1.00327 0.0
C2186 C 0.68053 0.57797 0.02919 0.0
C2187 C 0.69886 0.58045 0.00876 0.0
N2188 N 0.71424 0.56639 0.96664 0.0
N2189 N 0.63692 0.56429 0.04177 0.0
C2190 C 0.6964 0.56413 0.98618 0.0
C2191 C 0.65759 0.56213 0.0253 0.0
N2192 N 0.67538 0.52616 0.9653 0.0
N2193 N 0.68492 0.59086 0.05234 0.0
H2194 H 0.61942 0.55374 0.03917 0.0
H2195 H 0.6361 0.57835 0.05656 0.0
H2196 H 0.70045 0.60411 0.05548 0.0
H2197 H 0.67397 0.58731 0.06895 0.0
H2198 H 0.69064 0.52331 0.95244 0.0
H2199 H 0.66088 0.51154 0.96371 0.0
H2200 H 0.71163 0.55787 0.94829 0.0
H2201 H 0.7312 0.57798 0.96816 0.0
C2202 C 0.21176 0.58194 0.19779 0.0
C2203 C 0.22165 0.59962 0.21722 0.0
C2204 C 0.20011 0.5732 0.25073 0.0
C2205 C 0.18702 0.55795 0.23108 0.0
N2206 N 0.17917 0.54881 0.18558 0.0
N2207 N 0.2225 0.61409 0.26212 0.0
C2208 C 0.19268 0.56248 0.2045 0.0
C2209 C 0.21514 0.59575 0.2437 0.0
N2210 N 0.22136 0.58308 0.1731 0.0
N2211 N 0.19906 0.56565 0.27607 0.0
H2212 H 0.23252 0.63144 0.25776 0.0
H2213 H 0.21641 0.61347 0.28137 0.0
H2214 H 0.18895 0.5489 0.28209 0.0
H2215 H 0.21034 0.57445 0.2908 0.0
H2216 H 0.21703 0.56906 0.15872 0.0
H2217 H 0.23569 0.5967 0.16756 0.0
H2218 H 0.18015 0.55321 0.16593 0.0
H2219 H 0.16499 0.53464 0.18978 0.0
C2220 C 0.84712 0.5518 0.03582 0.0
C2221 C 0.86977 0.5589 0.0216 0.0
C2222 C 0.84508 0.59158 0.99805 0.0
C2223 C 0.82334 0.58638 0.01425 0.0
N2224 N 0.80379 0.56298 0.04984 0.0
N2225 N 0.89142 0.5867 0.99066 0.0
C2226 C 0.82441 0.56686 0.03349 0.0
C2227 C 0.86901 0.579 1.00295 0.0
N2228 N 0.8471 0.53008 0.05094 0.0
N2229 N 0.84278 0.6085 0.97795 0.0
H2230 H 0.90912 0.57768 0.99353 0.0
H2231 H 0.89299 0.60304 0.97897 0.0
H2232 H 0.82583 0.6186 0.97438 0.0
H2233 H 0.8569 0.61121 0.96374 0.0
H2234 H 0.83047 0.5221 0.05955 0.0
H2235 H 0.86336 0.51859 0.05319 0.0
H2236 H 0.80455 0.55156 0.06635 0.0
H2237 H 0.78621 0.57243 0.04784 0.0
C2238 C 0.18114 0.97952 0.02358 0.0
C2239 C 0.15561 0.97358 0.01409 0.0
C2240 C 0.16959 0.93054 0.99885 0.0
C2241 C 0.1957 0.93767 1.00538 0.0
N2242 N 0.22679 0.96836 0.02467 0.0
N2243 N 0.12585 0.94478 0.99023 0.0
C2244 C 0.20158 0.96201 0.01803 0.0
C2245 C 0.14993 0.94943 1.00104 0.0
N2246 N 0.18557 1.0015 0.0386 0.0
N2247 N 0.16339 0.90527 0.99188 0.0
H2248 H 0.11081 0.95796 0.99175 0.0
H2249 H 0.12141 0.92884 0.97801 0.0
H2250 H 0.1772 0.89078 0.99144 0.0
H2251 H 0.14437 0.8981 0.98925 0.0
H2252 H 0.20294 0.00578 0.04844 0.0
H2253 H 0.17117 0.01489 0.0427 0.0
H2254 H 0.23319 0.98691 0.03083 0.0
H2255 H 0.24169 0.95505 0.02318 0.0
loop_
_geom_bond_atom_site_label_1
_geom_bond_atom_site_label_2
_geom_bond_distance
_geom_bond_site_symmetry_2
_ccdc_geom_bond_type
C0 C1 1.391 . S
C0 C4 1.391 . S
C0 H42 0.948 . S
C1 C0 1.391 . S
C1 C2 1.391 1_455 S
C2 C1 1.391 1_655 S
C2 H58 0.947 . S
C2 C59 1.396 1_556 S
C3 C4 1.391 1_554 S
C3 C7 1.397 . S
C3 C59 1.382 1_455 S
C4 C0 1.391 . S
C4 C3 1.391 1_556 S
C4 C5 1.399 . S
C5 C4 1.399 . S
C5 C8 1.396 1_556 S
C5 C17 1.453 . S
C5 C18 1.684 . S
H6 C30 0.948 . S
C7 C3 1.397 . S
C7 C8 1.394 . S
C7 C26 1.723 . S
C8 C5 1.396 1_554 S
C8 C7 1.394 . S
C8 C38 1.723 . S
H9 C32 0.947 . S
H10 C33 0.948 . S
H11 C39 0.982 1_545 S
H12 C40 0.979 . S
H13 C40 0.980 . S
H14 C40 0.983 . S
H15 C39 0.979 . S
H16 C39 0.977 . S
C17 C5 1.453 . S
C17 H46 0.982 1_556 S
C17 H47 0.979 . S
C17 H48 0.977 . S
C18 C5 1.684 . S
C18 H43 0.979 . S
C18 H44 0.980 . S
C18 H45 0.983 . S
C19 C20 1.391 . S
C19 C24 1.391 . S
C19 H49 0.948 . S
C20 C19 1.391 . S
C20 C21 1.391 1_545 S
C21 C20 1.391 1_565 S
C21 C22 1.392 1_655 S
C21 H50 0.947 . S
C22 C21 1.392 1_455 S
C22 C23 1.419 1_565 S
C22 H51 0.948 . S
C23 C22 1.419 1_545 S
C23 C24 1.391 1_455 S
C23 C27 1.397 . S
C24 C19 1.391 . S
C24 C23 1.391 1_655 S
C24 C25 1.399 . S
C25 C24 1.399 . S
C25 C26 1.396 1_655 S
C25 C28 1.453 . S
C25 C29 1.684 . S
C26 C7 1.723 . S
C26 C25 1.396 1_455 S
C26 C27 1.394 . S
C27 C23 1.397 . S
C27 C26 1.394 . S
C27 C37 1.723 . S
C28 C25 1.453 . S
C28 H52 0.982 1_655 S
C28 H53 0.979 . S
C28 H54 0.977 . S
C29 C25 1.684 . S
C29 H55 0.979 . S
C29 H56 0.980 . S
C29 H57 0.983 . S
C30 H6 0.948 . S
C30 C31 1.391 . S
C30 C35 1.391 . S
C31 C30 1.391 . S
C31 C32 1.391 1_554 S
C32 H9 0.947 . S
C32 C31 1.391 1_556 S
C32 C33 1.392 1_565 S
C33 H10 0.948 . S
C33 C32 1.392 1_545 S
C33 C34 1.419 1_556 S
C34 C33 1.419 1_554 S
C34 C35 1.391 1_545 S
C34 C38 1.397 . S
C35 C30 1.391 . S
C35 C34 1.391 1_565 S
C35 C36 1.399 . S
C36 C35 1.399 . S
C36 C37 1.396 1_565 S
C36 C39 1.453 . S
C36 C40 1.684 . S
C37 C27 1.723 . S
C37 C36 1.396 1_545 S
C37 C38 1.394 . S
C38 C8 1.723 . S
C38 C34 1.397 . S
C38 C37 1.394 . S
C39 H11 0.982 1_565 S
C39 H15 0.979 . S
C39 H16 0.977 . S
C39 C36 1.453 . S
C40 H12 0.979 . S
C40 H13 0.980 . S
C40 H14 0.983 . S
C40 C36 1.684 . S
H41 C59 0.982 . S
H42 C0 0.948 . S
H43 C18 0.979 . S
H44 C18 0.980 . S
H45 C18 0.983 . S
H46 C17 0.982 1_554 S
H47 C17 0.979 . S
H48 C17 0.977 . S
H49 C19 0.948 . S
H50 C21 0.947 . S
H51 C22 0.948 . S
H52 C28 0.982 1_455 S
H53 C28 0.979 . S
H54 C28 0.977 . S
H55 C29 0.979 . S
H56 C29 0.980 . S
H57 C29 0.983 . S
H58 C2 0.947 . S
C59 C2 1.396 1_554 S
C59 C3 1.382 1_655 S
C59 H41 0.982 . S
C60 C61 1.391 . S
C60 C64 1.391 . S
C60 H102 0.948 . S
C61 C60 1.391 . S
C61 C62 1.391 . S
C62 C61 1.391 . S
C62 H118 0.947 . S
C62 C119 1.392 . S
C63 C64 1.391 . S
C63 C67 1.397 . S
C63 C119 1.419 . S
C64 C60 1.391 . S
C64 C63 1.391 . S
C64 C65 1.399 . S
C65 C64 1.399 . S
C65 C68 1.396 . S
C65 C77 1.453 . S
C65 C78 1.684 . S
H66 C90 0.948 . S
C67 C63 1.397 . S
C67 C68 1.394 . S
C67 C86 1.723 . S
C68 C65 1.396 . S
C68 C67 1.394 . S
C68 C98 1.723 . S
H69 C92 0.947 . S
H70 C93 0.948 . S
H71 C99 0.982 . S
H72 C100 0.979 . S
H73 C100 0.980 . S
H74 C100 0.983 . S
H75 C99 0.979 . S
H76 C99 0.977 . S
C77 C65 1.453 . S
C77 H106 0.982 . S
C77 H107 0.979 . S
C77 H108 0.977 . S
C78 C65 1.684 . S
C78 H103 0.979 . S
C78 H104 0.980 . S
C78 H105 0.983 . S
C79 C80 1.391 . S
C79 C84 1.391 . S
C79 H109 0.948 . S
C80 C79 1.391 . S
C80 C81 1.391 . S
C81 C80 1.391 . S
C81 C82 1.392 . S
C81 H110 0.947 . S
C82 C81 1.392 . S
C82 C83 1.419 . S
C82 H111 0.948 . S
C83 C82 1.419 . S
C83 C84 1.391 . S
C83 C87 1.397 . S
C84 C79 1.391 . S
C84 C83 1.391 . S
C84 C85 1.399 . S
C85 C84 1.399 . S
C85 C86 1.396 . S
C85 C88 1.453 . S
C85 C89 1.684 . S
C86 C67 1.723 . S
C86 C85 1.396 . S
C86 C87 1.394 . S
C87 C83 1.397 . S
C87 C86 1.394 . S
C87 C97 1.723 . S
C88 C85 1.453 . S
C88 H112 0.982 . S
C88 H113 0.979 . S
C88 H114 0.977 . S
C89 C85 1.684 . S
C89 H115 0.979 . S
C89 H116 0.980 . S
C89 H117 0.983 . S
C90 H66 0.948 . S
C90 C91 1.391 . S
C90 C95 1.391 . S
C91 C90 1.391 . S
C91 C92 1.391 . S
C92 H69 0.947 . S
C92 C91 1.391 . S
C92 C93 1.392 . S
C93 H70 0.948 . S
C93 C92 1.392 . S
C93 C94 1.419 . S
C94 C93 1.419 . S
C94 C95 1.391 . S
C94 C98 1.397 . S
C95 C90 1.391 . S
C95 C94 1.391 . S
C95 C96 1.399 . S
C96 C95 1.399 . S
C96 C97 1.396 . S
C96 C99 1.453 . S
C96 C100 1.684 . S
C97 C87 1.723 . S
C97 C96 1.396 . S
C97 C98 1.394 . S
C98 C68 1.723 . S
C98 C94 1.397 . S
C98 C97 1.394 . S
C99 H71 0.982 . S
C99 H75 0.979 . S
C99 H76 0.977 . S
C99 C96 1.453 . S
C100 H72 0.979 . S
C100 H73 0.980 . S
C100 H74 0.983 . S
C100 C96 1.684 . S
H101 C119 0.948 . S
H102 C60 0.948 . S
H103 C78 0.979 . S
H104 C78 0.980 . S
H105 C78 0.983 . S
H106 C77 0.982 . S
H107 C77 0.979 . S
H108 C77 0.977 . S
H109 C79 0.948 . S
H110 C81 0.947 . S
H111 C82 0.948 . S
H112 C88 0.982 . S
H113 C88 0.979 . S
H114 C88 0.977 . S
H115 C89 0.979 . S
H116 C89 0.980 . S
H117 C89 0.983 . S
H118 C62 0.947 . S
C119 C62 1.392 . S
C119 C63 1.419 . S
C119 H101 0.948 . S
C120 C121 1.391 . S
C120 C124 1.418 . S
C120 H162 0.948 1_655 S
C121 C120 1.391 . S
C121 C122 1.391 . S
C122 C121 1.391 . S
C122 H178 0.947 . S
C122 C179 1.392 . S
C123 C124 1.400 . S
C123 C127 1.397 1_556 S
C123 C179 1.419 . S
C124 C120 1.418 . S
C124 C123 1.400 . S
C124 C125 1.361 1_656 S
C125 C124 1.361 1_454 S
C125 C128 1.396 1_455 S
C125 C137 1.453 . S
C125 C138 1.684 . S
H126 C150 0.948 . S
C127 C123 1.397 1_554 S
C127 C128 1.394 . S
C127 C146 1.723 . S
C128 C125 1.396 1_655 S
C128 C127 1.394 . S
C128 C158 1.723 . S
H129 C152 0.947 . S
H130 C153 0.948 . S
H131 C159 0.982 . S
H132 C160 0.979 . S
H133 C160 0.980 . S
H134 C160 0.983 . S
H135 C159 0.979 . S
H136 C159 0.977 . S
C137 C125 1.453 . S
C137 H166 0.982 1_455 S
C137 H167 0.979 . S
C137 H168 0.977 . S
C138 C125 1.684 . S
C138 H163 0.979 . S
C138 H164 0.980 . S
C138 H165 0.983 . S
C139 C140 1.391 . S
C139 C144 1.391 . S
C139 H169 0.948 1_554 S
C140 C139 1.391 . S
C140 C141 1.391 . S
C141 C140 1.391 . S
C141 C142 1.392 . S
C141 H170 0.947 . S
C142 C141 1.392 . S
C142 C143 1.419 . S
C142 H171 0.948 . S
C143 C142 1.419 . S
C143 C144 1.391 . S
C143 C147 1.397 . S
C144 C139 1.391 . S
C144 C143 1.391 . S
C144 C145 1.399 1_554 S
C145 C144 1.399 1_556 S
C145 C146 1.396 1_556 S
C145 C148 1.453 . S
C145 C149 1.684 . S
C146 C127 1.723 . S
C146 C145 1.396 1_554 S
C146 C147 1.394 . S
C147 C143 1.397 . S
C147 C146 1.394 . S
C147 C157 1.723 . S
C148 C145 1.453 . S
C148 H172 0.982 1_556 S
C148 H173 0.979 . S
C148 H174 0.977 . S
C149 C145 1.684 . S
C149 H175 0.979 . S
C149 H176 0.980 . S
C149 H177 0.983 . S
C150 H126 0.948 . S
C150 C151 1.391 . S
C150 C155 1.391 . S
C151 C150 1.391 . S
C151 C152 1.391 . S
C152 H129 0.947 . S
C152 C151 1.391 . S
C152 C153 1.392 . S
C153 H130 0.948 . S
C153 C152 1.392 . S
C153 C154 1.419 . S
C154 C153 1.419 . S
C154 C155 1.391 . S
C154 C158 1.397 1_455 S
C155 C150 1.391 . S
C155 C154 1.391 . S
C155 C156 1.399 1_455 S
C156 C155 1.399 1_655 S
C156 C157 1.396 . S
C156 C159 1.453 . S
C156 C160 1.684 . S
C157 C147 1.723 . S
C157 C156 1.396 . S
C157 C158 1.394 . S
C158 C128 1.723 . S
C158 C154 1.397 1_655 S
C158 C157 1.394 . S
C159 H131 0.982 . S
C159 H135 0.979 . S
C159 H136 0.977 . S
C159 C156 1.453 . S
C160 H132 0.979 . S
C160 H133 0.980 . S
C160 H134 0.983 . S
C160 C156 1.684 . S
H161 C179 0.948 . S
H162 C120 0.948 1_455 S
H163 C138 0.979 . S
H164 C138 0.980 . S
H165 C138 0.983 . S
H166 C137 0.982 1_655 S
H167 C137 0.979 . S
H168 C137 0.977 . S
H169 C139 0.948 1_556 S
H170 C141 0.947 . S
H171 C142 0.948 . S
H172 C148 0.982 1_554 S
H173 C148 0.979 . S
H174 C148 0.977 . S
H175 C149 0.979 . S
H176 C149 0.980 . S
H177 C149 0.983 . S
H178 C122 0.947 . S
C179 C122 1.392 . S
C179 C123 1.419 . S
C179 H161 0.948 . S
C180 C181 1.391 . S
C180 C184 1.391 . S
C180 H222 0.948 . S
C181 C180 1.391 . S
C181 C182 1.391 . S
C182 C181 1.391 . S
C182 H238 0.947 . S
C182 C239 1.392 . S
C183 C184 1.391 . S
C183 C187 1.397 . S
C183 C239 1.419 . S
C184 C180 1.391 . S
C184 C183 1.391 . S
C184 C185 1.399 . S
C185 C184 1.399 . S
C185 C188 1.396 . S
C185 C197 1.453 . S
C185 C198 1.684 . S
H186 C210 0.948 . S
C187 C183 1.397 . S
C187 C188 1.394 . S
C187 C206 1.723 . S
C188 C185 1.396 . S
C188 C187 1.394 . S
C188 C218 1.723 . S
H189 C212 0.947 . S
H190 C213 0.948 . S
H191 C219 0.982 . S
H192 C220 0.979 . S
H193 C220 0.980 . S
H194 C220 0.983 . S
H195 C219 0.979 . S
H196 C219 0.977 . S
C197 C185 1.453 . S
C197 H226 0.982 . S
C197 H227 0.979 . S
C197 H228 0.977 . S
C198 C185 1.684 . S
C198 H223 0.979 . S
C198 H224 0.980 . S
C198 H225 0.983 . S
C199 C200 1.391 . S
C199 C204 1.391 . S
C199 H229 0.948 . S
C200 C199 1.391 . S
C200 C201 1.391 . S
C201 C200 1.391 . S
C201 C202 1.392 . S
C201 H230 0.947 . S
C202 C201 1.392 . S
C202 C203 1.419 . S
C202 H231 0.948 . S
C203 C202 1.419 . S
C203 C204 1.391 . S
C203 C207 1.397 . S
C204 C199 1.391 . S
C204 C203 1.391 . S
C204 C205 1.399 . S
C205 C204 1.399 . S
C205 C206 1.396 . S
C205 C208 1.453 . S
C205 C209 1.684 . S
C206 C187 1.723 . S
C206 C205 1.396 . S
C206 C207 1.394 . S
C207 C203 1.397 . S
C207 C206 1.394 . S
C207 C217 1.723 . S
C208 C205 1.453 . S
C208 H232 0.982 . S
C208 H233 0.979 . S
C208 H234 0.977 . S
C209 C205 1.684 . S
C209 H235 0.979 . S
C209 H236 0.980 . S
C209 H237 0.983 . S
C210 H186 0.948 . S
C210 C211 1.391 . S
C210 C215 1.391 . S
C211 C210 1.391 . S
C211 C212 1.391 . S
C212 H189 0.947 . S
C212 C211 1.391 . S
C212 C213 1.392 . S
C213 H190 0.948 . S
C213 C212 1.392 . S
C213 C214 1.419 . S
C214 C213 1.419 . S
C214 C215 1.391 . S
C214 C218 1.397 . S
C215 C210 1.391 . S
C215 C214 1.391 . S
C215 C216 1.399 . S
C216 C215 1.399 . S
C216 C217 1.396 . S
C216 C219 1.453 . S
C216 C220 1.684 . S
C217 C207 1.723 . S
C217 C216 1.396 . S
C217 C218 1.394 . S
C218 C188 1.723 . S
C218 C214 1.397 . S
C218 C217 1.394 . S
C219 H191 0.982 . S
C219 H195 0.979 . S
C219 H196 0.977 . S
C219 C216 1.453 . S
C220 H192 0.979 . S
C220 H193 0.980 . S
C220 H194 0.983 . S
C220 C216 1.684 . S
H221 C239 0.948 . S
H222 C180 0.948 . S
H223 C198 0.979 . S
H224 C198 0.980 . S
H225 C198 0.983 . S
H226 C197 0.982 . S
H227 C197 0.979 . S
H228 C197 0.977 . S
H229 C199 0.948 . S
H230 C201 0.947 . S
H231 C202 0.948 . S
H232 C208 0.982 . S
H233 C208 0.979 . S
H234 C208 0.977 . S
H235 C209 0.979 . S
H236 C209 0.980 . S
H237 C209 0.983 . S
H238 C182 0.947 . S
C239 C182 1.392 . S
C239 C183 1.419 . S
C239 H221 0.948 . S
C240 C241 1.391 . S
C240 C244 1.391 . S
C240 H282 0.948 . S
C241 C240 1.391 . S
C241 C242 1.391 . S
C242 C241 1.391 . S
C242 H298 0.947 1_455 S
C242 C299 1.392 . S
C243 C244 1.391 . S
C243 C247 1.397 . S
C243 C299 1.419 . S
C244 C240 1.391 . S
C244 C243 1.391 . S
C244 C245 1.399 . S
C245 C244 1.399 . S
C245 C248 1.396 . S
C245 C257 1.453 . S
C245 C258 1.684 . S
H246 C270 0.948 . S
C247 C243 1.397 . S
C247 C248 1.394 . S
C247 C266 1.723 . S
C248 C245 1.396 . S
C248 C247 1.394 . S
C248 C278 1.723 . S
H249 C272 0.947 . S
H250 C273 0.948 . S
H251 C279 0.982 . S
H252 C280 0.979 . S
H253 C280 0.980 . S
H254 C280 0.983 . S
H255 C279 0.979 . S
H256 C279 0.977 . S
C257 C245 1.453 . S
C257 H286 0.982 . S
C257 H287 0.979 . S
C257 H288 0.977 . S
C258 C245 1.684 . S
C258 H283 0.979 . S
C258 H284 0.980 . S
C258 H285 0.983 . S
C259 C260 1.391 . S
C259 C264 1.391 . S
C259 H289 0.948 . S
C260 C259 1.391 . S
C260 C261 1.391 1_565 S
C261 C260 1.391 1_545 S
C261 C262 1.392 1_655 S
C261 H290 0.947 . S
C262 C261 1.392 1_455 S
C262 C263 1.419 1_545 S
C262 H291 0.948 . S
C263 C262 1.419 1_565 S
C263 C264 1.391 1_455 S
C263 C267 1.397 . S
C264 C259 1.391 . S
C264 C263 1.391 1_655 S
C264 C265 1.399 . S
C265 C264 1.399 . S
C265 C266 1.396 1_655 S
C265 C268 1.453 . S
C265 C269 1.684 . S
C266 C247 1.723 . S
C266 C265 1.396 1_455 S
C266 C267 1.394 . S
C267 C263 1.397 . S
C267 C266 1.394 . S
C267 C277 1.723 . S
C268 C265 1.453 . S
C268 H292 0.982 . S
C268 H293 0.979 . S
C268 H294 0.977 . S
C269 C265 1.684 . S
C269 H295 0.981 . S
C269 H296 0.980 . S
C269 H297 0.983 . S
C270 H246 0.948 . S
C270 C271 1.391 . S
C270 C275 1.391 . S
C271 C270 1.391 . S
C271 C272 1.391 . S
C272 H249 0.947 . S
C272 C271 1.391 . S
C272 C273 1.392 1_545 S
C273 H250 0.948 . S
C273 C272 1.392 1_565 S
C273 C274 1.419 1_565 S
C274 C273 1.419 1_545 S
C274 C275 1.391 . S
C274 C278 1.397 1_545 S
C275 C270 1.391 . S
C275 C274 1.391 . S
C275 C276 1.399 . S
C276 C275 1.399 . S
C276 C277 1.396 1_545 S
C276 C279 1.453 . S
C276 C280 1.684 . S
C277 C267 1.723 . S
C277 C276 1.396 1_565 S
C277 C278 1.394 . S
C278 C248 1.723 . S
C278 C274 1.397 1_565 S
C278 C277 1.394 . S
C279 H251 0.982 . S
C279 H255 0.979 . S
C279 H256 0.977 . S
C279 C276 1.453 . S
C280 H252 0.979 . S
C280 H253 0.980 . S
C280 H254 0.983 . S
C280 C276 1.684 . S
H281 C299 0.948 1_655 S
H282 C240 0.948 . S
H283 C258 0.979 . S
H284 C258 0.980 . S
H285 C258 0.983 . S
H286 C257 0.982 . S
H287 C257 0.979 . S
H288 C257 0.977 . S
H289 C259 0.948 . S
H290 C261 0.947 . S
H291 C262 0.948 . S
H292 C268 0.982 . S
H293 C268 0.979 . S
H294 C268 0.977 . S
H295 C269 0.981 . S
H296 C269 0.980 . S
H297 C269 0.983 . S
H298 C242 0.947 1_655 S
C299 C242 1.392 . S
C299 C243 1.419 . S
C299 H281 0.948 1_455 S
C300 C301 1.391 . S
C300 C304 1.391 . S
C300 H342 0.948 . S
C301 C300 1.391 . S
C301 C302 1.391 . S
C302 C301 1.391 . S
C302 H358 0.947 . S
C302 C359 1.392 . S
C303 C304 1.391 . S
C303 C307 1.397 . S
C303 C359 1.419 . S
C304 C300 1.391 . S
C304 C303 1.391 . S
C304 C305 1.399 . S
C305 C304 1.399 . S
C305 C308 1.396 . S
C305 C317 1.453 . S
C305 C318 1.684 . S
H306 C330 0.948 . S
C307 C303 1.397 . S
C307 C308 1.394 . S
C307 C326 1.723 . S
C308 C305 1.396 . S
C308 C307 1.394 . S
C308 C338 1.723 . S
H309 C332 0.947 . S
H310 C333 0.948 . S
H311 C339 0.982 . S
H312 C340 0.979 . S
H313 C340 0.980 . S
H314 C340 0.983 . S
H315 C339 0.979 . S
H316 C339 0.977 . S
C317 C305 1.453 . S
C317 H346 0.982 . S
C317 H347 0.979 . S
C317 H348 0.977 . S
C318 C305 1.684 . S
C318 H343 0.979 . S
C318 H344 0.980 . S
C318 H345 0.983 . S
C319 C320 1.391 . S
C319 C324 1.391 . S
C319 H349 0.948 . S
C320 C319 1.391 . S
C320 C321 1.391 . S
C321 C320 1.391 . S
C321 C322 1.392 . S
C321 H350 0.947 . S
C322 C321 1.392 . S
C322 C323 1.419 . S
C322 H351 0.948 . S
C323 C322 1.419 . S
C323 C324 1.391 . S
C323 C327 1.397 . S
C324 C319 1.391 . S
C324 C323 1.391 . S
C324 C325 1.399 . S
C325 C324 1.399 . S
C325 C326 1.396 . S
C325 C328 1.453 . S
C325 C329 1.684 . S
C326 C307 1.723 . S
C326 C325 1.396 . S
C326 C327 1.394 . S
C327 C323 1.397 . S
C327 C326 1.394 . S
C327 C337 1.723 . S
C328 C325 1.453 . S
C328 H352 0.982 . S
C328 H353 0.979 . S
C328 H354 0.977 . S
C329 C325 1.684 . S
C329 H355 0.979 . S
C329 H356 0.980 . S
C329 H357 0.983 . S
C330 H306 0.948 . S
C330 C331 1.391 . S
C330 C335 1.391 . S
C331 C330 1.391 . S
C331 C332 1.391 . S
C332 H309 0.947 . S
C332 C331 1.391 . S
C332 C333 1.392 . S
C333 H310 0.948 . S
C333 C332 1.392 . S
C333 C334 1.419 . S
C334 C333 1.419 . S
C334 C335 1.391 . S
C334 C338 1.397 . S
C335 C330 1.391 . S
C335 C334 1.391 . S
C335 C336 1.399 . S
C336 C335 1.399 . S
C336 C337 1.396 . S
C336 C339 1.453 . S
C336 C340 1.684 . S
C337 C327 1.723 . S
C337 C336 1.396 . S
C337 C338 1.394 . S
C338 C308 1.723 . S
C338 C334 1.397 . S
C338 C337 1.394 . S
C339 H311 0.982 . S
C339 H315 0.979 . S
C339 H316 0.977 . S
C339 C336 1.453 . S
C340 H312 0.979 . S
C340 H313 0.980 . S
C340 H314 0.983 . S
C340 C336 1.684 . S
H341 C359 0.948 . S
H342 C300 0.948 . S
H343 C318 0.979 . S
H344 C318 0.980 . S
H345 C318 0.983 . S
H346 C317 0.982 . S
H347 C317 0.979 . S
H348 C317 0.977 . S
H349 C319 0.948 . S
H350 C321 0.947 . S
H351 C322 0.948 . S
H352 C328 0.982 . S
H353 C328 0.979 . S
H354 C328 0.977 . S
H355 C329 0.979 . S
H356 C329 0.980 . S
H357 C329 0.983 . S
H358 C302 0.947 . S
C359 C302 1.392 . S
C359 C303 1.419 . S
C359 H341 0.948 . S
C360 C361 1.391 . S
C360 C364 1.391 . S
C360 H402 0.948 . S
C361 C360 1.391 . S
C361 C362 1.391 . S
C362 C361 1.391 . S
C362 H418 0.947 . S
C362 C419 1.392 . S
C363 C364 1.391 . S
C363 C367 1.397 . S
C363 C419 1.419 . S
C364 C360 1.391 . S
C364 C363 1.391 . S
C364 C365 1.399 . S
C365 C364 1.399 . S
C365 C368 1.396 . S
C365 C377 1.453 . S
C365 C378 1.684 . S
H366 C390 0.948 . S
C367 C363 1.397 . S
C367 C368 1.394 . S
C367 C386 1.723 . S
C368 C365 1.396 . S
C368 C367 1.394 . S
C368 C398 1.723 . S
H369 C392 0.947 . S
H370 C393 0.948 . S
H371 C399 0.982 1_655 S
H372 C400 0.979 . S
H373 C400 0.980 . S
H374 C400 0.983 . S
H375 C399 0.979 . S
H376 C399 0.977 . S
C377 C365 1.453 . S
C377 H406 0.982 . S
C377 H407 0.979 . S
C377 H408 0.977 . S
C378 C365 1.684 . S
C378 H403 0.979 . S
C378 H404 0.980 . S
C378 H405 0.983 . S
C379 C380 1.391 . S
C379 C384 1.391 . S
C379 H409 0.948 . S
C380 C379 1.391 . S
C380 C381 1.391 . S
C381 C380 1.391 . S
C381 C382 1.392 . S
C381 H410 0.947 . S
C382 C381 1.392 . S
C382 C383 1.419 . S
C382 H411 0.948 . S
C383 C382 1.419 . S
C383 C384 1.391 . S
C383 C387 1.397 1_455 S
C384 C379 1.391 . S
C384 C383 1.391 . S
C384 C385 1.399 1_455 S
C385 C384 1.399 1_655 S
C385 C386 1.396 . S
C385 C388 1.453 . S
C385 C389 1.684 . S
C386 C367 1.723 . S
C386 C385 1.396 . S
C386 C387 1.394 . S
C387 C383 1.397 1_655 S
C387 C386 1.394 . S
C387 C397 1.723 . S
C388 C385 1.453 . S
C388 H412 0.982 . S
C388 H413 0.979 . S
C388 H414 0.977 . S
C389 C385 1.684 . S
C389 H415 0.979 . S
C389 H416 0.980 . S
C389 H417 0.983 . S
C390 H366 0.948 . S
C390 C391 1.391 1_455 S
C390 C395 1.391 1_455 S
C391 C390 1.391 1_655 S
C391 C392 1.391 . S
C392 H369 0.947 . S
C392 C391 1.391 . S
C392 C393 1.392 . S
C393 H370 0.948 . S
C393 C392 1.392 . S
C393 C394 1.419 . S
C394 C393 1.419 . S
C394 C395 1.391 . S
C394 C398 1.397 . S
C395 C390 1.391 1_655 S
C395 C394 1.391 . S
C395 C396 1.399 1_655 S
C396 C395 1.399 1_455 S
C396 C397 1.396 1_455 S
C396 C399 1.453 . S
C396 C400 1.684 . S
C397 C387 1.723 . S
C397 C396 1.396 1_655 S
C397 C398 1.394 . S
C398 C368 1.723 . S
C398 C394 1.397 . S
C398 C397 1.394 . S
C399 H371 0.982 1_455 S
C399 H375 0.979 . S
C399 H376 0.977 . S
C399 C396 1.453 . S
C400 H372 0.979 . S
C400 H373 0.980 . S
C400 H374 0.983 . S
C400 C396 1.684 . S
H401 C419 0.948 . S
H402 C360 0.948 . S
H403 C378 0.979 . S
H404 C378 0.980 . S
H405 C378 0.983 . S
H406 C377 0.982 . S
H407 C377 0.979 . S
H408 C377 0.977 . S
H409 C379 0.948 . S
H410 C381 0.947 . S
H411 C382 0.948 . S
H412 C388 0.982 . S
H413 C388 0.979 . S
H414 C388 0.977 . S
H415 C389 0.979 . S
H416 C389 0.980 . S
H417 C389 0.983 . S
H418 C362 0.947 . S
C419 C362 1.392 . S
C419 C363 1.419 . S
C419 H401 0.948 . S
C420 C421 1.391 . S
C420 C424 1.391 . S
C420 H462 0.948 . S
C421 C420 1.391 . S
C421 C422 1.391 . S
C422 C421 1.391 . S
C422 H478 0.947 . S
C422 C479 1.392 . S
C423 C424 1.391 . S
C423 C427 1.397 . S
C423 C479 1.419 . S
C424 C420 1.391 . S
C424 C423 1.391 . S
C424 C425 1.399 . S
C425 C424 1.399 . S
C425 C428 1.396 . S
C425 C437 1.453 . S
C425 C438 1.684 . S
H426 C450 0.948 . S
C427 C423 1.397 . S
C427 C428 1.394 . S
C427 C446 1.723 . S
C428 C425 1.396 . S
C428 C427 1.394 . S
C428 C458 1.723 . S
H429 C452 0.947 . S
H430 C453 0.948 . S
H431 C459 0.982 . S
H432 C460 0.979 . S
H433 C460 0.980 . S
H434 C460 0.983 . S
H435 C459 0.979 . S
H436 C459 0.977 . S
C437 C425 1.453 . S
C437 H466 0.982 . S
C437 H467 0.979 . S
C437 H468 0.977 . S
C438 C425 1.684 . S
C438 H463 0.979 . S
C438 H464 0.980 . S
C438 H465 0.983 . S
C439 C440 1.391 . S
C439 C444 1.391 . S
C439 H469 0.948 . S
C440 C439 1.391 . S
C440 C441 1.391 . S
C441 C440 1.391 . S
C441 C442 1.392 . S
C441 H470 0.947 . S
C442 C441 1.392 . S
C442 C443 1.419 . S
C442 H471 0.948 . S
C443 C442 1.419 . S
C443 C444 1.391 . S
C443 C447 1.397 . S
C444 C439 1.391 . S
C444 C443 1.391 . S
C444 C445 1.399 . S
C445 C444 1.399 . S
C445 C446 1.396 . S
C445 C448 1.453 . S
C445 C449 1.684 . S
C446 C427 1.723 . S
C446 C445 1.396 . S
C446 C447 1.394 . S
C447 C443 1.397 . S
C447 C446 1.394 . S
C447 C457 1.723 . S
C448 C445 1.453 . S
C448 H472 0.982 . S
C448 H473 0.979 . S
C448 H474 0.977 . S
C449 C445 1.684 . S
C449 H475 0.979 . S
C449 H476 0.980 . S
C449 H477 0.983 . S
C450 H426 0.948 . S
C450 C451 1.391 . S
C450 C455 1.391 . S
C451 C450 1.391 . S
C451 C452 1.391 . S
C452 H429 0.947 . S
C452 C451 1.391 . S
C452 C453 1.392 . S
C453 H430 0.948 . S
C453 C452 1.392 . S
C453 C454 1.419 . S
C454 C453 1.419 . S
C454 C455 1.391 . S
C454 C458 1.397 . S
C455 C450 1.391 . S
C455 C454 1.391 . S
C455 C456 1.399 . S
C456 C455 1.399 . S
C456 C457 1.396 . S
C456 C459 1.453 . S
C456 C460 1.684 . S
C457 C447 1.723 . S
C457 C456 1.396 . S
C457 C458 1.394 . S
C458 C428 1.723 . S
C458 C454 1.397 . S
C458 C457 1.394 . S
C459 H431 0.982 . S
C459 H435 0.979 . S
C459 H436 0.977 . S
C459 C456 1.453 . S
C460 H432 0.979 . S
C460 H433 0.980 . S
C460 H434 0.983 . S
C460 C456 1.684 . S
H461 C479 0.948 . S
H462 C420 0.948 . S
H463 C438 0.979 . S
H464 C438 0.980 . S
H465 C438 0.983 . S
H466 C437 0.982 . S
H467 C437 0.979 . S
H468 C437 0.977 . S
H469 C439 0.948 . S
H470 C441 0.947 . S
H471 C442 0.948 . S
H472 C448 0.982 . S
H473 C448 0.979 . S
H474 C448 0.977 . S
H475 C449 0.979 . S
H476 C449 0.980 . S
H477 C449 0.983 . S
H478 C422 0.947 . S
C479 C422 1.392 . S
C479 C423 1.419 . S
C479 H461 0.948 . S
C480 C481 1.391 . S
C480 C484 1.391 . S
C480 H522 0.948 . S
C481 C480 1.391 . S
C481 C482 1.391 . S
C482 C481 1.391 . S
C482 H538 0.947 . S
C482 C539 1.392 . S
C483 C484 1.391 . S
C483 C487 1.397 . S
C483 C539 1.419 . S
C484 C480 1.391 . S
C484 C483 1.391 . S
C484 C485 1.399 . S
C485 C484 1.399 . S
C485 C488 1.396 . S
C485 C497 1.453 . S
C485 C498 1.684 . S
H486 C510 0.948 . S
C487 C483 1.397 . S
C487 C488 1.394 . S
C487 C506 1.723 . S
C488 C485 1.396 . S
C488 C487 1.394 . S
C488 C518 1.723 . S
H489 C512 0.947 . S
H490 C513 0.948 . S
H491 C519 0.982 . S
H492 C520 0.979 . S
H493 C520 0.980 . S
H494 C520 0.983 . S
H495 C519 0.979 . S
H496 C519 0.977 . S
C497 C485 1.453 . S
C497 H526 0.982 . S
C497 H527 0.979 . S
C497 H528 0.977 . S
C498 C485 1.684 . S
C498 H523 0.979 . S
C498 H524 0.980 . S
C498 H525 0.983 . S
C499 C500 1.391 . S
C499 C504 1.391 . S
C499 H529 0.948 . S
C500 C499 1.391 . S
C500 C501 1.391 . S
C501 C500 1.391 . S
C501 C502 1.392 . S
C501 H530 0.947 . S
C502 C501 1.392 . S
C502 C503 1.419 . S
C502 H531 0.948 . S
C503 C502 1.419 . S
C503 C504 1.391 . S
C503 C507 1.397 . S
C504 C499 1.391 . S
C504 C503 1.391 . S
C504 C505 1.399 . S
C505 C504 1.399 . S
C505 C506 1.396 . S
C505 C508 1.453 . S
C505 C509 1.684 . S
C506 C487 1.723 . S
C506 C505 1.396 . S
C506 C507 1.394 . S
C507 C503 1.397 . S
C507 C506 1.394 . S
C507 C517 1.723 . S
C508 C505 1.453 . S
C508 H532 0.982 . S
C508 H533 0.979 . S
C508 H534 0.977 . S
C509 C505 1.684 . S
C509 H535 0.979 . S
C509 H536 0.980 . S
C509 H537 0.983 . S
C510 H486 0.948 . S
C510 C511 1.391 . S
C510 C515 1.391 . S
C511 C510 1.391 . S
C511 C512 1.391 . S
C512 H489 0.947 . S
C512 C511 1.391 . S
C512 C513 1.392 . S
C513 H490 0.948 . S
C513 C512 1.392 . S
C513 C514 1.419 . S
C514 C513 1.419 . S
C514 C515 1.391 . S
C514 C518 1.397 . S
C515 C510 1.391 . S
C515 C514 1.391 . S
C515 C516 1.399 . S
C516 C515 1.399 . S
C516 C517 1.396 . S
C516 C519 1.453 . S
C516 C520 1.684 . S
C517 C507 1.723 . S
C517 C516 1.396 . S
C517 C518 1.394 . S
C518 C488 1.723 . S
C518 C514 1.397 . S
C518 C517 1.394 . S
C519 H491 0.982 . S
C519 H495 0.979 . S
C519 H496 0.977 . S
C519 C516 1.453 . S
C520 H492 0.979 . S
C520 H493 0.980 . S
C520 H494 0.983 . S
C520 C516 1.684 . S
H521 C539 0.948 . S
H522 C480 0.948 . S
H523 C498 0.979 . S
H524 C498 0.980 . S
H525 C498 0.983 . S
H526 C497 0.982 . S
H527 C497 0.979 . S
H528 C497 0.977 . S
H529 C499 0.948 . S
H530 C501 0.947 . S
H531 C502 0.948 . S
H532 C508 0.982 . S
H533 C508 0.979 . S
H534 C508 0.977 . S
H535 C509 0.979 . S
H536 C509 0.980 . S
H537 C509 0.983 . S
H538 C482 0.947 . S
C539 C482 1.392 . S
C539 C483 1.419 . S
C539 H521 0.948 . S
C540 C541 1.391 . S
C540 C544 1.391 . S
C540 H582 0.948 . S
C541 C540 1.391 . S
C541 C542 1.391 . S
C542 C541 1.391 . S
C542 H598 0.947 . S
C542 C599 1.392 . S
C543 C544 1.391 . S
C543 C547 1.397 . S
C543 C599 1.419 . S
C544 C540 1.391 . S
C544 C543 1.391 . S
C544 C545 1.399 . S
C545 C544 1.399 . S
C545 C548 1.396 . S
C545 C557 1.453 . S
C545 C558 1.684 . S
H546 C570 0.948 1_545 S
C547 C543 1.397 . S
C547 C548 1.394 . S
C547 C566 1.723 . S
C548 C545 1.396 . S
C548 C547 1.394 . S
C548 C578 1.723 . S
H549 C572 0.947 . S
H550 C573 0.948 . S
H551 C579 0.982 1_565 S
H552 C580 0.979 . S
H553 C580 0.980 . S
H554 C580 0.983 . S
H555 C579 0.979 . S
H556 C579 0.977 . S
C557 C545 1.453 . S
C557 H586 0.982 . S
C557 H587 0.979 . S
C557 H588 0.977 . S
C558 C545 1.684 . S
C558 H583 0.979 . S
C558 H584 0.980 . S
C558 H585 0.983 . S
C559 C560 1.391 . S
C559 C564 1.391 . S
C559 H589 0.948 . S
C560 C559 1.391 . S
C560 C561 1.391 . S
C561 C560 1.391 . S
C561 C562 1.392 . S
C561 H590 0.947 . S
C562 C561 1.392 . S
C562 C563 1.419 . S
C562 H591 0.948 . S
C563 C562 1.419 . S
C563 C564 1.391 . S
C563 C567 1.397 1_545 S
C564 C559 1.391 . S
C564 C563 1.391 . S
C564 C565 1.399 1_545 S
C565 C564 1.399 1_565 S
C565 C566 1.396 . S
C565 C568 1.453 . S
C565 C569 1.684 . S
C566 C547 1.723 . S
C566 C565 1.396 . S
C566 C567 1.394 . S
C567 C563 1.397 1_565 S
C567 C566 1.394 . S
C567 C577 1.723 . S
C568 C565 1.453 . S
C568 H592 0.982 . S
C568 H593 0.979 . S
C568 H594 0.977 . S
C569 C565 1.684 . S
C569 H595 0.979 . S
C569 H596 0.980 . S
C569 H597 0.983 . S
C570 H546 0.948 1_565 S
C570 C571 1.391 . S
C570 C575 1.391 . S
C571 C570 1.391 . S
C571 C572 1.391 . S
C572 H549 0.947 . S
C572 C571 1.391 . S
C572 C573 1.392 . S
C573 H550 0.948 . S
C573 C572 1.392 . S
C573 C574 1.419 . S
C574 C573 1.419 . S
C574 C575 1.391 . S
C574 C578 1.397 . S
C575 C570 1.391 . S
C575 C574 1.391 . S
C575 C576 1.399 1_565 S
C576 C575 1.399 1_545 S
C576 C577 1.396 1_545 S
C576 C579 1.453 . S
C576 C580 1.684 . S
C577 C567 1.723 . S
C577 C576 1.396 1_565 S
C577 C578 1.394 . S
C578 C548 1.723 . S
C578 C574 1.397 . S
C578 C577 1.394 . S
C579 H551 0.982 1_545 S
C579 H555 0.979 . S
C579 H556 0.977 . S
C579 C576 1.453 . S
C580 H552 0.979 . S
C580 H553 0.980 . S
C580 H554 0.983 . S
C580 C576 1.684 . S
H581 C599 0.948 . S
H582 C540 0.948 . S
H583 C558 0.979 . S
H584 C558 0.980 . S
H585 C558 0.983 . S
H586 C557 0.982 . S
H587 C557 0.979 . S
H588 C557 0.977 . S
H589 C559 0.948 . S
H590 C561 0.947 . S
H591 C562 0.948 . S
H592 C568 0.982 . S
H593 C568 0.979 . S
H594 C568 0.977 . S
H595 C569 0.979 . S
H596 C569 0.980 . S
H597 C569 0.983 . S
H598 C542 0.947 . S
C599 C542 1.392 . S
C599 C543 1.419 . S
C599 H581 0.948 . S
C600 C601 1.391 . S
C600 C604 1.391 . S
C600 H642 0.948 . S
C601 C600 1.391 . S
C601 C602 1.391 . S
C602 C601 1.391 . S
C602 H658 0.947 . S
C602 C659 1.392 . S
C603 C604 1.391 . S
C603 C607 1.397 . S
C603 C659 1.419 . S
C604 C600 1.391 . S
C604 C603 1.391 . S
C604 C605 1.399 . S
C605 C604 1.399 . S
C605 C608 1.396 . S
C605 C617 1.453 . S
C605 C618 1.684 . S
H606 C630 0.948 . S
C607 C603 1.397 . S
C607 C608 1.394 . S
C607 C626 1.723 . S
C608 C605 1.396 . S
C608 C607 1.394 . S
C608 C638 1.723 . S
H609 C632 0.947 . S
H610 C633 0.948 . S
H611 C639 0.982 . S
H612 C640 0.979 . S
H613 C640 0.980 . S
H614 C640 0.983 . S
H615 C639 0.979 . S
H616 C639 0.977 . S
C617 C605 1.453 . S
C617 H646 0.982 . S
C617 H647 0.979 . S
C617 H648 0.977 . S
C618 C605 1.684 . S
C618 H643 0.979 . S
C618 H644 0.980 . S
C618 H645 0.983 . S
C619 C620 1.391 . S
C619 C624 1.391 . S
C619 H649 0.948 . S
C620 C619 1.391 . S
C620 C621 1.391 . S
C621 C620 1.391 . S
C621 C622 1.392 . S
C621 H650 0.947 . S
C622 C621 1.392 . S
C622 C623 1.419 . S
C622 H651 0.948 . S
C623 C622 1.419 . S
C623 C624 1.391 . S
C623 C627 1.397 . S
C624 C619 1.391 . S
C624 C623 1.391 . S
C624 C625 1.399 . S
C625 C624 1.399 . S
C625 C626 1.396 . S
C625 C628 1.453 . S
C625 C629 1.684 . S
C626 C607 1.723 . S
C626 C625 1.396 . S
C626 C627 1.394 . S
C627 C623 1.397 . S
C627 C626 1.394 . S
C627 C637 1.723 . S
C628 C625 1.453 . S
C628 H652 0.982 . S
C628 H653 0.979 . S
C628 H654 0.977 . S
C629 C625 1.684 . S
C629 H655 0.979 . S
C629 H656 0.980 . S
C629 H657 0.983 . S
C630 H606 0.948 . S
C630 C631 1.391 . S
C630 C635 1.391 . S
C631 C630 1.391 . S
C631 C632 1.391 . S
C632 H609 0.947 . S
C632 C631 1.391 . S
C632 C633 1.392 . S
C633 H610 0.948 . S
C633 C632 1.392 . S
C633 C634 1.419 . S
C634 C633 1.419 . S
C634 C635 1.391 . S
C634 C638 1.397 . S
C635 C630 1.391 . S
C635 C634 1.391 . S
C635 C636 1.399 . S
C636 C635 1.399 . S
C636 C637 1.396 . S
C636 C639 1.453 . S
C636 C640 1.684 . S
C637 C627 1.723 . S
C637 C636 1.396 . S
C637 C638 1.394 . S
C638 C608 1.723 . S
C638 C634 1.397 . S
C638 C637 1.394 . S
C639 H611 0.982 . S
C639 H615 0.979 . S
C639 H616 0.977 . S
C639 C636 1.453 . S
C640 H612 0.979 . S
C640 H613 0.980 . S
C640 H614 0.983 . S
C640 C636 1.684 . S
H641 C659 0.948 . S
H642 C600 0.948 . S
H643 C618 0.979 . S
H644 C618 0.980 . S
H645 C618 0.983 . S
H646 C617 0.982 . S
H647 C617 0.979 . S
H648 C617 0.977 . S
H649 C619 0.948 . S
H650 C621 0.947 . S
H651 C622 0.948 . S
H652 C628 0.982 . S
H653 C628 0.979 . S
H654 C628 0.977 . S
H655 C629 0.979 . S
H656 C629 0.980 . S
H657 C629 0.983 . S
H658 C602 0.947 . S
C659 C602 1.392 . S
C659 C603 1.419 . S
C659 H641 0.948 . S
C660 C661 1.391 . S
C660 C664 1.391 . S
C660 H702 0.948 . S
C661 C660 1.391 . S
C661 C662 1.391 . S
C662 C661 1.391 . S
C662 H718 0.947 . S
C662 C719 1.392 . S
C663 C664 1.391 . S
C663 C667 1.397 . S
C663 C719 1.419 . S
C664 C660 1.391 . S
C664 C663 1.391 . S
C664 C665 1.399 . S
C665 C664 1.399 . S
C665 C668 1.396 . S
C665 C677 1.453 . S
C665 C678 1.684 . S
H666 C690 0.948 . S
C667 C663 1.397 . S
C667 C668 1.394 . S
C667 C686 1.723 . S
C668 C665 1.396 . S
C668 C667 1.394 . S
C668 C698 1.723 . S
H669 C692 0.947 . S
H670 C693 0.948 . S
H671 C699 0.982 . S
H672 C700 0.979 . S
H673 C700 0.980 . S
H674 C700 0.983 . S
H675 C699 0.979 . S
H676 C699 0.977 . S
C677 C665 1.453 . S
C677 H706 0.982 . S
C677 H707 0.979 . S
C677 H708 0.977 . S
C678 C665 1.684 . S
C678 H703 0.979 . S
C678 H704 0.980 . S
C678 H705 0.983 . S
C679 C680 1.391 . S
C679 C684 1.391 . S
C679 H709 0.948 . S
C680 C679 1.391 . S
C680 C681 1.391 . S
C681 C680 1.391 . S
C681 C682 1.392 . S
C681 H710 0.947 . S
C682 C681 1.392 . S
C682 C683 1.419 . S
C682 H711 0.948 . S
C683 C682 1.419 . S
C683 C684 1.391 . S
C683 C687 1.397 . S
C684 C679 1.391 . S
C684 C683 1.391 . S
C684 C685 1.399 . S
C685 C684 1.399 . S
C685 C686 1.396 . S
C685 C688 1.453 . S
C685 C689 1.684 . S
C686 C667 1.723 . S
C686 C685 1.396 . S
C686 C687 1.394 . S
C687 C683 1.397 . S
C687 C686 1.394 . S
C687 C697 1.723 . S
C688 C685 1.453 . S
C688 H712 0.982 . S
C688 H713 0.979 . S
C688 H714 0.977 . S
C689 C685 1.684 . S
C689 H715 0.979 . S
C689 H716 0.980 . S
C689 H717 0.983 . S
C690 H666 0.948 . S
C690 C691 1.391 . S
C690 C695 1.391 . S
C691 C690 1.391 . S
C691 C692 1.391 . S
C692 H669 0.947 . S
C692 C691 1.391 . S
C692 C693 1.392 . S
C693 H670 0.948 . S
C693 C692 1.392 . S
C693 C694 1.419 . S
C694 C693 1.419 . S
C694 C695 1.391 . S
C694 C698 1.397 . S
C695 C690 1.391 . S
C695 C694 1.391 . S
C695 C696 1.399 . S
C696 C695 1.399 . S
C696 C697 1.396 . S
C696 C699 1.453 . S
C696 C700 1.684 . S
C697 C687 1.723 . S
C697 C696 1.396 . S
C697 C698 1.394 . S
C698 C668 1.723 . S
C698 C694 1.397 . S
C698 C697 1.394 . S
C699 H671 0.982 . S
C699 H675 0.979 . S
C699 H676 0.977 . S
C699 C696 1.453 . S
C700 H672 0.979 . S
C700 H673 0.980 . S
C700 H674 0.983 . S
C700 C696 1.684 . S
H701 C719 0.948 . S
H702 C660 0.948 . S
H703 C678 0.979 . S
H704 C678 0.980 . S
H705 C678 0.983 . S
H706 C677 0.982 . S
H707 C677 0.979 . S
H708 C677 0.977 . S
H709 C679 0.948 . S
H710 C681 0.947 . S
H711 C682 0.948 . S
H712 C688 0.982 . S
H713 C688 0.979 . S
H714 C688 0.977 . S
H715 C689 0.979 . S
H716 C689 0.980 . S
H717 C689 0.983 . S
H718 C662 0.947 . S
C719 C662 1.392 . S
C719 C663 1.419 . S
C719 H701 0.948 . S
C720 C721 1.391 . S
C720 C724 1.391 . S
C720 H762 0.948 . S
C721 C720 1.391 . S
C721 C722 1.391 . S
C722 C721 1.391 . S
C722 H778 0.947 . S
C722 C779 1.392 . S
C723 C724 1.391 . S
C723 C727 1.397 . S
C723 C779 1.419 . S
C724 C720 1.391 . S
C724 C723 1.391 . S
C724 C725 1.399 . S
C725 C724 1.399 . S
C725 C728 1.396 . S
C725 C737 1.453 . S
C725 C738 1.684 . S
H726 C750 0.948 . S
C727 C723 1.397 . S
C727 C728 1.394 . S
C727 C746 1.723 . S
C728 C725 1.396 . S
C728 C727 1.394 . S
C728 C758 1.723 . S
H729 C752 0.947 . S
H730 C753 0.948 . S
H731 C759 0.982 . S
H732 C760 0.979 . S
H733 C760 0.980 . S
H734 C760 0.983 . S
H735 C759 0.979 . S
H736 C759 0.977 . S
C737 C725 1.453 . S
C737 H766 0.982 . S
C737 H767 0.979 . S
C737 H768 0.977 . S
C738 C725 1.684 . S
C738 H763 0.979 . S
C738 H764 0.980 . S
C738 H765 0.983 . S
C739 C740 1.391 . S
C739 C744 1.391 . S
C739 H769 0.948 . S
C740 C739 1.391 . S
C740 C741 1.391 . S
C741 C740 1.391 . S
C741 C742 1.392 . S
C741 H770 0.947 . S
C742 C741 1.392 . S
C742 C743 1.419 . S
C742 H771 0.948 . S
C743 C742 1.419 . S
C743 C744 1.391 . S
C743 C747 1.397 . S
C744 C739 1.391 . S
C744 C743 1.391 . S
C744 C745 1.399 . S
C745 C744 1.399 . S
C745 C746 1.396 . S
C745 C748 1.453 . S
C745 C749 1.684 . S
C746 C727 1.723 . S
C746 C745 1.396 . S
C746 C747 1.394 . S
C747 C743 1.397 . S
C747 C746 1.394 . S
C747 C757 1.723 . S
C748 C745 1.453 . S
C748 H772 0.982 . S
C748 H773 0.979 . S
C748 H774 0.977 . S
C749 C745 1.684 . S
C749 H775 0.979 . S
C749 H776 0.980 . S
C749 H777 0.983 . S
C750 H726 0.948 . S
C750 C751 1.391 . S
C750 C755 1.391 . S
C751 C750 1.391 . S
C751 C752 1.391 . S
C752 H729 0.947 . S
C752 C751 1.391 . S
C752 C753 1.392 . S
C753 H730 0.948 . S
C753 C752 1.392 . S
C753 C754 1.419 . S
C754 C753 1.419 . S
C754 C755 1.391 . S
C754 C758 1.397 . S
C755 C750 1.391 . S
C755 C754 1.391 . S
C755 C756 1.399 . S
C756 C755 1.399 . S
C756 C757 1.396 . S
C756 C759 1.453 . S
C756 C760 1.684 . S
C757 C747 1.723 . S
C757 C756 1.396 . S
C757 C758 1.394 . S
C758 C728 1.723 . S
C758 C754 1.397 . S
C758 C757 1.394 . S
C759 H731 0.982 . S
C759 H735 0.979 . S
C759 H736 0.977 . S
C759 C756 1.453 . S
C760 H732 0.979 . S
C760 H733 0.980 . S
C760 H734 0.983 . S
C760 C756 1.684 . S
H761 C779 0.948 . S
H762 C720 0.948 . S
H763 C738 0.979 . S
H764 C738 0.980 . S
H765 C738 0.983 . S
H766 C737 0.982 . S
H767 C737 0.979 . S
H768 C737 0.977 . S
H769 C739 0.948 . S
H770 C741 0.947 . S
H771 C742 0.948 . S
H772 C748 0.982 . S
H773 C748 0.979 . S
H774 C748 0.977 . S
H775 C749 0.979 . S
H776 C749 0.980 . S
H777 C749 0.983 . S
H778 C722 0.947 . S
C779 C722 1.392 . S
C779 C723 1.419 . S
C779 H761 0.948 . S
C780 C781 1.391 . S
C780 C784 1.391 . S
C780 H822 0.948 . S
C781 C780 1.391 . S
C781 C782 1.391 . S
C782 C781 1.391 . S
C782 H838 0.947 . S
C782 C839 1.392 1_554 S
C783 C784 1.391 1_556 S
C783 C787 1.397 . S
C783 C839 1.419 . S
C784 C780 1.391 . S
C784 C783 1.391 1_554 S
C784 C785 1.399 . S
C785 C784 1.399 . S
C785 C788 1.396 1_554 S
C785 C797 1.453 . S
C785 C798 1.684 . S
H786 C810 0.948 . S
C787 C783 1.397 . S
C787 C788 1.394 . S
C787 C806 1.723 . S
C788 C785 1.396 1_556 S
C788 C787 1.394 . S
C788 C818 1.723 . S
H789 C812 0.947 . S
H790 C813 0.936 1_554 S
H791 C819 0.982 . S
H792 C820 0.979 . S
H793 C820 0.980 . S
H794 C820 0.983 . S
H795 C819 0.979 . S
H796 C819 0.977 . S
C797 C785 1.453 . S
C797 H826 0.982 . S
C797 H827 0.979 . S
C797 H828 0.977 . S
C798 C785 1.684 . S
C798 H823 0.979 . S
C798 H824 0.980 . S
C798 H825 0.983 . S
C799 C800 1.391 . S
C799 C804 1.391 . S
C799 H829 0.948 . S
C800 C799 1.391 . S
C800 C801 1.391 . S
C801 C800 1.391 . S
C801 C802 1.392 . S
C801 H830 0.947 . S
C802 C801 1.392 . S
C802 C803 1.419 . S
C802 H831 0.948 . S
C803 C802 1.419 . S
C803 C804 1.391 . S
C803 C807 1.397 . S
C804 C799 1.391 . S
C804 C803 1.391 . S
C804 C805 1.399 . S
C805 C804 1.399 . S
C805 C806 1.396 . S
C805 C808 1.453 . S
C805 C809 1.684 . S
C806 C787 1.723 . S
C806 C805 1.396 . S
C806 C807 1.394 . S
C807 C803 1.397 . S
C807 C806 1.394 . S
C807 C817 1.723 . S
C808 C805 1.453 . S
C808 H832 0.982 . S
C808 H833 0.979 . S
C808 H834 0.977 . S
C809 C805 1.684 . S
C809 H835 0.979 . S
C809 H836 0.980 . S
C809 H837 0.983 . S
C810 H786 0.948 . S
C810 C811 1.391 . S
C810 C815 1.391 . S
C811 C810 1.391 . S
C811 C812 1.391 1_556 S
C812 H789 0.947 . S
C812 C811 1.391 1_554 S
C812 C813 1.390 1_554 S
C813 H790 0.936 1_556 S
C813 C812 1.390 1_556 S
C813 C814 1.433 . S
C814 C813 1.433 . S
C814 C815 1.391 . S
C814 C818 1.397 . S
C815 C810 1.391 . S
C815 C814 1.391 . S
C815 C816 1.399 . S
C816 C815 1.399 . S
C816 C817 1.396 . S
C816 C819 1.453 . S
C816 C820 1.684 . S
C817 C807 1.723 . S
C817 C816 1.396 . S
C817 C818 1.394 . S
C818 C788 1.723 . S
C818 C814 1.397 . S
C818 C817 1.394 . S
C819 H791 0.982 . S
C819 H795 0.979 . S
C819 H796 0.977 . S
C819 C816 1.453 . S
C820 H792 0.979 . S
C820 H793 0.980 . S
C820 H794 0.983 . S
C820 C816 1.684 . S
H821 C839 0.948 . S
H822 C780 0.948 . S
H823 C798 0.979 . S
H824 C798 0.980 . S
H825 C798 0.983 . S
H826 C797 0.982 . S
H827 C797 0.979 . S
H828 C797 0.977 . S
H829 C799 0.948 . S
H830 C801 0.947 . S
H831 C802 0.948 . S
H832 C808 0.982 . S
H833 C808 0.979 . S
H834 C808 0.977 . S
H835 C809 0.979 . S
H836 C809 0.980 . S
H837 C809 0.983 . S
H838 C782 0.947 . S
C839 C782 1.392 1_556 S
C839 C783 1.419 . S
C839 H821 0.948 . S
C840 C841 1.391 . S
C840 C844 1.391 . S
C840 H882 0.948 . S
C841 C840 1.391 . S
C841 C842 1.391 . S
C842 C841 1.391 . S
C842 H898 0.947 . S
C842 C899 1.392 . S
C843 C844 1.391 . S
C843 C847 1.397 . S
C843 C899 1.419 . S
C844 C840 1.391 . S
C844 C843 1.391 . S
C844 C845 1.399 . S
C845 C844 1.399 . S
C845 C848 1.396 . S
C845 C857 1.453 . S
C845 C858 1.684 . S
H846 C870 0.948 . S
C847 C843 1.397 . S
C847 C848 1.394 . S
C847 C866 1.723 . S
C848 C845 1.396 . S
C848 C847 1.394 . S
C848 C878 1.723 . S
H849 C872 0.947 . S
H850 C873 0.948 . S
H851 C879 0.982 . S
H852 C880 0.979 . S
H853 C880 0.980 . S
H854 C880 0.983 . S
H855 C879 0.979 . S
H856 C879 0.977 . S
C857 C845 1.453 . S
C857 H886 0.982 . S
C857 H887 0.979 . S
C857 H888 0.977 . S
C858 C845 1.684 . S
C858 H883 0.979 . S
C858 H884 0.980 . S
C858 H885 0.983 . S
C859 C860 1.391 . S
C859 C864 1.391 . S
C859 H889 0.948 . S
C860 C859 1.391 . S
C860 C861 1.391 . S
C861 C860 1.391 . S
C861 C862 1.392 . S
C861 H890 0.947 . S
C862 C861 1.392 . S
C862 C863 1.419 . S
C862 H891 0.948 . S
C863 C862 1.419 . S
C863 C864 1.391 . S
C863 C867 1.397 . S
C864 C859 1.391 . S
C864 C863 1.391 . S
C864 C865 1.399 . S
C865 C864 1.399 . S
C865 C866 1.396 . S
C865 C868 1.453 . S
C865 C869 1.684 . S
C866 C847 1.723 . S
C866 C865 1.396 . S
C866 C867 1.394 . S
C867 C863 1.397 . S
C867 C866 1.394 . S
C867 C877 1.723 . S
C868 C865 1.453 . S
C868 H892 0.982 . S
C868 H893 0.979 . S
C868 H894 0.977 . S
C869 C865 1.684 . S
C869 H895 0.979 . S
C869 H896 0.980 . S
C869 H897 0.983 . S
C870 H846 0.948 . S
C870 C871 1.391 . S
C870 C875 1.391 . S
C871 C870 1.391 . S
C871 C872 1.391 . S
C872 H849 0.947 . S
C872 C871 1.391 . S
C872 C873 1.392 . S
C873 H850 0.948 . S
C873 C872 1.392 . S
C873 C874 1.419 . S
C874 C873 1.419 . S
C874 C875 1.391 . S
C874 C878 1.397 . S
C875 C870 1.391 . S
C875 C874 1.391 . S
C875 C876 1.399 . S
C876 C875 1.399 . S
C876 C877 1.396 . S
C876 C879 1.453 . S
C876 C880 1.684 . S
C877 C867 1.723 . S
C877 C876 1.396 . S
C877 C878 1.394 . S
C878 C848 1.723 . S
C878 C874 1.397 . S
C878 C877 1.394 . S
C879 H851 0.982 . S
C879 H855 0.979 . S
C879 H856 0.977 . S
C879 C876 1.453 . S
C880 H852 0.979 . S
C880 H853 0.980 . S
C880 H854 0.983 . S
C880 C876 1.684 . S
H881 C899 0.948 . S
H882 C840 0.948 . S
H883 C858 0.979 . S
H884 C858 0.980 . S
H885 C858 0.983 . S
H886 C857 0.982 . S
H887 C857 0.979 . S
H888 C857 0.977 . S
H889 C859 0.948 . S
H890 C861 0.947 . S
H891 C862 0.948 . S
H892 C868 0.982 . S
H893 C868 0.979 . S
H894 C868 0.977 . S
H895 C869 0.979 . S
H896 C869 0.980 . S
H897 C869 0.983 . S
H898 C842 0.947 . S
C899 C842 1.392 . S
C899 C843 1.419 . S
C899 H881 0.948 . S
C900 C901 1.391 1_554 S
C900 C904 1.391 1_564 S
C900 H942 0.948 . S
C901 C900 1.391 1_556 S
C901 C902 1.391 . S
C902 C901 1.391 . S
C902 H958 0.947 . S
C902 C959 1.392 . S
C903 C904 1.391 1_565 S
C903 C907 1.397 1_565 S
C903 C959 1.419 . S
C904 C900 1.391 1_546 S
C904 C903 1.391 1_545 S
C904 C905 1.399 1_556 S
C905 C904 1.399 1_554 S
C905 C908 1.396 1_554 S
C905 C917 1.453 . S
C905 C918 1.684 . S
H906 C930 0.948 . S
C907 C903 1.397 1_545 S
C907 C908 1.394 . S
C907 C926 1.723 . S
C908 C905 1.396 1_556 S
C908 C907 1.394 . S
C908 C938 1.723 . S
H909 C932 0.947 . S
H910 C933 0.948 . S
H911 C939 0.982 . S
H912 C940 0.979 . S
H913 C940 0.980 . S
H914 C940 0.983 . S
H915 C939 0.979 . S
H916 C939 0.977 . S
C917 C905 1.453 . S
C917 H946 0.982 1_554 S
C917 H947 0.979 . S
C917 H948 0.977 . S
C918 C905 1.684 . S
C918 H943 0.979 . S
C918 H944 0.980 . S
C918 H945 0.983 . S
C919 C920 1.391 . S
C919 C924 1.391 . S
C919 H949 0.948 1_545 S
C920 C919 1.391 . S
C920 C921 1.391 . S
C921 C920 1.391 . S
C921 C922 1.392 . S
C921 H950 0.947 . S
C922 C921 1.392 . S
C922 C923 1.419 . S
C922 H951 0.948 . S
C923 C922 1.419 . S
C923 C924 1.391 . S
C923 C927 1.397 . S
C924 C919 1.391 . S
C924 C923 1.391 . S
C924 C925 1.406 . S
C925 C924 1.406 . S
C925 C926 1.407 . S
C925 C928 1.451 1_545 S
C925 C929 1.667 1_545 S
C926 C907 1.723 . S
C926 C925 1.407 . S
C926 C927 1.394 . S
C927 C923 1.397 . S
C927 C926 1.394 . S
C927 C937 1.723 . S
C928 C925 1.451 1_565 S
C928 H952 0.982 1_565 S
C928 H953 0.979 . S
C928 H954 0.977 . S
C929 C925 1.667 1_565 S
C929 H955 0.979 . S
C929 H956 0.980 . S
C929 H957 0.983 . S
C930 H906 0.948 . S
C930 C931 1.391 . S
C930 C935 1.391 . S
C931 C930 1.391 . S
C931 C932 1.391 . S
C932 H909 0.947 . S
C932 C931 1.391 . S
C932 C933 1.392 . S
C933 H910 0.948 . S
C933 C932 1.392 . S
C933 C934 1.419 . S
C934 C933 1.419 . S
C934 C935 1.391 . S
C934 C938 1.397 1_554 S
C935 C930 1.391 . S
C935 C934 1.391 . S
C935 C936 1.399 1_554 S
C936 C935 1.399 1_556 S
C936 C937 1.396 . S
C936 C939 1.453 . S
C936 C940 1.684 . S
C937 C927 1.723 . S
C937 C936 1.396 . S
C937 C938 1.394 . S
C938 C908 1.723 . S
C938 C934 1.397 1_556 S
C938 C937 1.394 . S
C939 H911 0.982 . S
C939 H915 0.979 . S
C939 H916 0.977 . S
C939 C936 1.453 . S
C940 H912 0.979 . S
C940 H913 0.980 . S
C940 H914 0.983 . S
C940 C936 1.684 . S
H941 C959 0.948 . S
H942 C900 0.948 . S
H943 C918 0.979 . S
H944 C918 0.980 . S
H945 C918 0.983 . S
H946 C917 0.982 1_556 S
H947 C917 0.979 . S
H948 C917 0.977 . S
H949 C919 0.948 1_565 S
H950 C921 0.947 . S
H951 C922 0.948 . S
H952 C928 0.982 1_545 S
H953 C928 0.979 . S
H954 C928 0.977 . S
H955 C929 0.979 . S
H956 C929 0.980 . S
H957 C929 0.983 . S
H958 C902 0.947 . S
C959 C902 1.392 . S
C959 C903 1.419 . S
C959 H941 0.948 . S
Mn960 O965 2.095 . S
Mn960 O975 2.162 . S
Mn960 O976 2.297 . S
Mn960 O984 2.385 1_554 S
Mn960 O985 2.209 1_554 S
Mn960 O986 2.094 . S
Mn961 O966 2.121 . S
Mn961 N968 2.257 . S
Mn961 N977 2.282 . S
Mn961 O985 2.215 . S
Mn961 O987 2.117 . S
C962 O984 1.234 . S
C962 O985 1.283 . S
C963 O975 1.281 . S
C963 O976 1.236 . S
C964 O986 1.240 . S
C964 O987 1.264 1_554 S
O965 Mn960 2.095 . S
O965 C974 1.270 . S
O966 Mn961 2.121 . S
O966 C974 1.231 1_556 S
C967 N968 1.326 . S
C967 C971 1.460 . S
C967 H973 0.929 . S
N968 Mn961 2.257 . S
N968 C967 1.326 . S
N968 C972 1.362 . S
C969 C970 1.258 . S
C969 C972 1.431 . S
C969 C989 1.449 . S
C970 C969 1.258 . S
C970 C971 1.477 . S
C970 H990 0.931 . S
C971 C967 1.460 . S
C971 C970 1.477 . S
C971 H991 0.930 . S
C972 N968 1.362 . S
C972 C969 1.431 . S
C972 C982 1.476 . S
H973 C967 0.929 . S
C974 O965 1.270 . S
C974 O966 1.231 1_554 S
O975 Mn960 2.162 . S
O975 C963 1.281 . S
O976 Mn960 2.297 . S
O976 C963 1.236 . S
N977 Mn961 2.282 . S
N977 C978 1.328 . S
N977 C982 1.318 . S
C978 N977 1.328 . S
C978 C979 1.457 . S
C978 H983 0.929 . S
C979 C978 1.457 . S
C979 C980 1.291 . S
C979 H992 0.931 . S
C980 C979 1.291 . S
C980 C981 1.373 . S
C980 H993 0.929 . S
C981 C980 1.373 . S
C981 C982 1.396 . S
C981 C988 1.403 . S
C982 C972 1.476 . S
C982 N977 1.318 . S
C982 C981 1.396 . S
H983 C978 0.929 . S
O984 Mn960 2.385 1_556 S
O984 C962 1.234 . S
O985 Mn960 2.209 1_556 S
O985 Mn961 2.215 . S
O985 C962 1.283 . S
O986 Mn960 2.094 . S
O986 C964 1.240 . S
O987 Mn961 2.117 . S
O987 C964 1.264 1_556 S
C988 C981 1.403 . S
C988 C989 1.399 . S
C988 H994 0.929 . S
C989 C969 1.449 . S
C989 C988 1.399 . S
C989 H995 0.930 . S
H990 C970 0.931 . S
H991 C971 0.930 . S
H992 C979 0.931 . S
H993 C980 0.929 . S
H994 C988 0.929 . S
H995 C989 0.930 . S
Mn996 O1001 2.095 . S
Mn996 O1011 2.162 . S
Mn996 O1012 2.297 . S
Mn996 O1020 2.385 . S
Mn996 O1021 2.209 . S
Mn996 O1022 2.094 . S
Mn997 O1002 2.121 . S
Mn997 N1004 2.257 . S
Mn997 N1013 2.282 . S
Mn997 O1021 2.215 . S
Mn997 O1023 2.117 . S
C998 O1020 1.234 . S
C998 O1021 1.283 . S
C999 O1011 1.281 . S
C999 O1012 1.236 . S
C1000 O1022 1.240 . S
C1000 O1023 1.264 . S
O1001 Mn996 2.095 . S
O1001 C1010 1.250 . S
O1002 Mn997 2.121 . S
O1002 C1010 1.258 . S
C1003 N1004 1.326 . S
C1003 C1007 1.460 . S
C1003 H1009 0.929 . S
N1004 Mn997 2.257 . S
N1004 C1003 1.326 . S
N1004 C1008 1.362 . S
C1005 C1006 1.258 . S
C1005 C1008 1.431 . S
C1005 C1025 1.449 . S
C1006 C1005 1.258 . S
C1006 C1007 1.477 . S
C1006 H1026 0.931 . S
C1007 C1003 1.460 . S
C1007 C1006 1.477 . S
C1007 H1027 0.930 . S
C1008 N1004 1.362 . S
C1008 C1005 1.431 . S
C1008 C1018 1.476 . S
H1009 C1003 0.929 . S
C1010 O1001 1.250 . S
C1010 O1002 1.258 . S
O1011 Mn996 2.162 . S
O1011 C999 1.281 . S
O1012 Mn996 2.297 . S
O1012 C999 1.236 . S
N1013 Mn997 2.282 . S
N1013 C1014 1.328 . S
N1013 C1018 1.318 . S
C1014 N1013 1.328 . S
C1014 C1015 1.457 . S
C1014 H1019 0.929 . S
C1015 C1014 1.457 . S
C1015 C1016 1.291 . S
C1015 H1028 0.931 . S
C1016 C1015 1.291 . S
C1016 C1017 1.373 . S
C1016 H1029 0.929 . S
C1017 C1016 1.373 . S
C1017 C1018 1.396 . S
C1017 C1024 1.403 . S
C1018 C1008 1.476 . S
C1018 N1013 1.318 . S
C1018 C1017 1.396 . S
H1019 C1014 0.929 . S
O1020 Mn996 2.385 . S
O1020 C998 1.234 . S
O1021 Mn996 2.209 . S
O1021 Mn997 2.215 . S
O1021 C998 1.283 . S
O1022 Mn996 2.094 . S
O1022 C1000 1.240 . S
O1023 Mn997 2.117 . S
O1023 C1000 1.264 . S
C1024 C1017 1.403 . S
C1024 C1025 1.399 . S
C1024 H1030 0.929 . S
C1025 C1005 1.449 . S
C1025 C1024 1.399 . S
C1025 H1031 0.930 . S
H1026 C1006 0.931 . S
H1027 C1007 0.930 . S
H1028 C1015 0.931 . S
H1029 C1016 0.929 . S
H1030 C1024 0.929 . S
H1031 C1025 0.930 . S
Mn1032 O1037 2.095 1_554 S
Mn1032 O1047 2.162 . S
Mn1032 O1048 2.297 1_554 S
Mn1032 O1056 2.385 . S
Mn1032 O1057 2.209 1_554 S
Mn1032 O1058 2.094 . S
Mn1033 O1038 2.121 . S
Mn1033 N1040 2.257 . S
Mn1033 N1049 2.282 . S
Mn1033 O1057 2.215 . S
Mn1033 O1059 2.117 1_556 S
C1034 O1056 1.230 . S
C1034 O1057 1.285 1_554 S
C1035 O1047 1.281 . S
C1035 O1048 1.236 1_554 S
C1036 O1058 1.240 . S
C1036 O1059 1.264 . S
O1037 Mn1032 2.095 1_556 S
O1037 C1046 1.250 . S
O1038 Mn1033 2.121 . S
O1038 C1046 1.258 . S
C1039 N1040 1.326 . S
C1039 C1043 1.460 . S
C1039 H1045 0.929 . S
N1040 Mn1033 2.257 . S
N1040 C1039 1.326 . S
N1040 C1044 1.362 . S
C1041 C1042 1.258 . S
C1041 C1044 1.431 . S
C1041 C1061 1.449 . S
C1042 C1041 1.258 . S
C1042 C1043 1.477 . S
C1042 H1062 0.931 . S
C1043 C1039 1.460 . S
C1043 C1042 1.477 . S
C1043 H1063 0.930 . S
C1044 N1040 1.362 . S
C1044 C1041 1.431 . S
C1044 C1054 1.476 . S
H1045 C1039 0.929 . S
C1046 O1037 1.250 . S
C1046 O1038 1.258 . S
O1047 Mn1032 2.162 . S
O1047 C1035 1.281 . S
O1048 Mn1032 2.297 1_556 S
O1048 C1035 1.236 1_556 S
N1049 Mn1033 2.282 . S
N1049 C1050 1.328 1_556 S
N1049 C1054 1.318 . S
C1050 N1049 1.328 1_554 S
C1050 C1051 1.457 . S
C1050 H1055 0.929 . S
C1051 C1050 1.457 . S
C1051 C1052 1.291 . S
C1051 H1064 0.931 . S
C1052 C1051 1.291 . S
C1052 C1053 1.373 1_554 S
C1052 H1065 0.929 . S
C1053 C1052 1.373 1_556 S
C1053 C1054 1.396 . S
C1053 C1060 1.403 . S
C1054 C1044 1.476 . S
C1054 N1049 1.318 . S
C1054 C1053 1.396 . S
H1055 C1050 0.929 . S
O1056 Mn1032 2.385 . S
O1056 C1034 1.230 . S
O1057 Mn1032 2.209 1_556 S
O1057 Mn1033 2.215 . S
O1057 C1034 1.285 1_556 S
O1058 Mn1032 2.094 . S
O1058 C1036 1.240 . S
O1059 Mn1033 2.117 1_554 S
O1059 C1036 1.264 . S
C1060 C1053 1.403 . S
C1060 C1061 1.399 . S
C1060 H1066 0.929 . S
C1061 C1041 1.449 . S
C1061 C1060 1.399 . S
C1061 H1067 0.930 . S
H1062 C1042 0.931 . S
H1063 C1043 0.930 . S
H1064 C1051 0.931 . S
H1065 C1052 0.929 . S
H1066 C1060 0.929 . S
H1067 C1061 0.930 . S
Mn1068 O1073 2.095 . S
Mn1068 O1083 2.162 . S
Mn1068 O1084 2.297 . S
Mn1068 O1092 2.385 1_545 S
Mn1068 O1093 2.209 1_545 S
Mn1068 O1094 2.094 . S
Mn1069 O1074 2.121 . S
Mn1069 N1076 2.257 . S
Mn1069 N1085 2.282 . S
Mn1069 O1093 2.215 . S
Mn1069 O1095 2.117 . S
C1070 O1092 1.234 . S
C1070 O1093 1.283 . S
C1071 O1083 1.281 . S
C1071 O1084 1.236 . S
C1072 O1094 1.240 . S
C1072 O1095 1.264 1_545 S
O1073 Mn1068 2.095 . S
O1073 C1082 1.250 1_545 S
O1074 Mn1069 2.121 . S
O1074 C1082 1.258 . S
C1075 N1076 1.326 . S
C1075 C1079 1.460 . S
C1075 H1081 0.929 . S
N1076 Mn1069 2.257 . S
N1076 C1075 1.326 . S
N1076 C1080 1.362 . S
C1077 C1078 1.258 . S
C1077 C1080 1.431 . S
C1077 C1097 1.449 . S
C1078 C1077 1.258 . S
C1078 C1079 1.477 . S
C1078 H1098 0.931 . S
C1079 C1075 1.460 . S
C1079 C1078 1.477 . S
C1079 H1099 0.930 . S
C1080 N1076 1.362 . S
C1080 C1077 1.431 . S
C1080 C1090 1.476 . S
H1081 C1075 0.929 . S
C1082 O1073 1.250 1_565 S
C1082 O1074 1.258 . S
O1083 Mn1068 2.162 . S
O1083 C1071 1.281 . S
O1084 Mn1068 2.297 . S
O1084 C1071 1.236 . S
N1085 Mn1069 2.282 . S
N1085 C1086 1.328 . S
N1085 C1090 1.318 . S
C1086 N1085 1.328 . S
C1086 C1087 1.457 . S
C1086 H1091 0.929 . S
C1087 C1086 1.457 . S
C1087 C1088 1.291 . S
C1087 H1100 0.931 . S
C1088 C1087 1.291 . S
C1088 C1089 1.373 . S
C1088 H1101 0.929 . S
C1089 C1088 1.373 . S
C1089 C1090 1.396 . S
C1089 C1096 1.403 . S
C1090 C1080 1.476 . S
C1090 N1085 1.318 . S
C1090 C1089 1.396 . S
H1091 C1086 0.929 . S
O1092 Mn1068 2.385 1_565 S
O1092 C1070 1.234 . S
O1093 Mn1068 2.209 1_565 S
O1093 Mn1069 2.215 . S
O1093 C1070 1.283 . S
O1094 Mn1068 2.094 . S
O1094 C1072 1.240 . S
O1095 Mn1069 2.117 . S
O1095 C1072 1.264 1_565 S
C1096 C1089 1.403 . S
C1096 C1097 1.399 . S
C1096 H1102 0.929 . S
C1097 C1077 1.449 . S
C1097 C1096 1.399 . S
C1097 H1103 0.930 . S
H1098 C1078 0.931 . S
H1099 C1079 0.930 . S
H1100 C1087 0.931 . S
H1101 C1088 0.929 . S
H1102 C1096 0.929 . S
H1103 C1097 0.930 . S
Mn1104 O1109 2.095 . S
Mn1104 O1119 2.162 . S
Mn1104 O1120 2.297 . S
Mn1104 O1128 2.385 . S
Mn1104 O1129 2.209 . S
Mn1104 O1130 2.094 . S
Mn1105 O1110 2.121 . S
Mn1105 N1112 2.257 . S
Mn1105 N1121 2.282 . S
Mn1105 O1129 2.215 . S
Mn1105 O1131 2.117 . S
C1106 O1128 1.234 . S
C1106 O1129 1.283 . S
C1107 O1119 1.281 . S
C1107 O1120 1.236 . S
C1108 O1130 1.240 . S
C1108 O1131 1.264 . S
O1109 Mn1104 2.095 . S
O1109 C1118 1.250 . S
O1110 Mn1105 2.121 . S
O1110 C1118 1.258 . S
C1111 N1112 1.326 . S
C1111 C1115 1.460 . S
C1111 H1117 0.929 . S
N1112 Mn1105 2.257 . S
N1112 C1111 1.326 . S
N1112 C1116 1.362 . S
C1113 C1114 1.258 . S
C1113 C1116 1.431 . S
C1113 C1133 1.449 . S
C1114 C1113 1.258 . S
C1114 C1115 1.477 . S
C1114 H1134 0.931 . S
C1115 C1111 1.460 . S
C1115 C1114 1.477 . S
C1115 H1135 0.930 . S
C1116 N1112 1.362 . S
C1116 C1113 1.431 . S
C1116 C1126 1.476 . S
H1117 C1111 0.929 . S
C1118 O1109 1.250 . S
C1118 O1110 1.258 . S
O1119 Mn1104 2.162 . S
O1119 C1107 1.281 . S
O1120 Mn1104 2.297 . S
O1120 C1107 1.236 . S
N1121 Mn1105 2.282 . S
N1121 C1122 1.328 . S
N1121 C1126 1.318 . S
C1122 N1121 1.328 . S
C1122 C1123 1.457 . S
C1122 H1127 0.929 . S
C1123 C1122 1.457 . S
C1123 C1124 1.291 . S
C1123 H1136 0.931 . S
C1124 C1123 1.291 . S
C1124 C1125 1.373 . S
C1124 H1137 0.929 . S
C1125 C1124 1.373 . S
C1125 C1126 1.396 . S
C1125 C1132 1.403 . S
C1126 C1116 1.476 . S
C1126 N1121 1.318 . S
C1126 C1125 1.396 . S
H1127 C1122 0.929 . S
O1128 Mn1104 2.385 . S
O1128 C1106 1.234 . S
O1129 Mn1104 2.209 . S
O1129 Mn1105 2.215 . S
O1129 C1106 1.283 . S
O1130 Mn1104 2.094 . S
O1130 C1108 1.240 . S
O1131 Mn1105 2.117 . S
O1131 C1108 1.264 . S
C1132 C1125 1.403 . S
C1132 C1133 1.399 . S
C1132 H1138 0.929 . S
C1133 C1113 1.449 . S
C1133 C1132 1.399 . S
C1133 H1139 0.930 . S
H1134 C1114 0.931 . S
H1135 C1115 0.930 . S
H1136 C1123 0.931 . S
H1137 C1124 0.929 . S
H1138 C1132 0.929 . S
H1139 C1133 0.930 . S
Mn1140 O1145 2.095 . S
Mn1140 O1155 2.162 . S
Mn1140 O1156 2.297 . S
Mn1140 O1164 2.385 . S
Mn1140 O1165 2.209 . S
Mn1140 O1166 2.094 . S
Mn1141 O1146 2.121 . S
Mn1141 N1148 2.257 . S
Mn1141 N1157 2.282 . S
Mn1141 O1165 2.215 . S
Mn1141 O1167 2.117 . S
C1142 O1164 1.234 . S
C1142 O1165 1.283 . S
C1143 O1155 1.281 . S
C1143 O1156 1.236 . S
C1144 O1166 1.240 . S
C1144 O1167 1.264 . S
O1145 Mn1140 2.095 . S
O1145 C1154 1.250 . S
O1146 Mn1141 2.121 . S
O1146 C1154 1.258 . S
C1147 N1148 1.326 . S
C1147 C1151 1.460 . S
C1147 H1153 0.929 . S
N1148 Mn1141 2.257 . S
N1148 C1147 1.326 . S
N1148 C1152 1.362 . S
C1149 C1150 1.258 . S
C1149 C1152 1.431 . S
C1149 C1169 1.449 . S
C1150 C1149 1.258 . S
C1150 C1151 1.477 . S
C1150 H1170 0.931 . S
C1151 C1147 1.460 . S
C1151 C1150 1.477 . S
C1151 H1171 0.930 . S
C1152 N1148 1.362 . S
C1152 C1149 1.431 . S
C1152 C1162 1.476 . S
H1153 C1147 0.929 . S
C1154 O1145 1.250 . S
C1154 O1146 1.258 . S
O1155 Mn1140 2.162 . S
O1155 C1143 1.281 . S
O1156 Mn1140 2.297 . S
O1156 C1143 1.236 . S
N1157 Mn1141 2.282 . S
N1157 C1158 1.328 . S
N1157 C1162 1.318 . S
C1158 N1157 1.328 . S
C1158 C1159 1.457 . S
C1158 H1163 0.929 . S
C1159 C1158 1.457 . S
C1159 C1160 1.291 . S
C1159 H1172 0.931 . S
C1160 C1159 1.291 . S
C1160 C1161 1.373 . S
C1160 H1173 0.929 . S
C1161 C1160 1.373 . S
C1161 C1162 1.396 . S
C1161 C1168 1.403 . S
C1162 C1152 1.476 . S
C1162 N1157 1.318 . S
C1162 C1161 1.396 . S
H1163 C1158 0.929 . S
O1164 Mn1140 2.385 . S
O1164 C1142 1.234 . S
O1165 Mn1140 2.209 . S
O1165 Mn1141 2.215 . S
O1165 C1142 1.283 . S
O1166 Mn1140 2.094 . S
O1166 C1144 1.240 . S
O1167 Mn1141 2.117 . S
O1167 C1144 1.264 . S
C1168 C1161 1.403 . S
C1168 C1169 1.399 . S
C1168 H1174 0.929 . S
C1169 C1149 1.449 . S
C1169 C1168 1.399 . S
C1169 H1175 0.930 . S
H1170 C1150 0.931 . S
H1171 C1151 0.930 . S
H1172 C1159 0.931 . S
H1173 C1160 0.929 . S
H1174 C1168 0.929 . S
H1175 C1169 0.930 . S
Mn1176 O1181 2.095 . S
Mn1176 O1191 2.162 . S
Mn1176 O1192 2.297 . S
Mn1176 O1200 2.385 . S
Mn1176 O1201 2.209 . S
Mn1176 O1202 2.094 . S
Mn1177 O1182 2.121 . S
Mn1177 N1184 2.257 . S
Mn1177 N1193 2.282 . S
Mn1177 O1201 2.215 . S
Mn1177 O1203 2.117 . S
C1178 O1200 1.234 . S
C1178 O1201 1.283 . S
C1179 O1191 1.281 . S
C1179 O1192 1.236 . S
C1180 O1202 1.240 . S
C1180 O1203 1.264 . S
O1181 Mn1176 2.095 . S
O1181 C1190 1.250 . S
O1182 Mn1177 2.121 . S
O1182 C1190 1.258 . S
C1183 N1184 1.326 . S
C1183 C1187 1.460 . S
C1183 H1189 0.929 . S
N1184 Mn1177 2.257 . S
N1184 C1183 1.326 . S
N1184 C1188 1.362 . S
C1185 C1186 1.258 . S
C1185 C1188 1.431 . S
C1185 C1205 1.449 . S
C1186 C1185 1.258 . S
C1186 C1187 1.477 . S
C1186 H1206 0.931 . S
C1187 C1183 1.460 . S
C1187 C1186 1.477 . S
C1187 H1207 0.930 . S
C1188 N1184 1.362 . S
C1188 C1185 1.431 . S
C1188 C1198 1.476 . S
H1189 C1183 0.929 . S
C1190 O1181 1.250 . S
C1190 O1182 1.258 . S
O1191 Mn1176 2.162 . S
O1191 C1179 1.281 . S
O1192 Mn1176 2.297 . S
O1192 C1179 1.236 . S
N1193 Mn1177 2.282 . S
N1193 C1194 1.328 . S
N1193 C1198 1.318 . S
C1194 N1193 1.328 . S
C1194 C1195 1.457 . S
C1194 H1199 0.929 . S
C1195 C1194 1.457 . S
C1195 C1196 1.291 . S
C1195 H1208 0.931 . S
C1196 C1195 1.291 . S
C1196 C1197 1.373 . S
C1196 H1209 0.929 . S
C1197 C1196 1.373 . S
C1197 C1198 1.396 . S
C1197 C1204 1.403 . S
C1198 C1188 1.476 . S
C1198 N1193 1.318 . S
C1198 C1197 1.396 . S
H1199 C1194 0.929 . S
O1200 Mn1176 2.385 . S
O1200 C1178 1.234 . S
O1201 Mn1176 2.209 . S
O1201 Mn1177 2.215 . S
O1201 C1178 1.283 . S
O1202 Mn1176 2.094 . S
O1202 C1180 1.240 . S
O1203 Mn1177 2.117 . S
O1203 C1180 1.264 . S
C1204 C1197 1.403 . S
C1204 C1205 1.399 . S
C1204 H1210 0.929 . S
C1205 C1185 1.449 . S
C1205 C1204 1.399 . S
C1205 H1211 0.930 . S
H1206 C1186 0.931 . S
H1207 C1187 0.930 . S
H1208 C1195 0.931 . S
H1209 C1196 0.929 . S
H1210 C1204 0.929 . S
H1211 C1205 0.930 . S
Mn1212 O1217 2.095 . S
Mn1212 O1227 2.162 . S
Mn1212 O1228 2.297 . S
Mn1212 O1236 2.385 1_565 S
Mn1212 O1237 2.209 1_565 S
Mn1212 O1238 2.094 . S
Mn1213 O1218 2.121 . S
Mn1213 N1220 2.257 . S
Mn1213 N1229 2.282 . S
Mn1213 O1237 2.215 . S
Mn1213 O1239 2.117 . S
C1214 O1236 1.234 . S
C1214 O1237 1.283 . S
C1215 O1227 1.281 . S
C1215 O1228 1.236 . S
C1216 O1238 1.219 1_545 S
C1216 O1239 1.292 . S
O1217 Mn1212 2.095 . S
O1217 C1226 1.250 1_565 S
O1218 Mn1213 2.121 . S
O1218 C1226 1.258 . S
C1219 N1220 1.326 . S
C1219 C1223 1.460 . S
C1219 H1225 0.929 . S
N1220 Mn1213 2.257 . S
N1220 C1219 1.326 . S
N1220 C1224 1.362 . S
C1221 C1222 1.258 . S
C1221 C1224 1.431 . S
C1221 C1241 1.449 . S
C1222 C1221 1.258 . S
C1222 C1223 1.477 . S
C1222 H1242 0.931 . S
C1223 C1219 1.460 . S
C1223 C1222 1.477 . S
C1223 H1243 0.930 . S
C1224 N1220 1.362 . S
C1224 C1221 1.431 . S
C1224 C1234 1.476 . S
H1225 C1219 0.929 . S
C1226 O1217 1.250 1_545 S
C1226 O1218 1.258 . S
O1227 Mn1212 2.162 . S
O1227 C1215 1.281 . S
O1228 Mn1212 2.297 . S
O1228 C1215 1.236 . S
N1229 Mn1213 2.282 . S
N1229 C1230 1.328 . S
N1229 C1234 1.318 . S
C1230 N1229 1.328 . S
C1230 C1231 1.457 . S
C1230 H1235 0.929 . S
C1231 C1230 1.457 . S
C1231 C1232 1.291 . S
C1231 H1244 0.931 . S
C1232 C1231 1.291 . S
C1232 C1233 1.373 . S
C1232 H1245 0.929 . S
C1233 C1232 1.373 . S
C1233 C1234 1.396 . S
C1233 C1240 1.403 . S
C1234 C1224 1.476 . S
C1234 N1229 1.318 . S
C1234 C1233 1.396 . S
H1235 C1230 0.929 . S
O1236 Mn1212 2.385 1_545 S
O1236 C1214 1.234 . S
O1237 Mn1212 2.209 1_545 S
O1237 Mn1213 2.215 . S
O1237 C1214 1.283 . S
O1238 Mn1212 2.094 . S
O1238 C1216 1.219 1_565 S
O1239 Mn1213 2.117 . S
O1239 C1216 1.292 . S
C1240 C1233 1.403 . S
C1240 C1241 1.399 . S
C1240 H1246 0.929 . S
C1241 C1221 1.449 . S
C1241 C1240 1.399 . S
C1241 H1247 0.930 . S
H1242 C1222 0.931 . S
H1243 C1223 0.930 . S
H1244 C1231 0.931 . S
H1245 C1232 0.929 . S
H1246 C1240 0.929 . S
H1247 C1241 0.930 . S
Mn1248 O1253 2.095 . S
Mn1248 O1263 2.162 . S
Mn1248 O1264 2.297 . S
Mn1248 O1272 2.385 1_455 S
Mn1248 O1273 2.209 1_455 S
Mn1248 O1274 2.094 . S
Mn1249 O1254 2.121 . S
Mn1249 N1256 2.257 . S
Mn1249 N1265 2.282 . S
Mn1249 O1273 2.215 . S
Mn1249 O1275 2.117 . S
C1250 O1272 1.234 . S
C1250 O1273 1.283 . S
C1251 O1263 1.281 . S
C1251 O1264 1.236 . S
C1252 O1274 1.240 . S
C1252 O1275 1.264 1_455 S
O1253 Mn1248 2.095 . S
O1253 C1262 1.250 1_455 S
O1254 Mn1249 2.121 . S
O1254 C1262 1.258 . S
C1255 N1256 1.326 . S
C1255 C1259 1.460 . S
C1255 H1261 0.929 . S
N1256 Mn1249 2.257 . S
N1256 C1255 1.326 . S
N1256 C1260 1.362 . S
C1257 C1258 1.258 . S
C1257 C1260 1.431 . S
C1257 C1277 1.449 . S
C1258 C1257 1.258 . S
C1258 C1259 1.477 . S
C1258 H1278 0.931 . S
C1259 C1255 1.460 . S
C1259 C1258 1.477 . S
C1259 H1279 0.930 . S
C1260 N1256 1.362 . S
C1260 C1257 1.431 . S
C1260 C1270 1.476 . S
H1261 C1255 0.929 . S
C1262 O1253 1.250 1_655 S
C1262 O1254 1.258 . S
O1263 Mn1248 2.162 . S
O1263 C1251 1.281 . S
O1264 Mn1248 2.297 . S
O1264 C1251 1.236 . S
N1265 Mn1249 2.282 . S
N1265 C1266 1.328 . S
N1265 C1270 1.318 . S
C1266 N1265 1.328 . S
C1266 C1267 1.457 . S
C1266 H1271 0.929 . S
C1267 C1266 1.457 . S
C1267 C1268 1.291 . S
C1267 H1280 0.931 . S
C1268 C1267 1.291 . S
C1268 C1269 1.373 . S
C1268 H1281 0.929 . S
C1269 C1268 1.373 . S
C1269 C1270 1.396 . S
C1269 C1276 1.403 . S
C1270 C1260 1.476 . S
C1270 N1265 1.318 . S
C1270 C1269 1.396 . S
H1271 C1266 0.929 . S
O1272 Mn1248 2.385 1_655 S
O1272 C1250 1.234 . S
O1273 Mn1248 2.209 1_655 S
O1273 Mn1249 2.215 . S
O1273 C1250 1.283 . S
O1274 Mn1248 2.094 . S
O1274 C1252 1.240 . S
O1275 Mn1249 2.117 . S
O1275 C1252 1.264 1_655 S
C1276 C1269 1.403 . S
C1276 C1277 1.399 . S
C1276 H1282 0.929 . S
C1277 C1257 1.449 . S
C1277 C1276 1.399 . S
C1277 H1283 0.930 . S
H1278 C1258 0.931 . S
H1279 C1259 0.930 . S
H1280 C1267 0.931 . S
H1281 C1268 0.929 . S
H1282 C1276 0.929 . S
H1283 C1277 0.930 . S
Mn1284 O1289 2.095 . S
Mn1284 O1299 2.162 . S
Mn1284 O1300 2.297 . S
Mn1284 O1308 2.385 . S
Mn1284 O1309 2.209 . S
Mn1284 O1310 2.094 . S
Mn1285 O1290 2.121 . S
Mn1285 N1292 2.257 . S
Mn1285 N1301 2.282 . S
Mn1285 O1309 2.215 . S
Mn1285 O1311 2.117 . S
C1286 O1308 1.234 . S
C1286 O1309 1.283 . S
C1287 O1299 1.281 . S
C1287 O1300 1.236 . S
C1288 O1310 1.240 . S
C1288 O1311 1.264 . S
O1289 Mn1284 2.095 . S
O1289 C1298 1.250 . S
O1290 Mn1285 2.121 . S
O1290 C1298 1.258 . S
C1291 N1292 1.326 . S
C1291 C1295 1.460 . S
C1291 H1297 0.929 . S
N1292 Mn1285 2.257 . S
N1292 C1291 1.326 . S
N1292 C1296 1.362 . S
C1293 C1294 1.258 . S
C1293 C1296 1.431 . S
C1293 C1313 1.449 . S
C1294 C1293 1.258 . S
C1294 C1295 1.477 . S
C1294 H1314 0.931 . S
C1295 C1291 1.460 . S
C1295 C1294 1.477 . S
C1295 H1315 0.930 . S
C1296 N1292 1.362 . S
C1296 C1293 1.431 . S
C1296 C1306 1.476 . S
H1297 C1291 0.929 . S
C1298 O1289 1.250 . S
C1298 O1290 1.258 . S
O1299 Mn1284 2.162 . S
O1299 C1287 1.281 . S
O1300 Mn1284 2.297 . S
O1300 C1287 1.236 . S
N1301 Mn1285 2.282 . S
N1301 C1302 1.328 . S
N1301 C1306 1.318 . S
C1302 N1301 1.328 . S
C1302 C1303 1.457 . S
C1302 H1307 0.929 . S
C1303 C1302 1.457 . S
C1303 C1304 1.291 . S
C1303 H1316 0.931 . S
C1304 C1303 1.291 . S
C1304 C1305 1.373 . S
C1304 H1317 0.929 . S
C1305 C1304 1.373 . S
C1305 C1306 1.396 . S
C1305 C1312 1.403 . S
C1306 C1296 1.476 . S
C1306 N1301 1.318 . S
C1306 C1305 1.396 . S
H1307 C1302 0.929 . S
O1308 Mn1284 2.385 . S
O1308 C1286 1.234 . S
O1309 Mn1284 2.209 . S
O1309 Mn1285 2.215 . S
O1309 C1286 1.283 . S
O1310 Mn1284 2.094 . S
O1310 C1288 1.240 . S
O1311 Mn1285 2.117 . S
O1311 C1288 1.264 . S
C1312 C1305 1.403 . S
C1312 C1313 1.399 . S
C1312 H1318 0.929 . S
C1313 C1293 1.449 . S
C1313 C1312 1.399 . S
C1313 H1319 0.930 . S
H1314 C1294 0.931 . S
H1315 C1295 0.930 . S
H1316 C1303 0.931 . S
H1317 C1304 0.929 . S
H1318 C1312 0.929 . S
H1319 C1313 0.930 . S
Mn1320 O1325 2.095 1_455 S
Mn1320 O1335 2.162 . S
Mn1320 O1336 2.297 1_455 S
Mn1320 O1344 2.385 . S
Mn1320 O1345 2.209 1_455 S
Mn1320 O1346 2.094 . S
Mn1321 O1326 2.121 . S
Mn1321 N1328 2.257 . S
Mn1321 N1337 2.282 1_655 S
Mn1321 O1345 2.215 . S
Mn1321 O1347 2.117 1_655 S
C1322 O1344 1.234 . S
C1322 O1345 1.283 1_455 S
C1323 O1335 1.281 . S
C1323 O1336 1.236 1_455 S
C1324 O1346 1.240 . S
C1324 O1347 1.264 . S
O1325 Mn1320 2.095 1_655 S
O1325 C1334 1.250 . S
O1326 Mn1321 2.121 . S
O1326 C1334 1.258 . S
C1327 N1328 1.326 . S
C1327 C1331 1.460 . S
C1327 H1333 0.929 . S
N1328 Mn1321 2.257 . S
N1328 C1327 1.326 . S
N1328 C1332 1.362 . S
C1329 C1330 1.258 . S
C1329 C1332 1.431 . S
C1329 C1349 1.449 . S
C1330 C1329 1.258 . S
C1330 C1331 1.477 . S
C1330 H1350 0.931 . S
C1331 C1327 1.460 . S
C1331 C1330 1.477 . S
C1331 H1351 0.930 . S
C1332 N1328 1.362 . S
C1332 C1329 1.431 . S
C1332 C1342 1.476 . S
H1333 C1327 0.929 . S
C1334 O1325 1.250 . S
C1334 O1326 1.258 . S
O1335 Mn1320 2.162 . S
O1335 C1323 1.281 . S
O1336 Mn1320 2.297 1_655 S
O1336 C1323 1.236 1_655 S
N1337 Mn1321 2.282 1_455 S
N1337 C1338 1.328 . S
N1337 C1342 1.318 1_455 S
C1338 N1337 1.328 . S
C1338 C1339 1.457 . S
C1338 H1343 0.929 . S
C1339 C1338 1.457 . S
C1339 C1340 1.291 . S
C1339 H1352 0.931 . S
C1340 C1339 1.291 . S
C1340 C1341 1.373 1_455 S
C1340 H1353 0.929 . S
C1341 C1340 1.373 1_655 S
C1341 C1342 1.396 . S
C1341 C1348 1.403 . S
C1342 C1332 1.476 . S
C1342 N1337 1.318 1_655 S
C1342 C1341 1.396 . S
H1343 C1338 0.929 . S
O1344 Mn1320 2.385 . S
O1344 C1322 1.234 . S
O1345 Mn1320 2.209 1_655 S
O1345 Mn1321 2.215 . S
O1345 C1322 1.283 1_655 S
O1346 Mn1320 2.094 . S
O1346 C1324 1.240 . S
O1347 Mn1321 2.117 1_455 S
O1347 C1324 1.264 . S
C1348 C1341 1.403 . S
C1348 C1349 1.399 . S
C1348 H1354 0.929 . S
C1349 C1329 1.449 . S
C1349 C1348 1.399 . S
C1349 H1355 0.930 . S
H1350 C1330 0.931 . S
H1351 C1331 0.930 . S
H1352 C1339 0.931 . S
H1353 C1340 0.929 . S
H1354 C1348 0.929 . S
H1355 C1349 0.930 . S
Mn1356 O1361 2.095 . S
Mn1356 O1371 2.162 . S
Mn1356 O1372 2.297 . S
Mn1356 O1380 2.385 . S
Mn1356 O1381 2.209 . S
Mn1356 O1382 2.094 . S
Mn1357 O1362 2.121 . S
Mn1357 N1364 2.257 . S
Mn1357 N1373 2.282 . S
Mn1357 O1381 2.215 . S
Mn1357 O1383 2.117 . S
C1358 O1380 1.234 . S
C1358 O1381 1.283 . S
C1359 O1371 1.281 . S
C1359 O1372 1.236 . S
C1360 O1382 1.240 . S
C1360 O1383 1.264 . S
O1361 Mn1356 2.095 . S
O1361 C1370 1.250 . S
O1362 Mn1357 2.121 . S
O1362 C1370 1.258 . S
C1363 N1364 1.326 . S
C1363 C1367 1.460 . S
C1363 H1369 0.929 . S
N1364 Mn1357 2.257 . S
N1364 C1363 1.326 . S
N1364 C1368 1.362 . S
C1365 C1366 1.258 . S
C1365 C1368 1.431 . S
C1365 C1385 1.449 . S
C1366 C1365 1.258 . S
C1366 C1367 1.477 . S
C1366 H1386 0.931 . S
C1367 C1363 1.460 . S
C1367 C1366 1.477 . S
C1367 H1387 0.930 . S
C1368 N1364 1.362 . S
C1368 C1365 1.431 . S
C1368 C1378 1.476 . S
H1369 C1363 0.929 . S
C1370 O1361 1.250 . S
C1370 O1362 1.258 . S
O1371 Mn1356 2.162 . S
O1371 C1359 1.281 . S
O1372 Mn1356 2.297 . S
O1372 C1359 1.236 . S
N1373 Mn1357 2.282 . S
N1373 C1374 1.328 . S
N1373 C1378 1.318 . S
C1374 N1373 1.328 . S
C1374 C1375 1.457 . S
C1374 H1379 0.929 . S
C1375 C1374 1.457 . S
C1375 C1376 1.291 . S
C1375 H1388 0.931 . S
C1376 C1375 1.291 . S
C1376 C1377 1.373 . S
C1376 H1389 0.929 . S
C1377 C1376 1.373 . S
C1377 C1378 1.396 . S
C1377 C1384 1.403 . S
C1378 C1368 1.476 . S
C1378 N1373 1.318 . S
C1378 C1377 1.396 . S
H1379 C1374 0.929 . S
O1380 Mn1356 2.385 . S
O1380 C1358 1.234 . S
O1381 Mn1356 2.209 . S
O1381 Mn1357 2.215 . S
O1381 C1358 1.283 . S
O1382 Mn1356 2.094 . S
O1382 C1360 1.240 . S
O1383 Mn1357 2.117 . S
O1383 C1360 1.264 . S
C1384 C1377 1.403 . S
C1384 C1385 1.399 . S
C1384 H1390 0.929 . S
C1385 C1365 1.449 . S
C1385 C1384 1.399 . S
C1385 H1391 0.930 . S
H1386 C1366 0.931 . S
H1387 C1367 0.930 . S
H1388 C1375 0.931 . S
H1389 C1376 0.929 . S
H1390 C1384 0.929 . S
H1391 C1385 0.930 . S
C1392 C1393 1.363 . S
C1392 C1398 1.379 . S
C1392 N1400 1.356 . S
C1393 C1392 1.363 . S
C1393 C1399 1.363 . S
C1394 C1395 1.363 . S
C1394 C1399 1.379 . S
C1394 N1401 1.356 . S
C1395 C1394 1.363 . S
C1395 C1398 1.363 . S
N1396 C1398 1.356 . S
N1396 H1408 0.984 . S
N1396 H1409 0.985 . S
N1397 C1399 1.356 . S
N1397 H1402 0.984 . S
N1397 H1403 0.985 . S
C1398 C1392 1.379 . S
C1398 C1395 1.363 . S
C1398 N1396 1.356 . S
C1399 C1393 1.363 . S
C1399 C1394 1.379 . S
C1399 N1397 1.356 . S
N1400 C1392 1.356 . S
N1400 H1406 0.984 . S
N1400 H1407 0.984 . S
N1401 C1394 1.356 . S
N1401 H1404 0.984 . S
N1401 H1405 0.985 . S
H1402 N1397 0.984 . S
H1403 N1397 0.985 . S
H1404 N1401 0.984 . S
H1405 N1401 0.985 . S
H1406 N1400 0.984 . S
H1407 N1400 0.984 . S
H1408 N1396 0.984 . S
H1409 N1396 0.985 . S
C1410 C1411 1.363 . S
C1410 C1416 1.379 . S
C1410 N1418 1.356 . S
C1411 C1410 1.363 . S
C1411 C1417 1.363 . S
C1412 C1413 1.363 . S
C1412 C1417 1.379 . S
C1412 N1419 1.356 . S
C1413 C1412 1.363 . S
C1413 C1416 1.363 . S
N1414 C1416 1.356 . S
N1414 H1426 0.984 . S
N1414 H1427 0.985 . S
N1415 C1417 1.356 . S
N1415 H1420 0.984 . S
N1415 H1421 0.985 . S
C1416 C1410 1.379 . S
C1416 C1413 1.363 . S
C1416 N1414 1.356 . S
C1417 C1411 1.363 . S
C1417 C1412 1.379 . S
C1417 N1415 1.356 . S
N1418 C1410 1.356 . S
N1418 H1424 0.984 . S
N1418 H1425 0.984 . S
N1419 C1412 1.356 . S
N1419 H1422 0.984 . S
N1419 H1423 0.985 . S
H1420 N1415 0.984 . S
H1421 N1415 0.985 . S
H1422 N1419 0.984 . S
H1423 N1419 0.985 . S
H1424 N1418 0.984 . S
H1425 N1418 0.984 . S
H1426 N1414 0.984 . S
H1427 N1414 0.985 . S
C1428 C1429 1.363 . S
C1428 C1434 1.379 . S
C1428 N1436 1.356 . S
C1429 C1428 1.363 . S
C1429 C1435 1.363 . S
C1430 C1431 1.363 . S
C1430 C1435 1.379 . S
C1430 N1437 1.356 . S
C1431 C1430 1.363 . S
C1431 C1434 1.363 . S
N1432 C1434 1.356 . S
N1432 H1444 0.984 . S
N1432 H1445 0.985 . S
N1433 C1435 1.356 . S
N1433 H1438 0.984 . S
N1433 H1439 0.985 . S
C1434 C1428 1.379 . S
C1434 C1431 1.363 . S
C1434 N1432 1.356 . S
C1435 C1429 1.363 . S
C1435 C1430 1.379 . S
C1435 N1433 1.356 . S
N1436 C1428 1.356 . S
N1436 H1442 0.984 . S
N1436 H1443 0.984 . S
N1437 C1430 1.356 . S
N1437 H1440 0.984 . S
N1437 H1441 0.985 . S
H1438 N1433 0.984 . S
H1439 N1433 0.985 . S
H1440 N1437 0.984 . S
H1441 N1437 0.985 . S
H1442 N1436 0.984 . S
H1443 N1436 0.984 . S
H1444 N1432 0.984 . S
H1445 N1432 0.985 . S
C1446 C1447 1.363 . S
C1446 C1452 1.379 . S
C1446 N1454 1.356 . S
C1447 C1446 1.363 . S
C1447 C1453 1.363 1_565 S
C1448 C1449 1.363 1_545 S
C1448 C1453 1.379 . S
C1448 N1455 1.356 . S
C1449 C1448 1.363 1_565 S
C1449 C1452 1.363 . S
N1450 C1452 1.356 . S
N1450 H1462 0.984 . S
N1450 H1463 0.985 . S
N1451 C1453 1.356 . S
N1451 H1456 0.984 . S
N1451 H1457 0.985 . S
C1452 C1446 1.379 . S
C1452 C1449 1.363 . S
C1452 N1450 1.356 . S
C1453 C1447 1.363 1_545 S
C1453 C1448 1.379 . S
C1453 N1451 1.356 . S
N1454 C1446 1.356 . S
N1454 H1460 0.984 . S
N1454 H1461 0.984 . S
N1455 C1448 1.356 . S
N1455 H1458 0.984 . S
N1455 H1459 0.985 . S
H1456 N1451 0.984 . S
H1457 N1451 0.985 . S
H1458 N1455 0.984 . S
H1459 N1455 0.985 . S
H1460 N1454 0.984 . S
H1461 N1454 0.984 . S
H1462 N1450 0.984 . S
H1463 N1450 0.985 . S
C1464 C1465 1.363 . S
C1464 C1470 1.379 . S
C1464 N1472 1.356 . S
C1465 C1464 1.363 . S
C1465 C1471 1.363 . S
C1466 C1467 1.363 . S
C1466 C1471 1.379 . S
C1466 N1473 1.356 . S
C1467 C1466 1.363 . S
C1467 C1470 1.363 . S
N1468 C1470 1.356 . S
N1468 H1480 0.984 . S
N1468 H1481 0.985 . S
N1469 C1471 1.356 . S
N1469 H1474 0.984 . S
N1469 H1475 0.985 . S
C1470 C1464 1.379 . S
C1470 C1467 1.363 . S
C1470 N1468 1.356 . S
C1471 C1465 1.363 . S
C1471 C1466 1.379 . S
C1471 N1469 1.356 . S
N1472 C1464 1.356 . S
N1472 H1478 0.984 . S
N1472 H1479 0.984 . S
N1473 C1466 1.356 . S
N1473 H1476 0.984 . S
N1473 H1477 0.985 . S
H1474 N1469 0.984 . S
H1475 N1469 0.985 . S
H1476 N1473 0.984 . S
H1477 N1473 0.985 . S
H1478 N1472 0.984 . S
H1479 N1472 0.984 . S
H1480 N1468 0.984 . S
H1481 N1468 0.985 . S
C1482 C1483 1.363 . S
C1482 C1488 1.379 . S
C1482 N1490 1.356 . S
C1483 C1482 1.363 . S
C1483 C1489 1.363 . S
C1484 C1485 1.363 . S
C1484 C1489 1.379 . S
C1484 N1491 1.356 . S
C1485 C1484 1.363 . S
C1485 C1488 1.363 . S
N1486 C1488 1.356 . S
N1486 H1498 0.984 . S
N1486 H1499 0.985 . S
N1487 C1489 1.356 . S
N1487 H1492 0.984 . S
N1487 H1493 0.985 . S
C1488 C1482 1.379 . S
C1488 C1485 1.363 . S
C1488 N1486 1.356 . S
C1489 C1483 1.363 . S
C1489 C1484 1.379 . S
C1489 N1487 1.356 . S
N1490 C1482 1.356 . S
N1490 H1496 0.984 . S
N1490 H1497 0.984 . S
N1491 C1484 1.356 . S
N1491 H1494 0.984 . S
N1491 H1495 0.985 . S
H1492 N1487 0.984 . S
H1493 N1487 0.985 . S
H1494 N1491 0.984 . S
H1495 N1491 0.985 . S
H1496 N1490 0.984 . S
H1497 N1490 0.984 . S
H1498 N1486 0.984 . S
H1499 N1486 0.985 . S
C1500 C1501 1.363 . S
C1500 C1506 1.379 . S
C1500 N1508 1.356 . S
C1501 C1500 1.363 . S
C1501 C1507 1.363 . S
C1502 C1503 1.363 . S
C1502 C1507 1.379 . S
C1502 N1509 1.356 . S
C1503 C1502 1.363 . S
C1503 C1506 1.363 . S
N1504 C1506 1.356 . S
N1504 H1516 0.984 . S
N1504 H1517 0.985 . S
N1505 C1507 1.356 . S
N1505 H1510 0.984 . S
N1505 H1511 0.985 . S
C1506 C1500 1.379 . S
C1506 C1503 1.363 . S
C1506 N1504 1.356 . S
C1507 C1501 1.363 . S
C1507 C1502 1.379 . S
C1507 N1505 1.356 . S
N1508 C1500 1.356 . S
N1508 H1514 0.984 . S
N1508 H1515 0.984 . S
N1509 C1502 1.356 . S
N1509 H1512 0.984 . S
N1509 H1513 0.985 . S
H1510 N1505 0.984 . S
H1511 N1505 0.985 . S
H1512 N1509 0.984 . S
H1513 N1509 0.985 . S
H1514 N1508 0.984 . S
H1515 N1508 0.984 . S
H1516 N1504 0.984 . S
H1517 N1504 0.985 . S
C1518 C1519 1.363 1_545 S
C1518 C1524 1.379 . S
C1518 N1526 1.356 . S
C1519 C1518 1.363 1_565 S
C1519 C1525 1.363 . S
C1520 C1521 1.363 . S
C1520 C1525 1.379 . S
C1520 N1527 1.356 . S
C1521 C1520 1.363 . S
C1521 C1524 1.363 1_565 S
N1522 C1524 1.356 . S
N1522 H1534 0.984 . S
N1522 H1535 0.985 . S
N1523 C1525 1.356 . S
N1523 H1528 0.984 . S
N1523 H1529 0.985 . S
C1524 C1518 1.379 . S
C1524 C1521 1.363 1_545 S
C1524 N1522 1.356 . S
C1525 C1519 1.363 . S
C1525 C1520 1.379 . S
C1525 N1523 1.356 . S
N1526 C1518 1.356 . S
N1526 H1532 0.984 . S
N1526 H1533 0.984 . S
N1527 C1520 1.356 . S
N1527 H1530 0.984 . S
N1527 H1531 0.985 . S
H1528 N1523 0.984 . S
H1529 N1523 0.985 . S
H1530 N1527 0.984 . S
H1531 N1527 0.985 . S
H1532 N1526 0.984 . S
H1533 N1526 0.984 . S
H1534 N1522 0.984 . S
H1535 N1522 0.985 . S
C1536 C1537 1.363 . S
C1536 C1542 1.379 . S
C1536 N1544 1.356 . S
C1537 C1536 1.363 . S
C1537 C1543 1.363 . S
C1538 C1539 1.363 . S
C1538 C1543 1.379 . S
C1538 N1545 1.356 . S
C1539 C1538 1.363 . S
C1539 C1542 1.363 . S
N1540 C1542 1.356 . S
N1540 H1552 0.984 . S
N1540 H1553 0.985 . S
N1541 C1543 1.356 . S
N1541 H1546 0.984 . S
N1541 H1547 0.985 . S
C1542 C1536 1.379 . S
C1542 C1539 1.363 . S
C1542 N1540 1.356 . S
C1543 C1537 1.363 . S
C1543 C1538 1.379 . S
C1543 N1541 1.356 . S
N1544 C1536 1.356 . S
N1544 H1550 0.984 . S
N1544 H1551 0.984 . S
N1545 C1538 1.356 . S
N1545 H1548 0.984 . S
N1545 H1549 0.985 . S
H1546 N1541 0.984 . S
H1547 N1541 0.985 . S
H1548 N1545 0.984 . S
H1549 N1545 0.985 . S
H1550 N1544 0.984 . S
H1551 N1544 0.984 . S
H1552 N1540 0.984 . S
H1553 N1540 0.985 . S
C1554 C1555 1.363 . S
C1554 C1560 1.379 . S
C1554 N1562 1.356 . S
C1555 C1554 1.363 . S
C1555 C1561 1.363 . S
C1556 C1557 1.363 . S
C1556 C1561 1.379 . S
C1556 N1563 1.356 . S
C1557 C1556 1.363 . S
C1557 C1560 1.363 . S
N1558 C1560 1.356 . S
N1558 H1570 0.984 . S
N1558 H1571 0.985 . S
N1559 C1561 1.356 . S
N1559 H1564 0.984 . S
N1559 H1565 0.985 . S
C1560 C1554 1.379 . S
C1560 C1557 1.363 . S
C1560 N1558 1.356 . S
C1561 C1555 1.363 . S
C1561 C1556 1.379 . S
C1561 N1559 1.356 . S
N1562 C1554 1.356 . S
N1562 H1568 0.984 . S
N1562 H1569 0.984 . S
N1563 C1556 1.356 . S
N1563 H1566 0.984 . S
N1563 H1567 0.985 . S
H1564 N1559 0.984 . S
H1565 N1559 0.985 . S
H1566 N1563 0.984 . S
H1567 N1563 0.985 . S
H1568 N1562 0.984 . S
H1569 N1562 0.984 . S
H1570 N1558 0.984 . S
H1571 N1558 0.985 . S
C1572 C1573 1.363 . S
C1572 C1578 1.379 . S
C1572 N1580 1.356 . S
C1573 C1572 1.363 . S
C1573 C1579 1.363 . S
C1574 C1575 1.363 . S
C1574 C1579 1.379 . S
C1574 N1581 1.356 . S
C1575 C1574 1.363 . S
C1575 C1578 1.363 . S
N1576 C1578 1.356 . S
N1576 H1588 0.984 . S
N1576 H1589 0.985 . S
N1577 C1579 1.356 . S
N1577 H1582 0.984 . S
N1577 H1583 0.985 . S
C1578 C1572 1.379 . S
C1578 C1575 1.363 . S
C1578 N1576 1.356 . S
C1579 C1573 1.363 . S
C1579 C1574 1.379 . S
C1579 N1577 1.356 . S
N1580 C1572 1.356 . S
N1580 H1586 0.984 . S
N1580 H1587 0.984 . S
N1581 C1574 1.356 . S
N1581 H1584 0.984 . S
N1581 H1585 0.985 . S
H1582 N1577 0.984 . S
H1583 N1577 0.985 . S
H1584 N1581 0.984 . S
H1585 N1581 0.985 . S
H1586 N1580 0.984 . S
H1587 N1580 0.984 . S
H1588 N1576 0.984 . S
H1589 N1576 0.985 . S
C1590 C1591 1.363 . S
C1590 C1596 1.379 . S
C1590 N1598 1.356 . S
C1591 C1590 1.363 . S
C1591 C1597 1.363 . S
C1592 C1593 1.363 . S
C1592 C1597 1.379 . S
C1592 N1599 1.356 . S
C1593 C1592 1.363 . S
C1593 C1596 1.363 . S
N1594 C1596 1.356 . S
N1594 H1606 0.984 . S
N1594 H1607 0.985 . S
N1595 C1597 1.356 . S
N1595 H1600 0.984 . S
N1595 H1601 0.985 . S
C1596 C1590 1.379 . S
C1596 C1593 1.363 . S
C1596 N1594 1.356 . S
C1597 C1591 1.363 . S
C1597 C1592 1.379 . S
C1597 N1595 1.356 . S
N1598 C1590 1.356 . S
N1598 H1604 0.984 . S
N1598 H1605 0.984 . S
N1599 C1592 1.356 . S
N1599 H1602 0.984 . S
N1599 H1603 0.985 . S
H1600 N1595 0.984 . S
H1601 N1595 0.985 . S
H1602 N1599 0.984 . S
H1603 N1599 0.985 . S
H1604 N1598 0.984 . S
H1605 N1598 0.984 . S
H1606 N1594 0.984 . S
H1607 N1594 0.985 . S
C1608 C1609 1.363 . S
C1608 C1614 1.379 . S
C1608 N1616 1.356 . S
C1609 C1608 1.363 . S
C1609 C1615 1.363 . S
C1610 C1611 1.363 . S
C1610 C1615 1.379 . S
C1610 N1617 1.356 . S
C1611 C1610 1.363 . S
C1611 C1614 1.363 . S
N1612 C1614 1.356 . S
N1612 H1624 0.984 . S
N1612 H1625 0.985 . S
N1613 C1615 1.356 . S
N1613 H1618 0.984 . S
N1613 H1619 0.985 . S
C1614 C1608 1.379 . S
C1614 C1611 1.363 . S
C1614 N1612 1.356 . S
C1615 C1609 1.363 . S
C1615 C1610 1.379 . S
C1615 N1613 1.356 . S
N1616 C1608 1.356 . S
N1616 H1622 0.984 . S
N1616 H1623 0.984 . S
N1617 C1610 1.356 . S
N1617 H1620 0.984 . S
N1617 H1621 0.985 . S
H1618 N1613 0.984 . S
H1619 N1613 0.985 . S
H1620 N1617 0.984 . S
H1621 N1617 0.985 . S
H1622 N1616 0.984 . S
H1623 N1616 0.984 . S
H1624 N1612 0.984 . S
H1625 N1612 0.985 . S
C1626 C1627 1.363 . S
C1626 C1632 1.379 . S
C1626 N1634 1.356 . S
C1627 C1626 1.363 . S
C1627 C1633 1.363 . S
C1628 C1629 1.363 . S
C1628 C1633 1.379 . S
C1628 N1635 1.356 1_455 S
C1629 C1628 1.363 . S
C1629 C1632 1.363 . S
N1630 C1632 1.356 . S
N1630 H1642 0.984 . S
N1630 H1643 0.985 . S
N1631 C1633 1.356 1_655 S
N1631 H1636 0.984 1_655 S
N1631 H1637 0.985 . S
C1632 C1626 1.379 . S
C1632 C1629 1.363 . S
C1632 N1630 1.356 . S
C1633 C1627 1.363 . S
C1633 C1628 1.379 . S
C1633 N1631 1.356 1_455 S
N1634 C1626 1.356 . S
N1634 H1640 0.984 . S
N1634 H1641 0.984 . S
N1635 C1628 1.356 1_655 S
N1635 H1638 0.984 . S
N1635 H1639 0.985 . S
H1636 N1631 0.984 1_455 S
H1637 N1631 0.985 . S
H1638 N1635 0.984 . S
H1639 N1635 0.985 . S
H1640 N1634 0.984 . S
H1641 N1634 0.984 . S
H1642 N1630 0.984 . S
H1643 N1630 0.985 . S
C1644 C1645 1.363 . S
C1644 C1650 1.379 . S
C1644 N1652 1.356 . S
C1645 C1644 1.363 . S
C1645 C1651 1.363 . S
C1646 C1647 1.363 . S
C1646 C1651 1.379 . S
C1646 N1653 1.356 . S
C1647 C1646 1.363 . S
C1647 C1650 1.363 . S
N1648 C1650 1.356 . S
N1648 H1660 0.984 . S
N1648 H1661 0.985 . S
N1649 C1651 1.356 . S
N1649 H1654 0.984 . S
N1649 H1655 0.985 . S
C1650 C1644 1.379 . S
C1650 C1647 1.363 . S
C1650 N1648 1.356 . S
C1651 C1645 1.363 . S
C1651 C1646 1.379 . S
C1651 N1649 1.356 . S
N1652 C1644 1.356 . S
N1652 H1658 0.984 . S
N1652 H1659 0.984 . S
N1653 C1646 1.356 . S
N1653 H1656 0.984 . S
N1653 H1657 0.985 . S
H1654 N1649 0.984 . S
H1655 N1649 0.985 . S
H1656 N1653 0.984 . S
H1657 N1653 0.985 . S
H1658 N1652 0.984 . S
H1659 N1652 0.984 . S
H1660 N1648 0.984 . S
H1661 N1648 0.985 . S
C1662 C1663 1.363 . S
C1662 C1668 1.379 . S
C1662 N1670 1.356 . S
C1663 C1662 1.363 . S
C1663 C1669 1.363 1_655 S
C1664 C1665 1.355 1_455 S
C1664 C1669 1.379 . S
C1664 N1671 1.356 . S
C1665 C1664 1.355 1_655 S
C1665 C1668 1.376 . S
N1666 C1668 1.356 . S
N1666 H1678 0.984 . S
N1666 H1679 0.985 . S
N1667 C1669 1.356 . S
N1667 H1672 0.984 . S
N1667 H1673 0.985 . S
C1668 C1662 1.379 . S
C1668 C1665 1.376 . S
C1668 N1666 1.356 . S
C1669 C1663 1.363 1_455 S
C1669 C1664 1.379 . S
C1669 N1667 1.356 . S
N1670 C1662 1.356 . S
N1670 H1676 0.984 . S
N1670 H1677 0.984 . S
N1671 C1664 1.356 . S
N1671 H1674 0.984 . S
N1671 H1675 0.985 . S
H1672 N1667 0.984 . S
H1673 N1667 0.985 . S
H1674 N1671 0.984 . S
H1675 N1671 0.985 . S
H1676 N1670 0.984 . S
H1677 N1670 0.984 . S
H1678 N1666 0.984 . S
H1679 N1666 0.985 . S
C1680 C1681 1.363 . S
C1680 C1686 1.379 . S
C1680 N1688 1.356 . S
C1681 C1680 1.363 . S
C1681 C1687 1.363 . S
C1682 C1683 1.363 . S
C1682 C1687 1.379 . S
C1682 N1689 1.356 . S
C1683 C1682 1.363 . S
C1683 C1686 1.363 . S
N1684 C1686 1.356 . S
N1684 H1696 0.984 . S
N1684 H1697 0.985 . S
N1685 C1687 1.356 . S
N1685 H1690 0.984 . S
N1685 H1691 0.985 . S
C1686 C1680 1.379 . S
C1686 C1683 1.363 . S
C1686 N1684 1.356 . S
C1687 C1681 1.363 . S
C1687 C1682 1.379 . S
C1687 N1685 1.356 . S
N1688 C1680 1.356 . S
N1688 H1694 0.984 . S
N1688 H1695 0.984 . S
N1689 C1682 1.356 . S
N1689 H1692 0.984 . S
N1689 H1693 0.985 . S
H1690 N1685 0.984 . S
H1691 N1685 0.985 . S
H1692 N1689 0.984 . S
H1693 N1689 0.985 . S
H1694 N1688 0.984 . S
H1695 N1688 0.984 . S
H1696 N1684 0.984 . S
H1697 N1684 0.985 . S
C1698 C1699 1.363 . S
C1698 C1704 1.379 . S
C1698 N1706 1.356 . S
C1699 C1698 1.363 . S
C1699 C1705 1.363 . S
C1700 C1701 1.363 . S
C1700 C1705 1.379 . S
C1700 N1707 1.356 . S
C1701 C1700 1.363 . S
C1701 C1704 1.363 . S
N1702 C1704 1.356 . S
N1702 H1714 0.984 . S
N1702 H1715 0.985 . S
N1703 C1705 1.356 . S
N1703 H1708 0.984 . S
N1703 H1709 0.985 . S
C1704 C1698 1.379 . S
C1704 C1701 1.363 . S
C1704 N1702 1.356 . S
C1705 C1699 1.363 . S
C1705 C1700 1.379 . S
C1705 N1703 1.356 . S
N1706 C1698 1.356 . S
N1706 H1712 0.984 . S
N1706 H1713 0.984 . S
N1707 C1700 1.356 . S
N1707 H1710 0.984 . S
N1707 H1711 0.985 . S
H1708 N1703 0.984 . S
H1709 N1703 0.985 . S
H1710 N1707 0.984 . S
H1711 N1707 0.985 . S
H1712 N1706 0.984 . S
H1713 N1706 0.984 . S
H1714 N1702 0.984 . S
H1715 N1702 0.985 . S
C1716 C1717 1.363 1_554 S
C1716 C1722 1.379 . S
C1716 N1724 1.356 . S
C1717 C1716 1.363 1_556 S
C1717 C1723 1.363 . S
C1718 C1719 1.363 1_556 S
C1718 C1723 1.379 . S
C1718 N1725 1.356 . S
C1719 C1718 1.363 1_554 S
C1719 C1722 1.363 . S
N1720 C1722 1.356 . S
N1720 H1732 0.984 . S
N1720 H1733 0.985 . S
N1721 C1723 1.356 . S
N1721 H1726 0.984 . S
N1721 H1727 0.985 . S
C1722 C1716 1.379 . S
C1722 C1719 1.363 . S
C1722 N1720 1.356 . S
C1723 C1717 1.363 . S
C1723 C1718 1.379 . S
C1723 N1721 1.356 . S
N1724 C1716 1.356 . S
N1724 H1730 0.984 . S
N1724 H1731 0.984 . S
N1725 C1718 1.356 . S
N1725 H1728 0.984 . S
N1725 H1729 0.985 . S
H1726 N1721 0.984 . S
H1727 N1721 0.985 . S
H1728 N1725 0.984 . S
H1729 N1725 0.985 . S
H1730 N1724 0.984 . S
H1731 N1724 0.984 . S
H1732 N1720 0.984 . S
H1733 N1720 0.985 . S
C1734 C1735 1.363 . S
C1734 C1740 1.379 . S
C1734 N1742 1.356 . S
C1735 C1734 1.363 . S
C1735 C1741 1.363 . S
C1736 C1737 1.363 . S
C1736 C1741 1.379 . S
C1736 N1743 1.356 . S
C1737 C1736 1.363 . S
C1737 C1740 1.363 . S
N1738 C1740 1.356 . S
N1738 H1750 0.984 . S
N1738 H1751 0.985 . S
N1739 C1741 1.356 . S
N1739 H1744 0.984 . S
N1739 H1745 0.985 . S
C1740 C1734 1.379 . S
C1740 C1737 1.363 . S
C1740 N1738 1.356 . S
C1741 C1735 1.363 . S
C1741 C1736 1.379 . S
C1741 N1739 1.356 . S
N1742 C1734 1.356 . S
N1742 H1748 0.984 . S
N1742 H1749 0.984 . S
N1743 C1736 1.356 . S
N1743 H1746 0.984 . S
N1743 H1747 0.985 . S
H1744 N1739 0.984 . S
H1745 N1739 0.985 . S
H1746 N1743 0.984 . S
H1747 N1743 0.985 . S
H1748 N1742 0.984 . S
H1749 N1742 0.984 . S
H1750 N1738 0.984 . S
H1751 N1738 0.985 . S
C1752 C1753 1.363 . S
C1752 C1758 1.379 . S
C1752 N1760 1.356 . S
C1753 C1752 1.363 . S
C1753 C1759 1.363 . S
C1754 C1755 1.363 . S
C1754 C1759 1.379 . S
C1754 N1761 1.356 . S
C1755 C1754 1.363 . S
C1755 C1758 1.363 . S
N1756 C1758 1.356 . S
N1756 H1768 0.984 . S
N1756 H1769 0.985 . S
N1757 C1759 1.356 . S
N1757 H1762 0.984 . S
N1757 H1763 0.985 . S
C1758 C1752 1.379 . S
C1758 C1755 1.363 . S
C1758 N1756 1.356 . S
C1759 C1753 1.363 . S
C1759 C1754 1.379 . S
C1759 N1757 1.356 . S
N1760 C1752 1.356 . S
N1760 H1766 0.984 . S
N1760 H1767 0.984 . S
N1761 C1754 1.356 . S
N1761 H1764 0.984 . S
N1761 H1765 0.985 . S
H1762 N1757 0.984 . S
H1763 N1757 0.985 . S
H1764 N1761 0.984 . S
H1765 N1761 0.985 . S
H1766 N1760 0.984 . S
H1767 N1760 0.984 . S
H1768 N1756 0.984 . S
H1769 N1756 0.985 . S
C1770 C1771 1.363 . S
C1770 C1776 1.379 . S
C1770 N1778 1.356 . S
C1771 C1770 1.363 . S
C1771 C1777 1.363 . S
C1772 C1773 1.363 . S
C1772 C1777 1.379 . S
C1772 N1779 1.356 . S
C1773 C1772 1.363 . S
C1773 C1776 1.363 . S
N1774 C1776 1.356 . S
N1774 H1786 0.984 . S
N1774 H1787 0.985 . S
N1775 C1777 1.356 . S
N1775 H1780 0.984 . S
N1775 H1781 0.985 . S
C1776 C1770 1.379 . S
C1776 C1773 1.363 . S
C1776 N1774 1.356 . S
C1777 C1771 1.363 . S
C1777 C1772 1.379 . S
C1777 N1775 1.356 . S
N1778 C1770 1.356 . S
N1778 H1784 0.984 . S
N1778 H1785 0.984 . S
N1779 C1772 1.356 . S
N1779 H1782 0.984 . S
N1779 H1783 0.985 . S
H1780 N1775 0.984 . S
H1781 N1775 0.985 . S
H1782 N1779 0.984 . S
H1783 N1779 0.985 . S
H1784 N1778 0.984 . S
H1785 N1778 0.984 . S
H1786 N1774 0.984 . S
H1787 N1774 0.985 . S
C1788 C1789 1.363 . S
C1788 C1794 1.379 . S
C1788 N1796 1.356 . S
C1789 C1788 1.363 . S
C1789 C1795 1.363 . S
C1790 C1791 1.363 . S
C1790 C1795 1.379 . S
C1790 N1797 1.356 . S
C1791 C1790 1.363 . S
C1791 C1794 1.363 . S
N1792 C1794 1.356 . S
N1792 H1804 0.984 . S
N1792 H1805 0.985 . S
N1793 C1795 1.356 . S
N1793 H1798 0.984 . S
N1793 H1799 0.985 . S
C1794 C1788 1.379 . S
C1794 C1791 1.363 . S
C1794 N1792 1.356 . S
C1795 C1789 1.363 . S
C1795 C1790 1.379 . S
C1795 N1793 1.356 . S
N1796 C1788 1.356 . S
N1796 H1802 0.984 . S
N1796 H1803 0.984 . S
N1797 C1790 1.356 . S
N1797 H1800 0.984 . S
N1797 H1801 0.985 . S
H1798 N1793 0.984 . S
H1799 N1793 0.985 . S
H1800 N1797 0.984 . S
H1801 N1797 0.985 . S
H1802 N1796 0.984 . S
H1803 N1796 0.984 . S
H1804 N1792 0.984 . S
H1805 N1792 0.985 . S
C1806 C1807 1.363 . S
C1806 C1812 1.379 . S
C1806 N1814 1.356 . S
C1807 C1806 1.363 . S
C1807 C1813 1.363 . S
C1808 C1809 1.363 . S
C1808 C1813 1.379 . S
C1808 N1815 1.356 . S
C1809 C1808 1.363 . S
C1809 C1812 1.363 . S
N1810 C1812 1.356 . S
N1810 H1822 0.984 . S
N1810 H1823 0.985 . S
N1811 C1813 1.356 . S
N1811 H1816 0.984 . S
N1811 H1817 0.985 . S
C1812 C1806 1.379 . S
C1812 C1809 1.363 . S
C1812 N1810 1.356 . S
C1813 C1807 1.363 . S
C1813 C1808 1.379 . S
C1813 N1811 1.356 . S
N1814 C1806 1.356 . S
N1814 H1820 0.984 . S
N1814 H1821 0.984 . S
N1815 C1808 1.356 . S
N1815 H1818 0.984 . S
N1815 H1819 0.985 . S
H1816 N1811 0.984 . S
H1817 N1811 0.985 . S
H1818 N1815 0.984 . S
H1819 N1815 0.985 . S
H1820 N1814 0.984 . S
H1821 N1814 0.984 . S
H1822 N1810 0.984 . S
H1823 N1810 0.985 . S
C1824 C1825 1.363 . S
C1824 C1830 1.379 . S
C1824 N1832 1.356 . S
C1825 C1824 1.363 . S
C1825 C1831 1.363 . S
C1826 C1827 1.363 . S
C1826 C1831 1.379 . S
C1826 N1833 1.356 . S
C1827 C1826 1.363 . S
C1827 C1830 1.363 . S
N1828 C1830 1.356 . S
N1828 H1840 0.984 . S
N1828 H1841 0.985 . S
N1829 C1831 1.356 . S
N1829 H1834 0.984 . S
N1829 H1835 0.985 . S
C1830 C1824 1.379 . S
C1830 C1827 1.363 . S
C1830 N1828 1.356 . S
C1831 C1825 1.363 . S
C1831 C1826 1.379 . S
C1831 N1829 1.356 . S
N1832 C1824 1.356 . S
N1832 H1838 0.984 . S
N1832 H1839 0.984 . S
N1833 C1826 1.356 . S
N1833 H1836 0.984 . S
N1833 H1837 0.985 . S
H1834 N1829 0.984 . S
H1835 N1829 0.985 . S
H1836 N1833 0.984 . S
H1837 N1833 0.985 . S
H1838 N1832 0.984 . S
H1839 N1832 0.984 . S
H1840 N1828 0.984 . S
H1841 N1828 0.985 . S
C1842 C1843 1.363 . S
C1842 C1848 1.379 . S
C1842 N1850 1.356 . S
C1843 C1842 1.363 . S
C1843 C1849 1.363 1_545 S
C1844 C1845 1.363 1_565 S
C1844 C1849 1.379 . S
C1844 N1851 1.356 . S
C1845 C1844 1.363 1_545 S
C1845 C1848 1.363 . S
N1846 C1848 1.356 . S
N1846 H1858 0.984 . S
N1846 H1859 0.985 . S
N1847 C1849 1.356 . S
N1847 H1852 0.984 . S
N1847 H1853 0.985 . S
C1848 C1842 1.379 . S
C1848 C1845 1.363 . S
C1848 N1846 1.356 . S
C1849 C1843 1.363 1_565 S
C1849 C1844 1.379 . S
C1849 N1847 1.356 . S
N1850 C1842 1.356 . S
N1850 H1856 0.984 . S
N1850 H1857 0.984 . S
N1851 C1844 1.356 . S
N1851 H1854 0.984 . S
N1851 H1855 0.985 . S
H1852 N1847 0.984 . S
H1853 N1847 0.985 . S
H1854 N1851 0.984 . S
H1855 N1851 0.985 . S
H1856 N1850 0.984 . S
H1857 N1850 0.984 . S
H1858 N1846 0.984 . S
H1859 N1846 0.985 . S
C1860 C1861 1.363 . S
C1860 C1866 1.379 . S
C1860 N1868 1.356 . S
C1861 C1860 1.363 . S
C1861 C1867 1.363 . S
C1862 C1863 1.363 . S
C1862 C1867 1.379 . S
C1862 N1869 1.356 . S
C1863 C1862 1.363 . S
C1863 C1866 1.363 . S
N1864 C1866 1.356 . S
N1864 H1876 0.984 . S
N1864 H1877 0.985 . S
N1865 C1867 1.356 . S
N1865 H1870 0.984 . S
N1865 H1871 0.985 . S
C1866 C1860 1.379 . S
C1866 C1863 1.363 . S
C1866 N1864 1.356 . S
C1867 C1861 1.363 . S
C1867 C1862 1.379 . S
C1867 N1865 1.356 . S
N1868 C1860 1.356 . S
N1868 H1874 0.984 . S
N1868 H1875 0.984 . S
N1869 C1862 1.356 . S
N1869 H1872 0.984 . S
N1869 H1873 0.985 . S
H1870 N1865 0.984 . S
H1871 N1865 0.985 . S
H1872 N1869 0.984 . S
H1873 N1869 0.985 . S
H1874 N1868 0.984 . S
H1875 N1868 0.984 . S
H1876 N1864 0.984 . S
H1877 N1864 0.985 . S
C1878 C1879 1.363 . S
C1878 C1884 1.379 . S
C1878 N1886 1.356 . S
C1879 C1878 1.363 . S
C1879 C1885 1.363 . S
C1880 C1881 1.363 . S
C1880 C1885 1.379 . S
C1880 N1887 1.356 . S
C1881 C1880 1.363 . S
C1881 C1884 1.363 . S
N1882 C1884 1.356 . S
N1882 H1894 0.984 . S
N1882 H1895 0.985 . S
N1883 C1885 1.356 . S
N1883 H1888 0.984 . S
N1883 H1889 0.985 . S
C1884 C1878 1.379 . S
C1884 C1881 1.363 . S
C1884 N1882 1.356 . S
C1885 C1879 1.363 . S
C1885 C1880 1.379 . S
C1885 N1883 1.356 . S
N1886 C1878 1.356 . S
N1886 H1892 0.984 . S
N1886 H1893 0.984 . S
N1887 C1880 1.356 . S
N1887 H1890 0.984 . S
N1887 H1891 0.985 . S
H1888 N1883 0.984 . S
H1889 N1883 0.985 . S
H1890 N1887 0.984 . S
H1891 N1887 0.985 . S
H1892 N1886 0.984 . S
H1893 N1886 0.984 . S
H1894 N1882 0.984 . S
H1895 N1882 0.985 . S
C1896 C1897 1.363 . S
C1896 C1902 1.379 . S
C1896 N1904 1.356 . S
C1897 C1896 1.363 . S
C1897 C1903 1.363 . S
C1898 C1899 1.363 . S
C1898 C1903 1.379 . S
C1898 N1905 1.356 . S
C1899 C1898 1.363 . S
C1899 C1902 1.363 . S
N1900 C1902 1.356 . S
N1900 H1912 0.984 . S
N1900 H1913 0.985 . S
N1901 C1903 1.356 . S
N1901 H1906 0.984 . S
N1901 H1907 0.985 . S
C1902 C1896 1.379 . S
C1902 C1899 1.363 . S
C1902 N1900 1.356 . S
C1903 C1897 1.363 . S
C1903 C1898 1.379 . S
C1903 N1901 1.356 . S
N1904 C1896 1.356 . S
N1904 H1910 0.984 . S
N1904 H1911 0.984 . S
N1905 C1898 1.356 . S
N1905 H1908 0.984 . S
N1905 H1909 0.985 . S
H1906 N1901 0.984 . S
H1907 N1901 0.985 . S
H1908 N1905 0.984 . S
H1909 N1905 0.985 . S
H1910 N1904 0.984 . S
H1911 N1904 0.984 . S
H1912 N1900 0.984 . S
H1913 N1900 0.985 . S
C1914 C1915 1.363 . S
C1914 C1920 1.379 . S
C1914 N1922 1.356 . S
C1915 C1914 1.363 . S
C1915 C1921 1.363 1_545 S
C1916 C1917 1.363 1_565 S
C1916 C1921 1.379 . S
C1916 N1923 1.356 . S
C1917 C1916 1.363 1_545 S
C1917 C1920 1.363 . S
N1918 C1920 1.356 . S
N1918 H1930 0.984 . S
N1918 H1931 0.985 . S
N1919 C1921 1.356 . S
N1919 H1924 0.984 . S
N1919 H1925 0.985 . S
C1920 C1914 1.379 . S
C1920 C1917 1.363 . S
C1920 N1918 1.356 . S
C1921 C1915 1.363 1_565 S
C1921 C1916 1.379 . S
C1921 N1919 1.356 . S
N1922 C1914 1.356 . S
N1922 H1928 0.984 . S
N1922 H1929 0.984 . S
N1923 C1916 1.356 . S
N1923 H1926 0.984 . S
N1923 H1927 0.985 . S
H1924 N1919 0.984 . S
H1925 N1919 0.985 . S
H1926 N1923 0.984 . S
H1927 N1923 0.985 . S
H1928 N1922 0.984 . S
H1929 N1922 0.984 . S
H1930 N1918 0.984 . S
H1931 N1918 0.985 . S
C1932 C1933 1.363 . S
C1932 C1938 1.379 . S
C1932 N1940 1.356 . S
C1933 C1932 1.363 . S
C1933 C1939 1.363 . S
C1934 C1935 1.363 . S
C1934 C1939 1.379 . S
C1934 N1941 1.356 . S
C1935 C1934 1.363 . S
C1935 C1938 1.363 . S
N1936 C1938 1.356 . S
N1936 H1948 0.984 . S
N1936 H1949 0.985 . S
N1937 C1939 1.356 . S
N1937 H1942 0.984 . S
N1937 H1943 0.985 . S
C1938 C1932 1.379 . S
C1938 C1935 1.363 . S
C1938 N1936 1.356 . S
C1939 C1933 1.363 . S
C1939 C1934 1.379 . S
C1939 N1937 1.356 . S
N1940 C1932 1.356 . S
N1940 H1946 0.984 . S
N1940 H1947 0.984 . S
N1941 C1934 1.356 . S
N1941 H1944 0.984 . S
N1941 H1945 0.985 . S
H1942 N1937 0.984 . S
H1943 N1937 0.985 . S
H1944 N1941 0.984 . S
H1945 N1941 0.985 . S
H1946 N1940 0.984 . S
H1947 N1940 0.984 . S
H1948 N1936 0.984 . S
H1949 N1936 0.985 . S
C1950 C1951 1.363 . S
C1950 C1956 1.379 . S
C1950 N1958 1.356 . S
C1951 C1950 1.363 . S
C1951 C1957 1.363 . S
C1952 C1953 1.363 . S
C1952 C1957 1.379 . S
C1952 N1959 1.356 . S
C1953 C1952 1.363 . S
C1953 C1956 1.363 . S
N1954 C1956 1.356 . S
N1954 H1966 0.984 . S
N1954 H1967 0.985 . S
N1955 C1957 1.356 . S
N1955 H1960 0.984 . S
N1955 H1961 0.985 . S
C1956 C1950 1.379 . S
C1956 C1953 1.363 . S
C1956 N1954 1.356 . S
C1957 C1951 1.363 . S
C1957 C1952 1.379 . S
C1957 N1955 1.356 . S
N1958 C1950 1.356 . S
N1958 H1964 0.984 . S
N1958 H1965 0.984 . S
N1959 C1952 1.356 . S
N1959 H1962 0.984 . S
N1959 H1963 0.985 . S
H1960 N1955 0.984 . S
H1961 N1955 0.985 . S
H1962 N1959 0.984 . S
H1963 N1959 0.985 . S
H1964 N1958 0.984 . S
H1965 N1958 0.984 . S
H1966 N1954 0.984 . S
H1967 N1954 0.985 . S
C1968 C1969 1.363 . S
C1968 C1974 1.379 . S
C1968 N1976 1.356 . S
C1969 C1968 1.363 . S
C1969 C1975 1.363 . S
C1970 C1971 1.363 . S
C1970 C1975 1.379 . S
C1970 N1977 1.356 . S
C1971 C1970 1.363 . S
C1971 C1974 1.363 . S
N1972 C1974 1.356 . S
N1972 H1984 0.984 . S
N1972 H1985 0.985 . S
N1973 C1975 1.356 . S
N1973 H1978 0.984 . S
N1973 H1979 0.985 . S
C1974 C1968 1.379 . S
C1974 C1971 1.363 . S
C1974 N1972 1.356 . S
C1975 C1969 1.363 . S
C1975 C1970 1.379 . S
C1975 N1973 1.356 . S
N1976 C1968 1.356 . S
N1976 H1982 0.984 . S
N1976 H1983 0.984 . S
N1977 C1970 1.356 . S
N1977 H1980 0.984 . S
N1977 H1981 0.985 . S
H1978 N1973 0.984 . S
H1979 N1973 0.985 . S
H1980 N1977 0.984 . S
H1981 N1977 0.985 . S
H1982 N1976 0.984 . S
H1983 N1976 0.984 . S
H1984 N1972 0.984 . S
H1985 N1972 0.985 . S
C1986 C1987 1.363 1_455 S
C1986 C1992 1.379 . S
C1986 N1994 1.356 . S
C1987 C1986 1.363 1_655 S
C1987 C1993 1.363 . S
C1988 C1989 1.363 . S
C1988 C1993 1.379 . S
C1988 N1995 1.356 . S
C1989 C1988 1.363 . S
C1989 C1992 1.363 1_655 S
N1990 C1992 1.356 . S
N1990 H2002 0.984 . S
N1990 H2003 0.985 . S
N1991 C1993 1.356 . S
N1991 H1996 0.984 . S
N1991 H1997 0.985 . S
C1992 C1986 1.379 . S
C1992 C1989 1.363 1_455 S
C1992 N1990 1.356 . S
C1993 C1987 1.363 . S
C1993 C1988 1.379 . S
C1993 N1991 1.356 . S
N1994 C1986 1.356 . S
N1994 H2000 0.984 . S
N1994 H2001 0.984 . S
N1995 C1988 1.356 . S
N1995 H1998 0.984 . S
N1995 H1999 0.985 . S
H1996 N1991 0.984 . S
H1997 N1991 0.985 . S
H1998 N1995 0.984 . S
H1999 N1995 0.985 . S
H2000 N1994 0.984 . S
H2001 N1994 0.984 . S
H2002 N1990 0.984 . S
H2003 N1990 0.985 . S
C2004 C2005 1.363 . S
C2004 C2010 1.379 . S
C2004 N2012 1.356 . S
C2005 C2004 1.363 . S
C2005 C2011 1.363 . S
C2006 C2007 1.363 . S
C2006 C2011 1.379 . S
C2006 N2013 1.356 . S
C2007 C2006 1.363 . S
C2007 C2010 1.363 . S
N2008 C2010 1.356 . S
N2008 H2020 0.984 . S
N2008 H2021 0.985 . S
N2009 C2011 1.356 . S
N2009 H2014 0.984 . S
N2009 H2015 0.985 . S
C2010 C2004 1.379 . S
C2010 C2007 1.363 . S
C2010 N2008 1.356 . S
C2011 C2005 1.363 . S
C2011 C2006 1.379 . S
C2011 N2009 1.356 . S
N2012 C2004 1.356 . S
N2012 H2018 0.984 . S
N2012 H2019 0.984 . S
N2013 C2006 1.356 . S
N2013 H2016 0.984 . S
N2013 H2017 0.985 . S
H2014 N2009 0.984 . S
H2015 N2009 0.985 . S
H2016 N2013 0.984 . S
H2017 N2013 0.985 . S
H2018 N2012 0.984 . S
H2019 N2012 0.984 . S
H2020 N2008 0.984 . S
H2021 N2008 0.985 . S
C2022 C2023 1.363 . S
C2022 C2028 1.379 . S
C2022 N2030 1.356 . S
C2023 C2022 1.363 . S
C2023 C2029 1.363 . S
C2024 C2025 1.363 1_655 S
C2024 C2029 1.379 1_655 S
C2024 N2031 1.356 . S
C2025 C2024 1.363 1_455 S
C2025 C2028 1.363 . S
N2026 C2028 1.356 . S
N2026 H2038 0.984 . S
N2026 H2039 0.985 . S
N2027 C2029 1.356 1_655 S
N2027 H2032 0.991 . S
N2027 H2033 0.985 . S
C2028 C2022 1.379 . S
C2028 C2025 1.363 . S
C2028 N2026 1.356 . S
C2029 C2023 1.363 . S
C2029 C2024 1.379 1_455 S
C2029 N2027 1.356 1_455 S
N2030 C2022 1.356 . S
N2030 H2036 0.984 . S
N2030 H2037 0.984 . S
N2031 C2024 1.356 . S
N2031 H2034 0.984 . S
N2031 H2035 0.985 . S
H2032 N2027 0.991 . S
H2033 N2027 0.985 . S
H2034 N2031 0.984 . S
H2035 N2031 0.985 . S
H2036 N2030 0.984 . S
H2037 N2030 0.984 . S
H2038 N2026 0.984 . S
H2039 N2026 0.985 . S
C2040 C2041 1.363 . S
C2040 C2046 1.379 . S
C2040 N2048 1.356 . S
C2041 C2040 1.363 . S
C2041 C2047 1.363 . S
C2042 C2043 1.363 . S
C2042 C2047 1.379 . S
C2042 N2049 1.356 . S
C2043 C2042 1.363 . S
C2043 C2046 1.363 . S
N2044 C2046 1.356 . S
N2044 H2056 0.984 . S
N2044 H2057 0.985 . S
N2045 C2047 1.356 . S
N2045 H2050 0.984 . S
N2045 H2051 0.985 . S
C2046 C2040 1.379 . S
C2046 C2043 1.363 . S
C2046 N2044 1.356 . S
C2047 C2041 1.363 . S
C2047 C2042 1.379 . S
C2047 N2045 1.356 . S
N2048 C2040 1.356 . S
N2048 H2054 0.984 . S
N2048 H2055 0.984 . S
N2049 C2042 1.356 . S
N2049 H2052 0.984 . S
N2049 H2053 0.985 . S
H2050 N2045 0.984 . S
H2051 N2045 0.985 . S
H2052 N2049 0.984 . S
H2053 N2049 0.985 . S
H2054 N2048 0.984 . S
H2055 N2048 0.984 . S
H2056 N2044 0.984 . S
H2057 N2044 0.985 . S
C2058 C2059 1.363 . S
C2058 C2064 1.379 . S
C2058 N2066 1.356 . S
C2059 C2058 1.363 . S
C2059 C2065 1.363 . S
C2060 C2061 1.363 . S
C2060 C2065 1.379 . S
C2060 N2067 1.356 . S
C2061 C2060 1.363 . S
C2061 C2064 1.363 . S
N2062 C2064 1.356 . S
N2062 H2074 0.984 . S
N2062 H2075 0.985 . S
N2063 C2065 1.356 . S
N2063 H2068 0.984 . S
N2063 H2069 0.985 . S
C2064 C2058 1.379 . S
C2064 C2061 1.363 . S
C2064 N2062 1.356 . S
C2065 C2059 1.363 . S
C2065 C2060 1.379 . S
C2065 N2063 1.356 . S
N2066 C2058 1.356 . S
N2066 H2072 0.984 . S
N2066 H2073 0.984 . S
N2067 C2060 1.356 . S
N2067 H2070 0.984 . S
N2067 H2071 0.985 . S
H2068 N2063 0.984 . S
H2069 N2063 0.985 . S
H2070 N2067 0.984 . S
H2071 N2067 0.985 . S
H2072 N2066 0.984 . S
H2073 N2066 0.984 . S
H2074 N2062 0.984 . S
H2075 N2062 0.985 . S
C2076 C2077 1.363 . S
C2076 C2082 1.379 . S
C2076 N2084 1.356 . S
C2077 C2076 1.363 . S
C2077 C2083 1.363 . S
C2078 C2079 1.363 . S
C2078 C2083 1.379 . S
C2078 N2085 1.356 . S
C2079 C2078 1.363 . S
C2079 C2082 1.363 . S
N2080 C2082 1.356 . S
N2080 H2092 0.984 . S
N2080 H2093 0.985 . S
N2081 C2083 1.356 . S
N2081 H2086 0.984 . S
N2081 H2087 0.985 . S
C2082 C2076 1.379 . S
C2082 C2079 1.363 . S
C2082 N2080 1.356 . S
C2083 C2077 1.363 . S
C2083 C2078 1.379 . S
C2083 N2081 1.356 . S
N2084 C2076 1.356 . S
N2084 H2090 0.984 . S
N2084 H2091 0.984 . S
N2085 C2078 1.356 . S
N2085 H2088 0.984 . S
N2085 H2089 0.985 . S
H2086 N2081 0.984 . S
H2087 N2081 0.985 . S
H2088 N2085 0.984 . S
H2089 N2085 0.985 . S
H2090 N2084 0.984 . S
H2091 N2084 0.984 . S
H2092 N2080 0.984 . S
H2093 N2080 0.985 . S
C2094 C2095 1.363 . S
C2094 C2100 1.379 . S
C2094 N2102 1.356 . S
C2095 C2094 1.363 . S
C2095 C2101 1.363 . S
C2096 C2097 1.363 . S
C2096 C2101 1.379 . S
C2096 N2103 1.356 . S
C2097 C2096 1.363 . S
C2097 C2100 1.363 . S
N2098 C2100 1.356 . S
N2098 H2110 0.984 . S
N2098 H2111 0.985 . S
N2099 C2101 1.356 . S
N2099 H2104 0.984 . S
N2099 H2105 0.985 . S
C2100 C2094 1.379 . S
C2100 C2097 1.363 . S
C2100 N2098 1.356 . S
C2101 C2095 1.363 . S
C2101 C2096 1.379 . S
C2101 N2099 1.356 . S
N2102 C2094 1.356 . S
N2102 H2108 0.984 . S
N2102 H2109 0.984 . S
N2103 C2096 1.356 . S
N2103 H2106 0.984 . S
N2103 H2107 0.985 . S
H2104 N2099 0.984 . S
H2105 N2099 0.985 . S
H2106 N2103 0.984 . S
H2107 N2103 0.985 . S
H2108 N2102 0.984 . S
H2109 N2102 0.984 . S
H2110 N2098 0.984 . S
H2111 N2098 0.985 . S
C2112 C2113 1.363 . S
C2112 C2118 1.379 . S
C2112 N2120 1.356 . S
C2113 C2112 1.363 . S
C2113 C2119 1.363 . S
C2114 C2115 1.363 . S
C2114 C2119 1.379 . S
C2114 N2121 1.356 . S
C2115 C2114 1.363 . S
C2115 C2118 1.363 . S
N2116 C2118 1.356 . S
N2116 H2128 0.984 . S
N2116 H2129 0.985 . S
N2117 C2119 1.356 . S
N2117 H2122 0.984 . S
N2117 H2123 0.985 . S
C2118 C2112 1.379 . S
C2118 C2115 1.363 . S
C2118 N2116 1.356 . S
C2119 C2113 1.363 . S
C2119 C2114 1.379 . S
C2119 N2117 1.356 . S
N2120 C2112 1.356 . S
N2120 H2126 0.984 . S
N2120 H2127 0.984 . S
N2121 C2114 1.356 . S
N2121 H2124 0.984 . S
N2121 H2125 0.985 . S
H2122 N2117 0.984 . S
H2123 N2117 0.985 . S
H2124 N2121 0.984 . S
H2125 N2121 0.985 . S
H2126 N2120 0.984 . S
H2127 N2120 0.984 . S
H2128 N2116 0.984 . S
H2129 N2116 0.985 . S
C2130 C2131 1.363 . S
C2130 C2136 1.379 . S
C2130 N2138 1.356 . S
C2131 C2130 1.363 . S
C2131 C2137 1.363 . S
C2132 C2133 1.363 . S
C2132 C2137 1.379 . S
C2132 N2139 1.356 . S
C2133 C2132 1.363 . S
C2133 C2136 1.363 . S
N2134 C2136 1.356 . S
N2134 H2146 0.984 . S
N2134 H2147 0.985 . S
N2135 C2137 1.356 . S
N2135 H2140 0.984 . S
N2135 H2141 0.985 . S
C2136 C2130 1.379 . S
C2136 C2133 1.363 . S
C2136 N2134 1.356 . S
C2137 C2131 1.363 . S
C2137 C2132 1.379 . S
C2137 N2135 1.356 . S
N2138 C2130 1.356 . S
N2138 H2144 0.984 . S
N2138 H2145 0.984 . S
N2139 C2132 1.356 . S
N2139 H2142 0.984 . S
N2139 H2143 0.985 . S
H2140 N2135 0.984 . S
H2141 N2135 0.985 . S
H2142 N2139 0.984 . S
H2143 N2139 0.985 . S
H2144 N2138 0.984 . S
H2145 N2138 0.984 . S
H2146 N2134 0.984 . S
H2147 N2134 0.985 . S
C2148 C2149 1.363 . S
C2148 C2154 1.379 . S
C2148 N2156 1.356 . S
C2149 C2148 1.363 . S
C2149 C2155 1.363 . S
C2150 C2151 1.363 . S
C2150 C2155 1.379 . S
C2150 N2157 1.356 . S
C2151 C2150 1.363 . S
C2151 C2154 1.363 . S
N2152 C2154 1.356 . S
N2152 H2164 0.984 . S
N2152 H2165 0.985 . S
N2153 C2155 1.356 . S
N2153 H2158 0.984 . S
N2153 H2159 0.985 . S
C2154 C2148 1.379 . S
C2154 C2151 1.363 . S
C2154 N2152 1.356 . S
C2155 C2149 1.363 . S
C2155 C2150 1.379 . S
C2155 N2153 1.356 . S
N2156 C2148 1.356 . S
N2156 H2162 0.984 . S
N2156 H2163 0.984 . S
N2157 C2150 1.356 . S
N2157 H2160 0.984 . S
N2157 H2161 0.985 . S
H2158 N2153 0.984 . S
H2159 N2153 0.985 . S
H2160 N2157 0.984 . S
H2161 N2157 0.985 . S
H2162 N2156 0.984 . S
H2163 N2156 0.984 . S
H2164 N2152 0.984 . S
H2165 N2152 0.985 . S
C2166 C2167 1.363 . S
C2166 C2172 1.379 . S
C2166 N2174 1.356 . S
C2167 C2166 1.363 . S
C2167 C2173 1.363 . S
C2168 C2169 1.363 . S
C2168 C2173 1.379 . S
C2168 N2175 1.356 . S
C2169 C2168 1.363 . S
C2169 C2172 1.363 . S
N2170 C2172 1.356 . S
N2170 H2182 0.984 . S
N2170 H2183 0.985 . S
N2171 C2173 1.356 . S
N2171 H2176 0.984 . S
N2171 H2177 0.985 . S
C2172 C2166 1.379 . S
C2172 C2169 1.363 . S
C2172 N2170 1.356 . S
C2173 C2167 1.363 . S
C2173 C2168 1.379 . S
C2173 N2171 1.356 . S
N2174 C2166 1.356 . S
N2174 H2180 0.984 . S
N2174 H2181 0.984 . S
N2175 C2168 1.356 . S
N2175 H2178 0.984 . S
N2175 H2179 0.985 . S
H2176 N2171 0.984 . S
H2177 N2171 0.985 . S
H2178 N2175 0.984 . S
H2179 N2175 0.985 . S
H2180 N2174 0.984 . S
H2181 N2174 0.984 . S
H2182 N2170 0.984 . S
H2183 N2170 0.985 . S
C2184 C2185 1.363 . S
C2184 C2190 1.379 . S
C2184 N2192 1.356 . S
C2185 C2184 1.363 . S
C2185 C2191 1.363 1_556 S
C2186 C2187 1.363 1_554 S
C2186 C2191 1.379 . S
C2186 N2193 1.356 . S
C2187 C2186 1.363 1_556 S
C2187 C2190 1.363 . S
N2188 C2190 1.356 . S
N2188 H2200 0.984 . S
N2188 H2201 0.985 . S
N2189 C2191 1.356 . S
N2189 H2194 0.984 . S
N2189 H2195 0.985 . S
C2190 C2184 1.379 . S
C2190 C2187 1.363 . S
C2190 N2188 1.356 . S
C2191 C2185 1.363 1_554 S
C2191 C2186 1.379 . S
C2191 N2189 1.356 . S
N2192 C2184 1.356 . S
N2192 H2198 0.984 . S
N2192 H2199 0.984 . S
N2193 C2186 1.356 . S
N2193 H2196 0.984 . S
N2193 H2197 0.985 . S
H2194 N2189 0.984 . S
H2195 N2189 0.985 . S
H2196 N2193 0.984 . S
H2197 N2193 0.985 . S
H2198 N2192 0.984 . S
H2199 N2192 0.984 . S
H2200 N2188 0.984 . S
H2201 N2188 0.985 . S
C2202 C2203 1.363 . S
C2202 C2208 1.379 . S
C2202 N2210 1.356 . S
C2203 C2202 1.363 . S
C2203 C2209 1.363 . S
C2204 C2205 1.363 . S
C2204 C2209 1.379 . S
C2204 N2211 1.356 . S
C2205 C2204 1.363 . S
C2205 C2208 1.363 . S
N2206 C2208 1.356 . S
N2206 H2218 0.984 . S
N2206 H2219 0.985 . S
N2207 C2209 1.356 . S
N2207 H2212 0.984 . S
N2207 H2213 0.985 . S
C2208 C2202 1.379 . S
C2208 C2205 1.363 . S
C2208 N2206 1.356 . S
C2209 C2203 1.363 . S
C2209 C2204 1.379 . S
C2209 N2207 1.356 . S
N2210 C2202 1.356 . S
N2210 H2216 0.984 . S
N2210 H2217 0.984 . S
N2211 C2204 1.356 . S
N2211 H2214 0.984 . S
N2211 H2215 0.985 . S
H2212 N2207 0.984 . S
H2213 N2207 0.985 . S
H2214 N2211 0.984 . S
H2215 N2211 0.985 . S
H2216 N2210 0.984 . S
H2217 N2210 0.984 . S
H2218 N2206 0.984 . S
H2219 N2206 0.985 . S
C2220 C2221 1.363 . S
C2220 C2226 1.379 . S
C2220 N2228 1.356 . S
C2221 C2220 1.363 . S
C2221 C2227 1.363 1_554 S
C2222 C2223 1.363 1_556 S
C2222 C2227 1.379 . S
C2222 N2229 1.356 . S
C2223 C2222 1.363 1_554 S
C2223 C2226 1.363 . S
N2224 C2226 1.356 . S
N2224 H2236 0.984 . S
N2224 H2237 0.985 . S
N2225 C2227 1.356 . S
N2225 H2230 0.984 . S
N2225 H2231 0.985 . S
C2226 C2220 1.379 . S
C2226 C2223 1.363 . S
C2226 N2224 1.356 . S
C2227 C2221 1.363 1_556 S
C2227 C2222 1.379 . S
C2227 N2225 1.356 . S
N2228 C2220 1.356 . S
N2228 H2234 0.984 . S
N2228 H2235 0.984 . S
N2229 C2222 1.356 . S
N2229 H2232 0.984 . S
N2229 H2233 0.985 . S
H2230 N2225 0.984 . S
H2231 N2225 0.985 . S
H2232 N2229 0.984 . S
H2233 N2229 0.985 . S
H2234 N2228 0.984 . S
H2235 N2228 0.984 . S
H2236 N2224 0.984 . S
H2237 N2224 0.985 . S
C2238 C2239 1.363 . S
C2238 C2244 1.379 . S
C2238 N2246 1.356 . S
C2239 C2238 1.363 . S
C2239 C2245 1.363 . S
C2240 C2241 1.363 . S
C2240 C2245 1.379 . S
C2240 N2247 1.356 1_554 S
C2241 C2240 1.363 . S
C2241 C2244 1.363 . S
N2242 C2244 1.356 . S
N2242 H2254 0.984 . S
N2242 H2255 0.985 . S
N2243 C2245 1.356 1_556 S
N2243 H2248 0.984 1_556 S
N2243 H2249 0.985 . S
C2244 C2238 1.379 . S
C2244 C2241 1.363 . S
C2244 N2242 1.356 . S
C2245 C2239 1.363 . S
C2245 C2240 1.379 . S
C2245 N2243 1.356 1_554 S
N2246 C2238 1.356 . S
N2246 H2252 0.984 . S
N2246 H2253 0.984 . S
N2247 C2240 1.356 1_556 S
N2247 H2250 0.984 . S
N2247 H2251 0.985 . S
H2248 N2243 0.984 1_554 S
H2249 N2243 0.985 . S
H2250 N2247 0.984 . S
H2251 N2247 0.985 . S
H2252 N2246 0.984 . S
H2253 N2246 0.984 . S
H2254 N2242 0.984 . S
H2255 N2242 0.985 . S
C1395 C962 1.481 . S
C1393 C331 1.448 . S
C1413 C1010 1.606 . S
C1411 C380 1.638 . S
C1429 C421 1.426 . S
C1431 C1046 1.408 . S
C1449 C1082 1.555 . S
C1447 C260 1.561 . S
C1467 C1108 1.509 . S
C1465 C620 1.465 . S
C1485 C1144 1.567 . S
C1483 C740 1.549 . S
C1501 C680 1.513 . S
C1503 C1179 1.539 . S
C1521 C1216 1.583 1_565 S
C1519 C571 1.578 . S
C1537 C691 1.479 . S
C1539 C1250 1.471 . S
C1557 C1298 1.541 . S
C1555 C541 1.578 . S
C1573 C601 1.439 . S
C1575 C1251 1.506 . S
C1593 C1288 1.594 . S
C1591 C721 1.568 . S
C1609 C451 1.460 . S
C1611 C1334 1.437 . S
C1627 C241 1.572 . S
C1629 C1323 1.599 . S
C1645 C320 1.486 . S
C1647 C1324 1.525 . S
C1663 C391 1.610 . S
C1665 C1322 1.616 1_655 S
C1681 C211 1.459 . S
C1683 C1070 1.493 . S
C1699 C841 1.437 . S
C1701 C1071 1.497 . S
C1719 C974 1.580 . S
C1717 C901 1.614 . S
C1737 C999 1.503 . S
C1735 C500 1.463 . S
C1753 C271 1.571 . S
C1755 C1106 1.605 . S
C1773 C1214 1.502 . S
C1771 C661 1.510 . S
C1791 C1107 1.572 . S
C1789 C560 1.566 . S
C1809 C1180 1.594 . S
C1807 C751 1.580 . S
C1827 C1178 1.481 . S
C1825 C871 1.448 . S
C1843 C920 1.638 . S
C1845 C1226 1.606 . S
C1861 C481 1.426 . S
C1863 C1118 1.408 . S
C1881 C1154 1.555 . S
C1879 C800 1.561 . S
C1897 C200 1.465 . S
C1899 C1036 1.509 . S
C1917 C1072 1.567 . S
C1915 C20 1.549 . S
C1935 C963 1.539 . S
C1933 C80 1.513 . S
C1953 C1000 1.587 . S
C1951 C151 1.577 . S
C1969 C91 1.479 . S
C1971 C1286 1.471 . S
C1987 C121 1.578 . S
C1989 C1262 1.541 . S
C2005 C181 1.439 . S
C2007 C1287 1.506 . S
C2023 C1 1.568 . S
C2025 C1252 1.594 . S
C2043 C1370 1.437 . S
C2041 C511 1.460 . S
C2061 C1359 1.599 . S
C2059 C781 1.572 . S
C2079 C1360 1.525 . S
C2077 C860 1.486 . S
C2095 C931 1.610 . S
C2097 C1358 1.622 . S
C2113 C631 1.459 . S
C2115 C1142 1.493 . S
C2133 C1143 1.496 . S
C2131 C301 1.437 . S
C2151 C1190 1.579 . S
C2149 C361 1.614 . S
C2169 C1215 1.503 . S
C2167 C440 1.466 . S
C2185 C811 1.571 . S
C2187 C1034 1.606 1_556 S
C2205 C998 1.502 . S
C2203 C61 1.513 . S
C2221 C140 1.566 . S
C2223 C1035 1.572 . S
C2241 C964 1.594 . S
C2239 C31 1.581 . S
