# Generated by pormake.
# Topology pto, (3,4)-cn, num edge types: 1
# Building blocks:
#     Node 0, Type 0, BuildingBlock: WUSLED_clean_sbu_0, # of connection points: 3
#     Node 1, Type 0, BuildingBlock: WUSLED_clean_sbu_0, # of connection points: 3
#     Node 2, Type 0, BuildingBlock: WUSLED_clean_sbu_0, # of connection points: 3
#     Node 3, Type 0, BuildingBlock: WUSLED_clean_sbu_0, # of connection points: 3
#     Node 4, Type 0, BuildingBlock: WUSLED_clean_sbu_0, # of connection points: 3
#     Node 5, Type 0, BuildingBlock: WUSLED_clean_sbu_0, # of connection points: 3
#     Node 6, Type 0, BuildingBlock: WUSLED_clean_sbu_0, # of connection points: 3
#     Node 7, Type 0, BuildingBlock: WUSLED_clean_sbu_0, # of connection points: 3
#     Node 8, Type 1, BuildingBlock: GIZVER_clean_linker_0, # of connection points: 4
#     Node 9, Type 1, BuildingBlock: GIZVER_clean_linker_0, # of connection points: 4
#     Node 10, Type 1, BuildingBlock: GIZVER_clean_linker_0, # of connection points: 4
#     Node 11, Type 1, BuildingBlock: GIZVER_clean_linker_0, # of connection points: 4
#     Node 12, Type 1, BuildingBlock: GIZVER_clean_linker_0, # of connection points: 4
#     Node 13, Type 1, BuildingBlock: GIZVER_clean_linker_0, # of connection points: 4
#     Edge 14, Type (0, 1), BuildingBlock: AJUNOK_clean_linker_0, # of connection points: 2
#     Edge 15, Type (0, 1), BuildingBlock: AJUNOK_clean_linker_0, # of connection points: 2
#     Edge 16, Type (0, 1), BuildingBlock: AJUNOK_clean_linker_0, # of connection points: 2
#     Edge 17, Type (0, 1), BuildingBlock: AJUNOK_clean_linker_0, # of connection points: 2
#     Edge 18, Type (0, 1), BuildingBlock: AJUNOK_clean_linker_0, # of connection points: 2
#     Edge 19, Type (0, 1), BuildingBlock: AJUNOK_clean_linker_0, # of connection points: 2
#     Edge 20, Type (0, 1), BuildingBlock: AJUNOK_clean_linker_0, # of connection points: 2
#     Edge 21, Type (0, 1), BuildingBlock: AJUNOK_clean_linker_0, # of connection points: 2
#     Edge 22, Type (0, 1), BuildingBlock: AJUNOK_clean_linker_0, # of connection points: 2
#     Edge 23, Type (0, 1), BuildingBlock: AJUNOK_clean_linker_0, # of connection points: 2
#     Edge 24, Type (0, 1), BuildingBlock: AJUNOK_clean_linker_0, # of connection points: 2
#     Edge 25, Type (0, 1), BuildingBlock: AJUNOK_clean_linker_0, # of connection points: 2
#     Edge 26, Type (0, 1), BuildingBlock: AJUNOK_clean_linker_0, # of connection points: 2
#     Edge 27, Type (0, 1), BuildingBlock: AJUNOK_clean_linker_0, # of connection points: 2
#     Edge 28, Type (0, 1), BuildingBlock: AJUNOK_clean_linker_0, # of connection points: 2
#     Edge 29, Type (0, 1), BuildingBlock: AJUNOK_clean_linker_0, # of connection points: 2
#     Edge 30, Type (0, 1), BuildingBlock: AJUNOK_clean_linker_0, # of connection points: 2
#     Edge 31, Type (0, 1), BuildingBlock: AJUNOK_clean_linker_0, # of connection points: 2
#     Edge 32, Type (0, 1), BuildingBlock: AJUNOK_clean_linker_0, # of connection points: 2
#     Edge 33, Type (0, 1), BuildingBlock: AJUNOK_clean_linker_0, # of connection points: 2
#     Edge 34, Type (0, 1), BuildingBlock: AJUNOK_clean_linker_0, # of connection points: 2
#     Edge 35, Type (0, 1), BuildingBlock: AJUNOK_clean_linker_0, # of connection points: 2
#     Edge 36, Type (0, 1), BuildingBlock: AJUNOK_clean_linker_0, # of connection points: 2
#     Edge 37, Type (0, 1), BuildingBlock: AJUNOK_clean_linker_0, # of connection points: 2
# Relax obj value: 0.003
# Max RMSD: 0.031
# Mean RMSD: 0.021
data_MOF--net-pto--node1-WUSLED_clean_sbu_0--node2-GIZVER_clean_linker_0--edge1-AJUNOK_clean_linker_0
_symmetry_space_group_name_H-M    P1
_symmetry_Int_Tables_number       1
_symmetry_cell_setting            triclinic
loop_
_symmetry_equiv_pos_as_xyz
'x, y, z'
_cell_length_a     51.737402
_cell_length_b     42.745004
_cell_length_c     32.088462
_cell_angle_alpha  89.529348
_cell_angle_beta   90.297654
_cell_angle_gamma 90.153938
loop_
_atom_site_label
_atom_site_type_symbol
_atom_site_fract_x
_atom_site_fract_y
_atom_site_fract_z
_atom_type_partial_charge
C0 C 0.25605 0.23521 0.27026 0.0
C1 C 0.27792 0.23149 0.29591 0.0
C2 C 0.26281 0.17989 0.31765 0.0
C3 C 0.2812 0.20415 0.31948 0.0
C4 C 0.24158 0.1831 0.2904 0.0
C5 C 0.23817 0.21062 0.26711 0.0
U6 U 0.28015 0.30551 0.20741 0.0
O7 O 0.2622 0.32958 0.15355 0.0
O8 O 0.27004 0.35525 0.21122 0.0
C9 C 0.25883 0.35562 0.17437 0.0
C10 C 0.25133 0.26473 0.24742 0.0
C11 C 0.23251 0.36874 0.17339 0.0
C12 C 0.18932 0.37296 0.20257 0.0
C13 C 0.21355 0.35841 0.20157 0.0
C14 C 0.2024 0.4074 0.14614 0.0
C15 C 0.18366 0.398 0.17533 0.0
C16 C 0.22662 0.39295 0.14527 0.0
C17 C 0.35362 0.30863 0.18408 0.0
C18 C 0.37527 0.3398 0.13098 0.0
C19 C 0.40051 0.30838 0.1793 0.0
C20 C 0.37777 0.29852 0.19885 0.0
C21 C 0.39946 0.32848 0.14448 0.0
C22 C 0.35249 0.3299 0.15058 0.0
C23 C 0.33006 0.29484 0.20221 0.0
O24 O 0.26067 0.29019 0.26471 0.0
O25 O 0.25498 0.2638 0.20696 0.0
O26 O 0.31297 0.28397 0.17549 0.0
O27 O 0.31957 0.30999 0.2333 0.0
H28 H 0.29218 0.24998 0.29848 0.0
H29 H 0.29771 0.20246 0.34027 0.0
H30 H 0.22741 0.16453 0.28753 0.0
H31 H 0.22134 0.21288 0.24707 0.0
H32 H 0.17516 0.36496 0.22501 0.0
H33 H 0.21771 0.33958 0.22338 0.0
H34 H 0.19867 0.42676 0.12497 0.0
H35 H 0.24098 0.40122 0.12331 0.0
H36 H 0.37388 0.35522 0.1041 0.0
H37 H 0.41888 0.29968 0.19076 0.0
H38 H 0.37902 0.28219 0.22481 0.0
H39 H 0.33402 0.33802 0.13877 0.0
C40 C 0.24744 0.79951 0.6895 0.0
C41 C 0.26116 0.82518 0.70564 0.0
C42 C 0.25433 0.85427 0.64091 0.0
C43 C 0.26452 0.85234 0.68157 0.0
C44 C 0.24078 0.82841 0.62488 0.0
C45 C 0.23723 0.80143 0.64904 0.0
U46 U 0.27349 0.73409 0.75982 0.0
O47 O 0.25562 0.71099 0.81409 0.0
O48 O 0.26572 0.68349 0.75911 0.0
C49 C 0.25402 0.68381 0.79537 0.0
C50 C 0.2439 0.77036 0.71379 0.0
C51 C 0.22848 0.66856 0.7964 0.0
C52 C 0.18329 0.66578 0.77516 0.0
C53 C 0.2072 0.68133 0.77495 0.0
C54 C 0.20174 0.6248 0.81849 0.0
C55 C 0.18029 0.63733 0.79701 0.0
C56 C 0.22554 0.64032 0.81828 0.0
C57 C 0.34608 0.73803 0.79181 0.0
C58 C 0.37832 0.7463 0.84615 0.0
C59 C 0.38408 0.70443 0.7968 0.0
C60 C 0.36083 0.71282 0.77705 0.0
C61 C 0.39307 0.72113 0.83158 0.0
C62 C 0.35521 0.75471 0.82644 0.0
C63 C 0.32247 0.74904 0.76973 0.0
O64 O 0.25569 0.74561 0.69911 0.0
O65 O 0.2457 0.77273 0.75454 0.0
O66 O 0.30386 0.76007 0.79315 0.0
O67 O 0.31385 0.73211 0.73853 0.0
H68 H 0.26945 0.82424 0.73669 0.0
H69 H 0.27517 0.8718 0.69469 0.0
H70 H 0.23344 0.82868 0.59321 0.0
H71 H 0.22679 0.78182 0.63586 0.0
H72 H 0.16719 0.67588 0.75811 0.0
H73 H 0.20917 0.70311 0.75772 0.0
H74 H 0.20034 0.60247 0.83454 0.0
H75 H 0.24181 0.62999 0.83469 0.0
H76 H 0.38459 0.75946 0.8731 0.0
H77 H 0.39521 0.68522 0.78444 0.0
H78 H 0.35464 0.6998 0.74995 0.0
H79 H 0.34456 0.77456 0.83816 0.0
C80 C 0.72854 0.73113 0.1925 0.0
C81 C 0.72972 0.71245 0.15681 0.0
C82 C 0.68262 0.7116 0.15232 0.0
C83 C 0.70696 0.70286 0.1368 0.0
C84 C 0.68159 0.72942 0.18889 0.0
C85 C 0.70435 0.73906 0.20879 0.0
U86 U 0.80168 0.73196 0.21793 0.0
O87 O 0.82825 0.77216 0.21856 0.0
O88 O 0.82111 0.7456 0.27622 0.0
C89 C 0.83203 0.77028 0.25903 0.0
C90 C 0.75206 0.74432 0.2117 0.0
C91 C 0.82923 0.79964 0.28201 0.0
C92 C 0.80468 0.84579 0.30096 0.0
C93 C 0.80698 0.8182 0.27799 0.0
C94 C 0.84676 0.83634 0.33201 0.0
C95 C 0.82461 0.85517 0.32815 0.0
C96 C 0.84908 0.80893 0.30901 0.0
C97 C 0.84806 0.66845 0.18343 0.0
C98 C 0.89163 0.66396 0.21188 0.0
C99 C 0.87796 0.63041 0.15538 0.0
C100 C 0.85367 0.64471 0.15507 0.0
C101 C 0.89707 0.6395 0.18424 0.0
C102 C 0.86733 0.67836 0.21144 0.0
C103 C 0.82188 0.68192 0.18438 0.0
O104 O 0.76213 0.72832 0.2429 0.0
O105 O 0.76948 0.75548 0.1858 0.0
O106 O 0.81883 0.70841 0.16386 0.0
O107 O 0.81078 0.68182 0.22113 0.0
H108 H 0.74822 0.70611 0.14367 0.0
H109 H 0.70845 0.68976 0.10818 0.0
H110 H 0.66317 0.73648 0.20161 0.0
H111 H 0.70306 0.75346 0.23632 0.0
H112 H 0.7873 0.85968 0.29766 0.0
H113 H 0.79137 0.81122 0.25739 0.0
H114 H 0.86206 0.84231 0.35372 0.0
H115 H 0.86626 0.79472 0.31275 0.0
H116 H 0.90607 0.67171 0.2341 0.0
H117 H 0.88152 0.61149 0.13392 0.0
H118 H 0.83907 0.63678 0.13321 0.0
H119 H 0.8634 0.69686 0.23339 0.0
C120 C 0.77263 0.22985 0.71286 0.0
C121 C 0.79585 0.22732 0.69082 0.0
C122 C 0.78226 0.17671 0.66399 0.0
C123 C 0.80063 0.20096 0.66657 0.0
C124 C 0.75951 0.17877 0.68758 0.0
C125 C 0.7547 0.20522 0.71171 0.0
U126 U 0.79154 0.30916 0.75791 0.0
O127 O 0.77025 0.35362 0.75506 0.0
O128 O 0.779 0.33192 0.81567 0.0
C129 C 0.76613 0.3538 0.79545 0.0
C130 C 0.76629 0.25865 0.73522 0.0
C131 C 0.73897 0.3574 0.80802 0.0
C132 C 0.69432 0.33933 0.80738 0.0
C133 C 0.71979 0.33694 0.7932 0.0
C134 C 0.70685 0.38293 0.85085 0.0
C135 C 0.68758 0.36221 0.83665 0.0
C136 C 0.73227 0.38059 0.83656 0.0
C137 C 0.86258 0.33618 0.74807 0.0
C138 C 0.87917 0.38623 0.77185 0.0
C139 C 0.90789 0.34957 0.73843 0.0
C140 C 0.88735 0.32849 0.73395 0.0
C141 C 0.90398 0.37881 0.75706 0.0
C142 C 0.85861 0.36511 0.76731 0.0
C143 C 0.84126 0.31377 0.74206 0.0
O144 O 0.777 0.26177 0.77218 0.0
O145 O 0.76722 0.28439 0.71259 0.0
O146 O 0.82313 0.32232 0.7155 0.0
O147 O 0.83202 0.3007 0.7761 0.0
H148 H 0.80994 0.24613 0.69145 0.0
H149 H 0.81827 0.20008 0.6486 0.0
H150 H 0.74525 0.16018 0.68684 0.0
H151 H 0.73674 0.20675 0.72878 0.0
H152 H 0.67997 0.32293 0.79605 0.0
H153 H 0.72464 0.31874 0.77129 0.0
H154 H 0.70256 0.40018 0.87434 0.0
H155 H 0.74686 0.39639 0.84862 0.0
H156 H 0.87557 0.40865 0.78618 0.0
H157 H 0.92684 0.34298 0.72739 0.0
H158 H 0.89079 0.30617 0.71923 0.0
H159 H 0.83961 0.37141 0.77846 0.0
C160 C 0.84333 0.65242 0.80259 0.0
C161 C 0.86471 0.66872 0.78646 0.0
C162 C 0.89229 0.62349 0.79963 0.0
C163 C 0.88904 0.6544 0.78513 0.0
C164 C 0.87086 0.60764 0.81661 0.0
C165 C 0.84663 0.62197 0.81803 0.0
U166 U 0.79691 0.71654 0.76768 0.0
O167 O 0.75721 0.71284 0.74263 0.0
O168 O 0.76483 0.73971 0.79944 0.0
C169 C 0.7473 0.72868 0.77359 0.0
C170 C 0.81727 0.66615 0.80152 0.0
C171 C 0.7238 0.7156 0.79284 0.0
C172 C 0.70206 0.68995 0.85076 0.0
C173 C 0.72488 0.69857 0.83037 0.0
C174 C 0.67685 0.71385 0.79529 0.0
C175 C 0.67777 0.69798 0.83381 0.0
C176 C 0.69966 0.72256 0.77501 0.0
C177 C 0.82242 0.78586 0.70339 0.0
C178 C 0.80917 0.81444 0.64098 0.0
C179 C 0.8284 0.84235 0.69874 0.0
C180 C 0.83076 0.8142 0.72097 0.0
C181 C 0.81793 0.84267 0.65826 0.0
C182 C 0.81142 0.78635 0.66321 0.0
C183 C 0.82626 0.756 0.72638 0.0
O184 O 0.81441 0.69251 0.82181 0.0
O185 O 0.8061 0.66643 0.76465 0.0
O186 O 0.81614 0.73076 0.70963 0.0
O187 O 0.82323 0.75707 0.767 0.0
H188 H 0.86249 0.6923 0.77435 0.0
H189 H 0.90523 0.66739 0.77245 0.0
H190 H 0.87263 0.58372 0.82765 0.0
H191 H 0.83032 0.60899 0.83039 0.0
H192 H 0.7035 0.6784 0.88084 0.0
H193 H 0.74332 0.69301 0.84473 0.0
H194 H 0.65846 0.72033 0.78146 0.0
H195 H 0.69845 0.7357 0.74606 0.0
H196 H 0.80126 0.81392 0.60966 0.0
H197 H 0.83499 0.86381 0.71307 0.0
H198 H 0.83941 0.81456 0.75178 0.0
H199 H 0.80492 0.76499 0.64853 0.0
C200 C 0.7259 0.30918 0.17657 0.0
C201 C 0.70673 0.32611 0.19766 0.0
C202 C 0.6789 0.32522 0.13621 0.0
C203 C 0.68351 0.33419 0.17761 0.0
C204 C 0.69816 0.30864 0.11505 0.0
C205 C 0.72132 0.30066 0.13494 0.0
U206 U 0.79807 0.31068 0.21259 0.0
O207 O 0.81448 0.29743 0.27343 0.0
O208 O 0.82468 0.27066 0.21782 0.0
C209 C 0.8258 0.27236 0.25867 0.0
C210 C 0.74908 0.29734 0.19913 0.0
C211 C 0.82156 0.2427 0.28179 0.0
C212 C 0.80331 0.21375 0.34027 0.0
C213 C 0.80548 0.24136 0.31696 0.0
C214 C 0.83244 0.18787 0.29295 0.0
C215 C 0.81712 0.18687 0.32897 0.0
C216 C 0.83476 0.21558 0.26976 0.0
C217 C 0.84586 0.37587 0.18456 0.0
C218 C 0.87242 0.42019 0.20538 0.0
C219 C 0.89245 0.37555 0.17286 0.0
C220 C 0.86823 0.36086 0.16993 0.0
C221 C 0.89479 0.40526 0.19092 0.0
C222 C 0.84827 0.40569 0.20216 0.0
C223 C 0.81989 0.36122 0.18178 0.0
O224 O 0.76807 0.28653 0.17631 0.0
O225 O 0.75722 0.31336 0.2315 0.0
O226 O 0.8065 0.36105 0.2165 0.0
O227 O 0.81796 0.33488 0.16102 0.0
H228 H 0.7094 0.33247 0.23 0.0
H229 H 0.6689 0.3467 0.19481 0.0
H230 H 0.69525 0.30167 0.08297 0.0
H231 H 0.73539 0.28721 0.11785 0.0
H232 H 0.79149 0.21376 0.36804 0.0
H233 H 0.79499 0.26179 0.32714 0.0
H234 H 0.84294 0.16737 0.28305 0.0
H235 H 0.84725 0.21597 0.24276 0.0
H236 H 0.87352 0.44345 0.21844 0.0
H237 H 0.90936 0.36365 0.16118 0.0
H238 H 0.86707 0.33787 0.15614 0.0
H239 H 0.83137 0.41791 0.21331 0.0
C240 C 0.25362 0.24044 0.69804 0.0
C241 C 0.27043 0.21711 0.71309 0.0
C242 C 0.26181 0.18556 0.65168 0.0
C243 C 0.27435 0.1898 0.69023 0.0
C244 C 0.24476 0.20883 0.63711 0.0
C245 C 0.24068 0.23594 0.66011 0.0
U246 U 0.27978 0.30867 0.76161 0.0
O247 O 0.2709 0.35887 0.75755 0.0
O248 O 0.26279 0.33284 0.81524 0.0
C249 C 0.25993 0.35923 0.7944 0.0
C250 C 0.2498 0.26994 0.72062 0.0
C251 C 0.2339 0.37303 0.79527 0.0
C252 C 0.18855 0.37273 0.7746 0.0
C253 C 0.21291 0.35844 0.77533 0.0
C254 C 0.20587 0.41599 0.81435 0.0
C255 C 0.18485 0.40189 0.79369 0.0
C256 C 0.23015 0.40171 0.81507 0.0
C257 C 0.35316 0.30826 0.78636 0.0
C258 C 0.3755 0.3431 0.83405 0.0
C259 C 0.39951 0.30346 0.79722 0.0
C260 C 0.37675 0.29376 0.77747 0.0
C261 C 0.39911 0.32796 0.82612 0.0
C262 C 0.35268 0.33333 0.81428 0.0
C263 C 0.32931 0.29562 0.76777 0.0
O264 O 0.25296 0.26871 0.76129 0.0
O265 O 0.2604 0.2948 0.70334 0.0
O266 O 0.3193 0.31171 0.7366 0.0
O267 O 0.31189 0.28519 0.79418 0.0
H268 H 0.28071 0.22008 0.7423 0.0
H269 H 0.28724 0.17207 0.70264 0.0
H270 H 0.23501 0.20643 0.60734 0.0
H271 H 0.2277 0.25369 0.64792 0.0
H272 H 0.17267 0.36109 0.75895 0.0
H273 H 0.21546 0.3362 0.75992 0.0
H274 H 0.20373 0.43857 0.82901 0.0
H275 H 0.24614 0.41334 0.83051 0.0
H276 H 0.37447 0.3616 0.85684 0.0
H277 H 0.41737 0.29136 0.79057 0.0
H278 H 0.37746 0.27436 0.75598 0.0
H279 H 0.3346 0.34471 0.82162 0.0
C280 C 0.21251 0.69643 0.21953 0.0
C281 C 0.20776 0.68534 0.17908 0.0
C282 C 0.17286 0.65205 0.20483 0.0
C283 C 0.18812 0.66347 0.17183 0.0
C284 C 0.17759 0.66327 0.24524 0.0
C285 C 0.19712 0.68535 0.25244 0.0
U286 U 0.28248 0.72702 0.21263 0.0
O287 O 0.29616 0.7751 0.20037 0.0
O288 O 0.30648 0.75119 0.25893 0.0
C289 C 0.30681 0.77754 0.23747 0.0
C290 C 0.23296 0.71984 0.228 0.0
C291 C 0.30039 0.80595 0.26083 0.0
C292 C 0.27836 0.83166 0.31771 0.0
C293 C 0.28258 0.80506 0.29367 0.0
C294 C 0.30875 0.8608 0.27519 0.0
C295 C 0.29156 0.85977 0.30898 0.0
C296 C 0.31312 0.83409 0.25136 0.0
C297 C 0.33532 0.68101 0.15846 0.0
C298 C 0.38114 0.69318 0.16546 0.0
C299 C 0.36591 0.66234 0.10727 0.0
C300 C 0.34062 0.66433 0.12214 0.0
C301 C 0.3865 0.67674 0.12871 0.0
C302 C 0.35576 0.69536 0.18017 0.0
C303 C 0.3083 0.68423 0.17216 0.0
O304 O 0.2512 0.71122 0.25436 0.0
O305 O 0.2419 0.73547 0.19565 0.0
O306 O 0.29504 0.70647 0.15336 0.0
O307 O 0.30451 0.68309 0.21263 0.0
H308 H 0.21926 0.69343 0.153 0.0
H309 H 0.18496 0.65531 0.14034 0.0
H310 H 0.16667 0.65439 0.27151 0.0
H311 H 0.2004 0.69356 0.28389 0.0
H312 H 0.26552 0.8298 0.34417 0.0
H313 H 0.27248 0.78358 0.30151 0.0
H314 H 0.31917 0.88211 0.26769 0.0
H315 H 0.32689 0.83523 0.22605 0.0
H316 H 0.39652 0.70471 0.1825 0.0
H317 H 0.36914 0.65044 0.0781 0.0
H318 H 0.32509 0.6534 0.10471 0.0
H319 H 0.35205 0.70862 0.20813 0.0
H320 H 1.01188 0.47014 0.15807 0.0
H321 H 1.01266 0.57108 0.15541 0.0
H322 H 0.94834 0.52162 0.20845 0.0
H323 H 0.0392 0.49961 0.10848 0.0
H324 H 0.0403 0.54115 0.10886 0.0
H325 H 0.06815 0.46854 0.1524 0.0
H326 H 0.13412 0.51666 0.20249 0.0
H327 H 0.06907 0.56936 0.15719 0.0
C328 C 1.00342 0.49227 0.16689 0.0
C329 C 0.97915 0.49259 0.1864 0.0
C330 C 1.01605 0.52057 0.15649 0.0
C331 C 1.00387 0.54925 0.1654 0.0
C332 C 0.97959 0.54969 0.18488 0.0
C333 C 0.96775 0.52133 0.19582 0.0
C334 C 0.04 0.52013 0.12957 0.0
C335 C 0.06497 0.51903 0.15445 0.0
C336 C 0.07734 0.49013 0.16208 0.0
C337 C 0.1022 0.4892 0.1799 0.0
C338 C 0.11452 0.51729 0.1903 0.0
C339 C 0.10297 0.54628 0.18192 0.0
C340 C 0.07784 0.54706 0.16498 0.0
H341 H 0.06637 0.56752 0.75184 0.0
H342 H 0.06819 0.46662 0.74969 0.0
H343 H 0.13029 0.51804 0.80653 0.0
H344 H 0.03904 0.53865 0.70344 0.0
H345 H 0.0413 0.49728 0.69974 0.0
H346 H 1.00982 0.56322 0.75482 0.0
H347 H 0.94551 0.50605 0.79216 0.0
H348 H 1.01274 0.46313 0.73955 0.0
C349 C 0.07527 0.54561 0.76114 0.0
C350 C 0.09918 0.54599 0.78212 0.0
C351 C 0.06353 0.51695 0.75023 0.0
C352 C 0.07634 0.48867 0.75989 0.0
C353 C 0.1004 0.48898 0.78053 0.0
C354 C 0.1112 0.51765 0.79234 0.0
C355 C 0.03979 0.51675 0.72241 0.0
C356 C 1.01473 0.5134 0.74629 0.0
C357 C 1.00136 0.54024 0.75952 0.0
C358 C 0.97647 0.53755 0.7766 0.0
C359 C 0.96522 0.50789 0.78098 0.0
C360 C 0.9779 0.48095 0.76737 0.0
C361 C 1.00293 0.48376 0.75076 0.0
H362 H 0.29902 0.05213 0.42261 0.0
H363 H 0.30177 0.05493 0.5569 0.0
H364 H 0.26227 0.12701 0.48824 0.0
H365 H 0.33298 0.02312 0.46461 0.0
H366 H 0.33016 0.02009 0.51992 0.0
H367 H 0.30865 0.98879 0.41916 0.0
H368 H 0.26712 0.91217 0.47493 0.0
H369 H 0.29582 0.98646 0.55182 0.0
C370 C 0.29341 0.0629 0.45165 0.0
C371 C 0.27878 0.09055 0.45088 0.0
C372 C 0.30149 0.04963 0.48987 0.0
C373 C 0.29501 0.06445 0.5274 0.0
C374 C 0.28055 0.09216 0.52679 0.0
C375 C 0.27233 0.10477 0.48861 0.0
C376 C 0.31877 0.02126 0.49043 0.0
C377 C 0.30325 0.99154 0.48582 0.0
C378 C 0.30009 0.97782 0.44638 0.0
C379 C 0.28681 0.94933 0.44224 0.0
C380 C 0.27628 0.93493 0.47768 0.0
C381 C 0.27947 0.94809 0.5172 0.0
C382 C 0.29287 0.97651 0.52119 0.0
H383 H 0.50931 0.71921 0.92397 0.0
H384 H 0.50765 0.70504 0.05711 0.0
H385 H 0.44359 0.67569 0.98174 0.0
H386 H 0.53753 0.7492 0.96922 0.0
H387 H 0.53525 0.74564 0.02426 0.0
H388 H 0.56332 0.70991 0.92843 0.0
H389 H 0.63088 0.67914 -0.00496 0.0
H390 H 0.56633 0.7155 0.06241 0.0
C391 C 0.50021 0.70916 0.95135 0.0
C392 C 0.47546 0.69569 0.94779 0.0
C393 C 0.51234 0.71197 -0.00935 0.0
C394 C 0.49933 0.70114 0.02651 0.0
C395 C 0.47475 0.68736 0.02309 0.0
C396 C 0.46334 0.68418 0.98373 0.0
C397 C 0.53648 0.73178 -0.00488 0.0
C398 C 0.5612 0.71288 -0.00444 0.0
C399 C 0.57295 0.70459 0.95771 0.0
C400 C 0.59797 0.6918 0.95746 0.0
C401 C 0.61088 0.68672 -0.0046 0.0
C402 C 0.59973 0.69514 0.03336 0.0
C403 C 0.57467 0.70781 0.03333 0.0
H404 H 0.83729 0.05391 0.43387 0.0
H405 H 0.82284 0.05054 0.56591 0.0
H406 H 0.79423 0.12726 0.49181 0.0
H407 H 0.86392 0.02159 0.47946 0.0
H408 H 0.85957 0.02205 0.53445 0.0
H409 H 0.83425 0.98942 0.43436 0.0
H410 H 0.80833 0.90499 0.49503 0.0
H411 H 0.83355 0.9829 0.56835 0.0
C412 C 0.82807 0.06346 0.46122 0.0
C413 C 0.81467 0.09189 0.45809 0.0
C414 C 0.831 0.04832 0.50002 0.0
C415 C 0.81987 0.06153 0.53569 0.0
C416 C 0.80607 0.08973 0.53278 0.0
C417 C 0.8034 0.1045 0.49381 0.0
C418 C 0.84896 0.02074 0.50425 0.0
C419 C 0.83473 0.98995 0.50162 0.0
C420 C 0.82959 0.97649 0.46253 0.0
C421 C 0.82001 0.94575 0.45986 0.0
C422 C 0.81449 0.92923 0.49672 0.0
C423 C 0.81935 0.94235 0.53586 0.0
C424 C 0.82913 0.97293 0.53818 0.0
H425 H 0.50995 0.37837 0.91809 0.0
H426 H 0.51034 0.37921 0.05273 0.0
H427 H 0.44851 0.3342 0.98648 0.0
H428 H 0.53689 0.41625 0.95743 0.0
H429 H 0.53793 0.41542 0.01293 0.0
H430 H 0.56777 0.38684 0.91729 0.0
H431 H 0.62963 0.34105 0.98319 0.0
H432 H 0.56414 0.3745 0.05092 0.0
C433 C 0.50156 0.37129 0.94759 0.0
C434 C 0.47808 0.35466 0.94798 0.0
C435 C 0.51374 0.37969 0.98538 0.0
C436 C 0.5018 0.37176 0.02353 0.0
C437 C 0.4784 0.35506 0.02382 0.0
C438 C 0.46702 0.34623 0.98612 0.0
C439 C 0.53762 0.40024 0.98493 0.0
C440 C 0.56243 0.38151 0.98396 0.0
C441 C 0.57579 0.37752 0.94607 0.0
C442 C 0.60005 0.36275 0.94567 0.0
C443 C 0.61047 0.35135 0.98309 0.0
C444 C 0.59781 0.35551 0.02099 0.0
C445 C 0.57369 0.3705 0.02146 0.0
C446 C 0.14468 0.42352 0.14289 0.0
C447 C 0.15919 0.41603 0.17886 0.0
C448 C 0.12424 0.44505 0.14427 0.0
C449 C 0.11776 0.46007 0.18161 0.0
H450 H 0.14994 0.41374 0.11308 0.0
H451 H 0.11476 0.45171 0.11537 0.0
S452 S 0.14801 0.44663 0.28512 0.0
N453 N 0.16424 0.42368 0.25349 0.0
N454 N 0.12587 0.46407 0.25593 0.0
C455 C 0.13094 0.45124 0.21824 0.0
C456 C 0.15163 0.42923 0.21692 0.0
C457 C 0.14377 0.61333 0.75633 0.0
C458 C 0.1556 0.61934 0.79511 0.0
C459 C 0.12345 0.5916 0.7528 0.0
C460 C 0.11429 0.57518 0.78792 0.0
H461 H 0.15139 0.62385 0.72812 0.0
H462 H 0.11626 0.58586 0.72202 0.0
S463 S 0.13536 0.58649 0.89728 0.0
N464 N 0.15399 0.61041 0.87001 0.0
N465 N 0.11625 0.56916 0.8631 0.0
C466 C 0.12448 0.58286 0.82717 0.0
C467 C 0.14503 0.60503 0.83084 0.0
C468 C 0.9358 0.61547 0.1503 0.0
C469 C 0.92182 0.62187 0.18679 0.0
C470 C 0.95654 0.59433 0.15072 0.0
C471 C 0.96387 0.57862 0.18758 0.0
H472 H 0.92988 0.62579 0.12082 0.0
H473 H 0.96557 0.58847 0.12142 0.0
S474 S 0.93529 0.58925 0.29217 0.0
N475 N 0.9182 0.61255 0.2614 0.0
N476 N 0.95715 0.57291 0.26206 0.0
C477 C 0.95124 0.58644 0.22475 0.0
C478 C 0.93023 0.60804 0.2244 0.0
C479 C 0.93031 0.41725 0.79819 0.0
C480 C 0.92547 0.40195 0.76027 0.0
C481 C 0.94873 0.44132 0.80097 0.0
C482 C 0.96299 0.45113 0.76592 0.0
H483 H 0.91935 0.41104 0.82573 0.0
H484 H 0.95113 0.4532 0.83044 0.0
S485 S 0.95781 0.41845 0.65946 0.0
N486 N 0.93684 0.39791 0.6871 0.0
N487 N 0.97129 0.44324 0.6923 0.0
C488 C 0.95905 0.43522 0.72821 0.0
C489 C 0.94031 0.41066 0.72538 0.0
C490 C 0.2893 0.13792 0.35238 0.0
C491 C 0.26517 0.15251 0.34636 0.0
C492 C 0.29308 0.1157 0.38426 0.0
C493 C 0.27287 0.10737 0.41133 0.0
H494 H 0.30568 0.14468 0.33341 0.0
H495 H 0.31236 0.10657 0.38942 0.0
S496 S 0.20533 0.1359 0.40607 0.0
N497 N 0.22027 0.1551 0.36836 0.0
N498 N 0.22731 0.1128 0.42743 0.0
C499 C 0.24824 0.12005 0.40377 0.0
C500 C 0.24439 0.14273 0.37149 0.0
C501 C 0.43512 0.736 0.86531 0.0
C502 C 0.41746 0.71246 0.85366 0.0
C503 C 0.45574 0.72963 0.89262 0.0
C504 C 0.45946 0.69947 0.90941 0.0
H505 H 0.43223 0.7599 0.85486 0.0
H506 H 0.46756 0.74901 0.90314 0.0
S507 S 0.42101 0.62868 0.88426 0.0
N508 N 0.40671 0.6571 0.85776 0.0
N509 N 0.44579 0.64506 0.90841 0.0
C510 C 0.44332 0.6752 0.89517 0.0
C511 C 0.42225 0.68169 0.86747 0.0
C512 C 0.79919 0.88654 0.37913 0.0
C513 C 0.82167 0.88303 0.35518 0.0
C514 C 0.79795 0.90887 0.41081 0.0
C515 C 0.81913 0.92852 0.41976 0.0
H516 H 0.78305 0.87062 0.37522 0.0
H517 H 0.7808 0.90957 0.43005 0.0
S518 S 0.88094 0.9318 0.36164 0.0
N519 N 0.86421 0.90382 0.33867 0.0
N520 N 0.86229 0.94502 0.39915 0.0
C521 C 0.84093 0.92689 0.39383 0.0
C522 C 0.84211 0.90427 0.36141 0.0
C523 C 0.65096 0.33418 0.8716 0.0
C524 C 0.66143 0.36232 0.85594 0.0
C525 C 0.62914 0.33417 0.89732 0.0
C526 C 0.61688 0.36227 0.90829 0.0
H527 H 0.66075 0.31218 0.86649 0.0
H528 H 0.62292 0.31223 0.9112 0.0
S529 S 0.63396 0.44163 0.86983 0.0
N530 N 0.65567 0.41854 0.8485 0.0
N531 N 0.61497 0.41853 0.89768 0.0
C532 C 0.62571 0.39022 0.88989 0.0
C533 C 0.64797 0.39026 0.86365 0.0
C534 C 0.28443 0.89474 0.61126 0.0
C535 C 0.25927 0.88222 0.61412 0.0
C536 C 0.29045 0.91803 0.58178 0.0
C537 C 0.27154 0.92951 0.55408 0.0
H538 H 0.29994 0.88527 0.63031 0.0
H539 H 0.31035 0.92567 0.57889 0.0
S540 S 0.20208 0.90835 0.55294 0.0
N541 N 0.21467 0.88617 0.5902 0.0
N542 N 0.22627 0.92927 0.53403 0.0
C543 C 0.24604 0.91872 0.55833 0.0
C544 C 0.23984 0.89525 0.58852 0.0
C545 C 0.64111 0.72924 0.1192 0.0
C546 C 0.65861 0.70488 0.12813 0.0
C547 C 0.62054 0.72507 0.09111 0.0
C548 C 0.61668 0.69634 0.07089 0.0
H549 H 0.64422 0.75234 0.13201 0.0
H550 H 0.60874 0.74512 0.08297 0.0
S551 S 0.65417 0.62362 0.08894 0.0
N552 N 0.66858 0.64984 0.1187 0.0
N553 N 0.63001 0.64207 0.06567 0.0
C554 C 0.63281 0.67115 0.08196 0.0
C555 C 0.65376 0.67538 0.11054 0.0
C556 C 0.81041 0.13527 0.63322 0.0
C557 C 0.78634 0.15051 0.63458 0.0
C558 C 0.81599 0.11366 0.60187 0.0
C559 C 0.79777 0.10669 0.57059 0.0
H560 H 0.82535 0.1409 0.65573 0.0
H561 H 0.83524 0.1038 0.6007 0.0
S562 S 0.73122 0.1381 0.56203 0.0
N563 N 0.74362 0.15561 0.60325 0.0
N564 N 0.75405 0.11467 0.5448 0.0
C565 C 0.77316 0.12039 0.57297 0.0
C566 C 0.76745 0.14235 0.60486 0.0
C567 C 0.42888 0.36658 0.10787 0.0
C568 C 0.42313 0.3356 0.11998 0.0
C569 C 0.44888 0.37318 0.07963 0.0
C570 C 0.46364 0.349 0.06239 0.0
H571 H 0.41716 0.38571 0.11901 0.0
H572 H 0.45163 0.39709 0.06904 0.0
S573 S 0.45731 0.26429 0.08509 0.0
N574 N 0.43479 0.28073 0.11382 0.0
N575 N 0.47212 0.2933 0.06061 0.0
C576 C 0.45898 0.3182 0.07576 0.0
C577 C 0.4388 0.31145 0.10464 0.0
C578 C 0.92688 0.58846 0.82878 0.0
C579 C 0.91739 0.60678 0.79542 0.0
C580 C 0.94773 0.56799 0.82348 0.0
C581 C 0.96003 0.56522 0.78471 0.0
H582 H 0.91737 0.58888 0.85876 0.0
H583 H 0.95335 0.5529 0.84925 0.0
S584 S 0.94385 0.60923 0.68812 0.0
N585 N 0.9229 0.6219 0.72273 0.0
N586 N 0.96226 0.58366 0.71308 0.0
C587 C 0.9519 0.58484 0.75186 0.0
C588 C 0.93054 0.60558 0.75714 0.0
C589 C 0.9346 0.42637 0.1561 0.0
C590 C 0.9201 0.42183 0.19268 0.0
C591 C 0.9557 0.44716 0.15522 0.0
C592 C 0.96302 0.46397 0.19094 0.0
H593 H 0.92851 0.41551 0.12727 0.0
H594 H 0.965 0.45193 0.12566 0.0
S595 S 0.9345 0.45585 0.2962 0.0
N596 N 0.91692 0.43236 0.26679 0.0
N597 N 0.95644 0.47143 0.26505 0.0
C598 C 0.95015 0.45743 0.22848 0.0
C599 C 0.9287 0.43641 0.22937 0.0
C600 C 0.14932 0.43289 0.82644 0.0
C601 C 0.15967 0.41868 0.79081 0.0
C602 C 0.12833 0.45349 0.82345 0.0
C603 C 0.11679 0.46062 0.78473 0.0
H604 H 0.15828 0.42916 0.85666 0.0
H605 H 0.12205 0.46541 0.85129 0.0
S606 S 0.13536 0.42817 0.68242 0.0
N607 N 0.15574 0.41187 0.71586 0.0
N608 N 0.11621 0.45049 0.7104 0.0
C609 C 0.12578 0.445 0.74928 0.0
C610 C 0.14724 0.42406 0.75227 0.0
C611 C 0.16069 0.60074 0.17345 0.0
C612 C 0.15357 0.62671 0.19738 0.0
C613 C 0.14382 0.57551 0.16775 0.0
C614 C 0.11907 0.57501 0.1858 0.0
H615 H 0.17978 0.59944 0.15989 0.0
H616 H 0.1504 0.5559 0.14948 0.0
S617 S 0.09018 0.63806 0.2488 0.0
N618 N 0.11934 0.65126 0.23722 0.0
N619 N 0.08774 0.60328 0.227 0.0
C620 C 0.11127 0.60118 0.20868 0.0
C621 C 0.12853 0.62705 0.21454 0.0
C622 C 0.795 0.87962 0.60972 0.0
C623 C 0.81734 0.87183 0.63274 0.0
C624 C 0.7952 0.90412 0.58043 0.0
C625 C 0.81771 0.92183 0.57322 0.0
H626 H 0.77749 0.86592 0.61329 0.0
H627 H 0.77797 0.90836 0.56192 0.0
S628 S 0.88103 0.91167 0.62618 0.0
N629 N 0.86234 0.88452 0.64722 0.0
N630 N 0.86261 0.93069 0.59237 0.0
C631 C 0.83977 0.91538 0.59751 0.0
C632 C 0.83961 0.89035 0.62724 0.0
C633 C 0.64117 0.30907 0.09221 0.0
C634 C 0.65417 0.33266 0.11447 0.0
C635 C 0.62067 0.31624 0.06512 0.0
C636 C 0.61229 0.34724 0.05944 0.0
H637 H 0.64779 0.28507 0.09412 0.0
H638 H 0.61251 0.29774 0.04623 0.0
S639 S 0.63821 0.4172 0.11288 0.0
N640 N 0.65586 0.38799 0.13128 0.0
N641 N 0.61718 0.40137 0.0803 0.0
C642 C 0.62375 0.3707 0.08378 0.0
C643 C 0.64474 0.36344 0.11135 0.0
C644 C 0.24639 0.1423 0.60547 0.0
C645 C 0.26703 0.15774 0.62548 0.0
C646 C 0.25088 0.11927 0.57557 0.0
C647 C 0.27615 0.11054 0.56495 0.0
H648 H 0.22661 0.14891 0.61182 0.0
H649 H 0.23451 0.10919 0.55925 0.0
S650 S 0.33686 0.1426 0.60916 0.0
N651 N 0.31374 0.16177 0.63328 0.0
N652 N 0.32202 0.11796 0.57764 0.0
C653 C 0.29692 0.12443 0.58626 0.0
C654 C 0.29239 0.14814 0.61644 0.0
C655 C 0.42649 0.70558 0.10642 0.0
C656 C 0.41291 0.67709 0.1103 0.0
C657 C 0.44869 0.70798 0.0816 0.0
C658 C 0.45803 0.682 0.05978 0.0
H659 H 0.41888 0.72673 0.12002 0.0
H660 H 0.45723 0.73087 0.07658 0.0
S661 S 0.43267 0.60101 0.06576 0.0
N662 N 0.413 0.62134 0.09548 0.0
N663 N 0.45422 0.62624 0.0478 0.0
C664 C 0.44606 0.65289 0.06633 0.0
C665 C 0.42361 0.65034 0.09182 0.0
C666 C 0.79304 0.14782 0.37281 0.0
C667 C 0.81664 0.15876 0.35654 0.0
C668 C 0.7924 0.12452 0.4038 0.0
C669 C 0.81533 0.11119 0.41949 0.0
H670 H 0.77497 0.15812 0.36255 0.0
H671 H 0.7739 0.11778 0.41682 0.0
S672 S 0.88207 0.13094 0.38671 0.0
N673 N 0.86347 0.15382 0.35778 0.0
N674 N 0.8622 0.10987 0.4157 0.0
C675 C 0.83896 0.12078 0.4021 0.0
C676 C 0.83964 0.14461 0.37069 0.0
C677 C 0.43577 0.31102 0.87201 0.0
C678 C 0.42259 0.33536 0.85118 0.0
C679 C 0.45546 0.31738 0.90091 0.0
C680 C 0.46297 0.34828 0.90963 0.0
H681 H 0.42979 0.28693 0.86788 0.0
H682 H 0.4639 0.29809 0.91832 0.0
S683 S 0.43674 0.42016 0.86009 0.0
N684 N 0.4201 0.39143 0.8385 0.0
N685 N 0.45716 0.40333 0.89301 0.0
C686 C 0.4512 0.37271 0.88706 0.0
C687 C 0.43095 0.36627 0.85787 0.0
C688 C 0.3118 0.90166 0.35254 0.0
C689 C 0.28928 0.88685 0.33754 0.0
C690 C 0.31063 0.92382 0.38443 0.0
C691 C 0.28692 0.93187 0.40256 0.0
H692 H 0.33064 0.89478 0.3413 0.0
H693 H 0.32856 0.93317 0.39679 0.0
S694 S 0.22209 0.90396 0.36999 0.0
N695 N 0.2423 0.88503 0.33958 0.0
N696 N 0.24024 0.92623 0.4002 0.0
C697 C 0.26415 0.9189 0.38601 0.0
C698 C 0.2653 0.8965 0.35336 0.0
C699 C 0.6368 0.7184 0.86454 0.0
C700 C 0.65383 0.69317 0.85863 0.0
C701 C 0.61687 0.71667 0.89394 0.0
C702 C 0.61325 0.68964 0.91853 0.0
H703 H 0.63997 0.74046 0.84846 0.0
H704 H 0.60559 0.73749 0.89974 0.0
S705 S 0.64925 0.61515 0.90955 0.0
N706 N 0.66324 0.6388 0.87544 0.0
N707 N 0.62592 0.6357 0.93105 0.0
C708 C 0.62866 0.66337 0.91037 0.0
C709 C 0.64894 0.66511 0.88042 0.0
loop_
_geom_bond_atom_site_label_1
_geom_bond_atom_site_label_2
_geom_bond_distance
_geom_bond_site_symmetry_2
_ccdc_geom_bond_type
C0 C1 1.264 . S
C0 C5 1.479 . S
C0 C10 1.465 . S
C1 C0 1.264 . S
C1 C3 1.339 . S
C1 H28 0.931 . S
C2 C3 1.395 . S
C2 C4 1.320 . S
C3 C1 1.339 . S
C3 C2 1.395 . S
C3 H29 0.929 . S
C4 C2 1.320 . S
C4 C5 1.405 . S
C4 H30 0.930 . S
C5 C0 1.479 . S
C5 C4 1.405 . S
C5 H31 0.931 . S
U6 O7 2.454 . S
U6 O8 2.458 . S
U6 C9 2.984 . S
U6 C10 2.847 . S
U6 C23 2.882 . S
U6 O24 2.441 . S
U6 O25 2.420 . S
U6 O26 2.455 . S
U6 O27 2.449 . S
O7 U6 2.454 . S
O7 C9 1.353 . S
O8 U6 2.458 . S
O8 C9 1.286 . S
C9 U6 2.984 . S
C9 O7 1.353 . S
C9 O8 1.286 . S
C9 C11 1.363 . S
C10 C0 1.465 . S
C10 U6 2.847 . S
C10 O24 1.249 . S
C10 O25 1.202 . S
C11 C9 1.363 . S
C11 C13 1.408 . S
C11 C16 1.342 . S
C12 C13 1.310 . S
C12 C15 1.461 . S
C12 H32 0.932 . S
C13 C11 1.408 . S
C13 C12 1.310 . S
C13 H33 0.930 . S
C14 C15 1.474 . S
C14 C16 1.285 . S
C14 H34 0.929 . S
C15 C12 1.461 . S
C15 C14 1.474 . S
C16 C11 1.342 . S
C16 C14 1.285 . S
C16 H35 0.930 . S
C17 C20 1.424 . S
C17 C22 1.245 . S
C17 C23 1.428 . S
C18 C21 1.260 . S
C18 C22 1.477 . S
C18 H36 0.932 . S
C19 C20 1.384 . S
C19 C21 1.479 . S
C19 H37 0.929 . S
C20 C17 1.424 . S
C20 C19 1.384 . S
C20 H38 0.928 . S
C21 C18 1.260 . S
C21 C19 1.479 . S
C22 C17 1.245 . S
C22 C18 1.477 . S
C22 H39 0.932 . S
C23 U6 2.882 . S
C23 C17 1.428 . S
C23 O26 1.301 . S
C23 O27 1.282 . S
O24 U6 2.441 . S
O24 C10 1.249 . S
O25 U6 2.420 . S
O25 C10 1.202 . S
O26 U6 2.455 . S
O26 C23 1.301 . S
O27 U6 2.449 . S
O27 C23 1.282 . S
H28 C1 0.931 . S
H29 C3 0.929 . S
H30 C4 0.930 . S
H31 C5 0.931 . S
H32 C12 0.932 . S
H33 C13 0.930 . S
H34 C14 0.929 . S
H35 C16 0.930 . S
H36 C18 0.932 . S
H37 C19 0.929 . S
H38 C20 0.928 . S
H39 C22 0.932 . S
C40 C41 1.264 . S
C40 C45 1.479 . S
C40 C50 1.465 . S
C41 C40 1.264 . S
C41 C43 1.339 . S
C41 H68 0.931 . S
C42 C43 1.395 . S
C42 C44 1.320 . S
C43 C41 1.339 . S
C43 C42 1.395 . S
C43 H69 0.929 . S
C44 C42 1.320 . S
C44 C45 1.405 . S
C44 H70 0.930 . S
C45 C40 1.479 . S
C45 C44 1.405 . S
C45 H71 0.931 . S
U46 O47 2.454 . S
U46 O48 2.458 . S
U46 C49 2.984 . S
U46 C50 2.847 . S
U46 C63 2.882 . S
U46 O64 2.441 . S
U46 O65 2.420 . S
U46 O66 2.455 . S
U46 O67 2.449 . S
O47 U46 2.454 . S
O47 C49 1.353 . S
O48 U46 2.458 . S
O48 C49 1.286 . S
C49 U46 2.984 . S
C49 O47 1.353 . S
C49 O48 1.286 . S
C49 C51 1.363 . S
C50 C40 1.465 . S
C50 U46 2.847 . S
C50 O64 1.249 . S
C50 O65 1.202 . S
C51 C49 1.363 . S
C51 C53 1.408 . S
C51 C56 1.342 . S
C52 C53 1.310 . S
C52 C55 1.461 . S
C52 H72 0.932 . S
C53 C51 1.408 . S
C53 C52 1.310 . S
C53 H73 0.930 . S
C54 C55 1.474 . S
C54 C56 1.285 . S
C54 H74 0.929 . S
C55 C52 1.461 . S
C55 C54 1.474 . S
C56 C51 1.342 . S
C56 C54 1.285 . S
C56 H75 0.930 . S
C57 C60 1.424 . S
C57 C62 1.245 . S
C57 C63 1.428 . S
C58 C61 1.260 . S
C58 C62 1.477 . S
C58 H76 0.932 . S
C59 C60 1.384 . S
C59 C61 1.479 . S
C59 H77 0.929 . S
C60 C57 1.424 . S
C60 C59 1.384 . S
C60 H78 0.928 . S
C61 C58 1.260 . S
C61 C59 1.479 . S
C62 C57 1.245 . S
C62 C58 1.477 . S
C62 H79 0.932 . S
C63 U46 2.882 . S
C63 C57 1.428 . S
C63 O66 1.301 . S
C63 O67 1.282 . S
O64 U46 2.441 . S
O64 C50 1.249 . S
O65 U46 2.420 . S
O65 C50 1.202 . S
O66 U46 2.455 . S
O66 C63 1.301 . S
O67 U46 2.449 . S
O67 C63 1.282 . S
H68 C41 0.931 . S
H69 C43 0.929 . S
H70 C44 0.930 . S
H71 C45 0.931 . S
H72 C52 0.932 . S
H73 C53 0.930 . S
H74 C54 0.929 . S
H75 C56 0.930 . S
H76 C58 0.932 . S
H77 C59 0.929 . S
H78 C60 0.928 . S
H79 C62 0.932 . S
C80 C81 1.264 . S
C80 C85 1.479 . S
C80 C90 1.465 . S
C81 C80 1.264 . S
C81 C83 1.339 . S
C81 H108 0.931 . S
C82 C83 1.395 . S
C82 C84 1.320 . S
C83 C81 1.339 . S
C83 C82 1.395 . S
C83 H109 0.929 . S
C84 C82 1.320 . S
C84 C85 1.405 . S
C84 H110 0.930 . S
C85 C80 1.479 . S
C85 C84 1.405 . S
C85 H111 0.931 . S
U86 O87 2.454 . S
U86 O88 2.458 . S
U86 C89 2.984 . S
U86 C90 2.847 . S
U86 C103 2.882 . S
U86 O104 2.441 . S
U86 O105 2.420 . S
U86 O106 2.455 . S
U86 O107 2.449 . S
O87 U86 2.454 . S
O87 C89 1.353 . S
O88 U86 2.458 . S
O88 C89 1.286 . S
C89 U86 2.984 . S
C89 O87 1.353 . S
C89 O88 1.286 . S
C89 C91 1.363 . S
C90 C80 1.465 . S
C90 U86 2.847 . S
C90 O104 1.249 . S
C90 O105 1.202 . S
C91 C89 1.363 . S
C91 C93 1.408 . S
C91 C96 1.342 . S
C92 C93 1.310 . S
C92 C95 1.461 . S
C92 H112 0.932 . S
C93 C91 1.408 . S
C93 C92 1.310 . S
C93 H113 0.930 . S
C94 C95 1.474 . S
C94 C96 1.285 . S
C94 H114 0.929 . S
C95 C92 1.461 . S
C95 C94 1.474 . S
C96 C91 1.342 . S
C96 C94 1.285 . S
C96 H115 0.930 . S
C97 C100 1.424 . S
C97 C102 1.245 . S
C97 C103 1.428 . S
C98 C101 1.260 . S
C98 C102 1.477 . S
C98 H116 0.932 . S
C99 C100 1.384 . S
C99 C101 1.479 . S
C99 H117 0.929 . S
C100 C97 1.424 . S
C100 C99 1.384 . S
C100 H118 0.928 . S
C101 C98 1.260 . S
C101 C99 1.479 . S
C102 C97 1.245 . S
C102 C98 1.477 . S
C102 H119 0.932 . S
C103 U86 2.882 . S
C103 C97 1.428 . S
C103 O106 1.301 . S
C103 O107 1.282 . S
O104 U86 2.441 . S
O104 C90 1.249 . S
O105 U86 2.420 . S
O105 C90 1.202 . S
O106 U86 2.455 . S
O106 C103 1.301 . S
O107 U86 2.449 . S
O107 C103 1.282 . S
H108 C81 0.931 . S
H109 C83 0.929 . S
H110 C84 0.930 . S
H111 C85 0.931 . S
H112 C92 0.932 . S
H113 C93 0.930 . S
H114 C94 0.929 . S
H115 C96 0.930 . S
H116 C98 0.932 . S
H117 C99 0.929 . S
H118 C100 0.928 . S
H119 C102 0.932 . S
C120 C121 1.264 . S
C120 C125 1.479 . S
C120 C130 1.465 . S
C121 C120 1.264 . S
C121 C123 1.339 . S
C121 H148 0.931 . S
C122 C123 1.395 . S
C122 C124 1.320 . S
C123 C121 1.339 . S
C123 C122 1.395 . S
C123 H149 0.929 . S
C124 C122 1.320 . S
C124 C125 1.405 . S
C124 H150 0.930 . S
C125 C120 1.479 . S
C125 C124 1.405 . S
C125 H151 0.931 . S
U126 O127 2.454 . S
U126 O128 2.458 . S
U126 C129 2.984 . S
U126 C130 2.847 . S
U126 C143 2.882 . S
U126 O144 2.441 . S
U126 O145 2.420 . S
U126 O146 2.455 . S
U126 O147 2.449 . S
O127 U126 2.454 . S
O127 C129 1.353 . S
O128 U126 2.458 . S
O128 C129 1.286 . S
C129 U126 2.984 . S
C129 O127 1.353 . S
C129 O128 1.286 . S
C129 C131 1.363 . S
C130 C120 1.465 . S
C130 U126 2.847 . S
C130 O144 1.249 . S
C130 O145 1.202 . S
C131 C129 1.363 . S
C131 C133 1.408 . S
C131 C136 1.342 . S
C132 C133 1.310 . S
C132 C135 1.461 . S
C132 H152 0.932 . S
C133 C131 1.408 . S
C133 C132 1.310 . S
C133 H153 0.930 . S
C134 C135 1.474 . S
C134 C136 1.285 . S
C134 H154 0.929 . S
C135 C132 1.461 . S
C135 C134 1.474 . S
C136 C131 1.342 . S
C136 C134 1.285 . S
C136 H155 0.930 . S
C137 C140 1.424 . S
C137 C142 1.245 . S
C137 C143 1.428 . S
C138 C141 1.260 . S
C138 C142 1.477 . S
C138 H156 0.932 . S
C139 C140 1.384 . S
C139 C141 1.479 . S
C139 H157 0.929 . S
C140 C137 1.424 . S
C140 C139 1.384 . S
C140 H158 0.928 . S
C141 C138 1.260 . S
C141 C139 1.479 . S
C142 C137 1.245 . S
C142 C138 1.477 . S
C142 H159 0.932 . S
C143 U126 2.882 . S
C143 C137 1.428 . S
C143 O146 1.301 . S
C143 O147 1.282 . S
O144 U126 2.441 . S
O144 C130 1.249 . S
O145 U126 2.420 . S
O145 C130 1.202 . S
O146 U126 2.455 . S
O146 C143 1.301 . S
O147 U126 2.449 . S
O147 C143 1.282 . S
H148 C121 0.931 . S
H149 C123 0.929 . S
H150 C124 0.930 . S
H151 C125 0.931 . S
H152 C132 0.932 . S
H153 C133 0.930 . S
H154 C134 0.929 . S
H155 C136 0.930 . S
H156 C138 0.932 . S
H157 C139 0.929 . S
H158 C140 0.928 . S
H159 C142 0.932 . S
C160 C161 1.264 . S
C160 C165 1.479 . S
C160 C170 1.465 . S
C161 C160 1.264 . S
C161 C163 1.339 . S
C161 H188 0.931 . S
C162 C163 1.395 . S
C162 C164 1.320 . S
C163 C161 1.339 . S
C163 C162 1.395 . S
C163 H189 0.929 . S
C164 C162 1.320 . S
C164 C165 1.405 . S
C164 H190 0.930 . S
C165 C160 1.479 . S
C165 C164 1.405 . S
C165 H191 0.931 . S
U166 O167 2.454 . S
U166 O168 2.458 . S
U166 C169 2.984 . S
U166 C170 2.847 . S
U166 C183 2.882 . S
U166 O184 2.441 . S
U166 O185 2.420 . S
U166 O186 2.455 . S
U166 O187 2.449 . S
O167 U166 2.454 . S
O167 C169 1.353 . S
O168 U166 2.458 . S
O168 C169 1.286 . S
C169 U166 2.984 . S
C169 O167 1.353 . S
C169 O168 1.286 . S
C169 C171 1.363 . S
C170 C160 1.465 . S
C170 U166 2.847 . S
C170 O184 1.249 . S
C170 O185 1.202 . S
C171 C169 1.363 . S
C171 C173 1.408 . S
C171 C176 1.342 . S
C172 C173 1.310 . S
C172 C175 1.461 . S
C172 H192 0.932 . S
C173 C171 1.408 . S
C173 C172 1.310 . S
C173 H193 0.930 . S
C174 C175 1.474 . S
C174 C176 1.285 . S
C174 H194 0.929 . S
C175 C172 1.461 . S
C175 C174 1.474 . S
C176 C171 1.342 . S
C176 C174 1.285 . S
C176 H195 0.930 . S
C177 C180 1.424 . S
C177 C182 1.245 . S
C177 C183 1.428 . S
C178 C181 1.260 . S
C178 C182 1.477 . S
C178 H196 0.932 . S
C179 C180 1.384 . S
C179 C181 1.479 . S
C179 H197 0.929 . S
C180 C177 1.424 . S
C180 C179 1.384 . S
C180 H198 0.928 . S
C181 C178 1.260 . S
C181 C179 1.479 . S
C182 C177 1.245 . S
C182 C178 1.477 . S
C182 H199 0.932 . S
C183 U166 2.882 . S
C183 C177 1.428 . S
C183 O186 1.301 . S
C183 O187 1.282 . S
O184 U166 2.441 . S
O184 C170 1.249 . S
O185 U166 2.420 . S
O185 C170 1.202 . S
O186 U166 2.455 . S
O186 C183 1.301 . S
O187 U166 2.449 . S
O187 C183 1.282 . S
H188 C161 0.931 . S
H189 C163 0.929 . S
H190 C164 0.930 . S
H191 C165 0.931 . S
H192 C172 0.932 . S
H193 C173 0.930 . S
H194 C174 0.929 . S
H195 C176 0.930 . S
H196 C178 0.932 . S
H197 C179 0.929 . S
H198 C180 0.928 . S
H199 C182 0.932 . S
C200 C201 1.264 . S
C200 C205 1.479 . S
C200 C210 1.465 . S
C201 C200 1.264 . S
C201 C203 1.339 . S
C201 H228 0.931 . S
C202 C203 1.395 . S
C202 C204 1.320 . S
C203 C201 1.339 . S
C203 C202 1.395 . S
C203 H229 0.929 . S
C204 C202 1.320 . S
C204 C205 1.405 . S
C204 H230 0.930 . S
C205 C200 1.479 . S
C205 C204 1.405 . S
C205 H231 0.931 . S
U206 O207 2.454 . S
U206 O208 2.458 . S
U206 C209 2.984 . S
U206 C210 2.847 . S
U206 C223 2.882 . S
U206 O224 2.441 . S
U206 O225 2.420 . S
U206 O226 2.455 . S
U206 O227 2.449 . S
O207 U206 2.454 . S
O207 C209 1.353 . S
O208 U206 2.458 . S
O208 C209 1.286 . S
C209 U206 2.984 . S
C209 O207 1.353 . S
C209 O208 1.286 . S
C209 C211 1.363 . S
C210 C200 1.465 . S
C210 U206 2.847 . S
C210 O224 1.249 . S
C210 O225 1.202 . S
C211 C209 1.363 . S
C211 C213 1.408 . S
C211 C216 1.342 . S
C212 C213 1.310 . S
C212 C215 1.461 . S
C212 H232 0.932 . S
C213 C211 1.408 . S
C213 C212 1.310 . S
C213 H233 0.930 . S
C214 C215 1.474 . S
C214 C216 1.285 . S
C214 H234 0.929 . S
C215 C212 1.461 . S
C215 C214 1.474 . S
C216 C211 1.342 . S
C216 C214 1.285 . S
C216 H235 0.930 . S
C217 C220 1.424 . S
C217 C222 1.245 . S
C217 C223 1.428 . S
C218 C221 1.260 . S
C218 C222 1.477 . S
C218 H236 0.932 . S
C219 C220 1.384 . S
C219 C221 1.479 . S
C219 H237 0.929 . S
C220 C217 1.424 . S
C220 C219 1.384 . S
C220 H238 0.928 . S
C221 C218 1.260 . S
C221 C219 1.479 . S
C222 C217 1.245 . S
C222 C218 1.477 . S
C222 H239 0.932 . S
C223 U206 2.882 . S
C223 C217 1.428 . S
C223 O226 1.301 . S
C223 O227 1.282 . S
O224 U206 2.441 . S
O224 C210 1.249 . S
O225 U206 2.420 . S
O225 C210 1.202 . S
O226 U206 2.455 . S
O226 C223 1.301 . S
O227 U206 2.449 . S
O227 C223 1.282 . S
H228 C201 0.931 . S
H229 C203 0.929 . S
H230 C204 0.930 . S
H231 C205 0.931 . S
H232 C212 0.932 . S
H233 C213 0.930 . S
H234 C214 0.929 . S
H235 C216 0.930 . S
H236 C218 0.932 . S
H237 C219 0.929 . S
H238 C220 0.928 . S
H239 C222 0.932 . S
C240 C241 1.264 . S
C240 C245 1.479 . S
C240 C250 1.465 . S
C241 C240 1.264 . S
C241 C243 1.339 . S
C241 H268 0.931 . S
C242 C243 1.395 . S
C242 C244 1.320 . S
C243 C241 1.339 . S
C243 C242 1.395 . S
C243 H269 0.929 . S
C244 C242 1.320 . S
C244 C245 1.405 . S
C244 H270 0.930 . S
C245 C240 1.479 . S
C245 C244 1.405 . S
C245 H271 0.931 . S
U246 O247 2.454 . S
U246 O248 2.458 . S
U246 C249 2.984 . S
U246 C250 2.847 . S
U246 C263 2.882 . S
U246 O264 2.441 . S
U246 O265 2.420 . S
U246 O266 2.455 . S
U246 O267 2.449 . S
O247 U246 2.454 . S
O247 C249 1.353 . S
O248 U246 2.458 . S
O248 C249 1.286 . S
C249 U246 2.984 . S
C249 O247 1.353 . S
C249 O248 1.286 . S
C249 C251 1.363 . S
C250 C240 1.465 . S
C250 U246 2.847 . S
C250 O264 1.249 . S
C250 O265 1.202 . S
C251 C249 1.363 . S
C251 C253 1.408 . S
C251 C256 1.342 . S
C252 C253 1.310 . S
C252 C255 1.461 . S
C252 H272 0.932 . S
C253 C251 1.408 . S
C253 C252 1.310 . S
C253 H273 0.930 . S
C254 C255 1.474 . S
C254 C256 1.285 . S
C254 H274 0.929 . S
C255 C252 1.461 . S
C255 C254 1.474 . S
C256 C251 1.342 . S
C256 C254 1.285 . S
C256 H275 0.930 . S
C257 C260 1.424 . S
C257 C262 1.245 . S
C257 C263 1.428 . S
C258 C261 1.260 . S
C258 C262 1.477 . S
C258 H276 0.932 . S
C259 C260 1.384 . S
C259 C261 1.479 . S
C259 H277 0.929 . S
C260 C257 1.424 . S
C260 C259 1.384 . S
C260 H278 0.928 . S
C261 C258 1.260 . S
C261 C259 1.479 . S
C262 C257 1.245 . S
C262 C258 1.477 . S
C262 H279 0.932 . S
C263 U246 2.882 . S
C263 C257 1.428 . S
C263 O266 1.301 . S
C263 O267 1.282 . S
O264 U246 2.441 . S
O264 C250 1.249 . S
O265 U246 2.420 . S
O265 C250 1.202 . S
O266 U246 2.455 . S
O266 C263 1.301 . S
O267 U246 2.449 . S
O267 C263 1.282 . S
H268 C241 0.931 . S
H269 C243 0.929 . S
H270 C244 0.930 . S
H271 C245 0.931 . S
H272 C252 0.932 . S
H273 C253 0.930 . S
H274 C254 0.929 . S
H275 C256 0.930 . S
H276 C258 0.932 . S
H277 C259 0.929 . S
H278 C260 0.928 . S
H279 C262 0.932 . S
C280 C281 1.264 . S
C280 C285 1.479 . S
C280 C290 1.465 . S
C281 C280 1.264 . S
C281 C283 1.339 . S
C281 H308 0.931 . S
C282 C283 1.395 . S
C282 C284 1.320 . S
C283 C281 1.339 . S
C283 C282 1.395 . S
C283 H309 0.929 . S
C284 C282 1.320 . S
C284 C285 1.405 . S
C284 H310 0.930 . S
C285 C280 1.479 . S
C285 C284 1.405 . S
C285 H311 0.931 . S
U286 O287 2.454 . S
U286 O288 2.458 . S
U286 C289 2.984 . S
U286 C290 2.847 . S
U286 C303 2.882 . S
U286 O304 2.441 . S
U286 O305 2.420 . S
U286 O306 2.455 . S
U286 O307 2.449 . S
O287 U286 2.454 . S
O287 C289 1.353 . S
O288 U286 2.458 . S
O288 C289 1.286 . S
C289 U286 2.984 . S
C289 O287 1.353 . S
C289 O288 1.286 . S
C289 C291 1.363 . S
C290 C280 1.465 . S
C290 U286 2.847 . S
C290 O304 1.249 . S
C290 O305 1.202 . S
C291 C289 1.363 . S
C291 C293 1.408 . S
C291 C296 1.342 . S
C292 C293 1.310 . S
C292 C295 1.461 . S
C292 H312 0.932 . S
C293 C291 1.408 . S
C293 C292 1.310 . S
C293 H313 0.930 . S
C294 C295 1.474 . S
C294 C296 1.285 . S
C294 H314 0.929 . S
C295 C292 1.461 . S
C295 C294 1.474 . S
C296 C291 1.342 . S
C296 C294 1.285 . S
C296 H315 0.930 . S
C297 C300 1.424 . S
C297 C302 1.245 . S
C297 C303 1.428 . S
C298 C301 1.260 . S
C298 C302 1.477 . S
C298 H316 0.932 . S
C299 C300 1.384 . S
C299 C301 1.479 . S
C299 H317 0.929 . S
C300 C297 1.424 . S
C300 C299 1.384 . S
C300 H318 0.928 . S
C301 C298 1.260 . S
C301 C299 1.479 . S
C302 C297 1.245 . S
C302 C298 1.477 . S
C302 H319 0.932 . S
C303 U286 2.882 . S
C303 C297 1.428 . S
C303 O306 1.301 . S
C303 O307 1.282 . S
O304 U286 2.441 . S
O304 C290 1.249 . S
O305 U286 2.420 . S
O305 C290 1.202 . S
O306 U286 2.455 . S
O306 C303 1.301 . S
O307 U286 2.449 . S
O307 C303 1.282 . S
H308 C281 0.931 . S
H309 C283 0.929 . S
H310 C284 0.930 . S
H311 C285 0.931 . S
H312 C292 0.932 . S
H313 C293 0.930 . S
H314 C294 0.929 . S
H315 C296 0.930 . S
H316 C298 0.932 . S
H317 C299 0.929 . S
H318 C300 0.928 . S
H319 C302 0.932 . S
H320 C328 0.930 . S
H321 C331 0.930 . S
H322 C333 0.930 . S
H323 C334 0.970 . S
H324 C334 0.970 . S
H325 C336 0.930 . S
H326 C338 0.930 . S
H327 C340 0.930 . S
C328 H320 0.930 . S
C328 C329 1.382 . S
C328 C330 1.426 . S
C329 C328 1.382 . S
C329 C333 1.389 . S
C330 C328 1.426 . S
C330 C331 1.375 . S
C330 C334 1.532 1_655 S
C331 H321 0.930 . S
C331 C330 1.375 . S
C331 C332 1.416 . S
C332 C331 1.416 . S
C332 C333 1.371 . S
C333 H322 0.930 . S
C333 C329 1.389 . S
C333 C332 1.371 . S
C334 H323 0.970 . S
C334 H324 0.970 . S
C334 C330 1.532 1_455 S
C334 C335 1.499 . S
C335 C334 1.499 . S
C335 C336 1.370 . S
C335 C340 1.415 . S
C336 H325 0.930 . S
C336 C335 1.370 . S
C336 C337 1.407 . S
C337 C336 1.407 . S
C337 C338 1.365 . S
C338 H326 0.930 . S
C338 C337 1.365 . S
C338 C339 1.393 . S
C339 C338 1.393 . S
C339 C340 1.387 . S
C340 H327 0.930 . S
C340 C335 1.415 . S
C340 C339 1.387 . S
H341 C349 0.930 . S
H342 C352 0.930 . S
H343 C354 0.930 . S
H344 C355 0.970 . S
H345 C355 0.970 . S
H346 C357 0.930 . S
H347 C359 0.930 . S
H348 C361 0.930 . S
C349 H341 0.930 . S
C349 C350 1.382 . S
C349 C351 1.426 . S
C350 C349 1.382 . S
C350 C354 1.389 . S
C351 C349 1.426 . S
C351 C352 1.375 . S
C351 C355 1.532 . S
C352 H342 0.930 . S
C352 C351 1.375 . S
C352 C353 1.416 . S
C353 C352 1.416 . S
C353 C354 1.371 . S
C354 H343 0.930 . S
C354 C350 1.389 . S
C354 C353 1.371 . S
C355 H344 0.970 . S
C355 H345 0.970 . S
C355 C351 1.532 . S
C355 C356 1.499 1_455 S
C356 C355 1.499 1_655 S
C356 C357 1.370 . S
C356 C361 1.415 . S
C357 H346 0.930 . S
C357 C356 1.370 . S
C357 C358 1.407 . S
C358 C357 1.407 . S
C358 C359 1.365 . S
C359 H347 0.930 . S
C359 C358 1.365 . S
C359 C360 1.393 . S
C360 C359 1.393 . S
C360 C361 1.387 . S
C361 H348 0.930 . S
C361 C356 1.415 . S
C361 C360 1.387 . S
H362 C370 0.930 . S
H363 C373 0.930 . S
H364 C375 0.930 . S
H365 C376 0.970 . S
H366 C376 0.970 . S
H367 C378 0.930 . S
H368 C380 0.930 . S
H369 C382 0.930 . S
C370 H362 0.930 . S
C370 C371 1.382 . S
C370 C372 1.426 . S
C371 C370 1.382 . S
C371 C375 1.389 . S
C372 C370 1.426 . S
C372 C373 1.375 . S
C372 C376 1.532 . S
C373 H363 0.930 . S
C373 C372 1.375 . S
C373 C374 1.416 . S
C374 C373 1.416 . S
C374 C375 1.371 . S
C375 H364 0.930 . S
C375 C371 1.389 . S
C375 C374 1.371 . S
C376 H365 0.970 . S
C376 H366 0.970 . S
C376 C372 1.532 . S
C376 C377 1.499 1_545 S
C377 C376 1.499 1_565 S
C377 C378 1.370 . S
C377 C382 1.415 . S
C378 H367 0.930 . S
C378 C377 1.370 . S
C378 C379 1.407 . S
C379 C378 1.407 . S
C379 C380 1.365 . S
C380 H368 0.930 . S
C380 C379 1.365 . S
C380 C381 1.393 . S
C381 C380 1.393 . S
C381 C382 1.387 . S
C382 H369 0.930 . S
C382 C377 1.415 . S
C382 C381 1.387 . S
H383 C391 0.930 . S
H384 C394 0.930 . S
H385 C396 0.930 . S
H386 C397 0.970 1_556 S
H387 C397 0.970 . S
H388 C399 0.930 . S
H389 C401 0.930 . S
H390 C403 0.930 . S
C391 H383 0.930 . S
C391 C392 1.382 . S
C391 C393 1.426 1_556 S
C392 C391 1.382 . S
C392 C396 1.389 1_556 S
C393 C391 1.426 1_554 S
C393 C394 1.375 . S
C393 C397 1.532 . S
C394 H384 0.930 . S
C394 C393 1.375 . S
C394 C395 1.416 . S
C395 C394 1.416 . S
C395 C396 1.371 . S
C396 H385 0.930 . S
C396 C392 1.389 1_554 S
C396 C395 1.371 . S
C397 H386 0.970 1_554 S
C397 H387 0.970 . S
C397 C393 1.532 . S
C397 C398 1.499 . S
C398 C397 1.499 . S
C398 C399 1.370 1_554 S
C398 C403 1.415 . S
C399 H388 0.930 . S
C399 C398 1.370 1_556 S
C399 C400 1.407 . S
C400 C399 1.407 . S
C400 C401 1.365 1_556 S
C401 H389 0.930 . S
C401 C400 1.365 1_554 S
C401 C402 1.393 . S
C402 C401 1.393 . S
C402 C403 1.387 . S
C403 H390 0.930 . S
C403 C398 1.415 . S
C403 C402 1.387 . S
H404 C412 0.930 . S
H405 C415 0.930 . S
H406 C417 0.930 . S
H407 C418 0.970 . S
H408 C418 0.970 . S
H409 C420 0.930 . S
H410 C422 0.930 . S
H411 C424 0.930 . S
C412 H404 0.930 . S
C412 C413 1.382 . S
C412 C414 1.426 . S
C413 C412 1.382 . S
C413 C417 1.389 . S
C414 C412 1.426 . S
C414 C415 1.375 . S
C414 C418 1.532 . S
C415 H405 0.930 . S
C415 C414 1.375 . S
C415 C416 1.416 . S
C416 C415 1.416 . S
C416 C417 1.371 . S
C417 H406 0.930 . S
C417 C413 1.389 . S
C417 C416 1.371 . S
C418 H407 0.970 . S
C418 H408 0.970 . S
C418 C414 1.532 . S
C418 C419 1.499 1_545 S
C419 C418 1.499 1_565 S
C419 C420 1.370 . S
C419 C424 1.415 . S
C420 H409 0.930 . S
C420 C419 1.370 . S
C420 C421 1.407 . S
C421 C420 1.407 . S
C421 C422 1.365 . S
C422 H410 0.930 . S
C422 C421 1.365 . S
C422 C423 1.393 . S
C423 C422 1.393 . S
C423 C424 1.387 . S
C424 H411 0.930 . S
C424 C419 1.415 . S
C424 C423 1.387 . S
H425 C433 0.930 . S
H426 C436 0.930 . S
H427 C438 0.930 . S
H428 C439 0.970 . S
H429 C439 0.970 1_554 S
H430 C441 0.930 . S
H431 C443 0.930 . S
H432 C445 0.930 . S
C433 H425 0.930 . S
C433 C434 1.382 . S
C433 C435 1.426 . S
C434 C433 1.382 . S
C434 C438 1.389 . S
C435 C433 1.426 . S
C435 C436 1.375 1_556 S
C435 C439 1.532 . S
C436 H426 0.930 . S
C436 C435 1.375 1_554 S
C436 C437 1.416 . S
C437 C436 1.416 . S
C437 C438 1.371 1_554 S
C438 H427 0.930 . S
C438 C434 1.389 . S
C438 C437 1.371 1_556 S
C439 H428 0.970 . S
C439 H429 0.970 1_556 S
C439 C435 1.532 . S
C439 C440 1.499 1_556 S
C440 C439 1.499 1_554 S
C440 C441 1.368 1_554 S
C440 C445 1.417 . S
C441 H430 0.930 . S
C441 C440 1.368 1_556 S
C441 C442 1.407 . S
C442 C441 1.407 . S
C442 C443 1.365 1_556 S
C443 H431 0.930 . S
C443 C442 1.365 1_554 S
C443 C444 1.393 . S
C444 C443 1.393 . S
C444 C445 1.387 . S
C445 H432 0.930 . S
C445 C440 1.417 . S
C445 C444 1.387 . S
C446 C447 1.369 . S
C446 C448 1.419 . S
C446 H450 0.930 . S
C447 C446 1.369 . S
C447 C456 1.429 . S
C448 C446 1.419 . S
C448 C449 1.363 . S
C448 H451 0.929 . S
C449 C448 1.363 . S
C449 C455 1.428 . S
H450 C446 0.930 . S
H451 C448 0.929 . S
S452 N453 1.613 . S
S452 N454 1.610 . S
N453 S452 1.613 . S
N453 C456 1.350 . S
N454 S452 1.610 . S
N454 C455 1.351 . S
C455 C449 1.428 . S
C455 N454 1.351 . S
C455 C456 1.434 . S
C456 C447 1.429 . S
C456 N453 1.350 . S
C456 C455 1.434 . S
C457 C458 1.369 . S
C457 C459 1.419 . S
C457 H461 0.930 . S
C458 C457 1.369 . S
C458 C467 1.429 . S
C459 C457 1.419 . S
C459 C460 1.363 . S
C459 H462 0.929 . S
C460 C459 1.363 . S
C460 C466 1.428 . S
H461 C457 0.930 . S
H462 C459 0.929 . S
S463 N464 1.613 . S
S463 N465 1.610 . S
N464 S463 1.613 . S
N464 C467 1.350 . S
N465 S463 1.610 . S
N465 C466 1.351 . S
C466 C460 1.428 . S
C466 N465 1.351 . S
C466 C467 1.434 . S
C467 C458 1.429 . S
C467 N464 1.350 . S
C467 C466 1.434 . S
C468 C469 1.369 . S
C468 C470 1.419 . S
C468 H472 0.930 . S
C469 C468 1.369 . S
C469 C478 1.429 . S
C470 C468 1.419 . S
C470 C471 1.363 . S
C470 H473 0.929 . S
C471 C470 1.363 . S
C471 C477 1.428 . S
H472 C468 0.930 . S
H473 C470 0.929 . S
S474 N475 1.613 . S
S474 N476 1.610 . S
N475 S474 1.613 . S
N475 C478 1.350 . S
N476 S474 1.610 . S
N476 C477 1.351 . S
C477 C471 1.428 . S
C477 N476 1.351 . S
C477 C478 1.434 . S
C478 C469 1.429 . S
C478 N475 1.350 . S
C478 C477 1.434 . S
C479 C480 1.369 . S
C479 C481 1.419 . S
C479 H483 0.930 . S
C480 C479 1.369 . S
C480 C489 1.429 . S
C481 C479 1.419 . S
C481 C482 1.363 . S
C481 H484 0.929 . S
C482 C481 1.363 . S
C482 C488 1.428 . S
H483 C479 0.930 . S
H484 C481 0.929 . S
S485 N486 1.613 . S
S485 N487 1.610 . S
N486 S485 1.613 . S
N486 C489 1.350 . S
N487 S485 1.610 . S
N487 C488 1.351 . S
C488 C482 1.428 . S
C488 N487 1.351 . S
C488 C489 1.434 . S
C489 C480 1.429 . S
C489 N486 1.350 . S
C489 C488 1.434 . S
C490 C491 1.369 . S
C490 C492 1.419 . S
C490 H494 0.930 . S
C491 C490 1.369 . S
C491 C500 1.429 . S
C492 C490 1.419 . S
C492 C493 1.363 . S
C492 H495 0.929 . S
C493 C492 1.363 . S
C493 C499 1.428 . S
H494 C490 0.930 . S
H495 C492 0.929 . S
S496 N497 1.613 . S
S496 N498 1.610 . S
N497 S496 1.613 . S
N497 C500 1.350 . S
N498 S496 1.610 . S
N498 C499 1.351 . S
C499 C493 1.428 . S
C499 N498 1.351 . S
C499 C500 1.434 . S
C500 C491 1.429 . S
C500 N497 1.350 . S
C500 C499 1.434 . S
C501 C502 1.369 . S
C501 C503 1.419 . S
C501 H505 0.930 . S
C502 C501 1.369 . S
C502 C511 1.429 . S
C503 C501 1.419 . S
C503 C504 1.363 . S
C503 H506 0.929 . S
C504 C503 1.363 . S
C504 C510 1.428 . S
H505 C501 0.930 . S
H506 C503 0.929 . S
S507 N508 1.613 . S
S507 N509 1.610 . S
N508 S507 1.613 . S
N508 C511 1.350 . S
N509 S507 1.610 . S
N509 C510 1.351 . S
C510 C504 1.428 . S
C510 N509 1.351 . S
C510 C511 1.434 . S
C511 C502 1.429 . S
C511 N508 1.350 . S
C511 C510 1.434 . S
C512 C513 1.369 . S
C512 C514 1.419 . S
C512 H516 0.930 . S
C513 C512 1.369 . S
C513 C522 1.429 . S
C514 C512 1.419 . S
C514 C515 1.363 . S
C514 H517 0.929 . S
C515 C514 1.363 . S
C515 C521 1.428 . S
H516 C512 0.930 . S
H517 C514 0.929 . S
S518 N519 1.613 . S
S518 N520 1.610 . S
N519 S518 1.613 . S
N519 C522 1.350 . S
N520 S518 1.610 . S
N520 C521 1.351 . S
C521 C515 1.428 . S
C521 N520 1.351 . S
C521 C522 1.434 . S
C522 C513 1.429 . S
C522 N519 1.350 . S
C522 C521 1.434 . S
C523 C524 1.369 . S
C523 C525 1.419 . S
C523 H527 0.930 . S
C524 C523 1.369 . S
C524 C533 1.429 . S
C525 C523 1.419 . S
C525 C526 1.363 . S
C525 H528 0.929 . S
C526 C525 1.363 . S
C526 C532 1.428 . S
H527 C523 0.930 . S
H528 C525 0.929 . S
S529 N530 1.613 . S
S529 N531 1.610 . S
N530 S529 1.613 . S
N530 C533 1.350 . S
N531 S529 1.610 . S
N531 C532 1.351 . S
C532 C526 1.428 . S
C532 N531 1.351 . S
C532 C533 1.434 . S
C533 C524 1.429 . S
C533 N530 1.350 . S
C533 C532 1.434 . S
C534 C535 1.369 . S
C534 C536 1.419 . S
C534 H538 0.930 . S
C535 C534 1.369 . S
C535 C544 1.429 . S
C536 C534 1.419 . S
C536 C537 1.363 . S
C536 H539 0.929 . S
C537 C536 1.363 . S
C537 C543 1.428 . S
H538 C534 0.930 . S
H539 C536 0.929 . S
S540 N541 1.613 . S
S540 N542 1.610 . S
N541 S540 1.613 . S
N541 C544 1.350 . S
N542 S540 1.610 . S
N542 C543 1.351 . S
C543 C537 1.428 . S
C543 N542 1.351 . S
C543 C544 1.434 . S
C544 C535 1.429 . S
C544 N541 1.350 . S
C544 C543 1.434 . S
C545 C546 1.369 . S
C545 C547 1.419 . S
C545 H549 0.930 . S
C546 C545 1.369 . S
C546 C555 1.429 . S
C547 C545 1.419 . S
C547 C548 1.363 . S
C547 H550 0.929 . S
C548 C547 1.363 . S
C548 C554 1.428 . S
H549 C545 0.930 . S
H550 C547 0.929 . S
S551 N552 1.613 . S
S551 N553 1.610 . S
N552 S551 1.613 . S
N552 C555 1.350 . S
N553 S551 1.610 . S
N553 C554 1.351 . S
C554 C548 1.428 . S
C554 N553 1.351 . S
C554 C555 1.434 . S
C555 C546 1.429 . S
C555 N552 1.350 . S
C555 C554 1.434 . S
C556 C557 1.369 . S
C556 C558 1.419 . S
C556 H560 0.930 . S
C557 C556 1.369 . S
C557 C566 1.429 . S
C558 C556 1.419 . S
C558 C559 1.363 . S
C558 H561 0.929 . S
C559 C558 1.363 . S
C559 C565 1.428 . S
H560 C556 0.930 . S
H561 C558 0.929 . S
S562 N563 1.613 . S
S562 N564 1.610 . S
N563 S562 1.613 . S
N563 C566 1.350 . S
N564 S562 1.610 . S
N564 C565 1.351 . S
C565 C559 1.428 . S
C565 N564 1.351 . S
C565 C566 1.434 . S
C566 C557 1.429 . S
C566 N563 1.350 . S
C566 C565 1.434 . S
C567 C568 1.369 . S
C567 C569 1.419 . S
C567 H571 0.930 . S
C568 C567 1.369 . S
C568 C577 1.429 . S
C569 C567 1.419 . S
C569 C570 1.363 . S
C569 H572 0.929 . S
C570 C569 1.363 . S
C570 C576 1.428 . S
H571 C567 0.930 . S
H572 C569 0.929 . S
S573 N574 1.613 . S
S573 N575 1.610 . S
N574 S573 1.613 . S
N574 C577 1.350 . S
N575 S573 1.610 . S
N575 C576 1.351 . S
C576 C570 1.428 . S
C576 N575 1.351 . S
C576 C577 1.434 . S
C577 C568 1.429 . S
C577 N574 1.350 . S
C577 C576 1.434 . S
C578 C579 1.369 . S
C578 C580 1.419 . S
C578 H582 0.930 . S
C579 C578 1.369 . S
C579 C588 1.429 . S
C580 C578 1.419 . S
C580 C581 1.363 . S
C580 H583 0.929 . S
C581 C580 1.363 . S
C581 C587 1.428 . S
H582 C578 0.930 . S
H583 C580 0.929 . S
S584 N585 1.613 . S
S584 N586 1.610 . S
N585 S584 1.613 . S
N585 C588 1.350 . S
N586 S584 1.610 . S
N586 C587 1.351 . S
C587 C581 1.428 . S
C587 N586 1.351 . S
C587 C588 1.434 . S
C588 C579 1.429 . S
C588 N585 1.350 . S
C588 C587 1.434 . S
C589 C590 1.369 . S
C589 C591 1.419 . S
C589 H593 0.930 . S
C590 C589 1.369 . S
C590 C599 1.429 . S
C591 C589 1.419 . S
C591 C592 1.363 . S
C591 H594 0.929 . S
C592 C591 1.363 . S
C592 C598 1.428 . S
H593 C589 0.930 . S
H594 C591 0.929 . S
S595 N596 1.613 . S
S595 N597 1.610 . S
N596 S595 1.613 . S
N596 C599 1.350 . S
N597 S595 1.610 . S
N597 C598 1.351 . S
C598 C592 1.428 . S
C598 N597 1.351 . S
C598 C599 1.434 . S
C599 C590 1.429 . S
C599 N596 1.350 . S
C599 C598 1.434 . S
C600 C601 1.369 . S
C600 C602 1.419 . S
C600 H604 0.930 . S
C601 C600 1.369 . S
C601 C610 1.429 . S
C602 C600 1.419 . S
C602 C603 1.363 . S
C602 H605 0.929 . S
C603 C602 1.363 . S
C603 C609 1.428 . S
H604 C600 0.930 . S
H605 C602 0.929 . S
S606 N607 1.613 . S
S606 N608 1.610 . S
N607 S606 1.613 . S
N607 C610 1.350 . S
N608 S606 1.610 . S
N608 C609 1.351 . S
C609 C603 1.428 . S
C609 N608 1.351 . S
C609 C610 1.434 . S
C610 C601 1.429 . S
C610 N607 1.350 . S
C610 C609 1.434 . S
C611 C612 1.369 . S
C611 C613 1.419 . S
C611 H615 0.930 . S
C612 C611 1.369 . S
C612 C621 1.429 . S
C613 C611 1.419 . S
C613 C614 1.363 . S
C613 H616 0.929 . S
C614 C613 1.363 . S
C614 C620 1.428 . S
H615 C611 0.930 . S
H616 C613 0.929 . S
S617 N618 1.613 . S
S617 N619 1.610 . S
N618 S617 1.613 . S
N618 C621 1.350 . S
N619 S617 1.610 . S
N619 C620 1.351 . S
C620 C614 1.428 . S
C620 N619 1.351 . S
C620 C621 1.434 . S
C621 C612 1.429 . S
C621 N618 1.350 . S
C621 C620 1.434 . S
C622 C623 1.369 . S
C622 C624 1.419 . S
C622 H626 0.930 . S
C623 C622 1.369 . S
C623 C632 1.429 . S
C624 C622 1.419 . S
C624 C625 1.363 . S
C624 H627 0.929 . S
C625 C624 1.363 . S
C625 C631 1.428 . S
H626 C622 0.930 . S
H627 C624 0.929 . S
S628 N629 1.613 . S
S628 N630 1.610 . S
N629 S628 1.613 . S
N629 C632 1.350 . S
N630 S628 1.610 . S
N630 C631 1.351 . S
C631 C625 1.428 . S
C631 N630 1.351 . S
C631 C632 1.434 . S
C632 C623 1.429 . S
C632 N629 1.350 . S
C632 C631 1.434 . S
C633 C634 1.369 . S
C633 C635 1.419 . S
C633 H637 0.930 . S
C634 C633 1.369 . S
C634 C643 1.429 . S
C635 C633 1.419 . S
C635 C636 1.363 . S
C635 H638 0.929 . S
C636 C635 1.363 . S
C636 C642 1.428 . S
H637 C633 0.930 . S
H638 C635 0.929 . S
S639 N640 1.613 . S
S639 N641 1.610 . S
N640 S639 1.613 . S
N640 C643 1.350 . S
N641 S639 1.610 . S
N641 C642 1.351 . S
C642 C636 1.428 . S
C642 N641 1.351 . S
C642 C643 1.434 . S
C643 C634 1.429 . S
C643 N640 1.350 . S
C643 C642 1.434 . S
C644 C645 1.369 . S
C644 C646 1.419 . S
C644 H648 0.930 . S
C645 C644 1.369 . S
C645 C654 1.429 . S
C646 C644 1.419 . S
C646 C647 1.363 . S
C646 H649 0.929 . S
C647 C646 1.363 . S
C647 C653 1.428 . S
H648 C644 0.930 . S
H649 C646 0.929 . S
S650 N651 1.613 . S
S650 N652 1.610 . S
N651 S650 1.613 . S
N651 C654 1.350 . S
N652 S650 1.610 . S
N652 C653 1.351 . S
C653 C647 1.428 . S
C653 N652 1.351 . S
C653 C654 1.434 . S
C654 C645 1.429 . S
C654 N651 1.350 . S
C654 C653 1.434 . S
C655 C656 1.369 . S
C655 C657 1.419 . S
C655 H659 0.930 . S
C656 C655 1.369 . S
C656 C665 1.429 . S
C657 C655 1.419 . S
C657 C658 1.363 . S
C657 H660 0.929 . S
C658 C657 1.363 . S
C658 C664 1.428 . S
H659 C655 0.930 . S
H660 C657 0.929 . S
S661 N662 1.613 . S
S661 N663 1.610 . S
N662 S661 1.613 . S
N662 C665 1.350 . S
N663 S661 1.610 . S
N663 C664 1.351 . S
C664 C658 1.428 . S
C664 N663 1.351 . S
C664 C665 1.434 . S
C665 C656 1.429 . S
C665 N662 1.350 . S
C665 C664 1.434 . S
C666 C667 1.369 . S
C666 C668 1.419 . S
C666 H670 0.930 . S
C667 C666 1.369 . S
C667 C676 1.429 . S
C668 C666 1.419 . S
C668 C669 1.363 . S
C668 H671 0.929 . S
C669 C668 1.363 . S
C669 C675 1.428 . S
H670 C666 0.930 . S
H671 C668 0.929 . S
S672 N673 1.613 . S
S672 N674 1.610 . S
N673 S672 1.613 . S
N673 C676 1.350 . S
N674 S672 1.610 . S
N674 C675 1.351 . S
C675 C669 1.428 . S
C675 N674 1.351 . S
C675 C676 1.434 . S
C676 C667 1.429 . S
C676 N673 1.350 . S
C676 C675 1.434 . S
C677 C678 1.369 . S
C677 C679 1.419 . S
C677 H681 0.930 . S
C678 C677 1.369 . S
C678 C687 1.429 . S
C679 C677 1.419 . S
C679 C680 1.363 . S
C679 H682 0.929 . S
C680 C679 1.363 . S
C680 C686 1.428 . S
H681 C677 0.930 . S
H682 C679 0.929 . S
S683 N684 1.613 . S
S683 N685 1.610 . S
N684 S683 1.613 . S
N684 C687 1.350 . S
N685 S683 1.610 . S
N685 C686 1.351 . S
C686 C680 1.428 . S
C686 N685 1.351 . S
C686 C687 1.434 . S
C687 C678 1.429 . S
C687 N684 1.350 . S
C687 C686 1.434 . S
C688 C689 1.369 . S
C688 C690 1.419 . S
C688 H692 0.930 . S
C689 C688 1.369 . S
C689 C698 1.429 . S
C690 C688 1.419 . S
C690 C691 1.363 . S
C690 H693 0.929 . S
C691 C690 1.363 . S
C691 C697 1.428 . S
H692 C688 0.930 . S
H693 C690 0.929 . S
S694 N695 1.613 . S
S694 N696 1.610 . S
N695 S694 1.613 . S
N695 C698 1.350 . S
N696 S694 1.610 . S
N696 C697 1.351 . S
C697 C691 1.428 . S
C697 N696 1.351 . S
C697 C698 1.434 . S
C698 C689 1.429 . S
C698 N695 1.350 . S
C698 C697 1.434 . S
C699 C700 1.369 . S
C699 C701 1.419 . S
C699 H703 0.930 . S
C700 C699 1.369 . S
C700 C709 1.429 . S
C701 C699 1.419 . S
C701 C702 1.363 . S
C701 H704 0.929 . S
C702 C701 1.363 . S
C702 C708 1.428 . S
H703 C699 0.930 . S
H704 C701 0.929 . S
S705 N706 1.613 . S
S705 N707 1.610 . S
N706 S705 1.613 . S
N706 C709 1.350 . S
N707 S705 1.610 . S
N707 C708 1.351 . S
C708 C702 1.428 . S
C708 N707 1.351 . S
C708 C709 1.434 . S
C709 C700 1.429 . S
C709 N706 1.350 . S
C709 C708 1.434 . S
C449 C337 1.568 . S
C447 C15 1.657 . S
C460 C350 1.440 . S
C458 C55 1.612 . S
C471 C332 1.612 . S
C469 C101 1.643 . S
C482 C360 1.482 . S
C480 C141 1.650 . S
C493 C371 1.427 . S
C491 C2 1.515 . S
C504 C392 1.509 . S
C502 C61 1.588 . S
C513 C95 1.576 . S
C515 C421 1.459 . S
C526 C442 1.552 . S
C524 C135 1.611 . S
C537 C381 1.435 . S
C535 C42 1.511 . S
C546 C82 1.611 . S
C548 C402 1.550 . S
C559 C416 1.447 . S
C557 C122 1.571 . S
C570 C437 1.582 . S
C568 C21 1.615 . S
C579 C162 1.679 . S
C581 C358 1.461 . S
C592 C329 1.652 . S
C590 C221 1.748 . S
C601 C255 1.668 . S
C603 C353 1.428 . S
C612 C282 1.651 . S
C614 C339 1.624 . S
C625 C423 1.497 . S
C623 C181 1.598 . S
C636 C444 1.621 . S
C634 C202 1.667 . S
C647 C374 1.399 . S
C645 C242 1.564 . S
C656 C301 1.648 . S
C658 C395 1.511 . S
C669 C413 1.492 . S
C667 C215 1.596 . S
C680 C434 1.609 . S
C678 C261 1.650 . S
C691 C379 1.416 . S
C689 C295 1.543 . S
C700 C175 1.633 . S
C702 C400 1.504 . S
