# Generated by pormake.
# Topology pth, (4,4)-cn, num edge types: 1
# Building blocks:
#     Node 0, Type 0, BuildingBlock: TATPOV_clean_sbu_0, # of connection points: 4
#     Node 1, Type 0, BuildingBlock: TATPOV_clean_sbu_0, # of connection points: 4
#     Node 2, Type 0, BuildingBlock: TATPOV_clean_sbu_0, # of connection points: 4
#     Node 3, Type 1, BuildingBlock: MUDLON_clean_linker_0, # of connection points: 4
#     Node 4, Type 1, BuildingBlock: MUDLON_clean_linker_0, # of connection points: 4
#     Node 5, Type 1, BuildingBlock: MUDLON_clean_linker_0, # of connection points: 4
#     Edge 6, Type (0, 1), BuildingBlock: UVAHIK_clean_linker_0, # of connection points: 2
#     Edge 7, Type (0, 1), BuildingBlock: UVAHIK_clean_linker_0, # of connection points: 2
#     Edge 8, Type (0, 1), BuildingBlock: UVAHIK_clean_linker_0, # of connection points: 2
#     Edge 9, Type (0, 1), BuildingBlock: UVAHIK_clean_linker_0, # of connection points: 2
#     Edge 10, Type (0, 1), BuildingBlock: UVAHIK_clean_linker_0, # of connection points: 2
#     Edge 11, Type (0, 1), BuildingBlock: UVAHIK_clean_linker_0, # of connection points: 2
#     Edge 12, Type (0, 1), BuildingBlock: UVAHIK_clean_linker_0, # of connection points: 2
#     Edge 13, Type (0, 1), BuildingBlock: UVAHIK_clean_linker_0, # of connection points: 2
#     Edge 14, Type (0, 1), BuildingBlock: UVAHIK_clean_linker_0, # of connection points: 2
#     Edge 15, Type (0, 1), BuildingBlock: UVAHIK_clean_linker_0, # of connection points: 2
#     Edge 16, Type (0, 1), BuildingBlock: UVAHIK_clean_linker_0, # of connection points: 2
#     Edge 17, Type (0, 1), BuildingBlock: UVAHIK_clean_linker_0, # of connection points: 2
# Relax obj value: 0.052
# Max RMSD: 0.165
# Mean RMSD: 0.112
data_MOF--net-pth--node1-TATPOV_clean_sbu_0--node2-MUDLON_clean_linker_0--edge1-UVAHIK_clean_linker_0
_symmetry_space_group_name_H-M    P1
_symmetry_Int_Tables_number       1
_symmetry_cell_setting            triclinic
loop_
_symmetry_equiv_pos_as_xyz
'x, y, z'
_cell_length_a     41.118341
_cell_length_b     40.812917
_cell_length_c     80.853986
_cell_angle_alpha  92.402099
_cell_angle_beta   92.209551
_cell_angle_gamma 120.83253
loop_
_atom_site_label
_atom_site_type_symbol
_atom_site_fract_x
_atom_site_fract_y
_atom_site_fract_z
_atom_type_partial_charge
Zn0 Zn 0.11581 -0.00155 0.0194 0.0
Zn1 Zn 0.09296 0.04326 0.03427 0.0
O2 O 0.09875 0.01493 0.05347 0.0
O3 O 0.12035 0.9806 0.04189 0.0
O4 O 0.07974 0.07973 0.04526 0.0
O5 O 0.16071 0.04429 0.01087 0.0
O6 O 0.14118 0.07999 0.02278 0.0
C7 C 0.11014 0.99131 0.05459 0.0
C8 C 0.03998 0.9806 0.00798 0.0
O9 O 0.04663 0.00777 0.01852 0.0
O10 O 0.06488 0.97157 0.00589 0.0
C11 C 0.05195 0.06921 0.05433 0.0
O12 O 0.03022 0.03272 0.05671 0.0
C13 C 0.16482 0.07686 0.01412 0.0
Zn14 Zn 0.0952 0.09029 0.34207 0.0
Zn15 Zn 0.03486 0.06568 0.36053 0.0
O16 O 0.07724 0.07312 0.37755 0.0
O17 O 0.1273 0.09639 0.36271 0.0
O18 O 0.99016 0.05253 0.37406 0.0
O19 O 0.09128 0.13498 0.33529 0.0
O20 O 0.04192 0.11427 0.35036 0.0
C21 C 0.1126 0.08613 0.37643 0.0
C22 C 0.03322 0.01322 0.33212 0.0
O23 O 0.01699 0.01928 0.34397 0.0
O24 O 0.06624 0.03898 0.32883 0.0
C25 C 0.96138 0.01963 0.37565 0.0
O26 O 0.95953 0.98918 0.36849 0.0
C27 C 0.06486 0.13859 0.34087 0.0
Zn28 Zn 0.04647 0.94147 0.71981 0.0
Zn29 Zn 0.01279 0.96564 0.69862 0.0
O30 O 0.04684 0.95561 0.68371 0.0
O31 O 0.07669 0.93871 0.70144 0.0
O32 O 0.98323 0.97955 0.68272 0.0
O33 O 0.99667 0.89536 0.72424 0.0
O34 O 0.96931 0.91865 0.70867 0.0
C35 C 0.07134 0.94598 0.68686 0.0
C36 C 0.06396 0.01841 0.72837 0.0
O37 O 0.04428 0.01313 0.71488 0.0
O38 O 0.06749 0.99146 0.73358 0.0
C39 C 0.98806 0.01277 0.68175 0.0
O40 O 0.01498 0.04153 0.69129 0.0
C41 C 0.96689 0.89328 0.71806 0.0
H42 H 0.87297 0.61774 0.20522 0.0
N43 N 0.92885 0.60625 0.19802 0.0
H44 H 0.8718 0.65466 0.22952 0.0
H45 H 0.97134 0.62065 0.22781 0.0
H46 H 0.96996 0.65691 0.25198 0.0
H47 H 0.99646 0.67364 0.2057 0.0
H48 H 0.02647 0.72803 0.1887 0.0
H49 H 0.90414 0.61279 0.16812 0.0
H50 H 0.93385 0.6683 0.15118 0.0
H51 H 0.88637 0.53167 0.18951 0.0
H52 H 0.00183 0.62075 0.20366 0.0
H53 H 0.90741 0.48563 0.18568 0.0
H54 H 0.02252 0.57533 0.20063 0.0
H55 H 0.97369 0.36075 0.20278 0.0
H56 H 0.9758 0.33653 0.22957 0.0
H57 H 0.08335 0.4397 0.24344 0.0
H58 H 0.08128 0.46351 0.2163 0.0
H59 H 0.08496 0.42865 0.1772 0.0
H60 H 0.08126 0.38408 0.155 0.0
H61 H 0.95884 0.32778 0.15193 0.0
H62 H 0.96295 0.37259 0.17424 0.0
H63 H 0.95619 0.40898 0.19926 0.0
H64 H 0.93094 0.45151 0.20023 0.0
H65 H 0.03305 0.53962 0.18023 0.0
N66 N 0.02815 0.42851 0.19153 0.0
H67 H 0.05888 0.49743 0.18024 0.0
C68 C 0.92253 0.61692 0.21434 0.0
C69 C 0.89333 0.62491 0.21567 0.0
C70 C 0.89268 0.64598 0.22959 0.0
C71 C 0.92132 0.65936 0.24249 0.0
C72 C 0.94797 0.6476 0.24204 0.0
C73 C 0.94867 0.62662 0.22811 0.0
C74 C 0.94814 0.63857 0.18803 0.0
C75 C 0.98282 0.6716 0.19369 0.0
C76 C -3e-05 0.70289 0.18401 0.0
C77 C 0.98248 0.70222 0.16866 0.0
C78 C 0.94779 0.66946 0.16302 0.0
C79 C 0.93095 0.6378 0.1726 0.0
C80 C 0.94217 0.57967 0.19694 0.0
C81 C 0.91609 0.5412 0.19198 0.0
C82 C 0.92819 0.51496 0.18984 0.0
C83 C 0.96677 0.52678 0.1927 0.0
C84 C 0.99275 0.56529 0.1979 0.0
C85 C 0.98073 0.59144 0.19984 0.0
C86 C 0.02766 0.41391 0.20749 0.0
C87 C 0.99767 0.37828 0.21156 0.0
C88 C 0.99873 0.36459 0.22698 0.0
C89 C 0.02975 0.38621 0.23864 0.0
C90 C 0.05926 0.42221 0.23466 0.0
C91 C 0.05813 0.43588 0.21923 0.0
C92 C 0.02441 0.40393 0.17737 0.0
C93 C 0.05741 0.40701 0.17155 0.0
C94 C 0.05519 0.38162 0.15883 0.0
C95 C 0.01973 0.35237 0.1517 0.0
C96 C 0.98655 0.3498 0.15729 0.0
C97 C 0.98885 0.37548 0.16999 0.0
C98 C 0.00991 0.45046 0.18999 0.0
C99 C 0.97311 0.43736 0.19504 0.0
C100 C 0.95853 0.4617 0.19546 0.0
C101 C 0.98022 0.49933 0.19061 0.0
C102 C 0.01598 0.51127 0.18454 0.0
C103 C 0.03068 0.48713 0.18434 0.0
H104 H 0.75324 0.128 0.54007 0.0
N105 N 0.6824 0.08009 0.52819 0.0
H106 H 0.78821 0.11939 0.56294 0.0
H107 H 0.6532 0.02063 0.54831 0.0
H108 H 0.68766 0.01193 0.5715 0.0
H109 H 0.67438 0.01031 0.51993 0.0
H110 H 0.69396 0.99268 0.4947 0.0
H111 H 0.70163 0.11791 0.5009 0.0
H112 H 0.71869 0.09944 0.475 0.0
H113 H 0.67182 0.1332 0.54234 0.0
H114 H 0.6114 0.0187 0.51907 0.0
H115 H 0.61201 0.1309 0.54551 0.0
H116 H 0.55127 0.01683 0.52113 0.0
H117 H 0.44142 0.1064 0.57048 0.0
H118 H 0.39251 0.07604 0.59036 0.0
H119 H 0.33358 0.97396 0.55719 0.0
H120 H 0.38262 0.00398 0.53763 0.0
H121 H 0.41023 0.02901 0.51244 0.0
H122 H 0.36751 0.02883 0.4905 0.0
H123 H 0.3861 0.13628 0.51226 0.0
H124 H 0.42666 0.13461 0.53468 0.0
H125 H 0.50778 0.13565 0.53318 0.0
H126 H 0.56556 0.1341 0.5297 0.0
H127 H 0.50522 0.01376 0.53848 0.0
N128 N 0.44039 0.07907 0.53994 0.0
H129 H 0.44705 0.01516 0.5408 0.0
C130 C 0.70081 0.07514 0.54257 0.0
C131 C 0.73875 0.10284 0.54704 0.0
C132 C 0.75855 0.09791 0.56015 0.0
C133 C 0.74071 0.06499 0.56909 0.0
C134 C 0.70232 0.03743 0.56477 0.0
C135 C 0.6825 0.04246 0.55161 0.0
C136 C 0.68773 0.06609 0.51247 0.0
C137 C 0.684 0.02992 0.51019 0.0
C138 C 0.6948 0.01964 0.4956 0.0
C139 C 0.70873 0.04494 0.48286 0.0
C140 C 0.70934 0.07972 0.48472 0.0
C141 C 0.69926 0.09025 0.49943 0.0
C142 C 0.64614 0.07654 0.53028 0.0
C143 C 0.6455 0.10765 0.53781 0.0
C144 C 0.61124 0.10635 0.53942 0.0
C145 C 0.57664 0.07396 0.53325 0.0
C146 C 0.57723 0.04221 0.52608 0.0
C147 C 0.61166 0.04333 0.52475 0.0
C148 C 0.41561 0.05778 0.55254 0.0
C149 C 0.41852 0.0771 0.56776 0.0
C150 C 0.39061 0.05976 0.57905 0.0
C151 C 0.35911 0.02286 0.57517 0.0
C152 C 0.35737 0.00262 0.56036 0.0
C153 C 0.38549 0.0198 0.54919 0.0
C154 C 0.42103 0.08161 0.52529 0.0
C155 C 0.40517 0.05255 0.51238 0.0
C156 C 0.38094 0.05268 0.49978 0.0
C157 C 0.3727 0.08221 0.49974 0.0
C158 C 0.39079 0.11247 0.51214 0.0
C159 C 0.41442 0.11194 0.52483 0.0
C160 C 0.47325 0.07591 0.53751 0.0
C161 C 0.50706 0.10892 0.53423 0.0
C162 C 0.54016 0.10798 0.53243 0.0
C163 C 0.54046 0.07395 0.53416 0.0
C164 C 0.50617 0.04047 0.53701 0.0
C165 C 0.47277 0.04132 0.5385 0.0
H166 H 0.67317 0.75787 0.86545 0.0
N167 N 0.61513 0.6846 0.86483 0.0
H168 H 0.71927 0.79583 0.88814 0.0
H169 H 0.61289 0.66643 0.89775 0.0
H170 H 0.65838 0.70517 0.92058 0.0
H171 H 0.6793 0.68215 0.85964 0.0
H172 H 0.70988 0.6906 0.83373 0.0
H173 H 0.59274 0.69689 0.83553 0.0
H174 H 0.62293 0.70469 0.80923 0.0
H175 H 0.54002 0.64696 0.85987 0.0
H176 H 0.63333 0.63125 0.87334 0.0
H177 H 0.49627 0.57766 0.85865 0.0
H178 H 0.58994 0.56221 0.87239 0.0
H179 H 0.37307 0.38815 0.86855 0.0
H180 H 0.34442 0.35414 0.89281 0.0
H181 H 0.43816 0.33592 0.90152 0.0
H182 H 0.46734 0.37108 0.87719 0.0
H183 H 0.43234 0.34596 0.83545 0.0
H184 H 0.38599 0.31413 0.81171 0.0
H185 H 0.34571 0.39228 0.81981 0.0
H186 H 0.39199 0.4238 0.84354 0.0
H187 H 0.42427 0.45344 0.87106 0.0
H188 H 0.46724 0.52233 0.87506 0.0
H189 H 0.5534 0.51127 0.85086 0.0
N190 N 0.43996 0.40139 0.85644 0.0
H191 H 0.51031 0.44187 0.84727 0.0
C192 C 0.64088 0.70753 0.87914 0.0
C193 C 0.66991 0.74554 0.87731 0.0
C194 C 0.69607 0.76772 0.89048 0.0
C195 C 0.69317 0.75331 0.90618 0.0
C196 C 0.66236 0.71665 0.9085 0.0
C197 C 0.63628 0.69423 0.89525 0.0
C198 C 0.63376 0.68921 0.84954 0.0
C199 C 0.66656 0.6867 0.84869 0.0
C200 C 0.68392 0.69131 0.8338 0.0
C201 C 0.66877 0.69816 0.81937 0.0
C202 C 0.63554 0.69986 0.82016 0.0
C203 C 0.61824 0.69539 0.83513 0.0
C204 C 0.58978 0.64433 0.8667 0.0
C205 C 0.55086 0.62857 0.86291 0.0
C206 C 0.52599 0.58902 0.86222 0.0
C207 C 0.5397 0.56442 0.8653 0.0
C208 C 0.5786 0.58034 0.86965 0.0
C209 C 0.60344 0.61986 0.87028 0.0
C210 C 0.42248 0.38207 0.87097 0.0
C211 C 0.38768 0.37707 0.87563 0.0
C212 C 0.37114 0.35735 0.88951 0.0
C213 C 0.38887 0.34207 0.89904 0.0
C214 C 0.42395 0.34763 0.89453 0.0
C215 C 0.44054 0.36747 0.88062 0.0
C216 C 0.41563 0.38701 0.84134 0.0
C217 C 0.414 0.35664 0.83187 0.0
C218 C 0.38763 0.33867 0.81828 0.0
C219 C 0.36212 0.35068 0.81391 0.0
C220 C 0.36479 0.38221 0.82297 0.0
C221 C 0.39139 0.40034 0.83653 0.0
C222 C 0.46422 0.44234 0.85888 0.0
C223 C 0.45237 0.46561 0.86666 0.0
C224 C 0.47697 0.50517 0.86888 0.0
C225 C 0.51379 0.52229 0.86334 0.0
C226 C 0.52546 0.49893 0.85553 0.0
C227 C 0.50085 0.45938 0.85334 0.0
C228 C 0.01613 0.08726 0.07351 0.0
C229 C 0.04509 0.09808 0.06253 0.0
C230 C 0.01081 0.11484 0.08173 0.0
C231 C 0.06251 0.21775 0.095 0.0
H232 H 0.96232 0.20002 0.1025 0.0
C233 C 0.04356 0.33497 0.12668 0.0
C234 C 0.01771 0.32363 0.13914 0.0
C235 C 0.04439 0.30771 0.11595 0.0
C236 C 0.99048 0.20528 0.10059 0.0
H237 H 0.09048 0.14633 0.05123 0.0
H238 H 0.08094 0.19423 0.0654 0.0
H239 H 0.96859 0.15172 0.08643 0.0
H240 H 0.97172 0.27472 0.14978 0.0
H241 H 0.97322 0.22709 0.13108 0.0
H242 H 0.08449 0.27097 0.10928 0.0
C243 C 0.06274 0.16452 0.06789 0.0
C244 C 0.99408 0.1776 0.0914 0.0
C245 C 0.06808 0.13699 0.05969 0.0
C246 C 0.9917 0.28441 0.1402 0.0
C247 C 0.99258 0.25711 0.12948 0.0
C248 C 0.05893 0.24536 0.10416 0.0
C249 C 0.03432 0.15385 0.07914 0.0
C250 C 0.03016 0.18348 0.08854 0.0
C251 C 0.01946 0.26842 0.11745 0.0
C252 C 0.02289 0.23945 0.10712 0.0
H253 H 0.99792 0.05753 0.07597 0.0
H254 H 0.9889 0.10569 0.09044 0.0
H255 H 0.09073 0.22292 0.09331 0.0
H256 H 0.06353 0.36499 0.12536 0.0
H257 H 0.06492 0.31743 0.1066 0.0
C258 C 0.89738 0.98054 0.38713 0.0
C259 C 0.92943 0.01639 0.38479 0.0
C260 C 0.867 0.97811 0.39543 0.0
C261 C 0.82454 0.03586 0.40745 0.0
H262 H 0.78349 0.96799 0.44301 0.0
C263 C 0.75819 0.06677 0.46206 0.0
C264 C 0.72571 0.03678 0.46845 0.0
C265 C 0.77625 0.05941 0.44946 0.0
C266 C 0.7941 0.98654 0.43289 0.0
H267 H 0.95469 0.07775 0.38942 0.0
H268 H 0.9022 0.07347 0.40388 0.0
H269 H 0.82854 0.96379 0.42544 0.0
H270 H 0.68627 0.97537 0.4661 0.0
H271 H 0.71878 0.96248 0.44431 0.0
H272 H 0.79137 0.05965 0.41529 0.0
C273 C 0.90017 0.04722 0.39913 0.0
C274 C 0.81991 0.98417 0.42285 0.0
C275 C 0.93047 0.04965 0.39096 0.0
C276 C 0.71148 -0.00085 0.46166 0.0
C277 C 0.72996 0.99172 0.44914 0.0
C278 C 0.7989 0.03829 0.41749 0.0
C279 C 0.868 0.01149 0.4014 0.0
C280 C 0.83635 0.00971 0.41038 0.0
C281 C 0.76268 0.02182 0.443 0.0
C282 C 0.78437 0.01452 0.43065 0.0
H283 H 0.89569 0.95437 0.38252 0.0
H284 H 0.84255 0.95017 0.39699 0.0
H285 H 0.83603 0.05531 0.39769 0.0
H286 H 0.77073 0.09599 0.4672 0.0
H287 H 0.80185 0.08313 0.44522 0.0
C288 C 0.89812 0.86749 0.72217 0.0
C289 C 0.92953 0.86258 0.72267 0.0
C290 C 0.86436 0.84076 0.72876 0.0
C291 C 0.83291 0.76916 0.76 0.0
H292 H 0.73338 0.75139 0.74633 0.0
C293 C 0.70697 0.68548 0.79937 0.0
C294 C 0.68906 0.70574 0.80389 0.0
C295 C 0.73061 0.69632 0.78622 0.0
C296 C 0.761 0.75596 0.75022 0.0
H297 H 0.9493 0.82437 0.7291 0.0
H298 H 0.89008 0.77705 0.73998 0.0
H299 H 0.78602 0.78523 0.72863 0.0
H300 H 0.68026 0.75187 0.79748 0.0
H301 H 0.72123 0.7705 0.77446 0.0
H302 H 0.80818 0.74061 0.78168 0.0
C303 C 0.89183 0.80219 0.73513 0.0
C304 C 0.79118 0.77547 0.74014 0.0
C305 C 0.92573 0.82921 0.72882 0.0
C306 C 0.69334 0.73544 0.79426 0.0
C307 C 0.71682 0.74612 0.78105 0.0
C308 C 0.80273 0.74938 0.76994 0.0
C309 C 0.86118 0.80829 0.73575 0.0
C310 C 0.82776 0.78314 0.74512 0.0
C311 C 0.73662 0.72746 0.77724 0.0
C312 C 0.7667 0.74337 0.76536 0.0
H313 H 0.90026 0.89298 0.7175 0.0
H314 H 0.84156 0.84667 0.72915 0.0
H315 H 0.8607 0.77511 0.76447 0.0
H316 H 0.70357 0.6619 0.8063 0.0
H317 H 0.74513 0.68109 0.7834 0.0
C318 C 0.07902 0.9668 0.08086 0.0
C319 C 0.10729 0.97267 0.07015 0.0
C320 C 0.07136 0.9428 0.09383 0.0
C321 C 0.08344 0.8623 0.1051 0.0
H322 H 0.03612 0.86857 0.14472 0.0
C323 C 0.03851 0.75276 0.15523 0.0
C324 C 0.00024 0.73602 0.15875 0.0
C325 C 0.05536 0.78479 0.14591 0.0
C326 C 0.04938 0.8666 0.1337 0.0
H327 H 0.15203 0.96103 0.06542 0.0
H328 H 0.14026 0.92098 0.08858 0.0
H329 H 0.06184 0.92158 0.12667 0.0
H330 H 0.94977 0.73989 0.1557 0.0
H331 H 0.9795 0.79646 0.13957 0.0
H332 H 0.07132 0.80749 0.11236 0.0
C333 C 0.12267 0.93328 0.08657 0.0
C334 C 0.06396 0.89682 0.1233 0.0
C335 C 0.12972 0.95656 0.07339 0.0
C336 C 0.97924 0.75215 0.15301 0.0
C337 C 0.99629 0.78462 0.14395 0.0
C338 C 0.06951 0.83249 0.11565 0.0
C339 C 0.09236 0.92478 0.09656 0.0
C340 C 0.08056 0.89477 0.10868 0.0
C341 C 0.03441 0.80103 0.14024 0.0
C342 C 0.05176 0.83407 0.12987 0.0
H343 H 0.06114 0.97871 0.07859 0.0
H344 H 0.04757 0.93679 0.10108 0.0
H345 H 0.09515 0.85906 0.09381 0.0
H346 H 0.05522 0.74074 0.15951 0.0
H347 H 0.0848 0.79701 0.14319 0.0
C348 C 0.17615 0.11329 0.39139 0.0
C349 C 0.13678 0.08773 0.39079 0.0
C350 C 0.19999 0.1124 0.40385 0.0
C351 C 0.24639 0.08825 0.42355 0.0
H352 H 0.21805 0.06493 0.46859 0.0
C353 C 0.34067 0.06616 0.47088 0.0
C354 C 0.34418 0.08078 0.48733 0.0
C355 C 0.31366 0.06479 0.45937 0.0
C356 C 0.22662 0.07185 0.4561 0.0
H357 H 0.09126 0.04186 0.40302 0.0
H358 H 0.13308 0.03932 0.42459 0.0
H359 H 0.17488 0.06943 0.44864 0.0
H360 H 0.32097 0.10435 0.50461 0.0
H361 H 0.27565 0.10396 0.48442 0.0
H362 H 0.2988 0.09252 0.43112 0.0
C363 C 0.14553 0.06067 0.41562 0.0
C364 C 0.20156 0.0739 0.44459 0.0
C365 C 0.12152 0.06204 0.40325 0.0
C366 C 0.31976 0.09368 0.49198 0.0
C367 C 0.29314 0.09276 0.48043 0.0
C368 C 0.27158 0.08668 0.43509 0.0
C369 C 0.18517 0.08538 0.41586 0.0
C370 C 0.21126 0.08241 0.42818 0.0
C371 C 0.28975 0.07838 0.46396 0.0
C372 C 0.26215 0.07862 0.45155 0.0
H373 H 0.18865 0.13377 0.38206 0.0
H374 H 0.23019 0.13269 0.40392 0.0
H375 H 0.25457 0.09402 0.41095 0.0
H376 H 0.35907 0.05617 0.4668 0.0
H377 H 0.31152 0.05295 0.44686 0.0
C378 C 0.09202 0.08971 0.72952 0.0
C379 C 0.08658 0.05696 0.73707 0.0
C380 C 0.11908 0.12634 0.73648 0.0
C381 C 0.17088 0.20071 0.75969 0.0
H382 H 0.26664 0.20673 0.77053 0.0
C383 C 0.29328 0.31743 0.80409 0.0
C384 C 0.3307 0.32785 0.80102 0.0
C385 C 0.26276 0.29011 0.7935 0.0
C386 C 0.24036 0.20583 0.76733 0.0
H387 H 0.10281 0.03708 0.75859 0.0
H388 H 0.1497 0.10063 0.7706 0.0
H389 H 0.21272 0.147 0.75853 0.0
H390 H 0.36572 0.32071 0.78358 0.0
H391 H 0.31244 0.27304 0.76508 0.0
H392 H 0.19868 0.25966 0.76893 0.0
C393 C 0.13361 0.09802 0.75918 0.0
C394 C 0.20932 0.17144 0.76066 0.0
C395 C 0.10665 0.06163 0.7523 0.0
C396 C 0.33715 0.31267 0.78645 0.0
C397 C 0.30666 0.28543 0.77585 0.0
C398 C 0.20204 0.23527 0.76656 0.0
C399 C 0.1411 0.13063 0.75103 0.0
C400 C 0.17412 0.16829 0.75706 0.0
C401 C 0.26909 0.2727 0.77964 0.0
C402 C 0.23699 0.23799 0.77063 0.0
H403 H 0.07692 0.08708 0.7178 0.0
H404 H 0.12429 0.15112 0.73 0.0
H405 H 0.14402 0.19897 0.75695 0.0
H406 H 0.28735 0.32841 0.81528 0.0
H407 H 0.23416 0.28073 0.79682 0.0
C408 C 0.93321 0.98767 0.66043 0.0
C409 C 0.96245 0.01855 0.67046 0.0
C410 C 0.90837 0.99285 0.65012 0.0
C411 C 0.89902 0.06727 0.6297 0.0
H412 H 0.79187 0.98971 0.62548 0.0
C413 C 0.78953 0.0897 0.59324 0.0
C414 C 0.76278 0.05893 0.58236 0.0
C415 C 0.8125 0.08474 0.60482 0.0
C416 C 0.82175 0.01148 0.62643 0.0
H417 H 0.98853 0.07917 0.67745 0.0
H418 H 0.945 0.08812 0.65957 0.0
H419 H 0.83517 0.98137 0.64387 0.0
H420 H 0.73878 -0.00139 0.57536 0.0
H421 H 0.7787 0.98992 0.59563 0.0
H422 H 0.88563 0.09732 0.61223 0.0
C423 C 0.94154 0.05996 0.65953 0.0
C424 C 0.84659 0.00669 0.63695 0.0
C425 C 0.96641 0.05479 0.66985 0.0
C426 C 0.75874 0.0228 0.58369 0.0
C427 C 0.78167 0.01782 0.5953 0.0
C428 C 0.87418 0.07209 0.61922 0.0
C429 C 0.91214 0.02902 0.64958 0.0
C430 C 0.88556 0.03444 0.63864 0.0
C431 C 0.80921 0.04888 0.60583 0.0
C432 C 0.83528 0.04419 0.61741 0.0
H433 H 0.92939 0.95938 0.66055 0.0
H434 H 0.88642 0.96853 0.64243 0.0
H435 H 0.92893 0.08893 0.63051 0.0
H436 H 0.7929 0.11775 0.59275 0.0
H437 H 0.83294 0.10907 0.61297 0.0
C438 C 0.99826 0.93555 0.98417 0.0
C439 C 0.00268 0.95852 -0.00151 0.0
C440 C 0.9628 0.91334 0.97554 0.0
C441 C 0.86667 0.90077 0.97051 0.0
H442 H 0.84174 0.80258 0.94975 0.0
C443 C 0.74151 0.81604 0.92133 0.0
C444 C 0.72318 0.77589 0.91974 0.0
C445 C 0.7728 0.8375 0.93268 0.0
C446 C 0.8478 0.82959 0.95569 0.0
H447 H 0.97338 0.97632 0.015 0.0
H448 H 0.91115 0.93661 0.00025 0.0
H449 H 0.90139 0.84108 0.96615 0.0
H450 H 0.72245 0.72685 0.92957 0.0
H451 H 0.77565 0.76409 0.9499 0.0
H452 H 0.8124 0.88858 0.96048 0.0
C453 C 0.93525 0.9364 0.99542 0.0
C454 C 0.88249 0.85209 0.96487 0.0
C455 C 0.97091 0.95909 0.00393 0.0
C456 C 0.73565 0.75768 0.93047 0.0
C457 C 0.76665 0.77913 0.94198 0.0
C458 C 0.8317 0.87801 0.96148 0.0
C459 C 0.93068 0.91303 0.98116 0.0
C460 C 0.89272 0.88828 0.97217 0.0
C461 C 0.7863 0.81937 0.94292 0.0
C462 C 0.82204 0.84235 0.95373 0.0
H463 H 0.02228 0.93478 0.97956 0.0
H464 H 0.96069 0.89654 0.96439 0.0
H465 H 0.87358 0.92856 0.97585 0.0
H466 H 0.73224 0.83108 0.91354 0.0
H467 H 0.78723 0.86839 0.93293 0.0
C468 C 0.97827 0.94587 0.32598 0.0
C469 C 0.0146 0.97556 0.32258 0.0
C470 C 0.962 0.90979 0.31743 0.0
C471 C 0.97197 0.86103 0.27977 0.0
H472 H 0.92362 0.76998 0.30433 0.0
C473 C 0.96397 0.72341 0.25716 0.0
C474 C 0.92747 0.69073 0.25457 0.0
C475 C 0.9696 0.75591 0.2662 0.0
C476 C 0.93664 0.79518 0.29733 0.0
H477 H 0.06209 0.99063 0.30741 0.0
H478 H 0.03432 0.92813 0.29287 0.0
H479 H 0.94218 0.83235 0.31818 0.0
H480 H 0.86857 0.66586 0.26012 0.0
H481 H 0.87879 0.72311 0.27638 0.0
H482 H 0.96814 0.8242 0.25921 0.0
C483 C 0.01788 0.93266 0.30186 0.0
C484 C 0.94714 0.83082 0.30519 0.0
C485 C 0.034 0.96856 0.31031 0.0
C486 C 0.89698 0.69067 0.26193 0.0
C487 C 0.90278 0.72324 0.27122 0.0
C488 C 0.96196 0.82566 0.27203 0.0
C489 C 0.98176 0.90276 0.30532 0.0
C490 C 0.96587 0.86429 0.29659 0.0
C491 C 0.93898 0.75643 0.27298 0.0
C492 C 0.94507 0.79263 0.28085 0.0
H493 H 0.96254 0.95035 0.33536 0.0
H494 H 0.93401 0.88746 0.3203 0.0
H495 H 0.98538 0.88602 0.27264 0.0
H496 H 0.98795 0.72469 0.25144 0.0
H497 H 0.99782 0.78114 0.26751 0.0
C498 C 0.0879 0.94854 0.65714 0.0
C499 C 0.09577 0.94591 0.67392 0.0
C500 C 0.11277 0.95094 0.64525 0.0
C501 C 0.19615 0.93913 0.63923 0.0
H502 H 0.21577 0.00913 0.60482 0.0
C503 C 0.33195 0.00799 0.60299 0.0
C504 C 0.32648 0.00713 0.58569 0.0
C505 C 0.30119 0.9956 0.6129 0.0
C506 C 0.21027 0.9892 0.61427 0.0
H507 H 0.13582 0.94346 0.69136 0.0
H508 H 0.17954 0.94904 0.67097 0.0
H509 H 0.16613 0.99628 0.62352 0.0
H510 H 0.28482 0.99277 0.56517 0.0
H511 H 0.23116 0.97169 0.58256 0.0
H512 H 0.24178 0.93374 0.63035 0.0
C513 C 0.1537 0.94805 0.66674 0.0
C514 C 0.18167 0.98161 0.62494 0.0
C515 C 0.12867 0.94512 0.67853 0.0
C516 C 0.28971 0.9933 0.57847 0.0
C517 C 0.25911 0.98154 0.58839 0.0
C518 C 0.22516 0.94725 0.62873 0.0
C519 C 0.14631 0.95127 0.64996 0.0
C520 C 0.17451 0.95681 0.6377 0.0
C521 C 0.26463 0.98285 0.60569 0.0
C522 C 0.23267 0.9726 0.61626 0.0
H523 H 0.06264 0.94902 0.65319 0.0
H524 H 0.10582 0.95276 0.63241 0.0
H525 H 0.19094 0.91921 0.64864 0.0
H526 H 0.36004 0.01854 0.60883 0.0
H527 H 0.30615 0.99711 0.62624 0.0
C528 C 0.19819 0.14643 0.0086 0.0
C529 C 0.19558 0.11072 0.00681 0.0
C530 C 0.22449 0.17711 6e-05 0.0
C531 C 0.2581 0.22276 0.97024 0.0
H532 H 0.35718 0.23983 0.96075 0.0
C533 C 0.3308 0.29354 0.91212 0.0
C534 C 0.37015 0.31961 0.91334 0.0
C535 C 0.31282 0.27251 0.9255 0.0
C536 C 0.32981 0.23582 0.96345 0.0
H537 H 0.22002 0.07992 0.99537 0.0
H538 H 0.26529 0.13307 0.98037 0.0
H539 H 0.32166 0.19646 0.98183 0.0
H540 H 0.42152 0.34402 0.92962 0.0
H541 H 0.38997 0.3069 0.95307 0.0
H542 H 0.26601 0.26175 0.95178 0.0
C543 C 0.24735 0.13759 0.98846 0.0
C544 C 0.30932 0.21072 0.97541 0.0
C545 C 0.22111 0.10697 -0.00302 0.0
C546 C 0.3912 0.3239 0.92825 0.0
C547 C 0.37315 0.30273 0.94167 0.0
C548 C 0.27854 0.24779 0.9583 0.0
C549 C 0.24873 0.17274 0.98958 0.0
C550 C 0.27285 0.20324 0.97866 0.0
C551 C 0.33372 0.27695 0.94045 0.0
C552 C 0.31419 0.25385 0.95447 0.0
H553 H 0.17914 0.15039 0.01616 0.0
H554 H 0.22524 0.20402 0.00136 0.0
H555 H 0.22998 0.21744 0.97231 0.0
H556 H 0.31388 0.28893 0.9007 0.0
H557 H 0.28254 0.25222 0.92402 0.0
C558 C 0.02638 0.17023 0.33818 0.0
C559 C 0.06028 0.17055 0.3359 0.0
C560 C 0.02122 0.19901 0.33214 0.0
C561 C 0.07216 0.2957 0.31634 0.0
H562 H 0.98157 0.25801 0.28694 0.0
C563 C 0.06667 0.37315 0.25996 0.0
C564 C 0.03233 0.37001 0.25439 0.0
C565 C 0.06831 0.35428 0.27368 0.0
C566 C 0.00661 0.26931 0.2954 0.0
H567 H 0.11602 0.20229 0.32631 0.0
H568 H 0.107 0.25226 0.31586 0.0
H569 H 0.98759 0.21451 0.30473 0.0
H570 H 0.97335 0.34665 0.25951 0.0
H571 H 0.97622 0.31367 0.28355 0.0
H572 H 0.09178 0.35022 0.30658 0.0
C573 C 0.08445 0.22994 0.32231 0.0
C574 C 0.01005 0.24431 0.30559 0.0
C575 C 0.08946 0.20105 0.32816 0.0
C576 C 7e-05 0.34906 0.26334 0.0
C577 C 0.00173 0.33022 0.27711 0.0
C578 C 0.06865 0.32077 0.30621 0.0
C579 C 0.05004 0.22886 0.32395 0.0
C580 C 0.04344 0.25693 0.31571 0.0
C581 C 0.03566 0.33188 0.28219 0.0
C582 C 0.03643 0.30751 0.29517 0.0
H583 H 0.00343 0.14716 0.34414 0.0
H584 H 0.99446 0.19759 0.33363 0.0
H585 H 0.09795 0.30633 0.32424 0.0
H586 H 0.09191 0.38863 0.25322 0.0
H587 H 0.09477 0.35569 0.27705 0.0
loop_
_geom_bond_atom_site_label_1
_geom_bond_atom_site_label_2
_geom_bond_distance
_geom_bond_site_symmetry_2
_ccdc_geom_bond_type
Zn0 O3 2.031 1_545 S
Zn0 O5 2.049 . S
Zn0 O10 2.071 1_545 S
Zn1 O2 1.962 . S
Zn1 O4 1.986 . S
Zn1 O6 1.996 . S
Zn1 O9 1.943 . S
O2 Zn1 1.962 . S
O2 C7 1.271 . S
O3 Zn0 2.031 1_565 S
O3 C7 1.264 1_565 S
O4 Zn1 1.986 . S
O4 C11 1.262 . S
O5 Zn0 2.049 . S
O5 C13 1.260 . S
O6 Zn1 1.996 . S
O6 C13 1.257 . S
C7 O2 1.271 . S
C7 O3 1.264 1_545 S
C8 O9 1.249 . S
C8 O10 1.265 1_545 S
O9 Zn1 1.943 . S
O9 C8 1.249 . S
O10 Zn0 2.071 1_565 S
O10 C8 1.265 1_565 S
C11 O4 1.262 . S
C11 O12 1.232 . S
O12 C11 1.232 . S
C13 O5 1.260 . S
C13 O6 1.257 . S
Zn14 O17 2.031 . S
Zn14 O19 2.049 . S
Zn14 O24 2.067 . S
Zn15 O16 1.962 . S
Zn15 O18 1.986 1_455 S
Zn15 O20 1.996 . S
Zn15 O23 1.943 1_455 S
O16 Zn15 1.962 . S
O16 C21 1.254 . S
O17 Zn14 2.031 . S
O17 C21 1.269 . S
O18 Zn15 1.986 1_655 S
O18 C25 1.262 . S
O19 Zn14 2.049 . S
O19 C27 1.260 . S
O20 Zn15 1.996 . S
O20 C27 1.257 . S
C21 O16 1.254 . S
C21 O17 1.269 . S
C22 O23 1.249 1_455 S
C22 O24 1.270 . S
O23 Zn15 1.943 1_655 S
O23 C22 1.249 1_655 S
O24 Zn14 2.067 . S
O24 C22 1.270 . S
C25 O18 1.262 . S
C25 O26 1.232 . S
O26 C25 1.232 . S
C27 O19 1.260 . S
C27 O20 1.257 . S
Zn28 O31 2.031 1_565 S
Zn28 O33 2.049 . S
Zn28 O38 2.067 1_565 S
Zn29 O30 1.962 1_545 S
Zn29 O32 2.001 1_445 S
Zn29 O34 1.996 1_445 S
Zn29 O37 1.943 . S
O30 Zn29 1.962 1_565 S
O30 C35 1.254 . S
O31 Zn28 2.031 1_545 S
O31 C35 1.269 1_545 S
O32 Zn29 2.001 1_665 S
O32 C39 1.237 1_565 S
O33 Zn28 2.049 . S
O33 C41 1.260 1_455 S
O34 Zn29 1.996 1_665 S
O34 C41 1.257 . S
C35 O30 1.254 . S
C35 O31 1.269 1_565 S
C36 O37 1.249 . S
C36 O38 1.270 . S
O37 Zn29 1.943 . S
O37 C36 1.249 . S
O38 Zn28 2.067 1_545 S
O38 C36 1.270 . S
C39 O32 1.237 1_545 S
C39 O40 1.232 . S
O40 C39 1.232 . S
C41 O33 1.260 1_655 S
C41 O34 1.257 . S
H42 C69 0.929 1_655 S
N43 C68 1.433 . S
N43 C74 1.435 . S
N43 C80 1.423 . S
H44 C70 0.930 1_655 S
H45 C73 0.931 . S
H46 C72 0.929 . S
H47 C75 0.930 . S
H48 C76 0.932 . S
H49 C79 0.929 1_655 S
H50 C78 0.931 1_655 S
H51 C81 0.929 . S
H52 C85 0.932 . S
H53 C82 0.931 . S
H54 C84 0.929 . S
H55 C87 0.929 1_655 S
H56 C88 0.930 1_655 S
H57 C90 0.929 . S
H58 C91 0.931 . S
H59 C93 0.930 . S
H60 C94 0.932 . S
H61 C96 0.931 1_655 S
H62 C97 0.929 1_655 S
H63 C99 0.929 . S
H64 C100 0.931 . S
H65 C102 0.929 . S
N66 C86 1.433 . S
N66 C92 1.435 . S
N66 C98 1.423 . S
H67 C103 0.932 . S
C68 N43 1.433 . S
C68 C69 1.363 . S
C68 C73 1.370 . S
C69 H42 0.929 1_455 S
C69 C68 1.363 . S
C69 C70 1.385 . S
C70 H44 0.930 1_455 S
C70 C69 1.385 . S
C70 C71 1.357 . S
C71 C70 1.357 . S
C71 C72 1.406 . S
C72 H46 0.929 . S
C72 C71 1.406 . S
C72 C73 1.391 . S
C73 H45 0.931 . S
C73 C68 1.370 . S
C73 C72 1.391 . S
C74 N43 1.435 . S
C74 C75 1.358 . S
C74 C79 1.371 . S
C75 H47 0.930 . S
C75 C74 1.358 . S
C75 C76 1.405 . S
C76 H48 0.932 . S
C76 C75 1.405 . S
C76 C77 1.383 . S
C77 C76 1.383 . S
C77 C78 1.393 . S
C78 H50 0.931 1_455 S
C78 C77 1.393 . S
C78 C79 1.382 . S
C79 H49 0.929 1_455 S
C79 C74 1.371 . S
C79 C78 1.382 . S
C80 N43 1.423 . S
C80 C81 1.362 1_455 S
C80 C85 1.388 . S
C81 H51 0.929 . S
C81 C80 1.362 1_655 S
C81 C82 1.376 . S
C82 H53 0.931 . S
C82 C81 1.376 . S
C82 C83 1.396 1_655 S
C83 C82 1.396 1_455 S
C83 C84 1.348 . S
C83 C101 1.472 . S
C84 H54 0.929 . S
C84 C83 1.348 . S
C84 C85 1.443 . S
C85 H52 0.932 . S
C85 C80 1.388 . S
C85 C84 1.443 . S
C86 N66 1.433 . S
C86 C87 1.363 . S
C86 C91 1.370 . S
C87 H55 0.929 1_455 S
C87 C86 1.363 . S
C87 C88 1.385 . S
C88 H56 0.930 1_455 S
C88 C87 1.385 . S
C88 C89 1.357 . S
C89 C88 1.357 . S
C89 C90 1.406 . S
C90 H57 0.929 . S
C90 C89 1.406 . S
C90 C91 1.391 . S
C91 H58 0.931 . S
C91 C86 1.370 . S
C91 C90 1.391 . S
C92 N66 1.435 . S
C92 C93 1.358 . S
C92 C97 1.371 . S
C93 H59 0.930 . S
C93 C92 1.358 . S
C93 C94 1.405 . S
C94 H60 0.932 . S
C94 C93 1.405 . S
C94 C95 1.383 . S
C95 C94 1.383 . S
C95 C96 1.393 . S
C96 H61 0.931 1_455 S
C96 C95 1.393 . S
C96 C97 1.382 . S
C97 H62 0.929 1_455 S
C97 C92 1.371 . S
C97 C96 1.382 . S
C98 N66 1.423 . S
C98 C99 1.362 1_455 S
C98 C103 1.388 . S
C99 H63 0.929 . S
C99 C98 1.362 1_655 S
C99 C100 1.376 . S
C100 H64 0.931 . S
C100 C99 1.376 . S
C100 C101 1.396 1_655 S
C101 C83 1.472 . S
C101 C100 1.396 1_455 S
C101 C102 1.348 . S
C102 H65 0.929 . S
C102 C101 1.348 . S
C102 C103 1.443 . S
C103 H67 0.932 . S
C103 C98 1.388 . S
C103 C102 1.443 . S
H104 C131 0.929 . S
N105 C130 1.433 . S
N105 C136 1.435 . S
N105 C142 1.423 . S
H106 C132 0.930 . S
H107 C135 0.931 . S
H108 C134 0.929 1_565 S
H109 C137 0.930 . S
H110 C138 0.932 1_565 S
H111 C141 0.929 . S
H112 C140 0.931 . S
H113 C143 0.929 . S
H114 C147 0.932 . S
H115 C144 0.931 . S
H116 C146 0.929 . S
H117 C149 0.929 . S
H118 C150 0.930 . S
H119 C152 0.929 1_565 S
H120 C153 0.931 . S
H121 C155 0.930 . S
H122 C156 0.932 1_565 S
H123 C158 0.931 . S
H124 C159 0.929 . S
H125 C161 0.929 . S
H126 C162 0.931 . S
H127 C164 0.929 . S
N128 C148 1.433 . S
N128 C154 1.435 . S
N128 C160 1.423 . S
H129 C165 0.932 . S
C130 N105 1.433 . S
C130 C131 1.363 . S
C130 C135 1.370 . S
C131 H104 0.929 . S
C131 C130 1.363 . S
C131 C132 1.385 . S
C132 H106 0.930 . S
C132 C131 1.385 . S
C132 C133 1.357 . S
C133 C132 1.357 . S
C133 C134 1.406 . S
C134 H108 0.929 1_545 S
C134 C133 1.406 . S
C134 C135 1.391 . S
C135 H107 0.931 . S
C135 C130 1.370 . S
C135 C134 1.391 . S
C136 N105 1.435 . S
C136 C137 1.358 . S
C136 C141 1.371 . S
C137 H109 0.930 . S
C137 C136 1.358 . S
C137 C138 1.405 . S
C138 H110 0.932 1_545 S
C138 C137 1.405 . S
C138 C139 1.383 . S
C139 C138 1.383 . S
C139 C140 1.393 . S
C140 H112 0.931 . S
C140 C139 1.393 . S
C140 C141 1.382 . S
C141 H111 0.929 . S
C141 C136 1.371 . S
C141 C140 1.382 . S
C142 N105 1.423 . S
C142 C143 1.362 . S
C142 C147 1.388 . S
C143 H113 0.929 . S
C143 C142 1.362 . S
C143 C144 1.376 . S
C144 H115 0.931 . S
C144 C143 1.376 . S
C144 C145 1.396 . S
C145 C144 1.396 . S
C145 C146 1.348 . S
C145 C163 1.472 . S
C146 H116 0.929 . S
C146 C145 1.348 . S
C146 C147 1.443 . S
C147 H114 0.932 . S
C147 C142 1.388 . S
C147 C146 1.443 . S
C148 N128 1.433 . S
C148 C149 1.363 . S
C148 C153 1.370 . S
C149 H117 0.929 . S
C149 C148 1.363 . S
C149 C150 1.385 . S
C150 H118 0.930 . S
C150 C149 1.385 . S
C150 C151 1.357 . S
C151 C150 1.357 . S
C151 C152 1.406 . S
C152 H119 0.929 1_545 S
C152 C151 1.406 . S
C152 C153 1.391 . S
C153 H120 0.931 . S
C153 C148 1.370 . S
C153 C152 1.391 . S
C154 N128 1.435 . S
C154 C155 1.358 . S
C154 C159 1.371 . S
C155 H121 0.930 . S
C155 C154 1.358 . S
C155 C156 1.405 . S
C156 H122 0.932 1_545 S
C156 C155 1.405 . S
C156 C157 1.383 . S
C157 C156 1.383 . S
C157 C158 1.393 . S
C158 H123 0.931 . S
C158 C157 1.393 . S
C158 C159 1.382 . S
C159 H124 0.929 . S
C159 C154 1.371 . S
C159 C158 1.382 . S
C160 N128 1.423 . S
C160 C161 1.362 . S
C160 C165 1.388 . S
C161 H125 0.929 . S
C161 C160 1.362 . S
C161 C162 1.376 . S
C162 H126 0.931 . S
C162 C161 1.376 . S
C162 C163 1.396 . S
C163 C145 1.472 . S
C163 C162 1.396 . S
C163 C164 1.348 . S
C164 H127 0.929 . S
C164 C163 1.348 . S
C164 C165 1.443 . S
C165 H129 0.932 . S
C165 C160 1.388 . S
C165 C164 1.443 . S
H166 C193 0.929 . S
N167 C192 1.433 . S
N167 C198 1.435 . S
N167 C204 1.423 . S
H168 C194 0.930 . S
H169 C197 0.931 . S
H170 C196 0.929 . S
H171 C199 0.930 . S
H172 C200 0.932 . S
H173 C203 0.929 . S
H174 C202 0.931 . S
H175 C205 0.929 . S
H176 C209 0.932 . S
H177 C206 0.931 . S
H178 C208 0.929 . S
H179 C211 0.929 . S
H180 C212 0.930 . S
H181 C214 0.929 . S
H182 C215 0.931 . S
H183 C217 0.930 . S
H184 C218 0.932 . S
H185 C220 0.931 . S
H186 C221 0.929 . S
H187 C223 0.929 . S
H188 C224 0.931 . S
H189 C226 0.929 . S
N190 C210 1.433 . S
N190 C216 1.435 . S
N190 C222 1.423 . S
H191 C227 0.932 . S
C192 N167 1.433 . S
C192 C193 1.363 . S
C192 C197 1.370 . S
C193 H166 0.929 . S
C193 C192 1.363 . S
C193 C194 1.385 . S
C194 H168 0.930 . S
C194 C193 1.385 . S
C194 C195 1.357 . S
C195 C194 1.357 . S
C195 C196 1.406 . S
C196 H170 0.929 . S
C196 C195 1.406 . S
C196 C197 1.391 . S
C197 H169 0.931 . S
C197 C192 1.370 . S
C197 C196 1.391 . S
C198 N167 1.435 . S
C198 C199 1.358 . S
C198 C203 1.371 . S
C199 H171 0.930 . S
C199 C198 1.358 . S
C199 C200 1.405 . S
C200 H172 0.932 . S
C200 C199 1.405 . S
C200 C201 1.383 . S
C201 C200 1.383 . S
C201 C202 1.393 . S
C202 H174 0.931 . S
C202 C201 1.393 . S
C202 C203 1.382 . S
C203 H173 0.929 . S
C203 C198 1.371 . S
C203 C202 1.382 . S
C204 N167 1.423 . S
C204 C205 1.362 . S
C204 C209 1.388 . S
C205 H175 0.929 . S
C205 C204 1.362 . S
C205 C206 1.376 . S
C206 H177 0.931 . S
C206 C205 1.376 . S
C206 C207 1.396 . S
C207 C206 1.396 . S
C207 C208 1.348 . S
C207 C225 1.472 . S
C208 H178 0.929 . S
C208 C207 1.348 . S
C208 C209 1.443 . S
C209 H176 0.932 . S
C209 C204 1.388 . S
C209 C208 1.443 . S
C210 N190 1.433 . S
C210 C211 1.363 . S
C210 C215 1.370 . S
C211 H179 0.929 . S
C211 C210 1.363 . S
C211 C212 1.385 . S
C212 H180 0.930 . S
C212 C211 1.385 . S
C212 C213 1.357 . S
C213 C212 1.357 . S
C213 C214 1.406 . S
C214 H181 0.929 . S
C214 C213 1.406 . S
C214 C215 1.391 . S
C215 H182 0.931 . S
C215 C210 1.370 . S
C215 C214 1.391 . S
C216 N190 1.435 . S
C216 C217 1.358 . S
C216 C221 1.371 . S
C217 H183 0.930 . S
C217 C216 1.358 . S
C217 C218 1.405 . S
C218 H184 0.932 . S
C218 C217 1.405 . S
C218 C219 1.383 . S
C219 C218 1.383 . S
C219 C220 1.393 . S
C220 H185 0.931 . S
C220 C219 1.393 . S
C220 C221 1.382 . S
C221 H186 0.929 . S
C221 C216 1.371 . S
C221 C220 1.382 . S
C222 N190 1.423 . S
C222 C223 1.362 . S
C222 C227 1.388 . S
C223 H187 0.929 . S
C223 C222 1.362 . S
C223 C224 1.376 . S
C224 H188 0.931 . S
C224 C223 1.376 . S
C224 C225 1.396 . S
C225 C207 1.472 . S
C225 C224 1.396 . S
C225 C226 1.348 . S
C226 H189 0.929 . S
C226 C225 1.348 . S
C226 C227 1.443 . S
C227 H191 0.932 . S
C227 C222 1.388 . S
C227 C226 1.443 . S
C228 C229 1.349 . S
C228 C230 1.327 . S
C228 H253 0.950 1_455 S
C229 C228 1.349 . S
C229 C245 1.349 . S
C230 C228 1.327 . S
C230 C249 1.429 . S
C230 H254 0.950 1_455 S
C231 C248 1.574 . S
C231 C250 1.368 . S
C231 H255 0.949 . S
H232 C236 0.949 1_655 S
C233 C234 1.349 . S
C233 C235 1.327 . S
C233 H256 0.950 . S
C234 C233 1.349 . S
C234 C246 1.349 . S
C235 C233 1.327 . S
C235 C251 1.429 . S
C235 H257 0.950 . S
C236 H232 0.949 1_455 S
C236 C244 1.574 . S
C236 C252 1.368 . S
H237 C245 0.950 . S
H238 C243 0.950 . S
H239 C244 0.949 1_655 S
H240 C246 0.950 1_655 S
H241 C247 0.950 1_655 S
H242 C248 0.949 . S
C243 H238 0.950 . S
C243 C245 1.327 . S
C243 C249 1.429 . S
C244 C236 1.574 . S
C244 H239 0.949 1_455 S
C244 C250 1.368 . S
C245 C229 1.349 . S
C245 H237 0.950 . S
C245 C243 1.327 . S
C246 C234 1.349 . S
C246 H240 0.950 1_455 S
C246 C247 1.327 . S
C247 H241 0.950 1_455 S
C247 C246 1.327 . S
C247 C251 1.429 . S
C248 C231 1.574 . S
C248 H242 0.949 . S
C248 C252 1.368 . S
C249 C230 1.429 . S
C249 C243 1.429 . S
C249 C250 1.523 . S
C250 C231 1.368 . S
C250 C244 1.368 . S
C250 C249 1.523 . S
C251 C235 1.429 . S
C251 C247 1.429 . S
C251 C252 1.523 . S
C252 C236 1.368 . S
C252 C248 1.368 . S
C252 C251 1.523 . S
H253 C228 0.950 1_655 S
H254 C230 0.950 1_655 S
H255 C231 0.949 . S
H256 C233 0.950 . S
H257 C235 0.950 . S
C258 C259 1.349 . S
C258 C260 1.327 . S
C258 H283 0.950 1_545 S
C259 C258 1.349 . S
C259 C275 1.349 . S
C260 C258 1.327 . S
C260 C279 1.429 . S
C260 H284 0.950 1_545 S
C261 C278 1.574 . S
C261 C280 1.368 . S
C261 H285 0.949 . S
H262 C266 0.949 1_565 S
C263 C264 1.349 . S
C263 C265 1.327 . S
C263 H286 0.950 . S
C264 C263 1.349 . S
C264 C276 1.349 . S
C265 C263 1.327 . S
C265 C281 1.429 . S
C265 H287 0.950 . S
C266 H262 0.949 1_545 S
C266 C274 1.574 . S
C266 C282 1.368 . S
H267 C275 0.950 . S
H268 C273 0.950 . S
H269 C274 0.949 1_565 S
H270 C276 0.950 1_565 S
H271 C277 0.950 1_565 S
H272 C278 0.949 . S
C273 H268 0.950 . S
C273 C275 1.327 . S
C273 C279 1.429 . S
C274 C266 1.574 . S
C274 H269 0.949 1_545 S
C274 C280 1.368 . S
C275 C259 1.349 . S
C275 H267 0.950 . S
C275 C273 1.327 . S
C276 C264 1.349 . S
C276 H270 0.950 1_545 S
C276 C277 1.327 . S
C277 H271 0.950 1_545 S
C277 C276 1.327 . S
C277 C281 1.429 . S
C278 C261 1.574 . S
C278 H272 0.949 . S
C278 C282 1.368 . S
C279 C260 1.429 . S
C279 C273 1.429 . S
C279 C280 1.523 . S
C280 C261 1.368 . S
C280 C274 1.368 . S
C280 C279 1.523 . S
C281 C265 1.429 . S
C281 C277 1.429 . S
C281 C282 1.523 . S
C282 C266 1.368 . S
C282 C278 1.368 . S
C282 C281 1.523 . S
H283 C258 0.950 1_565 S
H284 C260 0.950 1_565 S
H285 C261 0.949 . S
H286 C263 0.950 . S
H287 C265 0.950 . S
C288 C289 1.349 . S
C288 C290 1.327 . S
C288 H313 0.950 . S
C289 C288 1.349 . S
C289 C305 1.349 . S
C290 C288 1.327 . S
C290 C309 1.429 . S
C290 H314 0.950 . S
C291 C308 1.574 . S
C291 C310 1.368 . S
C291 H315 0.949 . S
H292 C296 0.949 . S
C293 C294 1.349 . S
C293 C295 1.327 . S
C293 H316 0.950 . S
C294 C293 1.349 . S
C294 C306 1.349 . S
C295 C293 1.327 . S
C295 C311 1.429 . S
C295 H317 0.950 . S
C296 H292 0.949 . S
C296 C304 1.574 . S
C296 C312 1.368 . S
H297 C305 0.950 . S
H298 C303 0.950 . S
H299 C304 0.949 . S
H300 C306 0.950 . S
H301 C307 0.950 . S
H302 C308 0.949 . S
C303 H298 0.950 . S
C303 C305 1.327 . S
C303 C309 1.429 . S
C304 C296 1.574 . S
C304 H299 0.949 . S
C304 C310 1.368 . S
C305 C289 1.349 . S
C305 H297 0.950 . S
C305 C303 1.327 . S
C306 C294 1.349 . S
C306 H300 0.950 . S
C306 C307 1.327 . S
C307 H301 0.950 . S
C307 C306 1.327 . S
C307 C311 1.429 . S
C308 C291 1.574 . S
C308 H302 0.949 . S
C308 C312 1.368 . S
C309 C290 1.429 . S
C309 C303 1.429 . S
C309 C310 1.523 . S
C310 C291 1.368 . S
C310 C304 1.368 . S
C310 C309 1.523 . S
C311 C295 1.429 . S
C311 C307 1.429 . S
C311 C312 1.523 . S
C312 C296 1.368 . S
C312 C308 1.368 . S
C312 C311 1.523 . S
H313 C288 0.950 . S
H314 C290 0.950 . S
H315 C291 0.949 . S
H316 C293 0.950 . S
H317 C295 0.950 . S
C318 C319 1.349 . S
C318 C320 1.327 . S
C318 H343 0.950 . S
C319 C318 1.349 . S
C319 C335 1.349 . S
C320 C318 1.327 . S
C320 C339 1.429 . S
C320 H344 0.950 . S
C321 C338 1.574 . S
C321 C340 1.368 . S
C321 H345 0.949 . S
H322 C326 0.949 . S
C323 C324 1.349 . S
C323 C325 1.327 . S
C323 H346 0.950 . S
C324 C323 1.349 . S
C324 C336 1.349 . S
C325 C323 1.327 . S
C325 C341 1.429 . S
C325 H347 0.950 . S
C326 H322 0.949 . S
C326 C334 1.574 . S
C326 C342 1.368 . S
H327 C335 0.950 . S
H328 C333 0.950 . S
H329 C334 0.949 . S
H330 C336 0.950 . S
H331 C337 0.950 . S
H332 C338 0.949 . S
C333 H328 0.950 . S
C333 C335 1.327 . S
C333 C339 1.429 . S
C334 C326 1.574 . S
C334 H329 0.949 . S
C334 C340 1.368 . S
C335 C319 1.349 . S
C335 H327 0.950 . S
C335 C333 1.327 . S
C336 C324 1.349 . S
C336 H330 0.950 . S
C336 C337 1.327 . S
C337 H331 0.950 . S
C337 C336 1.327 . S
C337 C341 1.429 . S
C338 C321 1.574 . S
C338 H332 0.949 . S
C338 C342 1.368 . S
C339 C320 1.429 . S
C339 C333 1.429 . S
C339 C340 1.523 . S
C340 C321 1.368 . S
C340 C334 1.368 . S
C340 C339 1.523 . S
C341 C325 1.429 . S
C341 C337 1.429 . S
C341 C342 1.523 . S
C342 C326 1.368 . S
C342 C338 1.368 . S
C342 C341 1.523 . S
H343 C318 0.950 . S
H344 C320 0.950 . S
H345 C321 0.949 . S
H346 C323 0.950 . S
H347 C325 0.950 . S
C348 C349 1.349 . S
C348 C350 1.327 . S
C348 H373 0.950 . S
C349 C348 1.349 . S
C349 C365 1.349 . S
C350 C348 1.327 . S
C350 C369 1.429 . S
C350 H374 0.950 . S
C351 C368 1.574 . S
C351 C370 1.368 . S
C351 H375 0.949 . S
H352 C356 0.949 . S
C353 C354 1.349 . S
C353 C355 1.327 . S
C353 H376 0.950 1_545 S
C354 C353 1.349 . S
C354 C366 1.349 . S
C355 C353 1.327 . S
C355 C371 1.429 . S
C355 H377 0.949 . S
C356 H352 0.949 . S
C356 C364 1.574 . S
C356 C372 1.368 . S
H357 C365 0.950 . S
H358 C363 0.950 . S
H359 C364 0.949 . S
H360 C366 0.950 . S
H361 C367 0.950 . S
H362 C368 0.949 . S
C363 H358 0.950 . S
C363 C365 1.327 . S
C363 C369 1.429 . S
C364 C356 1.574 . S
C364 H359 0.949 . S
C364 C370 1.368 . S
C365 C349 1.349 . S
C365 H357 0.950 . S
C365 C363 1.327 . S
C366 C354 1.349 . S
C366 H360 0.950 . S
C366 C367 1.327 . S
C367 H361 0.950 . S
C367 C366 1.327 . S
C367 C371 1.429 . S
C368 C351 1.574 . S
C368 H362 0.949 . S
C368 C372 1.368 . S
C369 C350 1.429 . S
C369 C363 1.429 . S
C369 C370 1.523 . S
C370 C351 1.368 . S
C370 C364 1.368 . S
C370 C369 1.523 . S
C371 C355 1.429 . S
C371 C367 1.429 . S
C371 C372 1.523 . S
C372 C356 1.368 . S
C372 C368 1.368 . S
C372 C371 1.523 . S
H373 C348 0.950 . S
H374 C350 0.950 . S
H375 C351 0.949 . S
H376 C353 0.950 1_565 S
H377 C355 0.949 . S
C378 C379 1.349 . S
C378 C380 1.327 . S
C378 H403 0.950 . S
C379 C378 1.349 . S
C379 C395 1.349 . S
C380 C378 1.327 . S
C380 C399 1.429 . S
C380 H404 0.950 . S
C381 C398 1.574 . S
C381 C400 1.368 . S
C381 H405 0.949 . S
H382 C386 0.949 . S
C383 C384 1.349 . S
C383 C385 1.327 . S
C383 H406 0.950 . S
C384 C383 1.349 . S
C384 C396 1.349 . S
C385 C383 1.327 . S
C385 C401 1.429 . S
C385 H407 0.950 . S
C386 H382 0.949 . S
C386 C394 1.574 . S
C386 C402 1.368 . S
H387 C395 0.950 . S
H388 C393 0.950 . S
H389 C394 0.949 . S
H390 C396 0.950 . S
H391 C397 0.950 . S
H392 C398 0.949 . S
C393 H388 0.950 . S
C393 C395 1.327 . S
C393 C399 1.429 . S
C394 C386 1.574 . S
C394 H389 0.949 . S
C394 C400 1.368 . S
C395 C379 1.349 . S
C395 H387 0.950 . S
C395 C393 1.327 . S
C396 C384 1.349 . S
C396 H390 0.950 . S
C396 C397 1.327 . S
C397 H391 0.950 . S
C397 C396 1.327 . S
C397 C401 1.429 . S
C398 C381 1.574 . S
C398 H392 0.949 . S
C398 C402 1.368 . S
C399 C380 1.429 . S
C399 C393 1.429 . S
C399 C400 1.523 . S
C400 C381 1.368 . S
C400 C394 1.368 . S
C400 C399 1.523 . S
C401 C385 1.429 . S
C401 C397 1.429 . S
C401 C402 1.523 . S
C402 C386 1.368 . S
C402 C398 1.368 . S
C402 C401 1.523 . S
H403 C378 0.950 . S
H404 C380 0.950 . S
H405 C381 0.949 . S
H406 C383 0.950 . S
H407 C385 0.950 . S
C408 C409 1.349 . S
C408 C410 1.322 . S
C408 H433 0.950 1_545 S
C409 C408 1.349 . S
C409 C425 1.349 . S
C410 C408 1.322 . S
C410 C429 1.438 . S
C410 H434 0.946 1_545 S
C411 C428 1.574 . S
C411 C430 1.368 . S
C411 H435 0.949 . S
H412 C416 0.949 . S
C413 C414 1.349 . S
C413 C415 1.327 . S
C413 H436 0.950 . S
C414 C413 1.349 . S
C414 C426 1.349 1_545 S
C415 C413 1.327 . S
C415 C431 1.429 . S
C415 H437 0.950 . S
C416 H412 0.949 . S
C416 C424 1.574 . S
C416 C432 1.368 1_565 S
H417 C425 0.950 . S
H418 C423 0.950 . S
H419 C424 0.949 . S
H420 C426 0.950 . S
H421 C427 0.950 . S
H422 C428 0.949 . S
C423 H418 0.950 . S
C423 C425 1.327 . S
C423 C429 1.429 . S
C424 C416 1.574 . S
C424 H419 0.949 . S
C424 C430 1.368 1_565 S
C425 C409 1.349 . S
C425 H417 0.950 . S
C425 C423 1.327 . S
C426 C414 1.349 1_565 S
C426 H420 0.950 . S
C426 C427 1.327 . S
C427 H421 0.950 . S
C427 C426 1.327 . S
C427 C431 1.429 1_565 S
C428 C411 1.574 . S
C428 H422 0.949 . S
C428 C432 1.368 . S
C429 C410 1.438 . S
C429 C423 1.429 . S
C429 C430 1.523 . S
C430 C411 1.368 . S
C430 C424 1.368 1_545 S
C430 C429 1.523 . S
C431 C415 1.429 . S
C431 C427 1.429 1_545 S
C431 C432 1.523 . S
C432 C416 1.368 1_545 S
C432 C428 1.368 . S
C432 C431 1.523 . S
H433 C408 0.950 1_565 S
H434 C410 0.946 1_565 S
H435 C411 0.949 . S
H436 C413 0.950 . S
H437 C415 0.950 . S
C438 C439 1.349 1_556 S
C438 C440 1.327 . S
C438 H463 0.950 1_655 S
C439 C438 1.349 1_554 S
C439 C455 1.349 . S
C440 C438 1.327 . S
C440 C459 1.429 . S
C440 H464 0.950 . S
C441 C458 1.574 . S
C441 C460 1.368 . S
C441 H465 0.949 . S
H442 C446 0.949 . S
C443 C444 1.349 . S
C443 C445 1.327 . S
C443 H466 0.950 . S
C444 C443 1.349 . S
C444 C456 1.349 . S
C445 C443 1.327 . S
C445 C461 1.429 . S
C445 H467 0.950 . S
C446 H442 0.949 . S
C446 C454 1.574 . S
C446 C462 1.368 . S
H447 C455 0.950 . S
H448 C453 0.950 . S
H449 C454 0.949 . S
H450 C456 0.950 . S
H451 C457 0.950 . S
H452 C458 0.949 . S
C453 H448 0.950 . S
C453 C455 1.327 . S
C453 C459 1.429 1_554 S
C454 C446 1.574 . S
C454 H449 0.949 . S
C454 C460 1.368 . S
C455 C439 1.349 . S
C455 H447 0.950 . S
C455 C453 1.327 . S
C456 C444 1.349 . S
C456 H450 0.950 . S
C456 C457 1.327 . S
C457 H451 0.950 . S
C457 C456 1.327 . S
C457 C461 1.429 . S
C458 C441 1.574 . S
C458 H452 0.949 . S
C458 C462 1.368 . S
C459 C440 1.429 . S
C459 C453 1.429 1_556 S
C459 C460 1.523 . S
C460 C441 1.368 . S
C460 C454 1.368 . S
C460 C459 1.523 . S
C461 C445 1.429 . S
C461 C457 1.429 . S
C461 C462 1.523 . S
C462 C446 1.368 . S
C462 C458 1.368 . S
C462 C461 1.523 . S
H463 C438 0.950 1_455 S
H464 C440 0.950 . S
H465 C441 0.949 . S
H466 C443 0.950 . S
H467 C445 0.950 . S
C468 C469 1.349 1_655 S
C468 C470 1.327 . S
C468 H493 0.950 . S
C469 C468 1.349 1_455 S
C469 C485 1.349 . S
C470 C468 1.327 . S
C470 C489 1.429 1_655 S
C470 H494 0.950 . S
C471 C488 1.574 . S
C471 C490 1.368 . S
C471 H495 0.949 . S
H472 C476 0.949 . S
C473 C474 1.349 . S
C473 C475 1.327 . S
C473 H496 0.950 . S
C474 C473 1.349 . S
C474 C486 1.349 1_455 S
C475 C473 1.327 . S
C475 C491 1.429 . S
C475 H497 0.950 . S
C476 H472 0.949 . S
C476 C484 1.574 . S
C476 C492 1.368 1_655 S
H477 C485 0.950 1_545 S
H478 C483 0.950 . S
H479 C484 0.949 . S
H480 C486 0.950 . S
H481 C487 0.950 . S
H482 C488 0.949 . S
C483 H478 0.950 . S
C483 C485 1.327 . S
C483 C489 1.429 . S
C484 C476 1.574 . S
C484 H479 0.949 . S
C484 C490 1.368 1_655 S
C485 C469 1.349 . S
C485 H477 0.950 1_565 S
C485 C483 1.327 . S
C486 C474 1.349 1_655 S
C486 H480 0.950 . S
C486 C487 1.327 . S
C487 H481 0.950 . S
C487 C486 1.327 . S
C487 C491 1.429 1_655 S
C488 C471 1.574 . S
C488 H482 0.949 . S
C488 C492 1.368 . S
C489 C470 1.429 1_455 S
C489 C483 1.429 . S
C489 C490 1.523 . S
C490 C471 1.368 . S
C490 C484 1.368 1_455 S
C490 C489 1.523 . S
C491 C475 1.429 . S
C491 C487 1.429 1_455 S
C491 C492 1.523 . S
C492 C476 1.368 1_455 S
C492 C488 1.368 . S
C492 C491 1.523 . S
H493 C468 0.950 . S
H494 C470 0.950 . S
H495 C471 0.949 . S
H496 C473 0.950 . S
H497 C475 0.950 . S
C498 C499 1.334 1_565 S
C498 C500 1.327 . S
C498 H523 0.950 . S
C499 C498 1.334 1_545 S
C499 C515 1.356 . S
C500 C498 1.327 . S
C500 C519 1.429 1_565 S
C500 H524 0.950 . S
C501 C518 1.574 . S
C501 C520 1.368 . S
C501 H525 0.949 . S
H502 C506 0.949 . S
C503 C504 1.349 . S
C503 C505 1.327 . S
C503 H526 0.950 . S
C504 C503 1.349 . S
C504 C516 1.349 1_545 S
C505 C503 1.327 . S
C505 C521 1.429 . S
C505 H527 0.950 . S
C506 H502 0.949 . S
C506 C514 1.574 . S
C506 C522 1.368 1_565 S
H507 C515 0.950 . S
H508 C513 0.950 . S
H509 C514 0.949 . S
H510 C516 0.950 . S
H511 C517 0.950 . S
H512 C518 0.949 . S
C513 H508 0.950 . S
C513 C515 1.327 . S
C513 C519 1.429 . S
C514 C506 1.574 . S
C514 H509 0.949 . S
C514 C520 1.368 1_565 S
C515 C499 1.356 . S
C515 H507 0.950 . S
C515 C513 1.327 . S
C516 C504 1.349 1_565 S
C516 H510 0.950 . S
C516 C517 1.327 . S
C517 H511 0.950 . S
C517 C516 1.327 . S
C517 C521 1.429 1_565 S
C518 C501 1.574 . S
C518 H512 0.949 . S
C518 C522 1.368 . S
C519 C500 1.429 1_545 S
C519 C513 1.429 . S
C519 C520 1.523 . S
C520 C501 1.368 . S
C520 C514 1.368 1_545 S
C520 C519 1.523 . S
C521 C505 1.429 . S
C521 C517 1.429 1_545 S
C521 C522 1.523 . S
C522 C506 1.368 1_545 S
C522 C518 1.368 . S
C522 C521 1.523 . S
H523 C498 0.950 . S
H524 C500 0.950 . S
H525 C501 0.949 . S
H526 C503 0.950 . S
H527 C505 0.950 . S
C528 C529 1.349 . S
C528 C530 1.327 . S
C528 H553 0.950 . S
C529 C528 1.349 . S
C529 C545 1.349 1_554 S
C530 C528 1.327 . S
C530 C549 1.429 1_554 S
C530 H554 0.950 . S
C531 C548 1.574 . S
C531 C550 1.368 . S
C531 H555 0.949 . S
H532 C536 0.949 . S
C533 C534 1.349 . S
C533 C535 1.327 . S
C533 H556 0.950 . S
C534 C533 1.349 . S
C534 C546 1.349 . S
C535 C533 1.327 . S
C535 C551 1.429 . S
C535 H557 0.950 . S
C536 H532 0.949 . S
C536 C544 1.574 . S
C536 C552 1.368 . S
H537 C545 0.950 . S
H538 C543 0.950 . S
H539 C544 0.949 . S
H540 C546 0.950 . S
H541 C547 0.950 . S
H542 C548 0.949 . S
C543 H538 0.950 . S
C543 C545 1.327 . S
C543 C549 1.429 . S
C544 C536 1.574 . S
C544 H539 0.949 . S
C544 C550 1.368 . S
C545 C529 1.349 1_556 S
C545 H537 0.950 . S
C545 C543 1.327 . S
C546 C534 1.349 . S
C546 H540 0.950 . S
C546 C547 1.327 . S
C547 H541 0.950 . S
C547 C546 1.327 . S
C547 C551 1.429 . S
C548 C531 1.574 . S
C548 H542 0.949 . S
C548 C552 1.368 . S
C549 C530 1.429 1_556 S
C549 C543 1.429 . S
C549 C550 1.523 . S
C550 C531 1.368 . S
C550 C544 1.368 . S
C550 C549 1.523 . S
C551 C535 1.429 . S
C551 C547 1.429 . S
C551 C552 1.523 . S
C552 C536 1.368 . S
C552 C548 1.368 . S
C552 C551 1.523 . S
H553 C528 0.950 . S
H554 C530 0.950 . S
H555 C531 0.949 . S
H556 C533 0.950 . S
H557 C535 0.950 . S
C558 C559 1.349 . S
C558 C560 1.327 . S
C558 H583 0.950 1_455 S
C559 C558 1.349 . S
C559 C575 1.349 . S
C560 C558 1.327 . S
C560 C579 1.429 . S
C560 H584 0.950 1_455 S
C561 C578 1.574 . S
C561 C580 1.368 . S
C561 H585 0.949 . S
H562 C566 0.949 1_655 S
C563 C564 1.349 . S
C563 C565 1.327 . S
C563 H586 0.950 . S
C564 C563 1.349 . S
C564 C576 1.349 . S
C565 C563 1.327 . S
C565 C581 1.429 . S
C565 H587 0.950 . S
C566 H562 0.949 1_455 S
C566 C574 1.574 . S
C566 C582 1.368 . S
H567 C575 0.950 . S
H568 C573 0.950 . S
H569 C574 0.949 1_655 S
H570 C576 0.950 1_655 S
H571 C577 0.950 1_655 S
H572 C578 0.949 . S
C573 H568 0.950 . S
C573 C575 1.327 . S
C573 C579 1.429 . S
C574 C566 1.574 . S
C574 H569 0.949 1_455 S
C574 C580 1.368 . S
C575 C559 1.349 . S
C575 H567 0.950 . S
C575 C573 1.327 . S
C576 C564 1.349 . S
C576 H570 0.950 1_455 S
C576 C577 1.327 . S
C577 H571 0.950 1_455 S
C577 C576 1.327 . S
C577 C581 1.429 . S
C578 C561 1.574 . S
C578 H572 0.949 . S
C578 C582 1.368 . S
C579 C560 1.429 . S
C579 C573 1.429 . S
C579 C580 1.523 . S
C580 C561 1.368 . S
C580 C574 1.368 . S
C580 C579 1.523 . S
C581 C565 1.429 . S
C581 C577 1.429 . S
C581 C582 1.523 . S
C582 C566 1.368 . S
C582 C578 1.368 . S
C582 C581 1.523 . S
H583 C558 0.950 1_655 S
H584 C560 0.950 1_655 S
H585 C561 0.949 . S
H586 C563 0.950 . S
H587 C565 0.950 . S
C234 C95 1.151 . S
C229 C11 1.153 . S
C259 C25 1.221 . S
C264 C139 1.221 . S
C289 C41 1.254 . S
C294 C201 1.299 . S
C319 C7 1.156 1_565 S
C324 C77 1.162 . S
C354 C157 1.230 . S
C349 C21 1.241 . S
C379 C36 1.255 . S
C384 C219 1.292 . S
C414 C133 1.497 . S
C409 C39 1.598 . S
C439 C8 1.606 1_665 S
C444 C195 1.544 . S
C474 C71 1.609 . S
C469 C22 1.665 1_565 S
C504 C151 1.509 . S
C499 C35 1.606 1_545 S
C534 C213 1.555 . S
C529 C13 1.598 . S
C559 C27 1.659 . S
C564 C89 1.603 . S
