# Generated by pormake.
# Topology anh, (6,3)-cn, num edge types: 1
# Building blocks:
#     Node 0, Type 0, BuildingBlock: HISSIN_clean_sbu_0, # of connection points: 6
#     Node 1, Type 0, BuildingBlock: HISSIN_clean_sbu_0, # of connection points: 6
#     Node 2, Type 0, BuildingBlock: HISSIN_clean_sbu_0, # of connection points: 6
#     Node 3, Type 1, BuildingBlock: BETDAH_clean_linker_0, # of connection points: 3
#     Node 4, Type 1, BuildingBlock: BETDAH_clean_linker_0, # of connection points: 3
#     Node 5, Type 1, BuildingBlock: BETDAH_clean_linker_0, # of connection points: 3
#     Node 6, Type 1, BuildingBlock: BETDAH_clean_linker_0, # of connection points: 3
#     Node 7, Type 1, BuildingBlock: BETDAH_clean_linker_0, # of connection points: 3
#     Node 8, Type 1, BuildingBlock: BETDAH_clean_linker_0, # of connection points: 3
#     Edge 9, Type (0, 1), BuildingBlock: UVAHIK_clean_linker_0, # of connection points: 2
#     Edge 10, Type (0, 1), BuildingBlock: UVAHIK_clean_linker_0, # of connection points: 2
#     Edge 11, Type (0, 1), BuildingBlock: UVAHIK_clean_linker_0, # of connection points: 2
#     Edge 12, Type (0, 1), BuildingBlock: UVAHIK_clean_linker_0, # of connection points: 2
#     Edge 13, Type (0, 1), BuildingBlock: UVAHIK_clean_linker_0, # of connection points: 2
#     Edge 14, Type (0, 1), BuildingBlock: UVAHIK_clean_linker_0, # of connection points: 2
#     Edge 15, Type (0, 1), BuildingBlock: UVAHIK_clean_linker_0, # of connection points: 2
#     Edge 16, Type (0, 1), BuildingBlock: UVAHIK_clean_linker_0, # of connection points: 2
#     Edge 17, Type (0, 1), BuildingBlock: UVAHIK_clean_linker_0, # of connection points: 2
#     Edge 18, Type (0, 1), BuildingBlock: UVAHIK_clean_linker_0, # of connection points: 2
#     Edge 19, Type (0, 1), BuildingBlock: UVAHIK_clean_linker_0, # of connection points: 2
#     Edge 20, Type (0, 1), BuildingBlock: UVAHIK_clean_linker_0, # of connection points: 2
#     Edge 21, Type (0, 1), BuildingBlock: UVAHIK_clean_linker_0, # of connection points: 2
#     Edge 22, Type (0, 1), BuildingBlock: UVAHIK_clean_linker_0, # of connection points: 2
#     Edge 23, Type (0, 1), BuildingBlock: UVAHIK_clean_linker_0, # of connection points: 2
#     Edge 24, Type (0, 1), BuildingBlock: UVAHIK_clean_linker_0, # of connection points: 2
#     Edge 25, Type (0, 1), BuildingBlock: UVAHIK_clean_linker_0, # of connection points: 2
#     Edge 26, Type (0, 1), BuildingBlock: UVAHIK_clean_linker_0, # of connection points: 2
# Relax obj value: 0.175
# Max RMSD: 0.139
# Mean RMSD: 0.102
data_MOF--net-anh--node1-HISSIN_clean_sbu_0--node2-BETDAH_clean_linker_0--edge1-UVAHIK_clean_linker_0
_symmetry_space_group_name_H-M    P1
_symmetry_Int_Tables_number       1
_symmetry_cell_setting            triclinic
loop_
_symmetry_equiv_pos_as_xyz
'x, y, z'
_cell_length_a     41.80342
_cell_length_b     41.853912
_cell_length_c     65.759538
_cell_angle_alpha  96.110533
_cell_angle_beta   92.021863
_cell_angle_gamma 119.94504
loop_
_atom_site_label
_atom_site_type_symbol
_atom_site_fract_x
_atom_site_fract_y
_atom_site_fract_z
_atom_type_partial_charge
Eu0 Eu 1.02075 0.51676 0.15146 0.0
Eu1 Eu 0.06372 0.60536 0.16078 0.0
C2 C 0.04197 0.55749 0.19895 0.0
C3 C 0.95592 0.41319 0.12884 0.0
C4 C 0.91973 0.40701 0.12935 0.0
C5 C 0.93193 0.35511 0.10577 0.0
C6 C 0.88971 0.3744 0.11869 0.0
C7 C 0.96186 0.38758 0.11649 0.0
C8 C 0.89542 0.34753 0.10734 0.0
C9 C 0.98757 0.44448 0.14201 0.0
O10 O 0.11442 0.59529 0.15924 0.0
O11 O 0.08284 0.53205 0.14974 0.0
C12 C 0.11514 0.56401 0.15368 0.0
O13 O 1.01701 0.53638 0.12135 0.0
O14 O 0.10443 0.65931 0.178 0.0
O15 O 0.06754 0.65624 0.15279 0.0
O16 O 0.07099 0.59162 0.12806 0.0
C17 C 0.04479 0.56487 0.11491 0.0
O18 O 0.97006 0.52664 0.15174 0.0
O19 O 1.00158 0.59017 0.15425 0.0
O20 O 0.04872 0.58844 0.19218 0.0
O21 O 1.01506 0.46762 0.13271 0.0
O22 O 0.98053 0.46119 0.15764 0.0
O23 O 1.03543 0.5281 0.1861 0.0
C24 C 0.12634 0.71056 0.15908 0.0
C25 C 0.11942 0.73757 0.15256 0.0
C26 C 0.19071 0.74768 0.15257 0.0
C27 C 0.14795 0.76958 0.14625 0.0
C28 C 0.16207 0.71552 0.15875 0.0
C29 C 0.18407 0.77529 0.14647 0.0
C30 C 0.09588 0.6779 0.16632 0.0
C31 C 0.96928 0.55816 0.15198 0.0
H32 H 0.91446 0.42656 0.13863 0.0
H33 H 0.93724 0.33518 0.09693 0.0
H34 H 0.86191 0.36925 0.12038 0.0
H35 H 0.98963 0.39201 0.11576 0.0
H36 H 0.09192 0.73407 0.15256 0.0
H37 H 0.21831 0.75141 0.15323 0.0
H38 H 0.14177 0.79001 0.14138 0.0
H39 H 0.16805 0.69493 0.16358 0.0
Eu40 Eu 0.57159 0.02885 0.48686 0.0
Eu41 Eu 0.52658 0.07159 0.49078 0.0
C42 C 0.55275 0.04967 0.53208 0.0
C43 C 0.60775 0.95909 0.4861 0.0
C44 C 0.61805 0.95587 0.50601 0.0
C45 C 0.60728 0.90232 0.47299 0.0
C46 C 0.62374 0.92657 0.50928 0.0
C47 C 0.60172 0.93167 0.46971 0.0
C48 C 0.61929 0.89999 0.49272 0.0
C49 C 0.60714 0.99258 0.48167 0.0
O50 O 0.58592 0.11936 0.48466 0.0
O51 O 0.61992 0.09139 0.4899 0.0
C52 C 0.61906 0.12185 0.4865 0.0
O53 O 0.57506 0.05119 0.45705 0.0
O54 O 0.51954 0.11634 0.50595 0.0
O55 O 0.48027 0.0782 0.48049 0.0
O56 O 0.52217 0.05389 0.45673 0.0
C57 C 0.54878 0.05335 0.44717 0.0
O58 O 0.5092 0.97967 0.48098 0.0
O59 O 0.47919 1.01026 0.49216 0.0
O60 O 0.54269 0.0712 0.5241 0.0
O61 O 0.58027 0.98768 0.46862 0.0
O62 O 0.61579 1.01915 0.49692 0.0
O63 O 0.56122 0.02808 0.52042 0.0
C64 C 0.49578 0.14111 0.48355 0.0
C65 C 0.50859 0.14736 0.46409 0.0
C66 C 0.49885 0.20081 0.48778 0.0
C67 C 0.517 0.18047 0.45665 0.0
C68 C 0.49013 0.16759 0.4951 0.0
C69 C 0.51328 0.2081 0.46868 0.0
C70 C 0.49188 0.10915 0.49286 0.0
C71 C 0.47769 0.97824 0.48563 0.0
H72 H 0.6231 0.97667 0.51894 0.0
H73 H 0.6031 0.88199 0.45998 0.0
H74 H 0.63339 0.92582 0.52463 0.0
H75 H 0.59394 0.93363 0.4542 0.0
H76 H 0.51335 0.12728 0.45496 0.0
H77 H 0.49626 0.22161 0.49768 0.0
H78 H 0.5276 0.18493 0.4418 0.0
H79 H 0.48056 0.16332 0.51021 0.0
Eu80 Eu 0.53169 0.52857 0.81721 0.0
Eu81 Eu 0.61842 0.57445 0.82957 0.0
C82 C 0.56414 0.55223 0.86547 0.0
C83 C 0.4375 0.49819 0.79086 0.0
C84 C 0.45354 0.52837 0.77971 0.0
C85 C 0.37635 0.4837 0.77743 0.0
C86 C 0.43103 0.5367 0.76784 0.0
C87 C 0.3989 0.4754 0.78929 0.0
C88 C 0.39216 0.51503 0.76702 0.0
C89 C 0.4609 0.49161 0.80487 0.0
O90 O 0.60651 0.51274 0.82789 0.0
O91 O 0.54531 0.48031 0.81516 0.0
C92 C 0.57617 0.48014 0.82072 0.0
O93 O 0.55792 0.54908 0.7883 0.0
O94 O 0.66761 0.58782 0.84949 0.0
O95 O 0.67306 0.61758 0.82353 0.0
O96 O 0.61059 0.54887 0.79691 0.0
C97 C 0.58754 0.54862 0.78296 0.0
O98 O 0.54293 0.58984 0.81889 0.0
O99 O 0.60637 0.62188 0.82251 0.0
O100 O 0.59528 0.57778 0.85967 0.0
O101 O 0.48507 0.48499 0.79633 0.0
O102 O 0.47515 0.51507 0.82188 0.0
O103 O 0.53759 0.52673 0.85169 0.0
C104 C 0.71911 0.60213 0.83089 0.0
C105 C 0.72213 0.59448 0.8099 0.0
C106 C 0.7683 0.5897 0.8397 0.0
C107 C 0.74812 0.58462 0.8039 0.0
C108 C 0.74262 0.59995 0.84571 0.0
C109 C 0.77113 0.58174 0.81876 0.0
C110 C 0.69023 0.6101 0.83757 0.0
C111 C 0.57469 0.62214 0.81973 0.0
H112 H 0.48343 0.54615 0.78072 0.0
H113 H 0.34654 0.46682 0.77743 0.0
H114 H 0.44401 0.56084 0.7599 0.0
H115 H 0.38619 0.45199 0.79781 0.0
H116 H 0.70411 0.59559 0.7981 0.0
H117 H 0.78615 0.58823 0.85146 0.0
H118 H 0.74974 0.57852 0.78766 0.0
H119 H 0.74072 0.60566 0.86195 0.0
H120 H 0.51159 0.02918 0.22104 0.0
H121 H 0.61549 0.03162 0.22991 0.0
H122 H 0.56831 1.02219 0.16905 0.0
C123 C 0.53515 0.02893 0.21486 0.0
C124 C 0.53626 0.02479 0.19346 0.0
C125 C 0.56359 0.03159 0.22829 0.0
C126 C 0.59354 0.03032 0.21996 0.0
C127 C 0.59577 0.02787 0.19873 0.0
C128 C 0.56707 0.02504 0.18553 0.0
N129 N 0.6272 0.02851 0.1909 0.0
C130 C 0.64149 0.04579 0.17386 0.0
H131 H 0.67069 0.53612 0.5657 0.0
H132 H 0.76156 0.64344 0.59274 0.0
H133 H 0.75117 0.60791 0.5281 0.0
C134 C 0.69571 0.56196 0.56421 0.0
C135 C 0.70894 0.56825 0.54481 0.0
C136 C 0.71427 0.58884 0.58167 0.0
C137 C 0.7468 0.62217 0.57956 0.0
C138 C 0.75999 0.62882 0.5603 0.0
C139 C 0.74113 0.60198 0.543 0.0
N140 N 0.7898 0.66423 0.55796 0.0
C141 C 0.78147 0.6891 0.55035 0.0
H142 H 0.04839 0.56447 0.89061 0.0
H143 H 0.16515 0.61252 0.90791 0.0
H144 H 0.12479 0.5957 0.84448 0.0
C145 C 0.0763 0.57492 0.88628 0.0
C146 C 0.0829 0.57804 0.86556 0.0
C147 C 0.10564 0.58703 0.90169 0.0
C148 C 0.14211 0.60299 0.89624 0.0
C149 C 0.14921 0.60613 0.87571 0.0
C150 C 0.11949 0.59332 0.86039 0.0
N151 N 0.18652 0.62264 0.87094 0.0
C152 C 0.19592 0.62035 0.85102 0.0
H153 H 0.11233 0.6174 0.42115 0.0
H154 H 1.01035 0.51664 0.42665 0.0
H155 H 0.08494 0.58484 0.4811 0.0
C156 C 0.09397 0.59845 0.431 0.0
C157 C 0.10478 0.60667 0.45234 0.0
C158 C 0.06047 0.56676 0.42169 0.0
C159 C 1.03582 0.54082 0.43395 0.0
C160 C 0.04329 0.54625 0.45553 0.0
C161 C 0.07824 0.57994 0.46461 0.0
N162 N 1.01704 0.5192 0.46826 0.0
C163 C 0.98144 0.48421 0.46397 0.0
H164 H 0.57402 0.12132 0.75623 0.0
H165 H 0.57529 1.01961 0.7606 0.0
H166 H 0.57578 0.08718 0.81551 0.0
C167 C 0.57527 0.1022 0.76567 0.0
C168 C 0.57598 0.11032 0.78707 0.0
C169 C 0.5752 0.07021 0.7559 0.0
C170 C 0.57497 0.04381 0.76799 0.0
C171 C 0.57497 0.0486 0.78959 0.0
C172 C 0.57534 0.08241 0.79897 0.0
N173 N 0.57498 1.021 0.80208 0.0
C174 C 0.57495 0.98596 0.79763 0.0
H175 H 0.61519 0.5565 0.0866 0.0
H176 H 0.51303 0.55663 0.09333 0.0
H177 H 0.57944 0.56157 0.14703 0.0
C178 C 0.59552 0.55722 0.09666 0.0
C179 C 0.60318 0.55942 0.11803 0.0
C180 C 0.56352 0.556 0.08765 0.0
C181 C 0.53736 0.55753 0.10033 0.0
C182 C 0.5418 0.55939 0.12185 0.0
C183 C 0.57512 0.55998 0.13055 0.0
N184 N 0.51401 0.56067 0.13485 0.0
C185 C 0.47944 0.56077 0.13075 0.0
C186 C 0.18871 0.59724 0.15477 0.0
C187 C 0.15303 0.56431 0.15142 0.0
C188 C 0.22295 0.5971 0.15242 0.0
C189 C 0.26368 0.5322 0.13406 0.0
H190 H 0.35809 0.61936 0.15469 0.0
C191 C 0.40695 0.52857 0.1286 0.0
C192 C 0.44262 0.56139 0.13156 0.0
C193 C 0.37285 0.52902 0.13073 0.0
C194 C 0.33246 0.59436 0.14848 0.0
H195 H 0.12868 0.50485 0.14268 0.0
H196 H 0.18633 0.50437 0.13888 0.0
H197 H 0.3008 0.62001 0.15873 0.0
H198 H 0.46753 0.62098 0.13961 0.0
H199 H 0.40987 0.62208 0.14297 0.0
H200 H 0.29532 0.50655 0.12381 0.0
C201 C 0.18859 0.53111 0.1432 0.0
C202 C 0.29839 0.59475 0.15089 0.0
C203 C 0.15445 0.53129 0.14555 0.0
C204 C 0.44157 0.5947 0.13687 0.0
C205 C 0.40751 0.59521 0.13903 0.0
C206 C 0.29773 0.53181 0.13166 0.0
C207 C 0.22451 0.564 0.14649 0.0
C208 C 0.26234 0.56367 0.14381 0.0
C209 C 0.37152 0.56237 0.13613 0.0
C210 C 0.33377 0.56286 0.13876 0.0
H211 H 0.19041 0.62374 0.1592 0.0
H212 H 0.24844 0.62371 0.15514 0.0
H213 H 0.2381 0.50719 0.12783 0.0
H214 H 0.4052 0.50189 0.1248 0.0
H215 H 0.3473 0.50244 0.12839 0.0
C216 C 0.65711 0.19269 0.48025 0.0
C217 C 0.65622 0.15942 0.48421 0.0
C218 C 0.69093 0.22663 0.47792 0.0
C219 C 0.799 0.26954 0.47371 0.0
H220 H 0.79984 0.36248 0.47535 0.0
C221 C 0.94307 0.41341 0.46786 0.0
C222 C 0.94441 0.44717 0.46469 0.0
C223 C 0.90906 0.37952 0.46993 0.0
C224 C 0.8011 0.33722 0.47461 0.0
H225 H 0.69414 0.13911 0.48859 0.0
H226 H 0.7514 0.19642 0.48483 0.0
H227 H 0.7429 0.30564 0.47932 0.0
H228 H 0.90744 0.46889 0.46169 0.0
H229 H 0.84958 0.41146 0.46489 0.0
H230 H 0.85712 0.30101 0.46899 0.0
C231 C 0.7258 0.19683 0.48327 0.0
C232 C 0.7672 0.30339 0.47697 0.0
C233 C 0.692 0.16296 0.48562 0.0
C234 C 0.909 0.44439 0.46383 0.0
C235 C 0.87494 0.4105 0.4659 0.0
C236 C 0.83288 0.30334 0.47134 0.0
C237 C 0.72693 0.23033 0.4793 0.0
C238 C 0.76449 0.26789 0.47665 0.0
C239 C 0.87332 0.37641 0.46913 0.0
C240 C 0.83563 0.33887 0.47169 0.0
H241 H 0.63122 0.19267 0.47883 0.0
H242 H 0.68832 0.25009 0.47476 0.0
H243 H 0.80024 0.24427 0.47295 0.0
H244 H 0.96882 0.41311 0.46902 0.0
H245 H 0.91139 0.35567 0.47253 0.0
C246 C 0.60781 0.69492 0.81821 0.0
C247 C 0.57475 0.65962 0.81732 0.0
C248 C 0.60786 0.72895 0.81592 0.0
C249 C 0.54278 0.76952 0.80258 0.0
H250 H 0.63286 0.86479 0.81674 0.0
C251 C 0.54191 0.91363 0.7973 0.0
C252 C 0.57496 0.94886 0.79824 0.0
C253 C 0.54187 0.87951 0.79931 0.0
C254 C 0.60699 0.8389 0.81239 0.0
H255 H 0.51519 0.63573 0.81297 0.0
H256 H 0.51504 0.69319 0.80922 0.0
H257 H 0.63281 0.80766 0.82061 0.0
H258 H 0.63448 0.97292 0.80255 0.0
H259 H 0.63472 0.91521 0.80567 0.0
H260 H 0.51697 0.80077 0.79437 0.0
C261 C 0.54174 0.69521 0.81158 0.0
C262 C 0.60696 0.80489 0.8147 0.0
C263 C 0.54173 0.66121 0.81389 0.0
C264 C 0.608 0.94731 0.80141 0.0
C265 C 0.60802 0.91322 0.80343 0.0
C266 C 0.54281 0.80354 0.80027 0.0
C267 C 0.57481 0.73076 0.81248 0.0
C268 C 0.57485 0.76852 0.80991 0.0
C269 C 0.57494 0.87767 0.80256 0.0
C270 C 0.57492 0.8399 0.80507 0.0
H271 H 0.63432 0.69649 0.82069 0.0
H272 H 0.63457 0.75406 0.81668 0.0
H273 H 0.51691 0.74363 0.79824 0.0
H274 H 0.51543 0.91229 0.79523 0.0
H275 H 0.51516 0.85441 0.7986 0.0
C276 C 0.89564 0.52505 0.14772 0.0
C277 C 0.93125 0.55796 0.14948 0.0
C278 C 0.86118 0.52522 0.14539 0.0
C279 C 0.8192 0.58886 0.1349 0.0
H280 H 0.72691 0.50592 0.14672 0.0
C281 C 0.67441 0.58451 0.11646 0.0
C282 C 0.64113 0.56182 0.12537 0.0
C283 C 0.7083 0.58409 0.12014 0.0
C284 C 0.75205 0.52982 0.14332 0.0
H285 H 0.95528 0.61739 0.14994 0.0
H286 H 0.89715 0.61787 0.14605 0.0
H287 H 0.78481 0.50504 0.15127 0.0
H288 H 0.62086 0.52012 0.14585 0.0
H289 H 0.67907 0.51953 0.15244 0.0
H290 H 0.7868 0.61387 0.12716 0.0
C291 C 0.8952 0.59117 0.14627 0.0
C292 C 0.78625 0.52917 0.14583 0.0
C293 C 0.92957 0.59099 0.14869 0.0
C294 C 0.64486 0.53881 0.13865 0.0
C295 C 0.67899 0.53815 0.14225 0.0
C296 C 0.78507 0.58941 0.13229 0.0
C297 C 0.8594 0.55831 0.1445 0.0
C298 C 0.82142 0.55871 0.14174 0.0
C299 C 0.71218 0.56066 0.13301 0.0
C300 C 0.74989 0.55993 0.13634 0.0
H301 H 0.89417 0.49856 0.14811 0.0
H302 H 0.83564 0.4987 0.14401 0.0
H303 H 0.84412 0.6126 0.13118 0.0
H304 H 0.67428 0.60284 0.10606 0.0
H305 H 0.73145 0.60199 0.11217 0.0
C306 C 0.43623 0.90474 0.47635 0.0
C307 C 0.43956 0.93979 0.48332 0.0
C308 C 0.40146 0.86981 0.47407 0.0
C309 C 0.29536 0.82347 0.4843 0.0
H310 H 0.28813 0.73569 0.45374 0.0
C311 C 0.15107 0.67252 0.47536 0.0
C312 C 0.14416 0.6429 0.45969 0.0
C313 C 0.18606 0.70765 0.479 0.0
C314 C 0.28849 0.7594 0.4623 0.0
H315 H 0.40503 0.96227 0.49321 0.0
H316 H 0.34601 0.90326 0.48927 0.0
H317 H 0.34611 0.7945 0.45767 0.0
H318 H 0.17266 0.63032 0.43606 0.0
H319 H 0.23106 0.68883 0.44209 0.0
H320 H 0.23733 0.78813 0.48864 0.0
C321 C 0.37044 0.9021 0.4856 0.0
C322 C 0.32317 0.79434 0.46483 0.0
C323 C 0.40523 0.93702 0.48786 0.0
C324 C 0.17527 0.65105 0.44839 0.0
C325 C 0.20994 0.68574 0.45202 0.0
C326 C 0.26058 0.7884 0.48178 0.0
C327 C 0.36687 0.86682 0.47856 0.0
C328 C 0.32831 0.82809 0.4759 0.0
C329 C 0.21699 0.71591 0.46732 0.0
C330 C 0.25549 0.75473 0.47059 0.0
H331 H 0.4609 0.90407 0.47256 0.0
H332 H 0.40222 0.84486 0.46886 0.0
H333 H 0.29608 0.84714 0.49315 0.0
H334 H 0.12886 0.6692 0.48451 0.0
H335 H 0.18852 0.72855 0.49114 0.0
C336 C 0.544 0.40666 0.81272 0.0
C337 C 0.57659 0.44219 0.81855 0.0
C338 C 0.54413 0.37201 0.81054 0.0
C339 C 0.6094 0.32923 0.80745 0.0
H340 H 0.51953 0.23611 0.81067 0.0
C341 C 0.60488 0.18238 0.78795 0.0
C342 C 0.57847 0.14881 0.79503 0.0
C343 C 0.60485 0.21687 0.79168 0.0
C344 C 0.54535 0.26146 0.80974 0.0
H345 H 0.63554 0.46588 0.82641 0.0
H346 H 0.63596 0.40713 0.82261 0.0
H347 H 0.51918 0.29474 0.8151 0.0
H348 H 0.53009 0.12843 0.81186 0.0
H349 H 0.53 0.18757 0.81848 0.0
H350 H 0.63564 0.29613 0.80217 0.0
C351 C 0.60961 0.40559 0.81957 0.0
C352 C 0.54509 0.29609 0.81216 0.0
C353 C 0.6094 0.44024 0.82194 0.0
C354 C 0.55183 0.15271 0.80633 0.0
C355 C 0.55152 0.18737 0.8099 0.0
C356 C 0.60958 0.29462 0.80483 0.0
C357 C 0.57695 0.36989 0.81379 0.0
C358 C 0.57713 0.33156 0.81114 0.0
C359 C 0.57794 0.22093 0.80259 0.0
C360 C 0.57758 0.25915 0.80585 0.0
H361 H 0.51772 0.40539 0.80976 0.0
H362 H 0.51791 0.3466 0.80589 0.0
H363 H 0.63516 0.35446 0.80624 0.0
H364 H 0.62577 0.18189 0.77886 0.0
H365 H 0.62583 0.24034 0.78523 0.0
C366 C 0.62243 0.85446 0.51349 0.0
C367 C 0.63023 0.872 0.49577 0.0
C368 C 0.63627 0.83121 0.51734 0.0
C369 C 0.71315 0.81607 0.50523 0.0
H370 H 0.65842 0.72736 0.53103 0.0
C371 C 0.77265 0.72253 0.52404 0.0
C372 C 0.76645 0.71071 0.54338 0.0
C373 C 0.75508 0.74069 0.51677 0.0
C374 C 0.67411 0.75222 0.52394 0.0
H375 H 0.6578 0.878 0.46788 0.0
H376 H 0.68112 0.83673 0.47436 0.0
H377 H 0.62758 0.76016 0.52031 0.0
H378 H 0.73765 0.70791 0.5704 0.0
H379 H 0.70729 0.74017 0.55792 0.0
H380 H 0.7598 0.80837 0.5091 0.0
C381 C 0.66474 0.84137 0.48542 0.0
C382 C 0.65645 0.77096 0.5178 0.0
C383 C 0.65096 0.86464 0.48159 0.0
C384 C 0.74289 0.71726 0.55547 0.0
C385 C 0.72528 0.73528 0.54823 0.0
C386 C 0.73079 0.79728 0.51135 0.0
C387 C 0.65819 0.82501 0.50353 0.0
C388 C 0.67592 0.80337 0.50863 0.0
C389 C 0.73092 0.74691 0.52873 0.0
C390 C 0.71161 0.76549 0.52104 0.0
H391 H 0.6062 0.85927 0.52459 0.0
H392 H 0.63093 0.81922 0.53152 0.0
H393 H 0.72909 0.84127 0.49848 0.0
H394 H 0.79046 0.71713 0.51444 0.0
H395 H 0.75971 0.74909 0.50162 0.0
C396 C 0.82292 0.58895 0.7981 0.0
C397 C 0.7985 0.57099 0.8126 0.0
C398 C 0.85192 0.58227 0.79439 0.0
C399 C 0.89064 0.52187 0.80438 0.0
H400 H 0.98359 0.6155 0.81669 0.0
C401 C 1.01623 0.53755 0.85097 0.0
C402 C 0.05183 0.56781 0.84971 0.0
C403 C 0.98578 0.53184 0.83835 0.0
C404 C 0.95821 0.58895 0.81259 0.0
H405 H 0.78312 0.52977 0.83329 0.0
H406 H 0.83384 0.51827 0.82696 0.0
H407 H 0.92698 0.61583 0.80834 0.0
H408 H 0.08371 0.61375 0.83274 0.0
H409 H 1.03098 0.60263 0.8101 0.0
H410 H 0.92182 0.49505 0.80946 0.0
C411 C 0.83067 0.53743 0.81841 0.0
C412 C 0.92561 0.58921 0.80783 0.0
C413 C 0.80195 0.54436 0.82225 0.0
C414 C 0.05675 0.59015 0.83422 0.0
C415 C 1.02637 0.58406 0.82136 0.0
C416 C 0.92339 0.52157 0.80894 0.0
C417 C 0.85667 0.55721 0.80496 0.0
C418 C 0.89132 0.55581 0.80462 0.0
C419 C 0.99028 0.55595 0.82393 0.0
C420 C 0.95731 0.55523 0.81409 0.0
H421 H 0.82079 0.60959 0.79045 0.0
H422 H 0.87152 0.59778 0.78389 0.0
H423 H 0.86455 0.49568 0.80168 0.0
H424 H 1.01158 0.51915 0.86235 0.0
H425 H 0.95847 0.50997 0.8409 0.0
C426 C 0.21781 0.845 0.14925 0.0
C427 C 0.2153 0.81096 0.14182 0.0
C428 C 0.24982 0.87874 0.14772 0.0
C429 C 0.32979 0.9364 0.16093 0.0
H430 H 0.39838 0.95199 0.11978 0.0
C431 C 0.48948 0.98639 0.16339 0.0
C432 C 0.50346 1.01621 0.17953 0.0
C433 C 0.45463 0.97291 0.15289 0.0
C434 C 0.37944 0.94829 0.13133 0.0
H435 H 0.24299 0.78581 0.12519 0.0
H436 H 0.29936 0.84448 0.12327 0.0
H437 H 0.33285 0.90464 0.11151 0.0
H438 H 0.49383 0.05799 0.1958 0.0
H439 H 0.43274 0.03442 0.17739 0.0
H440 H 0.37633 0.97803 0.18119 0.0
C441 C 0.2765 0.84526 0.13007 0.0
C442 C 0.34196 0.92116 0.12661 0.0
C443 C 0.24439 0.81152 0.13148 0.0
C444 C 0.48336 0.03444 0.18371 0.0
C445 C 0.44847 1.02101 0.17314 0.0
C446 C 0.36713 0.96342 0.16564 0.0
C447 C 0.28014 0.87919 0.13888 0.0
C448 C 0.31711 0.91371 0.1417 0.0
C449 C 0.43299 0.989 0.1583 0.0
C450 C 0.39272 0.96838 0.15124 0.0
H451 H 0.19598 0.84565 0.15734 0.0
H452 H 0.25156 0.90443 0.15439 0.0
H453 H 0.3116 0.93126 0.17302 0.0
H454 H 0.50415 0.97157 0.15989 0.0
H455 H 0.44349 0.94797 0.14173 0.0
C456 C 0.56273 0.26287 0.4543 0.0
C457 C 0.52861 0.24602 0.4628 0.0
C458 C 0.58152 0.301 0.45314 0.0
C459 C 0.57635 0.38799 0.46386 0.0
H460 H 0.67586 0.42743 0.49003 0.0
C461 C 0.65032 0.51835 0.52393 0.0
C462 C 0.6893 0.53922 0.52664 0.0
C463 C 0.63188 0.48762 0.50857 0.0
C464 C 0.64858 0.41731 0.48223 0.0
H465 H 0.4854 0.25518 0.47427 0.0
H466 H 0.51891 0.32185 0.47322 0.0
H467 H 0.64003 0.3626 0.47537 0.0
H468 H 0.73942 0.54596 0.51431 0.0
H469 H 0.70718 0.49272 0.48721 0.0
H470 H 0.58453 0.44272 0.47201 0.0
C471 C 0.53112 0.30571 0.46726 0.0
C472 C 0.6279 0.3799 0.47374 0.0
C473 C 0.5121 0.26748 0.46818 0.0
C474 C 0.70936 0.53039 0.51267 0.0
C475 C 0.6909 0.49973 0.49723 0.0
C476 C 0.59711 0.42557 0.47242 0.0
C477 C 0.56691 0.32322 0.46072 0.0
C478 C 0.59102 0.36439 0.46517 0.0
C479 C 0.65203 0.47718 0.49551 0.0
C480 C 0.63294 0.44023 0.48242 0.0
H481 H 0.57639 0.24735 0.44997 0.0
H482 H 0.60866 0.31348 0.44755 0.0
H483 H 0.54824 0.37706 0.45705 0.0
H484 H 0.63404 0.52499 0.53414 0.0
H485 H 0.60195 0.47079 0.50779 0.0
C486 C 0.37826 0.56553 0.76289 0.0
C487 C 0.36823 0.52797 0.75817 0.0
C488 C 0.35213 0.5764 0.7598 0.0
C489 C 0.29187 0.5949 0.75529 0.0
H490 H 0.21068 0.52523 0.78294 0.0
C491 C 0.1795 0.5845 0.81644 0.0
C492 C 0.20526 0.61497 0.83063 0.0
C493 C 0.1904 0.57559 0.79786 0.0
C494 C 0.23233 0.5448 0.77469 0.0
H495 H 0.32469 0.4734 0.74373 0.0
H496 H 0.27891 0.49245 0.73819 0.0
H497 H 0.24809 0.50495 0.76499 0.0
H498 H 0.26144 0.66149 0.83652 0.0
H499 H 0.28102 0.64571 0.80432 0.0
H500 H 0.27767 0.63562 0.76675 0.0
C501 C 0.30672 0.51333 0.74478 0.0
C502 C 0.25393 0.53306 0.76426 0.0
C503 C 0.33289 0.50239 0.74799 0.0
C504 C 0.24125 0.63789 0.82564 0.0
C505 C 0.25224 0.629 0.8071 0.0
C506 C 0.27029 0.60671 0.76584 0.0
C507 C 0.31538 0.54994 0.7519 0.0
C508 C 0.28551 0.55864 0.75568 0.0
C509 C 0.22733 0.5969 0.79335 0.0
C510 C 0.24184 0.58235 0.77677 0.0
H511 H 0.40518 0.58597 0.77082 0.0
H512 H 0.35992 0.60479 0.76562 0.0
H513 H 0.3154 0.61502 0.74834 0.0
H514 H 0.15151 0.56653 0.82013 0.0
H515 H 0.17052 0.5509 0.78753 0.0
C516 C 0.86533 0.27841 0.10391 0.0
C517 C 0.86348 0.30978 0.09992 0.0
C518 C 0.83349 0.24328 0.10118 0.0
C519 C 0.73467 0.2055 0.10509 0.0
H520 H 0.73886 0.11485 0.10366 0.0
C521 C 0.66834 0.10683 0.1627 0.0
C522 C 0.6563 0.06894 0.15808 0.0
C523 C 0.68423 0.13047 0.14807 0.0
C524 C 0.73653 0.13948 0.10365 0.0
H525 H 0.82761 0.32835 0.08784 0.0
H526 H 0.77176 0.26661 0.08273 0.0
H527 H 0.78524 0.16644 0.08806 0.0
H528 H 0.6496 0.02502 0.13471 0.0
H529 H 0.67752 0.06655 0.10872 0.0
H530 H 0.68625 0.17872 0.12088 0.0
C531 C 0.79774 0.26937 0.08849 0.0
C532 C 0.76346 0.16931 0.09491 0.0
C533 C 0.82969 0.30473 0.0914 0.0
C534 C 0.65913 0.05443 0.13848 0.0
C535 C 0.67504 0.07815 0.1237 0.0
C536 C 0.70742 0.17549 0.1135 0.0
C537 C 0.79894 0.23853 0.09429 0.0
C538 C 0.76435 0.20357 0.09684 0.0
C539 C 0.68819 0.11658 0.12845 0.0
C540 C 0.70958 0.14315 0.11416 0.0
H541 H 0.89078 0.2813 0.11073 0.0
H542 H 0.83569 0.22055 0.10615 0.0
H543 H 0.73411 0.23122 0.10681 0.0
H544 H 0.66622 0.11835 0.17782 0.0
H545 H 0.69479 0.15995 0.15251 0.0
C546 C 1.02203 0.53667 0.07798 0.0
C547 C 0.04752 0.56663 0.09266 0.0
C548 C 1.02584 0.53811 0.05699 0.0
C549 C 0.07016 0.60393 0.0198 0.0
H550 H 0.06084 0.51795 -0.01465 0.0
C551 C 0.12067 0.61305 0.9392 0.0
C552 C 0.09805 0.58368 0.92348 0.0
C553 C 0.11289 0.61023 0.95962 0.0
C554 C 0.06308 0.54203 -0.0053 0.0
H555 H 0.09668 0.62177 0.09681 0.0
H556 H 0.10335 0.62411 0.06037 0.0
H557 H 0.04897 0.51432 0.02134 0.0
H558 H 0.04995 0.52801 0.91692 0.0
H559 H 1.03601 0.52333 0.95255 0.0
H560 H 0.08451 0.63176 -0.00675 0.0
C561 C 0.08023 0.59967 0.065 0.0
C562 C 0.05624 0.53993 0.01531 0.0
C563 C 0.07652 0.5982 0.08592 0.0
C564 C 0.06768 0.55128 0.92867 0.0
C565 C 0.05991 0.54844 0.9491 0.0
C566 C 0.07697 0.60603 -0.00078 0.0
C567 C 0.05508 0.5696 0.0503 0.0
C568 C 0.06008 0.57099 0.02813 0.0
C569 C 0.08232 0.57796 0.96479 0.0
C570 C 0.07388 0.57523 -0.01351 0.0
H571 H 0.99938 0.51195 0.08267 0.0
H572 H 1.00582 0.51464 0.04599 0.0
H573 H 0.07275 0.62814 0.02921 0.0
H574 H 0.14407 0.63851 0.93569 0.0
H575 H 0.13098 0.63327 0.9714 0.0
C576 C 0.51717 0.04263 0.41194 0.0
C577 C 0.54979 0.05533 0.42493 0.0
C578 C 0.51833 0.04188 0.39066 0.0
C579 C 0.57884 0.04294 0.35027 0.0
H580 H 0.51247 0.0589 0.31573 0.0
C581 C 0.59414 0.05829 0.26444 0.0
C582 C 0.56176 0.03536 0.25093 0.0
C583 C 0.59243 0.06179 0.28568 0.0
C584 C 0.53104 0.05426 0.32524 0.0
H585 H 0.60943 0.07934 0.42612 0.0
H586 H 0.61176 0.07961 0.3893 0.0
H587 H 0.51027 0.06451 0.35296 0.0
H588 H 0.50218 0.9978 0.24936 0.0
H589 H 0.49925 1.00501 0.28641 0.0
H590 H 0.60013 0.03358 0.32252 0.0
C591 C 0.585 0.06866 0.39526 0.0
C592 C 0.5297 0.05728 0.34654 0.0
C593 C 0.58373 0.06876 0.41641 0.0
C594 C 0.5276 1.0163 0.25922 0.0
C595 C 0.52585 1.02027 0.28044 0.0
C596 C 0.58054 0.0405 0.32905 0.0
C597 C 0.55225 0.05441 0.38202 0.0
C598 C 0.5536 0.05162 0.35934 0.0
C599 C 0.55827 0.04287 0.29385 0.0
C600 C 0.55662 0.04605 0.31635 0.0
H601 H 0.49062 0.03205 0.41814 0.0
H602 H 0.49249 0.0304 0.38096 0.0
H603 H 0.59703 0.03742 0.3595 0.0
H604 H 0.62081 0.07393 0.25863 0.0
H605 H 0.61779 0.07965 0.29573 0.0
C606 C 0.62974 0.55138 0.75649 0.0
C607 C 0.59625 0.54907 0.76135 0.0
C608 C 0.63909 0.55289 0.73635 0.0
C609 C 0.61975 0.57648 0.68676 0.0
H610 H 0.67279 0.52726 0.66702 0.0
C611 C 0.69899 0.61161 0.61476 0.0
C612 C 0.69887 0.58251 0.60186 0.0
C613 C 0.68372 0.60546 0.6335 0.0
C614 C 0.6576 0.54081 0.67213 0.0
H615 H 0.54604 0.54615 0.74879 0.0
H616 H 0.56219 0.54822 0.71333 0.0
H617 H 0.64931 0.51841 0.70046 0.0
H618 H 0.68282 0.52413 0.5987 0.0
H619 H 0.6552 0.51312 0.63104 0.0
H620 H 0.62748 0.59832 0.6582 0.0
C621 C 0.58143 0.54936 0.72526 0.0
C622 C 0.64452 0.53611 0.69145 0.0
C623 C 0.57208 0.54798 0.74553 0.0
C624 C 0.68306 0.54709 0.60815 0.0
C625 C 0.66758 0.54088 0.62683 0.0
C626 C 0.63266 0.58102 0.66734 0.0
C627 C 0.61511 0.55189 0.72047 0.0
C628 C 0.626 0.55438 0.69916 0.0
C629 C 0.66777 0.57 0.63976 0.0
C630 C 0.65221 0.56365 0.65991 0.0
H631 H 0.64916 0.55248 0.76828 0.0
H632 H 0.66558 0.5556 0.73333 0.0
H633 H 0.60581 0.59115 0.69227 0.0
H634 H 0.71046 0.6391 0.61027 0.0
H635 H 0.68485 0.62867 0.6432 0.0
C636 C 0.55974 0.08101 0.56835 0.0
C637 C 0.55488 0.05006 0.55494 0.0
C638 C 0.56223 0.08172 0.5898 0.0
C639 C 0.57315 0.03042 0.63156 0.0
H640 H 0.54649 0.09337 0.66548 0.0
C641 C 0.55554 0.02973 0.72061 0.0
C642 C 0.57527 0.06516 0.73273 0.0
C643 C 0.55344 0.02601 0.69893 0.0
C644 C 0.5541 0.07565 0.65623 0.0
H645 H 0.5482 0.99516 0.55387 0.0
H646 H 0.55038 0.9953 0.59093 0.0
H647 H 0.5405 0.09 0.62831 0.0
H648 H 0.6105 0.12417 0.73082 0.0
H649 H 0.60503 0.11762 0.69349 0.0
H650 H 0.58509 1.01508 0.6599 0.0
C651 C 0.5538 1.01993 0.58513 0.0
C652 C 0.55105 0.07393 0.63473 0.0
C653 C 0.55221 1.01963 0.56367 0.0
C654 C 0.59381 0.09644 0.72233 0.0
C655 C 0.59098 0.09276 0.70079 0.0
C656 C 0.57531 0.0315 0.65308 0.0
C657 C 0.55899 0.05106 0.59871 0.0
C658 C 0.56102 0.0517 0.62188 0.0
C659 C 0.57045 0.05761 0.68875 0.0
C660 C 0.56627 0.05451 0.66573 0.0
H661 H 0.56235 0.10517 0.56227 0.0
H662 H 0.56726 0.10681 0.59931 0.0
H663 H 0.58181 1.01337 0.62263 0.0
H664 H 0.5407 1.00488 0.7278 0.0
H665 H 0.53741 0.99848 0.69011 0.0
C666 C 0.58746 0.58104 0.90258 0.0
C667 C 0.5599 0.55208 0.88808 0.0
C668 C 0.58471 0.58077 0.9238 0.0
C669 C 0.56435 0.58415 0.9679 0.0
H670 H 0.52845 0.49123 -0.01004 0.0
C671 C 0.54691 0.57548 0.05533 0.0
C672 C 0.55801 0.55322 0.06458 0.0
C673 C 0.5444 0.57451 0.03382 0.0
C674 C 0.53871 0.51753 -0.01586 0.0
H675 H 0.50749 0.50004 0.88498 0.0
H676 H 0.50261 0.49957 0.92199 0.0
H677 H 0.52972 0.4915 0.95289 0.0
H678 H 0.57369 0.51132 0.05798 0.0
H679 H 0.56962 0.50981 0.02081 0.0
H680 H 0.57409 0.61031 -0.00085 0.0
C681 C 0.52663 0.5225 0.91688 0.0
C682 C 0.53904 0.51762 0.96274 0.0
C683 C 0.52929 0.52288 0.89557 0.0
C684 C 0.56549 0.52924 0.05155 0.0
C685 C 0.56276 0.52809 0.0301 0.0
C686 C 0.56383 0.58404 -0.01072 0.0
C687 C 0.55436 0.55144 0.93138 0.0
C688 C 0.55223 0.55099 0.95424 0.0
C689 C 0.55254 0.55096 0.02082 0.0
C690 C 0.55134 0.55078 -0.00218 0.0
H691 H 0.61157 0.60403 0.89757 0.0
H692 H 0.60696 0.60333 0.93429 0.0
H693 H 0.57429 0.61041 0.96208 0.0
H694 H 0.54108 0.59444 0.06477 0.0
H695 H 0.536 0.59226 0.02737 0.0
C696 C 0.04912 0.5874 0.23563 0.0
C697 C 0.04166 0.55593 0.22169 0.0
C698 C 0.04864 0.58621 0.25691 0.0
C699 C 0.05285 0.53214 0.29791 0.0
H700 H 1.01686 0.58825 0.33036 0.0
C701 C 0.04083 0.52754 0.38628 0.0
C702 C 0.05202 0.56166 0.39871 0.0
C703 C 1.03688 0.52448 0.36464 0.0
C704 C 1.02737 0.57264 0.32165 0.0
H705 H 1.02785 0.49833 0.21965 0.0
H706 H 1.02666 0.49612 0.25664 0.0
H707 H 1.01582 0.58764 0.2933 0.0
H708 H 0.06618 0.61883 0.39784 0.0
H709 H 0.05956 0.61367 0.36056 0.0
H710 H 0.06449 0.51728 0.32639 0.0
C711 C 1.03335 0.52201 0.25113 0.0
C712 C 1.02683 0.57234 0.30024 0.0
C713 C 1.03382 0.52321 0.2298 0.0
C714 C 0.05785 0.59217 0.38886 0.0
C715 C 0.05372 0.58909 0.36735 0.0
C716 C 0.05335 0.53241 0.31937 0.0
C717 C 0.04062 0.55348 0.26508 0.0
C718 C 0.03993 0.55244 0.28798 0.0
C719 C 0.0436 0.55535 0.35479 0.0
C720 C 0.041 0.55302 0.33166 0.0
H721 H 0.05547 0.61323 0.23015 0.0
H722 H 0.05508 0.61131 0.26698 0.0
H723 H 0.06358 0.51676 0.2892 0.0
H724 H 1.03627 0.50349 0.39325 0.0
H725 H 1.02861 0.49787 0.35562 0.0
loop_
_geom_bond_atom_site_label_1
_geom_bond_atom_site_label_2
_geom_bond_distance
_geom_bond_site_symmetry_2
_ccdc_geom_bond_type
Eu0 C9 2.828 . S
Eu0 O11 2.392 1_655 S
Eu0 O13 2.418 . S
Eu0 O18 2.373 . S
Eu0 O21 2.488 . S
Eu0 O22 2.471 . S
Eu0 O23 2.349 1_655 S
Eu1 O10 2.373 . S
Eu1 O14 2.488 . S
Eu1 O15 2.471 . S
Eu1 O16 2.349 . S
Eu1 O19 2.392 1_455 S
Eu1 O20 2.418 . S
Eu1 C30 2.828 . S
C2 O20 1.244 . S
C2 O23 1.265 . S
C3 C4 1.379 . S
C3 C7 1.373 . S
C3 C9 1.505 . S
C4 C3 1.379 . S
C4 C6 1.369 . S
C4 H32 0.930 . S
C5 C7 1.383 . S
C5 C8 1.382 . S
C5 H33 0.930 . S
C6 C4 1.369 . S
C6 C8 1.392 . S
C6 H34 0.930 . S
C7 C3 1.373 . S
C7 C5 1.383 . S
C7 H35 0.931 . S
C8 C5 1.382 . S
C8 C6 1.392 . S
C9 Eu0 2.828 . S
C9 C3 1.505 . S
C9 O21 1.249 . S
C9 O22 1.244 . S
O10 Eu1 2.373 . S
O10 C12 1.258 . S
O11 Eu0 2.392 1_455 S
O11 C12 1.242 . S
C12 O10 1.258 . S
C12 O11 1.242 . S
O13 Eu0 2.418 . S
O13 C17 1.244 1_655 S
O14 Eu1 2.488 . S
O14 C30 1.249 . S
O15 Eu1 2.471 . S
O15 C30 1.244 . S
O16 Eu1 2.349 . S
O16 C17 1.265 . S
C17 O13 1.244 1_455 S
C17 O16 1.265 . S
O18 Eu0 2.373 . S
O18 C31 1.258 . S
O19 Eu1 2.392 1_655 S
O19 C31 1.242 . S
O20 Eu1 2.418 . S
O20 C2 1.244 . S
O21 Eu0 2.488 . S
O21 C9 1.249 . S
O22 Eu0 2.471 . S
O22 C9 1.244 . S
O23 Eu0 2.349 1_455 S
O23 C2 1.265 . S
C24 C25 1.379 . S
C24 C28 1.373 . S
C24 C30 1.505 . S
C25 C24 1.379 . S
C25 C27 1.369 . S
C25 H36 0.930 . S
C26 C28 1.383 . S
C26 C29 1.382 . S
C26 H37 0.930 . S
C27 C25 1.369 . S
C27 C29 1.392 . S
C27 H38 0.930 . S
C28 C24 1.373 . S
C28 C26 1.383 . S
C28 H39 0.931 . S
C29 C26 1.382 . S
C29 C27 1.392 . S
C30 Eu1 2.828 . S
C30 O14 1.249 . S
C30 O15 1.244 . S
C30 C24 1.505 . S
C31 O18 1.258 . S
C31 O19 1.242 . S
H32 C4 0.930 . S
H33 C5 0.930 . S
H34 C6 0.930 . S
H35 C7 0.931 . S
H36 C25 0.930 . S
H37 C26 0.930 . S
H38 C27 0.930 . S
H39 C28 0.931 . S
Eu40 C49 2.828 1_545 S
Eu40 O51 2.392 . S
Eu40 O53 2.414 . S
Eu40 O58 2.373 1_545 S
Eu40 O61 2.488 1_545 S
Eu40 O62 2.471 1_545 S
Eu40 O63 2.349 . S
Eu41 O50 2.373 . S
Eu41 O54 2.488 . S
Eu41 O55 2.471 . S
Eu41 O56 2.349 . S
Eu41 O59 2.392 1_545 S
Eu41 O60 2.418 . S
Eu41 C70 2.828 . S
C42 O60 1.244 . S
C42 O63 1.265 . S
C43 C44 1.379 . S
C43 C47 1.373 . S
C43 C49 1.505 . S
C44 C43 1.379 . S
C44 C46 1.369 . S
C44 H72 0.930 . S
C45 C47 1.383 . S
C45 C48 1.382 . S
C45 H73 0.930 . S
C46 C44 1.369 . S
C46 C48 1.392 . S
C46 H74 0.930 . S
C47 C43 1.373 . S
C47 C45 1.383 . S
C47 H75 0.931 . S
C48 C45 1.382 . S
C48 C46 1.392 . S
C49 Eu40 2.828 1_565 S
C49 C43 1.505 . S
C49 O61 1.249 . S
C49 O62 1.244 . S
O50 Eu41 2.373 . S
O50 C52 1.258 . S
O51 Eu40 2.392 . S
O51 C52 1.242 . S
C52 O50 1.258 . S
C52 O51 1.242 . S
O53 Eu40 2.414 . S
O53 C57 1.258 . S
O54 Eu41 2.488 . S
O54 C70 1.249 . S
O55 Eu41 2.471 . S
O55 C70 1.244 . S
O56 Eu41 2.349 . S
O56 C57 1.265 . S
C57 O53 1.258 . S
C57 O56 1.265 . S
O58 Eu40 2.373 1_565 S
O58 C71 1.258 . S
O59 Eu41 2.392 1_565 S
O59 C71 1.242 . S
O60 Eu41 2.418 . S
O60 C42 1.244 . S
O61 Eu40 2.488 1_565 S
O61 C49 1.249 . S
O62 Eu40 2.471 1_565 S
O62 C49 1.244 . S
O63 Eu40 2.349 . S
O63 C42 1.265 . S
C64 C65 1.379 . S
C64 C68 1.373 . S
C64 C70 1.505 . S
C65 C64 1.379 . S
C65 C67 1.369 . S
C65 H76 0.930 . S
C66 C68 1.383 . S
C66 C69 1.382 . S
C66 H77 0.930 . S
C67 C65 1.369 . S
C67 C69 1.392 . S
C67 H78 0.930 . S
C68 C64 1.373 . S
C68 C66 1.383 . S
C68 H79 0.931 . S
C69 C66 1.382 . S
C69 C67 1.392 . S
C70 Eu41 2.828 . S
C70 O54 1.249 . S
C70 O55 1.244 . S
C70 C64 1.505 . S
C71 O58 1.258 . S
C71 O59 1.242 . S
H72 C44 0.930 . S
H73 C45 0.930 . S
H74 C46 0.930 . S
H75 C47 0.931 . S
H76 C65 0.930 . S
H77 C66 0.930 . S
H78 C67 0.930 . S
H79 C68 0.931 . S
Eu80 C89 2.828 . S
Eu80 O91 2.392 . S
Eu80 O93 2.418 . S
Eu80 O98 2.373 . S
Eu80 O101 2.488 . S
Eu80 O102 2.471 . S
Eu80 O103 2.349 . S
Eu81 O90 2.373 . S
Eu81 O94 2.488 . S
Eu81 O95 2.471 . S
Eu81 O96 2.349 . S
Eu81 O99 2.392 . S
Eu81 O100 2.418 . S
Eu81 C110 2.828 . S
C82 O100 1.244 . S
C82 O103 1.265 . S
C83 C84 1.379 . S
C83 C87 1.373 . S
C83 C89 1.505 . S
C84 C83 1.379 . S
C84 C86 1.369 . S
C84 H112 0.930 . S
C85 C87 1.383 . S
C85 C88 1.382 . S
C85 H113 0.930 . S
C86 C84 1.369 . S
C86 C88 1.392 . S
C86 H114 0.930 . S
C87 C83 1.373 . S
C87 C85 1.383 . S
C87 H115 0.931 . S
C88 C85 1.382 . S
C88 C86 1.392 . S
C89 Eu80 2.828 . S
C89 C83 1.505 . S
C89 O101 1.249 . S
C89 O102 1.244 . S
O90 Eu81 2.373 . S
O90 C92 1.258 . S
O91 Eu80 2.392 . S
O91 C92 1.242 . S
C92 O90 1.258 . S
C92 O91 1.242 . S
O93 Eu80 2.418 . S
O93 C97 1.244 . S
O94 Eu81 2.488 . S
O94 C110 1.249 . S
O95 Eu81 2.471 . S
O95 C110 1.244 . S
O96 Eu81 2.349 . S
O96 C97 1.265 . S
C97 O93 1.244 . S
C97 O96 1.265 . S
O98 Eu80 2.373 . S
O98 C111 1.258 . S
O99 Eu81 2.392 . S
O99 C111 1.242 . S
O100 Eu81 2.418 . S
O100 C82 1.244 . S
O101 Eu80 2.488 . S
O101 C89 1.249 . S
O102 Eu80 2.471 . S
O102 C89 1.244 . S
O103 Eu80 2.349 . S
O103 C82 1.265 . S
C104 C105 1.379 . S
C104 C108 1.373 . S
C104 C110 1.505 . S
C105 C104 1.379 . S
C105 C107 1.369 . S
C105 H116 0.930 . S
C106 C108 1.383 . S
C106 C109 1.382 . S
C106 H117 0.930 . S
C107 C105 1.369 . S
C107 C109 1.392 . S
C107 H118 0.930 . S
C108 C104 1.373 . S
C108 C106 1.383 . S
C108 H119 0.931 . S
C109 C106 1.382 . S
C109 C107 1.392 . S
C110 Eu81 2.828 . S
C110 O94 1.249 . S
C110 O95 1.244 . S
C110 C104 1.505 . S
C111 O98 1.258 . S
C111 O99 1.242 . S
H112 C84 0.930 . S
H113 C85 0.930 . S
H114 C86 0.930 . S
H115 C87 0.931 . S
H116 C105 0.930 . S
H117 C106 0.930 . S
H118 C107 0.930 . S
H119 C108 0.931 . S
H120 C123 0.929 1_565 S
H121 C126 0.929 . S
H122 C128 0.930 . S
C123 H120 0.929 1_545 S
C123 C124 1.398 . S
C123 C125 1.396 . S
C124 C123 1.398 . S
C124 C128 1.407 . S
C125 C123 1.396 . S
C125 C126 1.394 . S
C126 H121 0.929 . S
C126 C125 1.394 . S
C126 C127 1.382 . S
C127 C126 1.382 . S
C127 C128 1.392 . S
C127 N129 1.420 . S
C128 H122 0.930 . S
C128 C124 1.407 . S
C128 C127 1.392 . S
N129 C127 1.420 . S
N129 C130 1.244 . S
C130 N129 1.244 . S
H131 C134 0.929 . S
H132 C137 0.929 . S
H133 C139 0.930 . S
C134 H131 0.929 . S
C134 C135 1.398 . S
C134 C136 1.396 . S
C135 C134 1.398 . S
C135 C139 1.407 . S
C136 C134 1.396 . S
C136 C137 1.394 . S
C137 H132 0.929 . S
C137 C136 1.394 . S
C137 C138 1.382 . S
C138 C137 1.382 . S
C138 C139 1.392 . S
C138 N140 1.420 . S
C139 H133 0.930 . S
C139 C135 1.407 . S
C139 C138 1.392 . S
N140 C138 1.420 . S
N140 C141 1.244 . S
C141 N140 1.244 . S
H142 C145 0.929 . S
H143 C148 0.929 . S
H144 C150 0.930 . S
C145 H142 0.929 . S
C145 C146 1.398 . S
C145 C147 1.396 . S
C146 C145 1.398 . S
C146 C150 1.407 . S
C147 C145 1.396 . S
C147 C148 1.394 . S
C148 H143 0.929 . S
C148 C147 1.394 . S
C148 C149 1.382 . S
C149 C148 1.382 . S
C149 C150 1.392 . S
C149 N151 1.420 . S
C150 H144 0.930 . S
C150 C146 1.407 . S
C150 C149 1.392 . S
N151 C149 1.420 . S
N151 C152 1.244 . S
C152 N151 1.244 . S
H153 C156 0.929 . S
H154 C159 0.929 1_655 S
H155 C161 0.930 . S
C156 H153 0.929 . S
C156 C157 1.398 . S
C156 C158 1.396 . S
C157 C156 1.398 . S
C157 C161 1.407 . S
C158 C156 1.396 . S
C158 C159 1.394 . S
C159 H154 0.929 1_455 S
C159 C158 1.394 . S
C159 C160 1.382 . S
C160 C159 1.382 . S
C160 C161 1.392 . S
C160 N162 1.420 1_455 S
C161 H155 0.930 . S
C161 C157 1.407 . S
C161 C160 1.392 . S
N162 C160 1.420 1_655 S
N162 C163 1.244 . S
C163 N162 1.244 . S
H164 C167 0.929 . S
H165 C170 0.929 1_565 S
H166 C172 0.930 . S
C167 H164 0.929 . S
C167 C168 1.398 . S
C167 C169 1.396 . S
C168 C167 1.398 . S
C168 C172 1.407 . S
C169 C167 1.396 . S
C169 C170 1.394 . S
C170 H165 0.929 1_545 S
C170 C169 1.394 . S
C170 C171 1.382 . S
C171 C170 1.382 . S
C171 C172 1.392 . S
C171 N173 1.450 . S
C172 H166 0.930 . S
C172 C168 1.407 . S
C172 C171 1.392 . S
N173 C171 1.450 . S
N173 C174 1.214 1_545 S
C174 N173 1.214 1_565 S
H175 C178 0.929 . S
H176 C181 0.929 . S
H177 C183 0.930 . S
C178 H175 0.929 . S
C178 C179 1.398 . S
C178 C180 1.396 . S
C179 C178 1.398 . S
C179 C183 1.407 . S
C180 C178 1.396 . S
C180 C181 1.394 . S
C181 H176 0.929 . S
C181 C180 1.394 . S
C181 C182 1.382 . S
C182 C181 1.382 . S
C182 C183 1.392 . S
C182 N184 1.420 . S
C183 H177 0.930 . S
C183 C179 1.407 . S
C183 C182 1.392 . S
N184 C182 1.420 . S
N184 C185 1.244 . S
C185 N184 1.244 . S
C186 C187 1.349 . S
C186 C188 1.327 . S
C186 H211 0.950 . S
C187 C186 1.349 . S
C187 C203 1.349 . S
C188 C186 1.327 . S
C188 C207 1.429 . S
C188 H212 0.950 . S
C189 C206 1.574 . S
C189 C208 1.368 . S
C189 H213 0.949 . S
H190 C194 0.949 . S
C191 C192 1.349 . S
C191 C193 1.327 . S
C191 H214 0.950 . S
C192 C191 1.349 . S
C192 C204 1.349 . S
C193 C191 1.327 . S
C193 C209 1.429 . S
C193 H215 0.950 . S
C194 H190 0.949 . S
C194 C202 1.574 . S
C194 C210 1.368 . S
H195 C203 0.950 . S
H196 C201 0.950 . S
H197 C202 0.949 . S
H198 C204 0.950 . S
H199 C205 0.950 . S
H200 C206 0.949 . S
C201 H196 0.950 . S
C201 C203 1.327 . S
C201 C207 1.429 . S
C202 C194 1.574 . S
C202 H197 0.949 . S
C202 C208 1.368 . S
C203 C187 1.349 . S
C203 H195 0.950 . S
C203 C201 1.327 . S
C204 C192 1.349 . S
C204 H198 0.950 . S
C204 C205 1.327 . S
C205 H199 0.950 . S
C205 C204 1.327 . S
C205 C209 1.429 . S
C206 C189 1.574 . S
C206 H200 0.949 . S
C206 C210 1.368 . S
C207 C188 1.429 . S
C207 C201 1.429 . S
C207 C208 1.523 . S
C208 C189 1.368 . S
C208 C202 1.368 . S
C208 C207 1.523 . S
C209 C193 1.429 . S
C209 C205 1.429 . S
C209 C210 1.523 . S
C210 C194 1.368 . S
C210 C206 1.368 . S
C210 C209 1.523 . S
H211 C186 0.950 . S
H212 C188 0.950 . S
H213 C189 0.949 . S
H214 C191 0.950 . S
H215 C193 0.950 . S
C216 C217 1.349 . S
C216 C218 1.327 . S
C216 H241 0.950 . S
C217 C216 1.349 . S
C217 C233 1.349 . S
C218 C216 1.327 . S
C218 C237 1.429 . S
C218 H242 0.950 . S
C219 C236 1.574 . S
C219 C238 1.368 . S
C219 H243 0.949 . S
H220 C224 0.949 . S
C221 C222 1.349 . S
C221 C223 1.327 . S
C221 H244 0.950 . S
C222 C221 1.349 . S
C222 C234 1.349 . S
C223 C221 1.327 . S
C223 C239 1.429 . S
C223 H245 0.950 . S
C224 H220 0.949 . S
C224 C232 1.574 . S
C224 C240 1.368 . S
H225 C233 0.950 . S
H226 C231 0.950 . S
H227 C232 0.949 . S
H228 C234 0.950 . S
H229 C235 0.950 . S
H230 C236 0.949 . S
C231 H226 0.950 . S
C231 C233 1.327 . S
C231 C237 1.429 . S
C232 C224 1.574 . S
C232 H227 0.949 . S
C232 C238 1.368 . S
C233 C217 1.349 . S
C233 H225 0.950 . S
C233 C231 1.327 . S
C234 C222 1.349 . S
C234 H228 0.950 . S
C234 C235 1.327 . S
C235 H229 0.950 . S
C235 C234 1.327 . S
C235 C239 1.429 . S
C236 C219 1.574 . S
C236 H230 0.949 . S
C236 C240 1.368 . S
C237 C218 1.429 . S
C237 C231 1.429 . S
C237 C238 1.523 . S
C238 C219 1.368 . S
C238 C232 1.368 . S
C238 C237 1.523 . S
C239 C223 1.429 . S
C239 C235 1.429 . S
C239 C240 1.523 . S
C240 C224 1.368 . S
C240 C236 1.368 . S
C240 C239 1.523 . S
H241 C216 0.950 . S
H242 C218 0.950 . S
H243 C219 0.949 . S
H244 C221 0.950 . S
H245 C223 0.950 . S
C246 C247 1.349 . S
C246 C248 1.327 . S
C246 H271 0.950 . S
C247 C246 1.349 . S
C247 C263 1.349 . S
C248 C246 1.327 . S
C248 C267 1.429 . S
C248 H272 0.950 . S
C249 C266 1.574 . S
C249 C268 1.368 . S
C249 H273 0.949 . S
H250 C254 0.949 . S
C251 C252 1.349 . S
C251 C253 1.327 . S
C251 H274 0.950 . S
C252 C251 1.349 . S
C252 C264 1.349 . S
C253 C251 1.327 . S
C253 C269 1.429 . S
C253 H275 0.950 . S
C254 H250 0.949 . S
C254 C262 1.574 . S
C254 C270 1.368 . S
H255 C263 0.950 . S
H256 C261 0.950 . S
H257 C262 0.949 . S
H258 C264 0.950 . S
H259 C265 0.950 . S
H260 C266 0.949 . S
C261 H256 0.950 . S
C261 C263 1.327 . S
C261 C267 1.429 . S
C262 C254 1.574 . S
C262 H257 0.949 . S
C262 C268 1.368 . S
C263 C247 1.349 . S
C263 H255 0.950 . S
C263 C261 1.327 . S
C264 C252 1.349 . S
C264 H258 0.950 . S
C264 C265 1.327 . S
C265 H259 0.950 . S
C265 C264 1.327 . S
C265 C269 1.429 . S
C266 C249 1.574 . S
C266 H260 0.949 . S
C266 C270 1.368 . S
C267 C248 1.429 . S
C267 C261 1.429 . S
C267 C268 1.523 . S
C268 C249 1.368 . S
C268 C262 1.368 . S
C268 C267 1.523 . S
C269 C253 1.429 . S
C269 C265 1.429 . S
C269 C270 1.523 . S
C270 C254 1.368 . S
C270 C266 1.368 . S
C270 C269 1.523 . S
H271 C246 0.950 . S
H272 C248 0.950 . S
H273 C249 0.949 . S
H274 C251 0.950 . S
H275 C253 0.950 . S
C276 C277 1.349 . S
C276 C278 1.327 . S
C276 H301 0.950 . S
C277 C276 1.349 . S
C277 C293 1.349 . S
C278 C276 1.327 . S
C278 C297 1.429 . S
C278 H302 0.950 . S
C279 C296 1.574 . S
C279 C298 1.368 . S
C279 H303 0.949 . S
H280 C284 0.949 . S
C281 C282 1.349 . S
C281 C283 1.327 . S
C281 H304 0.950 . S
C282 C281 1.349 . S
C282 C294 1.349 . S
C283 C281 1.327 . S
C283 C299 1.429 . S
C283 H305 0.950 . S
C284 H280 0.949 . S
C284 C292 1.574 . S
C284 C300 1.368 . S
H285 C293 0.950 . S
H286 C291 0.950 . S
H287 C292 0.949 . S
H288 C294 0.950 . S
H289 C295 0.950 . S
H290 C296 0.949 . S
C291 H286 0.950 . S
C291 C293 1.327 . S
C291 C297 1.429 . S
C292 C284 1.574 . S
C292 H287 0.949 . S
C292 C298 1.368 . S
C293 C277 1.349 . S
C293 H285 0.950 . S
C293 C291 1.327 . S
C294 C282 1.349 . S
C294 H288 0.950 . S
C294 C295 1.327 . S
C295 H289 0.950 . S
C295 C294 1.327 . S
C295 C299 1.429 . S
C296 C279 1.574 . S
C296 H290 0.949 . S
C296 C300 1.368 . S
C297 C278 1.429 . S
C297 C291 1.429 . S
C297 C298 1.523 . S
C298 C279 1.368 . S
C298 C292 1.368 . S
C298 C297 1.523 . S
C299 C283 1.429 . S
C299 C295 1.429 . S
C299 C300 1.523 . S
C300 C284 1.368 . S
C300 C296 1.368 . S
C300 C299 1.523 . S
H301 C276 0.950 . S
H302 C278 0.950 . S
H303 C279 0.949 . S
H304 C281 0.950 . S
H305 C283 0.950 . S
C306 C307 1.349 . S
C306 C308 1.327 . S
C306 H331 0.950 . S
C307 C306 1.349 . S
C307 C323 1.349 . S
C308 C306 1.327 . S
C308 C327 1.429 . S
C308 H332 0.950 . S
C309 C326 1.574 . S
C309 C328 1.368 . S
C309 H333 0.949 . S
H310 C314 0.949 . S
C311 C312 1.349 . S
C311 C313 1.327 . S
C311 H334 0.950 . S
C312 C311 1.349 . S
C312 C324 1.349 . S
C313 C311 1.327 . S
C313 C329 1.429 . S
C313 H335 0.950 . S
C314 H310 0.949 . S
C314 C322 1.574 . S
C314 C330 1.368 . S
H315 C323 0.950 . S
H316 C321 0.950 . S
H317 C322 0.949 . S
H318 C324 0.950 . S
H319 C325 0.950 . S
H320 C326 0.949 . S
C321 H316 0.950 . S
C321 C323 1.327 . S
C321 C327 1.429 . S
C322 C314 1.574 . S
C322 H317 0.949 . S
C322 C328 1.368 . S
C323 C307 1.349 . S
C323 H315 0.950 . S
C323 C321 1.327 . S
C324 C312 1.349 . S
C324 H318 0.950 . S
C324 C325 1.327 . S
C325 H319 0.950 . S
C325 C324 1.327 . S
C325 C329 1.429 . S
C326 C309 1.574 . S
C326 H320 0.949 . S
C326 C330 1.368 . S
C327 C308 1.429 . S
C327 C321 1.429 . S
C327 C328 1.523 . S
C328 C309 1.368 . S
C328 C322 1.368 . S
C328 C327 1.523 . S
C329 C313 1.429 . S
C329 C325 1.429 . S
C329 C330 1.523 . S
C330 C314 1.368 . S
C330 C326 1.368 . S
C330 C329 1.523 . S
H331 C306 0.950 . S
H332 C308 0.950 . S
H333 C309 0.949 . S
H334 C311 0.950 . S
H335 C313 0.950 . S
C336 C337 1.349 . S
C336 C338 1.327 . S
C336 H361 0.950 . S
C337 C336 1.349 . S
C337 C353 1.349 . S
C338 C336 1.327 . S
C338 C357 1.429 . S
C338 H362 0.950 . S
C339 C356 1.574 . S
C339 C358 1.368 . S
C339 H363 0.949 . S
H340 C344 0.949 . S
C341 C342 1.349 . S
C341 C343 1.327 . S
C341 H364 0.950 . S
C342 C341 1.349 . S
C342 C354 1.349 . S
C343 C341 1.327 . S
C343 C359 1.429 . S
C343 H365 0.950 . S
C344 H340 0.949 . S
C344 C352 1.574 . S
C344 C360 1.368 . S
H345 C353 0.950 . S
H346 C351 0.950 . S
H347 C352 0.949 . S
H348 C354 0.950 . S
H349 C355 0.950 . S
H350 C356 0.949 . S
C351 H346 0.950 . S
C351 C353 1.327 . S
C351 C357 1.429 . S
C352 C344 1.574 . S
C352 H347 0.949 . S
C352 C358 1.368 . S
C353 C337 1.349 . S
C353 H345 0.950 . S
C353 C351 1.327 . S
C354 C342 1.349 . S
C354 H348 0.950 . S
C354 C355 1.327 . S
C355 H349 0.950 . S
C355 C354 1.327 . S
C355 C359 1.429 . S
C356 C339 1.574 . S
C356 H350 0.949 . S
C356 C360 1.368 . S
C357 C338 1.429 . S
C357 C351 1.429 . S
C357 C358 1.523 . S
C358 C339 1.368 . S
C358 C352 1.368 . S
C358 C357 1.523 . S
C359 C343 1.429 . S
C359 C355 1.429 . S
C359 C360 1.523 . S
C360 C344 1.368 . S
C360 C356 1.368 . S
C360 C359 1.523 . S
H361 C336 0.950 . S
H362 C338 0.950 . S
H363 C339 0.949 . S
H364 C341 0.950 . S
H365 C343 0.950 . S
C366 C367 1.349 . S
C366 C368 1.327 . S
C366 H391 0.950 . S
C367 C366 1.349 . S
C367 C383 1.349 . S
C368 C366 1.327 . S
C368 C387 1.429 . S
C368 H392 0.950 . S
C369 C386 1.574 . S
C369 C388 1.368 . S
C369 H393 0.949 . S
H370 C374 0.949 . S
C371 C372 1.349 . S
C371 C373 1.327 . S
C371 H394 0.950 . S
C372 C371 1.349 . S
C372 C384 1.349 . S
C373 C371 1.327 . S
C373 C389 1.429 . S
C373 H395 0.950 . S
C374 H370 0.949 . S
C374 C382 1.574 . S
C374 C390 1.368 . S
H375 C383 0.950 . S
H376 C381 0.950 . S
H377 C382 0.949 . S
H378 C384 0.950 . S
H379 C385 0.950 . S
H380 C386 0.949 . S
C381 H376 0.950 . S
C381 C383 1.327 . S
C381 C387 1.429 . S
C382 C374 1.574 . S
C382 H377 0.949 . S
C382 C388 1.368 . S
C383 C367 1.349 . S
C383 H375 0.950 . S
C383 C381 1.327 . S
C384 C372 1.349 . S
C384 H378 0.950 . S
C384 C385 1.327 . S
C385 H379 0.950 . S
C385 C384 1.327 . S
C385 C389 1.429 . S
C386 C369 1.574 . S
C386 H380 0.949 . S
C386 C390 1.368 . S
C387 C368 1.429 . S
C387 C381 1.429 . S
C387 C388 1.523 . S
C388 C369 1.368 . S
C388 C382 1.368 . S
C388 C387 1.523 . S
C389 C373 1.429 . S
C389 C385 1.429 . S
C389 C390 1.523 . S
C390 C374 1.368 . S
C390 C386 1.368 . S
C390 C389 1.523 . S
H391 C366 0.950 . S
H392 C368 0.950 . S
H393 C369 0.949 . S
H394 C371 0.950 . S
H395 C373 0.950 . S
C396 C397 1.349 . S
C396 C398 1.327 . S
C396 H421 0.950 . S
C397 C396 1.349 . S
C397 C413 1.349 . S
C398 C396 1.327 . S
C398 C417 1.429 . S
C398 H422 0.950 . S
C399 C416 1.574 . S
C399 C418 1.368 . S
C399 H423 0.949 . S
H400 C404 0.949 . S
C401 C402 1.349 1_655 S
C401 C403 1.327 . S
C401 H424 0.950 . S
C402 C401 1.349 1_455 S
C402 C414 1.349 . S
C403 C401 1.327 . S
C403 C419 1.429 . S
C403 H425 0.950 . S
C404 H400 0.949 . S
C404 C412 1.574 . S
C404 C420 1.368 . S
H405 C413 0.950 . S
H406 C411 0.950 . S
H407 C412 0.949 . S
H408 C414 0.950 . S
H409 C415 0.950 . S
H410 C416 0.949 . S
C411 H406 0.950 . S
C411 C413 1.327 . S
C411 C417 1.429 . S
C412 C404 1.574 . S
C412 H407 0.949 . S
C412 C418 1.368 . S
C413 C397 1.349 . S
C413 H405 0.950 . S
C413 C411 1.327 . S
C414 C402 1.349 . S
C414 H408 0.950 . S
C414 C415 1.327 1_455 S
C415 H409 0.950 . S
C415 C414 1.327 1_655 S
C415 C419 1.429 . S
C416 C399 1.574 . S
C416 H410 0.949 . S
C416 C420 1.368 . S
C417 C398 1.429 . S
C417 C411 1.429 . S
C417 C418 1.523 . S
C418 C399 1.368 . S
C418 C412 1.368 . S
C418 C417 1.523 . S
C419 C403 1.429 . S
C419 C415 1.429 . S
C419 C420 1.523 . S
C420 C404 1.368 . S
C420 C416 1.368 . S
C420 C419 1.523 . S
H421 C396 0.950 . S
H422 C398 0.950 . S
H423 C399 0.949 . S
H424 C401 0.950 . S
H425 C403 0.950 . S
C426 C427 1.349 . S
C426 C428 1.327 . S
C426 H451 0.950 . S
C427 C426 1.349 . S
C427 C443 1.349 . S
C428 C426 1.327 . S
C428 C447 1.429 . S
C428 H452 0.950 . S
C429 C446 1.574 . S
C429 C448 1.368 . S
C429 H453 0.949 . S
H430 C434 0.949 . S
C431 C432 1.349 1_565 S
C431 C433 1.327 . S
C431 H454 0.950 . S
C432 C431 1.349 1_545 S
C432 C444 1.349 . S
C433 C431 1.327 . S
C433 C449 1.429 . S
C433 H455 0.950 . S
C434 H430 0.949 . S
C434 C442 1.574 . S
C434 C450 1.368 . S
H435 C443 0.950 . S
H436 C441 0.950 . S
H437 C442 0.949 . S
H438 C444 0.950 . S
H439 C445 0.950 . S
H440 C446 0.949 . S
C441 H436 0.950 . S
C441 C443 1.327 . S
C441 C447 1.429 . S
C442 C434 1.574 . S
C442 H437 0.949 . S
C442 C448 1.368 . S
C443 C427 1.349 . S
C443 H435 0.950 . S
C443 C441 1.327 . S
C444 C432 1.349 . S
C444 H438 0.950 . S
C444 C445 1.327 1_545 S
C445 H439 0.950 . S
C445 C444 1.327 1_565 S
C445 C449 1.429 . S
C446 C429 1.574 . S
C446 H440 0.949 . S
C446 C450 1.368 . S
C447 C428 1.429 . S
C447 C441 1.429 . S
C447 C448 1.523 . S
C448 C429 1.368 . S
C448 C442 1.368 . S
C448 C447 1.523 . S
C449 C433 1.429 . S
C449 C445 1.429 . S
C449 C450 1.523 . S
C450 C434 1.368 . S
C450 C446 1.368 . S
C450 C449 1.523 . S
H451 C426 0.950 . S
H452 C428 0.950 . S
H453 C429 0.949 . S
H454 C431 0.950 . S
H455 C433 0.950 . S
C456 C457 1.349 . S
C456 C458 1.327 . S
C456 H481 0.950 . S
C457 C456 1.349 . S
C457 C473 1.349 . S
C458 C456 1.327 . S
C458 C477 1.429 . S
C458 H482 0.950 . S
C459 C476 1.574 . S
C459 C478 1.368 . S
C459 H483 0.949 . S
H460 C464 0.949 . S
C461 C462 1.349 . S
C461 C463 1.327 . S
C461 H484 0.950 . S
C462 C461 1.349 . S
C462 C474 1.349 . S
C463 C461 1.327 . S
C463 C479 1.429 . S
C463 H485 0.950 . S
C464 H460 0.949 . S
C464 C472 1.574 . S
C464 C480 1.368 . S
H465 C473 0.950 . S
H466 C471 0.950 . S
H467 C472 0.949 . S
H468 C474 0.950 . S
H469 C475 0.950 . S
H470 C476 0.949 . S
C471 H466 0.950 . S
C471 C473 1.327 . S
C471 C477 1.429 . S
C472 C464 1.574 . S
C472 H467 0.949 . S
C472 C478 1.368 . S
C473 C457 1.349 . S
C473 H465 0.950 . S
C473 C471 1.327 . S
C474 C462 1.349 . S
C474 H468 0.950 . S
C474 C475 1.327 . S
C475 H469 0.950 . S
C475 C474 1.327 . S
C475 C479 1.429 . S
C476 C459 1.574 . S
C476 H470 0.949 . S
C476 C480 1.368 . S
C477 C458 1.429 . S
C477 C471 1.429 . S
C477 C478 1.523 . S
C478 C459 1.368 . S
C478 C472 1.368 . S
C478 C477 1.523 . S
C479 C463 1.429 . S
C479 C475 1.429 . S
C479 C480 1.523 . S
C480 C464 1.368 . S
C480 C476 1.368 . S
C480 C479 1.523 . S
H481 C456 0.950 . S
H482 C458 0.950 . S
H483 C459 0.949 . S
H484 C461 0.950 . S
H485 C463 0.950 . S
C486 C487 1.349 . S
C486 C488 1.327 . S
C486 H511 0.950 . S
C487 C486 1.349 . S
C487 C503 1.349 . S
C488 C486 1.327 . S
C488 C507 1.429 . S
C488 H512 0.950 . S
C489 C506 1.574 . S
C489 C508 1.368 . S
C489 H513 0.949 . S
H490 C494 0.949 . S
C491 C492 1.349 . S
C491 C493 1.327 . S
C491 H514 0.950 . S
C492 C491 1.349 . S
C492 C504 1.349 . S
C493 C491 1.327 . S
C493 C509 1.429 . S
C493 H515 0.950 . S
C494 H490 0.949 . S
C494 C502 1.574 . S
C494 C510 1.368 . S
H495 C503 0.950 . S
H496 C501 0.950 . S
H497 C502 0.949 . S
H498 C504 0.950 . S
H499 C505 0.950 . S
H500 C506 0.949 . S
C501 H496 0.950 . S
C501 C503 1.327 . S
C501 C507 1.429 . S
C502 C494 1.574 . S
C502 H497 0.949 . S
C502 C508 1.368 . S
C503 C487 1.349 . S
C503 H495 0.950 . S
C503 C501 1.327 . S
C504 C492 1.349 . S
C504 H498 0.950 . S
C504 C505 1.327 . S
C505 H499 0.950 . S
C505 C504 1.327 . S
C505 C509 1.429 . S
C506 C489 1.574 . S
C506 H500 0.949 . S
C506 C510 1.368 . S
C507 C488 1.429 . S
C507 C501 1.429 . S
C507 C508 1.523 . S
C508 C489 1.368 . S
C508 C502 1.368 . S
C508 C507 1.523 . S
C509 C493 1.429 . S
C509 C505 1.429 . S
C509 C510 1.523 . S
C510 C494 1.368 . S
C510 C506 1.368 . S
C510 C509 1.523 . S
H511 C486 0.950 . S
H512 C488 0.950 . S
H513 C489 0.949 . S
H514 C491 0.950 . S
H515 C493 0.950 . S
C516 C517 1.349 . S
C516 C518 1.327 . S
C516 H541 0.950 . S
C517 C516 1.349 . S
C517 C533 1.349 . S
C518 C516 1.327 . S
C518 C537 1.429 . S
C518 H542 0.950 . S
C519 C536 1.574 . S
C519 C538 1.368 . S
C519 H543 0.949 . S
H520 C524 0.949 . S
C521 C522 1.349 . S
C521 C523 1.327 . S
C521 H544 0.950 . S
C522 C521 1.349 . S
C522 C534 1.349 . S
C523 C521 1.327 . S
C523 C539 1.429 . S
C523 H545 0.950 . S
C524 H520 0.949 . S
C524 C532 1.574 . S
C524 C540 1.368 . S
H525 C533 0.950 . S
H526 C531 0.950 . S
H527 C532 0.949 . S
H528 C534 0.950 . S
H529 C535 0.950 . S
H530 C536 0.949 . S
C531 H526 0.950 . S
C531 C533 1.327 . S
C531 C537 1.429 . S
C532 C524 1.574 . S
C532 H527 0.949 . S
C532 C538 1.368 . S
C533 C517 1.349 . S
C533 H525 0.950 . S
C533 C531 1.327 . S
C534 C522 1.349 . S
C534 H528 0.950 . S
C534 C535 1.327 . S
C535 H529 0.950 . S
C535 C534 1.327 . S
C535 C539 1.429 . S
C536 C519 1.574 . S
C536 H530 0.949 . S
C536 C540 1.368 . S
C537 C518 1.429 . S
C537 C531 1.429 . S
C537 C538 1.523 . S
C538 C519 1.368 . S
C538 C532 1.368 . S
C538 C537 1.523 . S
C539 C523 1.429 . S
C539 C535 1.429 . S
C539 C540 1.523 . S
C540 C524 1.368 . S
C540 C536 1.368 . S
C540 C539 1.523 . S
H541 C516 0.950 . S
H542 C518 0.950 . S
H543 C519 0.949 . S
H544 C521 0.950 . S
H545 C523 0.950 . S
C546 C547 1.349 1_655 S
C546 C548 1.327 . S
C546 H571 0.950 . S
C547 C546 1.349 1_455 S
C547 C563 1.349 . S
C548 C546 1.327 . S
C548 C567 1.429 1_655 S
C548 H572 0.950 . S
C549 C566 1.574 . S
C549 C568 1.368 . S
C549 H573 0.949 . S
H550 C554 0.950 1_656 S
C551 C552 1.349 . S
C551 C553 1.327 . S
C551 H574 0.950 . S
C552 C551 1.349 . S
C552 C564 1.349 . S
C553 C551 1.327 . S
C553 C569 1.429 . S
C553 H575 0.950 . S
C554 H550 0.950 1_454 S
C554 C562 1.565 1_455 S
C554 C570 1.369 1_554 S
H555 C563 0.950 . S
H556 C561 0.950 . S
H557 C562 0.973 . S
H558 C564 0.946 1_655 S
H559 C565 0.950 1_655 S
H560 C566 0.949 . S
C561 H556 0.950 . S
C561 C563 1.327 . S
C561 C567 1.429 . S
C562 C554 1.565 1_655 S
C562 H557 0.973 . S
C562 C568 1.351 1_655 S
C563 C547 1.349 . S
C563 H555 0.950 . S
C563 C561 1.327 . S
C564 C552 1.349 . S
C564 H558 0.946 1_455 S
C564 C565 1.327 . S
C565 H559 0.950 1_455 S
C565 C564 1.327 . S
C565 C569 1.429 . S
C566 C549 1.574 . S
C566 H560 0.949 . S
C566 C570 1.368 1_554 S
C567 C548 1.429 1_455 S
C567 C561 1.429 . S
C567 C568 1.523 . S
C568 C549 1.368 . S
C568 C562 1.351 1_455 S
C568 C567 1.523 . S
C569 C553 1.429 . S
C569 C565 1.429 . S
C569 C570 1.523 . S
C570 C554 1.369 1_556 S
C570 C566 1.368 1_556 S
C570 C569 1.523 . S
H571 C546 0.950 . S
H572 C548 0.950 . S
H573 C549 0.949 . S
H574 C551 0.950 . S
H575 C553 0.950 . S
C576 C577 1.355 . S
C576 C578 1.331 . S
C576 H601 0.940 1_545 S
C577 C576 1.355 . S
C577 C593 1.349 . S
C578 C576 1.331 . S
C578 C597 1.429 . S
C578 H602 0.950 1_545 S
C579 C596 1.574 . S
C579 C598 1.368 . S
C579 H603 0.949 . S
H580 C584 0.949 1_565 S
C581 C582 1.349 . S
C581 C583 1.327 . S
C581 H604 0.950 . S
C582 C581 1.349 . S
C582 C594 1.349 . S
C583 C581 1.327 . S
C583 C599 1.429 . S
C583 H605 0.950 . S
C584 H580 0.949 1_545 S
C584 C592 1.574 . S
C584 C600 1.368 . S
H585 C593 0.950 . S
H586 C591 0.950 . S
H587 C592 0.949 1_565 S
H588 C594 0.951 . S
H589 C595 0.950 1_565 S
H590 C596 0.949 . S
C591 H586 0.950 . S
C591 C593 1.327 . S
C591 C597 1.429 . S
C592 C584 1.574 . S
C592 H587 0.949 1_545 S
C592 C598 1.368 . S
C593 C577 1.349 . S
C593 H585 0.950 . S
C593 C591 1.327 . S
C594 C582 1.349 . S
C594 H588 0.951 . S
C594 C595 1.327 . S
C595 H589 0.950 1_545 S
C595 C594 1.327 . S
C595 C599 1.429 . S
C596 C579 1.574 . S
C596 H590 0.949 . S
C596 C600 1.368 . S
C597 C578 1.429 . S
C597 C591 1.429 . S
C597 C598 1.523 . S
C598 C579 1.368 . S
C598 C592 1.368 . S
C598 C597 1.523 . S
C599 C583 1.429 . S
C599 C595 1.429 . S
C599 C600 1.523 . S
C600 C584 1.368 . S
C600 C596 1.368 . S
C600 C599 1.523 . S
H601 C576 0.940 1_565 S
H602 C578 0.950 1_565 S
H603 C579 0.949 . S
H604 C581 0.950 . S
H605 C583 0.950 . S
C606 C607 1.349 . S
C606 C608 1.327 . S
C606 H631 0.950 . S
C607 C606 1.349 . S
C607 C623 1.349 . S
C608 C606 1.327 . S
C608 C627 1.429 . S
C608 H632 0.950 . S
C609 C626 1.574 . S
C609 C628 1.368 . S
C609 H633 0.949 . S
H610 C614 0.949 . S
C611 C612 1.349 . S
C611 C613 1.327 . S
C611 H634 0.950 . S
C612 C611 1.349 . S
C612 C624 1.349 . S
C613 C611 1.327 . S
C613 C629 1.429 . S
C613 H635 0.950 . S
C614 H610 0.949 . S
C614 C622 1.574 . S
C614 C630 1.368 . S
H615 C623 0.950 . S
H616 C621 0.950 . S
H617 C622 0.949 . S
H618 C624 0.950 . S
H619 C625 0.950 . S
H620 C626 0.949 . S
C621 H616 0.950 . S
C621 C623 1.327 . S
C621 C627 1.429 . S
C622 C614 1.574 . S
C622 H617 0.949 . S
C622 C628 1.368 . S
C623 C607 1.349 . S
C623 H615 0.950 . S
C623 C621 1.327 . S
C624 C612 1.349 . S
C624 H618 0.950 . S
C624 C625 1.327 . S
C625 H619 0.950 . S
C625 C624 1.327 . S
C625 C629 1.429 . S
C626 C609 1.574 . S
C626 H620 0.949 . S
C626 C630 1.368 . S
C627 C608 1.429 . S
C627 C621 1.429 . S
C627 C628 1.523 . S
C628 C609 1.368 . S
C628 C622 1.368 . S
C628 C627 1.523 . S
C629 C613 1.429 . S
C629 C625 1.429 . S
C629 C630 1.523 . S
C630 C614 1.368 . S
C630 C626 1.368 . S
C630 C629 1.523 . S
H631 C606 0.950 . S
H632 C608 0.950 . S
H633 C609 0.949 . S
H634 C611 0.950 . S
H635 C613 0.950 . S
C636 C637 1.349 . S
C636 C638 1.327 . S
C636 H661 0.950 . S
C637 C636 1.349 . S
C637 C653 1.349 . S
C638 C636 1.327 . S
C638 C657 1.429 . S
C638 H662 0.950 . S
C639 C656 1.574 . S
C639 C658 1.368 . S
C639 H663 0.949 1_545 S
H640 C644 0.949 . S
C641 C642 1.349 . S
C641 C643 1.327 . S
C641 H664 0.950 1_545 S
C642 C641 1.349 . S
C642 C654 1.349 . S
C643 C641 1.327 . S
C643 C659 1.429 . S
C643 H665 0.950 1_545 S
C644 H640 0.949 . S
C644 C652 1.574 . S
C644 C660 1.368 . S
H645 C653 0.950 1_565 S
H646 C651 0.950 1_565 S
H647 C652 0.949 . S
H648 C654 0.950 . S
H649 C655 0.950 . S
H650 C656 0.949 1_565 S
C651 H646 0.950 1_545 S
C651 C653 1.327 . S
C651 C657 1.429 . S
C652 C644 1.574 . S
C652 H647 0.949 . S
C652 C658 1.368 . S
C653 C637 1.349 . S
C653 H645 0.950 1_545 S
C653 C651 1.327 . S
C654 C642 1.349 . S
C654 H648 0.950 . S
C654 C655 1.327 . S
C655 H649 0.950 . S
C655 C654 1.327 . S
C655 C659 1.429 . S
C656 C639 1.574 . S
C656 H650 0.949 1_545 S
C656 C660 1.368 . S
C657 C638 1.429 . S
C657 C651 1.429 . S
C657 C658 1.523 . S
C658 C639 1.368 . S
C658 C652 1.368 . S
C658 C657 1.523 . S
C659 C643 1.429 . S
C659 C655 1.429 . S
C659 C660 1.523 . S
C660 C644 1.368 . S
C660 C656 1.368 . S
C660 C659 1.523 . S
H661 C636 0.950 . S
H662 C638 0.950 . S
H663 C639 0.949 1_565 S
H664 C641 0.950 1_565 S
H665 C643 0.950 1_565 S
C666 C667 1.349 . S
C666 C668 1.327 . S
C666 H691 0.950 . S
C667 C666 1.349 . S
C667 C683 1.349 . S
C668 C666 1.327 . S
C668 C687 1.429 . S
C668 H692 0.950 . S
C669 C686 1.574 . S
C669 C688 1.368 . S
C669 H693 0.949 . S
H670 C674 0.949 1_554 S
C671 C672 1.349 . S
C671 C673 1.327 . S
C671 H694 0.950 . S
C672 C671 1.349 . S
C672 C684 1.349 . S
C673 C671 1.327 . S
C673 C689 1.429 . S
C673 H695 0.950 . S
C674 H670 0.949 1_556 S
C674 C682 1.574 . S
C674 C690 1.368 1_556 S
H675 C683 0.950 . S
H676 C681 0.950 . S
H677 C682 0.949 . S
H678 C684 0.950 . S
H679 C685 0.950 . S
H680 C686 0.949 1_554 S
C681 H676 0.950 . S
C681 C683 1.327 . S
C681 C687 1.429 . S
C682 C674 1.574 . S
C682 H677 0.949 . S
C682 C688 1.368 . S
C683 C667 1.349 . S
C683 H675 0.950 . S
C683 C681 1.327 . S
C684 C672 1.349 . S
C684 H678 0.950 . S
C684 C685 1.327 . S
C685 H679 0.950 . S
C685 C684 1.327 . S
C685 C689 1.429 . S
C686 C669 1.574 . S
C686 H680 0.949 1_556 S
C686 C690 1.368 1_556 S
C687 C668 1.429 . S
C687 C681 1.429 . S
C687 C688 1.523 . S
C688 C669 1.368 . S
C688 C682 1.368 . S
C688 C687 1.523 . S
C689 C673 1.429 . S
C689 C685 1.429 . S
C689 C690 1.523 . S
C690 C674 1.368 1_554 S
C690 C686 1.368 1_554 S
C690 C689 1.523 . S
H691 C666 0.950 . S
H692 C668 0.950 . S
H693 C669 0.949 . S
H694 C671 0.950 . S
H695 C673 0.950 . S
C696 C697 1.349 . S
C696 C698 1.327 . S
C696 H721 0.950 . S
C697 C696 1.349 . S
C697 C713 1.349 . S
C698 C696 1.327 . S
C698 C717 1.429 . S
C698 H722 0.950 . S
C699 C716 1.574 . S
C699 C718 1.368 . S
C699 H723 0.949 . S
H700 C704 0.949 . S
C701 C702 1.349 . S
C701 C703 1.327 . S
C701 H724 0.950 . S
C702 C701 1.349 . S
C702 C714 1.349 . S
C703 C701 1.327 . S
C703 C719 1.429 . S
C703 H725 0.950 . S
C704 H700 0.949 . S
C704 C712 1.574 . S
C704 C720 1.368 . S
H705 C713 0.950 . S
H706 C711 0.950 . S
H707 C712 0.949 . S
H708 C714 0.950 . S
H709 C715 0.950 . S
H710 C716 0.949 . S
C711 H706 0.950 . S
C711 C713 1.327 . S
C711 C717 1.429 . S
C712 C704 1.574 . S
C712 H707 0.949 . S
C712 C718 1.368 . S
C713 C697 1.349 . S
C713 H705 0.950 . S
C713 C711 1.327 . S
C714 C702 1.349 . S
C714 H708 0.950 . S
C714 C715 1.327 . S
C715 H709 0.950 . S
C715 C714 1.327 . S
C715 C719 1.429 . S
C716 C699 1.574 . S
C716 H710 0.949 . S
C716 C720 1.368 . S
C717 C698 1.429 . S
C717 C711 1.429 . S
C717 C718 1.523 . S
C718 C699 1.368 . S
C718 C712 1.368 . S
C718 C717 1.523 . S
C719 C703 1.429 . S
C719 C715 1.429 . S
C719 C720 1.523 . S
C720 C704 1.368 . S
C720 C716 1.368 . S
C720 C719 1.523 . S
H721 C696 0.950 . S
H722 C698 0.950 . S
H723 C699 0.949 . S
H724 C701 0.950 . S
H725 C703 0.950 . S
C187 C12 2.995 . S
C192 C185 2.938 . S
C217 C52 2.989 . S
C222 C163 2.936 . S
C247 C111 3.021 . S
C252 C174 2.958 . S
C277 C31 2.985 . S
C282 C179 2.936 . S
C312 C157 2.940 . S
C307 C71 2.992 . S
C342 C168 2.897 . S
C337 C92 2.944 . S
C367 C48 0.520 . S
C372 C141 0.514 . S
C397 C109 0.331 . S
C402 C146 0.228 . S
C427 C29 0.277 . S
C432 C124 0.211 . S
C462 C135 0.208 . S
C457 C69 0.260 . S
C492 C152 0.328 . S
C487 C88 0.289 . S
C517 C8 0.352 . S
C522 C130 0.354 . S
C552 C147 1.267 . S
C547 C17 1.235 . S
C577 C57 1.217 . S
C582 C125 1.244 . S
C607 C97 1.245 . S
C612 C136 1.271 . S
C642 C169 1.715 . S
C637 C42 1.688 . S
C672 C180 1.735 . S
C667 C82 1.708 . S
C697 C2 1.721 . S
C702 C158 1.740 . S
