# Generated by pormake.
# Topology sqc, (4,8)-cn, num edge types: 1
# Building blocks:
#     Node 0, Type 0, BuildingBlock: GIZVER_clean_linker_0, # of connection points: 4
#     Node 1, Type 0, BuildingBlock: GIZVER_clean_linker_0, # of connection points: 4
#     Node 2, Type 0, BuildingBlock: GIZVER_clean_linker_0, # of connection points: 4
#     Node 3, Type 0, BuildingBlock: GIZVER_clean_linker_0, # of connection points: 4
#     Node 4, Type 0, BuildingBlock: GIZVER_clean_linker_0, # of connection points: 4
#     Node 5, Type 0, BuildingBlock: GIZVER_clean_linker_0, # of connection points: 4
#     Node 6, Type 0, BuildingBlock: GIZVER_clean_linker_0, # of connection points: 4
#     Node 7, Type 0, BuildingBlock: GIZVER_clean_linker_0, # of connection points: 4
#     Node 8, Type 1, BuildingBlock: VETTIZ_charged_sbu_0, # of connection points: 8
#     Node 9, Type 1, BuildingBlock: VETTIZ_charged_sbu_0, # of connection points: 8
#     Node 10, Type 1, BuildingBlock: VETTIZ_charged_sbu_0, # of connection points: 8
#     Node 11, Type 1, BuildingBlock: VETTIZ_charged_sbu_0, # of connection points: 8
#     Edge 12, Type (0, 1), BuildingBlock: XUDNAN_clean_linker_2, # of connection points: 2
#     Edge 13, Type (0, 1), BuildingBlock: XUDNAN_clean_linker_2, # of connection points: 2
#     Edge 14, Type (0, 1), BuildingBlock: XUDNAN_clean_linker_2, # of connection points: 2
#     Edge 15, Type (0, 1), BuildingBlock: XUDNAN_clean_linker_2, # of connection points: 2
#     Edge 16, Type (0, 1), BuildingBlock: XUDNAN_clean_linker_2, # of connection points: 2
#     Edge 17, Type (0, 1), BuildingBlock: XUDNAN_clean_linker_2, # of connection points: 2
#     Edge 18, Type (0, 1), BuildingBlock: XUDNAN_clean_linker_2, # of connection points: 2
#     Edge 19, Type (0, 1), BuildingBlock: XUDNAN_clean_linker_2, # of connection points: 2
#     Edge 20, Type (0, 1), BuildingBlock: XUDNAN_clean_linker_2, # of connection points: 2
#     Edge 21, Type (0, 1), BuildingBlock: XUDNAN_clean_linker_2, # of connection points: 2
#     Edge 22, Type (0, 1), BuildingBlock: XUDNAN_clean_linker_2, # of connection points: 2
#     Edge 23, Type (0, 1), BuildingBlock: XUDNAN_clean_linker_2, # of connection points: 2
#     Edge 24, Type (0, 1), BuildingBlock: XUDNAN_clean_linker_2, # of connection points: 2
#     Edge 25, Type (0, 1), BuildingBlock: XUDNAN_clean_linker_2, # of connection points: 2
#     Edge 26, Type (0, 1), BuildingBlock: XUDNAN_clean_linker_2, # of connection points: 2
#     Edge 27, Type (0, 1), BuildingBlock: XUDNAN_clean_linker_2, # of connection points: 2
#     Edge 28, Type (0, 1), BuildingBlock: XUDNAN_clean_linker_2, # of connection points: 2
#     Edge 29, Type (0, 1), BuildingBlock: XUDNAN_clean_linker_2, # of connection points: 2
#     Edge 30, Type (0, 1), BuildingBlock: XUDNAN_clean_linker_2, # of connection points: 2
#     Edge 31, Type (0, 1), BuildingBlock: XUDNAN_clean_linker_2, # of connection points: 2
#     Edge 32, Type (0, 1), BuildingBlock: XUDNAN_clean_linker_2, # of connection points: 2
#     Edge 33, Type (0, 1), BuildingBlock: XUDNAN_clean_linker_2, # of connection points: 2
#     Edge 34, Type (0, 1), BuildingBlock: XUDNAN_clean_linker_2, # of connection points: 2
#     Edge 35, Type (0, 1), BuildingBlock: XUDNAN_clean_linker_2, # of connection points: 2
#     Edge 36, Type (0, 1), BuildingBlock: XUDNAN_clean_linker_2, # of connection points: 2
#     Edge 37, Type (0, 1), BuildingBlock: XUDNAN_clean_linker_2, # of connection points: 2
#     Edge 38, Type (0, 1), BuildingBlock: XUDNAN_clean_linker_2, # of connection points: 2
#     Edge 39, Type (0, 1), BuildingBlock: XUDNAN_clean_linker_2, # of connection points: 2
#     Edge 40, Type (0, 1), BuildingBlock: XUDNAN_clean_linker_2, # of connection points: 2
#     Edge 41, Type (0, 1), BuildingBlock: XUDNAN_clean_linker_2, # of connection points: 2
#     Edge 42, Type (0, 1), BuildingBlock: XUDNAN_clean_linker_2, # of connection points: 2
#     Edge 43, Type (0, 1), BuildingBlock: XUDNAN_clean_linker_2, # of connection points: 2
# Relax obj value: 0.167
# Max RMSD: 0.279
# Mean RMSD: 0.219
data_MOF--net-sqc--node1-VETTIZ_charged_sbu_0--node2-GIZVER_clean_linker_0--edge1-XUDNAN_clean_linker_2
_symmetry_space_group_name_H-M    P1
_symmetry_Int_Tables_number       1
_symmetry_cell_setting            triclinic
loop_
_symmetry_equiv_pos_as_xyz
'x, y, z'
_cell_length_a     24.900278
_cell_length_b     24.943231
_cell_length_c     68.359191
_cell_angle_alpha  89.610869
_cell_angle_beta   89.628713
_cell_angle_gamma 89.227247
loop_
_atom_site_label
_atom_site_type_symbol
_atom_site_fract_x
_atom_site_fract_y
_atom_site_fract_z
_atom_type_partial_charge
H0 H 0.97072 0.04188 0.46913 0.0
H1 H 0.965 0.06231 0.5317 0.0
H2 H 0.82753 1.00416 0.50065 0.0
H3 H 0.02966 0.10404 0.48451 0.0
H4 H 0.0237 0.11731 0.5099 0.0
H5 H 0.06807 0.99905 0.47748 0.0
H6 H 0.22465 0.99563 0.504 0.0
H7 H 0.1049 0.10529 0.52493 0.0
C8 C 0.95024 0.03701 0.48306 0.0
C9 C 0.89746 0.01898 0.48342 0.0
C10 C 0.97519 0.05249 0.50047 0.0
C11 C 0.94639 0.04859 0.5184 0.0
C12 C 0.8927 0.03037 0.51886 0.0
C13 C 0.8694 0.01537 0.50112 0.0
C14 C 0.02656 0.08421 0.49909 0.0
C15 C 0.07818 0.05217 0.50214 0.0
C16 C 0.09491 0.01156 0.48894 0.0
C17 C 0.14763 0.98967 0.48983 0.0
C18 C 0.18303 0.00913 0.50394 0.0
C19 C 0.16777 0.05072 0.51638 0.0
C20 C 0.11538 0.07141 0.51574 0.0
H21 H 0.38333 0.83385 0.7559 0.0
H22 H 0.25928 0.80013 0.79851 0.0
H23 H 0.2799 0.9602 0.77601 0.0
H24 H 0.39044 0.7546 0.77427 0.0
H25 H 0.35336 0.7496 0.79632 0.0
H26 H 0.36893 0.69799 0.74675 0.0
H27 H 0.27319 0.56174 0.76249 0.0
H28 H 0.26433 0.70495 0.79675 0.0
C29 C 0.34845 0.84636 0.76438 0.0
C30 C 0.3332 0.9005 0.76437 0.0
C31 C 0.32215 0.80941 0.77667 0.0
C32 C 0.27852 0.82758 0.78843 0.0
C33 C 0.26158 0.88193 0.78785 0.0
C34 C 0.28984 0.91772 0.77582 0.0
C35 C 0.34874 0.75512 0.78024 0.0
C36 C 0.31905 0.70714 0.77239 0.0
C37 C 0.33841 0.67941 0.75576 0.0
C38 C 0.32116 0.62681 0.7516 0.0
C39 C 0.28327 0.60345 0.76429 0.0
C40 C 0.26178 0.63139 0.7804 0.0
C41 C 0.27908 0.68371 0.78401 0.0
H42 H 0.55738 0.03525 0.04943 0.0
H43 H 0.5321 0.0719 0.989 0.0
H44 H 0.67411 0.98468 0.00711 0.0
H45 H 0.48974 0.09674 0.04109 0.0
H46 H 0.4951 0.12872 0.01795 0.0
H47 H 0.42713 0.02051 0.04608 0.0
H48 H 0.28771 0.03155 0.00926 0.0
H49 H 0.43174 0.11226 0.99257 0.0
C50 C 0.57014 0.03104 0.03434 0.0
C51 C 0.61979 1.00646 0.02993 0.0
C52 C 0.53824 0.05394 0.01953 0.0
C53 C 0.5568 0.0528 2e-05 0.0
C54 C 0.60774 0.03054 0.99517 0.0
C55 C 0.6366 1.00455 0.01027 0.0
C56 C 0.49036 0.08881 0.02508 0.0
C57 C 0.43685 0.06582 0.01931 0.0
C58 C 0.40829 0.03307 0.03253 0.0
C59 C 0.35431 0.02004 0.029 0.0
C60 C 0.33012 0.03824 0.01161 0.0
C61 C 0.35778 0.07131 -0.00155 0.0
C62 C 0.41134 0.08435 0.0022 0.0
H63 H 0.21569 0.21989 0.23002 0.0
H64 H 0.29459 0.21752 0.28571 0.0
H65 H 0.33301 0.09707 0.24307 0.0
H66 H 0.17737 0.26672 0.25831 0.0
H67 H 0.20989 0.26486 0.2814 0.0
H68 H 0.18671 0.34275 0.23781 0.0
H69 H 0.2789 0.47513 0.25787 0.0
H70 H 0.29564 0.32054 0.28587 0.0
C71 C 0.24628 0.2032 0.23958 0.0
C72 C 0.27451 0.15635 0.23405 0.0
C73 C 0.2544 0.22618 0.25807 0.0
C74 C 0.29119 0.20207 0.271 0.0
C75 C 0.31919 0.15509 0.26576 0.0
C76 C 0.3123 0.134 0.24698 0.0
C77 C 0.21726 0.27002 0.26543 0.0
C78 C 0.23959 0.32528 0.26198 0.0
C79 C 0.21733 0.35832 0.24735 0.0
C80 C 0.23134 0.4124 0.24594 0.0
C81 C 0.26948 0.43291 0.25878 0.0
C82 C 0.29377 0.40028 0.27315 0.0
C83 C 0.27853 0.34615 0.2746 0.0
H84 H 0.71307 0.3309 0.2952 0.0
H85 H 0.77423 0.34425 0.23649 0.0
H86 H 0.82742 0.45205 0.28117 0.0
H87 H 0.6658 0.29247 0.2678 0.0
H88 H 0.69209 0.29631 0.24366 0.0
H89 H 0.71518 0.22815 0.2926 0.0
H90 H 0.74861 0.07681 0.26494 0.0
H91 H 0.72937 0.21853 0.22999 0.0
C92 C 0.74142 0.34806 0.2849 0.0
C93 C 0.77096 0.39294 0.2904 0.0
C94 C 0.74402 0.32877 0.26563 0.0
C95 C 0.77599 0.35602 0.25169 0.0
C96 C 0.80547 0.40164 0.257 0.0
C97 C 0.80521 0.41714 0.27674 0.0
C98 C 0.70349 0.28784 0.2591 0.0
C99 C 0.72258 0.23008 0.26116 0.0
C100 C 0.72344 0.20454 0.27968 0.0
C101 C 0.73241 0.14861 0.28135 0.0
C102 C 0.74193 0.11951 0.26409 0.0
C103 C 0.74089 0.14376 0.24551 0.0
C104 C 0.73188 0.19938 0.24422 0.0
H105 H 0.61685 0.7133 0.7571 0.0
H106 H 0.70672 0.71532 0.81089 0.0
H107 H 0.70718 0.57414 0.77515 0.0
H108 H 0.59604 0.77985 0.78126 0.0
H109 H 0.62766 0.77822 0.80449 0.0
H110 H 0.64155 0.82567 0.75221 0.0
H111 H 0.74302 0.95503 0.7689 0.0
H112 H 0.70276 0.83327 0.81107 0.0
C113 C 0.64442 0.69412 0.76726 0.0
C114 C 0.65997 0.64059 0.76436 0.0
C115 C 0.66118 0.72175 0.78397 0.0
C116 C 0.69518 0.69521 0.79759 0.0
C117 C 0.71281 0.64202 0.79421 0.0
C118 C 0.69506 0.61555 0.77754 0.0
C119 C 0.63583 0.77583 0.78849 0.0
C120 C 0.67005 0.82271 0.78217 0.0
C121 C 0.66663 0.84448 0.76302 0.0
C122 C 0.69416 0.89179 0.75815 0.0
C123 C 0.72439 0.91709 0.77247 0.0
C124 C 0.72742 0.8967 0.79159 0.0
C125 C 0.70104 0.84891 0.79625 0.0
H126 H 0.44342 0.52187 0.0397 0.0
H127 H 0.43495 0.44787 0.98338 0.0
H128 H 0.29239 0.51388 0.01067 0.0
H129 H 0.50674 0.44508 0.02866 0.0
H130 H 0.51035 0.42935 0.00341 0.0
H131 H 0.53697 0.53448 0.04073 0.0
H132 H 0.67299 0.59161 0.00808 0.0
H133 H 0.56636 0.48024 0.98192 0.0
C134 C 0.42043 0.51158 0.02691 0.0
C135 C 0.36525 0.52342 0.02643 0.0
C136 C 0.44548 0.48377 0.01149 0.0
C137 C 0.41485 0.46863 0.99523 0.0
C138 C 0.35883 0.4781 0.9947 0.0
C139 C 0.33507 0.5061 0.01044 0.0
C140 C 0.50235 0.46281 0.01376 0.0
C141 C 0.54448 0.50547 0.01114 0.0
C142 C 0.55931 0.53731 0.02714 0.0
C143 C 0.60545 0.56924 0.02619 0.0
C144 C 0.63551 0.57006 0.00875 0.0
C145 C 0.62201 0.538 0.99285 0.0
C146 C 0.57548 0.50701 0.99384 0.0
H147 H 0.10831 0.51249 0.54393 0.0
H148 H 0.09087 0.56483 0.48405 0.0
H149 H 0.24664 0.52182 0.50671 0.0
H150 H 0.02993 0.56383 0.53434 0.0
H151 H 0.03224 0.60093 0.5122 0.0
H152 H 0.97074 0.49139 0.53778 0.0
H153 H 0.85625 0.46579 0.49238 0.0
H154 H 0.99315 0.56401 0.48105 0.0
C155 C 0.12532 0.51913 0.5295 0.0
C156 C 0.18104 0.51233 0.52661 0.0
C157 C 0.09236 0.53856 0.51411 0.0
C158 C 0.11574 0.54892 0.4957 0.0
C159 C 0.17142 0.54277 0.49273 0.0
C160 C 0.20335 0.52437 0.50833 0.0
C161 C 0.03597 0.55955 0.51828 0.0
C162 C 0.99098 0.5265 0.50977 0.0
C163 C 0.95969 0.495 0.5225 0.0
C164 C 0.91066 0.47385 0.51635 0.0
C165 C 0.89537 0.47986 0.49682 0.0
C166 C 0.92461 0.51238 0.48397 0.0
C167 C 0.97258 0.53574 0.49046 0.0
Fe168 Fe 0.99221 0.80699 0.18541 0.0
O169 O 0.99315 0.81435 0.15662 0.0
Fe170 Fe 0.93013 0.77987 0.14145 0.0
Fe171 Fe 0.05322 0.78738 0.13969 0.0
O172 O 0.98841 0.81286 0.15687 0.0
O173 O 0.98989 0.75169 0.12457 0.0
O174 O 0.99502 0.75272 0.1244 0.0
Fe175 Fe 0.99023 0.75821 0.09582 0.0
C176 C 0.09469 0.8638 0.17175 0.0
O177 O 0.05325 0.7499 0.18647 0.0
O178 O 0.05954 0.71882 0.15608 0.0
O179 O 0.92811 0.70374 0.09851 0.0
O180 O 0.87619 0.74143 0.12318 0.0
O181 O 0.9343 0.7104 0.15788 0.0
O182 O 0.93715 0.74547 0.18765 0.0
O183 O 0.10852 0.75245 0.12014 0.0
O184 O 0.05693 0.7074 0.09762 0.0
C185 C 0.92968 0.70591 0.17634 0.0
O186 O 0.9289 0.81491 0.09494 0.0
O187 O 0.92353 0.84841 0.125 0.0
O188 O 0.05113 0.86337 0.18231 0.0
O189 O 0.10629 0.82954 0.1579 0.0
C190 C 0.06576 0.71306 0.17438 0.0
C191 C 0.10235 0.71766 0.10618 0.0
C192 C 0.06254 0.8549 0.10454 0.0
O193 O 0.05045 0.85571 0.12265 0.0
O194 O 0.0468 0.8174 0.09352 0.0
C195 C 0.88351 0.70968 0.10838 0.0
O196 O 0.87442 0.81653 0.16063 0.0
O197 O 0.92736 0.85855 0.18337 0.0
C198 C 0.91133 0.84976 0.10701 0.0
C199 C 0.8831 0.85312 0.17371 0.0
Fe200 Fe 0.54254 0.76297 0.4334 0.0
O201 O 0.56065 0.76647 0.40533 0.0
Fe202 Fe 0.53231 0.83089 0.38863 0.0
Fe203 Fe 0.5441 0.70809 0.38672 0.0
O204 O 0.5591 0.77095 0.40551 0.0
O205 O 0.51187 0.77255 0.37021 0.0
O206 O 0.51278 0.76704 0.37011 0.0
Fe207 Fe 0.53093 0.77465 0.34211 0.0
C208 C 0.61255 0.66639 0.42156 0.0
O209 O 0.49112 0.69908 0.43091 0.0
O210 O 0.46991 0.69861 0.39933 0.0
O211 O 0.47353 0.83591 0.34224 0.0
O212 O 0.50135 0.88618 0.36848 0.0
O213 O 0.45697 0.82855 0.40128 0.0
O214 O 0.47632 0.8143 0.43277 0.0
O215 O 0.51945 0.6542 0.36526 0.0
O216 O 0.48301 0.70701 0.34049 0.0
C217 C 0.44372 0.82859 0.41931 0.0
O218 O 0.58476 0.8369 0.34472 0.0
O219 O 0.60703 0.83712 0.37604 0.0
O220 O 0.60426 0.7078 0.43263 0.0
O221 O 0.58316 0.65438 0.40643 0.0
C222 C 0.45898 0.68882 0.4171 0.0
C223 C 0.49032 0.66131 0.34963 0.0
C224 C 0.62444 0.70193 0.35588 0.0
O225 O 0.6181 0.71542 0.37359 0.0
O226 O 0.59193 0.71839 0.34284 0.0
C227 C 0.47554 0.88034 0.35215 0.0
O228 O 0.55999 0.88449 0.40973 0.0
O229 O 0.59015 0.82918 0.43461 0.0
C230 C 0.61429 0.85301 0.35856 0.0
C231 C 0.5911 0.87333 0.42448 0.0
Fe232 Fe 0.53893 0.26365 0.66137 0.0
O233 O 0.58554 0.28864 0.63956 0.0
Fe234 Fe 0.41875 0.23706 0.64007 0.0
Fe235 Fe 0.66355 0.28496 0.64046 0.0
O236 O 0.49754 0.22927 0.64013 0.0
O237 O 0.49803 0.22867 0.63784 0.0
O238 O 0.58512 0.28993 0.6377 0.0
Fe239 Fe 0.54189 0.26011 0.61582 0.0
C240 C 0.62095 0.3435 0.67651 0.0
O241 O 0.58311 0.19516 0.66498 0.0
O242 O 0.66645 0.22608 0.66253 0.0
O243 O 0.48798 0.22312 0.59667 0.0
O244 O 0.42458 0.18336 0.61708 0.0
O245 O 0.42593 0.18475 0.66307 0.0
O246 O 0.48545 0.23045 0.68201 0.0
O247 O 0.67188 0.22632 0.62038 0.0
O248 O 0.59178 0.19125 0.61392 0.0
C249 C 0.4511 0.19231 0.67931 0.0
O250 O 0.49298 0.32945 0.61449 0.0
O251 O 0.41277 0.29243 0.61839 0.0
O252 O 0.58623 0.30683 0.681 0.0
O253 O 0.65229 0.34194 0.66139 0.0
C254 C 0.63313 0.19012 0.66789 0.0
C255 C 0.64334 0.19043 0.61273 0.0
C256 C 0.63375 0.33275 0.60024 0.0
O257 O 0.65846 0.33644 0.61688 0.0
O258 O 0.5947 0.29993 0.5963 0.0
C259 C 0.44734 0.19145 0.60006 0.0
O260 O 0.41439 0.29945 0.66105 0.0
O261 O 0.49558 0.33226 0.6581 0.0
C262 C 0.4423 0.32888 0.61145 0.0
C263 C 0.44726 0.33782 0.66335 0.0
Fe264 Fe 0.95606 0.27234 0.93382 0.0
O265 O 0.94934 0.26701 0.90527 0.0
Fe266 Fe 0.98147 0.32706 0.88771 0.0
Fe267 Fe 0.9766 0.20405 0.89005 0.0
O268 O 0.94954 0.27179 0.90522 0.0
O269 O 0.00994 0.26472 0.87243 0.0
O270 O 0.01072 0.25939 0.87267 0.0
Fe271 Fe 1.00231 0.26089 0.84387 0.0
C272 C 0.04898 0.19722 0.92521 0.0
O273 O 0.89727 0.21543 0.93219 0.0
O274 O 0.93325 0.15504 0.90991 0.0
O275 O 0.94672 0.32424 0.842 0.0
O276 O 0.91202 0.32956 0.87184 0.0
O277 O 0.94616 0.38653 0.9056 0.0
O278 O 0.90753 0.33894 0.931 0.0
O279 O 0.90761 0.20511 0.87371 0.0
O280 O 0.94224 0.20564 0.84375 0.0
C281 C 0.91376 0.38195 0.92054 0.0
O282 O 0.05829 0.32143 0.84455 0.0
O283 O 0.01989 0.37744 0.86772 0.0
O284 O 0.00932 0.209 0.9362 0.0
O285 O 0.04595 0.19999 0.90665 0.0
C286 C 0.89705 0.17037 0.92273 0.0
C287 C 0.90641 0.19108 0.85591 0.0
C288 C 0.04353 0.14921 0.85654 0.0
O289 O 0.01137 0.1454 0.87167 0.0
O290 O 0.05169 0.19292 0.84634 0.0
C291 C 0.91092 0.34194 0.85382 0.0
O292 O 0.0512 0.32658 0.90331 0.0
O293 O 0.02016 0.32531 0.93403 0.0
C294 C 0.05305 0.36726 0.8534 0.0
C295 C 0.05703 0.33468 0.92144 0.0
H296 H 0.21159 0.9008 0.49509 0.0
H297 H 0.1403 1.00104 0.44998 0.0
H298 H 0.20139 0.96011 0.42546 0.0
H299 H 0.33876 0.91893 0.48174 0.0
H300 H 0.36429 0.85236 0.48686 0.0
H301 H 0.30608 0.87717 0.49973 0.0
H302 H 0.2508 0.79597 0.48825 0.0
H303 H 0.30938 0.77005 0.47566 0.0
H304 H 0.24761 0.78077 0.46254 0.0
H305 H 0.28187 0.92109 0.40727 0.0
H306 H 0.37068 0.88536 0.397 0.0
H307 H 0.39206 0.81425 0.45458 0.0
C308 C 0.20723 0.91237 0.47988 0.0
C309 C 0.17075 0.95381 0.47444 0.0
C310 C 0.16697 0.96863 0.45446 0.0
C311 C 0.20194 0.94583 0.44044 0.0
C312 C 0.24006 0.90778 0.44658 0.0
C313 C 0.24213 0.89038 0.46582 0.0
C314 C 0.29084 0.85443 0.4693 0.0
C315 C 0.3271 0.87711 0.48535 0.0
C316 C 0.27361 0.7969 0.47423 0.0
C317 C 0.31773 0.85699 0.44939 0.0
C318 C 0.28722 0.88672 0.43631 0.0
C319 C 0.30553 0.89701 0.41733 0.0
C320 C 0.35622 0.87669 0.41165 0.0
C321 C 0.3887 0.8472 0.42499 0.0
C322 C 0.36849 0.83678 0.44402 0.0
H323 H 0.33344 0.924 0.72541 0.0
H324 H 0.40143 0.97041 0.7808 0.0
H325 H 0.44306 0.04936 0.76492 0.0
H326 H 0.44569 0.96972 0.69385 0.0
H327 H 0.40106 0.99351 0.67495 0.0
H328 H 0.38232 0.93745 0.69016 0.0
H329 H 0.29403 0.98659 0.69977 0.0
H330 H 0.31223 0.0431 0.68476 0.0
H331 H 0.2968 0.05255 0.71031 0.0
H332 H 0.46904 0.12799 0.7436 0.0
H333 H 0.48393 0.19641 0.71778 0.0
H334 H 0.39652 0.0984 0.67679 0.0
C335 C 0.35857 0.94997 0.73395 0.0
C336 C 0.36532 0.94117 0.75413 0.0
C337 C 0.39684 0.97655 0.76519 0.0
C338 C 0.42032 0.02142 0.75634 0.0
C339 C 0.41156 0.03019 0.73647 0.0
C340 C 0.38199 0.99509 0.72536 0.0
C341 C 0.37571 0.01538 0.70461 0.0
C342 C 0.40284 0.97674 0.69003 0.0
C343 C 0.31616 0.02498 0.69958 0.0
C344 C 0.40551 0.06766 0.70588 0.0
C345 C 0.42598 0.0756 0.72432 0.0
C346 C 0.45367 0.12198 0.72902 0.0
C347 C 0.46175 0.16071 0.7143 0.0
C348 C 0.44127 0.15309 0.69525 0.0
C349 C 0.41263 0.10588 0.69117 0.0
H350 H 0.30244 0.03462 0.96646 0.0
H351 H 0.33852 0.17748 -0.00064 0.0
H352 H 0.26805 0.22757 0.98154 0.0
H353 H 0.26947 0.11118 0.91885 0.0
H354 H 0.21759 0.06449 0.91281 0.0
H355 H 0.27619 0.04174 0.92601 0.0
H356 H 0.21466 1.00381 0.95329 0.0
H357 H 0.15599 0.02732 0.94045 0.0
H358 H 0.16705 0.04784 0.96532 0.0
H359 H 0.18009 0.25234 0.96809 0.0
H360 H 0.0925 0.26127 0.95207 0.0
H361 H 0.12028 0.11138 0.92177 0.0
C362 C 0.29687 0.07705 0.96919 0.0
C363 C 0.3261 0.10262 0.98407 0.0
C364 C 0.31714 0.1577 0.98776 0.0
C365 C 0.27701 0.1863 0.9778 0.0
C366 C 0.24734 0.15958 0.96379 0.0
C367 C 0.25803 0.10689 0.95882 0.0
C368 C 0.21838 0.08774 0.94362 0.0
C369 C 0.24713 0.07558 0.92416 0.0
C370 C 0.18719 0.03879 0.95113 0.0
C371 C 0.18198 0.13686 0.94179 0.0
C372 C 0.19926 0.17734 0.95388 0.0
C373 C 0.16773 0.2225 0.95768 0.0
C374 C 0.118 0.22726 0.94848 0.0
C375 C 0.10138 0.18886 0.93475 0.0
C376 C 0.13365 0.14277 0.93139 0.0
H377 H 0.17223 0.13153 0.22453 0.0
H378 H 0.33755 0.10326 0.2069 0.0
H379 H 0.30854 0.02992 0.18532 0.0
H380 H 0.13986 1.00288 0.23017 0.0
H381 H 0.07194 0.00806 0.22132 0.0
H382 H 0.10338 0.0657 0.23157 0.0
H383 H 0.08565 0.12026 0.19981 0.0
H384 H 0.05281 0.06305 0.18955 0.0
H385 H 0.10781 0.09377 0.1766 0.0
H386 H 0.26188 0.94974 0.16974 0.0
H387 H 0.20229 0.87416 0.16144 0.0
H388 H 0.06966 0.95666 0.19038 0.0
C389 C 0.20206 0.11189 0.21537 0.0
C390 C 0.25702 0.12362 0.2172 0.0
C391 C 0.2951 0.0952 0.20558 0.0
C392 C 0.27898 0.05347 0.19329 0.0
C393 C 0.22459 0.04095 0.19266 0.0
C394 C 0.18668 0.07008 0.2032 0.0
C395 C 0.13186 0.04518 0.20203 0.0
C396 C 0.11058 0.02953 0.22248 0.0
C397 C 0.0922 0.0828 0.19135 0.0
C398 C 0.14513 0.99628 0.18993 0.0
C399 C 0.19844 0.99464 0.18428 0.0
C400 C 0.21987 0.9511 0.17389 0.0
C401 C 0.18588 0.90822 0.16931 0.0
C402 C 0.13146 0.90894 0.17547 0.0
C403 C 0.11117 0.95418 0.18561 0.0
H404 H 0.2171 0.02203 0.55067 0.0
H405 H 0.21439 0.14252 0.50475 0.0
H406 H 0.293 0.18637 0.51944 0.0
H407 H 0.25063 0.1133 0.58948 0.0
H408 H 0.29238 0.06496 0.60216 0.0
H409 H 0.23734 0.04267 0.58749 0.0
H410 H 0.30335 0.98202 0.56785 0.0
H411 H 0.35879 1.00512 0.5822 0.0
H412 H 0.36074 0.01146 0.55593 0.0
H413 H 0.37267 0.21546 0.53856 0.0
H414 H 0.43842 0.23775 0.56398 0.0
H415 H 0.38699 0.10068 0.59842 0.0
C416 C 0.23297 0.05794 0.54392 0.0
C417 C 0.21003 0.07948 0.52676 0.0
C418 C 0.23153 0.12617 0.51808 0.0
C419 C 0.27632 0.15086 0.52617 0.0
C420 C 0.29879 0.12829 0.54297 0.0
C421 C 0.27725 0.08357 0.55199 0.0
C422 C 0.30721 0.06935 0.57055 0.0
C423 C 0.26966 0.07281 0.58848 0.0
C424 C 0.33411 0.01368 0.56903 0.0
C425 C 0.34859 0.1133 0.57063 0.0
C426 C 0.34376 0.14616 0.55437 0.0
C427 C 0.37697 0.19 0.55135 0.0
C428 C 0.41463 0.20198 0.56577 0.0
C429 C 0.41807 0.17067 0.58309 0.0
C430 C 0.38552 0.12502 0.58525 0.0
H431 H 0.18485 0.95748 0.77868 0.0
H432 H 0.24353 0.86009 0.827 0.0
H433 H 0.18638 0.9127 0.84984 0.0
H434 H 0.19454 0.07745 0.80212 0.0
H435 H 0.13575 0.10847 0.79145 0.0
H436 H 0.17132 0.05639 0.77849 0.0
H437 H 0.08416 1.0012 0.77625 0.0
H438 H 0.04791 0.05353 0.78898 0.0
H439 H 0.04698 0.98573 0.79824 0.0
H440 H 0.13033 0.98403 0.86789 0.0
H441 H 0.08177 0.06578 0.87911 0.0
H442 H 0.06762 0.12009 0.81897 0.0
C443 C 0.18481 0.94627 0.79402 0.0
C444 C 0.21877 0.90444 0.801 0.0
C445 C 0.21732 0.89123 0.82119 0.0
C446 C 0.18522 0.92126 0.8343 0.0
C447 C 0.15465 0.96426 0.82701 0.0
C448 C 0.15393 0.97633 0.80725 0.0
C449 C 0.12256 0.02765 0.80318 0.0
C450 C 0.15818 0.06996 0.79323 0.0
C451 C 0.07243 0.01633 0.79094 0.0
C452 C 0.10731 0.04388 0.82379 0.0
C453 C 0.12498 1.00629 0.83734 0.0
C454 C 0.11608 0.0134 0.85735 0.0
C455 C 0.08857 0.05998 0.8636 0.0
C456 C 0.07141 0.0995 0.84993 0.0
C457 C 0.08081 0.09092 0.82979 0.0
H458 H 0.27644 0.9444 0.02434 0.0
H459 H 0.35243 0.04141 0.06844 0.0
H460 H 0.28533 0.01143 0.09284 0.0
H461 H 0.14362 0.97375 0.03822 0.0
H462 H 0.1186 0.90768 0.03343 0.0
H463 H 0.17579 0.93214 0.02002 0.0
H464 H 0.2326 0.84948 0.03106 0.0
H465 H 0.17515 0.8242 0.04414 0.0
H466 H 0.23758 0.83362 0.05676 0.0
H467 H 0.20499 0.97417 0.11207 0.0
H468 H 0.1244 0.92751 0.12459 0.0
H469 H 0.10006 0.86001 0.06697 0.0
C470 C 0.2795 0.95881 0.03919 0.0
C471 C 0.31999 0.99509 0.04444 0.0
C472 C 0.32249 0.01283 0.06409 0.0
C473 C 0.28413 0.99648 0.07803 0.0
C474 C 0.24351 0.96232 0.07212 0.0
C475 C 0.24149 0.94322 0.0532 0.0
C476 C 0.19315 0.90818 0.05027 0.0
C477 C 0.15559 0.93187 0.03456 0.0
C478 C 0.21068 0.85046 0.04527 0.0
C479 C 0.16773 0.91112 0.0704 0.0
C480 C 0.19727 0.94225 0.08289 0.0
C481 C 0.1816 0.94973 0.10236 0.0
C482 C 0.13544 0.92345 0.10931 0.0
C483 C 0.10542 0.89028 0.09678 0.0
C484 C 0.12159 0.88527 0.07698 0.0
H485 H 0.31609 0.04668 0.27138 0.0
H486 H 0.38633 0.19116 0.29464 0.0
H487 H 0.42975 0.13693 0.32076 0.0
H488 H 0.29039 0.98098 0.31678 0.0
H489 H 0.30781 0.91524 0.30776 0.0
H490 H 0.28142 0.96559 0.29129 0.0
H491 H 0.365 0.95451 0.26878 0.0
H492 H 0.39128 0.90362 0.28502 0.0
H493 H 0.43113 0.9613 0.27898 0.0
H494 H 0.46518 0.0662 0.34421 0.0
H495 H 0.49545 0.98472 0.36171 0.0
H496 H 0.40395 0.88703 0.32183 0.0
C497 C 0.34142 0.06707 0.28169 0.0
C498 C 0.34833 0.12319 0.28082 0.0
C499 C 0.38043 0.14823 0.29505 0.0
C500 C 0.40518 0.11779 0.30991 0.0
C501 C 0.3973 0.06252 0.31028 0.0
C502 C 0.36655 0.03744 0.29643 0.0
C503 C 0.36522 0.97747 0.29968 0.0
C504 C 0.30779 0.95875 0.30415 0.0
C505 C 0.38963 0.94747 0.28207 0.0
C506 C 0.40054 0.97244 0.31748 0.0
C507 C 0.41816 0.02195 0.32353 0.0
C508 C 0.45158 0.02726 0.33961 0.0
C509 C 0.46833 0.98063 0.34951 0.0
C510 C 0.45208 0.9293 0.34315 0.0
C511 C 0.41711 0.92553 0.32707 0.0
H512 H 0.89472 0.10494 0.5486 0.0
H513 H 0.80861 0.96444 0.52974 0.0
H514 H 0.736 0.98541 0.55321 0.0
H515 H 0.85213 0.09064 0.60205 0.0
H516 H 0.85025 0.16253 0.60458 0.0
H517 H 0.89803 0.13143 0.58814 0.0
H518 H 0.86218 0.19183 0.56028 0.0
H519 H 0.81206 0.22144 0.57599 0.0
H520 H 0.79233 0.18873 0.55372 0.0
H521 H 0.66397 0.03322 0.57481 0.0
H522 H 0.60904 0.09473 0.59572 0.0
H523 H 0.74832 0.19598 0.60204 0.0
C524 C 0.862 0.07702 0.54988 0.0
C525 C 0.85727 0.0339 0.53674 0.0
C526 C 0.81276 0.99906 0.53905 0.0
C527 C 0.77123 0.0103 0.55251 0.0
C528 C 0.77555 0.05525 0.56433 0.0
C529 C 0.82101 0.08665 0.56367 0.0
C530 C 0.81542 0.13373 0.57734 0.0
C531 C 0.85638 0.12929 0.59402 0.0
C532 C 0.82081 0.18711 0.56616 0.0
C533 C 0.75872 0.12581 0.58485 0.0
C534 C 0.736 0.0803 0.57739 0.0
C535 C 0.682 0.06822 0.58116 0.0
C536 C 0.6509 0.10345 0.59297 0.0
C537 C 0.67405 0.15002 0.60089 0.0
C538 C 0.7289 0.16039 0.59672 0.0
H539 H 0.78008 0.05186 0.29274 0.0
H540 H 0.66787 0.17444 0.31337 0.0
H541 H 0.64226 0.11514 0.34062 0.0
H542 H 0.68464 0.95537 0.29527 0.0
H543 H 0.73005 0.90076 0.30111 0.0
H544 H 0.75407 0.95788 0.28772 0.0
H545 H 0.82747 0.97208 0.31383 0.0
H546 H 0.80353 0.91477 0.32736 0.0
H547 H 0.80842 0.97888 0.33919 0.0
H548 H 0.61901 0.03775 0.36306 0.0
H549 H 0.58983 0.9488 0.37475 0.0
H550 H 0.6996 0.87196 0.33397 0.0
C551 C 0.7501 0.067 0.30286 0.0
C552 C 0.72577 0.11842 0.30037 0.0
C553 C 0.68833 0.13611 0.31479 0.0
C554 C 0.67312 0.10232 0.33039 0.0
C555 C 0.69482 0.05045 0.3313 0.0
C556 C 0.732 0.03272 0.31768 0.0
C557 C 0.74064 0.97247 0.31905 0.0
C558 C 0.72648 0.94504 0.29964 0.0
C559 C 0.79846 0.95876 0.32523 0.0
C560 C 0.701 0.95862 0.33513 0.0
C561 C 0.67695 1.00446 0.34267 0.0
C562 C 0.6379 1.00177 0.35733 0.0
C563 C 0.62166 0.95106 0.36391 0.0
C564 C 0.64278 0.90377 0.35529 0.0
C565 C 0.68361 0.90761 0.34098 0.0
H566 H 0.7312 1.00376 0.02972 0.0
H567 H 0.5936 0.96471 0.0665 0.0
H568 H 0.65551 0.9331 0.09224 0.0
H569 H 0.7994 0.88146 0.04054 0.0
H570 H 0.86505 0.91074 0.03869 0.0
H571 H 0.81025 0.93851 0.02473 0.0
H572 H 0.82694 0.03157 0.04006 0.0
H573 H 0.88127 1.00384 0.05436 0.0
H574 H 0.82627 0.0384 0.0663 0.0
H575 H 0.73336 0.90391 0.1138 0.0
H576 H 0.81756 0.86433 0.12676 0.0
H577 H 0.9008 0.90794 0.07322 0.0
C578 C 0.71316 0.98782 0.04292 0.0
C579 C 0.6567 0.98698 0.04579 0.0
C580 C 0.63639 0.96717 0.06387 0.0
C581 C 0.67132 0.94884 0.07861 0.0
C582 C 0.72648 0.94953 0.07498 0.0
C583 C 0.74706 0.96735 0.05737 0.0
C584 C 0.80712 0.95785 0.05598 0.0
C585 C 0.82126 0.91987 0.03898 0.0
C586 C 0.83715 0.0111 0.05407 0.0
C587 C 0.8173 0.93148 0.07559 0.0
C588 C 0.77058 0.92857 0.0866 0.0
C589 C 0.77007 0.9059 0.10528 0.0
C590 C 0.81813 0.88396 0.11258 0.0
C591 C 0.86546 0.88354 0.10097 0.0
C592 C 0.86516 0.90829 0.08239 0.0
H593 H 0.82232 0.94956 0.7888 0.0
H594 H 0.68863 0.92042 0.82826 0.0
H595 H 0.72178 0.9905 0.85041 0.0
H596 H 0.92305 0.98601 0.82614 0.0
H597 H 0.95067 0.03724 0.81048 0.0
H598 H 0.92193 0.97826 0.79994 0.0
H599 H 0.85845 0.03866 0.77915 0.0
H600 H 0.88613 0.09774 0.78987 0.0
H601 H 0.81483 0.08652 0.79121 0.0
H602 H 0.76527 0.07141 0.86647 0.0
H603 H 0.81754 0.15153 0.87541 0.0
H604 H 0.91639 0.12964 0.82343 0.0
C605 C 0.80072 0.95699 0.80234 0.0
C606 C 0.75306 0.92949 0.80685 0.0
C607 C 0.72581 0.9404 0.82468 0.0
C608 C 0.74408 0.98045 0.83727 0.0
C609 C 0.78964 0.00893 0.83179 0.0
C610 C 0.81792 0.99709 0.81484 0.0
C611 C 0.86267 0.03621 0.81121 0.0
C612 C 0.91783 1.00772 0.812 0.0
C613 C 0.85501 0.06656 0.79171 0.0
C614 C 0.85433 0.07283 0.82847 0.0
C615 C 0.81269 0.05631 0.8404 0.0
C616 C 0.79808 0.08454 0.85723 0.0
C617 C 0.82765 0.13017 0.86213 0.0
C618 C 0.87057 0.14737 0.85001 0.0
C619 C 0.88332 0.11834 0.8329 0.0
H620 H 0.87475 0.92246 0.46883 0.0
H621 H 0.84796 0.0923 0.45996 0.0
H622 H 0.77081 0.07339 0.43852 0.0
H623 H 0.8218 0.87651 0.41866 0.0
H624 H 0.79177 0.81874 0.43001 0.0
H625 H 0.85394 0.84438 0.43928 0.0
H626 H 0.81158 0.85233 0.47371 0.0
H627 H 0.74907 0.82761 0.46489 0.0
H628 H 0.75084 0.89156 0.47699 0.0
H629 H 0.68477 0.03578 0.42447 0.0
H630 H 0.60286 0.98276 0.41794 0.0
H631 H 0.68706 0.83917 0.43774 0.0
C632 C 0.85468 0.95526 0.46126 0.0
C633 C 0.86768 0.00852 0.46541 0.0
C634 C 0.83925 0.05115 0.45628 0.0
C635 C 0.79523 0.04072 0.44422 0.0
C636 C 0.78083 0.98748 0.44142 0.0
C637 C 0.8107 0.94536 0.44934 0.0
C638 C 0.78281 0.89252 0.44695 0.0
C639 C 0.81448 0.85589 0.43289 0.0
C640 C 0.77299 0.86446 0.46681 0.0
C641 C 0.73099 0.91188 0.43788 0.0
C642 C 0.73071 0.96634 0.43419 0.0
C643 C 0.68497 0.99291 0.42701 0.0
C644 C 0.63853 0.96279 0.42353 0.0
C645 C 0.63816 0.90726 0.42785 0.0
C646 C 0.68543 0.88186 0.43474 0.0
H647 H 0.70868 0.03945 0.23998 0.0
H648 H 0.79146 0.16984 0.21067 0.0
H649 H 0.81614 0.10872 0.18381 0.0
H650 H 0.81274 0.95246 0.23438 0.0
H651 H 0.77289 0.8931 0.23186 0.0
H652 H 0.7465 0.94953 0.24511 0.0
H653 H 0.66336 0.95245 0.22248 0.0
H654 H 0.68987 0.89595 0.20902 0.0
H655 H 0.67258 0.95735 0.19635 0.0
H656 H 0.84536 0.03146 0.16325 0.0
H657 H 0.88724 0.94529 0.15357 0.0
H658 H 0.79837 0.8634 0.19912 0.0
C659 C 0.73173 0.05572 0.22791 0.0
C660 C 0.74849 0.10981 0.2277 0.0
C661 C 0.77726 0.12904 0.21119 0.0
C662 C 0.79155 0.09444 0.19582 0.0
C663 C 0.77715 0.04062 0.19718 0.0
C664 C 0.74826 0.02131 0.21296 0.0
C665 C 0.74715 0.96055 0.21318 0.0
C666 C 0.77129 0.93761 0.23225 0.0
C667 C 0.68982 0.9404 0.21006 0.0
C668 C 0.78252 0.9484 0.19563 0.0
C669 C 0.79727 0.99518 0.18607 0.0
C670 C 0.83324 0.99464 0.17038 0.0
C671 C 0.85665 0.94557 0.16493 0.0
C672 C 0.84488 0.89805 0.17539 0.0
C673 C 0.80631 0.89909 0.19053 0.0
H674 H 0.69902 0.98045 0.97804 0.0
H675 H 0.58185 0.10874 0.96715 0.0
H676 H 0.63786 0.14125 0.94061 0.0
H677 H 0.80164 0.06611 0.97917 0.0
H678 H 0.85186 0.02176 0.96881 0.0
H679 H 0.79525 0.99447 0.98164 0.0
H680 H 0.7712 0.93849 0.95121 0.0
H681 H 0.8281 0.96567 0.93824 0.0
H682 H 0.76184 0.97151 0.92792 0.0
H683 H 0.71258 0.17382 0.9206 0.0
H684 H 0.8015 0.20777 0.91125 0.0
H685 H 0.87799 0.07009 0.9388 0.0
C686 C 0.68407 0.01544 0.97039 0.0
C687 C 0.63505 0.0419 0.97571 0.0
C688 C 0.61794 0.08603 0.96389 0.0
C689 C 0.65003 0.10545 0.94854 0.0
C690 C 0.6999 0.08129 0.94512 0.0
C691 C 0.71706 0.03732 0.95579 0.0
C692 C 0.77653 0.02592 0.95232 0.0
C693 C 0.80814 0.02719 0.97162 0.0
C694 C 0.78489 0.9722 0.94179 0.0
C695 C 0.79086 0.07258 0.93901 0.0
C696 C 0.74532 0.10244 0.93435 0.0
C697 C 0.74826 0.1502 0.9238 0.0
C698 C 0.79893 0.16921 0.91859 0.0
C699 C 0.8462 0.14108 0.92412 0.0
C700 C 0.84225 0.09131 0.93392 0.0
H701 H 0.60757 0.94881 0.74466 0.0
H702 H 0.77147 0.90375 0.73032 0.0
H703 H 0.77278 0.97231 0.70397 0.0
H704 H 0.56242 0.98451 0.69405 0.0
H705 H 0.52393 0.04182 0.70219 0.0
H706 H 0.53137 0.98402 0.71796 0.0
H707 H 0.56725 0.04313 0.74499 0.0
H708 H 0.56463 0.1028 0.73004 0.0
H709 H 0.627 0.08188 0.74091 0.0
H710 H 0.76066 0.05563 0.6827 0.0
H711 H 0.73228 0.1397 0.66586 0.0
H712 H 0.57607 0.12954 0.69399 0.0
C713 C 0.64257 0.95146 0.73523 0.0
C714 C 0.68882 0.91976 0.73902 0.0
C715 C 0.73514 0.9265 0.72717 0.0
C716 C 0.73636 0.96571 0.71231 0.0
C717 C 0.69088 0.998 0.70946 0.0
C718 C 0.64444 0.99059 0.72036 0.0
C719 C 0.60298 0.03384 0.71574 0.0
C720 C 0.55217 0.00956 0.70697 0.0
C721 C 0.58965 0.06731 0.73401 0.0
C722 C 0.63325 0.06674 0.70066 0.0
C723 C 0.68404 0.04579 0.6973 0.0
C724 C 0.72055 0.07176 0.68496 0.0
C725 C 0.70431 0.11973 0.67557 0.0
C726 C 0.65188 0.14103 0.67844 0.0
C727 C 0.61618 0.11391 0.69121 0.0
H728 H 0.7239 0.50551 -0.00097 0.0
H729 H 0.61262 0.54531 0.95256 0.0
H730 H 0.68426 0.52554 0.92794 0.0
H731 H 0.84784 0.55489 0.9756 0.0
H732 H 0.88701 0.49956 0.98524 0.0
H733 H 0.82971 0.52483 -0.00127 0.0
H734 H 0.78859 0.42974 -0.00052 0.0
H735 H 0.84599 0.40427 0.98633 0.0
H736 H 0.77951 0.39459 0.9768 0.0
H737 H 0.76814 0.49475 0.90865 0.0
H738 H 0.84764 0.44258 0.8971 0.0
H739 H 0.89923 0.4203 0.95687 0.0
C740 C 0.71499 0.51147 0.98366 0.0
C741 C 0.66337 0.52805 0.9776 0.0
C742 C 0.65232 0.53324 0.95741 0.0
C743 C 0.69285 0.52258 0.94341 0.0
C744 C 0.74377 0.50664 0.94997 0.0
C745 C 0.75444 0.50061 0.96969 0.0
C746 C 0.80945 0.47655 0.97324 0.0
C747 C 0.84563 0.51635 0.98383 0.0
C748 C 0.80561 0.42314 0.98461 0.0
C749 C 0.82787 0.46811 0.95242 0.0
C750 C 0.79038 0.48705 0.9391 0.0
C751 C 0.79777 0.48022 0.91899 0.0
C752 C 0.84303 0.45078 0.91251 0.0
C753 C 0.87896 0.42747 0.92614 0.0
C754 C 0.87248 0.43837 0.94619 0.0
H755 H 0.8076 0.5119 0.2574 0.0
H756 H 0.85599 0.37564 0.22185 0.0
H757 H 0.8922 0.43827 0.19688 0.0
H758 H 0.7694 0.60027 0.21969 0.0
H759 H 0.79602 0.65885 0.23126 0.0
H760 H 0.77361 0.60326 0.24597 0.0
H761 H 0.86687 0.5966 0.26255 0.0
H762 H 0.88939 0.65257 0.24804 0.0
H763 H 0.92644 0.59 0.24757 0.0
H764 H 0.92124 0.51823 0.17534 0.0
H765 H 0.94399 0.60589 0.1604 0.0
H766 H 0.88196 0.687 0.21189 0.0
C767 C 0.82698 0.49452 0.24469 0.0
C768 C 0.82947 0.43825 0.24189 0.0
C769 C 0.85328 0.41837 0.22443 0.0
C770 C 0.8742 0.4537 0.21019 0.0
C771 C 0.87139 0.50884 0.21365 0.0
C772 C 0.84876 0.52888 0.23062 0.0
C773 C 0.85094 0.58947 0.23119 0.0
C774 C 0.79411 0.6144 0.23207 0.0
C775 C 0.88547 0.60825 0.24835 0.0
C776 C 0.87791 0.60084 0.21176 0.0
C777 C 0.88917 0.55399 0.20173 0.0
C778 C 0.9128 0.55499 0.18317 0.0
C779 C 0.92534 0.60499 0.17476 0.0
C780 C 0.91479 0.65334 0.18498 0.0
C781 C 0.89088 0.65084 0.20374 0.0
H782 H 0.88458 0.612 0.4783 0.0
H783 H 0.89255 0.45466 0.45224 0.0
H784 H 0.81755 0.47971 0.43018 0.0
H785 H 0.75065 0.61511 0.48254 0.0
H786 H 0.74046 0.68575 0.47793 0.0
H787 H 0.80331 0.66186 0.48761 0.0
H788 H 0.85528 0.70537 0.45872 0.0
H789 H 0.79245 0.73111 0.44942 0.0
H790 H 0.83583 0.69114 0.43395 0.0
H791 H 0.73124 0.5185 0.41455 0.0
H792 H 0.64611 0.56729 0.40689 0.0
H793 H 0.69365 0.69508 0.44571 0.0
C794 C 0.87276 0.58414 0.46708 0.0
C795 C 0.89561 0.53219 0.46641 0.0
C796 C 0.87676 0.49533 0.45244 0.0
C797 C 0.83382 0.50912 0.44 0.0
C798 C 0.80987 0.55978 0.44184 0.0
C799 C 0.8293 0.59693 0.45493 0.0
C800 C 0.79231 0.64534 0.45637 0.0
C801 C 0.77041 0.65236 0.47735 0.0
C802 C 0.82068 0.69624 0.44917 0.0
C803 C 0.74843 0.6292 0.4425 0.0
C804 C 0.75925 0.58029 0.43393 0.0
C805 C 0.72273 0.55707 0.42111 0.0
C806 C 0.67425 0.58482 0.41693 0.0
C807 C 0.66232 0.63468 0.4259 0.0
C808 C 0.70052 0.65674 0.43873 0.0
H809 H 0.61338 0.54264 0.76657 0.0
H810 H 0.66112 0.66672 0.72557 0.0
H811 H 0.6429 0.60588 0.69807 0.0
H812 H 0.67602 0.43978 0.74521 0.0
H813 H 0.62587 0.38926 0.74905 0.0
H814 H 0.62906 0.4454 0.76531 0.0
H815 H 0.52957 0.4702 0.7582 0.0
H816 H 0.52555 0.41317 0.74222 0.0
H817 H 0.50802 0.47917 0.73326 0.0
H818 H 0.63941 0.52823 0.6764 0.0
H819 H 0.64194 0.44044 0.66065 0.0
H820 H 0.59429 0.3642 0.71528 0.0
C821 C 0.61819 0.5574 0.75173 0.0
C822 C 0.63868 0.60909 0.74803 0.0
C823 C 0.64495 0.62739 0.72858 0.0
C824 C 0.63472 0.59311 0.71294 0.0
C825 C 0.61727 0.54131 0.71711 0.0
C826 C 0.60775 0.5238 0.736 0.0
C827 C 0.59459 0.46456 0.73658 0.0
C828 C 0.63374 0.43293 0.74982 0.0
C829 C 0.53594 0.4563 0.74294 0.0
C830 C 0.60263 0.45049 0.71526 0.0
C831 C 0.61463 0.49572 0.70431 0.0
C832 C 0.62891 0.49276 0.6847 0.0
C833 C 0.63104 0.4424 0.676 0.0
C834 C 0.61895 0.39526 0.68684 0.0
C835 C 0.60351 0.39952 0.70666 0.0
H836 H 0.66051 0.66363 0.02873 0.0
H837 H 0.60706 0.52835 0.06371 0.0
H838 H 0.66557 0.55648 0.09053 0.0
H839 H 0.7921 0.64408 0.0388 0.0
H840 H 0.81074 0.71365 0.03924 0.0
H841 H 0.75428 0.69329 0.02498 0.0
H842 H 0.69224 0.76074 0.04329 0.0
H843 H 0.74887 0.78232 0.05736 0.0
H844 H 0.68918 0.75914 0.06964 0.0
H845 H 0.74009 0.5914 0.11174 0.0
H846 H 0.82316 0.6309 0.12517 0.0
H847 H 0.83501 0.73473 0.07436 0.0
C848 C 0.6599 0.64066 0.04222 0.0
C849 C 0.62887 0.59376 0.04401 0.0
C850 C 0.62935 0.56504 0.06199 0.0
C851 C 0.66297 0.58048 0.07732 0.0
C852 C 0.69596 0.62459 0.07445 0.0
C853 C 0.69431 0.65457 0.05737 0.0
C854 C 0.73891 0.69522 0.05663 0.0
C855 C 0.77619 0.68596 0.03887 0.0
C856 C 0.71591 0.75276 0.05674 0.0
C857 C 0.76717 0.68203 0.07559 0.0
C858 C 0.7411 0.64219 0.08595 0.0
C859 C 0.76062 0.62279 0.10379 0.0
C860 C 0.80782 0.64497 0.11123 0.0
C861 C 0.83543 0.6847 0.1005 0.0
C862 C 0.81478 0.70356 0.08257 0.0
H863 H 0.67277 0.43349 0.29803 0.0
H864 H 0.83519 0.42871 0.32011 0.0
H865 H 0.81208 0.5019 0.34322 0.0
H866 H 0.6657 0.56687 0.29433 0.0
H867 H 0.59568 0.57509 0.30066 0.0
H868 H 0.61929 0.51329 0.29017 0.0
H869 H 0.58191 0.45982 0.31972 0.0
H870 H 0.55679 0.52152 0.33009 0.0
H871 H 0.60052 0.47824 0.3442 0.0
H872 H 0.77292 0.5844 0.36099 0.0
H873 H 0.7238 0.66861 0.36981 0.0
H874 H 0.59261 0.62216 0.33242 0.0
C875 C 0.70253 0.44578 0.30852 0.0
C876 C 0.75515 0.42438 0.30784 0.0
C877 C 0.79421 0.44367 0.3209 0.0
C878 C 0.78142 0.4853 0.33399 0.0
C879 C 0.72962 0.50747 0.33361 0.0
C880 C 0.69076 0.48802 0.3212 0.0
C881 C 0.64125 0.52371 0.32098 0.0
C882 C 0.6299 0.54605 0.30032 0.0
C883 C 0.59224 0.49405 0.32926 0.0
C884 C 0.65893 0.56725 0.33463 0.0
C885 C 0.70918 0.55683 0.34231 0.0
C886 C 0.73348 0.59277 0.35505 0.0
C887 C 0.70565 0.64055 0.3599 0.0
C888 C 0.65516 0.6524 0.35142 0.0
C889 C 0.63168 0.61482 0.33885 0.0
H890 H 0.84671 0.38438 0.517 0.0
H891 H 0.8776 0.53295 0.54732 0.0
H892 H 0.79717 0.51936 0.56784 0.0
H893 H 0.6996 0.39509 0.51813 0.0
H894 H 0.69038 0.32449 0.52258 0.0
H895 H 0.74825 0.34712 0.50901 0.0
H896 H 0.81153 0.29774 0.53326 0.0
H897 H 0.75369 0.27443 0.54654 0.0
H898 H 0.80507 0.31101 0.55908 0.0
H899 H 0.71506 0.491 0.5849 0.0
H900 H 0.64897 0.43853 0.60352 0.0
H901 H 0.67189 0.30531 0.56384 0.0
C902 C 0.83667 0.4136 0.52813 0.0
C903 C 0.86861 0.4594 0.53076 0.0
C904 C 0.8543 0.49704 0.54536 0.0
C905 C 0.80809 0.49025 0.55679 0.0
C906 C 0.77659 0.44557 0.55347 0.0
C907 C 0.79084 0.40715 0.53987 0.0
C908 C 0.75243 0.36048 0.54059 0.0
C909 C 0.7208 0.35659 0.52144 0.0
C910 C 0.78255 0.30779 0.54515 0.0
C911 C 0.71601 0.37751 0.55739 0.0
C912 C 0.7295 0.4279 0.56395 0.0
C913 C 0.70389 0.45167 0.57987 0.0
C914 C 0.66612 0.42174 0.59026 0.0
C915 C 0.65516 0.36828 0.58494 0.0
C916 C 0.67847 0.34667 0.56779 0.0
H917 H 0.80742 0.58811 0.78776 0.0
H918 H 0.68649 0.61956 0.83219 0.0
H919 H 0.72447 0.54586 0.85253 0.0
H920 H 0.80503 0.45073 0.79024 0.0
H921 H 0.87609 0.43891 0.78697 0.0
H922 H 0.84524 0.49885 0.77714 0.0
H923 H 0.91141 0.55789 0.79625 0.0
H924 H 0.9436 0.49808 0.8057 0.0
H925 H 0.91836 0.54845 0.82228 0.0
H926 H 0.76707 0.45996 0.86546 0.0
H927 H 0.82079 0.37848 0.8729 0.0
H928 H 0.91636 0.40489 0.8205 0.0
C929 C 0.79038 0.5808 0.80214 0.0
C930 C 0.7445 0.60998 0.80858 0.0
C931 C 0.72233 0.59851 0.82722 0.0
C932 C 0.74327 0.55628 0.83873 0.0
C933 C 0.78682 0.52645 0.83148 0.0
C934 C 0.8111 0.53916 0.81384 0.0
C935 C 0.85598 0.49955 0.80896 0.0
C936 C 0.84488 0.4703 0.78969 0.0
C937 C 0.91057 0.52767 0.80827 0.0
C938 C 0.85226 0.46167 0.82633 0.0
C939 C 0.81199 0.47775 0.83911 0.0
C940 C 0.79942 0.44775 0.85575 0.0
C941 C 0.8301 0.40138 0.85983 0.0
C942 C 0.8734 0.38558 0.8475 0.0
C943 C 0.88366 0.41574 0.83029 0.0
H944 H 0.26524 0.50563 0.04237 0.0
H945 H 0.40334 0.60918 0.04701 0.0
H946 H 0.35389 0.66466 0.07111 0.0
H947 H 0.17087 0.60938 0.04089 0.0
H948 H 0.11969 0.57396 0.05429 0.0
H949 H 0.16894 0.53718 0.04024 0.0
H950 H 0.19576 0.4825 0.07115 0.0
H951 H 0.14637 0.51906 0.08531 0.0
H952 H 0.21553 0.51723 0.09294 0.0
H953 H 0.2861 0.71376 0.09221 0.0
H954 H 0.20536 0.754 0.10763 0.0
H955 H 0.10993 0.62189 0.08684 0.0
C956 C 0.28542 0.53979 0.04847 0.0
C957 C 0.33825 0.55311 0.04266 0.0
C958 C 0.36322 0.59766 0.05138 0.0
C959 C 0.33534 0.62955 0.06503 0.0
C960 C 0.28258 0.61636 0.0698 0.0
C961 C 0.25794 0.57248 0.06176 0.0
C962 C 0.19939 0.56974 0.06772 0.0
C963 C 0.16258 0.57277 0.04972 0.0
C964 C 0.18865 0.51912 0.08001 0.0
C965 C 0.19443 0.61978 0.07998 0.0
C966 C 0.24307 0.64557 0.08134 0.0
C967 C 0.24798 0.69359 0.09141 0.0
C968 C 0.20188 0.71606 0.10016 0.0
C969 C 0.15137 0.69097 0.09847 0.0
C970 C 0.14795 0.64196 0.08839 0.0
H971 H 0.18464 0.55625 0.77287 0.0
H972 H 0.26123 0.63998 0.82055 0.0
H973 H 0.21065 0.58584 0.84428 0.0
H974 H 0.05438 0.5321 0.79704 0.0
H975 H 0.04947 0.46586 0.78691 0.0
H976 H 0.0845 0.51742 0.77359 0.0
H977 H 0.16924 0.45596 0.77186 0.0
H978 H 0.13473 0.4045 0.78534 0.0
H979 H 0.19759 0.4295 0.79419 0.0
H980 H 0.1564 0.51882 0.863 0.0
H981 H 0.10435 0.44139 0.87515 0.0
H982 H 0.07192 0.39499 0.8154 0.0
C983 C 0.19053 0.56369 0.78829 0.0
C984 C 0.22667 0.60305 0.79471 0.0
C985 C 0.23278 0.61137 0.8151 0.0
C986 C 0.20453 0.58041 0.82877 0.0
C987 C 0.17071 0.5409 0.82188 0.0
C988 C 0.16363 0.53238 0.80213 0.0
C989 C 0.12883 0.48417 0.79855 0.0
C990 C 0.07618 0.50091 0.78842 0.0
C991 C 0.15945 0.44099 0.78679 0.0
C992 C 0.11871 0.46609 0.81939 0.0
C993 C 0.1422 0.50005 0.83264 0.0
C994 C 0.13783 0.49192 0.85277 0.0
C995 C 0.10843 0.44795 0.85953 0.0
C996 C 0.08506 0.41223 0.84615 0.0
C997 C 0.09036 0.42136 0.82587 0.0
H998 H 0.19915 0.41258 0.54232 0.0
H999 H 0.25083 0.57724 0.54525 0.0
H1000 H 0.32642 0.54968 0.5667 0.0
H1001 H 0.23476 0.37417 0.59273 0.0
H1002 H 0.25663 0.30796 0.58553 0.0
H1003 H 0.20479 0.34239 0.57194 0.0
H1004 H 0.26092 0.32971 0.54015 0.0
H1005 H 0.31311 0.2962 0.55383 0.0
H1006 H 0.3287 0.35419 0.53909 0.0
H1007 H 0.40081 0.50137 0.58681 0.0
H1008 H 0.45996 0.43819 0.60553 0.0
H1009 H 0.35962 0.30657 0.58778 0.0
C1010 C 0.22541 0.44292 0.54803 0.0
C1011 C 0.21847 0.49718 0.54262 0.0
C1012 C 0.25486 0.53562 0.5497 0.0
C1013 C 0.29817 0.52024 0.56172 0.0
C1014 C 0.30491 0.46607 0.56641 0.0
C1015 C 0.26905 0.42814 0.55992 0.0
C1016 C 0.28586 0.37239 0.56646 0.0
C1017 C 0.24297 0.3478 0.57997 0.0
C1018 C 0.29787 0.33602 0.54882 0.0
C1019 C 0.33663 0.38474 0.57755 0.0
C1020 C 0.34742 0.43883 0.57744 0.0
C1021 C 0.39252 0.4589 0.58701 0.0
C1022 C 0.42627 0.42284 0.59745 0.0
C1023 C 0.4144 0.36758 0.59821 0.0
C1024 C 0.3697 0.34871 0.58767 0.0
H1025 H 0.36827 0.47905 0.26636 0.0
H1026 H 0.30228 0.37914 0.31266 0.0
H1027 H 0.35372 0.42949 0.33696 0.0
H1028 H 0.5013 0.5044 0.28919 0.0
H1029 H 0.50109 0.57279 0.28054 0.0
H1030 H 0.46827 0.52183 0.26658 0.0
H1031 H 0.38001 0.57848 0.26752 0.0
H1032 H 0.41242 0.62891 0.28175 0.0
H1033 H 0.35203 0.5981 0.29083 0.0
H1034 H 0.4051 0.49671 0.35662 0.0
H1035 H 0.44975 0.57644 0.36995 0.0
H1036 H 0.47432 0.63743 0.31105 0.0
C1037 C 0.36501 0.46714 0.28157 0.0
C1038 C 0.33104 0.42483 0.28749 0.0
C1039 C 0.32866 0.41051 0.30759 0.0
C1040 C 0.35756 0.43918 0.32156 0.0
C1041 C 0.38868 0.4821 0.31525 0.0
C1042 C 0.39274 0.49588 0.2957 0.0
C1043 C 0.42422 0.54697 0.29287 0.0
C1044 C 0.47684 0.5358 0.28163 0.0
C1045 C 0.39012 0.59068 0.28265 0.0
C1046 C 0.43521 0.56113 0.31393 0.0
C1047 C 0.41575 0.52244 0.3266 0.0
C1048 C 0.42072 0.52706 0.34681 0.0
C1049 C 0.44601 0.57247 0.35424 0.0
C1050 C 0.46485 0.61324 0.34152 0.0
C1051 C 0.45959 0.6072 0.32111 0.0
H1052 H 0.25684 0.51216 0.9825 0.0
H1053 H 0.37956 0.3901 0.9707 0.0
H1054 H 0.31894 0.34798 0.94753 0.0
H1055 H 0.15556 0.41627 0.98752 0.0
H1056 H 0.10321 0.45957 0.97803 0.0
H1057 H 0.15999 0.48794 0.99016 0.0
H1058 H 0.17954 0.5468 0.95959 0.0
H1059 H 0.12278 0.5185 0.94734 0.0
H1060 H 0.18841 0.51542 0.93609 0.0
H1061 H 0.24289 0.31706 0.92596 0.0
H1062 H 0.15476 0.29173 0.91246 0.0
H1063 H 0.0774 0.41988 0.94506 0.0
C1064 C 0.27177 0.47633 0.97543 0.0
C1065 C 0.32422 0.45532 0.97886 0.0
C1066 C 0.34086 0.40897 0.96827 0.0
C1067 C 0.30628 0.38407 0.95507 0.0
C1068 C 0.25446 0.4048 0.95288 0.0
C1069 C 0.23699 0.44925 0.9631 0.0
C1070 C 0.17726 0.45905 0.9605 0.0
C1071 C 0.14726 0.45547 0.98022 0.0
C1072 C 0.16638 0.51316 0.95027 0.0
C1073 C 0.16368 0.4127 0.94737 0.0
C1074 C 0.20914 0.38306 0.94252 0.0
C1075 C 0.20702 0.33964 0.92984 0.0
C1076 C 0.15696 0.32562 0.92224 0.0
C1077 C 0.1096 0.35319 0.92816 0.0
C1078 C 0.11308 0.39757 0.9407 0.0
H1079 H 0.27615 0.5437 0.73034 0.0
H1080 H 0.42492 0.63127 0.7369 0.0
H1081 H 0.4686 0.57148 0.71312 0.0
H1082 H 0.34016 0.41529 0.73043 0.0
H1083 H 0.29454 0.38598 0.71329 0.0
H1084 H 0.27195 0.43999 0.72877 0.0
H1085 H 0.24273 0.49478 0.69825 0.0
H1086 H 0.26526 0.44091 0.68265 0.0
H1087 H 0.29086 0.50752 0.67902 0.0
H1088 H 0.49767 0.50125 0.68972 0.0
H1089 H 0.51343 0.42141 0.66994 0.0
H1090 H 0.34978 0.37008 0.68103 0.0
C1091 C 0.31794 0.55071 0.72688 0.0
C1092 C 0.34647 0.59339 0.73564 0.0
C1093 C 0.40105 0.60057 0.73021 0.0
C1094 C 0.42661 0.56626 0.71676 0.0
C1095 C 0.39755 0.52425 0.7089 0.0
C1096 C 0.34458 0.51594 0.71385 0.0
C1097 C 0.324 0.46496 0.70448 0.0
C1098 C 0.30665 0.42414 0.72018 0.0
C1099 C 0.27798 0.47783 0.69025 0.0
C1100 C 0.37397 0.44566 0.69358 0.0
C1101 C 0.41546 0.48123 0.69618 0.0
C1102 C 0.46559 0.47302 0.68767 0.0
C1103 C 0.47405 0.42704 0.67645 0.0
C1104 C 0.43312 0.38841 0.67398 0.0
C1105 C 0.382 0.39843 0.68257 0.0
H1106 H 0.2614 0.50091 0.47477 0.0
H1107 H 0.14412 0.63075 0.47006 0.0
H1108 H 0.19991 0.67361 0.44478 0.0
H1109 H 0.36661 0.58377 0.47724 0.0
H1110 H 0.41429 0.54171 0.46437 0.0
H1111 H 0.35874 0.51202 0.47711 0.0
H1112 H 0.3287 0.46565 0.44525 0.0
H1113 H 0.38475 0.49476 0.43238 0.0
H1114 H 0.31743 0.50532 0.42348 0.0
H1115 H 0.27453 0.71005 0.42411 0.0
H1116 H 0.36313 0.73888 0.41153 0.0
H1117 H 0.43649 0.59314 0.43422 0.0
C1118 C 0.24666 0.53773 0.46813 0.0
C1119 C 0.1981 0.56216 0.47449 0.0
C1120 C 0.18038 0.61026 0.46524 0.0
C1121 C 0.21207 0.6352 0.45088 0.0
C1122 C 0.26144 0.61178 0.44599 0.0
C1123 C 0.27864 0.56404 0.45438 0.0
C1124 C 0.33693 0.55204 0.4495 0.0
C1125 C 0.37112 0.54714 0.46816 0.0
C1126 C 0.34225 0.50144 0.4369 0.0
C1127 C 0.35063 0.60171 0.43784 0.0
C1128 C 0.30607 0.63476 0.43533 0.0
C1129 C 0.30944 0.68414 0.42575 0.0
C1130 C 0.35976 0.70031 0.41876 0.0
C1131 C 0.40594 0.66809 0.42208 0.0
C1132 C 0.40132 0.61806 0.4315 0.0
H1133 H 0.18536 0.5098 0.2538 0.0
H1134 H 0.21467 0.39693 0.20682 0.0
H1135 H 0.17187 0.46037 0.1834 0.0
H1136 H 0.0552 0.55924 0.23618 0.0
H1137 H 0.06737 0.62681 0.244 0.0
H1138 H 0.09726 0.57106 0.25704 0.0
H1139 H 0.1916 0.61193 0.25178 0.0
H1140 H 0.162 0.66758 0.23866 0.0
H1141 H 0.2141 0.62747 0.22729 0.0
H1142 H 0.13103 0.53851 0.16501 0.0
H1143 H 0.09274 0.62406 0.15297 0.0
H1144 H 0.08989 0.68532 0.21233 0.0
C1145 C 0.18269 0.49845 0.23857 0.0
C1146 C 0.20358 0.44879 0.232 0.0
C1147 C 0.19868 0.43482 0.21207 0.0
C1148 C 0.17458 0.47056 0.19872 0.0
C1149 C 0.15513 0.51963 0.20565 0.0
C1150 C 0.15849 0.53335 0.22514 0.0
C1151 C 0.1355 0.58886 0.22882 0.0
C1152 C 0.08589 0.58631 0.2423 0.0
C1153 C 0.17837 0.62615 0.23712 0.0
C1154 C 0.12005 0.60497 0.20824 0.0
C1155 C 0.1313 0.56437 0.19511 0.0
C1156 C 0.12172 0.57044 0.17518 0.0
C1157 C 0.10012 0.61933 0.16849 0.0
C1158 C 0.08843 0.66163 0.1817 0.0
C1159 C 0.09834 0.65393 0.20184 0.0
loop_
_geom_bond_atom_site_label_1
_geom_bond_atom_site_label_2
_geom_bond_distance
_geom_bond_site_symmetry_2
_ccdc_geom_bond_type
H0 C8 0.930 . S
H1 C11 0.930 . S
H2 C13 0.930 1_565 S
H3 C14 0.970 . S
H4 C14 0.970 . S
H5 C16 0.930 . S
H6 C18 0.930 1_565 S
H7 C20 0.930 . S
C8 H0 0.930 . S
C8 C9 1.382 . S
C8 C10 1.426 . S
C9 C8 1.382 . S
C9 C13 1.389 . S
C10 C8 1.426 . S
C10 C11 1.375 . S
C10 C14 1.532 1_655 S
C11 H1 0.930 . S
C11 C10 1.375 . S
C11 C12 1.416 . S
C12 C11 1.416 . S
C12 C13 1.371 . S
C13 H2 0.930 1_545 S
C13 C9 1.389 . S
C13 C12 1.371 . S
C14 H3 0.970 . S
C14 H4 0.970 . S
C14 C10 1.532 1_455 S
C14 C15 1.499 . S
C15 C14 1.499 . S
C15 C16 1.370 . S
C15 C20 1.415 . S
C16 H5 0.930 . S
C16 C15 1.370 . S
C16 C17 1.407 1_545 S
C17 C16 1.407 1_565 S
C17 C18 1.365 1_565 S
C18 H6 0.930 1_545 S
C18 C17 1.365 1_545 S
C18 C19 1.393 . S
C19 C18 1.393 . S
C19 C20 1.387 . S
C20 H7 0.930 . S
C20 C15 1.415 . S
C20 C19 1.387 . S
H21 C29 0.930 . S
H22 C32 0.930 . S
H23 C34 0.930 . S
H24 C35 0.970 . S
H25 C35 0.970 . S
H26 C37 0.930 . S
H27 C39 0.930 . S
H28 C41 0.930 . S
C29 H21 0.930 . S
C29 C30 1.382 . S
C29 C31 1.426 . S
C30 C29 1.382 . S
C30 C34 1.389 . S
C31 C29 1.426 . S
C31 C32 1.375 . S
C31 C35 1.532 . S
C32 H22 0.930 . S
C32 C31 1.375 . S
C32 C33 1.416 . S
C33 C32 1.416 . S
C33 C34 1.371 . S
C34 H23 0.930 . S
C34 C30 1.389 . S
C34 C33 1.371 . S
C35 H24 0.970 . S
C35 H25 0.970 . S
C35 C31 1.532 . S
C35 C36 1.499 . S
C36 C35 1.499 . S
C36 C37 1.370 . S
C36 C41 1.415 . S
C37 H26 0.930 . S
C37 C36 1.370 . S
C37 C38 1.407 . S
C38 C37 1.407 . S
C38 C39 1.365 . S
C39 H27 0.930 . S
C39 C38 1.365 . S
C39 C40 1.393 . S
C40 C39 1.393 . S
C40 C41 1.387 . S
C41 H28 0.930 . S
C41 C36 1.415 . S
C41 C40 1.387 . S
H42 C50 0.930 1_565 S
H43 C53 0.916 1_556 S
H44 C55 0.930 . S
H45 C56 0.970 . S
H46 C56 0.970 . S
H47 C58 0.930 1_565 S
H48 C60 0.930 . S
H49 C62 0.930 . S
C50 H42 0.930 1_545 S
C50 C51 1.382 1_545 S
C50 C52 1.426 . S
C51 C50 1.382 1_565 S
C51 C55 1.389 . S
C52 C50 1.426 . S
C52 C53 1.375 . S
C52 C56 1.532 . S
C53 H43 0.916 1_554 S
C53 C52 1.375 . S
C53 C54 1.434 . S
C54 C53 1.434 . S
C54 C55 1.404 1_545 S
C55 H44 0.930 . S
C55 C51 1.389 . S
C55 C54 1.404 1_565 S
C56 H45 0.970 . S
C56 H46 0.970 . S
C56 C52 1.532 . S
C56 C57 1.499 . S
C57 C56 1.499 . S
C57 C58 1.370 . S
C57 C62 1.415 . S
C58 H47 0.930 1_545 S
C58 C57 1.370 . S
C58 C59 1.407 1_545 S
C59 C58 1.407 1_565 S
C59 C60 1.365 . S
C60 H48 0.930 . S
C60 C59 1.365 . S
C60 C61 1.393 1_565 S
C61 C60 1.393 1_545 S
C61 C62 1.387 . S
C62 H49 0.930 . S
C62 C57 1.415 . S
C62 C61 1.387 . S
H63 C71 0.930 . S
H64 C74 0.930 . S
H65 C76 0.930 . S
H66 C77 0.970 . S
H67 C77 0.970 . S
H68 C79 0.930 . S
H69 C81 0.930 . S
H70 C83 0.930 . S
C71 H63 0.930 . S
C71 C72 1.382 . S
C71 C73 1.426 . S
C72 C71 1.382 . S
C72 C76 1.389 . S
C73 C71 1.426 . S
C73 C74 1.375 . S
C73 C77 1.532 . S
C74 H64 0.930 . S
C74 C73 1.375 . S
C74 C75 1.416 . S
C75 C74 1.416 . S
C75 C76 1.371 . S
C76 H65 0.930 . S
C76 C72 1.389 . S
C76 C75 1.371 . S
C77 H66 0.970 . S
C77 H67 0.970 . S
C77 C73 1.532 . S
C77 C78 1.499 . S
C78 C77 1.499 . S
C78 C79 1.370 . S
C78 C83 1.415 . S
C79 H68 0.930 . S
C79 C78 1.370 . S
C79 C80 1.407 . S
C80 C79 1.407 . S
C80 C81 1.365 . S
C81 H69 0.930 . S
C81 C80 1.365 . S
C81 C82 1.393 . S
C82 C81 1.393 . S
C82 C83 1.387 . S
C83 H70 0.930 . S
C83 C78 1.415 . S
C83 C82 1.387 . S
H84 C92 0.930 . S
H85 C95 0.930 . S
H86 C97 0.930 . S
H87 C98 0.970 . S
H88 C98 0.970 . S
H89 C100 0.930 . S
H90 C102 0.930 . S
H91 C104 0.930 . S
C92 H84 0.930 . S
C92 C93 1.382 . S
C92 C94 1.426 . S
C93 C92 1.382 . S
C93 C97 1.389 . S
C94 C92 1.426 . S
C94 C95 1.375 . S
C94 C98 1.532 . S
C95 H85 0.930 . S
C95 C94 1.375 . S
C95 C96 1.416 . S
C96 C95 1.416 . S
C96 C97 1.371 . S
C97 H86 0.930 . S
C97 C93 1.389 . S
C97 C96 1.371 . S
C98 H87 0.970 . S
C98 H88 0.970 . S
C98 C94 1.532 . S
C98 C99 1.499 . S
C99 C98 1.499 . S
C99 C100 1.370 . S
C99 C104 1.415 . S
C100 H89 0.930 . S
C100 C99 1.370 . S
C100 C101 1.407 . S
C101 C100 1.407 . S
C101 C102 1.365 . S
C102 H90 0.930 . S
C102 C101 1.365 . S
C102 C103 1.393 . S
C103 C102 1.393 . S
C103 C104 1.387 . S
C104 H91 0.930 . S
C104 C99 1.415 . S
C104 C103 1.387 . S
H105 C113 0.930 . S
H106 C116 0.930 . S
H107 C118 0.930 . S
H108 C119 0.970 . S
H109 C119 0.970 . S
H110 C121 0.930 . S
H111 C123 0.930 . S
H112 C125 0.930 . S
C113 H105 0.930 . S
C113 C114 1.382 . S
C113 C115 1.426 . S
C114 C113 1.382 . S
C114 C118 1.389 . S
C115 C113 1.426 . S
C115 C116 1.375 . S
C115 C119 1.532 . S
C116 H106 0.930 . S
C116 C115 1.375 . S
C116 C117 1.416 . S
C117 C116 1.416 . S
C117 C118 1.371 . S
C118 H107 0.930 . S
C118 C114 1.389 . S
C118 C117 1.371 . S
C119 H108 0.970 . S
C119 H109 0.970 . S
C119 C115 1.532 . S
C119 C120 1.499 . S
C120 C119 1.499 . S
C120 C121 1.370 . S
C120 C125 1.415 . S
C121 H110 0.930 . S
C121 C120 1.370 . S
C121 C122 1.407 . S
C122 C121 1.407 . S
C122 C123 1.365 . S
C123 H111 0.930 . S
C123 C122 1.365 . S
C123 C124 1.393 . S
C124 C123 1.393 . S
C124 C125 1.387 . S
C125 H112 0.930 . S
C125 C120 1.415 . S
C125 C124 1.387 . S
H126 C134 0.930 . S
H127 C137 0.933 . S
H128 C139 0.930 . S
H129 C140 0.970 . S
H130 C140 0.970 . S
H131 C142 0.930 . S
H132 C144 0.930 . S
H133 C146 0.930 . S
C134 H126 0.930 . S
C134 C135 1.382 . S
C134 C136 1.426 . S
C135 C134 1.382 . S
C135 C139 1.389 . S
C136 C134 1.426 . S
C136 C137 1.375 . S
C136 C140 1.532 . S
C137 H127 0.933 . S
C137 C136 1.375 . S
C137 C138 1.416 . S
C138 C137 1.416 . S
C138 C139 1.371 . S
C139 H128 0.930 . S
C139 C135 1.389 . S
C139 C138 1.371 . S
C140 H129 0.970 . S
C140 H130 0.970 . S
C140 C136 1.532 . S
C140 C141 1.499 . S
C141 C140 1.499 . S
C141 C142 1.370 . S
C141 C146 1.415 . S
C142 H131 0.930 . S
C142 C141 1.370 . S
C142 C143 1.407 . S
C143 C142 1.407 . S
C143 C144 1.365 . S
C144 H132 0.930 . S
C144 C143 1.365 . S
C144 C145 1.393 . S
C145 C144 1.393 . S
C145 C146 1.387 . S
C146 H133 0.930 . S
C146 C141 1.415 . S
C146 C145 1.387 . S
H147 C155 0.930 . S
H148 C158 0.930 . S
H149 C160 0.930 . S
H150 C161 0.970 . S
H151 C161 0.970 . S
H152 C163 0.930 . S
H153 C165 0.930 . S
H154 C167 0.930 . S
C155 H147 0.930 . S
C155 C156 1.382 . S
C155 C157 1.426 . S
C156 C155 1.382 . S
C156 C160 1.389 . S
C157 C155 1.426 . S
C157 C158 1.375 . S
C157 C161 1.532 . S
C158 H148 0.930 . S
C158 C157 1.375 . S
C158 C159 1.416 . S
C159 C158 1.416 . S
C159 C160 1.371 . S
C160 H149 0.930 . S
C160 C156 1.389 . S
C160 C159 1.371 . S
C161 H150 0.970 . S
C161 H151 0.970 . S
C161 C157 1.532 . S
C161 C162 1.499 1_455 S
C162 C161 1.499 1_655 S
C162 C163 1.370 . S
C162 C167 1.415 . S
C163 H152 0.930 . S
C163 C162 1.370 . S
C163 C164 1.407 . S
C164 C163 1.407 . S
C164 C165 1.365 . S
C165 H153 0.930 . S
C165 C164 1.365 . S
C165 C166 1.393 . S
C166 C165 1.393 . S
C166 C167 1.387 . S
C167 H154 0.930 . S
C167 C162 1.415 . S
C167 C166 1.387 . S
Fe168 O169 1.886 . S
Fe168 O172 1.715 1_455 S
Fe168 O177 2.077 . S
Fe168 O182 1.935 1_455 S
Fe168 O188 2.077 . S
Fe168 O197 1.935 1_455 S
O169 Fe168 1.886 . S
O169 Fe171 1.715 . S
Fe170 O172 1.886 . S
Fe170 O173 1.715 . S
Fe170 O180 1.935 . S
Fe170 O181 2.077 . S
Fe170 O187 1.935 . S
Fe170 O196 2.077 . S
Fe171 O169 1.715 . S
Fe171 O174 1.886 . S
Fe171 O178 1.935 . S
Fe171 O183 2.077 . S
Fe171 O189 1.935 . S
Fe171 O193 2.077 . S
O172 Fe168 1.715 1_655 S
O172 Fe170 1.886 . S
O173 Fe170 1.715 . S
O173 Fe175 1.876 1_655 S
O174 Fe171 1.886 . S
O174 Fe175 1.725 . S
Fe175 O173 1.876 1_455 S
Fe175 O174 1.725 . S
Fe175 O179 2.069 1_455 S
Fe175 O184 1.942 . S
Fe175 O186 2.069 1_455 S
Fe175 O194 1.942 . S
C176 O188 1.381 . S
C176 O189 1.421 . S
O177 Fe168 2.077 . S
O177 C190 1.381 . S
O178 Fe171 1.935 . S
O178 C190 1.421 . S
O179 Fe175 2.069 1_655 S
O179 C195 1.381 . S
O180 Fe170 1.935 . S
O180 C195 1.421 . S
O181 Fe170 2.077 . S
O181 C185 1.381 . S
O182 Fe168 1.935 1_655 S
O182 C185 1.421 . S
O183 Fe171 2.077 . S
O183 C191 1.381 . S
O184 Fe175 1.942 . S
O184 C191 1.421 . S
C185 O181 1.381 . S
C185 O182 1.421 . S
O186 Fe175 2.069 1_655 S
O186 C198 1.381 . S
O187 Fe170 1.935 . S
O187 C198 1.421 . S
O188 Fe168 2.077 . S
O188 C176 1.381 . S
O189 Fe171 1.935 . S
O189 C176 1.421 . S
C190 O177 1.381 . S
C190 O178 1.421 . S
C191 O183 1.381 . S
C191 O184 1.421 . S
C192 O193 1.381 . S
C192 O194 1.421 . S
O193 Fe171 2.077 . S
O193 C192 1.381 . S
O194 Fe175 1.942 . S
O194 C192 1.421 . S
C195 O179 1.381 . S
C195 O180 1.421 . S
O196 Fe170 2.077 . S
O196 C199 1.381 . S
O197 Fe168 1.935 1_655 S
O197 C199 1.421 . S
C198 O186 1.381 . S
C198 O187 1.421 . S
C199 O196 1.381 . S
C199 O197 1.421 . S
Fe200 O201 1.886 . S
Fe200 O204 1.715 . S
Fe200 O209 2.077 . S
Fe200 O214 1.935 . S
Fe200 O220 2.077 . S
Fe200 O229 1.935 . S
O201 Fe200 1.886 . S
O201 Fe203 1.715 . S
Fe202 O204 1.886 . S
Fe202 O205 1.715 . S
Fe202 O212 1.935 . S
Fe202 O213 2.077 . S
Fe202 O219 1.935 . S
Fe202 O228 2.077 . S
Fe203 O201 1.715 . S
Fe203 O206 1.886 . S
Fe203 O210 1.935 . S
Fe203 O215 2.077 . S
Fe203 O221 1.935 . S
Fe203 O225 2.077 . S
O204 Fe200 1.715 . S
O204 Fe202 1.886 . S
O205 Fe202 1.715 . S
O205 Fe207 1.886 . S
O206 Fe203 1.886 . S
O206 Fe207 1.715 . S
Fe207 O205 1.886 . S
Fe207 O206 1.715 . S
Fe207 O211 2.077 . S
Fe207 O216 1.935 . S
Fe207 O218 2.077 . S
Fe207 O226 1.935 . S
C208 O220 1.381 . S
C208 O221 1.421 . S
O209 Fe200 2.077 . S
O209 C222 1.381 . S
O210 Fe203 1.935 . S
O210 C222 1.421 . S
O211 Fe207 2.077 . S
O211 C227 1.381 . S
O212 Fe202 1.935 . S
O212 C227 1.421 . S
O213 Fe202 2.077 . S
O213 C217 1.381 . S
O214 Fe200 1.935 . S
O214 C217 1.421 . S
O215 Fe203 2.077 . S
O215 C223 1.381 . S
O216 Fe207 1.935 . S
O216 C223 1.421 . S
C217 O213 1.381 . S
C217 O214 1.421 . S
O218 Fe207 2.077 . S
O218 C230 1.381 . S
O219 Fe202 1.935 . S
O219 C230 1.421 . S
O220 Fe200 2.077 . S
O220 C208 1.381 . S
O221 Fe203 1.935 . S
O221 C208 1.421 . S
C222 O209 1.381 . S
C222 O210 1.421 . S
C223 O215 1.381 . S
C223 O216 1.421 . S
C224 O225 1.381 . S
C224 O226 1.421 . S
O225 Fe203 2.077 . S
O225 C224 1.381 . S
O226 Fe207 1.935 . S
O226 C224 1.421 . S
C227 O211 1.381 . S
C227 O212 1.421 . S
O228 Fe202 2.077 . S
O228 C231 1.381 . S
O229 Fe200 1.935 . S
O229 C231 1.421 . S
C230 O218 1.381 . S
C230 O219 1.421 . S
C231 O228 1.381 . S
C231 O229 1.421 . S
Fe232 O233 1.886 . S
Fe232 O236 1.715 . S
Fe232 O241 2.077 . S
Fe232 O246 1.935 . S
Fe232 O252 2.077 . S
Fe232 O261 1.935 . S
O233 Fe232 1.886 . S
O233 Fe235 1.715 . S
Fe234 O236 1.886 . S
Fe234 O237 1.715 . S
Fe234 O244 1.935 . S
Fe234 O245 2.077 . S
Fe234 O251 1.935 . S
Fe234 O260 2.077 . S
Fe235 O233 1.715 . S
Fe235 O238 1.886 . S
Fe235 O242 1.935 . S
Fe235 O247 2.077 . S
Fe235 O253 1.935 . S
Fe235 O257 2.077 . S
O236 Fe232 1.715 . S
O236 Fe234 1.886 . S
O237 Fe234 1.715 . S
O237 Fe239 1.886 . S
O238 Fe235 1.886 . S
O238 Fe239 1.715 . S
Fe239 O237 1.886 . S
Fe239 O238 1.715 . S
Fe239 O243 2.077 . S
Fe239 O248 1.935 . S
Fe239 O250 2.077 . S
Fe239 O258 1.935 . S
C240 O252 1.381 . S
C240 O253 1.421 . S
O241 Fe232 2.077 . S
O241 C254 1.381 . S
O242 Fe235 1.935 . S
O242 C254 1.421 . S
O243 Fe239 2.077 . S
O243 C259 1.381 . S
O244 Fe234 1.935 . S
O244 C259 1.421 . S
O245 Fe234 2.077 . S
O245 C249 1.381 . S
O246 Fe232 1.935 . S
O246 C249 1.421 . S
O247 Fe235 2.077 . S
O247 C255 1.381 . S
O248 Fe239 1.935 . S
O248 C255 1.421 . S
C249 O245 1.381 . S
C249 O246 1.421 . S
O250 Fe239 2.077 . S
O250 C262 1.381 . S
O251 Fe234 1.935 . S
O251 C262 1.421 . S
O252 Fe232 2.077 . S
O252 C240 1.381 . S
O253 Fe235 1.935 . S
O253 C240 1.421 . S
C254 O241 1.381 . S
C254 O242 1.421 . S
C255 O247 1.381 . S
C255 O248 1.421 . S
C256 O257 1.381 . S
C256 O258 1.421 . S
O257 Fe235 2.077 . S
O257 C256 1.381 . S
O258 Fe239 1.935 . S
O258 C256 1.421 . S
C259 O243 1.381 . S
C259 O244 1.421 . S
O260 Fe234 2.077 . S
O260 C263 1.381 . S
O261 Fe232 1.935 . S
O261 C263 1.421 . S
C262 O250 1.381 . S
C262 O251 1.421 . S
C263 O260 1.381 . S
C263 O261 1.421 . S
Fe264 O265 1.886 . S
Fe264 O268 1.715 . S
Fe264 O273 2.077 1_455 S
Fe264 O278 1.935 1_455 S
Fe264 O284 2.077 . S
Fe264 O293 1.935 . S
O265 Fe264 1.886 . S
O265 Fe267 1.715 . S
Fe266 O268 1.886 . S
Fe266 O269 1.715 . S
Fe266 O276 1.935 1_455 S
Fe266 O277 2.077 1_455 S
Fe266 O283 1.935 . S
Fe266 O292 2.077 . S
Fe267 O265 1.715 . S
Fe267 O270 1.886 . S
Fe267 O274 1.935 1_455 S
Fe267 O279 2.077 1_455 S
Fe267 O285 1.935 . S
Fe267 O289 2.077 . S
O268 Fe264 1.715 . S
O268 Fe266 1.886 . S
O269 Fe266 1.715 . S
O269 Fe271 1.886 . S
O270 Fe267 1.886 . S
O270 Fe271 1.715 . S
Fe271 O269 1.886 . S
Fe271 O270 1.715 . S
Fe271 O275 2.077 1_455 S
Fe271 O280 1.935 1_455 S
Fe271 O282 2.077 . S
Fe271 O290 1.935 . S
C272 O284 1.381 . S
C272 O285 1.421 . S
O273 Fe264 2.077 1_655 S
O273 C286 1.381 . S
O274 Fe267 1.935 1_655 S
O274 C286 1.421 . S
O275 Fe271 2.077 1_655 S
O275 C291 1.381 . S
O276 Fe266 1.935 1_655 S
O276 C291 1.421 . S
O277 Fe266 2.077 1_655 S
O277 C281 1.381 . S
O278 Fe264 1.935 1_655 S
O278 C281 1.421 . S
O279 Fe267 2.077 1_655 S
O279 C287 1.381 . S
O280 Fe271 1.935 1_655 S
O280 C287 1.421 . S
C281 O277 1.381 . S
C281 O278 1.421 . S
O282 Fe271 2.077 . S
O282 C294 1.381 . S
O283 Fe266 1.935 . S
O283 C294 1.421 . S
O284 Fe264 2.077 . S
O284 C272 1.381 . S
O285 Fe267 1.935 . S
O285 C272 1.421 . S
C286 O273 1.381 . S
C286 O274 1.421 . S
C287 O279 1.381 . S
C287 O280 1.421 . S
C288 O289 1.381 . S
C288 O290 1.421 . S
O289 Fe267 2.077 . S
O289 C288 1.381 . S
O290 Fe271 1.935 . S
O290 C288 1.421 . S
C291 O275 1.381 . S
C291 O276 1.421 . S
O292 Fe266 2.077 . S
O292 C295 1.381 . S
O293 Fe264 1.935 . S
O293 C295 1.421 . S
C294 O282 1.381 . S
C294 O283 1.421 . S
C295 O292 1.381 . S
C295 O293 1.421 . S
H296 C308 0.930 . S
H297 C310 0.930 1_545 S
H298 C311 0.930 . S
H299 C315 0.959 . S
H300 C315 0.959 . S
H301 C315 0.961 . S
H302 C316 0.960 . S
H303 C316 0.961 . S
H304 C316 0.959 . S
H305 C319 0.929 . S
H306 C320 0.931 . S
H307 C322 0.930 . S
C308 H296 0.930 . S
C308 C309 1.399 . S
C308 C313 1.399 . S
C309 C308 1.399 . S
C309 C310 1.376 . S
C310 H297 0.930 1_565 S
C310 C309 1.376 . S
C310 C311 1.388 . S
C311 H298 0.930 . S
C311 C310 1.388 . S
C311 C312 1.390 . S
C312 C311 1.390 . S
C312 C313 1.394 . S
C312 C318 1.465 . S
C313 C308 1.399 . S
C313 C312 1.394 . S
C313 C314 1.516 . S
C314 C313 1.516 . S
C314 C315 1.502 . S
C314 C316 1.561 . S
C314 C317 1.526 . S
C315 H299 0.959 . S
C315 H300 0.959 . S
C315 H301 0.961 . S
C315 C314 1.502 . S
C316 H302 0.960 . S
C316 H303 0.961 . S
C316 H304 0.959 . S
C316 C314 1.561 . S
C317 C314 1.526 . S
C317 C318 1.396 . S
C317 C322 1.390 . S
C318 C312 1.465 . S
C318 C317 1.396 . S
C318 C319 1.399 . S
C319 H305 0.929 . S
C319 C318 1.399 . S
C319 C320 1.385 . S
C320 H306 0.931 . S
C320 C319 1.385 . S
C320 C321 1.389 . S
C321 C320 1.389 . S
C321 C322 1.387 . S
C322 H307 0.930 . S
C322 C317 1.390 . S
C322 C321 1.387 . S
H323 C335 0.930 . S
H324 C337 0.930 . S
H325 C338 0.930 . S
H326 C342 0.959 . S
H327 C342 0.959 . S
H328 C342 0.961 . S
H329 C343 0.960 . S
H330 C343 0.961 . S
H331 C343 0.959 . S
H332 C346 0.929 . S
H333 C347 0.931 . S
H334 C349 0.930 . S
C335 H323 0.930 . S
C335 C336 1.399 . S
C335 C340 1.399 . S
C336 C335 1.399 . S
C336 C337 1.376 . S
C337 H324 0.930 . S
C337 C336 1.376 . S
C337 C338 1.388 1_565 S
C338 H325 0.930 . S
C338 C337 1.388 1_545 S
C338 C339 1.390 . S
C339 C338 1.390 . S
C339 C340 1.394 1_545 S
C339 C345 1.465 . S
C340 C335 1.399 . S
C340 C339 1.394 1_565 S
C340 C341 1.516 . S
C341 C340 1.516 . S
C341 C342 1.502 . S
C341 C343 1.561 . S
C341 C344 1.526 1_565 S
C342 H326 0.959 . S
C342 H327 0.959 . S
C342 H328 0.961 . S
C342 C341 1.502 . S
C343 H329 0.960 . S
C343 H330 0.961 . S
C343 H331 0.959 . S
C343 C341 1.561 . S
C344 C341 1.526 1_545 S
C344 C345 1.396 . S
C344 C349 1.390 . S
C345 C339 1.465 . S
C345 C344 1.396 . S
C345 C346 1.399 . S
C346 H332 0.929 . S
C346 C345 1.399 . S
C346 C347 1.385 . S
C347 H333 0.931 . S
C347 C346 1.385 . S
C347 C348 1.389 . S
C348 C347 1.389 . S
C348 C349 1.387 . S
C349 H334 0.930 . S
C349 C344 1.390 . S
C349 C348 1.387 . S
H350 C362 0.930 . S
H351 C364 0.939 . S
H352 C365 0.930 1_554 S
H353 C369 0.959 . S
H354 C369 0.959 . S
H355 C369 0.961 . S
H356 C370 0.960 . S
H357 C370 0.961 . S
H358 C370 0.959 . S
H359 C373 0.929 . S
H360 C374 0.931 . S
H361 C376 0.930 . S
C362 H350 0.930 . S
C362 C363 1.399 . S
C362 C367 1.399 . S
C363 C362 1.399 . S
C363 C364 1.371 1_556 S
C364 H351 0.939 . S
C364 C363 1.371 1_554 S
C364 C365 1.385 1_554 S
C365 H352 0.930 1_556 S
C365 C364 1.385 1_556 S
C365 C366 1.390 . S
C366 C365 1.390 . S
C366 C367 1.394 . S
C366 C372 1.465 . S
C367 C362 1.399 . S
C367 C366 1.394 . S
C367 C368 1.516 . S
C368 C367 1.516 . S
C368 C369 1.502 . S
C368 C370 1.561 . S
C368 C371 1.526 . S
C369 H353 0.959 . S
C369 H354 0.959 . S
C369 H355 0.961 . S
C369 C368 1.502 . S
C370 H356 0.960 . S
C370 H357 0.961 . S
C370 H358 0.959 . S
C370 C368 1.561 . S
C371 C368 1.526 . S
C371 C372 1.396 . S
C371 C376 1.390 . S
C372 C366 1.465 . S
C372 C371 1.396 . S
C372 C373 1.399 . S
C373 H359 0.929 . S
C373 C372 1.399 . S
C373 C374 1.385 . S
C374 H360 0.931 . S
C374 C373 1.385 . S
C374 C375 1.389 . S
C375 C374 1.389 . S
C375 C376 1.387 . S
C376 H361 0.930 . S
C376 C371 1.390 . S
C376 C375 1.387 . S
H377 C389 0.930 . S
H378 C391 0.930 . S
H379 C392 0.930 1_565 S
H380 C396 0.959 . S
H381 C396 0.959 . S
H382 C396 0.961 . S
H383 C397 0.960 . S
H384 C397 0.961 . S
H385 C397 0.959 . S
H386 C400 0.929 . S
H387 C401 0.931 . S
H388 C403 0.930 . S
C389 H377 0.930 . S
C389 C390 1.399 . S
C389 C394 1.399 . S
C390 C389 1.399 . S
C390 C391 1.376 . S
C391 H378 0.930 . S
C391 C390 1.376 . S
C391 C392 1.388 . S
C392 H379 0.930 1_545 S
C392 C391 1.388 . S
C392 C393 1.390 . S
C393 C392 1.390 . S
C393 C394 1.394 . S
C393 C399 1.465 1_545 S
C394 C389 1.399 . S
C394 C393 1.394 . S
C394 C395 1.516 . S
C395 C394 1.516 . S
C395 C396 1.502 . S
C395 C397 1.561 . S
C395 C398 1.526 1_545 S
C396 H380 0.959 . S
C396 H381 0.959 . S
C396 H382 0.961 . S
C396 C395 1.502 . S
C397 H383 0.960 . S
C397 H384 0.961 . S
C397 H385 0.959 . S
C397 C395 1.561 . S
C398 C395 1.526 1_565 S
C398 C399 1.396 . S
C398 C403 1.390 . S
C399 C393 1.465 1_565 S
C399 C398 1.396 . S
C399 C400 1.399 . S
C400 H386 0.929 . S
C400 C399 1.399 . S
C400 C401 1.385 . S
C401 H387 0.931 . S
C401 C400 1.385 . S
C401 C402 1.389 . S
C402 C401 1.389 . S
C402 C403 1.387 . S
C403 H388 0.930 . S
C403 C398 1.390 . S
C403 C402 1.387 . S
H404 C416 0.930 . S
H405 C418 0.930 . S
H406 C419 0.930 . S
H407 C423 0.959 . S
H408 C423 0.959 . S
H409 C423 0.961 . S
H410 C424 0.960 1_565 S
H411 C424 0.961 . S
H412 C424 0.959 . S
H413 C427 0.929 . S
H414 C428 0.931 . S
H415 C430 0.930 . S
C416 H404 0.930 . S
C416 C417 1.399 . S
C416 C421 1.399 . S
C417 C416 1.399 . S
C417 C418 1.376 . S
C418 H405 0.930 . S
C418 C417 1.376 . S
C418 C419 1.388 . S
C419 H406 0.930 . S
C419 C418 1.388 . S
C419 C420 1.390 . S
C420 C419 1.390 . S
C420 C421 1.394 . S
C420 C426 1.465 . S
C421 C416 1.399 . S
C421 C420 1.394 . S
C421 C422 1.516 . S
C422 C421 1.516 . S
C422 C423 1.502 . S
C422 C424 1.561 . S
C422 C425 1.526 . S
C423 H407 0.959 . S
C423 H408 0.959 . S
C423 H409 0.961 . S
C423 C422 1.502 . S
C424 H410 0.960 1_545 S
C424 H411 0.961 . S
C424 H412 0.959 . S
C424 C422 1.561 . S
C425 C422 1.526 . S
C425 C426 1.396 . S
C425 C430 1.390 . S
C426 C420 1.465 . S
C426 C425 1.396 . S
C426 C427 1.399 . S
C427 H413 0.929 . S
C427 C426 1.399 . S
C427 C428 1.385 . S
C428 H414 0.931 . S
C428 C427 1.385 . S
C428 C429 1.389 . S
C429 C428 1.389 . S
C429 C430 1.387 . S
C430 H415 0.930 . S
C430 C425 1.390 . S
C430 C429 1.387 . S
H431 C443 0.930 . S
H432 C445 0.930 . S
H433 C446 0.930 . S
H434 C450 0.959 . S
H435 C450 0.959 . S
H436 C450 0.961 . S
H437 C451 0.960 . S
H438 C451 0.961 . S
H439 C451 0.959 . S
H440 C454 0.929 . S
H441 C455 0.931 . S
H442 C457 0.930 . S
C443 H431 0.930 . S
C443 C444 1.399 . S
C443 C448 1.399 . S
C444 C443 1.399 . S
C444 C445 1.376 . S
C445 H432 0.930 . S
C445 C444 1.376 . S
C445 C446 1.388 . S
C446 H433 0.930 . S
C446 C445 1.388 . S
C446 C447 1.390 . S
C447 C446 1.390 . S
C447 C448 1.394 . S
C447 C453 1.465 1_565 S
C448 C443 1.399 . S
C448 C447 1.394 . S
C448 C449 1.516 1_565 S
C449 C448 1.516 1_545 S
C449 C450 1.502 . S
C449 C451 1.561 . S
C449 C452 1.526 . S
C450 H434 0.959 . S
C450 H435 0.959 . S
C450 H436 0.961 . S
C450 C449 1.502 . S
C451 H437 0.960 . S
C451 H438 0.961 . S
C451 H439 0.959 . S
C451 C449 1.561 . S
C452 C449 1.526 . S
C452 C453 1.396 . S
C452 C457 1.390 . S
C453 C447 1.465 1_545 S
C453 C452 1.396 . S
C453 C454 1.399 . S
C454 H440 0.929 . S
C454 C453 1.399 . S
C454 C455 1.385 . S
C455 H441 0.931 . S
C455 C454 1.385 . S
C455 C456 1.389 . S
C456 C455 1.389 . S
C456 C457 1.387 . S
C457 H442 0.930 . S
C457 C452 1.390 . S
C457 C456 1.387 . S
H458 C470 0.930 . S
H459 C472 0.930 1_545 S
H460 C473 0.930 1_545 S
H461 C477 0.959 . S
H462 C477 0.959 . S
H463 C477 0.961 . S
H464 C478 0.960 . S
H465 C478 0.961 . S
H466 C478 0.959 . S
H467 C481 0.929 . S
H468 C482 0.931 . S
H469 C484 0.930 . S
C470 H458 0.930 . S
C470 C471 1.399 . S
C470 C475 1.399 . S
C471 C470 1.399 . S
C471 C472 1.376 . S
C472 H459 0.930 1_565 S
C472 C471 1.376 . S
C472 C473 1.388 . S
C473 H460 0.930 1_565 S
C473 C472 1.388 . S
C473 C474 1.390 . S
C474 C473 1.390 . S
C474 C475 1.394 . S
C474 C480 1.465 . S
C475 C470 1.399 . S
C475 C474 1.394 . S
C475 C476 1.516 . S
C476 C475 1.516 . S
C476 C477 1.502 . S
C476 C478 1.561 . S
C476 C479 1.526 . S
C477 H461 0.959 . S
C477 H462 0.959 . S
C477 H463 0.961 . S
C477 C476 1.502 . S
C478 H464 0.960 . S
C478 H465 0.961 . S
C478 H466 0.959 . S
C478 C476 1.561 . S
C479 C476 1.526 . S
C479 C480 1.396 . S
C479 C484 1.390 . S
C480 C474 1.465 . S
C480 C479 1.396 . S
C480 C481 1.399 . S
C481 H467 0.929 . S
C481 C480 1.399 . S
C481 C482 1.385 . S
C482 H468 0.931 . S
C482 C481 1.385 . S
C482 C483 1.389 . S
C483 C482 1.389 . S
C483 C484 1.387 . S
C484 H469 0.930 . S
C484 C479 1.390 . S
C484 C483 1.387 . S
H485 C497 0.930 . S
H486 C499 0.930 . S
H487 C500 0.930 1_565 S
H488 C504 0.959 . S
H489 C504 0.959 . S
H490 C504 0.961 . S
H491 C505 0.960 . S
H492 C505 0.961 . S
H493 C505 0.959 . S
H494 C508 0.929 . S
H495 C509 0.931 . S
H496 C511 0.930 . S
C497 H485 0.930 . S
C497 C498 1.399 . S
C497 C502 1.399 . S
C498 C497 1.399 . S
C498 C499 1.376 . S
C499 H486 0.930 . S
C499 C498 1.376 . S
C499 C500 1.388 . S
C500 H487 0.930 1_545 S
C500 C499 1.388 . S
C500 C501 1.390 . S
C501 C500 1.390 . S
C501 C502 1.394 . S
C501 C507 1.465 1_545 S
C502 C497 1.399 . S
C502 C501 1.394 . S
C502 C503 1.516 . S
C503 C502 1.516 . S
C503 C504 1.502 . S
C503 C505 1.561 . S
C503 C506 1.526 1_545 S
C504 H488 0.959 . S
C504 H489 0.959 . S
C504 H490 0.961 . S
C504 C503 1.502 . S
C505 H491 0.960 . S
C505 H492 0.961 . S
C505 H493 0.959 . S
C505 C503 1.561 . S
C506 C503 1.526 1_565 S
C506 C507 1.396 . S
C506 C511 1.390 . S
C507 C501 1.465 1_565 S
C507 C506 1.396 . S
C507 C508 1.399 . S
C508 H494 0.929 . S
C508 C507 1.399 . S
C508 C509 1.385 . S
C509 H495 0.931 . S
C509 C508 1.385 . S
C509 C510 1.389 . S
C510 C509 1.389 . S
C510 C511 1.387 . S
C511 H496 0.930 . S
C511 C506 1.390 . S
C511 C510 1.387 . S
H512 C524 0.930 . S
H513 C526 0.930 1_565 S
H514 C527 0.930 . S
H515 C531 0.959 . S
H516 C531 0.959 . S
H517 C531 0.961 . S
H518 C532 0.960 . S
H519 C532 0.961 . S
H520 C532 0.959 . S
H521 C535 0.929 . S
H522 C536 0.931 . S
H523 C538 0.930 . S
C524 H512 0.930 . S
C524 C525 1.399 . S
C524 C529 1.399 . S
C525 C524 1.399 . S
C525 C526 1.376 . S
C526 H513 0.930 1_545 S
C526 C525 1.376 . S
C526 C527 1.388 . S
C527 H514 0.930 . S
C527 C526 1.388 . S
C527 C528 1.390 . S
C528 C527 1.390 . S
C528 C529 1.394 . S
C528 C534 1.465 . S
C529 C524 1.399 . S
C529 C528 1.394 . S
C529 C530 1.516 . S
C530 C529 1.516 . S
C530 C531 1.502 . S
C530 C532 1.561 . S
C530 C533 1.526 . S
C531 H515 0.959 . S
C531 H516 0.959 . S
C531 H517 0.961 . S
C531 C530 1.502 . S
C532 H518 0.960 . S
C532 H519 0.961 . S
C532 H520 0.959 . S
C532 C530 1.561 . S
C533 C530 1.526 . S
C533 C534 1.396 . S
C533 C538 1.390 . S
C534 C528 1.465 . S
C534 C533 1.396 . S
C534 C535 1.399 . S
C535 H521 0.929 . S
C535 C534 1.399 . S
C535 C536 1.385 . S
C536 H522 0.931 . S
C536 C535 1.385 . S
C536 C537 1.389 . S
C537 C536 1.389 . S
C537 C538 1.387 . S
C538 H523 0.930 . S
C538 C533 1.390 . S
C538 C537 1.387 . S
H539 C551 0.930 . S
H540 C553 0.930 . S
H541 C554 0.930 . S
H542 C558 0.959 . S
H543 C558 0.959 . S
H544 C558 0.961 . S
H545 C559 0.960 . S
H546 C559 0.961 1_565 S
H547 C559 0.959 . S
H548 C562 0.929 . S
H549 C563 0.931 . S
H550 C565 0.930 . S
C551 H539 0.930 . S
C551 C552 1.399 . S
C551 C556 1.399 . S
C552 C551 1.399 . S
C552 C553 1.376 . S
C553 H540 0.930 . S
C553 C552 1.376 . S
C553 C554 1.388 . S
C554 H541 0.930 . S
C554 C553 1.388 . S
C554 C555 1.390 . S
C555 C554 1.390 . S
C555 C556 1.394 . S
C555 C561 1.465 1_545 S
C556 C551 1.399 . S
C556 C555 1.394 . S
C556 C557 1.516 1_545 S
C557 C556 1.516 1_565 S
C557 C558 1.502 . S
C557 C559 1.561 1_565 S
C557 C560 1.526 . S
C558 H542 0.959 . S
C558 H543 0.959 . S
C558 H544 0.961 . S
C558 C557 1.502 . S
C559 H545 0.960 . S
C559 H546 0.961 1_545 S
C559 H547 0.959 . S
C559 C557 1.561 1_545 S
C560 C557 1.526 . S
C560 C561 1.396 . S
C560 C565 1.390 . S
C561 C555 1.465 1_565 S
C561 C560 1.396 . S
C561 C562 1.399 . S
C562 H548 0.929 . S
C562 C561 1.399 . S
C562 C563 1.385 . S
C563 H549 0.931 . S
C563 C562 1.385 . S
C563 C564 1.389 . S
C564 C563 1.389 . S
C564 C565 1.387 . S
C565 H550 0.930 . S
C565 C560 1.390 . S
C565 C564 1.387 . S
H566 C578 0.930 1_545 S
H567 C580 0.930 . S
H568 C581 0.930 . S
H569 C585 0.959 . S
H570 C585 0.959 1_545 S
H571 C585 0.961 1_545 S
H572 C586 0.960 . S
H573 C586 0.961 . S
H574 C586 0.959 1_565 S
H575 C589 0.929 . S
H576 C590 0.931 . S
H577 C592 0.930 . S
C578 H566 0.930 1_565 S
C578 C579 1.399 . S
C578 C583 1.399 . S
C579 C578 1.399 . S
C579 C580 1.376 . S
C580 H567 0.930 . S
C580 C579 1.376 . S
C580 C581 1.388 . S
C581 H568 0.930 . S
C581 C580 1.388 . S
C581 C582 1.390 . S
C582 C581 1.390 . S
C582 C583 1.394 . S
C582 C588 1.465 . S
C583 C578 1.399 . S
C583 C582 1.394 . S
C583 C584 1.516 . S
C584 C583 1.516 . S
C584 C585 1.502 . S
C584 C586 1.561 1_565 S
C584 C587 1.526 . S
C585 H569 0.959 . S
C585 H570 0.959 1_565 S
C585 H571 0.961 1_565 S
C585 C584 1.502 . S
C586 H572 0.960 . S
C586 H573 0.961 . S
C586 H574 0.959 1_545 S
C586 C584 1.561 1_545 S
C587 C584 1.526 . S
C587 C588 1.396 . S
C587 C592 1.390 . S
C588 C582 1.465 . S
C588 C587 1.396 . S
C588 C589 1.399 . S
C589 H575 0.929 . S
C589 C588 1.399 . S
C589 C590 1.385 . S
C590 H576 0.931 . S
C590 C589 1.385 . S
C590 C591 1.389 . S
C591 C590 1.389 . S
C591 C592 1.387 . S
C592 H577 0.930 . S
C592 C587 1.390 . S
C592 C591 1.387 . S
H593 C605 0.930 . S
H594 C607 0.930 . S
H595 C608 0.930 . S
H596 C612 0.959 1_565 S
H597 C612 0.959 . S
H598 C612 0.961 1_565 S
H599 C613 0.960 . S
H600 C613 0.961 . S
H601 C613 0.959 . S
H602 C616 0.929 . S
H603 C617 0.931 . S
H604 C619 0.930 . S
C605 H593 0.930 . S
C605 C606 1.399 . S
C605 C610 1.399 . S
C606 C605 1.399 . S
C606 C607 1.376 . S
C607 H594 0.930 . S
C607 C606 1.376 . S
C607 C608 1.388 . S
C608 H595 0.930 . S
C608 C607 1.388 . S
C608 C609 1.390 1_565 S
C609 C608 1.390 1_545 S
C609 C610 1.394 1_545 S
C609 C615 1.465 . S
C610 C605 1.399 . S
C610 C609 1.394 1_565 S
C610 C611 1.516 1_565 S
C611 C610 1.516 1_545 S
C611 C612 1.502 . S
C611 C613 1.561 . S
C611 C614 1.526 . S
C612 H596 0.959 1_545 S
C612 H597 0.959 . S
C612 H598 0.961 1_545 S
C612 C611 1.502 . S
C613 H599 0.960 . S
C613 H600 0.961 . S
C613 H601 0.959 . S
C613 C611 1.561 . S
C614 C611 1.526 . S
C614 C615 1.396 . S
C614 C619 1.390 . S
C615 C609 1.465 . S
C615 C614 1.396 . S
C615 C616 1.399 . S
C616 H602 0.929 . S
C616 C615 1.399 . S
C616 C617 1.385 . S
C617 H603 0.931 . S
C617 C616 1.385 . S
C617 C618 1.389 . S
C618 C617 1.389 . S
C618 C619 1.387 . S
C619 H604 0.930 . S
C619 C614 1.390 . S
C619 C618 1.387 . S
H620 C632 0.930 . S
H621 C634 0.930 . S
H622 C635 0.918 1_545 S
H623 C639 0.959 . S
H624 C639 0.959 . S
H625 C639 0.961 . S
H626 C640 0.960 . S
H627 C640 0.961 . S
H628 C640 0.959 . S
H629 C643 0.929 . S
H630 C644 0.931 . S
H631 C646 0.930 . S
C632 H620 0.930 . S
C632 C633 1.399 . S
C632 C637 1.399 . S
C633 C632 1.399 . S
C633 C634 1.376 1_565 S
C634 H621 0.930 . S
C634 C633 1.376 1_545 S
C634 C635 1.385 1_545 S
C635 H622 0.918 1_565 S
C635 C634 1.385 1_565 S
C635 C636 1.405 . S
C636 C635 1.405 . S
C636 C637 1.394 . S
C636 C642 1.465 . S
C637 C632 1.399 . S
C637 C636 1.394 . S
C637 C638 1.516 . S
C638 C637 1.516 . S
C638 C639 1.502 . S
C638 C640 1.561 . S
C638 C641 1.526 . S
C639 H623 0.959 . S
C639 H624 0.959 . S
C639 H625 0.961 . S
C639 C638 1.502 . S
C640 H626 0.960 . S
C640 H627 0.961 . S
C640 H628 0.959 . S
C640 C638 1.561 . S
C641 C638 1.526 . S
C641 C642 1.396 . S
C641 C646 1.390 . S
C642 C636 1.465 . S
C642 C641 1.396 . S
C642 C643 1.399 . S
C643 H629 0.929 . S
C643 C642 1.399 . S
C643 C644 1.385 . S
C644 H630 0.931 . S
C644 C643 1.385 . S
C644 C645 1.389 . S
C645 C644 1.389 . S
C645 C646 1.387 . S
C646 H631 0.930 . S
C646 C641 1.390 . S
C646 C645 1.387 . S
H647 C659 0.930 . S
H648 C661 0.930 . S
H649 C662 0.930 . S
H650 C666 0.959 . S
H651 C666 0.959 . S
H652 C666 0.961 . S
H653 C667 0.960 . S
H654 C667 0.961 1_565 S
H655 C667 0.959 . S
H656 C670 0.929 . S
H657 C671 0.931 . S
H658 C673 0.930 . S
C659 H647 0.930 . S
C659 C660 1.399 . S
C659 C664 1.399 . S
C660 C659 1.399 . S
C660 C661 1.376 . S
C661 H648 0.930 . S
C661 C660 1.376 . S
C661 C662 1.388 . S
C662 H649 0.930 . S
C662 C661 1.388 . S
C662 C663 1.390 . S
C663 C662 1.390 . S
C663 C664 1.394 . S
C663 C669 1.465 1_545 S
C664 C659 1.399 . S
C664 C663 1.394 . S
C664 C665 1.516 1_545 S
C665 C664 1.516 1_565 S
C665 C666 1.502 . S
C665 C667 1.561 1_565 S
C665 C668 1.526 . S
C666 H650 0.959 . S
C666 H651 0.959 . S
C666 H652 0.961 . S
C666 C665 1.502 . S
C667 H653 0.960 . S
C667 H654 0.961 1_545 S
C667 H655 0.959 . S
C667 C665 1.561 1_545 S
C668 C665 1.526 . S
C668 C669 1.396 . S
C668 C673 1.390 . S
C669 C663 1.465 1_565 S
C669 C668 1.396 . S
C669 C670 1.399 . S
C670 H656 0.929 . S
C670 C669 1.399 . S
C670 C671 1.385 . S
C671 H657 0.931 . S
C671 C670 1.385 . S
C671 C672 1.389 . S
C672 C671 1.389 . S
C672 C673 1.387 . S
C673 H658 0.930 . S
C673 C668 1.390 . S
C673 C672 1.387 . S
H674 C686 0.930 1_565 S
H675 C688 0.940 . S
H676 C689 0.930 . S
H677 C693 0.959 . S
H678 C693 0.959 . S
H679 C693 0.961 . S
H680 C694 0.960 . S
H681 C694 0.961 . S
H682 C694 0.959 . S
H683 C697 0.929 . S
H684 C698 0.931 . S
H685 C700 0.930 . S
C686 H674 0.930 1_545 S
C686 C687 1.399 . S
C686 C691 1.399 . S
C687 C686 1.399 . S
C687 C688 1.376 . S
C688 H675 0.940 . S
C688 C687 1.376 . S
C688 C689 1.388 . S
C689 H676 0.930 . S
C689 C688 1.388 . S
C689 C690 1.390 . S
C690 C689 1.390 . S
C690 C691 1.394 . S
C690 C696 1.465 . S
C691 C686 1.399 . S
C691 C690 1.394 . S
C691 C692 1.516 . S
C692 C691 1.516 . S
C692 C693 1.502 1_545 S
C692 C694 1.561 . S
C692 C695 1.526 . S
C693 H677 0.959 . S
C693 H678 0.959 . S
C693 H679 0.961 . S
C693 C692 1.502 1_565 S
C694 H680 0.960 . S
C694 H681 0.961 . S
C694 H682 0.959 . S
C694 C692 1.561 . S
C695 C692 1.526 . S
C695 C696 1.396 . S
C695 C700 1.390 . S
C696 C690 1.465 . S
C696 C695 1.396 . S
C696 C697 1.399 . S
C697 H683 0.929 . S
C697 C696 1.399 . S
C697 C698 1.385 . S
C698 H684 0.931 . S
C698 C697 1.385 . S
C698 C699 1.389 . S
C699 C698 1.389 . S
C699 C700 1.387 . S
C700 H685 0.930 . S
C700 C695 1.390 . S
C700 C699 1.387 . S
H701 C713 0.930 . S
H702 C715 0.930 . S
H703 C716 0.930 . S
H704 C720 0.959 . S
H705 C720 0.959 . S
H706 C720 0.961 . S
H707 C721 0.960 . S
H708 C721 0.961 . S
H709 C721 0.959 . S
H710 C724 0.929 . S
H711 C725 0.931 . S
H712 C727 0.930 . S
C713 H701 0.930 . S
C713 C714 1.399 . S
C713 C718 1.399 . S
C714 C713 1.399 . S
C714 C715 1.376 . S
C715 H702 0.930 . S
C715 C714 1.376 . S
C715 C716 1.388 . S
C716 H703 0.930 . S
C716 C715 1.388 . S
C716 C717 1.390 . S
C717 C716 1.390 . S
C717 C718 1.394 . S
C717 C723 1.465 1_565 S
C718 C713 1.399 . S
C718 C717 1.394 . S
C718 C719 1.516 1_565 S
C719 C718 1.516 1_545 S
C719 C720 1.502 . S
C719 C721 1.561 . S
C719 C722 1.526 . S
C720 H704 0.959 . S
C720 H705 0.959 . S
C720 H706 0.961 . S
C720 C719 1.502 . S
C721 H707 0.960 . S
C721 H708 0.961 . S
C721 H709 0.959 . S
C721 C719 1.561 . S
C722 C719 1.526 . S
C722 C723 1.396 . S
C722 C727 1.390 . S
C723 C717 1.465 1_545 S
C723 C722 1.396 . S
C723 C724 1.399 . S
C724 H710 0.929 . S
C724 C723 1.399 . S
C724 C725 1.385 . S
C725 H711 0.931 . S
C725 C724 1.385 . S
C725 C726 1.389 . S
C726 C725 1.389 . S
C726 C727 1.387 . S
C727 H712 0.930 . S
C727 C722 1.390 . S
C727 C726 1.387 . S
H728 C740 0.930 1_554 S
H729 C742 0.930 . S
H730 C743 0.930 . S
H731 C747 0.959 . S
H732 C747 0.959 . S
H733 C747 0.961 1_554 S
H734 C748 0.960 . S
H735 C748 0.961 . S
H736 C748 0.959 . S
H737 C751 0.929 . S
H738 C752 0.931 . S
H739 C754 0.930 . S
C740 H728 0.930 1_556 S
C740 C741 1.399 . S
C740 C745 1.399 . S
C741 C740 1.399 . S
C741 C742 1.376 . S
C742 H729 0.930 . S
C742 C741 1.376 . S
C742 C743 1.388 . S
C743 H730 0.930 . S
C743 C742 1.388 . S
C743 C744 1.390 . S
C744 C743 1.390 . S
C744 C745 1.394 . S
C744 C750 1.465 . S
C745 C740 1.399 . S
C745 C744 1.394 . S
C745 C746 1.516 . S
C746 C745 1.516 . S
C746 C747 1.502 . S
C746 C748 1.561 . S
C746 C749 1.526 . S
C747 H731 0.959 . S
C747 H732 0.959 . S
C747 H733 0.961 1_556 S
C747 C746 1.502 . S
C748 H734 0.960 . S
C748 H735 0.961 . S
C748 H736 0.959 . S
C748 C746 1.561 . S
C749 C746 1.526 . S
C749 C750 1.396 . S
C749 C754 1.390 . S
C750 C744 1.465 . S
C750 C749 1.396 . S
C750 C751 1.399 . S
C751 H737 0.929 . S
C751 C750 1.399 . S
C751 C752 1.385 . S
C752 H738 0.931 . S
C752 C751 1.385 . S
C752 C753 1.389 . S
C753 C752 1.389 . S
C753 C754 1.387 . S
C754 H739 0.930 . S
C754 C749 1.390 . S
C754 C753 1.387 . S
H755 C767 0.930 . S
H756 C769 0.930 . S
H757 C770 0.930 . S
H758 C774 0.959 . S
H759 C774 0.959 . S
H760 C774 0.961 . S
H761 C775 0.960 . S
H762 C775 0.961 . S
H763 C775 0.959 . S
H764 C778 0.929 . S
H765 C779 0.931 . S
H766 C781 0.930 . S
C767 H755 0.930 . S
C767 C768 1.399 . S
C767 C772 1.399 . S
C768 C767 1.399 . S
C768 C769 1.376 . S
C769 H756 0.930 . S
C769 C768 1.376 . S
C769 C770 1.388 . S
C770 H757 0.930 . S
C770 C769 1.388 . S
C770 C771 1.390 . S
C771 C770 1.390 . S
C771 C772 1.394 . S
C771 C777 1.465 . S
C772 C767 1.399 . S
C772 C771 1.394 . S
C772 C773 1.516 . S
C773 C772 1.516 . S
C773 C774 1.502 . S
C773 C775 1.561 . S
C773 C776 1.526 . S
C774 H758 0.959 . S
C774 H759 0.959 . S
C774 H760 0.961 . S
C774 C773 1.502 . S
C775 H761 0.960 . S
C775 H762 0.961 . S
C775 H763 0.959 . S
C775 C773 1.561 . S
C776 C773 1.526 . S
C776 C777 1.396 . S
C776 C781 1.390 . S
C777 C771 1.465 . S
C777 C776 1.396 . S
C777 C778 1.399 . S
C778 H764 0.929 . S
C778 C777 1.399 . S
C778 C779 1.385 . S
C779 H765 0.931 . S
C779 C778 1.385 . S
C779 C780 1.389 . S
C780 C779 1.389 . S
C780 C781 1.387 . S
C781 H766 0.930 . S
C781 C776 1.390 . S
C781 C780 1.387 . S
H782 C794 0.930 . S
H783 C796 0.930 . S
H784 C797 0.930 . S
H785 C801 0.959 . S
H786 C801 0.959 . S
H787 C801 0.961 . S
H788 C802 0.960 . S
H789 C802 0.961 . S
H790 C802 0.959 . S
H791 C805 0.929 . S
H792 C806 0.931 . S
H793 C808 0.930 . S
C794 H782 0.930 . S
C794 C795 1.399 . S
C794 C799 1.399 . S
C795 C794 1.399 . S
C795 C796 1.376 . S
C796 H783 0.930 . S
C796 C795 1.376 . S
C796 C797 1.388 . S
C797 H784 0.930 . S
C797 C796 1.388 . S
C797 C798 1.390 . S
C798 C797 1.390 . S
C798 C799 1.394 . S
C798 C804 1.465 . S
C799 C794 1.399 . S
C799 C798 1.394 . S
C799 C800 1.516 . S
C800 C799 1.516 . S
C800 C801 1.502 . S
C800 C802 1.561 . S
C800 C803 1.526 . S
C801 H785 0.959 . S
C801 H786 0.959 . S
C801 H787 0.961 . S
C801 C800 1.502 . S
C802 H788 0.960 . S
C802 H789 0.961 . S
C802 H790 0.959 . S
C802 C800 1.561 . S
C803 C800 1.526 . S
C803 C804 1.396 . S
C803 C808 1.390 . S
C804 C798 1.465 . S
C804 C803 1.396 . S
C804 C805 1.399 . S
C805 H791 0.929 . S
C805 C804 1.399 . S
C805 C806 1.385 . S
C806 H792 0.931 . S
C806 C805 1.385 . S
C806 C807 1.389 . S
C807 C806 1.389 . S
C807 C808 1.387 . S
C808 H793 0.930 . S
C808 C803 1.390 . S
C808 C807 1.387 . S
H809 C821 0.930 . S
H810 C823 0.930 . S
H811 C824 0.930 . S
H812 C828 0.959 . S
H813 C828 0.959 . S
H814 C828 0.961 . S
H815 C829 0.960 . S
H816 C829 0.961 . S
H817 C829 0.959 . S
H818 C832 0.929 . S
H819 C833 0.931 . S
H820 C835 0.930 . S
C821 H809 0.930 . S
C821 C822 1.399 . S
C821 C826 1.399 . S
C822 C821 1.399 . S
C822 C823 1.376 . S
C823 H810 0.930 . S
C823 C822 1.376 . S
C823 C824 1.388 . S
C824 H811 0.930 . S
C824 C823 1.388 . S
C824 C825 1.390 . S
C825 C824 1.390 . S
C825 C826 1.394 . S
C825 C831 1.465 . S
C826 C821 1.399 . S
C826 C825 1.394 . S
C826 C827 1.516 . S
C827 C826 1.516 . S
C827 C828 1.502 . S
C827 C829 1.561 . S
C827 C830 1.526 . S
C828 H812 0.959 . S
C828 H813 0.959 . S
C828 H814 0.961 . S
C828 C827 1.502 . S
C829 H815 0.960 . S
C829 H816 0.961 . S
C829 H817 0.959 . S
C829 C827 1.561 . S
C830 C827 1.526 . S
C830 C831 1.396 . S
C830 C835 1.390 . S
C831 C825 1.465 . S
C831 C830 1.396 . S
C831 C832 1.399 . S
C832 H818 0.929 . S
C832 C831 1.399 . S
C832 C833 1.385 . S
C833 H819 0.931 . S
C833 C832 1.385 . S
C833 C834 1.389 . S
C834 C833 1.389 . S
C834 C835 1.387 . S
C835 H820 0.930 . S
C835 C830 1.390 . S
C835 C834 1.387 . S
H836 C848 0.930 . S
H837 C850 0.930 . S
H838 C851 0.930 . S
H839 C855 0.959 . S
H840 C855 0.959 . S
H841 C855 0.961 . S
H842 C856 0.960 . S
H843 C856 0.961 . S
H844 C856 0.959 . S
H845 C859 0.929 . S
H846 C860 0.931 . S
H847 C862 0.930 . S
C848 H836 0.930 . S
C848 C849 1.399 . S
C848 C853 1.399 . S
C849 C848 1.399 . S
C849 C850 1.376 . S
C850 H837 0.930 . S
C850 C849 1.376 . S
C850 C851 1.388 . S
C851 H838 0.930 . S
C851 C850 1.388 . S
C851 C852 1.390 . S
C852 C851 1.390 . S
C852 C853 1.394 . S
C852 C858 1.465 . S
C853 C848 1.399 . S
C853 C852 1.394 . S
C853 C854 1.516 . S
C854 C853 1.516 . S
C854 C855 1.502 . S
C854 C856 1.561 . S
C854 C857 1.526 . S
C855 H839 0.959 . S
C855 H840 0.959 . S
C855 H841 0.961 . S
C855 C854 1.502 . S
C856 H842 0.960 . S
C856 H843 0.961 . S
C856 H844 0.959 . S
C856 C854 1.561 . S
C857 C854 1.526 . S
C857 C858 1.396 . S
C857 C862 1.390 . S
C858 C852 1.465 . S
C858 C857 1.396 . S
C858 C859 1.399 . S
C859 H845 0.929 . S
C859 C858 1.399 . S
C859 C860 1.385 . S
C860 H846 0.931 . S
C860 C859 1.385 . S
C860 C861 1.389 . S
C861 C860 1.389 . S
C861 C862 1.387 . S
C862 H847 0.930 . S
C862 C857 1.390 . S
C862 C861 1.387 . S
H863 C875 0.930 . S
H864 C877 0.930 . S
H865 C878 0.930 . S
H866 C882 0.959 . S
H867 C882 0.959 . S
H868 C882 0.961 . S
H869 C883 0.960 . S
H870 C883 0.961 . S
H871 C883 0.959 . S
H872 C886 0.929 . S
H873 C887 0.931 . S
H874 C889 0.930 . S
C875 H863 0.930 . S
C875 C876 1.399 . S
C875 C880 1.399 . S
C876 C875 1.399 . S
C876 C877 1.376 . S
C877 H864 0.930 . S
C877 C876 1.376 . S
C877 C878 1.388 . S
C878 H865 0.930 . S
C878 C877 1.388 . S
C878 C879 1.390 . S
C879 C878 1.390 . S
C879 C880 1.394 . S
C879 C885 1.465 . S
C880 C875 1.399 . S
C880 C879 1.394 . S
C880 C881 1.516 . S
C881 C880 1.516 . S
C881 C882 1.502 . S
C881 C883 1.561 . S
C881 C884 1.526 . S
C882 H866 0.959 . S
C882 H867 0.959 . S
C882 H868 0.961 . S
C882 C881 1.502 . S
C883 H869 0.960 . S
C883 H870 0.961 . S
C883 H871 0.959 . S
C883 C881 1.561 . S
C884 C881 1.526 . S
C884 C885 1.396 . S
C884 C889 1.390 . S
C885 C879 1.465 . S
C885 C884 1.396 . S
C885 C886 1.399 . S
C886 H872 0.929 . S
C886 C885 1.399 . S
C886 C887 1.385 . S
C887 H873 0.931 . S
C887 C886 1.385 . S
C887 C888 1.389 . S
C888 C887 1.389 . S
C888 C889 1.387 . S
C889 H874 0.930 . S
C889 C884 1.390 . S
C889 C888 1.387 . S
H890 C902 0.930 . S
H891 C904 0.930 . S
H892 C905 0.930 . S
H893 C909 0.959 . S
H894 C909 0.959 . S
H895 C909 0.961 . S
H896 C910 0.960 . S
H897 C910 0.961 . S
H898 C910 0.959 . S
H899 C913 0.929 . S
H900 C914 0.931 . S
H901 C916 0.930 . S
C902 H890 0.930 . S
C902 C903 1.399 . S
C902 C907 1.399 . S
C903 C902 1.399 . S
C903 C904 1.376 . S
C904 H891 0.930 . S
C904 C903 1.376 . S
C904 C905 1.388 . S
C905 H892 0.930 . S
C905 C904 1.388 . S
C905 C906 1.390 . S
C906 C905 1.390 . S
C906 C907 1.394 . S
C906 C912 1.465 . S
C907 C902 1.399 . S
C907 C906 1.394 . S
C907 C908 1.516 . S
C908 C907 1.516 . S
C908 C909 1.502 . S
C908 C910 1.561 . S
C908 C911 1.526 . S
C909 H893 0.959 . S
C909 H894 0.959 . S
C909 H895 0.961 . S
C909 C908 1.502 . S
C910 H896 0.960 . S
C910 H897 0.961 . S
C910 H898 0.959 . S
C910 C908 1.561 . S
C911 C908 1.526 . S
C911 C912 1.396 . S
C911 C916 1.390 . S
C912 C906 1.465 . S
C912 C911 1.396 . S
C912 C913 1.399 . S
C913 H899 0.929 . S
C913 C912 1.399 . S
C913 C914 1.385 . S
C914 H900 0.931 . S
C914 C913 1.385 . S
C914 C915 1.389 . S
C915 C914 1.389 . S
C915 C916 1.387 . S
C916 H901 0.930 . S
C916 C911 1.390 . S
C916 C915 1.387 . S
H917 C929 0.930 . S
H918 C931 0.930 . S
H919 C932 0.930 . S
H920 C936 0.959 . S
H921 C936 0.959 . S
H922 C936 0.961 . S
H923 C937 0.960 . S
H924 C937 0.961 . S
H925 C937 0.959 . S
H926 C940 0.929 . S
H927 C941 0.931 . S
H928 C943 0.930 . S
C929 H917 0.930 . S
C929 C930 1.399 . S
C929 C934 1.399 . S
C930 C929 1.399 . S
C930 C931 1.376 . S
C931 H918 0.930 . S
C931 C930 1.376 . S
C931 C932 1.388 . S
C932 H919 0.930 . S
C932 C931 1.388 . S
C932 C933 1.390 . S
C933 C932 1.390 . S
C933 C934 1.394 . S
C933 C939 1.465 . S
C934 C929 1.399 . S
C934 C933 1.394 . S
C934 C935 1.516 . S
C935 C934 1.516 . S
C935 C936 1.502 . S
C935 C937 1.561 . S
C935 C938 1.526 . S
C936 H920 0.959 . S
C936 H921 0.959 . S
C936 H922 0.961 . S
C936 C935 1.502 . S
C937 H923 0.960 . S
C937 H924 0.961 . S
C937 H925 0.959 . S
C937 C935 1.561 . S
C938 C935 1.526 . S
C938 C939 1.396 . S
C938 C943 1.390 . S
C939 C933 1.465 . S
C939 C938 1.396 . S
C939 C940 1.399 . S
C940 H926 0.929 . S
C940 C939 1.399 . S
C940 C941 1.385 . S
C941 H927 0.931 . S
C941 C940 1.385 . S
C941 C942 1.389 . S
C942 C941 1.389 . S
C942 C943 1.387 . S
C943 H928 0.930 . S
C943 C938 1.390 . S
C943 C942 1.387 . S
H944 C956 0.930 . S
H945 C958 0.930 . S
H946 C959 0.930 . S
H947 C963 0.959 . S
H948 C963 0.959 . S
H949 C963 0.961 . S
H950 C964 0.960 . S
H951 C964 0.961 . S
H952 C964 0.959 . S
H953 C967 0.929 . S
H954 C968 0.931 . S
H955 C970 0.930 . S
C956 H944 0.930 . S
C956 C957 1.399 . S
C956 C961 1.399 . S
C957 C956 1.399 . S
C957 C958 1.376 . S
C958 H945 0.930 . S
C958 C957 1.376 . S
C958 C959 1.388 . S
C959 H946 0.930 . S
C959 C958 1.388 . S
C959 C960 1.390 . S
C960 C959 1.390 . S
C960 C961 1.394 . S
C960 C966 1.465 . S
C961 C956 1.399 . S
C961 C960 1.394 . S
C961 C962 1.516 . S
C962 C961 1.516 . S
C962 C963 1.502 . S
C962 C964 1.561 . S
C962 C965 1.526 . S
C963 H947 0.959 . S
C963 H948 0.959 . S
C963 H949 0.961 . S
C963 C962 1.502 . S
C964 H950 0.960 . S
C964 H951 0.961 . S
C964 H952 0.959 . S
C964 C962 1.561 . S
C965 C962 1.526 . S
C965 C966 1.396 . S
C965 C970 1.390 . S
C966 C960 1.465 . S
C966 C965 1.396 . S
C966 C967 1.399 . S
C967 H953 0.929 . S
C967 C966 1.399 . S
C967 C968 1.385 . S
C968 H954 0.931 . S
C968 C967 1.385 . S
C968 C969 1.389 . S
C969 C968 1.389 . S
C969 C970 1.387 . S
C970 H955 0.930 . S
C970 C965 1.390 . S
C970 C969 1.387 . S
H971 C983 0.930 . S
H972 C985 0.930 . S
H973 C986 0.930 . S
H974 C990 0.959 . S
H975 C990 0.959 . S
H976 C990 0.961 . S
H977 C991 0.960 . S
H978 C991 0.961 . S
H979 C991 0.959 . S
H980 C994 0.929 . S
H981 C995 0.931 . S
H982 C997 0.930 . S
C983 H971 0.930 . S
C983 C984 1.399 . S
C983 C988 1.399 . S
C984 C983 1.399 . S
C984 C985 1.376 . S
C985 H972 0.930 . S
C985 C984 1.376 . S
C985 C986 1.388 . S
C986 H973 0.930 . S
C986 C985 1.388 . S
C986 C987 1.390 . S
C987 C986 1.390 . S
C987 C988 1.394 . S
C987 C993 1.465 . S
C988 C983 1.399 . S
C988 C987 1.394 . S
C988 C989 1.516 . S
C989 C988 1.516 . S
C989 C990 1.502 . S
C989 C991 1.561 . S
C989 C992 1.526 . S
C990 H974 0.959 . S
C990 H975 0.959 . S
C990 H976 0.961 . S
C990 C989 1.502 . S
C991 H977 0.960 . S
C991 H978 0.961 . S
C991 H979 0.959 . S
C991 C989 1.561 . S
C992 C989 1.526 . S
C992 C993 1.396 . S
C992 C997 1.390 . S
C993 C987 1.465 . S
C993 C992 1.396 . S
C993 C994 1.399 . S
C994 H980 0.929 . S
C994 C993 1.399 . S
C994 C995 1.385 . S
C995 H981 0.931 . S
C995 C994 1.385 . S
C995 C996 1.389 . S
C996 C995 1.389 . S
C996 C997 1.387 . S
C997 H982 0.930 . S
C997 C992 1.390 . S
C997 C996 1.387 . S
H998 C1010 0.930 . S
H999 C1012 0.930 . S
H1000 C1013 0.930 . S
H1001 C1017 0.959 . S
H1002 C1017 0.959 . S
H1003 C1017 0.961 . S
H1004 C1018 0.960 . S
H1005 C1018 0.961 . S
H1006 C1018 0.959 . S
H1007 C1021 0.929 . S
H1008 C1022 0.931 . S
H1009 C1024 0.930 . S
C1010 H998 0.930 . S
C1010 C1011 1.399 . S
C1010 C1015 1.399 . S
C1011 C1010 1.399 . S
C1011 C1012 1.376 . S
C1012 H999 0.930 . S
C1012 C1011 1.376 . S
C1012 C1013 1.388 . S
C1013 H1000 0.930 . S
C1013 C1012 1.388 . S
C1013 C1014 1.390 . S
C1014 C1013 1.390 . S
C1014 C1015 1.394 . S
C1014 C1020 1.465 . S
C1015 C1010 1.399 . S
C1015 C1014 1.394 . S
C1015 C1016 1.516 . S
C1016 C1015 1.516 . S
C1016 C1017 1.502 . S
C1016 C1018 1.561 . S
C1016 C1019 1.526 . S
C1017 H1001 0.959 . S
C1017 H1002 0.959 . S
C1017 H1003 0.961 . S
C1017 C1016 1.502 . S
C1018 H1004 0.960 . S
C1018 H1005 0.961 . S
C1018 H1006 0.959 . S
C1018 C1016 1.561 . S
C1019 C1016 1.526 . S
C1019 C1020 1.396 . S
C1019 C1024 1.390 . S
C1020 C1014 1.465 . S
C1020 C1019 1.396 . S
C1020 C1021 1.399 . S
C1021 H1007 0.929 . S
C1021 C1020 1.399 . S
C1021 C1022 1.385 . S
C1022 H1008 0.931 . S
C1022 C1021 1.385 . S
C1022 C1023 1.389 . S
C1023 C1022 1.389 . S
C1023 C1024 1.387 . S
C1024 H1009 0.930 . S
C1024 C1019 1.390 . S
C1024 C1023 1.387 . S
H1025 C1037 0.930 . S
H1026 C1039 0.930 . S
H1027 C1040 0.930 . S
H1028 C1044 0.959 . S
H1029 C1044 0.959 . S
H1030 C1044 0.961 . S
H1031 C1045 0.960 . S
H1032 C1045 0.961 . S
H1033 C1045 0.959 . S
H1034 C1048 0.929 . S
H1035 C1049 0.931 . S
H1036 C1051 0.930 . S
C1037 H1025 0.930 . S
C1037 C1038 1.399 . S
C1037 C1042 1.399 . S
C1038 C1037 1.399 . S
C1038 C1039 1.376 . S
C1039 H1026 0.930 . S
C1039 C1038 1.376 . S
C1039 C1040 1.388 . S
C1040 H1027 0.930 . S
C1040 C1039 1.388 . S
C1040 C1041 1.390 . S
C1041 C1040 1.390 . S
C1041 C1042 1.394 . S
C1041 C1047 1.465 . S
C1042 C1037 1.399 . S
C1042 C1041 1.394 . S
C1042 C1043 1.516 . S
C1043 C1042 1.516 . S
C1043 C1044 1.502 . S
C1043 C1045 1.561 . S
C1043 C1046 1.526 . S
C1044 H1028 0.959 . S
C1044 H1029 0.959 . S
C1044 H1030 0.961 . S
C1044 C1043 1.502 . S
C1045 H1031 0.960 . S
C1045 H1032 0.961 . S
C1045 H1033 0.959 . S
C1045 C1043 1.561 . S
C1046 C1043 1.526 . S
C1046 C1047 1.396 . S
C1046 C1051 1.390 . S
C1047 C1041 1.465 . S
C1047 C1046 1.396 . S
C1047 C1048 1.399 . S
C1048 H1034 0.929 . S
C1048 C1047 1.399 . S
C1048 C1049 1.385 . S
C1049 H1035 0.931 . S
C1049 C1048 1.385 . S
C1049 C1050 1.389 . S
C1050 C1049 1.389 . S
C1050 C1051 1.387 . S
C1051 H1036 0.930 . S
C1051 C1046 1.390 . S
C1051 C1050 1.387 . S
H1052 C1064 0.930 . S
H1053 C1066 0.930 . S
H1054 C1067 0.930 . S
H1055 C1071 0.959 . S
H1056 C1071 0.959 . S
H1057 C1071 0.961 . S
H1058 C1072 0.960 . S
H1059 C1072 0.961 . S
H1060 C1072 0.959 . S
H1061 C1075 0.929 . S
H1062 C1076 0.931 . S
H1063 C1078 0.930 . S
C1064 H1052 0.930 . S
C1064 C1065 1.399 . S
C1064 C1069 1.399 . S
C1065 C1064 1.399 . S
C1065 C1066 1.376 . S
C1066 H1053 0.930 . S
C1066 C1065 1.376 . S
C1066 C1067 1.388 . S
C1067 H1054 0.930 . S
C1067 C1066 1.388 . S
C1067 C1068 1.390 . S
C1068 C1067 1.390 . S
C1068 C1069 1.394 . S
C1068 C1074 1.465 . S
C1069 C1064 1.399 . S
C1069 C1068 1.394 . S
C1069 C1070 1.516 . S
C1070 C1069 1.516 . S
C1070 C1071 1.502 . S
C1070 C1072 1.561 . S
C1070 C1073 1.526 . S
C1071 H1055 0.959 . S
C1071 H1056 0.959 . S
C1071 H1057 0.961 . S
C1071 C1070 1.502 . S
C1072 H1058 0.960 . S
C1072 H1059 0.961 . S
C1072 H1060 0.959 . S
C1072 C1070 1.561 . S
C1073 C1070 1.526 . S
C1073 C1074 1.396 . S
C1073 C1078 1.390 . S
C1074 C1068 1.465 . S
C1074 C1073 1.396 . S
C1074 C1075 1.399 . S
C1075 H1061 0.929 . S
C1075 C1074 1.399 . S
C1075 C1076 1.385 . S
C1076 H1062 0.931 . S
C1076 C1075 1.385 . S
C1076 C1077 1.389 . S
C1077 C1076 1.389 . S
C1077 C1078 1.387 . S
C1078 H1063 0.930 . S
C1078 C1073 1.390 . S
C1078 C1077 1.387 . S
H1079 C1091 0.930 . S
H1080 C1093 0.930 . S
H1081 C1094 0.930 . S
H1082 C1098 0.959 . S
H1083 C1098 0.959 . S
H1084 C1098 0.961 . S
H1085 C1099 0.960 . S
H1086 C1099 0.961 . S
H1087 C1099 0.959 . S
H1088 C1102 0.929 . S
H1089 C1103 0.931 . S
H1090 C1105 0.930 . S
C1091 H1079 0.930 . S
C1091 C1092 1.399 . S
C1091 C1096 1.399 . S
C1092 C1091 1.399 . S
C1092 C1093 1.376 . S
C1093 H1080 0.930 . S
C1093 C1092 1.376 . S
C1093 C1094 1.388 . S
C1094 H1081 0.930 . S
C1094 C1093 1.388 . S
C1094 C1095 1.390 . S
C1095 C1094 1.390 . S
C1095 C1096 1.394 . S
C1095 C1101 1.465 . S
C1096 C1091 1.399 . S
C1096 C1095 1.394 . S
C1096 C1097 1.516 . S
C1097 C1096 1.516 . S
C1097 C1098 1.502 . S
C1097 C1099 1.561 . S
C1097 C1100 1.526 . S
C1098 H1082 0.959 . S
C1098 H1083 0.959 . S
C1098 H1084 0.961 . S
C1098 C1097 1.502 . S
C1099 H1085 0.960 . S
C1099 H1086 0.961 . S
C1099 H1087 0.959 . S
C1099 C1097 1.561 . S
C1100 C1097 1.526 . S
C1100 C1101 1.396 . S
C1100 C1105 1.390 . S
C1101 C1095 1.465 . S
C1101 C1100 1.396 . S
C1101 C1102 1.399 . S
C1102 H1088 0.929 . S
C1102 C1101 1.399 . S
C1102 C1103 1.385 . S
C1103 H1089 0.931 . S
C1103 C1102 1.385 . S
C1103 C1104 1.389 . S
C1104 C1103 1.389 . S
C1104 C1105 1.387 . S
C1105 H1090 0.930 . S
C1105 C1100 1.390 . S
C1105 C1104 1.387 . S
H1106 C1118 0.930 . S
H1107 C1120 0.930 . S
H1108 C1121 0.930 . S
H1109 C1125 0.959 . S
H1110 C1125 0.959 . S
H1111 C1125 0.961 . S
H1112 C1126 0.960 . S
H1113 C1126 0.961 . S
H1114 C1126 0.959 . S
H1115 C1129 0.929 . S
H1116 C1130 0.931 . S
H1117 C1132 0.930 . S
C1118 H1106 0.930 . S
C1118 C1119 1.399 . S
C1118 C1123 1.399 . S
C1119 C1118 1.399 . S
C1119 C1120 1.376 . S
C1120 H1107 0.930 . S
C1120 C1119 1.376 . S
C1120 C1121 1.388 . S
C1121 H1108 0.930 . S
C1121 C1120 1.388 . S
C1121 C1122 1.390 . S
C1122 C1121 1.390 . S
C1122 C1123 1.394 . S
C1122 C1128 1.465 . S
C1123 C1118 1.399 . S
C1123 C1122 1.394 . S
C1123 C1124 1.516 . S
C1124 C1123 1.516 . S
C1124 C1125 1.502 . S
C1124 C1126 1.561 . S
C1124 C1127 1.526 . S
C1125 H1109 0.959 . S
C1125 H1110 0.959 . S
C1125 H1111 0.961 . S
C1125 C1124 1.502 . S
C1126 H1112 0.960 . S
C1126 H1113 0.961 . S
C1126 H1114 0.959 . S
C1126 C1124 1.561 . S
C1127 C1124 1.526 . S
C1127 C1128 1.396 . S
C1127 C1132 1.390 . S
C1128 C1122 1.465 . S
C1128 C1127 1.396 . S
C1128 C1129 1.399 . S
C1129 H1115 0.929 . S
C1129 C1128 1.399 . S
C1129 C1130 1.385 . S
C1130 H1116 0.931 . S
C1130 C1129 1.385 . S
C1130 C1131 1.389 . S
C1131 C1130 1.389 . S
C1131 C1132 1.387 . S
C1132 H1117 0.930 . S
C1132 C1127 1.390 . S
C1132 C1131 1.387 . S
H1133 C1145 0.930 . S
H1134 C1147 0.930 . S
H1135 C1148 0.930 . S
H1136 C1152 0.959 . S
H1137 C1152 0.959 . S
H1138 C1152 0.961 . S
H1139 C1153 0.960 . S
H1140 C1153 0.961 . S
H1141 C1153 0.959 . S
H1142 C1156 0.929 . S
H1143 C1157 0.931 . S
H1144 C1159 0.930 . S
C1145 H1133 0.930 . S
C1145 C1146 1.399 . S
C1145 C1150 1.399 . S
C1146 C1145 1.399 . S
C1146 C1147 1.376 . S
C1147 H1134 0.930 . S
C1147 C1146 1.376 . S
C1147 C1148 1.388 . S
C1148 H1135 0.930 . S
C1148 C1147 1.388 . S
C1148 C1149 1.390 . S
C1149 C1148 1.390 . S
C1149 C1150 1.394 . S
C1149 C1155 1.465 . S
C1150 C1145 1.399 . S
C1150 C1149 1.394 . S
C1150 C1151 1.516 . S
C1151 C1150 1.516 . S
C1151 C1152 1.502 . S
C1151 C1153 1.561 . S
C1151 C1154 1.526 . S
C1152 H1136 0.959 . S
C1152 H1137 0.959 . S
C1152 H1138 0.961 . S
C1152 C1151 1.502 . S
C1153 H1139 0.960 . S
C1153 H1140 0.961 . S
C1153 H1141 0.959 . S
C1153 C1151 1.561 . S
C1154 C1151 1.526 . S
C1154 C1155 1.396 . S
C1154 C1159 1.390 . S
C1155 C1149 1.465 . S
C1155 C1154 1.396 . S
C1155 C1156 1.399 . S
C1156 H1142 0.929 . S
C1156 C1155 1.399 . S
C1156 C1157 1.385 . S
C1157 H1143 0.931 . S
C1157 C1156 1.385 . S
C1157 C1158 1.389 . S
C1158 C1157 1.389 . S
C1158 C1159 1.387 . S
C1159 H1144 0.930 . S
C1159 C1154 1.390 . S
C1159 C1158 1.387 . S
C321 C217 1.545 . S
C309 C17 1.447 . S
C336 C30 1.453 . S
C348 C249 1.504 . S
C363 C61 1.445 1_556 S
C375 C272 1.505 . S
C402 C176 1.550 . S
C390 C72 1.491 . S
C429 C259 1.375 . S
C417 C19 1.457 . S
C456 C288 1.432 . S
C444 C33 1.497 . S
C483 C192 1.482 . S
C471 C59 1.472 . S
C510 C227 1.425 . S
C498 C75 1.403 . S
C525 C12 1.427 . S
C537 C255 1.455 . S
C552 C101 1.485 . S
C564 C230 1.338 . S
C579 C51 1.469 . S
C591 C198 1.306 . S
C618 C287 1.425 . S
C606 C124 1.398 . S
C645 C231 1.562 . S
C633 C9 1.466 1_565 S
C660 C103 1.534 . S
C672 C199 1.533 . S
C687 C54 1.470 1_556 S
C699 C286 1.589 . S
C726 C254 1.596 . S
C714 C122 1.550 . S
C741 C145 1.517 1_556 S
C753 C281 1.533 . S
C768 C96 1.517 . S
C780 C185 1.547 . S
C795 C166 1.542 . S
C807 C208 1.557 . S
C822 C114 1.521 . S
C834 C240 1.542 . S
C861 C195 1.453 . S
C849 C143 1.480 . S
C876 C93 1.462 . S
C888 C224 1.446 . S
C903 C164 1.452 . S
C915 C256 1.447 . S
C942 C291 1.463 . S
C930 C117 1.431 . S
C957 C135 1.454 . S
C969 C191 1.353 . S
C984 C40 1.421 . S
C996 C294 1.377 . S
C1011 C156 1.427 . S
C1023 C262 1.435 . S
C1050 C223 1.453 . S
C1038 C82 1.430 . S
C1077 C295 1.576 . S
C1065 C138 1.526 1_556 S
C1104 C263 1.561 . S
C1092 C38 1.495 . S
C1131 C222 1.562 . S
C1119 C159 1.502 . S
C1158 C190 1.565 . S
C1146 C80 1.517 . S
