# Generated by pormake.
# Topology zzz, (3,6)-cn, num edge types: 1
# Building blocks:
#     Node 0, Type 0, BuildingBlock: BETDIP_clean_linker_0, # of connection points: 3
#     Node 1, Type 0, BuildingBlock: BETDIP_clean_linker_0, # of connection points: 3
#     Node 2, Type 0, BuildingBlock: BETDIP_clean_linker_0, # of connection points: 3
#     Node 3, Type 0, BuildingBlock: BETDIP_clean_linker_0, # of connection points: 3
#     Node 4, Type 0, BuildingBlock: BETDIP_clean_linker_0, # of connection points: 3
#     Node 5, Type 0, BuildingBlock: BETDIP_clean_linker_0, # of connection points: 3
#     Node 6, Type 0, BuildingBlock: BETDIP_clean_linker_0, # of connection points: 3
#     Node 7, Type 0, BuildingBlock: BETDIP_clean_linker_0, # of connection points: 3
#     Node 8, Type 1, BuildingBlock: KUMBOL_clean_sbu_1, # of connection points: 6
#     Node 9, Type 1, BuildingBlock: KUMBOL_clean_sbu_1, # of connection points: 6
#     Node 10, Type 1, BuildingBlock: KUMBOL_clean_sbu_1, # of connection points: 6
#     Node 11, Type 1, BuildingBlock: KUMBOL_clean_sbu_1, # of connection points: 6
#     Edge 12, Type (0, 1), BuildingBlock: OJICUG_clean_linker_0, # of connection points: 2
#     Edge 13, Type (0, 1), BuildingBlock: OJICUG_clean_linker_0, # of connection points: 2
#     Edge 14, Type (0, 1), BuildingBlock: OJICUG_clean_linker_0, # of connection points: 2
#     Edge 15, Type (0, 1), BuildingBlock: OJICUG_clean_linker_0, # of connection points: 2
#     Edge 16, Type (0, 1), BuildingBlock: OJICUG_clean_linker_0, # of connection points: 2
#     Edge 17, Type (0, 1), BuildingBlock: OJICUG_clean_linker_0, # of connection points: 2
#     Edge 18, Type (0, 1), BuildingBlock: OJICUG_clean_linker_0, # of connection points: 2
#     Edge 19, Type (0, 1), BuildingBlock: OJICUG_clean_linker_0, # of connection points: 2
#     Edge 20, Type (0, 1), BuildingBlock: OJICUG_clean_linker_0, # of connection points: 2
#     Edge 21, Type (0, 1), BuildingBlock: OJICUG_clean_linker_0, # of connection points: 2
#     Edge 22, Type (0, 1), BuildingBlock: OJICUG_clean_linker_0, # of connection points: 2
#     Edge 23, Type (0, 1), BuildingBlock: OJICUG_clean_linker_0, # of connection points: 2
#     Edge 24, Type (0, 1), BuildingBlock: OJICUG_clean_linker_0, # of connection points: 2
#     Edge 25, Type (0, 1), BuildingBlock: OJICUG_clean_linker_0, # of connection points: 2
#     Edge 26, Type (0, 1), BuildingBlock: OJICUG_clean_linker_0, # of connection points: 2
#     Edge 27, Type (0, 1), BuildingBlock: OJICUG_clean_linker_0, # of connection points: 2
#     Edge 28, Type (0, 1), BuildingBlock: OJICUG_clean_linker_0, # of connection points: 2
#     Edge 29, Type (0, 1), BuildingBlock: OJICUG_clean_linker_0, # of connection points: 2
#     Edge 30, Type (0, 1), BuildingBlock: OJICUG_clean_linker_0, # of connection points: 2
#     Edge 31, Type (0, 1), BuildingBlock: OJICUG_clean_linker_0, # of connection points: 2
#     Edge 32, Type (0, 1), BuildingBlock: OJICUG_clean_linker_0, # of connection points: 2
#     Edge 33, Type (0, 1), BuildingBlock: OJICUG_clean_linker_0, # of connection points: 2
#     Edge 34, Type (0, 1), BuildingBlock: OJICUG_clean_linker_0, # of connection points: 2
#     Edge 35, Type (0, 1), BuildingBlock: OJICUG_clean_linker_0, # of connection points: 2
# Relax obj value: 0.247
# Max RMSD: 0.127
# Mean RMSD: 0.085
data_MOF--net-zzz--node1-KUMBOL_clean_sbu_1--node2-BETDIP_clean_linker_0--edge1-OJICUG_clean_linker_0
_symmetry_space_group_name_H-M    P1
_symmetry_Int_Tables_number       1
_symmetry_cell_setting            triclinic
loop_
_symmetry_equiv_pos_as_xyz
'x, y, z'
_cell_length_a     36.409153
_cell_length_b     36.438652
_cell_length_c     11.483471
_cell_angle_alpha  90.096834
_cell_angle_beta   90.42547
_cell_angle_gamma 90.275
loop_
_atom_site_label
_atom_site_type_symbol
_atom_site_fract_x
_atom_site_fract_y
_atom_site_fract_z
_atom_type_partial_charge
H0 H 0.78317 0.56226 0.49153 0.0
H1 H 0.7468 0.48352 0.23256 0.0
H2 H 0.85019 0.46907 0.40318 0.0
H3 H 0.73946 0.54661 0.13672 0.0
C4 C 0.71784 0.55039 0.2004 0.0
C5 C 0.78748 0.53712 0.44335 0.0
C6 C 0.81979 0.51531 0.46673 0.0
C7 C 0.76107 0.52602 0.35496 0.0
C8 C 0.76684 0.49289 0.29631 0.0
C9 C 0.79855 0.47235 0.31412 0.0
C10 C 0.82456 0.48393 0.39714 0.0
N11 N 0.72891 0.54706 0.32168 0.0
H12 H 1.01891 0.79007 0.54134 0.0
H13 H 1.00297 0.76705 0.17527 0.0
H14 H 1.02196 0.87736 0.28723 0.0
H15 H 0.95708 0.71894 0.30397 0.0
C16 C 0.9856 0.71031 0.3074 0.0
C17 C 1.01581 0.79964 0.45267 0.0
C18 C 1.01872 0.83847 0.42807 0.0
C19 C 1.00955 0.77336 0.35977 0.0
C20 C 1.00616 0.78641 0.24656 0.0
C21 C 1.01141 0.82319 0.2207 0.0
C22 C 1.01693 0.84896 0.3103 0.0
N23 N 1.01038 0.73389 0.37311 0.0
H24 H 0.77841 0.0576 0.44526 0.0
H25 H 0.81539 0.97209 0.21564 0.0
H26 H 0.71017 0.96308 0.37693 0.0
H27 H 0.87282 0.98883 0.31768 0.0
C28 C 0.86946 1.01541 0.27603 0.0
C29 C 0.77427 0.03097 0.40528 0.0
C30 C 0.74032 1.01151 0.42307 0.0
C31 C 0.80249 1.01574 0.33268 0.0
C32 C 0.79511 0.98248 0.27521 0.0
C33 C 0.7603 0.96581 0.27826 0.0
C34 C 0.73564 0.97787 0.36425 0.0
N35 N 0.83611 0.03505 0.30326 0.0
H36 H 0.55136 0.79382 0.50666 0.0
H37 H 0.56071 0.81716 0.13919 0.0
H38 H 0.54492 0.70665 0.25032 0.0
H39 H 0.60869 0.86176 0.24646 0.0
C40 C 0.58173 0.87305 0.26444 0.0
C41 C 0.55285 0.78436 0.41745 0.0
C42 C 0.54932 0.74545 0.39224 0.0
C43 C 0.55773 0.81083 0.32436 0.0
C44 C 0.55882 0.79784 0.21072 0.0
C45 C 0.55355 0.76112 0.1848 0.0
C46 C 0.54963 0.73512 0.27397 0.0
N47 N 0.55852 0.85042 0.33801 0.0
H48 H 0.28637 0.52377 0.99497 0.0
H49 H 0.30632 0.51169 0.36428 0.0
H50 H 0.1968 0.52684 0.23917 0.0
H51 H 0.354 0.46378 0.24802 0.0
C52 C 0.36392 0.49173 0.23681 0.0
C53 C 0.27603 0.52111 0.08269 0.0
C54 C 0.23711 0.52414 0.10339 0.0
C55 C 0.30146 0.51549 0.1783 0.0
C56 C 0.2875 0.51368 0.29094 0.0
C57 C 0.25036 0.51884 0.31262 0.0
C58 C 0.2255 0.52246 0.21973 0.0
N59 N 0.34101 0.51577 0.16743 0.0
H60 H 0.05953 0.2945 0.05535 0.0
H61 H 0.98224 0.32964 0.31662 0.0
H62 H 0.96747 0.22592 0.14896 0.0
H63 H 0.99833 0.38787 0.21019 0.0
C64 C 0.02547 0.38389 0.24818 0.0
C65 C 0.03471 0.28985 0.10459 0.0
C66 C 1.01318 0.25709 0.08386 0.0
C67 C 1.02301 0.31705 0.18815 0.0
C68 C 0.99089 0.3102 0.25095 0.0
C69 C 0.97115 0.2776 0.2375 0.0
C70 C 0.98221 0.25179 0.15433 0.0
N71 N 0.04367 0.35001 0.21691 0.0
H72 H 0.28081 0.06606 0.02452 0.0
H73 H 0.26174 0.1206 0.35253 0.0
H74 H 0.36878 0.12294 0.20123 0.0
H75 H 0.23449 0.052 0.35645 0.0
C76 C 0.21452 0.06565 0.3008 0.0
C77 C 0.29041 0.08383 0.09408 0.0
C78 C 0.32848 0.09461 0.09914 0.0
C79 C 0.26558 0.09427 0.1856 0.0
C80 C 0.27956 0.1146 0.27979 0.0
C81 C 0.31723 0.12116 0.29232 0.0
C82 C 0.33988 0.11589 0.19492 0.0
N83 N 0.22802 0.08132 0.1935 0.0
H84 H 0.51159 0.29165 0.04903 0.0
H85 H 0.59181 0.25768 0.3064 0.0
H86 H 0.6058 0.35965 0.12982 0.0
H87 H 0.57297 0.19875 0.20076 0.0
C88 C 0.54732 0.20352 0.24615 0.0
C89 C 0.53709 0.29637 0.09585 0.0
C90 C 0.55902 0.32857 0.06986 0.0
C91 C 0.54934 0.26983 0.1816 0.0
C92 C 0.58251 0.27671 0.24021 0.0
C93 C 0.60261 0.30882 0.22227 0.0
C94 C 0.59083 0.33403 0.13801 0.0
N95 N 0.52868 0.23744 0.21653 0.0
C96 C 0.13401 0.09799 0.93402 0.0
C97 C 0.11199 0.12721 0.11033 0.0
C98 C 0.10721 0.10154 1.01916 0.0
C99 C 0.14413 0.14861 0.11592 0.0
C100 C 0.1664 0.11937 0.94003 0.0
C101 C 0.17136 0.1445 0.03163 0.0
N102 N 0.1282 0.07403 0.84466 0.0
C103 C 0.15432 0.06919 0.76119 0.0
C104 C 0.19286 0.11504 0.85335 0.0
C105 C 0.18682 0.08975 0.76378 0.0
Gd106 Gd 0.9926 0.05633 0.64107 0.0
Gd107 Gd 0.0735 0.03954 0.8527 0.0
N108 N 0.07572 0.08134 1.00948 0.0
C109 C 0.08391 0.13135 0.19163 0.0
C110 C 0.04878 0.08459 0.09084 0.0
C111 C 0.05225 0.10988 0.18195 0.0
H112 H 0.02462 0.06767 0.08761 0.0
H113 H 0.03051 0.11268 0.24509 0.0
H114 H 0.04042 0.05969 0.38295 0.0
H115 H 0.15097 0.04841 0.69512 0.0
H116 H 0.05437 1.01769 0.22277 0.0
H117 H 0.08641 0.15101 0.26216 0.0
H118 H 0.14812 0.16857 0.18495 0.0
H119 H 0.92153 1.01811 0.78202 0.0
H120 H 0.21813 0.13086 0.85526 0.0
H121 H 0.2074 0.08573 0.69748 0.0
H122 H 0.97053 0.91787 0.27353 0.0
H123 H 0.19606 0.16114 0.03751 0.0
H124 H 0.88724 0.92247 0.59298 0.0
H125 H 0.88018 0.9646 0.76028 0.0
N126 N 0.95185 1.00619 0.629 0.0
C127 C 0.95547 0.98406 0.53408 0.0
C128 C 0.92498 0.99975 0.70913 0.0
C129 C 0.9053 0.94606 0.60157 0.0
C130 C 0.90135 0.96965 0.69654 0.0
C131 C 0.93268 0.95294 0.51936 0.0
H132 H 0.9215 0.90492 0.41313 0.0
N133 N 1.00465 1.02223 0.46965 0.0
C134 C 0.98332 0.9916 0.45472 0.0
C135 C 1.01588 0.97653 0.2783 0.0
C136 C 0.98887 0.9677 0.35954 0.0
C137 C 0.02768 0.033 0.38251 0.0
C138 C 0.03475 1.00974 0.28843 0.0
O139 O 0.06236 0.10087 0.82021 0.0
O140 O 1.00094 0.10293 0.77427 0.0
O141 O 0.97814 0.10208 0.52705 0.0
O142 O 0.93609 0.06604 0.59126 0.0
O143 O 1.01546 0.02596 0.92545 0.0
O144 O 0.97455 0.06339 0.82811 0.0
O145 O 1.00295 0.99736 0.70895 0.0
O146 O 0.06464 0.99521 0.71181 0.0
O147 O 0.07429 0.99742 0.9854 0.0
O148 O 0.12501 1.01426 0.90476 0.0
O149 O 0.05009 0.0762 0.57798 0.0
O150 O 0.08622 0.03268 0.66201 0.0
C151 C 0.03104 0.11891 0.81593 0.0
C152 C 0.98301 0.04258 0.91776 0.0
C153 C 0.92168 0.1284 0.5836 0.0
C154 C 0.90103 0.19103 0.55446 0.0
C155 C 0.88855 0.16023 0.7367 0.0
C156 C 0.90642 0.12887 0.69599 0.0
C157 C 0.88632 0.19154 0.66687 0.0
C158 C 0.91823 0.15925 0.51297 0.0
C159 C 0.94304 0.09695 0.54124 0.0
C160 C 0.96682 0.93622 0.34668 0.0
C161 C 0.93854 0.92911 0.42534 0.0
H162 H 1.02121 0.95871 0.20472 0.0
C163 C 0.03313 0.97845 0.69164 0.0
C164 C 0.08131 0.05759 0.58139 0.0
C165 C 0.11243 0.95111 0.91124 0.0
C166 C 0.08194 0.89273 0.87392 0.0
C167 C 0.13386 0.91089 0.75641 0.0
C168 C 0.13672 0.94382 0.81907 0.0
C169 C 0.10631 0.88542 0.78297 0.0
C170 C 0.08645 0.92466 0.94051 0.0
C171 C 0.108 0.98831 0.95985 0.0
H172 H 0.87734 0.1606 0.82373 0.0
H173 H 0.9089 0.10538 0.75315 0.0
H174 H 0.87393 0.21624 0.70105 0.0
H175 H 0.93092 0.15927 0.42772 0.0
H176 H 0.15241 0.90556 0.68522 0.0
H177 H 0.15694 0.96398 0.7926 0.0
H178 H 0.10392 0.86032 0.73278 0.0
H179 H 0.06855 0.92974 1.01391 0.0
C180 C 0.50882 0.93118 0.8072 0.0
C181 C 0.44957 0.92707 0.90114 0.0
C182 C 0.47515 0.9468 0.83354 0.0
C183 C 0.45962 0.89323 0.95019 0.0
C184 C 0.51785 0.89592 0.84857 0.0
C185 C 0.49366 0.87766 0.92368 0.0
N186 N 0.53208 0.94979 0.73634 0.0
C187 C 0.56279 0.93336 0.69329 0.0
C188 C 0.55049 0.87973 0.81075 0.0
C189 C 0.5727 0.89826 0.73105 0.0
Gd190 Gd 0.55503 0.08197 0.90141 0.0
Gd191 Gd 0.51425 1.00923 0.68293 0.0
N192 N 0.46593 0.97925 0.78269 0.0
C193 C 0.4139 0.94077 0.91122 0.0
C194 C 0.42981 0.98941 0.77798 0.0
C195 C 0.40366 0.9714 0.84607 0.0
H196 H 0.42089 1.0116 0.72246 0.0
H197 H 0.37549 0.98076 0.84653 0.0
H198 H 0.58652 0.15346 0.7413 0.0
H199 H 0.58007 0.94787 0.63239 0.0
H200 H 0.56742 0.21642 0.69119 0.0
H201 H 0.39347 0.92652 0.96254 0.0
H202 H 0.44057 0.87807 1.00416 0.0
H203 H 0.5222 0.06689 0.16621 0.0
H204 H 0.55833 0.85264 0.8404 0.0
H205 H 0.59753 0.88562 0.69927 0.0
H206 H 0.46617 0.23996 0.94655 0.0
H207 H 0.5005 0.85093 0.95841 0.0
H208 H 0.44367 0.15044 0.24473 0.0
H209 H 0.47522 0.09247 0.29694 0.0
N210 N 0.51648 0.10921 0.0403 0.0
C211 C 0.50137 0.14195 1.01407 0.0
C212 C 0.50886 0.09237 0.14366 0.0
C213 C 0.46425 0.13925 0.18719 0.0
C214 C 0.48205 0.10666 0.21733 0.0
C215 C 0.47484 0.15806 0.08651 0.0
H216 H 0.44053 0.20578 0.11257 0.0
N217 N 0.54245 0.14451 0.85922 0.0
C218 C 0.51507 0.16052 0.92002 0.0
C219 C 0.52195 0.21652 0.81025 0.0
C220 C 0.50365 0.19669 0.8966 0.0
C221 C 0.56258 0.16497 0.78263 0.0
C222 C 0.55208 0.20083 0.75475 0.0
O223 O 0.55553 0.99408 0.82914 0.0
O224 O 0.53592 0.02775 0.97931 0.0
O225 O 0.59023 0.05935 0.03399 0.0
O226 O 0.59953 0.1149 0.9779 0.0
O227 O 0.47222 0.05091 0.7528 0.0
O228 O 0.49668 0.06063 0.93294 0.0
O229 O 0.55605 0.09484 0.70605 0.0
O230 O 0.50354 0.06953 0.63285 0.0
O231 O 0.51826 1.01162 0.49345 0.0
O232 O 0.48728 0.96862 0.57441 0.0
O233 O 0.59912 0.05891 0.77468 0.0
O234 O 0.57364 1.02039 0.63297 0.0
C235 C 0.54758 0.99622 0.94082 0.0
C236 C 0.46807 0.06085 0.86239 0.0
C237 C 0.65161 0.07659 1.00722 0.0
C238 C 0.69843 0.02875 0.9876 0.0
C239 C 0.7146 0.09365 0.96758 0.0
C240 C 0.67835 0.10367 0.98895 0.0
C241 C 0.72476 0.05671 0.9685 0.0
C242 C 0.66168 0.03933 1.00205 0.0
C243 C 0.61317 0.08662 0.03174 0.0
C244 C 0.4757 0.21238 0.96405 0.0
C245 C 0.46113 0.19296 0.05866 0.0
H246 H 0.51414 0.24443 0.78964 0.0
C247 C 0.52861 0.09576 0.63086 0.0
C248 C 0.60203 0.03809 0.67947 0.0
C249 C 0.4608 0.99487 0.41495 0.0
C250 C 0.40357 0.02859 0.42137 0.0
C251 C 0.40908 0.97457 0.29771 0.0
C252 C 0.44538 0.97012 0.33476 0.0
C253 C 0.38799 1.00319 0.34246 0.0
C254 C 0.44007 1.02447 0.45562 0.0
C255 C 0.49422 0.98551 0.47828 0.0
H256 H 0.73522 0.11468 0.95399 0.0
H257 H 0.67125 0.1325 0.9914 0.0
H258 H 0.75362 0.05061 0.95931 0.0
H259 H 0.64072 1.01853 1.01148 0.0
H260 H 0.39701 0.95536 0.23625 0.0
H261 H 0.46072 0.94655 0.30516 0.0
H262 H 0.35987 1.00617 0.31257 0.0
H263 H 0.45156 0.04321 0.51923 0.0
C264 C 0.4342 0.48854 0.89347 0.0
C265 C 0.45449 0.45704 0.0686 0.0
C266 C 0.46055 0.48321 0.98013 0.0
C267 C 0.42157 0.43685 0.06969 0.0
C268 C 0.40093 0.46849 0.89528 0.0
C269 C 0.39478 0.44272 0.98382 0.0
N270 N 0.44107 0.51324 0.80744 0.0
C271 C 0.41506 0.52031 0.724 0.0
C272 C 0.37475 0.47487 0.80789 0.0
C273 C 0.38179 0.50103 0.72228 0.0
Gd274 Gd 0.578 0.5277 0.61355 0.0
Gd275 Gd 0.49753 0.54492 0.82122 0.0
N276 N 0.49289 0.50208 0.97423 0.0
C277 C 0.48223 0.45104 0.1512 0.0
C278 C 0.51967 0.49676 0.05633 0.0
C279 C 0.51487 0.47105 0.14515 0.0
H280 H 0.54482 0.51219 0.05485 0.0
H281 H 0.53643 0.46667 0.20897 0.0
H282 H 0.52886 0.51923 0.35637 0.0
H283 H 0.41914 0.54187 0.6612 0.0
H284 H 0.51234 0.55889 0.19226 0.0
H285 H 0.47882 0.43086 0.21951 0.0
H286 H 0.41661 0.41643 0.13629 0.0
H287 H 0.64722 0.57106 0.75241 0.0
H288 H 0.34887 0.46007 0.80654 0.0
H289 H 0.36139 0.50675 0.65579 0.0
H290 H 0.59536 0.66018 0.22428 0.0
H291 H 0.36944 0.42704 0.98634 0.0
H292 H 0.67921 0.66357 0.54666 0.0
H293 H 0.6874 0.62504 0.72188 0.0
N294 N 0.6166 0.57925 0.59617 0.0
C295 C 0.61222 0.59949 0.4974 0.0
C296 C 0.64342 0.58787 0.67591 0.0
C297 C 0.66169 0.6398 0.55911 0.0
C298 C 0.66628 0.61823 0.65851 0.0
C299 C 0.63435 0.63073 0.47747 0.0
H300 H 0.64448 0.67672 0.36254 0.0
N301 N 0.56392 0.55894 0.43803 0.0
C302 C 0.58442 0.58982 0.41865 0.0
C303 C 0.55077 0.60124 0.24002 0.0
C304 C 0.57818 0.61179 0.31918 0.0
C305 C 0.54078 0.54627 0.35248 0.0
C306 C 0.53246 0.56802 0.25577 0.0
O307 O 0.50953 0.4833 0.79654 0.0
O308 O 0.5704 0.48052 0.74533 0.0
O309 O 0.59446 0.48212 0.50139 0.0
O310 O 0.63491 0.51982 0.56825 0.0
O311 O 0.55553 0.55684 0.90338 0.0
O312 O 0.59665 0.52148 0.80028 0.0
O313 O 0.56712 0.58681 0.67982 0.0
O314 O 0.50555 0.58832 0.67742 0.0
O315 O 0.49947 0.58921 0.94702 0.0
O316 O 0.44702 0.56983 0.88201 0.0
O317 O 0.52075 0.50583 0.55434 0.0
O318 O 0.48414 0.55027 0.6289 0.0
C319 C 0.54072 0.46504 0.79062 0.0
C320 C 0.58812 0.54056 0.89356 0.0
C321 C 0.65231 0.45833 0.55934 0.0
C322 C 0.67593 0.39683 0.5295 0.0
C323 C 0.68864 0.42863 0.71078 0.0
C324 C 0.66868 0.45889 0.67092 0.0
C325 C 0.69181 0.39735 0.64104 0.0
C326 C 0.65675 0.4276 0.48865 0.0
C327 C 0.62933 0.48875 0.5172 0.0
C328 C 0.59978 0.64321 0.30043 0.0
C329 C 0.62796 0.65247 0.3787 0.0
H330 H 0.54468 0.61771 0.16384 0.0
C331 C 0.53689 0.60537 0.65853 0.0
C332 C 0.48938 0.52416 0.55245 0.0
C333 C 0.45819 0.6332 0.87506 0.0
C334 C 0.48551 0.69242 0.8314 0.0
C335 C 0.43441 0.6702 0.71499 0.0
C336 C 0.43345 0.63795 0.78128 0.0
C337 C 0.46061 0.69742 0.73932 0.0
C338 C 0.48275 0.66126 0.90179 0.0
C339 C 0.46489 0.59706 0.92828 0.0
H340 H 0.70074 0.42905 0.79716 0.0
H341 H 0.66561 0.48236 0.72798 0.0
H342 H 0.70573 0.37337 0.67483 0.0
H343 H 0.64325 0.42675 0.40406 0.0
H344 H 0.41546 0.67364 0.6428 0.0
H345 H 0.41434 0.61639 0.7565 0.0
H346 H 0.46158 0.72203 0.68665 0.0
H347 H 0.50107 0.658 0.97607 0.0
C348 C 0.09182 0.45524 0.98023 0.0
C349 C 0.11848 0.48154 0.15675 0.0
C350 C 0.09056 0.48069 0.07086 0.0
C351 C 0.14746 0.45638 0.15132 0.0
C352 C 0.12051 0.42931 0.97683 0.0
C353 C 0.14844 0.43033 0.06179 0.0
N354 N 0.06455 0.45501 0.89794 0.0
C355 C 0.06247 0.42693 0.81886 0.0
C356 C 0.11995 0.40254 0.88949 0.0
C357 C 0.09047 0.40097 0.81155 0.0
Gd358 Gd 0.03639 0.57817 0.6961 0.0
Gd359 Gd 1.01918 0.50075 0.92028 0.0
N360 N 0.06263 0.50547 0.07289 0.0
C361 C 0.11657 0.5078 0.2455 0.0
C362 C 0.06023 0.53052 0.1612 0.0
C363 C 0.08746 0.53248 0.24735 0.0
H364 H 0.038 0.54985 0.16288 0.0
H365 H 0.08606 0.55309 0.3151 0.0
H366 H 0.03731 0.52824 0.43983 0.0
H367 H 0.03882 0.42342 0.7631 0.0
H368 H 0.99449 0.51542 0.27997 0.0
H369 H 0.1373 0.50919 0.3134 0.0
H370 H 0.16916 0.45671 0.21641 0.0
H371 H 1.00309 0.65225 0.82899 0.0
H372 H 0.14146 0.38217 0.88405 0.0
H373 H 0.0889 0.3793 0.7471 0.0
H374 H 0.90571 0.61128 0.30519 0.0
H375 H 0.17079 0.41081 0.05968 0.0
H376 H 0.91584 0.69632 0.62223 0.0
H377 H 0.95551 0.69898 0.79788 0.0
N378 N 0.99095 0.62324 0.67222 0.0
C379 C 0.97056 0.62223 0.573 0.0
C380 C 0.98611 0.65065 0.75186 0.0
C381 C 0.9371 0.67596 0.63465 0.0
C382 C 0.95925 0.67741 0.73422 0.0
C383 C 0.94233 0.64796 0.55305 0.0
H384 H 0.89708 0.66308 0.43954 0.0
N385 N 1.00505 0.57073 0.51463 0.0
C386 C 0.97671 0.59419 0.4944 0.0
C387 C 0.95935 0.56074 0.32044 0.0
C388 C 0.95327 0.58992 0.39666 0.0
C389 C 1.01285 0.54436 0.43386 0.0
C390 C 0.98926 0.53785 0.33937 0.0
O391 O 0.07085 0.53666 0.93 0.0
O392 O 0.08712 0.54348 0.74327 0.0
O393 O 0.07034 0.6069 0.5694 0.0
O394 O 0.06475 0.62794 0.74453 0.0
O395 O 0.9978 0.55673 0.98309 0.0
O396 O 0.03747 0.59579 0.88845 0.0
O397 O 0.97576 0.56733 0.74344 0.0
O398 O 0.97523 0.50569 0.7764 0.0
O399 O 0.97016 0.49243 0.02564 0.0
O400 O 1.00991 0.4492 1.00862 0.0
O401 O 0.05445 0.52061 0.63237 0.0
O402 O 1.01489 0.4826 0.73056 0.0
C403 C 0.09686 0.53735 0.85189 0.0
C404 C 1.01428 0.58912 0.97377 0.0
C405 C 0.12334 0.62946 0.67086 0.0
C406 C 0.18126 0.59624 0.66683 0.0
C407 C 0.17428 0.64881 0.79486 0.0
C408 C 0.13836 0.65359 0.75433 0.0
C409 C 0.19562 0.6201 0.75221 0.0
C410 C 0.14516 0.60134 0.62637 0.0
C411 C 0.08347 0.62925 0.64898 0.0
C412 C 0.92419 0.6145 0.37896 0.0
C413 C 0.91927 0.64398 0.45537 0.0
H414 H 0.94157 0.55606 0.24572 0.0
C415 C 0.95831 0.53553 0.73904 0.0
C416 C 0.03629 0.48907 0.64069 0.0
C417 C 0.94841 0.43195 0.99471 0.0
C418 C 0.88825 0.40381 1.0162 0.0
C419 C 0.923 0.39323 0.8406 0.0
C420 C 0.95132 0.41554 0.88405 0.0
C421 C 0.89119 0.38777 0.90573 0.0
C422 C 0.91717 0.42543 0.06089 0.0
C423 C 0.97677 0.45752 0.03808 0.0
H424 H 0.18545 0.66712 0.86061 0.0
H425 H 0.12176 0.67516 0.79169 0.0
H426 H 0.22334 0.61674 0.78521 0.0
H427 H 0.13385 0.58325 0.56016 0.0
H428 H 0.92527 0.3811 0.75485 0.0
H429 H 0.9751 0.42051 0.83028 0.0
H430 H 0.86861 0.37198 0.86907 0.0
H431 H 0.91437 0.43908 0.14443 0.0
C432 C 0.15477 0.09603 0.36997 0.0
C433 C 0.17522 0.06422 0.34351 0.0
H434 H 0.10885 0.11935 0.46344 0.0
C435 C 0.16188 0.03065 0.38689 0.0
H436 H 0.16503 0.12264 0.34366 0.0
C437 C 0.13029 0.02879 0.45671 0.0
C438 C 0.11055 0.06051 0.48783 0.0
H439 H 0.17718 1.00568 0.37179 0.0
H440 H 0.12223 1.00231 0.4911 0.0
C441 C 0.12268 0.09417 0.44021 0.0
C442 C 0.50707 0.17508 0.41247 0.0
C443 C 0.53959 0.17675 0.34594 0.0
H444 H 0.47721 0.14767 0.55085 0.0
C445 C 0.56715 0.15091 0.37386 0.0
H446 H 0.48505 0.19416 0.39468 0.0
C447 C 0.56307 0.12508 0.46425 0.0
C448 C 0.53068 0.12277 0.52976 0.0
H449 H 0.59265 0.15086 0.32584 0.0
H450 H 0.58555 0.10653 0.48264 0.0
C451 C 0.50248 0.1481 0.50178 0.0
C452 C 0.42005 0.47354 0.35387 0.0
C453 C 0.39826 0.50198 0.30651 0.0
H454 H 0.4659 0.45783 0.46258 0.0
C455 C 0.40811 0.53822 0.33685 0.0
H456 H 0.4132 0.4452 0.33487 0.0
C457 C 0.43797 0.54539 0.41433 0.0
C458 C 0.4596 0.51669 0.46172 0.0
H459 H 0.39197 0.56094 0.30444 0.0
H460 H 0.44394 0.57356 0.43837 0.0
C461 C 0.45046 0.48071 0.42783 0.0
C462 C 1.00332 0.41185 0.43526 0.0
C463 C 0.03251 0.40675 0.35708 0.0
H464 H 0.98179 0.44042 0.58304 0.0
C465 C 0.06409 0.4289 0.37397 0.0
H466 H 0.97816 0.3962 0.42405 0.0
C467 C 0.06588 0.4556 0.46496 0.0
C468 C 0.03629 0.46065 0.54273 0.0
H469 H 0.0868 0.4266 0.31419 0.0
H470 H 0.09031 0.47246 0.47391 0.0
C471 C 1.00534 0.43769 0.52663 0.0
C472 C 0.89952 0.05795 0.12118 0.0
C473 C 0.89778 1.02468 0.18342 0.0
H474 H 0.92736 0.08971 0.98914 0.0
C475 C 0.92428 0.99787 0.15611 0.0
H476 H 0.87964 0.07927 0.13795 0.0
C477 C 0.95212 1.00402 0.07358 0.0
C478 C 0.95418 0.03708 1.01136 0.0
H479 H 0.92298 0.97136 0.1977 0.0
H480 H 0.97144 0.98224 0.05588 0.0
C481 C 0.9271 0.06389 0.03574 0.0
C482 C 0.59239 0.91172 0.08485 0.0
C483 C 0.57019 0.9042 0.18279 0.0
H484 H 0.60301 0.94527 0.93442 0.0
C485 C 0.54006 0.92773 0.20067 0.0
H486 H 0.61606 0.89473 0.06742 0.0
C487 C 0.5329 0.9577 0.12385 0.0
C488 C 0.55514 0.96471 0.02516 0.0
H489 H 0.52255 0.92348 0.27518 0.0
H490 H 0.50963 0.97524 0.14109 0.0
C491 C 0.58492 0.94095 1.00762 0.0
C492 C 0.67266 0.51437 0.07834 0.0
C493 C 0.67942 0.54524 0.14954 0.0
H494 H 0.63928 0.48847 0.94681 0.0
C495 C 0.65357 0.57406 0.14281 0.0
H496 H 0.69223 0.49206 0.07745 0.0
C497 C 0.62278 0.57227 0.06515 0.0
C498 C 0.61705 0.54176 0.99069 0.0
H499 H 0.65847 0.59901 0.19183 0.0
H500 H 0.60484 0.59576 0.05815 0.0
C501 C 0.64226 0.51257 1.00151 0.0
C502 C 0.96626 0.65766 0.17688 0.0
C503 C 0.9953 0.67801 0.22851 0.0
H504 H 0.94911 0.61362 0.06297 0.0
C505 C 0.03129 0.66823 0.19615 0.0
H506 H 0.9381 0.6648 0.19595 0.0
C507 C 0.03755 0.63947 0.11433 0.0
C508 C 1.00818 0.61877 0.06508 0.0
H509 H 0.0545 0.68335 0.23144 0.0
H510 H 0.06551 0.63331 0.08976 0.0
C511 C 0.97251 0.62821 0.09944 0.0
C512 C 0.94995 0.27175 0.44263 0.0
C513 C 0.94262 0.26731 0.32293 0.0
H514 H 0.94045 0.2509 0.61368 0.0
C515 C 0.91216 0.24608 0.2878 0.0
H516 H 0.97314 0.28798 0.47288 0.0
C517 C 0.89368 0.22456 0.36893 0.0
C518 C 0.90518 0.22465 0.48576 0.0
H519 H 0.90527 0.24302 0.19635 0.0
H520 H 0.87358 0.20468 0.33832 0.0
C521 C 0.9311 0.25062 0.52383 0.0
C522 C 0.37188 0.12522 0.42258 0.0
C523 C 0.33427 0.11676 0.41043 0.0
H524 H 0.42528 0.1009 0.42582 0.0
C525 C 0.32152 0.08594 0.47285 0.0
H526 H 0.38261 0.15067 0.38764 0.0
C527 C 0.34548 0.05673 0.49056 0.0
C528 C 0.38245 0.06079 0.46014 0.0
H529 H 0.29243 0.08021 0.48042 0.0
H530 H 0.33441 0.03007 0.51338 0.0
C531 C 0.39639 0.09637 0.44195 0.0
C532 C 0.66233 0.3407 0.26579 0.0
C533 C 0.63251 0.31939 0.30435 0.0
H534 H 0.70117 0.3827 0.31162 0.0
C535 C 0.62721 0.31506 0.42485 0.0
H536 H 0.66784 0.3436 0.17368 0.0
C537 C 0.6472 0.33645 0.50368 0.0
C538 C 0.67209 0.36272 0.46255 0.0
H539 H 0.60466 0.29878 0.45807 0.0
H540 H 0.63923 0.33627 0.59445 0.0
C541 C 0.68184 0.36261 0.34463 0.0
C542 C 0.20589 0.51645 0.47715 0.0
C543 C 0.2388 0.52968 0.43037 0.0
H544 H 0.16223 0.52651 0.59609 0.0
C545 C 0.25697 0.5593 0.48465 0.0
H546 H 0.19188 0.49317 0.43799 0.0
C547 C 0.23989 0.57873 0.57315 0.0
C548 C 0.20451 0.56866 0.60883 0.0
H549 H 0.28245 0.57006 0.45018 0.0
H550 H 0.25269 0.60389 0.60362 0.0
C551 C 0.18901 0.53562 0.5671 0.0
C552 C 0.04886 0.8153 0.04395 0.0
C553 C 1.01962 0.83309 0.09977 0.0
H554 H 0.0918 0.82068 0.91972 0.0
C555 C 1.00352 0.86384 0.04808 0.0
H556 H 0.06139 0.79114 0.08179 0.0
C557 C 1.02012 0.87982 0.95172 0.0
C558 C 0.05401 0.86627 0.91215 0.0
H559 H 0.98044 0.87738 0.0885 0.0
H560 H 1.00998 0.90606 0.92138 0.0
C561 C 0.06604 0.83188 0.94989 0.0
C562 C 0.70747 0.94263 0.16125 0.0
C563 C 0.74587 0.94591 0.17125 0.0
H564 H 0.66044 0.97178 0.1045 0.0
C565 C 0.76344 0.95406 0.06512 0.0
H566 H 0.69175 0.92886 0.228 0.0
C567 C 0.74605 0.97843 0.98864 0.0
C568 C 0.7101 0.99015 1.01338 0.0
H569 H 0.79247 0.94914 0.05376 0.0
H570 H 0.76202 0.99094 0.92007 0.0
C571 C 0.68931 0.96757 0.08884 0.0
C572 C 0.56257 0.72344 1.00611 0.0
C573 C 0.54434 0.75164 0.06407 0.0
H574 H 0.55879 0.68377 0.87006 0.0
C575 C 0.5137 0.76842 1.01176 0.0
H576 H 0.58674 0.71085 0.0441 0.0
C577 C 0.49775 0.75306 0.91272 0.0
C578 C 0.51212 0.72054 0.86778 0.0
H579 H 0.49957 0.79064 0.05502 0.0
H580 H 0.47111 0.76292 0.88441 0.0
C581 C 0.54707 0.70869 0.90512 0.0
C582 C 0.82934 0.41261 0.27198 0.0
C583 C 0.80816 0.44235 0.23268 0.0
H584 H 0.87251 0.37542 0.22896 0.0
C585 C 0.8042 0.44806 0.11211 0.0
H586 H 0.83185 0.40676 0.36417 0.0
C587 C 0.82651 0.42916 0.03464 0.0
C588 C 0.85317 0.40502 0.07761 0.0
H589 H 0.78782 0.47045 0.07845 0.0
H590 H 0.82689 0.43775 0.94431 0.0
C591 C 0.85219 0.39425 0.19466 0.0
C592 C 0.99093 0.20917 0.93643 0.0
C593 C 1.02084 0.22638 0.99523 0.0
H594 H 0.97017 0.16306 0.839 0.0
C595 C 0.0555 0.20973 0.9814 0.0
H596 H 0.96375 0.22102 0.94119 0.0
C597 C 0.05933 0.17627 0.91794 0.0
C598 C 0.0286 0.15743 0.86926 0.0
H599 H 0.07943 0.2216 0.02372 0.0
H600 H 0.08644 0.16478 0.90941 0.0
C601 C 0.99458 0.17548 0.87672 0.0
C602 C 0.36558 0.08854 0.90704 0.0
C603 C 0.3598 0.07931 0.02516 0.0
H604 H 0.40356 0.08984 0.76216 0.0
C605 C 0.38924 0.06178 0.08327 0.0
H606 H 0.34431 0.10278 0.859 0.0
C607 C 0.42329 0.05545 0.02969 0.0
C608 C 0.42988 0.06593 0.91383 0.0
H609 H 0.38664 0.05495 0.17426 0.0
H610 H 0.44488 0.04271 0.08066 0.0
C611 C 0.39994 0.08155 0.85188 0.0
C612 C 0.51655 0.37524 0.96153 0.0
C613 C 0.55119 0.35868 0.97838 0.0
H614 H 0.48555 0.41945 0.88404 0.0
C615 C 0.581 0.37544 0.91887 0.0
H616 H 0.49261 0.36374 1.00358 0.0
C617 C 0.57735 0.40872 0.85654 0.0
C618 C 0.54336 0.42675 0.84634 0.0
H619 H 0.60817 0.3636 0.92495 0.0
H620 H 0.60174 0.42084 0.81886 0.0
C621 C 0.51269 0.40815 0.89507 0.0
C622 C 0.19672 0.50749 0.92366 0.0
C623 C 0.20694 0.53234 1.01318 0.0
H624 H 0.15469 0.48971 0.80082 0.0
C625 C 0.1822 0.56142 0.03492 0.0
H626 H 0.21409 0.48418 0.90535 0.0
C627 C 0.14784 0.56394 0.97768 0.0
C628 C 0.13673 0.53821 0.89286 0.0
H629 H 0.1884 0.5811 0.10316 0.0
H630 H 0.12913 0.58543 1.00365 0.0
C631 C 0.16232 0.51056 0.86391 0.0
C632 C 0.05624 0.89352 0.50199 0.0
C633 C 0.02586 0.86951 0.51658 0.0
H634 H 0.08256 0.94511 0.54401 0.0
C635 C 0.99913 0.88086 0.59763 0.0
H636 H 0.07724 0.88664 0.43946 0.0
C637 C 1.00197 0.91523 0.65695 0.0
C638 C 0.03164 0.9398 0.63815 0.0
H639 H 0.97481 0.86416 0.61022 0.0
H640 H 0.98018 0.92309 0.71542 0.0
C641 C 0.05922 0.92755 0.56186 0.0
C642 C 0.67161 1.02302 0.43299 0.0
C643 C 0.70651 0.02584 0.48772 0.0
H644 H 0.61293 1.02368 0.44806 0.0
C645 C 0.70671 0.03628 0.60643 0.0
H646 H 0.66969 1.01565 0.34166 0.0
C647 C 0.67325 0.04178 0.66816 0.0
C648 C 0.63848 0.0361 0.61447 0.0
H649 H 0.73258 0.03863 0.65302 0.0
H650 H 0.67463 0.04915 0.75911 0.0
C651 C 0.63862 0.02748 0.4948 0.0
C652 C 0.57026 0.70297 0.56149 0.0
C653 C 0.54308 0.71411 0.48044 0.0
H654 H 0.58991 0.6611 0.68004 0.0
C655 C 0.51281 0.68979 0.46611 0.0
H656 H 0.59454 0.71982 0.57408 0.0
C657 C 0.51026 0.65583 0.52639 0.0
C658 C 0.53816 0.64387 0.60324 0.0
H659 H 0.49141 0.69644 0.40372 0.0
H660 H 0.4869 0.63813 0.50874 0.0
C661 C 0.56784 0.66867 0.62133 0.0
C662 C 0.86917 0.49335 0.61052 0.0
C663 C 0.85078 0.52316 0.55608 0.0
H664 H 0.91629 0.47331 0.70404 0.0
C665 C 0.86621 0.55827 0.57654 0.0
H666 H 0.85814 0.4658 0.6027 0.0
C667 C 0.89959 0.56267 0.64141 0.0
C668 C 0.91984 0.53224 0.68395 0.0
H669 H 0.85331 0.58226 0.5391 0.0
H670 H 0.90975 0.59003 0.6569 0.0
C671 C 0.90298 0.49763 0.67034 0.0
loop_
_geom_bond_atom_site_label_1
_geom_bond_atom_site_label_2
_geom_bond_distance
_geom_bond_site_symmetry_2
_ccdc_geom_bond_type
H0 C5 0.930 . S
H1 C8 0.930 . S
H2 C10 0.930 . S
H3 C4 1.016 . S
C4 H3 1.016 . S
C4 N11 1.286 . S
C5 H0 0.930 . S
C5 C6 1.397 . S
C5 C7 1.361 . S
C6 C5 1.397 . S
C6 C10 1.390 . S
C7 C5 1.361 . S
C7 C8 1.393 . S
C7 N11 1.413 . S
C8 H1 0.930 . S
C8 C7 1.393 . S
C8 C9 1.399 . S
C9 C8 1.399 . S
C9 C10 1.381 . S
C10 H2 0.930 . S
C10 C6 1.390 . S
C10 C9 1.381 . S
N11 C4 1.286 . S
N11 C7 1.413 . S
H12 C17 0.930 . S
H13 C20 0.930 . S
H14 C22 0.930 . S
H15 C16 1.016 . S
C16 H15 1.016 . S
C16 N23 1.286 1_655 S
C17 H12 0.930 . S
C17 C18 1.397 . S
C17 C19 1.361 . S
C18 C17 1.397 . S
C18 C22 1.390 . S
C19 C17 1.361 . S
C19 C20 1.393 . S
C19 N23 1.413 1_655 S
C20 H13 0.930 . S
C20 C19 1.393 . S
C20 C21 1.399 . S
C21 C20 1.399 . S
C21 C22 1.381 . S
C22 H14 0.930 . S
C22 C18 1.390 . S
C22 C21 1.381 . S
N23 C16 1.286 1_455 S
N23 C19 1.413 1_455 S
H24 C29 0.930 . S
H25 C32 0.930 . S
H26 C34 0.930 . S
H27 C28 1.016 . S
C28 H27 1.016 . S
C28 N35 1.286 1_565 S
C29 H24 0.930 . S
C29 C30 1.397 . S
C29 C31 1.361 . S
C30 C29 1.397 . S
C30 C34 1.390 . S
C31 C29 1.361 . S
C31 C32 1.393 . S
C31 N35 1.413 1_565 S
C32 H25 0.930 . S
C32 C31 1.393 . S
C32 C33 1.399 . S
C33 C32 1.399 . S
C33 C34 1.381 . S
C34 H26 0.930 . S
C34 C30 1.390 . S
C34 C33 1.381 . S
N35 C28 1.286 1_545 S
N35 C31 1.413 1_545 S
H36 C41 0.930 . S
H37 C44 0.930 . S
H38 C46 0.930 . S
H39 C40 1.016 . S
C40 H39 1.016 . S
C40 N47 1.286 . S
C41 H36 0.930 . S
C41 C42 1.397 . S
C41 C43 1.361 . S
C42 C41 1.397 . S
C42 C46 1.390 . S
C43 C41 1.361 . S
C43 C44 1.393 . S
C43 N47 1.413 . S
C44 H37 0.930 . S
C44 C43 1.393 . S
C44 C45 1.399 . S
C45 C44 1.399 . S
C45 C46 1.381 . S
C46 H38 0.930 . S
C46 C42 1.390 . S
C46 C45 1.381 . S
N47 C40 1.286 . S
N47 C43 1.413 . S
H48 C53 0.930 . S
H49 C56 0.930 . S
H50 C58 0.930 . S
H51 C52 1.016 . S
C52 H51 1.016 . S
C52 N59 1.286 . S
C53 H48 0.930 . S
C53 C54 1.397 . S
C53 C55 1.361 1_556 S
C54 C53 1.397 . S
C54 C58 1.390 1_556 S
C55 C53 1.361 1_554 S
C55 C56 1.393 . S
C55 N59 1.413 . S
C56 H49 0.930 . S
C56 C55 1.393 . S
C56 C57 1.399 . S
C57 C56 1.399 . S
C57 C58 1.381 . S
C58 H50 0.930 . S
C58 C54 1.390 1_554 S
C58 C57 1.381 . S
N59 C52 1.286 . S
N59 C55 1.413 . S
H60 C65 0.930 . S
H61 C68 0.930 . S
H62 C70 0.930 . S
H63 C64 1.016 . S
C64 H63 1.016 . S
C64 N71 1.286 . S
C65 H60 0.930 . S
C65 C66 1.397 . S
C65 C67 1.361 1_556 S
C66 C65 1.397 . S
C66 C70 1.390 1_556 S
C67 C65 1.361 1_554 S
C67 C68 1.393 . S
C67 N71 1.413 . S
C68 H61 0.930 . S
C68 C67 1.393 . S
C68 C69 1.399 . S
C69 C68 1.399 . S
C69 C70 1.381 . S
C70 H62 0.930 . S
C70 C66 1.390 1_554 S
C70 C69 1.381 . S
N71 C64 1.286 . S
N71 C67 1.413 . S
H72 C77 0.930 . S
H73 C80 0.930 . S
H74 C82 0.930 . S
H75 C76 1.016 . S
C76 H75 1.016 . S
C76 N83 1.286 . S
C77 H72 0.930 . S
C77 C78 1.397 . S
C77 C79 1.361 1_556 S
C78 C77 1.397 . S
C78 C82 1.390 1_556 S
C79 C77 1.361 1_554 S
C79 C80 1.393 . S
C79 N83 1.413 . S
C80 H73 0.930 . S
C80 C79 1.393 . S
C80 C81 1.399 . S
C81 C80 1.399 . S
C81 C82 1.381 . S
C82 H74 0.930 . S
C82 C78 1.390 1_554 S
C82 C81 1.381 . S
N83 C76 1.286 . S
N83 C79 1.413 . S
H84 C89 0.930 . S
H85 C92 0.930 . S
H86 C94 0.930 . S
H87 C88 1.016 . S
C88 H87 1.016 . S
C88 N95 1.286 . S
C89 H84 0.930 . S
C89 C90 1.397 . S
C89 C91 1.361 1_556 S
C90 C89 1.397 . S
C90 C94 1.390 1_556 S
C91 C89 1.361 1_554 S
C91 C92 1.393 . S
C91 N95 1.413 . S
C92 H85 0.930 . S
C92 C91 1.393 . S
C92 C93 1.399 . S
C93 C92 1.399 . S
C93 C94 1.381 . S
C94 H86 0.930 . S
C94 C90 1.390 1_554 S
C94 C93 1.381 . S
N95 C88 1.286 . S
N95 C91 1.413 . S
C96 C98 1.422 . S
C96 C100 1.415 . S
C96 N102 1.369 1_554 S
C97 C98 1.421 . S
C97 C99 1.417 . S
C97 C109 1.422 . S
C98 C96 1.422 . S
C98 C97 1.421 . S
C98 N108 1.359 . S
C99 C97 1.417 . S
C99 C101 1.329 . S
C99 H118 0.930 . S
C100 C96 1.415 . S
C100 C101 1.437 . S
C100 C104 1.413 1_554 S
C101 C99 1.329 . S
C101 C100 1.437 . S
C101 H123 0.929 . S
N102 C96 1.369 1_556 S
N102 C103 1.338 . S
N102 Gd107 2.622 1_545 S
C103 N102 1.338 . S
C103 C105 1.378 . S
C103 H115 0.929 1_545 S
C104 C100 1.413 1_556 S
C104 C105 1.348 . S
C104 H120 0.931 . S
C105 C103 1.378 . S
C105 C104 1.348 . S
C105 H121 0.930 . S
Gd106 N126 2.622 . S
Gd106 N133 2.570 . S
Gd106 O140 2.353 1_655 S
Gd106 O141 2.468 . S
Gd106 O142 2.427 . S
Gd106 O144 2.388 . S
Gd106 O145 2.386 1_545 S
Gd106 O149 2.307 1_655 S
Gd106 C159 2.805 . S
Gd107 N102 2.622 1_565 S
Gd107 N108 2.570 1_566 S
Gd107 O139 2.386 1_565 S
Gd107 O143 2.307 1_465 S
Gd107 O146 2.353 . S
Gd107 O147 2.468 . S
Gd107 O148 2.427 . S
Gd107 O150 2.388 . S
Gd107 C171 2.805 . S
N108 C98 1.359 . S
N108 Gd107 2.570 1_544 S
N108 C110 1.343 . S
C109 C97 1.422 . S
C109 C111 1.321 . S
C109 H117 0.931 . S
C110 N108 1.343 . S
C110 C111 1.390 . S
C110 H112 0.953 . S
C111 C109 1.321 . S
C111 C110 1.390 . S
C111 H113 0.930 . S
H112 C110 0.953 . S
H113 C111 0.930 . S
H114 C137 0.931 1_455 S
H115 C103 0.929 1_565 S
H116 C138 0.930 1_455 S
H117 C109 0.931 . S
H118 C99 0.930 . S
H119 C128 0.929 . S
H120 C104 0.931 . S
H121 C105 0.930 . S
H122 C160 0.930 . S
H123 C101 0.929 . S
H124 C129 0.931 . S
H125 C130 0.930 . S
N126 Gd106 2.622 . S
N126 C127 1.369 1_545 S
N126 C128 1.338 . S
C127 N126 1.369 1_565 S
C127 C131 1.415 . S
C127 C134 1.422 . S
C128 H119 0.929 . S
C128 N126 1.338 . S
C128 C130 1.378 . S
C129 H124 0.931 . S
C129 C130 1.348 1_565 S
C129 C131 1.413 . S
C130 H125 0.930 . S
C130 C128 1.378 . S
C130 C129 1.348 1_545 S
C131 C127 1.415 . S
C131 C129 1.413 . S
C131 C161 1.437 . S
H132 C161 0.929 . S
N133 Gd106 2.570 . S
N133 C134 1.359 1_545 S
N133 C137 1.343 . S
C134 C127 1.422 . S
C134 N133 1.359 1_565 S
C134 C136 1.421 . S
C135 C136 1.422 . S
C135 C138 1.321 . S
C135 H162 0.931 . S
C136 C134 1.421 . S
C136 C135 1.422 . S
C136 C160 1.417 . S
C137 H114 0.931 1_655 S
C137 N133 1.343 . S
C137 C138 1.390 1_545 S
C138 H116 0.930 1_655 S
C138 C135 1.321 . S
C138 C137 1.390 1_565 S
O139 Gd107 2.386 1_545 S
O139 C151 1.265 . S
O140 Gd106 2.353 1_455 S
O140 C151 1.242 . S
O141 Gd106 2.468 . S
O141 C159 1.263 . S
O142 Gd106 2.427 . S
O142 C159 1.252 . S
O143 Gd107 2.307 1_645 S
O143 C152 1.261 . S
O144 Gd106 2.388 . S
O144 C152 1.252 . S
O145 Gd106 2.386 1_565 S
O145 C163 1.265 . S
O146 Gd107 2.353 . S
O146 C163 1.242 1_455 S
O147 Gd107 2.468 . S
O147 C171 1.263 . S
O148 Gd107 2.427 . S
O148 C171 1.252 . S
O149 Gd106 2.307 1_455 S
O149 C164 1.261 . S
O150 Gd107 2.388 . S
O150 C164 1.252 1_565 S
C151 O139 1.265 . S
C151 O140 1.242 . S
C152 O143 1.261 . S
C152 O144 1.252 . S
C153 C156 1.394 . S
C153 C158 1.370 . S
C153 C159 1.500 . S
C154 C157 1.383 . S
C154 C158 1.395 . S
C155 C156 1.396 . S
C155 C157 1.365 . S
C155 H172 0.929 . S
C156 C153 1.394 . S
C156 C155 1.396 . S
C156 H173 0.930 . S
C157 C154 1.383 . S
C157 C155 1.365 . S
C157 H174 0.931 . S
C158 C153 1.370 . S
C158 C154 1.395 . S
C158 H175 0.930 1_655 S
C159 Gd106 2.805 . S
C159 O141 1.263 . S
C159 O142 1.252 . S
C159 C153 1.500 . S
C160 H122 0.930 . S
C160 C136 1.417 . S
C160 C161 1.329 . S
C161 C131 1.437 . S
C161 H132 0.929 . S
C161 C160 1.329 . S
H162 C135 0.931 . S
C163 O145 1.265 . S
C163 O146 1.242 1_655 S
C164 O149 1.261 . S
C164 O150 1.252 1_545 S
C165 C168 1.394 . S
C165 C170 1.370 . S
C165 C171 1.500 1_554 S
C166 C169 1.383 . S
C166 C170 1.395 . S
C167 C168 1.396 . S
C167 C169 1.365 . S
C167 H176 0.929 . S
C168 C165 1.394 . S
C168 C167 1.396 . S
C168 H177 0.930 1_554 S
C169 C166 1.383 . S
C169 C167 1.365 . S
C169 H178 0.931 . S
C170 C165 1.370 . S
C170 C166 1.395 . S
C170 H179 0.930 . S
C171 Gd107 2.805 . S
C171 O147 1.263 . S
C171 O148 1.252 . S
C171 C165 1.500 1_556 S
H172 C155 0.929 . S
H173 C156 0.930 . S
H174 C157 0.931 . S
H175 C158 0.930 1_455 S
H176 C167 0.929 . S
H177 C168 0.930 1_556 S
H178 C169 0.931 . S
H179 C170 0.930 . S
C180 C182 1.422 . S
C180 C184 1.415 . S
C180 N186 1.369 . S
C181 C182 1.421 . S
C181 C183 1.417 . S
C181 C193 1.422 . S
C182 C180 1.422 . S
C182 C181 1.421 . S
C182 N192 1.359 . S
C183 C181 1.417 . S
C183 C185 1.329 . S
C183 H202 0.930 . S
C184 C180 1.415 . S
C184 C185 1.437 . S
C184 C188 1.413 . S
C185 C183 1.329 . S
C185 C184 1.437 . S
C185 H207 0.929 . S
N186 C180 1.369 . S
N186 C187 1.338 . S
N186 Gd191 2.622 . S
C187 N186 1.338 . S
C187 C189 1.378 . S
C187 H199 0.929 . S
C188 C184 1.413 . S
C188 C189 1.348 . S
C188 H204 0.931 . S
C189 C187 1.378 . S
C189 C188 1.348 . S
C189 H205 0.930 . S
Gd190 N210 2.622 . S
Gd190 N217 2.570 . S
Gd190 O224 2.353 1_545 S
Gd190 O225 2.468 . S
Gd190 O226 2.427 1_556 S
Gd190 O228 2.388 . S
Gd190 O229 2.386 . S
Gd190 O233 2.307 . S
Gd190 C243 2.805 1_556 S
Gd191 N186 2.622 . S
Gd191 N192 2.570 . S
Gd191 O223 2.386 . S
Gd191 O227 2.307 1_565 S
Gd191 O230 2.353 1_565 S
Gd191 O231 2.468 . S
Gd191 O232 2.427 . S
Gd191 O234 2.388 . S
Gd191 C255 2.805 . S
N192 C182 1.359 . S
N192 Gd191 2.570 . S
N192 C194 1.343 . S
C193 C181 1.422 . S
C193 C195 1.321 . S
C193 H201 0.931 . S
C194 N192 1.343 . S
C194 C195 1.390 . S
C194 H196 0.931 . S
C195 C193 1.321 . S
C195 C194 1.390 . S
C195 H197 0.930 . S
H196 C194 0.931 . S
H197 C195 0.930 . S
H198 C221 0.931 . S
H199 C187 0.929 . S
H200 C222 0.930 . S
H201 C193 0.931 . S
H202 C183 0.930 . S
H203 C212 0.929 . S
H204 C188 0.931 . S
H205 C189 0.930 . S
H206 C244 0.930 . S
H207 C185 0.929 . S
H208 C213 0.931 1_554 S
H209 C214 0.930 . S
N210 Gd190 2.622 . S
N210 C211 1.369 . S
N210 C212 1.338 1_556 S
C211 N210 1.369 . S
C211 C215 1.415 . S
C211 C218 1.422 . S
C212 H203 0.929 . S
C212 N210 1.338 1_554 S
C212 C214 1.378 . S
C213 H208 0.931 1_556 S
C213 C214 1.348 1_556 S
C213 C215 1.413 . S
C214 H209 0.930 . S
C214 C212 1.378 . S
C214 C213 1.348 1_554 S
C215 C211 1.415 . S
C215 C213 1.413 . S
C215 C245 1.437 . S
H216 C245 0.929 . S
N217 Gd190 2.570 . S
N217 C218 1.359 . S
N217 C221 1.343 . S
C218 C211 1.422 . S
C218 N217 1.359 . S
C218 C220 1.421 . S
C219 C220 1.422 . S
C219 C222 1.321 . S
C219 H246 0.931 . S
C220 C218 1.421 . S
C220 C219 1.422 . S
C220 C244 1.417 . S
C221 H198 0.931 . S
C221 N217 1.343 . S
C221 C222 1.390 . S
C222 H200 0.930 . S
C222 C219 1.321 . S
C222 C221 1.390 . S
O223 Gd191 2.386 . S
O223 C235 1.265 . S
O224 Gd190 2.353 1_565 S
O224 C235 1.242 . S
O225 Gd190 2.468 . S
O225 C243 1.263 1_556 S
O226 Gd190 2.427 1_554 S
O226 C243 1.252 . S
O227 Gd191 2.307 1_545 S
O227 C236 1.261 . S
O228 Gd190 2.388 . S
O228 C236 1.252 . S
O229 Gd190 2.386 . S
O229 C247 1.265 . S
O230 Gd191 2.353 1_545 S
O230 C247 1.242 . S
O231 Gd191 2.468 . S
O231 C255 1.263 . S
O232 Gd191 2.427 . S
O232 C255 1.252 . S
O233 Gd190 2.307 . S
O233 C248 1.271 . S
O234 Gd191 2.388 . S
O234 C248 1.245 1_565 S
C235 O223 1.265 . S
C235 O224 1.242 . S
C236 O227 1.261 . S
C236 O228 1.252 . S
C237 C240 1.394 . S
C237 C242 1.370 . S
C237 C243 1.500 . S
C238 C241 1.383 . S
C238 C242 1.395 . S
C239 C240 1.396 . S
C239 C241 1.365 . S
C239 H256 0.929 . S
C240 C237 1.394 . S
C240 C239 1.396 . S
C240 H257 0.930 . S
C241 C238 1.383 . S
C241 C239 1.365 . S
C241 H258 0.931 . S
C242 C237 1.370 . S
C242 C238 1.395 . S
C242 H259 0.930 . S
C243 Gd190 2.805 1_554 S
C243 O225 1.263 1_554 S
C243 O226 1.252 . S
C243 C237 1.500 . S
C244 H206 0.930 . S
C244 C220 1.417 . S
C244 C245 1.329 . S
C245 C215 1.437 . S
C245 H216 0.929 . S
C245 C244 1.329 . S
H246 C219 0.931 . S
C247 O229 1.265 . S
C247 O230 1.242 . S
C248 O233 1.271 . S
C248 O234 1.245 1_545 S
C249 C252 1.394 . S
C249 C254 1.370 . S
C249 C255 1.500 . S
C250 C253 1.383 . S
C250 C254 1.395 . S
C251 C252 1.396 . S
C251 C253 1.365 . S
C251 H260 0.929 . S
C252 C249 1.394 . S
C252 C251 1.396 . S
C252 H261 0.930 . S
C253 C250 1.383 . S
C253 C251 1.365 . S
C253 H262 0.931 . S
C254 C249 1.370 . S
C254 C250 1.395 . S
C254 H263 0.930 1_565 S
C255 Gd191 2.805 . S
C255 O231 1.263 . S
C255 O232 1.252 . S
C255 C249 1.500 . S
H256 C239 0.929 . S
H257 C240 0.930 . S
H258 C241 0.931 . S
H259 C242 0.930 . S
H260 C251 0.929 . S
H261 C252 0.930 . S
H262 C253 0.931 . S
H263 C254 0.930 1_545 S
C264 C266 1.422 . S
C264 C268 1.415 . S
C264 N270 1.369 1_554 S
C265 C266 1.421 . S
C265 C267 1.417 . S
C265 C277 1.422 . S
C266 C264 1.422 . S
C266 C265 1.421 . S
C266 N276 1.359 . S
C267 C265 1.417 . S
C267 C269 1.329 . S
C267 H286 0.930 . S
C268 C264 1.415 . S
C268 C269 1.437 . S
C268 C272 1.413 1_554 S
C269 C267 1.329 . S
C269 C268 1.437 . S
C269 H291 0.929 . S
N270 C264 1.369 1_556 S
N270 C271 1.338 . S
N270 Gd275 2.622 . S
C271 N270 1.338 . S
C271 C273 1.378 . S
C271 H283 0.929 . S
C272 C268 1.413 1_556 S
C272 C273 1.348 . S
C272 H288 0.931 . S
C273 C271 1.378 . S
C273 C272 1.348 . S
C273 H289 0.930 . S
Gd274 N294 2.622 . S
Gd274 N301 2.570 . S
Gd274 O308 2.353 . S
Gd274 O309 2.468 . S
Gd274 O310 2.427 . S
Gd274 O312 2.388 . S
Gd274 O313 2.386 . S
Gd274 O317 2.307 . S
Gd274 C327 2.805 . S
Gd275 N270 2.622 . S
Gd275 N276 2.570 1_556 S
Gd275 O307 2.386 . S
Gd275 O311 2.307 . S
Gd275 O314 2.353 . S
Gd275 O315 2.468 . S
Gd275 O316 2.427 . S
Gd275 O318 2.388 . S
Gd275 C339 2.805 . S
N276 C266 1.359 . S
N276 Gd275 2.570 1_554 S
N276 C278 1.343 . S
C277 C265 1.422 . S
C277 C279 1.321 . S
C277 H285 0.931 . S
C278 N276 1.343 . S
C278 C279 1.390 . S
C278 H280 0.931 . S
C279 C277 1.321 . S
C279 C278 1.390 . S
C279 H281 0.930 . S
H280 C278 0.931 . S
H281 C279 0.930 . S
H282 C305 0.931 . S
H283 C271 0.929 . S
H284 C306 0.930 . S
H285 C277 0.931 . S
H286 C267 0.930 . S
H287 C296 0.929 . S
H288 C272 0.931 . S
H289 C273 0.930 . S
H290 C328 0.930 . S
H291 C269 0.929 . S
H292 C297 0.931 . S
H293 C298 0.930 . S
N294 Gd274 2.622 . S
N294 C295 1.369 . S
N294 C296 1.338 . S
C295 N294 1.369 . S
C295 C299 1.415 . S
C295 C302 1.422 . S
C296 H287 0.929 . S
C296 N294 1.338 . S
C296 C298 1.378 . S
C297 H292 0.931 . S
C297 C298 1.348 . S
C297 C299 1.413 . S
C298 H293 0.930 . S
C298 C296 1.378 . S
C298 C297 1.348 . S
C299 C295 1.415 . S
C299 C297 1.413 . S
C299 C329 1.437 . S
H300 C329 0.929 . S
N301 Gd274 2.570 . S
N301 C302 1.359 . S
N301 C305 1.343 . S
C302 C295 1.422 . S
C302 N301 1.359 . S
C302 C304 1.421 . S
C303 C304 1.422 . S
C303 C306 1.321 . S
C303 H330 0.931 . S
C304 C302 1.421 . S
C304 C303 1.422 . S
C304 C328 1.417 . S
C305 H282 0.931 . S
C305 N301 1.343 . S
C305 C306 1.390 . S
C306 H284 0.930 . S
C306 C303 1.321 . S
C306 C305 1.390 . S
O307 Gd275 2.386 . S
O307 C319 1.265 . S
O308 Gd274 2.353 . S
O308 C319 1.242 . S
O309 Gd274 2.468 . S
O309 C327 1.263 . S
O310 Gd274 2.427 . S
O310 C327 1.252 . S
O311 Gd275 2.307 . S
O311 C320 1.261 . S
O312 Gd274 2.388 . S
O312 C320 1.252 . S
O313 Gd274 2.386 . S
O313 C331 1.265 . S
O314 Gd275 2.353 . S
O314 C331 1.242 . S
O315 Gd275 2.468 . S
O315 C339 1.263 . S
O316 Gd275 2.427 . S
O316 C339 1.252 . S
O317 Gd274 2.307 . S
O317 C332 1.261 . S
O318 Gd275 2.388 . S
O318 C332 1.252 . S
C319 O307 1.265 . S
C319 O308 1.242 . S
C320 O311 1.261 . S
C320 O312 1.252 . S
C321 C324 1.394 . S
C321 C326 1.370 . S
C321 C327 1.500 . S
C322 C325 1.383 . S
C322 C326 1.395 . S
C323 C324 1.396 . S
C323 C325 1.365 . S
C323 H340 0.929 . S
C324 C321 1.394 . S
C324 C323 1.396 . S
C324 H341 0.930 . S
C325 C322 1.383 . S
C325 C323 1.365 . S
C325 H342 0.931 . S
C326 C321 1.370 . S
C326 C322 1.395 . S
C326 H343 0.930 . S
C327 Gd274 2.805 . S
C327 O309 1.263 . S
C327 O310 1.252 . S
C327 C321 1.500 . S
C328 H290 0.930 . S
C328 C304 1.417 . S
C328 C329 1.329 . S
C329 C299 1.437 . S
C329 H300 0.929 . S
C329 C328 1.329 . S
H330 C303 0.931 . S
C331 O313 1.265 . S
C331 O314 1.242 . S
C332 O317 1.261 . S
C332 O318 1.252 . S
C333 C336 1.394 . S
C333 C338 1.370 . S
C333 C339 1.500 1_554 S
C334 C337 1.383 . S
C334 C338 1.395 . S
C335 C336 1.396 . S
C335 C337 1.365 . S
C335 H344 0.929 . S
C336 C333 1.394 . S
C336 C335 1.396 . S
C336 H345 0.930 1_554 S
C337 C334 1.383 . S
C337 C335 1.365 . S
C337 H346 0.931 . S
C338 C333 1.370 . S
C338 C334 1.395 . S
C338 H347 0.930 . S
C339 Gd275 2.805 . S
C339 O315 1.263 . S
C339 O316 1.252 . S
C339 C333 1.500 1_556 S
H340 C323 0.929 . S
H341 C324 0.930 . S
H342 C325 0.931 . S
H343 C326 0.930 . S
H344 C335 0.929 . S
H345 C336 0.930 1_556 S
H346 C337 0.931 . S
H347 C338 0.930 . S
C348 C350 1.422 . S
C348 C352 1.415 . S
C348 N354 1.369 1_554 S
C349 C350 1.421 . S
C349 C351 1.417 . S
C349 C361 1.422 . S
C350 C348 1.422 . S
C350 C349 1.421 . S
C350 N360 1.359 . S
C351 C349 1.417 . S
C351 C353 1.329 . S
C351 H370 0.930 . S
C352 C348 1.415 . S
C352 C353 1.437 . S
C352 C356 1.413 1_554 S
C353 C351 1.329 . S
C353 C352 1.437 . S
C353 H375 0.929 . S
N354 C348 1.369 1_556 S
N354 C355 1.341 . S
N354 Gd359 2.622 1_455 S
C355 N354 1.341 . S
C355 C357 1.389 . S
C355 H367 0.915 1_455 S
C356 C352 1.413 1_556 S
C356 C357 1.348 . S
C356 H372 0.931 . S
C357 C355 1.389 . S
C357 C356 1.348 . S
C357 H373 0.930 . S
Gd358 N378 2.622 . S
Gd358 N385 2.570 . S
Gd358 O392 2.353 . S
Gd358 O393 2.468 . S
Gd358 O394 2.427 . S
Gd358 O396 2.388 . S
Gd358 O397 2.386 1_455 S
Gd358 O401 2.307 . S
Gd358 C411 2.805 . S
Gd359 N354 2.622 1_655 S
Gd359 N360 2.570 1_656 S
Gd359 O391 2.386 1_655 S
Gd359 O395 2.307 1_655 S
Gd359 O398 2.353 . S
Gd359 O399 2.468 . S
Gd359 O400 2.427 . S
Gd359 O402 2.388 . S
Gd359 C423 2.805 . S
N360 C350 1.359 . S
N360 Gd359 2.570 1_454 S
N360 C362 1.343 . S
C361 C349 1.422 . S
C361 C363 1.321 . S
C361 H369 0.931 . S
C362 N360 1.343 . S
C362 C363 1.390 . S
C362 H364 0.931 . S
C363 C361 1.321 . S
C363 C362 1.390 . S
C363 H365 0.930 . S
H364 C362 0.931 . S
H365 C363 0.930 . S
H366 C389 0.931 . S
H367 C355 0.915 1_655 S
H368 C390 0.930 . S
H369 C361 0.931 . S
H370 C351 0.930 . S
H371 C380 0.929 . S
H372 C356 0.931 . S
H373 C357 0.930 . S
H374 C412 0.930 . S
H375 C353 0.929 . S
H376 C381 0.931 . S
H377 C382 0.930 . S
N378 Gd358 2.622 . S
N378 C379 1.369 1_455 S
N378 C380 1.338 . S
C379 N378 1.369 1_655 S
C379 C383 1.415 . S
C379 C386 1.422 . S
C380 H371 0.929 . S
C380 N378 1.338 . S
C380 C382 1.378 . S
C381 H376 0.931 . S
C381 C382 1.348 1_655 S
C381 C383 1.413 . S
C382 H377 0.930 . S
C382 C380 1.378 . S
C382 C381 1.348 1_455 S
C383 C379 1.415 . S
C383 C381 1.413 . S
C383 C413 1.437 . S
H384 C413 0.929 . S
N385 Gd358 2.570 . S
N385 C386 1.359 1_455 S
N385 C389 1.343 . S
C386 C379 1.422 . S
C386 N385 1.359 1_655 S
C386 C388 1.421 . S
C387 C388 1.422 . S
C387 C390 1.321 . S
C387 H414 0.931 . S
C388 C386 1.421 . S
C388 C387 1.422 . S
C388 C412 1.417 . S
C389 H366 0.931 . S
C389 N385 1.343 . S
C389 C390 1.390 1_455 S
C390 H368 0.930 . S
C390 C387 1.321 . S
C390 C389 1.390 1_655 S
O391 Gd359 2.386 1_455 S
O391 C403 1.265 . S
O392 Gd358 2.353 . S
O392 C403 1.242 . S
O393 Gd358 2.468 . S
O393 C411 1.263 . S
O394 Gd358 2.427 . S
O394 C411 1.252 . S
O395 Gd359 2.307 1_455 S
O395 C404 1.261 . S
O396 Gd358 2.388 . S
O396 C404 1.252 . S
O397 Gd358 2.386 1_655 S
O397 C415 1.265 . S
O398 Gd359 2.353 . S
O398 C415 1.242 . S
O399 Gd359 2.468 . S
O399 C423 1.263 . S
O400 Gd359 2.427 . S
O400 C423 1.252 . S
O401 Gd358 2.307 . S
O401 C416 1.261 . S
O402 Gd359 2.388 . S
O402 C416 1.252 1_655 S
C403 O391 1.265 . S
C403 O392 1.242 . S
C404 O395 1.261 . S
C404 O396 1.252 . S
C405 C408 1.394 . S
C405 C410 1.370 . S
C405 C411 1.500 . S
C406 C409 1.383 . S
C406 C410 1.395 . S
C407 C408 1.396 . S
C407 C409 1.365 . S
C407 H424 0.929 . S
C408 C405 1.394 . S
C408 C407 1.396 . S
C408 H425 0.930 . S
C409 C406 1.383 . S
C409 C407 1.365 . S
C409 H426 0.931 . S
C410 C405 1.370 . S
C410 C406 1.395 . S
C410 H427 0.930 . S
C411 Gd358 2.805 . S
C411 O393 1.263 . S
C411 O394 1.252 . S
C411 C405 1.500 . S
C412 H374 0.930 . S
C412 C388 1.417 . S
C412 C413 1.329 . S
C413 C383 1.437 . S
C413 H384 0.929 . S
C413 C412 1.329 . S
H414 C387 0.931 . S
C415 O397 1.265 . S
C415 O398 1.242 . S
C416 O401 1.261 . S
C416 O402 1.252 1_455 S
C417 C420 1.394 . S
C417 C422 1.370 . S
C417 C423 1.500 1_554 S
C418 C421 1.383 . S
C418 C422 1.395 . S
C419 C420 1.396 . S
C419 C421 1.365 . S
C419 H428 0.929 . S
C420 C417 1.394 . S
C420 C419 1.396 . S
C420 H429 0.930 1_554 S
C421 C418 1.383 . S
C421 C419 1.365 . S
C421 H430 0.931 . S
C422 C417 1.370 . S
C422 C418 1.395 . S
C422 H431 0.930 . S
C423 Gd359 2.805 . S
C423 O399 1.263 . S
C423 O400 1.252 . S
C423 C417 1.500 1_556 S
H424 C407 0.929 . S
H425 C408 0.930 . S
H426 C409 0.931 . S
H427 C410 0.930 . S
H428 C419 0.929 . S
H429 C420 0.930 1_556 S
H430 C421 0.931 . S
H431 C422 0.930 . S
C432 C433 1.387 . S
C432 H436 0.950 . S
C432 C441 1.390 . S
C433 C432 1.387 . S
C433 C435 1.413 . S
H434 C441 0.950 . S
C435 C433 1.413 . S
C435 C437 1.387 1_545 S
C435 H439 0.927 1_545 S
H436 C432 0.950 . S
C437 C435 1.387 1_565 S
C437 C438 1.387 1_565 S
C437 H440 0.950 . S
C438 C437 1.387 1_545 S
C438 C441 1.387 . S
H439 C435 0.927 1_565 S
H440 C437 0.950 . S
C441 C432 1.390 . S
C441 H434 0.950 . S
C441 C438 1.387 . S
C442 C443 1.387 . S
C442 H446 0.950 . S
C442 C451 1.390 . S
C443 C442 1.387 . S
C443 C445 1.387 . S
H444 C451 0.950 . S
C445 C443 1.387 . S
C445 C447 1.390 . S
C445 H449 0.950 . S
H446 C442 0.950 . S
C447 C445 1.390 . S
C447 C448 1.387 . S
C447 H450 0.950 . S
C448 C447 1.387 . S
C448 C451 1.387 . S
H449 C445 0.950 . S
H450 C447 0.950 . S
C451 C442 1.390 . S
C451 H444 0.950 . S
C451 C448 1.387 . S
C452 C453 1.387 . S
C452 H456 0.950 . S
C452 C461 1.390 . S
C453 C452 1.387 . S
C453 C455 1.387 . S
H454 C461 0.950 . S
C455 C453 1.387 . S
C455 C457 1.390 . S
C455 H459 0.950 . S
H456 C452 0.950 . S
C457 C455 1.390 . S
C457 C458 1.387 . S
C457 H460 0.950 . S
C458 C457 1.387 . S
C458 C461 1.387 . S
H459 C455 0.950 . S
H460 C457 0.950 . S
C461 C452 1.390 . S
C461 H454 0.950 . S
C461 C458 1.387 . S
C462 C463 1.387 . S
C462 H466 0.950 1_455 S
C462 C471 1.390 1_455 S
C463 C462 1.387 . S
C463 C465 1.387 . S
H464 C471 0.950 . S
C465 C463 1.387 . S
C465 C467 1.390 . S
C465 H469 0.950 . S
H466 C462 0.950 1_655 S
C467 C465 1.390 . S
C467 C468 1.387 . S
C467 H470 0.950 . S
C468 C467 1.387 . S
C468 C471 1.387 1_455 S
H469 C465 0.950 . S
H470 C467 0.950 . S
C471 C462 1.390 1_655 S
C471 H464 0.950 . S
C471 C468 1.387 1_655 S
C472 C473 1.387 1_545 S
C472 H476 0.950 . S
C472 C481 1.390 . S
C473 C472 1.387 1_565 S
C473 C475 1.387 . S
H474 C481 0.950 . S
C475 C473 1.387 . S
C475 C477 1.390 . S
C475 H479 0.950 . S
H476 C472 0.950 . S
C477 C475 1.390 . S
C477 C478 1.402 . S
C477 H480 0.950 . S
C478 C477 1.402 . S
C478 C481 1.374 1_565 S
H479 C475 0.950 . S
H480 C477 0.950 . S
C481 C472 1.390 . S
C481 H474 0.950 . S
C481 C478 1.374 1_545 S
C482 C483 1.387 . S
C482 H486 0.950 . S
C482 C491 1.390 . S
C483 C482 1.387 . S
C483 C485 1.387 . S
H484 C491 0.950 . S
C485 C483 1.387 . S
C485 C487 1.390 . S
C485 H489 0.950 . S
H486 C482 0.950 . S
C487 C485 1.390 . S
C487 C488 1.387 . S
C487 H490 0.950 . S
C488 C487 1.387 . S
C488 C491 1.387 . S
H489 C485 0.950 . S
H490 C487 0.950 . S
C491 C482 1.390 . S
C491 H484 0.950 . S
C491 C488 1.387 . S
C492 C493 1.387 . S
C492 H496 0.950 . S
C492 C501 1.390 . S
C493 C492 1.387 . S
C493 C495 1.387 . S
H494 C501 0.950 . S
C495 C493 1.387 . S
C495 C497 1.390 . S
C495 H499 0.950 . S
H496 C492 0.950 . S
C497 C495 1.390 . S
C497 C498 1.387 . S
C497 H500 0.950 1_554 S
C498 C497 1.387 . S
C498 C501 1.387 . S
H499 C495 0.950 . S
H500 C497 0.950 1_556 S
C501 C492 1.390 . S
C501 H494 0.950 . S
C501 C498 1.387 . S
C502 C503 1.387 . S
C502 H506 0.950 . S
C502 C511 1.390 . S
C503 C502 1.387 . S
C503 C505 1.387 1_655 S
H504 C511 0.950 1_556 S
C505 C503 1.387 1_455 S
C505 C507 1.390 . S
C505 H509 0.950 . S
H506 C502 0.950 . S
C507 C505 1.390 . S
C507 C508 1.387 1_455 S
C507 H510 0.950 . S
C508 C507 1.387 1_655 S
C508 C511 1.387 . S
H509 C505 0.950 . S
H510 C507 0.950 . S
C511 C502 1.390 . S
C511 H504 0.950 1_554 S
C511 C508 1.387 . S
C512 C513 1.387 . S
C512 H516 0.950 . S
C512 C521 1.390 . S
C513 C512 1.387 . S
C513 C515 1.387 . S
H514 C521 0.950 . S
C515 C513 1.387 . S
C515 C517 1.390 1_455 S
C515 H519 0.950 . S
H516 C512 0.950 . S
C517 C515 1.390 1_655 S
C517 C518 1.387 . S
C517 H520 0.950 . S
C518 C517 1.387 . S
C518 C521 1.387 1_655 S
H519 C515 0.950 . S
H520 C517 0.950 . S
C521 C512 1.390 . S
C521 H514 0.950 . S
C521 C518 1.387 1_455 S
C522 C523 1.387 . S
C522 H526 0.950 . S
C522 C531 1.390 . S
C523 C522 1.387 . S
C523 C525 1.387 . S
H524 C531 0.950 . S
C525 C523 1.387 . S
C525 C527 1.390 1_545 S
C525 H529 0.950 . S
H526 C522 0.950 . S
C527 C525 1.390 1_565 S
C527 C528 1.387 1_565 S
C527 H530 0.950 . S
C528 C527 1.387 1_545 S
C528 C531 1.387 . S
H529 C525 0.950 . S
H530 C527 0.950 . S
C531 C522 1.390 . S
C531 H524 0.950 . S
C531 C528 1.387 . S
C532 C533 1.387 . S
C532 H536 0.950 . S
C532 C541 1.390 . S
C533 C532 1.387 . S
C533 C535 1.387 . S
H534 C541 0.950 . S
C535 C533 1.387 . S
C535 C537 1.390 . S
C535 H539 0.950 . S
H536 C532 0.950 . S
C537 C535 1.390 . S
C537 C538 1.387 . S
C537 H540 0.950 . S
C538 C537 1.387 . S
C538 C541 1.387 . S
H539 C535 0.950 . S
H540 C537 0.950 . S
C541 C532 1.390 . S
C541 H534 0.950 . S
C541 C538 1.387 . S
C542 C543 1.387 . S
C542 H546 0.950 . S
C542 C551 1.390 . S
C543 C542 1.387 . S
C543 C545 1.387 . S
H544 C551 0.950 . S
C545 C543 1.387 . S
C545 C547 1.390 . S
C545 H549 0.950 . S
H546 C542 0.950 . S
C547 C545 1.390 . S
C547 C548 1.387 . S
C547 H550 0.950 . S
C548 C547 1.387 . S
C548 C551 1.387 . S
H549 C545 0.950 . S
H550 C547 0.950 . S
C551 C542 1.390 . S
C551 H544 0.950 . S
C551 C548 1.387 . S
C552 C553 1.387 . S
C552 H556 0.950 . S
C552 C561 1.390 1_655 S
C553 C552 1.387 . S
C553 C555 1.387 . S
H554 C561 0.950 . S
C555 C553 1.387 . S
C555 C557 1.390 1_655 S
C555 H559 0.950 . S
H556 C552 0.950 . S
C557 C555 1.390 1_455 S
C557 C558 1.387 . S
C557 H560 0.950 . S
C558 C557 1.387 . S
C558 C561 1.387 . S
H559 C555 0.950 . S
H560 C557 0.950 . S
C561 C552 1.390 1_455 S
C561 H554 0.950 . S
C561 C558 1.387 . S
C562 C563 1.387 . S
C562 H566 0.950 . S
C562 C571 1.390 . S
C563 C562 1.387 . S
C563 C565 1.387 1_565 S
H564 C571 0.950 . S
C565 C563 1.387 1_545 S
C565 C567 1.390 . S
C565 H569 0.950 . S
H566 C562 0.950 . S
C567 C565 1.390 . S
C567 C568 1.387 . S
C567 H570 0.950 . S
C568 C567 1.387 . S
C568 C571 1.387 1_545 S
H569 C565 0.950 . S
H570 C567 0.950 . S
C571 C562 1.390 . S
C571 H564 0.950 . S
C571 C568 1.387 1_565 S
C572 C573 1.387 . S
C572 H576 0.950 . S
C572 C581 1.390 . S
C573 C572 1.387 . S
C573 C575 1.387 . S
H574 C581 0.950 . S
C575 C573 1.387 . S
C575 C577 1.390 . S
C575 H579 0.950 . S
H576 C572 0.950 . S
C577 C575 1.390 . S
C577 C578 1.387 . S
C577 H580 0.950 . S
C578 C577 1.387 . S
C578 C581 1.387 . S
H579 C575 0.950 . S
H580 C577 0.950 . S
C581 C572 1.390 . S
C581 H574 0.950 . S
C581 C578 1.387 . S
C582 C583 1.387 . S
C582 H586 0.950 . S
C582 C591 1.390 . S
C583 C582 1.387 . S
C583 C585 1.387 . S
H584 C591 0.950 . S
C585 C583 1.387 . S
C585 C587 1.390 . S
C585 H589 0.950 . S
H586 C582 0.950 . S
C587 C585 1.390 . S
C587 C588 1.387 . S
C587 H590 0.950 . S
C588 C587 1.387 . S
C588 C591 1.387 . S
H589 C585 0.950 . S
H590 C587 0.950 . S
C591 C582 1.390 . S
C591 H584 0.950 . S
C591 C588 1.387 . S
C592 C593 1.387 . S
C592 H596 0.950 1_556 S
C592 C601 1.390 . S
C593 C592 1.387 . S
C593 C595 1.387 . S
H594 C601 0.950 1_554 S
C595 C593 1.387 . S
C595 C597 1.390 . S
C595 H599 0.950 . S
H596 C592 0.950 1_554 S
C597 C595 1.390 . S
C597 C598 1.387 . S
C597 H600 0.950 . S
C598 C597 1.387 . S
C598 C601 1.387 . S
H599 C595 0.950 . S
H600 C597 0.950 . S
C601 C592 1.390 . S
C601 H594 0.950 1_556 S
C601 C598 1.387 . S
C602 C603 1.387 . S
C602 H606 0.950 . S
C602 C611 1.390 . S
C603 C602 1.387 . S
C603 C605 1.387 . S
H604 C611 0.950 . S
C605 C603 1.387 . S
C605 C607 1.390 . S
C605 H609 0.950 1_556 S
H606 C602 0.950 . S
C607 C605 1.390 . S
C607 C608 1.387 . S
C607 H610 0.950 1_556 S
C608 C607 1.387 . S
C608 C611 1.387 . S
H609 C605 0.950 1_554 S
H610 C607 0.950 1_554 S
C611 C602 1.390 . S
C611 H604 0.950 . S
C611 C608 1.387 . S
C612 C613 1.387 . S
C612 H616 0.950 1_556 S
C612 C621 1.390 . S
C613 C612 1.387 . S
C613 C615 1.387 . S
H614 C621 0.950 1_554 S
C615 C613 1.387 . S
C615 C617 1.390 . S
C615 H619 0.950 . S
H616 C612 0.950 1_554 S
C617 C615 1.390 . S
C617 C618 1.387 . S
C617 H620 0.950 . S
C618 C617 1.387 . S
C618 C621 1.387 . S
H619 C615 0.950 . S
H620 C617 0.950 . S
C621 C612 1.390 . S
C621 H614 0.950 1_556 S
C621 C618 1.387 . S
C622 C623 1.387 . S
C622 H626 0.950 . S
C622 C631 1.390 . S
C623 C622 1.387 . S
C623 C625 1.387 . S
H624 C631 0.950 . S
C625 C623 1.387 . S
C625 C627 1.390 . S
C625 H629 0.950 1_556 S
H626 C622 0.950 . S
C627 C625 1.390 . S
C627 C628 1.387 . S
C627 H630 0.950 1_556 S
C628 C627 1.387 . S
C628 C631 1.387 . S
H629 C625 0.950 1_554 S
H630 C627 0.950 1_554 S
C631 C622 1.390 . S
C631 H624 0.950 . S
C631 C628 1.387 . S
C632 C633 1.387 . S
C632 H636 0.950 . S
C632 C641 1.390 . S
C633 C632 1.387 . S
C633 C635 1.387 . S
H634 C641 0.950 . S
C635 C633 1.387 . S
C635 C637 1.390 . S
C635 H639 0.950 . S
H636 C632 0.950 . S
C637 C635 1.390 . S
C637 C638 1.387 . S
C637 H640 0.950 . S
C638 C637 1.387 . S
C638 C641 1.387 . S
H639 C635 0.950 . S
H640 C637 0.950 . S
C641 C632 1.390 . S
C641 H634 0.950 . S
C641 C638 1.387 . S
C642 C643 1.387 1_545 S
C642 H646 0.950 . S
C642 C651 1.390 . S
C643 C642 1.387 1_565 S
C643 C645 1.387 . S
H644 C651 0.950 . S
C645 C643 1.387 . S
C645 C647 1.390 . S
C645 H649 0.950 . S
H646 C642 0.950 . S
C647 C645 1.390 . S
C647 C648 1.387 . S
C647 H650 0.950 . S
C648 C647 1.387 . S
C648 C651 1.387 1_565 S
H649 C645 0.950 . S
H650 C647 0.950 . S
C651 C642 1.390 . S
C651 H644 0.950 . S
C651 C648 1.387 1_545 S
C652 C653 1.387 . S
C652 H656 0.950 . S
C652 C661 1.390 . S
C653 C652 1.387 . S
C653 C655 1.387 . S
H654 C661 0.950 . S
C655 C653 1.387 . S
C655 C657 1.390 . S
C655 H659 0.950 . S
H656 C652 0.950 . S
C657 C655 1.390 . S
C657 C658 1.387 . S
C657 H660 0.950 . S
C658 C657 1.387 . S
C658 C661 1.387 . S
H659 C655 0.950 . S
H660 C657 0.950 . S
C661 C652 1.390 . S
C661 H654 0.950 . S
C661 C658 1.387 . S
C662 C663 1.387 . S
C662 H666 0.950 . S
C662 C671 1.390 . S
C663 C662 1.387 . S
C663 C665 1.387 . S
H664 C671 0.950 . S
C665 C663 1.387 . S
C665 C667 1.390 . S
C665 H669 0.950 . S
H666 C662 0.950 . S
C667 C665 1.390 . S
C667 C668 1.387 . S
C667 H670 0.950 . S
C668 C667 1.387 . S
C668 C671 1.387 . S
H669 C665 0.950 . S
H670 C667 0.950 . S
C671 C662 1.390 . S
C671 H664 0.950 . S
C671 C668 1.387 . S
C433 C76 1.953 . S
C438 C164 2.193 . S
C448 C247 2.198 . S
C443 C88 1.954 . S
C458 C332 2.193 . S
C453 C52 1.951 . S
C468 C416 2.180 . S
C463 C64 1.945 . S
C478 C152 2.189 1_564 S
C473 C28 1.960 . S
C483 C40 1.964 . S
C488 C235 2.200 1_554 S
C493 C4 1.958 . S
C498 C320 2.194 1_554 S
C503 C16 1.951 . S
C508 C404 2.180 1_654 S
C518 C154 0.760 . S
C513 C69 0.762 . S
C528 C250 0.751 1_545 S
C523 C81 0.749 . S
C538 C322 0.772 . S
C533 C93 0.767 . S
C543 C57 0.750 . S
C548 C406 0.746 . S
C553 C21 0.758 . S
C558 C166 0.764 . S
C568 C238 0.745 . S
C563 C33 0.749 . S
C578 C334 0.771 . S
C573 C45 0.770 . S
C583 C9 0.749 . S
C588 C418 0.746 . S
C593 C66 2.044 . S
C598 C151 2.304 . S
C603 C78 2.051 . S
C608 C236 2.351 . S
C618 C319 2.321 . S
C613 C90 2.059 . S
C628 C403 2.324 . S
C623 C54 2.064 . S
C633 C18 2.041 . S
C638 C163 2.304 . S
C648 C248 2.349 1_565 S
C643 C30 2.046 . S
C658 C331 2.320 . S
C653 C42 2.053 . S
C663 C6 2.061 . S
C668 C415 2.325 . S
