# Generated by pormake.
# Topology zzz, (3,6)-cn, num edge types: 1
# Building blocks:
#     Node 0, Type 0, BuildingBlock: BELTOD_clean_linker_0, # of connection points: 3
#     Node 1, Type 0, BuildingBlock: BELTOD_clean_linker_0, # of connection points: 3
#     Node 2, Type 0, BuildingBlock: BELTOD_clean_linker_0, # of connection points: 3
#     Node 3, Type 0, BuildingBlock: BELTOD_clean_linker_0, # of connection points: 3
#     Node 4, Type 0, BuildingBlock: BELTOD_clean_linker_0, # of connection points: 3
#     Node 5, Type 0, BuildingBlock: BELTOD_clean_linker_0, # of connection points: 3
#     Node 6, Type 0, BuildingBlock: BELTOD_clean_linker_0, # of connection points: 3
#     Node 7, Type 0, BuildingBlock: BELTOD_clean_linker_0, # of connection points: 3
#     Node 8, Type 1, BuildingBlock: KUMJIN_clean_sbu_1, # of connection points: 6
#     Node 9, Type 1, BuildingBlock: KUMJIN_clean_sbu_1, # of connection points: 6
#     Node 10, Type 1, BuildingBlock: KUMJIN_clean_sbu_1, # of connection points: 6
#     Node 11, Type 1, BuildingBlock: KUMJIN_clean_sbu_1, # of connection points: 6
#     Edge 12, Type (0, 1), BuildingBlock: ZUJKAS_clean_linker_0, # of connection points: 2
#     Edge 13, Type (0, 1), BuildingBlock: ZUJKAS_clean_linker_0, # of connection points: 2
#     Edge 14, Type (0, 1), BuildingBlock: ZUJKAS_clean_linker_0, # of connection points: 2
#     Edge 15, Type (0, 1), BuildingBlock: ZUJKAS_clean_linker_0, # of connection points: 2
#     Edge 16, Type (0, 1), BuildingBlock: ZUJKAS_clean_linker_0, # of connection points: 2
#     Edge 17, Type (0, 1), BuildingBlock: ZUJKAS_clean_linker_0, # of connection points: 2
#     Edge 18, Type (0, 1), BuildingBlock: ZUJKAS_clean_linker_0, # of connection points: 2
#     Edge 19, Type (0, 1), BuildingBlock: ZUJKAS_clean_linker_0, # of connection points: 2
#     Edge 20, Type (0, 1), BuildingBlock: ZUJKAS_clean_linker_0, # of connection points: 2
#     Edge 21, Type (0, 1), BuildingBlock: ZUJKAS_clean_linker_0, # of connection points: 2
#     Edge 22, Type (0, 1), BuildingBlock: ZUJKAS_clean_linker_0, # of connection points: 2
#     Edge 23, Type (0, 1), BuildingBlock: ZUJKAS_clean_linker_0, # of connection points: 2
#     Edge 24, Type (0, 1), BuildingBlock: ZUJKAS_clean_linker_0, # of connection points: 2
#     Edge 25, Type (0, 1), BuildingBlock: ZUJKAS_clean_linker_0, # of connection points: 2
#     Edge 26, Type (0, 1), BuildingBlock: ZUJKAS_clean_linker_0, # of connection points: 2
#     Edge 27, Type (0, 1), BuildingBlock: ZUJKAS_clean_linker_0, # of connection points: 2
#     Edge 28, Type (0, 1), BuildingBlock: ZUJKAS_clean_linker_0, # of connection points: 2
#     Edge 29, Type (0, 1), BuildingBlock: ZUJKAS_clean_linker_0, # of connection points: 2
#     Edge 30, Type (0, 1), BuildingBlock: ZUJKAS_clean_linker_0, # of connection points: 2
#     Edge 31, Type (0, 1), BuildingBlock: ZUJKAS_clean_linker_0, # of connection points: 2
#     Edge 32, Type (0, 1), BuildingBlock: ZUJKAS_clean_linker_0, # of connection points: 2
#     Edge 33, Type (0, 1), BuildingBlock: ZUJKAS_clean_linker_0, # of connection points: 2
#     Edge 34, Type (0, 1), BuildingBlock: ZUJKAS_clean_linker_0, # of connection points: 2
#     Edge 35, Type (0, 1), BuildingBlock: ZUJKAS_clean_linker_0, # of connection points: 2
# Relax obj value: 0.272
# Max RMSD: 0.194
# Mean RMSD: 0.169
data_MOF--net-zzz--node1-KUMJIN_clean_sbu_1--node2-BELTOD_clean_linker_0--edge1-ZUJKAS_clean_linker_0
_symmetry_space_group_name_H-M    P1
_symmetry_Int_Tables_number       1
_symmetry_cell_setting            triclinic
loop_
_symmetry_equiv_pos_as_xyz
'x, y, z'
_cell_length_a     67.171525
_cell_length_b     67.198792
_cell_length_c     24.767412
_cell_angle_alpha  90.013768
_cell_angle_beta   89.934884
_cell_angle_gamma 90.376405
loop_
_atom_site_label
_atom_site_type_symbol
_atom_site_fract_x
_atom_site_fract_y
_atom_site_fract_z
_atom_type_partial_charge
P0 P 0.73454 0.51316 0.21185 0.0
H1 H 0.74647 0.49099 0.30794 0.0
H2 H 0.77384 0.49623 0.3705 0.0
H3 H 0.78169 0.55601 0.30948 0.0
H4 H 0.75342 0.55089 0.24852 0.0
H5 H 0.69726 0.49083 0.22427 0.0
H6 H 0.66565 0.49513 0.17798 0.0
H7 H 0.6832 0.55478 0.13273 0.0
H8 H 0.71472 0.55053 0.18074 0.0
H9 H 0.77618 0.52527 0.19001 0.0
H10 H 0.72189 0.51709 0.09915 0.0
O11 O 0.73533 0.48836 0.20831 0.0
H12 H 0.79324 0.53588 0.10851 0.0
H13 H 0.73919 0.52743 0.01706 0.0
C14 C 0.7482 0.52033 0.27219 0.0
C15 C 0.75359 0.50549 0.30909 0.0
C16 C 0.76956 0.50842 0.34448 0.0
C17 C 0.78071 0.52624 0.34358 0.0
C18 C 0.77371 0.54198 0.31113 0.0
C19 C 0.7574 0.53911 0.27626 0.0
C20 C 0.70864 0.52019 0.20503 0.0
C21 C 0.69405 0.50517 0.20644 0.0
C22 C 0.67601 0.50754 0.17908 0.0
C23 C 0.67216 0.525 0.14961 0.0
C24 C 0.68568 0.54104 0.15444 0.0
C25 C 0.70372 0.53869 0.18241 0.0
C26 C 0.7473 0.52166 0.1519 0.0
C27 C 0.76762 0.52655 0.1533 0.0
C28 C 0.77745 0.53257 0.10643 0.0
C29 C 0.76734 0.5331 0.05686 0.0
C30 C 0.74717 0.52763 0.05505 0.0
C31 C 0.73729 0.52181 0.10212 0.0
P32 P 0.01439 0.74103 0.2009 0.0
H33 H 0.01631 0.74196 0.31897 0.0
H34 H 0.00698 0.76807 0.38252 0.0
H35 H 0.97356 0.79718 0.25652 0.0
H36 H 0.98223 0.77061 0.19421 0.0
H37 H 0.03704 0.70721 0.16503 0.0
H38 H 0.02852 0.67776 0.11393 0.0
H39 H 0.96603 0.69153 0.13043 0.0
H40 H 0.97496 0.72174 0.18147 0.0
H41 H 0.03714 0.77717 0.1807 0.0
H42 H 0.99474 0.74072 0.09418 0.0
O43 O 0.03741 0.73876 0.22545 0.0
H44 H 0.03842 0.80033 0.10471 0.0
H45 H 0.99638 0.76338 0.01783 0.0
C46 C 1.00031 0.75444 0.25143 0.0
C47 C 0.00631 0.75352 0.30559 0.0
C48 C 1.00122 0.76872 0.34174 0.0
C49 C 0.99006 0.78522 0.32441 0.0
C50 C 0.98225 0.78487 0.27161 0.0
C51 C 0.98722 0.76956 0.23565 0.0
C52 C 0.00665 0.71655 0.17829 0.0
C53 C 0.02143 0.70363 0.15952 0.0
C54 C 0.01649 0.68664 0.12995 0.0
C55 C 0.99653 0.68204 0.11784 0.0
C56 C 0.98158 0.69461 0.13858 0.0
C57 C 0.98661 0.71174 0.16853 0.0
C58 C 0.01625 0.75696 0.14272 0.0
C59 C 0.02839 0.77396 0.145 0.0
C60 C 0.0291 0.78717 0.10154 0.0
C61 C 0.01758 0.78362 0.05507 0.0
C62 C 0.00531 0.76662 0.05318 0.0
C63 C 1.00456 0.75348 0.09675 0.0
P64 P 0.77939 0.01195 0.19354 0.0
H65 H 0.77006 0.0375 0.28577 0.0
H66 H 0.74561 0.03374 0.35749 0.0
H67 H 0.73832 0.97166 0.31603 0.0
H68 H 0.76365 0.97541 0.24547 0.0
H69 H 0.81802 0.03208 0.18618 0.0
H70 H 0.84827 0.02306 0.13867 0.0
H71 H 0.8261 0.96291 0.12069 0.0
H72 H 0.79542 0.97232 0.16763 0.0
H73 H 0.73668 1.00175 0.19203 0.0
H74 H 0.7854 1.00365 0.0781 0.0
O75 O 0.77979 0.0366 0.1853 0.0
H76 H 0.71483 0.9889 0.12225 0.0
H77 H 0.76296 0.99152 0.00698 0.0
C78 C 0.76846 0.00684 0.25927 0.0
C79 C 0.76377 0.02287 0.29313 0.0
C80 C 0.74945 0.02077 0.33384 0.0
C81 C 0.73927 1.00259 0.34142 0.0
C82 C 0.74565 0.98595 0.31137 0.0
C83 C 0.76029 0.98803 0.27105 0.0
C84 C 0.80428 1.00296 0.18 0.0
C85 C 0.81985 0.01677 0.17368 0.0
C86 C 0.83728 0.01154 0.14629 0.0
C87 C 0.83959 0.99231 0.12463 0.0
C88 C 0.8247 0.97797 0.13566 0.0
C89 C 0.80724 0.98324 0.16332 0.0
C90 C 0.7631 1.00252 0.14146 0.0
C91 C 0.74295 0.99883 0.15264 0.0
C92 C 0.73035 0.99157 0.11254 0.0
C93 C 0.73745 0.98862 0.05987 0.0
C94 C 0.75735 0.99319 0.04774 0.0
C95 C 0.77012 1.00007 0.08839 0.0
P96 P 0.50706 0.78361 0.20428 0.0
H97 H 0.49859 0.78183 0.31991 0.0
H98 H 0.50444 0.75538 0.38562 0.0
H99 H 0.54491 0.72722 0.27407 0.0
H100 H 0.53937 0.75389 0.20933 0.0
H101 H 0.48213 0.81747 0.17881 0.0
H102 H 0.48919 0.84862 0.13339 0.0
H103 H 0.55222 0.83817 0.14969 0.0
H104 H 0.54496 0.80686 0.19776 0.0
H105 H 0.48518 0.75163 0.15057 0.0
H106 H 0.53905 0.78537 0.12212 0.0
O107 O 0.48259 0.78246 0.21615 0.0
H108 H 0.49038 0.73376 0.06616 0.0
H109 H 0.54375 0.76842 0.03671 0.0
C110 C 0.51831 0.76984 0.25921 0.0
C111 C 0.50935 0.77041 0.31038 0.0
C112 C 0.51246 0.75504 0.34769 0.0
C113 C 0.52471 0.73878 0.33471 0.0
C114 C 0.53531 0.73939 0.28561 0.0
C115 C 0.53215 0.75477 0.24831 0.0
C116 C 0.513 0.80961 0.1918 0.0
C117 C 0.49752 0.82212 0.17502 0.0
C118 C 0.50158 0.84005 0.14857 0.0
C119 C 0.52127 0.84582 0.13715 0.0
C120 C 0.53687 0.83403 0.15737 0.0
C121 C 0.53274 0.81621 0.18526 0.0
C122 C 0.51127 0.77042 0.14196 0.0
C123 C 0.49794 0.75548 0.12583 0.0
C124 C 0.50089 0.74533 0.07734 0.0
C125 C 0.51729 0.74994 0.04403 0.0
C126 C 0.53096 0.76451 0.06124 0.0
C127 C 0.52807 0.77449 0.10999 0.0
P128 P 0.27894 0.45645 0.03687 0.0
H129 H 0.2698 0.44862 0.92312 0.0
H130 H 0.24386 0.46137 0.86455 0.0
H131 H 0.2313 0.5076 0.9808 0.0
H132 H 0.25709 0.49426 0.04018 0.0
H133 H 0.32122 0.44623 0.03081 0.0
H134 H 0.34964 0.45585 0.08589 0.0
H135 H 0.31391 0.50076 0.16397 0.0
H136 H 0.28573 0.49158 0.10652 0.0
H137 H 0.23653 0.44659 0.03546 0.0
H138 H 0.28246 0.45333 0.15589 0.0
O139 O 0.28524 0.43451 0.01046 0.0
H140 H 0.2114 0.44508 0.10638 0.0
H141 H 0.2574 0.45306 0.22662 0.0
C142 C 0.26555 0.4705 0.98617 0.0
C143 C 0.26196 0.4619 0.93544 0.0
C144 C 0.24698 0.46925 0.90176 0.0
C145 C 0.23514 0.48541 0.918 0.0
C146 C 0.23979 0.4949 0.96724 0.0
C147 C 0.25483 0.48752 1.00094 0.0
C148 C 0.30117 0.46799 0.06483 0.0
C149 C 0.31959 0.45854 0.05864 0.0
C150 C 0.33584 0.46389 0.09096 0.0
C151 C 0.33405 0.4787 0.13092 0.0
C152 C 0.316 0.48928 0.13387 0.0
C153 C 0.29979 0.48409 0.10078 0.0
C154 C 0.26127 0.45134 0.09008 0.0
C155 C 0.24124 0.44781 0.07713 0.0
C156 C 0.22685 0.44698 0.11777 0.0
C157 C 0.23227 0.44962 0.17217 0.0
C158 C 0.25261 0.45113 0.18521 0.0
C159 C 0.267 0.4517 0.14449 0.0
P160 P 0.06711 0.28718 0.02317 0.0
H161 H 0.07083 0.27867 0.90753 0.0
H162 H 0.05787 0.25159 0.85221 0.0
H163 H 0.01977 0.23313 0.98402 0.0
H164 H 0.03225 0.2609 0.03826 0.0
H165 H 0.07557 0.32973 0.00964 0.0
H166 H 0.06551 0.35859 0.06236 0.0
H167 H 0.02262 0.32216 0.14784 0.0
H168 H 0.03244 0.29341 0.09361 0.0
H169 H 0.0734 0.24424 0.03917 0.0
H170 H 0.07752 0.29779 0.13486 0.0
O171 O 0.08826 0.29386 0.99248 0.0
H172 H 0.07613 0.2242 0.12053 0.0
H173 H 0.08097 0.27778 0.21639 0.0
C174 C 0.05273 0.27171 0.97741 0.0
C175 C 0.05925 0.26919 0.92407 0.0
C176 C 0.05199 0.25344 0.89261 0.0
C177 C 0.03817 0.23967 0.91398 0.0
C178 C 0.03038 0.24332 0.96593 0.0
C179 C 0.03749 0.25929 0.99714 0.0
C180 C 0.05481 0.30933 0.04766 0.0
C181 C 0.06354 0.32803 0.03844 0.0
C182 C 0.05795 0.34453 0.06929 0.0
C183 C 0.04359 0.34267 0.11045 0.0
C184 C 0.0337 0.32424 0.11653 0.0
C185 C 0.03923 0.30774 0.08528 0.0
C186 C 0.07389 0.27251 0.08128 0.0
C187 C 0.07501 0.25173 0.07761 0.0
C188 C 0.07692 0.24024 0.12426 0.0
C189 C 0.07824 0.2494 0.17523 0.0
C190 C 0.07934 0.27028 0.17792 0.0
C191 C 0.07731 0.28173 0.13125 0.0
P192 P 0.23588 0.05763 0.03408 0.0
H193 H 0.24192 0.05205 0.91781 0.0
H194 H 0.26978 0.03816 0.86785 0.0
H195 H 0.29261 0.01265 0.01522 0.0
H196 H 0.26473 0.02695 0.06526 0.0
H197 H 0.19788 0.07535 0.05939 0.0
H198 H 0.1707 0.066 0.11904 0.0
H199 H 0.19976 0.01026 0.15326 0.0
H200 H 0.22697 0.01962 0.09141 0.0
H201 H 0.26614 0.08828 0.02025 0.0
H202 H 0.24401 0.0513 0.14968 0.0
O203 O 0.2279 0.07533 0.99219 0.0
H204 H 0.29389 0.09903 0.07724 0.0
H205 H 0.27177 0.06164 0.20623 0.0
C206 C 0.2512 0.04068 0.99551 0.0
C207 C 0.25251 0.04291 0.93927 0.0
C208 C 0.26857 0.03494 0.91057 0.0
C209 C 0.28375 0.02458 0.93754 0.0
C210 C 0.28146 0.02091 0.99324 0.0
C211 C 0.26532 0.02885 0.02187 0.0
C212 C 0.21438 0.04809 0.07014 0.0
C213 C 0.19827 0.06088 0.07854 0.0
C214 C 0.18279 0.05561 0.11345 0.0
C215 C 0.18312 0.0375 0.14181 0.0
C216 C 0.19895 0.02428 0.13191 0.0
C217 C 0.21451 0.02958 0.09646 0.0
C218 C 0.25284 0.06921 0.08085 0.0
C219 C 0.2669 0.08294 0.06145 0.0
C220 C 0.28285 0.08893 0.09388 0.0
C221 C 0.28508 0.08111 0.14617 0.0
C222 C 0.27034 0.06818 0.16648 0.0
C223 C 0.25441 0.06219 0.13397 0.0
P224 P 0.44888 0.23553 0.03213 0.0
H225 H 0.44979 0.24309 0.91528 0.0
H226 H 0.463 0.27141 0.86451 0.0
H227 H 0.49583 0.29057 0.00512 0.0
H228 H 0.48278 0.26203 0.05559 0.0
H229 H 0.42858 0.19917 0.06287 0.0
H230 H 0.43792 0.17118 0.11939 0.0
H231 H 0.49813 0.1939 0.12766 0.0
H232 H 0.48862 0.222 0.06959 0.0
H233 H 0.42534 0.27162 0.03384 0.0
H234 H 0.45906 0.23701 0.14801 0.0
O235 O 0.4282 0.23031 0.99743 0.0
H236 H 0.42482 0.2994 0.09759 0.0
H237 H 0.45903 0.26459 0.21066 0.0
C238 C 0.46514 0.25041 0.98952 0.0
C239 C 0.46046 0.25288 0.9347 0.0
C240 C 0.46796 0.26921 0.90565 0.0
C241 C 0.48014 0.28351 0.93107 0.0
C242 C 0.4862 0.28002 0.98461 0.0
C243 C 0.47893 0.26352 0.01334 0.0
C244 C 0.45795 0.21256 0.06107 0.0
C245 C 0.44396 0.19789 0.07531 0.0
C246 C 0.44927 0.18198 0.10844 0.0
C247 C 0.46871 0.18041 0.12889 0.0
C248 C 0.48305 0.19459 0.11243 0.0
C249 C 0.47767 0.21062 0.07898 0.0
C250 C 0.44227 0.25224 0.08591 0.0
C251 C 0.43197 0.2697 0.07333 0.0
C252 C 0.43185 0.28563 0.10958 0.0
C253 C 0.44214 0.28432 0.15886 0.0
C254 C 0.45081 0.2661 0.17331 0.0
C255 C 0.45093 0.25023 0.13707 0.0
Eu256 Eu 0.98231 0.02419 0.57779 0.0
C257 C 0.03965 0.02623 0.77624 0.0
N258 N 0.04479 0.0277 0.72356 0.0
C259 C 0.06523 0.05619 0.74314 0.0
C260 C 0.04635 0.04032 0.81441 0.0
C261 C 0.05833 0.04168 0.70704 0.0
C262 C 0.05884 0.05578 0.79685 0.0
C263 C 0.02561 0.0061 0.84783 0.0
C264 C 0.02944 0.00945 0.79259 0.0
C265 C 0.03085 0.02078 0.88576 0.0
C266 C 0.04121 0.0379 0.86903 0.0
Eu267 Eu 0.02998 1.00463 0.66309 0.0
N268 N 0.02515 0.99545 0.75495 0.0
C269 C 0.01761 0.98768 0.86342 0.0
C270 C 0.01904 0.97686 0.77042 0.0
C271 C 0.01475 0.97283 0.82465 0.0
H272 H 0.06312 0.04207 0.66532 0.0
H273 H 0.00922 0.9583 0.83644 0.0
H274 H 0.95032 0.04295 0.66851 0.0
H275 H 0.96458 0.98604 0.38968 0.0
H276 H 0.01668 0.96537 0.74047 0.0
H277 H 0.01442 0.9845 0.90544 0.0
H278 H 0.98509 1.00598 0.453 0.0
H279 H 0.07538 0.06771 0.72947 0.0
H280 H 0.02775 0.01864 0.92831 0.0
H281 H 0.04593 0.04872 0.89892 0.0
H282 H 0.91552 0.03774 0.69809 0.0
H283 H 0.06429 0.06695 0.82483 0.0
H284 H 0.93017 0.97633 0.41491 0.0
N285 N 0.94836 0.02215 0.604 0.0
C286 C 0.93624 0.01033 0.57418 0.0
C287 C 0.92118 0.02982 0.66333 0.0
C288 C 0.91615 0.00723 0.58859 0.0
C289 C 0.94092 0.03262 0.64669 0.0
C290 C 0.9088 0.01682 0.6346 0.0
N291 N 0.96269 0.00701 0.51346 0.0
C292 C 0.97009 1.00178 0.46415 0.0
C293 C 0.93134 0.9913 0.49233 0.0
C294 C 0.94367 1.00252 0.52703 0.0
C295 C 0.93913 0.985 0.44276 0.0
C296 C 0.95852 0.9905 0.42831 0.0
H297 H 0.89347 0.0148 0.64723 0.0
H298 H 0.88853 0.99252 0.56626 0.0
H299 H 0.90187 0.97854 0.48172 0.0
O300 O 0.99941 0.0492 0.54531 0.0
O301 O 0.99067 0.99201 0.55948 0.0
O302 O 0.01088 0.97955 0.62846 0.0
O303 O 0.96741 0.04856 0.53611 0.0
O304 O 0.00947 0.01324 0.53164 0.0
O305 O 0.0322 0.025 0.59092 0.0
O306 O 0.05844 0.99135 0.68597 0.0
O307 O 0.0246 0.03773 0.64787 0.0
O308 O 0.99101 0.03983 0.65567 0.0
O309 O 0.04868 0.98981 0.60353 0.0
O310 O 0.99917 0.99278 0.6875 0.0
O311 O 0.97907 0.01922 0.66808 0.0
C312 C 0.9996 0.97728 0.58507 0.0
C313 C 0.9831 0.07961 0.55323 0.0
C314 C 0.99628 0.11351 0.55141 0.0
C315 C 0.98515 0.11791 0.59799 0.0
C316 C 0.97209 0.08424 0.59972 0.0
C317 C 0.97309 0.10334 0.6218 0.0
C318 C 0.99511 0.09425 0.52928 0.0
C319 C 0.02786 0.01847 0.54254 0.0
C320 C 0.98366 0.0592 0.53199 0.0
C321 C 0.90396 0.99525 0.55567 0.0
C322 C 0.91155 0.9873 0.50754 0.0
C323 C 0.00875 0.04742 0.66391 0.0
C324 C 0.06731 0.96311 0.63445 0.0
C325 C 0.06148 0.92849 0.65921 0.0
C326 C 0.07509 0.92258 0.61925 0.0
C327 C 0.08092 0.95702 0.59493 0.0
C328 C 0.05771 0.94884 0.66666 0.0
C329 C 0.08482 0.93682 0.5875 0.0
C330 C 0.98313 1.00333 0.69671 0.0
C331 C 0.06192 0.98415 0.63814 0.0
H332 H 0.98588 0.13254 0.61622 0.0
H333 H 0.96301 0.07304 0.61947 0.0
H334 H 0.96469 0.1068 0.65788 0.0
H335 H 1.00348 0.0906 0.49319 0.0
H336 H 0.07841 0.90699 0.61306 0.0
H337 H 0.08827 0.96788 0.56927 0.0
H338 H 0.04687 0.95352 0.69637 0.0
H339 H 0.09531 0.93217 0.55685 0.0
Eu340 Eu 0.51608 0.03296 0.66704 0.0
C341 C 0.52035 0.94484 0.56339 0.0
N342 N 0.52358 0.96319 0.54221 0.0
C343 C 0.55191 0.95101 0.49358 0.0
C344 C 0.53325 0.92891 0.5519 0.0
C345 C 0.53844 0.96619 0.5054 0.0
C346 C 0.5495 0.93235 0.51764 0.0
C347 C 0.49844 0.92245 0.61248 0.0
C348 C 0.50325 0.94164 0.59332 0.0
C349 C 0.51169 0.90671 0.60333 0.0
C350 C 0.52909 0.90995 0.57319 0.0
Eu351 Eu 0.501 0.98845 0.56792 0.0
N352 N 0.49078 0.95714 0.60137 0.0
C353 C 0.48025 0.91959 0.63916 0.0
C354 C 0.47264 0.95432 0.62516 0.0
C355 C 0.46719 0.93556 0.64498 0.0
H356 H 0.53978 0.98021 0.48447 0.0
H357 H 0.45295 0.93344 0.66471 0.0
H358 H 0.47203 0.05508 0.67832 0.0
H359 H 0.58618 0.06237 0.58428 0.0
H360 H 0.46253 0.96664 0.62954 0.0
H361 H 0.47599 0.90507 0.65449 0.0
H362 H 0.56538 0.03996 0.63906 0.0
H363 H 0.56395 0.95362 0.4653 0.0
H364 H 0.50838 0.8919 0.61825 0.0
H365 H 0.53892 0.89756 0.5652 0.0
H366 H 0.45542 0.08579 0.64662 0.0
H367 H 0.55979 0.92053 0.50786 0.0
H368 H 0.57116 0.09152 0.53954 0.0
N369 N 0.49918 0.06163 0.63789 0.0
C370 C 0.50996 0.07507 0.60892 0.0
C371 C 0.47071 0.08289 0.63545 0.0
C372 C 0.50112 0.0927 0.5899 0.0
C373 C 0.48008 0.06556 0.65324 0.0
C374 C 0.4812 0.09641 0.60311 0.0
N375 N 0.53818 0.05443 0.61951 0.0
C376 C 0.55831 0.05179 0.61702 0.0
C377 C 0.54145 0.08496 0.56888 0.0
C378 C 0.52989 0.07116 0.59852 0.0
C379 C 0.56178 0.08131 0.56213 0.0
C380 C 0.5703 0.06483 0.58712 0.0
H381 H 0.47388 0.10978 0.58921 0.0
H382 H 0.50587 0.11962 0.54338 0.0
H383 H 0.54121 0.11293 0.52532 0.0
O384 O 0.53333 0.05106 0.72358 0.0
O385 O 0.49673 0.03618 0.59144 0.0
O386 O 0.51389 0.01685 0.53445 0.0
O387 O 0.50441 0.03997 0.74706 0.0
O388 O 0.54208 0.01303 0.64207 0.0
O389 O 0.53167 1.00288 0.55794 0.0
O390 O 0.47424 0.99774 0.52525 0.0
O391 O 0.50322 0.98039 0.65733 0.0
O392 O 0.52649 1.00222 0.69296 0.0
O393 O 0.49296 0.97497 0.49062 0.0
O394 O 0.47513 1.00273 0.61386 0.0
O395 O 0.4877 0.01732 0.69171 0.0
C396 C 0.50409 0.03318 0.54315 0.0
C397 C 0.52838 0.04254 0.81528 0.0
C398 C 0.55284 0.02462 0.86881 0.0
C399 C 0.54168 0.0287 0.91557 0.0
C400 C 0.51748 0.04656 0.86229 0.0
C401 C 0.52413 0.03966 0.91221 0.0
C402 C 0.54607 0.03163 0.81874 0.0
C403 C 0.54592 1.0059 0.59354 0.0
C404 C 0.52058 0.04895 0.76279 0.0
C405 C 0.51244 0.1061 0.55885 0.0
C406 C 0.53255 0.10224 0.54841 0.0
C407 C 0.51629 0.98539 0.69473 0.0
C408 C 0.48001 0.99963 0.43205 0.0
C409 C 0.46523 0.02455 0.37291 0.0
C410 C 0.4831 0.02557 0.34349 0.0
C411 C 0.49781 1.00093 0.40223 0.0
C412 C 0.46379 0.01145 0.41705 0.0
C413 C 0.49925 0.01377 0.35809 0.0
C414 C 0.47292 0.00995 0.66313 0.0
C415 C 0.47876 0.98771 0.48195 0.0
H416 H 0.54669 0.02372 0.95483 0.0
H417 H 0.50374 0.05488 0.86027 0.0
H418 H 0.51567 0.0428 0.9484 0.0
H419 H 0.55433 0.02816 0.78233 0.0
H420 H 0.48469 0.0357 0.30972 0.0
H421 H 0.51073 0.99234 0.41357 0.0
H422 H 0.45007 0.01049 0.44003 0.0
H423 H 0.51305 0.01481 0.33561 0.0
Eu424 Eu 0.52877 0.50228 0.58601 0.0
C425 C 0.45018 0.48958 0.71973 0.0
N426 N 0.45343 0.50128 0.67575 0.0
C427 C 0.42248 0.49057 0.63704 0.0
C428 C 0.43294 0.47754 0.7234 0.0
C429 C 0.4398 0.50218 0.63505 0.0
C430 C 0.41907 0.47812 0.68127 0.0
C431 C 0.46148 0.47701 0.8063 0.0
C432 C 0.46438 0.48928 0.76067 0.0
C433 C 0.44438 0.46494 0.80984 0.0
C434 C 0.43016 0.46521 0.76856 0.0
Eu435 Eu 0.48322 0.52002 0.67571 0.0
N436 N 0.48107 0.50079 0.7557 0.0
C437 C 0.4758 0.4773 0.84723 0.0
C438 C 0.49442 0.50199 0.79705 0.0
C439 C 0.49221 0.49004 0.84287 0.0
H440 H 0.44204 0.5122 0.60159 0.0
H441 H 0.50303 0.49087 0.87516 0.0
H442 H 0.57057 0.50918 0.6579 0.0
H443 H 0.50613 0.53546 0.39354 0.0
H444 H 0.50652 0.51247 0.79593 0.0
H445 H 0.47412 0.46809 0.88287 0.0
H446 H 0.50369 0.51241 0.46996 0.0
H447 H 0.41173 0.4913 0.60459 0.0
H448 H 0.44199 0.45536 0.84448 0.0
H449 H 0.41705 0.45581 0.77194 0.0
H450 H 0.60106 0.52983 0.65416 0.0
H451 H 0.40565 0.46909 0.68263 0.0
H452 H 0.53512 0.55812 0.38562 0.0
N453 N 0.55857 0.52099 0.58545 0.0
C454 C 0.56133 0.53338 0.54264 0.0
C455 C 0.58997 0.53104 0.62269 0.0
C456 C 0.57859 0.54538 0.53877 0.0
C457 C 0.5726 0.51951 0.62499 0.0
C458 C 0.59297 0.54407 0.57948 0.0
N459 N 0.52975 0.52322 0.50898 0.0
C460 C 0.5158 0.52287 0.46904 0.0
C461 C 0.54885 0.54765 0.4593 0.0
C462 C 0.54652 0.53458 0.50348 0.0
C463 C 0.53389 0.54828 0.42012 0.0
C464 C 0.51743 0.53562 0.42466 0.0
H465 H 0.60641 0.55305 0.57794 0.0
H466 H 0.59395 0.56786 0.49148 0.0
H467 H 0.56798 0.5698 0.42188 0.0
O468 O 0.52883 0.47887 0.52526 0.0
O469 O 0.52617 0.53562 0.60376 0.0
O470 O 0.49254 0.53951 0.60531 0.0
O471 O 0.55578 0.48454 0.5728 0.0
O472 O 0.49725 0.49439 0.55623 0.0
O473 O 0.47819 0.52047 0.58573 0.0
O474 O 0.48295 0.54588 0.72915 0.0
O475 O 0.48645 0.48642 0.6624 0.0
O476 O 0.52016 0.4818 0.65501 0.0
O477 O 0.45592 0.53671 0.68897 0.0
O478 O 0.5146 0.52672 0.708 0.0
O479 O 0.53452 0.50142 0.676 0.0
C480 C 0.51044 0.54692 0.59821 0.0
C481 C 0.55723 0.4579 0.50583 0.0
C482 C 0.55497 0.42896 0.44653 0.0
C483 C 0.57569 0.42655 0.45054 0.0
C484 C 0.5779 0.45532 0.50942 0.0
C485 C 0.58705 0.43971 0.48177 0.0
C486 C 0.5459 0.44468 0.47442 0.0
C487 C 0.48116 0.50546 0.55285 0.0
C488 C 0.54723 0.47406 0.53515 0.0
C489 C 0.58083 0.55848 0.49501 0.0
C490 C 0.56601 0.55962 0.45542 0.0
C491 C 0.50232 0.47522 0.66789 0.0
C492 C 0.46267 0.57124 0.6928 0.0
C493 C 0.47403 0.60582 0.68888 0.0
C494 C 0.46091 0.60929 0.64583 0.0
C495 C 0.44938 0.57511 0.6502 0.0
C496 C 0.47482 0.58674 0.71203 0.0
C497 C 0.4486 0.59401 0.62688 0.0
C498 C 0.53072 0.51563 0.71107 0.0
C499 C 0.46497 0.55093 0.7149 0.0
H500 H 0.58311 0.41465 0.42918 0.0
H501 H 0.58696 0.46534 0.53346 0.0
H502 H 0.60301 0.4378 0.48456 0.0
H503 H 0.52987 0.44636 0.47263 0.0
H504 H 0.45989 0.62389 0.62758 0.0
H505 H 0.43983 0.56349 0.63417 0.0
H506 H 0.4852 0.58386 0.74456 0.0
H507 H 0.43845 0.5968 0.59387 0.0
Eu508 Eu 0.02418 0.53678 0.56416 0.0
C509 C 0.03797 0.46121 0.68225 0.0
N510 N 0.02467 0.4643 0.64177 0.0
C511 C 0.0373 0.43589 0.59436 0.0
C512 C 0.05221 0.44592 0.67882 0.0
C513 C 0.02333 0.45109 0.6 0.0
C514 C 0.05208 0.43355 0.63337 0.0
C515 C 0.04932 0.46909 0.77289 0.0
C516 C 0.03653 0.47255 0.72885 0.0
C517 C 0.06416 0.45456 0.76853 0.0
C518 C 0.06561 0.44301 0.72158 0.0
Eu519 Eu 1.00299 0.49178 0.65339 0.0
N520 N 0.02233 0.48679 0.73147 0.0
C521 C 0.04659 0.48017 0.82022 0.0
C522 C 0.01892 0.49699 0.7782 0.0
C523 C 0.03113 0.49398 0.82314 0.0
H524 H 0.01131 0.45192 0.57132 0.0
H525 H 0.0287 0.50237 0.85983 0.0
H526 H 0.99911 0.5766 0.60534 0.0
H527 H 0.03755 0.51264 0.35609 0.0
H528 H 0.00704 0.50774 0.78018 0.0
H529 H 0.0561 0.47795 0.85498 0.0
H530 H 0.04554 0.51697 0.45265 0.0
H531 H 0.03645 0.42579 0.56037 0.0
H532 H 0.07431 0.45185 0.80167 0.0
H533 H 0.0768 0.43149 0.71935 0.0
H534 H 0.97338 0.5996 0.57042 0.0
H535 H 0.06275 0.42163 0.62919 0.0
H536 H 0.00827 0.52953 0.317 0.0
N537 N 1.00051 0.55983 0.5328 0.0
C538 C 0.99473 0.55814 0.48059 0.0
C539 C 0.97915 0.58791 0.54486 0.0
C540 C 0.98004 0.57072 0.45902 0.0
C541 C 0.99369 0.57496 0.56447 0.0
C542 C 0.97201 0.58553 0.49222 0.0
N543 N 0.0198 0.53419 0.46937 0.0
C544 C 0.03225 0.52368 0.43655 0.0
C545 C 0.99981 0.54331 0.39262 0.0
C546 C 1.00452 0.54468 0.44797 0.0
C547 C 0.01142 0.53103 0.35971 0.0
C548 C 0.02796 0.52149 0.3816 0.0
H549 H 0.96072 0.59554 0.47714 0.0
H550 H 0.96297 0.57791 0.3875 0.0
H551 H 0.98027 0.55384 0.32928 0.0
O552 O 0.04602 0.55557 0.52254 0.0
O553 O 0.99049 0.53468 0.57878 0.0
O554 O 0.98541 0.50108 0.57964 0.0
O555 O 0.04274 0.55777 0.60897 0.0
O556 O 0.03206 0.50507 0.53808 0.0
O557 O 1.00444 0.48689 0.56242 0.0
O558 O 0.97522 0.49268 0.69773 0.0
O559 O 0.03131 0.5088 0.67582 0.0
O560 O 0.04491 0.51267 0.59309 0.0
O561 O 0.9875 0.46376 0.67481 0.0
O562 O 0.99393 0.52213 0.68582 0.0
O563 O 0.01718 0.54462 0.65152 0.0
C564 C 0.97893 0.51913 0.5704 0.0
C565 C 0.07518 0.56042 0.5752 0.0
C566 C 0.10668 0.54408 0.55454 0.0
C567 C 0.11595 0.55542 0.59525 0.0
C568 C 0.08473 0.57166 0.61536 0.0
C569 C 0.10499 0.56906 0.6255 0.0
C570 C 0.08616 0.54646 0.5455 0.0
C571 C 0.01935 0.49044 0.52921 0.0
C572 C 0.05356 0.56246 0.5673 0.0
C573 C 0.97443 0.56859 0.4047 0.0
C574 C 0.98427 0.55486 0.37156 0.0
C575 C 0.04711 0.50981 0.6449 0.0
C576 C 0.95563 0.46392 0.72293 0.0
C577 C 0.92229 0.46726 0.76067 0.0
C578 C 0.92166 0.44661 0.76979 0.0
C579 C 0.95485 0.44334 0.73221 0.0
C580 C 0.93926 0.47568 0.73666 0.0
C581 C 0.93788 0.43474 0.75548 0.0
C582 C 1.00355 0.53931 0.68724 0.0
C583 C 0.97306 0.47343 0.69776 0.0
H584 H 0.13175 0.55411 0.60298 0.0
H585 H 0.07645 0.58228 0.63929 0.0
H586 H 0.11225 0.57774 0.65666 0.0
H587 H 0.07868 0.53728 0.51568 0.0
H588 H 0.90884 0.43969 0.78878 0.0
H589 H 0.9673 0.43394 0.72157 0.0
H590 H 0.93962 0.49149 0.72808 0.0
H591 H 0.93733 0.41887 0.76279 0.0
H592 H 0.16696 0.06327 0.21492 0.0
H593 H 0.14038 0.05708 0.27998 0.0
H594 H 0.13707 0.9958 0.22909 0.0
H595 H 0.16375 1.00194 0.16308 0.0
H596 H 0.10166 0.04441 0.25975 0.0
H597 H 0.1409 0.99139 0.39434 0.0
H598 H 0.15387 0.00661 0.34542 0.0
H599 H 0.14042 0.98483 0.32398 0.0
C600 C 0.16055 0.04847 0.21714 0.0
C601 C 0.16743 0.03315 0.18321 0.0
C602 C 0.14538 0.04493 0.25468 0.0
C603 C 0.13675 0.02596 0.25979 0.0
C604 C 0.14369 0.0105 0.22654 0.0
H605 H 0.02399 0.00768 0.43594 0.0
H606 H 0.04978 0.00802 0.36582 0.0
C607 C 0.15895 0.01404 0.18878 0.0
C608 C 0.12017 0.02278 0.29906 0.0
H609 H 0.10732 0.99831 0.41522 0.0
C610 C 0.10285 0.03423 0.29355 0.0
C611 C 0.12178 0.00964 0.34349 0.0
C612 C 0.14028 0.9975 0.35269 0.0
C613 C 0.08724 0.03306 0.33136 0.0
C614 C 0.08881 0.01987 0.37569 0.0
C615 C 0.10605 0.00829 0.38103 0.0
C616 C 0.0732 0.01873 0.41848 0.0
C617 C 0.06949 0.04648 0.32455 0.0
C618 C 0.07784 0.02415 0.47177 0.0
C619 C 0.06315 0.02396 0.51191 0.0
C620 C 0.04346 0.01822 0.49979 0.0
C621 C 0.03893 0.01235 0.44663 0.0
C622 C 0.05366 0.01259 0.40641 0.0
H623 H 0.07252 0.05872 0.29545 0.0
H624 H 0.05672 0.03762 0.30906 0.0
H625 H 0.06506 0.05309 0.36382 0.0
H626 H 0.0928 0.02887 0.48215 0.0
H627 H 0.06723 0.02844 0.55244 0.0
H628 H 0.50206 0.15676 0.13638 0.0
H629 H 0.5087 0.13052 0.20299 0.0
H630 H 0.4528 0.14296 0.28134 0.0
H631 H 0.44604 0.16887 0.21513 0.0
H632 H 0.51258 0.13159 0.31221 0.0
H633 H 0.44809 0.08378 0.26067 0.0
H634 H 0.45577 0.10439 0.21888 0.0
H635 H 0.44066 0.10856 0.27789 0.0
C636 C 0.4912 0.15388 0.16783 0.0
C637 C 0.47336 0.16473 0.16976 0.0
C638 C 0.49498 0.13884 0.20581 0.0
C639 C 0.48102 0.13435 0.24651 0.0
C640 C 0.46352 0.1456 0.24939 0.0
H641 H 0.47282 0.05866 0.52976 0.0
H642 H 0.46786 0.08275 0.45661 0.0
C643 C 0.45969 0.16049 0.21142 0.0
C644 C 0.48486 0.11834 0.28698 0.0
H645 H 0.46427 0.07675 0.34458 0.0
C646 C 0.50212 0.11946 0.31881 0.0
C647 C 0.47125 0.10244 0.29581 0.0
C648 C 0.45301 0.09958 0.26112 0.0
C649 C 0.50579 0.10561 0.36023 0.0
C650 C 0.49194 0.09001 0.36985 0.0
C651 C 0.47484 0.08871 0.33751 0.0
C652 C 0.49482 0.07508 0.41368 0.0
C653 C 0.52415 0.1082 0.3946 0.0
C654 C 0.51141 0.06244 0.41351 0.0
C655 C 0.51426 0.04872 0.45532 0.0
C656 C 0.50062 0.04736 0.49826 0.0
C657 C 0.48378 0.05965 0.49776 0.0
C658 C 0.48088 0.07333 0.45581 0.0
H659 H 0.53054 0.12344 0.39113 0.0
H660 H 0.5207 0.1052 0.43761 0.0
H661 H 0.53564 0.09747 0.38133 0.0
H662 H 0.52213 0.06314 0.38087 0.0
H663 H 0.5273 0.03932 0.45436 0.0
H664 H 0.34617 0.51378 0.18002 0.0
H665 H 0.3717 0.51817 0.24977 0.0
H666 H 0.38443 0.45547 0.24413 0.0
H667 H 0.35868 0.45075 0.176 0.0
H668 H 0.37338 0.49775 0.35411 0.0
H669 H 0.43994 0.48287 0.22733 0.0
H670 H 0.41617 0.48959 0.19884 0.0
H671 H 0.4202 0.46474 0.22289 0.0
C672 C 0.35433 0.50087 0.1936 0.0
C673 C 0.35033 0.48191 0.17158 0.0
C674 C 0.36901 0.50345 0.23337 0.0
C675 C 0.3802 0.4872 0.25168 0.0
C676 C 0.37631 0.46831 0.22988 0.0
H677 H 0.47543 0.47204 0.49009 0.0
H678 H 0.45083 0.46723 0.41774 0.0
C679 C 0.36158 0.46568 0.19051 0.0
C680 C 0.39541 0.48976 0.29502 0.0
H681 H 0.44522 0.48584 0.32149 0.0
C682 C 0.38911 0.49526 0.34693 0.0
C683 C 0.4159 0.48624 0.28585 0.0
C684 C 0.42358 0.48068 0.23067 0.0
C685 C 0.40265 0.4971 0.39003 0.0
C686 C 0.42323 0.49392 0.38074 0.0
C687 C 0.4295 0.4883 0.32879 0.0
C688 C 0.43846 0.49682 0.42406 0.0
C689 C 0.39465 0.50192 0.44546 0.0
C690 C 0.44009 0.51515 0.45096 0.0
C691 C 0.45398 0.51786 0.49239 0.0
C692 C 0.46682 0.50238 0.5077 0.0
C693 C 0.46568 0.48422 0.47958 0.0
C694 C 0.45162 0.48146 0.4382 0.0
H695 H 0.3787 0.49765 0.44935 0.0
H696 H 0.40319 0.49421 0.47751 0.0
H697 H 0.39582 0.5182 0.45239 0.0
H698 H 0.43063 0.52746 0.43981 0.0
H699 H 0.45468 0.53219 0.51236 0.0
H700 H 0.07147 0.36791 0.15407 0.0
H701 H 0.0667 0.39388 0.22162 0.0
H702 H 1.00376 0.38103 0.22498 0.0
H703 H 0.00836 0.35501 0.1568 0.0
H704 H 0.04369 0.42814 0.22156 0.0
H705 H 0.01933 0.37644 0.38386 0.0
H706 H 0.03064 0.36785 0.32206 0.0
H707 H 0.00486 0.37485 0.32308 0.0
C708 C 0.05652 0.37075 0.16839 0.0
C709 C 0.04029 0.35929 0.14966 0.0
C710 C 0.05385 0.38557 0.20741 0.0
C711 C 0.03493 0.38926 0.22909 0.0
C712 C 0.01859 0.37819 0.20976 0.0
H713 H 0.99079 0.46848 0.47859 0.0
H714 H 0.99485 0.44482 0.40449 0.0
C715 C 0.02124 0.36332 0.17066 0.0
C716 C 0.03246 0.40456 0.2722 0.0
H717 H 0.01774 0.41087 0.40327 0.0
C718 C 0.03805 0.42436 0.26133 0.0
C719 C 0.02518 0.39964 0.32422 0.0
C720 C 0.01982 0.37852 0.33937 0.0
C721 C 0.0362 0.43939 0.30062 0.0
C722 C 0.02889 0.43446 0.35259 0.0
C723 C 0.02332 0.41467 0.36344 0.0
C724 C 0.02658 0.44958 0.39617 0.0
C725 C 0.04167 0.46051 0.28579 0.0
C726 C 0.04309 0.46019 0.41645 0.0
C727 C 0.0408 0.47378 0.45901 0.0
C728 C 0.02197 0.47694 0.48223 0.0
C729 C 0.0055 0.46637 0.46165 0.0
C730 C 0.00779 0.45283 0.41925 0.0
H731 H 0.04211 0.46268 0.24133 0.0
H732 H 0.03094 0.47121 0.30343 0.0
H733 H 0.05667 0.46405 0.30203 0.0
H734 H 0.05782 0.45764 0.40017 0.0
H735 H 0.05382 0.48142 0.47459 0.0
H736 H 0.83835 0.97017 0.03149 0.0
H737 H 0.86417 0.96681 0.96273 0.0
H738 H 0.90399 1.0028 0.05876 0.0
H739 H 0.87855 1.00549 0.12891 0.0
H740 H 0.87954 0.99629 0.90421 0.0
H741 H 0.94118 0.95935 0.01184 0.0
H742 H 0.91622 0.96025 0.03878 0.0
H743 H 0.93282 0.98119 0.04651 0.0
C744 C 0.85279 0.97685 0.03899 0.0
C745 C 0.85627 0.98809 0.08613 0.0
C746 C 0.86753 0.97506 0.99921 0.0
C747 C 0.88618 0.98438 0.00549 0.0
C748 C 0.88993 0.99511 0.05318 0.0
H749 H 0.96238 0.03003 0.75628 0.0
H750 H 0.93931 0.02362 0.83029 0.0
C751 C 0.87522 0.99685 0.0931 0.0
C752 C 0.90092 0.98443 0.96022 0.0
H753 H 0.9498 0.97591 0.92882 0.0
C754 C 0.89483 0.9916 0.90959 0.0
C755 C 0.92087 0.9781 0.96663 0.0
C756 C 0.92812 0.96909 0.01873 0.0
C757 C 0.9082 0.9933 0.86611 0.0
C758 C 0.92841 0.98807 0.87347 0.0
C759 C 0.93438 0.98015 0.92332 0.0
C760 C 0.94358 0.99174 0.83056 0.0
C761 C 0.90054 1.00078 0.81257 0.0
C762 C 0.95438 0.97604 0.80728 0.0
C763 C 0.96768 0.97969 0.76447 0.0
C764 C 0.97043 0.99912 0.74453 0.0
C765 C 0.96022 0.01482 0.7696 0.0
C766 C 0.94702 0.01119 0.8121 0.0
H767 H 0.88422 0.99844 0.80874 0.0
H768 H 0.90355 0.017 0.80937 0.0
H769 H 0.90805 0.99325 0.77829 0.0
H770 H 0.9521 0.96092 0.82119 0.0
H771 H 0.97535 0.9673 0.74601 0.0
H772 H 0.50417 0.8828 0.13761 0.0
H773 H 0.506 0.9082 0.06686 0.0
H774 H 0.5478 0.8722 0.97858 0.0
H775 H 0.54634 0.84694 0.04985 0.0
H776 H 0.55724 0.91146 0.97013 0.0
H777 H 0.47705 0.90067 0.92588 0.0
H778 H 0.48167 0.90818 0.99425 0.0
H779 H 0.49053 0.88449 0.97067 0.0
C780 C 0.51397 0.88042 0.10348 0.0
C781 C 0.525 0.86275 0.09927 0.0
C782 C 0.5149 0.8949 0.0628 0.0
C783 C 0.5266 0.89192 0.01643 0.0
C784 C 0.53854 0.87483 0.01366 0.0
H785 H 0.50347 0.94681 0.70623 0.0
H786 H 0.50746 0.92467 0.783 0.0
C787 C 0.53777 0.86042 0.05464 0.0
C788 C 0.52563 0.90603 0.96981 0.0
H789 H 0.49334 0.92699 0.87994 0.0
C790 C 0.54327 0.91485 0.95036 0.0
C791 C 0.50747 0.91024 0.94317 0.0
C792 C 0.48814 0.90025 0.95913 0.0
C793 C 0.54323 0.92781 0.90555 0.0
C794 C 0.52495 0.93251 0.88004 0.0
C795 C 0.50736 0.9236 0.89948 0.0
C796 C 0.52363 0.94599 0.83201 0.0
C797 C 0.56287 0.93585 0.88517 0.0
C798 C 0.53135 0.9655 0.83314 0.0
C799 C 0.52942 0.9781 0.78826 0.0
C800 C 0.51927 0.97172 0.74159 0.0
C801 C 0.51143 0.95228 0.74092 0.0
C802 C 0.51366 0.93957 0.78523 0.0
H803 H 0.57552 0.92644 0.89825 0.0
H804 H 0.56304 0.93687 0.84043 0.0
H805 H 0.56529 0.95096 0.90194 0.0
H806 H 0.53853 0.97115 0.86911 0.0
H807 H 0.53551 0.99299 0.79063 0.0
H808 H 0.64688 0.55596 0.12357 0.0
H809 H 0.62104 0.55635 0.05337 0.0
H810 H 0.63495 0.49569 0.01211 0.0
H811 H 0.66051 0.49515 0.08158 0.0
H812 H 0.62394 0.55103 0.94395 0.0
H813 H 0.57539 0.49201 0.02847 0.0
H814 H 0.59502 0.5036 0.06723 0.0
H815 H 0.60056 0.48379 0.02066 0.0
C816 C 0.64432 0.54266 0.0998 0.0
C817 C 0.65559 0.5254 0.10917 0.0
C818 C 0.62952 0.5429 0.05967 0.0
C819 C 0.62567 0.5259 0.02808 0.0
C820 C 0.6371 0.5088 0.03694 0.0
H821 H 0.5592 0.48992 0.7473 0.0
H822 H 0.58152 0.49396 0.82446 0.0
C823 C 0.65175 0.50851 0.07698 0.0
C824 C 0.61032 0.52606 0.98439 0.0
H825 H 0.57027 0.50008 0.93524 0.0
C826 C 0.61203 0.54007 0.94246 0.0
C827 C 0.5947 0.51178 0.98226 0.0
C828 C 0.59116 0.49708 0.02736 0.0
C829 C 0.59914 0.53965 0.89757 0.0
C830 C 0.58399 0.52494 0.89468 0.0
C831 C 0.58196 0.51127 0.93722 0.0
C832 C 0.57054 0.52298 0.84706 0.0
C833 C 0.60227 0.55446 0.85256 0.0
C834 C 0.55679 0.5379 0.83407 0.0
C835 C 0.54392 0.53563 0.78981 0.0
C836 C 0.54457 0.51839 0.75755 0.0
C837 C 0.55838 0.50349 0.7708 0.0
C838 C 0.57112 0.50573 0.81511 0.0
H839 H 0.61682 0.56232 0.85597 0.0
H840 H 0.60151 0.54695 0.81266 0.0
H841 H 0.5903 0.56575 0.85399 0.0
H842 H 0.55583 0.55121 0.85857 0.0
H843 H 0.53345 0.54736 0.78096 0.0
H844 H 0.96792 0.68013 0.03824 0.0
H845 H 0.96348 0.65434 0.96953 0.0
H846 H 0.01137 0.62078 0.04004 0.0
H847 H 0.01496 0.64569 0.11069 0.0
H848 H 0.98789 0.64429 0.89411 0.0
H849 H 0.97378 0.57641 0.01322 0.0
H850 H 0.973 0.60088 0.04308 0.0
H851 H 0.99638 0.58813 0.03524 0.0
C852 C 0.97706 0.66695 0.04032 0.0
C853 C 0.99187 0.66515 0.08023 0.0
C854 C 0.97464 0.65226 1.00051 0.0
C855 C 0.98694 0.63538 0.99953 0.0
C856 C 1.00132 0.6333 0.04025 0.0
H857 H 0.02558 0.57181 0.71732 0.0
H858 H 0.01966 0.5946 0.79188 0.0
C859 C 1.00358 0.64782 0.08036 0.0
C860 C 0.98603 0.62093 0.95354 0.0
H861 H 0.98654 0.57128 0.92285 0.0
C862 C 0.98729 0.62834 0.90055 0.0
C863 C 0.98487 0.60004 0.96124 0.0
C864 C 0.9817 0.59094 0.01628 0.0
C865 C 0.98831 0.61556 0.85564 0.0
C866 C 0.98879 0.59468 0.8637 0.0
C867 C 0.98658 0.58724 0.91642 0.0
C868 C 0.99231 0.58043 0.81831 0.0
C869 C 0.98874 0.62467 0.79995 0.0
C870 C 0.97939 0.5642 0.80921 0.0
C871 C 0.98296 0.55079 0.76681 0.0
C872 C 0.9995 0.55336 0.73247 0.0
C873 C 0.0125 0.56948 0.7422 0.0
C874 C 0.00906 0.58269 0.78481 0.0
H875 H 0.98126 0.63937 0.79955 0.0
H876 H 1.00444 0.62711 0.78746 0.0
H877 H 0.98138 0.61487 0.76978 0.0
H878 H 0.96646 0.56197 0.83471 0.0
H879 H 0.97268 0.53851 0.76076 0.0
H880 H 0.09421 0.21275 0.19842 0.0
H881 H 0.08461 0.19062 0.27293 0.0
H882 H 0.04728 0.23655 0.33882 0.0
H883 H 0.05626 0.25853 0.26432 0.0
H884 H 0.08252 0.19763 0.40019 0.0
H885 H 0.01142 0.18609 0.28863 0.0
H886 H 0.03391 0.19466 0.25581 0.0
H887 H 0.01981 0.21138 0.29714 0.0
C888 C 0.08419 0.21824 0.22924 0.0
C889 C 0.07587 0.23735 0.22513 0.0
C890 C 0.07887 0.20564 0.27191 0.0
C891 C 0.06519 0.21201 0.31092 0.0
C892 C 0.0579 0.23146 0.30898 0.0
H893 H 0.98683 0.15249 0.53433 0.0
H894 H 0.00555 0.17711 0.48207 0.0
C895 C 0.06317 0.24403 0.26647 0.0
C896 C 0.05651 0.1977 0.34959 0.0
H897 H 0.0139 0.17146 0.37459 0.0
C898 C 0.06756 0.19181 0.39477 0.0
C899 C 0.03702 0.19021 0.34197 0.0
C900 C 0.0248 0.19574 0.29314 0.0
C901 C 0.05933 0.17884 0.43348 0.0
C902 C 0.03974 0.17147 0.426 0.0
C903 C 0.02886 0.17727 0.38042 0.0
C904 C 0.0301 0.15748 0.46419 0.0
C905 C 0.07146 0.17348 0.48251 0.0
C906 C 0.03789 0.13839 0.47219 0.0
C907 C 0.02729 0.12433 0.50243 0.0
C908 C 0.00861 0.12905 0.52468 0.0
C909 C 1.00123 0.14842 0.5182 0.0
C910 C 0.01186 0.16248 0.48813 0.0
H911 H 0.08381 0.18427 0.48936 0.0
H912 H 0.06199 0.17289 0.51925 0.0
H913 H 0.07808 0.15855 0.47647 0.0
H914 H 0.05176 0.13411 0.4533 0.0
H915 H 0.0335 0.10961 0.50736 0.0
H916 H 0.28975 0.08817 0.25472 0.0
H917 H 0.32097 0.08764 0.3059 0.0
H918 H 0.35376 0.07956 0.15773 0.0
H919 H 0.32289 0.08017 0.10671 0.0
H920 H 0.34428 0.05582 0.31021 0.0
H921 H 0.38943 0.11858 0.23367 0.0
H922 H 0.36289 0.1169 0.2226 0.0
H923 H 0.37993 0.10403 0.1787 0.0
C924 C 0.30369 0.08671 0.23306 0.0
C925 C 0.30385 0.08426 0.17666 0.0
C926 C 0.32149 0.0865 0.26229 0.0
C927 C 0.33975 0.08388 0.2356 0.0
C928 C 0.33997 0.08224 0.17913 0.0
H929 H 0.45099 0.03098 0.2714 0.0
H930 H 0.42089 0.04892 0.24584 0.0
C931 C 0.32224 0.08254 0.14994 0.0
C932 C 0.35818 0.0799 0.2665 0.0
H933 H 0.40798 0.09029 0.26863 0.0
C934 C 0.35812 0.06371 0.30233 0.0
C935 C 0.37624 0.0902 0.25619 0.0
C936 C 0.37707 0.10853 0.2211 0.0
C937 C 0.37584 0.05664 0.32497 0.0
C938 C 0.39403 0.06613 0.31173 0.0
C939 C 0.39399 0.083 0.27842 0.0
C940 C 0.41329 0.05742 0.32751 0.0
C941 C 0.37515 0.03829 0.36011 0.0
C942 C 0.41915 0.05669 0.38178 0.0
C943 C 0.43632 0.0464 0.39654 0.0
C944 C 0.44791 0.03678 0.35714 0.0
C945 C 0.44241 0.0383 0.30259 0.0
C946 C 0.42523 0.04851 0.28795 0.0
H947 H 0.36014 0.03123 0.36078 0.0
H948 H 0.3861 0.02717 0.34569 0.0
H949 H 0.3792 0.04239 0.40211 0.0
H950 H 0.41021 0.06369 0.41275 0.0
H951 H 0.44045 0.04581 0.43877 0.0
H952 H 0.44326 0.28871 0.26913 0.0
H953 H 0.45913 0.31598 0.3189 0.0
H954 H 0.46814 0.34802 0.16994 0.0
H955 H 0.45297 0.32069 0.11981 0.0
H956 H 0.50298 0.34052 0.22757 0.0
H957 H 0.44505 0.3738 0.35927 0.0
H958 H 0.44648 0.34711 0.36193 0.0
H959 H 0.43905 0.35906 0.30038 0.0
C960 C 0.44822 0.30177 0.24716 0.0
C961 C 0.44694 0.30247 0.1905 0.0
C962 C 0.45713 0.3174 0.27569 0.0
C963 C 0.46475 0.334 0.24802 0.0
C964 C 0.46227 0.33534 0.19197 0.0
H965 H 0.52412 0.43809 0.3793 0.0
H966 H 0.50221 0.41502 0.33095 0.0
C967 C 0.45341 0.31975 0.16344 0.0
C968 C 0.47763 0.34858 0.27609 0.0
H969 H 0.47871 0.38297 0.37738 0.0
C970 C 0.49766 0.3499 0.26012 0.0
C971 C 0.47059 0.36075 0.31839 0.0
C972 C 0.44908 0.3603 0.33585 0.0
C973 C 0.51094 0.36296 0.28578 0.0
C974 C 0.50403 0.37479 0.32894 0.0
C975 C 0.48394 0.37371 0.34447 0.0
C976 C 0.51744 0.38858 0.35797 0.0
C977 C 0.5322 0.36415 0.26624 0.0
C978 C 0.53324 0.38127 0.38901 0.0
C979 C 0.54575 0.39439 0.41689 0.0
C980 C 0.54256 0.41503 0.41432 0.0
C981 C 0.52681 0.42226 0.38264 0.0
C982 C 0.5143 0.40914 0.35494 0.0
H983 H 0.53399 0.3574 0.22557 0.0
H984 H 0.53743 0.37985 0.26467 0.0
H985 H 0.54191 0.35598 0.29477 0.0
H986 H 0.53571 0.3654 0.39226 0.0
H987 H 0.55757 0.38837 0.44157 0.0
H988 H 0.2319 0.43763 0.27868 0.0
H989 H 0.20943 0.44921 0.34986 0.0
H990 H 0.17526 0.4813 0.23156 0.0
H991 H 0.19795 0.47066 0.16091 0.0
H992 H 0.18992 0.50465 0.31623 0.0
H993 H 0.15106 0.43691 0.39301 0.0
H994 H 0.17773 0.43556 0.38776 0.0
H995 H 0.16302 0.43775 0.32765 0.0
C996 C 0.21946 0.44696 0.26774 0.0
C997 C 0.21683 0.45328 0.21402 0.0
C998 C 0.2065 0.45336 0.30839 0.0
C999 C 0.19064 0.46601 0.29582 0.0
C1000 C 0.18737 0.47145 0.24196 0.0
H1001 H 0.10269 0.53787 0.44609 0.0
H1002 H 0.1231 0.51707 0.38778 0.0
C1003 C 0.20031 0.46518 0.2015 0.0
C1004 C 0.17889 0.47565 0.33888 0.0
H1005 H 0.14479 0.46721 0.43887 0.0
C1006 C 0.18008 0.49644 0.3431 0.0
C1007 C 0.16625 0.46486 0.37413 0.0
C1008 C 0.16425 0.44254 0.37044 0.0
C1009 C 0.1687 0.50681 0.38099 0.0
C1010 C 0.15568 0.49612 0.41523 0.0
C1011 C 0.15483 0.47528 0.4123 0.0
C1012 C 0.14212 0.50669 0.45207 0.0
C1013 C 0.17051 0.52919 0.38387 0.0
C1014 C 0.14591 0.50736 0.50766 0.0
C1015 C 0.13422 0.51923 0.54135 0.0
C1016 C 0.11846 0.53046 0.5199 0.0
C1017 C 0.11445 0.5292 0.46424 0.0
C1018 C 0.12615 0.5174 0.43073 0.0
H1019 H 0.18396 0.53478 0.36243 0.0
H1020 H 0.15723 0.53597 0.36484 0.0
H1021 H 0.17111 0.53426 0.42652 0.0
H1022 H 0.15826 0.49918 0.52465 0.0
H1023 H 0.13765 0.51977 0.58402 0.0
H1024 H 0.9867 0.79679 0.99251 0.0
H1025 H 0.98847 0.81945 0.91517 0.0
H1026 H 0.05193 0.82524 0.93728 0.0
H1027 H 0.05044 0.80206 0.01293 0.0
H1028 H 1.00102 0.8582 0.91097 0.0
H1029 H 0.04776 0.81182 0.77804 0.0
H1030 H 0.03549 0.80197 0.83727 0.0
H1031 H 0.05895 0.81493 0.84322 0.0
C1032 C 1.00107 0.80266 0.98033 0.0
C1033 C 0.01846 0.79754 0.00866 0.0
C1034 C 1.00202 0.81568 0.9364 0.0
C1035 C 0.02037 0.8237 0.91993 0.0
C1036 C 0.03768 0.81884 0.94858 0.0
H1037 H 0.0568 0.92959 0.76828 0.0
H1038 H 0.04249 0.90393 0.82632 0.0
C1039 C 0.03676 0.80581 0.99229 0.0
C1040 C 0.02155 0.83775 0.87411 0.0
H1041 H 0.04777 0.84704 0.75893 0.0
C1042 C 0.01096 0.85565 0.87717 0.0
C1043 C 0.03409 0.83418 0.82931 0.0
C1044 C 0.04453 0.81457 0.8214 0.0
C1045 C 0.0137 0.87067 0.83847 0.0
C1046 C 0.02774 0.86782 0.79659 0.0
C1047 C 0.03723 0.84937 0.7915 0.0
C1048 C 0.03425 0.88423 0.76065 0.0
C1049 C 1.00173 0.88951 0.8434 0.0
C1050 C 0.03474 0.88157 0.70442 0.0
C1051 C 0.04328 0.8961 0.6712 0.0
C1052 C 0.05142 0.91354 0.69371 0.0
C1053 C 0.05043 0.9164 0.74981 0.0
C1054 C 0.0421 0.9018 0.78299 0.0
H1055 H 0.98711 0.88653 0.86287 0.0
H1056 H 0.00992 0.90028 0.86925 0.0
H1057 H 0.99914 0.89647 0.80338 0.0
H1058 H 0.02887 0.86807 0.68637 0.0
H1059 H 0.04369 0.89363 0.628 0.0
H1060 H 0.72859 0.00868 0.96794 0.0
H1061 H 0.69801 1.00471 0.91513 0.0
H1062 H 0.68342 0.95153 1.00462 0.0
H1063 H 0.71375 0.95572 0.05833 0.0
H1064 H 0.67412 0.97345 0.85599 0.0
H1065 H 0.64492 0.99639 0.05726 0.0
H1066 H 0.67104 0.99763 0.04078 0.0
H1067 H 0.6595 0.97408 0.05575 0.0
C1068 C 0.71927 0.99569 0.97464 0.0
C1069 C 0.72322 0.98267 0.01753 0.0
C1070 C 0.70186 0.99341 0.94445 0.0
C1071 C 0.68838 0.97802 0.95676 0.0
C1072 C 0.69361 0.96357 0.99495 0.0
H1073 H 0.56045 0.99121 0.92806 0.0
H1074 H 0.59255 0.97497 0.94081 0.0
C1075 C 0.71087 0.96599 0.02558 0.0
C1076 C 0.66749 0.97978 0.93928 0.0
H1077 H 0.62217 0.99404 0.98678 0.0
C1078 C 0.66263 0.97767 0.8845 0.0
C1079 C 0.65264 0.98541 0.97674 0.0
C1080 C 0.6572 0.98868 0.03586 0.0
C1081 C 0.6432 0.98131 0.86607 0.0
C1082 C 0.62855 0.98759 0.90338 0.0
C1083 C 0.63336 0.98906 0.9583 0.0
C1084 C 0.60865 0.99463 0.88676 0.0
C1085 C 0.63862 0.97854 0.80695 0.0
C1086 C 0.607 0.01088 0.85151 0.0
C1087 C 0.58867 0.02013 0.84405 0.0
C1088 C 0.57174 0.01349 0.87237 0.0
C1089 C 0.57328 0.99676 0.90608 0.0
C1090 C 0.59156 0.98738 0.91304 0.0
H1091 H 0.64858 0.9673 0.78841 0.0
H1092 H 0.62291 0.97384 0.80064 0.0
H1093 H 0.64111 0.99284 0.78552 0.0
H1094 H 0.62006 0.01715 0.83214 0.0
H1095 H 0.58799 0.03314 0.81833 0.0
H1096 H 0.55216 0.73706 0.9979 0.0
H1097 H 0.55603 0.71821 0.91407 0.0
H1098 H 0.4924 0.71944 0.89041 0.0
H1099 H 0.48858 0.73927 0.97157 0.0
H1100 H 0.54372 0.68287 0.89626 0.0
H1101 H 0.50928 0.72846 0.73957 0.0
H1102 H 0.51628 0.73885 0.80416 0.0
H1103 H 0.49207 0.72747 0.79467 0.0
C1104 C 0.53906 0.73383 0.97391 0.0
C1105 C 0.52002 0.73956 0.99166 0.0
C1106 C 0.54131 0.723 0.92608 0.0
C1107 C 0.52457 0.71773 0.89518 0.0
C1108 C 0.50565 0.72385 0.91235 0.0
H1109 H 0.47991 0.61441 0.79465 0.0
H1110 H 0.499 0.6417 0.83313 0.0
C1111 C 0.50342 0.73482 0.95963 0.0
C1112 C 0.52616 0.70348 0.84972 0.0
H1113 H 0.50244 0.69186 0.7323 0.0
C1114 C 0.53526 0.68509 0.85949 0.0
C1115 C 0.51591 0.70643 0.8005 0.0
C1116 C 0.50809 0.72651 0.78401 0.0
C1117 C 0.53201 0.66887 0.82504 0.0
C1118 C 0.51878 0.67099 0.78106 0.0
C1119 C 0.51203 0.69002 0.76712 0.0
C1120 C 0.50893 0.6535 0.75616 0.0
C1121 C 0.54182 0.64932 0.83805 0.0
C1122 C 0.5075 0.65141 0.69989 0.0
C1123 C 0.49631 0.6358 0.67761 0.0
C1124 C 0.48635 0.62215 0.7114 0.0
C1125 C 0.48782 0.62437 0.76759 0.0
C1126 C 0.49887 0.63991 0.78966 0.0
H1127 H 0.55696 0.65186 0.85477 0.0
H1128 H 0.53299 0.64142 0.86941 0.0
H1129 H 0.54299 0.63963 0.80186 0.0
H1130 H 0.51482 0.66196 0.67333 0.0
H1131 H 0.49543 0.6344 0.6341 0.0
H1132 H 0.76722 0.51031 0.96648 0.0
H1133 H 0.79265 0.51025 0.89622 0.0
H1134 H 0.81872 0.56356 0.96361 0.0
H1135 H 0.79346 0.56342 0.03516 0.0
H1136 H 0.81177 0.53487 0.81801 0.0
H1137 H 0.85879 0.51978 0.99891 0.0
H1138 H 0.83204 0.52068 1.00288 0.0
H1139 H 0.84631 0.54331 0.99729 0.0
C1140 C 0.7779 0.52245 0.96514 0.0
C1141 C 0.77871 0.53662 0.00675 0.0
C1142 C 0.7924 0.52243 0.9249 0.0
C1143 C 0.80779 0.53662 0.92569 0.0
C1144 C 0.80714 0.55228 0.9631 0.0
H1145 H 0.92492 0.50387 0.80784 0.0
H1146 H 0.89784 0.52527 0.8369 0.0
C1147 C 0.79277 0.55216 1.00387 0.0
C1148 C 0.82619 0.5324 0.89534 0.0
H1149 H 0.87286 0.51421 0.91478 0.0
C1150 C 0.82531 0.53073 0.8389 0.0
C1151 C 0.84376 0.52689 0.92296 0.0
C1152 C 0.84537 0.52758 0.98382 0.0
C1153 C 0.84135 0.52296 0.80946 0.0
C1154 C 0.85843 0.51647 0.83752 0.0
C1155 C 0.85971 0.51921 0.89348 0.0
C1156 C 0.87448 0.50509 0.81124 0.0
C1157 C 0.83972 0.52139 0.7489 0.0
C1158 C 0.87029 0.48665 0.787 0.0
C1159 C 0.88577 0.47439 0.76986 0.0
C1160 C 0.90568 0.48032 0.7772 0.0
C1161 C 0.90976 0.49897 0.80077 0.0
C1162 C 0.89431 0.51124 0.81746 0.0
H1163 H 0.82935 0.53268 0.7325 0.0
H1164 H 0.85447 0.52329 0.72919 0.0
H1165 H 0.83376 0.50646 0.73815 0.0
H1166 H 0.85508 0.48139 0.7832 0.0
H1167 H 0.88217 0.46021 0.75137 0.0
H1168 H 0.06325 0.21702 0.85218 0.0
H1169 H 0.05632 0.18553 0.80721 0.0
H1170 H 0.99597 0.18672 0.86645 0.0
H1171 H 1.00249 0.21889 0.9096 0.0
H1172 H 0.04616 0.15064 0.85223 0.0
H1173 H 0.98673 0.17302 0.70968 0.0
H1174 H 1.00187 0.19096 0.74545 0.0
H1175 H 0.98131 0.17886 0.77885 0.0
C1176 C 0.04831 0.21096 0.85461 0.0
C1177 C 0.03338 0.22079 0.88425 0.0
C1178 C 0.04443 0.19274 0.82923 0.0
C1179 C 0.02555 0.18376 0.8327 0.0
C1180 C 0.01056 0.19348 0.8621 0.0
H1181 H 0.98257 0.06637 0.73058 0.0
H1182 H 0.98615 0.09951 0.77135 0.0
C1183 C 0.01439 0.21182 0.88739 0.0
C1184 C 0.02205 0.1638 0.80773 0.0
H1185 H 0.99303 0.13836 0.71711 0.0
C1186 C 0.03459 0.14803 0.8225 0.0
C1187 C 0.00692 0.16027 0.76897 0.0
C1188 C 0.99355 0.1767 0.74935 0.0
C1189 C 0.03237 0.12894 0.79994 0.0
C1190 C 0.01731 0.12547 0.76118 0.0
C1191 C 1.00459 0.14109 0.74678 0.0
C1192 C 0.01478 0.10573 0.73483 0.0
C1193 C 0.04599 0.11249 0.81823 0.0
C1194 C 0.02951 0.09838 0.69999 0.0
C1195 C 0.02747 0.07952 0.67658 0.0
C1196 C 0.0107 0.06759 0.68769 0.0
C1197 C 0.99574 0.07516 0.72159 0.0
C1198 C 0.99775 0.09408 0.74487 0.0
H1199 H 0.05409 0.11647 0.85583 0.0
H1200 H 0.03742 0.09854 0.82528 0.0
H1201 H 0.05714 0.1095 0.7862 0.0
H1202 H 0.04261 0.10726 0.69094 0.0
H1203 H 0.03901 0.07432 0.64955 0.0
H1204 H 0.28859 0.01043 0.83377 0.0
H1205 H 0.31984 1.00512 0.78483 0.0
H1206 H 0.353 0.02245 0.92631 0.0
H1207 H 0.32197 0.02783 0.97531 0.0
H1208 H 0.34908 0.03227 0.76123 0.0
H1209 H 0.38105 0.97169 0.88446 0.0
H1210 H 0.35527 0.97887 0.88964 0.0
H1211 H 0.37428 0.99293 0.92415 0.0
C1212 C 0.30253 0.01297 0.85464 0.0
C1213 C 0.30266 0.01942 0.90878 0.0
C1214 C 0.32041 0.00989 0.82658 0.0
C1215 C 0.33886 0.01308 0.85199 0.0
C1216 C 0.33903 0.01935 0.90611 0.0
H1217 H 0.46294 0.02072 0.76632 0.0
H1218 H 0.43011 0.02062 0.80838 0.0
C1219 C 0.3212 0.02239 0.93419 0.0
C1220 C 0.35789 0.01093 0.82131 0.0
H1221 H 0.40344 0.98847 0.82438 0.0
C1222 C 0.36087 0.0225 0.77466 0.0
C1223 C 0.37334 0.9982 0.83872 0.0
C1224 C 0.37079 0.98457 0.88667 0.0
C1225 C 0.37905 0.02224 0.74627 0.0
C1226 C 0.39464 0.00986 0.76446 0.0
C1227 C 0.39153 0.99801 0.81046 0.0
C1228 C 0.41458 0.00965 0.73787 0.0
C1229 C 0.3817 0.03579 0.69819 0.0
C1230 C 0.41692 1.00332 0.68413 0.0
C1231 C 0.43581 1.00332 0.6597 0.0
C1232 C 0.45277 0.00964 0.68856 0.0
C1233 C 0.45031 0.0158 0.74255 0.0
C1234 C 0.43149 0.01573 0.76687 0.0
H1235 H 0.36998 0.04736 0.69632 0.0
H1236 H 0.39649 0.04326 0.69929 0.0
H1237 H 0.38087 0.02683 0.66061 0.0
H1238 H 0.40416 0.99825 0.66115 0.0
H1239 H 0.43708 0.99842 0.61819 0.0
H1240 H 0.49269 0.29001 0.82663 0.0
H1241 H 0.49805 0.32205 0.78124 0.0
H1242 H 0.48176 0.35278 0.92752 0.0
H1243 H 0.47706 0.32092 0.97328 0.0
H1244 H 0.47371 0.35075 0.75756 0.0
H1245 H 0.53106 0.38278 0.89217 0.0
H1246 H 0.52349 0.35704 0.89628 0.0
H1247 H 0.50907 0.37609 0.92912 0.0
C1248 C 0.49051 0.30362 0.84925 0.0
C1249 C 0.48473 0.30287 0.90384 0.0
C1250 C 0.49354 0.32196 0.82324 0.0
C1251 C 0.49071 0.34 0.85103 0.0
C1252 C 0.48475 0.33922 0.90544 0.0
H1253 H 0.46813 0.45385 0.69032 0.0
H1254 H 0.46523 0.42165 0.73532 0.0
C1255 C 0.48201 0.32092 0.93163 0.0
C1256 C 0.49311 0.35956 0.8226 0.0
H1257 H 0.5149 0.40558 0.83273 0.0
C1258 C 0.48286 0.36266 0.77386 0.0
C1259 C 0.50527 0.37515 0.84308 0.0
C1260 C 0.51801 0.37254 0.8927 0.0
C1261 C 0.48413 0.38086 0.74575 0.0
C1262 C 0.49545 0.3968 0.76774 0.0
C1263 C 0.50598 0.39357 0.81598 0.0
C1264 C 0.49701 0.41676 0.741 0.0
C1265 C 0.47368 0.38255 0.69204 0.0
C1266 C 0.51578 0.42535 0.73078 0.0
C1267 C 0.51744 0.44419 0.70685 0.0
C1268 C 0.50037 0.45497 0.69224 0.0
C1269 C 0.48159 0.44626 0.70193 0.0
C1270 C 0.47992 0.42757 0.72682 0.0
H1271 H 0.47138 0.36771 0.67317 0.0
H1272 H 0.45881 0.38925 0.69829 0.0
H1273 H 0.48224 0.39205 0.6635 0.0
H1274 H 0.52924 0.41745 0.74127 0.0
H1275 H 0.53219 0.45033 0.7001 0.0
H1276 H 0.19854 0.49715 0.95593 0.0
H1277 H 0.1682 0.50328 0.90436 0.0
H1278 H 0.1998 0.49188 0.7562 0.0
H1279 H 0.23041 0.48613 0.80727 0.0
H1280 H 0.15997 0.53096 0.8174 0.0
H1281 H 0.15228 0.45195 0.75337 0.0
H1282 H 0.16842 0.45955 0.80798 0.0
H1283 H 0.17585 0.46367 0.73921 0.0
C1284 C 0.19925 0.49633 0.91232 0.0
C1285 C 0.21707 0.49104 0.88601 0.0
C1286 C 0.18177 0.49971 0.88287 0.0
C1287 C 0.1816 0.49773 0.82644 0.0
C1288 C 0.19945 0.49311 0.79979 0.0
H1289 H 0.08236 0.50046 0.59538 0.0
H1290 H 0.11543 0.49819 0.63693 0.0
C1291 C 0.21697 0.48981 0.82917 0.0
C1292 C 0.16263 0.50007 0.79583 0.0
H1293 H 0.12837 0.47439 0.72047 0.0
C1294 C 0.15308 0.5186 0.79614 0.0
C1295 C 0.15366 0.48398 0.76776 0.0
C1296 C 0.16293 0.4636 0.76717 0.0
C1297 C 0.13488 0.52148 0.76912 0.0
C1298 C 0.12565 0.50526 0.7422 0.0
C1299 C 0.13538 0.48682 0.74112 0.0
C1300 C 0.10561 0.50693 0.71663 0.0
C1301 C 0.12583 0.54197 0.76899 0.0
C1302 C 0.08896 0.51221 0.74771 0.0
C1303 C 0.07007 0.51338 0.72418 0.0
C1304 C 0.06732 0.50913 0.6691 0.0
C1305 C 0.08399 0.5039 0.63789 0.0
C1306 C 0.1029 0.50261 0.66157 0.0
H1307 H 0.13722 0.5537 0.77663 0.0
H1308 H 0.11842 0.54515 0.72989 0.0
H1309 H 0.1145 0.54288 0.80151 0.0
H1310 H 0.09051 0.5152 0.79047 0.0
H1311 H 0.05759 0.51764 0.74923 0.0
H1312 H 0.9585 0.81124 0.33412 0.0
H1313 H 0.95784 0.84303 0.38257 0.0
H1314 H 0.01729 0.83274 0.4409 0.0
H1315 H 0.01833 0.80128 0.3919 0.0
H1316 H 0.99024 0.84783 0.52098 0.0
H1317 H 0.98984 0.89267 0.33238 0.0
H1318 H 0.97065 0.87401 0.33783 0.0
H1319 H 0.99624 0.86662 0.33309 0.0
C1320 C 0.97147 0.8157 0.35718 0.0
C1321 C 0.98849 0.80355 0.35871 0.0
C1322 C 0.97105 0.83391 0.38494 0.0
C1323 C 0.98763 0.84042 0.41482 0.0
C1324 C 1.00432 0.82805 0.41813 0.0
H1325 H 0.02367 0.94501 0.59942 0.0
H1326 H 0.02007 0.9118 0.5604 0.0
C1327 C 0.0048 0.80991 0.39029 0.0
C1328 C 0.98793 0.86036 0.44133 0.0
H1329 H 0.98808 0.91026 0.41443 0.0
C1330 C 0.98971 0.8615 0.49775 0.0
C1331 C 0.98726 0.8782 0.41103 0.0
C1332 C 0.98605 0.87795 0.3502 0.0
C1333 C 0.99062 0.87995 0.52471 0.0
C1334 C 0.99028 0.89783 0.49432 0.0
C1335 C 0.98833 0.89664 0.43789 0.0
C1336 C 0.99222 0.91793 0.51981 0.0
C1337 C 0.99158 0.88002 0.58559 0.0
C1338 C 0.97813 0.9328 0.50908 0.0
C1339 C 0.98037 0.95196 0.53073 0.0
C1340 C 0.99675 0.95674 0.56372 0.0
C1341 C 0.01075 0.9418 0.57481 0.0
C1342 C 0.00863 0.92271 0.55269 0.0
H1343 H 0.98525 0.86609 0.60287 0.0
H1344 H 0.00737 0.88103 0.59837 0.0
H1345 H 0.98346 0.89287 0.60288 0.0
H1346 H 0.96536 0.92959 0.48377 0.0
H1347 H 0.96918 0.96298 0.52182 0.0
H1348 H 0.71064 0.03112 0.3537 0.0
H1349 H 0.68016 0.02967 0.40666 0.0
H1350 H 0.69466 0.97039 0.45918 0.0
H1351 H 0.72565 0.9718 0.40661 0.0
H1352 H 0.65553 0.97371 0.42347 0.0
H1353 H 0.67227 0.03383 0.56952 0.0
H1354 H 0.67564 0.04157 0.50076 0.0
H1355 H 0.69126 0.02245 0.52834 0.0
C1356 C 0.70774 0.0179 0.37749 0.0
C1357 C 0.72097 1.00169 0.37627 0.0
C1358 C 0.69015 0.0171 0.40778 0.0
C1359 C 0.6852 1.00009 0.43792 0.0
C1360 C 0.6982 0.98377 0.43664 0.0
H1361 H 0.57982 0.99982 0.6538 0.0
H1362 H 0.61426 0.99691 0.62056 0.0
C1363 C 0.71591 0.98457 0.40633 0.0
C1364 C 0.66595 0.99918 0.46825 0.0
H1365 H 0.6379 0.02429 0.56118 0.0
C1366 C 0.65179 0.98462 0.45407 0.0
C1367 C 0.66105 0.01322 0.50881 0.0
C1368 C 0.67593 0.02853 0.5282 0.0
C1369 C 0.63264 0.98432 0.47734 0.0
C1370 C 0.62736 0.99911 0.51544 0.0
C1371 C 0.64182 0.01307 0.53159 0.0
C1372 C 0.6066 1.00099 0.53643 0.0
C1373 C 0.61815 0.96822 0.46055 0.0
C1374 C 0.59091 1.00476 0.50057 0.0
C1375 C 0.57138 0.00652 0.51942 0.0
C1376 C 0.56694 1.00449 0.5747 0.0
C1377 C 0.58271 1.00125 0.61094 0.0
C1378 C 0.60238 0.99957 0.59197 0.0
H1379 H 0.62598 0.95501 0.44422 0.0
H1380 H 0.60866 0.96345 0.49499 0.0
H1381 H 0.60831 0.97405 0.42834 0.0
H1382 H 0.59381 0.00652 0.45779 0.0
H1383 H 0.55975 0.00972 0.49051 0.0
H1384 H 0.55618 0.71418 0.36026 0.0
H1385 H 0.55492 0.68237 0.40902 0.0
H1386 H 0.49199 0.68978 0.43528 0.0
H1387 H 0.49298 0.72123 0.38603 0.0
H1388 H 0.54063 0.67267 0.51837 0.0
H1389 H 0.49693 0.63515 0.35728 0.0
H1390 H 0.51026 0.65821 0.34617 0.0
H1391 H 0.48675 0.65824 0.38084 0.0
C1392 C 0.54207 0.70908 0.37652 0.0
C1393 C 0.52469 0.72039 0.36902 0.0
C1394 C 0.5414 0.69091 0.40462 0.0
C1395 C 0.52331 0.68353 0.42526 0.0
C1396 C 0.50609 0.69503 0.41923 0.0
H1397 H 0.48123 0.57249 0.5655 0.0
H1398 H 0.48504 0.60595 0.52835 0.0
C1399 C 0.50675 0.71319 0.39149 0.0
C1400 C 0.5222 0.66359 0.45173 0.0
H1401 H 0.50127 0.61735 0.43857 0.0
C1402 C 0.53208 0.66052 0.50094 0.0
C1403 C 0.51108 0.64773 0.42895 0.0
C1404 C 0.50077 0.64984 0.37518 0.0
C1405 C 0.53069 0.64223 0.52872 0.0
C1406 C 0.51941 0.62635 0.50609 0.0
C1407 C 0.50976 0.62944 0.45644 0.0
C1408 C 0.51725 0.60642 0.53273 0.0
C1409 C 0.54098 0.64042 0.5826 0.0
C1410 C 0.53399 0.59537 0.54844 0.0
C1411 C 0.53176 0.5764 0.57138 0.0
C1412 C 0.51281 0.56762 0.57729 0.0
C1413 C 0.49607 0.57871 0.56169 0.0
C1414 C 0.49826 0.59786 0.53999 0.0
H1415 H 0.54271 0.65517 0.60241 0.0
H1416 H 0.53277 0.63035 0.61038 0.0
H1417 H 0.55612 0.63434 0.57621 0.0
H1418 H 0.54885 0.60125 0.54226 0.0
H1419 H 0.54497 0.56856 0.58392 0.0
H1420 H 0.79836 0.55859 0.39481 0.0
H1421 H 0.83133 0.56024 0.43736 0.0
H1422 H 0.84084 0.49848 0.39909 0.0
H1423 H 0.80837 0.49675 0.35584 0.0
H1424 H 0.85083 0.50848 0.50654 0.0
H1425 H 0.88581 0.56072 0.35972 0.0
H1426 H 0.86292 0.56877 0.39023 0.0
H1427 H 0.86279 0.54772 0.34557 0.0
C1428 C 0.80748 0.54537 0.39514 0.0
C1429 C 0.80043 0.52749 0.37204 0.0
C1430 C 0.82638 0.54635 0.4195 0.0
C1431 C 0.83871 0.52951 0.4211 0.0
C1432 C 0.83164 0.51166 0.3986 0.0
H1433 H 0.95471 0.49079 0.52552 0.0
H1434 H 0.92075 0.49451 0.4921 0.0
C1435 C 0.81288 0.51068 0.3742 0.0
C1436 C 0.85892 0.53016 0.4463 0.0
H1437 H 0.90583 0.5497 0.43169 0.0
C1438 C 0.86282 0.51758 0.49029 0.0
C1439 C 0.8746 0.54209 0.4254 0.0
C1440 C 0.87148 0.55551 0.37739 0.0
C1441 C 0.8819 0.51645 0.51354 0.0
C1442 C 0.89775 0.52786 0.4915 0.0
C1443 C 0.89375 0.54088 0.44848 0.0
C1444 C 0.91868 0.52586 0.51118 0.0
C1445 C 0.88485 0.5031 0.56184 0.0
C1446 C 0.9292 0.54234 0.53179 0.0
C1447 C 0.94875 0.54024 0.551 0.0
C1448 C 0.95832 0.52168 0.54933 0.0
C1449 C 0.94782 0.50529 0.52789 0.0
C1450 C 0.92831 0.50738 0.50888 0.0
H1451 H 0.87061 0.50026 0.58346 0.0
H1452 H 0.8907 0.48856 0.54805 0.0
H1453 H 0.89569 0.50969 0.59069 0.0
H1454 H 0.92216 0.55678 0.53392 0.0
H1455 H 0.95619 0.55306 0.56813 0.0
loop_
_geom_bond_atom_site_label_1
_geom_bond_atom_site_label_2
_geom_bond_distance
_geom_bond_site_symmetry_2
_ccdc_geom_bond_type
P0 O11 1.490 . S
P0 C14 1.812 . S
P0 C20 1.803 . S
P0 C26 1.819 . S
H1 C15 0.941 . S
H2 C16 0.939 . S
H3 C18 0.940 . S
H4 C19 0.940 . S
H5 C21 0.939 . S
H6 C22 0.942 . S
H7 C24 0.940 . S
H8 C25 0.939 . S
H9 C27 0.941 . S
H10 C31 0.939 . S
O11 P0 1.490 . S
H12 C28 0.939 . S
H13 C30 0.940 . S
C14 P0 1.812 . S
C14 C15 1.389 . S
C14 C19 1.391 . S
C15 H1 0.941 . S
C15 C14 1.389 . S
C15 C16 1.397 . S
C16 H2 0.939 . S
C16 C15 1.397 . S
C16 C17 1.378 . S
C17 C16 1.378 . S
C17 C18 1.378 . S
C18 H3 0.940 . S
C18 C17 1.378 . S
C18 C19 1.396 . S
C19 H4 0.940 . S
C19 C14 1.391 . S
C19 C18 1.396 . S
C20 P0 1.803 . S
C20 C21 1.378 . S
C20 C25 1.400 . S
C21 H5 0.939 . S
C21 C20 1.378 . S
C21 C22 1.361 . S
C22 H6 0.942 . S
C22 C21 1.361 . S
C22 C23 1.369 . S
C23 C22 1.369 . S
C23 C24 1.404 . S
C24 H7 0.940 . S
C24 C23 1.404 . S
C24 C25 1.389 . S
C25 H8 0.939 . S
C25 C20 1.400 . S
C25 C24 1.389 . S
C26 P0 1.819 . S
C26 C27 1.391 . S
C26 C31 1.391 . S
C27 H9 0.941 . S
C27 C26 1.391 . S
C27 C28 1.396 . S
C28 H12 0.939 . S
C28 C27 1.396 . S
C28 C29 1.397 . S
C29 C28 1.397 . S
C29 C30 1.385 . S
C30 H13 0.940 . S
C30 C29 1.385 . S
C30 C31 1.388 . S
C31 H10 0.939 . S
C31 C26 1.391 . S
C31 C30 1.388 . S
P32 O43 1.490 1_655 S
P32 C46 1.812 . S
P32 C52 1.803 . S
P32 C58 1.819 . S
H33 C47 0.941 1_455 S
H34 C48 0.939 . S
H35 C50 0.940 . S
H36 C51 0.940 . S
H37 C53 0.939 1_455 S
H38 C54 0.942 . S
H39 C56 0.940 . S
H40 C57 0.939 . S
H41 C59 0.941 1_455 S
H42 C63 0.939 . S
O43 P32 1.490 1_455 S
H44 C60 0.939 . S
H45 C62 0.940 . S
C46 P32 1.812 . S
C46 C47 1.389 . S
C46 C51 1.391 . S
C47 H33 0.941 1_655 S
C47 C46 1.389 . S
C47 C48 1.397 . S
C48 H34 0.939 . S
C48 C47 1.397 . S
C48 C49 1.378 . S
C49 C48 1.378 . S
C49 C50 1.378 . S
C50 H35 0.940 . S
C50 C49 1.378 . S
C50 C51 1.396 . S
C51 H36 0.940 . S
C51 C46 1.391 . S
C51 C50 1.396 . S
C52 P32 1.803 . S
C52 C53 1.378 . S
C52 C57 1.400 . S
C53 H37 0.939 1_655 S
C53 C52 1.378 . S
C53 C54 1.361 . S
C54 H38 0.942 . S
C54 C53 1.361 . S
C54 C55 1.369 . S
C55 C54 1.369 . S
C55 C56 1.404 . S
C56 H39 0.940 . S
C56 C55 1.404 . S
C56 C57 1.389 . S
C57 H40 0.939 . S
C57 C52 1.400 . S
C57 C56 1.389 . S
C58 P32 1.819 . S
C58 C59 1.391 . S
C58 C63 1.391 . S
C59 H41 0.941 1_655 S
C59 C58 1.391 . S
C59 C60 1.396 . S
C60 H44 0.939 . S
C60 C59 1.396 . S
C60 C61 1.397 . S
C61 C60 1.397 . S
C61 C62 1.385 . S
C62 H45 0.940 . S
C62 C61 1.385 . S
C62 C63 1.388 . S
C63 H42 0.939 . S
C63 C58 1.391 . S
C63 C62 1.388 . S
P64 O75 1.490 1_565 S
P64 C78 1.812 . S
P64 C84 1.803 . S
P64 C90 1.819 . S
H65 C79 0.941 1_545 S
H66 C80 0.939 . S
H67 C82 0.940 . S
H68 C83 0.940 . S
H69 C85 0.939 1_545 S
H70 C86 0.942 . S
H71 C88 0.940 . S
H72 C89 0.939 . S
H73 C91 0.941 1_545 S
H74 C95 0.939 . S
O75 P64 1.490 1_545 S
H76 C92 0.939 . S
H77 C94 0.940 . S
C78 P64 1.812 . S
C78 C79 1.389 . S
C78 C83 1.391 . S
C79 H65 0.941 1_565 S
C79 C78 1.389 . S
C79 C80 1.397 . S
C80 H66 0.939 . S
C80 C79 1.397 . S
C80 C81 1.378 . S
C81 C80 1.378 . S
C81 C82 1.378 . S
C82 H67 0.940 . S
C82 C81 1.378 . S
C82 C83 1.396 . S
C83 H68 0.940 . S
C83 C78 1.391 . S
C83 C82 1.396 . S
C84 P64 1.803 . S
C84 C85 1.378 . S
C84 C89 1.400 . S
C85 H69 0.939 1_565 S
C85 C84 1.378 . S
C85 C86 1.361 . S
C86 H70 0.942 . S
C86 C85 1.361 . S
C86 C87 1.369 . S
C87 C86 1.369 . S
C87 C88 1.404 . S
C88 H71 0.940 . S
C88 C87 1.404 . S
C88 C89 1.389 . S
C89 H72 0.939 . S
C89 C84 1.400 . S
C89 C88 1.389 . S
C90 P64 1.819 . S
C90 C91 1.391 . S
C90 C95 1.391 . S
C91 H73 0.941 1_565 S
C91 C90 1.391 . S
C91 C92 1.396 . S
C92 H76 0.939 . S
C92 C91 1.396 . S
C92 C93 1.397 . S
C93 C92 1.397 . S
C93 C94 1.385 . S
C94 H77 0.940 . S
C94 C93 1.385 . S
C94 C95 1.388 . S
C95 H74 0.939 . S
C95 C90 1.391 . S
C95 C94 1.388 . S
P96 O107 1.490 . S
P96 C110 1.812 . S
P96 C116 1.803 . S
P96 C122 1.819 . S
H97 C111 0.941 . S
H98 C112 0.939 . S
H99 C114 0.940 . S
H100 C115 0.940 . S
H101 C117 0.939 . S
H102 C118 0.942 . S
H103 C120 0.940 . S
H104 C121 0.939 . S
H105 C123 0.941 . S
H106 C127 0.939 . S
O107 P96 1.490 . S
H108 C124 0.939 . S
H109 C126 0.940 . S
C110 P96 1.812 . S
C110 C111 1.389 . S
C110 C115 1.391 . S
C111 H97 0.941 . S
C111 C110 1.389 . S
C111 C112 1.397 . S
C112 H98 0.939 . S
C112 C111 1.397 . S
C112 C113 1.378 . S
C113 C112 1.378 . S
C113 C114 1.378 . S
C114 H99 0.940 . S
C114 C113 1.378 . S
C114 C115 1.396 . S
C115 H100 0.940 . S
C115 C110 1.391 . S
C115 C114 1.396 . S
C116 P96 1.803 . S
C116 C117 1.378 . S
C116 C121 1.400 . S
C117 H101 0.939 . S
C117 C116 1.378 . S
C117 C118 1.361 . S
C118 H102 0.942 . S
C118 C117 1.361 . S
C118 C119 1.369 . S
C119 C118 1.369 . S
C119 C120 1.404 . S
C120 H103 0.940 . S
C120 C119 1.404 . S
C120 C121 1.389 . S
C121 H104 0.939 . S
C121 C116 1.400 . S
C121 C120 1.389 . S
C122 P96 1.819 . S
C122 C123 1.391 . S
C122 C127 1.391 . S
C123 H105 0.941 . S
C123 C122 1.391 . S
C123 C124 1.396 . S
C124 H108 0.939 . S
C124 C123 1.396 . S
C124 C125 1.397 . S
C125 C124 1.397 . S
C125 C126 1.385 . S
C126 H109 0.940 . S
C126 C125 1.385 . S
C126 C127 1.388 . S
C127 H106 0.939 . S
C127 C122 1.391 . S
C127 C126 1.388 . S
P128 O139 1.490 . S
P128 C142 1.812 1_554 S
P128 C148 1.803 . S
P128 C154 1.819 . S
H129 C143 0.941 . S
H130 C144 0.939 . S
H131 C146 0.940 . S
H132 C147 0.957 . S
H133 C149 0.939 . S
H134 C150 0.942 . S
H135 C152 0.940 . S
H136 C153 0.939 . S
H137 C155 0.941 . S
H138 C159 0.939 . S
O139 P128 1.490 . S
H140 C156 0.939 . S
H141 C158 0.940 . S
C142 P128 1.812 1_556 S
C142 C143 1.389 . S
C142 C147 1.391 . S
C143 H129 0.941 . S
C143 C142 1.389 . S
C143 C144 1.397 . S
C144 H130 0.939 . S
C144 C143 1.397 . S
C144 C145 1.378 . S
C145 C144 1.378 . S
C145 C146 1.378 . S
C146 H131 0.940 . S
C146 C145 1.378 . S
C146 C147 1.396 . S
C147 H132 0.957 . S
C147 C142 1.391 . S
C147 C146 1.396 . S
C148 P128 1.803 . S
C148 C149 1.378 . S
C148 C153 1.400 . S
C149 H133 0.939 . S
C149 C148 1.378 . S
C149 C150 1.361 . S
C150 H134 0.942 . S
C150 C149 1.361 . S
C150 C151 1.369 . S
C151 C150 1.369 . S
C151 C152 1.404 . S
C152 H135 0.940 . S
C152 C151 1.404 . S
C152 C153 1.389 . S
C153 H136 0.939 . S
C153 C148 1.400 . S
C153 C152 1.389 . S
C154 P128 1.819 . S
C154 C155 1.391 . S
C154 C159 1.391 . S
C155 H137 0.941 . S
C155 C154 1.391 . S
C155 C156 1.396 . S
C156 H140 0.939 . S
C156 C155 1.396 . S
C156 C157 1.397 . S
C157 C156 1.397 . S
C157 C158 1.385 . S
C158 H141 0.940 . S
C158 C157 1.385 . S
C158 C159 1.388 . S
C159 H138 0.939 . S
C159 C154 1.391 . S
C159 C158 1.388 . S
P160 O171 1.490 . S
P160 C174 1.812 1_554 S
P160 C180 1.803 . S
P160 C186 1.819 . S
H161 C175 0.941 . S
H162 C176 0.939 . S
H163 C178 0.940 . S
H164 C179 0.927 1_554 S
H165 C181 0.939 . S
H166 C182 0.942 . S
H167 C184 0.940 . S
H168 C185 0.939 . S
H169 C187 0.941 . S
H170 C191 0.939 . S
O171 P160 1.490 . S
H172 C188 0.939 . S
H173 C190 0.940 . S
C174 P160 1.812 1_556 S
C174 C175 1.389 . S
C174 C179 1.391 . S
C175 H161 0.941 . S
C175 C174 1.389 . S
C175 C176 1.397 . S
C176 H162 0.939 . S
C176 C175 1.397 . S
C176 C177 1.378 . S
C177 C176 1.378 . S
C177 C178 1.378 . S
C178 H163 0.940 . S
C178 C177 1.378 . S
C178 C179 1.396 . S
C179 H164 0.927 1_556 S
C179 C174 1.391 . S
C179 C178 1.396 . S
C180 P160 1.803 . S
C180 C181 1.378 . S
C180 C185 1.400 . S
C181 H165 0.939 . S
C181 C180 1.378 . S
C181 C182 1.361 . S
C182 H166 0.942 . S
C182 C181 1.361 . S
C182 C183 1.369 . S
C183 C182 1.369 . S
C183 C184 1.404 . S
C184 H167 0.940 . S
C184 C183 1.404 . S
C184 C185 1.389 . S
C185 H168 0.939 . S
C185 C180 1.400 . S
C185 C184 1.389 . S
C186 P160 1.819 . S
C186 C187 1.391 . S
C186 C191 1.391 . S
C187 H169 0.941 . S
C187 C186 1.391 . S
C187 C188 1.396 . S
C188 H172 0.939 . S
C188 C187 1.396 . S
C188 C189 1.397 . S
C189 C188 1.397 . S
C189 C190 1.385 . S
C190 H173 0.940 . S
C190 C189 1.385 . S
C190 C191 1.388 . S
C191 H170 0.939 . S
C191 C186 1.391 . S
C191 C190 1.388 . S
P192 O203 1.490 . S
P192 C206 1.812 1_554 S
P192 C212 1.803 . S
P192 C218 1.819 . S
H193 C207 0.941 . S
H194 C208 0.939 . S
H195 C210 0.940 . S
H196 C211 0.937 1_554 S
H197 C213 0.939 . S
H198 C214 0.942 . S
H199 C216 0.940 . S
H200 C217 0.939 . S
H201 C219 0.941 . S
H202 C223 0.939 . S
O203 P192 1.490 . S
H204 C220 0.939 . S
H205 C222 0.940 . S
C206 P192 1.812 1_556 S
C206 C207 1.389 . S
C206 C211 1.391 . S
C207 H193 0.941 . S
C207 C206 1.389 . S
C207 C208 1.397 . S
C208 H194 0.939 . S
C208 C207 1.397 . S
C208 C209 1.378 . S
C209 C208 1.378 . S
C209 C210 1.378 . S
C210 H195 0.940 . S
C210 C209 1.378 . S
C210 C211 1.396 . S
C211 H196 0.937 1_556 S
C211 C206 1.391 . S
C211 C210 1.396 . S
C212 P192 1.803 . S
C212 C213 1.378 . S
C212 C217 1.400 . S
C213 H197 0.939 . S
C213 C212 1.378 . S
C213 C214 1.361 . S
C214 H198 0.942 . S
C214 C213 1.361 . S
C214 C215 1.369 . S
C215 C214 1.369 . S
C215 C216 1.404 . S
C216 H199 0.940 . S
C216 C215 1.404 . S
C216 C217 1.389 . S
C217 H200 0.939 . S
C217 C212 1.400 . S
C217 C216 1.389 . S
C218 P192 1.819 . S
C218 C219 1.391 . S
C218 C223 1.391 . S
C219 H201 0.941 . S
C219 C218 1.391 . S
C219 C220 1.396 . S
C220 H204 0.939 . S
C220 C219 1.396 . S
C220 C221 1.397 . S
C221 C220 1.397 . S
C221 C222 1.385 . S
C222 H205 0.940 . S
C222 C221 1.385 . S
C222 C223 1.388 . S
C223 H202 0.939 . S
C223 C218 1.391 . S
C223 C222 1.388 . S
P224 O235 1.490 . S
P224 C238 1.812 1_554 S
P224 C244 1.803 . S
P224 C250 1.819 . S
H225 C239 0.941 . S
H226 C240 0.939 . S
H227 C242 0.940 . S
H228 C243 0.940 . S
H229 C245 0.939 . S
H230 C246 0.942 . S
H231 C248 0.940 . S
H232 C249 0.939 . S
H233 C251 0.941 . S
H234 C255 0.939 . S
O235 P224 1.490 . S
H236 C252 0.939 . S
H237 C254 0.940 . S
C238 P224 1.812 1_556 S
C238 C239 1.389 . S
C238 C243 1.391 . S
C239 H225 0.941 . S
C239 C238 1.389 . S
C239 C240 1.397 . S
C240 H226 0.939 . S
C240 C239 1.397 . S
C240 C241 1.378 . S
C241 C240 1.378 . S
C241 C242 1.378 . S
C242 H227 0.940 . S
C242 C241 1.378 . S
C242 C243 1.396 . S
C243 H228 0.940 . S
C243 C238 1.391 . S
C243 C242 1.396 . S
C244 P224 1.803 . S
C244 C245 1.378 . S
C244 C249 1.400 . S
C245 H229 0.939 . S
C245 C244 1.378 . S
C245 C246 1.361 . S
C246 H230 0.942 . S
C246 C245 1.361 . S
C246 C247 1.369 . S
C247 C246 1.369 . S
C247 C248 1.404 . S
C248 H231 0.940 . S
C248 C247 1.404 . S
C248 C249 1.389 . S
C249 H232 0.939 . S
C249 C244 1.400 . S
C249 C248 1.389 . S
C250 P224 1.819 . S
C250 C251 1.391 . S
C250 C255 1.391 . S
C251 H233 0.941 . S
C251 C250 1.391 . S
C251 C252 1.396 . S
C252 H236 0.939 . S
C252 C251 1.396 . S
C252 C253 1.397 . S
C253 C252 1.397 . S
C253 C254 1.385 . S
C254 H237 0.940 . S
C254 C253 1.385 . S
C254 C255 1.388 . S
C255 H234 0.939 . S
C255 C250 1.391 . S
C255 C254 1.388 . S
Eu256 N285 2.600 . S
Eu256 N291 2.562 . S
Eu256 O300 2.466 . S
Eu256 O301 2.373 1_545 S
Eu256 O303 2.432 . S
Eu256 O304 2.291 1_655 S
Eu256 O308 2.335 1_655 S
Eu256 O311 2.372 . S
Eu256 C320 2.787 . S
C257 N258 1.349 1_545 S
C257 C260 1.405 . S
C257 C264 1.448 . S
N258 C257 1.349 1_565 S
N258 C261 1.324 . S
N258 Eu267 2.608 . S
C259 C261 1.397 1_545 S
C259 C262 1.367 . S
C259 H279 0.931 . S
C260 C257 1.405 . S
C260 C262 1.403 . S
C260 C266 1.439 . S
C261 N258 1.324 . S
C261 C259 1.397 1_565 S
C261 H272 0.930 . S
C262 C259 1.367 . S
C262 C260 1.403 . S
C262 H283 0.929 . S
C263 C264 1.430 . S
C263 C265 1.387 . S
C263 C269 1.404 . S
C264 C257 1.448 . S
C264 C263 1.430 . S
C264 N268 1.351 . S
C265 C263 1.387 . S
C265 C266 1.374 . S
C265 H280 0.931 . S
C266 C260 1.439 . S
C266 C265 1.374 . S
C266 H281 0.931 . S
Eu267 N258 2.608 . S
Eu267 N268 2.562 1_565 S
Eu267 O302 2.335 . S
Eu267 O305 2.372 . S
Eu267 O306 2.462 . S
Eu267 O307 2.373 1_565 S
Eu267 O309 2.432 . S
Eu267 O310 2.291 1_465 S
Eu267 C331 2.787 . S
N268 C264 1.351 . S
N268 Eu267 2.562 1_545 S
N268 C270 1.325 . S
C269 C263 1.404 . S
C269 C271 1.366 . S
C269 H277 0.930 . S
C270 N268 1.325 . S
C270 C271 1.416 . S
C270 H276 0.932 1_455 S
C271 C269 1.366 . S
C271 C270 1.416 . S
C271 H273 0.916 1_455 S
H272 C261 0.930 . S
H273 C271 0.916 1_655 S
H274 C289 0.930 . S
H275 C296 0.936 1_455 S
H276 C270 0.932 1_655 S
H277 C269 0.930 . S
H278 C292 0.890 1_455 S
H279 C259 0.931 . S
H280 C265 0.931 . S
H281 C266 0.931 . S
H282 C287 0.931 . S
H283 C262 0.929 . S
H284 C295 0.930 . S
N285 Eu256 2.600 . S
N285 C286 1.365 . S
N285 C289 1.319 . S
C286 N285 1.365 . S
C286 C288 1.405 1_545 S
C286 C294 1.448 . S
C287 H282 0.931 . S
C287 C289 1.397 . S
C287 C290 1.388 . S
C288 C286 1.405 1_565 S
C288 C290 1.398 1_565 S
C288 C321 1.439 . S
C289 H274 0.930 . S
C289 N285 1.319 . S
C289 C287 1.397 . S
C290 C287 1.388 . S
C290 C288 1.398 1_545 S
C290 H297 0.916 1_545 S
N291 Eu256 2.562 . S
N291 C292 1.360 . S
N291 C294 1.351 . S
C292 H278 0.890 1_655 S
C292 N291 1.360 . S
C292 C296 1.396 1_545 S
C293 C294 1.430 1_565 S
C293 C295 1.404 . S
C293 C322 1.387 . S
C294 C286 1.448 . S
C294 N291 1.351 . S
C294 C293 1.430 1_545 S
C295 H284 0.930 . S
C295 C293 1.404 . S
C295 C296 1.384 . S
C296 H275 0.936 1_655 S
C296 C292 1.396 1_565 S
C296 C295 1.384 . S
H297 C290 0.916 1_565 S
H298 C321 0.931 . S
H299 C322 0.931 . S
O300 Eu256 2.466 . S
O300 C320 1.264 . S
O301 Eu256 2.373 1_565 S
O301 C312 1.249 . S
O302 Eu267 2.335 . S
O302 C312 1.264 1_455 S
O303 Eu256 2.432 . S
O303 C320 1.268 . S
O304 Eu256 2.291 1_455 S
O304 C319 1.255 . S
O305 Eu267 2.372 . S
O305 C319 1.257 1_565 S
O306 Eu267 2.462 . S
O306 C331 1.252 . S
O307 Eu267 2.373 1_545 S
O307 C323 1.249 . S
O308 Eu256 2.335 1_455 S
O308 C323 1.264 . S
O309 Eu267 2.432 . S
O309 C331 1.268 . S
O310 Eu267 2.291 1_645 S
O310 C330 1.255 . S
O311 Eu256 2.372 . S
O311 C330 1.257 . S
C312 O301 1.249 . S
C312 O302 1.264 1_655 S
C313 C316 1.382 . S
C313 C318 1.390 . S
C313 C320 1.506 . S
C314 C315 1.398 . S
C314 C318 1.392 . S
C315 C314 1.398 . S
C315 C317 1.372 . S
C315 H332 0.931 . S
C316 C313 1.382 . S
C316 C317 1.390 . S
C316 H333 0.931 . S
C317 C315 1.372 . S
C317 C316 1.390 . S
C317 H334 0.929 . S
C318 C313 1.390 . S
C318 C314 1.392 . S
C318 H335 0.930 1_655 S
C319 O304 1.255 . S
C319 O305 1.257 1_545 S
C320 Eu256 2.787 . S
C320 O300 1.264 . S
C320 O303 1.268 . S
C320 C313 1.506 . S
C321 C288 1.439 . S
C321 H298 0.931 . S
C321 C322 1.374 . S
C322 C293 1.387 . S
C322 H299 0.931 . S
C322 C321 1.374 . S
C323 O307 1.249 . S
C323 O308 1.264 . S
C324 C327 1.382 . S
C324 C328 1.390 . S
C324 C331 1.506 . S
C325 C326 1.398 . S
C325 C328 1.392 . S
C326 C325 1.398 . S
C326 C329 1.372 . S
C326 H336 0.931 . S
C327 C324 1.382 . S
C327 C329 1.390 . S
C327 H337 0.931 . S
C328 C324 1.390 . S
C328 C325 1.392 . S
C328 H338 0.905 1_455 S
C329 C326 1.372 . S
C329 C327 1.390 . S
C329 H339 0.929 . S
C330 O310 1.255 . S
C330 O311 1.257 . S
C331 Eu267 2.787 . S
C331 O306 1.252 . S
C331 O309 1.268 . S
C331 C324 1.506 . S
H332 C315 0.931 . S
H333 C316 0.931 . S
H334 C317 0.929 . S
H335 C318 0.930 1_455 S
H336 C326 0.931 . S
H337 C327 0.931 . S
H338 C328 0.905 1_655 S
H339 C329 0.929 . S
Eu340 N369 2.600 . S
Eu340 N375 2.562 . S
Eu340 O384 2.462 . S
Eu340 O385 2.373 . S
Eu340 O387 2.432 . S
Eu340 O388 2.291 . S
Eu340 O392 2.335 1_545 S
Eu340 O395 2.372 . S
Eu340 C404 2.787 . S
C341 N342 1.365 . S
C341 C344 1.405 . S
C341 C348 1.448 . S
N342 C341 1.365 . S
N342 C345 1.319 . S
N342 Eu351 2.600 . S
C343 C345 1.397 . S
C343 C346 1.367 . S
C343 H363 0.931 . S
C344 C341 1.405 . S
C344 C346 1.403 . S
C344 C350 1.439 . S
C345 N342 1.319 . S
C345 C343 1.397 . S
C345 H356 0.930 . S
C346 C343 1.367 . S
C346 C344 1.403 . S
C346 H367 0.929 . S
C347 C348 1.430 . S
C347 C349 1.387 . S
C347 C353 1.404 . S
C348 C341 1.448 . S
C348 C347 1.430 . S
C348 N352 1.351 . S
C349 C347 1.387 . S
C349 C350 1.374 . S
C349 H364 0.931 . S
C350 C344 1.439 . S
C350 C349 1.374 . S
C350 H365 0.931 . S
Eu351 N342 2.600 . S
Eu351 N352 2.562 . S
Eu351 O386 2.335 1_565 S
Eu351 O389 2.372 . S
Eu351 O390 2.462 . S
Eu351 O391 2.373 . S
Eu351 O393 2.432 . S
Eu351 O394 2.291 1_565 S
Eu351 C415 2.787 . S
N352 C348 1.351 . S
N352 Eu351 2.562 . S
N352 C354 1.325 . S
C353 C347 1.404 . S
C353 C355 1.366 . S
C353 H361 0.930 . S
C354 N352 1.325 . S
C354 C355 1.416 . S
C354 H360 0.929 . S
C355 C353 1.366 . S
C355 C354 1.416 . S
C355 H357 0.930 . S
H356 C345 0.930 . S
H357 C355 0.930 . S
H358 C373 0.930 . S
H359 C380 0.930 . S
H360 C354 0.929 . S
H361 C353 0.930 . S
H362 C376 0.929 . S
H363 C343 0.931 . S
H364 C349 0.931 . S
H365 C350 0.931 . S
H366 C371 0.931 . S
H367 C346 0.929 . S
H368 C379 0.930 . S
N369 Eu340 2.600 . S
N369 C370 1.365 . S
N369 C373 1.319 . S
C370 N369 1.365 . S
C370 C372 1.405 . S
C370 C378 1.448 . S
C371 H366 0.931 . S
C371 C373 1.397 . S
C371 C374 1.367 . S
C372 C370 1.405 . S
C372 C374 1.403 . S
C372 C405 1.439 . S
C373 H358 0.930 . S
C373 N369 1.319 . S
C373 C371 1.397 . S
C374 C371 1.367 . S
C374 C372 1.403 . S
C374 H381 0.929 . S
N375 Eu340 2.562 . S
N375 C376 1.325 . S
N375 C378 1.351 . S
C376 H362 0.929 . S
C376 N375 1.325 . S
C376 C380 1.416 . S
C377 C378 1.430 . S
C377 C379 1.404 . S
C377 C406 1.387 . S
C378 C370 1.448 . S
C378 N375 1.351 . S
C378 C377 1.430 . S
C379 H368 0.930 . S
C379 C377 1.404 . S
C379 C380 1.366 . S
C380 H359 0.930 . S
C380 C376 1.416 . S
C380 C379 1.366 . S
H381 C374 0.929 . S
H382 C405 0.931 . S
H383 C406 0.931 . S
O384 Eu340 2.462 . S
O384 C404 1.252 . S
O385 Eu340 2.373 . S
O385 C396 1.249 . S
O386 Eu351 2.335 1_545 S
O386 C396 1.264 . S
O387 Eu340 2.432 . S
O387 C404 1.268 . S
O388 Eu340 2.291 . S
O388 C403 1.255 1_545 S
O389 Eu351 2.372 . S
O389 C403 1.257 . S
O390 Eu351 2.462 . S
O390 C415 1.252 . S
O391 Eu351 2.373 . S
O391 C407 1.249 . S
O392 Eu340 2.335 1_565 S
O392 C407 1.264 . S
O393 Eu351 2.432 . S
O393 C415 1.268 . S
O394 Eu351 2.291 1_545 S
O394 C414 1.255 . S
O395 Eu340 2.372 . S
O395 C414 1.257 . S
C396 O385 1.249 . S
C396 O386 1.264 . S
C397 C400 1.382 . S
C397 C402 1.390 . S
C397 C404 1.506 . S
C398 C399 1.398 . S
C398 C402 1.392 . S
C399 C398 1.398 . S
C399 C401 1.372 . S
C399 H416 0.931 . S
C400 C397 1.382 . S
C400 C401 1.390 . S
C400 H417 0.931 . S
C401 C399 1.372 . S
C401 C400 1.390 . S
C401 H418 0.929 . S
C402 C397 1.390 . S
C402 C398 1.392 . S
C402 H419 0.930 . S
C403 O388 1.255 1_565 S
C403 O389 1.257 . S
C404 Eu340 2.787 . S
C404 O384 1.252 . S
C404 O387 1.268 . S
C404 C397 1.506 . S
C405 C372 1.439 . S
C405 H382 0.931 . S
C405 C406 1.374 . S
C406 C377 1.387 . S
C406 H383 0.931 . S
C406 C405 1.374 . S
C407 O391 1.249 . S
C407 O392 1.264 . S
C408 C411 1.382 . S
C408 C412 1.390 1_565 S
C408 C415 1.506 . S
C409 C410 1.398 1_545 S
C409 C412 1.392 . S
C410 C409 1.398 1_565 S
C410 C413 1.372 . S
C410 H420 0.931 . S
C411 C408 1.382 . S
C411 C413 1.390 . S
C411 H421 0.931 . S
C412 C408 1.390 1_545 S
C412 C409 1.392 . S
C412 H422 0.930 . S
C413 C410 1.372 . S
C413 C411 1.390 . S
C413 H423 0.929 . S
C414 O394 1.255 . S
C414 O395 1.257 . S
C415 Eu351 2.787 . S
C415 O390 1.252 . S
C415 O393 1.268 . S
C415 C408 1.506 . S
H416 C399 0.931 . S
H417 C400 0.931 . S
H418 C401 0.929 . S
H419 C402 0.930 . S
H420 C410 0.931 . S
H421 C411 0.931 . S
H422 C412 0.930 . S
H423 C413 0.929 . S
Eu424 N453 2.600 . S
Eu424 N459 2.562 . S
Eu424 O468 2.462 . S
Eu424 O469 2.373 . S
Eu424 O471 2.432 . S
Eu424 O472 2.291 . S
Eu424 O476 2.335 . S
Eu424 O479 2.372 . S
Eu424 C488 2.787 . S
C425 N426 1.365 . S
C425 C428 1.405 . S
C425 C432 1.448 . S
N426 C425 1.365 . S
N426 C429 1.319 . S
N426 Eu435 2.600 . S
C427 C429 1.397 . S
C427 C430 1.367 . S
C427 H447 0.931 . S
C428 C425 1.405 . S
C428 C430 1.403 . S
C428 C434 1.439 . S
C429 N426 1.319 . S
C429 C427 1.397 . S
C429 H440 0.930 . S
C430 C427 1.367 . S
C430 C428 1.403 . S
C430 H451 0.929 . S
C431 C432 1.430 . S
C431 C433 1.387 . S
C431 C437 1.404 . S
C432 C425 1.448 . S
C432 C431 1.430 . S
C432 N436 1.351 . S
C433 C431 1.387 . S
C433 C434 1.374 . S
C433 H448 0.931 . S
C434 C428 1.439 . S
C434 C433 1.374 . S
C434 H449 0.931 . S
Eu435 N426 2.600 . S
Eu435 N436 2.562 . S
Eu435 O470 2.335 . S
Eu435 O473 2.372 . S
Eu435 O474 2.462 . S
Eu435 O475 2.373 . S
Eu435 O477 2.432 . S
Eu435 O478 2.291 . S
Eu435 C499 2.787 . S
N436 C432 1.351 . S
N436 Eu435 2.562 . S
N436 C438 1.325 . S
C437 C431 1.404 . S
C437 C439 1.366 . S
C437 H445 0.930 . S
C438 N436 1.325 . S
C438 C439 1.416 . S
C438 H444 0.929 . S
C439 C437 1.366 . S
C439 C438 1.416 . S
C439 H441 0.930 . S
H440 C429 0.930 . S
H441 C439 0.930 . S
H442 C457 0.930 . S
H443 C464 0.930 . S
H444 C438 0.929 . S
H445 C437 0.930 . S
H446 C460 0.929 . S
H447 C427 0.931 . S
H448 C433 0.931 . S
H449 C434 0.931 . S
H450 C455 0.931 . S
H451 C430 0.929 . S
H452 C463 0.930 . S
N453 Eu424 2.600 . S
N453 C454 1.365 . S
N453 C457 1.319 . S
C454 N453 1.365 . S
C454 C456 1.405 . S
C454 C462 1.448 . S
C455 H450 0.931 . S
C455 C457 1.397 . S
C455 C458 1.367 . S
C456 C454 1.405 . S
C456 C458 1.403 . S
C456 C489 1.439 . S
C457 H442 0.930 . S
C457 N453 1.319 . S
C457 C455 1.397 . S
C458 C455 1.367 . S
C458 C456 1.403 . S
C458 H465 0.929 . S
N459 Eu424 2.562 . S
N459 C460 1.325 . S
N459 C462 1.351 . S
C460 H446 0.929 . S
C460 N459 1.325 . S
C460 C464 1.416 . S
C461 C462 1.430 . S
C461 C463 1.404 . S
C461 C490 1.387 . S
C462 C454 1.448 . S
C462 N459 1.351 . S
C462 C461 1.430 . S
C463 H452 0.930 . S
C463 C461 1.404 . S
C463 C464 1.366 . S
C464 H443 0.930 . S
C464 C460 1.416 . S
C464 C463 1.366 . S
H465 C458 0.929 . S
H466 C489 0.931 . S
H467 C490 0.931 . S
O468 Eu424 2.462 . S
O468 C488 1.252 . S
O469 Eu424 2.373 . S
O469 C480 1.249 . S
O470 Eu435 2.335 . S
O470 C480 1.264 . S
O471 Eu424 2.432 . S
O471 C488 1.268 . S
O472 Eu424 2.291 . S
O472 C487 1.255 . S
O473 Eu435 2.372 . S
O473 C487 1.257 . S
O474 Eu435 2.462 . S
O474 C499 1.252 . S
O475 Eu435 2.373 . S
O475 C491 1.249 . S
O476 Eu424 2.335 . S
O476 C491 1.264 . S
O477 Eu435 2.432 . S
O477 C499 1.268 . S
O478 Eu435 2.291 . S
O478 C498 1.255 . S
O479 Eu424 2.372 . S
O479 C498 1.257 . S
C480 O469 1.249 . S
C480 O470 1.264 . S
C481 C484 1.382 . S
C481 C486 1.390 . S
C481 C488 1.506 . S
C482 C483 1.398 . S
C482 C486 1.392 . S
C483 C482 1.398 . S
C483 C485 1.372 . S
C483 H500 0.931 . S
C484 C481 1.382 . S
C484 C485 1.390 . S
C484 H501 0.931 . S
C485 C483 1.372 . S
C485 C484 1.390 . S
C485 H502 0.929 . S
C486 C481 1.390 . S
C486 C482 1.392 . S
C486 H503 0.930 . S
C487 O472 1.255 . S
C487 O473 1.257 . S
C488 Eu424 2.787 . S
C488 O468 1.252 . S
C488 O471 1.268 . S
C488 C481 1.506 . S
C489 C456 1.439 . S
C489 H466 0.931 . S
C489 C490 1.374 . S
C490 C461 1.387 . S
C490 H467 0.931 . S
C490 C489 1.374 . S
C491 O475 1.249 . S
C491 O476 1.264 . S
C492 C495 1.382 . S
C492 C496 1.390 . S
C492 C499 1.506 . S
C493 C494 1.398 . S
C493 C496 1.392 . S
C494 C493 1.398 . S
C494 C497 1.372 . S
C494 H504 0.931 . S
C495 C492 1.382 . S
C495 C497 1.390 . S
C495 H505 0.931 . S
C496 C492 1.390 . S
C496 C493 1.392 . S
C496 H506 0.930 . S
C497 C494 1.372 . S
C497 C495 1.390 . S
C497 H507 0.929 . S
C498 O478 1.255 . S
C498 O479 1.257 . S
C499 Eu435 2.787 . S
C499 O474 1.252 . S
C499 O477 1.268 . S
C499 C492 1.506 . S
H500 C483 0.931 . S
H501 C484 0.931 . S
H502 C485 0.929 . S
H503 C486 0.930 . S
H504 C494 0.931 . S
H505 C495 0.931 . S
H506 C496 0.930 . S
H507 C497 0.929 . S
Eu508 N537 2.600 . S
Eu508 N543 2.562 . S
Eu508 O552 2.462 . S
Eu508 O553 2.373 1_455 S
Eu508 O555 2.432 . S
Eu508 O556 2.291 . S
Eu508 O560 2.335 . S
Eu508 O563 2.372 . S
Eu508 C572 2.787 . S
C509 N510 1.365 1_455 S
C509 C512 1.405 . S
C509 C516 1.448 . S
N510 C509 1.365 1_655 S
N510 C513 1.319 . S
N510 Eu519 2.600 . S
C511 C513 1.397 1_455 S
C511 C514 1.367 . S
C511 H531 0.929 1_455 S
C512 C509 1.405 . S
C512 C514 1.403 . S
C512 C518 1.439 . S
C513 N510 1.319 . S
C513 C511 1.397 1_655 S
C513 H524 0.930 . S
C514 C511 1.367 . S
C514 C512 1.403 . S
C514 H535 0.929 . S
C515 C516 1.430 . S
C515 C517 1.387 . S
C515 C521 1.404 . S
C516 C509 1.448 . S
C516 C515 1.430 . S
C516 N520 1.367 . S
C517 C515 1.387 . S
C517 C518 1.374 . S
C517 H532 0.931 . S
C518 C512 1.439 . S
C518 C517 1.374 . S
C518 H533 0.931 . S
Eu519 N510 2.600 . S
Eu519 N520 2.549 1_655 S
Eu519 O554 2.335 . S
Eu519 O557 2.372 . S
Eu519 O558 2.462 . S
Eu519 O559 2.373 1_655 S
Eu519 O561 2.432 . S
Eu519 O562 2.297 . S
Eu519 C583 2.787 . S
N520 C516 1.367 . S
N520 Eu519 2.549 1_455 S
N520 C522 1.331 . S
C521 C515 1.404 . S
C521 C523 1.366 . S
C521 H529 0.930 . S
C522 N520 1.331 . S
C522 C523 1.416 . S
C522 H528 0.929 1_455 S
C523 C521 1.366 . S
C523 C522 1.416 . S
C523 H525 0.930 . S
H524 C513 0.930 . S
H525 C523 0.930 . S
H526 C541 0.930 . S
H527 C548 0.930 . S
H528 C522 0.929 1_655 S
H529 C521 0.930 . S
H530 C544 0.929 . S
H531 C511 0.929 1_655 S
H532 C517 0.931 . S
H533 C518 0.931 . S
H534 C539 0.931 . S
H535 C514 0.929 . S
H536 C547 0.930 . S
N537 Eu508 2.600 . S
N537 C538 1.365 . S
N537 C541 1.319 . S
C538 N537 1.365 . S
C538 C540 1.405 1_455 S
C538 C546 1.448 . S
C539 H534 0.931 . S
C539 C541 1.397 . S
C539 C542 1.372 . S
C540 C538 1.405 1_655 S
C540 C542 1.402 1_655 S
C540 C573 1.439 . S
C541 H526 0.930 . S
C541 N537 1.319 . S
C541 C539 1.397 . S
C542 C539 1.372 . S
C542 C540 1.402 1_455 S
C542 H549 0.926 1_455 S
N543 Eu508 2.562 . S
N543 C544 1.325 . S
N543 C546 1.351 . S
C544 H530 0.929 . S
C544 N543 1.325 . S
C544 C548 1.416 1_455 S
C545 C546 1.430 1_655 S
C545 C547 1.404 . S
C545 C574 1.387 . S
C546 C538 1.448 . S
C546 N543 1.351 . S
C546 C545 1.430 1_455 S
C547 H536 0.930 . S
C547 C545 1.404 . S
C547 C548 1.366 . S
C548 H527 0.930 . S
C548 C544 1.416 1_655 S
C548 C547 1.366 . S
H549 C542 0.926 1_655 S
H550 C573 0.931 . S
H551 C574 0.931 . S
O552 Eu508 2.462 . S
O552 C572 1.252 . S
O553 Eu508 2.373 1_655 S
O553 C564 1.249 . S
O554 Eu519 2.335 . S
O554 C564 1.264 . S
O555 Eu508 2.432 . S
O555 C572 1.268 . S
O556 Eu508 2.291 . S
O556 C571 1.255 . S
O557 Eu519 2.372 . S
O557 C571 1.257 1_655 S
O558 Eu519 2.462 . S
O558 C583 1.252 . S
O559 Eu519 2.373 1_455 S
O559 C575 1.249 . S
O560 Eu508 2.335 . S
O560 C575 1.264 . S
O561 Eu519 2.432 . S
O561 C583 1.268 . S
O562 Eu519 2.297 . S
O562 C582 1.251 1_655 S
O563 Eu508 2.372 . S
O563 C582 1.257 . S
C564 O553 1.249 . S
C564 O554 1.264 . S
C565 C568 1.382 . S
C565 C570 1.390 . S
C565 C572 1.506 . S
C566 C567 1.398 . S
C566 C570 1.392 . S
C567 C566 1.398 . S
C567 C569 1.372 . S
C567 H584 0.931 . S
C568 C565 1.382 . S
C568 C569 1.390 . S
C568 H585 0.931 . S
C569 C567 1.372 . S
C569 C568 1.390 . S
C569 H586 0.929 . S
C570 C565 1.390 . S
C570 C566 1.392 . S
C570 H587 0.930 . S
C571 O556 1.255 . S
C571 O557 1.257 1_455 S
C572 Eu508 2.787 . S
C572 O552 1.252 . S
C572 O555 1.268 . S
C572 C565 1.506 . S
C573 C540 1.439 . S
C573 H550 0.931 . S
C573 C574 1.374 . S
C574 C545 1.387 . S
C574 H551 0.931 . S
C574 C573 1.374 . S
C575 O559 1.249 . S
C575 O560 1.264 . S
C576 C579 1.382 . S
C576 C580 1.390 . S
C576 C583 1.506 . S
C577 C578 1.398 . S
C577 C580 1.392 . S
C578 C577 1.398 . S
C578 C581 1.372 . S
C578 H588 0.931 . S
C579 C576 1.382 . S
C579 C581 1.390 . S
C579 H589 0.931 . S
C580 C576 1.390 . S
C580 C577 1.392 . S
C580 H590 0.930 . S
C581 C578 1.372 . S
C581 C579 1.390 . S
C581 H591 0.929 . S
C582 O562 1.251 1_455 S
C582 O563 1.257 . S
C583 Eu519 2.787 . S
C583 O558 1.252 . S
C583 O561 1.268 . S
C583 C576 1.506 . S
H584 C567 0.931 . S
H585 C568 0.931 . S
H586 C569 0.929 . S
H587 C570 0.930 . S
H588 C578 0.931 . S
H589 C579 0.931 . S
H590 C580 0.930 . S
H591 C581 0.929 . S
H592 C600 0.929 . S
H593 C602 0.930 . S
H594 C604 0.930 . S
H595 C607 0.929 . S
H596 C610 0.930 . S
H597 C612 0.960 . S
H598 C612 0.960 . S
H599 C612 0.956 1_545 S
C600 H592 0.929 . S
C600 C601 1.377 . S
C600 C602 1.384 . S
C601 C600 1.377 . S
C601 C607 1.390 . S
C602 H593 0.930 . S
C602 C600 1.384 . S
C602 C603 1.372 . S
C603 C602 1.372 . S
C603 C604 1.400 . S
C603 C608 1.490 . S
C604 H594 0.930 . S
C604 C603 1.400 . S
C604 C607 1.386 . S
H605 C621 0.930 . S
H606 C622 0.931 . S
C607 H595 0.929 . S
C607 C601 1.390 . S
C607 C604 1.386 . S
C608 C603 1.490 . S
C608 C610 1.395 . S
C608 C611 1.403 . S
H609 C615 0.930 . S
C610 H596 0.930 . S
C610 C608 1.395 . S
C610 C613 1.403 . S
C611 C608 1.403 . S
C611 C612 1.524 1_545 S
C611 C615 1.400 . S
C612 H597 0.960 . S
C612 H598 0.960 . S
C612 H599 0.956 1_565 S
C612 C611 1.524 1_565 S
C613 C610 1.403 . S
C613 C614 1.392 . S
C613 C617 1.495 . S
C614 C613 1.392 . S
C614 C615 1.385 . S
C614 C616 1.478 . S
C615 H609 0.930 . S
C615 C611 1.400 . S
C615 C614 1.385 . S
C616 C614 1.478 . S
C616 C618 1.381 . S
C616 C622 1.383 . S
C617 C613 1.495 . S
C617 H623 0.959 . S
C617 H624 0.961 . S
C617 H625 0.960 . S
C618 C616 1.381 . S
C618 C619 1.394 . S
C618 H626 0.930 . S
C619 C618 1.394 . S
C619 C620 1.383 . S
C619 H627 0.929 . S
C620 C619 1.383 . S
C620 C621 1.377 . S
C621 H605 0.930 . S
C621 C620 1.377 . S
C621 C622 1.379 . S
C622 H606 0.931 . S
C622 C616 1.383 . S
C622 C621 1.379 . S
H623 C617 0.959 . S
H624 C617 0.961 . S
H625 C617 0.960 . S
H626 C618 0.930 . S
H627 C619 0.929 . S
H628 C636 0.929 . S
H629 C638 0.930 . S
H630 C640 0.930 . S
H631 C643 0.929 . S
H632 C646 0.930 . S
H633 C648 0.960 . S
H634 C648 0.960 . S
H635 C648 0.960 . S
C636 H628 0.929 . S
C636 C637 1.377 . S
C636 C638 1.384 . S
C637 C636 1.377 . S
C637 C643 1.390 . S
C638 H629 0.930 . S
C638 C636 1.384 . S
C638 C639 1.372 . S
C639 C638 1.372 . S
C639 C640 1.400 . S
C639 C644 1.490 . S
C640 H630 0.930 . S
C640 C639 1.400 . S
C640 C643 1.386 . S
H641 C657 0.930 . S
H642 C658 0.931 . S
C643 H631 0.929 . S
C643 C637 1.390 . S
C643 C640 1.386 . S
C644 C639 1.490 . S
C644 C646 1.395 . S
C644 C647 1.403 . S
H645 C651 0.930 . S
C646 H632 0.930 . S
C646 C644 1.395 . S
C646 C649 1.403 . S
C647 C644 1.403 . S
C647 C648 1.524 . S
C647 C651 1.400 . S
C648 H633 0.960 . S
C648 H634 0.960 . S
C648 H635 0.960 . S
C648 C647 1.524 . S
C649 C646 1.403 . S
C649 C650 1.392 . S
C649 C653 1.495 . S
C650 C649 1.392 . S
C650 C651 1.385 . S
C650 C652 1.478 . S
C651 H645 0.930 . S
C651 C647 1.400 . S
C651 C650 1.385 . S
C652 C650 1.478 . S
C652 C654 1.381 . S
C652 C658 1.383 . S
C653 C649 1.495 . S
C653 H659 0.959 . S
C653 H660 0.961 . S
C653 H661 0.960 . S
C654 C652 1.381 . S
C654 C655 1.394 . S
C654 H662 0.930 . S
C655 C654 1.394 . S
C655 C656 1.383 . S
C655 H663 0.929 . S
C656 C655 1.383 . S
C656 C657 1.377 . S
C657 H641 0.930 . S
C657 C656 1.377 . S
C657 C658 1.379 . S
C658 H642 0.931 . S
C658 C652 1.383 . S
C658 C657 1.379 . S
H659 C653 0.959 . S
H660 C653 0.961 . S
H661 C653 0.960 . S
H662 C654 0.930 . S
H663 C655 0.929 . S
H664 C672 0.929 . S
H665 C674 0.930 . S
H666 C676 0.930 . S
H667 C679 0.929 . S
H668 C682 0.930 . S
H669 C684 0.960 . S
H670 C684 0.960 . S
H671 C684 0.960 . S
C672 H664 0.929 . S
C672 C673 1.377 . S
C672 C674 1.384 . S
C673 C672 1.377 . S
C673 C679 1.390 . S
C674 H665 0.930 . S
C674 C672 1.384 . S
C674 C675 1.372 . S
C675 C674 1.372 . S
C675 C676 1.400 . S
C675 C680 1.490 . S
C676 H666 0.930 . S
C676 C675 1.400 . S
C676 C679 1.386 . S
H677 C693 0.930 . S
H678 C694 0.931 . S
C679 H667 0.929 . S
C679 C673 1.390 . S
C679 C676 1.386 . S
C680 C675 1.490 . S
C680 C682 1.395 . S
C680 C683 1.403 . S
H681 C687 0.930 . S
C682 H668 0.930 . S
C682 C680 1.395 . S
C682 C685 1.403 . S
C683 C680 1.403 . S
C683 C684 1.524 . S
C683 C687 1.400 . S
C684 H669 0.960 . S
C684 H670 0.960 . S
C684 H671 0.960 . S
C684 C683 1.524 . S
C685 C682 1.403 . S
C685 C686 1.392 . S
C685 C689 1.495 . S
C686 C685 1.392 . S
C686 C687 1.385 . S
C686 C688 1.478 . S
C687 H681 0.930 . S
C687 C683 1.400 . S
C687 C686 1.385 . S
C688 C686 1.478 . S
C688 C690 1.381 . S
C688 C694 1.383 . S
C689 C685 1.495 . S
C689 H695 0.959 . S
C689 H696 0.961 . S
C689 H697 0.960 . S
C690 C688 1.381 . S
C690 C691 1.394 . S
C690 H698 0.930 . S
C691 C690 1.394 . S
C691 C692 1.383 . S
C691 H699 0.929 . S
C692 C691 1.383 . S
C692 C693 1.377 . S
C693 H677 0.930 . S
C693 C692 1.377 . S
C693 C694 1.379 . S
C694 H678 0.931 . S
C694 C688 1.383 . S
C694 C693 1.379 . S
H695 C689 0.959 . S
H696 C689 0.961 . S
H697 C689 0.960 . S
H698 C690 0.930 . S
H699 C691 0.929 . S
H700 C708 0.929 . S
H701 C710 0.930 . S
H702 C712 0.930 . S
H703 C715 0.929 . S
H704 C718 0.930 . S
H705 C720 0.960 . S
H706 C720 0.960 . S
H707 C720 0.966 . S
C708 H700 0.929 . S
C708 C709 1.377 . S
C708 C710 1.384 . S
C709 C708 1.377 . S
C709 C715 1.390 . S
C710 H701 0.930 . S
C710 C708 1.384 . S
C710 C711 1.372 . S
C711 C710 1.372 . S
C711 C712 1.400 . S
C711 C716 1.490 . S
C712 H702 0.930 . S
C712 C711 1.400 . S
C712 C715 1.386 . S
H713 C729 0.930 . S
H714 C730 0.931 . S
C715 H703 0.929 . S
C715 C709 1.390 . S
C715 C712 1.386 . S
C716 C711 1.490 . S
C716 C718 1.395 . S
C716 C719 1.403 . S
H717 C723 0.974 . S
C718 H704 0.930 . S
C718 C716 1.395 . S
C718 C721 1.403 . S
C719 C716 1.403 . S
C719 C720 1.524 1_455 S
C719 C723 1.400 . S
C720 H705 0.960 . S
C720 H706 0.960 . S
C720 H707 0.966 . S
C720 C719 1.524 1_655 S
C721 C718 1.403 . S
C721 C722 1.392 . S
C721 C725 1.495 . S
C722 C721 1.392 . S
C722 C723 1.385 . S
C722 C724 1.478 . S
C723 H717 0.974 . S
C723 C719 1.400 . S
C723 C722 1.385 . S
C724 C722 1.478 . S
C724 C726 1.381 . S
C724 C730 1.383 . S
C725 C721 1.495 . S
C725 H731 0.959 . S
C725 H732 0.961 . S
C725 H733 0.960 . S
C726 C724 1.381 . S
C726 C727 1.394 . S
C726 H734 0.930 . S
C727 C726 1.394 . S
C727 C728 1.383 . S
C727 H735 0.929 . S
C728 C727 1.383 . S
C728 C729 1.377 . S
C729 H713 0.930 . S
C729 C728 1.377 . S
C729 C730 1.379 . S
C730 H714 0.931 . S
C730 C724 1.383 . S
C730 C729 1.379 . S
H731 C725 0.959 . S
H732 C725 0.961 . S
H733 C725 0.960 . S
H734 C726 0.930 . S
H735 C727 0.929 . S
H736 C744 0.929 . S
H737 C746 0.930 1_556 S
H738 C748 0.930 . S
H739 C751 0.929 . S
H740 C754 0.930 . S
H741 C756 0.960 1_556 S
H742 C756 0.960 . S
H743 C756 0.960 . S
C744 H736 0.929 . S
C744 C745 1.377 . S
C744 C746 1.384 . S
C745 C744 1.377 . S
C745 C751 1.390 . S
C746 H737 0.930 1_554 S
C746 C744 1.384 . S
C746 C747 1.372 . S
C747 C746 1.372 . S
C747 C748 1.400 . S
C747 C752 1.490 1_554 S
C748 H738 0.930 . S
C748 C747 1.400 . S
C748 C751 1.386 . S
H749 C765 0.930 . S
H750 C766 0.931 . S
C751 H739 0.929 . S
C751 C745 1.390 . S
C751 C748 1.386 . S
C752 C747 1.490 1_556 S
C752 C754 1.395 . S
C752 C755 1.403 . S
H753 C759 0.930 . S
C754 H740 0.930 . S
C754 C752 1.395 . S
C754 C757 1.403 . S
C755 C752 1.403 . S
C755 C756 1.524 1_556 S
C755 C759 1.400 . S
C756 H741 0.960 1_554 S
C756 H742 0.960 . S
C756 H743 0.960 . S
C756 C755 1.524 1_554 S
C757 C754 1.403 . S
C757 C758 1.392 . S
C757 C761 1.495 . S
C758 C757 1.392 . S
C758 C759 1.385 . S
C758 C760 1.478 . S
C759 H753 0.930 . S
C759 C755 1.400 . S
C759 C758 1.385 . S
C760 C758 1.478 . S
C760 C762 1.381 . S
C760 C766 1.383 1_565 S
C761 C757 1.495 . S
C761 H767 0.960 . S
C761 H768 0.961 1_565 S
C761 H769 0.960 . S
C762 C760 1.381 . S
C762 C763 1.394 . S
C762 H770 0.930 . S
C763 C762 1.394 . S
C763 C764 1.383 . S
C763 H771 0.929 . S
C764 C763 1.383 . S
C764 C765 1.377 1_565 S
C765 H749 0.930 . S
C765 C764 1.377 1_545 S
C765 C766 1.379 . S
C766 H750 0.931 . S
C766 C760 1.383 1_545 S
C766 C765 1.379 . S
H767 C761 0.960 . S
H768 C761 0.961 1_545 S
H769 C761 0.960 . S
H770 C762 0.930 . S
H771 C763 0.929 . S
H772 C780 0.929 . S
H773 C782 0.930 . S
H774 C784 0.930 1_556 S
H775 C787 0.929 . S
H776 C790 0.930 1_554 S
H777 C792 0.960 . S
H778 C792 0.960 . S
H779 C792 0.960 . S
C780 H772 0.929 . S
C780 C781 1.377 . S
C780 C782 1.384 . S
C781 C780 1.377 . S
C781 C787 1.390 . S
C782 H773 0.930 . S
C782 C780 1.384 . S
C782 C783 1.372 . S
C783 C782 1.372 . S
C783 C784 1.400 . S
C783 C788 1.490 1_554 S
C784 H774 0.930 1_554 S
C784 C783 1.400 . S
C784 C787 1.386 . S
H785 C801 0.930 . S
H786 C802 0.931 . S
C787 H775 0.929 . S
C787 C781 1.390 . S
C787 C784 1.386 . S
C788 C783 1.490 1_556 S
C788 C790 1.395 . S
C788 C791 1.403 . S
H789 C795 0.930 . S
C790 H776 0.930 1_556 S
C790 C788 1.395 . S
C790 C793 1.403 . S
C791 C788 1.403 . S
C791 C792 1.524 . S
C791 C795 1.400 . S
C792 H777 0.960 . S
C792 H778 0.960 . S
C792 H779 0.960 . S
C792 C791 1.524 . S
C793 C790 1.403 . S
C793 C794 1.392 . S
C793 C797 1.495 . S
C794 C793 1.392 . S
C794 C795 1.385 . S
C794 C796 1.478 . S
C795 H789 0.930 . S
C795 C791 1.400 . S
C795 C794 1.385 . S
C796 C794 1.478 . S
C796 C798 1.381 . S
C796 C802 1.383 . S
C797 C793 1.495 . S
C797 H803 0.959 . S
C797 H804 0.961 . S
C797 H805 0.960 . S
C798 C796 1.381 . S
C798 C799 1.394 . S
C798 H806 0.930 . S
C799 C798 1.394 . S
C799 C800 1.383 . S
C799 H807 0.929 . S
C800 C799 1.383 . S
C800 C801 1.377 . S
C801 H785 0.930 . S
C801 C800 1.377 . S
C801 C802 1.379 . S
C802 H786 0.931 . S
C802 C796 1.383 . S
C802 C801 1.379 . S
H803 C797 0.959 . S
H804 C797 0.961 . S
H805 C797 0.960 . S
H806 C798 0.930 . S
H807 C799 0.929 . S
H808 C816 0.929 . S
H809 C818 0.930 . S
H810 C820 0.930 1_556 S
H811 C823 0.929 . S
H812 C826 0.930 . S
H813 C828 0.960 . S
H814 C828 0.960 1_554 S
H815 C828 0.960 . S
C816 H808 0.929 . S
C816 C817 1.377 . S
C816 C818 1.384 . S
C817 C816 1.377 . S
C817 C823 1.390 . S
C818 H809 0.930 . S
C818 C816 1.384 . S
C818 C819 1.372 . S
C819 C818 1.372 . S
C819 C820 1.400 . S
C819 C824 1.490 1_554 S
C820 H810 0.930 1_554 S
C820 C819 1.400 . S
C820 C823 1.386 . S
H821 C837 0.930 . S
H822 C838 0.931 . S
C823 H811 0.929 . S
C823 C817 1.390 . S
C823 C820 1.386 . S
C824 C819 1.490 1_556 S
C824 C826 1.395 . S
C824 C827 1.403 . S
H825 C831 0.930 . S
C826 H812 0.930 . S
C826 C824 1.395 . S
C826 C829 1.403 . S
C827 C824 1.403 . S
C827 C828 1.524 . S
C827 C831 1.400 . S
C828 H813 0.960 . S
C828 H814 0.960 1_556 S
C828 H815 0.960 . S
C828 C827 1.524 . S
C829 C826 1.403 . S
C829 C830 1.392 . S
C829 C833 1.495 . S
C830 C829 1.392 . S
C830 C831 1.385 . S
C830 C832 1.478 . S
C831 H825 0.930 . S
C831 C827 1.400 . S
C831 C830 1.385 . S
C832 C830 1.478 . S
C832 C834 1.381 . S
C832 C838 1.383 . S
C833 C829 1.495 . S
C833 H839 0.959 . S
C833 H840 0.961 . S
C833 H841 0.960 . S
C834 C832 1.381 . S
C834 C835 1.394 . S
C834 H842 0.930 . S
C835 C834 1.394 . S
C835 C836 1.383 . S
C835 H843 0.929 . S
C836 C835 1.383 . S
C836 C837 1.377 . S
C837 H821 0.930 . S
C837 C836 1.377 . S
C837 C838 1.379 . S
C838 H822 0.931 . S
C838 C832 1.383 . S
C838 C837 1.379 . S
H839 C833 0.959 . S
H840 C833 0.961 . S
H841 C833 0.960 . S
H842 C834 0.930 . S
H843 C835 0.929 . S
H844 C852 0.929 . S
H845 C854 0.930 1_556 S
H846 C856 0.930 1_455 S
H847 C859 0.929 . S
H848 C862 0.930 . S
H849 C864 0.960 . S
H850 C864 0.960 . S
H851 C864 0.960 . S
C852 H844 0.929 . S
C852 C853 1.377 . S
C852 C854 1.384 . S
C853 C852 1.377 . S
C853 C859 1.390 . S
C854 H845 0.930 1_554 S
C854 C852 1.384 . S
C854 C855 1.372 . S
C855 C854 1.372 . S
C855 C856 1.400 . S
C855 C860 1.490 1_554 S
C856 H846 0.930 1_655 S
C856 C855 1.400 . S
C856 C859 1.386 . S
H857 C873 0.930 . S
H858 C874 0.931 . S
C859 H847 0.929 . S
C859 C853 1.390 . S
C859 C856 1.386 . S
C860 C855 1.490 1_556 S
C860 C862 1.395 . S
C860 C863 1.403 . S
H861 C867 0.930 . S
C862 H848 0.930 . S
C862 C860 1.395 . S
C862 C865 1.403 . S
C863 C860 1.403 . S
C863 C864 1.524 1_556 S
C863 C867 1.400 . S
C864 H849 0.960 . S
C864 H850 0.960 . S
C864 H851 0.960 . S
C864 C863 1.524 1_554 S
C865 C862 1.403 . S
C865 C866 1.392 . S
C865 C869 1.495 . S
C866 C865 1.392 . S
C866 C867 1.385 . S
C866 C868 1.478 . S
C867 H861 0.930 . S
C867 C863 1.400 . S
C867 C866 1.385 . S
C868 C866 1.478 . S
C868 C870 1.381 . S
C868 C874 1.383 1_655 S
C869 C865 1.495 . S
C869 H875 0.959 . S
C869 H876 0.961 . S
C869 H877 0.960 . S
C870 C868 1.381 . S
C870 C871 1.394 . S
C870 H878 0.930 . S
C871 C870 1.394 . S
C871 C872 1.383 . S
C871 H879 0.929 . S
C872 C871 1.383 . S
C872 C873 1.377 1_655 S
C873 H857 0.930 . S
C873 C872 1.377 1_455 S
C873 C874 1.379 . S
C874 H858 0.931 . S
C874 C868 1.383 1_455 S
C874 C873 1.379 . S
H875 C869 0.959 . S
H876 C869 0.961 . S
H877 C869 0.960 . S
H878 C870 0.930 . S
H879 C871 0.929 . S
H880 C888 0.929 . S
H881 C890 0.930 . S
H882 C892 0.930 . S
H883 C895 0.929 . S
H884 C898 0.930 . S
H885 C900 0.960 1_655 S
H886 C900 0.960 . S
H887 C900 0.990 . S
C888 H880 0.929 . S
C888 C889 1.377 . S
C888 C890 1.384 . S
C889 C888 1.377 . S
C889 C895 1.390 . S
C890 H881 0.930 . S
C890 C888 1.384 . S
C890 C891 1.372 . S
C891 C890 1.372 . S
C891 C892 1.400 . S
C891 C896 1.490 . S
C892 H882 0.930 . S
C892 C891 1.400 . S
C892 C895 1.386 . S
H893 C909 0.930 . S
H894 C910 0.931 . S
C895 H883 0.929 . S
C895 C889 1.390 . S
C895 C892 1.386 . S
C896 C891 1.490 . S
C896 C898 1.395 . S
C896 C899 1.403 . S
H897 C903 0.930 . S
C898 H884 0.930 . S
C898 C896 1.395 . S
C898 C901 1.403 . S
C899 C896 1.403 . S
C899 C900 1.524 . S
C899 C903 1.400 . S
C900 H885 0.960 1_455 S
C900 H886 0.960 . S
C900 H887 0.990 . S
C900 C899 1.524 . S
C901 C898 1.403 . S
C901 C902 1.392 . S
C901 C905 1.495 . S
C902 C901 1.392 . S
C902 C903 1.385 . S
C902 C904 1.478 . S
C903 H897 0.930 . S
C903 C899 1.400 . S
C903 C902 1.385 . S
C904 C902 1.478 . S
C904 C906 1.381 . S
C904 C910 1.383 1_455 S
C905 C901 1.495 . S
C905 H911 0.959 . S
C905 H912 0.961 . S
C905 H913 0.960 . S
C906 C904 1.381 . S
C906 C907 1.394 . S
C906 H914 0.930 . S
C907 C906 1.394 . S
C907 C908 1.383 . S
C907 H915 0.929 . S
C908 C907 1.383 . S
C908 C909 1.377 1_455 S
C909 H893 0.930 . S
C909 C908 1.377 1_655 S
C909 C910 1.379 . S
C910 H894 0.931 . S
C910 C904 1.383 1_655 S
C910 C909 1.379 . S
H911 C905 0.959 . S
H912 C905 0.961 . S
H913 C905 0.960 . S
H914 C906 0.930 . S
H915 C907 0.929 . S
H916 C924 0.929 . S
H917 C926 0.930 . S
H918 C928 0.930 . S
H919 C931 0.929 . S
H920 C934 0.930 . S
H921 C936 0.960 . S
H922 C936 0.960 . S
H923 C936 0.960 . S
C924 H916 0.929 . S
C924 C925 1.377 . S
C924 C926 1.384 . S
C925 C924 1.377 . S
C925 C931 1.390 . S
C926 H917 0.930 . S
C926 C924 1.384 . S
C926 C927 1.372 . S
C927 C926 1.372 . S
C927 C928 1.400 . S
C927 C932 1.490 . S
C928 H918 0.930 . S
C928 C927 1.400 . S
C928 C931 1.386 . S
H929 C945 0.930 . S
H930 C946 0.947 . S
C931 H919 0.929 . S
C931 C925 1.390 . S
C931 C928 1.386 . S
C932 C927 1.490 . S
C932 C934 1.395 . S
C932 C935 1.403 . S
H933 C939 0.930 . S
C934 H920 0.930 . S
C934 C932 1.395 . S
C934 C937 1.403 . S
C935 C932 1.403 . S
C935 C936 1.524 . S
C935 C939 1.400 . S
C936 H921 0.960 . S
C936 H922 0.960 . S
C936 H923 0.960 . S
C936 C935 1.524 . S
C937 C934 1.403 . S
C937 C938 1.392 . S
C937 C941 1.495 . S
C938 C937 1.392 . S
C938 C939 1.385 . S
C938 C940 1.478 . S
C939 H933 0.930 . S
C939 C935 1.400 . S
C939 C938 1.385 . S
C940 C938 1.478 . S
C940 C942 1.381 . S
C940 C946 1.359 1_545 S
C941 C937 1.495 . S
C941 H947 0.959 . S
C941 H948 0.961 1_545 S
C941 H949 0.960 . S
C942 C940 1.381 . S
C942 C943 1.394 . S
C942 H950 0.930 . S
C943 C942 1.394 . S
C943 C944 1.383 . S
C943 H951 0.929 . S
C944 C943 1.383 . S
C944 C945 1.377 1_545 S
C945 H929 0.930 . S
C945 C944 1.377 1_565 S
C945 C946 1.389 . S
C946 H930 0.947 . S
C946 C940 1.359 1_565 S
C946 C945 1.389 . S
H947 C941 0.959 . S
H948 C941 0.961 1_565 S
H949 C941 0.960 . S
H950 C942 0.930 . S
H951 C943 0.929 . S
H952 C960 0.929 . S
H953 C962 0.930 . S
H954 C964 0.930 . S
H955 C967 0.929 . S
H956 C970 0.930 . S
H957 C972 0.960 . S
H958 C972 0.960 . S
H959 C972 0.960 . S
C960 H952 0.929 . S
C960 C961 1.377 . S
C960 C962 1.384 . S
C961 C960 1.377 . S
C961 C967 1.390 . S
C962 H953 0.930 . S
C962 C960 1.384 . S
C962 C963 1.372 . S
C963 C962 1.372 . S
C963 C964 1.400 . S
C963 C968 1.490 . S
C964 H954 0.930 . S
C964 C963 1.400 . S
C964 C967 1.386 . S
H965 C981 0.930 . S
H966 C982 0.931 . S
C967 H955 0.929 . S
C967 C961 1.390 . S
C967 C964 1.386 . S
C968 C963 1.490 . S
C968 C970 1.395 . S
C968 C971 1.403 . S
H969 C975 0.930 . S
C970 H956 0.930 . S
C970 C968 1.395 . S
C970 C973 1.403 . S
C971 C968 1.403 . S
C971 C972 1.524 . S
C971 C975 1.400 . S
C972 H957 0.960 . S
C972 H958 0.960 . S
C972 H959 0.960 . S
C972 C971 1.524 . S
C973 C970 1.403 . S
C973 C974 1.392 . S
C973 C977 1.495 . S
C974 C973 1.392 . S
C974 C975 1.385 . S
C974 C976 1.478 . S
C975 H969 0.930 . S
C975 C971 1.400 . S
C975 C974 1.385 . S
C976 C974 1.478 . S
C976 C978 1.381 . S
C976 C982 1.383 . S
C977 C973 1.495 . S
C977 H983 0.959 . S
C977 H984 0.961 . S
C977 H985 0.960 . S
C978 C976 1.381 . S
C978 C979 1.394 . S
C978 H986 0.930 . S
C979 C978 1.394 . S
C979 C980 1.383 . S
C979 H987 0.929 . S
C980 C979 1.383 . S
C980 C981 1.377 . S
C981 H965 0.930 . S
C981 C980 1.377 . S
C981 C982 1.379 . S
C982 H966 0.931 . S
C982 C976 1.383 . S
C982 C981 1.379 . S
H983 C977 0.959 . S
H984 C977 0.961 . S
H985 C977 0.960 . S
H986 C978 0.930 . S
H987 C979 0.929 . S
H988 C996 0.929 . S
H989 C998 0.930 . S
H990 C1000 0.930 . S
H991 C1003 0.929 . S
H992 C1006 0.930 . S
H993 C1008 0.960 . S
H994 C1008 0.960 . S
H995 C1008 0.960 . S
C996 H988 0.929 . S
C996 C997 1.377 . S
C996 C998 1.384 . S
C997 C996 1.377 . S
C997 C1003 1.390 . S
C998 H989 0.930 . S
C998 C996 1.384 . S
C998 C999 1.372 . S
C999 C998 1.372 . S
C999 C1000 1.400 . S
C999 C1004 1.490 . S
C1000 H990 0.930 . S
C1000 C999 1.400 . S
C1000 C1003 1.386 . S
H1001 C1017 0.930 . S
H1002 C1018 0.931 . S
C1003 H991 0.929 . S
C1003 C997 1.390 . S
C1003 C1000 1.386 . S
C1004 C999 1.490 . S
C1004 C1006 1.395 . S
C1004 C1007 1.403 . S
H1005 C1011 0.930 . S
C1006 H992 0.930 . S
C1006 C1004 1.395 . S
C1006 C1009 1.403 . S
C1007 C1004 1.403 . S
C1007 C1008 1.524 . S
C1007 C1011 1.400 . S
C1008 H993 0.960 . S
C1008 H994 0.960 . S
C1008 H995 0.960 . S
C1008 C1007 1.524 . S
C1009 C1006 1.403 . S
C1009 C1010 1.392 . S
C1009 C1013 1.495 . S
C1010 C1009 1.392 . S
C1010 C1011 1.385 . S
C1010 C1012 1.478 . S
C1011 H1005 0.930 . S
C1011 C1007 1.400 . S
C1011 C1010 1.385 . S
C1012 C1010 1.478 . S
C1012 C1014 1.381 . S
C1012 C1018 1.383 . S
C1013 C1009 1.495 . S
C1013 H1019 0.959 . S
C1013 H1020 0.961 . S
C1013 H1021 0.960 . S
C1014 C1012 1.381 . S
C1014 C1015 1.394 . S
C1014 H1022 0.930 . S
C1015 C1014 1.394 . S
C1015 C1016 1.383 . S
C1015 H1023 0.929 . S
C1016 C1015 1.383 . S
C1016 C1017 1.377 . S
C1017 H1001 0.930 . S
C1017 C1016 1.377 . S
C1017 C1018 1.379 . S
C1018 H1002 0.931 . S
C1018 C1012 1.383 . S
C1018 C1017 1.379 . S
H1019 C1013 0.959 . S
H1020 C1013 0.961 . S
H1021 C1013 0.960 . S
H1022 C1014 0.930 . S
H1023 C1015 0.929 . S
H1024 C1032 0.929 . S
H1025 C1034 0.930 1_556 S
H1026 C1036 0.921 1_455 S
H1027 C1039 0.929 . S
H1028 C1042 0.930 1_554 S
H1029 C1044 0.931 1_455 S
H1030 C1044 0.998 . S
H1031 C1044 0.934 1_455 S
C1032 H1024 0.929 . S
C1032 C1033 1.377 . S
C1032 C1034 1.384 . S
C1033 C1032 1.377 . S
C1033 C1039 1.390 . S
C1034 H1025 0.930 1_554 S
C1034 C1032 1.384 . S
C1034 C1035 1.372 1_554 S
C1035 C1034 1.372 1_556 S
C1035 C1036 1.400 1_556 S
C1035 C1040 1.490 . S
C1036 H1026 0.921 1_655 S
C1036 C1035 1.400 1_554 S
C1036 C1039 1.386 . S
H1037 C1053 0.930 . S
H1038 C1054 0.931 . S
C1039 H1027 0.929 . S
C1039 C1033 1.390 . S
C1039 C1036 1.386 . S
C1040 C1035 1.490 . S
C1040 C1042 1.395 . S
C1040 C1043 1.403 . S
H1041 C1047 0.930 1_455 S
C1042 H1028 0.930 1_556 S
C1042 C1040 1.395 . S
C1042 C1045 1.403 . S
C1043 C1040 1.403 . S
C1043 C1044 1.543 . S
C1043 C1047 1.400 . S
C1044 H1029 0.931 1_655 S
C1044 H1030 0.998 . S
C1044 H1031 0.934 1_655 S
C1044 C1043 1.543 . S
C1045 C1042 1.403 . S
C1045 C1046 1.392 . S
C1045 C1049 1.495 . S
C1046 C1045 1.392 . S
C1046 C1047 1.385 . S
C1046 C1048 1.478 . S
C1047 H1041 0.930 1_655 S
C1047 C1043 1.400 . S
C1047 C1046 1.385 . S
C1048 C1046 1.478 . S
C1048 C1050 1.381 . S
C1048 C1054 1.383 1_655 S
C1049 C1045 1.495 . S
C1049 H1055 0.959 . S
C1049 H1056 0.961 . S
C1049 H1057 0.960 . S
C1050 C1048 1.381 . S
C1050 C1051 1.394 . S
C1050 H1058 0.930 . S
C1051 C1050 1.394 . S
C1051 C1052 1.383 1_655 S
C1051 H1059 0.929 . S
C1052 C1051 1.383 1_455 S
C1052 C1053 1.377 . S
C1053 H1037 0.930 . S
C1053 C1052 1.377 . S
C1053 C1054 1.379 . S
C1054 H1038 0.931 . S
C1054 C1048 1.383 1_455 S
C1054 C1053 1.379 . S
H1055 C1049 0.959 . S
H1056 C1049 0.961 . S
H1057 C1049 0.960 . S
H1058 C1050 0.930 . S
H1059 C1051 0.929 . S
H1060 C1068 0.929 . S
H1061 C1070 0.930 . S
H1062 C1072 0.930 . S
H1063 C1075 0.929 . S
H1064 C1078 0.930 . S
H1065 C1080 0.960 . S
H1066 C1080 0.960 . S
H1067 C1080 0.960 . S
C1068 H1060 0.929 . S
C1068 C1069 1.377 . S
C1068 C1070 1.383 1_554 S
C1069 C1068 1.377 . S
C1069 C1075 1.390 . S
C1070 H1061 0.930 . S
C1070 C1068 1.383 1_556 S
C1070 C1071 1.372 . S
C1071 C1070 1.372 . S
C1071 C1072 1.392 1_556 S
C1071 C1076 1.498 . S
C1072 H1062 0.930 . S
C1072 C1071 1.392 1_554 S
C1072 C1075 1.386 . S
H1073 C1089 0.930 . S
H1074 C1090 0.931 . S
C1075 H1063 0.929 . S
C1075 C1069 1.390 . S
C1075 C1072 1.386 . S
C1076 C1071 1.498 . S
C1076 C1078 1.395 . S
C1076 C1079 1.403 . S
H1077 C1083 0.930 . S
C1078 H1064 0.930 . S
C1078 C1076 1.395 . S
C1078 C1081 1.403 . S
C1079 C1076 1.403 . S
C1079 C1080 1.524 1_556 S
C1079 C1083 1.400 . S
C1080 H1065 0.960 . S
C1080 H1066 0.960 . S
C1080 H1067 0.960 . S
C1080 C1079 1.524 1_554 S
C1081 C1078 1.403 . S
C1081 C1082 1.392 . S
C1081 C1085 1.495 . S
C1082 C1081 1.392 . S
C1082 C1083 1.385 . S
C1082 C1084 1.478 . S
C1083 H1077 0.930 . S
C1083 C1079 1.400 . S
C1083 C1082 1.385 . S
C1084 C1082 1.478 . S
C1084 C1086 1.381 1_565 S
C1084 C1090 1.383 . S
C1085 C1081 1.495 . S
C1085 H1091 0.959 . S
C1085 H1092 0.961 . S
C1085 H1093 0.988 . S
C1086 C1084 1.381 1_545 S
C1086 C1087 1.394 . S
C1086 H1094 0.930 . S
C1087 C1086 1.394 . S
C1087 C1088 1.383 . S
C1087 H1095 0.929 . S
C1088 C1087 1.383 . S
C1088 C1089 1.377 1_545 S
C1089 H1073 0.930 . S
C1089 C1088 1.377 1_565 S
C1089 C1090 1.379 . S
C1090 H1074 0.931 . S
C1090 C1084 1.383 . S
C1090 C1089 1.379 . S
H1091 C1085 0.959 . S
H1092 C1085 0.961 . S
H1093 C1085 0.988 . S
H1094 C1086 0.930 . S
H1095 C1087 0.929 . S
H1096 C1104 0.929 . S
H1097 C1106 0.930 1_556 S
H1098 C1108 0.930 . S
H1099 C1111 0.929 . S
H1100 C1114 0.930 1_554 S
H1101 C1116 0.960 . S
H1102 C1116 0.960 . S
H1103 C1116 0.960 . S
C1104 H1096 0.929 . S
C1104 C1105 1.377 . S
C1104 C1106 1.384 . S
C1105 C1104 1.377 . S
C1105 C1111 1.390 . S
C1106 H1097 0.930 1_554 S
C1106 C1104 1.384 . S
C1106 C1107 1.372 1_554 S
C1107 C1106 1.372 1_556 S
C1107 C1108 1.399 1_556 S
C1107 C1112 1.491 . S
C1108 H1098 0.930 . S
C1108 C1107 1.399 1_554 S
C1108 C1111 1.386 . S
H1109 C1125 0.930 . S
H1110 C1126 0.931 . S
C1111 H1099 0.929 . S
C1111 C1105 1.390 . S
C1111 C1108 1.386 . S
C1112 C1107 1.491 . S
C1112 C1114 1.395 . S
C1112 C1115 1.403 . S
H1113 C1119 0.930 . S
C1114 H1100 0.930 1_556 S
C1114 C1112 1.395 . S
C1114 C1117 1.403 . S
C1115 C1112 1.403 . S
C1115 C1116 1.524 . S
C1115 C1119 1.400 . S
C1116 H1101 0.960 . S
C1116 H1102 0.960 . S
C1116 H1103 0.960 . S
C1116 C1115 1.524 . S
C1117 C1114 1.403 . S
C1117 C1118 1.392 . S
C1117 C1121 1.495 . S
C1118 C1117 1.392 . S
C1118 C1119 1.385 . S
C1118 C1120 1.478 . S
C1119 H1113 0.930 . S
C1119 C1115 1.400 . S
C1119 C1118 1.385 . S
C1120 C1118 1.478 . S
C1120 C1122 1.381 . S
C1120 C1126 1.383 . S
C1121 C1117 1.495 . S
C1121 H1127 0.959 1_556 S
C1121 H1128 0.961 . S
C1121 H1129 0.960 . S
C1122 C1120 1.381 . S
C1122 C1123 1.394 . S
C1122 H1130 0.930 . S
C1123 C1122 1.394 . S
C1123 C1124 1.383 . S
C1123 H1131 0.929 . S
C1124 C1123 1.383 . S
C1124 C1125 1.377 . S
C1125 H1109 0.930 . S
C1125 C1124 1.377 . S
C1125 C1126 1.379 . S
C1126 H1110 0.931 . S
C1126 C1120 1.383 . S
C1126 C1125 1.379 . S
H1127 C1121 0.959 1_554 S
H1128 C1121 0.961 . S
H1129 C1121 0.960 . S
H1130 C1122 0.930 . S
H1131 C1123 0.929 . S
H1132 C1140 0.929 . S
H1133 C1142 0.930 . S
H1134 C1144 0.930 . S
H1135 C1147 0.929 . S
H1136 C1150 0.930 . S
H1137 C1152 0.960 . S
H1138 C1152 0.960 . S
H1139 C1152 0.960 . S
C1140 H1132 0.929 . S
C1140 C1141 1.377 . S
C1140 C1142 1.384 1_554 S
C1141 C1140 1.377 . S
C1141 C1147 1.390 . S
C1142 H1133 0.930 . S
C1142 C1140 1.384 1_556 S
C1142 C1143 1.372 . S
C1143 C1142 1.372 . S
C1143 C1144 1.400 1_556 S
C1143 C1148 1.490 . S
C1144 H1134 0.930 . S
C1144 C1143 1.400 1_554 S
C1144 C1147 1.386 . S
H1145 C1161 0.930 . S
H1146 C1162 0.931 . S
C1147 H1135 0.929 . S
C1147 C1141 1.390 . S
C1147 C1144 1.386 . S
C1148 C1143 1.490 . S
C1148 C1150 1.395 . S
C1148 C1151 1.403 . S
H1149 C1155 0.930 . S
C1150 H1136 0.930 . S
C1150 C1148 1.395 . S
C1150 C1153 1.403 . S
C1151 C1148 1.403 . S
C1151 C1152 1.524 1_556 S
C1151 C1155 1.400 . S
C1152 H1137 0.960 . S
C1152 H1138 0.960 . S
C1152 H1139 0.960 . S
C1152 C1151 1.524 1_554 S
C1153 C1150 1.403 . S
C1153 C1154 1.392 . S
C1153 C1157 1.495 . S
C1154 C1153 1.392 . S
C1154 C1155 1.385 . S
C1154 C1156 1.478 . S
C1155 H1149 0.930 . S
C1155 C1151 1.400 . S
C1155 C1154 1.385 . S
C1156 C1154 1.478 . S
C1156 C1158 1.381 . S
C1156 C1162 1.383 . S
C1157 C1153 1.495 . S
C1157 H1163 0.959 . S
C1157 H1164 0.961 . S
C1157 H1165 0.960 . S
C1158 C1156 1.381 . S
C1158 C1159 1.394 . S
C1158 H1166 0.930 . S
C1159 C1158 1.394 . S
C1159 C1160 1.383 . S
C1159 H1167 0.929 . S
C1160 C1159 1.383 . S
C1160 C1161 1.377 . S
C1161 H1145 0.930 . S
C1161 C1160 1.377 . S
C1161 C1162 1.379 . S
C1162 H1146 0.931 . S
C1162 C1156 1.383 . S
C1162 C1161 1.379 . S
H1163 C1157 0.959 . S
H1164 C1157 0.961 . S
H1165 C1157 0.960 . S
H1166 C1158 0.930 . S
H1167 C1159 0.929 . S
H1168 C1176 0.929 . S
H1169 C1178 0.930 . S
H1170 C1180 0.930 . S
H1171 C1183 0.929 . S
H1172 C1186 0.930 . S
H1173 C1188 0.960 1_655 S
H1174 C1188 0.960 . S
H1175 C1188 0.960 1_655 S
C1176 H1168 0.929 . S
C1176 C1177 1.377 . S
C1176 C1178 1.384 . S
C1177 C1176 1.377 . S
C1177 C1183 1.390 . S
C1178 H1169 0.930 . S
C1178 C1176 1.384 . S
C1178 C1179 1.372 . S
C1179 C1178 1.372 . S
C1179 C1180 1.400 . S
C1179 C1184 1.490 . S
C1180 H1170 0.930 . S
C1180 C1179 1.400 . S
C1180 C1183 1.386 . S
H1181 C1197 0.930 1_655 S
H1182 C1198 0.931 . S
C1183 H1171 0.929 . S
C1183 C1177 1.390 . S
C1183 C1180 1.386 . S
C1184 C1179 1.490 . S
C1184 C1186 1.395 . S
C1184 C1187 1.403 . S
H1185 C1191 0.930 . S
C1186 H1172 0.930 . S
C1186 C1184 1.395 . S
C1186 C1189 1.403 . S
C1187 C1184 1.403 . S
C1187 C1188 1.524 . S
C1187 C1191 1.400 . S
C1188 H1173 0.960 1_455 S
C1188 H1174 0.960 . S
C1188 H1175 0.960 1_455 S
C1188 C1187 1.524 . S
C1189 C1186 1.403 . S
C1189 C1190 1.392 . S
C1189 C1193 1.495 . S
C1190 C1189 1.392 . S
C1190 C1191 1.385 . S
C1190 C1192 1.478 . S
C1191 H1185 0.930 . S
C1191 C1187 1.400 . S
C1191 C1190 1.385 . S
C1192 C1190 1.478 . S
C1192 C1194 1.381 . S
C1192 C1198 1.383 . S
C1193 C1189 1.495 . S
C1193 H1199 0.959 . S
C1193 H1200 0.961 . S
C1193 H1201 0.960 . S
C1194 C1192 1.381 . S
C1194 C1195 1.394 . S
C1194 H1202 0.930 . S
C1195 C1194 1.394 . S
C1195 C1196 1.383 . S
C1195 H1203 0.929 . S
C1196 C1195 1.383 . S
C1196 C1197 1.377 . S
C1197 H1181 0.930 1_455 S
C1197 C1196 1.377 . S
C1197 C1198 1.379 . S
C1198 H1182 0.931 . S
C1198 C1192 1.383 . S
C1198 C1197 1.379 . S
H1199 C1193 0.959 . S
H1200 C1193 0.961 . S
H1201 C1193 0.960 . S
H1202 C1194 0.930 . S
H1203 C1195 0.929 . S
H1204 C1212 0.929 . S
H1205 C1214 0.930 . S
H1206 C1216 0.930 . S
H1207 C1219 0.929 . S
H1208 C1222 0.930 . S
H1209 C1224 0.960 . S
H1210 C1224 0.960 . S
H1211 C1224 0.960 . S
C1212 H1204 0.929 . S
C1212 C1213 1.377 . S
C1212 C1214 1.384 . S
C1213 C1212 1.377 . S
C1213 C1219 1.390 . S
C1214 H1205 0.930 . S
C1214 C1212 1.384 . S
C1214 C1215 1.372 . S
C1215 C1214 1.372 . S
C1215 C1216 1.400 . S
C1215 C1220 1.490 . S
C1216 H1206 0.930 . S
C1216 C1215 1.400 . S
C1216 C1219 1.386 . S
H1217 C1233 0.930 . S
H1218 C1234 0.931 . S
C1219 H1207 0.929 . S
C1219 C1213 1.390 . S
C1219 C1216 1.386 . S
C1220 C1215 1.490 . S
C1220 C1222 1.395 . S
C1220 C1223 1.403 . S
H1221 C1227 0.930 . S
C1222 H1208 0.930 . S
C1222 C1220 1.395 . S
C1222 C1225 1.403 . S
C1223 C1220 1.403 . S
C1223 C1224 1.524 . S
C1223 C1227 1.400 . S
C1224 H1209 0.960 . S
C1224 H1210 0.960 . S
C1224 H1211 0.960 . S
C1224 C1223 1.524 . S
C1225 C1222 1.403 . S
C1225 C1226 1.392 . S
C1225 C1229 1.495 . S
C1226 C1225 1.392 . S
C1226 C1227 1.385 . S
C1226 C1228 1.478 . S
C1227 H1221 0.930 . S
C1227 C1223 1.400 . S
C1227 C1226 1.385 . S
C1228 C1226 1.478 . S
C1228 C1230 1.381 . S
C1228 C1234 1.383 . S
C1229 C1225 1.495 . S
C1229 H1235 0.959 . S
C1229 H1236 0.961 . S
C1229 H1237 0.960 . S
C1230 C1228 1.381 . S
C1230 C1231 1.394 . S
C1230 H1238 0.930 . S
C1231 C1230 1.394 . S
C1231 C1232 1.383 . S
C1231 H1239 0.929 . S
C1232 C1231 1.383 . S
C1232 C1233 1.377 . S
C1233 H1217 0.930 . S
C1233 C1232 1.377 . S
C1233 C1234 1.379 . S
C1234 H1218 0.931 . S
C1234 C1228 1.383 . S
C1234 C1233 1.379 . S
H1235 C1229 0.959 . S
H1236 C1229 0.961 . S
H1237 C1229 0.960 . S
H1238 C1230 0.930 . S
H1239 C1231 0.929 . S
H1240 C1248 0.929 . S
H1241 C1250 0.930 . S
H1242 C1252 0.930 . S
H1243 C1255 0.929 . S
H1244 C1258 0.930 . S
H1245 C1260 0.960 . S
H1246 C1260 0.960 . S
H1247 C1260 0.960 . S
C1248 H1240 0.929 . S
C1248 C1249 1.377 . S
C1248 C1250 1.384 . S
C1249 C1248 1.377 . S
C1249 C1255 1.390 . S
C1250 H1241 0.930 . S
C1250 C1248 1.384 . S
C1250 C1251 1.372 . S
C1251 C1250 1.372 . S
C1251 C1252 1.400 . S
C1251 C1256 1.490 . S
C1252 H1242 0.930 . S
C1252 C1251 1.400 . S
C1252 C1255 1.386 . S
H1253 C1269 0.930 . S
H1254 C1270 0.931 . S
C1255 H1243 0.929 . S
C1255 C1249 1.390 . S
C1255 C1252 1.386 . S
C1256 C1251 1.490 . S
C1256 C1258 1.395 . S
C1256 C1259 1.403 . S
H1257 C1263 0.930 . S
C1258 H1244 0.930 . S
C1258 C1256 1.395 . S
C1258 C1261 1.403 . S
C1259 C1256 1.403 . S
C1259 C1260 1.524 . S
C1259 C1263 1.400 . S
C1260 H1245 0.960 . S
C1260 H1246 0.960 . S
C1260 H1247 0.960 . S
C1260 C1259 1.524 . S
C1261 C1258 1.403 . S
C1261 C1262 1.392 . S
C1261 C1265 1.495 . S
C1262 C1261 1.392 . S
C1262 C1263 1.385 . S
C1262 C1264 1.478 . S
C1263 H1257 0.930 . S
C1263 C1259 1.400 . S
C1263 C1262 1.385 . S
C1264 C1262 1.478 . S
C1264 C1266 1.381 . S
C1264 C1270 1.383 . S
C1265 C1261 1.495 . S
C1265 H1271 0.959 . S
C1265 H1272 0.961 . S
C1265 H1273 0.960 . S
C1266 C1264 1.381 . S
C1266 C1267 1.394 . S
C1266 H1274 0.930 . S
C1267 C1266 1.394 . S
C1267 C1268 1.383 . S
C1267 H1275 0.929 . S
C1268 C1267 1.383 . S
C1268 C1269 1.377 . S
C1269 H1253 0.930 . S
C1269 C1268 1.377 . S
C1269 C1270 1.379 . S
C1270 H1254 0.931 . S
C1270 C1264 1.383 . S
C1270 C1269 1.379 . S
H1271 C1265 0.959 . S
H1272 C1265 0.961 . S
H1273 C1265 0.960 . S
H1274 C1266 0.930 . S
H1275 C1267 0.929 . S
H1276 C1284 0.929 . S
H1277 C1286 0.930 . S
H1278 C1288 0.930 . S
H1279 C1291 0.929 . S
H1280 C1294 0.930 . S
H1281 C1296 0.960 . S
H1282 C1296 0.960 . S
H1283 C1296 0.960 . S
C1284 H1276 0.929 . S
C1284 C1285 1.377 . S
C1284 C1286 1.384 . S
C1285 C1284 1.377 . S
C1285 C1291 1.390 . S
C1286 H1277 0.930 . S
C1286 C1284 1.384 . S
C1286 C1287 1.372 . S
C1287 C1286 1.372 . S
C1287 C1288 1.400 . S
C1287 C1292 1.490 . S
C1288 H1278 0.930 . S
C1288 C1287 1.400 . S
C1288 C1291 1.386 . S
H1289 C1305 0.930 . S
H1290 C1306 0.931 . S
C1291 H1279 0.929 . S
C1291 C1285 1.390 . S
C1291 C1288 1.386 . S
C1292 C1287 1.490 . S
C1292 C1294 1.395 . S
C1292 C1295 1.403 . S
H1293 C1299 0.930 . S
C1294 H1280 0.930 . S
C1294 C1292 1.395 . S
C1294 C1297 1.403 . S
C1295 C1292 1.403 . S
C1295 C1296 1.524 . S
C1295 C1299 1.400 . S
C1296 H1281 0.960 . S
C1296 H1282 0.960 . S
C1296 H1283 0.960 . S
C1296 C1295 1.524 . S
C1297 C1294 1.403 . S
C1297 C1298 1.392 . S
C1297 C1301 1.495 . S
C1298 C1297 1.392 . S
C1298 C1299 1.385 . S
C1298 C1300 1.478 . S
C1299 H1293 0.930 . S
C1299 C1295 1.400 . S
C1299 C1298 1.385 . S
C1300 C1298 1.478 . S
C1300 C1302 1.381 . S
C1300 C1306 1.383 . S
C1301 C1297 1.495 . S
C1301 H1307 0.959 . S
C1301 H1308 0.961 . S
C1301 H1309 0.960 . S
C1302 C1300 1.381 . S
C1302 C1303 1.394 . S
C1302 H1310 0.930 . S
C1303 C1302 1.394 . S
C1303 C1304 1.383 . S
C1303 H1311 0.929 . S
C1304 C1303 1.383 . S
C1304 C1305 1.377 . S
C1305 H1289 0.930 . S
C1305 C1304 1.377 . S
C1305 C1306 1.379 . S
C1306 H1290 0.931 . S
C1306 C1300 1.383 . S
C1306 C1305 1.379 . S
H1307 C1301 0.959 . S
H1308 C1301 0.961 . S
H1309 C1301 0.960 . S
H1310 C1302 0.930 . S
H1311 C1303 0.929 . S
H1312 C1320 0.929 . S
H1313 C1322 0.930 . S
H1314 C1324 0.930 . S
H1315 C1327 0.929 . S
H1316 C1330 0.930 . S
H1317 C1332 0.960 . S
H1318 C1332 0.960 . S
H1319 C1332 0.960 . S
C1320 H1312 0.929 . S
C1320 C1321 1.377 . S
C1320 C1322 1.384 . S
C1321 C1320 1.377 . S
C1321 C1327 1.390 . S
C1322 H1313 0.930 . S
C1322 C1320 1.384 . S
C1322 C1323 1.372 . S
C1323 C1322 1.372 . S
C1323 C1324 1.400 . S
C1323 C1328 1.490 . S
C1324 H1314 0.930 . S
C1324 C1323 1.400 . S
C1324 C1327 1.386 . S
H1325 C1341 0.930 . S
H1326 C1342 0.931 . S
C1327 H1315 0.929 . S
C1327 C1321 1.390 . S
C1327 C1324 1.386 . S
C1328 C1323 1.490 . S
C1328 C1330 1.395 . S
C1328 C1331 1.403 . S
H1329 C1335 0.930 . S
C1330 H1316 0.930 . S
C1330 C1328 1.395 . S
C1330 C1333 1.403 . S
C1331 C1328 1.403 . S
C1331 C1332 1.524 . S
C1331 C1335 1.400 . S
C1332 H1317 0.960 . S
C1332 H1318 0.960 . S
C1332 H1319 0.960 . S
C1332 C1331 1.524 . S
C1333 C1330 1.403 . S
C1333 C1334 1.392 . S
C1333 C1337 1.495 . S
C1334 C1333 1.392 . S
C1334 C1335 1.385 . S
C1334 C1336 1.478 . S
C1335 H1329 0.930 . S
C1335 C1331 1.400 . S
C1335 C1334 1.385 . S
C1336 C1334 1.478 . S
C1336 C1338 1.381 . S
C1336 C1342 1.383 1_655 S
C1337 C1333 1.495 . S
C1337 H1343 0.959 . S
C1337 H1344 0.961 . S
C1337 H1345 0.960 . S
C1338 C1336 1.381 . S
C1338 C1339 1.394 . S
C1338 H1346 0.930 . S
C1339 C1338 1.394 . S
C1339 C1340 1.383 . S
C1339 H1347 0.929 . S
C1340 C1339 1.383 . S
C1340 C1341 1.377 1_655 S
C1341 H1325 0.930 . S
C1341 C1340 1.377 1_455 S
C1341 C1342 1.379 . S
C1342 H1326 0.931 . S
C1342 C1336 1.383 1_455 S
C1342 C1341 1.379 . S
H1343 C1337 0.959 . S
H1344 C1337 0.961 . S
H1345 C1337 0.960 . S
H1346 C1338 0.930 . S
H1347 C1339 0.929 . S
H1348 C1356 0.929 . S
H1349 C1358 0.930 . S
H1350 C1360 0.930 . S
H1351 C1363 0.929 . S
H1352 C1366 0.930 . S
H1353 C1368 0.960 . S
H1354 C1368 0.960 . S
H1355 C1368 0.960 . S
C1356 H1348 0.929 . S
C1356 C1357 1.377 . S
C1356 C1358 1.384 . S
C1357 C1356 1.377 . S
C1357 C1363 1.390 . S
C1358 H1349 0.930 . S
C1358 C1356 1.384 . S
C1358 C1359 1.372 . S
C1359 C1358 1.372 . S
C1359 C1360 1.400 . S
C1359 C1364 1.490 . S
C1360 H1350 0.930 . S
C1360 C1359 1.400 . S
C1360 C1363 1.386 . S
H1361 C1377 0.930 . S
H1362 C1378 0.931 . S
C1363 H1351 0.929 . S
C1363 C1357 1.390 . S
C1363 C1360 1.386 . S
C1364 C1359 1.490 . S
C1364 C1366 1.395 . S
C1364 C1367 1.403 . S
H1365 C1371 0.930 . S
C1366 H1352 0.930 . S
C1366 C1364 1.395 . S
C1366 C1369 1.403 . S
C1367 C1364 1.403 . S
C1367 C1368 1.524 . S
C1367 C1371 1.400 . S
C1368 H1353 0.960 . S
C1368 H1354 0.960 . S
C1368 H1355 0.960 . S
C1368 C1367 1.524 . S
C1369 C1366 1.403 . S
C1369 C1370 1.392 . S
C1369 C1373 1.495 . S
C1370 C1369 1.392 . S
C1370 C1371 1.385 . S
C1370 C1372 1.478 . S
C1371 H1365 0.930 . S
C1371 C1367 1.400 . S
C1371 C1370 1.385 . S
C1372 C1370 1.478 . S
C1372 C1374 1.381 1_565 S
C1372 C1378 1.383 . S
C1373 C1369 1.495 . S
C1373 H1379 0.959 . S
C1373 H1380 0.961 . S
C1373 H1381 0.960 . S
C1374 C1372 1.381 1_545 S
C1374 C1375 1.394 . S
C1374 H1382 0.930 . S
C1375 C1374 1.394 . S
C1375 C1376 1.383 1_545 S
C1375 H1383 0.929 . S
C1376 C1375 1.383 1_565 S
C1376 C1377 1.377 . S
C1377 H1361 0.930 . S
C1377 C1376 1.377 . S
C1377 C1378 1.379 . S
C1378 H1362 0.931 . S
C1378 C1372 1.383 . S
C1378 C1377 1.379 . S
H1379 C1373 0.959 . S
H1380 C1373 0.961 . S
H1381 C1373 0.960 . S
H1382 C1374 0.930 . S
H1383 C1375 0.929 . S
H1384 C1392 0.929 . S
H1385 C1394 0.930 . S
H1386 C1396 0.930 . S
H1387 C1399 0.929 . S
H1388 C1402 0.930 . S
H1389 C1404 0.960 . S
H1390 C1404 0.960 . S
H1391 C1404 0.960 . S
C1392 H1384 0.929 . S
C1392 C1393 1.377 . S
C1392 C1394 1.384 . S
C1393 C1392 1.377 . S
C1393 C1399 1.390 . S
C1394 H1385 0.930 . S
C1394 C1392 1.384 . S
C1394 C1395 1.372 . S
C1395 C1394 1.372 . S
C1395 C1396 1.400 . S
C1395 C1400 1.490 . S
C1396 H1386 0.930 . S
C1396 C1395 1.400 . S
C1396 C1399 1.386 . S
H1397 C1413 0.930 . S
H1398 C1414 0.931 . S
C1399 H1387 0.929 . S
C1399 C1393 1.390 . S
C1399 C1396 1.386 . S
C1400 C1395 1.490 . S
C1400 C1402 1.395 . S
C1400 C1403 1.403 . S
H1401 C1407 0.930 . S
C1402 H1388 0.930 . S
C1402 C1400 1.395 . S
C1402 C1405 1.403 . S
C1403 C1400 1.403 . S
C1403 C1404 1.524 . S
C1403 C1407 1.400 . S
C1404 H1389 0.960 . S
C1404 H1390 0.960 . S
C1404 H1391 0.960 . S
C1404 C1403 1.524 . S
C1405 C1402 1.403 . S
C1405 C1406 1.392 . S
C1405 C1409 1.495 . S
C1406 C1405 1.392 . S
C1406 C1407 1.385 . S
C1406 C1408 1.478 . S
C1407 H1401 0.930 . S
C1407 C1403 1.400 . S
C1407 C1406 1.385 . S
C1408 C1406 1.478 . S
C1408 C1410 1.381 . S
C1408 C1414 1.383 . S
C1409 C1405 1.495 . S
C1409 H1415 0.959 . S
C1409 H1416 0.961 . S
C1409 H1417 0.960 . S
C1410 C1408 1.381 . S
C1410 C1411 1.394 . S
C1410 H1418 0.930 . S
C1411 C1410 1.394 . S
C1411 C1412 1.383 . S
C1411 H1419 0.929 . S
C1412 C1411 1.383 . S
C1412 C1413 1.377 . S
C1413 H1397 0.930 . S
C1413 C1412 1.377 . S
C1413 C1414 1.379 . S
C1414 H1398 0.931 . S
C1414 C1408 1.383 . S
C1414 C1413 1.379 . S
H1415 C1409 0.959 . S
H1416 C1409 0.961 . S
H1417 C1409 0.960 . S
H1418 C1410 0.930 . S
H1419 C1411 0.929 . S
H1420 C1428 0.929 . S
H1421 C1430 0.930 . S
H1422 C1432 0.930 . S
H1423 C1435 0.929 . S
H1424 C1438 0.930 . S
H1425 C1440 0.960 . S
H1426 C1440 0.960 . S
H1427 C1440 0.960 . S
C1428 H1420 0.929 . S
C1428 C1429 1.377 . S
C1428 C1430 1.384 . S
C1429 C1428 1.377 . S
C1429 C1435 1.390 . S
C1430 H1421 0.930 . S
C1430 C1428 1.384 . S
C1430 C1431 1.372 . S
C1431 C1430 1.372 . S
C1431 C1432 1.400 . S
C1431 C1436 1.490 . S
C1432 H1422 0.930 . S
C1432 C1431 1.400 . S
C1432 C1435 1.386 . S
H1433 C1449 0.930 . S
H1434 C1450 0.931 . S
C1435 H1423 0.929 . S
C1435 C1429 1.390 . S
C1435 C1432 1.386 . S
C1436 C1431 1.490 . S
C1436 C1438 1.395 . S
C1436 C1439 1.403 . S
H1437 C1443 0.930 . S
C1438 H1424 0.930 . S
C1438 C1436 1.395 . S
C1438 C1441 1.403 . S
C1439 C1436 1.403 . S
C1439 C1440 1.524 . S
C1439 C1443 1.400 . S
C1440 H1425 0.960 . S
C1440 H1426 0.960 . S
C1440 H1427 0.960 . S
C1440 C1439 1.524 . S
C1441 C1438 1.403 . S
C1441 C1442 1.392 . S
C1441 C1445 1.495 . S
C1442 C1441 1.392 . S
C1442 C1443 1.385 . S
C1442 C1444 1.478 . S
C1443 H1437 0.930 . S
C1443 C1439 1.400 . S
C1443 C1442 1.385 . S
C1444 C1442 1.478 . S
C1444 C1446 1.381 . S
C1444 C1450 1.383 . S
C1445 C1441 1.495 . S
C1445 H1451 0.959 . S
C1445 H1452 0.961 . S
C1445 H1453 0.960 . S
C1446 C1444 1.381 . S
C1446 C1447 1.394 . S
C1446 H1454 0.930 . S
C1447 C1446 1.394 . S
C1447 C1448 1.383 . S
C1447 H1455 0.929 . S
C1448 C1447 1.383 . S
C1448 C1449 1.377 . S
C1449 H1433 0.930 . S
C1449 C1448 1.377 . S
C1449 C1450 1.379 . S
C1450 H1434 0.931 . S
C1450 C1444 1.383 . S
C1450 C1449 1.379 . S
H1451 C1445 0.959 . S
H1452 C1445 0.961 . S
H1453 C1445 0.960 . S
H1454 C1446 0.930 . S
H1455 C1447 0.929 . S
C601 C215 1.972 . S
C620 C319 2.051 . S
C656 C396 2.063 . S
C637 C247 1.986 . S
C692 C487 2.025 . S
C673 C151 1.968 . S
C728 C571 2.031 . S
C709 C183 1.952 . S
C764 C330 2.043 1_565 S
C745 C87 1.914 . S
C781 C119 1.911 . S
C800 C407 2.046 . S
C817 C23 1.906 . S
C836 C498 2.044 . S
C853 C55 1.897 . S
C872 C582 2.030 1_655 S
C908 C314 0.481 1_455 S
C889 C189 0.281 . S
C944 C409 0.618 . S
C925 C221 0.246 . S
C980 C482 0.358 . S
C961 C253 0.290 . S
C997 C157 0.271 . S
C1016 C566 0.353 . S
C1033 C61 0.498 . S
C1052 C325 0.528 . S
C1088 C398 0.635 . S
C1069 C93 0.461 . S
C1124 C493 0.518 . S
C1105 C125 0.506 . S
C1141 C29 0.462 . S
C1160 C577 0.479 . S
C1177 C177 2.202 . S
C1196 C323 2.360 . S
C1213 C209 2.199 . S
C1232 C414 2.369 . S
C1268 C491 2.367 . S
C1249 C241 2.217 . S
C1304 C575 2.381 . S
C1285 C145 2.214 . S
C1321 C49 2.145 . S
C1340 C312 2.348 . S
C1376 C403 2.360 . S
C1357 C81 2.138 . S
C1412 C480 2.367 . S
C1393 C113 2.159 . S
C1429 C17 2.170 . S
C1448 C564 2.373 . S
