# Generated by pormake.
# Topology apo, (3,6)-cn, num edge types: 1
# Building blocks:
#     Node 0, Type 0, BuildingBlock: BETDIP_clean_linker_0, # of connection points: 3
#     Node 1, Type 0, BuildingBlock: BETDIP_clean_linker_0, # of connection points: 3
#     Node 2, Type 0, BuildingBlock: BETDIP_clean_linker_0, # of connection points: 3
#     Node 3, Type 0, BuildingBlock: BETDIP_clean_linker_0, # of connection points: 3
#     Node 4, Type 0, BuildingBlock: BETDIP_clean_linker_0, # of connection points: 3
#     Node 5, Type 0, BuildingBlock: BETDIP_clean_linker_0, # of connection points: 3
#     Node 6, Type 0, BuildingBlock: BETDIP_clean_linker_0, # of connection points: 3
#     Node 7, Type 0, BuildingBlock: BETDIP_clean_linker_0, # of connection points: 3
#     Node 8, Type 1, BuildingBlock: KUMJIN_clean_sbu_1, # of connection points: 6
#     Node 9, Type 1, BuildingBlock: KUMJIN_clean_sbu_1, # of connection points: 6
#     Node 10, Type 1, BuildingBlock: KUMJIN_clean_sbu_1, # of connection points: 6
#     Node 11, Type 1, BuildingBlock: KUMJIN_clean_sbu_1, # of connection points: 6
#     Edge 12, Type (0, 1), BuildingBlock: XUDNAN_clean_linker_2, # of connection points: 2
#     Edge 13, Type (0, 1), BuildingBlock: XUDNAN_clean_linker_2, # of connection points: 2
#     Edge 14, Type (0, 1), BuildingBlock: XUDNAN_clean_linker_2, # of connection points: 2
#     Edge 15, Type (0, 1), BuildingBlock: XUDNAN_clean_linker_2, # of connection points: 2
#     Edge 16, Type (0, 1), BuildingBlock: XUDNAN_clean_linker_2, # of connection points: 2
#     Edge 17, Type (0, 1), BuildingBlock: XUDNAN_clean_linker_2, # of connection points: 2
#     Edge 18, Type (0, 1), BuildingBlock: XUDNAN_clean_linker_2, # of connection points: 2
#     Edge 19, Type (0, 1), BuildingBlock: XUDNAN_clean_linker_2, # of connection points: 2
#     Edge 20, Type (0, 1), BuildingBlock: XUDNAN_clean_linker_2, # of connection points: 2
#     Edge 21, Type (0, 1), BuildingBlock: XUDNAN_clean_linker_2, # of connection points: 2
#     Edge 22, Type (0, 1), BuildingBlock: XUDNAN_clean_linker_2, # of connection points: 2
#     Edge 23, Type (0, 1), BuildingBlock: XUDNAN_clean_linker_2, # of connection points: 2
#     Edge 24, Type (0, 1), BuildingBlock: XUDNAN_clean_linker_2, # of connection points: 2
#     Edge 25, Type (0, 1), BuildingBlock: XUDNAN_clean_linker_2, # of connection points: 2
#     Edge 26, Type (0, 1), BuildingBlock: XUDNAN_clean_linker_2, # of connection points: 2
#     Edge 27, Type (0, 1), BuildingBlock: XUDNAN_clean_linker_2, # of connection points: 2
#     Edge 28, Type (0, 1), BuildingBlock: XUDNAN_clean_linker_2, # of connection points: 2
#     Edge 29, Type (0, 1), BuildingBlock: XUDNAN_clean_linker_2, # of connection points: 2
#     Edge 30, Type (0, 1), BuildingBlock: XUDNAN_clean_linker_2, # of connection points: 2
#     Edge 31, Type (0, 1), BuildingBlock: XUDNAN_clean_linker_2, # of connection points: 2
#     Edge 32, Type (0, 1), BuildingBlock: XUDNAN_clean_linker_2, # of connection points: 2
#     Edge 33, Type (0, 1), BuildingBlock: XUDNAN_clean_linker_2, # of connection points: 2
#     Edge 34, Type (0, 1), BuildingBlock: XUDNAN_clean_linker_2, # of connection points: 2
#     Edge 35, Type (0, 1), BuildingBlock: XUDNAN_clean_linker_2, # of connection points: 2
# Relax obj value: 0.037
# Max RMSD: 0.198
# Mean RMSD: 0.156
data_MOF--net-apo--node1-KUMJIN_clean_sbu_1--node2-BETDIP_clean_linker_0--edge1-XUDNAN_clean_linker_2
_symmetry_space_group_name_H-M    P1
_symmetry_Int_Tables_number       1
_symmetry_cell_setting            triclinic
loop_
_symmetry_equiv_pos_as_xyz
'x, y, z'
_cell_length_a     27.616215
_cell_length_b     41.982265
_cell_length_c     51.537358
_cell_angle_alpha  90.138706
_cell_angle_beta   89.830354
_cell_angle_gamma 90.195678
loop_
_atom_site_label
_atom_site_type_symbol
_atom_site_fract_x
_atom_site_fract_y
_atom_site_fract_z
_atom_type_partial_charge
H0 H 0.26331 0.35138 0.44293 0.0
H1 H 0.28629 0.39808 0.36972 0.0
H2 H 0.34638 0.43836 0.43898 0.0
H3 H 0.20507 0.38059 0.36803 0.0
C4 C 0.21285 0.35562 0.37163 0.0
C5 C 0.28006 0.37037 0.43185 0.0
C6 C 0.30503 0.3952 0.44462 0.0
C7 C 0.27326 0.37128 0.40482 0.0
C8 C 0.29243 0.39689 0.39043 0.0
C9 C 0.31747 0.42169 0.40277 0.0
C10 C 0.32536 0.41982 0.4296 0.0
N11 N 0.24417 0.34763 0.39248 0.0
H12 H 0.251 0.16322 0.93642 0.0
H13 H 0.21783 0.11753 0.86392 0.0
H14 H 0.15252 0.08352 0.93453 0.0
H15 H 0.29885 0.13282 0.85656 0.0
C16 C 0.29756 0.15727 0.86351 0.0
C17 C 0.23158 0.14496 0.92575 0.0
C18 C 0.2009 0.12356 0.93896 0.0
C19 C 0.23904 0.14237 0.89889 0.0
C20 C 0.21406 0.11867 0.88481 0.0
C21 C 0.18226 0.09748 0.89746 0.0
C22 C 0.17657 0.0999 0.92458 0.0
N23 N 0.2709 0.1644 0.88646 0.0
H24 H 0.7764 0.16497 0.58431 0.0
H25 H 0.77239 0.11881 0.65881 0.0
H26 H 0.8542 0.07733 0.59722 0.0
H27 H 0.69728 0.14116 0.65754 0.0
C28 C 0.70728 0.16538 0.65232 0.0
C29 C 0.78813 0.14581 0.59679 0.0
C30 C 0.81703 0.12084 0.58686 0.0
C31 C 0.77182 0.14537 0.62269 0.0
C32 C 0.78482 0.11977 0.63889 0.0
C33 C 0.81278 0.09468 0.62925 0.0
C34 C 0.83043 0.09617 0.6038 0.0
N35 N 0.74152 0.17037 0.63204 0.0
H36 H 0.69731 0.33914 0.08788 0.0
H37 H 0.69016 0.37052 0.16712 0.0
H38 H 0.61995 0.42476 0.1074 0.0
H39 H 0.76256 0.34606 0.16894 0.0
C40 C 0.75734 0.32478 0.15724 0.0
C41 C 0.68465 0.35611 0.10225 0.0
C42 C 0.65719 0.3825 0.09457 0.0
C43 C 0.69787 0.35211 0.12817 0.0
C44 C 0.68125 0.37392 0.1469 0.0
C45 C 0.65296 0.40021 0.13969 0.0
C46 C 0.64177 0.40465 0.11331 0.0
N47 N 0.7276 0.32583 0.13481 0.0
H48 H 0.73359 0.66927 0.58883 0.0
H49 H 0.71276 0.62599 0.66354 0.0
H50 H 0.63651 0.58928 0.59723 0.0
H51 H 0.79411 0.63894 0.66615 0.0
C52 C 0.79363 0.66332 0.65909 0.0
C53 C 0.7167 0.6512 0.60085 0.0
C54 C 0.68396 0.62932 0.58981 0.0
C55 C 0.7289 0.64939 0.62717 0.0
C56 C 0.70568 0.62658 0.64289 0.0
C57 C 0.67233 0.60483 0.63227 0.0
C58 C 0.66258 0.60575 0.60553 0.0
N59 N 0.7639 0.67098 0.6375 0.0
H60 H 0.80049 0.84377 0.08286 0.0
H61 H 0.80318 0.88127 0.16047 0.0
H62 H 0.87544 0.93178 0.09931 0.0
H63 H 0.73565 0.85309 0.16493 0.0
C64 C 0.74057 0.83182 0.15322 0.0
C65 C 0.81246 0.86186 0.09646 0.0
C66 C 0.84025 0.88795 0.08776 0.0
C67 C 0.79799 0.85949 0.12246 0.0
C68 C 0.81256 0.88319 0.14015 0.0
C69 C 0.84017 0.90943 0.13186 0.0
C70 C 0.85425 0.91149 0.10573 0.0
N71 N 0.76898 0.83301 0.13015 0.0
H72 H 0.23303 0.84947 0.44455 0.0
H73 H 0.2117 0.88484 0.36743 0.0
H74 H 0.18526 0.94614 0.43274 0.0
H75 H 0.18941 0.83144 0.3621 0.0
C76 C 0.22284 0.82212 0.37013 0.0
C77 C 0.22217 0.86858 0.43175 0.0
C78 C 0.20812 0.89829 0.44209 0.0
C79 C 0.22291 0.86346 0.40487 0.0
C80 C 0.21038 0.88853 0.38821 0.0
C81 C 0.19715 0.91856 0.39796 0.0
C82 C 0.19552 0.92311 0.42499 0.0
N83 N 0.2387 0.83362 0.39468 0.0
H84 H 0.27384 0.66691 0.94096 0.0
H85 H 0.2755 0.6277 0.86423 0.0
H86 H 0.33153 0.57295 0.92777 0.0
H87 H 0.20894 0.65737 0.8597 0.0
C88 C 0.21853 0.67918 0.86983 0.0
C89 C 0.28263 0.6474 0.92799 0.0
C90 C 0.30541 0.61987 0.9376 0.0
C91 C 0.26986 0.64983 0.90182 0.0
C92 C 0.28172 0.62484 0.88478 0.0
C93 C 0.30322 0.59664 0.89382 0.0
C94 C 0.31481 0.59438 0.92042 0.0
N95 N 0.24657 0.67801 0.89291 0.0
Eu96 Eu 0.0717 0.13085 0.23377 0.0
C97 C 0.85225 0.11609 0.2827 0.0
N98 N 0.88297 0.14109 0.27948 0.0
C99 C 0.81689 0.17414 0.26627 0.0
C100 C 0.80253 0.11891 0.27704 0.0
C101 C 0.86577 0.17022 0.27244 0.0
C102 C 0.78517 0.14828 0.26832 0.0
C103 C 0.83965 0.0614 0.2963 0.0
C104 C 0.87042 0.08782 0.29234 0.0
C105 C 0.79023 0.0639 0.29029 0.0
C106 C 0.77172 0.09259 0.28068 0.0
Eu107 Eu 0.96473 0.13263 0.29084 0.0
N108 N 0.91855 0.08593 0.29729 0.0
C109 C 0.85959 0.03327 0.30608 0.0
C110 C 0.93802 0.05893 0.30753 0.0
C111 C 0.90898 0.0321 0.31185 0.0
H112 H 0.88955 0.19065 0.27224 0.0
H113 H 0.92466 0.01057 0.31965 0.0
H114 H 0.17231 0.10985 0.26475 0.0
H115 H 0.02652 0.24487 0.18735 0.0
H116 H 0.97607 0.05807 0.31204 0.0
H117 H 0.83718 0.01243 0.30938 0.0
H118 H 0.01967 0.18738 0.19459 0.0
H119 H 0.80357 0.19721 0.26034 0.0
H120 H 0.76601 0.04384 0.29311 0.0
H121 H 0.73344 0.09426 0.27635 0.0
H122 H 0.24712 0.13529 0.2816 0.0
H123 H 0.74722 0.15144 0.26376 0.0
H124 H 0.09317 0.2754 0.20759 0.0
N125 N 0.14405 0.15301 0.24987 0.0
C126 C 0.15143 0.18453 0.24529 0.0
C127 C 0.2204 0.1494 0.27155 0.0
C128 C 0.1931 0.20007 0.25483 0.0
C129 C 0.17828 0.13506 0.26199 0.0
C130 C 0.22764 0.18209 0.26816 0.0
N131 N 0.07702 0.18562 0.22221 0.0
C132 C 0.04681 0.20049 0.20515 0.0
C133 C 0.12334 0.23421 0.2268 0.0
C134 C 0.1166 0.20138 0.23154 0.0
C135 C 0.08939 0.25019 0.21158 0.0
C136 C 0.05154 0.23309 0.20026 0.0
H137 H 0.26015 0.19318 0.27575 0.0
H138 H 0.23042 0.24535 0.2583 0.0
H139 H 0.16946 0.27522 0.23376 0.0
O140 O 0.09633 0.13279 0.19306 0.0
O141 O 0.08459 0.15155 0.2744 0.0
O142 O 0.0115 0.17406 0.27977 0.0
O143 O 0.12239 0.09531 0.21868 0.0
O144 O 0.99574 0.14386 0.22088 0.0
O145 O 0.96994 0.16821 0.25802 0.0
O146 O 0.97145 0.12753 0.33331 0.0
O147 O 0.95543 0.09283 0.26142 0.0
O148 O 0.00957 0.09647 0.22627 0.0
O149 O 0.93582 0.16837 0.31703 0.0
O150 O 0.03502 0.10683 0.30054 0.0
O151 O 0.06965 0.08921 0.26161 0.0
C152 C 0.05779 0.17423 0.28427 0.0
C153 C 0.15305 0.09426 0.17419 0.0
C154 C 0.17741 0.09215 0.12831 0.0
C155 C 0.20962 0.06738 0.13441 0.0
C156 C 0.18535 0.06937 0.1795 0.0
C157 C 0.21343 0.05614 0.15975 0.0
C158 C 0.14932 0.1057 0.14849 0.0
C159 C 0.96361 0.16096 0.2335 0.0
C160 C 0.1234 0.10772 0.19557 0.0
C161 C 0.19891 0.23293 0.25087 0.0
C162 C 0.1641 0.24995 0.23695 0.0
C163 C 0.9721 0.08377 0.23854 0.0
C164 C 0.90313 0.14886 0.35609 0.0
C165 C 0.8713 0.14168 0.39991 0.0
C166 C 0.82434 0.14717 0.39072 0.0
C167 C 0.8555 0.15396 0.3473 0.0
C168 C 0.91077 0.14229 0.38255 0.0
C169 C 0.81653 0.15305 0.3645 0.0
C170 C 0.06308 0.0874 0.28697 0.0
C171 C 0.94459 0.15239 0.33801 0.0
H172 H 0.23256 0.0569 0.11962 0.0
H173 H 0.1891 0.06013 0.19899 0.0
H174 H 0.23844 0.03711 0.16412 0.0
H175 H 0.1241 0.12465 0.14415 0.0
H176 H 0.79361 0.14647 0.40384 0.0
H177 H 0.84817 0.15926 0.3272 0.0
H178 H 0.94712 0.13819 0.38965 0.0
H179 H 0.78016 0.15713 0.3575 0.0
Eu180 Eu 0.4555 0.37599 0.73519 0.0
C181 C 0.64765 0.42719 0.76569 0.0
N182 N 0.6303 0.398 0.77243 0.0
C183 C 0.70241 0.37363 0.7556 0.0
C184 C 0.69175 0.43049 0.75205 0.0
C185 C 0.65879 0.3717 0.76938 0.0
C186 C 0.71836 0.40306 0.74629 0.0
C187 C 0.64205 0.4847 0.76956 0.0
C188 C 0.62338 0.454 0.77439 0.0
C189 C 0.68411 0.48812 0.75443 0.0
C190 C 0.7089 0.46105 0.74566 0.0
Eu191 Eu 0.55243 0.39736 0.79243 0.0
N192 N 0.58222 0.44996 0.78847 0.0
C193 C 0.6185 0.51095 0.78065 0.0
C194 C 0.56083 0.47515 0.8007 0.0
C195 C 0.57825 0.50609 0.79671 0.0
H196 H 0.64817 0.34908 0.77758 0.0
H197 H 0.56043 0.52614 0.80583 0.0
H198 H 0.35079 0.39566 0.76323 0.0
H199 H 0.51016 0.26096 0.69443 0.0
H200 H 0.52944 0.4713 0.81282 0.0
H201 H 0.63174 0.53495 0.77742 0.0
H202 H 0.51117 0.31943 0.6993 0.0
H203 H 0.72398 0.35248 0.75248 0.0
H204 H 0.69856 0.51154 0.75008 0.0
H205 H 0.74225 0.46402 0.73479 0.0
H206 H 0.27725 0.36934 0.78052 0.0
H207 H 0.75241 0.40454 0.73585 0.0
H208 H 0.44643 0.2292 0.71624 0.0
N209 N 0.38442 0.35228 0.75216 0.0
C210 C 0.37998 0.3202 0.74982 0.0
C211 C 0.30606 0.35522 0.77214 0.0
C212 C 0.33887 0.30413 0.75949 0.0
C213 C 0.34773 0.37005 0.76244 0.0
C214 C 0.30172 0.3221 0.77079 0.0
N215 N 0.45392 0.3203 0.72685 0.0
C216 C 0.48548 0.30561 0.71033 0.0
C217 C 0.41244 0.27038 0.73382 0.0
C218 C 0.41626 0.30366 0.73714 0.0
C219 C 0.44789 0.25475 0.71917 0.0
C220 C 0.48403 0.27257 0.70691 0.0
H221 H 0.26923 0.31072 0.77815 0.0
H222 H 0.30481 0.25798 0.76473 0.0
H223 H 0.36945 0.22837 0.74239 0.0
O224 O 0.44295 0.36863 0.69397 0.0
O225 O 0.44387 0.35991 0.77711 0.0
O226 O 0.519 0.3477 0.79269 0.0
O227 O 0.40417 0.4059 0.71361 0.0
O228 O 0.53509 0.36244 0.729 0.0
O229 O 0.56229 0.35129 0.77019 0.0
O230 O 0.53288 0.40072 0.83355 0.0
O231 O 0.52863 0.43443 0.76326 0.0
O232 O 0.52205 0.40588 0.72585 0.0
O233 O 0.6075 0.39464 0.82254 0.0
O234 O 0.47466 0.41268 0.79949 0.0
O235 O 0.43645 0.42022 0.75952 0.0
C236 C 0.4727 0.34103 0.79005 0.0
C237 C 0.3669 0.38068 0.67713 0.0
C238 C 0.32661 0.3763 0.63512 0.0
C239 C 0.29256 0.35539 0.64614 0.0
C240 C 0.33225 0.36003 0.68787 0.0
C241 C 0.29518 0.34759 0.67245 0.0
C242 C 0.36357 0.38905 0.65081 0.0
C243 C 0.5626 0.34615 0.745 0.0
C244 C 0.41006 0.39039 0.69191 0.0
C245 C 0.33585 0.27084 0.75717 0.0
C246 C 0.37269 0.25398 0.74448 0.0
C247 C 0.53242 0.43242 0.73799 0.0
C248 C 0.58294 0.37196 0.86201 0.0
C249 C 0.5985 0.35961 0.90757 0.0
C250 C 0.60138 0.32709 0.90081 0.0
C251 C 0.58524 0.33949 0.8558 0.0
C252 C 0.58864 0.38185 0.88782 0.0
C253 C 0.59428 0.31718 0.87519 0.0
C254 C 0.44155 0.42624 0.78472 0.0
C255 C 0.57678 0.39593 0.84163 0.0
H256 H 0.26367 0.34541 0.63447 0.0
H257 H 0.33437 0.35295 0.70794 0.0
H258 H 0.26874 0.33151 0.68084 0.0
H259 H 0.39073 0.4046 0.64231 0.0
H260 H 0.61008 0.30921 0.91513 0.0
H261 H 0.58077 0.33149 0.83594 0.0
H262 H 0.5855 0.40698 0.89233 0.0
H263 H 0.59662 0.29215 0.87028 0.0
Eu264 Eu 0.05424 0.89889 0.72501 0.0
C265 C 0.8672 0.84243 0.76597 0.0
N266 N 0.88181 0.87333 0.76756 0.0
C267 C 0.80577 0.89023 0.74987 0.0
C268 C 0.82192 0.83418 0.75522 0.0
C269 C 0.85051 0.89721 0.76121 0.0
C270 C 0.79177 0.85854 0.74641 0.0
C271 C 0.88069 0.78711 0.77734 0.0
C272 C 0.89606 0.81916 0.77684 0.0
C273 C 0.83673 0.77859 0.76556 0.0
C274 C 0.80734 0.8021 0.7546 0.0
Eu275 Eu 0.96004 0.88252 0.78538 0.0
N276 N 0.9385 0.8281 0.78792 0.0
C277 C 0.90944 0.76477 0.79022 0.0
C278 C 0.96542 0.80683 0.80169 0.0
C279 C 0.95166 0.77477 0.80276 0.0
H280 H 0.85951 0.9218 0.7651 0.0
H281 H 0.97359 0.75783 0.81324 0.0
H282 H 0.16296 0.89289 0.75231 0.0
H283 H 0.98059 0.99656 0.66741 0.0
H284 H 0.99783 0.81467 0.81146 0.0
H285 H 0.89885 0.73992 0.79104 0.0
H286 H 0.9871 0.94131 0.68284 0.0
H287 H 0.78176 0.90931 0.74424 0.0
H288 H 0.82454 0.75403 0.76543 0.0
H289 H 0.77276 0.79532 0.74633 0.0
H290 H 0.23359 0.92733 0.7623 0.0
H291 H 0.75678 0.8532 0.73795 0.0
H292 H 0.04034 0.037 0.68169 0.0
N293 N 0.12194 0.93048 0.73598 0.0
C294 C 0.12095 0.96145 0.72854 0.0
C295 C 0.20205 0.93726 0.75294 0.0
C296 C 0.16021 0.98197 0.73386 0.0
C297 C 0.16217 0.91786 0.74732 0.0
C298 C 0.20092 0.96953 0.74638 0.0
N299 N 0.04591 0.95106 0.70823 0.0
C300 C 0.01158 0.95909 0.69043 0.0
C301 C 0.08029 1.00383 0.7055 0.0
C302 C 0.08138 0.97218 0.71462 0.0
C303 C 0.04243 0.01295 0.68916 0.0
C304 C 0.00855 0.99025 0.68114 0.0
H305 H 0.23189 0.98451 0.75074 0.0
H306 H 0.18759 0.03019 0.73018 0.0
H307 H 0.11762 0.04934 0.70529 0.0
O308 O 0.0741 0.90041 0.68396 0.0
O309 O 0.06869 0.92371 0.76416 0.0
O310 O 0.99103 0.93105 0.77715 0.0
O311 O 0.10206 0.86288 0.70798 0.0
O312 O 0.97317 0.90479 0.71914 0.0
O313 O 0.94545 0.92433 0.75814 0.0
O314 O 0.97767 0.884 0.8269 0.0
O315 O 0.98621 0.84296 0.75879 0.0
O316 O 0.9895 0.86588 0.71875 0.0
O317 O 0.90614 0.89641 0.81421 0.0
O318 O 0.03926 0.87077 0.79391 0.0
O319 O 0.07723 0.86124 0.75393 0.0
C320 C 0.03704 0.93747 0.7796 0.0
C321 C 0.15083 0.88061 0.67245 0.0
C322 C 0.19737 0.89249 0.63317 0.0
C323 C 0.24001 0.89256 0.64797 0.0
C324 C 0.19401 0.88028 0.68678 0.0
C325 C 0.23829 0.88622 0.67454 0.0
C326 C 0.15284 0.88625 0.64552 0.0
C327 C 0.94397 0.92312 0.73261 0.0
C328 C 0.10329 0.87631 0.6852 0.0
C329 C 0.15805 0.01394 0.726 0.0
C330 C 0.11812 0.02487 0.7119 0.0
C331 C 0.97887 0.8416 0.73374 0.0
C332 C 0.91209 0.87112 0.85469 0.0
C333 C 0.8923 0.8629 0.90047 0.0
C334 C 0.86773 0.83466 0.89368 0.0
C335 C 0.88666 0.84316 0.84844 0.0
C336 C 0.9149 0.88091 0.88074 0.0
C337 C 0.86511 0.8249 0.86785 0.0
C338 C 0.07411 0.85817 0.77945 0.0
C339 C 0.93371 0.89087 0.83405 0.0
H340 H 0.27472 0.8973 0.63889 0.0
H341 H 0.19363 0.87562 0.70741 0.0
H342 H 0.27138 0.88612 0.68574 0.0
H343 H 0.11966 0.88665 0.63432 0.0
H344 H 0.84916 0.82055 0.90821 0.0
H345 H 0.88252 0.83571 0.82854 0.0
H346 H 0.93424 0.90264 0.88555 0.0
H347 H 0.84544 0.80343 0.8628 0.0
Eu348 Eu 0.45036 0.62059 0.23227 0.0
C349 C 0.64709 0.6558 0.27909 0.0
N350 N 0.62049 0.62846 0.27738 0.0
C351 C 0.68999 0.60069 0.26084 0.0
C352 C 0.69566 0.65682 0.27045 0.0
C353 C 0.64236 0.60068 0.27007 0.0
C354 C 0.71649 0.62899 0.26057 0.0
C355 C 0.65373 0.7109 0.2934 0.0
C356 C 0.62657 0.68261 0.29057 0.0
C357 C 0.70166 0.71205 0.28433 0.0
C358 C 0.72246 0.68516 0.27275 0.0
Eu359 Eu 0.54022 0.63193 0.29392 0.0
N360 N 0.57999 0.68107 0.29902 0.0
C361 C 0.63192 0.73721 0.30536 0.0
C362 C 0.55832 0.70664 0.3105 0.0
C363 C 0.58394 0.73511 0.31384 0.0
H364 H 0.62442 0.57807 0.27225 0.0
H365 H 0.56677 0.75534 0.32304 0.0
H366 H 0.35816 0.64675 0.26966 0.0
H367 H 0.47015 0.50893 0.179 0.0
H368 H 0.52145 0.7049 0.31739 0.0
H369 H 0.65173 0.75929 0.30804 0.0
H370 H 0.4923 0.56371 0.19246 0.0
H371 H 0.70665 0.57865 0.25459 0.0
H372 H 0.72306 0.7336 0.28629 0.0
H373 H 0.7597 0.68634 0.26612 0.0
H374 H 0.28043 0.62664 0.28676 0.0
H375 H 0.75366 0.62881 0.25377 0.0
H376 H 0.39387 0.48467 0.1948 0.0
N377 N 0.37432 0.60435 0.24893 0.0
C378 C 0.35846 0.57506 0.24124 0.0
C379 C 0.30218 0.61183 0.2741 0.0
C380 C 0.31439 0.56252 0.25066 0.0
C381 C 0.34638 0.62315 0.26448 0.0
C382 C 0.28629 0.5813 0.26735 0.0
N383 N 0.43042 0.56948 0.21646 0.0
C384 C 0.45953 0.55293 0.19986 0.0
C385 C 0.37326 0.52605 0.2174 0.0
C386 C 0.38764 0.55701 0.22482 0.0
C387 C 0.40359 0.50856 0.20089 0.0
C388 C 0.44678 0.52214 0.19198 0.0
H389 H 0.25221 0.57251 0.27501 0.0
H390 H 0.26644 0.52155 0.25052 0.0
H391 H 0.31788 0.48966 0.22141 0.0
O392 O 0.4354 0.61865 0.19008 0.0
O393 O 0.44252 0.58625 0.26647 0.0
O394 O 0.46254 0.6183 0.30059 0.0
O395 O 0.41185 0.65927 0.21361 0.0
O396 O 0.52551 0.60039 0.22944 0.0
O397 O 0.53907 0.58468 0.27147 0.0
O398 O 0.55181 0.64374 0.33498 0.0
O399 O 0.54377 0.66868 0.26142 0.0
O400 O 0.52677 0.63872 0.2252 0.0
O401 O 0.56312 0.59572 0.32152 0.0
O402 O 0.4699 0.65956 0.29781 0.0
O403 O 0.44247 0.66666 0.2555 0.0
C404 C 0.44251 0.59249 0.29142 0.0
C405 C 0.3917 0.66167 0.16776 0.0
C406 C 0.36969 0.66243 0.12164 0.0
C407 C 0.3497 0.69292 0.12531 0.0
C408 C 0.37165 0.69221 0.17061 0.0
C409 C 0.35082 0.70762 0.14955 0.0
C410 C 0.39055 0.64676 0.14314 0.0
C411 C 0.54156 0.57957 0.24624 0.0
C412 C 0.4133 0.646 0.19071 0.0
C413 C 0.30007 0.53164 0.24337 0.0
C414 C 0.3294 0.51347 0.2268 0.0
C415 C 0.54771 0.66332 0.2364 0.0
C416 C 0.61007 0.61303 0.35736 0.0
C417 C 0.64701 0.61508 0.40043 0.0
C418 C 0.69108 0.60506 0.38947 0.0
C419 C 0.65466 0.60354 0.34677 0.0
C420 C 0.60659 0.61915 0.38416 0.0
C421 C 0.69486 0.59957 0.36279 0.0
C422 C 0.44428 0.67496 0.28022 0.0
C423 C 0.56644 0.61537 0.34104 0.0
H424 H 0.33236 0.70533 0.10947 0.0
H425 H 0.37191 0.70429 0.18921 0.0
H426 H 0.33522 0.73105 0.15205 0.0
H427 H 0.40611 0.62329 0.14069 0.0
H428 H 0.72282 0.60199 0.4015 0.0
H429 H 0.65832 0.59885 0.3262 0.0
H430 H 0.5722 0.62644 0.39242 0.0
H431 H 0.72908 0.59211 0.35452 0.0
H432 H 0.12509 0.96433 0.40103 0.0
H433 H 0.24577 0.93302 0.3532 0.0
H434 H 0.22515 0.97323 0.3205 0.0
H435 H 0.04297 0.98014 0.34993 0.0
H436 H 0.01765 0.01558 0.36425 0.0
H437 H 0.04211 0.9849 0.38471 0.0
H438 H 0.09967 0.02597 0.40621 0.0
H439 H 0.07503 0.05686 0.38599 0.0
H440 H 0.13934 0.04965 0.38613 0.0
H441 H 0.1882 0.01316 0.29134 0.0
H442 H 0.14132 0.05432 0.26891 0.0
H443 H 0.04861 0.06429 0.33673 0.0
C444 C 0.14766 0.96629 0.38389 0.0
C445 C 0.18662 0.94502 0.37956 0.0
C446 C 0.21499 0.94835 0.35673 0.0
C447 C 0.20381 0.97131 0.33807 0.0
C448 C 0.1646 0.99128 0.34261 0.0
C449 C 0.13733 0.98944 0.36508 0.0
C450 C 0.09693 0.01393 0.36488 0.0
C451 C 0.04696 0.99765 0.36601 0.0
C452 C 0.10314 0.03804 0.38712 0.0
C453 C 0.10557 0.02941 0.33867 0.0
C454 C 0.14458 0.01572 0.32613 0.0
C455 C 0.15803 0.02445 0.3011 0.0
C456 C 0.13098 0.04789 0.28849 0.0
C457 C 0.09123 0.0628 0.301 0.0
C458 C 0.07881 0.05354 0.32659 0.0
H459 H 0.38012 0.55431 0.89417 0.0
H460 H 0.25038 0.57821 0.85093 0.0
H461 H 0.27126 0.53784 0.81812 0.0
H462 H 0.45731 0.53871 0.84074 0.0
H463 H 0.48679 0.50515 0.85554 0.0
H464 H 0.46217 0.53638 0.87557 0.0
H465 H 0.41023 0.49495 0.9006 0.0
H466 H 0.43507 0.4636 0.88075 0.0
H467 H 0.3704 0.46875 0.88283 0.0
H468 H 0.30998 0.49687 0.78798 0.0
H469 H 0.35871 0.45514 0.76614 0.0
H470 H 0.45613 0.454 0.83213 0.0
C471 C 0.35547 0.55083 0.87812 0.0
C472 C 0.31395 0.57015 0.87514 0.0
C473 C 0.28325 0.56462 0.85347 0.0
C474 C 0.29455 0.54148 0.83473 0.0
C475 C 0.33616 0.52338 0.83806 0.0
C476 C 0.36562 0.52738 0.85948 0.0
C477 C 0.40765 0.50434 0.85883 0.0
C478 C 0.45634 0.52223 0.85759 0.0
C479 C 0.40569 0.48156 0.88213 0.0
C480 C 0.39738 0.487 0.83364 0.0
C481 C 0.35643 0.49852 0.82168 0.0
C482 C 0.34172 0.4873 0.79739 0.0
C483 C 0.36961 0.46359 0.78511 0.0
C484 C 0.41116 0.45099 0.79737 0.0
C485 C 0.4246 0.46286 0.82208 0.0
H486 H 0.6657 0.53918 0.62989 0.0
H487 H 0.61857 0.62141 0.6742 0.0
H488 H 0.5747 0.58612 0.70455 0.0
H489 H 0.55673 0.49128 0.63763 0.0
H490 H 0.58883 0.4543 0.64156 0.0
H491 H 0.61507 0.4859 0.62248 0.0
H492 H 0.69218 0.48474 0.65107 0.0
H493 H 0.66616 0.45309 0.67016 0.0
H494 H 0.68636 0.4892 0.68575 0.0
H495 H 0.53715 0.54269 0.73031 0.0
H496 H 0.51041 0.49307 0.75142 0.0
H497 H 0.58329 0.43769 0.69192 0.0
C498 C 0.64567 0.54962 0.64586 0.0
C499 C 0.64521 0.583 0.64972 0.0
C500 C 0.61936 0.5959 0.67101 0.0
C501 C 0.59426 0.57607 0.68827 0.0
C502 C 0.59563 0.5433 0.68412 0.0
C503 C 0.62087 0.53003 0.66359 0.0
C504 C 0.6181 0.49387 0.66446 0.0
C505 C 0.59319 0.48056 0.64008 0.0
C506 C 0.66871 0.47938 0.66807 0.0
C507 C 0.58694 0.48901 0.68846 0.0
C508 C 0.57445 0.51794 0.69941 0.0
C509 C 0.54669 0.5199 0.72193 0.0
C510 C 0.53183 0.49157 0.73383 0.0
C511 C 0.54498 0.46159 0.72338 0.0
C512 C 0.57232 0.46031 0.70016 0.0
H513 H 0.92785 0.93972 0.13895 0.0
H514 H 0.77892 0.93818 0.16609 0.0
H515 H 0.79702 0.9823 0.19628 0.0
H516 H 0.98215 0.95669 0.20137 0.0
H517 H 0.02833 0.98251 0.18823 0.0
H518 H 0.00397 0.95061 0.16874 0.0
H519 H 0.98127 0.99108 0.13292 0.0
H520 H 0.00551 0.02308 0.15232 0.0
H521 H 0.94384 0.02477 0.14106 0.0
H522 H 0.82956 0.0277 0.22184 0.0
H523 H 0.87586 0.0703 0.24307 0.0
H524 H 0.00531 0.04152 0.20154 0.0
C525 C 0.89911 0.94876 0.15124 0.0
C526 C 0.852 0.9355 0.15028 0.0
C527 C 0.81538 0.94774 0.16677 0.0
C528 C 0.82523 0.97289 0.18386 0.0
C529 C 0.87194 0.98544 0.18431 0.0
C530 C 0.90843 0.97376 0.1686 0.0
C531 C 0.95559 0.99152 0.17319 0.0
C532 C 0.99482 0.96899 0.1835 0.0
C533 C 0.97253 0.00863 0.1484 0.0
C534 C 0.93972 0.01512 0.19382 0.0
C535 C 0.89127 0.01116 0.19982 0.0
C536 C 0.86777 0.03058 0.21771 0.0
C537 C 0.8946 0.05448 0.23003 0.0
C538 C 0.94461 0.05854 0.22485 0.0
C539 C 0.96726 0.03876 0.2062 0.0
H540 H 0.84749 0.08829 0.67926 0.0
H541 H 0.79451 0.03449 0.61315 0.0
H542 H 0.812 0.98434 0.63585 0.0
H543 H 0.94409 0.04261 0.6917 0.0
H544 H 0.94284 0.04173 0.72669 0.0
H545 H 0.91718 0.07486 0.70951 0.0
H546 H 0.83387 0.06788 0.73039 0.0
H547 H 0.85812 0.03611 0.74988 0.0
H548 H 0.80495 0.02933 0.73039 0.0
H549 H 0.84381 0.9408 0.66226 0.0
H550 H 0.89055 0.9057 0.69114 0.0
H551 H 0.92308 0.98608 0.74116 0.0
C552 C 0.83848 0.06589 0.66996 0.0
C553 C 0.81985 0.06515 0.64445 0.0
C554 C 0.80925 0.03549 0.6326 0.0
C555 C 0.81861 0.0069 0.64542 0.0
C556 C 0.83813 0.00829 0.67024 0.0
C557 C 0.84767 0.03692 0.68258 0.0
C558 C 0.87291 0.03142 0.70832 0.0
C559 C 0.9222 0.04861 0.70911 0.0
C560 C 0.84052 0.0418 0.73109 0.0
C561 C 0.87845 0.99544 0.70767 0.0
C562 C 0.85699 0.98265 0.68578 0.0
C563 C 0.85999 0.95036 0.67973 0.0
C564 C 0.88658 0.93064 0.69617 0.0
C565 C 0.90976 0.94327 0.71834 0.0
C566 C 0.90459 0.97587 0.72459 0.0
H567 H 0.64996 0.46563 0.13731 0.0
H568 H 0.61553 0.38585 0.1876 0.0
H569 H 0.58794 0.42321 0.22157 0.0
H570 H 0.69253 0.51903 0.18742 0.0
H571 H 0.66626 0.55385 0.17278 0.0
H572 H 0.68495 0.52088 0.15272 0.0
H573 H 0.59898 0.5175 0.1332 0.0
H574 H 0.57941 0.55019 0.15329 0.0
H575 H 0.54751 0.51271 0.15439 0.0
H576 H 0.56263 0.46942 0.24992 0.0
H577 H 0.53778 0.52096 0.26928 0.0
H578 H 0.58805 0.57002 0.20028 0.0
C579 C 0.63635 0.45599 0.1554 0.0
C580 C 0.63522 0.4228 0.15983 0.0
C581 C 0.61753 0.4112 0.1839 0.0
C582 C 0.60161 0.43222 0.20329 0.0
C583 C 0.60356 0.46479 0.19836 0.0
C584 C 0.62031 0.47661 0.17496 0.0
C585 C 0.61761 0.5126 0.17431 0.0
C586 C 0.66836 0.52745 0.17166 0.0
C587 C 0.58386 0.52391 0.15252 0.0
C588 C 0.59617 0.5191 0.20084 0.0
C589 C 0.58867 0.49128 0.21454 0.0
C590 C 0.56848 0.49138 0.2394 0.0
C591 C 0.55477 0.52069 0.25031 0.0
C592 C 0.56095 0.54928 0.2362 0.0
C593 C 0.58278 0.54843 0.21142 0.0
H594 H 0.355 0.42761 0.35293 0.0
H595 H 0.30862 0.48291 0.41988 0.0
H596 H 0.33084 0.53225 0.39729 0.0
H597 H 0.45633 0.47484 0.33607 0.0
H598 H 0.44788 0.47205 0.30147 0.0
H599 H 0.42642 0.44057 0.32223 0.0
H600 H 0.34009 0.44671 0.30322 0.0
H601 H 0.36151 0.47826 0.28242 0.0
H602 H 0.31119 0.48516 0.30402 0.0
H603 H 0.3622 0.57516 0.36945 0.0
H604 H 0.40124 0.60991 0.33711 0.0
H605 H 0.42378 0.52843 0.28651 0.0
C606 C 0.34902 0.45011 0.3627 0.0
C607 C 0.3308 0.45122 0.38842 0.0
C608 C 0.32378 0.48124 0.40053 0.0
C609 C 0.3357 0.5095 0.38773 0.0
C610 C 0.35393 0.50757 0.36261 0.0
C611 C 0.36033 0.47877 0.35006 0.0
C612 C 0.38195 0.48371 0.32321 0.0
C613 C 0.43106 0.4668 0.32061 0.0
C614 C 0.34656 0.47281 0.30197 0.0
C615 C 0.38791 0.51965 0.32311 0.0
C616 C 0.37111 0.53282 0.34601 0.0
C617 C 0.37502 0.56524 0.3513 0.0
C618 C 0.39741 0.58474 0.33286 0.0
C619 C 0.41542 0.5718 0.30938 0.0
C620 C 0.40974 0.53893 0.30421 0.0
H621 H 0.21124 0.05999 0.8558 0.0
H622 H 0.08704 0.08154 0.9046 0.0
H623 H 0.03825 0.04243 0.88038 0.0
H624 H 0.14295 0.05121 0.79622 0.0
H625 H 0.17997 0.01929 0.78399 0.0
H626 H 0.20573 0.04857 0.80548 0.0
H627 H 0.23282 1.00347 0.83646 0.0
H628 H 0.20671 0.97418 0.815 0.0
H629 H 0.18843 0.97561 0.84859 0.0
H630 H 0.00223 1.00194 0.85099 0.0
H631 H 0.98049 0.96232 0.81786 0.0
H632 H 0.12704 0.96597 0.78724 0.0
C633 C 0.17374 0.05655 0.86134 0.0
C634 C 0.15324 0.07372 0.88239 0.0
C635 C 0.10402 0.06832 0.88899 0.0
C636 C 0.07583 0.04626 0.87521 0.0
C637 C 0.09715 0.0297 0.85475 0.0
C638 C 0.14491 0.0345 0.84774 0.0
C639 C 0.1584 0.01376 0.8246 0.0
C640 C 0.17259 0.03446 0.80119 0.0
C641 C 0.199 0.99037 0.83159 0.0
C642 C 0.11082 0.99642 0.8199 0.0
C643 C 0.07607 0.00618 0.83752 0.0
C644 C 0.02912 0.9941 0.83708 0.0
C645 C 0.01716 0.97155 0.81808 0.0
C646 C 0.05195 0.96102 0.79968 0.0
C647 C 0.09958 0.97354 0.80084 0.0
H648 H 0.19608 0.0745 0.97425 0.0
H649 H 0.19082 0.17757 0.96894 0.0
H650 H 0.18042 0.18102 0.01655 0.0
H651 H 0.10563 0.06642 0.02525 0.0
H652 H 0.13683 0.03399 0.04072 0.0
H653 H 0.14264 0.03981 1.00622 0.0
H654 H 0.23603 0.04223 1.01073 0.0
H655 H 0.23051 0.03641 0.04521 0.0
H656 H 0.26285 0.07054 0.03284 0.0
H657 H 0.17212 0.17291 0.06545 0.0
H658 H 0.17014 0.15402 0.11091 0.0
H659 H 0.17835 0.05635 0.08354 0.0
C660 C 0.19209 0.09782 0.983 0.0
C661 C 0.19421 0.12577 0.96772 0.0
C662 C 0.18985 0.1558 0.98017 0.0
C663 C 0.18355 0.158 1.00721 0.0
C664 C 0.18157 0.12995 0.02164 0.0
C665 C 0.18576 0.10044 1.00991 0.0
C666 C 0.18381 0.07391 0.02976 0.0
C667 C 0.13959 0.05226 0.02521 0.0
C668 C 0.23112 0.05465 0.02962 0.0
C669 C 0.1784 0.09305 0.05454 0.0
C670 C 0.17684 0.12533 0.04952 0.0
C671 C 0.17304 0.14765 0.06955 0.0
C672 C 0.17161 0.13669 0.09534 0.0
C673 C 0.17422 0.10369 0.10094 0.0
C674 C 0.17686 0.08175 0.08007 0.0
H675 H 0.31332 0.34684 0.48134 0.0
H676 H 0.29762 0.44943 0.47393 0.0
H677 H 0.30395 0.45529 0.52109 0.0
H678 H 0.23918 0.34103 0.53974 0.0
H679 H 0.27535 0.31 0.55396 0.0
H680 H 0.27147 0.31348 0.51919 0.0
H681 H 0.36498 0.31698 0.51625 0.0
H682 H 0.36915 0.31367 0.55102 0.0
H683 H 0.39663 0.34707 0.53465 0.0
H684 H 0.31524 0.45108 0.5687 0.0
H685 H 0.32258 0.43594 0.61487 0.0
H686 H 0.32374 0.33617 0.5929 0.0
C687 C 0.31092 0.37051 0.48961 0.0
C688 C 0.30645 0.39771 0.47357 0.0
C689 C 0.30306 0.42821 0.48544 0.0
C690 C 0.30614 0.43186 0.51235 0.0
C691 C 0.31156 0.40478 0.52746 0.0
C692 C 0.31314 0.37462 0.51668 0.0
C693 C 0.31749 0.3495 0.53769 0.0
C694 C 0.27323 0.32719 0.53764 0.0
C695 C 0.36489 0.3307 0.53472 0.0
C696 C 0.31832 0.37037 0.56181 0.0
C697 C 0.31541 0.40221 0.55536 0.0
C698 C 0.3171 0.42621 0.57407 0.0
C699 C 0.32146 0.41745 0.60018 0.0
C700 C 0.32338 0.38499 0.60734 0.0
C701 C 0.32177 0.36117 0.58789 0.0
H702 H 0.61444 0.33994 0.06158 0.0
H703 H 0.67582 0.43501 0.06503 0.0
H704 H 0.66452 0.44066 0.01758 0.0
H705 H 0.66666 0.31644 1.0024 0.0
H706 H 0.61447 0.29477 0.99091 0.0
H707 H 0.62475 0.29897 0.02522 0.0
H708 H 0.53962 0.32385 0.03102 0.0
H709 H 0.52888 0.31945 0.99672 0.0
H710 H 0.52306 0.358 1.01188 0.0
H711 H 0.65462 0.43328 0.96933 0.0
H712 H 0.64012 0.4159 0.92444 0.0
H713 H 0.57765 0.32744 0.95311 0.0
C714 C 0.62491 0.36207 0.05232 0.0
C715 C 0.646 0.38708 0.06678 0.0
C716 C 0.65925 0.41573 0.05419 0.0
C717 C 0.65314 0.41907 0.02731 0.0
C718 C 0.63297 0.39371 0.01348 0.0
C719 C 0.61828 0.36598 0.02563 0.0
C720 C 0.59802 0.34221 1.00633 0.0
C721 C 0.62776 0.31128 1.00622 0.0
C722 C 0.54419 0.3355 1.01182 0.0
C723 C 0.60473 0.36057 0.98133 0.0
C724 C 0.62511 0.39014 0.98585 0.0
C725 C 0.63755 0.41048 0.9656 0.0
C726 C 0.62874 0.4004 0.94007 0.0
C727 C 0.60697 0.37035 0.93488 0.0
C728 C 0.59462 0.35042 0.95605 0.0
H729 H 0.83171 0.17005 0.55118 0.0
H730 H 0.83098 0.06664 0.55741 0.0
H731 H 0.85759 0.06234 0.51242 0.0
H732 H 0.77638 0.16895 0.48868 0.0
H733 H 0.80846 0.20354 0.47697 0.0
H734 H 0.79653 0.19918 0.51113 0.0
H735 H 0.88825 0.20527 0.52052 0.0
H736 H 0.90049 0.20919 0.48629 0.0
H737 H 0.93068 0.17887 0.50486 0.0
H738 H 0.88235 0.06805 0.46642 0.0
H739 H 0.88918 0.08359 0.42024 0.0
H740 H 0.86359 0.18205 0.44133 0.0
C741 C 0.83717 0.14644 0.54327 0.0
C742 C 0.83112 0.11882 0.55876 0.0
C743 C 0.83797 0.08848 0.54695 0.0
C744 C 0.85275 0.08562 0.52109 0.0
C745 C 0.85927 0.1132 0.5067 0.0
C746 C 0.85051 0.14301 0.51708 0.0
C747 C 0.85449 0.16848 0.49633 0.0
C748 C 0.80609 0.18606 0.49309 0.0
C749 C 0.89595 0.19183 0.50237 0.0
C750 C 0.86619 0.14815 0.47275 0.0
C751 C 0.87006 0.11641 0.47937 0.0
C752 C 0.87963 0.09284 0.46095 0.0
C753 C 0.88378 0.10183 0.43487 0.0
C754 C 0.87755 0.13392 0.42754 0.0
C755 C 0.86937 0.15743 0.4467 0.0
H756 H 0.86863 0.84112 0.05351 0.0
H757 H 0.83875 0.94243 0.05845 0.0
H758 H 0.85625 0.94791 1.01173 0.0
H759 H 0.96543 0.84593 1.00513 0.0
H760 H 0.94617 0.81014 0.98869 0.0
H761 H 0.93549 0.81465 0.02301 0.0
H762 H 0.84383 0.80446 0.01595 0.0
H763 H 0.85423 0.79987 0.98166 0.0
H764 H 0.81114 0.82881 0.99321 0.0
H765 H 0.87126 0.94175 0.96382 0.0
H766 H 0.88064 0.92408 0.91837 0.0
H767 H 0.90109 0.8269 0.94472 0.0
C768 C 0.86593 0.86449 0.04482 0.0
C769 C 0.85268 0.89137 0.05978 0.0
C770 C 0.84978 0.92156 0.04759 0.0
C771 C 0.85945 0.92492 0.021 0.0
C772 C 0.87207 0.89789 1.00683 0.0
C773 C 0.87536 0.86827 0.01831 0.0
C774 C 0.88715 0.84274 0.99849 0.0
C775 C 0.9365 0.82748 1.00418 0.0
C776 C 0.84667 0.81749 0.99726 0.0
C777 C 0.88896 0.86254 0.974 0.0
C778 C 0.88062 0.89434 0.97922 0.0
C779 C 0.87844 0.91696 0.95952 0.0
C780 C 0.88414 0.90672 0.93375 0.0
C781 C 0.89176 0.8741 0.92789 0.0
C782 C 0.89503 0.85196 0.94846 0.0
H783 H 0.69606 0.58466 0.55144 0.0
H784 H 0.64371 0.6803 0.56569 0.0
H785 H 0.62374 0.68589 0.5191 0.0
H786 H 0.75406 0.60268 0.4914 0.0
H787 H 0.73971 0.56504 0.47633 0.0
H788 H 0.74589 0.56757 0.51104 0.0
H789 H 0.65986 0.54376 0.51679 0.0
H790 H 0.65341 0.54115 0.48207 0.0
H791 H 0.60922 0.56253 0.50106 0.0
H792 H 0.61033 0.68119 0.47088 0.0
H793 H 0.61079 0.66833 0.42397 0.0
H794 H 0.67647 0.57698 0.4406 0.0
C795 C 0.67983 0.60657 0.5447 0.0
C796 C 0.67092 0.63199 0.56204 0.0
C797 C 0.6506 0.66059 0.5526 0.0
C798 C 0.63902 0.6639 0.52625 0.0
C799 C 0.64852 0.6385 0.50954 0.0
C800 C 0.66888 0.61048 0.51833 0.0
C801 C 0.67838 0.58765 0.49606 0.0
C802 C 0.73274 0.58032 0.49357 0.0
C803 C 0.64842 0.55696 0.49919 0.0
C804 C 0.66059 0.6073 0.47337 0.0
C805 C 0.64277 0.63634 0.48161 0.0
C806 C 0.6242 0.65852 0.4642 0.0
C807 C 0.62442 0.65099 0.43763 0.0
C808 C 0.64376 0.62175 0.4287 0.0
C809 C 0.66175 0.59961 0.4469 0.0
H810 H 0.34524 0.66691 0.968 0.0
H811 H 0.29583 0.56876 0.97075 0.0
H812 H 0.31457 0.56694 0.01763 0.0
H813 H 0.44309 0.65926 0.01538 0.0
H814 H 0.43201 0.69811 0.02907 0.0
H815 H 0.41891 0.69054 0.99538 0.0
H816 H 0.33047 0.7092 1.0025 0.0
H817 H 0.34332 0.71688 0.03614 0.0
H818 H 0.2942 0.69063 0.02741 0.0
H819 H 0.33289 0.57763 0.06547 0.0
H820 H 0.3472 0.60018 0.10926 0.0
H821 H 0.38517 0.69092 0.07449 0.0
C822 C 0.33847 0.64495 0.97839 0.0
C823 C 0.31901 0.61797 0.96558 0.0
C824 C 0.31127 0.58963 0.97997 0.0
C825 C 0.32168 0.5884 1.00666 0.0
C826 C 0.3402 0.61562 0.01871 0.0
C827 C 0.34868 0.64331 1.00494 0.0
C828 C 0.36644 0.6698 0.02252 0.0
C829 C 0.41819 0.68002 0.01514 0.0
C830 C 0.33152 0.6983 0.02212 0.0
C831 C 0.36543 0.65302 0.04848 0.0
C832 C 0.35071 0.62169 0.04595 0.0
C833 C 0.34496 0.60205 0.06759 0.0
C834 C 0.35345 0.615 0.0924 0.0
C835 C 0.3672 0.64736 0.0954 0.0
C836 C 0.3743 0.66618 0.07296 0.0
H837 H 0.17326 0.85886 0.48066 0.0
H838 H 0.24391 0.95007 0.46817 0.0
H839 H 0.24574 0.95925 0.51548 0.0
H840 H 0.09859 0.88381 0.53516 0.0
H841 H 0.10467 0.84658 0.55218 0.0
H842 H 0.10778 0.84737 0.51726 0.0
H843 H 0.19148 0.81977 0.51865 0.0
H844 H 0.18858 0.81884 0.55355 0.0
H845 H 0.23953 0.83731 0.53756 0.0
H846 H 0.24414 0.95738 0.56405 0.0
H847 H 0.23644 0.9453 0.61085 0.0
H848 H 0.1645 0.85622 0.59231 0.0
C849 C 0.18914 0.88075 0.4879 0.0
C850 C 0.20833 0.90381 0.47066 0.0
C851 C 0.22843 0.93225 0.48093 0.0
C852 C 0.22984 0.93762 0.50779 0.0
C853 C 0.21071 0.91443 0.52421 0.0
C854 C 0.19049 0.88662 0.51471 0.0
C855 C 0.1728 0.86548 0.53666 0.0
C856 C 0.11768 0.86053 0.53522 0.0
C857 C 0.19971 0.83346 0.53659 0.0
C858 C 0.18668 0.88562 0.55998 0.0
C859 C 0.20867 0.91371 0.55232 0.0
C860 C 0.2266 0.9356 0.57028 0.0
C861 C 0.2222 0.92854 0.59677 0.0
C862 C 0.19965 0.9 0.60508 0.0
C863 C 0.18126 0.87843 0.58642 0.0
H864 H 0.22505 0.28969 0.37012 0.0
H865 H 0.14429 0.36774 0.33635 0.0
H866 H 0.10014 0.32986 0.3085 0.0
H867 H 0.2348 0.24279 0.30976 0.0
H868 H 0.22758 0.20503 0.32591 0.0
H869 H 0.25497 0.23815 0.34275 0.0
H870 H 0.1916 0.23278 0.37964 0.0
H871 H 0.16421 0.19959 0.36297 0.0
H872 H 0.12801 0.23359 0.37183 0.0
H873 H 0.06084 0.28466 0.28682 0.0
H874 H 0.02864 0.23338 0.27127 0.0
H875 H 0.13625 0.18311 0.31653 0.0
C876 C 0.19819 0.29869 0.35678 0.0
C877 C 0.18777 0.33164 0.35542 0.0
C878 C 0.1526 0.34259 0.33769 0.0
C879 C 0.12748 0.3213 0.32174 0.0
C880 C 0.13831 0.28906 0.32351 0.0
C881 C 0.1729 0.27764 0.3404 0.0
C882 C 0.17628 0.24155 0.33858 0.0
C883 C 0.22639 0.23128 0.32865 0.0
C884 C 0.1643 0.22597 0.36481 0.0
C885 C 0.13728 0.23463 0.3186 0.0
C886 C 0.11613 0.26254 0.31018 0.0
C887 C 0.07737 0.26263 0.29302 0.0
C888 C 0.05917 0.2334 0.28443 0.0
C889 C 0.08012 0.20443 0.29269 0.0
C890 C 0.12013 0.20502 0.30971 0.0
H891 H 0.29482 0.22315 0.86744 0.0
H892 H 0.37182 0.14519 0.83073 0.0
H893 H 0.42617 0.1837 0.80895 0.0
H894 H 0.29682 0.27356 0.81283 0.0
H895 H 0.30622 0.31064 0.82993 0.0
H896 H 0.275 0.27813 0.84552 0.0
H897 H 0.3348 0.27751 0.88347 0.0
H898 H 0.3657 0.31125 0.86949 0.0
H899 H 0.39894 0.27561 0.87709 0.0
H900 H 0.47399 0.23026 0.79245 0.0
H901 H 0.50696 0.28233 0.77858 0.0
H902 H 0.39511 0.33072 0.82241 0.0
C903 C 0.32341 0.21425 0.855 0.0
C904 C 0.32961 0.18116 0.85096 0.0
C905 C 0.36675 0.17043 0.83415 0.0
C906 C 0.39782 0.1921 0.82176 0.0
C907 C 0.39092 0.22453 0.82611 0.0
C908 C 0.35439 0.23566 0.8421 0.0
C909 C 0.3535 0.27183 0.84237 0.0
C910 C 0.30503 0.28432 0.83203 0.0
C911 C 0.36386 0.2848 0.86973 0.0
C912 C 0.39503 0.27922 0.82394 0.0
C913 C 0.41671 0.25153 0.81525 0.0
C914 C 0.45726 0.25209 0.79908 0.0
C915 C 0.47607 0.28171 0.7915 0.0
C916 C 0.4538 0.31031 0.7996 0.0
C917 C 0.41263 0.30906 0.81593 0.0
H918 H 0.68715 0.22863 0.64103 0.0
H919 H 0.69095 0.1594 0.7033 0.0
H920 H 0.66148 0.19999 0.7341 0.0
H921 H 0.7196 0.29977 0.68015 0.0
H922 H 0.6775 0.3253 0.66359 0.0
H923 H 0.70456 0.29216 0.64668 0.0
H924 H 0.61931 0.27109 0.63508 0.0
H925 H 0.59157 0.30368 0.6523 0.0
H926 H 0.57623 0.2632 0.66061 0.0
H927 H 0.63026 0.24627 0.75784 0.0
H928 H 0.59048 0.29494 0.77312 0.0
H929 H 0.59984 0.33494 0.69562 0.0
C930 C 0.68259 0.22239 0.66127 0.0
C931 C 0.69193 0.19112 0.67004 0.0
C932 C 0.68425 0.18334 0.69639 0.0
C933 C 0.66776 0.20623 0.71401 0.0
C934 C 0.65835 0.23674 0.70488 0.0
C935 C 0.66491 0.24495 0.67914 0.0
C936 C 0.64763 0.27878 0.67429 0.0
C937 C 0.68985 0.30027 0.66567 0.0
C938 C 0.60622 0.27921 0.6544 0.0
C939 C 0.62979 0.28791 0.70121 0.0
C940 C 0.63732 0.26338 0.71853 0.0
C941 C 0.6239 0.26563 0.74447 0.0
C942 C 0.60114 0.29343 0.75293 0.0
C943 C 0.59089 0.3185 0.73545 0.0
C944 C 0.60654 0.31597 0.70933 0.0
H945 H 0.81978 0.31808 0.19716 0.0
H946 H 0.75637 0.26633 0.13264 0.0
H947 H 0.80272 0.21837 0.14494 0.0
H948 H 0.93876 0.28336 0.19263 0.0
H949 H 0.94726 0.28223 0.22727 0.0
H950 H 0.9094 0.31238 0.21312 0.0
H951 H 0.8385 0.29471 0.24286 0.0
H952 H 0.87565 0.26412 0.25691 0.0
H953 H 0.81851 0.2538 0.24227 0.0
H954 H 0.85672 0.17594 0.16461 0.0
H955 H 0.91298 0.14275 0.19048 0.0
H956 H 0.94025 0.22305 0.24146 0.0
C957 C 0.81576 0.29664 0.18562 0.0
C958 C 0.78467 0.29583 0.164 0.0
C959 C 0.78012 0.26743 0.1493 0.0
C960 C 0.80628 0.2401 0.15613 0.0
C961 C 0.83669 0.24168 0.17764 0.0
C962 C 0.84155 0.26927 0.19213 0.0
C963 C 0.87634 0.26486 0.2144 0.0
C964 C 0.92055 0.28702 0.21168 0.0
C965 C 0.85071 0.26965 0.24066 0.0
C966 C 0.89019 0.23047 0.21028 0.0
C967 C 0.86714 0.21742 0.18898 0.0
C968 C 0.87482 0.1859 0.18138 0.0
C969 C 0.90676 0.16729 0.19607 0.0
C970 C 0.93004 0.1803 0.2181 0.0
C971 C 0.92197 0.21233 0.22503 0.0
H972 H 0.80271 0.72865 0.65042 0.0
H973 H 0.86043 0.65019 0.6953 0.0
H974 H 0.91689 0.68703 0.71714 0.0
H975 H 0.91755 0.77205 0.64252 0.0
H976 H 0.89003 0.81069 0.64612 0.0
H977 H 0.85562 0.77802 0.63276 0.0
H978 H 0.79005 0.78733 0.66733 0.0
H979 H 0.82425 0.81908 0.68222 0.0
H980 H 0.80537 0.78518 0.70117 0.0
H981 H 0.96554 0.73139 0.73481 0.0
H982 H 0.00205 0.78212 0.74905 0.0
H983 H 0.91325 0.83335 0.69395 0.0
C984 C 0.8276 0.71926 0.66465 0.0
C985 C 0.82752 0.68648 0.67109 0.0
C986 C 0.86011 0.67516 0.69005 0.0
C987 C 0.89237 0.69588 0.70251 0.0
C988 C 0.89164 0.72797 0.69584 0.0
C989 C 0.86018 0.73977 0.67743 0.0
C990 C 0.86601 0.77567 0.67482 0.0
C991 C 0.88334 0.78463 0.64742 0.0
C992 C 0.81863 0.79286 0.68181 0.0
C993 C 0.90521 0.78205 0.69483 0.0
C994 C 0.91961 0.75404 0.70649 0.0
C995 C 0.95474 0.75348 0.72579 0.0
C996 C 0.97523 0.78239 0.73376 0.0
C997 C 0.96048 0.8115 0.72258 0.0
C998 C 0.92557 0.81132 0.70255 0.0
H999 H 0.68624 0.82344 0.19659 0.0
H1000 H 0.73724 0.7739 0.12785 0.0
H1001 H 0.69407 0.72521 0.14203 0.0
H1002 H 0.6969 0.75752 0.24056 0.0
H1003 H 0.64309 0.76851 0.25839 0.0
H1004 H 0.67829 0.79859 0.24223 0.0
H1005 H 0.60053 0.8161 0.21792 0.0
H1006 H 0.56621 0.7852 0.23381 0.0
H1007 H 0.56757 0.78725 0.19888 0.0
H1008 H 0.64359 0.68243 0.16331 0.0
H1009 H 0.59153 0.64813 0.19051 0.0
H1010 H 0.5761 0.72498 0.2464 0.0
C1011 C 0.68822 0.80231 0.18453 0.0
C1012 C 0.71497 0.80239 0.16116 0.0
C1013 C 0.71694 0.77436 0.14585 0.0
C1014 C 0.69252 0.74661 0.15375 0.0
C1015 C 0.66653 0.74732 0.17699 0.0
C1016 C 0.66426 0.77444 0.19215 0.0
C1017 C 0.63422 0.76894 0.21636 0.0
C1018 C 0.66503 0.77363 0.24084 0.0
C1019 C 0.58948 0.79066 0.21675 0.0
C1020 C 0.62003 0.73436 0.21259 0.0
C1021 C 0.63869 0.72243 0.18962 0.0
C1022 C 0.629 0.69145 0.18139 0.0
C1023 C 0.59925 0.6722 0.19694 0.0
C1024 C 0.57984 0.68387 0.2206 0.0
C1025 C 0.59081 0.7153 0.22856 0.0
H1026 H 0.30198 0.78454 0.38306 0.0
H1027 H 0.21287 0.81503 0.31859 0.0
H1028 H 0.26304 0.78343 0.28845 0.0
H1029 H 0.4173 0.78273 0.3484 0.0
H1030 H 0.43813 0.74704 0.36413 0.0
H1031 H 0.39718 0.77347 0.38083 0.0
H1032 H 0.33702 0.72678 0.388 0.0
H1033 H 0.37795 0.70023 0.37148 0.0
H1034 H 0.31636 0.70397 0.36047 0.0
H1035 H 0.32184 0.74904 0.26526 0.0
H1036 H 0.38174 0.70976 0.25054 0.0
H1037 H 0.4313 0.69846 0.32998 0.0
C1038 C 0.29337 0.78466 0.36258 0.0
C1039 C 0.2538 0.80239 0.35303 0.0
C1040 C 0.2431 0.80162 0.32621 0.0
C1041 C 0.27148 0.78388 0.30894 0.0
C1042 C 0.31024 0.76669 0.31882 0.0
C1043 C 0.32103 0.76655 0.34501 0.0
C1044 C 0.36321 0.74445 0.35051 0.0
C1045 C 0.40652 0.76304 0.36163 0.0
C1046 C 0.34769 0.71724 0.36869 0.0
C1047 C 0.37406 0.73219 0.32337 0.0
C1048 C 0.34342 0.74572 0.30541 0.0
C1049 C 0.34604 0.7382 0.27913 0.0
C1050 C 0.38036 0.71583 0.27096 0.0
C1051 C 0.41139 0.70079 0.28904 0.0
C1052 C 0.40836 0.70949 0.31559 0.0
H1053 H 0.15736 0.72811 0.88276 0.0
H1054 H 0.2602 0.69627 0.82474 0.0
H1055 H 0.24156 0.74329 0.79779 0.0
H1056 H 0.06917 0.75171 0.83828 0.0
H1057 H 0.04815 0.78578 0.85634 0.0
H1058 H 0.07486 0.7527 0.87312 0.0
H1059 H 0.13777 0.7907 0.89417 0.0
H1060 H 0.11103 0.82393 0.87745 0.0
H1061 H 0.17474 0.8158 0.87376 0.0
H1062 H 0.20639 0.78969 0.7753 0.0
H1063 H 0.15458 0.83159 0.75738 0.0
H1064 H 0.07249 0.83417 0.82945 0.0
C1065 C 0.1769 0.73179 0.86476 0.0
C1066 C 0.21109 0.7093 0.85592 0.0
C1067 C 0.23463 0.71378 0.83186 0.0
C1068 C 0.22431 0.74036 0.81651 0.0
C1069 C 0.18989 0.76201 0.82544 0.0
C1070 C 0.16635 0.75806 0.84896 0.0
C1071 C 0.12715 0.783 0.85255 0.0
C1072 C 0.07688 0.76735 0.85522 0.0
C1073 C 0.13836 0.80465 0.87587 0.0
C1074 C 0.13176 0.80106 0.82718 0.0
C1075 C 0.16858 0.78872 0.81203 0.0
C1076 C 0.17783 0.79983 0.78709 0.0
C1077 C 0.14799 0.82368 0.77707 0.0
C1078 C 0.10905 0.83619 0.79188 0.0
C1079 C 0.10187 0.82524 0.81757 0.0
loop_
_geom_bond_atom_site_label_1
_geom_bond_atom_site_label_2
_geom_bond_distance
_geom_bond_site_symmetry_2
_ccdc_geom_bond_type
H0 C5 0.930 . S
H1 C8 0.930 . S
H2 C10 0.930 . S
H3 C4 1.016 . S
C4 H3 1.016 . S
C4 N11 1.286 . S
C5 H0 0.930 . S
C5 C6 1.397 . S
C5 C7 1.361 . S
C6 C5 1.397 . S
C6 C10 1.390 . S
C7 C5 1.361 . S
C7 C8 1.393 . S
C7 N11 1.413 . S
C8 H1 0.930 . S
C8 C7 1.393 . S
C8 C9 1.399 . S
C9 C8 1.399 . S
C9 C10 1.381 . S
C10 H2 0.930 . S
C10 C6 1.390 . S
C10 C9 1.381 . S
N11 C4 1.286 . S
N11 C7 1.413 . S
H12 C17 0.930 . S
H13 C20 0.930 . S
H14 C22 0.930 . S
H15 C16 1.016 . S
C16 H15 1.016 . S
C16 N23 1.286 . S
C17 H12 0.930 . S
C17 C18 1.397 . S
C17 C19 1.361 . S
C18 C17 1.397 . S
C18 C22 1.390 . S
C19 C17 1.361 . S
C19 C20 1.393 . S
C19 N23 1.413 . S
C20 H13 0.930 . S
C20 C19 1.393 . S
C20 C21 1.399 . S
C21 C20 1.399 . S
C21 C22 1.381 . S
C22 H14 0.930 . S
C22 C18 1.390 . S
C22 C21 1.381 . S
N23 C16 1.286 . S
N23 C19 1.413 . S
H24 C29 0.930 . S
H25 C32 0.930 . S
H26 C34 0.930 . S
H27 C28 1.016 . S
C28 H27 1.016 . S
C28 N35 1.286 . S
C29 H24 0.930 . S
C29 C30 1.397 . S
C29 C31 1.361 . S
C30 C29 1.397 . S
C30 C34 1.390 . S
C31 C29 1.361 . S
C31 C32 1.393 . S
C31 N35 1.413 . S
C32 H25 0.930 . S
C32 C31 1.393 . S
C32 C33 1.399 . S
C33 C32 1.399 . S
C33 C34 1.381 . S
C34 H26 0.930 . S
C34 C30 1.390 . S
C34 C33 1.381 . S
N35 C28 1.286 . S
N35 C31 1.413 . S
H36 C41 0.930 . S
H37 C44 0.930 . S
H38 C46 0.930 . S
H39 C40 1.016 . S
C40 H39 1.016 . S
C40 N47 1.286 . S
C41 H36 0.930 . S
C41 C42 1.397 . S
C41 C43 1.361 . S
C42 C41 1.397 . S
C42 C46 1.390 . S
C43 C41 1.361 . S
C43 C44 1.393 . S
C43 N47 1.413 . S
C44 H37 0.930 . S
C44 C43 1.393 . S
C44 C45 1.399 . S
C45 C44 1.399 . S
C45 C46 1.381 . S
C46 H38 0.930 . S
C46 C42 1.390 . S
C46 C45 1.381 . S
N47 C40 1.286 . S
N47 C43 1.413 . S
H48 C53 0.930 . S
H49 C56 0.930 . S
H50 C58 0.930 . S
H51 C52 1.016 . S
C52 H51 1.016 . S
C52 N59 1.286 . S
C53 H48 0.930 . S
C53 C54 1.397 . S
C53 C55 1.361 . S
C54 C53 1.397 . S
C54 C58 1.390 . S
C55 C53 1.361 . S
C55 C56 1.393 . S
C55 N59 1.413 . S
C56 H49 0.930 . S
C56 C55 1.393 . S
C56 C57 1.399 . S
C57 C56 1.399 . S
C57 C58 1.381 . S
C58 H50 0.930 . S
C58 C54 1.390 . S
C58 C57 1.381 . S
N59 C52 1.286 . S
N59 C55 1.413 . S
H60 C65 0.930 . S
H61 C68 0.930 . S
H62 C70 0.930 . S
H63 C64 1.016 . S
C64 H63 1.016 . S
C64 N71 1.286 . S
C65 H60 0.930 . S
C65 C66 1.397 . S
C65 C67 1.361 . S
C66 C65 1.397 . S
C66 C70 1.390 . S
C67 C65 1.361 . S
C67 C68 1.393 . S
C67 N71 1.413 . S
C68 H61 0.930 . S
C68 C67 1.393 . S
C68 C69 1.399 . S
C69 C68 1.399 . S
C69 C70 1.381 . S
C70 H62 0.930 . S
C70 C66 1.390 . S
C70 C69 1.381 . S
N71 C64 1.286 . S
N71 C67 1.413 . S
H72 C77 0.930 . S
H73 C80 0.930 . S
H74 C82 0.930 . S
H75 C76 1.016 . S
C76 H75 1.016 . S
C76 N83 1.286 . S
C77 H72 0.930 . S
C77 C78 1.397 . S
C77 C79 1.361 . S
C78 C77 1.397 . S
C78 C82 1.390 . S
C79 C77 1.361 . S
C79 C80 1.393 . S
C79 N83 1.413 . S
C80 H73 0.930 . S
C80 C79 1.393 . S
C80 C81 1.399 . S
C81 C80 1.399 . S
C81 C82 1.381 . S
C82 H74 0.930 . S
C82 C78 1.390 . S
C82 C81 1.381 . S
N83 C76 1.286 . S
N83 C79 1.413 . S
H84 C89 0.930 . S
H85 C92 0.930 . S
H86 C94 0.930 . S
H87 C88 1.016 . S
C88 H87 1.016 . S
C88 N95 1.286 . S
C89 H84 0.930 . S
C89 C90 1.397 . S
C89 C91 1.361 . S
C90 C89 1.397 . S
C90 C94 1.390 . S
C91 C89 1.361 . S
C91 C92 1.393 . S
C91 N95 1.413 . S
C92 H85 0.930 . S
C92 C91 1.393 . S
C92 C93 1.399 . S
C93 C92 1.399 . S
C93 C94 1.381 . S
C94 H86 0.930 . S
C94 C90 1.390 . S
C94 C93 1.381 . S
N95 C88 1.286 . S
N95 C91 1.413 . S
Eu96 N125 2.600 . S
Eu96 N131 2.562 . S
Eu96 O140 2.462 . S
Eu96 O141 2.373 . S
Eu96 O143 2.432 . S
Eu96 O144 2.290 . S
Eu96 O148 2.347 . S
Eu96 O151 2.372 . S
Eu96 C160 2.787 . S
C97 N98 1.365 . S
C97 C100 1.405 . S
C97 C104 1.448 . S
N98 C97 1.365 . S
N98 C101 1.319 . S
N98 Eu107 2.600 . S
C99 C101 1.397 . S
C99 C102 1.367 . S
C99 H119 0.931 . S
C100 C97 1.405 . S
C100 C102 1.403 . S
C100 C106 1.439 . S
C101 N98 1.319 . S
C101 C99 1.397 . S
C101 H112 0.930 . S
C102 C99 1.367 . S
C102 C100 1.403 . S
C102 H123 0.929 . S
C103 C104 1.430 . S
C103 C105 1.387 . S
C103 C109 1.404 1_545 S
C104 C97 1.448 . S
C104 C103 1.430 . S
C104 N108 1.351 . S
C105 C103 1.387 . S
C105 C106 1.374 . S
C105 H120 0.913 1_545 S
C106 C100 1.439 . S
C106 C105 1.374 . S
C106 H121 0.931 . S
Eu107 N98 2.600 . S
Eu107 N108 2.562 . S
Eu107 O142 2.335 1_655 S
Eu107 O145 2.372 . S
Eu107 O146 2.462 . S
Eu107 O147 2.373 . S
Eu107 O149 2.432 . S
Eu107 O150 2.291 1_655 S
Eu107 C171 2.787 . S
N108 C104 1.351 . S
N108 Eu107 2.562 . S
N108 C110 1.325 . S
C109 C103 1.404 1_565 S
C109 C111 1.366 . S
C109 H117 0.930 . S
C110 N108 1.325 . S
C110 C111 1.416 1_545 S
C110 H116 0.929 . S
C111 C109 1.366 . S
C111 C110 1.416 1_565 S
C111 H113 0.930 . S
H112 C101 0.930 . S
H113 C111 0.930 . S
H114 C129 0.930 . S
H115 C136 0.930 . S
H116 C110 0.929 . S
H117 C109 0.930 . S
H118 C132 0.929 . S
H119 C99 0.931 . S
H120 C105 0.913 1_565 S
H121 C106 0.931 . S
H122 C127 0.931 . S
H123 C102 0.929 . S
H124 C135 0.930 . S
N125 Eu96 2.600 . S
N125 C126 1.365 . S
N125 C129 1.319 . S
C126 N125 1.365 . S
C126 C128 1.405 . S
C126 C134 1.448 . S
C127 H122 0.931 . S
C127 C129 1.397 . S
C127 C130 1.367 . S
C128 C126 1.405 . S
C128 C130 1.403 . S
C128 C161 1.439 . S
C129 H114 0.930 . S
C129 N125 1.319 . S
C129 C127 1.397 . S
C130 C127 1.367 . S
C130 C128 1.403 . S
C130 H137 0.929 . S
N131 Eu96 2.562 . S
N131 C132 1.325 . S
N131 C134 1.351 . S
C132 H118 0.929 . S
C132 N131 1.325 . S
C132 C136 1.416 . S
C133 C134 1.430 . S
C133 C135 1.404 . S
C133 C162 1.387 . S
C134 C126 1.448 . S
C134 N131 1.351 . S
C134 C133 1.430 . S
C135 H124 0.930 . S
C135 C133 1.404 . S
C135 C136 1.366 . S
C136 H115 0.930 . S
C136 C132 1.416 . S
C136 C135 1.366 . S
H137 C130 0.929 . S
H138 C161 0.931 . S
H139 C162 0.931 . S
O140 Eu96 2.462 . S
O140 C160 1.252 . S
O141 Eu96 2.373 . S
O141 C152 1.249 . S
O142 Eu107 2.335 1_455 S
O142 C152 1.264 . S
O143 Eu96 2.432 . S
O143 C160 1.268 . S
O144 Eu96 2.290 . S
O144 C159 1.257 1_455 S
O145 Eu107 2.372 . S
O145 C159 1.257 . S
O146 Eu107 2.462 . S
O146 C171 1.252 . S
O147 Eu107 2.373 . S
O147 C163 1.249 . S
O148 Eu96 2.347 . S
O148 C163 1.249 1_455 S
O149 Eu107 2.432 . S
O149 C171 1.268 . S
O150 Eu107 2.291 1_455 S
O150 C170 1.255 . S
O151 Eu96 2.372 . S
O151 C170 1.257 . S
C152 O141 1.249 . S
C152 O142 1.264 . S
C153 C156 1.382 . S
C153 C158 1.390 . S
C153 C160 1.506 . S
C154 C155 1.398 . S
C154 C158 1.392 . S
C155 C154 1.398 . S
C155 C157 1.372 . S
C155 H172 0.931 . S
C156 C153 1.382 . S
C156 C157 1.390 . S
C156 H173 0.931 . S
C157 C155 1.372 . S
C157 C156 1.390 . S
C157 H174 0.929 . S
C158 C153 1.390 . S
C158 C154 1.392 . S
C158 H175 0.930 . S
C159 O144 1.257 1_655 S
C159 O145 1.257 . S
C160 Eu96 2.787 . S
C160 O140 1.252 . S
C160 O143 1.268 . S
C160 C153 1.506 . S
C161 C128 1.439 . S
C161 H138 0.931 . S
C161 C162 1.374 . S
C162 C133 1.387 . S
C162 H139 0.931 . S
C162 C161 1.374 . S
C163 O147 1.249 . S
C163 O148 1.249 1_655 S
C164 C167 1.382 . S
C164 C168 1.390 . S
C164 C171 1.506 . S
C165 C166 1.398 . S
C165 C168 1.392 . S
C166 C165 1.398 . S
C166 C169 1.372 . S
C166 H176 0.931 . S
C167 C164 1.382 . S
C167 C169 1.390 . S
C167 H177 0.931 . S
C168 C164 1.390 . S
C168 C165 1.392 . S
C168 H178 0.930 . S
C169 C166 1.372 . S
C169 C167 1.390 . S
C169 H179 0.929 . S
C170 O150 1.255 . S
C170 O151 1.257 . S
C171 Eu107 2.787 . S
C171 O146 1.252 . S
C171 O149 1.268 . S
C171 C164 1.506 . S
H172 C155 0.931 . S
H173 C156 0.931 . S
H174 C157 0.929 . S
H175 C158 0.930 . S
H176 C166 0.931 . S
H177 C167 0.931 . S
H178 C168 0.930 . S
H179 C169 0.929 . S
Eu180 N209 2.600 . S
Eu180 N215 2.562 . S
Eu180 O224 2.462 . S
Eu180 O225 2.373 . S
Eu180 O227 2.432 . S
Eu180 O228 2.291 . S
Eu180 O232 2.335 . S
Eu180 O235 2.372 . S
Eu180 C244 2.787 . S
C181 N182 1.365 . S
C181 C184 1.405 . S
C181 C188 1.448 . S
N182 C181 1.365 . S
N182 C185 1.319 . S
N182 Eu191 2.600 . S
C183 C185 1.397 . S
C183 C186 1.367 . S
C183 H203 0.931 . S
C184 C181 1.405 . S
C184 C186 1.403 . S
C184 C190 1.439 . S
C185 N182 1.319 . S
C185 C183 1.397 . S
C185 H196 0.930 . S
C186 C183 1.367 . S
C186 C184 1.403 . S
C186 H207 0.929 . S
C187 C188 1.430 . S
C187 C189 1.387 . S
C187 C193 1.404 . S
C188 C181 1.448 . S
C188 C187 1.430 . S
C188 N192 1.351 . S
C189 C187 1.387 . S
C189 C190 1.374 . S
C189 H204 0.931 . S
C190 C184 1.439 . S
C190 C189 1.374 . S
C190 H205 0.931 . S
Eu191 N182 2.600 . S
Eu191 N192 2.562 . S
Eu191 O226 2.335 . S
Eu191 O229 2.372 . S
Eu191 O230 2.462 . S
Eu191 O231 2.373 . S
Eu191 O233 2.432 . S
Eu191 O234 2.291 . S
Eu191 C255 2.787 . S
N192 C188 1.351 . S
N192 Eu191 2.562 . S
N192 C194 1.325 . S
C193 C187 1.404 . S
C193 C195 1.366 . S
C193 H201 0.930 . S
C194 N192 1.325 . S
C194 C195 1.416 . S
C194 H200 0.929 . S
C195 C193 1.366 . S
C195 C194 1.416 . S
C195 H197 0.930 . S
H196 C185 0.930 . S
H197 C195 0.930 . S
H198 C213 0.930 . S
H199 C220 0.930 . S
H200 C194 0.929 . S
H201 C193 0.930 . S
H202 C216 0.929 . S
H203 C183 0.931 . S
H204 C189 0.931 . S
H205 C190 0.931 . S
H206 C211 0.931 . S
H207 C186 0.929 . S
H208 C219 0.930 . S
N209 Eu180 2.600 . S
N209 C210 1.365 . S
N209 C213 1.319 . S
C210 N209 1.365 . S
C210 C212 1.405 . S
C210 C218 1.448 . S
C211 H206 0.931 . S
C211 C213 1.397 . S
C211 C214 1.367 . S
C212 C210 1.405 . S
C212 C214 1.403 . S
C212 C245 1.439 . S
C213 H198 0.930 . S
C213 N209 1.319 . S
C213 C211 1.397 . S
C214 C211 1.367 . S
C214 C212 1.403 . S
C214 H221 0.929 . S
N215 Eu180 2.562 . S
N215 C216 1.325 . S
N215 C218 1.351 . S
C216 H202 0.929 . S
C216 N215 1.325 . S
C216 C220 1.416 . S
C217 C218 1.430 . S
C217 C219 1.404 . S
C217 C246 1.387 . S
C218 C210 1.448 . S
C218 N215 1.351 . S
C218 C217 1.430 . S
C219 H208 0.930 . S
C219 C217 1.404 . S
C219 C220 1.366 . S
C220 H199 0.930 . S
C220 C216 1.416 . S
C220 C219 1.366 . S
H221 C214 0.929 . S
H222 C245 0.931 . S
H223 C246 0.931 . S
O224 Eu180 2.462 . S
O224 C244 1.252 . S
O225 Eu180 2.373 . S
O225 C236 1.249 . S
O226 Eu191 2.335 . S
O226 C236 1.264 . S
O227 Eu180 2.432 . S
O227 C244 1.268 . S
O228 Eu180 2.291 . S
O228 C243 1.255 . S
O229 Eu191 2.372 . S
O229 C243 1.257 . S
O230 Eu191 2.462 . S
O230 C255 1.252 . S
O231 Eu191 2.373 . S
O231 C247 1.249 . S
O232 Eu180 2.335 . S
O232 C247 1.264 . S
O233 Eu191 2.432 . S
O233 C255 1.268 . S
O234 Eu191 2.291 . S
O234 C254 1.255 . S
O235 Eu180 2.372 . S
O235 C254 1.257 . S
C236 O225 1.249 . S
C236 O226 1.264 . S
C237 C240 1.382 . S
C237 C242 1.390 . S
C237 C244 1.506 . S
C238 C239 1.398 . S
C238 C242 1.392 . S
C239 C238 1.398 . S
C239 C241 1.372 . S
C239 H256 0.931 . S
C240 C237 1.382 . S
C240 C241 1.390 . S
C240 H257 0.931 . S
C241 C239 1.372 . S
C241 C240 1.390 . S
C241 H258 0.929 . S
C242 C237 1.390 . S
C242 C238 1.392 . S
C242 H259 0.930 . S
C243 O228 1.255 . S
C243 O229 1.257 . S
C244 Eu180 2.787 . S
C244 O224 1.252 . S
C244 O227 1.268 . S
C244 C237 1.506 . S
C245 C212 1.439 . S
C245 H222 0.931 . S
C245 C246 1.374 . S
C246 C217 1.387 . S
C246 H223 0.931 . S
C246 C245 1.374 . S
C247 O231 1.249 . S
C247 O232 1.264 . S
C248 C251 1.382 . S
C248 C252 1.390 . S
C248 C255 1.506 . S
C249 C250 1.398 . S
C249 C252 1.392 . S
C250 C249 1.398 . S
C250 C253 1.372 . S
C250 H260 0.931 . S
C251 C248 1.382 . S
C251 C253 1.390 . S
C251 H261 0.931 . S
C252 C248 1.390 . S
C252 C249 1.392 . S
C252 H262 0.930 . S
C253 C250 1.372 . S
C253 C251 1.390 . S
C253 H263 0.929 . S
C254 O234 1.255 . S
C254 O235 1.257 . S
C255 Eu191 2.787 . S
C255 O230 1.252 . S
C255 O233 1.268 . S
C255 C248 1.506 . S
H256 C239 0.931 . S
H257 C240 0.931 . S
H258 C241 0.929 . S
H259 C242 0.930 . S
H260 C250 0.931 . S
H261 C251 0.931 . S
H262 C252 0.930 . S
H263 C253 0.929 . S
Eu264 N293 2.600 . S
Eu264 N299 2.562 . S
Eu264 O308 2.462 . S
Eu264 O309 2.373 . S
Eu264 O311 2.432 . S
Eu264 O312 2.291 . S
Eu264 O316 2.335 . S
Eu264 O319 2.372 . S
Eu264 C328 2.787 . S
C265 N266 1.365 . S
C265 C268 1.405 . S
C265 C272 1.448 . S
N266 C265 1.365 . S
N266 C269 1.319 . S
N266 Eu275 2.600 . S
C267 C269 1.397 . S
C267 C270 1.367 . S
C267 H287 0.931 . S
C268 C265 1.405 . S
C268 C270 1.403 . S
C268 C274 1.439 . S
C269 N266 1.319 . S
C269 C267 1.397 . S
C269 H280 0.930 . S
C270 C267 1.367 . S
C270 C268 1.403 . S
C270 H291 0.929 . S
C271 C272 1.430 . S
C271 C273 1.387 . S
C271 C277 1.404 . S
C272 C265 1.448 . S
C272 C271 1.430 . S
C272 N276 1.351 . S
C273 C271 1.387 . S
C273 C274 1.374 . S
C273 H288 0.931 . S
C274 C268 1.439 . S
C274 C273 1.374 . S
C274 H289 0.931 . S
Eu275 N266 2.600 . S
Eu275 N276 2.562 . S
Eu275 O310 2.335 1_655 S
Eu275 O313 2.372 . S
Eu275 O314 2.462 . S
Eu275 O315 2.373 . S
Eu275 O317 2.432 . S
Eu275 O318 2.291 1_655 S
Eu275 C339 2.787 . S
N276 C272 1.351 . S
N276 Eu275 2.562 . S
N276 C278 1.325 . S
C277 C271 1.404 . S
C277 C279 1.366 . S
C277 H285 0.930 . S
C278 N276 1.325 . S
C278 C279 1.416 . S
C278 H284 0.929 . S
C279 C277 1.366 . S
C279 C278 1.416 . S
C279 H281 0.930 . S
H280 C269 0.930 . S
H281 C279 0.930 . S
H282 C297 0.930 . S
H283 C304 0.930 . S
H284 C278 0.929 . S
H285 C277 0.930 . S
H286 C300 0.929 . S
H287 C267 0.931 . S
H288 C273 0.931 . S
H289 C274 0.931 . S
H290 C295 0.931 . S
H291 C270 0.929 . S
H292 C303 0.930 . S
N293 Eu264 2.600 . S
N293 C294 1.365 . S
N293 C297 1.319 . S
C294 N293 1.365 . S
C294 C296 1.405 . S
C294 C302 1.448 . S
C295 H290 0.931 . S
C295 C297 1.397 . S
C295 C298 1.367 . S
C296 C294 1.405 . S
C296 C298 1.403 . S
C296 C329 1.439 . S
C297 H282 0.930 . S
C297 N293 1.319 . S
C297 C295 1.397 . S
C298 C295 1.367 . S
C298 C296 1.403 . S
C298 H305 0.929 . S
N299 Eu264 2.562 . S
N299 C300 1.325 . S
N299 C302 1.351 . S
C300 H286 0.929 . S
C300 N299 1.325 . S
C300 C304 1.416 1_565 S
C301 C302 1.430 . S
C301 C303 1.404 1_565 S
C301 C330 1.387 . S
C302 C294 1.448 . S
C302 N299 1.351 . S
C302 C301 1.430 . S
C303 H292 0.930 . S
C303 C301 1.404 1_545 S
C303 C304 1.366 . S
C304 H283 0.930 . S
C304 C300 1.416 1_545 S
C304 C303 1.366 . S
H305 C298 0.929 . S
H306 C329 0.931 . S
H307 C330 0.913 1_545 S
O308 Eu264 2.462 . S
O308 C328 1.252 . S
O309 Eu264 2.373 . S
O309 C320 1.249 . S
O310 Eu275 2.335 1_455 S
O310 C320 1.264 . S
O311 Eu264 2.432 . S
O311 C328 1.268 . S
O312 Eu264 2.291 . S
O312 C327 1.255 1_455 S
O313 Eu275 2.372 . S
O313 C327 1.257 . S
O314 Eu275 2.462 . S
O314 C339 1.252 . S
O315 Eu275 2.373 . S
O315 C331 1.249 . S
O316 Eu264 2.335 . S
O316 C331 1.264 1_455 S
O317 Eu275 2.432 . S
O317 C339 1.268 . S
O318 Eu275 2.291 1_455 S
O318 C338 1.255 . S
O319 Eu264 2.372 . S
O319 C338 1.257 . S
C320 O309 1.249 . S
C320 O310 1.264 . S
C321 C324 1.382 . S
C321 C326 1.390 . S
C321 C328 1.506 . S
C322 C323 1.398 . S
C322 C326 1.392 . S
C323 C322 1.398 . S
C323 C325 1.372 . S
C323 H340 0.931 . S
C324 C321 1.382 . S
C324 C325 1.390 . S
C324 H341 0.931 . S
C325 C323 1.372 . S
C325 C324 1.390 . S
C325 H342 0.929 . S
C326 C321 1.390 . S
C326 C322 1.392 . S
C326 H343 0.930 . S
C327 O312 1.255 1_655 S
C327 O313 1.257 . S
C328 Eu264 2.787 . S
C328 O308 1.252 . S
C328 O311 1.268 . S
C328 C321 1.506 . S
C329 C296 1.439 . S
C329 H306 0.931 . S
C329 C330 1.374 . S
C330 C301 1.387 . S
C330 H307 0.913 1_565 S
C330 C329 1.374 . S
C331 O315 1.249 . S
C331 O316 1.264 1_655 S
C332 C335 1.382 . S
C332 C336 1.390 . S
C332 C339 1.506 . S
C333 C334 1.398 . S
C333 C336 1.392 . S
C334 C333 1.398 . S
C334 C337 1.372 . S
C334 H344 0.931 . S
C335 C332 1.382 . S
C335 C337 1.390 . S
C335 H345 0.931 . S
C336 C332 1.390 . S
C336 C333 1.392 . S
C336 H346 0.930 . S
C337 C334 1.372 . S
C337 C335 1.390 . S
C337 H347 0.929 . S
C338 O318 1.255 . S
C338 O319 1.257 . S
C339 Eu275 2.787 . S
C339 O314 1.252 . S
C339 O317 1.268 . S
C339 C332 1.506 . S
H340 C323 0.931 . S
H341 C324 0.931 . S
H342 C325 0.929 . S
H343 C326 0.930 . S
H344 C334 0.931 . S
H345 C335 0.931 . S
H346 C336 0.930 . S
H347 C337 0.929 . S
Eu348 N377 2.600 . S
Eu348 N383 2.562 . S
Eu348 O392 2.462 . S
Eu348 O393 2.373 . S
Eu348 O395 2.432 . S
Eu348 O396 2.291 . S
Eu348 O400 2.335 . S
Eu348 O403 2.372 . S
Eu348 C412 2.787 . S
C349 N350 1.365 . S
C349 C352 1.405 . S
C349 C356 1.448 . S
N350 C349 1.365 . S
N350 C353 1.319 . S
N350 Eu359 2.600 . S
C351 C353 1.397 . S
C351 C354 1.367 . S
C351 H371 0.931 . S
C352 C349 1.405 . S
C352 C354 1.403 . S
C352 C358 1.439 . S
C353 N350 1.319 . S
C353 C351 1.397 . S
C353 H364 0.930 . S
C354 C351 1.367 . S
C354 C352 1.403 . S
C354 H375 0.929 . S
C355 C356 1.430 . S
C355 C357 1.387 . S
C355 C361 1.404 . S
C356 C349 1.448 . S
C356 C355 1.430 . S
C356 N360 1.351 . S
C357 C355 1.387 . S
C357 C358 1.374 . S
C357 H372 0.931 . S
C358 C352 1.439 . S
C358 C357 1.374 . S
C358 H373 0.931 . S
Eu359 N350 2.600 . S
Eu359 N360 2.562 . S
Eu359 O394 2.335 . S
Eu359 O397 2.372 . S
Eu359 O398 2.462 . S
Eu359 O399 2.373 . S
Eu359 O401 2.432 . S
Eu359 O402 2.291 . S
Eu359 C423 2.787 . S
N360 C356 1.351 . S
N360 Eu359 2.562 . S
N360 C362 1.325 . S
C361 C355 1.404 . S
C361 C363 1.366 . S
C361 H369 0.930 . S
C362 N360 1.325 . S
C362 C363 1.416 . S
C362 H368 0.929 . S
C363 C361 1.366 . S
C363 C362 1.416 . S
C363 H365 0.930 . S
H364 C353 0.930 . S
H365 C363 0.930 . S
H366 C381 0.930 . S
H367 C388 0.930 . S
H368 C362 0.929 . S
H369 C361 0.930 . S
H370 C384 0.929 . S
H371 C351 0.931 . S
H372 C357 0.931 . S
H373 C358 0.931 . S
H374 C379 0.931 . S
H375 C354 0.929 . S
H376 C387 0.930 . S
N377 Eu348 2.600 . S
N377 C378 1.365 . S
N377 C381 1.319 . S
C378 N377 1.365 . S
C378 C380 1.405 . S
C378 C386 1.448 . S
C379 H374 0.931 . S
C379 C381 1.397 . S
C379 C382 1.367 . S
C380 C378 1.405 . S
C380 C382 1.403 . S
C380 C413 1.439 . S
C381 H366 0.930 . S
C381 N377 1.319 . S
C381 C379 1.397 . S
C382 C379 1.367 . S
C382 C380 1.403 . S
C382 H389 0.929 . S
N383 Eu348 2.562 . S
N383 C384 1.325 . S
N383 C386 1.351 . S
C384 H370 0.929 . S
C384 N383 1.325 . S
C384 C388 1.416 . S
C385 C386 1.430 . S
C385 C387 1.404 . S
C385 C414 1.387 . S
C386 C378 1.448 . S
C386 N383 1.351 . S
C386 C385 1.430 . S
C387 H376 0.930 . S
C387 C385 1.404 . S
C387 C388 1.366 . S
C388 H367 0.930 . S
C388 C384 1.416 . S
C388 C387 1.366 . S
H389 C382 0.929 . S
H390 C413 0.931 . S
H391 C414 0.931 . S
O392 Eu348 2.462 . S
O392 C412 1.252 . S
O393 Eu348 2.373 . S
O393 C404 1.249 . S
O394 Eu359 2.335 . S
O394 C404 1.264 . S
O395 Eu348 2.432 . S
O395 C412 1.268 . S
O396 Eu348 2.291 . S
O396 C411 1.255 . S
O397 Eu359 2.372 . S
O397 C411 1.257 . S
O398 Eu359 2.462 . S
O398 C423 1.252 . S
O399 Eu359 2.373 . S
O399 C415 1.249 . S
O400 Eu348 2.335 . S
O400 C415 1.264 . S
O401 Eu359 2.432 . S
O401 C423 1.268 . S
O402 Eu359 2.291 . S
O402 C422 1.255 . S
O403 Eu348 2.372 . S
O403 C422 1.257 . S
C404 O393 1.249 . S
C404 O394 1.264 . S
C405 C408 1.382 . S
C405 C410 1.390 . S
C405 C412 1.506 . S
C406 C407 1.398 . S
C406 C410 1.392 . S
C407 C406 1.398 . S
C407 C409 1.372 . S
C407 H424 0.931 . S
C408 C405 1.382 . S
C408 C409 1.390 . S
C408 H425 0.931 . S
C409 C407 1.372 . S
C409 C408 1.390 . S
C409 H426 0.929 . S
C410 C405 1.390 . S
C410 C406 1.392 . S
C410 H427 0.930 . S
C411 O396 1.255 . S
C411 O397 1.257 . S
C412 Eu348 2.787 . S
C412 O392 1.252 . S
C412 O395 1.268 . S
C412 C405 1.506 . S
C413 C380 1.439 . S
C413 H390 0.931 . S
C413 C414 1.374 . S
C414 C385 1.387 . S
C414 H391 0.931 . S
C414 C413 1.374 . S
C415 O399 1.249 . S
C415 O400 1.264 . S
C416 C419 1.382 . S
C416 C420 1.390 . S
C416 C423 1.506 . S
C417 C418 1.398 . S
C417 C420 1.392 . S
C418 C417 1.398 . S
C418 C421 1.372 . S
C418 H428 0.931 . S
C419 C416 1.382 . S
C419 C421 1.390 . S
C419 H429 0.931 . S
C420 C416 1.390 . S
C420 C417 1.392 . S
C420 H430 0.930 . S
C421 C418 1.372 . S
C421 C419 1.390 . S
C421 H431 0.929 . S
C422 O402 1.255 . S
C422 O403 1.257 . S
C423 Eu359 2.787 . S
C423 O398 1.252 . S
C423 O401 1.268 . S
C423 C416 1.506 . S
H424 C407 0.931 . S
H425 C408 0.931 . S
H426 C409 0.929 . S
H427 C410 0.930 . S
H428 C418 0.931 . S
H429 C419 0.931 . S
H430 C420 0.930 . S
H431 C421 0.929 . S
H432 C444 0.930 . S
H433 C446 0.930 . S
H434 C447 0.930 . S
H435 C451 0.959 . S
H436 C451 0.959 . S
H437 C451 0.961 . S
H438 C452 0.960 . S
H439 C452 0.961 1_545 S
H440 C452 0.959 1_545 S
H441 C455 0.929 . S
H442 C456 0.931 . S
H443 C458 0.930 . S
C444 H432 0.930 . S
C444 C445 1.399 . S
C444 C449 1.399 . S
C445 C444 1.399 . S
C445 C446 1.376 . S
C446 H433 0.930 . S
C446 C445 1.376 . S
C446 C447 1.388 . S
C447 H434 0.930 . S
C447 C446 1.388 . S
C447 C448 1.390 . S
C448 C447 1.390 . S
C448 C449 1.394 . S
C448 C454 1.465 . S
C449 C444 1.399 . S
C449 C448 1.394 . S
C449 C450 1.516 . S
C450 C449 1.516 . S
C450 C451 1.502 . S
C450 C452 1.561 . S
C450 C453 1.526 . S
C451 H435 0.959 . S
C451 H436 0.959 . S
C451 H437 0.961 . S
C451 C450 1.502 . S
C452 H438 0.960 . S
C452 H439 0.961 1_565 S
C452 H440 0.959 1_565 S
C452 C450 1.561 . S
C453 C450 1.526 . S
C453 C454 1.396 . S
C453 C458 1.390 1_565 S
C454 C448 1.465 . S
C454 C453 1.396 . S
C454 C455 1.399 1_565 S
C455 H441 0.929 . S
C455 C454 1.399 1_545 S
C455 C456 1.385 . S
C456 H442 0.931 . S
C456 C455 1.385 . S
C456 C457 1.389 . S
C457 C456 1.389 . S
C457 C458 1.387 . S
C458 H443 0.930 . S
C458 C453 1.390 1_545 S
C458 C457 1.387 . S
H459 C471 0.930 . S
H460 C473 0.930 . S
H461 C474 0.930 . S
H462 C478 0.959 . S
H463 C478 0.959 . S
H464 C478 0.961 . S
H465 C479 0.960 . S
H466 C479 0.961 . S
H467 C479 0.959 . S
H468 C482 0.929 . S
H469 C483 0.931 . S
H470 C485 0.930 . S
C471 H459 0.930 . S
C471 C472 1.399 . S
C471 C476 1.399 . S
C472 C471 1.399 . S
C472 C473 1.376 . S
C473 H460 0.930 . S
C473 C472 1.376 . S
C473 C474 1.388 . S
C474 H461 0.930 . S
C474 C473 1.388 . S
C474 C475 1.390 . S
C475 C474 1.390 . S
C475 C476 1.394 . S
C475 C481 1.465 . S
C476 C471 1.399 . S
C476 C475 1.394 . S
C476 C477 1.516 . S
C477 C476 1.516 . S
C477 C478 1.502 . S
C477 C479 1.561 . S
C477 C480 1.526 . S
C478 H462 0.959 . S
C478 H463 0.959 . S
C478 H464 0.961 . S
C478 C477 1.502 . S
C479 H465 0.960 . S
C479 H466 0.961 . S
C479 H467 0.959 . S
C479 C477 1.561 . S
C480 C477 1.526 . S
C480 C481 1.396 . S
C480 C485 1.390 . S
C481 C475 1.465 . S
C481 C480 1.396 . S
C481 C482 1.399 . S
C482 H468 0.929 . S
C482 C481 1.399 . S
C482 C483 1.385 . S
C483 H469 0.931 . S
C483 C482 1.385 . S
C483 C484 1.389 . S
C484 C483 1.389 . S
C484 C485 1.387 . S
C485 H470 0.930 . S
C485 C480 1.390 . S
C485 C484 1.387 . S
H486 C498 0.930 . S
H487 C500 0.930 . S
H488 C501 0.930 . S
H489 C505 0.959 . S
H490 C505 0.959 . S
H491 C505 0.961 . S
H492 C506 0.960 . S
H493 C506 0.961 . S
H494 C506 0.959 . S
H495 C509 0.929 . S
H496 C510 0.931 . S
H497 C512 0.930 . S
C498 H486 0.930 . S
C498 C499 1.399 . S
C498 C503 1.399 . S
C499 C498 1.399 . S
C499 C500 1.376 . S
C500 H487 0.930 . S
C500 C499 1.376 . S
C500 C501 1.388 . S
C501 H488 0.930 . S
C501 C500 1.388 . S
C501 C502 1.390 . S
C502 C501 1.390 . S
C502 C503 1.394 . S
C502 C508 1.465 . S
C503 C498 1.399 . S
C503 C502 1.394 . S
C503 C504 1.516 . S
C504 C503 1.516 . S
C504 C505 1.502 . S
C504 C506 1.561 . S
C504 C507 1.526 . S
C505 H489 0.959 . S
C505 H490 0.959 . S
C505 H491 0.961 . S
C505 C504 1.502 . S
C506 H492 0.960 . S
C506 H493 0.961 . S
C506 H494 0.959 . S
C506 C504 1.561 . S
C507 C504 1.526 . S
C507 C508 1.396 . S
C507 C512 1.390 . S
C508 C502 1.465 . S
C508 C507 1.396 . S
C508 C509 1.399 . S
C509 H495 0.929 . S
C509 C508 1.399 . S
C509 C510 1.385 . S
C510 H496 0.931 . S
C510 C509 1.385 . S
C510 C511 1.389 . S
C511 C510 1.389 . S
C511 C512 1.387 . S
C512 H497 0.930 . S
C512 C507 1.390 . S
C512 C511 1.387 . S
H513 C525 0.930 . S
H514 C527 0.930 . S
H515 C528 0.930 . S
H516 C532 0.959 . S
H517 C532 0.959 . S
H518 C532 0.961 . S
H519 C533 0.960 . S
H520 C533 0.961 . S
H521 C533 0.959 . S
H522 C536 0.929 . S
H523 C537 0.931 . S
H524 C539 0.930 1_565 S
C525 H513 0.930 . S
C525 C526 1.399 . S
C525 C530 1.399 . S
C526 C525 1.399 . S
C526 C527 1.376 . S
C527 H514 0.930 . S
C527 C526 1.376 . S
C527 C528 1.388 . S
C528 H515 0.930 . S
C528 C527 1.388 . S
C528 C529 1.390 . S
C529 C528 1.390 . S
C529 C530 1.394 . S
C529 C535 1.465 . S
C530 C525 1.399 . S
C530 C529 1.394 . S
C530 C531 1.516 . S
C531 C530 1.516 . S
C531 C532 1.502 . S
C531 C533 1.561 . S
C531 C534 1.526 . S
C532 H516 0.959 . S
C532 H517 0.959 . S
C532 H518 0.961 . S
C532 C531 1.502 . S
C533 H519 0.960 . S
C533 H520 0.961 . S
C533 H521 0.959 . S
C533 C531 1.561 . S
C534 C531 1.526 . S
C534 C535 1.396 . S
C534 C539 1.390 1_565 S
C535 C529 1.465 . S
C535 C534 1.396 . S
C535 C536 1.399 1_565 S
C536 H522 0.929 . S
C536 C535 1.399 1_545 S
C536 C537 1.385 . S
C537 H523 0.931 . S
C537 C536 1.385 . S
C537 C538 1.389 . S
C538 C537 1.389 . S
C538 C539 1.387 . S
C539 H524 0.930 1_545 S
C539 C534 1.390 1_545 S
C539 C538 1.387 . S
H540 C552 0.930 . S
H541 C554 0.930 . S
H542 C555 0.930 . S
H543 C559 0.959 . S
H544 C559 0.959 . S
H545 C559 0.961 . S
H546 C560 0.960 . S
H547 C560 0.961 . S
H548 C560 0.959 . S
H549 C563 0.929 . S
H550 C564 0.931 . S
H551 C566 0.940 . S
C552 H540 0.930 . S
C552 C553 1.399 . S
C552 C557 1.399 . S
C553 C552 1.399 . S
C553 C554 1.376 . S
C554 H541 0.930 . S
C554 C553 1.376 . S
C554 C555 1.388 . S
C555 H542 0.930 . S
C555 C554 1.388 . S
C555 C556 1.390 . S
C556 C555 1.390 . S
C556 C557 1.394 . S
C556 C562 1.465 . S
C557 C552 1.399 . S
C557 C556 1.394 . S
C557 C558 1.516 . S
C558 C557 1.516 . S
C558 C559 1.502 . S
C558 C560 1.561 . S
C558 C561 1.526 . S
C559 H543 0.959 . S
C559 H544 0.959 . S
C559 H545 0.961 . S
C559 C558 1.502 . S
C560 H546 0.960 . S
C560 H547 0.961 . S
C560 H548 0.959 . S
C560 C558 1.561 . S
C561 C558 1.526 . S
C561 C562 1.396 . S
C561 C566 1.401 . S
C562 C556 1.465 . S
C562 C561 1.396 . S
C562 C563 1.399 1_545 S
C563 H549 0.929 . S
C563 C562 1.399 1_565 S
C563 C564 1.385 . S
C564 H550 0.931 . S
C564 C563 1.385 . S
C564 C565 1.389 . S
C565 C564 1.389 . S
C565 C566 1.366 1_565 S
C566 H551 0.940 . S
C566 C561 1.401 . S
C566 C565 1.366 1_545 S
H567 C579 0.930 . S
H568 C581 0.930 . S
H569 C582 0.930 . S
H570 C586 0.959 . S
H571 C586 0.959 . S
H572 C586 0.961 . S
H573 C587 0.960 . S
H574 C587 0.961 . S
H575 C587 0.959 . S
H576 C590 0.929 . S
H577 C591 0.931 . S
H578 C593 0.930 . S
C579 H567 0.930 . S
C579 C580 1.399 . S
C579 C584 1.399 . S
C580 C579 1.399 . S
C580 C581 1.376 . S
C581 H568 0.930 . S
C581 C580 1.376 . S
C581 C582 1.388 . S
C582 H569 0.930 . S
C582 C581 1.388 . S
C582 C583 1.390 . S
C583 C582 1.390 . S
C583 C584 1.394 . S
C583 C589 1.465 . S
C584 C579 1.399 . S
C584 C583 1.394 . S
C584 C585 1.516 . S
C585 C584 1.516 . S
C585 C586 1.502 . S
C585 C587 1.561 . S
C585 C588 1.526 . S
C586 H570 0.959 . S
C586 H571 0.959 . S
C586 H572 0.961 . S
C586 C585 1.502 . S
C587 H573 0.960 . S
C587 H574 0.961 . S
C587 H575 0.959 . S
C587 C585 1.561 . S
C588 C585 1.526 . S
C588 C589 1.396 . S
C588 C593 1.390 . S
C589 C583 1.465 . S
C589 C588 1.396 . S
C589 C590 1.399 . S
C590 H576 0.929 . S
C590 C589 1.399 . S
C590 C591 1.385 . S
C591 H577 0.931 . S
C591 C590 1.385 . S
C591 C592 1.389 . S
C592 C591 1.389 . S
C592 C593 1.387 . S
C593 H578 0.930 . S
C593 C588 1.390 . S
C593 C592 1.387 . S
H594 C606 0.930 . S
H595 C608 0.930 . S
H596 C609 0.930 . S
H597 C613 0.959 . S
H598 C613 0.959 . S
H599 C613 0.961 . S
H600 C614 0.960 . S
H601 C614 0.961 . S
H602 C614 0.959 . S
H603 C617 0.929 . S
H604 C618 0.931 . S
H605 C620 0.930 . S
C606 H594 0.930 . S
C606 C607 1.399 . S
C606 C611 1.399 . S
C607 C606 1.399 . S
C607 C608 1.376 . S
C608 H595 0.930 . S
C608 C607 1.376 . S
C608 C609 1.388 . S
C609 H596 0.930 . S
C609 C608 1.388 . S
C609 C610 1.390 . S
C610 C609 1.390 . S
C610 C611 1.394 . S
C610 C616 1.465 . S
C611 C606 1.399 . S
C611 C610 1.394 . S
C611 C612 1.516 . S
C612 C611 1.516 . S
C612 C613 1.502 . S
C612 C614 1.561 . S
C612 C615 1.526 . S
C613 H597 0.959 . S
C613 H598 0.959 . S
C613 H599 0.961 . S
C613 C612 1.502 . S
C614 H600 0.960 . S
C614 H601 0.961 . S
C614 H602 0.959 . S
C614 C612 1.561 . S
C615 C612 1.526 . S
C615 C616 1.396 . S
C615 C620 1.390 . S
C616 C610 1.465 . S
C616 C615 1.396 . S
C616 C617 1.399 . S
C617 H603 0.929 . S
C617 C616 1.399 . S
C617 C618 1.385 . S
C618 H604 0.931 . S
C618 C617 1.385 . S
C618 C619 1.389 . S
C619 C618 1.389 . S
C619 C620 1.387 . S
C620 H605 0.930 . S
C620 C615 1.390 . S
C620 C619 1.387 . S
H621 C633 0.930 . S
H622 C635 0.930 . S
H623 C636 0.930 . S
H624 C640 0.959 . S
H625 C640 0.959 1_565 S
H626 C640 0.961 . S
H627 C641 0.960 . S
H628 C641 0.961 . S
H629 C641 0.959 . S
H630 C644 0.929 . S
H631 C645 0.931 . S
H632 C647 0.930 . S
C633 H621 0.930 . S
C633 C634 1.399 . S
C633 C638 1.399 . S
C634 C633 1.399 . S
C634 C635 1.376 . S
C635 H622 0.930 . S
C635 C634 1.376 . S
C635 C636 1.388 . S
C636 H623 0.930 . S
C636 C635 1.388 . S
C636 C637 1.390 . S
C637 C636 1.390 . S
C637 C638 1.394 . S
C637 C643 1.465 . S
C638 C633 1.399 . S
C638 C637 1.394 . S
C638 C639 1.516 . S
C639 C638 1.516 . S
C639 C640 1.502 . S
C639 C641 1.561 1_545 S
C639 C642 1.531 . S
C640 H624 0.959 . S
C640 H625 0.959 1_545 S
C640 H626 0.961 . S
C640 C639 1.502 . S
C641 H627 0.960 . S
C641 H628 0.961 . S
C641 H629 0.959 . S
C641 C639 1.561 1_565 S
C642 C639 1.531 . S
C642 C643 1.408 . S
C642 C647 1.375 1_545 S
C643 C637 1.465 . S
C643 C642 1.408 . S
C643 C644 1.399 . S
C644 H630 0.929 . S
C644 C643 1.399 . S
C644 C645 1.385 1_545 S
C645 H631 0.931 . S
C645 C644 1.385 1_565 S
C645 C646 1.389 . S
C646 C645 1.389 . S
C646 C647 1.387 . S
C647 H632 0.930 . S
C647 C642 1.375 1_565 S
C647 C646 1.387 . S
H648 C660 0.930 . S
H649 C662 0.930 . S
H650 C663 0.930 . S
H651 C667 0.959 . S
H652 C667 0.959 . S
H653 C667 0.961 1_556 S
H654 C668 0.960 . S
H655 C668 0.961 . S
H656 C668 0.959 . S
H657 C671 0.929 . S
H658 C672 0.931 . S
H659 C674 0.930 . S
C660 H648 0.930 . S
C660 C661 1.399 . S
C660 C665 1.399 . S
C661 C660 1.399 . S
C661 C662 1.376 . S
C662 H649 0.930 . S
C662 C661 1.376 . S
C662 C663 1.388 1_556 S
C663 H650 0.930 . S
C663 C662 1.388 1_554 S
C663 C664 1.390 . S
C664 C663 1.390 . S
C664 C665 1.394 1_554 S
C664 C670 1.465 . S
C665 C660 1.399 . S
C665 C664 1.394 1_556 S
C665 C666 1.516 1_556 S
C666 C665 1.516 1_554 S
C666 C667 1.502 . S
C666 C668 1.561 . S
C666 C669 1.526 . S
C667 H651 0.959 . S
C667 H652 0.959 . S
C667 H653 0.961 1_554 S
C667 C666 1.502 . S
C668 H654 0.960 . S
C668 H655 0.961 . S
C668 H656 0.959 . S
C668 C666 1.561 . S
C669 C666 1.526 . S
C669 C670 1.396 . S
C669 C674 1.390 . S
C670 C664 1.465 . S
C670 C669 1.396 . S
C670 C671 1.399 . S
C671 H657 0.929 . S
C671 C670 1.399 . S
C671 C672 1.385 . S
C672 H658 0.931 . S
C672 C671 1.385 . S
C672 C673 1.389 . S
C673 C672 1.389 . S
C673 C674 1.387 . S
C674 H659 0.930 . S
C674 C669 1.390 . S
C674 C673 1.387 . S
H675 C687 0.930 . S
H676 C689 0.930 . S
H677 C690 0.930 . S
H678 C694 0.959 . S
H679 C694 0.959 . S
H680 C694 0.961 . S
H681 C695 0.960 . S
H682 C695 0.961 . S
H683 C695 0.959 . S
H684 C698 0.929 . S
H685 C699 0.931 . S
H686 C701 0.930 . S
C687 H675 0.930 . S
C687 C688 1.399 . S
C687 C692 1.399 . S
C688 C687 1.399 . S
C688 C689 1.376 . S
C689 H676 0.930 . S
C689 C688 1.376 . S
C689 C690 1.388 . S
C690 H677 0.930 . S
C690 C689 1.388 . S
C690 C691 1.390 . S
C691 C690 1.390 . S
C691 C692 1.394 . S
C691 C697 1.465 . S
C692 C687 1.399 . S
C692 C691 1.394 . S
C692 C693 1.516 . S
C693 C692 1.516 . S
C693 C694 1.502 . S
C693 C695 1.561 . S
C693 C696 1.526 . S
C694 H678 0.959 . S
C694 H679 0.959 . S
C694 H680 0.961 . S
C694 C693 1.502 . S
C695 H681 0.960 . S
C695 H682 0.961 . S
C695 H683 0.959 . S
C695 C693 1.561 . S
C696 C693 1.526 . S
C696 C697 1.396 . S
C696 C701 1.390 . S
C697 C691 1.465 . S
C697 C696 1.396 . S
C697 C698 1.399 . S
C698 H684 0.929 . S
C698 C697 1.399 . S
C698 C699 1.385 . S
C699 H685 0.931 . S
C699 C698 1.385 . S
C699 C700 1.389 . S
C700 C699 1.389 . S
C700 C701 1.387 . S
C701 H686 0.930 . S
C701 C696 1.390 . S
C701 C700 1.387 . S
H702 C714 0.930 . S
H703 C716 0.930 . S
H704 C717 0.930 . S
H705 C721 0.959 . S
H706 C721 0.959 . S
H707 C721 0.961 . S
H708 C722 0.960 . S
H709 C722 0.961 . S
H710 C722 0.959 . S
H711 C725 0.929 . S
H712 C726 0.931 . S
H713 C728 0.930 . S
C714 H702 0.930 . S
C714 C715 1.399 . S
C714 C719 1.409 . S
C715 C714 1.399 . S
C715 C716 1.376 . S
C716 H703 0.930 . S
C716 C715 1.376 . S
C716 C717 1.388 . S
C717 H704 0.930 . S
C717 C716 1.388 . S
C717 C718 1.390 1_554 S
C718 C717 1.390 1_556 S
C718 C719 1.392 1_556 S
C718 C724 1.465 . S
C719 C714 1.409 . S
C719 C718 1.392 1_554 S
C719 C720 1.507 1_554 S
C720 C719 1.507 1_556 S
C720 C721 1.502 . S
C720 C722 1.561 . S
C720 C723 1.526 . S
C721 H705 0.959 . S
C721 H706 0.959 . S
C721 H707 0.961 . S
C721 C720 1.502 . S
C722 H708 0.960 . S
C722 H709 0.961 . S
C722 H710 0.959 . S
C722 C720 1.561 . S
C723 C720 1.526 . S
C723 C724 1.396 . S
C723 C728 1.390 . S
C724 C718 1.465 . S
C724 C723 1.396 . S
C724 C725 1.399 . S
C725 H711 0.929 . S
C725 C724 1.399 . S
C725 C726 1.385 . S
C726 H712 0.931 . S
C726 C725 1.385 . S
C726 C727 1.389 . S
C727 C726 1.389 . S
C727 C728 1.387 . S
C728 H713 0.930 . S
C728 C723 1.390 . S
C728 C727 1.387 . S
H729 C741 0.930 . S
H730 C743 0.930 . S
H731 C744 0.930 . S
H732 C748 0.959 . S
H733 C748 0.959 . S
H734 C748 0.961 . S
H735 C749 0.960 . S
H736 C749 0.961 . S
H737 C749 0.959 . S
H738 C752 0.929 . S
H739 C753 0.931 . S
H740 C755 0.930 . S
C741 H729 0.930 . S
C741 C742 1.399 . S
C741 C746 1.399 . S
C742 C741 1.399 . S
C742 C743 1.376 . S
C743 H730 0.930 . S
C743 C742 1.376 . S
C743 C744 1.388 . S
C744 H731 0.930 . S
C744 C743 1.388 . S
C744 C745 1.390 . S
C745 C744 1.390 . S
C745 C746 1.394 . S
C745 C751 1.465 . S
C746 C741 1.399 . S
C746 C745 1.394 . S
C746 C747 1.516 . S
C747 C746 1.516 . S
C747 C748 1.502 . S
C747 C749 1.561 . S
C747 C750 1.526 . S
C748 H732 0.959 . S
C748 H733 0.959 . S
C748 H734 0.961 . S
C748 C747 1.502 . S
C749 H735 0.960 . S
C749 H736 0.961 . S
C749 H737 0.959 . S
C749 C747 1.561 . S
C750 C747 1.526 . S
C750 C751 1.396 . S
C750 C755 1.390 . S
C751 C745 1.465 . S
C751 C750 1.396 . S
C751 C752 1.399 . S
C752 H738 0.929 . S
C752 C751 1.399 . S
C752 C753 1.385 . S
C753 H739 0.931 . S
C753 C752 1.385 . S
C753 C754 1.389 . S
C754 C753 1.389 . S
C754 C755 1.387 . S
C755 H740 0.930 . S
C755 C750 1.390 . S
C755 C754 1.387 . S
H756 C768 0.930 . S
H757 C770 0.930 . S
H758 C771 0.930 . S
H759 C775 0.959 . S
H760 C775 0.959 . S
H761 C775 0.961 . S
H762 C776 0.960 . S
H763 C776 0.961 . S
H764 C776 0.959 . S
H765 C779 0.929 . S
H766 C780 0.931 . S
H767 C782 0.930 . S
C768 H756 0.930 . S
C768 C769 1.399 . S
C768 C773 1.399 1_554 S
C769 C768 1.399 . S
C769 C770 1.376 . S
C770 H757 0.930 . S
C770 C769 1.376 . S
C770 C771 1.388 . S
C771 H758 0.930 . S
C771 C770 1.388 . S
C771 C772 1.390 1_554 S
C772 C771 1.390 1_556 S
C772 C773 1.394 . S
C772 C778 1.465 . S
C773 C768 1.399 1_556 S
C773 C772 1.394 . S
C773 C774 1.516 . S
C774 C773 1.516 . S
C774 C775 1.502 . S
C774 C776 1.561 . S
C774 C777 1.526 . S
C775 H759 0.959 . S
C775 H760 0.959 . S
C775 H761 0.961 . S
C775 C774 1.502 . S
C776 H762 0.960 . S
C776 H763 0.961 . S
C776 H764 0.959 . S
C776 C774 1.561 . S
C777 C774 1.526 . S
C777 C778 1.396 . S
C777 C782 1.390 . S
C778 C772 1.465 . S
C778 C777 1.396 . S
C778 C779 1.399 . S
C779 H765 0.929 . S
C779 C778 1.399 . S
C779 C780 1.385 . S
C780 H766 0.931 . S
C780 C779 1.385 . S
C780 C781 1.389 . S
C781 C780 1.389 . S
C781 C782 1.387 . S
C782 H767 0.930 . S
C782 C777 1.390 . S
C782 C781 1.387 . S
H783 C795 0.930 . S
H784 C797 0.930 . S
H785 C798 0.930 . S
H786 C802 0.959 . S
H787 C802 0.959 . S
H788 C802 0.961 . S
H789 C803 0.960 . S
H790 C803 0.961 . S
H791 C803 0.959 . S
H792 C806 0.929 . S
H793 C807 0.931 . S
H794 C809 0.930 . S
C795 H783 0.930 . S
C795 C796 1.399 . S
C795 C800 1.399 . S
C796 C795 1.399 . S
C796 C797 1.376 . S
C797 H784 0.930 . S
C797 C796 1.376 . S
C797 C798 1.388 . S
C798 H785 0.930 . S
C798 C797 1.388 . S
C798 C799 1.390 . S
C799 C798 1.390 . S
C799 C800 1.394 . S
C799 C805 1.465 . S
C800 C795 1.399 . S
C800 C799 1.394 . S
C800 C801 1.516 . S
C801 C800 1.516 . S
C801 C802 1.502 . S
C801 C803 1.561 . S
C801 C804 1.526 . S
C802 H786 0.959 . S
C802 H787 0.959 . S
C802 H788 0.961 . S
C802 C801 1.502 . S
C803 H789 0.960 . S
C803 H790 0.961 . S
C803 H791 0.959 . S
C803 C801 1.561 . S
C804 C801 1.526 . S
C804 C805 1.396 . S
C804 C809 1.390 . S
C805 C799 1.465 . S
C805 C804 1.396 . S
C805 C806 1.399 . S
C806 H792 0.929 . S
C806 C805 1.399 . S
C806 C807 1.385 . S
C807 H793 0.931 . S
C807 C806 1.385 . S
C807 C808 1.389 . S
C808 C807 1.389 . S
C808 C809 1.387 . S
C809 H794 0.930 . S
C809 C804 1.390 . S
C809 C808 1.387 . S
H810 C822 0.930 . S
H811 C824 0.930 . S
H812 C825 0.916 1_554 S
H813 C829 0.959 . S
H814 C829 0.959 . S
H815 C829 0.961 1_556 S
H816 C830 0.960 . S
H817 C830 0.961 . S
H818 C830 0.959 . S
H819 C833 0.929 . S
H820 C834 0.931 . S
H821 C836 0.930 . S
C822 H810 0.930 . S
C822 C823 1.399 . S
C822 C827 1.399 . S
C823 C822 1.399 . S
C823 C824 1.376 . S
C824 H811 0.930 . S
C824 C823 1.376 . S
C824 C825 1.388 . S
C825 H812 0.916 1_556 S
C825 C824 1.388 . S
C825 C826 1.390 1_556 S
C826 C825 1.390 1_554 S
C826 C827 1.394 1_554 S
C826 C832 1.465 . S
C827 C822 1.399 . S
C827 C826 1.394 1_556 S
C827 C828 1.516 1_556 S
C828 C827 1.516 1_554 S
C828 C829 1.502 . S
C828 C830 1.561 . S
C828 C831 1.526 . S
C829 H813 0.959 . S
C829 H814 0.959 . S
C829 H815 0.961 1_554 S
C829 C828 1.502 . S
C830 H816 0.960 . S
C830 H817 0.961 . S
C830 H818 0.959 . S
C830 C828 1.561 . S
C831 C828 1.526 . S
C831 C832 1.396 . S
C831 C836 1.390 . S
C832 C826 1.465 . S
C832 C831 1.396 . S
C832 C833 1.399 . S
C833 H819 0.929 . S
C833 C832 1.399 . S
C833 C834 1.385 . S
C834 H820 0.931 . S
C834 C833 1.385 . S
C834 C835 1.389 . S
C835 C834 1.389 . S
C835 C836 1.387 . S
C836 H821 0.930 . S
C836 C831 1.390 . S
C836 C835 1.387 . S
H837 C849 0.930 . S
H838 C851 0.930 . S
H839 C852 0.930 . S
H840 C856 0.959 . S
H841 C856 0.959 . S
H842 C856 0.961 . S
H843 C857 0.960 . S
H844 C857 0.961 . S
H845 C857 0.959 . S
H846 C860 0.929 . S
H847 C861 0.931 . S
H848 C863 0.930 . S
C849 H837 0.930 . S
C849 C850 1.399 . S
C849 C854 1.399 . S
C850 C849 1.399 . S
C850 C851 1.376 . S
C851 H838 0.930 . S
C851 C850 1.376 . S
C851 C852 1.388 . S
C852 H839 0.930 . S
C852 C851 1.388 . S
C852 C853 1.390 . S
C853 C852 1.390 . S
C853 C854 1.394 . S
C853 C859 1.465 . S
C854 C849 1.399 . S
C854 C853 1.394 . S
C854 C855 1.516 . S
C855 C854 1.516 . S
C855 C856 1.502 . S
C855 C857 1.561 . S
C855 C858 1.526 . S
C856 H840 0.959 . S
C856 H841 0.959 . S
C856 H842 0.961 . S
C856 C855 1.502 . S
C857 H843 0.960 . S
C857 H844 0.961 . S
C857 H845 0.959 . S
C857 C855 1.561 . S
C858 C855 1.526 . S
C858 C859 1.396 . S
C858 C863 1.390 . S
C859 C853 1.465 . S
C859 C858 1.396 . S
C859 C860 1.399 . S
C860 H846 0.929 . S
C860 C859 1.399 . S
C860 C861 1.385 . S
C861 H847 0.931 . S
C861 C860 1.385 . S
C861 C862 1.389 . S
C862 C861 1.389 . S
C862 C863 1.387 . S
C863 H848 0.930 . S
C863 C858 1.390 . S
C863 C862 1.387 . S
H864 C876 0.930 . S
H865 C878 0.930 . S
H866 C879 0.930 . S
H867 C883 0.959 . S
H868 C883 0.959 . S
H869 C883 0.961 . S
H870 C884 0.960 . S
H871 C884 0.961 . S
H872 C884 0.959 . S
H873 C887 0.929 . S
H874 C888 0.931 . S
H875 C890 0.930 . S
C876 H864 0.930 . S
C876 C877 1.399 . S
C876 C881 1.399 . S
C877 C876 1.399 . S
C877 C878 1.376 . S
C878 H865 0.930 . S
C878 C877 1.376 . S
C878 C879 1.388 . S
C879 H866 0.930 . S
C879 C878 1.388 . S
C879 C880 1.390 . S
C880 C879 1.390 . S
C880 C881 1.394 . S
C880 C886 1.465 . S
C881 C876 1.399 . S
C881 C880 1.394 . S
C881 C882 1.516 . S
C882 C881 1.516 . S
C882 C883 1.502 . S
C882 C884 1.561 . S
C882 C885 1.526 . S
C883 H867 0.959 . S
C883 H868 0.959 . S
C883 H869 0.961 . S
C883 C882 1.502 . S
C884 H870 0.960 . S
C884 H871 0.961 . S
C884 H872 0.959 . S
C884 C882 1.561 . S
C885 C882 1.526 . S
C885 C886 1.396 . S
C885 C890 1.390 . S
C886 C880 1.465 . S
C886 C885 1.396 . S
C886 C887 1.399 . S
C887 H873 0.929 . S
C887 C886 1.399 . S
C887 C888 1.385 . S
C888 H874 0.931 . S
C888 C887 1.385 . S
C888 C889 1.389 . S
C889 C888 1.389 . S
C889 C890 1.387 . S
C890 H875 0.930 . S
C890 C885 1.390 . S
C890 C889 1.387 . S
H891 C903 0.930 . S
H892 C905 0.930 . S
H893 C906 0.930 . S
H894 C910 0.959 . S
H895 C910 0.959 . S
H896 C910 0.961 . S
H897 C911 0.960 . S
H898 C911 0.961 . S
H899 C911 0.959 . S
H900 C914 0.929 . S
H901 C915 0.931 . S
H902 C917 0.930 . S
C903 H891 0.930 . S
C903 C904 1.399 . S
C903 C908 1.399 . S
C904 C903 1.399 . S
C904 C905 1.376 . S
C905 H892 0.930 . S
C905 C904 1.376 . S
C905 C906 1.388 . S
C906 H893 0.930 . S
C906 C905 1.388 . S
C906 C907 1.390 . S
C907 C906 1.390 . S
C907 C908 1.394 . S
C907 C913 1.465 . S
C908 C903 1.399 . S
C908 C907 1.394 . S
C908 C909 1.516 . S
C909 C908 1.516 . S
C909 C910 1.502 . S
C909 C911 1.561 . S
C909 C912 1.526 . S
C910 H894 0.959 . S
C910 H895 0.959 . S
C910 H896 0.961 . S
C910 C909 1.502 . S
C911 H897 0.960 . S
C911 H898 0.961 . S
C911 H899 0.959 . S
C911 C909 1.561 . S
C912 C909 1.526 . S
C912 C913 1.396 . S
C912 C917 1.390 . S
C913 C907 1.465 . S
C913 C912 1.396 . S
C913 C914 1.399 . S
C914 H900 0.929 . S
C914 C913 1.399 . S
C914 C915 1.385 . S
C915 H901 0.931 . S
C915 C914 1.385 . S
C915 C916 1.389 . S
C916 C915 1.389 . S
C916 C917 1.387 . S
C917 H902 0.930 . S
C917 C912 1.390 . S
C917 C916 1.387 . S
H918 C930 0.930 . S
H919 C932 0.930 . S
H920 C933 0.930 . S
H921 C937 0.959 . S
H922 C937 0.959 . S
H923 C937 0.961 . S
H924 C938 0.960 . S
H925 C938 0.961 . S
H926 C938 0.959 . S
H927 C941 0.929 . S
H928 C942 0.931 . S
H929 C944 0.930 . S
C930 H918 0.930 . S
C930 C931 1.399 . S
C930 C935 1.399 . S
C931 C930 1.399 . S
C931 C932 1.376 . S
C932 H919 0.930 . S
C932 C931 1.376 . S
C932 C933 1.388 . S
C933 H920 0.930 . S
C933 C932 1.388 . S
C933 C934 1.390 . S
C934 C933 1.390 . S
C934 C935 1.394 . S
C934 C940 1.465 . S
C935 C930 1.399 . S
C935 C934 1.394 . S
C935 C936 1.516 . S
C936 C935 1.516 . S
C936 C937 1.502 . S
C936 C938 1.561 . S
C936 C939 1.526 . S
C937 H921 0.959 . S
C937 H922 0.959 . S
C937 H923 0.961 . S
C937 C936 1.502 . S
C938 H924 0.960 . S
C938 H925 0.961 . S
C938 H926 0.959 . S
C938 C936 1.561 . S
C939 C936 1.526 . S
C939 C940 1.396 . S
C939 C944 1.390 . S
C940 C934 1.465 . S
C940 C939 1.396 . S
C940 C941 1.399 . S
C941 H927 0.929 . S
C941 C940 1.399 . S
C941 C942 1.385 . S
C942 H928 0.931 . S
C942 C941 1.385 . S
C942 C943 1.389 . S
C943 C942 1.389 . S
C943 C944 1.387 . S
C944 H929 0.930 . S
C944 C939 1.390 . S
C944 C943 1.387 . S
H945 C957 0.930 . S
H946 C959 0.930 . S
H947 C960 0.930 . S
H948 C964 0.959 . S
H949 C964 0.959 . S
H950 C964 0.961 . S
H951 C965 0.960 . S
H952 C965 0.961 . S
H953 C965 0.959 . S
H954 C968 0.929 . S
H955 C969 0.931 . S
H956 C971 0.930 . S
C957 H945 0.930 . S
C957 C958 1.399 . S
C957 C962 1.399 . S
C958 C957 1.399 . S
C958 C959 1.376 . S
C959 H946 0.930 . S
C959 C958 1.376 . S
C959 C960 1.388 . S
C960 H947 0.930 . S
C960 C959 1.388 . S
C960 C961 1.390 . S
C961 C960 1.390 . S
C961 C962 1.394 . S
C961 C967 1.465 . S
C962 C957 1.399 . S
C962 C961 1.394 . S
C962 C963 1.516 . S
C963 C962 1.516 . S
C963 C964 1.502 . S
C963 C965 1.561 . S
C963 C966 1.526 . S
C964 H948 0.959 . S
C964 H949 0.959 . S
C964 H950 0.961 . S
C964 C963 1.502 . S
C965 H951 0.960 . S
C965 H952 0.961 . S
C965 H953 0.959 . S
C965 C963 1.561 . S
C966 C963 1.526 . S
C966 C967 1.396 . S
C966 C971 1.390 . S
C967 C961 1.465 . S
C967 C966 1.396 . S
C967 C968 1.399 . S
C968 H954 0.929 . S
C968 C967 1.399 . S
C968 C969 1.385 . S
C969 H955 0.931 . S
C969 C968 1.385 . S
C969 C970 1.389 . S
C970 C969 1.389 . S
C970 C971 1.387 . S
C971 H956 0.930 . S
C971 C966 1.390 . S
C971 C970 1.387 . S
H972 C984 0.930 . S
H973 C986 0.930 . S
H974 C987 0.930 . S
H975 C991 0.959 . S
H976 C991 0.959 . S
H977 C991 0.961 . S
H978 C992 0.960 . S
H979 C992 0.961 . S
H980 C992 0.959 . S
H981 C995 0.929 . S
H982 C996 0.931 . S
H983 C998 0.930 . S
C984 H972 0.930 . S
C984 C985 1.399 . S
C984 C989 1.399 . S
C985 C984 1.399 . S
C985 C986 1.376 . S
C986 H973 0.930 . S
C986 C985 1.376 . S
C986 C987 1.388 . S
C987 H974 0.930 . S
C987 C986 1.388 . S
C987 C988 1.390 . S
C988 C987 1.390 . S
C988 C989 1.394 . S
C988 C994 1.465 . S
C989 C984 1.399 . S
C989 C988 1.394 . S
C989 C990 1.516 . S
C990 C989 1.516 . S
C990 C991 1.502 . S
C990 C992 1.561 . S
C990 C993 1.526 . S
C991 H975 0.959 . S
C991 H976 0.959 . S
C991 H977 0.961 . S
C991 C990 1.502 . S
C992 H978 0.960 . S
C992 H979 0.961 . S
C992 H980 0.959 . S
C992 C990 1.561 . S
C993 C990 1.526 . S
C993 C994 1.396 . S
C993 C998 1.390 . S
C994 C988 1.465 . S
C994 C993 1.396 . S
C994 C995 1.399 . S
C995 H981 0.929 . S
C995 C994 1.399 . S
C995 C996 1.385 . S
C996 H982 0.931 . S
C996 C995 1.385 . S
C996 C997 1.389 . S
C997 C996 1.389 . S
C997 C998 1.387 . S
C998 H983 0.930 . S
C998 C993 1.390 . S
C998 C997 1.387 . S
H999 C1011 0.930 . S
H1000 C1013 0.930 . S
H1001 C1014 0.930 . S
H1002 C1018 0.959 . S
H1003 C1018 0.959 . S
H1004 C1018 0.961 . S
H1005 C1019 0.960 . S
H1006 C1019 0.961 . S
H1007 C1019 0.959 . S
H1008 C1022 0.929 . S
H1009 C1023 0.931 . S
H1010 C1025 0.930 . S
C1011 H999 0.930 . S
C1011 C1012 1.399 . S
C1011 C1016 1.399 . S
C1012 C1011 1.399 . S
C1012 C1013 1.376 . S
C1013 H1000 0.930 . S
C1013 C1012 1.376 . S
C1013 C1014 1.388 . S
C1014 H1001 0.930 . S
C1014 C1013 1.388 . S
C1014 C1015 1.390 . S
C1015 C1014 1.390 . S
C1015 C1016 1.394 . S
C1015 C1021 1.465 . S
C1016 C1011 1.399 . S
C1016 C1015 1.394 . S
C1016 C1017 1.516 . S
C1017 C1016 1.516 . S
C1017 C1018 1.502 . S
C1017 C1019 1.561 . S
C1017 C1020 1.526 . S
C1018 H1002 0.959 . S
C1018 H1003 0.959 . S
C1018 H1004 0.961 . S
C1018 C1017 1.502 . S
C1019 H1005 0.960 . S
C1019 H1006 0.961 . S
C1019 H1007 0.959 . S
C1019 C1017 1.561 . S
C1020 C1017 1.526 . S
C1020 C1021 1.396 . S
C1020 C1025 1.390 . S
C1021 C1015 1.465 . S
C1021 C1020 1.396 . S
C1021 C1022 1.399 . S
C1022 H1008 0.929 . S
C1022 C1021 1.399 . S
C1022 C1023 1.385 . S
C1023 H1009 0.931 . S
C1023 C1022 1.385 . S
C1023 C1024 1.389 . S
C1024 C1023 1.389 . S
C1024 C1025 1.387 . S
C1025 H1010 0.930 . S
C1025 C1020 1.390 . S
C1025 C1024 1.387 . S
H1026 C1038 0.930 . S
H1027 C1040 0.930 . S
H1028 C1041 0.930 . S
H1029 C1045 0.959 . S
H1030 C1045 0.959 . S
H1031 C1045 0.961 . S
H1032 C1046 0.960 . S
H1033 C1046 0.961 . S
H1034 C1046 0.959 . S
H1035 C1049 0.929 . S
H1036 C1050 0.931 . S
H1037 C1052 0.930 . S
C1038 H1026 0.930 . S
C1038 C1039 1.399 . S
C1038 C1043 1.399 . S
C1039 C1038 1.399 . S
C1039 C1040 1.376 . S
C1040 H1027 0.930 . S
C1040 C1039 1.376 . S
C1040 C1041 1.388 . S
C1041 H1028 0.930 . S
C1041 C1040 1.388 . S
C1041 C1042 1.390 . S
C1042 C1041 1.390 . S
C1042 C1043 1.394 . S
C1042 C1048 1.465 . S
C1043 C1038 1.399 . S
C1043 C1042 1.394 . S
C1043 C1044 1.516 . S
C1044 C1043 1.516 . S
C1044 C1045 1.502 . S
C1044 C1046 1.561 . S
C1044 C1047 1.526 . S
C1045 H1029 0.959 . S
C1045 H1030 0.959 . S
C1045 H1031 0.961 . S
C1045 C1044 1.502 . S
C1046 H1032 0.960 . S
C1046 H1033 0.961 . S
C1046 H1034 0.959 . S
C1046 C1044 1.561 . S
C1047 C1044 1.526 . S
C1047 C1048 1.396 . S
C1047 C1052 1.390 . S
C1048 C1042 1.465 . S
C1048 C1047 1.396 . S
C1048 C1049 1.399 . S
C1049 H1035 0.929 . S
C1049 C1048 1.399 . S
C1049 C1050 1.385 . S
C1050 H1036 0.931 . S
C1050 C1049 1.385 . S
C1050 C1051 1.389 . S
C1051 C1050 1.389 . S
C1051 C1052 1.387 . S
C1052 H1037 0.930 . S
C1052 C1047 1.390 . S
C1052 C1051 1.387 . S
H1053 C1065 0.930 . S
H1054 C1067 0.930 . S
H1055 C1068 0.930 . S
H1056 C1072 0.959 . S
H1057 C1072 0.959 . S
H1058 C1072 0.961 . S
H1059 C1073 0.960 . S
H1060 C1073 0.961 . S
H1061 C1073 0.959 . S
H1062 C1076 0.929 . S
H1063 C1077 0.931 . S
H1064 C1079 0.930 . S
C1065 H1053 0.930 . S
C1065 C1066 1.399 . S
C1065 C1070 1.399 . S
C1066 C1065 1.399 . S
C1066 C1067 1.376 . S
C1067 H1054 0.930 . S
C1067 C1066 1.376 . S
C1067 C1068 1.388 . S
C1068 H1055 0.930 . S
C1068 C1067 1.388 . S
C1068 C1069 1.390 . S
C1069 C1068 1.390 . S
C1069 C1070 1.394 . S
C1069 C1075 1.465 . S
C1070 C1065 1.399 . S
C1070 C1069 1.394 . S
C1070 C1071 1.516 . S
C1071 C1070 1.516 . S
C1071 C1072 1.502 . S
C1071 C1073 1.561 . S
C1071 C1074 1.526 . S
C1072 H1056 0.959 . S
C1072 H1057 0.959 . S
C1072 H1058 0.961 . S
C1072 C1071 1.502 . S
C1073 H1059 0.960 . S
C1073 H1060 0.961 . S
C1073 H1061 0.959 . S
C1073 C1071 1.561 . S
C1074 C1071 1.526 . S
C1074 C1075 1.396 . S
C1074 C1079 1.390 . S
C1075 C1069 1.465 . S
C1075 C1074 1.396 . S
C1075 C1076 1.399 . S
C1076 H1062 0.929 . S
C1076 C1075 1.399 . S
C1076 C1077 1.385 . S
C1077 H1063 0.931 . S
C1077 C1076 1.385 . S
C1077 C1078 1.389 . S
C1078 C1077 1.389 . S
C1078 C1079 1.387 . S
C1079 H1064 0.930 . S
C1079 C1074 1.390 . S
C1079 C1078 1.387 . S
C445 C81 1.685 . S
C457 C170 1.648 . S
C484 C254 1.648 . S
C472 C93 1.685 . S
C511 C247 1.676 . S
C499 C57 1.679 . S
C526 C69 1.676 . S
C538 C163 1.654 . S
C565 C327 1.677 . S
C553 C33 1.678 . S
C592 C411 1.645 . S
C580 C45 1.667 . S
C607 C9 1.674 . S
C619 C404 1.653 . S
C634 C21 1.652 . S
C646 C320 1.675 . S
C673 C154 1.457 . S
C661 C18 1.615 . S
C700 C238 1.442 . S
C688 C6 1.592 . S
C727 C249 1.452 . S
C715 C42 1.601 . S
C754 C165 1.458 . S
C742 C30 1.598 . S
C781 C333 1.416 . S
C769 C66 1.607 . S
C796 C54 1.611 . S
C808 C417 1.498 . S
C835 C406 1.403 . S
C823 C90 1.616 . S
C850 C78 1.612 . S
C862 C322 1.437 . S
C889 C152 1.537 . S
C877 C4 1.504 . S
C916 C236 1.538 . S
C904 C16 1.507 . S
C931 C28 1.503 . S
C943 C243 1.482 . S
C970 C159 1.522 . S
C958 C40 1.520 . S
C997 C331 1.529 . S
C985 C52 1.487 . S
C1012 C64 1.534 . S
C1024 C415 1.529 . S
C1039 C76 1.483 . S
C1051 C422 1.477 . S
C1066 C88 1.487 . S
C1078 C338 1.483 . S
