# Generated by pormake.
# Topology ptr, (4,4)-cn, num edge types: 1
# Building blocks:
#     Node 0, Type 0, BuildingBlock: CEKHIL_clean_sbu_0, # of connection points: 4
#     Node 1, Type 0, BuildingBlock: CEKHIL_clean_sbu_0, # of connection points: 4
#     Node 2, Type 0, BuildingBlock: CEKHIL_clean_sbu_0, # of connection points: 4
#     Node 3, Type 0, BuildingBlock: CEKHIL_clean_sbu_0, # of connection points: 4
#     Node 4, Type 0, BuildingBlock: CEKHIL_clean_sbu_0, # of connection points: 4
#     Node 5, Type 0, BuildingBlock: CEKHIL_clean_sbu_0, # of connection points: 4
#     Node 6, Type 0, BuildingBlock: CEKHIL_clean_sbu_0, # of connection points: 4
#     Node 7, Type 0, BuildingBlock: CEKHIL_clean_sbu_0, # of connection points: 4
#     Node 8, Type 0, BuildingBlock: CEKHIL_clean_sbu_0, # of connection points: 4
#     Node 9, Type 0, BuildingBlock: CEKHIL_clean_sbu_0, # of connection points: 4
#     Node 10, Type 0, BuildingBlock: CEKHIL_clean_sbu_0, # of connection points: 4
#     Node 11, Type 0, BuildingBlock: CEKHIL_clean_sbu_0, # of connection points: 4
#     Node 12, Type 0, BuildingBlock: CEKHIL_clean_sbu_0, # of connection points: 4
#     Node 13, Type 0, BuildingBlock: CEKHIL_clean_sbu_0, # of connection points: 4
#     Node 14, Type 0, BuildingBlock: CEKHIL_clean_sbu_0, # of connection points: 4
#     Node 15, Type 0, BuildingBlock: CEKHIL_clean_sbu_0, # of connection points: 4
#     Node 16, Type 0, BuildingBlock: CEKHIL_clean_sbu_0, # of connection points: 4
#     Node 17, Type 0, BuildingBlock: CEKHIL_clean_sbu_0, # of connection points: 4
#     Node 18, Type 1, BuildingBlock: NAHDIM_clean_linker_0, # of connection points: 4
#     Node 19, Type 1, BuildingBlock: NAHDIM_clean_linker_0, # of connection points: 4
#     Node 20, Type 1, BuildingBlock: NAHDIM_clean_linker_0, # of connection points: 4
#     Node 21, Type 1, BuildingBlock: NAHDIM_clean_linker_0, # of connection points: 4
#     Node 22, Type 1, BuildingBlock: NAHDIM_clean_linker_0, # of connection points: 4
#     Node 23, Type 1, BuildingBlock: NAHDIM_clean_linker_0, # of connection points: 4
#     Node 24, Type 1, BuildingBlock: NAHDIM_clean_linker_0, # of connection points: 4
#     Node 25, Type 1, BuildingBlock: NAHDIM_clean_linker_0, # of connection points: 4
#     Node 26, Type 1, BuildingBlock: NAHDIM_clean_linker_0, # of connection points: 4
#     Node 27, Type 1, BuildingBlock: NAHDIM_clean_linker_0, # of connection points: 4
#     Node 28, Type 1, BuildingBlock: NAHDIM_clean_linker_0, # of connection points: 4
#     Node 29, Type 1, BuildingBlock: NAHDIM_clean_linker_0, # of connection points: 4
#     Node 30, Type 1, BuildingBlock: NAHDIM_clean_linker_0, # of connection points: 4
#     Node 31, Type 1, BuildingBlock: NAHDIM_clean_linker_0, # of connection points: 4
#     Node 32, Type 1, BuildingBlock: NAHDIM_clean_linker_0, # of connection points: 4
#     Node 33, Type 1, BuildingBlock: NAHDIM_clean_linker_0, # of connection points: 4
#     Node 34, Type 1, BuildingBlock: NAHDIM_clean_linker_0, # of connection points: 4
#     Node 35, Type 1, BuildingBlock: NAHDIM_clean_linker_0, # of connection points: 4
#     Edge 36, Type (0, 1), BuildingBlock: OJICUG_clean_linker_0, # of connection points: 2
#     Edge 37, Type (0, 1), BuildingBlock: OJICUG_clean_linker_0, # of connection points: 2
#     Edge 38, Type (0, 1), BuildingBlock: OJICUG_clean_linker_0, # of connection points: 2
#     Edge 39, Type (0, 1), BuildingBlock: OJICUG_clean_linker_0, # of connection points: 2
#     Edge 40, Type (0, 1), BuildingBlock: OJICUG_clean_linker_0, # of connection points: 2
#     Edge 41, Type (0, 1), BuildingBlock: OJICUG_clean_linker_0, # of connection points: 2
#     Edge 42, Type (0, 1), BuildingBlock: OJICUG_clean_linker_0, # of connection points: 2
#     Edge 43, Type (0, 1), BuildingBlock: OJICUG_clean_linker_0, # of connection points: 2
#     Edge 44, Type (0, 1), BuildingBlock: OJICUG_clean_linker_0, # of connection points: 2
#     Edge 45, Type (0, 1), BuildingBlock: OJICUG_clean_linker_0, # of connection points: 2
#     Edge 46, Type (0, 1), BuildingBlock: OJICUG_clean_linker_0, # of connection points: 2
#     Edge 47, Type (0, 1), BuildingBlock: OJICUG_clean_linker_0, # of connection points: 2
#     Edge 48, Type (0, 1), BuildingBlock: OJICUG_clean_linker_0, # of connection points: 2
#     Edge 49, Type (0, 1), BuildingBlock: OJICUG_clean_linker_0, # of connection points: 2
#     Edge 50, Type (0, 1), BuildingBlock: OJICUG_clean_linker_0, # of connection points: 2
#     Edge 51, Type (0, 1), BuildingBlock: OJICUG_clean_linker_0, # of connection points: 2
#     Edge 52, Type (0, 1), BuildingBlock: OJICUG_clean_linker_0, # of connection points: 2
#     Edge 53, Type (0, 1), BuildingBlock: OJICUG_clean_linker_0, # of connection points: 2
#     Edge 54, Type (0, 1), BuildingBlock: OJICUG_clean_linker_0, # of connection points: 2
#     Edge 55, Type (0, 1), BuildingBlock: OJICUG_clean_linker_0, # of connection points: 2
#     Edge 56, Type (0, 1), BuildingBlock: OJICUG_clean_linker_0, # of connection points: 2
#     Edge 57, Type (0, 1), BuildingBlock: OJICUG_clean_linker_0, # of connection points: 2
#     Edge 58, Type (0, 1), BuildingBlock: OJICUG_clean_linker_0, # of connection points: 2
#     Edge 59, Type (0, 1), BuildingBlock: OJICUG_clean_linker_0, # of connection points: 2
#     Edge 60, Type (0, 1), BuildingBlock: OJICUG_clean_linker_0, # of connection points: 2
#     Edge 61, Type (0, 1), BuildingBlock: OJICUG_clean_linker_0, # of connection points: 2
#     Edge 62, Type (0, 1), BuildingBlock: OJICUG_clean_linker_0, # of connection points: 2
#     Edge 63, Type (0, 1), BuildingBlock: OJICUG_clean_linker_0, # of connection points: 2
#     Edge 64, Type (0, 1), BuildingBlock: OJICUG_clean_linker_0, # of connection points: 2
#     Edge 65, Type (0, 1), BuildingBlock: OJICUG_clean_linker_0, # of connection points: 2
#     Edge 66, Type (0, 1), BuildingBlock: OJICUG_clean_linker_0, # of connection points: 2
#     Edge 67, Type (0, 1), BuildingBlock: OJICUG_clean_linker_0, # of connection points: 2
#     Edge 68, Type (0, 1), BuildingBlock: OJICUG_clean_linker_0, # of connection points: 2
#     Edge 69, Type (0, 1), BuildingBlock: OJICUG_clean_linker_0, # of connection points: 2
#     Edge 70, Type (0, 1), BuildingBlock: OJICUG_clean_linker_0, # of connection points: 2
#     Edge 71, Type (0, 1), BuildingBlock: OJICUG_clean_linker_0, # of connection points: 2
#     Edge 72, Type (0, 1), BuildingBlock: OJICUG_clean_linker_0, # of connection points: 2
#     Edge 73, Type (0, 1), BuildingBlock: OJICUG_clean_linker_0, # of connection points: 2
#     Edge 74, Type (0, 1), BuildingBlock: OJICUG_clean_linker_0, # of connection points: 2
#     Edge 75, Type (0, 1), BuildingBlock: OJICUG_clean_linker_0, # of connection points: 2
#     Edge 76, Type (0, 1), BuildingBlock: OJICUG_clean_linker_0, # of connection points: 2
#     Edge 77, Type (0, 1), BuildingBlock: OJICUG_clean_linker_0, # of connection points: 2
#     Edge 78, Type (0, 1), BuildingBlock: OJICUG_clean_linker_0, # of connection points: 2
#     Edge 79, Type (0, 1), BuildingBlock: OJICUG_clean_linker_0, # of connection points: 2
#     Edge 80, Type (0, 1), BuildingBlock: OJICUG_clean_linker_0, # of connection points: 2
#     Edge 81, Type (0, 1), BuildingBlock: OJICUG_clean_linker_0, # of connection points: 2
#     Edge 82, Type (0, 1), BuildingBlock: OJICUG_clean_linker_0, # of connection points: 2
#     Edge 83, Type (0, 1), BuildingBlock: OJICUG_clean_linker_0, # of connection points: 2
#     Edge 84, Type (0, 1), BuildingBlock: OJICUG_clean_linker_0, # of connection points: 2
#     Edge 85, Type (0, 1), BuildingBlock: OJICUG_clean_linker_0, # of connection points: 2
#     Edge 86, Type (0, 1), BuildingBlock: OJICUG_clean_linker_0, # of connection points: 2
#     Edge 87, Type (0, 1), BuildingBlock: OJICUG_clean_linker_0, # of connection points: 2
#     Edge 88, Type (0, 1), BuildingBlock: OJICUG_clean_linker_0, # of connection points: 2
#     Edge 89, Type (0, 1), BuildingBlock: OJICUG_clean_linker_0, # of connection points: 2
#     Edge 90, Type (0, 1), BuildingBlock: OJICUG_clean_linker_0, # of connection points: 2
#     Edge 91, Type (0, 1), BuildingBlock: OJICUG_clean_linker_0, # of connection points: 2
#     Edge 92, Type (0, 1), BuildingBlock: OJICUG_clean_linker_0, # of connection points: 2
#     Edge 93, Type (0, 1), BuildingBlock: OJICUG_clean_linker_0, # of connection points: 2
#     Edge 94, Type (0, 1), BuildingBlock: OJICUG_clean_linker_0, # of connection points: 2
#     Edge 95, Type (0, 1), BuildingBlock: OJICUG_clean_linker_0, # of connection points: 2
#     Edge 96, Type (0, 1), BuildingBlock: OJICUG_clean_linker_0, # of connection points: 2
#     Edge 97, Type (0, 1), BuildingBlock: OJICUG_clean_linker_0, # of connection points: 2
#     Edge 98, Type (0, 1), BuildingBlock: OJICUG_clean_linker_0, # of connection points: 2
#     Edge 99, Type (0, 1), BuildingBlock: OJICUG_clean_linker_0, # of connection points: 2
#     Edge 100, Type (0, 1), BuildingBlock: OJICUG_clean_linker_0, # of connection points: 2
#     Edge 101, Type (0, 1), BuildingBlock: OJICUG_clean_linker_0, # of connection points: 2
#     Edge 102, Type (0, 1), BuildingBlock: OJICUG_clean_linker_0, # of connection points: 2
#     Edge 103, Type (0, 1), BuildingBlock: OJICUG_clean_linker_0, # of connection points: 2
#     Edge 104, Type (0, 1), BuildingBlock: OJICUG_clean_linker_0, # of connection points: 2
#     Edge 105, Type (0, 1), BuildingBlock: OJICUG_clean_linker_0, # of connection points: 2
#     Edge 106, Type (0, 1), BuildingBlock: OJICUG_clean_linker_0, # of connection points: 2
#     Edge 107, Type (0, 1), BuildingBlock: OJICUG_clean_linker_0, # of connection points: 2
# Relax obj value: 0.031
# Max RMSD: 0.168
# Mean RMSD: 0.058
data_MOF--net-ptr--node1-CEKHIL_clean_sbu_0--node2-NAHDIM_clean_linker_0--edge1-OJICUG_clean_linker_0
_symmetry_space_group_name_H-M    P1
_symmetry_Int_Tables_number       1
_symmetry_cell_setting            triclinic
loop_
_symmetry_equiv_pos_as_xyz
'x, y, z'
_cell_length_a     76.664197
_cell_length_b     75.245423
_cell_length_c     64.996166
_cell_angle_alpha  92.08835
_cell_angle_beta   89.885994
_cell_angle_gamma 121.20895
loop_
_atom_site_label
_atom_site_type_symbol
_atom_site_fract_x
_atom_site_fract_y
_atom_site_fract_z
_atom_type_partial_charge
Co0 Co 0.00827 0.33904 0.01211 0.0
O1 O 0.01781 0.32906 0.03356 0.0
O2 O 0.03772 0.3553 0.01382 0.0
C3 C 0.9857 0.30756 0.99792 0.0
O4 O 0.00407 0.35329 0.98826 0.0
Co5 Co 0.96358 0.32833 0.0107 0.0
O6 O 0.97074 0.34162 0.98368 0.0
C7 C 0.99195 0.35855 0.04211 0.0
C8 C 0.03603 0.34354 0.02879 0.0
C9 C 0.98923 0.35252 0.97818 0.0
O10 O 0.00674 0.35875 0.0326 0.0
O11 O 0.9732 0.34605 0.03699 0.0
O12 O 0.00487 0.31675 0.99326 0.0
O13 O 0.98112 0.31685 0.01214 0.0
Co14 Co 0.66267 0.6612 0.01018 0.0
O15 O 0.68092 0.67931 0.99013 0.0
O16 O 0.67834 0.64983 0.99869 0.0
C17 C 0.67105 0.68721 0.03369 0.0
O18 O 0.6464 0.63911 0.03088 0.0
Co19 Co 0.62695 0.66522 0.02555 0.0
O20 O 0.62566 0.64717 0.04768 0.0
C21 C 0.6248 0.64711 0.98402 0.0
C22 C 0.6875 0.66659 0.98817 0.0
C23 C 0.63406 0.63641 0.04553 0.0
O24 O 0.64074 0.64633 0.98838 0.0
O25 O 0.61778 0.65562 0.99615 0.0
O26 O 0.68185 0.6785 0.032 0.0
O27 O 0.65603 0.68055 0.02061 0.0
Co28 Co 0.33467 0.00815 0.00437 0.0
O29 O 0.31996 0.01458 0.98512 0.0
O30 O 0.34918 0.03782 0.00052 0.0
C31 C 0.30719 0.98737 0.0231 0.0
O32 O 0.35362 0.00755 0.02586 0.0
Co33 Co 0.32539 0.96345 0.00782 0.0
O34 O 0.34224 0.97447 0.03346 0.0
C35 C 0.34979 0.98808 0.97325 0.0
C36 C 0.33405 0.03395 0.98834 0.0
C37 C 0.35416 0.99396 0.03686 0.0
O38 O 0.34998 0.00404 0.98133 0.0
O39 O 0.33957 0.96997 0.98062 0.0
O40 O 0.31713 0.00741 0.02621 0.0
O41 O 0.31317 0.98049 0.00776 0.0
Co42 Co 0.0008 0.67092 0.01919 0.0
O43 O 0.9972 0.68644 0.99861 0.0
O44 O 0.97214 0.65804 0.0121 0.0
C45 C 0.02191 0.69989 0.03852 0.0
O46 O 0.9982 0.65125 0.04131 0.0
Co47 Co 0.04193 0.6762 0.02913 0.0
O48 O 0.02895 0.65979 0.05364 0.0
C49 C 0.01985 0.65282 0.99114 0.0
C50 C 0.97778 0.67331 -0.00018 0.0
C51 C 0.00958 0.64915 0.05429 0.0
O52 O 0.00435 0.65372 0.99716 0.0
O53 O 0.03693 0.66204 0.00103 0.0
O54 O 0.00226 0.6904 0.04033 0.0
O55 O 0.02838 0.69168 0.02494 0.0
Co56 Co 0.34043 0.34465 0.99773 0.0
O57 O 0.32262 0.32746 0.01877 0.0
O58 O 0.32621 0.35728 0.00987 0.0
C59 C 0.32941 0.317 0.97541 0.0
O60 O 0.35577 0.36623 0.97624 0.0
Co61 Co 0.37406 0.34009 0.97892 0.0
O62 O 0.37481 0.35789 0.95687 0.0
C63 C 0.37928 0.35779 0.02132 0.0
C64 C 0.31681 0.34083 0.02078 0.0
C65 C 0.36686 0.36887 0.96046 0.0
O66 O 0.36348 0.35925 0.01851 0.0
O67 O 0.3852 0.34927 0.00787 0.0
O68 O 0.31998 0.32716 0.97702 0.0
O69 O 0.34563 0.32414 0.98698 0.0
Co70 Co 0.66839 0.00549 0.00473 0.0
O71 O 0.68306 0.0005 0.02534 0.0
O72 O 0.65394 0.97622 0.01054 0.0
C73 C 0.69635 0.02529 0.98612 0.0
O74 O 0.64935 0.00446 0.98223 0.0
Co75 Co 0.67698 0.0492 0.99759 0.0
O76 O 0.66026 0.03669 0.97208 0.0
C77 C 0.65324 0.02722 0.03354 0.0
C78 C 0.6689 0.98104 0.02338 0.0
C79 C 0.6485 0.01705 0.96997 0.0
O80 O 0.65303 0.01087 0.02671 0.0
O81 O 0.66315 0.0447 0.02489 0.0
O82 O 0.68622 0.00516 0.98378 0.0
O83 O 0.68986 0.03291 0.0003 0.0
Co84 Co 0.66631 0.66902 0.33877 0.0
O85 O 0.66387 0.64809 0.35665 0.0
O86 O 0.69115 0.67977 0.35504 0.0
C87 C 0.65371 0.64776 0.31045 0.0
O88 O 0.67475 0.69448 0.32185 0.0
Co89 Co 0.62784 0.66525 0.31866 0.0
O90 O 0.64741 0.69146 0.30552 0.0
C91 C 0.63697 0.67748 0.36264 0.0
C92 C 0.68226 0.66159 0.36304 0.0
C93 C 0.66642 0.70129 0.30981 0.0
O94 O 0.65457 0.67942 0.36056 0.0
O95 O 0.62334 0.67009 0.34825 0.0
O96 O 0.67275 0.65604 0.31583 0.0
O97 O 0.64263 0.65119 0.32302 0.0
Co98 Co 0.32724 0.99264 0.35529 0.0
O99 O 0.34824 0.01144 0.33736 0.0
O100 O 0.33987 0.97893 0.34181 0.0
C101 C 0.33694 0.0157 0.38219 0.0
O102 O 0.30738 0.96877 0.37281 0.0
Co103 Co 0.29429 0.00087 0.37255 0.0
O104 O 0.28454 0.97511 0.38771 0.0
C105 C 0.29213 0.98729 0.32898 0.0
C106 C 0.35166 0.9965 0.33321 0.0
C107 C 0.29212 0.96372 0.38454 0.0
O108 O 0.30622 0.98321 0.33235 0.0
O109 O 0.28672 0.99622 0.34248 0.0
O110 O 0.34608 0.00543 0.37882 0.0
O111 O 0.32327 0.01276 0.36872 0.0
Co112 Co 0.01305 0.33678 0.33934 0.0
O113 O 0.00108 0.33774 0.31374 0.0
O114 O 0.02866 0.36431 0.32865 0.0
C115 C 0.98313 0.32065 0.35606 0.0
O116 O 0.02944 0.34249 0.36589 0.0
Co117 Co 0.00162 0.29569 0.35971 0.0
O118 O 0.0174 0.3137 0.38393 0.0
C119 C 0.03009 0.31012 0.3248 0.0
C120 C 0.01496 0.35738 0.31392 0.0
C121 C 0.02936 0.33318 0.38213 0.0
O122 O 0.03034 0.32737 0.32466 0.0
O123 O 0.01861 0.29522 0.33641 0.0
O124 O 0.99313 0.34067 0.35432 0.0
O125 O 0.99086 0.31089 0.34682 0.0
Co126 Co 0.66667 0.99144 0.35393 0.0
O127 O 0.66302 0.00495 0.33098 0.0
O128 O 0.63921 0.97507 0.34331 0.0
C129 C 0.68308 0.0212 0.37358 0.0
O130 O 0.66278 0.97271 0.3774 0.0
Co131 Co 0.70683 0.00106 0.37344 0.0
O132 O 0.69103 0.98309 0.39619 0.0
C133 C 0.69402 0.97949 0.33237 0.0
C134 C 0.64414 0.98966 0.33045 0.0
C135 C 0.67195 0.97112 0.39308 0.0
O136 O 0.67607 0.97659 0.3348 0.0
O137 O 0.70869 0.99012 0.34537 0.0
O138 O 0.66327 0.01006 0.37276 0.0
O139 O 0.6924 0.01395 0.3628 0.0
Co140 Co 0.01024 0.68551 0.33512 0.0
O141 O 0.9908 0.66407 0.35263 0.0
O142 O 0.99072 0.69243 0.34485 0.0
C143 C 0.00951 0.66387 0.30994 0.0
O144 O 0.02595 0.71032 0.31695 0.0
Co145 Co 0.05175 0.69116 0.32231 0.0
O146 O 0.05033 0.70792 0.30026 0.0
C147 C 0.04598 0.70213 0.36497 0.0
C148 C 0.98201 0.67493 0.35409 0.0
C149 C 0.03912 0.71571 0.30259 0.0
O150 O 0.02902 0.70055 0.35964 0.0
O151 O 0.05633 0.69762 0.35267 0.0
O152 O 0.99516 0.66818 0.31077 0.0
O153 O 0.02279 0.67145 0.32483 0.0
Co154 Co 0.32663 0.33635 0.33899 0.0
O155 O 0.34254 0.33389 0.36042 0.0
O156 O 0.31275 0.30825 0.34822 0.0
C157 C 0.35375 0.35381 0.3185 0.0
O158 O 0.3061 0.33173 0.31643 0.0
Co159 Co 0.33364 0.37754 0.32406 0.0
O160 O 0.31539 0.36111 0.30043 0.0
C161 C 0.31427 0.36252 0.36418 0.0
C162 C 0.32849 0.31431 0.36031 0.0
C163 C 0.30394 0.34153 0.30181 0.0
O164 O 0.31269 0.34487 0.36002 0.0
O165 O 0.32342 0.37797 0.35247 0.0
O166 O 0.34366 0.33362 0.31847 0.0
O167 O 0.3474 0.36289 0.33108 0.0
Co168 Co 0.34094 0.01454 0.67838 0.0
O169 O 0.3412 0.99779 0.69983 0.0
O170 O 0.36737 0.0287 0.69223 0.0
C171 C 0.32562 0.98772 0.65488 0.0
O172 O 0.34677 0.03613 0.65708 0.0
Co173 Co 0.30046 0.00636 0.65901 0.0
O174 O 0.31788 0.0298 0.64132 0.0
C175 C 0.31252 0.02444 0.70125 0.0
C176 C 0.35989 0.01257 0.70361 0.0
C177 C 0.33715 0.04049 0.64396 0.0
O178 O 0.33064 0.02796 0.69835 0.0
O179 O 0.29783 0.01412 0.68822 0.0
O180 O 0.34529 0.99758 0.65784 0.0
O181 O 0.31602 0.99386 0.66663 0.0
Co182 Co 0.99302 0.32818 0.6761 0.0
O183 O 0.01438 0.35066 0.66134 0.0
O184 O 0.01152 0.32014 0.66523 0.0
C185 C 0.99463 0.34766 0.70387 0.0
O186 O 0.97401 0.30175 0.69093 0.0
Co187 Co 0.95304 0.32712 0.68681 0.0
O188 O 0.9466 0.30235 0.70242 0.0
C189 C 0.95953 0.31727 0.64426 0.0
C190 C 0.02184 0.33877 0.65825 0.0
C191 C 0.95727 0.29389 0.70087 0.0
O192 O 0.9754 0.31705 0.6503 0.0
O193 O 0.94966 0.32284 0.65608 0.0
O194 O 0.00741 0.34131 0.70205 0.0
O195 O 0.98256 0.34368 0.68828 0.0
Co196 Co 0.67327 0.66697 0.66968 0.0
O197 O 0.65856 0.66635 0.64548 0.0
O198 O 0.68689 0.69403 0.65778 0.0
C199 C 0.64518 0.65104 0.68932 0.0
O200 O 0.6922 0.67421 0.69452 0.0
Co201 Co 0.66502 0.62706 0.69026 0.0
O202 O 0.68249 0.64617 0.71317 0.0
C203 C 0.68983 0.64063 0.65266 0.0
C204 C 0.67173 0.68611 0.64457 0.0
C205 C 0.69379 0.66561 0.71058 0.0
O206 O 0.68977 0.65772 0.65307 0.0
O207 O 0.67958 0.62597 0.66497 0.0
O208 O 0.65453 0.6709 0.68676 0.0
O209 O 0.65231 0.64119 0.67912 0.0
Co210 Co 0.33433 0.33002 0.68352 0.0
O211 O 0.33419 0.34686 0.662 0.0
O212 O 0.30712 0.31796 0.67217 0.0
C213 C 0.35278 0.35806 0.70507 0.0
O214 O 0.32734 0.30899 0.70561 0.0
Co215 Co 0.37215 0.33326 0.70188 0.0
O216 O 0.35478 0.31641 0.72452 0.0
C217 C 0.35757 0.31359 0.66039 0.0
C218 C 0.31461 0.33404 0.66074 0.0
C219 C 0.3356 0.30612 0.7213 0.0
O220 O 0.34107 0.31382 0.66311 0.0
O221 O 0.37245 0.32187 0.67346 0.0
O222 O 0.33305 0.34876 0.70381 0.0
O223 O 0.36093 0.34999 0.69349 0.0
Co224 Co 0.67639 0.01301 0.66029 0.0
O225 O 0.65819 0.99958 0.68276 0.0
O226 O 0.66523 0.02943 0.66997 0.0
C227 C 0.6634 0.98339 0.64054 0.0
O228 O 0.69251 0.03157 0.637 0.0
Co229 Co 0.70757 0.00308 0.64311 0.0
O230 O 0.7106 0.02056 0.6197 0.0
C231 C 0.71494 0.02493 0.68382 0.0
C232 C 0.65495 0.01492 0.68284 0.0
C233 C 0.70372 0.03267 0.62182 0.0
O234 O 0.70017 0.02793 0.68025 0.0
O235 O 0.71931 0.01414 0.67156 0.0
O236 O 0.65475 0.99438 0.64082 0.0
O237 O 0.67951 0.99052 0.65219 0.0
Co238 Co 0.98633 0.66951 0.66938 0.0
O239 O 0.99922 0.66415 0.69189 0.0
O240 O 0.96935 0.64125 0.67741 0.0
C241 C 0.01516 0.68573 0.65095 0.0
O242 O 0.96817 0.66759 0.64556 0.0
Co243 Co 0.99813 0.71236 0.65451 0.0
O244 O 0.98028 0.69774 0.63009 0.0
C245 C 0.97649 0.69795 0.69378 0.0
C246 C 0.98363 0.64523 0.69075 0.0
C247 C 0.96761 0.67831 0.63093 0.0
O248 O 0.97285 0.67948 0.68945 0.0
O249 O 0.9875 0.71339 0.68252 0.0
O250 O 0.00366 0.66556 0.65012 0.0
O251 O 0.00907 0.69544 0.66297 0.0
C252 C 0.22314 0.29925 0.03108 0.0
C253 C 0.23588 0.31267 0.04977 0.0
C254 C 0.21636 0.30004 0.08067 0.0
C255 C 0.21913 0.31832 0.09024 0.0
C256 C 0.20416 0.31779 0.10303 0.0
C257 C 0.18607 0.29854 0.10623 0.0
C258 C 0.18373 0.27994 0.09742 0.0
C259 C 0.1991 0.28092 0.08486 0.0
C260 C 0.20742 0.33786 0.11269 0.0
C261 C 0.16476 0.25916 0.1008 0.0
C262 C 0.0775 0.33448 0.04365 0.0
C263 C 0.09548 0.33488 0.05278 0.0
C264 C 0.10251 0.3139 0.07549 0.0
C265 C 0.09516 0.29402 0.08269 0.0
C266 C 0.107 0.29001 0.09601 0.0
C267 C 0.1265 0.30649 0.10267 0.0
C268 C 0.1339 0.32676 0.0957 0.0
C269 C 0.12195 0.33021 0.082 0.0
C270 C 0.09884 0.2681 0.10266 0.0
C271 C 0.15465 0.34475 0.10234 0.0
C272 C 0.08746 0.30138 0.2376 0.0
C273 C 0.08495 0.28219 0.23109 0.0
C274 C 0.09986 0.28127 0.21935 0.0
C275 C 0.11769 0.29994 0.21411 0.0
C276 C 0.11996 0.31932 0.2201 0.0
C277 C 0.10462 0.31978 0.23156 0.0
C278 C 0.09665 0.26033 0.21272 0.0
C279 C 0.13875 0.33951 0.21471 0.0
C280 C 0.24529 0.27529 0.23076 0.0
C281 C 0.24209 0.29288 0.23835 0.0
C282 C 0.20802 0.28773 0.237 0.0
C283 C 0.18805 0.27095 0.23435 0.0
C284 C 0.17317 0.27321 0.22427 0.0
C285 C 0.17837 0.29292 0.21721 0.0
C286 C 0.19821 0.31028 0.22121 0.0
C287 C 0.21288 0.30748 0.23097 0.0
C288 C 0.15209 0.25442 0.22058 0.0
C289 C 0.20409 0.33169 0.21465 0.0
C290 C 0.16909 0.29819 0.11753 0.0
C291 C 0.15515 0.30073 0.10619 0.0
C292 C 0.13975 0.30242 0.11584 0.0
C293 C 0.13801 0.30134 0.13749 0.0
C294 C 0.12287 0.30324 0.14779 0.0
C295 C 0.12139 0.30227 0.16913 0.0
C296 C 0.13523 0.29975 0.18101 0.0
C297 C 0.13406 0.29906 0.20272 0.0
C298 C 0.1483 0.29689 0.21409 0.0
C299 C 0.1636 0.29508 0.20433 0.0
C300 C 0.16478 0.29535 0.1826 0.0
C301 C 0.17974 0.29316 0.17223 0.0
C302 C 0.18114 0.294 0.15092 0.0
C303 C 0.16749 0.29683 0.13913 0.0
C304 C 0.15196 0.29855 0.14917 0.0
C305 C 0.15064 0.29787 0.17094 0.0
C306 C 0.05337 0.29606 0.28058 0.0
C307 C 0.06644 0.29107 0.26762 0.0
O308 O 0.22996 0.30063 0.06697 0.0
O309 O 0.22229 0.28438 0.24522 0.0
O310 O 0.07381 0.30252 0.25009 0.0
O311 O 0.0904 0.31667 0.06238 0.0
H312 H 0.23304 0.32572 0.05182 0.0
H313 H 0.20672 0.29324 0.03377 0.0
H314 H 0.22522 0.2858 0.02834 0.0
H315 H 0.22762 0.30861 0.01709 0.0
H316 H 0.23291 0.33301 0.08746 0.0
H317 H 0.19731 0.26687 0.07757 0.0
H318 H 0.19583 0.34097 0.10648 0.0
H319 H 0.22282 0.35133 0.10967 0.0
H320 H 0.20539 0.33649 0.12959 0.0
H321 H 0.16574 0.24603 0.09378 0.0
H322 H 0.15134 0.25889 0.09401 0.0
H323 H 0.16216 0.25686 0.11756 0.0
H324 H 0.10887 0.3403 0.04257 0.0
H325 H 0.08015 0.33534 0.02657 0.0
H326 H 0.07575 0.35763 0.06097 0.0
H327 H 0.06468 0.31771 0.04273 0.0
H328 H 0.08017 0.28153 0.07756 0.0
H329 H 0.12794 0.34566 0.07643 0.0
H330 H 0.10996 0.26322 0.09904 0.0
H331 H 0.08398 0.25679 0.09504 0.0
H332 H 0.0968 0.26752 0.11958 0.0
H333 H 0.15651 0.35999 0.09887 0.0
H334 H 0.16652 0.34329 0.094 0.0
H335 H 0.15732 0.34458 0.1191 0.0
H336 H 0.06021 0.27411 0.26481 0.0
H337 H 0.07133 0.26789 0.23507 0.0
H338 H 0.10631 0.33451 0.2365 0.0
H339 H 0.09855 0.25959 0.19582 0.0
H340 H 0.08131 0.2473 0.21671 0.0
H341 H 0.10835 0.25818 0.22031 0.0
H342 H 0.1385 0.35329 0.22106 0.0
H343 H 0.14001 0.34044 0.19772 0.0
H344 H 0.15258 0.34007 0.22074 0.0
H345 H 0.24466 0.30254 0.22478 0.0
H346 H 0.26117 0.28172 0.22547 0.0
H347 H 0.2347 0.26651 0.21758 0.0
H348 H 0.24223 0.26428 0.24313 0.0
H349 H 0.18438 0.25586 0.23944 0.0
H350 H 0.22816 0.32066 0.23379 0.0
H351 H 0.14811 0.25219 0.20388 0.0
H352 H 0.14077 0.25696 0.22869 0.0
H353 H 0.15079 0.23998 0.22609 0.0
H354 H 0.2189 0.34397 0.22167 0.0
H355 H 0.19212 0.33518 0.21898 0.0
H356 H 0.20541 0.33225 0.19765 0.0
H357 H 0.15663 0.30195 0.0896 0.0
H358 H 0.11197 0.30545 0.13946 0.0
H359 H 0.10937 0.30372 0.17621 0.0
H360 H 0.14738 0.29649 0.23074 0.0
H361 H 0.19064 0.29088 0.18047 0.0
H362 H 0.19306 0.2924 0.1438 0.0
H363 H 0.0379 0.28138 0.2801 0.0
H364 H 0.0486 0.30485 0.27065 0.0
H365 H 0.07057 0.30889 0.30792 0.0
C366 C 0.68588 0.90915 0.04574 0.0
C367 C 0.67841 0.91833 0.06255 0.0
C368 C 0.6955 0.91536 0.0926 0.0
C369 C 0.67915 0.8986 0.10216 0.0
C370 C 0.6825 0.88619 0.11521 0.0
C371 C 0.70262 0.89062 0.11866 0.0
C372 C 0.71923 0.90819 0.10991 0.0
C373 C 0.71544 0.92053 0.09715 0.0
C374 C 0.66447 0.86794 0.12483 0.0
C375 C 0.74085 0.91344 0.11347 0.0
C376 C 0.72287 0.78367 0.05149 0.0
C377 C 0.70954 0.77073 0.06913 0.0
C378 C 0.6987 0.79269 0.08709 0.0
C379 C 0.71794 0.80776 0.09536 0.0
C380 C 0.72023 0.82436 0.10802 0.0
C381 C 0.70286 0.82554 0.11292 0.0
C382 C 0.68347 0.81029 0.10473 0.0
C383 C 0.68173 0.79419 0.09174 0.0
C384 C 0.74121 0.84067 0.1161 0.0
C385 C 0.66459 0.81105 0.10954 0.0
C386 C 0.69613 0.78495 0.24081 0.0
C387 C 0.71629 0.80184 0.24 0.0
C388 C 0.72054 0.82059 0.23153 0.0
C389 C 0.70429 0.8225 0.22403 0.0
C390 C 0.68395 0.80568 0.22542 0.0
C391 C 0.68021 0.78705 0.23355 0.0
C392 C 0.74238 0.83817 0.23011 0.0
C393 C 0.66616 0.80724 0.21799 0.0
C394 C 0.72775 0.98032 0.24344 0.0
C395 C 0.71601 0.95923 0.25339 0.0
C396 C 0.72431 0.93204 0.24764 0.0
C397 C 0.74062 0.92963 0.24224 0.0
C398 C 0.73726 0.91094 0.23307 0.0
C399 C 0.71704 0.89425 0.22941 0.0
C400 C 0.70047 0.89604 0.2363 0.0
C401 C 0.70428 0.91492 0.24549 0.0
C402 C 0.75528 0.90935 0.22638 0.0
C403 C 0.67875 0.87829 0.23311 0.0
C404 C 0.70586 0.87549 0.12944 0.0
C405 C 0.70475 0.85914 0.11749 0.0
C406 C 0.70493 0.84272 0.12658 0.0
C407 C 0.70615 0.84242 0.14823 0.0
C408 C 0.70522 0.82554 0.15791 0.0
C409 C 0.70611 0.82526 0.17925 0.0
C410 C 0.70805 0.84188 0.19174 0.0
C411 C 0.70842 0.84146 0.21347 0.0
C412 C 0.71135 0.85868 0.22543 0.0
C413 C 0.71326 0.87609 0.21618 0.0
C414 C 0.71172 0.87626 0.19451 0.0
C415 C 0.71234 0.89301 0.18478 0.0
C416 C 0.71033 0.89278 0.16348 0.0
C417 C 0.70817 0.87607 0.15106 0.0
C418 C 0.70806 0.8593 0.1605 0.0
C419 C 0.70938 0.85919 0.18226 0.0
C420 C 0.69182 0.74248 0.27121 0.0
C421 C 0.7037 0.76217 0.26012 0.0
O422 O 0.69249 0.92666 0.0788 0.0
O423 O 0.72859 0.95112 0.25467 0.0
O424 O 0.69131 0.76634 0.24826 0.0
O425 O 0.69569 0.77661 0.07438 0.0
H426 H 0.6634 0.90576 0.06791 0.0
H427 H 0.68733 0.89639 0.05193 0.0
H428 H 0.70101 0.92129 0.04017 0.0
H429 H 0.67485 0.9026 0.03254 0.0
H430 H 0.66375 0.89512 0.09942 0.0
H431 H 0.72798 0.93375 0.08993 0.0
H432 H 0.66289 0.85325 0.11859 0.0
H433 H 0.64998 0.86746 0.12181 0.0
H434 H 0.66699 0.86867 0.14173 0.0
H435 H 0.75218 0.92848 0.10688 0.0
H436 H 0.74278 0.90096 0.1063 0.0
H437 H 0.74407 0.9142 0.13023 0.0
H438 H 0.71935 0.77288 0.08273 0.0
H439 H 0.73164 0.80045 0.05614 0.0
H440 H 0.7133 0.78159 0.03774 0.0
H441 H 0.73393 0.77887 0.04724 0.0
H442 H 0.73127 0.80687 0.09188 0.0
H443 H 0.66699 0.78252 0.08519 0.0
H444 H 0.74425 0.85646 0.11312 0.0
H445 H 0.75341 0.83883 0.10899 0.0
H446 H 0.74199 0.83957 0.13302 0.0
H447 H 0.6504 0.79642 0.10459 0.0
H448 H 0.66519 0.82405 0.10138 0.0
H449 H 0.6639 0.81399 0.1263 0.0
H450 H 0.7173 0.76415 0.25183 0.0
H451 H 0.72874 0.80032 0.24556 0.0
H452 H 0.66471 0.77395 0.23434 0.0
H453 H 0.74599 0.84238 0.2138 0.0
H454 H 0.75334 0.83411 0.23623 0.0
H455 H 0.74448 0.85211 0.23888 0.0
H456 H 0.65129 0.79393 0.22272 0.0
H457 H 0.66619 0.80751 0.20093 0.0
H458 H 0.66757 0.82192 0.22408 0.0
H459 H 0.70249 0.94921 0.24319 0.0
H460 H 0.71801 0.98718 0.24216 0.0
H461 H 0.73235 0.97831 0.22771 0.0
H462 H 0.74173 0.99125 0.25263 0.0
H463 H 0.75604 0.94279 0.24446 0.0
H464 H 0.69159 0.91629 0.25069 0.0
H465 H 0.75548 0.90839 0.20931 0.0
H466 H 0.75386 0.89493 0.23208 0.0
H467 H 0.77001 0.92292 0.23209 0.0
H468 H 0.66766 0.88153 0.24076 0.0
H469 H 0.677 0.86386 0.23919 0.0
H470 H 0.67501 0.87539 0.21637 0.0
H471 H 0.70311 0.85886 0.10088 0.0
H472 H 0.70361 0.81226 0.14911 0.0
H473 H 0.70528 0.81183 0.18582 0.0
H474 H 0.71188 0.85842 0.24208 0.0
H475 H 0.71408 0.90637 0.19352 0.0
H476 H 0.71064 0.90592 0.15682 0.0
H477 H 0.69592 0.75239 0.30234 0.0
H478 H 0.69716 0.73205 0.26471 0.0
H479 H 0.67632 0.73336 0.26343 0.0
C480 C 0.2127 0.92934 0.04117 0.0
C481 C 0.22795 0.93726 0.0594 0.0
C482 C 0.21044 0.90968 0.08415 0.0
C483 C 0.19591 0.91491 0.09007 0.0
C484 C 0.18028 0.90262 0.10354 0.0
C485 C 0.17893 0.88459 0.11112 0.0
C486 C 0.19367 0.87944 0.10555 0.0
C487 C 0.20933 0.89217 0.09224 0.0
C488 C 0.16483 0.90861 0.10924 0.0
C489 C 0.19253 0.8602 0.11324 0.0
C490 C 0.0539 0.79331 0.02911 0.0
C491 C 0.06404 0.789 0.0469 0.0
C492 C 0.07563 0.80693 0.08044 0.0
C493 C 0.08928 0.8004 0.08507 0.0
C494 C 0.1048 0.8113 0.09998 0.0
C495 C 0.10686 0.82923 0.1102 0.0
C496 C 0.09256 0.83529 0.10619 0.0
C497 C 0.07685 0.82375 0.09158 0.0
C498 C 0.11945 0.80409 0.10426 0.0
C499 C 0.09445 0.85451 0.11655 0.0
C500 C 0.06998 0.80504 0.24037 0.0
C501 C 0.08341 0.79848 0.23426 0.0
C502 C 0.1021 0.81227 0.22532 0.0
C503 C 0.10732 0.83296 0.22215 0.0
C504 C 0.09426 0.83987 0.2292 0.0
C505 C 0.07583 0.82583 0.23848 0.0
C506 C 0.11602 0.80458 0.21873 0.0
C507 C 0.09944 0.86188 0.22629 0.0
C508 C 0.25555 0.96662 0.23404 0.0
C509 C 0.24322 0.95718 0.25338 0.0
C510 C 0.21602 0.92154 0.24271 0.0
C511 C 0.21048 0.90067 0.2423 0.0
C512 C 0.19247 0.88518 0.23229 0.0
C513 C 0.17947 0.89071 0.22279 0.0
C514 C 0.18454 0.91168 0.2238 0.0
C515 C 0.20294 0.92694 0.23336 0.0
C516 C 0.18757 0.86298 0.23146 0.0
C517 C 0.17072 0.91808 0.21437 0.0
C518 C 0.16113 0.87032 0.12345 0.0
C519 C 0.14316 0.85624 0.11272 0.0
C520 C 0.12532 0.84299 0.12304 0.0
C521 C 0.12531 0.84355 0.14479 0.0
C522 C 0.10767 0.8303 0.15567 0.0
C523 C 0.10772 0.83138 0.17709 0.0
C524 C 0.1255 0.8456 0.18845 0.0
C525 C 0.12569 0.84687 0.21025 0.0
C526 C 0.14349 0.86152 0.22102 0.0
C527 C 0.1613 0.87488 0.21059 0.0
C528 C 0.16153 0.8735 0.18884 0.0
C529 C 0.17932 0.88639 0.17789 0.0
C530 C 0.17925 0.88538 0.15648 0.0
C531 C 0.16146 0.87127 0.1452 0.0
C532 C 0.14345 0.85786 0.15591 0.0
C533 C 0.14351 0.85894 0.17775 0.0
C534 C 0.01716 0.76524 0.2389 0.0
C535 C 0.03921 0.77077 0.24218 0.0
O536 O 0.22545 0.92076 0.07054 0.0
O537 O 0.23406 0.93572 0.25215 0.0
O538 O 0.05124 0.79171 0.24784 0.0
O539 O 0.06153 0.79772 0.06496 0.0
H540 H 0.22524 0.94783 0.06944 0.0
H541 H 0.21417 0.91786 0.03125 0.0
H542 H 0.19683 0.92165 0.04676 0.0
H543 H 0.21534 0.94252 0.03176 0.0
H544 H 0.19634 0.92834 0.08411 0.0
H545 H 0.22058 0.88824 0.08769 0.0
H546 H 0.14981 0.89708 0.10209 0.0
H547 H 0.16927 0.92427 0.104 0.0
H548 H 0.16293 0.90841 0.12619 0.0
H549 H 0.20517 0.85833 0.10749 0.0
H550 H 0.17778 0.84622 0.10825 0.0
H551 H 0.19308 0.86091 0.13033 0.0
H552 H 0.08058 0.79667 0.04335 0.0
H553 H 0.05592 0.78669 0.01437 0.0
H554 H 0.06103 0.81036 0.02773 0.0
H555 H 0.03733 0.78643 0.03178 0.0
H556 H 0.08802 0.78699 0.07687 0.0
H557 H 0.06606 0.82846 0.08801 0.0
H558 H 0.12203 0.80437 0.12111 0.0
H559 H 0.13437 0.81486 0.09732 0.0
H560 H 0.11383 0.78814 0.09774 0.0
H561 H 0.08264 0.85764 0.11095 0.0
H562 H 0.10974 0.86825 0.11375 0.0
H563 H 0.09295 0.85268 0.13344 0.0
H564 H 0.04401 0.76753 0.22699 0.0
H565 H 0.07931 0.78258 0.23636 0.0
H566 H 0.0655 0.83081 0.24355 0.0
H567 H 0.11601 0.8033 0.20166 0.0
H568 H 0.11118 0.78911 0.22481 0.0
H569 H 0.13193 0.81583 0.22406 0.0
H570 H 0.08741 0.86467 0.23218 0.0
H571 H 0.10156 0.86529 0.20969 0.0
H572 H 0.11404 0.87293 0.23446 0.0
H573 H 0.23148 0.96158 0.25478 0.0
H574 H 0.2632 0.98384 0.23516 0.0
H575 H 0.24527 0.96085 0.22025 0.0
H576 H 0.26728 0.96227 0.23197 0.0
H577 H 0.2206 0.89661 0.24956 0.0
H578 H 0.20687 0.94295 0.23324 0.0
H579 H 0.18538 0.85704 0.2152 0.0
H580 H 0.17307 0.85304 0.23949 0.0
H581 H 0.19977 0.8614 0.23876 0.0
H582 H 0.1749 0.93405 0.21961 0.0
H583 H 0.15459 0.90709 0.21832 0.0
H584 H 0.17181 0.91765 0.19736 0.0
H585 H 0.14297 0.85584 0.096 0.0
H586 H 0.09359 0.81905 0.14772 0.0
H587 H 0.09361 0.82095 0.1846 0.0
H588 H 0.14345 0.86262 0.23771 0.0
H589 H 0.19351 0.89751 0.18574 0.0
H590 H 0.19332 0.89581 0.14888 0.0
H591 H 0.00717 0.7484 0.23476 0.0
H592 H 0.01638 0.77421 0.22609 0.0
H593 H 0.01129 0.76908 0.25295 0.0
C594 C 0.32591 0.11561 0.98367 0.0
C595 C 0.31825 0.0985 0.96657 0.0
C596 C 0.3186 0.11559 0.93522 0.0
C597 C 0.29754 0.10652 0.93154 0.0
C598 C 0.29014 0.11605 0.91897 0.0
C599 C 0.30407 0.13491 0.90979 0.0
C600 C 0.3253 0.14368 0.91289 0.0
C601 C 0.33228 0.13372 0.92538 0.0
C602 C 0.26743 0.10604 0.91554 0.0
C603 C 0.34061 0.16377 0.90331 0.0
C604 C 0.25943 0.22554 0.9843 0.0
C605 C 0.27521 0.22849 0.96821 0.0
C606 C 0.27059 0.20873 0.93627 0.0
C607 C 0.29105 0.2149 0.93315 0.0
C608 C 0.29615 0.2031 0.9201 0.0
C609 C 0.28041 0.18454 0.91032 0.0
C610 C 0.25976 0.17848 0.91318 0.0
C611 C 0.25515 0.19096 0.92582 0.0
C612 C 0.31834 0.21033 0.91703 0.0
C613 C 0.24255 0.15858 0.90333 0.0
C614 C 0.27557 0.21346 0.78116 0.0
C615 C 0.29523 0.2192 0.78804 0.0
C616 C 0.29888 0.20461 0.79673 0.0
C617 C 0.28251 0.18393 0.79872 0.0
C618 C 0.26296 0.17783 0.79073 0.0
C619 C 0.2598 0.1927 0.78182 0.0
C620 C 0.32011 0.21146 0.80439 0.0
C621 C 0.24525 0.15585 0.79233 0.0
C622 C 0.30059 0.05343 0.79418 0.0
C623 C 0.29546 0.05971 0.77396 0.0
C624 C 0.30243 0.09534 0.78068 0.0
C625 C 0.31814 0.11621 0.7816 0.0
C626 C 0.31524 0.13169 0.7906 0.0
C627 C 0.29593 0.12614 0.79843 0.0
C628 C 0.27962 0.10525 0.79656 0.0
C629 C 0.28308 0.09 0.788 0.0
C630 C 0.33296 0.15383 0.7924 0.0
C631 C 0.25862 0.09892 0.80417 0.0
C632 C 0.29652 0.14596 0.89759 0.0
C633 C 0.29118 0.15883 0.90827 0.0
C634 C 0.28559 0.17109 0.89782 0.0
C635 C 0.2855 0.17074 0.87607 0.0
C636 C 0.28098 0.18367 0.86508 0.0
C637 C 0.28094 0.18318 0.84366 0.0
C638 C 0.28539 0.16973 0.8324 0.0
C639 C 0.28558 0.16924 0.81061 0.0
C640 C 0.28921 0.15506 0.79989 0.0
C641 C 0.29322 0.14164 0.81043 0.0
C642 C 0.2941 0.14262 0.8322 0.0
C643 C 0.29909 0.13004 0.84324 0.0
C644 C 0.29988 0.13108 0.86464 0.0
C645 C 0.29555 0.14461 0.87584 0.0
C646 C 0.29023 0.15723 0.86505 0.0
C647 C 0.28988 0.15651 0.8432 0.0
C648 C 0.26436 0.25378 0.785 0.0
C649 C 0.28069 0.24827 0.7808 0.0
O650 O 0.32629 0.10722 0.9479 0.0
O651 O 0.30676 0.08114 0.77264 0.0
O652 O 0.27126 0.22756 0.77411 0.0
O653 O 0.26529 0.21936 0.94959 0.0
H654 H 0.30136 0.09078 0.96635 0.0
H655 H 0.32123 0.10867 -0.00101 0.0
H656 H 0.34276 0.1259 0.9835 0.0
H657 H 0.31918 0.12539 0.9813 0.0
H658 H 0.28681 0.09189 0.93817 0.0
H659 H 0.34849 0.14039 0.92802 0.0
H660 H 0.26234 0.11624 0.92254 0.0
H661 H 0.25866 0.09053 0.92237 0.0
H662 H 0.2638 0.10428 0.89878 0.0
H663 H 0.35654 0.1691 0.9081 0.0
H664 H 0.33732 0.17613 0.90767 0.0
H665 H 0.33932 0.16165 0.88628 0.0
H666 H 0.2828 0.22029 0.9739 0.0
H667 H 0.26708 0.2328 -0.00062 0.0
H668 H 0.24867 0.20868 0.98631 0.0
H669 H 0.25052 0.23258 0.97943 0.0
H670 H 0.30308 0.22892 0.94086 0.0
H671 H 0.23942 0.18644 0.92828 0.0
H672 H 0.32137 0.20947 0.90042 0.0
H673 H 0.3221 0.19994 0.9251 0.0
H674 H 0.32864 0.22651 0.92316 0.0
H675 H 0.22739 0.155 0.90886 0.0
H676 H 0.24455 0.14535 0.90663 0.0
H677 H 0.24277 0.15989 0.88637 0.0
H678 H 0.2888 0.25079 0.79583 0.0
H679 H 0.30769 0.23509 0.78679 0.0
H680 H 0.24477 0.18835 0.77611 0.0
H681 H 0.32039 0.21183 0.82148 0.0
H682 H 0.33163 0.22717 0.79926 0.0
H683 H 0.32451 0.2002 0.79889 0.0
H684 H 0.23096 0.1536 0.78541 0.0
H685 H 0.2426 0.15181 0.80877 0.0
H686 H 0.24891 0.14488 0.78443 0.0
H687 H 0.27889 0.05382 0.77359 0.0
H688 H 0.29205 0.03622 0.79501 0.0
H689 H 0.29616 0.05993 0.80741 0.0
H690 H 0.3172 0.05946 0.79556 0.0
H691 H 0.33296 0.12024 0.77577 0.0
H692 H 0.27051 0.0741 0.78727 0.0
H693 H 0.33611 0.15911 0.80888 0.0
H694 H 0.329 0.16417 0.78454 0.0
H695 H 0.34705 0.1556 0.78558 0.0
H696 H 0.24692 0.08287 0.79877 0.0
H697 H 0.25403 0.10982 0.79889 0.0
H698 H 0.25889 0.09966 0.82126 0.0
H699 H 0.29172 0.15959 0.92498 0.0
H700 H 0.2775 0.19437 0.87291 0.0
H701 H 0.27729 0.19345 0.83606 0.0
H702 H 0.28894 0.15447 0.78319 0.0
H703 H 0.30261 0.11933 0.83547 0.0
H704 H 0.30385 0.12108 0.87231 0.0
H705 H 0.25479 0.25086 0.771 0.0
H706 H 0.27158 0.2704 0.79014 0.0
H707 H 0.25426 0.24409 0.79739 0.0
C708 C 0.78998 0.06243 0.98397 0.0
C709 C 0.78166 0.06935 0.96663 0.0
C710 C 0.7979 0.07759 0.93329 0.0
C711 C 0.79539 0.09421 0.92871 0.0
C712 C 0.80832 0.10911 0.91489 0.0
C713 C 0.82407 0.10732 0.90557 0.0
C714 C 0.82585 0.0899 0.90928 0.0
C715 C 0.81249 0.07506 0.92294 0.0
C716 C 0.80564 0.12717 0.91081 0.0
C717 C 0.84241 0.08747 0.89951 0.0
C718 C 0.92962 0.20911 0.98646 0.0
C719 C 0.92763 0.22253 0.97062 0.0
C720 C 0.91745 0.20419 0.93706 0.0
C721 C 0.92066 0.18974 0.92636 0.0
C722 C 0.90596 0.17501 0.91232 0.0
C723 C 0.88787 0.17519 0.90862 0.0
C724 C 0.88504 0.19051 0.91861 0.0
C725 C 0.89991 0.20492 0.93272 0.0
C726 C 0.90948 0.15893 0.90187 0.0
C727 C 0.86613 0.19141 0.91463 0.0
C728 C 0.91086 0.21771 0.7784 0.0
C729 C 0.91405 0.20094 0.77886 0.0
C730 C 0.90011 0.1826 0.78853 0.0
C731 C 0.88264 0.18101 0.79774 0.0
C732 C 0.87931 0.1978 0.79705 0.0
C733 C 0.89361 0.21602 0.78756 0.0
C734 C 0.90415 0.16502 0.78917 0.0
C735 C 0.86069 0.19653 0.80644 0.0
C736 C 0.74511 0.02718 0.77533 0.0
C737 C 0.7549 0.04774 0.76436 0.0
C738 C 0.79075 0.07392 0.77295 0.0
C739 C 0.80909 0.07523 0.77798 0.0
C740 C 0.82487 0.09288 0.78847 0.0
C741 C 0.82219 0.10966 0.79397 0.0
C742 C 0.80408 0.10892 0.78799 0.0
C743 C 0.78859 0.09111 0.77734 0.0
C744 C 0.84423 0.09341 0.79411 0.0
C745 C 0.80099 0.12679 0.7932 0.0
C746 C 0.83992 0.12473 0.89382 0.0
C747 C 0.85598 0.14123 0.9051 0.0
C748 C 0.87133 0.15852 0.8954 0.0
C749 C 0.87073 0.15957 0.87378 0.0
C750 C 0.88573 0.17694 0.86358 0.0
C751 C 0.88496 0.17781 0.84228 0.0
C752 C 0.86918 0.1613 0.83038 0.0
C753 C 0.86815 0.16212 0.80874 0.0
C754 C 0.8527 0.14515 0.79729 0.0
C755 C 0.83785 0.12742 0.80696 0.0
C756 C 0.83814 0.12664 0.82866 0.0
C757 C 0.82294 0.10941 0.83895 0.0
C758 C 0.82337 0.10879 0.86031 0.0
C759 C 0.83918 0.12525 0.87215 0.0
C760 C 0.85465 0.14278 0.86211 0.0
C761 C 0.85401 0.14356 0.84037 0.0
C762 C 0.94556 0.25718 0.74284 0.0
C763 C 0.93929 0.23901 0.75582 0.0
O764 O 0.78676 0.06401 0.94789 0.0
O765 O 0.77579 0.05597 0.76363 0.0
O766 O 0.9239 0.23572 0.76923 0.0
O767 O 0.93167 0.21737 0.95122 0.0
H768 H 0.78901 0.08655 0.96873 0.0
H769 H 0.80684 0.07029 0.98297 0.0
H770 H 0.7834 0.04534 0.98281 0.0
H771 H 0.78628 0.06669 -0.00078 0.0
H772 H 0.78351 0.09568 0.93614 0.0
H773 H 0.81401 0.06193 0.92636 0.0
H774 H 0.81852 0.1416 0.9181 0.0
H775 H 0.79115 0.12491 0.91705 0.0
H776 H 0.80588 0.12944 0.894 0.0
H777 H 0.84147 0.07281 0.90365 0.0
H778 H 0.85758 0.1008 0.90451 0.0
H779 H 0.84132 0.08763 0.8825 0.0
H780 H 0.91177 0.21937 0.97136 0.0
H781 H 0.91845 0.19242 0.9827 0.0
H782 H 0.92643 0.21299 0.00214 0.0
H783 H 0.94522 0.21155 0.98641 0.0
H784 H 0.93446 0.18961 0.92957 0.0
H785 H 0.89786 0.21676 0.94024 0.0
H786 H 0.90902 0.15996 0.8849 0.0
H787 H 0.89708 0.14311 0.90578 0.0
H788 H 0.92435 0.16089 0.90644 0.0
H789 H 0.86713 0.20545 0.92204 0.0
H790 H 0.85269 0.17741 0.92072 0.0
H791 H 0.86355 0.19129 0.89781 0.0
H792 H 0.95198 0.23832 0.76333 0.0
H793 H 0.92746 0.20217 0.77191 0.0
H794 H 0.89129 0.22904 0.78706 0.0
H795 H 0.90461 0.16112 0.8054 0.0
H796 H 0.91875 0.16891 0.78184 0.0
H797 H 0.89152 0.15094 0.78111 0.0
H798 H 0.85943 0.21018 0.80299 0.0
H799 H 0.8614 0.19569 0.82341 0.0
H800 H 0.84668 0.18217 0.80062 0.0
H801 H 0.75114 0.05805 0.77347 0.0
H802 H 0.72832 0.02019 0.77607 0.0
H803 H 0.75135 0.02998 0.79131 0.0
H804 H 0.74834 0.01598 0.76718 0.0
H805 H 0.81079 0.06208 0.77409 0.0
H806 H 0.77497 0.09082 0.77244 0.0
H807 H 0.8455 0.09326 0.8111 0.0
H808 H 0.8577 0.10801 0.78898 0.0
H809 H 0.84467 0.07995 0.78713 0.0
H810 H 0.78601 0.1238 0.7875 0.0
H811 H 0.81329 0.14115 0.78634 0.0
H812 H 0.80199 0.12968 0.81015 0.0
H813 H 0.85651 0.14062 0.92174 0.0
H814 H 0.89821 0.19009 0.87196 0.0
H815 H 0.89693 0.19158 0.83525 0.0
H816 H 0.85214 0.14579 0.78067 0.0
H817 H 0.81045 0.09623 0.83063 0.0
H818 H 0.81124 0.09519 0.86743 0.0
H819 H 0.93677 0.24393 0.71289 0.0
H820 H 0.96193 0.26858 0.74748 0.0
H821 H 0.9396 0.26667 0.75039 0.0
C822 C 0.78178 0.70695 0.97898 0.0
C823 C 0.76927 0.70096 0.9588 0.0
C824 C 0.78914 0.69355 0.93402 0.0
C825 C 0.80518 0.71432 0.93239 0.0
C826 C 0.82181 0.71925 0.91975 0.0
C827 C 0.82243 0.70316 0.90855 0.0
C828 C 0.80626 0.68232 0.90994 0.0
C829 C 0.7898 0.67782 0.92266 0.0
C830 C 0.83887 0.74163 0.91858 0.0
C831 C 0.80654 0.66478 0.89824 0.0
C832 C 0.91705 0.70518 0.98462 0.0
C833 C 0.92037 0.69352 0.96672 0.0
C834 C 0.91596 0.70753 0.93546 0.0
C835 C 0.90038 0.68968 0.92507 0.0
C836 C 0.88729 0.69107 0.9111 0.0
C837 C 0.88987 0.71073 0.90756 0.0
C838 C 0.90629 0.72889 0.91719 0.0
C839 C 0.91934 0.72705 0.93089 0.0
C840 C 0.87021 0.67144 0.90073 0.0
C841 C 0.9095 0.75008 0.91366 0.0
C842 C 0.92962 0.72827 0.77965 0.0
C843 C 0.9118 0.70858 0.78059 0.0
C844 C 0.89415 0.70636 0.78955 0.0
C845 C 0.89423 0.72421 0.79734 0.0
C846 C 0.91168 0.74417 0.79506 0.0
C847 C 0.92916 0.74592 0.78616 0.0
C848 C 0.87558 0.68489 0.79126 0.0
C849 C 0.91209 0.76354 0.80276 0.0
C850 C 0.75695 0.72165 0.78674 0.0
C851 C 0.76261 0.71373 0.7673 0.0
C852 C 0.78794 0.70557 0.78012 0.0
C853 C 0.79076 0.68918 0.78442 0.0
C854 C 0.80898 0.69282 0.79339 0.0
C855 C 0.8248 0.71348 0.79831 0.0
C856 C 0.82237 0.73025 0.7934 0.0
C857 C 0.80396 0.72616 0.78428 0.0
C858 C 0.81108 0.67453 0.79822 0.0
C859 C 0.83901 0.75244 0.7984 0.0
C860 C 0.84053 0.70798 0.89627 0.0
C861 C 0.85684 0.70856 0.90638 0.0
C862 C 0.87404 0.71192 0.89573 0.0
C863 C 0.87521 0.71503 0.87434 0.0
C864 C 0.89221 0.71827 0.86312 0.0
C865 C 0.89292 0.72077 0.84196 0.0
C866 C 0.8766 0.72002 0.83122 0.0
C867 C 0.87688 0.72185 0.80961 0.0
C868 C 0.86015 0.72043 0.79933 0.0
C869 C 0.84303 0.71725 0.81014 0.0
C870 C 0.84268 0.71587 0.8318 0.0
C871 C 0.8258 0.71297 0.84315 0.0
C872 C 0.82517 0.71067 0.86432 0.0
C873 C 0.84136 0.71112 0.87492 0.0
C874 C 0.85874 0.71456 0.8639 0.0
C875 C 0.85942 0.71701 0.84231 0.0
C876 C 0.97397 0.72712 0.78612 0.0
C877 C 0.95415 0.71704 0.77334 0.0
O878 O 0.77295 0.68792 0.94645 0.0
O879 O 0.76942 0.70059 0.77237 0.0
O880 O 0.94745 0.73096 0.77251 0.0
O881 O 0.92781 0.70628 0.95006 0.0
H882 H 0.77359 0.71537 0.95062 0.0
H883 H 0.79835 0.7158 0.97586 0.0
H884 H 0.77832 0.69287 0.98729 0.0
H885 H 0.77832 0.71692 0.98909 0.0
H886 H 0.8051 0.7268 0.94105 0.0
H887 H 0.77739 0.66188 0.92398 0.0
H888 H 0.85314 0.74347 0.92502 0.0
H889 H 0.83552 0.75252 0.9272 0.0
H890 H 0.84165 0.74605 0.90225 0.0
H891 H 0.79274 0.6494 0.90095 0.0
H892 H 0.82024 0.66435 0.90292 0.0
H893 H 0.80757 0.66747 0.88149 0.0
H894 H 0.90546 0.67921 0.96273 0.0
H895 H 0.91104 0.69521 0.99814 0.0
H896 H 0.90578 0.70943 0.97997 0.0
H897 H 0.93159 0.71965 0.98916 0.0
H898 H 0.89835 0.67465 0.92802 0.0
H899 H 0.93169 0.74075 0.93878 0.0
H900 H 0.86964 0.67352 0.88397 0.0
H901 H 0.85544 0.66804 0.90723 0.0
H902 H 0.8719 0.65783 0.90296 0.0
H903 H 0.92351 0.76275 0.92161 0.0
H904 H 0.89616 0.75073 0.91935 0.0
H905 H 0.91061 0.75284 0.89691 0.0
H906 H 0.94308 0.70274 0.78128 0.0
H907 H 0.9116 0.69491 0.77446 0.0
H908 H 0.94283 0.76109 0.78489 0.0
H909 H 0.87188 0.68159 0.80773 0.0
H910 H 0.87782 0.67259 0.78414 0.0
H911 H 0.86226 0.68417 0.78365 0.0
H912 H 0.92605 0.77795 0.79807 0.0
H913 H 0.91148 0.76378 0.81983 0.0
H914 H 0.89849 0.76348 0.79683 0.0
H915 H 0.77475 0.7272 0.75908 0.0
H916 H 0.75099 0.73174 0.78253 0.0
H917 H 0.77053 0.73097 0.79697 0.0
H918 H 0.74515 0.70844 0.79547 0.0
H919 H 0.77838 0.67338 0.78103 0.0
H920 H 0.80214 0.73906 0.78084 0.0
H921 H 0.81162 0.67344 0.81517 0.0
H922 H 0.82556 0.67678 0.79204 0.0
H923 H 0.79819 0.6596 0.7917 0.0
H924 H 0.83511 0.76382 0.793 0.0
H925 H 0.85344 0.75561 0.79118 0.0
H926 H 0.8418 0.75482 0.81531 0.0
H927 H 0.85594 0.7059 0.92276 0.0
H928 H 0.90511 0.7188 0.87056 0.0
H929 H 0.90638 0.7231 0.83413 0.0
H930 H 0.86024 0.72125 0.7827 0.0
H931 H 0.81282 0.71232 0.8358 0.0
H932 H 0.81175 0.70834 0.87224 0.0
H933 H 0.97968 0.71628 0.78706 0.0
H934 H 0.97117 0.73091 0.802 0.0
H935 H 0.98587 0.74172 0.77923 0.0
C936 C 0.88631 0.62061 0.36381 0.0
C937 C 0.89828 0.63858 0.37963 0.0
C938 C 0.87991 0.63262 0.41129 0.0
C939 C 0.88217 0.65198 0.41628 0.0
C940 C 0.86733 0.65338 0.42769 0.0
C941 C 0.8498 0.63497 0.43404 0.0
C942 C 0.84775 0.61543 0.4294 0.0
C943 C 0.86305 0.61454 0.4183 0.0
C944 C 0.87028 0.6745 0.43278 0.0
C945 C 0.82924 0.59549 0.43582 0.0
C946 C 0.71478 0.64233 0.38214 0.0
C947 C 0.72557 0.63431 0.39416 0.0
C948 C 0.76001 0.64383 0.40463 0.0
C949 C 0.75459 0.62502 0.41374 0.0
C950 C 0.76879 0.6232 0.42565 0.0
C951 C 0.7886 0.64076 0.42919 0.0
C952 C 0.79414 0.65967 0.41988 0.0
C953 C 0.77984 0.66082 0.40744 0.0
C954 C 0.76256 0.60247 0.43447 0.0
C955 C 0.81513 0.67872 0.42314 0.0
C956 C 0.74912 0.63771 0.56377 0.0
C957 C 0.7476 0.61906 0.55676 0.0
C958 C 0.76316 0.61922 0.54522 0.0
C959 C 0.78073 0.63843 0.5407 0.0
C960 C 0.78203 0.65727 0.54715 0.0
C961 C 0.76604 0.65665 0.55839 0.0
C962 C 0.76095 0.59883 0.53806 0.0
C963 C 0.80049 0.67801 0.54249 0.0
C964 C 0.91007 0.61704 0.55653 0.0
C965 C 0.90676 0.63413 0.56552 0.0
C966 C 0.87247 0.62845 0.56456 0.0
C967 C 0.85266 0.61149 0.56144 0.0
C968 C 0.83768 0.61376 0.55158 0.0
C969 C 0.84263 0.63362 0.54523 0.0
C970 C 0.86223 0.65111 0.54985 0.0
C971 C 0.87701 0.64832 0.55939 0.0
C972 C 0.81683 0.59482 0.54728 0.0
C973 C 0.8678 0.67263 0.54402 0.0
C974 C 0.83343 0.63621 0.44509 0.0
C975 C 0.81899 0.63766 0.43335 0.0
C976 C 0.80345 0.63939 0.44269 0.0
C977 C 0.80216 0.63963 0.46443 0.0
C978 C 0.7869 0.64159 0.47441 0.0
C979 C 0.78541 0.64121 0.49576 0.0
C980 C 0.79939 0.63928 0.50801 0.0
C981 C 0.79789 0.63865 0.52972 0.0
C982 C 0.81228 0.63705 0.54144 0.0
C983 C 0.82804 0.63575 0.53206 0.0
C984 C 0.82956 0.636 0.51036 0.0
C985 C 0.84501 0.63435 0.50039 0.0
C986 C 0.84642 0.6346 0.47907 0.0
C987 C 0.83227 0.63622 0.46681 0.0
C988 C 0.81655 0.63789 0.4765 0.0
C989 C 0.81521 0.63781 0.49831 0.0
C990 C 0.71301 0.6292 0.60593 0.0
C991 C 0.72604 0.62468 0.59229 0.0
O992 O 0.89362 0.6311 0.3993 0.0
O993 O 0.8869 0.62513 0.57238 0.0
O994 O 0.73478 0.63784 0.57606 0.0
O995 O 0.74665 0.64618 0.39302 0.0
H996 H 0.89335 0.64994 0.37724 0.0
H997 H 0.86969 0.61384 0.36589 0.0
H998 H 0.88979 0.60814 0.3657 0.0
H999 H 0.89011 0.62627 0.34792 0.0
H1000 H 0.89552 0.66596 0.41114 0.0
H1001 H 0.86157 0.59968 0.41443 0.0
H1002 H 0.85852 0.676 0.42444 0.0
H1003 H 0.88559 0.68735 0.42842 0.0
H1004 H 0.86829 0.6762 0.44952 0.0
H1005 H 0.82947 0.58151 0.43015 0.0
H1006 H 0.81517 0.59447 0.42984 0.0
H1007 H 0.82845 0.59542 0.45287 0.0
H1008 H 0.71923 0.61729 0.39171 0.0
H1009 H 0.70572 0.62985 0.36991 0.0
H1010 H 0.72617 0.65356 0.37106 0.0
H1011 H 0.70096 0.65126 0.40479 0.0
H1012 H 0.73941 0.61159 0.41143 0.0
H1013 H 0.78393 0.67521 0.40023 0.0
H1014 H 0.77471 0.59876 0.43221 0.0
H1015 H 0.74813 0.58962 0.42733 0.0
H1016 H 0.76029 0.60319 0.45127 0.0
H1017 H 0.81608 0.69288 0.41729 0.0
H1018 H 0.82641 0.67619 0.4149 0.0
H1019 H 0.81947 0.68144 0.43975 0.0
H1020 H 0.71909 0.60791 0.58772 0.0
H1021 H 0.73423 0.60431 0.56016 0.0
H1022 H 0.76702 0.67097 0.56368 0.0
H1023 H 0.76324 0.5987 0.52119 0.0
H1024 H 0.74576 0.58526 0.54159 0.0
H1025 H 0.77286 0.59705 0.54569 0.0
H1026 H 0.79927 0.69126 0.54872 0.0
H1027 H 0.80245 0.67928 0.52557 0.0
H1028 H 0.81438 0.67917 0.54917 0.0
H1029 H 0.90943 0.64467 0.55272 0.0
H1030 H 0.92596 0.62386 0.55113 0.0
H1031 H 0.89949 0.60893 0.54318 0.0
H1032 H 0.90708 0.60537 0.56817 0.0
H1033 H 0.84923 0.59629 0.56592 0.0
H1034 H 0.89214 0.66161 0.56263 0.0
H1035 H 0.81325 0.59293 0.53051 0.0
H1036 H 0.80516 0.59694 0.55521 0.0
H1037 H 0.81564 0.58036 0.55256 0.0
H1038 H 0.88244 0.68488 0.55134 0.0
H1039 H 0.85557 0.67567 0.54856 0.0
H1040 H 0.86926 0.67375 0.52705 0.0
H1041 H 0.81988 0.63749 0.41669 0.0
H1042 H 0.7758 0.64329 0.46581 0.0
H1043 H 0.7732 0.64252 0.50255 0.0
H1044 H 0.81103 0.63651 0.55807 0.0
H1045 H 0.85623 0.63282 0.50895 0.0
H1046 H 0.85868 0.63337 0.4723 0.0
H1047 H 0.69721 0.61508 0.60411 0.0
H1048 H 0.70937 0.63957 0.59714 0.0
H1049 H 0.72912 0.6385 0.63411 0.0
C1050 C 0.3546 0.24884 0.37115 0.0
C1051 C 0.34522 0.25305 0.39016 0.0
C1052 C 0.36189 0.24658 0.41814 0.0
C1053 C 0.34553 0.22849 0.42599 0.0
C1054 C 0.3489 0.21476 0.43688 0.0
C1055 C 0.36909 0.21929 0.44007 0.0
C1056 C 0.38567 0.23789 0.43281 0.0
C1057 C 0.38185 0.25145 0.42208 0.0
C1058 C 0.33085 0.19533 0.44489 0.0
C1059 C 0.40736 0.2433 0.43622 0.0
C1060 C 0.36348 0.07031 0.39784 0.0
C1061 C 0.37382 0.09155 0.40774 0.0
C1062 C 0.36756 0.12007 0.4124 0.0
C1063 C 0.38634 0.13498 0.42159 0.0
C1064 C 0.38856 0.15265 0.4322 0.0
C1065 C 0.3714 0.15491 0.43442 0.0
C1066 C 0.35261 0.14011 0.42467 0.0
C1067 C 0.35112 0.12312 0.4134 0.0
C1068 C 0.40917 0.16867 0.44132 0.0
C1069 C 0.33394 0.14191 0.42647 0.0
C1070 C 0.36296 0.11441 0.56439 0.0
C1071 C 0.38259 0.13222 0.56376 0.0
C1072 C 0.38576 0.15016 0.55432 0.0
C1073 C 0.36895 0.15031 0.54557 0.0
C1074 C 0.34915 0.13246 0.54645 0.0
C1075 C 0.3465 0.11466 0.55561 0.0
C1076 C 0.40707 0.16886 0.55347 0.0
C1077 C 0.33077 0.13214 0.53766 0.0
C1078 C 0.37841 0.29564 0.5685 0.0
C1079 C 0.36723 0.27794 0.58331 0.0
C1080 C 0.37687 0.25216 0.57492 0.0
C1081 C 0.3947 0.25202 0.57089 0.0
C1082 C 0.39418 0.23581 0.55898 0.0
C1083 C 0.37524 0.21916 0.55127 0.0
C1084 C 0.35703 0.21876 0.55603 0.0
C1085 C 0.35802 0.23526 0.56786 0.0
C1086 C 0.41385 0.23659 0.55436 0.0
C1087 C 0.33654 0.20094 0.54851 0.0
C1088 C 0.37259 0.20425 0.45075 0.0
C1089 C 0.37258 0.18841 0.43879 0.0
C1090 C 0.37272 0.17195 0.44795 0.0
C1091 C 0.37289 0.17122 0.46968 0.0
C1092 C 0.37185 0.15433 0.47946 0.0
C1093 C 0.37188 0.15368 0.5008 0.0
C1094 C 0.37268 0.16976 0.51325 0.0
C1095 C 0.37202 0.16887 0.53496 0.0
C1096 C 0.37315 0.18528 0.54691 0.0
C1097 C 0.37453 0.20248 0.53773 0.0
C1098 C 0.37467 0.20338 0.51602 0.0
C1099 C 0.37538 0.22014 0.50627 0.0
C1100 C 0.37476 0.22049 0.4849 0.0
C1101 C 0.37382 0.20433 0.47245 0.0
C1102 C 0.37373 0.18763 0.48195 0.0
C1103 C 0.37383 0.18699 0.50376 0.0
C1104 C 0.36077 0.07656 0.60024 0.0
C1105 C 0.37195 0.09489 0.5871 0.0
O1106 O 0.35883 0.25953 0.40673 0.0
O1107 O 0.37845 0.2685 0.58622 0.0
O1108 O 0.35919 0.09676 0.5734 0.0
O1109 O 0.36475 0.10263 0.40238 0.0
H1110 H 0.33084 0.2384 0.39351 0.0
H1111 H 0.35768 0.23627 0.37413 0.0
H1112 H 0.36919 0.26306 0.36734 0.0
H1113 H 0.34393 0.24377 0.35769 0.0
H1114 H 0.3301 0.22512 0.42378 0.0
H1115 H 0.3944 0.26563 0.41619 0.0
H1116 H 0.33053 0.1814 0.43815 0.0
H1117 H 0.31611 0.1941 0.44118 0.0
H1118 H 0.33235 0.19519 0.46186 0.0
H1119 H 0.41862 0.25859 0.43003 0.0
H1120 H 0.40951 0.23111 0.42866 0.0
H1121 H 0.41049 0.24364 0.45295 0.0
H1122 H 0.39076 0.10054 0.40666 0.0
H1123 H 0.37529 0.07025 0.38755 0.0
H1124 H 0.35385 0.0702 0.38469 0.0
H1125 H 0.35102 0.05054 0.42261 0.0
H1126 H 0.39931 0.13299 0.42032 0.0
H1127 H 0.3368 0.11163 0.40595 0.0
H1128 H 0.41233 0.18465 0.43919 0.0
H1129 H 0.42163 0.16722 0.43431 0.0
H1130 H 0.40934 0.16651 0.4581 0.0
H1131 H 0.31991 0.1276 0.42058 0.0
H1132 H 0.33614 0.15512 0.41742 0.0
H1133 H 0.33165 0.14508 0.44276 0.0
H1134 H 0.386 0.09686 0.57984 0.0
H1135 H 0.39547 0.13212 0.5704 0.0
H1136 H 0.33142 0.10085 0.55623 0.0
H1137 H 0.41094 0.17341 0.53727 0.0
H1138 H 0.41868 0.16592 0.56 0.0
H1139 H 0.40784 0.1822 0.56222 0.0
H1140 H 0.31622 0.11805 0.5418 0.0
H1141 H 0.33165 0.13249 0.52062 0.0
H1142 H 0.33055 0.14614 0.54328 0.0
H1143 H 0.35198 0.2668 0.57638 0.0
H1144 H 0.36969 0.30348 0.5661 0.0
H1145 H 0.37995 0.28931 0.55335 0.0
H1146 H 0.39391 0.30727 0.57463 0.0
H1147 H 0.40914 0.26494 0.57676 0.0
H1148 H 0.344 0.23461 0.57181 0.0
H1149 H 0.41588 0.2365 0.53744 0.0
H1150 H 0.41319 0.22254 0.56012 0.0
H1151 H 0.42734 0.25063 0.56149 0.0
H1152 H 0.3237 0.20239 0.5544 0.0
H1153 H 0.33449 0.18599 0.55339 0.0
H1154 H 0.33587 0.20031 0.53142 0.0
H1155 H 0.37172 0.18851 0.42214 0.0
H1156 H 0.37085 0.14129 0.47075 0.0
H1157 H 0.37113 0.1403 0.5074 0.0
H1158 H 0.37257 0.18449 0.56355 0.0
H1159 H 0.37616 0.23304 0.51504 0.0
H1160 H 0.37508 0.23364 0.47824 0.0
H1161 H 0.36696 0.06627 0.59595 0.0
H1162 H 0.34543 0.06595 0.59255 0.0
H1163 H 0.36406 0.08984 0.63 0.0
C1164 C 0.88759 0.2731 0.36959 0.0
C1165 C 0.90129 0.27694 0.38846 0.0
C1166 C 0.87973 0.24586 0.40843 0.0
C1167 C 0.86557 0.25141 0.41486 0.0
C1168 C 0.84868 0.23796 0.42655 0.0
C1169 C 0.84594 0.21866 0.432 0.0
C1170 C 0.86016 0.21305 0.42561 0.0
C1171 C 0.87689 0.22678 0.41394 0.0
C1172 C 0.8338 0.24438 0.4332 0.0
C1173 C 0.85769 0.19258 0.43117 0.0
C1174 C 0.70976 0.11431 0.36452 0.0
C1175 C 0.72173 0.11029 0.38062 0.0
C1176 C 0.73871 0.13263 0.4109 0.0
C1177 C 0.7546 0.12868 0.41306 0.0
C1178 C 0.77233 0.14254 0.42452 0.0
C1179 C 0.77424 0.16078 0.43383 0.0
C1180 C 0.7581 0.16462 0.43191 0.0
C1181 C 0.74036 0.15026 0.42073 0.0
C1182 C 0.78905 0.13773 0.42662 0.0
C1183 C 0.75971 0.18401 0.44146 0.0
C1184 C 0.74591 0.12781 0.56104 0.0
C1185 C 0.76114 0.12389 0.5546 0.0
C1186 C 0.77933 0.13969 0.54637 0.0
C1187 C 0.78232 0.15978 0.54463 0.0
C1188 C 0.76763 0.16411 0.55249 0.0
C1189 C 0.74964 0.14804 0.56077 0.0
C1190 C 0.79496 0.13471 0.53868 0.0
C1191 C 0.7705 0.18544 0.55117 0.0
C1192 C 0.93951 0.28947 0.54583 0.0
C1193 C 0.92386 0.28309 0.56295 0.0
C1194 C 0.8936 0.24784 0.5581 0.0
C1195 C 0.88849 0.22759 0.55247 0.0
C1196 C 0.86895 0.21282 0.54477 0.0
C1197 C 0.85411 0.21849 0.5428 0.0
C1198 C 0.85872 0.23852 0.54975 0.0
C1199 C 0.87839 0.25298 0.5575 0.0
C1200 C 0.86438 0.19141 0.538 0.0
C1201 C 0.84302 0.24483 0.54834 0.0
C1202 C 0.82838 0.20444 0.44469 0.0
C1203 C 0.81002 0.1901 0.4346 0.0
C1204 C 0.79313 0.1758 0.4456 0.0
C1205 C 0.7945 0.17571 0.46729 0.0
C1206 C 0.77792 0.16131 0.47878 0.0
C1207 C 0.77945 0.16129 0.50009 0.0
C1208 C 0.79768 0.17556 0.51076 0.0
C1209 C 0.79949 0.17538 0.53241 0.0
C1210 C 0.81787 0.1897 0.54254 0.0
C1211 C 0.83464 0.20424 0.53152 0.0
C1212 C 0.83308 0.20466 0.50987 0.0
C1213 C 0.84968 0.21906 0.49833 0.0
C1214 C 0.84814 0.21911 0.47703 0.0
C1215 C 0.82997 0.20476 0.46639 0.0
C1216 C 0.81298 0.19029 0.47771 0.0
C1217 C 0.81455 0.19023 0.49948 0.0
C1218 C 0.69588 0.08637 0.55199 0.0
C1219 C 0.71704 0.09199 0.55976 0.0
O1220 O 0.89621 0.25821 0.39688 0.0
O1221 O 0.9132 0.26163 0.56421 0.0
O1222 O 0.72744 0.11246 0.56734 0.0
O1223 O 0.72177 0.11986 0.39924 0.0
H1224 H 0.89945 0.28698 0.40017 0.0
H1225 H 0.87135 0.26542 0.37397 0.0
H1226 H 0.88913 0.26294 0.35779 0.0
H1227 H 0.89184 0.28809 0.36269 0.0
H1228 H 0.86751 0.26614 0.41086 0.0
H1229 H 0.88787 0.22263 0.40897 0.0
H1230 H 0.81833 0.23285 0.42695 0.0
H1231 H 0.83815 0.26 0.42789 0.0
H1232 H 0.8329 0.24454 0.45025 0.0
H1233 H 0.86972 0.19024 0.42444 0.0
H1234 H 0.84254 0.17957 0.42567 0.0
H1235 H 0.85829 0.19192 0.44817 0.0
H1236 H 0.73755 0.11749 0.3747 0.0
H1237 H 0.70924 0.10643 0.34953 0.0
H1238 H 0.71737 0.13127 0.36222 0.0
H1239 H 0.69393 0.10863 0.36954 0.0
H1240 H 0.7531 0.11473 0.40588 0.0
H1241 H 0.72793 0.15306 0.41905 0.0
H1242 H 0.79325 0.13854 0.44311 0.0
H1243 H 0.80284 0.14956 0.41868 0.0
H1244 H 0.78452 0.1221 0.4199 0.0
H1245 H 0.7465 0.18549 0.43719 0.0
H1246 H 0.77394 0.19799 0.43653 0.0
H1247 H 0.76051 0.18374 0.45848 0.0
H1248 H 0.72483 0.08999 0.54616 0.0
H1249 H 0.75874 0.10845 0.55572 0.0
H1250 H 0.73796 0.151 0.56621 0.0
H1251 H 0.79557 0.13532 0.52164 0.0
H1252 H 0.79137 0.11904 0.54303 0.0
H1253 H 0.81032 0.1465 0.54495 0.0
H1254 H 0.75834 0.18668 0.55919 0.0
H1255 H 0.77041 0.189 0.53475 0.0
H1256 H 0.78554 0.19737 0.55801 0.0
H1257 H 0.91375 0.28888 0.55856 0.0
H1258 H 0.94884 0.30669 0.54524 0.0
H1259 H 0.93146 0.28311 0.53074 0.0
H1260 H 0.94976 0.28336 0.54821 0.0
H1261 H 0.90014 0.22358 0.55351 0.0
H1262 H 0.88163 0.26813 0.56304 0.0
H1263 H 0.86155 0.18911 0.52109 0.0
H1264 H 0.85033 0.17941 0.54546 0.0
H1265 H 0.87709 0.18898 0.54183 0.0
H1266 H 0.84843 0.26041 0.55576 0.0
H1267 H 0.82872 0.2332 0.55574 0.0
H1268 H 0.83931 0.24514 0.5319 0.0
H1269 H 0.80893 0.18995 0.41795 0.0
H1270 H 0.76355 0.14985 0.47144 0.0
H1271 H 0.76613 0.14984 0.50806 0.0
H1272 H 0.81921 0.18934 0.55911 0.0
H1273 H 0.8641 0.23045 0.50561 0.0
H1274 H 0.86144 0.23051 0.46899 0.0
H1275 H 0.68717 0.06995 0.54598 0.0
H1276 H 0.69745 0.09656 0.53929 0.0
H1277 H 0.68715 0.0885 0.5645 0.0
C1278 C 0.98481 0.41668 0.29723 0.0
C1279 C 0.99302 0.4117 0.27765 0.0
C1280 C 0.00454 0.44323 0.2582 0.0
C1281 C 0.98489 0.43918 0.25322 0.0
C1282 C 0.98223 0.45351 0.24255 0.0
C1283 C 0.99951 0.47223 0.23654 0.0
C1284 C 0.01929 0.47636 0.24133 0.0
C1285 C 0.02153 0.46176 0.25209 0.0
C1286 C 0.9609 0.44864 0.23768 0.0
C1287 C 0.03803 0.49614 0.235 0.0
C1288 C 0.01067 0.61949 0.28646 0.0
C1289 C 0.01362 0.60459 0.27362 0.0
C1290 C 0.99551 0.56874 0.26013 0.0
C1291 C 0.01225 0.57083 0.24908 0.0
C1292 C 0.01115 0.55374 0.23848 0.0
C1293 C 0.99278 0.53419 0.23846 0.0
C1294 C 0.97586 0.53196 0.24944 0.0
C1295 C 0.97748 0.54931 0.26019 0.0
C1296 C 0.02963 0.55669 0.22712 0.0
C1297 C 0.95606 0.51132 0.24958 0.0
C1298 C 0.9693 0.55417 0.11347 0.0
C1299 C 0.98978 0.56121 0.1183 0.0
C1300 C 0.99545 0.5475 0.12546 0.0
C1301 C 0.9803 0.52639 0.12792 0.0
C1302 C 0.95991 0.519 0.12167 0.0
C1303 C 0.95472 0.53301 0.1143 0.0
C1304 C 0.01747 0.55575 0.13125 0.0
C1305 C 0.94346 0.4965 0.12369 0.0
C1306 C 0.02879 0.41207 0.12759 0.0
C1307 C 0.01375 0.41439 0.11419 0.0
C1308 C 0.01519 0.44752 0.11241 0.0
C1309 C 0.02901 0.46873 0.11602 0.0
C1310 C 0.02229 0.48209 0.12265 0.0
C1311 C 0.00121 0.47392 0.12548 0.0
C1312 C 0.98701 0.4529 0.11976 0.0
C1313 C 0.99416 0.43987 0.1132 0.0
C1314 C 0.03782 0.5046 0.12801 0.0
C1315 C 0.9644 0.44394 0.1219 0.0
C1316 C 0.9967 0.48727 0.22497 0.0
C1317 C 0.99492 0.50246 0.23617 0.0
C1318 C 0.99132 0.51644 0.22619 0.0
C1319 C 0.98865 0.51482 0.20455 0.0
C1320 C 0.98371 0.52776 0.19419 0.0
C1321 C 0.98207 0.52672 0.17282 0.0
C1322 C 0.98581 0.51306 0.16094 0.0
C1323 C 0.98528 0.51267 0.13914 0.0
C1324 C 0.98985 0.49946 0.12783 0.0
C1325 C 0.99456 0.48625 0.13781 0.0
C1326 C 0.9943 0.4858 0.15956 0.0
C1327 C 0.99824 0.47214 0.17003 0.0
C1328 C 0.99858 0.47225 0.19142 0.0
C1329 C 0.99553 0.48639 0.20321 0.0
C1330 C 0.99136 0.50015 0.19299 0.0
C1331 C 0.99035 0.49957 0.17114 0.0
C1332 C 0.95341 0.58892 0.12633 0.0
C1333 C 0.97079 0.58735 0.11661 0.0
O1334 O 0.00778 0.42991 0.26895 0.0
O1335 O 0.02273 0.43492 0.10873 0.0
O1336 O 0.96308 0.56737 0.10826 0.0
O1337 O 0.99628 0.58501 0.27087 0.0
H1338 H 0.98019 0.40264 0.26641 0.0
H1339 H 0.97725 0.42542 0.29362 0.0
H1340 H 0.9974 0.42628 0.30853 0.0
H1341 H 0.97337 0.40207 0.30445 0.0
H1342 H 0.97145 0.42496 0.2576 0.0
H1343 H 0.03663 0.46481 0.25587 0.0
H1344 H 0.95864 0.46094 0.24476 0.0
H1345 H 0.94899 0.43336 0.24337 0.0
H1346 H 0.95881 0.44855 0.22076 0.0
H1347 H 0.05236 0.49726 0.24027 0.0
H1348 H 0.03765 0.5098 0.24146 0.0
H1349 H 0.03816 0.4969 0.21797 0.0
H1350 H 0.02737 0.60402 0.27808 0.0
H1351 H 0.02041 0.62282 0.30069 0.0
H1352 H 0.99578 0.61003 0.29459 0.0
H1353 H 0.01581 0.64259 0.26599 0.0
H1354 H 0.02625 0.58578 0.24856 0.0
H1355 H 0.96463 0.5478 0.26868 0.0
H1356 H 0.0266 0.55543 0.21028 0.0
H1357 H 0.03279 0.54434 0.2309 0.0
H1358 H 0.04347 0.57209 0.23088 0.0
H1359 H 0.94408 0.5123 0.25829 0.0
H1360 H 0.95865 0.49964 0.25664 0.0
H1361 H 0.95045 0.50568 0.23353 0.0
H1362 H 0.98185 0.59076 0.12944 0.0
H1363 H 0.00129 0.57745 0.11674 0.0
H1364 H 0.93904 0.52766 0.11009 0.0
H1365 H 0.01909 0.55623 0.14826 0.0
H1366 H 0.02776 0.57166 0.12576 0.0
H1367 H 0.02243 0.54525 0.12472 0.0
H1368 H 0.92847 0.49305 0.11751 0.0
H1369 H 0.94179 0.49259 0.14017 0.0
H1370 H 0.94786 0.48631 0.11537 0.0
H1371 H 1.00019 0.40977 0.12391 0.0
H1372 H 0.02206 0.3956 0.13173 0.0
H1373 H 0.03227 0.42176 0.14204 0.0
H1374 H 0.04333 0.41721 0.1195 0.0
H1375 H 0.04518 0.47458 0.11477 0.0
H1376 H 0.98332 0.42365 0.10924 0.0
H1377 H 0.03843 0.50739 0.14496 0.0
H1378 H 0.03326 0.51483 0.1209 0.0
H1379 H 0.05333 0.50906 0.12281 0.0
H1380 H 0.95528 0.42824 0.11425 0.0
H1381 H 0.95991 0.4544 0.11521 0.0
H1382 H 0.96063 0.44273 0.13849 0.0
H1383 H 0.99671 0.50364 0.25281 0.0
H1384 H 0.98102 0.53882 0.2025 0.0
H1385 H 0.9782 0.53707 0.16575 0.0
H1386 H 0.99003 0.49966 0.11115 0.0
H1387 H 0.00111 0.46115 0.16185 0.0
H1388 H 0.0017 0.46139 0.19859 0.0
H1389 H 0.94097 0.5847 0.1149 0.0
H1390 H 0.95917 0.60498 0.13265 0.0
H1391 H 0.94695 0.57809 0.13916 0.0
C1392 C 0.44707 0.38851 0.31785 0.0
C1393 C 0.43946 0.39682 0.30114 0.0
C1394 C 0.45797 0.40835 0.26935 0.0
C1395 C 0.45555 0.4252 0.26567 0.0
C1396 C 0.46934 0.44134 0.25338 0.0
C1397 C 0.48596 0.44062 0.24478 0.0
C1398 C 0.48805 0.4233 0.24799 0.0
C1399 C 0.47377 0.40718 0.26001 0.0
C1400 C 0.4663 0.45926 0.24979 0.0
C1401 C 0.50557 0.42202 0.23907 0.0
C1402 C 0.62406 0.59502 0.28822 0.0
C1403 C 0.61316 0.57523 0.27564 0.0
C1404 C 0.57817 0.54672 0.26817 0.0
C1405 C 0.58282 0.53266 0.25863 0.0
C1406 C 0.56765 0.51462 0.24797 0.0
C1407 C 0.54764 0.51101 0.24617 0.0
C1408 C 0.54293 0.52509 0.25595 0.0
C1409 C 0.55821 0.54256 0.26714 0.0
C1410 C 0.57306 0.49949 0.23858 0.0
C1411 C 0.52181 0.52182 0.25448 0.0
C1412 C 0.57613 0.54549 0.11621 0.0
C1413 C 0.57893 0.52872 0.11926 0.0
C1414 C 0.56377 0.51074 0.12854 0.0
C1415 C 0.54549 0.50951 0.13475 0.0
C1416 C 0.54239 0.52608 0.13107 0.0
C1417 C 0.55782 0.54389 0.12192 0.0
C1418 C 0.56746 0.49326 0.13224 0.0
C1419 C 0.523 0.52521 0.13734 0.0
C1420 C 0.40645 0.35609 0.11306 0.0
C1421 C 0.41692 0.37711 0.10292 0.0
C1422 C 0.4527 0.40299 0.11216 0.0
C1423 C 0.47087 0.40417 0.1177 0.0
C1424 C 0.48663 0.42189 0.12816 0.0
C1425 C 0.48408 0.43886 0.1331 0.0
C1426 C 0.46612 0.43818 0.12668 0.0
C1427 C 0.45066 0.42031 0.11609 0.0
C1428 C 0.50582 0.42233 0.1343 0.0
C1429 C 0.46319 0.45626 0.13128 0.0
C1430 C 0.50138 0.45822 0.23284 0.0
C1431 C 0.5169 0.47561 0.24378 0.0
C1432 C 0.53181 0.49288 0.23359 0.0
C1433 C 0.53137 0.4928 0.21183 0.0
C1434 C 0.54595 0.50999 0.20105 0.0
C1435 C 0.54568 0.50959 0.17966 0.0
C1436 C 0.53061 0.49212 0.16817 0.0
C1437 C 0.53022 0.4916 0.1464 0.0
C1438 C 0.51497 0.47408 0.13541 0.0
C1439 C 0.49988 0.45697 0.14564 0.0
C1440 C 0.49998 0.4572 0.16742 0.0
C1441 C 0.48491 0.44033 0.1782 0.0
C1442 C 0.48525 0.44066 0.19961 0.0
C1443 C 0.50072 0.45784 0.21109 0.0
C1444 C 0.51588 0.47514 0.20055 0.0
C1445 C 0.5155 0.47481 0.1787 0.0
C1446 C 0.62488 0.5755 0.11929 0.0
C1447 C 0.60973 0.569 0.10117 0.0
O1448 O 0.44546 0.39321 0.2821 0.0
O1449 O 0.43778 0.38501 0.10283 0.0
O1450 O 0.5906 0.56363 0.10822 0.0
O1451 O 0.5923 0.56418 0.27885 0.0
H1452 H 0.44671 0.41383 0.30472 0.0
H1453 H 0.464 0.39678 0.31776 0.0
H1454 H 0.44095 0.37161 0.31513 0.0
H1455 H 0.44235 0.39115 0.33328 0.0
H1456 H 0.44288 0.42572 0.27243 0.0
H1457 H 0.47532 0.39395 0.26281 0.0
H1458 H 0.47872 0.47354 0.25777 0.0
H1459 H 0.45145 0.45638 0.25561 0.0
H1460 H 0.4671 0.46222 0.2331 0.0
H1461 H 0.5057 0.40812 0.24402 0.0
H1462 H 0.52028 0.43617 0.24382 0.0
H1463 H 0.50453 0.42139 0.222 0.0
H1464 H 0.62035 0.56563 0.27607 0.0
H1465 H 0.61345 0.59386 0.30085 0.0
H1466 H 0.63488 0.61809 0.26635 0.0
H1467 H 0.63456 0.59313 0.29879 0.0
H1468 H 0.59812 0.53543 0.25971 0.0
H1469 H 0.55475 0.55341 0.27475 0.0
H1470 H 0.56117 0.48327 0.24194 0.0
H1471 H 0.58804 0.50257 0.24436 0.0
H1472 H 0.57378 0.50074 0.2216 0.0
H1473 H 0.52133 0.53553 0.26064 0.0
H1474 H 0.51118 0.50817 0.26342 0.0
H1475 H 0.51623 0.51851 0.23823 0.0
H1476 H 0.60883 0.55558 0.09236 0.0
H1477 H 0.59296 0.52963 0.11481 0.0
H1478 H 0.55578 0.55687 0.1194 0.0
H1479 H 0.56732 0.49094 0.14903 0.0
H1480 H 0.58225 0.49633 0.12607 0.0
H1481 H 0.55498 0.47855 0.12492 0.0
H1482 H 0.52233 0.53871 0.13203 0.0
H1483 H 0.52192 0.52498 0.15438 0.0
H1484 H 0.50955 0.51067 0.13093 0.0
H1485 H 0.41314 0.38726 0.11231 0.0
H1486 H 0.38969 0.34938 0.11338 0.0
H1487 H 0.4122 0.35814 0.12917 0.0
H1488 H 0.40963 0.345 0.10458 0.0
H1489 H 0.47249 0.39091 0.11419 0.0
H1490 H 0.43716 0.42008 0.11084 0.0
H1491 H 0.5072 0.42301 0.15135 0.0
H1492 H 0.51938 0.43652 0.12863 0.0
H1493 H 0.50599 0.40844 0.12816 0.0
H1494 H 0.4483 0.45331 0.12532 0.0
H1495 H 0.47562 0.47043 0.12427 0.0
H1496 H 0.46409 0.45949 0.14818 0.0
H1497 H 0.51733 0.47575 0.26048 0.0
H1498 H 0.55784 0.52394 0.20902 0.0
H1499 H 0.55746 0.52321 0.17226 0.0
H1500 H 0.51477 0.47381 0.11871 0.0
H1501 H 0.47268 0.42664 0.1702 0.0
H1502 H 0.47325 0.42723 0.20706 0.0
H1503 H 0.64028 0.58016 0.11355 0.0
H1504 H 0.62006 0.56238 0.12961 0.0
H1505 H 0.62583 0.58875 0.12844 0.0
C1506 C 0.44135 0.01999 0.31357 0.0
C1507 C 0.4273 0.01539 0.29479 0.0
C1508 C 0.44126 0.00114 0.26948 0.0
C1509 C 0.45907 0.0202 0.26553 0.0
C1510 C 0.47414 0.02098 0.25267 0.0
C1511 C 0.47148 0.00236 0.24358 0.0
C1512 C 0.45357 0.98316 0.24735 0.0
C1513 C 0.43863 0.98284 0.26016 0.0
C1514 C 0.49306 0.04174 0.24896 0.0
C1515 C 0.45034 0.96301 0.23799 0.0
C1516 C 0.57492 0.00766 0.31223 0.0
C1517 C 0.57874 0.99587 0.29482 0.0
C1518 C 0.56835 0.00604 0.26452 0.0
C1519 C 0.55151 0.98712 0.25726 0.0
C1520 C 0.53597 0.98673 0.24554 0.0
C1521 C 0.53738 0.00568 0.24101 0.0
C1522 C 0.55468 0.02481 0.24782 0.0
C1523 C 0.57012 0.02473 0.2593 0.0
C1524 C 0.51796 0.9661 0.2381 0.0
C1525 C 0.55667 0.04529 0.24324 0.0
C1526 C 0.57575 0.02517 0.11067 0.0
C1527 C 0.55981 0.00475 0.11388 0.0
C1528 C 0.54201 0.00098 0.12383 0.0
C1529 C 0.54018 0.01797 0.13078 0.0
C1530 C 0.55585 0.03851 0.1268 0.0
C1531 C 0.57335 0.0418 0.11656 0.0
C1532 C 0.52527 0.97887 0.12723 0.0
C1533 C 0.55429 0.05698 0.13378 0.0
C1534 C 0.40827 0.02469 0.12191 0.0
C1535 C 0.4164 0.02135 0.10147 0.0
C1536 C 0.43852 0.00844 0.11258 0.0
C1537 C 0.43969 0.99059 0.11383 0.0
C1538 C 0.45623 0.99122 0.12376 0.0
C1539 C 0.47208 0.01029 0.13257 0.0
C1540 C 0.4713 0.02856 0.13095 0.0
C1541 C 0.45449 0.02747 0.12103 0.0
C1542 C 0.45664 0.97146 0.12514 0.0
C1543 C 0.4881 0.04918 0.14001 0.0
C1544 C 0.48775 0.00308 0.23057 0.0
C1545 C 0.50403 0.00328 0.24046 0.0
C1546 C 0.52062 0.00543 0.2294 0.0
C1547 C 0.52111 0.00745 0.20785 0.0
C1548 C 0.53772 0.00996 0.19632 0.0
C1549 C 0.53825 0.01234 0.17518 0.0
C1550 C 0.52203 0.01197 0.16467 0.0
C1551 C 0.52243 0.01437 0.14316 0.0
C1552 C 0.50598 0.01374 0.13316 0.0
C1553 C 0.48908 0.01094 0.14413 0.0
C1554 C 0.48851 0.00876 0.16569 0.0
C1555 C 0.47187 0.00621 0.17724 0.0
C1556 C 0.47159 0.0044 0.19849 0.0
C1557 C 0.4878 0.00476 0.20897 0.0
C1558 C 0.50461 0.00707 0.1976 0.0
C1559 C 0.50502 0.00922 0.17596 0.0
C1560 C 0.6177 0.02909 0.1242 0.0
C1561 C 0.6041 0.01952 0.10489 0.0
O1562 O 0.42646 0.99963 0.28225 0.0
O1563 O 0.42165 0.00639 0.10329 0.0
O1564 O 0.5934 0.02944 0.10157 0.0
O1565 O 0.58291 0.00663 0.27684 0.0
H1566 H 0.43322 0.02972 0.28594 0.0
H1567 H 0.45716 0.02547 0.3087 0.0
H1568 H 0.43592 0.00577 0.32247 0.0
H1569 H 0.44174 0.03237 0.32378 0.0
H1570 H 0.46151 0.0346 0.27246 0.0
H1571 H 0.42489 0.9682 0.26321 0.0
H1572 H 0.50659 0.04207 0.25553 0.0
H1573 H 0.49226 0.05496 0.25602 0.0
H1574 H 0.49541 0.04396 0.23216 0.0
H1575 H 0.4358 0.94931 0.2428 0.0
H1576 H 0.46317 0.96104 0.24257 0.0
H1577 H 0.45023 0.96346 0.22094 0.0
H1578 H 0.56474 0.98021 0.29272 0.0
H1579 H 0.57185 0.99935 0.32681 0.0
H1580 H 0.56142 0.00877 0.30833 0.0
H1581 H 0.58833 0.02367 0.31463 0.0
H1582 H 0.55053 0.97266 0.26067 0.0
H1583 H 0.58332 0.03925 0.26485 0.0
H1584 H 0.50384 0.96393 0.2452 0.0
H1585 H 0.51966 0.9528 0.24197 0.0
H1586 H 0.51605 0.96591 0.22115 0.0
H1587 H 0.57074 0.05878 0.25024 0.0
H1588 H 0.54324 0.04563 0.24916 0.0
H1589 H 0.55691 0.04699 0.22633 0.0
H1590 H 0.59351 0.00273 0.10737 0.0
H1591 H 0.56101 0.99168 0.10841 0.0
H1592 H 0.58556 0.05748 0.11363 0.0
H1593 H 0.52403 0.97603 0.14396 0.0
H1594 H 0.52811 0.96735 0.11918 0.0
H1595 H 0.51039 0.9763 0.12174 0.0
H1596 H 0.56797 0.07198 0.1298 0.0
H1597 H 0.55235 0.05696 0.15072 0.0
H1598 H 0.54063 0.05582 0.1265 0.0
H1599 H 0.42997 0.03627 0.09705 0.0
H1600 H 0.40374 0.03642 0.12033 0.0
H1601 H 0.4202 0.03046 0.13423 0.0
H1602 H 0.39484 0.00987 0.12673 0.0
H1603 H 0.42736 0.97602 0.1072 0.0
H1604 H 0.45395 0.04149 0.12013 0.0
H1605 H 0.45725 0.96817 0.14155 0.0
H1606 H 0.4706 0.97344 0.1178 0.0
H1607 H 0.44308 0.95786 0.11754 0.0
H1608 H 0.48588 0.0622 0.13639 0.0
H1609 H 0.50307 0.05258 0.13407 0.0
H1610 H 0.48867 0.04838 0.157 0.0
H1611 H 0.50392 0.00204 0.25705 0.0
H1612 H 0.5506 0.01027 0.20355 0.0
H1613 H 0.55155 0.01443 0.16718 0.0
H1614 H 0.50637 0.01553 0.11664 0.0
H1615 H 0.45891 0.00572 0.17 0.0
H1616 H 0.45846 0.00263 0.20659 0.0
H1617 H 0.62658 0.02147 0.12683 0.0
H1618 H 0.60812 0.02681 0.13786 0.0
H1619 H 0.62843 0.04605 0.12269 0.0
C1620 C 0.56789 0.99855 0.7038 0.0
C1621 C 0.5845 0.01056 0.72044 0.0
C1622 C 0.56532 0.00163 0.75188 0.0
C1623 C 0.56852 0.02092 0.75901 0.0
C1624 C 0.55418 0.02208 0.77151 0.0
C1625 C 0.53634 0.00354 0.77698 0.0
C1626 C 0.53343 0.98403 0.77039 0.0
C1627 C 0.54816 0.98334 0.75809 0.0
C1628 C 0.55794 0.04312 0.77863 0.0
C1629 C 0.51458 0.96398 0.77599 0.0
C1630 C 0.39628 0.00046 0.72767 0.0
C1631 C 0.40849 0.99574 0.74173 0.0
C1632 C 0.44379 0.00784 0.75147 0.0
C1633 C 0.43963 0.99029 0.76237 0.0
C1634 C 0.45491 0.9902 0.77411 0.0
C1635 C 0.47459 0.00833 0.77572 0.0
C1636 C 0.47882 0.02606 0.76483 0.0
C1637 C 0.46342 0.02543 0.75257 0.0
C1638 C 0.44993 0.97056 0.78462 0.0
C1639 C 0.49958 0.04569 0.76613 0.0
C1640 C 0.43823 0.00843 0.9038 0.0
C1641 C 0.4355 0.98924 0.8968 0.0
C1642 C 0.4517 0.98807 0.88822 0.0
C1643 C 0.47107 0.0064 0.88681 0.0
C1644 C 0.47415 0.02554 0.8949 0.0
C1645 C 0.45767 0.02626 0.90344 0.0
C1646 C 0.44802 0.96729 0.88019 0.0
C1647 C 0.49467 0.04532 0.89387 0.0
C1648 C 0.5877 0.9658 0.89195 0.0
C1649 C 0.58756 0.9838 0.90355 0.0
C1650 C 0.5555 0.98313 0.90452 0.0
C1651 C 0.53498 0.96818 0.90074 0.0
C1652 C 0.52166 0.97358 0.89213 0.0
C1653 C 0.52902 0.99459 0.88779 0.0
C1654 C 0.5494 0.01004 0.89316 0.0
C1655 C 0.5625 0.00412 0.90136 0.0
C1656 C 0.49993 0.95672 0.88701 0.0
C1657 C 0.55754 0.03269 0.88954 0.0
C1658 C 0.52045 0.00467 0.78899 0.0
C1659 C 0.50582 0.00656 0.77812 0.0
C1660 C 0.49077 0.00842 0.78837 0.0
C1661 C 0.49051 0.00884 0.81015 0.0
C1662 C 0.47622 0.01169 0.82103 0.0
C1663 C 0.47539 0.01098 0.84238 0.0
C1664 C 0.48886 0.00743 0.85371 0.0
C1665 C 0.48752 0.00573 0.87534 0.0
C1666 C 0.50109 0.00212 0.88614 0.0
C1667 C 0.51601 0.0 0.87583 0.0
C1668 C 0.5176 0.00172 0.85419 0.0
C1669 C 0.53237 0.99963 0.84329 0.0
C1670 C 0.53362 0.00101 0.822 0.0
C1671 C 0.5198 0.00399 0.81069 0.0
C1672 C 0.50479 0.00615 0.82131 0.0
C1673 C 0.50386 0.00527 0.84311 0.0
C1674 C 0.40002 0.01147 0.88697 0.0
C1675 C 0.40259 0.99952 0.90412 0.0
O1676 O 0.5784 0.00029 0.73875 0.0
O1677 O 0.56819 0.97684 0.91101 0.0
O1678 O 0.42267 0.01031 0.91132 0.0
O1679 O 0.42943 0.0083 0.7396 0.0
H1680 H 0.58678 0.02638 0.72242 0.0
H1681 H 0.55358 0.99779 0.70844 0.0
H1682 H 0.56472 0.98242 0.70152 0.0
H1683 H 0.5727 0.00649 0.68897 0.0
H1684 H 0.58222 0.03509 0.75483 0.0
H1685 H 0.54599 0.96852 0.75264 0.0
H1686 H 0.54596 0.04544 0.77198 0.0
H1687 H 0.5731 0.05603 0.77401 0.0
H1688 H 0.55692 0.04387 0.79565 0.0
H1689 H 0.51449 0.95008 0.76944 0.0
H1690 H 0.50078 0.96367 0.77029 0.0
H1691 H 0.51359 0.96303 0.793 0.0
H1692 H 0.40298 0.97884 0.74207 0.0
H1693 H 0.3874 0.98608 0.71738 0.0
H1694 H 0.40686 0.01012 0.71521 0.0
H1695 H 0.38206 0.01138 0.7477 0.0
H1696 H 0.42465 0.9764 0.76155 0.0
H1697 H 0.46655 0.03886 0.74405 0.0
H1698 H 0.44802 0.97246 0.80133 0.0
H1699 H 0.46249 0.96739 0.78284 0.0
H1700 H 0.43559 0.95681 0.77842 0.0
H1701 H 0.49951 0.05901 0.75938 0.0
H1702 H 0.51066 0.04304 0.75764 0.0
H1703 H 0.505 0.04988 0.78241 0.0
H1704 H 0.39828 0.98402 0.8973 0.0
H1705 H 0.42086 0.97508 0.89811 0.0
H1706 H 0.45976 0.04092 0.9093 0.0
H1707 H 0.45012 0.96763 0.86328 0.0
H1708 H 0.43243 0.95429 0.8835 0.0
H1709 H 0.45932 0.9642 0.88721 0.0
H1710 H 0.49487 0.05877 0.90176 0.0
H1711 H 0.49872 0.04893 0.87751 0.0
H1712 H 0.50657 0.0432 0.90103 0.0
H1713 H 0.59171 0.99595 0.89206 0.0
H1714 H 0.60323 0.97094 0.88627 0.0
H1715 H 0.57704 0.96047 0.87847 0.0
H1716 H 0.58276 0.95242 0.90198 0.0
H1717 H 0.52966 0.95208 0.90368 0.0
H1718 H 0.57822 0.01582 0.90512 0.0
H1719 H 0.4965 0.95684 0.87044 0.0
H1720 H 0.48937 0.95975 0.89605 0.0
H1721 H 0.49686 0.941 0.89046 0.0
H1722 H 0.57253 0.043 0.89743 0.0
H1723 H 0.54656 0.03717 0.89501 0.0
H1724 H 0.55945 0.03526 0.87277 0.0
H1725 H 0.50602 0.00633 0.76142 0.0
H1726 H 0.46541 0.01436 0.81313 0.0
H1727 H 0.46391 0.01306 0.84987 0.0
H1728 H 0.49974 0.00047 0.90267 0.0
H1729 H 0.54318 0.99688 0.85106 0.0
H1730 H 0.54533 0.99935 0.81447 0.0
H1731 H 0.38384 0.00338 0.8816 0.0
H1732 H 0.40953 0.01231 0.87369 0.0
H1733 H 0.4049 0.02759 0.89236 0.0
C1734 C 0.99621 0.57096 0.70822 0.0
C1735 C 0.98539 0.57627 0.72503 0.0
C1736 C 0.99544 0.56573 0.75549 0.0
C1737 C 0.97703 0.54773 0.76022 0.0
C1738 C 0.97696 0.53215 0.77149 0.0
C1739 C 0.99568 0.53467 0.77819 0.0
C1740 C 0.01424 0.5531 0.77399 0.0
C1741 C 0.01384 0.56855 0.76288 0.0
C1742 C 0.95687 0.51289 0.7761 0.0
C1743 C 0.03447 0.55627 0.78091 0.0
C1744 C 0.0072 0.39692 0.72958 0.0
C1745 C 0.01138 0.4148 0.74355 0.0
C1746 C 0.99945 0.4389 0.7497 0.0
C1747 C 0.01618 0.45408 0.76161 0.0
C1748 C 0.01498 0.46955 0.77306 0.0
C1749 C 0.99642 0.4694 0.77317 0.0
C1750 C 0.97964 0.45431 0.76091 0.0
C1751 C 0.98154 0.43946 0.74904 0.0
C1752 C 0.0336 0.48601 0.78507 0.0
C1753 C 0.95964 0.45367 0.76057 0.0
C1754 C 0.99471 0.43136 0.90213 0.0
C1755 C 0.01274 0.447 0.89338 0.0
C1756 C 0.01347 0.46412 0.88454 0.0
C1757 C 0.99569 0.4654 0.88399 0.0
C1758 C 0.97759 0.44981 0.89295 0.0
C1759 C 0.97741 0.43308 0.90203 0.0
C1760 C 0.03318 0.48069 0.87552 0.0
C1761 C 0.95836 0.45066 0.89262 0.0
C1762 C 0.02075 0.61704 0.89865 0.0
C1763 C 0.01067 0.60302 0.91679 0.0
C1764 C 0.01421 0.57281 0.91042 0.0
C1765 C 0.02972 0.5693 0.90451 0.0
C1766 C 0.02524 0.55088 0.89376 0.0
C1767 C 0.00466 0.53544 0.88926 0.0
C1768 C 0.98882 0.53838 0.89626 0.0
C1769 C 0.99375 0.55708 0.90678 0.0
C1770 C 0.04251 0.54812 0.88675 0.0
C1771 C 0.96672 0.52191 0.89225 0.0
C1772 C 0.99575 0.51774 0.78914 0.0
C1773 C 0.99544 0.50171 0.77725 0.0
C1774 C 0.9946 0.48479 0.78647 0.0
C1775 C 0.99353 0.4835 0.80813 0.0
C1776 C 0.99134 0.46608 0.81785 0.0
C1777 C 0.99158 0.46552 0.8392 0.0
C1778 C 0.99426 0.48246 0.85166 0.0
C1779 C 0.99586 0.48263 0.87336 0.0
C1780 C 0.99869 0.49983 0.88525 0.0
C1781 C 0.99989 0.51693 0.87604 0.0
C1782 C 0.998 0.51689 0.85439 0.0
C1783 C 0.99882 0.53371 0.84465 0.0
C1784 C 0.99757 0.53381 0.82331 0.0
C1785 C 0.99603 0.51736 0.81086 0.0
C1786 C 0.99491 0.50015 0.82037 0.0
C1787 C 0.99555 0.49976 0.84217 0.0
C1788 C 0.00778 0.39833 0.89038 0.0
C1789 C 0.00761 0.40855 0.91115 0.0
O1790 O 0.99589 0.58047 0.74365 0.0
O1791 O 0.01959 0.59133 0.91999 0.0
O1792 O 0.99315 0.41437 0.91071 0.0
O1793 O 1.00013 0.42374 0.73844 0.0
H1794 H 0.96964 0.5627 0.72623 0.0
H1795 H 0.99634 0.55677 0.71209 0.0
H1796 H 0.01224 0.58395 0.70677 0.0
H1797 H 0.98811 0.56788 0.69316 0.0
H1798 H 0.96268 0.54585 0.75527 0.0
H1799 H 0.02795 0.58263 0.75933 0.0
H1800 H 0.95608 0.49909 0.76834 0.0
H1801 H 0.94359 0.51381 0.77084 0.0
H1802 H 0.95574 0.51047 0.79292 0.0
H1803 H 0.04757 0.5712 0.77587 0.0
H1804 H 0.03612 0.54329 0.77465 0.0
H1805 H 0.03505 0.5561 0.79796 0.0
H1806 H 0.0279 0.42621 0.74654 0.0
H1807 H 0.02211 0.4019 0.72182 0.0
H1808 H 0.99953 0.39802 0.71531 0.0
H1809 H 0.99318 0.37132 0.74857 0.0
H1810 H 0.03034 0.45421 0.76179 0.0
H1811 H 0.9688 0.42781 0.73959 0.0
H1812 H 0.03168 0.48252 0.80164 0.0
H1813 H 0.0356 0.5016 0.78348 0.0
H1814 H 0.04772 0.48661 0.77993 0.0
H1815 H 0.94742 0.43956 0.75214 0.0
H1816 H 0.96169 0.46758 0.75296 0.0
H1817 H 0.95463 0.45409 0.77653 0.0
H1818 H 0.02298 0.42243 0.91451 0.0
H1819 H 0.02632 0.44603 0.89324 0.0
H1820 H 0.96359 0.421 0.90885 0.0
H1821 H 0.03163 0.47971 0.85848 0.0
H1822 H 0.04627 0.47899 0.87972 0.0
H1823 H 0.03663 0.49639 0.88088 0.0
H1824 H 0.94529 0.43684 0.89944 0.0
H1825 H 0.95425 0.4517 0.87652 0.0
H1826 H 0.96103 0.46484 0.90135 0.0
H1827 H 0.99416 0.59285 0.91295 0.0
H1828 H 0.01394 0.62673 0.89613 0.0
H1829 H 0.0183 0.60734 0.88441 0.0
H1830 H 0.03744 0.62738 0.90151 0.0
H1831 H 0.04543 0.58137 0.9078 0.0
H1832 H 0.9816 0.55919 0.91229 0.0
H1833 H 0.04192 0.54605 0.86971 0.0
H1834 H 0.04081 0.53388 0.89326 0.0
H1835 H 0.05769 0.5616 0.89152 0.0
H1836 H 0.95618 0.5258 0.90015 0.0
H1837 H 0.96371 0.5067 0.8975 0.0
H1838 H 0.96336 0.52011 0.87544 0.0
H1839 H 0.99606 0.50252 0.76061 0.0
H1840 H 0.98954 0.45272 0.80904 0.0
H1841 H 0.98998 0.45176 0.8458 0.0
H1842 H 0.00041 0.5001 0.90185 0.0
H1843 H 0.00045 0.54703 0.8534 0.0
H1844 H 0.99828 0.54715 0.81668 0.0
H1845 H 0.99249 0.38448 0.88665 0.0
H1846 H 0.0192 0.39347 0.89078 0.0
H1847 H 0.01192 0.40948 0.87793 0.0
C1848 C 0.5512 0.6025 0.70875 0.0
C1849 C 0.56587 0.6083 0.72724 0.0
C1850 C 0.54538 0.57882 0.74942 0.0
C1851 C 0.53125 0.58458 0.75536 0.0
C1852 C 0.51434 0.57151 0.76721 0.0
C1853 C 0.51152 0.55237 0.77336 0.0
C1854 C 0.52586 0.54669 0.76773 0.0
C1855 C 0.54265 0.56005 0.7559 0.0
C1856 C 0.49936 0.57807 0.77308 0.0
C1857 C 0.52334 0.5264 0.77406 0.0
C1858 C 0.38411 0.45094 0.69501 0.0
C1859 C 0.39431 0.44704 0.71305 0.0
C1860 C 0.40725 0.46811 0.74482 0.0
C1861 C 0.42238 0.46361 0.7495 0.0
C1862 C 0.43863 0.47676 0.763 0.0
C1863 C 0.43982 0.49483 0.77183 0.0
C1864 C 0.42421 0.49902 0.76766 0.0
C1865 C 0.40791 0.48536 0.75441 0.0
C1866 C 0.45475 0.47155 0.76752 0.0
C1867 C 0.42506 0.51819 0.77677 0.0
C1868 C 0.40492 0.46335 0.90128 0.0
C1869 C 0.41849 0.45754 0.89365 0.0
C1870 C 0.43689 0.47216 0.88475 0.0
C1871 C 0.44172 0.49296 0.88335 0.0
C1872 C 0.42858 0.49907 0.89203 0.0
C1873 C 0.41041 0.48417 0.9011 0.0
C1874 C 0.45092 0.46529 0.87634 0.0
C1875 C 0.43343 0.52118 0.89112 0.0
C1876 C 0.60018 0.61968 0.88715 0.0
C1877 C 0.58467 0.61246 0.90446 0.0
C1878 C 0.55438 0.57736 0.89931 0.0
C1879 C 0.54909 0.55733 0.89253 0.0
C1880 C 0.52939 0.54298 0.88496 0.0
C1881 C 0.51467 0.54891 0.88418 0.0
C1882 C 0.51943 0.56858 0.89251 0.0
C1883 C 0.53922 0.58257 0.90022 0.0
C1884 C 0.52461 0.52186 0.87682 0.0
C1885 C 0.50383 0.57509 0.89244 0.0
C1886 C 0.49334 0.5381 0.78533 0.0
C1887 C 0.47543 0.52407 0.77443 0.0
C1888 C 0.45788 0.50978 0.78462 0.0
C1889 C 0.45804 0.50945 0.80634 0.0
C1890 C 0.44067 0.49528 0.81707 0.0
C1891 C 0.44108 0.49496 0.83846 0.0
C1892 C 0.45899 0.50855 0.84993 0.0
C1893 C 0.45977 0.50794 0.87165 0.0
C1894 C 0.47796 0.52143 0.8825 0.0
C1895 C 0.49543 0.53572 0.87221 0.0
C1896 C 0.49484 0.53684 0.85057 0.0
C1897 C 0.51209 0.55133 0.83983 0.0
C1898 C 0.51159 0.55192 0.8185 0.0
C1899 C 0.49383 0.53801 0.80706 0.0
C1900 C 0.47613 0.52357 0.81759 0.0
C1901 C 0.47663 0.52304 0.83939 0.0
C1902 C 0.35274 0.42414 0.8971 0.0
C1903 C 0.3743 0.42875 0.90165 0.0
O1904 O 0.56164 0.59062 0.73736 0.0
O1905 O 0.57418 0.59095 0.90483 0.0
O1906 O 0.3864 0.44929 0.90869 0.0
O1907 O 0.39211 0.45637 0.73082 0.0
H1908 H 0.56425 0.61913 0.73807 0.0
H1909 H 0.5352 0.59518 0.71384 0.0
H1910 H 0.55232 0.59136 0.69792 0.0
H1911 H 0.55489 0.61664 0.70042 0.0
H1912 H 0.53316 0.59913 0.75074 0.0
H1913 H 0.55364 0.55575 0.75137 0.0
H1914 H 0.48415 0.56678 0.76614 0.0
H1915 H 0.50414 0.59383 0.76788 0.0
H1916 H 0.49768 0.57793 0.79006 0.0
H1917 H 0.53562 0.52405 0.76808 0.0
H1918 H 0.50839 0.51324 0.76832 0.0
H1919 H 0.52344 0.52602 0.79112 0.0
H1920 H 0.41076 0.45443 0.7092 0.0
H1921 H 0.38569 0.44361 0.68054 0.0
H1922 H 0.39153 0.46793 0.69295 0.0
H1923 H 0.36765 0.44455 0.69786 0.0
H1924 H 0.42155 0.44988 0.74255 0.0
H1925 H 0.39601 0.48854 0.75082 0.0
H1926 H 0.45739 0.47225 0.7844 0.0
H1927 H 0.46935 0.48324 0.76064 0.0
H1928 H 0.45051 0.45587 0.7612 0.0
H1929 H 0.41203 0.51954 0.7715 0.0
H1930 H 0.4395 0.5323 0.77246 0.0
H1931 H 0.42494 0.51781 0.79383 0.0
H1932 H 0.37993 0.42612 0.8867 0.0
H1933 H 0.41469 0.44158 0.89454 0.0
H1934 H 0.4 0.48856 0.90738 0.0
H1935 H 0.45094 0.46565 0.85928 0.0
H1936 H 0.44619 0.44929 0.88073 0.0
H1937 H 0.46679 0.47615 0.88201 0.0
H1938 H 0.4216 0.52343 0.89853 0.0
H1939 H 0.43476 0.52558 0.87481 0.0
H1940 H 0.44836 0.53188 0.89892 0.0
H1941 H 0.57444 0.61833 0.90087 0.0
H1942 H 0.60933 0.63694 0.88718 0.0
H1943 H 0.59204 0.61379 0.87205 0.0
H1944 H 0.61063 0.61369 0.88882 0.0
H1945 H 0.56072 0.55323 0.89246 0.0
H1946 H 0.54264 0.59747 0.90677 0.0
H1947 H 0.52311 0.52104 0.85977 0.0
H1948 H 0.50984 0.50952 0.88286 0.0
H1949 H 0.53671 0.51861 0.88103 0.0
H1950 H 0.50954 0.59046 0.90048 0.0
H1951 H 0.48973 0.56329 0.89999 0.0
H1952 H 0.49967 0.57594 0.8763 0.0
H1953 H 0.47521 0.52411 0.75773 0.0
H1954 H 0.42653 0.48427 0.80906 0.0
H1955 H 0.4272 0.48376 0.84586 0.0
H1956 H 0.47858 0.52065 0.8991 0.0
H1957 H 0.52626 0.56239 0.84776 0.0
H1958 H 0.52535 0.56333 0.81109 0.0
H1959 H 0.34611 0.42724 0.911 0.0
H1960 H 0.34267 0.40765 0.89172 0.0
H1961 H 0.35321 0.43423 0.88478 0.0
C1962 C 0.63083 0.73673 0.63417 0.0
C1963 C 0.64015 0.73466 0.61394 0.0
C1964 C 0.64838 0.76653 0.59656 0.0
C1965 C 0.62805 0.76061 0.592 0.0
C1966 C 0.62357 0.77384 0.58163 0.0
C1967 C 0.63967 0.79333 0.57551 0.0
C1968 C 0.66009 0.79947 0.58022 0.0
C1969 C 0.66416 0.78596 0.59069 0.0
C1970 C 0.60161 0.76687 0.5769 0.0
C1971 C 0.67761 0.82018 0.5739 0.0
C1972 C 0.59553 0.88887 0.64108 0.0
C1973 C 0.61352 0.89454 0.62694 0.0
C1974 C 0.61149 0.8741 0.59644 0.0
C1975 C 0.63193 0.87964 0.59483 0.0
C1976 C 0.63715 0.86667 0.58389 0.0
C1977 C 0.62153 0.84763 0.57472 0.0
C1978 C 0.60087 0.84199 0.57648 0.0
C1979 C 0.59617 0.85558 0.58696 0.0
C1980 C 0.65933 0.87338 0.58196 0.0
C1981 C 0.58372 0.82159 0.5674 0.0
C1982 C 0.61498 0.87432 0.44865 0.0
C1983 C 0.63478 0.87897 0.45347 0.0
C1984 C 0.63811 0.86363 0.46076 0.0
C1985 C 0.62127 0.84335 0.46347 0.0
C1986 C 0.6015 0.83826 0.45713 0.0
C1987 C 0.59866 0.85384 0.44954 0.0
C1988 C 0.6595 0.8694 0.46663 0.0
C1989 C 0.58326 0.81672 0.4595 0.0
C1990 C 0.62134 0.70284 0.45576 0.0
C1991 C 0.62013 0.71247 0.43585 0.0
C1992 C 0.632 0.74909 0.44557 0.0
C1993 C 0.64858 0.76948 0.44509 0.0
C1994 C 0.64781 0.78613 0.45453 0.0
C1995 C 0.6298 0.78228 0.46443 0.0
C1996 C 0.61268 0.76178 0.4644 0.0
C1997 C 0.61404 0.74536 0.45529 0.0
C1998 C 0.66638 0.80776 0.45434 0.0
C1999 C 0.59301 0.75711 0.47438 0.0
C2000 C 0.63517 0.80677 0.5632 0.0
C2001 C 0.63127 0.82092 0.57361 0.0
C2002 C 0.62675 0.83383 0.56281 0.0
C2003 C 0.62648 0.83294 0.54103 0.0
C2004 C 0.62278 0.84626 0.5297 0.0
C2005 C 0.622 0.8449 0.50831 0.0
C2006 C 0.62488 0.83015 0.49736 0.0
C2007 C 0.62398 0.82857 0.47558 0.0
C2008 C 0.62586 0.81305 0.4652 0.0
C2009 C 0.62924 0.79934 0.47607 0.0
C2010 C 0.63131 0.80146 0.4978 0.0
C2011 C 0.63581 0.78869 0.50912 0.0
C2012 C 0.63728 0.79053 0.53051 0.0
C2013 C 0.63418 0.80511 0.54144 0.0
C2014 C 0.62986 0.81829 0.53033 0.0
C2015 C 0.62873 0.81666 0.50848 0.0
C2016 C 0.60539 0.91492 0.45909 0.0
C2017 C 0.62117 0.90951 0.45192 0.0
O2018 O 0.65345 0.75415 0.60652 0.0
O2019 O 0.63415 0.73369 0.43665 0.0
O2020 O 0.61107 0.88929 0.44362 0.0
O2021 O 0.60616 0.88624 0.60731 0.0
H2022 H 0.6277 0.72534 0.60238 0.0
H2023 H 0.62191 0.74431 0.63176 0.0
H2024 H 0.64298 0.74625 0.64591 0.0
H2025 H 0.62037 0.72111 0.64024 0.0
H2026 H 0.61553 0.7457 0.59637 0.0
H2027 H 0.67977 0.79048 0.59425 0.0
H2028 H 0.59809 0.77844 0.58356 0.0
H2029 H 0.59076 0.75144 0.58309 0.0
H2030 H 0.59914 0.766 0.55997 0.0
H2031 H 0.69258 0.8231 0.57955 0.0
H2032 H 0.67547 0.8329 0.57995 0.0
H2033 H 0.67786 0.82068 0.55684 0.0
H2034 H 0.62167 0.88726 0.63354 0.0
H2035 H 0.60112 0.89574 0.65685 0.0
H2036 H 0.58602 0.8717 0.64204 0.0
H2037 H 0.58576 0.89451 0.6351 0.0
H2038 H 0.64378 0.8942 0.60194 0.0
H2039 H 0.58044 0.85151 0.58833 0.0
H2040 H 0.66301 0.8728 0.56551 0.0
H2041 H 0.66229 0.86246 0.5901 0.0
H2042 H 0.66968 0.88936 0.58856 0.0
H2043 H 0.56855 0.81821 0.57269 0.0
H2044 H 0.58581 0.80862 0.57161 0.0
H2045 H 0.58387 0.82207 0.55036 0.0
H2046 H 0.6302 0.91085 0.46593 0.0
H2047 H 0.64757 0.89465 0.45195 0.0
H2048 H 0.58349 0.85035 0.44535 0.0
H2049 H 0.66119 0.87059 0.48367 0.0
H2050 H 0.67116 0.88452 0.46043 0.0
H2051 H 0.66249 0.85715 0.46091 0.0
H2052 H 0.56902 0.81505 0.45314 0.0
H2053 H 0.58112 0.81315 0.47607 0.0
H2054 H 0.58594 0.80506 0.45154 0.0
H2055 H 0.60442 0.70948 0.43393 0.0
H2056 H 0.61043 0.68577 0.45494 0.0
H2057 H 0.61731 0.70958 0.46909 0.0
H2058 H 0.637 0.70593 0.45844 0.0
H2059 H 0.66235 0.77226 0.43756 0.0
H2060 H 0.60104 0.72975 0.45607 0.0
H2061 H 0.67092 0.81432 0.47035 0.0
H2062 H 0.66267 0.81803 0.44597 0.0
H2063 H 0.67954 0.80802 0.44684 0.0
H2064 H 0.58016 0.74125 0.46996 0.0
H2065 H 0.58887 0.76862 0.47007 0.0
H2066 H 0.59504 0.75825 0.49138 0.0
H2067 H 0.63152 0.8217 0.59032 0.0
H2068 H 0.62042 0.85789 0.53723 0.0
H2069 H 0.61892 0.85547 0.5005 0.0
H2070 H 0.62462 0.81158 0.44853 0.0
H2071 H 0.63827 0.77713 0.50159 0.0
H2072 H 0.64072 0.78022 0.53836 0.0
H2073 H 0.59522 0.91336 0.4461 0.0
H2074 H 0.61312 0.93111 0.46572 0.0
H2075 H 0.59584 0.90422 0.47118 0.0
C2076 C 0.10773 0.71438 0.65337 0.0
C2077 C 0.1016 0.72515 0.63791 0.0
C2078 C 0.12158 0.73969 0.60734 0.0
C2079 C 0.1202 0.7575 0.60606 0.0
C2080 C 0.1345 0.77449 0.59494 0.0
C2081 C 0.15054 0.77366 0.58505 0.0
C2082 C 0.15171 0.75554 0.58603 0.0
C2083 C 0.13698 0.73863 0.59694 0.0
C2084 C 0.13247 0.79333 0.59378 0.0
C2085 C 0.16858 0.75409 0.57565 0.0
C2086 C 0.28186 0.89124 0.6388 0.0
C2087 C 0.28023 0.9032 0.62101 0.0
C2088 C 0.24531 0.87902 0.60715 0.0
C2089 C 0.24881 0.86373 0.59863 0.0
C2090 C 0.23297 0.84575 0.58849 0.0
C2091 C 0.21345 0.84331 0.58644 0.0
C2092 C 0.20991 0.85864 0.59512 0.0
C2093 C 0.22588 0.87622 0.60547 0.0
C2094 C 0.23714 0.82953 0.57962 0.0
C2095 C 0.18934 0.85663 0.59317 0.0
C2096 C 0.2357 0.88316 0.45741 0.0
C2097 C 0.23702 0.86519 0.45693 0.0
C2098 C 0.22213 0.84708 0.46627 0.0
C2099 C 0.20552 0.84688 0.47603 0.0
C2100 C 0.20391 0.86478 0.47605 0.0
C2101 C 0.21918 0.88277 0.46693 0.0
C2102 C 0.22437 0.8283 0.46613 0.0
C2103 C 0.18626 0.86506 0.48605 0.0
C2104 C 0.05657 0.69538 0.46052 0.0
C2105 C 0.07077 0.71646 0.4513 0.0
C2106 C 0.10758 0.74008 0.45954 0.0
C2107 C 0.12568 0.74041 0.46323 0.0
C2108 C 0.14333 0.75859 0.47052 0.0
C2109 C 0.14265 0.7768 0.47463 0.0
C2110 C 0.12483 0.77703 0.46958 0.0
C2111 C 0.10749 0.7587 0.46181 0.0
C2112 C 0.16234 0.75799 0.47487 0.0
C2113 C 0.12381 0.79637 0.47332 0.0
C2114 C 0.16584 0.79157 0.57331 0.0
C2115 C 0.18232 0.80818 0.58415 0.0
C2116 C 0.19711 0.82556 0.57398 0.0
C2117 C 0.1957 0.82635 0.55238 0.0
C2118 C 0.21039 0.84354 0.54167 0.0
C2119 C 0.20887 0.84421 0.52044 0.0
C2120 C 0.19244 0.82784 0.50908 0.0
C2121 C 0.1906 0.82852 0.4875 0.0
C2122 C 0.17426 0.81179 0.47661 0.0
C2123 C 0.15944 0.79445 0.48681 0.0
C2124 C 0.16078 0.79375 0.50846 0.0
C2125 C 0.14579 0.77681 0.51927 0.0
C2126 C 0.14739 0.77607 0.54047 0.0
C2127 C 0.16402 0.79225 0.55175 0.0
C2128 C 0.17909 0.80963 0.54124 0.0
C2129 C 0.17745 0.8104 0.51957 0.0
C2130 C 0.27424 0.92316 0.4243 0.0
C2131 C 0.26511 0.90352 0.4356 0.0
O2132 O 0.10835 0.72338 0.61858 0.0
O2133 O 0.09073 0.72138 0.45429 0.0
O2134 O 0.24999 0.90114 0.44897 0.0
O2135 O 0.25997 0.89669 0.61714 0.0
H2136 H 0.10935 0.74176 0.64344 0.0
H2137 H 0.12462 0.72219 0.65423 0.0
H2138 H 0.10136 0.69777 0.64868 0.0
H2139 H 0.10221 0.71536 0.66896 0.0
H2140 H 0.10787 0.75804 0.61361 0.0
H2141 H 0.13775 0.7247 0.59788 0.0
H2142 H 0.14565 0.80681 0.60193 0.0
H2143 H 0.1182 0.79085 0.60083 0.0
H2144 H 0.1327 0.79737 0.57747 0.0
H2145 H 0.16822 0.73956 0.57916 0.0
H2146 H 0.18364 0.76763 0.58062 0.0
H2147 H 0.16716 0.75457 0.55872 0.0
H2148 H 0.28706 0.90065 0.60693 0.0
H2149 H 0.27349 0.87429 0.63498 0.0
H2150 H 0.27531 0.89393 0.65301 0.0
H2151 H 0.29808 0.89635 0.64194 0.0
H2152 H 0.2638 0.8657 0.59973 0.0
H2153 H 0.22335 0.88809 0.61215 0.0
H2154 H 0.22533 0.81388 0.5846 0.0
H2155 H 0.25241 0.83261 0.58435 0.0
H2156 H 0.23631 0.82926 0.56255 0.0
H2157 H 0.18929 0.87028 0.6002 0.0
H2158 H 0.17772 0.84246 0.60084 0.0
H2159 H 0.18475 0.85485 0.57668 0.0
H2160 H 0.27625 0.90009 0.44262 0.0
H2161 H 0.24978 0.86532 0.44963 0.0
H2162 H 0.21826 0.89667 0.46714 0.0
H2163 H 0.22489 0.82401 0.48219 0.0
H2164 H 0.23837 0.83105 0.45822 0.0
H2165 H 0.21091 0.81486 0.45826 0.0
H2166 H 0.18591 0.87921 0.48254 0.0
H2167 H 0.1875 0.86456 0.50301 0.0
H2168 H 0.1716 0.85111 0.48083 0.0
H2169 H 0.06788 0.72781 0.4596 0.0
H2170 H 0.0404 0.69101 0.45873 0.0
H2171 H 0.06011 0.6962 0.47722 0.0
H2172 H 0.05854 0.68309 0.45287 0.0
H2173 H 0.12578 0.72612 0.46094 0.0
H2174 H 0.09397 0.75907 0.45804 0.0
H2175 H 0.1642 0.75754 0.49174 0.0
H2176 H 0.17603 0.77222 0.46944 0.0
H2177 H 0.16164 0.74411 0.46739 0.0
H2178 H 0.109 0.7942 0.46814 0.0
H2179 H 0.13629 0.80946 0.46506 0.0
H2180 H 0.12606 0.80084 0.49 0.0
H2181 H 0.1835 0.8077 0.60073 0.0
H2182 H 0.22331 0.85669 0.54955 0.0
H2183 H 0.22074 0.85778 0.51308 0.0
H2184 H 0.17305 0.81229 0.46004 0.0
H2185 H 0.13259 0.76389 0.5115 0.0
H2186 H 0.13539 0.76263 0.5479 0.0
H2187 H 0.29072 0.93227 0.42952 0.0
H2188 H 0.27007 0.93367 0.43291 0.0
H2189 H 0.26528 0.91293 0.39355 0.0
C2190 C 0.1176 0.38125 0.65096 0.0
C2191 C 0.10504 0.37448 0.63078 0.0
C2192 C 0.12494 0.36514 0.60779 0.0
C2193 C 0.14127 0.38556 0.60513 0.0
C2194 C 0.15805 0.3893 0.59319 0.0
C2195 C 0.15849 0.37234 0.58368 0.0
C2196 C 0.14209 0.35181 0.58628 0.0
C2197 C 0.12552 0.34852 0.59829 0.0
C2198 C 0.17533 0.41137 0.5907 0.0
C2199 C 0.1421 0.33336 0.57641 0.0
C2200 C 0.26639 0.37898 0.65397 0.0
C2201 C 0.26339 0.36454 0.63535 0.0
C2202 C 0.25499 0.37643 0.605 0.0
C2203 C 0.23794 0.35811 0.59703 0.0
C2204 C 0.22317 0.35884 0.58505 0.0
C2205 C 0.22557 0.37834 0.58102 0.0
C2206 C 0.24317 0.39689 0.58843 0.0
C2207 C 0.25785 0.39568 0.60016 0.0
C2208 C 0.20481 0.33876 0.57701 0.0
C2209 C 0.24622 0.41791 0.5843 0.0
C2210 C 0.25758 0.38567 0.44861 0.0
C2211 C 0.24052 0.36645 0.45347 0.0
C2212 C 0.22421 0.36553 0.46424 0.0
C2213 C 0.22487 0.38418 0.47007 0.0
C2214 C 0.24163 0.4035 0.46444 0.0
C2215 C 0.25771 0.40396 0.45362 0.0
C2216 C 0.20632 0.34462 0.46958 0.0
C2217 C 0.2427 0.42364 0.47024 0.0
C2218 C 0.08848 0.38494 0.46253 0.0
C2219 C 0.09494 0.3781 0.44291 0.0
C2220 C 0.11998 0.36935 0.45521 0.0
C2221 C 0.12276 0.35278 0.45873 0.0
C2222 C 0.14096 0.3561 0.46748 0.0
C2223 C 0.15682 0.37661 0.47282 0.0
C2224 C 0.15442 0.39357 0.46875 0.0
C2225 C 0.13598 0.38979 0.46001 0.0
C2226 C 0.14302 0.33764 0.47152 0.0
C2227 C 0.17112 0.41562 0.47422 0.0
C2228 C 0.17608 0.37603 0.57098 0.0
C2229 C 0.19268 0.37686 0.58082 0.0
C2230 C 0.20928 0.37917 0.56965 0.0
C2231 C 0.20954 0.38092 0.54807 0.0
C2232 C 0.22593 0.3831 0.53637 0.0
C2233 C 0.22577 0.38424 0.51506 0.0
C2234 C 0.20914 0.3831 0.50461 0.0
C2235 C 0.20848 0.38345 0.48289 0.0
C2236 C 0.19158 0.38199 0.47296 0.0
C2237 C 0.17515 0.38004 0.48421 0.0
C2238 C 0.1756 0.37981 0.50594 0.0
C2239 C 0.15929 0.37783 0.5177 0.0
C2240 C 0.15953 0.37687 0.53901 0.0
C2241 C 0.17604 0.37775 0.5494 0.0
C2242 C 0.1928 0.38013 0.5379 0.0
C2243 C 0.1926 0.3812 0.51615 0.0
C2244 C 0.30009 0.38597 0.45678 0.0
C2245 C 0.28234 0.375 0.44119 0.0
O2246 O 0.10845 0.36066 0.61939 0.0
O2247 O 0.10153 0.36467 0.44753 0.0
O2248 O 0.27384 0.3872 0.43859 0.0
O2249 O 0.26867 0.37583 0.61766 0.0
H2250 H 0.10942 0.38839 0.62169 0.0
H2251 H 0.13415 0.38939 0.64782 0.0
H2252 H 0.1136 0.36754 0.66019 0.0
H2253 H 0.11466 0.39213 0.66019 0.0
H2254 H 0.14117 0.39869 0.61231 0.0
H2255 H 0.1129 0.33285 0.6004 0.0
H2256 H 0.18972 0.41324 0.59684 0.0
H2257 H 0.17258 0.42293 0.59881 0.0
H2258 H 0.1775 0.41478 0.5741 0.0
H2259 H 0.12832 0.31835 0.58017 0.0
H2260 H 0.15584 0.33328 0.58163 0.0
H2261 H 0.14284 0.33461 0.55942 0.0
H2262 H 0.24699 0.35198 0.63475 0.0
H2263 H 0.26227 0.37025 0.66836 0.0
H2264 H 0.25642 0.38552 0.65224 0.0
H2265 H 0.28249 0.39207 0.6553 0.0
H2266 H 0.23616 0.34324 0.60028 0.0
H2267 H 0.27125 0.40973 0.60624 0.0
H2268 H 0.20273 0.3394 0.56021 0.0
H2269 H 0.19093 0.33663 0.58466 0.0
H2270 H 0.20615 0.32505 0.57988 0.0
H2271 H 0.26062 0.43086 0.59138 0.0
H2272 H 0.23322 0.41891 0.59047 0.0
H2273 H 0.2465 0.4199 0.56744 0.0
H2274 H 0.27113 0.35971 0.44737 0.0
H2275 H 0.23966 0.3521 0.44865 0.0
H2276 H 0.27075 0.41869 0.44942 0.0
H2277 H 0.20499 0.34366 0.48657 0.0
H2278 H 0.20778 0.33151 0.46337 0.0
H2279 H 0.19199 0.34284 0.46337 0.0
H2280 H 0.25656 0.43736 0.46429 0.0
H2281 H 0.24272 0.42551 0.48727 0.0
H2282 H 0.229 0.42325 0.46409 0.0
H2283 H 0.10741 0.39206 0.43558 0.0
H2284 H 0.08277 0.39533 0.45871 0.0
H2285 H 0.10166 0.39363 0.47339 0.0
H2286 H 0.07629 0.37124 0.47038 0.0
H2287 H 0.11038 0.33709 0.45488 0.0
H2288 H 0.13416 0.40284 0.45733 0.0
H2289 H 0.1452 0.33696 0.48829 0.0
H2290 H 0.1567 0.33941 0.46373 0.0
H2291 H 0.12945 0.3227 0.46601 0.0
H2292 H 0.16751 0.42722 0.46882 0.0
H2293 H 0.18568 0.41877 0.46735 0.0
H2294 H 0.17349 0.41769 0.49119 0.0
H2295 H 0.19248 0.37524 0.59736 0.0
H2296 H 0.23904 0.38384 0.54355 0.0
H2297 H 0.23879 0.38584 0.50688 0.0
H2298 H 0.19098 0.38183 0.45628 0.0
H2299 H 0.14607 0.37689 0.51056 0.0
H2300 H 0.14651 0.37525 0.54722 0.0
H2301 H 0.30721 0.3765 0.45897 0.0
H2302 H 0.29442 0.38805 0.47188 0.0
H2303 H 0.31186 0.40153 0.45151 0.0
C2304 C 0.01711 0.39029 0.06288 0.0
C2305 C 0.99706 0.37334 0.05993 0.0
H2306 H 0.03793 0.41664 0.08206 0.0
C2307 C 0.98229 0.37035 0.07449 0.0
H2308 H 0.02884 0.39315 0.05189 0.0
C2309 C 0.98762 0.38371 0.09192 0.0
C2310 C 0.00774 0.40041 0.095 0.0
H2311 H 0.96673 0.35742 0.07267 0.0
H2312 H 0.97605 0.38087 0.10311 0.0
C2313 C 0.02235 0.40375 0.08015 0.0
C2314 C 0.63307 0.60396 0.05549 0.0
C2315 C 0.62881 0.61974 0.06007 0.0
H2316 H 0.63029 0.57556 0.06484 0.0
C2317 C 0.61911 0.61926 0.07858 0.0
H2318 H 0.64064 0.60395 0.0414 0.0
C2319 C 0.61335 0.60314 0.09197 0.0
C2320 C 0.61682 0.5869 0.087 0.0
H2321 H 0.61589 0.63133 0.08274 0.0
H2322 H 0.60589 0.6032 0.10612 0.0
C2323 C 0.62711 0.58768 0.06883 0.0
C2324 C 0.3852 0.02216 0.05612 0.0
C2325 C 0.36969 0.0011 0.05367 0.0
H2326 H 0.41205 0.04496 0.07303 0.0
C2327 C 0.36936 0.98681 0.06726 0.0
H2328 H 0.38587 0.03362 0.04601 0.0
C2329 C 0.38433 0.99333 0.0827 0.0
C2330 C 0.40017 0.01426 0.08474 0.0
H2331 H 0.35754 0.97051 0.066 0.0
H2332 H 0.38359 0.98197 0.09299 0.0
C2333 C 0.40025 0.02866 0.07151 0.0
C2334 C 0.37801 0.0111 0.94982 0.0
C2335 C 0.36269 0.99101 0.95516 0.0
H2336 H 0.40277 0.02947 0.9299 0.0
C2337 C 0.36037 0.97378 0.94349 0.0
H2338 H 0.38034 0.02472 0.95856 0.0
C2339 C 0.37311 0.97656 0.92695 0.0
C2340 C 0.38857 0.99662 0.92179 0.0
H2341 H 0.34873 0.95811 0.94714 0.0
H2342 H 0.37096 0.96299 0.91826 0.0
C2343 C 0.39089 0.01385 0.93343 0.0
C2344 C 0.97811 0.36454 0.94808 0.0
C2345 C 0.99392 0.36583 0.96025 0.0
H2346 H 0.96999 0.37677 0.92303 0.0
C2347 C 0.01423 0.38067 0.95568 0.0
H2348 H 0.9623 0.35318 0.95099 0.0
C2349 C 0.01858 0.39431 0.93978 0.0
C2350 C 0.00274 0.3935 0.92814 0.0
H2351 H 0.02681 0.38205 0.96464 0.0
H2352 H 0.03435 0.4057 0.93674 0.0
C2353 C 0.98248 0.37811 0.93211 0.0
C2354 C 0.61866 0.62481 0.95211 0.0
C2355 C 0.61427 0.63798 0.96395 0.0
H2356 H 0.61253 0.60621 0.92431 0.0
C2357 C 0.60001 0.64262 0.95625 0.0
H2358 H 0.62946 0.6208 0.95763 0.0
C2359 C 0.59055 0.63449 0.93702 0.0
C2360 C 0.59506 0.62145 0.92515 0.0
H2361 H 0.59631 0.65275 0.96496 0.0
H2362 H 0.57971 0.6384 0.93141 0.0
C2363 C 0.60904 0.61651 0.93299 0.0
C2364 C 0.03415 0.63885 0.96473 0.0
C2365 C 0.01767 0.64037 0.97207 0.0
H2366 H 0.04487 0.626 0.94155 0.0
C2367 C 0.999 0.62978 0.961 0.0
H2368 H 0.04878 0.6469 0.97275 0.0
C2369 C 0.99679 0.61778 0.9432 0.0
C2370 C 0.01314 0.61599 0.93611 0.0
H2371 H 0.98601 0.63069 0.96609 0.0
H2372 H 0.98225 0.60983 0.93499 0.0
C2373 C 0.03192 0.62685 0.9469 0.0
C2374 C 0.37716 0.38484 0.92596 0.0
C2375 C 0.37022 0.38506 0.94596 0.0
H2376 H 0.38375 0.39834 0.89636 0.0
C2377 C 0.36575 0.40046 0.95172 0.0
H2378 H 0.38071 0.37319 0.92102 0.0
C2379 C 0.36774 0.415 0.93767 0.0
C2380 C 0.37396 0.41428 0.91746 0.0
H2381 H 0.36052 0.40119 0.96705 0.0
H2382 H 0.36399 0.42655 0.94245 0.0
C2383 C 0.37888 0.39922 0.91183 0.0
C2384 C 0.61619 0.98799 0.95336 0.0
C2385 C 0.6329 0.00852 0.95314 0.0
H2386 H 0.58858 0.9643 0.93823 0.0
C2387 C 0.63439 0.02098 0.93682 0.0
H2388 H 0.61447 0.97804 0.96581 0.0
C2389 C 0.6197 0.01302 0.92095 0.0
C2390 C 0.60307 0.99249 0.92113 0.0
H2391 H 0.64705 0.03686 0.93616 0.0
H2392 H 0.62139 0.02293 0.90847 0.0
C2393 C 0.60135 0.98012 0.93761 0.0
C2394 C 0.64025 0.04271 0.05985 0.0
C2395 C 0.64109 0.02551 0.05196 0.0
H2396 H 0.62801 0.05432 0.08269 0.0
C2397 C 0.62993 0.00646 0.06172 0.0
H2398 H 0.64872 0.05764 0.05282 0.0
C2399 C 0.61805 0.00459 0.07874 0.0
C2400 C 0.6169 0.02166 0.08635 0.0
H2401 H 0.63029 0.9929 0.05619 0.0
H2402 H 0.60965 0.98974 0.08594 0.0
C2403 C 0.62835 0.04082 0.0769 0.0
C2404 C 0.97924 0.61729 0.06769 0.0
C2405 C 0.99979 0.6333 0.07005 0.0
H2406 H 0.95419 0.59 0.08017 0.0
C2407 C 0.01091 0.63385 0.08749 0.0
H2408 H 0.9703 0.61627 0.05432 0.0
C2409 C 0.00158 0.61894 0.1024 0.0
C2410 C 0.98101 0.60305 0.1001 0.0
H2411 H 0.02677 0.64596 0.08977 0.0
H2412 H 0.01044 0.6199 0.11581 0.0
C2413 C 0.97001 0.60222 0.08245 0.0
C2414 C 0.38364 0.37312 0.05731 0.0
C2415 C 0.39035 0.36498 0.04145 0.0
H2416 H 0.38685 0.38337 0.08904 0.0
C2417 C 0.40682 0.36226 0.04555 0.0
H2418 H 0.37095 0.37535 0.05476 0.0
C2419 C 0.41585 0.36683 0.06517 0.0
C2420 C 0.40881 0.37448 0.08112 0.0
H2421 H 0.41237 0.35596 0.03377 0.0
H2422 H 0.42799 0.36383 0.06803 0.0
C2423 C 0.39273 0.37775 0.07695 0.0
C2424 C 0.64825 0.6979 0.39642 0.0
C2425 C 0.63254 0.68518 0.38209 0.0
H2426 H 0.65667 0.7166 0.4245 0.0
C2427 C 0.61265 0.68072 0.386 0.0
H2428 H 0.66375 0.70164 0.39391 0.0
C2429 C 0.60864 0.68922 0.40351 0.0
C2430 C 0.62445 0.70254 0.41743 0.0
H2431 H 0.60014 0.67082 0.37541 0.0
H2432 H 0.59319 0.68563 0.40598 0.0
C2433 C 0.64424 0.70653 0.4139 0.0
C2434 C 0.29498 0.92895 0.39408 0.0
C2435 C 0.28192 0.94316 0.39338 0.0
H2436 H 0.29066 0.89508 0.4056 0.0
C2437 C 0.25555 0.93169 0.40049 0.0
H2438 H 0.31046 0.936 0.38874 0.0
C2439 C 0.2416 0.90585 0.40997 0.0
C2440 C 0.25756 0.89454 0.41586 0.0
H2441 H 0.24794 0.9403 0.39883 0.0
H2442 H 0.22629 0.89941 0.41566 0.0
C2443 C 0.28243 0.90302 0.40344 0.0
C2444 C 0.06007 0.36618 0.39599 0.0
C2445 C 0.0449 0.34525 0.39859 0.0
H2446 H 0.08765 0.39288 0.4079 0.0
C2447 C 0.04554 0.33561 0.41647 0.0
H2448 H 0.06001 0.37416 0.38249 0.0
C2449 C 0.06139 0.34637 0.43098 0.0
C2450 C 0.07707 0.36695 0.42786 0.0
H2451 H 0.03405 0.31958 0.41909 0.0
H2452 H 0.06168 0.33844 0.44444 0.0
C2453 C 0.07596 0.37692 0.4105 0.0
C2454 C 0.06417 0.32916 0.29846 0.0
C2455 C 0.04487 0.30766 0.31257 0.0
H2456 H 0.09482 0.33934 0.27588 0.0
C2457 C 0.04532 0.2841 0.31549 0.0
H2458 H 0.06409 0.34347 0.29806 0.0
C2459 C 0.06438 0.2806 0.30322 0.0
C2460 C 0.08007 0.30051 0.28442 0.0
H2461 H 0.03419 0.27201 0.32497 0.0
H2462 H 0.06374 0.2659 0.30355 0.0
C2463 C 0.084 0.3272 0.28552 0.0
C2464 C 0.66658 0.73653 0.29698 0.0
C2465 C 0.67894 0.72215 0.3019 0.0
H2466 H 0.67334 0.7707 0.28365 0.0
C2467 C 0.70615 0.73354 0.29953 0.0
H2468 H 0.65042 0.72952 0.29957 0.0
C2469 C 0.72185 0.7595 0.29052 0.0
C2470 C 0.70735 0.771 0.28024 0.0
H2471 H 0.71309 0.72473 0.30349 0.0
H2472 H 0.73779 0.76575 0.28725 0.0
C2473 C 0.68085 0.76254 0.28804 0.0
C2474 C 0.26751 0.98744 0.3039 0.0
C2475 C 0.28088 0.98063 0.30897 0.0
H2476 H 0.24542 0.98554 0.28248 0.0
C2477 C 0.28261 0.96681 0.29517 0.0
H2478 H 0.26594 0.99826 0.31402 0.0
C2479 C 0.27068 0.95941 0.27708 0.0
C2480 C 0.25683 0.96573 0.27243 0.0
H2481 H 0.29281 0.96131 0.29857 0.0
H2482 H 0.27201 0.94849 0.26686 0.0
C2483 C 0.25571 0.98015 0.28582 0.0
C2484 C 0.71791 0.97422 0.31032 0.0
C2485 C 0.69853 0.97165 0.31307 0.0
H2486 H 0.73858 0.9724 0.28945 0.0
C2487 C 0.68432 0.96329 0.29656 0.0
H2488 H 0.72925 0.9806 0.32267 0.0
C2489 C 0.68971 0.95849 0.27749 0.0
C2490 C 0.70932 0.96178 0.27462 0.0
H2491 H 0.6693 0.96119 0.29809 0.0
H2492 H 0.67877 0.95281 0.26479 0.0
C2493 C 0.72327 0.96946 0.2913 0.0
C2494 C 0.04745 0.73074 0.26775 0.0
C2495 C 0.04076 0.73098 0.28784 0.0
H2496 H 0.05186 0.74282 0.23761 0.0
C2497 C 0.03455 0.7451 0.29326 0.0
H2498 H 0.05222 0.71995 0.26307 0.0
C2499 C 0.03471 0.75846 0.27877 0.0
C2500 C 0.04059 0.7576 0.25843 0.0
H2501 H 0.02944 0.74572 0.30868 0.0
H2502 H 0.02981 0.76916 0.28332 0.0
C2503 C 0.04719 0.74378 0.25315 0.0
C2504 C 0.27188 0.30899 0.28952 0.0
C2505 C 0.28753 0.32954 0.2861 0.0
H2506 H 0.24508 0.28155 0.27739 0.0
C2507 C 0.28756 0.33831 0.26735 0.0
H2508 H 0.27128 0.3018 0.30385 0.0
C2509 C 0.27265 0.3266 0.25215 0.0
C2510 C 0.25726 0.30596 0.25543 0.0
H2511 H 0.29937 0.35407 0.2642 0.0
H2512 H 0.27335 0.33361 0.23767 0.0
C2513 C 0.25684 0.29739 0.27441 0.0
C2514 C 0.29522 0.34903 0.39703 0.0
C2515 C 0.30547 0.36537 0.38349 0.0
H2516 H 0.27993 0.33931 0.42576 0.0
C2517 C 0.30775 0.38478 0.38884 0.0
H2518 H 0.29329 0.33393 0.3935 0.0
C2519 C 0.30011 0.38781 0.40728 0.0
C2520 C 0.28979 0.37146 0.42075 0.0
H2521 H 0.31567 0.39778 0.37889 0.0
H2522 H 0.30241 0.40302 0.41112 0.0
C2523 C 0.28753 0.35208 0.41549 0.0
C2524 C 0.66743 0.95486 0.42734 0.0
C2525 C 0.65962 0.95473 0.40774 0.0
H2526 H 0.66136 0.94072 0.45662 0.0
C2527 C 0.63949 0.93902 0.40238 0.0
H2528 H 0.68284 0.96674 0.43197 0.0
C2529 C 0.62733 0.92408 0.41639 0.0
C2530 C 0.63494 0.92453 0.43614 0.0
H2531 H 0.633 0.93833 0.38737 0.0
H2532 H 0.61179 0.91237 0.41194 0.0
C2533 C 0.65516 0.93998 0.44144 0.0
C2534 C 0.04346 0.71381 0.40114 0.0
C2535 C 0.05348 0.70808 0.38661 0.0
H2536 H 0.04136 0.72122 0.43293 0.0
C2537 C 0.07013 0.7066 0.39324 0.0
H2538 H 0.03054 0.71502 0.39659 0.0
C2539 C 0.0761 0.70991 0.41392 0.0
C2540 C 0.06592 0.71529 0.42853 0.0
H2541 H 0.0782 0.70212 0.38259 0.0
H2542 H 0.08841 0.70771 0.4185 0.0
C2543 C 0.04966 0.71741 0.4219 0.0
C2544 C 0.32438 0.04764 0.7333 0.0
C2545 C 0.30837 0.0329 0.72028 0.0
H2546 H 0.33285 0.06775 0.76038 0.0
C2547 C 0.28817 0.02649 0.72541 0.0
H2548 H 0.34011 0.05289 0.72982 0.0
C2549 C 0.28406 0.03485 0.74292 0.0
C2550 C 0.30005 0.04995 0.75565 0.0
H2551 H 0.27544 0.01502 0.71585 0.0
H2552 H 0.26834 0.02969 0.74634 0.0
C2553 C 0.32025 0.05614 0.75079 0.0
C2554 C 0.92333 0.25961 0.718 0.0
C2555 C 0.94962 0.27385 0.71028 0.0
H2556 H 0.89765 0.22699 0.73569 0.0
C2557 C 0.9661 0.26342 0.71241 0.0
H2558 H 0.91369 0.26596 0.71564 0.0
C2559 C 0.95715 0.23881 0.72394 0.0
C2560 C 0.93211 0.22801 0.73678 0.0
H2561 H 0.98153 0.27207 0.70688 0.0
H2562 H 0.96743 0.23336 0.72703 0.0
C2563 C 0.9129 0.23489 0.72961 0.0
C2564 C 0.72532 0.6992 0.72195 0.0
C2565 C 0.71037 0.67849 0.72587 0.0
H2566 H 0.75344 0.72647 0.73189 0.0
C2567 C 0.71209 0.66987 0.74403 0.0
H2568 H 0.72445 0.7064 0.70817 0.0
C2569 C 0.72869 0.68139 0.75756 0.0
C2570 C 0.74408 0.70174 0.75316 0.0
H2571 H 0.70079 0.65406 0.74767 0.0
H2572 H 0.72973 0.67424 0.7713 0.0
C2573 C 0.74198 0.7107 0.73547 0.0
C2574 C 0.70291 0.6137 0.63933 0.0
C2575 C 0.70393 0.63823 0.63912 0.0
H2576 H 0.72034 0.59521 0.62518 0.0
C2577 C 0.72447 0.66068 0.62715 0.0
H2578 H 0.69111 0.60099 0.64771 0.0
C2579 C 0.74419 0.65888 0.61374 0.0
C2580 C 0.73895 0.6318 0.60975 0.0
H2581 H 0.7253 0.67547 0.6285 0.0
H2582 H 0.75581 0.67175 0.60536 0.0
C2583 C 0.72175 0.61028 0.62642 0.0
C2584 C 0.33484 0.07197 0.62462 0.0
C2585 C 0.34853 0.05983 0.63297 0.0
H2586 H 0.33972 0.10341 0.60644 0.0
C2587 C 0.37591 0.07241 0.63114 0.0
H2588 H 0.31861 0.06449 0.62703 0.0
C2589 C 0.3905 0.09716 0.61939 0.0
C2590 C 0.37487 0.10582 0.60601 0.0
H2591 H 0.38366 0.06512 0.63729 0.0
H2592 H 0.4066 0.10395 0.6166 0.0
C2593 C 0.34797 0.0967 0.61276 0.0
C2594 C 0.95716 0.29728 0.61161 0.0
C2595 C 0.95153 0.3097 0.62301 0.0
H2596 H 0.95253 0.27879 0.58402 0.0
C2597 C 0.93731 0.3139 0.61433 0.0
H2598 H 0.96792 0.29358 0.61792 0.0
C2599 C 0.92872 0.30565 0.59481 0.0
C2600 C 0.93407 0.29294 0.58357 0.0
H2601 H 0.93265 0.32343 0.62269 0.0
H2602 H 0.91765 0.30898 0.58862 0.0
C2603 C 0.94837 0.28882 0.59219 0.0
C2604 C 0.37819 0.30474 0.6368 0.0
C2605 C 0.35972 0.30377 0.64111 0.0
H2606 H 0.39508 0.29757 0.61527 0.0
C2607 C 0.34363 0.29394 0.62649 0.0
H2608 H 0.39099 0.31233 0.64759 0.0
C2609 C 0.34599 0.28537 0.60801 0.0
C2610 C 0.36443 0.28632 0.60377 0.0
H2611 H 0.32924 0.29301 0.6292 0.0
H2612 H 0.33344 0.27812 0.59692 0.0
C2613 C 0.38056 0.29624 0.61831 0.0
C2614 C 0.70433 0.06447 0.61059 0.0
C2615 C 0.70851 0.04856 0.60641 0.0
H2616 H 0.70402 0.0907 0.59932 0.0
C2617 C 0.71657 0.04768 0.58721 0.0
H2618 H 0.69824 0.06572 0.62526 0.0
C2619 C 0.71977 0.062 0.57232 0.0
C2620 C 0.71521 0.07761 0.57641 0.0
H2621 H 0.71992 0.03562 0.58348 0.0
H2622 H 0.72549 0.06065 0.55745 0.0
C2623 C 0.7077 0.07884 0.59579 0.0
C2624 C 0.95259 0.67725 0.59623 0.0
C2625 C 0.95156 0.66753 0.61464 0.0
H2626 H 0.93932 0.67431 0.56636 0.0
C2627 C 0.93521 0.64711 0.61721 0.0
H2628 H 0.96497 0.69294 0.59372 0.0
C2629 C 0.92044 0.63656 0.60163 0.0
C2630 C 0.92175 0.64612 0.58305 0.0
H2631 H 0.93385 0.63917 0.63123 0.0
H2632 H 0.90816 0.62077 0.60393 0.0
C2633 C 0.9379 0.66661 0.58056 0.0
C2634 C 0.97232 0.72205 0.71804 0.0
C2635 C 0.9687 0.70202 0.71319 0.0
H2636 H 0.97067 0.74246 0.74069 0.0
C2637 C 0.95896 0.68654 0.72769 0.0
H2638 H 0.97979 0.7344 0.7073 0.0
C2639 C 0.95361 0.69121 0.74686 0.0
C2640 C 0.95774 0.71138 0.75184 0.0
H2641 H 0.95602 0.67098 0.72453 0.0
H2642 H 0.94672 0.6792 0.75801 0.0
C2643 C 0.96702 0.7267 0.73716 0.0
C2644 C 0.30193 0.27528 0.73033 0.0
C2645 C 0.32216 0.2904 0.73605 0.0
H2646 H 0.27322 0.24991 0.73977 0.0
C2647 C 0.32905 0.29081 0.75619 0.0
H2648 H 0.29618 0.27441 0.71488 0.0
C2649 C 0.31577 0.27693 0.77049 0.0
C2650 C 0.29544 0.26216 0.76488 0.0
H2651 H 0.34452 0.30226 0.76109 0.0
H2652 H 0.32131 0.27796 0.78607 0.0
C2653 C 0.28877 0.26123 0.74454 0.0
C2654 C 0.72049 0.0421 0.71909 0.0
C2655 C 0.7266 0.03304 0.70356 0.0
H2656 H 0.72467 0.0538 0.75041 0.0
C2657 C 0.743 0.03023 0.7077 0.0
H2658 H 0.70785 0.04439 0.7165 0.0
C2659 C 0.75256 0.0356 0.72708 0.0
C2660 C 0.7461 0.04411 0.74275 0.0
H2661 H 0.74813 0.02329 0.69616 0.0
H2662 H 0.76467 0.03256 0.73 0.0
C2663 C 0.7301 0.04749 0.73851 0.0
C2664 C 0.07909 0.36574 0.03244 0.0
C2665 C 0.05377 0.34666 0.04039 0.0
H2666 H 0.11641 0.37976 0.04066 0.0
C2667 C 0.0494 0.33207 0.06325 0.0
H2668 H 0.08104 0.37473 0.0191 0.0
C2669 C 0.07044 0.33497 0.07827 0.0
C2670 C 0.09571 0.35019 0.06599 0.0
H2671 H 0.03398 0.32141 0.06798 0.0
H2672 H 0.068 0.32513 0.09102 0.0
C2673 C 0.10122 0.3698 0.04638 0.0
C2674 C 0.67015 0.71919 0.04259 0.0
C2675 C 0.67884 0.707 0.04559 0.0
H2676 H 0.6732 0.74893 0.0473 0.0
C2677 C 0.69664 0.71514 0.05785 0.0
H2678 H 0.65652 0.7134 0.03309 0.0
C2679 C 0.70614 0.73549 0.06612 0.0
C2680 C 0.69794 0.748 0.06237 0.0
H2681 H 0.70371 0.7061 0.06035 0.0
H2682 H 0.72027 0.74171 0.07487 0.0
C2683 C 0.67972 0.73956 0.05071 0.0
C2684 C 0.2768 0.95233 0.03014 0.0
C2685 C 0.28825 0.97393 0.03422 0.0
H2686 H 0.24887 0.92367 0.03525 0.0
C2687 C 0.28066 0.98304 0.04796 0.0
H2688 H 0.28234 0.94488 0.0197 0.0
C2689 C 0.26152 0.97104 0.05656 0.0
C2690 C 0.24959 0.94959 0.05182 0.0
H2691 H 0.28915 0.99964 0.0515 0.0
H2692 H 0.25579 0.97868 0.06648 0.0
C2693 C 0.25766 0.94022 0.03898 0.0
C2694 C 0.31284 0.04555 0.97111 0.0
C2695 C 0.33146 0.05064 0.98048 0.0
H2696 H 0.29423 0.05664 0.95959 0.0
C2697 C 0.34658 0.07168 0.9838 0.0
H2698 H 0.3009 0.02948 0.96814 0.0
C2699 C 0.34277 0.08731 0.97871 0.0
C2700 C 0.32353 0.08212 0.97078 0.0
H2701 H 0.36117 0.07608 0.99077 0.0
H2702 H 0.35471 0.10336 0.98155 0.0
C2703 C 0.30894 0.0611 0.96632 0.0
C2704 C 0.97689 0.27543 0.97691 0.0
C2705 C 0.97059 0.28666 0.98935 0.0
H2706 H 0.96838 0.24637 0.96143 0.0
C2707 C 0.94998 0.27719 0.99467 0.0
H2708 H 0.99271 0.28227 0.97269 0.0
C2709 C 0.93602 0.25669 0.98807 0.0
C2710 C 0.94238 0.2453 0.97596 0.0
H2711 H 0.9447 0.28545 0.00431 0.0
H2712 H 0.92031 0.24955 0.9928 0.0
C2713 C 0.96296 0.25489 0.97042 0.0
C2714 C 0.71663 0.66189 0.97883 0.0
C2715 C 0.70653 0.6729 0.97709 0.0
H2716 H 0.74447 0.66212 0.97423 0.0
C2717 C 0.71622 0.69188 0.96713 0.0
H2718 H 0.70954 0.64724 0.98645 0.0
C2719 C 0.73617 0.70046 0.96045 0.0
C2720 C 0.74679 0.69014 0.96334 0.0
H2721 H 0.7088 0.7007 0.96545 0.0
H2722 H 0.74356 0.71559 0.95375 0.0
C2723 C 0.73662 0.67044 0.97196 0.0
C2724 C 0.97006 0.6957 0.97913 0.0
C2725 C 0.96301 0.67709 0.98936 0.0
H2726 H 0.96231 0.71565 0.96431 0.0
C2727 C 0.94192 0.66331 0.99099 0.0
H2728 H 0.98623 0.70675 0.97778 0.0
C2729 C 0.92816 0.66834 0.98299 0.0
C2730 C 0.93524 0.6872 0.97322 0.0
H2731 H 0.93606 0.64895 -0.00107 0.0
H2732 H 0.91197 0.65776 0.98493 0.0
C2733 C 0.95635 0.70081 0.97135 0.0
C2734 C 0.29843 0.28622 0.95914 0.0
C2735 C 0.31776 0.29479 0.96864 0.0
H2736 H 0.26984 0.25847 0.95141 0.0
C2737 C 0.32407 0.28135 0.97515 0.0
H2738 H 0.29316 0.29618 0.95389 0.0
C2739 C 0.3106 0.25986 0.97406 0.0
C2740 C 0.29071 0.25136 0.96608 0.0
H2741 H 0.33888 0.28742 0.98248 0.0
H2742 H 0.31543 0.24991 0.98035 0.0
C2743 C 0.28503 0.26468 0.95783 0.0
C2744 C 0.72504 0.02797 0.96547 0.0
C2745 C 0.71699 0.03775 0.97766 0.0
H2746 H 0.75177 0.03021 0.95252 0.0
C2747 C 0.72977 0.05874 0.98397 0.0
H2748 H 0.71559 0.0118 0.96037 0.0
C2749 C 0.7505 0.0693 0.97936 0.0
C2750 C 0.75879 0.05914 0.96823 0.0
H2751 H 0.72401 0.06669 0.99341 0.0
H2752 H 0.76025 0.08514 0.98532 0.0
C2753 C 0.74576 0.03851 0.96093 0.0
C2754 C 0.68903 0.9708 0.0447 0.0
C2755 C 0.67067 0.96519 0.03437 0.0
H2756 H 0.70605 0.96057 0.06132 0.0
C2757 C 0.65468 0.94433 0.03388 0.0
H2758 H 0.70174 0.98672 0.04515 0.0
C2759 C 0.65706 0.92936 0.04348 0.0
C2760 C 0.67548 0.93495 0.05369 0.0
H2761 H 0.64042 0.93954 0.0259 0.0
H2762 H 0.64463 0.9133 0.04263 0.0
C2763 C 0.6915 0.95582 0.05404 0.0
C2764 C 0.02578 0.73191 0.0559 0.0
C2765 C 0.03459 0.7221 0.04501 0.0
H2766 H 0.0281 0.76073 0.06491 0.0
C2767 C 0.05431 0.73437 0.03728 0.0
H2768 H 0.01061 0.72289 0.06206 0.0
C2769 C 0.06429 0.75605 0.03892 0.0
C2770 C 0.05484 0.76583 0.0485 0.0
H2771 H 0.06151 0.7273 0.02881 0.0
H2772 H 0.07898 0.76518 0.03181 0.0
C2773 C 0.03576 0.75357 0.05752 0.0
C2774 C 0.2868 0.3163 0.0412 0.0
C2775 C 0.2981 0.33564 0.03203 0.0
H2776 H 0.25827 0.29381 0.05388 0.0
C2777 C 0.28977 0.34839 0.031 0.0
H2778 H 0.29276 0.30606 0.04214 0.0
C2779 C 0.27001 0.34135 0.03779 0.0
C2780 C 0.25829 0.32153 0.04589 0.0
H2781 H 0.29804 0.3633 0.02392 0.0
H2782 H 0.26354 0.35103 0.03586 0.0
C2783 C 0.26704 0.30925 0.04794 0.0
C2784 C 0.6789 0.6299 0.38731 0.0
C2785 C 0.69241 0.65613 0.37844 0.0
H2786 H 0.68331 0.60557 0.4096 0.0
C2787 C 0.71733 0.6756 0.38857 0.0
H2788 H 0.66371 0.61889 0.38139 0.0
C2789 C 0.73034 0.66899 0.40705 0.0
C2790 C 0.7181 0.64052 0.41092 0.0
H2791 H 0.7246 0.69134 0.38341 0.0
H2792 H 0.7459 0.68003 0.41197 0.0
C2793 C 0.69054 0.62171 0.40567 0.0
C2794 C 0.32839 0.04329 0.40369 0.0
C2795 C 0.34417 0.0325 0.39791 0.0
H2796 H 0.32929 0.0741 0.42182 0.0
C2797 C 0.3694 0.04339 0.4091 0.0
H2798 H 0.31322 0.03608 0.39694 0.0
C2799 C 0.38048 0.06676 0.4253 0.0
C2800 C 0.36585 0.08026 0.42565 0.0
H2801 H 0.37828 0.03632 0.40542 0.0
H2802 H 0.39631 0.07459 0.43026 0.0
C2803 C 0.33797 0.06655 0.41974 0.0
C2804 C 0.95157 0.28767 0.36527 0.0
C2805 C 0.96315 0.30951 0.36615 0.0
H2806 H 0.92298 0.26028 0.37143 0.0
C2807 C 0.95485 0.32056 0.37547 0.0
H2808 H 0.9575 0.27872 0.35806 0.0
C2809 C 0.93514 0.30998 0.38327 0.0
C2810 C 0.92337 0.28814 0.38203 0.0
H2811 H 0.96338 0.33741 0.37628 0.0
H2812 H 0.92888 0.31888 0.38986 0.0
C2813 C 0.93182 0.27709 0.37298 0.0
C2814 C 0.02509 0.39333 0.30387 0.0
C2815 C 0.01268 0.37165 0.30063 0.0
H2816 H 0.02874 0.42312 0.2989 0.0
C2817 C 0.99579 0.36365 0.28706 0.0
H2818 H 0.03821 0.39998 0.31425 0.0
C2819 C 0.99032 0.37684 0.27846 0.0
C2820 C 0.00175 0.39837 0.283 0.0
H2821 H 0.98594 0.34703 0.28418 0.0
H2822 H 0.97643 0.37004 0.26921 0.0
C2823 C 0.01967 0.40658 0.29512 0.0
C2824 C 0.65882 0.62223 0.28124 0.0
C2825 C 0.64453 0.6327 0.29309 0.0
H2826 H 0.65474 0.59342 0.25657 0.0
C2827 C 0.61859 0.62388 0.28537 0.0
H2828 H 0.67444 0.62818 0.28606 0.0
C2829 C 0.60536 0.60293 0.26642 0.0
C2830 C 0.61882 0.58892 0.25941 0.0
H2831 H 0.6107 0.63086 0.29256 0.0
H2832 H 0.5893 0.59633 0.26303 0.0
C2833 C 0.64696 0.60115 0.26219 0.0
C2834 C 0.37464 0.98482 0.31876 0.0
C2835 C 0.36938 0.00012 0.32092 0.0
H2836 H 0.39705 0.97759 0.30876 0.0
C2837 C 0.38229 0.01971 0.3128 0.0
H2838 H 0.36504 0.9696 0.32495 0.0
C2839 C 0.40051 0.02423 0.30355 0.0
C2840 C 0.40618 0.00922 0.30202 0.0
H2841 H 0.37871 0.03185 0.31425 0.0
H2842 H 0.41054 0.03975 0.2982 0.0
C2843 C 0.39292 0.98935 0.30947 0.0
C2844 C 0.60814 0.97312 0.31785 0.0
C2845 C 0.6283 0.9901 0.31798 0.0
H2846 H 0.57683 0.9617 0.31037 0.0
C2847 C 0.63249 0.00831 0.30838 0.0
H2848 H 0.60442 0.95888 0.32514 0.0
C2849 C 0.61662 0.00992 0.29993 0.0
C2850 C 0.59632 0.99325 0.30072 0.0
H2851 H 0.64786 0.02171 0.30837 0.0
H2852 H 0.62008 0.02449 0.29357 0.0
C2853 C 0.59233 0.97471 0.30938 0.0
C2854 C 0.03652 0.65629 0.28777 0.0
C2855 C 0.01147 0.65199 0.29279 0.0
H2856 H 0.05461 0.64195 0.26674 0.0
C2857 C 0.9892 0.63321 0.27781 0.0
H2858 H 0.04958 0.668 0.2967 0.0
C2859 C 0.99106 0.61677 0.25812 0.0
C2860 C 0.016 0.61797 0.25792 0.0
H2861 H 0.97455 0.63148 0.28095 0.0
H2862 H 0.97761 0.60427 0.25027 0.0
C2863 C 0.04001 0.64076 0.26847 0.0
C2864 C 0.38685 0.38698 0.31426 0.0
C2865 C 0.37442 0.36549 0.30989 0.0
H2866 H 0.41712 0.41365 0.31492 0.0
C2867 C 0.38293 0.35491 0.29994 0.0
H2868 H 0.38074 0.3956 0.32185 0.0
C2869 C 0.4038 0.36532 0.2959 0.0
C2870 C 0.4165 0.38647 0.30173 0.0
H2871 H 0.37373 0.33836 0.29633 0.0
H2872 H 0.41021 0.3566 0.28921 0.0
C2873 C 0.4077 0.39734 0.31033 0.0
C2874 C 0.35073 0.30546 0.38016 0.0
C2875 C 0.33164 0.2992 0.3711 0.0
H2876 H 0.3701 0.29588 0.39311 0.0
C2877 C 0.3165 0.27799 0.37023 0.0
H2878 H 0.36278 0.32168 0.3809 0.0
C2879 C 0.32067 0.26325 0.37737 0.0
C2880 C 0.34002 0.26939 0.38561 0.0
H2881 H 0.30169 0.27266 0.36325 0.0
H2882 H 0.30899 0.24692 0.37571 0.0
C2883 C 0.35494 0.29069 0.38718 0.0
C2884 C 0.71466 0.05637 0.37559 0.0
C2885 C 0.69391 0.0435 0.38011 0.0
H2886 H 0.73957 0.08745 0.37207 0.0
C2887 C 0.68313 0.05269 0.38778 0.0
H2888 H 0.72347 0.0498 0.36981 0.0
C2889 C 0.69249 0.07437 0.38928 0.0
C2890 C 0.71269 0.08718 0.38288 0.0
H2891 H 0.66717 0.04319 0.39153 0.0
H2892 H 0.68362 0.0811 0.39436 0.0
C2893 C 0.7239 0.07797 0.37682 0.0
C2894 C 0.95189 0.67802 0.36252 0.0
C2895 C 0.96189 0.66684 0.36371 0.0
H2896 H 0.92413 0.67788 0.36662 0.0
C2897 C 0.95162 0.64713 0.37226 0.0
H2898 H 0.95937 0.69328 0.35609 0.0
C2899 C 0.93137 0.63836 0.37848 0.0
C2900 C 0.921 0.64908 0.3761 0.0
H2901 H 0.95893 0.63816 0.37343 0.0
H2902 H 0.92353 0.62286 0.38436 0.0
C2903 C 0.93167 0.66921 0.36856 0.0
C2904 C 0.39643 0.03281 0.72779 0.0
C2905 C 0.37173 0.01082 0.72017 0.0
H2906 H 0.42666 0.04324 0.75174 0.0
C2907 C 0.3602 0.98666 0.73331 0.0
H2908 H 0.40245 0.0473 0.7201 0.0
C2909 C 0.37368 0.98302 0.7537 0.0
C2910 C 0.40098 0.00378 0.75676 0.0
H2911 H 0.34506 0.97412 0.7288 0.0
H2912 H 0.36764 0.96799 0.76032 0.0
C2913 C 0.41123 0.03078 0.74811 0.0
C2914 C 0.01768 0.37262 0.73826 0.0
C2915 C 0.99533 0.36051 0.72158 0.0
H2916 H 0.03486 0.39979 0.76726 0.0
C2917 C 0.97443 0.36478 0.7254 0.0
H2918 H 0.02968 0.36932 0.7357 0.0
C2919 C 0.97587 0.38277 0.74531 0.0
C2920 C 0.00157 0.39911 0.75781 0.0
H2921 H 0.96109 0.35682 0.71537 0.0
H2922 H 0.96424 0.38679 0.74661 0.0
C2923 C 0.02067 0.39094 0.75856 0.0
C2924 C 0.61827 0.65144 0.71076 0.0
C2925 C 0.62615 0.64015 0.70108 0.0
H2926 H 0.59315 0.6502 0.72659 0.0
C2927 C 0.61487 0.61833 0.7014 0.0
H2928 H 0.62656 0.66827 0.71071 0.0
C2929 C 0.59573 0.60799 0.71053 0.0
C2930 C 0.5876 0.61929 0.71973 0.0
H2931 H 0.62051 0.6092 0.69399 0.0
H2932 H 0.58701 0.59115 0.70986 0.0
C2933 C 0.59916 0.64112 0.7199 0.0
C2934 C 0.67769 0.72104 0.63605 0.0
C2935 C 0.66703 0.69936 0.63231 0.0
H2936 H 0.67757 0.74929 0.63308 0.0
C2937 C 0.64936 0.69006 0.61971 0.0
H2938 H 0.69129 0.72866 0.64578 0.0
C2939 C 0.64149 0.70182 0.61257 0.0
C2940 C 0.65122 0.72321 0.61766 0.0
H2941 H 0.64079 0.6734 0.61651 0.0
H2942 H 0.62712 0.69395 0.60406 0.0
C2943 C 0.66982 0.73285 0.62884 0.0
C2944 C 0.32438 0.95863 0.63334 0.0
C2945 C 0.31427 0.9677 0.643 0.0
H2946 H 0.3214 0.93112 0.61865 0.0
C2947 C 0.29287 0.95623 0.64359 0.0
H2948 H 0.34087 0.96706 0.63277 0.0
C2949 C 0.28185 0.93572 0.63592 0.0
C2950 C 0.2919 0.92627 0.62689 0.0
H2951 H 0.28459 0.96273 0.65095 0.0
H2952 H 0.26547 0.92711 0.63772 0.0
C2953 C 0.31327 0.93809 0.62533 0.0
C2954 C 0.05302 0.36731 0.64222 0.0
C2955 C 0.04207 0.34684 0.64895 0.0
H2956 H 0.08138 0.39195 0.63123 0.0
C2957 C 0.05137 0.33492 0.64835 0.0
H2958 H 0.04633 0.37693 0.64258 0.0
C2959 C 0.07148 0.34356 0.64185 0.0
C2960 C 0.0826 0.36422 0.63559 0.0
H2961 H 0.04338 0.31915 0.65358 0.0
H2962 H 0.07854 0.33429 0.64224 0.0
C2963 C 0.07309 0.37592 0.63569 0.0
C2964 C 0.28 0.32747 0.65196 0.0
C2965 C 0.30127 0.33965 0.65002 0.0
H2966 H 0.25142 0.32589 0.64881 0.0
C2967 C 0.30978 0.35892 0.6407 0.0
H2968 H 0.27299 0.3126 0.65915 0.0
C2969 C 0.29742 0.36654 0.63484 0.0
C2970 C 0.27629 0.35492 0.63799 0.0
H2971 H 0.32613 0.36871 0.63906 0.0
H2972 H 0.3045 0.38195 0.62881 0.0
C2973 C 0.26765 0.33509 0.64609 0.0
C2974 C 0.63306 0.95248 0.62324 0.0
C2975 C 0.6524 0.96145 0.6328 0.0
H2976 H 0.60572 0.92424 0.61344 0.0
C2977 C 0.65993 0.94856 0.63764 0.0
H2978 H 0.62691 0.96203 0.61918 0.0
C2979 C 0.64769 0.92702 0.63473 0.0
C2980 C 0.62777 0.91789 0.62667 0.0
H2981 H 0.67484 0.95498 0.64486 0.0
H2982 H 0.65351 0.91743 0.63967 0.0
C2983 C 0.6209 0.93087 0.62006 0.0
C2984 C 0.04944 0.71783 0.64834 0.0
C2985 C 0.03633 0.69651 0.64351 0.0
H2986 H 0.08024 0.74348 0.65038 0.0
C2987 C 0.04441 0.68527 0.63413 0.0
H2988 H 0.04368 0.72698 0.65544 0.0
C2989 C 0.06543 0.69483 0.63108 0.0
C2990 C 0.07871 0.71574 0.63751 0.0
H2991 H 0.03469 0.66884 0.63014 0.0
H2992 H 0.07143 0.68562 0.62469 0.0
C2993 C 0.07041 0.72731 0.64548 0.0
C2994 C 0.00047 0.63183 0.71325 0.0
C2995 C 0.98314 0.62839 0.70226 0.0
H2996 H 0.01486 0.61807 0.729 0.0
C2997 C 0.96601 0.60815 0.7005 0.0
H2998 H 0.01397 0.64724 0.71473 0.0
C2999 C 0.9665 0.59154 0.70872 0.0
C3000 C 0.98408 0.59479 0.71901 0.0
H3001 H 0.95244 0.60497 0.69209 0.0
H3002 H 0.95336 0.57598 0.7064 0.0
C3003 C 0.00099 0.61516 0.72143 0.0
C3004 C 0.38541 0.39246 0.70673 0.0
C3005 C 0.36484 0.38018 0.71213 0.0
H3006 H 0.41077 0.42323 0.70272 0.0
C3007 C 0.35504 0.38998 0.72094 0.0
H3008 H 0.39343 0.3854 0.69996 0.0
C3009 C 0.36502 0.41167 0.72255 0.0
C3010 C 0.38499 0.42393 0.71543 0.0
H3011 H 0.33921 0.38095 0.72534 0.0
H3012 H 0.35673 0.41886 0.72822 0.0
C3013 C 0.39534 0.41413 0.70823 0.0
C3014 C 0.62464 0.99705 0.70554 0.0
C3015 C 0.63873 0.01485 0.69521 0.0
H3016 H 0.59637 0.98166 0.72157 0.0
C3017 C 0.63591 0.03186 0.69494 0.0
H3018 H 0.62634 0.98364 0.70589 0.0
C3019 C 0.61886 0.03074 0.70395 0.0
C3020 C 0.60431 0.01265 0.71355 0.0
H3021 H 0.64648 0.04579 0.68708 0.0
H3022 H 0.61666 0.04378 0.70277 0.0
C3023 C 0.6075 0.9959 0.71453 0.0
loop_
_geom_bond_atom_site_label_1
_geom_bond_atom_site_label_2
_geom_bond_distance
_geom_bond_site_symmetry_2
_ccdc_geom_bond_type
Co0 O1 2.216 . S
Co0 O2 2.091 . S
Co0 O4 2.004 1_554 S
Co0 O10 2.021 . S
Co0 O12 2.137 1_454 S
Co0 O13 2.238 1_454 S
O1 Co0 2.216 . S
O1 C8 1.247 . S
O2 Co0 2.091 . S
O2 C8 1.261 . S
C3 O12 1.247 . S
C3 O13 1.292 . S
O4 Co0 2.004 1_556 S
O4 C9 1.259 . S
Co5 O6 2.061 . S
Co5 O11 2.052 1_556 S
Co5 O13 2.137 . S
O6 Co5 2.061 . S
O6 C9 1.235 1_655 S
C7 O10 1.238 1_655 S
C7 O11 1.241 . S
C8 O1 1.247 . S
C8 O2 1.261 . S
C9 O4 1.259 . S
C9 O6 1.235 1_455 S
O10 Co0 2.021 . S
O10 C7 1.238 1_455 S
O11 Co5 2.052 1_554 S
O11 C7 1.241 . S
O12 Co0 2.137 1_656 S
O12 C3 1.247 . S
O13 Co0 2.238 1_656 S
O13 C3 1.292 . S
O13 Co5 2.137 . S
Co14 O15 2.216 1_554 S
Co14 O16 2.091 . S
Co14 O18 2.004 . S
Co14 O24 2.021 1_554 S
Co14 O26 2.137 . S
Co14 O27 2.244 . S
O15 Co14 2.216 1_556 S
O15 C22 1.247 . S
O16 Co14 2.091 . S
O16 C22 1.261 1_554 S
C17 O26 1.247 . S
C17 O27 1.272 . S
O18 Co14 2.004 . S
O18 C23 1.259 . S
Co19 O20 2.061 . S
Co19 O25 2.090 . S
Co19 O27 2.135 . S
O20 Co19 2.061 . S
O20 C23 1.235 . S
C21 O24 1.238 . S
C21 O25 1.222 1_556 S
C22 O15 1.247 . S
C22 O16 1.261 1_556 S
C23 O18 1.259 . S
C23 O20 1.235 . S
O24 Co14 2.021 1_556 S
O24 C21 1.238 . S
O25 Co19 2.090 . S
O25 C21 1.222 1_554 S
O26 Co14 2.137 . S
O26 C17 1.247 . S
O27 Co14 2.244 . S
O27 C17 1.272 . S
O27 Co19 2.135 . S
Co28 O29 2.216 1_554 S
Co28 O30 2.091 . S
Co28 O32 2.004 . S
Co28 O38 2.021 1_554 S
Co28 O40 2.137 . S
Co28 O41 2.244 1_545 S
O29 Co28 2.216 1_556 S
O29 C36 1.247 . S
O30 Co28 2.091 . S
O30 C36 1.261 1_554 S
C31 O40 1.247 1_565 S
C31 O41 1.272 . S
O32 Co28 2.004 . S
O32 C37 1.259 . S
Co33 O34 2.061 . S
Co33 O39 2.052 1_554 S
Co33 O41 2.135 . S
O34 Co33 2.061 . S
O34 C37 1.235 1_565 S
C35 O38 1.238 1_565 S
C35 O39 1.241 . S
C36 O29 1.247 . S
C36 O30 1.261 1_556 S
C37 O32 1.259 . S
C37 O34 1.235 1_545 S
O38 Co28 2.021 1_556 S
O38 C35 1.238 1_545 S
O39 Co33 2.052 1_556 S
O39 C35 1.241 . S
O40 Co28 2.137 . S
O40 C31 1.247 1_545 S
O41 Co28 2.244 1_565 S
O41 C31 1.272 . S
O41 Co33 2.135 . S
Co42 O43 2.216 1_554 S
Co42 O44 2.091 . S
Co42 O46 2.004 . S
Co42 O52 2.021 1_554 S
Co42 O54 2.137 1_655 S
Co42 O55 2.244 1_655 S
O43 Co42 2.216 1_556 S
O43 C50 1.247 . S
O44 Co42 2.091 . S
O44 C50 1.261 1_554 S
C45 O54 1.247 . S
C45 O55 1.272 . S
O46 Co42 2.004 . S
O46 C51 1.259 . S
Co47 O48 2.061 . S
Co47 O53 2.052 1_554 S
Co47 O55 2.135 . S
O48 Co47 2.061 . S
O48 C51 1.235 1_455 S
C49 O52 1.238 1_455 S
C49 O53 1.241 . S
C50 O43 1.247 . S
C50 O44 1.261 1_556 S
C51 O46 1.259 . S
C51 O48 1.235 1_655 S
O52 Co42 2.021 1_556 S
O52 C49 1.238 1_655 S
O53 Co47 2.052 1_556 S
O53 C49 1.241 . S
O54 Co42 2.137 1_455 S
O54 C45 1.247 . S
O55 Co42 2.244 1_455 S
O55 C45 1.272 . S
O55 Co47 2.135 . S
Co56 O57 2.216 . S
Co56 O58 2.091 . S
Co56 O60 2.004 1_554 S
Co56 O66 2.021 . S
Co56 O68 2.137 1_554 S
Co56 O69 2.244 1_554 S
O57 Co56 2.216 . S
O57 C64 1.247 . S
O58 Co56 2.091 . S
O58 C64 1.261 . S
C59 O68 1.247 . S
C59 O69 1.272 . S
O60 Co56 2.004 1_556 S
O60 C65 1.259 . S
Co61 O62 2.061 . S
Co61 O67 2.052 1_556 S
Co61 O69 2.135 . S
O62 Co61 2.061 . S
O62 C65 1.235 . S
C63 O66 1.238 . S
C63 O67 1.241 . S
C64 O57 1.247 . S
C64 O58 1.261 . S
C65 O60 1.259 . S
C65 O62 1.235 . S
O66 Co56 2.021 . S
O66 C63 1.238 . S
O67 Co61 2.052 1_554 S
O67 C63 1.241 . S
O68 Co56 2.137 1_556 S
O68 C59 1.247 . S
O69 Co56 2.244 1_556 S
O69 C59 1.272 . S
O69 Co61 2.135 . S
Co70 O71 2.216 . S
Co70 O72 2.091 . S
Co70 O74 2.004 1_554 S
Co70 O80 2.021 . S
Co70 O82 2.137 1_564 S
Co70 O83 2.244 1_565 S
O71 Co70 2.216 . S
O71 C78 1.247 . S
O72 Co70 2.091 . S
O72 C78 1.261 . S
C73 O82 1.247 . S
C73 O83 1.272 1_556 S
O74 Co70 2.004 1_556 S
O74 C79 1.259 . S
Co75 O76 2.061 1_554 S
Co75 O81 2.052 . S
Co75 O83 2.135 . S
O76 Co75 2.061 1_556 S
O76 C79 1.235 1_545 S
C77 O80 1.238 1_545 S
C77 O81 1.241 . S
C78 O71 1.247 . S
C78 O72 1.261 . S
C79 O74 1.259 . S
C79 O76 1.235 1_565 S
O80 Co70 2.021 . S
O80 C77 1.238 1_565 S
O81 Co75 2.052 . S
O81 C77 1.241 . S
O82 Co70 2.137 1_546 S
O82 C73 1.247 . S
O83 Co70 2.244 1_545 S
O83 C73 1.272 1_554 S
O83 Co75 2.135 . S
Co84 O85 2.216 . S
Co84 O86 2.091 . S
Co84 O88 2.004 . S
Co84 O94 2.021 . S
Co84 O96 2.137 . S
Co84 O97 2.244 . S
O85 Co84 2.216 . S
O85 C92 1.247 . S
O86 Co84 2.091 . S
O86 C92 1.261 . S
C87 O96 1.247 . S
C87 O97 1.272 . S
O88 Co84 2.004 . S
O88 C93 1.259 . S
Co89 O90 2.061 . S
Co89 O95 2.052 . S
Co89 O97 2.135 . S
O90 Co89 2.061 . S
O90 C93 1.235 . S
C91 O94 1.238 . S
C91 O95 1.241 . S
C92 O85 1.247 . S
C92 O86 1.261 . S
C93 O88 1.259 . S
C93 O90 1.235 . S
O94 Co84 2.021 . S
O94 C91 1.238 . S
O95 Co89 2.052 . S
O95 C91 1.241 . S
O96 Co84 2.137 . S
O96 C87 1.247 . S
O97 Co84 2.244 . S
O97 C87 1.272 . S
O97 Co89 2.135 . S
Co98 O99 2.204 1_565 S
Co98 O100 2.091 . S
Co98 O102 2.004 . S
Co98 O108 2.021 . S
Co98 O110 2.137 1_565 S
Co98 O111 2.244 1_565 S
O99 Co98 2.204 1_545 S
O99 C106 1.210 1_545 S
O100 Co98 2.091 . S
O100 C106 1.261 . S
C101 O110 1.247 . S
C101 O111 1.272 . S
O102 Co98 2.004 . S
O102 C107 1.259 . S
Co103 O104 2.061 . S
Co103 O109 2.052 . S
Co103 O111 2.135 1_565 S
O104 Co103 2.061 . S
O104 C107 1.235 . S
C105 O108 1.238 . S
C105 O109 1.241 . S
C106 O99 1.210 1_565 S
C106 O100 1.261 . S
C107 O102 1.259 . S
C107 O104 1.235 . S
O108 Co98 2.021 . S
O108 C105 1.238 . S
O109 Co103 2.052 . S
O109 C105 1.241 . S
O110 Co98 2.137 1_545 S
O110 C101 1.247 . S
O111 Co98 2.244 1_545 S
O111 C101 1.272 . S
O111 Co103 2.135 1_545 S
Co112 O113 2.216 . S
Co112 O114 2.091 . S
Co112 O116 2.004 . S
Co112 O122 2.021 . S
Co112 O124 2.092 1_455 S
Co112 O125 2.244 . S
O113 Co112 2.216 . S
O113 C120 1.247 . S
O114 Co112 2.091 . S
O114 C120 1.261 . S
C115 O124 1.236 . S
C115 O125 1.272 1_655 S
O116 Co112 2.004 . S
O116 C121 1.259 . S
Co117 O118 2.061 . S
Co117 O123 2.052 . S
Co117 O125 2.135 . S
O118 Co117 2.061 . S
O118 C121 1.235 . S
C119 O122 1.238 . S
C119 O123 1.241 . S
C120 O113 1.247 . S
C120 O114 1.261 . S
C121 O116 1.259 . S
C121 O118 1.235 . S
O122 Co112 2.021 . S
O122 C119 1.238 . S
O123 Co117 2.052 . S
O123 C119 1.241 . S
O124 Co112 2.092 1_655 S
O124 C115 1.236 . S
O125 Co112 2.244 . S
O125 C115 1.272 1_455 S
O125 Co117 2.135 . S
Co126 O127 2.216 1_565 S
Co126 O128 2.091 . S
Co126 O130 2.004 . S
Co126 O136 2.021 . S
Co126 O138 2.137 1_565 S
Co126 O139 2.244 1_565 S
O127 Co126 2.216 1_545 S
O127 C134 1.247 1_545 S
O128 Co126 2.091 . S
O128 C134 1.261 . S
C129 O138 1.247 . S
C129 O139 1.272 . S
O130 Co126 2.004 . S
O130 C135 1.259 . S
Co131 O132 2.061 . S
Co131 O137 2.052 . S
Co131 O139 2.135 1_565 S
O132 Co131 2.061 . S
O132 C135 1.235 . S
C133 O136 1.238 . S
C133 O137 1.241 . S
C134 O127 1.247 1_565 S
C134 O128 1.261 . S
C135 O130 1.259 . S
C135 O132 1.235 . S
O136 Co126 2.021 . S
O136 C133 1.238 . S
O137 Co131 2.052 . S
O137 C133 1.241 . S
O138 Co126 2.137 1_545 S
O138 C129 1.247 . S
O139 Co126 2.244 1_545 S
O139 C129 1.272 . S
O139 Co131 2.135 1_545 S
Co140 O141 2.216 1_455 S
Co140 O142 2.091 1_455 S
Co140 O144 2.004 . S
Co140 O150 2.021 . S
Co140 O152 2.137 1_455 S
Co140 O153 2.244 . S
O141 Co140 2.216 1_655 S
O141 C148 1.247 . S
O142 Co140 2.091 1_655 S
O142 C148 1.261 . S
C143 O152 1.247 1_455 S
C143 O153 1.272 . S
O144 Co140 2.004 . S
O144 C149 1.259 . S
Co145 O146 2.061 . S
Co145 O151 2.052 . S
Co145 O153 2.135 . S
O146 Co145 2.061 . S
O146 C149 1.235 . S
C147 O150 1.238 . S
C147 O151 1.241 . S
C148 O141 1.247 . S
C148 O142 1.261 . S
C149 O144 1.259 . S
C149 O146 1.235 . S
O150 Co140 2.021 . S
O150 C147 1.238 . S
O151 Co145 2.052 . S
O151 C147 1.241 . S
O152 Co140 2.137 1_655 S
O152 C143 1.247 1_655 S
O153 Co140 2.244 . S
O153 C143 1.272 . S
O153 Co145 2.135 . S
Co154 O155 2.216 . S
Co154 O156 2.091 . S
Co154 O158 2.004 . S
Co154 O164 2.021 . S
Co154 O166 2.137 . S
Co154 O167 2.244 . S
O155 Co154 2.216 . S
O155 C162 1.247 . S
O156 Co154 2.091 . S
O156 C162 1.261 . S
C157 O166 1.247 . S
C157 O167 1.272 . S
O158 Co154 2.004 . S
O158 C163 1.259 . S
Co159 O160 2.061 . S
Co159 O165 2.052 . S
Co159 O167 2.135 . S
O160 Co159 2.061 . S
O160 C163 1.235 . S
C161 O164 1.238 . S
C161 O165 1.241 . S
C162 O155 1.247 . S
C162 O156 1.261 . S
C163 O158 1.259 . S
C163 O160 1.235 . S
O164 Co154 2.021 . S
O164 C161 1.238 . S
O165 Co159 2.052 . S
O165 C161 1.241 . S
O166 Co154 2.137 . S
O166 C157 1.247 . S
O167 Co154 2.244 . S
O167 C157 1.272 . S
O167 Co159 2.135 . S
Co168 O169 2.216 . S
Co168 O170 2.091 . S
Co168 O172 2.004 . S
Co168 O178 2.021 . S
Co168 O180 2.137 1_545 S
Co168 O181 2.244 1_545 S
O169 Co168 2.216 . S
O169 C176 1.247 . S
O170 Co168 2.091 . S
O170 C176 1.261 . S
C171 O180 1.247 . S
C171 O181 1.272 . S
O172 Co168 2.004 . S
O172 C177 1.259 . S
Co173 O174 2.061 . S
Co173 O179 2.052 . S
Co173 O181 2.135 1_545 S
O174 Co173 2.061 . S
O174 C177 1.235 . S
C175 O178 1.238 . S
C175 O179 1.241 . S
C176 O169 1.247 . S
C176 O170 1.261 . S
C177 O172 1.259 . S
C177 O174 1.235 . S
O178 Co168 2.021 . S
O178 C175 1.238 . S
O179 Co173 2.052 . S
O179 C175 1.241 . S
O180 Co168 2.137 1_565 S
O180 C171 1.247 . S
O181 Co168 2.244 1_565 S
O181 C171 1.272 . S
O181 Co173 2.135 1_565 S
Co182 O183 2.216 1_655 S
Co182 O184 2.091 1_655 S
Co182 O186 2.004 . S
Co182 O192 2.021 . S
Co182 O194 2.137 1_655 S
Co182 O195 2.244 . S
O183 Co182 2.216 1_455 S
O183 C190 1.247 . S
O184 Co182 2.091 1_455 S
O184 C190 1.261 . S
C185 O194 1.247 1_655 S
C185 O195 1.272 . S
O186 Co182 2.004 . S
O186 C191 1.259 . S
Co187 O188 2.061 . S
Co187 O193 2.052 . S
Co187 O195 2.135 . S
O188 Co187 2.061 . S
O188 C191 1.235 . S
C189 O192 1.238 . S
C189 O193 1.241 . S
C190 O183 1.247 . S
C190 O184 1.261 . S
C191 O186 1.259 . S
C191 O188 1.235 . S
O192 Co182 2.021 . S
O192 C189 1.238 . S
O193 Co187 2.052 . S
O193 C189 1.241 . S
O194 Co182 2.137 1_455 S
O194 C185 1.247 1_455 S
O195 Co182 2.244 . S
O195 C185 1.272 . S
O195 Co187 2.135 . S
Co196 O197 2.216 . S
Co196 O198 2.091 . S
Co196 O200 2.004 . S
Co196 O206 2.021 . S
Co196 O208 2.137 . S
Co196 O209 2.244 . S
O197 Co196 2.216 . S
O197 C204 1.247 . S
O198 Co196 2.091 . S
O198 C204 1.261 . S
C199 O208 1.247 . S
C199 O209 1.272 . S
O200 Co196 2.004 . S
O200 C205 1.259 . S
Co201 O202 2.061 . S
Co201 O207 2.052 . S
Co201 O209 2.135 . S
O202 Co201 2.061 . S
O202 C205 1.235 . S
C203 O206 1.238 . S
C203 O207 1.241 . S
C204 O197 1.247 . S
C204 O198 1.261 . S
C205 O200 1.259 . S
C205 O202 1.235 . S
O206 Co196 2.021 . S
O206 C203 1.238 . S
O207 Co201 2.052 . S
O207 C203 1.241 . S
O208 Co196 2.137 . S
O208 C199 1.247 . S
O209 Co196 2.244 . S
O209 C199 1.272 . S
O209 Co201 2.135 . S
Co210 O211 2.216 . S
Co210 O212 2.091 . S
Co210 O214 2.004 . S
Co210 O220 2.021 . S
Co210 O222 2.137 . S
Co210 O223 2.244 . S
O211 Co210 2.216 . S
O211 C218 1.247 . S
O212 Co210 2.091 . S
O212 C218 1.261 . S
C213 O222 1.247 . S
C213 O223 1.272 . S
O214 Co210 2.004 . S
O214 C219 1.259 . S
Co215 O216 2.061 . S
Co215 O221 2.052 . S
Co215 O223 2.135 . S
O216 Co215 2.061 . S
O216 C219 1.235 . S
C217 O220 1.238 . S
C217 O221 1.241 . S
C218 O211 1.247 . S
C218 O212 1.261 . S
C219 O214 1.259 . S
C219 O216 1.235 . S
O220 Co210 2.021 . S
O220 C217 1.238 . S
O221 Co215 2.052 . S
O221 C217 1.241 . S
O222 Co210 2.137 . S
O222 C213 1.247 . S
O223 Co210 2.244 . S
O223 C213 1.272 . S
O223 Co215 2.135 . S
Co224 O225 2.216 . S
Co224 O226 2.091 . S
Co224 O228 2.004 . S
Co224 O234 2.021 . S
Co224 O236 2.137 1_545 S
Co224 O237 2.203 1_545 S
O225 Co224 2.216 . S
O225 C232 1.247 . S
O226 Co224 2.091 . S
O226 C232 1.261 . S
C227 O236 1.247 . S
C227 O237 1.275 . S
O228 Co224 2.004 . S
O228 C233 1.259 . S
Co229 O230 2.061 . S
Co229 O235 2.052 . S
Co229 O237 2.132 1_545 S
O230 Co229 2.061 . S
O230 C233 1.235 . S
C231 O234 1.238 . S
C231 O235 1.241 . S
C232 O225 1.247 . S
C232 O226 1.261 . S
C233 O228 1.259 . S
C233 O230 1.235 . S
O234 Co224 2.021 . S
O234 C231 1.238 . S
O235 Co229 2.052 . S
O235 C231 1.241 . S
O236 Co224 2.137 1_565 S
O236 C227 1.247 . S
O237 Co224 2.203 1_565 S
O237 C227 1.275 . S
O237 Co229 2.132 1_565 S
Co238 O239 2.216 . S
Co238 O240 2.091 . S
Co238 O242 2.004 . S
Co238 O248 2.021 . S
Co238 O250 2.137 1_655 S
Co238 O251 2.244 . S
O239 Co238 2.216 . S
O239 C246 1.247 . S
O240 Co238 2.091 . S
O240 C246 1.261 . S
C241 O250 1.247 . S
C241 O251 1.272 1_455 S
O242 Co238 2.004 . S
O242 C247 1.259 . S
Co243 O244 2.061 . S
Co243 O249 2.052 . S
Co243 O251 2.135 . S
O244 Co243 2.061 . S
O244 C247 1.235 . S
C245 O248 1.238 . S
C245 O249 1.241 . S
C246 O239 1.247 . S
C246 O240 1.261 . S
C247 O242 1.259 . S
C247 O244 1.235 . S
O248 Co238 2.021 . S
O248 C245 1.238 . S
O249 Co243 2.052 . S
O249 C245 1.241 . S
O250 Co238 2.137 1_455 S
O250 C241 1.247 . S
O251 Co238 2.244 . S
O251 C241 1.272 1_655 S
O251 Co243 2.135 . S
C252 C253 1.560 . S
C252 H313 0.959 . S
C252 H314 0.959 . S
C252 H315 0.960 . S
C253 C252 1.560 . S
C253 O308 1.426 . S
C253 H312 0.980 . S
C254 C255 1.407 . S
C254 C259 1.418 . S
C254 O308 1.334 . S
C255 C254 1.407 . S
C255 C256 1.360 . S
C255 H316 0.929 . S
C256 C255 1.360 . S
C256 C257 1.401 . S
C256 C260 1.527 . S
C257 C256 1.401 . S
C257 C258 1.405 . S
C257 C290 1.587 . S
C258 C257 1.405 . S
C258 C259 1.332 . S
C258 C261 1.496 . S
C259 C254 1.418 . S
C259 C258 1.332 . S
C259 H317 0.929 . S
C260 C256 1.527 . S
C260 H318 0.959 . S
C260 H319 0.961 . S
C260 H320 0.961 . S
C261 C258 1.496 . S
C261 H321 0.960 . S
C261 H322 0.960 . S
C261 H323 0.961 . S
C262 C263 1.517 . S
C262 H325 0.961 . S
C262 H326 0.960 . S
C262 H327 0.959 . S
C263 C262 1.517 . S
C263 O311 1.468 . S
C263 H324 0.980 . S
C264 C265 1.349 . S
C264 C269 1.367 . S
C264 O311 1.408 . S
C265 C264 1.349 . S
C265 C266 1.407 . S
C265 H328 0.930 . S
C266 C265 1.407 . S
C266 C267 1.449 . S
C266 C270 1.535 . S
C267 C266 1.449 . S
C267 C268 1.384 . S
C267 C292 1.553 . S
C268 C267 1.384 . S
C268 C269 1.364 . S
C268 C271 1.450 . S
C269 C264 1.367 . S
C269 C268 1.364 . S
C269 H329 0.931 . S
C270 C266 1.535 . S
C270 H330 0.959 . S
C270 H331 0.961 . S
C270 H332 0.959 . S
C271 C268 1.450 . S
C271 H333 0.960 . S
C271 H334 0.960 . S
C271 H335 0.960 . S
C272 C273 1.309 . S
C272 C277 1.304 . S
C272 O310 1.435 . S
C273 C272 1.309 . S
C273 C274 1.476 . S
C273 H337 0.930 . S
C274 C273 1.476 . S
C274 C275 1.400 . S
C274 C278 1.567 . S
C275 C274 1.400 . S
C275 C276 1.373 . S
C275 C297 1.432 . S
C276 C275 1.373 . S
C276 C277 1.339 . S
C276 C279 1.530 . S
C277 C272 1.304 . S
C277 C276 1.339 . S
C277 H338 0.930 . S
C278 C274 1.567 . S
C278 H339 0.961 . S
C278 H340 0.960 . S
C278 H341 0.958 . S
C279 C276 1.530 . S
C279 H342 0.961 . S
C279 H343 0.960 . S
C279 H344 0.960 . S
C280 C281 1.530 . S
C280 H346 0.961 . S
C280 H347 0.961 . S
C280 H348 0.959 . S
C281 C280 1.530 . S
C281 O309 1.412 . S
C281 H345 0.980 . S
C282 C283 1.288 . S
C282 C287 1.377 . S
C282 O309 1.393 . S
C283 C282 1.288 . S
C283 C284 1.369 . S
C283 H349 0.932 . S
C284 C283 1.369 . S
C284 C285 1.398 . S
C284 C288 1.527 . S
C285 C284 1.398 . S
C285 C286 1.380 . S
C285 C299 1.497 . S
C286 C285 1.380 . S
C286 C287 1.383 . S
C286 C289 1.603 . S
C287 C282 1.377 . S
C287 C286 1.383 . S
C287 H350 0.929 . S
C288 C284 1.527 . S
C288 H351 0.961 . S
C288 H352 0.959 . S
C288 H353 0.959 . S
C289 C286 1.603 . S
C289 H354 0.960 . S
C289 H355 0.962 . S
C289 H356 0.961 . S
C290 C257 1.587 . S
C290 C291 1.360 . S
C290 C303 1.412 . S
C291 C290 1.360 . S
C291 C292 1.365 . S
C291 H357 0.929 . S
C292 C267 1.553 . S
C292 C291 1.365 . S
C292 C293 1.404 . S
C293 C292 1.404 . S
C293 C294 1.395 . S
C293 C304 1.451 . S
C294 C293 1.395 . S
C294 C295 1.322 . S
C294 H358 0.930 . S
C295 C294 1.322 . S
C295 C296 1.459 . S
C295 H359 0.929 . S
C296 C295 1.459 . S
C296 C297 1.445 . S
C296 C305 1.395 . S
C297 C275 1.432 . S
C297 C296 1.445 . S
C297 C298 1.370 . S
C298 C297 1.370 . S
C298 C299 1.438 . S
C298 H360 0.930 . S
C299 C285 1.497 . S
C299 C298 1.438 . S
C299 C300 1.360 . S
C300 C299 1.360 . S
C300 C301 1.401 . S
C300 C305 1.446 . S
C301 C300 1.401 . S
C301 C302 1.347 . S
C301 H361 0.929 . S
C302 C301 1.347 . S
C302 C303 1.455 . S
C302 H362 0.930 . S
C303 C290 1.412 . S
C303 C302 1.455 . S
C303 C304 1.331 . S
C304 C293 1.451 . S
C304 C303 1.331 . S
C304 C305 1.497 . S
C305 C296 1.395 . S
C305 C300 1.446 . S
C305 C304 1.497 . S
C306 C307 1.582 . S
C306 H363 0.962 . S
C306 H364 0.959 . S
C306 H365 0.958 . S
C307 C306 1.582 . S
C307 O310 1.458 . S
C307 H336 0.980 . S
O308 C253 1.426 . S
O308 C254 1.334 . S
O309 C281 1.412 . S
O309 C282 1.393 . S
O310 C272 1.435 . S
O310 C307 1.458 . S
O311 C263 1.468 . S
O311 C264 1.408 . S
H312 C253 0.980 . S
H313 C252 0.959 . S
H314 C252 0.959 . S
H315 C252 0.960 . S
H316 C255 0.929 . S
H317 C259 0.929 . S
H318 C260 0.959 . S
H319 C260 0.961 . S
H320 C260 0.961 . S
H321 C261 0.960 . S
H322 C261 0.960 . S
H323 C261 0.961 . S
H324 C263 0.980 . S
H325 C262 0.961 . S
H326 C262 0.960 . S
H327 C262 0.959 . S
H328 C265 0.930 . S
H329 C269 0.931 . S
H330 C270 0.959 . S
H331 C270 0.961 . S
H332 C270 0.959 . S
H333 C271 0.960 . S
H334 C271 0.960 . S
H335 C271 0.960 . S
H336 C307 0.980 . S
H337 C273 0.930 . S
H338 C277 0.930 . S
H339 C278 0.961 . S
H340 C278 0.960 . S
H341 C278 0.958 . S
H342 C279 0.961 . S
H343 C279 0.960 . S
H344 C279 0.960 . S
H345 C281 0.980 . S
H346 C280 0.961 . S
H347 C280 0.961 . S
H348 C280 0.959 . S
H349 C283 0.932 . S
H350 C287 0.929 . S
H351 C288 0.961 . S
H352 C288 0.959 . S
H353 C288 0.959 . S
H354 C289 0.960 . S
H355 C289 0.962 . S
H356 C289 0.961 . S
H357 C291 0.929 . S
H358 C294 0.930 . S
H359 C295 0.929 . S
H360 C298 0.930 . S
H361 C301 0.929 . S
H362 C302 0.930 . S
H363 C306 0.962 . S
H364 C306 0.959 . S
H365 C306 0.958 . S
C366 C367 1.560 . S
C366 H427 0.959 . S
C366 H428 0.959 . S
C366 H429 0.960 . S
C367 C366 1.560 . S
C367 O422 1.426 . S
C367 H426 0.980 . S
C368 C369 1.407 . S
C368 C373 1.418 . S
C368 O422 1.334 . S
C369 C368 1.407 . S
C369 C370 1.360 . S
C369 H430 0.929 . S
C370 C369 1.360 . S
C370 C371 1.401 . S
C370 C374 1.527 . S
C371 C370 1.401 . S
C371 C372 1.405 . S
C371 C404 1.587 . S
C372 C371 1.405 . S
C372 C373 1.332 . S
C372 C375 1.496 . S
C373 C368 1.418 . S
C373 C372 1.332 . S
C373 H431 0.929 . S
C374 C370 1.527 . S
C374 H432 0.959 . S
C374 H433 0.961 . S
C374 H434 0.961 . S
C375 C372 1.496 . S
C375 H435 0.960 . S
C375 H436 0.960 . S
C375 H437 0.961 . S
C376 C377 1.517 . S
C376 H439 0.961 . S
C376 H440 0.960 . S
C376 H441 0.959 . S
C377 C376 1.517 . S
C377 O425 1.468 . S
C377 H438 0.980 . S
C378 C379 1.349 . S
C378 C383 1.367 . S
C378 O425 1.408 . S
C379 C378 1.349 . S
C379 C380 1.407 . S
C379 H442 0.930 . S
C380 C379 1.407 . S
C380 C381 1.449 . S
C380 C384 1.535 . S
C381 C380 1.449 . S
C381 C382 1.384 . S
C381 C406 1.553 . S
C382 C381 1.384 . S
C382 C383 1.364 . S
C382 C385 1.450 . S
C383 C378 1.367 . S
C383 C382 1.364 . S
C383 H443 0.931 . S
C384 C380 1.535 . S
C384 H444 0.959 . S
C384 H445 0.961 . S
C384 H446 0.959 . S
C385 C382 1.450 . S
C385 H447 0.960 . S
C385 H448 0.960 . S
C385 H449 0.960 . S
C386 C387 1.309 . S
C386 C391 1.304 . S
C386 O424 1.435 . S
C387 C386 1.309 . S
C387 C388 1.476 . S
C387 H451 0.930 . S
C388 C387 1.476 . S
C388 C389 1.400 . S
C388 C392 1.567 . S
C389 C388 1.400 . S
C389 C390 1.373 . S
C389 C411 1.432 . S
C390 C389 1.373 . S
C390 C391 1.339 . S
C390 C393 1.530 . S
C391 C386 1.304 . S
C391 C390 1.339 . S
C391 H452 0.930 . S
C392 C388 1.567 . S
C392 H453 0.961 . S
C392 H454 0.960 . S
C392 H455 0.958 . S
C393 C390 1.530 . S
C393 H456 0.961 . S
C393 H457 0.960 . S
C393 H458 0.960 . S
C394 C395 1.530 . S
C394 H460 0.961 . S
C394 H461 0.961 . S
C394 H462 0.959 . S
C395 C394 1.530 . S
C395 O423 1.412 . S
C395 H459 0.980 . S
C396 C397 1.288 . S
C396 C401 1.377 . S
C396 O423 1.393 . S
C397 C396 1.288 . S
C397 C398 1.369 . S
C397 H463 0.932 . S
C398 C397 1.369 . S
C398 C399 1.398 . S
C398 C402 1.527 . S
C399 C398 1.398 . S
C399 C400 1.380 . S
C399 C413 1.497 . S
C400 C399 1.380 . S
C400 C401 1.383 . S
C400 C403 1.603 . S
C401 C396 1.377 . S
C401 C400 1.383 . S
C401 H464 0.929 . S
C402 C398 1.527 . S
C402 H465 0.961 . S
C402 H466 0.959 . S
C402 H467 0.959 . S
C403 C400 1.603 . S
C403 H468 0.960 . S
C403 H469 0.962 . S
C403 H470 0.961 . S
C404 C371 1.587 . S
C404 C405 1.360 . S
C404 C417 1.412 . S
C405 C404 1.360 . S
C405 C406 1.365 . S
C405 H471 0.929 . S
C406 C381 1.553 . S
C406 C405 1.365 . S
C406 C407 1.404 . S
C407 C406 1.404 . S
C407 C408 1.395 . S
C407 C418 1.451 . S
C408 C407 1.395 . S
C408 C409 1.322 . S
C408 H472 0.930 . S
C409 C408 1.322 . S
C409 C410 1.459 . S
C409 H473 0.929 . S
C410 C409 1.459 . S
C410 C411 1.445 . S
C410 C419 1.395 . S
C411 C389 1.432 . S
C411 C410 1.445 . S
C411 C412 1.370 . S
C412 C411 1.370 . S
C412 C413 1.438 . S
C412 H474 0.930 . S
C413 C399 1.497 . S
C413 C412 1.438 . S
C413 C414 1.360 . S
C414 C413 1.360 . S
C414 C415 1.401 . S
C414 C419 1.446 . S
C415 C414 1.401 . S
C415 C416 1.347 . S
C415 H475 0.929 . S
C416 C415 1.347 . S
C416 C417 1.455 . S
C416 H476 0.930 . S
C417 C404 1.412 . S
C417 C416 1.455 . S
C417 C418 1.331 . S
C418 C407 1.451 . S
C418 C417 1.331 . S
C418 C419 1.497 . S
C419 C410 1.395 . S
C419 C414 1.446 . S
C419 C418 1.497 . S
C420 C421 1.582 . S
C420 H477 0.962 . S
C420 H478 0.959 . S
C420 H479 0.958 . S
C421 C420 1.582 . S
C421 O424 1.458 . S
C421 H450 0.980 . S
O422 C367 1.426 . S
O422 C368 1.334 . S
O423 C395 1.412 . S
O423 C396 1.393 . S
O424 C386 1.435 . S
O424 C421 1.458 . S
O425 C377 1.468 . S
O425 C378 1.408 . S
H426 C367 0.980 . S
H427 C366 0.959 . S
H428 C366 0.959 . S
H429 C366 0.960 . S
H430 C369 0.929 . S
H431 C373 0.929 . S
H432 C374 0.959 . S
H433 C374 0.961 . S
H434 C374 0.961 . S
H435 C375 0.960 . S
H436 C375 0.960 . S
H437 C375 0.961 . S
H438 C377 0.980 . S
H439 C376 0.961 . S
H440 C376 0.960 . S
H441 C376 0.959 . S
H442 C379 0.930 . S
H443 C383 0.931 . S
H444 C384 0.959 . S
H445 C384 0.961 . S
H446 C384 0.959 . S
H447 C385 0.960 . S
H448 C385 0.960 . S
H449 C385 0.960 . S
H450 C421 0.980 . S
H451 C387 0.930 . S
H452 C391 0.930 . S
H453 C392 0.961 . S
H454 C392 0.960 . S
H455 C392 0.958 . S
H456 C393 0.961 . S
H457 C393 0.960 . S
H458 C393 0.960 . S
H459 C395 0.980 . S
H460 C394 0.961 . S
H461 C394 0.961 . S
H462 C394 0.959 . S
H463 C397 0.932 . S
H464 C401 0.929 . S
H465 C402 0.961 . S
H466 C402 0.959 . S
H467 C402 0.959 . S
H468 C403 0.960 . S
H469 C403 0.962 . S
H470 C403 0.961 . S
H471 C405 0.929 . S
H472 C408 0.930 . S
H473 C409 0.929 . S
H474 C412 0.930 . S
H475 C415 0.929 . S
H476 C416 0.930 . S
H477 C420 0.962 . S
H478 C420 0.959 . S
H479 C420 0.958 . S
C480 C481 1.560 . S
C480 H541 0.959 . S
C480 H542 0.959 . S
C480 H543 0.960 . S
C481 C480 1.560 . S
C481 O536 1.426 . S
C481 H540 0.980 . S
C482 C483 1.407 . S
C482 C487 1.418 . S
C482 O536 1.334 . S
C483 C482 1.407 . S
C483 C484 1.360 . S
C483 H544 0.929 . S
C484 C483 1.360 . S
C484 C485 1.401 . S
C484 C488 1.527 . S
C485 C484 1.401 . S
C485 C486 1.405 . S
C485 C518 1.587 . S
C486 C485 1.405 . S
C486 C487 1.332 . S
C486 C489 1.496 . S
C487 C482 1.418 . S
C487 C486 1.332 . S
C487 H545 0.929 . S
C488 C484 1.527 . S
C488 H546 0.959 . S
C488 H547 0.961 . S
C488 H548 0.961 . S
C489 C486 1.496 . S
C489 H549 0.960 . S
C489 H550 0.960 . S
C489 H551 0.961 . S
C490 C491 1.517 . S
C490 H553 0.961 . S
C490 H554 0.960 . S
C490 H555 0.959 . S
C491 C490 1.517 . S
C491 O539 1.468 . S
C491 H552 0.980 . S
C492 C493 1.349 . S
C492 C497 1.367 . S
C492 O539 1.408 . S
C493 C492 1.349 . S
C493 C494 1.407 . S
C493 H556 0.930 . S
C494 C493 1.407 . S
C494 C495 1.449 . S
C494 C498 1.535 . S
C495 C494 1.449 . S
C495 C496 1.384 . S
C495 C520 1.553 . S
C496 C495 1.384 . S
C496 C497 1.364 . S
C496 C499 1.450 . S
C497 C492 1.367 . S
C497 C496 1.364 . S
C497 H557 0.931 . S
C498 C494 1.535 . S
C498 H558 0.959 . S
C498 H559 0.961 . S
C498 H560 0.959 . S
C499 C496 1.450 . S
C499 H561 0.960 . S
C499 H562 0.960 . S
C499 H563 0.960 . S
C500 C501 1.309 . S
C500 C505 1.304 . S
C500 O538 1.435 . S
C501 C500 1.309 . S
C501 C502 1.476 . S
C501 H565 0.930 . S
C502 C501 1.476 . S
C502 C503 1.400 . S
C502 C506 1.567 . S
C503 C502 1.400 . S
C503 C504 1.373 . S
C503 C525 1.432 . S
C504 C503 1.373 . S
C504 C505 1.339 . S
C504 C507 1.530 . S
C505 C500 1.304 . S
C505 C504 1.339 . S
C505 H566 0.930 . S
C506 C502 1.567 . S
C506 H567 0.961 . S
C506 H568 0.960 . S
C506 H569 0.958 . S
C507 C504 1.530 . S
C507 H570 0.961 . S
C507 H571 0.960 . S
C507 H572 0.960 . S
C508 C509 1.530 . S
C508 H574 0.961 . S
C508 H575 0.961 . S
C508 H576 0.959 . S
C509 C508 1.530 . S
C509 O537 1.412 . S
C509 H573 0.980 . S
C510 C511 1.288 . S
C510 C515 1.377 . S
C510 O537 1.393 . S
C511 C510 1.288 . S
C511 C512 1.369 . S
C511 H577 0.932 . S
C512 C511 1.369 . S
C512 C513 1.398 . S
C512 C516 1.527 . S
C513 C512 1.398 . S
C513 C514 1.380 . S
C513 C527 1.497 . S
C514 C513 1.380 . S
C514 C515 1.383 . S
C514 C517 1.603 . S
C515 C510 1.377 . S
C515 C514 1.383 . S
C515 H578 0.929 . S
C516 C512 1.527 . S
C516 H579 0.961 . S
C516 H580 0.959 . S
C516 H581 0.959 . S
C517 C514 1.603 . S
C517 H582 0.960 . S
C517 H583 0.962 . S
C517 H584 0.961 . S
C518 C485 1.587 . S
C518 C519 1.360 . S
C518 C531 1.412 . S
C519 C518 1.360 . S
C519 C520 1.365 . S
C519 H585 0.929 . S
C520 C495 1.553 . S
C520 C519 1.365 . S
C520 C521 1.404 . S
C521 C520 1.404 . S
C521 C522 1.395 . S
C521 C532 1.451 . S
C522 C521 1.395 . S
C522 C523 1.322 . S
C522 H586 0.930 . S
C523 C522 1.322 . S
C523 C524 1.459 . S
C523 H587 0.929 . S
C524 C523 1.459 . S
C524 C525 1.445 . S
C524 C533 1.395 . S
C525 C503 1.432 . S
C525 C524 1.445 . S
C525 C526 1.370 . S
C526 C525 1.370 . S
C526 C527 1.438 . S
C526 H588 0.930 . S
C527 C513 1.497 . S
C527 C526 1.438 . S
C527 C528 1.360 . S
C528 C527 1.360 . S
C528 C529 1.401 . S
C528 C533 1.446 . S
C529 C528 1.401 . S
C529 C530 1.347 . S
C529 H589 0.929 . S
C530 C529 1.347 . S
C530 C531 1.455 . S
C530 H590 0.930 . S
C531 C518 1.412 . S
C531 C530 1.455 . S
C531 C532 1.331 . S
C532 C521 1.451 . S
C532 C531 1.331 . S
C532 C533 1.497 . S
C533 C524 1.395 . S
C533 C528 1.446 . S
C533 C532 1.497 . S
C534 C535 1.582 . S
C534 H591 0.962 . S
C534 H592 0.959 . S
C534 H593 0.958 . S
C535 C534 1.582 . S
C535 O538 1.458 . S
C535 H564 0.980 . S
O536 C481 1.426 . S
O536 C482 1.334 . S
O537 C509 1.412 . S
O537 C510 1.393 . S
O538 C500 1.435 . S
O538 C535 1.458 . S
O539 C491 1.468 . S
O539 C492 1.408 . S
H540 C481 0.980 . S
H541 C480 0.959 . S
H542 C480 0.959 . S
H543 C480 0.960 . S
H544 C483 0.929 . S
H545 C487 0.929 . S
H546 C488 0.959 . S
H547 C488 0.961 . S
H548 C488 0.961 . S
H549 C489 0.960 . S
H550 C489 0.960 . S
H551 C489 0.961 . S
H552 C491 0.980 . S
H553 C490 0.961 . S
H554 C490 0.960 . S
H555 C490 0.959 . S
H556 C493 0.930 . S
H557 C497 0.931 . S
H558 C498 0.959 . S
H559 C498 0.961 . S
H560 C498 0.959 . S
H561 C499 0.960 . S
H562 C499 0.960 . S
H563 C499 0.960 . S
H564 C535 0.980 . S
H565 C501 0.930 . S
H566 C505 0.930 . S
H567 C506 0.961 . S
H568 C506 0.960 . S
H569 C506 0.958 . S
H570 C507 0.961 . S
H571 C507 0.960 . S
H572 C507 0.960 . S
H573 C509 0.980 . S
H574 C508 0.961 . S
H575 C508 0.961 . S
H576 C508 0.959 . S
H577 C511 0.932 . S
H578 C515 0.929 . S
H579 C516 0.961 . S
H580 C516 0.959 . S
H581 C516 0.959 . S
H582 C517 0.960 . S
H583 C517 0.962 . S
H584 C517 0.961 . S
H585 C519 0.929 . S
H586 C522 0.930 . S
H587 C523 0.929 . S
H588 C526 0.930 . S
H589 C529 0.929 . S
H590 C530 0.930 . S
H591 C534 0.962 . S
H592 C534 0.959 . S
H593 C534 0.958 . S
C594 C595 1.560 . S
C594 H655 0.959 . S
C594 H656 0.959 . S
C594 H657 0.960 . S
C595 C594 1.560 . S
C595 O650 1.426 . S
C595 H654 0.980 . S
C596 C597 1.407 . S
C596 C601 1.418 . S
C596 O650 1.334 . S
C597 C596 1.407 . S
C597 C598 1.360 . S
C597 H658 0.929 . S
C598 C597 1.360 . S
C598 C599 1.401 . S
C598 C602 1.527 . S
C599 C598 1.401 . S
C599 C600 1.405 . S
C599 C632 1.587 . S
C600 C599 1.405 . S
C600 C601 1.332 . S
C600 C603 1.496 . S
C601 C596 1.418 . S
C601 C600 1.332 . S
C601 H659 0.929 . S
C602 C598 1.527 . S
C602 H660 0.959 . S
C602 H661 0.961 . S
C602 H662 0.961 . S
C603 C600 1.496 . S
C603 H663 0.960 . S
C603 H664 0.960 . S
C603 H665 0.961 . S
C604 C605 1.517 . S
C604 H667 0.961 . S
C604 H668 0.960 . S
C604 H669 0.959 . S
C605 C604 1.517 . S
C605 O653 1.468 . S
C605 H666 0.980 . S
C606 C607 1.349 . S
C606 C611 1.367 . S
C606 O653 1.408 . S
C607 C606 1.349 . S
C607 C608 1.407 . S
C607 H670 0.930 . S
C608 C607 1.407 . S
C608 C609 1.449 . S
C608 C612 1.535 . S
C609 C608 1.449 . S
C609 C610 1.384 . S
C609 C634 1.553 . S
C610 C609 1.384 . S
C610 C611 1.364 . S
C610 C613 1.450 . S
C611 C606 1.367 . S
C611 C610 1.364 . S
C611 H671 0.931 . S
C612 C608 1.535 . S
C612 H672 0.959 . S
C612 H673 0.961 . S
C612 H674 0.959 . S
C613 C610 1.450 . S
C613 H675 0.960 . S
C613 H676 0.960 . S
C613 H677 0.960 . S
C614 C615 1.309 . S
C614 C619 1.304 . S
C614 O652 1.435 . S
C615 C614 1.309 . S
C615 C616 1.476 . S
C615 H679 0.930 . S
C616 C615 1.476 . S
C616 C617 1.400 . S
C616 C620 1.567 . S
C617 C616 1.400 . S
C617 C618 1.373 . S
C617 C639 1.432 . S
C618 C617 1.373 . S
C618 C619 1.339 . S
C618 C621 1.530 . S
C619 C614 1.304 . S
C619 C618 1.339 . S
C619 H680 0.930 . S
C620 C616 1.567 . S
C620 H681 0.961 . S
C620 H682 0.960 . S
C620 H683 0.958 . S
C621 C618 1.530 . S
C621 H684 0.961 . S
C621 H685 0.960 . S
C621 H686 0.960 . S
C622 C623 1.530 . S
C622 H688 0.961 . S
C622 H689 0.961 . S
C622 H690 0.959 . S
C623 C622 1.530 . S
C623 O651 1.412 . S
C623 H687 0.980 . S
C624 C625 1.288 . S
C624 C629 1.377 . S
C624 O651 1.393 . S
C625 C624 1.288 . S
C625 C626 1.369 . S
C625 H691 0.932 . S
C626 C625 1.369 . S
C626 C627 1.398 . S
C626 C630 1.527 . S
C627 C626 1.398 . S
C627 C628 1.380 . S
C627 C641 1.497 . S
C628 C627 1.380 . S
C628 C629 1.383 . S
C628 C631 1.603 . S
C629 C624 1.377 . S
C629 C628 1.383 . S
C629 H692 0.929 . S
C630 C626 1.527 . S
C630 H693 0.961 . S
C630 H694 0.959 . S
C630 H695 0.959 . S
C631 C628 1.603 . S
C631 H696 0.960 . S
C631 H697 0.962 . S
C631 H698 0.961 . S
C632 C599 1.587 . S
C632 C633 1.360 . S
C632 C645 1.412 . S
C633 C632 1.360 . S
C633 C634 1.365 . S
C633 H699 0.929 . S
C634 C609 1.553 . S
C634 C633 1.365 . S
C634 C635 1.404 . S
C635 C634 1.404 . S
C635 C636 1.395 . S
C635 C646 1.451 . S
C636 C635 1.395 . S
C636 C637 1.322 . S
C636 H700 0.930 . S
C637 C636 1.322 . S
C637 C638 1.459 . S
C637 H701 0.929 . S
C638 C637 1.459 . S
C638 C639 1.445 . S
C638 C647 1.395 . S
C639 C617 1.432 . S
C639 C638 1.445 . S
C639 C640 1.370 . S
C640 C639 1.370 . S
C640 C641 1.438 . S
C640 H702 0.930 . S
C641 C627 1.497 . S
C641 C640 1.438 . S
C641 C642 1.360 . S
C642 C641 1.360 . S
C642 C643 1.401 . S
C642 C647 1.446 . S
C643 C642 1.401 . S
C643 C644 1.347 . S
C643 H703 0.929 . S
C644 C643 1.347 . S
C644 C645 1.455 . S
C644 H704 0.930 . S
C645 C632 1.412 . S
C645 C644 1.455 . S
C645 C646 1.331 . S
C646 C635 1.451 . S
C646 C645 1.331 . S
C646 C647 1.497 . S
C647 C638 1.395 . S
C647 C642 1.446 . S
C647 C646 1.497 . S
C648 C649 1.582 . S
C648 H705 0.962 . S
C648 H706 0.959 . S
C648 H707 0.958 . S
C649 C648 1.582 . S
C649 O652 1.458 . S
C649 H678 0.980 . S
O650 C595 1.426 . S
O650 C596 1.334 . S
O651 C623 1.412 . S
O651 C624 1.393 . S
O652 C614 1.435 . S
O652 C649 1.458 . S
O653 C605 1.468 . S
O653 C606 1.408 . S
H654 C595 0.980 . S
H655 C594 0.959 . S
H656 C594 0.959 . S
H657 C594 0.960 . S
H658 C597 0.929 . S
H659 C601 0.929 . S
H660 C602 0.959 . S
H661 C602 0.961 . S
H662 C602 0.961 . S
H663 C603 0.960 . S
H664 C603 0.960 . S
H665 C603 0.961 . S
H666 C605 0.980 . S
H667 C604 0.961 . S
H668 C604 0.960 . S
H669 C604 0.959 . S
H670 C607 0.930 . S
H671 C611 0.931 . S
H672 C612 0.959 . S
H673 C612 0.961 . S
H674 C612 0.959 . S
H675 C613 0.960 . S
H676 C613 0.960 . S
H677 C613 0.960 . S
H678 C649 0.980 . S
H679 C615 0.930 . S
H680 C619 0.930 . S
H681 C620 0.961 . S
H682 C620 0.960 . S
H683 C620 0.958 . S
H684 C621 0.961 . S
H685 C621 0.960 . S
H686 C621 0.960 . S
H687 C623 0.980 . S
H688 C622 0.961 . S
H689 C622 0.961 . S
H690 C622 0.959 . S
H691 C625 0.932 . S
H692 C629 0.929 . S
H693 C630 0.961 . S
H694 C630 0.959 . S
H695 C630 0.959 . S
H696 C631 0.960 . S
H697 C631 0.962 . S
H698 C631 0.961 . S
H699 C633 0.929 . S
H700 C636 0.930 . S
H701 C637 0.929 . S
H702 C640 0.930 . S
H703 C643 0.929 . S
H704 C644 0.930 . S
H705 C648 0.962 . S
H706 C648 0.959 . S
H707 C648 0.958 . S
C708 C709 1.560 . S
C708 H769 0.959 . S
C708 H770 0.959 . S
C708 H771 0.960 . S
C709 C708 1.560 . S
C709 O764 1.426 . S
C709 H768 0.980 . S
C710 C711 1.407 . S
C710 C715 1.418 . S
C710 O764 1.334 . S
C711 C710 1.407 . S
C711 C712 1.360 . S
C711 H772 0.929 . S
C712 C711 1.360 . S
C712 C713 1.401 . S
C712 C716 1.527 . S
C713 C712 1.401 . S
C713 C714 1.405 . S
C713 C746 1.587 . S
C714 C713 1.405 . S
C714 C715 1.332 . S
C714 C717 1.496 . S
C715 C710 1.418 . S
C715 C714 1.332 . S
C715 H773 0.929 . S
C716 C712 1.527 . S
C716 H774 0.959 . S
C716 H775 0.961 . S
C716 H776 0.961 . S
C717 C714 1.496 . S
C717 H777 0.960 . S
C717 H778 0.960 . S
C717 H779 0.961 . S
C718 C719 1.517 . S
C718 H781 0.961 . S
C718 H782 0.960 . S
C718 H783 0.959 . S
C719 C718 1.517 . S
C719 O767 1.468 . S
C719 H780 0.980 . S
C720 C721 1.349 . S
C720 C725 1.367 . S
C720 O767 1.408 . S
C721 C720 1.349 . S
C721 C722 1.407 . S
C721 H784 0.930 . S
C722 C721 1.407 . S
C722 C723 1.449 . S
C722 C726 1.535 . S
C723 C722 1.449 . S
C723 C724 1.384 . S
C723 C748 1.553 . S
C724 C723 1.384 . S
C724 C725 1.364 . S
C724 C727 1.450 . S
C725 C720 1.367 . S
C725 C724 1.364 . S
C725 H785 0.931 . S
C726 C722 1.535 . S
C726 H786 0.959 . S
C726 H787 0.961 . S
C726 H788 0.959 . S
C727 C724 1.450 . S
C727 H789 0.960 . S
C727 H790 0.960 . S
C727 H791 0.960 . S
C728 C729 1.309 . S
C728 C733 1.304 . S
C728 O766 1.435 . S
C729 C728 1.309 . S
C729 C730 1.476 . S
C729 H793 0.930 . S
C730 C729 1.476 . S
C730 C731 1.400 . S
C730 C734 1.567 . S
C731 C730 1.400 . S
C731 C732 1.373 . S
C731 C753 1.432 . S
C732 C731 1.373 . S
C732 C733 1.339 . S
C732 C735 1.530 . S
C733 C728 1.304 . S
C733 C732 1.339 . S
C733 H794 0.930 . S
C734 C730 1.567 . S
C734 H795 0.961 . S
C734 H796 0.960 . S
C734 H797 0.958 . S
C735 C732 1.530 . S
C735 H798 0.961 . S
C735 H799 0.960 . S
C735 H800 0.960 . S
C736 C737 1.530 . S
C736 H802 0.961 . S
C736 H803 0.961 . S
C736 H804 0.959 . S
C737 C736 1.530 . S
C737 O765 1.412 . S
C737 H801 0.980 . S
C738 C739 1.288 . S
C738 C743 1.377 . S
C738 O765 1.393 . S
C739 C738 1.288 . S
C739 C740 1.369 . S
C739 H805 0.932 . S
C740 C739 1.369 . S
C740 C741 1.398 . S
C740 C744 1.527 . S
C741 C740 1.398 . S
C741 C742 1.380 . S
C741 C755 1.497 . S
C742 C741 1.380 . S
C742 C743 1.383 . S
C742 C745 1.603 . S
C743 C738 1.377 . S
C743 C742 1.383 . S
C743 H806 0.929 . S
C744 C740 1.527 . S
C744 H807 0.961 . S
C744 H808 0.959 . S
C744 H809 0.959 . S
C745 C742 1.603 . S
C745 H810 0.960 . S
C745 H811 0.962 . S
C745 H812 0.961 . S
C746 C713 1.587 . S
C746 C747 1.360 . S
C746 C759 1.412 . S
C747 C746 1.360 . S
C747 C748 1.365 . S
C747 H813 0.929 . S
C748 C723 1.553 . S
C748 C747 1.365 . S
C748 C749 1.404 . S
C749 C748 1.404 . S
C749 C750 1.395 . S
C749 C760 1.451 . S
C750 C749 1.395 . S
C750 C751 1.322 . S
C750 H814 0.930 . S
C751 C750 1.322 . S
C751 C752 1.459 . S
C751 H815 0.929 . S
C752 C751 1.459 . S
C752 C753 1.445 . S
C752 C761 1.395 . S
C753 C731 1.432 . S
C753 C752 1.445 . S
C753 C754 1.370 . S
C754 C753 1.370 . S
C754 C755 1.438 . S
C754 H816 0.930 . S
C755 C741 1.497 . S
C755 C754 1.438 . S
C755 C756 1.360 . S
C756 C755 1.360 . S
C756 C757 1.401 . S
C756 C761 1.446 . S
C757 C756 1.401 . S
C757 C758 1.347 . S
C757 H817 0.929 . S
C758 C757 1.347 . S
C758 C759 1.455 . S
C758 H818 0.930 . S
C759 C746 1.412 . S
C759 C758 1.455 . S
C759 C760 1.331 . S
C760 C749 1.451 . S
C760 C759 1.331 . S
C760 C761 1.497 . S
C761 C752 1.395 . S
C761 C756 1.446 . S
C761 C760 1.497 . S
C762 C763 1.582 . S
C762 H819 0.962 . S
C762 H820 0.959 . S
C762 H821 0.958 . S
C763 C762 1.582 . S
C763 O766 1.458 . S
C763 H792 0.980 . S
O764 C709 1.426 . S
O764 C710 1.334 . S
O765 C737 1.412 . S
O765 C738 1.393 . S
O766 C728 1.435 . S
O766 C763 1.458 . S
O767 C719 1.468 . S
O767 C720 1.408 . S
H768 C709 0.980 . S
H769 C708 0.959 . S
H770 C708 0.959 . S
H771 C708 0.960 . S
H772 C711 0.929 . S
H773 C715 0.929 . S
H774 C716 0.959 . S
H775 C716 0.961 . S
H776 C716 0.961 . S
H777 C717 0.960 . S
H778 C717 0.960 . S
H779 C717 0.961 . S
H780 C719 0.980 . S
H781 C718 0.961 . S
H782 C718 0.960 . S
H783 C718 0.959 . S
H784 C721 0.930 . S
H785 C725 0.931 . S
H786 C726 0.959 . S
H787 C726 0.961 . S
H788 C726 0.959 . S
H789 C727 0.960 . S
H790 C727 0.960 . S
H791 C727 0.960 . S
H792 C763 0.980 . S
H793 C729 0.930 . S
H794 C733 0.930 . S
H795 C734 0.961 . S
H796 C734 0.960 . S
H797 C734 0.958 . S
H798 C735 0.961 . S
H799 C735 0.960 . S
H800 C735 0.960 . S
H801 C737 0.980 . S
H802 C736 0.961 . S
H803 C736 0.961 . S
H804 C736 0.959 . S
H805 C739 0.932 . S
H806 C743 0.929 . S
H807 C744 0.961 . S
H808 C744 0.959 . S
H809 C744 0.959 . S
H810 C745 0.960 . S
H811 C745 0.962 . S
H812 C745 0.961 . S
H813 C747 0.929 . S
H814 C750 0.930 . S
H815 C751 0.929 . S
H816 C754 0.930 . S
H817 C757 0.929 . S
H818 C758 0.930 . S
H819 C762 0.962 . S
H820 C762 0.959 . S
H821 C762 0.958 . S
C822 C823 1.560 . S
C822 H883 0.959 . S
C822 H884 0.959 . S
C822 H885 0.960 . S
C823 C822 1.560 . S
C823 O878 1.426 . S
C823 H882 0.980 . S
C824 C825 1.407 . S
C824 C829 1.418 . S
C824 O878 1.334 . S
C825 C824 1.407 . S
C825 C826 1.360 . S
C825 H886 0.929 . S
C826 C825 1.360 . S
C826 C827 1.401 . S
C826 C830 1.527 . S
C827 C826 1.401 . S
C827 C828 1.405 . S
C827 C860 1.587 . S
C828 C827 1.405 . S
C828 C829 1.332 . S
C828 C831 1.496 . S
C829 C824 1.418 . S
C829 C828 1.332 . S
C829 H887 0.929 . S
C830 C826 1.527 . S
C830 H888 0.959 . S
C830 H889 0.961 . S
C830 H890 0.961 . S
C831 C828 1.496 . S
C831 H891 0.960 . S
C831 H892 0.960 . S
C831 H893 0.961 . S
C832 C833 1.517 . S
C832 H895 0.961 . S
C832 H896 0.960 . S
C832 H897 0.959 . S
C833 C832 1.517 . S
C833 O881 1.468 . S
C833 H894 0.980 . S
C834 C835 1.349 . S
C834 C839 1.367 . S
C834 O881 1.408 . S
C835 C834 1.349 . S
C835 C836 1.407 . S
C835 H898 0.930 . S
C836 C835 1.407 . S
C836 C837 1.449 . S
C836 C840 1.535 . S
C837 C836 1.449 . S
C837 C838 1.384 . S
C837 C862 1.553 . S
C838 C837 1.384 . S
C838 C839 1.364 . S
C838 C841 1.450 . S
C839 C834 1.367 . S
C839 C838 1.364 . S
C839 H899 0.931 . S
C840 C836 1.535 . S
C840 H900 0.959 . S
C840 H901 0.961 . S
C840 H902 0.959 . S
C841 C838 1.450 . S
C841 H903 0.960 . S
C841 H904 0.960 . S
C841 H905 0.960 . S
C842 C843 1.309 . S
C842 C847 1.304 . S
C842 O880 1.435 . S
C843 C842 1.309 . S
C843 C844 1.476 . S
C843 H907 0.930 . S
C844 C843 1.476 . S
C844 C845 1.400 . S
C844 C848 1.567 . S
C845 C844 1.400 . S
C845 C846 1.373 . S
C845 C867 1.432 . S
C846 C845 1.373 . S
C846 C847 1.339 . S
C846 C849 1.530 . S
C847 C842 1.304 . S
C847 C846 1.339 . S
C847 H908 0.930 . S
C848 C844 1.567 . S
C848 H909 0.961 . S
C848 H910 0.960 . S
C848 H911 0.958 . S
C849 C846 1.530 . S
C849 H912 0.961 . S
C849 H913 0.960 . S
C849 H914 0.960 . S
C850 C851 1.530 . S
C850 H916 0.961 . S
C850 H917 0.961 . S
C850 H918 0.959 . S
C851 C850 1.530 . S
C851 O879 1.412 . S
C851 H915 0.980 . S
C852 C853 1.288 . S
C852 C857 1.377 . S
C852 O879 1.393 . S
C853 C852 1.288 . S
C853 C854 1.369 . S
C853 H919 0.932 . S
C854 C853 1.369 . S
C854 C855 1.398 . S
C854 C858 1.527 . S
C855 C854 1.398 . S
C855 C856 1.380 . S
C855 C869 1.497 . S
C856 C855 1.380 . S
C856 C857 1.383 . S
C856 C859 1.603 . S
C857 C852 1.377 . S
C857 C856 1.383 . S
C857 H920 0.929 . S
C858 C854 1.527 . S
C858 H921 0.961 . S
C858 H922 0.959 . S
C858 H923 0.959 . S
C859 C856 1.603 . S
C859 H924 0.960 . S
C859 H925 0.962 . S
C859 H926 0.961 . S
C860 C827 1.587 . S
C860 C861 1.360 . S
C860 C873 1.412 . S
C861 C860 1.360 . S
C861 C862 1.365 . S
C861 H927 0.929 . S
C862 C837 1.553 . S
C862 C861 1.365 . S
C862 C863 1.404 . S
C863 C862 1.404 . S
C863 C864 1.395 . S
C863 C874 1.451 . S
C864 C863 1.395 . S
C864 C865 1.322 . S
C864 H928 0.930 . S
C865 C864 1.322 . S
C865 C866 1.459 . S
C865 H929 0.929 . S
C866 C865 1.459 . S
C866 C867 1.445 . S
C866 C875 1.395 . S
C867 C845 1.432 . S
C867 C866 1.445 . S
C867 C868 1.370 . S
C868 C867 1.370 . S
C868 C869 1.438 . S
C868 H930 0.930 . S
C869 C855 1.497 . S
C869 C868 1.438 . S
C869 C870 1.360 . S
C870 C869 1.360 . S
C870 C871 1.401 . S
C870 C875 1.446 . S
C871 C870 1.401 . S
C871 C872 1.347 . S
C871 H931 0.929 . S
C872 C871 1.347 . S
C872 C873 1.455 . S
C872 H932 0.930 . S
C873 C860 1.412 . S
C873 C872 1.455 . S
C873 C874 1.331 . S
C874 C863 1.451 . S
C874 C873 1.331 . S
C874 C875 1.497 . S
C875 C866 1.395 . S
C875 C870 1.446 . S
C875 C874 1.497 . S
C876 C877 1.582 . S
C876 H933 0.962 . S
C876 H934 0.959 . S
C876 H935 0.958 . S
C877 C876 1.582 . S
C877 O880 1.458 . S
C877 H906 0.980 . S
O878 C823 1.426 . S
O878 C824 1.334 . S
O879 C851 1.412 . S
O879 C852 1.393 . S
O880 C842 1.435 . S
O880 C877 1.458 . S
O881 C833 1.468 . S
O881 C834 1.408 . S
H882 C823 0.980 . S
H883 C822 0.959 . S
H884 C822 0.959 . S
H885 C822 0.960 . S
H886 C825 0.929 . S
H887 C829 0.929 . S
H888 C830 0.959 . S
H889 C830 0.961 . S
H890 C830 0.961 . S
H891 C831 0.960 . S
H892 C831 0.960 . S
H893 C831 0.961 . S
H894 C833 0.980 . S
H895 C832 0.961 . S
H896 C832 0.960 . S
H897 C832 0.959 . S
H898 C835 0.930 . S
H899 C839 0.931 . S
H900 C840 0.959 . S
H901 C840 0.961 . S
H902 C840 0.959 . S
H903 C841 0.960 . S
H904 C841 0.960 . S
H905 C841 0.960 . S
H906 C877 0.980 . S
H907 C843 0.930 . S
H908 C847 0.930 . S
H909 C848 0.961 . S
H910 C848 0.960 . S
H911 C848 0.958 . S
H912 C849 0.961 . S
H913 C849 0.960 . S
H914 C849 0.960 . S
H915 C851 0.980 . S
H916 C850 0.961 . S
H917 C850 0.961 . S
H918 C850 0.959 . S
H919 C853 0.932 . S
H920 C857 0.929 . S
H921 C858 0.961 . S
H922 C858 0.959 . S
H923 C858 0.959 . S
H924 C859 0.960 . S
H925 C859 0.962 . S
H926 C859 0.961 . S
H927 C861 0.929 . S
H928 C864 0.930 . S
H929 C865 0.929 . S
H930 C868 0.930 . S
H931 C871 0.929 . S
H932 C872 0.930 . S
H933 C876 0.962 . S
H934 C876 0.959 . S
H935 C876 0.958 . S
C936 C937 1.560 . S
C936 H997 0.959 . S
C936 H998 0.959 . S
C936 H999 0.960 . S
C937 C936 1.560 . S
C937 O992 1.426 . S
C937 H996 0.980 . S
C938 C939 1.407 . S
C938 C943 1.418 . S
C938 O992 1.334 . S
C939 C938 1.407 . S
C939 C940 1.360 . S
C939 H1000 0.929 . S
C940 C939 1.360 . S
C940 C941 1.401 . S
C940 C944 1.527 . S
C941 C940 1.401 . S
C941 C942 1.405 . S
C941 C974 1.587 . S
C942 C941 1.405 . S
C942 C943 1.332 . S
C942 C945 1.496 . S
C943 C938 1.418 . S
C943 C942 1.332 . S
C943 H1001 0.929 . S
C944 C940 1.527 . S
C944 H1002 0.959 . S
C944 H1003 0.961 . S
C944 H1004 0.961 . S
C945 C942 1.496 . S
C945 H1005 0.960 . S
C945 H1006 0.960 . S
C945 H1007 0.961 . S
C946 C947 1.517 . S
C946 H1009 0.961 . S
C946 H1010 0.960 . S
C946 H1011 0.959 . S
C947 C946 1.517 . S
C947 O995 1.468 . S
C947 H1008 0.980 . S
C948 C949 1.349 . S
C948 C953 1.367 . S
C948 O995 1.408 . S
C949 C948 1.349 . S
C949 C950 1.407 . S
C949 H1012 0.930 . S
C950 C949 1.407 . S
C950 C951 1.449 . S
C950 C954 1.535 . S
C951 C950 1.449 . S
C951 C952 1.384 . S
C951 C976 1.553 . S
C952 C951 1.384 . S
C952 C953 1.364 . S
C952 C955 1.450 . S
C953 C948 1.367 . S
C953 C952 1.364 . S
C953 H1013 0.931 . S
C954 C950 1.535 . S
C954 H1014 0.959 . S
C954 H1015 0.961 . S
C954 H1016 0.959 . S
C955 C952 1.450 . S
C955 H1017 0.960 . S
C955 H1018 0.960 . S
C955 H1019 0.960 . S
C956 C957 1.309 . S
C956 C961 1.304 . S
C956 O994 1.435 . S
C957 C956 1.309 . S
C957 C958 1.476 . S
C957 H1021 0.930 . S
C958 C957 1.476 . S
C958 C959 1.400 . S
C958 C962 1.567 . S
C959 C958 1.400 . S
C959 C960 1.373 . S
C959 C981 1.432 . S
C960 C959 1.373 . S
C960 C961 1.339 . S
C960 C963 1.530 . S
C961 C956 1.304 . S
C961 C960 1.339 . S
C961 H1022 0.930 . S
C962 C958 1.567 . S
C962 H1023 0.961 . S
C962 H1024 0.960 . S
C962 H1025 0.958 . S
C963 C960 1.530 . S
C963 H1026 0.961 . S
C963 H1027 0.960 . S
C963 H1028 0.960 . S
C964 C965 1.530 . S
C964 H1030 0.961 . S
C964 H1031 0.961 . S
C964 H1032 0.959 . S
C965 C964 1.530 . S
C965 O993 1.412 . S
C965 H1029 0.980 . S
C966 C967 1.288 . S
C966 C971 1.377 . S
C966 O993 1.393 . S
C967 C966 1.288 . S
C967 C968 1.369 . S
C967 H1033 0.932 . S
C968 C967 1.369 . S
C968 C969 1.398 . S
C968 C972 1.527 . S
C969 C968 1.398 . S
C969 C970 1.380 . S
C969 C983 1.497 . S
C970 C969 1.380 . S
C970 C971 1.383 . S
C970 C973 1.603 . S
C971 C966 1.377 . S
C971 C970 1.383 . S
C971 H1034 0.929 . S
C972 C968 1.527 . S
C972 H1035 0.961 . S
C972 H1036 0.959 . S
C972 H1037 0.959 . S
C973 C970 1.603 . S
C973 H1038 0.960 . S
C973 H1039 0.962 . S
C973 H1040 0.961 . S
C974 C941 1.587 . S
C974 C975 1.360 . S
C974 C987 1.412 . S
C975 C974 1.360 . S
C975 C976 1.365 . S
C975 H1041 0.929 . S
C976 C951 1.553 . S
C976 C975 1.365 . S
C976 C977 1.404 . S
C977 C976 1.404 . S
C977 C978 1.395 . S
C977 C988 1.451 . S
C978 C977 1.395 . S
C978 C979 1.322 . S
C978 H1042 0.930 . S
C979 C978 1.322 . S
C979 C980 1.459 . S
C979 H1043 0.929 . S
C980 C979 1.459 . S
C980 C981 1.445 . S
C980 C989 1.395 . S
C981 C959 1.432 . S
C981 C980 1.445 . S
C981 C982 1.370 . S
C982 C981 1.370 . S
C982 C983 1.438 . S
C982 H1044 0.930 . S
C983 C969 1.497 . S
C983 C982 1.438 . S
C983 C984 1.360 . S
C984 C983 1.360 . S
C984 C985 1.401 . S
C984 C989 1.446 . S
C985 C984 1.401 . S
C985 C986 1.347 . S
C985 H1045 0.929 . S
C986 C985 1.347 . S
C986 C987 1.455 . S
C986 H1046 0.930 . S
C987 C974 1.412 . S
C987 C986 1.455 . S
C987 C988 1.331 . S
C988 C977 1.451 . S
C988 C987 1.331 . S
C988 C989 1.497 . S
C989 C980 1.395 . S
C989 C984 1.446 . S
C989 C988 1.497 . S
C990 C991 1.582 . S
C990 H1047 0.962 . S
C990 H1048 0.959 . S
C990 H1049 0.958 . S
C991 C990 1.582 . S
C991 O994 1.458 . S
C991 H1020 0.980 . S
O992 C937 1.426 . S
O992 C938 1.334 . S
O993 C965 1.412 . S
O993 C966 1.393 . S
O994 C956 1.435 . S
O994 C991 1.458 . S
O995 C947 1.468 . S
O995 C948 1.408 . S
H996 C937 0.980 . S
H997 C936 0.959 . S
H998 C936 0.959 . S
H999 C936 0.960 . S
H1000 C939 0.929 . S
H1001 C943 0.929 . S
H1002 C944 0.959 . S
H1003 C944 0.961 . S
H1004 C944 0.961 . S
H1005 C945 0.960 . S
H1006 C945 0.960 . S
H1007 C945 0.961 . S
H1008 C947 0.980 . S
H1009 C946 0.961 . S
H1010 C946 0.960 . S
H1011 C946 0.959 . S
H1012 C949 0.930 . S
H1013 C953 0.931 . S
H1014 C954 0.959 . S
H1015 C954 0.961 . S
H1016 C954 0.959 . S
H1017 C955 0.960 . S
H1018 C955 0.960 . S
H1019 C955 0.960 . S
H1020 C991 0.980 . S
H1021 C957 0.930 . S
H1022 C961 0.930 . S
H1023 C962 0.961 . S
H1024 C962 0.960 . S
H1025 C962 0.958 . S
H1026 C963 0.961 . S
H1027 C963 0.960 . S
H1028 C963 0.960 . S
H1029 C965 0.980 . S
H1030 C964 0.961 . S
H1031 C964 0.961 . S
H1032 C964 0.959 . S
H1033 C967 0.932 . S
H1034 C971 0.929 . S
H1035 C972 0.961 . S
H1036 C972 0.959 . S
H1037 C972 0.959 . S
H1038 C973 0.960 . S
H1039 C973 0.962 . S
H1040 C973 0.961 . S
H1041 C975 0.929 . S
H1042 C978 0.930 . S
H1043 C979 0.929 . S
H1044 C982 0.930 . S
H1045 C985 0.929 . S
H1046 C986 0.930 . S
H1047 C990 0.962 . S
H1048 C990 0.959 . S
H1049 C990 0.958 . S
C1050 C1051 1.560 . S
C1050 H1111 0.959 . S
C1050 H1112 0.959 . S
C1050 H1113 0.960 . S
C1051 C1050 1.560 . S
C1051 O1106 1.426 . S
C1051 H1110 0.980 . S
C1052 C1053 1.407 . S
C1052 C1057 1.418 . S
C1052 O1106 1.334 . S
C1053 C1052 1.407 . S
C1053 C1054 1.360 . S
C1053 H1114 0.929 . S
C1054 C1053 1.360 . S
C1054 C1055 1.401 . S
C1054 C1058 1.527 . S
C1055 C1054 1.401 . S
C1055 C1056 1.405 . S
C1055 C1088 1.587 . S
C1056 C1055 1.405 . S
C1056 C1057 1.332 . S
C1056 C1059 1.496 . S
C1057 C1052 1.418 . S
C1057 C1056 1.332 . S
C1057 H1115 0.929 . S
C1058 C1054 1.527 . S
C1058 H1116 0.959 . S
C1058 H1117 0.961 . S
C1058 H1118 0.961 . S
C1059 C1056 1.496 . S
C1059 H1119 0.960 . S
C1059 H1120 0.960 . S
C1059 H1121 0.961 . S
C1060 C1061 1.517 . S
C1060 H1123 0.961 . S
C1060 H1124 0.960 . S
C1060 H1125 0.959 . S
C1061 C1060 1.517 . S
C1061 O1109 1.468 . S
C1061 H1122 0.980 . S
C1062 C1063 1.349 . S
C1062 C1067 1.367 . S
C1062 O1109 1.408 . S
C1063 C1062 1.349 . S
C1063 C1064 1.407 . S
C1063 H1126 0.930 . S
C1064 C1063 1.407 . S
C1064 C1065 1.449 . S
C1064 C1068 1.535 . S
C1065 C1064 1.449 . S
C1065 C1066 1.384 . S
C1065 C1090 1.553 . S
C1066 C1065 1.384 . S
C1066 C1067 1.364 . S
C1066 C1069 1.450 . S
C1067 C1062 1.367 . S
C1067 C1066 1.364 . S
C1067 H1127 0.931 . S
C1068 C1064 1.535 . S
C1068 H1128 0.959 . S
C1068 H1129 0.961 . S
C1068 H1130 0.959 . S
C1069 C1066 1.450 . S
C1069 H1131 0.960 . S
C1069 H1132 0.960 . S
C1069 H1133 0.960 . S
C1070 C1071 1.309 . S
C1070 C1075 1.304 . S
C1070 O1108 1.435 . S
C1071 C1070 1.309 . S
C1071 C1072 1.476 . S
C1071 H1135 0.930 . S
C1072 C1071 1.476 . S
C1072 C1073 1.400 . S
C1072 C1076 1.567 . S
C1073 C1072 1.400 . S
C1073 C1074 1.373 . S
C1073 C1095 1.432 . S
C1074 C1073 1.373 . S
C1074 C1075 1.339 . S
C1074 C1077 1.530 . S
C1075 C1070 1.304 . S
C1075 C1074 1.339 . S
C1075 H1136 0.930 . S
C1076 C1072 1.567 . S
C1076 H1137 0.961 . S
C1076 H1138 0.960 . S
C1076 H1139 0.958 . S
C1077 C1074 1.530 . S
C1077 H1140 0.961 . S
C1077 H1141 0.960 . S
C1077 H1142 0.960 . S
C1078 C1079 1.530 . S
C1078 H1144 0.961 . S
C1078 H1145 0.961 . S
C1078 H1146 0.959 . S
C1079 C1078 1.530 . S
C1079 O1107 1.412 . S
C1079 H1143 0.980 . S
C1080 C1081 1.288 . S
C1080 C1085 1.377 . S
C1080 O1107 1.393 . S
C1081 C1080 1.288 . S
C1081 C1082 1.369 . S
C1081 H1147 0.932 . S
C1082 C1081 1.369 . S
C1082 C1083 1.398 . S
C1082 C1086 1.527 . S
C1083 C1082 1.398 . S
C1083 C1084 1.380 . S
C1083 C1097 1.497 . S
C1084 C1083 1.380 . S
C1084 C1085 1.383 . S
C1084 C1087 1.603 . S
C1085 C1080 1.377 . S
C1085 C1084 1.383 . S
C1085 H1148 0.929 . S
C1086 C1082 1.527 . S
C1086 H1149 0.961 . S
C1086 H1150 0.959 . S
C1086 H1151 0.959 . S
C1087 C1084 1.603 . S
C1087 H1152 0.960 . S
C1087 H1153 0.962 . S
C1087 H1154 0.961 . S
C1088 C1055 1.587 . S
C1088 C1089 1.360 . S
C1088 C1101 1.412 . S
C1089 C1088 1.360 . S
C1089 C1090 1.365 . S
C1089 H1155 0.929 . S
C1090 C1065 1.553 . S
C1090 C1089 1.365 . S
C1090 C1091 1.404 . S
C1091 C1090 1.404 . S
C1091 C1092 1.395 . S
C1091 C1102 1.451 . S
C1092 C1091 1.395 . S
C1092 C1093 1.322 . S
C1092 H1156 0.930 . S
C1093 C1092 1.322 . S
C1093 C1094 1.459 . S
C1093 H1157 0.929 . S
C1094 C1093 1.459 . S
C1094 C1095 1.445 . S
C1094 C1103 1.395 . S
C1095 C1073 1.432 . S
C1095 C1094 1.445 . S
C1095 C1096 1.370 . S
C1096 C1095 1.370 . S
C1096 C1097 1.438 . S
C1096 H1158 0.930 . S
C1097 C1083 1.497 . S
C1097 C1096 1.438 . S
C1097 C1098 1.360 . S
C1098 C1097 1.360 . S
C1098 C1099 1.401 . S
C1098 C1103 1.446 . S
C1099 C1098 1.401 . S
C1099 C1100 1.347 . S
C1099 H1159 0.929 . S
C1100 C1099 1.347 . S
C1100 C1101 1.455 . S
C1100 H1160 0.930 . S
C1101 C1088 1.412 . S
C1101 C1100 1.455 . S
C1101 C1102 1.331 . S
C1102 C1091 1.451 . S
C1102 C1101 1.331 . S
C1102 C1103 1.497 . S
C1103 C1094 1.395 . S
C1103 C1098 1.446 . S
C1103 C1102 1.497 . S
C1104 C1105 1.582 . S
C1104 H1161 0.962 . S
C1104 H1162 0.959 . S
C1104 H1163 0.958 . S
C1105 C1104 1.582 . S
C1105 O1108 1.458 . S
C1105 H1134 0.980 . S
O1106 C1051 1.426 . S
O1106 C1052 1.334 . S
O1107 C1079 1.412 . S
O1107 C1080 1.393 . S
O1108 C1070 1.435 . S
O1108 C1105 1.458 . S
O1109 C1061 1.468 . S
O1109 C1062 1.408 . S
H1110 C1051 0.980 . S
H1111 C1050 0.959 . S
H1112 C1050 0.959 . S
H1113 C1050 0.960 . S
H1114 C1053 0.929 . S
H1115 C1057 0.929 . S
H1116 C1058 0.959 . S
H1117 C1058 0.961 . S
H1118 C1058 0.961 . S
H1119 C1059 0.960 . S
H1120 C1059 0.960 . S
H1121 C1059 0.961 . S
H1122 C1061 0.980 . S
H1123 C1060 0.961 . S
H1124 C1060 0.960 . S
H1125 C1060 0.959 . S
H1126 C1063 0.930 . S
H1127 C1067 0.931 . S
H1128 C1068 0.959 . S
H1129 C1068 0.961 . S
H1130 C1068 0.959 . S
H1131 C1069 0.960 . S
H1132 C1069 0.960 . S
H1133 C1069 0.960 . S
H1134 C1105 0.980 . S
H1135 C1071 0.930 . S
H1136 C1075 0.930 . S
H1137 C1076 0.961 . S
H1138 C1076 0.960 . S
H1139 C1076 0.958 . S
H1140 C1077 0.961 . S
H1141 C1077 0.960 . S
H1142 C1077 0.960 . S
H1143 C1079 0.980 . S
H1144 C1078 0.961 . S
H1145 C1078 0.961 . S
H1146 C1078 0.959 . S
H1147 C1081 0.932 . S
H1148 C1085 0.929 . S
H1149 C1086 0.961 . S
H1150 C1086 0.959 . S
H1151 C1086 0.959 . S
H1152 C1087 0.960 . S
H1153 C1087 0.962 . S
H1154 C1087 0.961 . S
H1155 C1089 0.929 . S
H1156 C1092 0.930 . S
H1157 C1093 0.929 . S
H1158 C1096 0.930 . S
H1159 C1099 0.929 . S
H1160 C1100 0.930 . S
H1161 C1104 0.962 . S
H1162 C1104 0.959 . S
H1163 C1104 0.958 . S
C1164 C1165 1.560 . S
C1164 H1225 0.959 . S
C1164 H1226 0.959 . S
C1164 H1227 0.960 . S
C1165 C1164 1.560 . S
C1165 O1220 1.426 . S
C1165 H1224 0.980 . S
C1166 C1167 1.407 . S
C1166 C1171 1.418 . S
C1166 O1220 1.334 . S
C1167 C1166 1.407 . S
C1167 C1168 1.360 . S
C1167 H1228 0.929 . S
C1168 C1167 1.360 . S
C1168 C1169 1.401 . S
C1168 C1172 1.527 . S
C1169 C1168 1.401 . S
C1169 C1170 1.405 . S
C1169 C1202 1.587 . S
C1170 C1169 1.405 . S
C1170 C1171 1.332 . S
C1170 C1173 1.496 . S
C1171 C1166 1.418 . S
C1171 C1170 1.332 . S
C1171 H1229 0.929 . S
C1172 C1168 1.527 . S
C1172 H1230 0.959 . S
C1172 H1231 0.961 . S
C1172 H1232 0.961 . S
C1173 C1170 1.496 . S
C1173 H1233 0.960 . S
C1173 H1234 0.960 . S
C1173 H1235 0.961 . S
C1174 C1175 1.517 . S
C1174 H1237 0.961 . S
C1174 H1238 0.960 . S
C1174 H1239 0.959 . S
C1175 C1174 1.517 . S
C1175 O1223 1.468 . S
C1175 H1236 0.980 . S
C1176 C1177 1.349 . S
C1176 C1181 1.367 . S
C1176 O1223 1.408 . S
C1177 C1176 1.349 . S
C1177 C1178 1.407 . S
C1177 H1240 0.930 . S
C1178 C1177 1.407 . S
C1178 C1179 1.449 . S
C1178 C1182 1.535 . S
C1179 C1178 1.449 . S
C1179 C1180 1.384 . S
C1179 C1204 1.553 . S
C1180 C1179 1.384 . S
C1180 C1181 1.364 . S
C1180 C1183 1.450 . S
C1181 C1176 1.367 . S
C1181 C1180 1.364 . S
C1181 H1241 0.931 . S
C1182 C1178 1.535 . S
C1182 H1242 0.959 . S
C1182 H1243 0.961 . S
C1182 H1244 0.959 . S
C1183 C1180 1.450 . S
C1183 H1245 0.960 . S
C1183 H1246 0.960 . S
C1183 H1247 0.960 . S
C1184 C1185 1.309 . S
C1184 C1189 1.304 . S
C1184 O1222 1.435 . S
C1185 C1184 1.309 . S
C1185 C1186 1.476 . S
C1185 H1249 0.930 . S
C1186 C1185 1.476 . S
C1186 C1187 1.400 . S
C1186 C1190 1.567 . S
C1187 C1186 1.400 . S
C1187 C1188 1.373 . S
C1187 C1209 1.432 . S
C1188 C1187 1.373 . S
C1188 C1189 1.339 . S
C1188 C1191 1.530 . S
C1189 C1184 1.304 . S
C1189 C1188 1.339 . S
C1189 H1250 0.930 . S
C1190 C1186 1.567 . S
C1190 H1251 0.961 . S
C1190 H1252 0.960 . S
C1190 H1253 0.958 . S
C1191 C1188 1.530 . S
C1191 H1254 0.961 . S
C1191 H1255 0.960 . S
C1191 H1256 0.960 . S
C1192 C1193 1.530 . S
C1192 H1258 0.961 . S
C1192 H1259 0.961 . S
C1192 H1260 0.959 . S
C1193 C1192 1.530 . S
C1193 O1221 1.412 . S
C1193 H1257 0.980 . S
C1194 C1195 1.288 . S
C1194 C1199 1.377 . S
C1194 O1221 1.393 . S
C1195 C1194 1.288 . S
C1195 C1196 1.369 . S
C1195 H1261 0.932 . S
C1196 C1195 1.369 . S
C1196 C1197 1.398 . S
C1196 C1200 1.527 . S
C1197 C1196 1.398 . S
C1197 C1198 1.380 . S
C1197 C1211 1.497 . S
C1198 C1197 1.380 . S
C1198 C1199 1.383 . S
C1198 C1201 1.603 . S
C1199 C1194 1.377 . S
C1199 C1198 1.383 . S
C1199 H1262 0.929 . S
C1200 C1196 1.527 . S
C1200 H1263 0.961 . S
C1200 H1264 0.959 . S
C1200 H1265 0.959 . S
C1201 C1198 1.603 . S
C1201 H1266 0.960 . S
C1201 H1267 0.962 . S
C1201 H1268 0.961 . S
C1202 C1169 1.587 . S
C1202 C1203 1.360 . S
C1202 C1215 1.412 . S
C1203 C1202 1.360 . S
C1203 C1204 1.365 . S
C1203 H1269 0.929 . S
C1204 C1179 1.553 . S
C1204 C1203 1.365 . S
C1204 C1205 1.404 . S
C1205 C1204 1.404 . S
C1205 C1206 1.395 . S
C1205 C1216 1.451 . S
C1206 C1205 1.395 . S
C1206 C1207 1.322 . S
C1206 H1270 0.930 . S
C1207 C1206 1.322 . S
C1207 C1208 1.459 . S
C1207 H1271 0.929 . S
C1208 C1207 1.459 . S
C1208 C1209 1.445 . S
C1208 C1217 1.395 . S
C1209 C1187 1.432 . S
C1209 C1208 1.445 . S
C1209 C1210 1.370 . S
C1210 C1209 1.370 . S
C1210 C1211 1.438 . S
C1210 H1272 0.930 . S
C1211 C1197 1.497 . S
C1211 C1210 1.438 . S
C1211 C1212 1.360 . S
C1212 C1211 1.360 . S
C1212 C1213 1.401 . S
C1212 C1217 1.446 . S
C1213 C1212 1.401 . S
C1213 C1214 1.347 . S
C1213 H1273 0.929 . S
C1214 C1213 1.347 . S
C1214 C1215 1.455 . S
C1214 H1274 0.930 . S
C1215 C1202 1.412 . S
C1215 C1214 1.455 . S
C1215 C1216 1.331 . S
C1216 C1205 1.451 . S
C1216 C1215 1.331 . S
C1216 C1217 1.497 . S
C1217 C1208 1.395 . S
C1217 C1212 1.446 . S
C1217 C1216 1.497 . S
C1218 C1219 1.582 . S
C1218 H1275 0.962 . S
C1218 H1276 0.959 . S
C1218 H1277 0.958 . S
C1219 C1218 1.582 . S
C1219 O1222 1.458 . S
C1219 H1248 0.980 . S
O1220 C1165 1.426 . S
O1220 C1166 1.334 . S
O1221 C1193 1.412 . S
O1221 C1194 1.393 . S
O1222 C1184 1.435 . S
O1222 C1219 1.458 . S
O1223 C1175 1.468 . S
O1223 C1176 1.408 . S
H1224 C1165 0.980 . S
H1225 C1164 0.959 . S
H1226 C1164 0.959 . S
H1227 C1164 0.960 . S
H1228 C1167 0.929 . S
H1229 C1171 0.929 . S
H1230 C1172 0.959 . S
H1231 C1172 0.961 . S
H1232 C1172 0.961 . S
H1233 C1173 0.960 . S
H1234 C1173 0.960 . S
H1235 C1173 0.961 . S
H1236 C1175 0.980 . S
H1237 C1174 0.961 . S
H1238 C1174 0.960 . S
H1239 C1174 0.959 . S
H1240 C1177 0.930 . S
H1241 C1181 0.931 . S
H1242 C1182 0.959 . S
H1243 C1182 0.961 . S
H1244 C1182 0.959 . S
H1245 C1183 0.960 . S
H1246 C1183 0.960 . S
H1247 C1183 0.960 . S
H1248 C1219 0.980 . S
H1249 C1185 0.930 . S
H1250 C1189 0.930 . S
H1251 C1190 0.961 . S
H1252 C1190 0.960 . S
H1253 C1190 0.958 . S
H1254 C1191 0.961 . S
H1255 C1191 0.960 . S
H1256 C1191 0.960 . S
H1257 C1193 0.980 . S
H1258 C1192 0.961 . S
H1259 C1192 0.961 . S
H1260 C1192 0.959 . S
H1261 C1195 0.932 . S
H1262 C1199 0.929 . S
H1263 C1200 0.961 . S
H1264 C1200 0.959 . S
H1265 C1200 0.959 . S
H1266 C1201 0.960 . S
H1267 C1201 0.962 . S
H1268 C1201 0.961 . S
H1269 C1203 0.929 . S
H1270 C1206 0.930 . S
H1271 C1207 0.929 . S
H1272 C1210 0.930 . S
H1273 C1213 0.929 . S
H1274 C1214 0.930 . S
H1275 C1218 0.962 . S
H1276 C1218 0.959 . S
H1277 C1218 0.958 . S
C1278 C1279 1.560 . S
C1278 H1339 0.959 . S
C1278 H1340 0.959 . S
C1278 H1341 0.960 . S
C1279 C1278 1.560 . S
C1279 O1334 1.426 . S
C1279 H1338 0.980 . S
C1280 C1281 1.407 1_455 S
C1280 C1285 1.418 . S
C1280 O1334 1.334 . S
C1281 C1280 1.407 1_655 S
C1281 C1282 1.360 . S
C1281 H1342 0.929 . S
C1282 C1281 1.360 . S
C1282 C1283 1.401 1_655 S
C1282 C1286 1.527 . S
C1283 C1282 1.401 1_455 S
C1283 C1284 1.405 . S
C1283 C1316 1.587 1_455 S
C1284 C1283 1.405 . S
C1284 C1285 1.332 . S
C1284 C1287 1.496 . S
C1285 C1280 1.418 . S
C1285 C1284 1.332 . S
C1285 H1343 0.929 . S
C1286 C1282 1.527 . S
C1286 H1344 0.959 . S
C1286 H1345 0.961 . S
C1286 H1346 0.961 . S
C1287 C1284 1.496 . S
C1287 H1347 0.960 . S
C1287 H1348 0.960 . S
C1287 H1349 0.961 . S
C1288 C1289 1.517 . S
C1288 H1351 0.961 . S
C1288 H1352 0.960 . S
C1288 H1353 0.959 . S
C1289 C1288 1.517 . S
C1289 O1337 1.468 . S
C1289 H1350 0.980 1_655 S
C1290 C1291 1.349 . S
C1290 C1295 1.367 . S
C1290 O1337 1.408 . S
C1291 C1290 1.349 . S
C1291 C1292 1.407 1_655 S
C1291 H1354 0.930 1_655 S
C1292 C1291 1.407 1_455 S
C1292 C1293 1.449 1_455 S
C1292 C1296 1.535 . S
C1293 C1292 1.449 1_655 S
C1293 C1294 1.384 . S
C1293 C1318 1.553 . S
C1294 C1293 1.384 . S
C1294 C1295 1.364 . S
C1294 C1297 1.450 . S
C1295 C1290 1.367 . S
C1295 C1294 1.364 . S
C1295 H1355 0.931 . S
C1296 C1292 1.535 . S
C1296 H1356 0.959 . S
C1296 H1357 0.961 . S
C1296 H1358 0.959 . S
C1297 C1294 1.450 . S
C1297 H1359 0.960 . S
C1297 H1360 0.960 . S
C1297 H1361 0.960 . S
C1298 C1299 1.309 . S
C1298 C1303 1.304 . S
C1298 O1336 1.435 . S
C1299 C1298 1.309 . S
C1299 C1300 1.477 . S
C1299 H1363 0.930 1_655 S
C1300 C1299 1.477 . S
C1300 C1301 1.401 . S
C1300 C1304 1.564 1_655 S
C1301 C1300 1.401 . S
C1301 C1302 1.373 . S
C1301 C1323 1.432 . S
C1302 C1301 1.373 . S
C1302 C1303 1.339 . S
C1302 C1305 1.530 . S
C1303 C1298 1.304 . S
C1303 C1302 1.339 . S
C1303 H1364 0.930 . S
C1304 C1300 1.564 1_455 S
C1304 H1365 0.961 . S
C1304 H1366 0.960 . S
C1304 H1367 0.958 . S
C1305 C1302 1.530 . S
C1305 H1368 0.961 . S
C1305 H1369 0.960 . S
C1305 H1370 0.960 . S
C1306 C1307 1.531 . S
C1306 H1372 0.961 . S
C1306 H1373 0.961 . S
C1306 H1374 0.959 . S
C1307 C1306 1.531 . S
C1307 O1335 1.412 . S
C1307 H1371 0.980 1_455 S
C1308 C1309 1.288 . S
C1308 C1313 1.377 1_455 S
C1308 O1335 1.393 . S
C1309 C1308 1.288 . S
C1309 C1310 1.369 . S
C1309 H1375 0.932 . S
C1310 C1309 1.369 . S
C1310 C1311 1.398 1_455 S
C1310 C1314 1.527 . S
C1311 C1310 1.398 1_655 S
C1311 C1312 1.380 . S
C1311 C1325 1.497 . S
C1312 C1311 1.380 . S
C1312 C1313 1.383 . S
C1312 C1315 1.603 . S
C1313 C1308 1.377 1_655 S
C1313 C1312 1.383 . S
C1313 H1376 0.929 . S
C1314 C1310 1.527 . S
C1314 H1377 0.961 . S
C1314 H1378 0.959 . S
C1314 H1379 0.959 . S
C1315 C1312 1.603 . S
C1315 H1380 0.960 . S
C1315 H1381 0.962 . S
C1315 H1382 0.961 . S
C1316 C1283 1.587 1_655 S
C1316 C1317 1.360 . S
C1316 C1329 1.412 . S
C1317 C1316 1.360 . S
C1317 C1318 1.365 . S
C1317 H1383 0.929 . S
C1318 C1293 1.553 . S
C1318 C1317 1.365 . S
C1318 C1319 1.404 . S
C1319 C1318 1.404 . S
C1319 C1320 1.395 . S
C1319 C1330 1.451 . S
C1320 C1319 1.395 . S
C1320 C1321 1.322 . S
C1320 H1384 0.930 . S
C1321 C1320 1.322 . S
C1321 C1322 1.459 . S
C1321 H1385 0.929 . S
C1322 C1321 1.459 . S
C1322 C1323 1.445 . S
C1322 C1331 1.395 . S
C1323 C1301 1.432 . S
C1323 C1322 1.445 . S
C1323 C1324 1.370 . S
C1324 C1323 1.370 . S
C1324 C1325 1.438 . S
C1324 H1386 0.930 . S
C1325 C1311 1.497 . S
C1325 C1324 1.438 . S
C1325 C1326 1.360 . S
C1326 C1325 1.360 . S
C1326 C1327 1.401 . S
C1326 C1331 1.446 . S
C1327 C1326 1.401 . S
C1327 C1328 1.347 . S
C1327 H1387 0.929 . S
C1328 C1327 1.347 . S
C1328 C1329 1.455 . S
C1328 H1388 0.930 . S
C1329 C1316 1.412 . S
C1329 C1328 1.455 . S
C1329 C1330 1.331 . S
C1330 C1319 1.451 . S
C1330 C1329 1.331 . S
C1330 C1331 1.497 . S
C1331 C1322 1.395 . S
C1331 C1326 1.446 . S
C1331 C1330 1.497 . S
C1332 C1333 1.582 . S
C1332 H1389 0.962 . S
C1332 H1390 0.959 . S
C1332 H1391 0.958 . S
C1333 C1332 1.582 . S
C1333 O1336 1.458 . S
C1333 H1362 0.980 . S
O1334 C1279 1.426 . S
O1334 C1280 1.334 . S
O1335 C1307 1.412 . S
O1335 C1308 1.393 . S
O1336 C1298 1.435 . S
O1336 C1333 1.458 . S
O1337 C1289 1.468 . S
O1337 C1290 1.408 . S
H1338 C1279 0.980 . S
H1339 C1278 0.959 . S
H1340 C1278 0.959 . S
H1341 C1278 0.960 . S
H1342 C1281 0.929 . S
H1343 C1285 0.929 . S
H1344 C1286 0.959 . S
H1345 C1286 0.961 . S
H1346 C1286 0.961 . S
H1347 C1287 0.960 . S
H1348 C1287 0.960 . S
H1349 C1287 0.961 . S
H1350 C1289 0.980 1_455 S
H1351 C1288 0.961 . S
H1352 C1288 0.960 . S
H1353 C1288 0.959 . S
H1354 C1291 0.930 1_455 S
H1355 C1295 0.931 . S
H1356 C1296 0.959 . S
H1357 C1296 0.961 . S
H1358 C1296 0.959 . S
H1359 C1297 0.960 . S
H1360 C1297 0.960 . S
H1361 C1297 0.960 . S
H1362 C1333 0.980 . S
H1363 C1299 0.930 1_455 S
H1364 C1303 0.930 . S
H1365 C1304 0.961 . S
H1366 C1304 0.960 . S
H1367 C1304 0.958 . S
H1368 C1305 0.961 . S
H1369 C1305 0.960 . S
H1370 C1305 0.960 . S
H1371 C1307 0.980 1_655 S
H1372 C1306 0.961 . S
H1373 C1306 0.961 . S
H1374 C1306 0.959 . S
H1375 C1309 0.932 . S
H1376 C1313 0.929 . S
H1377 C1314 0.961 . S
H1378 C1314 0.959 . S
H1379 C1314 0.959 . S
H1380 C1315 0.960 . S
H1381 C1315 0.962 . S
H1382 C1315 0.961 . S
H1383 C1317 0.929 . S
H1384 C1320 0.930 . S
H1385 C1321 0.929 . S
H1386 C1324 0.930 . S
H1387 C1327 0.929 . S
H1388 C1328 0.930 . S
H1389 C1332 0.962 . S
H1390 C1332 0.959 . S
H1391 C1332 0.958 . S
C1392 C1393 1.560 . S
C1392 H1453 0.959 . S
C1392 H1454 0.959 . S
C1392 H1455 0.960 . S
C1393 C1392 1.560 . S
C1393 O1448 1.426 . S
C1393 H1452 0.980 . S
C1394 C1395 1.407 . S
C1394 C1399 1.418 . S
C1394 O1448 1.334 . S
C1395 C1394 1.407 . S
C1395 C1396 1.360 . S
C1395 H1456 0.929 . S
C1396 C1395 1.360 . S
C1396 C1397 1.401 . S
C1396 C1400 1.527 . S
C1397 C1396 1.401 . S
C1397 C1398 1.405 . S
C1397 C1430 1.587 . S
C1398 C1397 1.405 . S
C1398 C1399 1.332 . S
C1398 C1401 1.496 . S
C1399 C1394 1.418 . S
C1399 C1398 1.332 . S
C1399 H1457 0.929 . S
C1400 C1396 1.527 . S
C1400 H1458 0.959 . S
C1400 H1459 0.961 . S
C1400 H1460 0.961 . S
C1401 C1398 1.496 . S
C1401 H1461 0.960 . S
C1401 H1462 0.960 . S
C1401 H1463 0.961 . S
C1402 C1403 1.517 . S
C1402 H1465 0.961 . S
C1402 H1466 0.960 . S
C1402 H1467 0.959 . S
C1403 C1402 1.517 . S
C1403 O1451 1.468 . S
C1403 H1464 0.980 . S
C1404 C1405 1.349 . S
C1404 C1409 1.367 . S
C1404 O1451 1.408 . S
C1405 C1404 1.349 . S
C1405 C1406 1.407 . S
C1405 H1468 0.930 . S
C1406 C1405 1.407 . S
C1406 C1407 1.449 . S
C1406 C1410 1.535 . S
C1407 C1406 1.449 . S
C1407 C1408 1.384 . S
C1407 C1432 1.553 . S
C1408 C1407 1.384 . S
C1408 C1409 1.364 . S
C1408 C1411 1.450 . S
C1409 C1404 1.367 . S
C1409 C1408 1.364 . S
C1409 H1469 0.931 . S
C1410 C1406 1.535 . S
C1410 H1470 0.959 . S
C1410 H1471 0.961 . S
C1410 H1472 0.959 . S
C1411 C1408 1.450 . S
C1411 H1473 0.960 . S
C1411 H1474 0.960 . S
C1411 H1475 0.960 . S
C1412 C1413 1.309 . S
C1412 C1417 1.304 . S
C1412 O1450 1.435 . S
C1413 C1412 1.309 . S
C1413 C1414 1.476 . S
C1413 H1477 0.930 . S
C1414 C1413 1.476 . S
C1414 C1415 1.400 . S
C1414 C1418 1.567 . S
C1415 C1414 1.400 . S
C1415 C1416 1.373 . S
C1415 C1437 1.432 . S
C1416 C1415 1.373 . S
C1416 C1417 1.339 . S
C1416 C1419 1.530 . S
C1417 C1412 1.304 . S
C1417 C1416 1.339 . S
C1417 H1478 0.930 . S
C1418 C1414 1.567 . S
C1418 H1479 0.961 . S
C1418 H1480 0.960 . S
C1418 H1481 0.958 . S
C1419 C1416 1.530 . S
C1419 H1482 0.961 . S
C1419 H1483 0.960 . S
C1419 H1484 0.960 . S
C1420 C1421 1.530 . S
C1420 H1486 0.961 . S
C1420 H1487 0.961 . S
C1420 H1488 0.959 . S
C1421 C1420 1.530 . S
C1421 O1449 1.412 . S
C1421 H1485 0.980 . S
C1422 C1423 1.288 . S
C1422 C1427 1.377 . S
C1422 O1449 1.393 . S
C1423 C1422 1.288 . S
C1423 C1424 1.369 . S
C1423 H1489 0.932 . S
C1424 C1423 1.369 . S
C1424 C1425 1.398 . S
C1424 C1428 1.527 . S
C1425 C1424 1.398 . S
C1425 C1426 1.380 . S
C1425 C1439 1.497 . S
C1426 C1425 1.380 . S
C1426 C1427 1.383 . S
C1426 C1429 1.603 . S
C1427 C1422 1.377 . S
C1427 C1426 1.383 . S
C1427 H1490 0.929 . S
C1428 C1424 1.527 . S
C1428 H1491 0.961 . S
C1428 H1492 0.959 . S
C1428 H1493 0.959 . S
C1429 C1426 1.603 . S
C1429 H1494 0.960 . S
C1429 H1495 0.962 . S
C1429 H1496 0.961 . S
C1430 C1397 1.587 . S
C1430 C1431 1.360 . S
C1430 C1443 1.412 . S
C1431 C1430 1.360 . S
C1431 C1432 1.365 . S
C1431 H1497 0.929 . S
C1432 C1407 1.553 . S
C1432 C1431 1.365 . S
C1432 C1433 1.404 . S
C1433 C1432 1.404 . S
C1433 C1434 1.395 . S
C1433 C1444 1.451 . S
C1434 C1433 1.395 . S
C1434 C1435 1.322 . S
C1434 H1498 0.930 . S
C1435 C1434 1.322 . S
C1435 C1436 1.459 . S
C1435 H1499 0.929 . S
C1436 C1435 1.459 . S
C1436 C1437 1.445 . S
C1436 C1445 1.395 . S
C1437 C1415 1.432 . S
C1437 C1436 1.445 . S
C1437 C1438 1.370 . S
C1438 C1437 1.370 . S
C1438 C1439 1.438 . S
C1438 H1500 0.930 . S
C1439 C1425 1.497 . S
C1439 C1438 1.438 . S
C1439 C1440 1.360 . S
C1440 C1439 1.360 . S
C1440 C1441 1.401 . S
C1440 C1445 1.446 . S
C1441 C1440 1.401 . S
C1441 C1442 1.347 . S
C1441 H1501 0.929 . S
C1442 C1441 1.347 . S
C1442 C1443 1.455 . S
C1442 H1502 0.930 . S
C1443 C1430 1.412 . S
C1443 C1442 1.455 . S
C1443 C1444 1.331 . S
C1444 C1433 1.451 . S
C1444 C1443 1.331 . S
C1444 C1445 1.497 . S
C1445 C1436 1.395 . S
C1445 C1440 1.446 . S
C1445 C1444 1.497 . S
C1446 C1447 1.582 . S
C1446 H1503 0.962 . S
C1446 H1504 0.959 . S
C1446 H1505 0.958 . S
C1447 C1446 1.582 . S
C1447 O1450 1.458 . S
C1447 H1476 0.980 . S
O1448 C1393 1.426 . S
O1448 C1394 1.334 . S
O1449 C1421 1.412 . S
O1449 C1422 1.393 . S
O1450 C1412 1.435 . S
O1450 C1447 1.458 . S
O1451 C1403 1.468 . S
O1451 C1404 1.408 . S
H1452 C1393 0.980 . S
H1453 C1392 0.959 . S
H1454 C1392 0.959 . S
H1455 C1392 0.960 . S
H1456 C1395 0.929 . S
H1457 C1399 0.929 . S
H1458 C1400 0.959 . S
H1459 C1400 0.961 . S
H1460 C1400 0.961 . S
H1461 C1401 0.960 . S
H1462 C1401 0.960 . S
H1463 C1401 0.961 . S
H1464 C1403 0.980 . S
H1465 C1402 0.961 . S
H1466 C1402 0.960 . S
H1467 C1402 0.959 . S
H1468 C1405 0.930 . S
H1469 C1409 0.931 . S
H1470 C1410 0.959 . S
H1471 C1410 0.961 . S
H1472 C1410 0.959 . S
H1473 C1411 0.960 . S
H1474 C1411 0.960 . S
H1475 C1411 0.960 . S
H1476 C1447 0.980 . S
H1477 C1413 0.930 . S
H1478 C1417 0.930 . S
H1479 C1418 0.961 . S
H1480 C1418 0.960 . S
H1481 C1418 0.958 . S
H1482 C1419 0.961 . S
H1483 C1419 0.960 . S
H1484 C1419 0.960 . S
H1485 C1421 0.980 . S
H1486 C1420 0.961 . S
H1487 C1420 0.961 . S
H1488 C1420 0.959 . S
H1489 C1423 0.932 . S
H1490 C1427 0.929 . S
H1491 C1428 0.961 . S
H1492 C1428 0.959 . S
H1493 C1428 0.959 . S
H1494 C1429 0.960 . S
H1495 C1429 0.962 . S
H1496 C1429 0.961 . S
H1497 C1431 0.929 . S
H1498 C1434 0.930 . S
H1499 C1435 0.929 . S
H1500 C1438 0.930 . S
H1501 C1441 0.929 . S
H1502 C1442 0.930 . S
H1503 C1446 0.962 . S
H1504 C1446 0.959 . S
H1505 C1446 0.958 . S
C1506 C1507 1.560 . S
C1506 H1567 0.959 . S
C1506 H1568 0.959 . S
C1506 H1569 0.960 . S
C1507 C1506 1.560 . S
C1507 O1562 1.426 . S
C1507 H1566 0.980 . S
C1508 C1509 1.407 1_565 S
C1508 C1513 1.418 . S
C1508 O1562 1.334 . S
C1509 C1508 1.407 1_545 S
C1509 C1510 1.360 . S
C1509 H1570 0.929 . S
C1510 C1509 1.360 . S
C1510 C1511 1.401 1_545 S
C1510 C1514 1.527 . S
C1511 C1510 1.401 1_565 S
C1511 C1512 1.405 . S
C1511 C1544 1.587 1_565 S
C1512 C1511 1.405 . S
C1512 C1513 1.332 . S
C1512 C1515 1.496 . S
C1513 C1508 1.418 . S
C1513 C1512 1.332 . S
C1513 H1571 0.929 . S
C1514 C1510 1.527 . S
C1514 H1572 0.959 . S
C1514 H1573 0.961 . S
C1514 H1574 0.961 . S
C1515 C1512 1.496 . S
C1515 H1575 0.960 . S
C1515 H1576 0.960 . S
C1515 H1577 0.961 . S
C1516 C1517 1.517 . S
C1516 H1579 0.961 1_545 S
C1516 H1580 0.960 . S
C1516 H1581 0.959 . S
C1517 C1516 1.517 . S
C1517 O1565 1.468 . S
C1517 H1578 0.980 1_545 S
C1518 C1519 1.367 . S
C1518 C1523 1.367 . S
C1518 O1565 1.408 . S
C1519 C1518 1.367 . S
C1519 C1520 1.419 1_545 S
C1519 H1582 0.900 1_545 S
C1520 C1519 1.419 1_565 S
C1520 C1521 1.449 1_565 S
C1520 C1524 1.535 . S
C1521 C1520 1.449 1_545 S
C1521 C1522 1.384 . S
C1521 C1546 1.553 . S
C1522 C1521 1.384 . S
C1522 C1523 1.364 . S
C1522 C1525 1.450 . S
C1523 C1518 1.367 . S
C1523 C1522 1.364 . S
C1523 H1583 0.931 . S
C1524 C1520 1.535 . S
C1524 H1584 0.959 . S
C1524 H1585 0.961 . S
C1524 H1586 0.959 . S
C1525 C1522 1.450 . S
C1525 H1587 0.960 . S
C1525 H1588 0.960 . S
C1525 H1589 0.960 . S
C1526 C1527 1.309 . S
C1526 C1531 1.304 . S
C1526 O1564 1.435 . S
C1527 C1526 1.309 . S
C1527 C1528 1.492 1_545 S
C1527 H1591 0.930 1_545 S
C1528 C1527 1.492 1_565 S
C1528 C1529 1.349 1_565 S
C1528 C1532 1.602 . S
C1529 C1528 1.349 1_545 S
C1529 C1530 1.373 . S
C1529 C1551 1.432 . S
C1530 C1529 1.373 . S
C1530 C1531 1.339 . S
C1530 C1533 1.530 . S
C1531 C1526 1.304 . S
C1531 C1530 1.339 . S
C1531 H1592 0.930 . S
C1532 C1528 1.602 . S
C1532 H1593 0.961 . S
C1532 H1594 0.960 . S
C1532 H1595 0.958 . S
C1533 C1530 1.530 . S
C1533 H1596 0.961 . S
C1533 H1597 0.960 . S
C1533 H1598 0.960 . S
C1534 C1535 1.530 1_565 S
C1534 H1600 0.961 . S
C1534 H1601 0.961 . S
C1534 H1602 0.959 . S
C1535 C1534 1.530 1_545 S
C1535 O1563 1.412 1_545 S
C1535 H1599 0.980 . S
C1536 C1537 1.288 . S
C1536 C1541 1.377 1_565 S
C1536 O1563 1.393 . S
C1537 C1536 1.288 . S
C1537 C1538 1.369 . S
C1537 H1603 0.932 . S
C1538 C1537 1.369 . S
C1538 C1539 1.398 1_565 S
C1538 C1542 1.527 . S
C1539 C1538 1.398 1_545 S
C1539 C1540 1.380 . S
C1539 C1553 1.497 . S
C1540 C1539 1.380 . S
C1540 C1541 1.383 . S
C1540 C1543 1.603 . S
C1541 C1536 1.377 1_545 S
C1541 C1540 1.383 . S
C1541 H1604 0.929 . S
C1542 C1538 1.527 . S
C1542 H1605 0.961 . S
C1542 H1606 0.959 . S
C1542 H1607 0.959 . S
C1543 C1540 1.603 . S
C1543 H1608 0.960 . S
C1543 H1609 0.962 . S
C1543 H1610 0.961 . S
C1544 C1511 1.587 1_545 S
C1544 C1545 1.360 . S
C1544 C1557 1.412 . S
C1545 C1544 1.360 . S
C1545 C1546 1.365 . S
C1545 H1611 0.929 . S
C1546 C1521 1.553 . S
C1546 C1545 1.365 . S
C1546 C1547 1.404 . S
C1547 C1546 1.404 . S
C1547 C1548 1.395 . S
C1547 C1558 1.451 . S
C1548 C1547 1.395 . S
C1548 C1549 1.322 . S
C1548 H1612 0.930 . S
C1549 C1548 1.322 . S
C1549 C1550 1.459 . S
C1549 H1613 0.929 . S
C1550 C1549 1.459 . S
C1550 C1551 1.445 . S
C1550 C1559 1.395 . S
C1551 C1529 1.432 . S
C1551 C1550 1.445 . S
C1551 C1552 1.370 . S
C1552 C1551 1.370 . S
C1552 C1553 1.438 . S
C1552 H1614 0.930 . S
C1553 C1539 1.497 . S
C1553 C1552 1.438 . S
C1553 C1554 1.360 . S
C1554 C1553 1.360 . S
C1554 C1555 1.401 . S
C1554 C1559 1.446 . S
C1555 C1554 1.401 . S
C1555 C1556 1.347 . S
C1555 H1615 0.929 . S
C1556 C1555 1.347 . S
C1556 C1557 1.455 . S
C1556 H1616 0.930 . S
C1557 C1544 1.412 . S
C1557 C1556 1.455 . S
C1557 C1558 1.331 . S
C1558 C1547 1.451 . S
C1558 C1557 1.331 . S
C1558 C1559 1.497 . S
C1559 C1550 1.395 . S
C1559 C1554 1.446 . S
C1559 C1558 1.497 . S
C1560 C1561 1.582 . S
C1560 H1617 0.962 . S
C1560 H1618 0.959 . S
C1560 H1619 0.958 . S
C1561 C1560 1.582 . S
C1561 O1564 1.458 . S
C1561 H1590 0.980 . S
O1562 C1507 1.426 . S
O1562 C1508 1.334 . S
O1563 C1535 1.412 1_565 S
O1563 C1536 1.393 . S
O1564 C1526 1.435 . S
O1564 C1561 1.458 . S
O1565 C1517 1.468 . S
O1565 C1518 1.408 . S
H1566 C1507 0.980 . S
H1567 C1506 0.959 . S
H1568 C1506 0.959 . S
H1569 C1506 0.960 . S
H1570 C1509 0.929 . S
H1571 C1513 0.929 . S
H1572 C1514 0.959 . S
H1573 C1514 0.961 . S
H1574 C1514 0.961 . S
H1575 C1515 0.960 . S
H1576 C1515 0.960 . S
H1577 C1515 0.961 . S
H1578 C1517 0.980 1_565 S
H1579 C1516 0.961 1_565 S
H1580 C1516 0.960 . S
H1581 C1516 0.959 . S
H1582 C1519 0.900 1_565 S
H1583 C1523 0.931 . S
H1584 C1524 0.959 . S
H1585 C1524 0.961 . S
H1586 C1524 0.959 . S
H1587 C1525 0.960 . S
H1588 C1525 0.960 . S
H1589 C1525 0.960 . S
H1590 C1561 0.980 . S
H1591 C1527 0.930 1_565 S
H1592 C1531 0.930 . S
H1593 C1532 0.961 . S
H1594 C1532 0.960 . S
H1595 C1532 0.958 . S
H1596 C1533 0.961 . S
H1597 C1533 0.960 . S
H1598 C1533 0.960 . S
H1599 C1535 0.980 . S
H1600 C1534 0.961 . S
H1601 C1534 0.961 . S
H1602 C1534 0.959 . S
H1603 C1537 0.932 . S
H1604 C1541 0.929 . S
H1605 C1542 0.961 . S
H1606 C1542 0.959 . S
H1607 C1542 0.959 . S
H1608 C1543 0.960 . S
H1609 C1543 0.962 . S
H1610 C1543 0.961 . S
H1611 C1545 0.929 . S
H1612 C1548 0.930 . S
H1613 C1549 0.929 . S
H1614 C1552 0.930 . S
H1615 C1555 0.929 . S
H1616 C1556 0.930 . S
H1617 C1560 0.962 . S
H1618 C1560 0.959 . S
H1619 C1560 0.958 . S
C1620 C1621 1.560 . S
C1620 H1681 0.959 . S
C1620 H1682 0.959 . S
C1620 H1683 0.960 . S
C1621 C1620 1.560 . S
C1621 O1676 1.426 . S
C1621 H1680 0.980 1_565 S
C1622 C1623 1.407 1_565 S
C1622 C1627 1.418 . S
C1622 O1676 1.334 . S
C1623 C1622 1.407 1_545 S
C1623 C1624 1.360 . S
C1623 H1684 0.929 . S
C1624 C1623 1.360 . S
C1624 C1625 1.401 . S
C1624 C1628 1.527 . S
C1625 C1624 1.401 . S
C1625 C1626 1.405 1_545 S
C1625 C1658 1.587 . S
C1626 C1625 1.405 1_565 S
C1626 C1627 1.332 . S
C1626 C1629 1.496 . S
C1627 C1622 1.418 . S
C1627 C1626 1.332 . S
C1627 H1685 0.929 . S
C1628 C1624 1.527 . S
C1628 H1686 0.959 . S
C1628 H1687 0.961 . S
C1628 H1688 0.961 . S
C1629 C1626 1.496 . S
C1629 H1689 0.960 . S
C1629 H1690 0.960 . S
C1629 H1691 0.961 . S
C1630 C1631 1.517 . S
C1630 H1693 0.961 . S
C1630 H1694 0.960 . S
C1630 H1695 0.959 . S
C1631 C1630 1.517 . S
C1631 O1679 1.468 . S
C1631 H1692 0.980 . S
C1632 C1633 1.349 . S
C1632 C1637 1.367 . S
C1632 O1679 1.408 . S
C1633 C1632 1.349 . S
C1633 C1634 1.407 . S
C1633 H1696 0.932 . S
C1634 C1633 1.407 . S
C1634 C1635 1.449 . S
C1634 C1638 1.535 1_545 S
C1635 C1634 1.449 . S
C1635 C1636 1.384 . S
C1635 C1660 1.553 . S
C1636 C1635 1.384 . S
C1636 C1637 1.364 . S
C1636 C1639 1.450 . S
C1637 C1632 1.367 . S
C1637 C1636 1.364 . S
C1637 H1697 0.931 . S
C1638 C1634 1.535 1_565 S
C1638 H1698 0.959 . S
C1638 H1699 0.961 . S
C1638 H1700 0.959 . S
C1639 C1636 1.450 . S
C1639 H1701 0.960 . S
C1639 H1702 0.960 . S
C1639 H1703 0.960 . S
C1640 C1641 1.309 1_545 S
C1640 C1645 1.304 . S
C1640 O1678 1.435 . S
C1641 C1640 1.309 1_565 S
C1641 C1642 1.476 . S
C1641 H1705 0.930 . S
C1642 C1641 1.476 . S
C1642 C1643 1.400 1_565 S
C1642 C1646 1.567 . S
C1643 C1642 1.400 1_545 S
C1643 C1644 1.373 . S
C1643 C1665 1.432 . S
C1644 C1643 1.373 . S
C1644 C1645 1.339 . S
C1644 C1647 1.530 . S
C1645 C1640 1.304 . S
C1645 C1644 1.339 . S
C1645 H1706 0.930 . S
C1646 C1642 1.567 . S
C1646 H1707 0.961 . S
C1646 H1708 0.960 . S
C1646 H1709 0.958 . S
C1647 C1644 1.530 . S
C1647 H1710 0.961 . S
C1647 H1711 0.960 . S
C1647 H1712 0.960 . S
C1648 C1649 1.530 . S
C1648 H1714 0.961 . S
C1648 H1715 0.961 . S
C1648 H1716 0.959 . S
C1649 C1648 1.530 . S
C1649 O1677 1.412 . S
C1649 H1713 0.980 . S
C1650 C1651 1.288 . S
C1650 C1655 1.377 1_565 S
C1650 O1677 1.393 . S
C1651 C1650 1.288 . S
C1651 C1652 1.369 . S
C1651 H1717 0.932 . S
C1652 C1651 1.369 . S
C1652 C1653 1.398 . S
C1652 C1656 1.527 . S
C1653 C1652 1.398 . S
C1653 C1654 1.380 1_565 S
C1653 C1667 1.497 1_565 S
C1654 C1653 1.380 1_545 S
C1654 C1655 1.383 . S
C1654 C1657 1.603 . S
C1655 C1650 1.377 1_545 S
C1655 C1654 1.383 . S
C1655 H1718 0.929 . S
C1656 C1652 1.527 . S
C1656 H1719 0.961 . S
C1656 H1720 0.959 . S
C1656 H1721 0.959 . S
C1657 C1654 1.603 . S
C1657 H1722 0.960 . S
C1657 H1723 0.962 . S
C1657 H1724 0.961 . S
C1658 C1625 1.587 . S
C1658 C1659 1.360 . S
C1658 C1671 1.412 . S
C1659 C1658 1.360 . S
C1659 C1660 1.365 . S
C1659 H1725 0.929 . S
C1660 C1635 1.553 . S
C1660 C1659 1.365 . S
C1660 C1661 1.404 . S
C1661 C1660 1.404 . S
C1661 C1662 1.395 . S
C1661 C1672 1.451 . S
C1662 C1661 1.395 . S
C1662 C1663 1.322 . S
C1662 H1726 0.930 . S
C1663 C1662 1.322 . S
C1663 C1664 1.459 . S
C1663 H1727 0.929 . S
C1664 C1663 1.459 . S
C1664 C1665 1.445 . S
C1664 C1673 1.395 . S
C1665 C1643 1.432 . S
C1665 C1664 1.445 . S
C1665 C1666 1.370 . S
C1666 C1665 1.370 . S
C1666 C1667 1.438 . S
C1666 H1728 0.930 . S
C1667 C1653 1.497 1_545 S
C1667 C1666 1.438 . S
C1667 C1668 1.360 . S
C1668 C1667 1.360 . S
C1668 C1669 1.401 . S
C1668 C1673 1.446 . S
C1669 C1668 1.401 . S
C1669 C1670 1.347 . S
C1669 H1729 0.955 . S
C1670 C1669 1.347 . S
C1670 C1671 1.455 . S
C1670 H1730 0.930 . S
C1671 C1658 1.412 . S
C1671 C1670 1.455 . S
C1671 C1672 1.331 . S
C1672 C1661 1.451 . S
C1672 C1671 1.331 . S
C1672 C1673 1.497 . S
C1673 C1664 1.395 . S
C1673 C1668 1.446 . S
C1673 C1672 1.497 . S
C1674 C1675 1.582 . S
C1674 H1731 0.962 . S
C1674 H1732 0.959 . S
C1674 H1733 0.958 . S
C1675 C1674 1.582 . S
C1675 O1678 1.458 . S
C1675 H1704 0.980 1_545 S
O1676 C1621 1.426 . S
O1676 C1622 1.334 . S
O1677 C1649 1.412 . S
O1677 C1650 1.393 . S
O1678 C1640 1.435 . S
O1678 C1675 1.458 . S
O1679 C1631 1.468 . S
O1679 C1632 1.408 . S
H1680 C1621 0.980 1_545 S
H1681 C1620 0.959 . S
H1682 C1620 0.959 . S
H1683 C1620 0.960 . S
H1684 C1623 0.929 . S
H1685 C1627 0.929 . S
H1686 C1628 0.959 . S
H1687 C1628 0.961 . S
H1688 C1628 0.961 . S
H1689 C1629 0.960 . S
H1690 C1629 0.960 . S
H1691 C1629 0.961 . S
H1692 C1631 0.980 . S
H1693 C1630 0.961 . S
H1694 C1630 0.960 . S
H1695 C1630 0.959 . S
H1696 C1633 0.932 . S
H1697 C1637 0.931 . S
H1698 C1638 0.959 . S
H1699 C1638 0.961 . S
H1700 C1638 0.959 . S
H1701 C1639 0.960 . S
H1702 C1639 0.960 . S
H1703 C1639 0.960 . S
H1704 C1675 0.980 1_565 S
H1705 C1641 0.930 . S
H1706 C1645 0.930 . S
H1707 C1646 0.961 . S
H1708 C1646 0.960 . S
H1709 C1646 0.958 . S
H1710 C1647 0.961 . S
H1711 C1647 0.960 . S
H1712 C1647 0.960 . S
H1713 C1649 0.980 . S
H1714 C1648 0.961 . S
H1715 C1648 0.961 . S
H1716 C1648 0.959 . S
H1717 C1651 0.932 . S
H1718 C1655 0.929 . S
H1719 C1656 0.961 . S
H1720 C1656 0.959 . S
H1721 C1656 0.959 . S
H1722 C1657 0.960 . S
H1723 C1657 0.962 . S
H1724 C1657 0.961 . S
H1725 C1659 0.929 . S
H1726 C1662 0.930 . S
H1727 C1663 0.929 . S
H1728 C1666 0.930 . S
H1729 C1669 0.955 . S
H1730 C1670 0.930 . S
H1731 C1674 0.962 . S
H1732 C1674 0.959 . S
H1733 C1674 0.958 . S
C1734 C1735 1.560 . S
C1734 H1795 0.959 . S
C1734 H1796 0.959 . S
C1734 H1797 0.960 . S
C1735 C1734 1.560 . S
C1735 O1790 1.426 . S
C1735 H1794 0.980 1_455 S
C1736 C1737 1.407 1_455 S
C1736 C1741 1.418 . S
C1736 O1790 1.334 . S
C1737 C1736 1.407 1_655 S
C1737 C1738 1.360 . S
C1737 H1798 0.929 . S
C1738 C1737 1.360 . S
C1738 C1739 1.401 . S
C1738 C1742 1.527 . S
C1739 C1738 1.401 . S
C1739 C1740 1.405 1_655 S
C1739 C1772 1.587 . S
C1740 C1739 1.405 1_455 S
C1740 C1741 1.332 . S
C1740 C1743 1.496 . S
C1741 C1736 1.418 . S
C1741 C1740 1.332 . S
C1741 H1799 0.929 . S
C1742 C1738 1.527 . S
C1742 H1800 0.959 . S
C1742 H1801 0.961 . S
C1742 H1802 0.961 . S
C1743 C1740 1.496 . S
C1743 H1803 0.960 . S
C1743 H1804 0.960 . S
C1743 H1805 0.961 . S
C1744 C1745 1.517 . S
C1744 H1807 0.961 . S
C1744 H1808 0.960 . S
C1744 H1809 0.959 . S
C1745 C1744 1.517 . S
C1745 O1793 1.468 . S
C1745 H1806 0.980 . S
C1746 C1747 1.349 . S
C1746 C1751 1.367 . S
C1746 O1793 1.408 . S
C1747 C1746 1.349 . S
C1747 C1748 1.407 . S
C1747 H1810 0.902 1_655 S
C1748 C1747 1.407 . S
C1748 C1749 1.449 . S
C1748 C1752 1.535 1_655 S
C1749 C1748 1.449 . S
C1749 C1750 1.384 . S
C1749 C1774 1.553 . S
C1750 C1749 1.384 . S
C1750 C1751 1.364 . S
C1750 C1753 1.450 . S
C1751 C1746 1.367 . S
C1751 C1750 1.364 . S
C1751 H1811 0.931 . S
C1752 C1748 1.535 1_455 S
C1752 H1812 0.959 . S
C1752 H1813 0.961 . S
C1752 H1814 0.959 . S
C1753 C1750 1.450 . S
C1753 H1815 0.960 . S
C1753 H1816 0.960 . S
C1753 H1817 0.960 . S
C1754 C1755 1.309 1_655 S
C1754 C1759 1.304 . S
C1754 O1792 1.435 . S
C1755 C1754 1.309 1_455 S
C1755 C1756 1.476 . S
C1755 H1819 0.930 . S
C1756 C1755 1.476 . S
C1756 C1757 1.400 1_455 S
C1756 C1760 1.567 . S
C1757 C1756 1.400 1_655 S
C1757 C1758 1.373 . S
C1757 C1779 1.432 . S
C1758 C1757 1.373 . S
C1758 C1759 1.339 . S
C1758 C1761 1.530 . S
C1759 C1754 1.304 . S
C1759 C1758 1.339 . S
C1759 H1820 0.930 . S
C1760 C1756 1.567 . S
C1760 H1821 0.961 . S
C1760 H1822 0.960 . S
C1760 H1823 0.958 . S
C1761 C1758 1.530 . S
C1761 H1824 0.961 . S
C1761 H1825 0.960 . S
C1761 H1826 0.960 . S
C1762 C1763 1.530 . S
C1762 H1828 0.961 . S
C1762 H1829 0.961 . S
C1762 H1830 0.959 . S
C1763 C1762 1.530 . S
C1763 O1791 1.412 . S
C1763 H1827 0.973 1_455 S
C1764 C1765 1.288 . S
C1764 C1769 1.377 1_455 S
C1764 O1791 1.393 . S
C1765 C1764 1.288 . S
C1765 C1766 1.369 . S
C1765 H1831 0.932 . S
C1766 C1765 1.369 . S
C1766 C1767 1.398 . S
C1766 C1770 1.527 . S
C1767 C1766 1.398 . S
C1767 C1768 1.380 1_455 S
C1767 C1781 1.497 1_455 S
C1768 C1767 1.380 1_655 S
C1768 C1769 1.383 . S
C1768 C1771 1.603 . S
C1769 C1764 1.377 1_655 S
C1769 C1768 1.383 . S
C1769 H1832 0.929 . S
C1770 C1766 1.527 . S
C1770 H1833 0.961 . S
C1770 H1834 0.959 . S
C1770 H1835 0.959 . S
C1771 C1768 1.603 . S
C1771 H1836 0.960 . S
C1771 H1837 0.962 . S
C1771 H1838 0.961 . S
C1772 C1739 1.587 . S
C1772 C1773 1.360 . S
C1772 C1785 1.412 . S
C1773 C1772 1.360 . S
C1773 C1774 1.365 . S
C1773 H1839 0.929 . S
C1774 C1749 1.553 . S
C1774 C1773 1.365 . S
C1774 C1775 1.404 . S
C1775 C1774 1.404 . S
C1775 C1776 1.395 . S
C1775 C1786 1.451 . S
C1776 C1775 1.395 . S
C1776 C1777 1.322 . S
C1776 H1840 0.930 . S
C1777 C1776 1.322 . S
C1777 C1778 1.459 . S
C1777 H1841 0.929 . S
C1778 C1777 1.459 . S
C1778 C1779 1.445 . S
C1778 C1787 1.395 . S
C1779 C1757 1.432 . S
C1779 C1778 1.445 . S
C1779 C1780 1.370 . S
C1780 C1779 1.370 . S
C1780 C1781 1.438 . S
C1780 H1842 0.930 . S
C1781 C1767 1.497 1_655 S
C1781 C1780 1.438 . S
C1781 C1782 1.360 . S
C1782 C1781 1.360 . S
C1782 C1783 1.401 . S
C1782 C1787 1.446 . S
C1783 C1782 1.401 . S
C1783 C1784 1.347 . S
C1783 H1843 0.929 . S
C1784 C1783 1.347 . S
C1784 C1785 1.455 . S
C1784 H1844 0.930 . S
C1785 C1772 1.412 . S
C1785 C1784 1.455 . S
C1785 C1786 1.331 . S
C1786 C1775 1.451 . S
C1786 C1785 1.331 . S
C1786 C1787 1.497 . S
C1787 C1778 1.395 . S
C1787 C1782 1.446 . S
C1787 C1786 1.497 . S
C1788 C1789 1.582 1_655 S
C1788 H1845 0.914 1_655 S
C1788 H1846 0.959 . S
C1788 H1847 0.958 . S
C1789 C1788 1.582 1_455 S
C1789 O1792 1.458 1_455 S
C1789 H1818 0.980 . S
O1790 C1735 1.426 . S
O1790 C1736 1.334 . S
O1791 C1763 1.412 . S
O1791 C1764 1.393 . S
O1792 C1754 1.435 . S
O1792 C1789 1.458 1_655 S
O1793 C1745 1.468 . S
O1793 C1746 1.408 . S
H1794 C1735 0.980 1_655 S
H1795 C1734 0.959 . S
H1796 C1734 0.959 . S
H1797 C1734 0.960 . S
H1798 C1737 0.929 . S
H1799 C1741 0.929 . S
H1800 C1742 0.959 . S
H1801 C1742 0.961 . S
H1802 C1742 0.961 . S
H1803 C1743 0.960 . S
H1804 C1743 0.960 . S
H1805 C1743 0.961 . S
H1806 C1745 0.980 . S
H1807 C1744 0.961 . S
H1808 C1744 0.960 . S
H1809 C1744 0.959 . S
H1810 C1747 0.902 1_455 S
H1811 C1751 0.931 . S
H1812 C1752 0.959 . S
H1813 C1752 0.961 . S
H1814 C1752 0.959 . S
H1815 C1753 0.960 . S
H1816 C1753 0.960 . S
H1817 C1753 0.960 . S
H1818 C1789 0.980 . S
H1819 C1755 0.930 . S
H1820 C1759 0.930 . S
H1821 C1760 0.961 . S
H1822 C1760 0.960 . S
H1823 C1760 0.958 . S
H1824 C1761 0.961 . S
H1825 C1761 0.960 . S
H1826 C1761 0.960 . S
H1827 C1763 0.973 1_655 S
H1828 C1762 0.961 . S
H1829 C1762 0.961 . S
H1830 C1762 0.959 . S
H1831 C1765 0.932 . S
H1832 C1769 0.929 . S
H1833 C1770 0.961 . S
H1834 C1770 0.959 . S
H1835 C1770 0.959 . S
H1836 C1771 0.960 . S
H1837 C1771 0.962 . S
H1838 C1771 0.961 . S
H1839 C1773 0.929 . S
H1840 C1776 0.930 . S
H1841 C1777 0.929 . S
H1842 C1780 0.930 . S
H1843 C1783 0.929 . S
H1844 C1784 0.930 . S
H1845 C1788 0.914 1_455 S
H1846 C1788 0.959 . S
H1847 C1788 0.958 . S
C1848 C1849 1.560 . S
C1848 H1909 0.959 . S
C1848 H1910 0.959 . S
C1848 H1911 0.960 . S
C1849 C1848 1.560 . S
C1849 O1904 1.426 . S
C1849 H1908 0.980 . S
C1850 C1851 1.407 . S
C1850 C1855 1.418 . S
C1850 O1904 1.334 . S
C1851 C1850 1.407 . S
C1851 C1852 1.360 . S
C1851 H1912 0.929 . S
C1852 C1851 1.360 . S
C1852 C1853 1.401 . S
C1852 C1856 1.527 . S
C1853 C1852 1.401 . S
C1853 C1854 1.405 . S
C1853 C1886 1.587 . S
C1854 C1853 1.405 . S
C1854 C1855 1.332 . S
C1854 C1857 1.496 . S
C1855 C1850 1.418 . S
C1855 C1854 1.332 . S
C1855 H1913 0.929 . S
C1856 C1852 1.527 . S
C1856 H1914 0.959 . S
C1856 H1915 0.961 . S
C1856 H1916 0.961 . S
C1857 C1854 1.496 . S
C1857 H1917 0.960 . S
C1857 H1918 0.960 . S
C1857 H1919 0.961 . S
C1858 C1859 1.517 . S
C1858 H1921 0.961 . S
C1858 H1922 0.960 . S
C1858 H1923 0.959 . S
C1859 C1858 1.517 . S
C1859 O1907 1.468 . S
C1859 H1920 0.980 . S
C1860 C1861 1.349 . S
C1860 C1865 1.367 . S
C1860 O1907 1.408 . S
C1861 C1860 1.349 . S
C1861 C1862 1.407 . S
C1861 H1924 0.930 . S
C1862 C1861 1.407 . S
C1862 C1863 1.449 . S
C1862 C1866 1.535 . S
C1863 C1862 1.449 . S
C1863 C1864 1.384 . S
C1863 C1888 1.553 . S
C1864 C1863 1.384 . S
C1864 C1865 1.364 . S
C1864 C1867 1.450 . S
C1865 C1860 1.367 . S
C1865 C1864 1.364 . S
C1865 H1925 0.931 . S
C1866 C1862 1.535 . S
C1866 H1926 0.959 . S
C1866 H1927 0.961 . S
C1866 H1928 0.959 . S
C1867 C1864 1.450 . S
C1867 H1929 0.960 . S
C1867 H1930 0.960 . S
C1867 H1931 0.960 . S
C1868 C1869 1.309 . S
C1868 C1873 1.304 . S
C1868 O1906 1.435 . S
C1869 C1868 1.309 . S
C1869 C1870 1.476 . S
C1869 H1933 0.930 . S
C1870 C1869 1.476 . S
C1870 C1871 1.400 . S
C1870 C1874 1.567 . S
C1871 C1870 1.400 . S
C1871 C1872 1.373 . S
C1871 C1893 1.432 . S
C1872 C1871 1.373 . S
C1872 C1873 1.339 . S
C1872 C1875 1.530 . S
C1873 C1868 1.304 . S
C1873 C1872 1.339 . S
C1873 H1934 0.930 . S
C1874 C1870 1.567 . S
C1874 H1935 0.961 . S
C1874 H1936 0.960 . S
C1874 H1937 0.958 . S
C1875 C1872 1.530 . S
C1875 H1938 0.961 . S
C1875 H1939 0.960 . S
C1875 H1940 0.960 . S
C1876 C1877 1.530 . S
C1876 H1942 0.961 . S
C1876 H1943 0.961 . S
C1876 H1944 0.959 . S
C1877 C1876 1.530 . S
C1877 O1905 1.412 . S
C1877 H1941 0.980 . S
C1878 C1879 1.288 . S
C1878 C1883 1.377 . S
C1878 O1905 1.393 . S
C1879 C1878 1.288 . S
C1879 C1880 1.369 . S
C1879 H1945 0.932 . S
C1880 C1879 1.369 . S
C1880 C1881 1.398 . S
C1880 C1884 1.527 . S
C1881 C1880 1.398 . S
C1881 C1882 1.380 . S
C1881 C1895 1.497 . S
C1882 C1881 1.380 . S
C1882 C1883 1.383 . S
C1882 C1885 1.603 . S
C1883 C1878 1.377 . S
C1883 C1882 1.383 . S
C1883 H1946 0.929 . S
C1884 C1880 1.527 . S
C1884 H1947 0.961 . S
C1884 H1948 0.959 . S
C1884 H1949 0.959 . S
C1885 C1882 1.603 . S
C1885 H1950 0.960 . S
C1885 H1951 0.962 . S
C1885 H1952 0.961 . S
C1886 C1853 1.587 . S
C1886 C1887 1.360 . S
C1886 C1899 1.412 . S
C1887 C1886 1.360 . S
C1887 C1888 1.365 . S
C1887 H1953 0.929 . S
C1888 C1863 1.553 . S
C1888 C1887 1.365 . S
C1888 C1889 1.404 . S
C1889 C1888 1.404 . S
C1889 C1890 1.395 . S
C1889 C1900 1.451 . S
C1890 C1889 1.395 . S
C1890 C1891 1.322 . S
C1890 H1954 0.930 . S
C1891 C1890 1.322 . S
C1891 C1892 1.459 . S
C1891 H1955 0.929 . S
C1892 C1891 1.459 . S
C1892 C1893 1.445 . S
C1892 C1901 1.395 . S
C1893 C1871 1.432 . S
C1893 C1892 1.445 . S
C1893 C1894 1.370 . S
C1894 C1893 1.370 . S
C1894 C1895 1.438 . S
C1894 H1956 0.930 . S
C1895 C1881 1.497 . S
C1895 C1894 1.438 . S
C1895 C1896 1.360 . S
C1896 C1895 1.360 . S
C1896 C1897 1.401 . S
C1896 C1901 1.446 . S
C1897 C1896 1.401 . S
C1897 C1898 1.347 . S
C1897 H1957 0.929 . S
C1898 C1897 1.347 . S
C1898 C1899 1.455 . S
C1898 H1958 0.930 . S
C1899 C1886 1.412 . S
C1899 C1898 1.455 . S
C1899 C1900 1.331 . S
C1900 C1889 1.451 . S
C1900 C1899 1.331 . S
C1900 C1901 1.497 . S
C1901 C1892 1.395 . S
C1901 C1896 1.446 . S
C1901 C1900 1.497 . S
C1902 C1903 1.582 . S
C1902 H1959 0.962 . S
C1902 H1960 0.959 . S
C1902 H1961 0.958 . S
C1903 C1902 1.582 . S
C1903 O1906 1.458 . S
C1903 H1932 0.980 . S
O1904 C1849 1.426 . S
O1904 C1850 1.334 . S
O1905 C1877 1.412 . S
O1905 C1878 1.393 . S
O1906 C1868 1.435 . S
O1906 C1903 1.458 . S
O1907 C1859 1.468 . S
O1907 C1860 1.408 . S
H1908 C1849 0.980 . S
H1909 C1848 0.959 . S
H1910 C1848 0.959 . S
H1911 C1848 0.960 . S
H1912 C1851 0.929 . S
H1913 C1855 0.929 . S
H1914 C1856 0.959 . S
H1915 C1856 0.961 . S
H1916 C1856 0.961 . S
H1917 C1857 0.960 . S
H1918 C1857 0.960 . S
H1919 C1857 0.961 . S
H1920 C1859 0.980 . S
H1921 C1858 0.961 . S
H1922 C1858 0.960 . S
H1923 C1858 0.959 . S
H1924 C1861 0.930 . S
H1925 C1865 0.931 . S
H1926 C1866 0.959 . S
H1927 C1866 0.961 . S
H1928 C1866 0.959 . S
H1929 C1867 0.960 . S
H1930 C1867 0.960 . S
H1931 C1867 0.960 . S
H1932 C1903 0.980 . S
H1933 C1869 0.930 . S
H1934 C1873 0.930 . S
H1935 C1874 0.961 . S
H1936 C1874 0.960 . S
H1937 C1874 0.958 . S
H1938 C1875 0.961 . S
H1939 C1875 0.960 . S
H1940 C1875 0.960 . S
H1941 C1877 0.980 . S
H1942 C1876 0.961 . S
H1943 C1876 0.961 . S
H1944 C1876 0.959 . S
H1945 C1879 0.932 . S
H1946 C1883 0.929 . S
H1947 C1884 0.961 . S
H1948 C1884 0.959 . S
H1949 C1884 0.959 . S
H1950 C1885 0.960 . S
H1951 C1885 0.962 . S
H1952 C1885 0.961 . S
H1953 C1887 0.929 . S
H1954 C1890 0.930 . S
H1955 C1891 0.929 . S
H1956 C1894 0.930 . S
H1957 C1897 0.929 . S
H1958 C1898 0.930 . S
H1959 C1902 0.962 . S
H1960 C1902 0.959 . S
H1961 C1902 0.958 . S
C1962 C1963 1.560 . S
C1962 H2023 0.959 . S
C1962 H2024 0.959 . S
C1962 H2025 0.960 . S
C1963 C1962 1.560 . S
C1963 O2018 1.426 . S
C1963 H2022 0.980 . S
C1964 C1965 1.407 . S
C1964 C1969 1.418 . S
C1964 O2018 1.334 . S
C1965 C1964 1.407 . S
C1965 C1966 1.360 . S
C1965 H2026 0.929 . S
C1966 C1965 1.360 . S
C1966 C1967 1.401 . S
C1966 C1970 1.527 . S
C1967 C1966 1.401 . S
C1967 C1968 1.405 . S
C1967 C2000 1.587 . S
C1968 C1967 1.405 . S
C1968 C1969 1.332 . S
C1968 C1971 1.496 . S
C1969 C1964 1.418 . S
C1969 C1968 1.332 . S
C1969 H2027 0.929 . S
C1970 C1966 1.527 . S
C1970 H2028 0.959 . S
C1970 H2029 0.961 . S
C1970 H2030 0.961 . S
C1971 C1968 1.496 . S
C1971 H2031 0.960 . S
C1971 H2032 0.960 . S
C1971 H2033 0.961 . S
C1972 C1973 1.517 . S
C1972 H2035 0.961 . S
C1972 H2036 0.960 . S
C1972 H2037 0.959 . S
C1973 C1972 1.517 . S
C1973 O2021 1.468 . S
C1973 H2034 0.980 . S
C1974 C1975 1.349 . S
C1974 C1979 1.367 . S
C1974 O2021 1.408 . S
C1975 C1974 1.349 . S
C1975 C1976 1.407 . S
C1975 H2038 0.930 . S
C1976 C1975 1.407 . S
C1976 C1977 1.449 . S
C1976 C1980 1.535 . S
C1977 C1976 1.449 . S
C1977 C1978 1.384 . S
C1977 C2002 1.553 . S
C1978 C1977 1.384 . S
C1978 C1979 1.364 . S
C1978 C1981 1.450 . S
C1979 C1974 1.367 . S
C1979 C1978 1.364 . S
C1979 H2039 0.931 . S
C1980 C1976 1.535 . S
C1980 H2040 0.959 . S
C1980 H2041 0.961 . S
C1980 H2042 0.959 . S
C1981 C1978 1.450 . S
C1981 H2043 0.960 . S
C1981 H2044 0.960 . S
C1981 H2045 0.960 . S
C1982 C1983 1.309 . S
C1982 C1987 1.304 . S
C1982 O2020 1.435 . S
C1983 C1982 1.309 . S
C1983 C1984 1.476 . S
C1983 H2047 0.930 . S
C1984 C1983 1.476 . S
C1984 C1985 1.400 . S
C1984 C1988 1.567 . S
C1985 C1984 1.400 . S
C1985 C1986 1.373 . S
C1985 C2007 1.432 . S
C1986 C1985 1.373 . S
C1986 C1987 1.339 . S
C1986 C1989 1.530 . S
C1987 C1982 1.304 . S
C1987 C1986 1.339 . S
C1987 H2048 0.930 . S
C1988 C1984 1.567 . S
C1988 H2049 0.961 . S
C1988 H2050 0.960 . S
C1988 H2051 0.958 . S
C1989 C1986 1.530 . S
C1989 H2052 0.961 . S
C1989 H2053 0.960 . S
C1989 H2054 0.960 . S
C1990 C1991 1.530 . S
C1990 H2056 0.961 . S
C1990 H2057 0.961 . S
C1990 H2058 0.959 . S
C1991 C1990 1.530 . S
C1991 O2019 1.412 . S
C1991 H2055 0.980 . S
C1992 C1993 1.288 . S
C1992 C1997 1.377 . S
C1992 O2019 1.393 . S
C1993 C1992 1.288 . S
C1993 C1994 1.369 . S
C1993 H2059 0.932 . S
C1994 C1993 1.369 . S
C1994 C1995 1.398 . S
C1994 C1998 1.527 . S
C1995 C1994 1.398 . S
C1995 C1996 1.380 . S
C1995 C2009 1.497 . S
C1996 C1995 1.380 . S
C1996 C1997 1.383 . S
C1996 C1999 1.603 . S
C1997 C1992 1.377 . S
C1997 C1996 1.383 . S
C1997 H2060 0.929 . S
C1998 C1994 1.527 . S
C1998 H2061 0.961 . S
C1998 H2062 0.959 . S
C1998 H2063 0.959 . S
C1999 C1996 1.603 . S
C1999 H2064 0.960 . S
C1999 H2065 0.962 . S
C1999 H2066 0.961 . S
C2000 C1967 1.587 . S
C2000 C2001 1.360 . S
C2000 C2013 1.412 . S
C2001 C2000 1.360 . S
C2001 C2002 1.365 . S
C2001 H2067 0.929 . S
C2002 C1977 1.553 . S
C2002 C2001 1.365 . S
C2002 C2003 1.404 . S
C2003 C2002 1.404 . S
C2003 C2004 1.395 . S
C2003 C2014 1.451 . S
C2004 C2003 1.395 . S
C2004 C2005 1.322 . S
C2004 H2068 0.930 . S
C2005 C2004 1.322 . S
C2005 C2006 1.459 . S
C2005 H2069 0.929 . S
C2006 C2005 1.459 . S
C2006 C2007 1.445 . S
C2006 C2015 1.395 . S
C2007 C1985 1.432 . S
C2007 C2006 1.445 . S
C2007 C2008 1.370 . S
C2008 C2007 1.370 . S
C2008 C2009 1.438 . S
C2008 H2070 0.930 . S
C2009 C1995 1.497 . S
C2009 C2008 1.438 . S
C2009 C2010 1.360 . S
C2010 C2009 1.360 . S
C2010 C2011 1.401 . S
C2010 C2015 1.446 . S
C2011 C2010 1.401 . S
C2011 C2012 1.347 . S
C2011 H2071 0.929 . S
C2012 C2011 1.347 . S
C2012 C2013 1.455 . S
C2012 H2072 0.930 . S
C2013 C2000 1.412 . S
C2013 C2012 1.455 . S
C2013 C2014 1.331 . S
C2014 C2003 1.451 . S
C2014 C2013 1.331 . S
C2014 C2015 1.497 . S
C2015 C2006 1.395 . S
C2015 C2010 1.446 . S
C2015 C2014 1.497 . S
C2016 C2017 1.582 . S
C2016 H2073 0.962 . S
C2016 H2074 0.959 . S
C2016 H2075 0.958 . S
C2017 C2016 1.582 . S
C2017 O2020 1.458 . S
C2017 H2046 0.980 . S
O2018 C1963 1.426 . S
O2018 C1964 1.334 . S
O2019 C1991 1.412 . S
O2019 C1992 1.393 . S
O2020 C1982 1.435 . S
O2020 C2017 1.458 . S
O2021 C1973 1.468 . S
O2021 C1974 1.408 . S
H2022 C1963 0.980 . S
H2023 C1962 0.959 . S
H2024 C1962 0.959 . S
H2025 C1962 0.960 . S
H2026 C1965 0.929 . S
H2027 C1969 0.929 . S
H2028 C1970 0.959 . S
H2029 C1970 0.961 . S
H2030 C1970 0.961 . S
H2031 C1971 0.960 . S
H2032 C1971 0.960 . S
H2033 C1971 0.961 . S
H2034 C1973 0.980 . S
H2035 C1972 0.961 . S
H2036 C1972 0.960 . S
H2037 C1972 0.959 . S
H2038 C1975 0.930 . S
H2039 C1979 0.931 . S
H2040 C1980 0.959 . S
H2041 C1980 0.961 . S
H2042 C1980 0.959 . S
H2043 C1981 0.960 . S
H2044 C1981 0.960 . S
H2045 C1981 0.960 . S
H2046 C2017 0.980 . S
H2047 C1983 0.930 . S
H2048 C1987 0.930 . S
H2049 C1988 0.961 . S
H2050 C1988 0.960 . S
H2051 C1988 0.958 . S
H2052 C1989 0.961 . S
H2053 C1989 0.960 . S
H2054 C1989 0.960 . S
H2055 C1991 0.980 . S
H2056 C1990 0.961 . S
H2057 C1990 0.961 . S
H2058 C1990 0.959 . S
H2059 C1993 0.932 . S
H2060 C1997 0.929 . S
H2061 C1998 0.961 . S
H2062 C1998 0.959 . S
H2063 C1998 0.959 . S
H2064 C1999 0.960 . S
H2065 C1999 0.962 . S
H2066 C1999 0.961 . S
H2067 C2001 0.929 . S
H2068 C2004 0.930 . S
H2069 C2005 0.929 . S
H2070 C2008 0.930 . S
H2071 C2011 0.929 . S
H2072 C2012 0.930 . S
H2073 C2016 0.962 . S
H2074 C2016 0.959 . S
H2075 C2016 0.958 . S
C2076 C2077 1.560 . S
C2076 H2137 0.959 . S
C2076 H2138 0.959 . S
C2076 H2139 0.960 . S
C2077 C2076 1.560 . S
C2077 O2132 1.426 . S
C2077 H2136 0.980 . S
C2078 C2079 1.407 . S
C2078 C2083 1.418 . S
C2078 O2132 1.334 . S
C2079 C2078 1.407 . S
C2079 C2080 1.360 . S
C2079 H2140 0.929 . S
C2080 C2079 1.360 . S
C2080 C2081 1.401 . S
C2080 C2084 1.527 . S
C2081 C2080 1.401 . S
C2081 C2082 1.405 . S
C2081 C2114 1.587 . S
C2082 C2081 1.405 . S
C2082 C2083 1.332 . S
C2082 C2085 1.496 . S
C2083 C2078 1.418 . S
C2083 C2082 1.332 . S
C2083 H2141 0.929 . S
C2084 C2080 1.527 . S
C2084 H2142 0.959 . S
C2084 H2143 0.961 . S
C2084 H2144 0.961 . S
C2085 C2082 1.496 . S
C2085 H2145 0.960 . S
C2085 H2146 0.960 . S
C2085 H2147 0.961 . S
C2086 C2087 1.517 . S
C2086 H2149 0.961 . S
C2086 H2150 0.960 . S
C2086 H2151 0.959 . S
C2087 C2086 1.517 . S
C2087 O2135 1.468 . S
C2087 H2148 0.980 . S
C2088 C2089 1.349 . S
C2088 C2093 1.367 . S
C2088 O2135 1.408 . S
C2089 C2088 1.349 . S
C2089 C2090 1.407 . S
C2089 H2152 0.930 . S
C2090 C2089 1.407 . S
C2090 C2091 1.449 . S
C2090 C2094 1.535 . S
C2091 C2090 1.449 . S
C2091 C2092 1.384 . S
C2091 C2116 1.553 . S
C2092 C2091 1.384 . S
C2092 C2093 1.364 . S
C2092 C2095 1.450 . S
C2093 C2088 1.367 . S
C2093 C2092 1.364 . S
C2093 H2153 0.931 . S
C2094 C2090 1.535 . S
C2094 H2154 0.959 . S
C2094 H2155 0.961 . S
C2094 H2156 0.959 . S
C2095 C2092 1.450 . S
C2095 H2157 0.960 . S
C2095 H2158 0.960 . S
C2095 H2159 0.960 . S
C2096 C2097 1.309 . S
C2096 C2101 1.304 . S
C2096 O2134 1.435 . S
C2097 C2096 1.309 . S
C2097 C2098 1.476 . S
C2097 H2161 0.930 . S
C2098 C2097 1.476 . S
C2098 C2099 1.400 . S
C2098 C2102 1.567 . S
C2099 C2098 1.400 . S
C2099 C2100 1.373 . S
C2099 C2121 1.432 . S
C2100 C2099 1.373 . S
C2100 C2101 1.339 . S
C2100 C2103 1.530 . S
C2101 C2096 1.304 . S
C2101 C2100 1.339 . S
C2101 H2162 0.930 . S
C2102 C2098 1.567 . S
C2102 H2163 0.961 . S
C2102 H2164 0.960 . S
C2102 H2165 0.958 . S
C2103 C2100 1.530 . S
C2103 H2166 0.961 . S
C2103 H2167 0.960 . S
C2103 H2168 0.960 . S
C2104 C2105 1.530 . S
C2104 H2170 0.961 . S
C2104 H2171 0.961 . S
C2104 H2172 0.959 . S
C2105 C2104 1.530 . S
C2105 O2133 1.412 . S
C2105 H2169 0.980 . S
C2106 C2107 1.288 . S
C2106 C2111 1.377 . S
C2106 O2133 1.393 . S
C2107 C2106 1.288 . S
C2107 C2108 1.369 . S
C2107 H2173 0.932 . S
C2108 C2107 1.369 . S
C2108 C2109 1.398 . S
C2108 C2112 1.527 . S
C2109 C2108 1.398 . S
C2109 C2110 1.380 . S
C2109 C2123 1.497 . S
C2110 C2109 1.380 . S
C2110 C2111 1.383 . S
C2110 C2113 1.603 . S
C2111 C2106 1.377 . S
C2111 C2110 1.383 . S
C2111 H2174 0.929 . S
C2112 C2108 1.527 . S
C2112 H2175 0.961 . S
C2112 H2176 0.959 . S
C2112 H2177 0.959 . S
C2113 C2110 1.603 . S
C2113 H2178 0.960 . S
C2113 H2179 0.962 . S
C2113 H2180 0.961 . S
C2114 C2081 1.587 . S
C2114 C2115 1.360 . S
C2114 C2127 1.412 . S
C2115 C2114 1.360 . S
C2115 C2116 1.365 . S
C2115 H2181 0.929 . S
C2116 C2091 1.553 . S
C2116 C2115 1.365 . S
C2116 C2117 1.404 . S
C2117 C2116 1.404 . S
C2117 C2118 1.395 . S
C2117 C2128 1.451 . S
C2118 C2117 1.395 . S
C2118 C2119 1.322 . S
C2118 H2182 0.930 . S
C2119 C2118 1.322 . S
C2119 C2120 1.459 . S
C2119 H2183 0.929 . S
C2120 C2119 1.459 . S
C2120 C2121 1.445 . S
C2120 C2129 1.395 . S
C2121 C2099 1.432 . S
C2121 C2120 1.445 . S
C2121 C2122 1.370 . S
C2122 C2121 1.370 . S
C2122 C2123 1.438 . S
C2122 H2184 0.930 . S
C2123 C2109 1.497 . S
C2123 C2122 1.438 . S
C2123 C2124 1.360 . S
C2124 C2123 1.360 . S
C2124 C2125 1.401 . S
C2124 C2129 1.446 . S
C2125 C2124 1.401 . S
C2125 C2126 1.347 . S
C2125 H2185 0.929 . S
C2126 C2125 1.347 . S
C2126 C2127 1.455 . S
C2126 H2186 0.930 . S
C2127 C2114 1.412 . S
C2127 C2126 1.455 . S
C2127 C2128 1.331 . S
C2128 C2117 1.451 . S
C2128 C2127 1.331 . S
C2128 C2129 1.497 . S
C2129 C2120 1.395 . S
C2129 C2124 1.446 . S
C2129 C2128 1.497 . S
C2130 C2131 1.582 . S
C2130 H2187 0.962 . S
C2130 H2188 0.959 . S
C2130 H2189 0.958 . S
C2131 C2130 1.582 . S
C2131 O2134 1.458 . S
C2131 H2160 0.980 . S
O2132 C2077 1.426 . S
O2132 C2078 1.334 . S
O2133 C2105 1.412 . S
O2133 C2106 1.393 . S
O2134 C2096 1.435 . S
O2134 C2131 1.458 . S
O2135 C2087 1.468 . S
O2135 C2088 1.408 . S
H2136 C2077 0.980 . S
H2137 C2076 0.959 . S
H2138 C2076 0.959 . S
H2139 C2076 0.960 . S
H2140 C2079 0.929 . S
H2141 C2083 0.929 . S
H2142 C2084 0.959 . S
H2143 C2084 0.961 . S
H2144 C2084 0.961 . S
H2145 C2085 0.960 . S
H2146 C2085 0.960 . S
H2147 C2085 0.961 . S
H2148 C2087 0.980 . S
H2149 C2086 0.961 . S
H2150 C2086 0.960 . S
H2151 C2086 0.959 . S
H2152 C2089 0.930 . S
H2153 C2093 0.931 . S
H2154 C2094 0.959 . S
H2155 C2094 0.961 . S
H2156 C2094 0.959 . S
H2157 C2095 0.960 . S
H2158 C2095 0.960 . S
H2159 C2095 0.960 . S
H2160 C2131 0.980 . S
H2161 C2097 0.930 . S
H2162 C2101 0.930 . S
H2163 C2102 0.961 . S
H2164 C2102 0.960 . S
H2165 C2102 0.958 . S
H2166 C2103 0.961 . S
H2167 C2103 0.960 . S
H2168 C2103 0.960 . S
H2169 C2105 0.980 . S
H2170 C2104 0.961 . S
H2171 C2104 0.961 . S
H2172 C2104 0.959 . S
H2173 C2107 0.932 . S
H2174 C2111 0.929 . S
H2175 C2112 0.961 . S
H2176 C2112 0.959 . S
H2177 C2112 0.959 . S
H2178 C2113 0.960 . S
H2179 C2113 0.962 . S
H2180 C2113 0.961 . S
H2181 C2115 0.929 . S
H2182 C2118 0.930 . S
H2183 C2119 0.929 . S
H2184 C2122 0.930 . S
H2185 C2125 0.929 . S
H2186 C2126 0.930 . S
H2187 C2130 0.962 . S
H2188 C2130 0.959 . S
H2189 C2130 0.958 . S
C2190 C2191 1.560 . S
C2190 H2251 0.959 . S
C2190 H2252 0.959 . S
C2190 H2253 0.960 . S
C2191 C2190 1.560 . S
C2191 O2246 1.426 . S
C2191 H2250 0.980 . S
C2192 C2193 1.407 . S
C2192 C2197 1.418 . S
C2192 O2246 1.334 . S
C2193 C2192 1.407 . S
C2193 C2194 1.360 . S
C2193 H2254 0.929 . S
C2194 C2193 1.360 . S
C2194 C2195 1.401 . S
C2194 C2198 1.527 . S
C2195 C2194 1.401 . S
C2195 C2196 1.405 . S
C2195 C2228 1.587 . S
C2196 C2195 1.405 . S
C2196 C2197 1.332 . S
C2196 C2199 1.496 . S
C2197 C2192 1.418 . S
C2197 C2196 1.332 . S
C2197 H2255 0.929 . S
C2198 C2194 1.527 . S
C2198 H2256 0.959 . S
C2198 H2257 0.961 . S
C2198 H2258 0.961 . S
C2199 C2196 1.496 . S
C2199 H2259 0.960 . S
C2199 H2260 0.960 . S
C2199 H2261 0.961 . S
C2200 C2201 1.517 . S
C2200 H2263 0.961 . S
C2200 H2264 0.960 . S
C2200 H2265 0.959 . S
C2201 C2200 1.517 . S
C2201 O2249 1.468 . S
C2201 H2262 0.980 . S
C2202 C2203 1.349 . S
C2202 C2207 1.367 . S
C2202 O2249 1.408 . S
C2203 C2202 1.349 . S
C2203 C2204 1.407 . S
C2203 H2266 0.930 . S
C2204 C2203 1.407 . S
C2204 C2205 1.449 . S
C2204 C2208 1.535 . S
C2205 C2204 1.449 . S
C2205 C2206 1.384 . S
C2205 C2230 1.553 . S
C2206 C2205 1.384 . S
C2206 C2207 1.364 . S
C2206 C2209 1.450 . S
C2207 C2202 1.367 . S
C2207 C2206 1.364 . S
C2207 H2267 0.931 . S
C2208 C2204 1.535 . S
C2208 H2268 0.959 . S
C2208 H2269 0.961 . S
C2208 H2270 0.959 . S
C2209 C2206 1.450 . S
C2209 H2271 0.960 . S
C2209 H2272 0.960 . S
C2209 H2273 0.960 . S
C2210 C2211 1.309 . S
C2210 C2215 1.304 . S
C2210 O2248 1.435 . S
C2211 C2210 1.309 . S
C2211 C2212 1.476 . S
C2211 H2275 0.930 . S
C2212 C2211 1.476 . S
C2212 C2213 1.400 . S
C2212 C2216 1.567 . S
C2213 C2212 1.400 . S
C2213 C2214 1.373 . S
C2213 C2235 1.432 . S
C2214 C2213 1.373 . S
C2214 C2215 1.339 . S
C2214 C2217 1.530 . S
C2215 C2210 1.304 . S
C2215 C2214 1.339 . S
C2215 H2276 0.930 . S
C2216 C2212 1.567 . S
C2216 H2277 0.961 . S
C2216 H2278 0.960 . S
C2216 H2279 0.958 . S
C2217 C2214 1.530 . S
C2217 H2280 0.961 . S
C2217 H2281 0.960 . S
C2217 H2282 0.960 . S
C2218 C2219 1.530 . S
C2218 H2284 0.961 . S
C2218 H2285 0.961 . S
C2218 H2286 0.959 . S
C2219 C2218 1.530 . S
C2219 O2247 1.412 . S
C2219 H2283 0.980 . S
C2220 C2221 1.288 . S
C2220 C2225 1.377 . S
C2220 O2247 1.393 . S
C2221 C2220 1.288 . S
C2221 C2222 1.369 . S
C2221 H2287 0.932 . S
C2222 C2221 1.369 . S
C2222 C2223 1.398 . S
C2222 C2226 1.527 . S
C2223 C2222 1.398 . S
C2223 C2224 1.380 . S
C2223 C2237 1.497 . S
C2224 C2223 1.380 . S
C2224 C2225 1.383 . S
C2224 C2227 1.603 . S
C2225 C2220 1.377 . S
C2225 C2224 1.383 . S
C2225 H2288 0.929 . S
C2226 C2222 1.527 . S
C2226 H2289 0.961 . S
C2226 H2290 0.959 . S
C2226 H2291 0.959 . S
C2227 C2224 1.603 . S
C2227 H2292 0.960 . S
C2227 H2293 0.962 . S
C2227 H2294 0.961 . S
C2228 C2195 1.587 . S
C2228 C2229 1.360 . S
C2228 C2241 1.412 . S
C2229 C2228 1.360 . S
C2229 C2230 1.365 . S
C2229 H2295 0.929 . S
C2230 C2205 1.553 . S
C2230 C2229 1.365 . S
C2230 C2231 1.404 . S
C2231 C2230 1.404 . S
C2231 C2232 1.395 . S
C2231 C2242 1.451 . S
C2232 C2231 1.395 . S
C2232 C2233 1.322 . S
C2232 H2296 0.930 . S
C2233 C2232 1.322 . S
C2233 C2234 1.459 . S
C2233 H2297 0.929 . S
C2234 C2233 1.459 . S
C2234 C2235 1.445 . S
C2234 C2243 1.395 . S
C2235 C2213 1.432 . S
C2235 C2234 1.445 . S
C2235 C2236 1.370 . S
C2236 C2235 1.370 . S
C2236 C2237 1.438 . S
C2236 H2298 0.930 . S
C2237 C2223 1.497 . S
C2237 C2236 1.438 . S
C2237 C2238 1.360 . S
C2238 C2237 1.360 . S
C2238 C2239 1.401 . S
C2238 C2243 1.446 . S
C2239 C2238 1.401 . S
C2239 C2240 1.347 . S
C2239 H2299 0.929 . S
C2240 C2239 1.347 . S
C2240 C2241 1.455 . S
C2240 H2300 0.930 . S
C2241 C2228 1.412 . S
C2241 C2240 1.455 . S
C2241 C2242 1.331 . S
C2242 C2231 1.451 . S
C2242 C2241 1.331 . S
C2242 C2243 1.497 . S
C2243 C2234 1.395 . S
C2243 C2238 1.446 . S
C2243 C2242 1.497 . S
C2244 C2245 1.582 . S
C2244 H2301 0.962 . S
C2244 H2302 0.959 . S
C2244 H2303 0.958 . S
C2245 C2244 1.582 . S
C2245 O2248 1.458 . S
C2245 H2274 0.980 . S
O2246 C2191 1.426 . S
O2246 C2192 1.334 . S
O2247 C2219 1.412 . S
O2247 C2220 1.393 . S
O2248 C2210 1.435 . S
O2248 C2245 1.458 . S
O2249 C2201 1.468 . S
O2249 C2202 1.408 . S
H2250 C2191 0.980 . S
H2251 C2190 0.959 . S
H2252 C2190 0.959 . S
H2253 C2190 0.960 . S
H2254 C2193 0.929 . S
H2255 C2197 0.929 . S
H2256 C2198 0.959 . S
H2257 C2198 0.961 . S
H2258 C2198 0.961 . S
H2259 C2199 0.960 . S
H2260 C2199 0.960 . S
H2261 C2199 0.961 . S
H2262 C2201 0.980 . S
H2263 C2200 0.961 . S
H2264 C2200 0.960 . S
H2265 C2200 0.959 . S
H2266 C2203 0.930 . S
H2267 C2207 0.931 . S
H2268 C2208 0.959 . S
H2269 C2208 0.961 . S
H2270 C2208 0.959 . S
H2271 C2209 0.960 . S
H2272 C2209 0.960 . S
H2273 C2209 0.960 . S
H2274 C2245 0.980 . S
H2275 C2211 0.930 . S
H2276 C2215 0.930 . S
H2277 C2216 0.961 . S
H2278 C2216 0.960 . S
H2279 C2216 0.958 . S
H2280 C2217 0.961 . S
H2281 C2217 0.960 . S
H2282 C2217 0.960 . S
H2283 C2219 0.980 . S
H2284 C2218 0.961 . S
H2285 C2218 0.961 . S
H2286 C2218 0.959 . S
H2287 C2221 0.932 . S
H2288 C2225 0.929 . S
H2289 C2226 0.961 . S
H2290 C2226 0.959 . S
H2291 C2226 0.959 . S
H2292 C2227 0.960 . S
H2293 C2227 0.962 . S
H2294 C2227 0.961 . S
H2295 C2229 0.929 . S
H2296 C2232 0.930 . S
H2297 C2233 0.929 . S
H2298 C2236 0.930 . S
H2299 C2239 0.929 . S
H2300 C2240 0.930 . S
H2301 C2244 0.962 . S
H2302 C2244 0.959 . S
H2303 C2244 0.958 . S
C2304 C2305 1.387 1_455 S
C2304 H2308 0.950 . S
C2304 C2313 1.390 . S
C2305 C2304 1.387 1_655 S
C2305 C2307 1.387 . S
H2306 C2313 0.950 . S
C2307 C2305 1.387 . S
C2307 C2309 1.390 . S
C2307 H2311 0.950 . S
H2308 C2304 0.950 . S
C2309 C2307 1.390 . S
C2309 C2310 1.387 . S
C2309 H2312 0.950 . S
C2310 C2309 1.387 . S
C2310 C2313 1.387 1_655 S
H2311 C2307 0.950 . S
H2312 C2309 0.950 . S
C2313 C2304 1.390 . S
C2313 H2306 0.950 . S
C2313 C2310 1.387 1_455 S
C2314 C2315 1.387 . S
C2314 H2318 0.950 . S
C2314 C2323 1.390 . S
C2315 C2314 1.387 . S
C2315 C2317 1.387 . S
H2316 C2323 0.950 . S
C2317 C2315 1.387 . S
C2317 C2319 1.390 . S
C2317 H2321 0.950 . S
H2318 C2314 0.950 . S
C2319 C2317 1.390 . S
C2319 C2320 1.387 . S
C2319 H2322 0.950 . S
C2320 C2319 1.387 . S
C2320 C2323 1.387 . S
H2321 C2317 0.950 . S
H2322 C2319 0.950 . S
C2323 C2314 1.390 . S
C2323 H2316 0.950 . S
C2323 C2320 1.387 . S
C2324 C2325 1.387 . S
C2324 H2328 0.950 . S
C2324 C2333 1.390 . S
C2325 C2324 1.387 . S
C2325 C2327 1.387 1_545 S
H2326 C2333 0.950 . S
C2327 C2325 1.387 1_565 S
C2327 C2329 1.390 . S
C2327 H2331 0.950 . S
H2328 C2324 0.950 . S
C2329 C2327 1.390 . S
C2329 C2330 1.387 1_565 S
C2329 H2332 0.950 . S
C2330 C2329 1.387 1_545 S
C2330 C2333 1.387 . S
H2331 C2327 0.950 . S
H2332 C2329 0.950 . S
C2333 C2324 1.390 . S
C2333 H2326 0.950 . S
C2333 C2330 1.387 . S
C2334 C2335 1.387 1_545 S
C2334 H2338 0.950 . S
C2334 C2343 1.390 . S
C2335 C2334 1.387 1_565 S
C2335 C2337 1.387 . S
H2336 C2343 0.950 . S
C2337 C2335 1.387 . S
C2337 C2339 1.390 . S
C2337 H2341 0.950 . S
H2338 C2334 0.950 . S
C2339 C2337 1.390 . S
C2339 C2340 1.387 . S
C2339 H2342 0.950 . S
C2340 C2339 1.387 . S
C2340 C2343 1.387 1_565 S
H2341 C2337 0.950 . S
H2342 C2339 0.950 . S
C2343 C2334 1.390 . S
C2343 H2336 0.950 . S
C2343 C2340 1.387 1_545 S
C2344 C2345 1.387 . S
C2344 H2348 0.950 . S
C2344 C2353 1.390 . S
C2345 C2344 1.387 . S
C2345 C2347 1.387 . S
H2346 C2353 0.950 . S
C2347 C2345 1.387 . S
C2347 C2349 1.390 . S
C2347 H2351 0.950 . S
H2348 C2344 0.950 . S
C2349 C2347 1.390 . S
C2349 C2350 1.387 . S
C2349 H2352 0.950 . S
C2350 C2349 1.387 . S
C2350 C2353 1.387 . S
H2351 C2347 0.950 . S
H2352 C2349 0.950 . S
C2353 C2344 1.390 . S
C2353 H2346 0.950 . S
C2353 C2350 1.387 . S
C2354 C2355 1.387 . S
C2354 H2358 0.950 . S
C2354 C2363 1.390 . S
C2355 C2354 1.387 . S
C2355 C2357 1.387 . S
H2356 C2363 0.950 . S
C2357 C2355 1.387 . S
C2357 C2359 1.390 . S
C2357 H2361 0.950 . S
H2358 C2354 0.950 . S
C2359 C2357 1.390 . S
C2359 C2360 1.387 . S
C2359 H2362 0.950 . S
C2360 C2359 1.387 . S
C2360 C2363 1.387 . S
H2361 C2357 0.950 . S
H2362 C2359 0.950 . S
C2363 C2354 1.390 . S
C2363 H2356 0.950 . S
C2363 C2360 1.387 . S
C2364 C2365 1.387 . S
C2364 H2368 0.950 . S
C2364 C2373 1.390 . S
C2365 C2364 1.387 . S
C2365 C2367 1.387 1_455 S
H2366 C2373 0.950 . S
C2367 C2365 1.387 1_655 S
C2367 C2369 1.390 . S
C2367 H2371 0.950 . S
H2368 C2364 0.950 . S
C2369 C2367 1.390 . S
C2369 C2370 1.387 1_655 S
C2369 H2372 0.950 . S
C2370 C2369 1.387 1_455 S
C2370 C2373 1.387 . S
H2371 C2367 0.950 . S
H2372 C2369 0.950 . S
C2373 C2364 1.390 . S
C2373 H2366 0.950 . S
C2373 C2370 1.387 . S
C2374 C2375 1.387 . S
C2374 H2378 0.950 . S
C2374 C2383 1.390 . S
C2375 C2374 1.387 . S
C2375 C2377 1.387 . S
H2376 C2383 0.950 . S
C2377 C2375 1.387 . S
C2377 C2379 1.390 . S
C2377 H2381 0.950 . S
H2378 C2374 0.950 . S
C2379 C2377 1.390 . S
C2379 C2380 1.387 . S
C2379 H2382 0.950 . S
C2380 C2379 1.387 . S
C2380 C2383 1.387 . S
H2381 C2377 0.950 . S
H2382 C2379 0.950 . S
C2383 C2374 1.390 . S
C2383 H2376 0.950 . S
C2383 C2380 1.387 . S
C2384 C2385 1.387 . S
C2384 H2388 0.950 . S
C2384 C2393 1.390 . S
C2385 C2384 1.387 . S
C2385 C2387 1.387 1_565 S
H2386 C2393 0.950 . S
C2387 C2385 1.387 1_545 S
C2387 C2389 1.390 . S
C2387 H2391 0.950 . S
H2388 C2384 0.950 . S
C2389 C2387 1.390 . S
C2389 C2390 1.387 1_545 S
C2389 H2392 0.950 . S
C2390 C2389 1.387 1_565 S
C2390 C2393 1.387 . S
H2391 C2387 0.950 . S
H2392 C2389 0.950 . S
C2393 C2384 1.390 . S
C2393 H2386 0.950 . S
C2393 C2390 1.387 . S
C2394 C2395 1.387 . S
C2394 H2398 0.950 . S
C2394 C2403 1.390 . S
C2395 C2394 1.387 . S
C2395 C2397 1.387 1_545 S
H2396 C2403 0.950 . S
C2397 C2395 1.387 1_565 S
C2397 C2399 1.390 . S
C2397 H2401 0.950 . S
H2398 C2394 0.950 . S
C2399 C2397 1.390 . S
C2399 C2400 1.387 1_565 S
C2399 H2402 0.950 . S
C2400 C2399 1.387 1_545 S
C2400 C2403 1.387 . S
H2401 C2397 0.950 . S
H2402 C2399 0.950 . S
C2403 C2394 1.390 . S
C2403 H2396 0.950 . S
C2403 C2400 1.387 . S
C2404 C2405 1.387 . S
C2404 H2408 0.950 . S
C2404 C2413 1.390 . S
C2405 C2404 1.387 . S
C2405 C2407 1.387 . S
H2406 C2413 0.950 . S
C2407 C2405 1.387 . S
C2407 C2409 1.390 . S
C2407 H2411 0.950 . S
H2408 C2404 0.950 . S
C2409 C2407 1.390 . S
C2409 C2410 1.387 . S
C2409 H2412 0.950 . S
C2410 C2409 1.387 . S
C2410 C2413 1.387 . S
H2411 C2407 0.950 . S
H2412 C2409 0.950 . S
C2413 C2404 1.390 . S
C2413 H2406 0.950 . S
C2413 C2410 1.387 . S
C2414 C2415 1.387 . S
C2414 H2418 0.950 . S
C2414 C2423 1.390 . S
C2415 C2414 1.387 . S
C2415 C2417 1.387 . S
H2416 C2423 0.950 . S
C2417 C2415 1.387 . S
C2417 C2419 1.390 . S
C2417 H2421 0.950 . S
H2418 C2414 0.950 . S
C2419 C2417 1.390 . S
C2419 C2420 1.387 . S
C2419 H2422 0.950 . S
C2420 C2419 1.387 . S
C2420 C2423 1.387 . S
H2421 C2417 0.950 . S
H2422 C2419 0.950 . S
C2423 C2414 1.390 . S
C2423 H2416 0.950 . S
C2423 C2420 1.387 . S
C2424 C2425 1.387 . S
C2424 H2428 0.950 . S
C2424 C2433 1.390 . S
C2425 C2424 1.387 . S
C2425 C2427 1.387 . S
H2426 C2433 0.950 . S
C2427 C2425 1.387 . S
C2427 C2429 1.390 . S
C2427 H2431 0.950 . S
H2428 C2424 0.950 . S
C2429 C2427 1.390 . S
C2429 C2430 1.387 . S
C2429 H2432 0.950 . S
C2430 C2429 1.387 . S
C2430 C2433 1.387 . S
H2431 C2427 0.950 . S
H2432 C2429 0.950 . S
C2433 C2424 1.390 . S
C2433 H2426 0.950 . S
C2433 C2430 1.387 . S
C2434 C2435 1.387 . S
C2434 H2438 0.950 . S
C2434 C2443 1.390 . S
C2435 C2434 1.387 . S
C2435 C2437 1.387 . S
H2436 C2443 0.950 . S
C2437 C2435 1.387 . S
C2437 C2439 1.390 . S
C2437 H2441 0.950 . S
H2438 C2434 0.950 . S
C2439 C2437 1.390 . S
C2439 C2440 1.387 . S
C2439 H2442 0.950 . S
C2440 C2439 1.387 . S
C2440 C2443 1.387 . S
H2441 C2437 0.950 . S
H2442 C2439 0.950 . S
C2443 C2434 1.390 . S
C2443 H2436 0.950 . S
C2443 C2440 1.387 . S
C2444 C2445 1.387 . S
C2444 H2448 0.950 . S
C2444 C2453 1.390 . S
C2445 C2444 1.387 . S
C2445 C2447 1.387 . S
H2446 C2453 0.950 . S
C2447 C2445 1.387 . S
C2447 C2449 1.390 . S
C2447 H2451 0.950 . S
H2448 C2444 0.950 . S
C2449 C2447 1.390 . S
C2449 C2450 1.387 . S
C2449 H2452 0.950 . S
C2450 C2449 1.387 . S
C2450 C2453 1.387 . S
H2451 C2447 0.950 . S
H2452 C2449 0.950 . S
C2453 C2444 1.390 . S
C2453 H2446 0.950 . S
C2453 C2450 1.387 . S
C2454 C2455 1.387 . S
C2454 H2458 0.950 . S
C2454 C2463 1.390 . S
C2455 C2454 1.387 . S
C2455 C2457 1.387 . S
H2456 C2463 0.950 . S
C2457 C2455 1.387 . S
C2457 C2459 1.390 . S
C2457 H2461 0.950 . S
H2458 C2454 0.950 . S
C2459 C2457 1.390 . S
C2459 C2460 1.387 . S
C2459 H2462 0.950 . S
C2460 C2459 1.387 . S
C2460 C2463 1.387 . S
H2461 C2457 0.950 . S
H2462 C2459 0.950 . S
C2463 C2454 1.390 . S
C2463 H2456 0.950 . S
C2463 C2460 1.387 . S
C2464 C2465 1.387 . S
C2464 H2468 0.950 . S
C2464 C2473 1.390 . S
C2465 C2464 1.387 . S
C2465 C2467 1.387 . S
H2466 C2473 0.950 . S
C2467 C2465 1.387 . S
C2467 C2469 1.390 . S
C2467 H2471 0.950 . S
H2468 C2464 0.950 . S
C2469 C2467 1.390 . S
C2469 C2470 1.387 . S
C2469 H2472 0.950 . S
C2470 C2469 1.387 . S
C2470 C2473 1.387 . S
H2471 C2467 0.950 . S
H2472 C2469 0.950 . S
C2473 C2464 1.390 . S
C2473 H2466 0.950 . S
C2473 C2470 1.387 . S
C2474 C2475 1.387 . S
C2474 H2478 0.950 . S
C2474 C2483 1.390 . S
C2475 C2474 1.387 . S
C2475 C2477 1.387 . S
H2476 C2483 0.950 . S
C2477 C2475 1.387 . S
C2477 C2479 1.390 . S
C2477 H2481 0.950 . S
H2478 C2474 0.950 . S
C2479 C2477 1.390 . S
C2479 C2480 1.387 . S
C2479 H2482 0.950 . S
C2480 C2479 1.387 . S
C2480 C2483 1.387 . S
H2481 C2477 0.950 . S
H2482 C2479 0.950 . S
C2483 C2474 1.390 . S
C2483 H2476 0.950 . S
C2483 C2480 1.387 . S
C2484 C2485 1.387 . S
C2484 H2488 0.950 . S
C2484 C2493 1.390 . S
C2485 C2484 1.387 . S
C2485 C2487 1.387 . S
H2486 C2493 0.950 . S
C2487 C2485 1.387 . S
C2487 C2489 1.390 . S
C2487 H2491 0.950 . S
H2488 C2484 0.950 . S
C2489 C2487 1.390 . S
C2489 C2490 1.387 . S
C2489 H2492 0.950 . S
C2490 C2489 1.387 . S
C2490 C2493 1.387 . S
H2491 C2487 0.950 . S
H2492 C2489 0.950 . S
C2493 C2484 1.390 . S
C2493 H2486 0.950 . S
C2493 C2490 1.387 . S
C2494 C2495 1.387 . S
C2494 H2498 0.950 . S
C2494 C2503 1.390 . S
C2495 C2494 1.387 . S
C2495 C2497 1.387 . S
H2496 C2503 0.950 . S
C2497 C2495 1.387 . S
C2497 C2499 1.390 . S
C2497 H2501 0.950 . S
H2498 C2494 0.950 . S
C2499 C2497 1.390 . S
C2499 C2500 1.387 . S
C2499 H2502 0.950 . S
C2500 C2499 1.387 . S
C2500 C2503 1.387 . S
H2501 C2497 0.950 . S
H2502 C2499 0.950 . S
C2503 C2494 1.390 . S
C2503 H2496 0.950 . S
C2503 C2500 1.387 . S
C2504 C2505 1.387 . S
C2504 H2508 0.950 . S
C2504 C2513 1.390 . S
C2505 C2504 1.387 . S
C2505 C2507 1.387 . S
H2506 C2513 0.950 . S
C2507 C2505 1.387 . S
C2507 C2509 1.390 . S
C2507 H2511 0.950 . S
H2508 C2504 0.950 . S
C2509 C2507 1.390 . S
C2509 C2510 1.387 . S
C2509 H2512 0.950 . S
C2510 C2509 1.387 . S
C2510 C2513 1.387 . S
H2511 C2507 0.950 . S
H2512 C2509 0.950 . S
C2513 C2504 1.390 . S
C2513 H2506 0.950 . S
C2513 C2510 1.387 . S
C2514 C2515 1.387 . S
C2514 H2518 0.950 . S
C2514 C2523 1.390 . S
C2515 C2514 1.387 . S
C2515 C2517 1.387 . S
H2516 C2523 0.950 . S
C2517 C2515 1.387 . S
C2517 C2519 1.390 . S
C2517 H2521 0.950 . S
H2518 C2514 0.950 . S
C2519 C2517 1.390 . S
C2519 C2520 1.387 . S
C2519 H2522 0.950 . S
C2520 C2519 1.387 . S
C2520 C2523 1.387 . S
H2521 C2517 0.950 . S
H2522 C2519 0.950 . S
C2523 C2514 1.390 . S
C2523 H2516 0.950 . S
C2523 C2520 1.387 . S
C2524 C2525 1.387 . S
C2524 H2528 0.950 . S
C2524 C2533 1.390 . S
C2525 C2524 1.387 . S
C2525 C2527 1.387 . S
H2526 C2533 0.950 . S
C2527 C2525 1.387 . S
C2527 C2529 1.390 . S
C2527 H2531 0.950 . S
H2528 C2524 0.950 . S
C2529 C2527 1.390 . S
C2529 C2530 1.387 . S
C2529 H2532 0.950 . S
C2530 C2529 1.387 . S
C2530 C2533 1.387 . S
H2531 C2527 0.950 . S
H2532 C2529 0.950 . S
C2533 C2524 1.390 . S
C2533 H2526 0.950 . S
C2533 C2530 1.387 . S
C2534 C2535 1.387 . S
C2534 H2538 0.950 . S
C2534 C2543 1.390 . S
C2535 C2534 1.387 . S
C2535 C2537 1.387 . S
H2536 C2543 0.950 . S
C2537 C2535 1.387 . S
C2537 C2539 1.390 . S
C2537 H2541 0.950 . S
H2538 C2534 0.950 . S
C2539 C2537 1.390 . S
C2539 C2540 1.387 . S
C2539 H2542 0.950 . S
C2540 C2539 1.387 . S
C2540 C2543 1.387 . S
H2541 C2537 0.950 . S
H2542 C2539 0.950 . S
C2543 C2534 1.390 . S
C2543 H2536 0.950 . S
C2543 C2540 1.387 . S
C2544 C2545 1.387 . S
C2544 H2548 0.950 . S
C2544 C2553 1.390 . S
C2545 C2544 1.387 . S
C2545 C2547 1.387 . S
H2546 C2553 0.950 . S
C2547 C2545 1.387 . S
C2547 C2549 1.390 . S
C2547 H2551 0.950 . S
H2548 C2544 0.950 . S
C2549 C2547 1.390 . S
C2549 C2550 1.387 . S
C2549 H2552 0.950 . S
C2550 C2549 1.387 . S
C2550 C2553 1.387 . S
H2551 C2547 0.950 . S
H2552 C2549 0.950 . S
C2553 C2544 1.390 . S
C2553 H2546 0.950 . S
C2553 C2550 1.387 . S
C2554 C2555 1.387 . S
C2554 H2558 0.950 . S
C2554 C2563 1.390 . S
C2555 C2554 1.387 . S
C2555 C2557 1.387 . S
H2556 C2563 0.950 . S
C2557 C2555 1.387 . S
C2557 C2559 1.390 . S
C2557 H2561 0.950 . S
H2558 C2554 0.950 . S
C2559 C2557 1.390 . S
C2559 C2560 1.387 . S
C2559 H2562 0.950 . S
C2560 C2559 1.387 . S
C2560 C2563 1.387 . S
H2561 C2557 0.950 . S
H2562 C2559 0.950 . S
C2563 C2554 1.390 . S
C2563 H2556 0.950 . S
C2563 C2560 1.387 . S
C2564 C2565 1.387 . S
C2564 H2568 0.950 . S
C2564 C2573 1.390 . S
C2565 C2564 1.387 . S
C2565 C2567 1.387 . S
H2566 C2573 0.950 . S
C2567 C2565 1.387 . S
C2567 C2569 1.390 . S
C2567 H2571 0.950 . S
H2568 C2564 0.950 . S
C2569 C2567 1.390 . S
C2569 C2570 1.387 . S
C2569 H2572 0.950 . S
C2570 C2569 1.387 . S
C2570 C2573 1.387 . S
H2571 C2567 0.950 . S
H2572 C2569 0.950 . S
C2573 C2564 1.390 . S
C2573 H2566 0.950 . S
C2573 C2570 1.387 . S
C2574 C2575 1.387 . S
C2574 H2578 0.950 . S
C2574 C2583 1.390 . S
C2575 C2574 1.387 . S
C2575 C2577 1.387 . S
H2576 C2583 0.950 . S
C2577 C2575 1.387 . S
C2577 C2579 1.390 . S
C2577 H2581 0.950 . S
H2578 C2574 0.950 . S
C2579 C2577 1.390 . S
C2579 C2580 1.387 . S
C2579 H2582 0.950 . S
C2580 C2579 1.387 . S
C2580 C2583 1.387 . S
H2581 C2577 0.950 . S
H2582 C2579 0.950 . S
C2583 C2574 1.390 . S
C2583 H2576 0.950 . S
C2583 C2580 1.387 . S
C2584 C2585 1.387 . S
C2584 H2588 0.950 . S
C2584 C2593 1.390 . S
C2585 C2584 1.387 . S
C2585 C2587 1.387 . S
H2586 C2593 0.950 . S
C2587 C2585 1.387 . S
C2587 C2589 1.390 . S
C2587 H2591 0.950 . S
H2588 C2584 0.950 . S
C2589 C2587 1.390 . S
C2589 C2590 1.387 . S
C2589 H2592 0.950 . S
C2590 C2589 1.387 . S
C2590 C2593 1.387 . S
H2591 C2587 0.950 . S
H2592 C2589 0.950 . S
C2593 C2584 1.390 . S
C2593 H2586 0.950 . S
C2593 C2590 1.387 . S
C2594 C2595 1.387 . S
C2594 H2598 0.950 . S
C2594 C2603 1.390 . S
C2595 C2594 1.387 . S
C2595 C2597 1.387 . S
H2596 C2603 0.950 . S
C2597 C2595 1.387 . S
C2597 C2599 1.390 . S
C2597 H2601 0.950 . S
H2598 C2594 0.950 . S
C2599 C2597 1.390 . S
C2599 C2600 1.387 . S
C2599 H2602 0.950 . S
C2600 C2599 1.387 . S
C2600 C2603 1.387 . S
H2601 C2597 0.950 . S
H2602 C2599 0.950 . S
C2603 C2594 1.390 . S
C2603 H2596 0.950 . S
C2603 C2600 1.387 . S
C2604 C2605 1.387 . S
C2604 H2608 0.950 . S
C2604 C2613 1.390 . S
C2605 C2604 1.387 . S
C2605 C2607 1.387 . S
H2606 C2613 0.950 . S
C2607 C2605 1.387 . S
C2607 C2609 1.390 . S
C2607 H2611 0.950 . S
H2608 C2604 0.950 . S
C2609 C2607 1.390 . S
C2609 C2610 1.387 . S
C2609 H2612 0.950 . S
C2610 C2609 1.387 . S
C2610 C2613 1.387 . S
H2611 C2607 0.950 . S
H2612 C2609 0.950 . S
C2613 C2604 1.390 . S
C2613 H2606 0.950 . S
C2613 C2610 1.387 . S
C2614 C2615 1.387 . S
C2614 H2618 0.950 . S
C2614 C2623 1.390 . S
C2615 C2614 1.387 . S
C2615 C2617 1.387 . S
H2616 C2623 0.950 . S
C2617 C2615 1.387 . S
C2617 C2619 1.390 . S
C2617 H2621 0.950 . S
H2618 C2614 0.950 . S
C2619 C2617 1.390 . S
C2619 C2620 1.387 . S
C2619 H2622 0.950 . S
C2620 C2619 1.387 . S
C2620 C2623 1.387 . S
H2621 C2617 0.950 . S
H2622 C2619 0.950 . S
C2623 C2614 1.390 . S
C2623 H2616 0.950 . S
C2623 C2620 1.387 . S
C2624 C2625 1.387 . S
C2624 H2628 0.950 . S
C2624 C2633 1.390 . S
C2625 C2624 1.387 . S
C2625 C2627 1.387 . S
H2626 C2633 0.950 . S
C2627 C2625 1.387 . S
C2627 C2629 1.390 . S
C2627 H2631 0.950 . S
H2628 C2624 0.950 . S
C2629 C2627 1.390 . S
C2629 C2630 1.387 . S
C2629 H2632 0.950 . S
C2630 C2629 1.387 . S
C2630 C2633 1.387 . S
H2631 C2627 0.950 . S
H2632 C2629 0.950 . S
C2633 C2624 1.390 . S
C2633 H2626 0.950 . S
C2633 C2630 1.387 . S
C2634 C2635 1.387 . S
C2634 H2638 0.950 . S
C2634 C2643 1.390 . S
C2635 C2634 1.387 . S
C2635 C2637 1.387 . S
H2636 C2643 0.950 . S
C2637 C2635 1.387 . S
C2637 C2639 1.390 . S
C2637 H2641 0.950 . S
H2638 C2634 0.950 . S
C2639 C2637 1.390 . S
C2639 C2640 1.387 . S
C2639 H2642 0.950 . S
C2640 C2639 1.387 . S
C2640 C2643 1.387 . S
H2641 C2637 0.950 . S
H2642 C2639 0.950 . S
C2643 C2634 1.390 . S
C2643 H2636 0.950 . S
C2643 C2640 1.387 . S
C2644 C2645 1.387 . S
C2644 H2648 0.950 . S
C2644 C2653 1.390 . S
C2645 C2644 1.387 . S
C2645 C2647 1.387 . S
H2646 C2653 0.950 . S
C2647 C2645 1.387 . S
C2647 C2649 1.390 . S
C2647 H2651 0.950 . S
H2648 C2644 0.950 . S
C2649 C2647 1.390 . S
C2649 C2650 1.387 . S
C2649 H2652 0.950 . S
C2650 C2649 1.387 . S
C2650 C2653 1.387 . S
H2651 C2647 0.950 . S
H2652 C2649 0.950 . S
C2653 C2644 1.390 . S
C2653 H2646 0.950 . S
C2653 C2650 1.387 . S
C2654 C2655 1.387 . S
C2654 H2658 0.950 . S
C2654 C2663 1.390 . S
C2655 C2654 1.387 . S
C2655 C2657 1.387 . S
H2656 C2663 0.950 . S
C2657 C2655 1.387 . S
C2657 C2659 1.390 . S
C2657 H2661 0.950 . S
H2658 C2654 0.950 . S
C2659 C2657 1.390 . S
C2659 C2660 1.387 . S
C2659 H2662 0.950 . S
C2660 C2659 1.387 . S
C2660 C2663 1.387 . S
H2661 C2657 0.950 . S
H2662 C2659 0.950 . S
C2663 C2654 1.390 . S
C2663 H2656 0.950 . S
C2663 C2660 1.387 . S
C2664 C2665 1.387 . S
C2664 H2668 0.950 . S
C2664 C2673 1.390 . S
C2665 C2664 1.387 . S
C2665 C2667 1.387 . S
H2666 C2673 0.950 . S
C2667 C2665 1.387 . S
C2667 C2669 1.390 . S
C2667 H2671 0.950 . S
H2668 C2664 0.950 . S
C2669 C2667 1.390 . S
C2669 C2670 1.387 . S
C2669 H2672 0.950 . S
C2670 C2669 1.387 . S
C2670 C2673 1.387 . S
H2671 C2667 0.950 . S
H2672 C2669 0.950 . S
C2673 C2664 1.390 . S
C2673 H2666 0.950 . S
C2673 C2670 1.387 . S
C2674 C2675 1.387 . S
C2674 H2678 0.950 . S
C2674 C2683 1.390 . S
C2675 C2674 1.387 . S
C2675 C2677 1.387 . S
H2676 C2683 0.950 . S
C2677 C2675 1.387 . S
C2677 C2679 1.390 . S
C2677 H2681 0.950 . S
H2678 C2674 0.950 . S
C2679 C2677 1.390 . S
C2679 C2680 1.387 . S
C2679 H2682 0.950 . S
C2680 C2679 1.387 . S
C2680 C2683 1.387 . S
H2681 C2677 0.950 . S
H2682 C2679 0.950 . S
C2683 C2674 1.390 . S
C2683 H2676 0.950 . S
C2683 C2680 1.387 . S
C2684 C2685 1.387 . S
C2684 H2688 0.950 . S
C2684 C2693 1.390 . S
C2685 C2684 1.387 . S
C2685 C2687 1.387 . S
H2686 C2693 0.950 . S
C2687 C2685 1.387 . S
C2687 C2689 1.390 . S
C2687 H2691 0.950 . S
H2688 C2684 0.950 . S
C2689 C2687 1.390 . S
C2689 C2690 1.387 . S
C2689 H2692 0.950 . S
C2690 C2689 1.387 . S
C2690 C2693 1.387 . S
H2691 C2687 0.950 . S
H2692 C2689 0.950 . S
C2693 C2684 1.390 . S
C2693 H2686 0.950 . S
C2693 C2690 1.387 . S
C2694 C2695 1.387 . S
C2694 H2698 0.950 . S
C2694 C2703 1.390 . S
C2695 C2694 1.387 . S
C2695 C2697 1.387 . S
H2696 C2703 0.950 . S
C2697 C2695 1.387 . S
C2697 C2699 1.390 . S
C2697 H2701 0.950 . S
H2698 C2694 0.950 . S
C2699 C2697 1.390 . S
C2699 C2700 1.387 . S
C2699 H2702 0.950 . S
C2700 C2699 1.387 . S
C2700 C2703 1.387 . S
H2701 C2697 0.950 . S
H2702 C2699 0.950 . S
C2703 C2694 1.390 . S
C2703 H2696 0.950 . S
C2703 C2700 1.387 . S
C2704 C2705 1.387 . S
C2704 H2708 0.950 . S
C2704 C2713 1.390 . S
C2705 C2704 1.387 . S
C2705 C2707 1.387 . S
H2706 C2713 0.950 . S
C2707 C2705 1.387 . S
C2707 C2709 1.390 . S
C2707 H2711 0.950 . S
H2708 C2704 0.950 . S
C2709 C2707 1.390 . S
C2709 C2710 1.387 . S
C2709 H2712 0.950 . S
C2710 C2709 1.387 . S
C2710 C2713 1.387 . S
H2711 C2707 0.950 . S
H2712 C2709 0.950 . S
C2713 C2704 1.390 . S
C2713 H2706 0.950 . S
C2713 C2710 1.387 . S
C2714 C2715 1.387 . S
C2714 H2718 0.950 . S
C2714 C2723 1.390 . S
C2715 C2714 1.387 . S
C2715 C2717 1.387 . S
H2716 C2723 0.950 . S
C2717 C2715 1.387 . S
C2717 C2719 1.390 . S
C2717 H2721 0.950 1_556 S
H2718 C2714 0.950 . S
C2719 C2717 1.390 . S
C2719 C2720 1.387 . S
C2719 H2722 0.950 . S
C2720 C2719 1.387 . S
C2720 C2723 1.387 . S
H2721 C2717 0.950 1_554 S
H2722 C2719 0.950 . S
C2723 C2714 1.390 . S
C2723 H2716 0.950 . S
C2723 C2720 1.387 . S
C2724 C2725 1.387 . S
C2724 H2728 0.950 . S
C2724 C2733 1.390 . S
C2725 C2724 1.387 . S
C2725 C2727 1.387 . S
H2726 C2733 0.950 . S
C2727 C2725 1.387 . S
C2727 C2729 1.390 . S
C2727 H2731 0.950 . S
H2728 C2724 0.950 . S
C2729 C2727 1.390 . S
C2729 C2730 1.387 . S
C2729 H2732 0.950 . S
C2730 C2729 1.387 . S
C2730 C2733 1.387 . S
H2731 C2727 0.950 . S
H2732 C2729 0.950 . S
C2733 C2724 1.390 . S
C2733 H2726 0.950 . S
C2733 C2730 1.387 . S
C2734 C2735 1.387 . S
C2734 H2738 0.950 . S
C2734 C2743 1.390 . S
C2735 C2734 1.387 . S
C2735 C2737 1.387 . S
H2736 C2743 0.950 . S
C2737 C2735 1.387 . S
C2737 C2739 1.390 . S
C2737 H2741 0.950 . S
H2738 C2734 0.950 . S
C2739 C2737 1.390 . S
C2739 C2740 1.387 . S
C2739 H2742 0.950 . S
C2740 C2739 1.387 . S
C2740 C2743 1.387 . S
H2741 C2737 0.950 . S
H2742 C2739 0.950 . S
C2743 C2734 1.390 . S
C2743 H2736 0.950 . S
C2743 C2740 1.387 . S
C2744 C2745 1.387 . S
C2744 H2748 0.950 . S
C2744 C2753 1.390 . S
C2745 C2744 1.387 . S
C2745 C2747 1.387 . S
H2746 C2753 0.950 . S
C2747 C2745 1.387 . S
C2747 C2749 1.390 . S
C2747 H2751 0.950 . S
H2748 C2744 0.950 . S
C2749 C2747 1.390 . S
C2749 C2750 1.387 . S
C2749 H2752 0.950 . S
C2750 C2749 1.387 . S
C2750 C2753 1.387 . S
H2751 C2747 0.950 . S
H2752 C2749 0.950 . S
C2753 C2744 1.390 . S
C2753 H2746 0.950 . S
C2753 C2750 1.387 . S
C2754 C2755 1.387 . S
C2754 H2758 0.950 . S
C2754 C2763 1.390 . S
C2755 C2754 1.387 . S
C2755 C2757 1.387 . S
H2756 C2763 0.950 . S
C2757 C2755 1.387 . S
C2757 C2759 1.390 . S
C2757 H2761 0.950 . S
H2758 C2754 0.950 . S
C2759 C2757 1.390 . S
C2759 C2760 1.387 . S
C2759 H2762 0.950 . S
C2760 C2759 1.387 . S
C2760 C2763 1.387 . S
H2761 C2757 0.950 . S
H2762 C2759 0.950 . S
C2763 C2754 1.390 . S
C2763 H2756 0.950 . S
C2763 C2760 1.387 . S
C2764 C2765 1.387 . S
C2764 H2768 0.950 . S
C2764 C2773 1.390 . S
C2765 C2764 1.387 . S
C2765 C2767 1.387 . S
H2766 C2773 0.950 . S
C2767 C2765 1.387 . S
C2767 C2769 1.390 . S
C2767 H2771 0.950 . S
H2768 C2764 0.950 . S
C2769 C2767 1.390 . S
C2769 C2770 1.387 . S
C2769 H2772 0.950 . S
C2770 C2769 1.387 . S
C2770 C2773 1.387 . S
H2771 C2767 0.950 . S
H2772 C2769 0.950 . S
C2773 C2764 1.390 . S
C2773 H2766 0.950 . S
C2773 C2770 1.387 . S
C2774 C2775 1.387 . S
C2774 H2778 0.950 . S
C2774 C2783 1.390 . S
C2775 C2774 1.387 . S
C2775 C2777 1.387 . S
H2776 C2783 0.950 . S
C2777 C2775 1.387 . S
C2777 C2779 1.390 . S
C2777 H2781 0.950 . S
H2778 C2774 0.950 . S
C2779 C2777 1.390 . S
C2779 C2780 1.387 . S
C2779 H2782 0.950 . S
C2780 C2779 1.387 . S
C2780 C2783 1.387 . S
H2781 C2777 0.950 . S
H2782 C2779 0.950 . S
C2783 C2774 1.390 . S
C2783 H2776 0.950 . S
C2783 C2780 1.387 . S
C2784 C2785 1.387 . S
C2784 H2788 0.950 . S
C2784 C2793 1.390 . S
C2785 C2784 1.387 . S
C2785 C2787 1.387 . S
H2786 C2793 0.950 . S
C2787 C2785 1.387 . S
C2787 C2789 1.390 . S
C2787 H2791 0.950 . S
H2788 C2784 0.950 . S
C2789 C2787 1.390 . S
C2789 C2790 1.387 . S
C2789 H2792 0.950 . S
C2790 C2789 1.387 . S
C2790 C2793 1.387 . S
H2791 C2787 0.950 . S
H2792 C2789 0.950 . S
C2793 C2784 1.390 . S
C2793 H2786 0.950 . S
C2793 C2790 1.387 . S
C2794 C2795 1.387 . S
C2794 H2798 0.950 . S
C2794 C2803 1.390 . S
C2795 C2794 1.387 . S
C2795 C2797 1.387 . S
H2796 C2803 0.950 . S
C2797 C2795 1.387 . S
C2797 C2799 1.390 . S
C2797 H2801 0.950 . S
H2798 C2794 0.950 . S
C2799 C2797 1.390 . S
C2799 C2800 1.387 . S
C2799 H2802 0.950 . S
C2800 C2799 1.387 . S
C2800 C2803 1.387 . S
H2801 C2797 0.950 . S
H2802 C2799 0.950 . S
C2803 C2794 1.390 . S
C2803 H2796 0.950 . S
C2803 C2800 1.387 . S
C2804 C2805 1.387 . S
C2804 H2808 0.950 . S
C2804 C2813 1.390 . S
C2805 C2804 1.387 . S
C2805 C2807 1.387 . S
H2806 C2813 0.950 . S
C2807 C2805 1.387 . S
C2807 C2809 1.390 . S
C2807 H2811 0.950 . S
H2808 C2804 0.950 . S
C2809 C2807 1.390 . S
C2809 C2810 1.387 . S
C2809 H2812 0.950 . S
C2810 C2809 1.387 . S
C2810 C2813 1.387 . S
H2811 C2807 0.950 . S
H2812 C2809 0.950 . S
C2813 C2804 1.390 . S
C2813 H2806 0.950 . S
C2813 C2810 1.387 . S
C2814 C2815 1.387 . S
C2814 H2818 0.950 . S
C2814 C2823 1.390 . S
C2815 C2814 1.387 . S
C2815 C2817 1.387 1_455 S
H2816 C2823 0.950 . S
C2817 C2815 1.387 1_655 S
C2817 C2819 1.390 . S
C2817 H2821 0.950 . S
H2818 C2814 0.950 . S
C2819 C2817 1.390 . S
C2819 C2820 1.387 1_655 S
C2819 H2822 0.950 . S
C2820 C2819 1.387 1_455 S
C2820 C2823 1.387 . S
H2821 C2817 0.950 . S
H2822 C2819 0.950 . S
C2823 C2814 1.390 . S
C2823 H2816 0.950 . S
C2823 C2820 1.387 . S
C2824 C2825 1.387 . S
C2824 H2828 0.950 . S
C2824 C2833 1.390 . S
C2825 C2824 1.387 . S
C2825 C2827 1.387 . S
H2826 C2833 0.950 . S
C2827 C2825 1.387 . S
C2827 C2829 1.390 . S
C2827 H2831 0.950 . S
H2828 C2824 0.950 . S
C2829 C2827 1.390 . S
C2829 C2830 1.387 . S
C2829 H2832 0.950 . S
C2830 C2829 1.387 . S
C2830 C2833 1.387 . S
H2831 C2827 0.950 . S
H2832 C2829 0.950 . S
C2833 C2824 1.390 . S
C2833 H2826 0.950 . S
C2833 C2830 1.387 . S
C2834 C2835 1.387 . S
C2834 H2838 0.950 . S
C2834 C2843 1.390 . S
C2835 C2834 1.387 . S
C2835 C2837 1.387 1_565 S
H2836 C2843 0.950 . S
C2837 C2835 1.387 1_545 S
C2837 C2839 1.390 . S
C2837 H2841 0.950 . S
H2838 C2834 0.950 . S
C2839 C2837 1.390 . S
C2839 C2840 1.387 1_545 S
C2839 H2842 0.950 . S
C2840 C2839 1.387 1_565 S
C2840 C2843 1.387 . S
H2841 C2837 0.950 . S
H2842 C2839 0.950 . S
C2843 C2834 1.390 . S
C2843 H2836 0.950 . S
C2843 C2840 1.387 . S
C2844 C2845 1.387 . S
C2844 H2848 0.950 . S
C2844 C2853 1.390 . S
C2845 C2844 1.387 . S
C2845 C2847 1.387 1_565 S
H2846 C2853 0.950 . S
C2847 C2845 1.387 1_545 S
C2847 C2849 1.390 . S
C2847 H2851 0.950 . S
H2848 C2844 0.950 . S
C2849 C2847 1.390 . S
C2849 C2850 1.387 1_545 S
C2849 H2852 0.950 . S
C2850 C2849 1.387 1_565 S
C2850 C2853 1.387 . S
H2851 C2847 0.950 . S
H2852 C2849 0.950 . S
C2853 C2844 1.390 . S
C2853 H2846 0.950 . S
C2853 C2850 1.387 . S
C2854 C2855 1.387 . S
C2854 H2858 0.950 . S
C2854 C2863 1.390 . S
C2855 C2854 1.387 . S
C2855 C2857 1.387 1_455 S
H2856 C2863 0.950 . S
C2857 C2855 1.387 1_655 S
C2857 C2859 1.390 . S
C2857 H2861 0.950 . S
H2858 C2854 0.950 . S
C2859 C2857 1.390 . S
C2859 C2860 1.387 1_655 S
C2859 H2862 0.950 . S
C2860 C2859 1.387 1_455 S
C2860 C2863 1.387 . S
H2861 C2857 0.950 . S
H2862 C2859 0.950 . S
C2863 C2854 1.390 . S
C2863 H2856 0.950 . S
C2863 C2860 1.387 . S
C2864 C2865 1.387 . S
C2864 H2868 0.950 . S
C2864 C2873 1.390 . S
C2865 C2864 1.387 . S
C2865 C2867 1.387 . S
H2866 C2873 0.950 . S
C2867 C2865 1.387 . S
C2867 C2869 1.390 . S
C2867 H2871 0.950 . S
H2868 C2864 0.950 . S
C2869 C2867 1.390 . S
C2869 C2870 1.387 . S
C2869 H2872 0.950 . S
C2870 C2869 1.387 . S
C2870 C2873 1.387 . S
H2871 C2867 0.950 . S
H2872 C2869 0.950 . S
C2873 C2864 1.390 . S
C2873 H2866 0.950 . S
C2873 C2870 1.387 . S
C2874 C2875 1.387 . S
C2874 H2878 0.950 . S
C2874 C2883 1.390 . S
C2875 C2874 1.387 . S
C2875 C2877 1.387 . S
H2876 C2883 0.950 . S
C2877 C2875 1.387 . S
C2877 C2879 1.390 . S
C2877 H2881 0.950 . S
H2878 C2874 0.950 . S
C2879 C2877 1.390 . S
C2879 C2880 1.387 . S
C2879 H2882 0.950 . S
C2880 C2879 1.387 . S
C2880 C2883 1.387 . S
H2881 C2877 0.950 . S
H2882 C2879 0.950 . S
C2883 C2874 1.390 . S
C2883 H2876 0.950 . S
C2883 C2880 1.387 . S
C2884 C2885 1.387 . S
C2884 H2888 0.950 . S
C2884 C2893 1.390 . S
C2885 C2884 1.387 . S
C2885 C2887 1.387 . S
H2886 C2893 0.950 . S
C2887 C2885 1.387 . S
C2887 C2889 1.390 . S
C2887 H2891 0.950 . S
H2888 C2884 0.950 . S
C2889 C2887 1.390 . S
C2889 C2890 1.387 . S
C2889 H2892 0.950 . S
C2890 C2889 1.387 . S
C2890 C2893 1.387 . S
H2891 C2887 0.950 . S
H2892 C2889 0.950 . S
C2893 C2884 1.390 . S
C2893 H2886 0.950 . S
C2893 C2890 1.387 . S
C2894 C2895 1.387 . S
C2894 H2898 0.950 . S
C2894 C2903 1.390 . S
C2895 C2894 1.387 . S
C2895 C2897 1.387 . S
H2896 C2903 0.950 . S
C2897 C2895 1.387 . S
C2897 C2899 1.390 . S
C2897 H2901 0.950 . S
H2898 C2894 0.950 . S
C2899 C2897 1.390 . S
C2899 C2900 1.387 . S
C2899 H2902 0.950 . S
C2900 C2899 1.387 . S
C2900 C2903 1.387 . S
H2901 C2897 0.950 . S
H2902 C2899 0.950 . S
C2903 C2894 1.390 . S
C2903 H2896 0.950 . S
C2903 C2900 1.387 . S
C2904 C2905 1.387 . S
C2904 H2908 0.950 . S
C2904 C2913 1.390 . S
C2905 C2904 1.387 . S
C2905 C2907 1.387 1_545 S
H2906 C2913 0.950 . S
C2907 C2905 1.387 1_565 S
C2907 C2909 1.390 . S
C2907 H2911 0.950 . S
H2908 C2904 0.950 . S
C2909 C2907 1.390 . S
C2909 C2910 1.387 1_565 S
C2909 H2912 0.950 . S
C2910 C2909 1.387 1_545 S
C2910 C2913 1.387 . S
H2911 C2907 0.950 . S
H2912 C2909 0.950 . S
C2913 C2904 1.390 . S
C2913 H2906 0.950 . S
C2913 C2910 1.387 . S
C2914 C2915 1.387 1_455 S
C2914 H2918 0.950 . S
C2914 C2923 1.390 . S
C2915 C2914 1.387 1_655 S
C2915 C2917 1.387 . S
H2916 C2923 0.950 . S
C2917 C2915 1.387 . S
C2917 C2919 1.390 . S
C2917 H2921 0.950 . S
H2918 C2914 0.950 . S
C2919 C2917 1.390 . S
C2919 C2920 1.387 . S
C2919 H2922 0.950 . S
C2920 C2919 1.387 . S
C2920 C2923 1.387 1_655 S
H2921 C2917 0.950 . S
H2922 C2919 0.950 . S
C2923 C2914 1.390 . S
C2923 H2916 0.950 . S
C2923 C2920 1.387 1_455 S
C2924 C2925 1.387 . S
C2924 H2928 0.950 . S
C2924 C2933 1.390 . S
C2925 C2924 1.387 . S
C2925 C2927 1.387 . S
H2926 C2933 0.950 . S
C2927 C2925 1.387 . S
C2927 C2929 1.390 . S
C2927 H2931 0.950 . S
H2928 C2924 0.950 . S
C2929 C2927 1.390 . S
C2929 C2930 1.387 . S
C2929 H2932 0.950 . S
C2930 C2929 1.387 . S
C2930 C2933 1.387 . S
H2931 C2927 0.950 . S
H2932 C2929 0.950 . S
C2933 C2924 1.390 . S
C2933 H2926 0.950 . S
C2933 C2930 1.387 . S
C2934 C2935 1.387 . S
C2934 H2938 0.950 . S
C2934 C2943 1.390 . S
C2935 C2934 1.387 . S
C2935 C2937 1.387 . S
H2936 C2943 0.950 . S
C2937 C2935 1.387 . S
C2937 C2939 1.390 . S
C2937 H2941 0.950 . S
H2938 C2934 0.950 . S
C2939 C2937 1.390 . S
C2939 C2940 1.387 . S
C2939 H2942 0.950 . S
C2940 C2939 1.387 . S
C2940 C2943 1.387 . S
H2941 C2937 0.950 . S
H2942 C2939 0.950 . S
C2943 C2934 1.390 . S
C2943 H2936 0.950 . S
C2943 C2940 1.387 . S
C2944 C2945 1.387 . S
C2944 H2948 0.950 . S
C2944 C2953 1.390 . S
C2945 C2944 1.387 . S
C2945 C2947 1.387 . S
H2946 C2953 0.950 . S
C2947 C2945 1.387 . S
C2947 C2949 1.390 . S
C2947 H2951 0.950 . S
H2948 C2944 0.950 . S
C2949 C2947 1.390 . S
C2949 C2950 1.387 . S
C2949 H2952 0.950 . S
C2950 C2949 1.387 . S
C2950 C2953 1.387 . S
H2951 C2947 0.950 . S
H2952 C2949 0.950 . S
C2953 C2944 1.390 . S
C2953 H2946 0.950 . S
C2953 C2950 1.387 . S
C2954 C2955 1.387 . S
C2954 H2958 0.950 . S
C2954 C2963 1.390 . S
C2955 C2954 1.387 . S
C2955 C2957 1.387 . S
H2956 C2963 0.950 . S
C2957 C2955 1.387 . S
C2957 C2959 1.390 . S
C2957 H2961 0.950 . S
H2958 C2954 0.950 . S
C2959 C2957 1.390 . S
C2959 C2960 1.387 . S
C2959 H2962 0.950 . S
C2960 C2959 1.387 . S
C2960 C2963 1.387 . S
H2961 C2957 0.950 . S
H2962 C2959 0.950 . S
C2963 C2954 1.390 . S
C2963 H2956 0.950 . S
C2963 C2960 1.387 . S
C2964 C2965 1.387 . S
C2964 H2968 0.950 . S
C2964 C2973 1.390 . S
C2965 C2964 1.387 . S
C2965 C2967 1.387 . S
H2966 C2973 0.950 . S
C2967 C2965 1.387 . S
C2967 C2969 1.390 . S
C2967 H2971 0.950 . S
H2968 C2964 0.950 . S
C2969 C2967 1.390 . S
C2969 C2970 1.387 . S
C2969 H2972 0.950 . S
C2970 C2969 1.387 . S
C2970 C2973 1.387 . S
H2971 C2967 0.950 . S
H2972 C2969 0.950 . S
C2973 C2964 1.390 . S
C2973 H2966 0.950 . S
C2973 C2970 1.387 . S
C2974 C2975 1.387 . S
C2974 H2978 0.950 . S
C2974 C2983 1.390 . S
C2975 C2974 1.387 . S
C2975 C2977 1.387 . S
H2976 C2983 0.950 . S
C2977 C2975 1.387 . S
C2977 C2979 1.390 . S
C2977 H2981 0.950 . S
H2978 C2974 0.950 . S
C2979 C2977 1.390 . S
C2979 C2980 1.387 . S
C2979 H2982 0.950 . S
C2980 C2979 1.387 . S
C2980 C2983 1.387 . S
H2981 C2977 0.950 . S
H2982 C2979 0.950 . S
C2983 C2974 1.390 . S
C2983 H2976 0.950 . S
C2983 C2980 1.387 . S
C2984 C2985 1.387 . S
C2984 H2988 0.950 . S
C2984 C2993 1.390 . S
C2985 C2984 1.387 . S
C2985 C2987 1.387 . S
H2986 C2993 0.950 . S
C2987 C2985 1.387 . S
C2987 C2989 1.390 . S
C2987 H2991 0.950 . S
H2988 C2984 0.950 . S
C2989 C2987 1.390 . S
C2989 C2990 1.387 . S
C2989 H2992 0.950 . S
C2990 C2989 1.387 . S
C2990 C2993 1.387 . S
H2991 C2987 0.950 . S
H2992 C2989 0.950 . S
C2993 C2984 1.390 . S
C2993 H2986 0.950 . S
C2993 C2990 1.387 . S
C2994 C2995 1.387 . S
C2994 H2998 0.950 . S
C2994 C3003 1.390 . S
C2995 C2994 1.387 . S
C2995 C2997 1.387 . S
H2996 C3003 0.950 . S
C2997 C2995 1.387 . S
C2997 C2999 1.390 . S
C2997 H3001 0.961 . S
H2998 C2994 0.950 . S
C2999 C2997 1.390 . S
C2999 C3000 1.387 . S
C2999 H3002 0.950 1_655 S
C3000 C2999 1.387 . S
C3000 C3003 1.387 . S
H3001 C2997 0.961 . S
H3002 C2999 0.950 1_455 S
C3003 C2994 1.390 . S
C3003 H2996 0.950 . S
C3003 C3000 1.387 . S
C3004 C3005 1.387 . S
C3004 H3008 0.950 . S
C3004 C3013 1.390 . S
C3005 C3004 1.387 . S
C3005 C3007 1.387 . S
H3006 C3013 0.950 . S
C3007 C3005 1.387 . S
C3007 C3009 1.390 . S
C3007 H3011 0.950 . S
H3008 C3004 0.950 . S
C3009 C3007 1.390 . S
C3009 C3010 1.387 . S
C3009 H3012 0.950 . S
C3010 C3009 1.387 . S
C3010 C3013 1.387 . S
H3011 C3007 0.950 . S
H3012 C3009 0.950 . S
C3013 C3004 1.390 . S
C3013 H3006 0.950 . S
C3013 C3010 1.387 . S
C3014 C3015 1.387 1_565 S
C3014 H3018 0.950 . S
C3014 C3023 1.390 . S
C3015 C3014 1.387 1_545 S
C3015 C3017 1.387 . S
H3016 C3023 0.950 . S
C3017 C3015 1.387 . S
C3017 C3019 1.390 . S
C3017 H3021 0.950 . S
H3018 C3014 0.950 . S
C3019 C3017 1.390 . S
C3019 C3020 1.387 . S
C3019 H3022 0.950 . S
C3020 C3019 1.387 . S
C3020 C3023 1.387 1_545 S
H3021 C3017 0.950 . S
H3022 C3019 0.950 . S
C3023 C3014 1.390 . S
C3023 H3016 0.950 . S
C3023 C3020 1.387 1_565 S
C2305 C7 1.346 . S
C2310 C1307 1.096 1_655 S
C2315 C23 1.855 . S
C2320 C1447 1.117 . S
C2330 C1535 1.152 . S
C2325 C37 1.370 . S
C2335 C35 1.450 . S
C2340 C1675 1.076 1_565 S
C2345 C9 1.411 . S
C2350 C1789 1.074 . S
C2355 C21 1.798 . S
C2360 C1877 1.331 . S
C2365 C49 1.344 . S
C2370 C1763 1.083 . S
C2380 C1903 1.511 . S
C2375 C65 1.716 . S
C2390 C1649 1.155 . S
C2385 C79 1.379 . S
C2395 C77 1.436 . S
C2400 C1561 1.063 . S
C2410 C1333 1.091 . S
C2405 C51 1.409 . S
C2415 C63 1.674 . S
C2420 C1421 1.624 . S
C2425 C91 1.852 . S
C2430 C1991 1.354 . S
C2435 C107 1.957 . S
C2440 C2131 1.216 . S
C2450 C2219 1.317 . S
C2445 C121 1.927 . S
C2455 C119 1.908 . S
C2460 C307 1.228 . S
C2465 C93 1.997 . S
C2470 C421 1.219 . S
C2475 C105 1.881 . S
C2480 C509 1.408 . S
C2485 C133 1.598 . S
C2490 C395 1.564 . S
C2495 C149 1.803 . S
C2500 C535 1.628 . S
C2510 C281 1.643 . S
C2505 C163 1.784 . S
C2520 C2245 1.797 . S
C2515 C161 1.900 . S
C2530 C2017 1.660 . S
C2525 C135 1.838 . S
C2540 C2105 1.756 . S
C2535 C147 1.764 . S
C2545 C175 1.733 . S
C2550 C623 1.241 . S
C2555 C191 1.946 . S
C2560 C763 1.204 . S
C2565 C205 1.932 . S
C2570 C851 1.332 . S
C2575 C203 2.025 . S
C2580 C991 1.338 . S
C2590 C1105 1.205 . S
C2585 C177 1.998 . S
C2600 C1193 1.438 . S
C2595 C189 1.895 . S
C2610 C1079 1.685 . S
C2605 C217 1.728 . S
C2620 C1219 1.647 . S
C2615 C233 1.818 . S
C2625 C247 1.768 . S
C2630 C965 1.636 . S
C2640 C877 1.694 . S
C2635 C245 1.776 . S
C2645 C219 1.848 . S
C2650 C649 1.657 . S
C2660 C737 1.736 . S
C2655 C231 1.754 . S
C2670 C263 0.978 . S
C2665 C8 1.882 . S
C2675 C17 1.710 . S
C2680 C377 0.948 . S
C2690 C481 1.310 . S
C2685 C31 1.811 . S
C2700 C595 1.279 . S
C2695 C36 1.784 . S
C2710 C719 1.015 . S
C2705 C3 1.834 . S
C2720 C823 1.262 . S
C2715 C22 1.765 . S
C2725 C50 2.013 . S
C2730 C833 1.627 . S
C2735 C59 1.831 . S
C2740 C605 1.559 . S
C2745 C73 1.934 . S
C2750 C709 1.826 . S
C2755 C78 1.935 . S
C2760 C367 1.815 . S
C2770 C491 1.684 . S
C2765 C45 1.969 . S
C2775 C64 1.905 . S
C2780 C253 1.782 . S
C2790 C947 0.983 . S
C2785 C92 1.802 . S
C2795 C101 1.848 . S
C2800 C1061 1.071 . S
C2805 C115 1.847 . S
C2810 C1165 1.408 . S
C2820 C1279 1.140 . S
C2815 C120 1.339 . S
C2825 C87 1.753 . S
C2830 C1403 0.991 . S
C2835 C106 1.376 . S
C2840 C1507 1.152 . S
C2845 C134 1.473 . S
C2850 C1517 0.930 1_565 S
C2855 C143 1.391 . S
C2860 C1289 0.949 1_455 S
C2870 C1393 1.730 . S
C2865 C157 1.863 . S
C2875 C162 1.871 . S
C2880 C1051 1.778 . S
C2885 C129 1.978 . S
C2890 C1175 1.665 . S
C2900 C937 1.858 . S
C2895 C148 2.010 . S
C2910 C1631 0.952 . S
C2905 C176 1.474 . S
C2915 C185 1.379 . S
C2920 C1745 0.932 . S
C2925 C199 1.736 . S
C2930 C1849 1.277 . S
C2940 C1963 1.287 . S
C2935 C204 1.721 . S
C2950 C2087 1.114 . S
C2945 C171 1.860 . S
C2955 C190 1.875 . S
C2960 C2191 1.376 . S
C2965 C218 1.934 . S
C2970 C2201 1.575 . S
C2975 C227 1.967 . S
C2980 C1973 1.642 . S
C2990 C2077 1.826 . S
C2985 C241 1.952 . S
C3000 C1735 1.160 1_655 S
C2995 C246 1.344 . S
C3010 C1859 1.572 . S
C3005 C213 1.883 . S
C3015 C232 1.404 . S
C3020 C1621 1.183 1_545 S
