# Generated by pormake.
# Topology rtl, (3,6)-cn, num edge types: 1
# Building blocks:
#     Node 0, Type 0, BuildingBlock: BELTOD_clean_linker_0, # of connection points: 3
#     Node 1, Type 0, BuildingBlock: BELTOD_clean_linker_0, # of connection points: 3
#     Node 2, Type 0, BuildingBlock: BELTOD_clean_linker_0, # of connection points: 3
#     Node 3, Type 0, BuildingBlock: BELTOD_clean_linker_0, # of connection points: 3
#     Node 4, Type 1, BuildingBlock: KUMBOL_clean_sbu_1, # of connection points: 6
#     Node 5, Type 1, BuildingBlock: KUMBOL_clean_sbu_1, # of connection points: 6
#     Edge 6, Type (0, 1), BuildingBlock: XUDNAN_clean_linker_2, # of connection points: 2
#     Edge 7, Type (0, 1), BuildingBlock: XUDNAN_clean_linker_2, # of connection points: 2
#     Edge 8, Type (0, 1), BuildingBlock: XUDNAN_clean_linker_2, # of connection points: 2
#     Edge 9, Type (0, 1), BuildingBlock: XUDNAN_clean_linker_2, # of connection points: 2
#     Edge 10, Type (0, 1), BuildingBlock: XUDNAN_clean_linker_2, # of connection points: 2
#     Edge 11, Type (0, 1), BuildingBlock: XUDNAN_clean_linker_2, # of connection points: 2
#     Edge 12, Type (0, 1), BuildingBlock: XUDNAN_clean_linker_2, # of connection points: 2
#     Edge 13, Type (0, 1), BuildingBlock: XUDNAN_clean_linker_2, # of connection points: 2
#     Edge 14, Type (0, 1), BuildingBlock: XUDNAN_clean_linker_2, # of connection points: 2
#     Edge 15, Type (0, 1), BuildingBlock: XUDNAN_clean_linker_2, # of connection points: 2
#     Edge 16, Type (0, 1), BuildingBlock: XUDNAN_clean_linker_2, # of connection points: 2
#     Edge 17, Type (0, 1), BuildingBlock: XUDNAN_clean_linker_2, # of connection points: 2
# Relax obj value: 0.019
# Max RMSD: 0.099
# Mean RMSD: 0.063
data_MOF--net-rtl--node1-KUMBOL_clean_sbu_1--node2-BELTOD_clean_linker_0--edge1-XUDNAN_clean_linker_2
_symmetry_space_group_name_H-M    P1
_symmetry_Int_Tables_number       1
_symmetry_cell_setting            triclinic
loop_
_symmetry_equiv_pos_as_xyz
'x, y, z'
_cell_length_a     37.259387
_cell_length_b     37.822113
_cell_length_c     32.691341
_cell_angle_alpha  78.719742
_cell_angle_beta   99.968181
_cell_angle_gamma 90.393866
loop_
_atom_site_label
_atom_site_type_symbol
_atom_site_fract_x
_atom_site_fract_y
_atom_site_fract_z
_atom_type_partial_charge
P0 P 0.25543 0.87751 0.03045 0.0
H1 H 0.27713 0.88422 0.11834 0.0
H2 H 0.24341 0.88286 0.17611 0.0
H3 H 0.1466 0.85314 0.09775 0.0
H4 H 0.18056 0.85588 0.03942 0.0
H5 H 0.31304 0.87023 0.98388 0.0
H6 H 0.34892 0.81897 0.97637 0.0
H7 H 0.29258 0.74798 0.06313 0.0
H8 H 0.25665 0.79993 0.07077 0.0
H9 H 0.21883 0.94655 0.99152 0.0
H10 H 0.22582 0.84185 0.95938 0.0
O11 O 0.2845 0.91057 0.03691 0.0
H12 H 0.18521 0.9705 0.92045 0.0
H13 H 0.1928 0.86582 0.88782 0.0
C14 C 0.23117 0.87084 0.07439 0.0
C15 C 0.2487 0.87716 0.11369 0.0
C16 C 0.22936 0.87609 0.1469 0.0
C17 C 0.19205 0.86821 0.14166 0.0
C18 C 0.17505 0.86007 0.10271 0.0
C19 C 0.19447 0.86136 0.06937 0.0
C20 C 0.28242 0.8389 0.02805 0.0
C21 C 0.30858 0.84369 1.00159 0.0
C22 C 0.32891 0.81432 0.99713 0.0
C23 C 0.32344 0.77937 0.01898 0.0
C24 C 0.29757 0.77463 0.04616 0.0
C25 C 0.27697 0.80423 0.05043 0.0
C26 C 0.22551 0.89269 0.98044 0.0
C27 C 0.21286 0.92864 0.96924 0.0
C28 C 0.19383 0.94233 0.92851 0.0
C29 C 0.18696 0.92025 0.89815 0.0
C30 C 0.19768 0.88356 0.91038 0.0
C31 C 0.21677 0.86987 0.95126 0.0
P32 P 0.7047 0.68265 0.62314 0.0
H33 H 0.71974 0.63261 0.57048 0.0
H34 H 0.68659 0.61724 0.50573 0.0
H35 H 0.60113 0.69456 0.50309 0.0
H36 H 0.63424 0.70939 0.56932 0.0
H37 H 0.77447 0.70846 0.65989 0.0
H38 H 0.80879 0.76207 0.63871 0.0
H39 H 0.71706 0.80534 0.54199 0.0
H40 H 0.68306 0.75148 0.56299 0.0
H41 H 0.63303 0.65202 0.63359 0.0
H42 H 0.71994 0.70132 0.70642 0.0
O43 O 0.73803 0.65134 0.64137 0.0
H44 H 0.60626 0.6321 0.69692 0.0
H45 H 0.69369 0.68023 0.77027 0.0
C46 C 0.6794 0.67201 0.57498 0.0
C47 C 0.69377 0.64616 0.55643 0.0
C48 C 0.67476 0.63729 0.51938 0.0
C49 C 0.64117 0.65448 0.49971 0.0
C50 C 0.62698 0.68094 0.51774 0.0
C51 C 0.64588 0.68943 0.5554 0.0
C52 C 0.72647 0.72543 0.61242 0.0
C53 C 0.76151 0.72966 0.63446 0.0
C54 C 0.78108 0.76049 0.62246 0.0
C55 C 0.76587 0.78779 0.58821 0.0
C56 C 0.72985 0.78445 0.56791 0.0
C57 C 0.71027 0.75361 0.58005 0.0
C58 C 0.67823 0.67891 0.66491 0.0
C59 C 0.64557 0.66002 0.66264 0.0
C60 C 0.63026 0.64845 0.69898 0.0
C61 C 0.64796 0.65465 0.73835 0.0
C62 C 0.67947 0.6753 0.74016 0.0
C63 C 0.69436 0.68749 0.70366 0.0
P64 P 0.83814 0.2168 0.03745 0.0
H65 H 0.8373 0.23148 0.94689 0.0
H66 H 0.83854 0.19295 0.89535 0.0
H67 H 0.83961 0.09863 0.99477 0.0
H68 H 0.83648 0.13755 0.04555 0.0
H69 H 0.81273 0.2925 0.0137 0.0
H70 H 0.75456 0.32191 0.0135 0.0
H71 H 0.70759 0.21769 0.04632 0.0
H72 H 0.76608 0.18828 0.04612 0.0
H73 H 0.89942 0.16735 0.08033 0.0
H74 H 0.80978 0.21908 0.1156 0.0
O75 O 0.86848 0.24846 0.02692 0.0
H76 H 0.9225 0.14219 0.15529 0.0
H77 H 0.83189 0.19344 0.18961 0.0
C78 C 0.83765 0.18739 1.00017 0.0
C79 C 0.83773 0.20247 0.9575 0.0
C80 C 0.83874 0.18034 0.92811 0.0
C81 C 0.83976 0.14254 0.94084 0.0
C82 C 0.83868 0.12757 0.98363 0.0
C83 C 0.83728 0.14982 0.01292 0.0
C84 C 0.79375 0.23819 0.03015 0.0
C85 C 0.78979 0.27589 0.02004 0.0
C86 C 0.75644 0.29272 0.01977 0.0
C87 C 0.72657 0.27211 0.03012 0.0
C88 C 0.73023 0.23425 0.03856 0.0
C89 C 0.76351 0.21743 0.03824 0.0
C90 C 0.85236 0.19442 0.09203 0.0
C91 C 0.88423 0.17261 0.10402 0.0
C92 C 0.89738 0.15821 0.14687 0.0
C93 C 0.87912 0.16589 0.1785 0.0
C94 C 0.8469 0.18731 0.16617 0.0
C95 C 0.83389 0.20167 0.12352 0.0
P96 P 0.36797 0.26986 0.47035 0.0
H97 H 0.36535 0.24807 0.56006 0.0
H98 H 0.37964 0.2787 0.62012 0.0
H99 H 0.41181 0.37236 0.53724 0.0
H100 H 0.39684 0.34202 0.47717 0.0
H101 H 0.33165 0.21207 0.43335 0.0
H102 H 0.2714 0.18631 0.43413 0.0
H103 H 0.24445 0.26449 0.50539 0.0
H104 H 0.30372 0.29123 0.50209 0.0
H105 H 0.43156 0.29262 0.43271 0.0
H106 H 0.31511 0.31032 0.39912 0.0
O107 O 0.39687 0.23461 0.47905 0.0
H108 H 0.43945 0.33177 0.36629 0.0
H109 H 0.32252 0.34834 0.33168 0.0
C110 C 0.37964 0.29283 0.51407 0.0
C111 C 0.37542 0.27523 0.55481 0.0
C112 C 0.38354 0.29272 0.58905 0.0
C113 C 0.39679 0.32789 0.58326 0.0
C114 C 0.40189 0.34515 0.54259 0.0
C115 C 0.39318 0.32783 0.5082 0.0
C116 C 0.32253 0.25286 0.46868 0.0
C117 C 0.31259 0.22374 0.44887 0.0
C118 C 0.27817 0.20889 0.44964 0.0
C119 C 0.25306 0.22284 0.47046 0.0
C120 C 0.26279 0.25306 0.4888 0.0
C121 C 0.29701 0.26816 0.48746 0.0
C122 C 0.37278 0.29818 0.42056 0.0
C123 C 0.40764 0.3046 0.41069 0.0
C124 C 0.41206 0.32684 0.37251 0.0
C125 C 0.38159 0.34302 0.34324 0.0
C126 C 0.34662 0.33663 0.35351 0.0
C127 C 0.34229 0.3146 0.39198 0.0
C128 C 0.94084 0.11976 0.53702 0.0
C129 C 0.88004 0.11527 0.49766 0.0
C130 C 0.913 0.09882 0.52137 0.0
C131 C 0.87606 0.15305 0.48858 0.0
C132 C 0.93646 0.15761 0.52927 0.0
C133 C 0.9042 0.17416 0.50433 0.0
N134 N 0.97164 0.10304 0.56115 0.0
C135 C 0.99823 0.12213 0.58064 0.0
C136 C 0.96437 0.17762 0.54757 0.0
C137 C 0.9952 0.15975 0.57378 0.0
Gd138 Gd 0.03472 0.97385 0.51965 0.0
Gd139 Gd 0.97517 0.0404 0.56873 0.0
N140 N 0.91776 0.06236 0.5304 0.0
C141 C 0.85179 0.09321 0.48452 0.0
C142 C 0.8896 0.04071 0.51968 0.0
C143 C 0.85644 0.05576 0.49608 0.0
H144 H 0.89304 0.01183 0.52844 0.0
H145 H 0.8345 0.03848 0.48685 0.0
H146 H 0.11799 0.00373 0.55114 0.0
H147 H 0.022 0.10824 0.60105 0.0
H148 H 0.17363 0.98231 0.60267 0.0
H149 H 0.82604 0.10481 0.46626 0.0
H150 H 0.85106 0.16617 0.47007 0.0
H151 H 0.97913 0.90255 0.52196 0.0
H152 H 0.96205 0.20676 0.54236 0.0
H153 H 0.01661 0.17493 0.58866 0.0
H154 H 0.14596 0.86254 0.6674 0.0
H155 H 0.90046 0.20324 0.49772 0.0
H156 H 0.02884 0.81728 0.62083 0.0
H157 H 0.97687 0.8417 0.56456 0.0
N158 N 0.02968 0.91481 0.55722 0.0
C159 C 0.0595 0.90113 0.58629 0.0
C160 C 1.00098 0.89334 0.54806 0.0
C161 C 0.02948 0.84459 0.60308 0.0
C162 C 1.00003 0.85832 0.57148 0.0
C163 C 0.06004 0.86572 0.61021 0.0
H164 H 0.09214 0.82505 0.65831 0.0
N165 N 0.08923 0.95596 0.56706 0.0
C166 C 0.0902 0.92215 0.59108 0.0
C167 C 0.1518 0.93061 0.62492 0.0
C168 C 0.12162 0.90855 0.62059 0.0
C169 C 0.11879 0.97728 0.57054 0.0
C170 C 0.15039 0.9651 0.59971 0.0
O171 O 0.95706 0.03884 0.49977 0.0
O172 O 0.00778 0.02327 0.47384 0.0
O173 O 0.07703 0.96866 0.48282 0.0
O174 O 0.02568 0.94267 0.46969 0.0
O175 O 0.96295 0.98164 0.56921 0.0
O176 O 0.9739 0.96789 0.50747 0.0
O177 O 0.03437 0.97197 0.59 0.0
O178 O 0.03327 0.03003 0.59914 0.0
O179 O 0.96605 0.00406 0.62595 0.0
O180 O 0.95549 0.06131 0.61852 0.0
O181 O 0.05761 0.02998 0.51369 0.0
O182 O 0.02632 0.06628 0.54783 0.0
C183 C 0.97699 0.04165 0.46988 0.0
C184 C 0.95299 0.9669 0.53608 0.0
C185 C 0.07747 0.91656 0.45295 0.0
C186 C 0.10184 0.88608 0.40364 0.0
C187 C 0.10844 0.85822 0.47843 0.0
C188 C 0.09017 0.88767 0.48617 0.0
C189 C 0.11425 0.85733 0.43753 0.0
C190 C 0.08339 0.9157 0.41183 0.0
C191 C 0.05812 0.94791 0.4603 0.0
C192 C 0.122 0.87348 0.64473 0.0
C193 C 0.0913 0.85216 0.63962 0.0
H194 H 0.17634 0.92123 0.64747 0.0
C195 C 0.04758 0.99742 0.61015 0.0
C196 C 0.05196 0.06057 0.52596 0.0
C197 C 0.917 0.02229 0.65494 0.0
C198 C 0.87617 0.0269 0.70492 0.0
C199 C 0.85535 1.00078 0.64278 0.0
C200 C 0.88937 0.00603 0.63069 0.0
C201 C 0.8487 0.01112 0.67954 0.0
C202 C 0.91036 0.03266 0.69206 0.0
C203 C 0.95238 0.02942 0.64107 0.0
H204 H 0.11806 0.83593 0.50421 0.0
H205 H 0.086 0.88783 0.51797 0.0
H206 H 0.12803 0.83389 0.43238 0.0
H207 H 0.074 0.93839 0.38638 0.0
H208 H 0.83399 0.98874 0.62353 0.0
H209 H 0.89405 0.99745 0.60237 0.0
H210 H 0.82184 0.0071 0.68778 0.0
H211 H 0.93193 0.04478 0.71103 0.0
C212 C 0.61486 0.54329 0.0393 0.0
C213 C 0.60836 0.60815 0.01521 0.0
C214 C 0.59439 0.57511 0.03339 0.0
C215 C 0.6421 0.60852 1.00151 0.0
C216 C 0.64919 0.5437 0.0266 0.0
C217 C 0.66249 0.57641 0.00728 0.0
N218 N 0.60073 0.51173 0.05651 0.0
C219 C 0.62011 0.47994 0.06381 0.0
C220 C 0.66896 0.5111 0.03329 0.0
C221 C 0.65446 0.47914 0.05227 0.0
Gd222 Gd 0.45856 0.48807 0.99217 0.0
Gd223 Gd 0.5432 0.51569 0.07527 0.0
N224 N 0.56162 0.57396 0.04677 0.0
C225 C 0.58855 0.64004 0.01246 0.0
C226 C 0.5443 0.60539 0.04806 0.0
C227 C 0.5568 0.63869 0.02981 0.0
H228 H 0.52138 0.60539 0.06411 0.0
H229 H 0.54234 0.66337 0.02997 0.0
H230 H 0.48295 0.39828 0.00891 0.0
H231 H 0.6091 0.45529 0.07888 0.0
H232 H 0.46576 0.34131 0.04976 0.0
H233 H 0.59835 0.66593 0.99872 0.0
H234 H 0.65301 0.63363 0.98712 0.0
H235 H 0.39325 0.54821 0.99144 0.0
H236 H 0.69545 0.51032 0.02402 0.0
H237 H 0.66974 0.45391 0.05809 0.0
H238 H 0.35849 0.37179 0.09901 0.0
H239 H 0.68862 0.5772 0.9969 0.0
H240 H 0.31266 0.49392 0.05779 0.0
H241 H 0.3352 0.54982 0.01832 0.0
N242 N 0.40301 0.49213 0.01555 0.0
C243 C 0.39051 0.46077 0.0358 0.0
C244 C 0.38334 0.52374 0.00845 0.0
C245 C 0.33785 0.49301 0.04568 0.0
C246 C 0.35055 0.52467 0.02354 0.0
C247 C 0.35787 0.46057 0.05214 0.0
H248 H 0.32187 0.42771 0.08833 0.0
N249 N 0.44327 0.43028 0.02635 0.0
C250 C 0.41161 0.42923 0.0422 0.0
C251 C 0.42044 0.36501 0.06858 0.0
C252 C 0.39984 0.39666 0.0645 0.0
C253 C 0.46118 0.39879 0.02659 0.0
C254 C 0.45076 0.36597 0.04872 0.0
O255 O 0.55318 0.51087 0.01022 0.0
O256 O 0.4991 0.52605 0.96347 0.0
O257 O 0.44758 0.46 0.93843 0.0
O258 O 0.41645 0.50872 0.93875 0.0
O259 O 0.4914 0.55125 0.05865 0.0
O260 O 0.46892 0.54702 0.98931 0.0
O261 O 0.45086 0.49629 0.05718 0.0
O262 O 0.50426 0.47448 0.09982 0.0
O263 O 0.54837 0.53967 0.13247 0.0
O264 O 0.58407 0.495 0.12944 0.0
O265 O 0.51121 0.45488 0.00395 0.0
O266 O 0.53408 0.45677 0.07375 0.0
C267 C 0.53497 0.52506 0.97255 0.0
C268 C 0.47162 0.56411 0.02102 0.0
C269 C 0.39854 0.48134 0.87781 0.0
C270 C 0.38681 0.45859 0.81191 0.0
C271 C 0.34209 0.49792 0.82796 0.0
C272 C 0.36466 0.49997 0.8661 0.0
C273 C 0.35297 0.47732 0.80104 0.0
C274 C 0.40963 0.46075 0.85045 0.0
C275 C 0.42136 0.48303 0.91901 0.0
C276 C 0.36764 0.3965 0.08141 0.0
C277 C 0.34668 0.42832 0.07515 0.0
H278 H 0.41237 0.3395 0.08558 0.0
C279 C 0.46884 0.47903 0.09349 0.0
C280 C 0.53296 0.44224 0.04017 0.0
C281 C 0.59568 0.51663 0.19487 0.0
C282 C 0.60534 0.53735 0.26212 0.0
C283 C 0.64512 0.49056 0.25132 0.0
C284 C 0.62554 0.49231 0.21066 0.0
C285 C 0.63522 0.51288 0.27688 0.0
C286 C 0.58573 0.53933 0.22072 0.0
C287 C 0.5755 0.51754 0.15159 0.0
H288 H 0.31603 0.51232 0.81925 0.0
H289 H 0.35539 0.51587 0.88666 0.0
H290 H 0.3351 0.47643 0.77138 0.0
H291 H 0.43566 0.44621 0.85926 0.0
H292 H 0.66819 0.4719 0.26303 0.0
H293 H 0.63395 0.47458 0.19154 0.0
H294 H 0.65139 0.51133 0.30812 0.0
H295 H 0.56268 0.55805 0.20895 0.0
H296 H 0.239 0.15033 0.48139 0.0
H297 H 0.18652 0.25501 0.46923 0.0
H298 H 0.12914 0.2251 0.48117 0.0
H299 H 0.16046 0.11036 0.4257 0.0
H300 H 0.17005 0.06652 0.45944 0.0
H301 H 0.20679 0.09639 0.44949 0.0
H302 H 0.22749 0.09132 0.53038 0.0
H303 H 0.1906 0.06176 0.54055 0.0
H304 H 0.19547 0.10243 0.56174 0.0
H305 H 0.07805 0.18321 0.49798 0.0
H306 H 0.03688 0.13296 0.51438 0.0
H307 H 0.12185 0.05678 0.50987 0.0
C308 C 0.21536 0.16718 0.4803 0.0
C309 C 0.21758 0.20516 0.47454 0.0
C310 C 0.18591 0.22588 0.47435 0.0
C311 C 0.15305 0.20915 0.4808 0.0
C312 C 0.15206 0.17169 0.48687 0.0
C313 C 0.18227 0.15101 0.48612 0.0
C314 C 0.17412 0.11122 0.49352 0.0
C315 C 0.17808 0.09519 0.45472 0.0
C316 C 0.19836 0.09048 0.53395 0.0
C317 C 0.13472 0.11271 0.49904 0.0
C318 C 0.12251 0.14777 0.49539 0.0
C319 C 0.08739 0.15565 0.50091 0.0
C320 C 0.06432 0.12689 0.51073 0.0
C321 C 0.07638 0.09071 0.51486 0.0
C322 C 0.11184 0.08385 0.50795 0.0
H323 H 0.35823 0.72204 0.07818 0.0
H324 H 0.33473 0.76631 0.94315 0.0
H325 H 0.37099 0.71686 0.92987 0.0
H326 H 0.45061 0.69333 0.08202 0.0
H327 H 0.44869 0.65227 0.12024 0.0
H328 H 0.4202 0.6907 0.11976 0.0
H329 H 0.3628 0.65177 0.11187 0.0
H330 H 0.39121 0.61319 0.1127 0.0
H331 H 0.3543 0.62745 0.06906 0.0
H332 H 0.40961 0.6637 0.93058 0.0
H333 H 0.4478 0.60832 0.94509 0.0
H334 H 0.44745 0.59734 0.07975 0.0
C335 C 0.36047 0.72105 0.04584 0.0
C336 C 0.34386 0.7482 0.01169 0.0
C337 C 0.34766 0.74615 0.96982 0.0
C338 C 0.36807 0.71809 0.96193 0.0
C339 C 0.38458 0.69216 0.99622 0.0
C340 C 0.38099 0.69317 0.03734 0.0
C341 C 0.40193 0.66182 0.06829 0.0
C342 C 0.43215 0.67536 0.09942 0.0
C343 C 0.37601 0.6371 0.09187 0.0
C344 C 0.41784 0.64322 0.03805 0.0
C345 C 0.40734 0.66126 0.99666 0.0
C346 C 0.41803 0.64929 0.96285 0.0
C347 C 0.43971 0.61778 0.97145 0.0
C348 C 0.45066 0.59854 0.01355 0.0
C349 C 0.4398 0.61168 0.04731 0.0
H350 H 0.8145 0.82696 0.6339 0.0
H351 H 0.76924 0.81643 0.50539 0.0
H352 H 0.81008 0.86331 0.47782 0.0
H353 H 0.82743 0.92412 0.61106 0.0
H354 H 0.86983 0.92116 0.64799 0.0
H355 H 0.83529 0.88848 0.65737 0.0
H356 H 0.88224 0.83694 0.66169 0.0
H357 H 0.9167 0.86963 0.65213 0.0
H358 H 0.90619 0.83737 0.61817 0.0
H359 H 0.85946 0.90753 0.46445 0.0
H360 H 0.91148 0.94859 0.46635 0.0
H361 H 0.92356 0.93129 0.60324 0.0
C362 C 0.81299 0.83469 0.59995 0.0
C363 C 0.78845 0.81813 0.57182 0.0
C364 C 0.78729 0.82915 0.52757 0.0
C365 C 0.81057 0.85559 0.51159 0.0
C366 C 0.83476 0.87097 0.54021 0.0
C367 C 0.83594 0.86115 0.58344 0.0
C368 C 0.86518 0.88111 0.60741 0.0
C369 C 0.84842 0.90516 0.63242 0.0
C370 C 0.89429 0.85468 0.63656 0.0
C371 C 0.88044 0.90343 0.57093 0.0
C372 C 0.86266 0.89707 0.53242 0.0
C373 C 0.87329 0.91308 0.49437 0.0
C374 C 0.9029 0.93621 0.49574 0.0
C375 C 0.92126 0.94327 0.53485 0.0
C376 C 0.90963 0.92683 0.57281 0.0
H377 H 0.6884 0.33056 0.97733 0.0
H378 H 0.68964 0.2552 0.09614 0.0
H379 H 0.63748 0.28848 0.10955 0.0
H380 H 0.66933 0.40834 0.01293 0.0
H381 H 0.63888 0.42999 0.96575 0.0
H382 H 0.67405 0.39888 0.9622 0.0
H383 H 0.62682 0.35965 0.92567 0.0
H384 H 0.59114 0.391 0.92737 0.0
H385 H 0.58827 0.34382 0.94999 0.0
H386 H 0.59009 0.33364 0.11397 0.0
H387 H 0.547 0.38509 0.10603 0.0
H388 H 0.57378 0.42933 0.98271 0.0
C389 C 0.67733 0.32083 0.00587 0.0
C390 C 0.69293 0.29017 0.03562 0.0
C391 C 0.67776 0.27827 0.07264 0.0
C392 C 0.64827 0.29711 0.08062 0.0
C393 C 0.6339 0.32753 0.05101 0.0
C394 C 0.64753 0.33905 0.01406 0.0
C395 C 0.62765 0.37313 0.98799 0.0
C396 C 0.65404 0.40444 0.98186 0.0
C397 C 0.60725 0.36649 0.94522 0.0
C398 C 0.60131 0.37938 0.01653 0.0
C399 C 0.60548 0.35283 0.05281 0.0
C400 C 0.58607 0.35419 0.08534 0.0
C401 C 0.56181 0.38346 0.08067 0.0
C402 C 0.5568 0.41057 0.04352 0.0
C403 C 0.57651 0.40831 0.0109 0.0
H404 H 0.21419 0.84811 0.22831 0.0
H405 H 0.12192 0.89444 0.13279 0.0
H406 H 0.08808 0.90198 0.18914 0.0
H407 H 0.16248 0.80097 0.30579 0.0
H408 H 0.19399 0.81084 0.35028 0.0
H409 H 0.21002 0.80678 0.30244 0.0
H410 H 0.23693 0.87051 0.29789 0.0
H411 H 0.22094 0.87479 0.34565 0.0
H412 H 0.20774 0.9083 0.29796 0.0
H413 H 0.06518 0.90713 0.2561 0.0
H414 H 0.05473 0.90838 0.32836 0.0
H415 H 0.16304 0.8614 0.37988 0.0
C416 C 0.18686 0.85982 0.21909 0.0
C417 C 0.17077 0.87047 0.17586 0.0
C418 C 0.13472 0.88535 0.16552 0.0
C419 C 0.11532 0.89003 0.19736 0.0
C420 C 0.13225 0.87975 0.23952 0.0
C421 C 0.16718 0.86487 0.25044 0.0
C422 C 0.17961 0.85714 0.29806 0.0
C423 C 0.18695 0.81652 0.31514 0.0
C424 C 0.21329 0.879 0.31061 0.0
C425 C 0.14633 0.87031 0.31221 0.0
C426 C 0.11926 0.88313 0.27798 0.0
C427 C 0.08619 0.89713 0.28314 0.0
C428 C 0.08063 0.898 0.32433 0.0
C429 C 0.10803 0.88506 0.35998 0.0
C430 C 0.14128 0.87104 0.35351 0.0
H431 H 0.58099 0.65451 0.76366 0.0
H432 H 0.69084 0.60849 0.80095 0.0
H433 H 0.67301 0.56935 0.86354 0.0
H434 H 0.56717 0.65497 0.87253 0.0
H435 H 0.51964 0.64448 0.86163 0.0
H436 H 0.54115 0.66931 0.81997 0.0
H437 H 0.52062 0.62159 0.77419 0.0
H438 H 0.49955 0.59639 0.816 0.0
H439 H 0.53334 0.5748 0.79512 0.0
H440 H 0.64247 0.53164 0.91772 0.0
H441 H 0.60326 0.50358 0.96768 0.0
H442 H 0.51427 0.57748 0.90069 0.0
C443 C 0.60124 0.63644 0.78539 0.0
C444 C 0.63732 0.6345 0.77778 0.0
C445 C 0.66322 0.61059 0.80665 0.0
C446 C 0.65328 0.58811 0.84203 0.0
C447 C 0.61745 0.59024 0.84842 0.0
C448 C 0.59196 0.61428 0.82155 0.0
C449 C 0.55557 0.61161 0.83673 0.0
C450 C 0.54529 0.64721 0.84841 0.0
C451 C 0.5255 0.60043 0.80352 0.0
C452 C 0.56451 0.58186 0.87577 0.0
C453 C 0.60028 0.56975 0.88151 0.0
C454 C 0.61468 0.54147 0.91417 0.0
C455 C 0.59227 0.52588 0.94257 0.0
C456 C 0.55621 0.53919 0.93897 0.0
C457 C 0.54188 0.56703 0.9045 0.0
H458 H 0.91036 0.09929 0.21913 0.0
H459 H 0.8826 0.20439 0.24151 0.0
H460 H 0.90556 0.18397 0.31776 0.0
H461 H 0.88586 0.04725 0.3135 0.0
H462 H 0.92304 0.01477 0.32304 0.0
H463 H 0.90503 0.03758 0.26975 0.0
H464 H 0.96947 0.05984 0.25985 0.0
H465 H 0.98768 0.03704 0.31311 0.0
H466 H 0.9944 0.08462 0.29689 0.0
H467 H 0.92978 0.15244 0.39138 0.0
H468 H 0.95538 0.11138 0.45837 0.0
H469 H 0.9688 0.02668 0.38982 0.0
C470 C 0.90947 0.1181 0.24003 0.0
C471 C 0.89429 0.15337 0.22428 0.0
C472 C 0.89337 0.17704 0.25282 0.0
C473 C 0.9066 0.16579 0.29619 0.0
C474 C 0.92094 0.13083 0.3107 0.0
C475 C 0.92267 0.10731 0.2836 0.0
C476 C 0.93909 0.07099 0.30783 0.0
C477 C 0.91161 0.04087 0.30325 0.0
C478 C 0.97478 0.06265 0.29357 0.0
C479 C 0.94615 0.07784 0.3527 0.0
C480 C 0.93534 0.11256 0.3535 0.0
C481 C 0.93824 0.12517 0.39117 0.0
C482 C 0.95235 0.10159 0.42911 0.0
C483 C 0.96328 0.06589 0.42918 0.0
C484 C 0.96063 0.05397 0.39046 0.0
H485 H 0.352 0.33456 0.63928 0.0
H486 H 0.45783 0.36467 0.60775 0.0
H487 H 0.46916 0.39776 0.6669 0.0
H488 H 0.3299 0.41827 0.66221 0.0
H489 H 0.30642 0.39915 0.70483 0.0
H490 H 0.30826 0.37546 0.66254 0.0
H491 H 0.33655 0.3192 0.71719 0.0
H492 H 0.33483 0.34278 0.7597 0.0
H493 H 0.37745 0.32355 0.75421 0.0
H494 H 0.46783 0.42905 0.72856 0.0
H495 H 0.452 0.45976 0.78369 0.0
H496 H 0.34639 0.41019 0.77287 0.0
C497 C 0.37781 0.34763 0.64531 0.0
C498 C 0.40422 0.34685 0.61932 0.0
C499 C 0.43728 0.36501 0.6274 0.0
C500 C 0.444 0.38365 0.66102 0.0
C501 C 0.41728 0.38401 0.68601 0.0
C502 C 0.38474 0.36665 0.67833 0.0
C503 C 0.35944 0.37309 0.70784 0.0
C504 C 0.32392 0.39266 0.68286 0.0
C505 C 0.35162 0.33754 0.73643 0.0
C506 C 0.3826 0.39717 0.73302 0.0
C507 C 0.41609 0.40277 0.72046 0.0
C508 C 0.44175 0.42472 0.73876 0.0
C509 C 0.43263 0.44189 0.77014 0.0
C510 C 0.398 0.43734 0.78239 0.0
C511 C 0.37301 0.41426 0.76394 0.0
H512 H 0.62532 0.5871 0.48628 0.0
H513 H 0.61533 0.69956 0.42394 0.0
H514 H 0.59366 0.68159 0.35505 0.0
H515 H 0.6632 0.55651 0.41332 0.0
H516 H 0.64051 0.51406 0.41653 0.0
H517 H 0.64726 0.53587 0.46123 0.0
H518 H 0.57783 0.53501 0.46219 0.0
H519 H 0.57083 0.51286 0.41747 0.0
H520 H 0.54627 0.55436 0.41488 0.0
H521 H 0.58483 0.65067 0.29205 0.0
H522 H 0.58877 0.61015 0.24187 0.0
H523 H 0.60246 0.51814 0.34625 0.0
C524 C 0.61745 0.60792 0.45825 0.0
C525 C 0.62182 0.64464 0.46019 0.0
C526 C 0.61167 0.67127 0.42302 0.0
C527 C 0.59938 0.66128 0.38384 0.0
C528 C 0.59677 0.62462 0.38271 0.0
C529 C 0.60497 0.59839 0.4192 0.0
C530 C 0.60389 0.56094 0.40937 0.0
C531 C 0.64091 0.5407 0.42608 0.0
C532 C 0.57284 0.53954 0.42702 0.0
C533 C 0.596 0.57013 0.36153 0.0
C534 C 0.59126 0.6069 0.34657 0.0
C535 C 0.58754 0.62178 0.3034 0.0
C536 C 0.58972 0.59858 0.27508 0.0
C537 C 0.59595 0.56103 0.2902 0.0
C538 C 0.59772 0.54675 0.33377 0.0
H539 H 0.87781 0.15396 0.87431 0.0
H540 H 0.80673 0.07775 0.93614 0.0
H541 H 0.81074 0.03882 0.88468 0.0
H542 H 0.83869 0.14631 0.7682 0.0
H543 H 0.88155 0.15069 0.74945 0.0
H544 H 0.87458 0.17165 0.79251 0.0
H545 H 0.93214 0.13779 0.83933 0.0
H546 H 0.93916 0.11656 0.79647 0.0
H547 H 0.93547 0.08931 0.8473 0.0
H548 H 0.82185 0.00845 0.82599 0.0
H549 H 0.83733 0.98985 0.76284 0.0
H550 H 0.89817 0.08762 0.73663 0.0
C551 C 0.86281 0.12925 0.87698 0.0
C552 C 0.84207 0.11897 0.90965 0.0
C553 C 0.82337 0.08604 0.91207 0.0
C554 C 0.82529 0.06379 0.88278 0.0
C555 C 0.84591 0.07483 0.85106 0.0
C556 C 0.86418 0.10687 0.84783 0.0
C557 C 0.88356 0.11301 0.81 0.0
C558 C 0.86869 0.14745 0.77816 0.0
C559 C 0.92504 0.11423 0.82414 0.0
C560 C 0.87316 0.07949 0.79229 0.0
C561 C 0.85163 0.05773 0.81663 0.0
C562 C 0.83853 0.02537 0.80657 0.0
C563 C 0.8473 0.01516 0.77043 0.0
C564 C 0.86876 0.03734 0.74441 0.0
C565 C 0.88205 0.06981 0.75594 0.0
H566 H 0.43141 0.33471 0.29242 0.0
H567 H 0.34341 0.40565 0.30212 0.0
H568 H 0.3535 0.4463 0.23649 0.0
H569 H 0.49063 0.40322 0.26051 0.0
H570 H 0.5085 0.38023 0.22466 0.0
H571 H 0.49176 0.35462 0.2696 0.0
H572 H 0.4472 0.32218 0.21967 0.0
H573 H 0.46396 0.34772 0.17457 0.0
H574 H 0.41594 0.34867 0.1764 0.0
H575 H 0.37513 0.48081 0.17115 0.0
H576 H 0.40834 0.50717 0.11341 0.0
H577 H 0.48409 0.4154 0.14943 0.0
C578 C 0.41418 0.35876 0.28087 0.0
C579 C 0.3865 0.3668 0.30258 0.0
C580 C 0.36436 0.39844 0.28582 0.0
C581 C 0.36999 0.42183 0.2486 0.0
C582 C 0.39785 0.41328 0.22844 0.0
C583 C 0.41957 0.38248 0.24401 0.0
C584 C 0.44894 0.38039 0.21775 0.0
C585 C 0.48721 0.37958 0.24475 0.0
C586 C 0.44368 0.3478 0.19581 0.0
C587 C 0.44112 0.4154 0.18586 0.0
C588 C 0.41108 0.43368 0.19193 0.0
C589 C 0.39866 0.4667 0.16614 0.0
C590 C 0.41763 0.48146 0.13352 0.0
C591 C 0.44879 0.46335 0.12743 0.0
C592 C 0.46056 0.42994 0.15388 0.0
H593 H 0.13422 0.89243 0.84329 0.0
H594 H 0.20413 0.98403 0.85142 0.0
H595 H 0.17842 0.01142 0.77751 0.0
H596 H 0.13897 0.8883 0.73374 0.0
H597 H 0.09177 0.87659 0.7217 0.0
H598 H 0.11675 0.86361 0.77487 0.0
H599 H 0.06729 0.89605 0.80214 0.0
H600 H 0.04266 0.90927 0.74881 0.0
H601 H 0.05622 0.94301 0.78005 0.0
H602 H 0.14366 0.03055 0.70464 0.0
H603 H 0.10099 0.04061 0.63645 0.0
H604 H 0.05472 0.93601 0.67279 0.0
C605 C 0.14433 0.91808 0.82935 0.0
C606 C 0.17106 0.93618 0.85335 0.0
C607 C 0.18326 0.96991 0.83402 0.0
C608 C 0.16906 0.98557 0.79189 0.0
C609 C 0.14271 0.96717 0.76925 0.0
C610 C 0.13035 0.93422 0.78716 0.0
C611 C 0.10085 0.92089 0.75598 0.0
C612 C 0.11283 0.88523 0.74595 0.0
C613 C 0.06461 0.91709 0.77276 0.0
C614 C 0.09857 0.95156 0.71785 0.0
C615 C 0.12301 0.97795 0.72639 0.0
C616 C 0.12467 0.00995 0.69737 0.0
C617 C 0.1003 0.01547 0.65884 0.0
C618 C 0.07487 0.98902 0.64943 0.0
C619 C 0.07438 0.95638 0.67902 0.0
loop_
_geom_bond_atom_site_label_1
_geom_bond_atom_site_label_2
_geom_bond_distance
_geom_bond_site_symmetry_2
_ccdc_geom_bond_type
P0 O11 1.490 . S
P0 C14 1.812 . S
P0 C20 1.803 . S
P0 C26 1.819 1_554 S
H1 C15 0.941 . S
H2 C16 0.939 . S
H3 C18 0.940 . S
H4 C19 0.940 . S
H5 C21 0.939 . S
H6 C22 0.942 . S
H7 C24 0.940 . S
H8 C25 0.939 . S
H9 C27 0.941 . S
H10 C31 0.939 . S
O11 P0 1.490 . S
H12 C28 0.939 . S
H13 C30 0.940 . S
C14 P0 1.812 . S
C14 C15 1.389 . S
C14 C19 1.391 . S
C15 H1 0.941 . S
C15 C14 1.389 . S
C15 C16 1.397 . S
C16 H2 0.939 . S
C16 C15 1.397 . S
C16 C17 1.378 . S
C17 C16 1.378 . S
C17 C18 1.378 . S
C18 H3 0.940 . S
C18 C17 1.378 . S
C18 C19 1.396 . S
C19 H4 0.940 . S
C19 C14 1.391 . S
C19 C18 1.396 . S
C20 P0 1.803 . S
C20 C21 1.378 . S
C20 C25 1.400 . S
C21 H5 0.939 . S
C21 C20 1.378 . S
C21 C22 1.361 . S
C22 H6 0.942 . S
C22 C21 1.361 . S
C22 C23 1.369 . S
C23 C22 1.369 . S
C23 C24 1.404 . S
C24 H7 0.940 . S
C24 C23 1.404 . S
C24 C25 1.389 . S
C25 H8 0.939 . S
C25 C20 1.400 . S
C25 C24 1.389 . S
C26 P0 1.819 1_556 S
C26 C27 1.391 . S
C26 C31 1.391 . S
C27 H9 0.941 . S
C27 C26 1.391 . S
C27 C28 1.396 . S
C28 H12 0.939 . S
C28 C27 1.396 . S
C28 C29 1.397 . S
C29 C28 1.397 . S
C29 C30 1.385 . S
C30 H13 0.940 . S
C30 C29 1.385 . S
C30 C31 1.388 . S
C31 H10 0.939 . S
C31 C26 1.391 . S
C31 C30 1.388 . S
P32 O43 1.490 . S
P32 C46 1.812 . S
P32 C52 1.803 . S
P32 C58 1.819 . S
H33 C47 0.941 . S
H34 C48 0.939 . S
H35 C50 0.940 . S
H36 C51 0.940 . S
H37 C53 0.939 . S
H38 C54 0.942 . S
H39 C56 0.940 . S
H40 C57 0.939 . S
H41 C59 0.941 . S
H42 C63 0.939 . S
O43 P32 1.490 . S
H44 C60 0.939 . S
H45 C62 0.940 . S
C46 P32 1.812 . S
C46 C47 1.389 . S
C46 C51 1.391 . S
C47 H33 0.941 . S
C47 C46 1.389 . S
C47 C48 1.397 . S
C48 H34 0.939 . S
C48 C47 1.397 . S
C48 C49 1.378 . S
C49 C48 1.378 . S
C49 C50 1.378 . S
C50 H35 0.940 . S
C50 C49 1.378 . S
C50 C51 1.396 . S
C51 H36 0.940 . S
C51 C46 1.391 . S
C51 C50 1.396 . S
C52 P32 1.803 . S
C52 C53 1.378 . S
C52 C57 1.400 . S
C53 H37 0.939 . S
C53 C52 1.378 . S
C53 C54 1.361 . S
C54 H38 0.942 . S
C54 C53 1.361 . S
C54 C55 1.369 . S
C55 C54 1.369 . S
C55 C56 1.404 . S
C56 H39 0.940 . S
C56 C55 1.404 . S
C56 C57 1.389 . S
C57 H40 0.939 . S
C57 C52 1.400 . S
C57 C56 1.389 . S
C58 P32 1.819 . S
C58 C59 1.391 . S
C58 C63 1.391 . S
C59 H41 0.941 . S
C59 C58 1.391 . S
C59 C60 1.396 . S
C60 H44 0.939 . S
C60 C59 1.396 . S
C60 C61 1.397 . S
C61 C60 1.397 . S
C61 C62 1.385 . S
C62 H45 0.940 . S
C62 C61 1.385 . S
C62 C63 1.388 . S
C63 H42 0.939 . S
C63 C58 1.391 . S
C63 C62 1.388 . S
P64 O75 1.490 . S
P64 C78 1.812 . S
P64 C84 1.803 . S
P64 C90 1.819 . S
H65 C79 0.941 . S
H66 C80 0.939 . S
H67 C82 0.940 . S
H68 C83 0.940 . S
H69 C85 0.939 . S
H70 C86 0.942 . S
H71 C88 0.940 . S
H72 C89 0.939 . S
H73 C91 0.941 . S
H74 C95 0.939 . S
O75 P64 1.490 . S
H76 C92 0.939 . S
H77 C94 0.940 . S
C78 P64 1.812 . S
C78 C79 1.389 1_554 S
C78 C83 1.391 . S
C79 H65 0.941 . S
C79 C78 1.389 1_556 S
C79 C80 1.397 . S
C80 H66 0.939 . S
C80 C79 1.397 . S
C80 C81 1.378 . S
C81 C80 1.378 . S
C81 C82 1.378 . S
C82 H67 0.940 . S
C82 C81 1.378 . S
C82 C83 1.396 1_556 S
C83 H68 0.940 . S
C83 C78 1.391 . S
C83 C82 1.396 1_554 S
C84 P64 1.803 . S
C84 C85 1.378 . S
C84 C89 1.400 . S
C85 H69 0.939 . S
C85 C84 1.378 . S
C85 C86 1.361 . S
C86 H70 0.942 . S
C86 C85 1.361 . S
C86 C87 1.369 . S
C87 C86 1.369 . S
C87 C88 1.404 . S
C88 H71 0.940 . S
C88 C87 1.404 . S
C88 C89 1.389 . S
C89 H72 0.939 . S
C89 C84 1.400 . S
C89 C88 1.389 . S
C90 P64 1.819 . S
C90 C91 1.391 . S
C90 C95 1.391 . S
C91 H73 0.941 . S
C91 C90 1.391 . S
C91 C92 1.396 . S
C92 H76 0.939 . S
C92 C91 1.396 . S
C92 C93 1.397 . S
C93 C92 1.397 . S
C93 C94 1.385 . S
C94 H77 0.940 . S
C94 C93 1.385 . S
C94 C95 1.388 . S
C95 H74 0.939 . S
C95 C90 1.391 . S
C95 C94 1.388 . S
P96 O107 1.490 . S
P96 C110 1.812 . S
P96 C116 1.803 . S
P96 C122 1.819 . S
H97 C111 0.941 . S
H98 C112 0.939 . S
H99 C114 0.940 . S
H100 C115 0.940 . S
H101 C117 0.939 . S
H102 C118 0.942 . S
H103 C120 0.940 . S
H104 C121 0.939 . S
H105 C123 0.941 . S
H106 C127 0.939 . S
O107 P96 1.490 . S
H108 C124 0.939 . S
H109 C126 0.940 . S
C110 P96 1.812 . S
C110 C111 1.389 . S
C110 C115 1.391 . S
C111 H97 0.941 . S
C111 C110 1.389 . S
C111 C112 1.397 . S
C112 H98 0.939 . S
C112 C111 1.397 . S
C112 C113 1.378 . S
C113 C112 1.378 . S
C113 C114 1.378 . S
C114 H99 0.940 . S
C114 C113 1.378 . S
C114 C115 1.396 . S
C115 H100 0.940 . S
C115 C110 1.391 . S
C115 C114 1.396 . S
C116 P96 1.803 . S
C116 C117 1.378 . S
C116 C121 1.400 . S
C117 H101 0.939 . S
C117 C116 1.378 . S
C117 C118 1.361 . S
C118 H102 0.942 . S
C118 C117 1.361 . S
C118 C119 1.369 . S
C119 C118 1.369 . S
C119 C120 1.404 . S
C120 H103 0.940 . S
C120 C119 1.404 . S
C120 C121 1.389 . S
C121 H104 0.939 . S
C121 C116 1.400 . S
C121 C120 1.389 . S
C122 P96 1.819 . S
C122 C123 1.391 . S
C122 C127 1.391 . S
C123 H105 0.941 . S
C123 C122 1.391 . S
C123 C124 1.396 . S
C124 H108 0.939 . S
C124 C123 1.396 . S
C124 C125 1.397 . S
C125 C124 1.397 . S
C125 C126 1.385 . S
C126 H109 0.940 . S
C126 C125 1.385 . S
C126 C127 1.388 . S
C127 H106 0.939 . S
C127 C122 1.391 . S
C127 C126 1.388 . S
C128 C130 1.422 . S
C128 C132 1.415 . S
C128 N134 1.369 . S
C129 C130 1.421 . S
C129 C131 1.417 . S
C129 C141 1.422 . S
C130 C128 1.422 . S
C130 C129 1.421 . S
C130 N140 1.359 . S
C131 C129 1.417 . S
C131 C133 1.329 . S
C131 H150 0.930 . S
C132 C128 1.415 . S
C132 C133 1.437 . S
C132 C136 1.413 . S
C133 C131 1.329 . S
C133 C132 1.437 . S
C133 H155 0.929 . S
N134 C128 1.369 . S
N134 C135 1.318 1_655 S
N134 Gd139 2.622 . S
C135 N134 1.318 1_455 S
C135 C137 1.378 1_455 S
C135 H147 0.950 . S
C136 C132 1.413 . S
C136 C137 1.348 . S
C136 H152 0.931 . S
C137 C135 1.378 1_655 S
C137 C136 1.348 . S
C137 H153 0.930 1_655 S
Gd138 N158 2.622 . S
Gd138 N165 2.570 . S
Gd138 O172 2.346 1_465 S
Gd138 O173 2.468 . S
Gd138 O174 2.427 . S
Gd138 O176 2.388 1_455 S
Gd138 O177 2.386 . S
Gd138 O181 2.307 1_565 S
Gd138 C191 2.805 . S
Gd139 N134 2.622 . S
Gd139 N140 2.570 . S
Gd139 O171 2.386 . S
Gd139 O175 2.307 1_545 S
Gd139 O178 2.353 1_655 S
Gd139 O179 2.468 . S
Gd139 O180 2.427 . S
Gd139 O182 2.388 1_655 S
Gd139 C203 2.805 . S
N140 C130 1.359 . S
N140 Gd139 2.570 . S
N140 C142 1.343 . S
C141 C129 1.422 . S
C141 C143 1.321 . S
C141 H149 0.931 . S
C142 N140 1.343 . S
C142 C143 1.390 . S
C142 H144 0.931 . S
C143 C141 1.321 . S
C143 C142 1.390 . S
C143 H145 0.930 . S
H144 C142 0.931 . S
H145 C143 0.930 . S
H146 C169 0.931 . S
H147 C135 0.950 . S
H148 C170 0.930 . S
H149 C141 0.931 . S
H150 C131 0.930 . S
H151 C160 0.929 1_655 S
H152 C136 0.931 . S
H153 C137 0.930 1_455 S
H154 C192 0.930 . S
H155 C133 0.929 . S
H156 C161 0.931 . S
H157 C162 0.930 1_655 S
N158 Gd138 2.622 . S
N158 C159 1.369 . S
N158 C160 1.338 . S
C159 N158 1.369 . S
C159 C163 1.415 . S
C159 C166 1.422 . S
C160 H151 0.929 1_455 S
C160 N158 1.338 . S
C160 C162 1.378 . S
C161 H156 0.931 . S
C161 C162 1.348 . S
C161 C163 1.413 . S
C162 H157 0.930 1_455 S
C162 C160 1.378 . S
C162 C161 1.348 . S
C163 C159 1.415 . S
C163 C161 1.413 . S
C163 C193 1.437 . S
H164 C193 0.929 . S
N165 Gd138 2.570 . S
N165 C166 1.359 . S
N165 C169 1.343 . S
C166 C159 1.422 . S
C166 N165 1.359 . S
C166 C168 1.421 . S
C167 C168 1.422 . S
C167 C170 1.321 . S
C167 H194 0.931 . S
C168 C166 1.421 . S
C168 C167 1.422 . S
C168 C192 1.417 . S
C169 H146 0.931 . S
C169 N165 1.343 . S
C169 C170 1.390 . S
C170 H148 0.930 . S
C170 C167 1.321 . S
C170 C169 1.390 . S
O171 Gd139 2.386 . S
O171 C183 1.265 . S
O172 Gd138 2.346 1_645 S
O172 C183 1.253 . S
O173 Gd138 2.468 . S
O173 C191 1.263 . S
O174 Gd138 2.427 . S
O174 C191 1.252 . S
O175 Gd139 2.307 1_565 S
O175 C184 1.261 . S
O176 Gd138 2.388 1_655 S
O176 C184 1.252 . S
O177 Gd138 2.386 . S
O177 C195 1.265 . S
O178 Gd139 2.353 1_455 S
O178 C195 1.242 1_545 S
O179 Gd139 2.468 . S
O179 C203 1.263 . S
O180 Gd139 2.427 . S
O180 C203 1.252 . S
O181 Gd138 2.307 1_545 S
O181 C196 1.261 . S
O182 Gd139 2.388 1_455 S
O182 C196 1.252 . S
C183 O171 1.265 . S
C183 O172 1.253 . S
C184 O175 1.261 . S
C184 O176 1.252 . S
C185 C188 1.394 . S
C185 C190 1.370 . S
C185 C191 1.500 . S
C186 C189 1.383 . S
C186 C190 1.395 . S
C187 C188 1.396 . S
C187 C189 1.365 . S
C187 H204 0.929 . S
C188 C185 1.394 . S
C188 C187 1.396 . S
C188 H205 0.930 . S
C189 C186 1.383 . S
C189 C187 1.365 . S
C189 H206 0.931 . S
C190 C185 1.370 . S
C190 C186 1.395 . S
C190 H207 0.930 . S
C191 Gd138 2.805 . S
C191 O173 1.263 . S
C191 O174 1.252 . S
C191 C185 1.500 . S
C192 H154 0.930 . S
C192 C168 1.417 . S
C192 C193 1.329 . S
C193 C163 1.437 . S
C193 H164 0.929 . S
C193 C192 1.329 . S
H194 C167 0.931 . S
C195 O177 1.265 . S
C195 O178 1.242 1_565 S
C196 O181 1.261 . S
C196 O182 1.252 . S
C197 C200 1.394 . S
C197 C202 1.370 . S
C197 C203 1.500 . S
C198 C201 1.383 . S
C198 C202 1.395 . S
C199 C200 1.396 . S
C199 C201 1.365 . S
C199 H208 0.929 . S
C200 C197 1.394 . S
C200 C199 1.396 . S
C200 H209 0.930 . S
C201 C198 1.383 . S
C201 C199 1.365 . S
C201 H210 0.931 . S
C202 C197 1.370 . S
C202 C198 1.395 . S
C202 H211 0.930 . S
C203 Gd139 2.805 . S
C203 O179 1.263 . S
C203 O180 1.252 . S
C203 C197 1.500 . S
H204 C187 0.929 . S
H205 C188 0.930 . S
H206 C189 0.931 . S
H207 C190 0.930 . S
H208 C199 0.929 . S
H209 C200 0.930 . S
H210 C201 0.931 . S
H211 C202 0.930 . S
C212 C214 1.422 . S
C212 C216 1.415 . S
C212 N218 1.369 . S
C213 C214 1.421 . S
C213 C215 1.417 . S
C213 C225 1.422 . S
C214 C212 1.422 . S
C214 C213 1.421 . S
C214 N224 1.359 . S
C215 C213 1.417 . S
C215 C217 1.329 . S
C215 H234 0.930 . S
C216 C212 1.415 . S
C216 C217 1.437 . S
C216 C220 1.413 . S
C217 C215 1.329 . S
C217 C216 1.437 . S
C217 H239 0.929 . S
N218 C212 1.369 . S
N218 C219 1.338 . S
N218 Gd223 2.622 . S
C219 N218 1.338 . S
C219 C221 1.378 . S
C219 H231 0.929 . S
C220 C216 1.413 . S
C220 C221 1.348 . S
C220 H236 0.931 . S
C221 C219 1.378 . S
C221 C220 1.348 . S
C221 H237 0.930 . S
Gd222 N242 2.622 . S
Gd222 N249 2.570 1_556 S
Gd222 O256 2.353 . S
Gd222 O257 2.468 . S
Gd222 O258 2.427 . S
Gd222 O260 2.386 1_556 S
Gd222 O261 2.386 1_556 S
Gd222 O265 2.307 1_556 S
Gd222 C275 2.805 . S
Gd223 N218 2.622 . S
Gd223 N224 2.570 . S
Gd223 O255 2.373 1_554 S
Gd223 O259 2.307 . S
Gd223 O262 2.353 . S
Gd223 O263 2.468 . S
Gd223 O264 2.427 . S
Gd223 O266 2.388 . S
Gd223 C287 2.805 . S
N224 C214 1.359 . S
N224 Gd223 2.570 . S
N224 C226 1.343 . S
C225 C213 1.422 . S
C225 C227 1.321 . S
C225 H233 0.931 . S
C226 N224 1.343 . S
C226 C227 1.390 . S
C226 H228 0.931 . S
C227 C225 1.321 . S
C227 C226 1.390 . S
C227 H229 0.930 . S
H228 C226 0.931 . S
H229 C227 0.930 . S
H230 C253 0.931 . S
H231 C219 0.929 . S
H232 C254 0.930 . S
H233 C225 0.931 . S
H234 C215 0.930 . S
H235 C244 0.929 . S
H236 C220 0.931 . S
H237 C221 0.930 . S
H238 C276 0.930 . S
H239 C217 0.929 . S
H240 C245 0.931 . S
H241 C246 0.930 . S
N242 Gd222 2.622 . S
N242 C243 1.369 1_556 S
N242 C244 1.338 . S
C243 N242 1.369 1_554 S
C243 C247 1.415 . S
C243 C250 1.422 . S
C244 H235 0.929 . S
C244 N242 1.338 . S
C244 C246 1.378 . S
C245 H240 0.931 . S
C245 C246 1.348 1_554 S
C245 C247 1.413 . S
C246 H241 0.930 . S
C246 C244 1.378 . S
C246 C245 1.348 1_556 S
C247 C243 1.415 . S
C247 C245 1.413 . S
C247 C277 1.437 . S
H248 C277 0.929 . S
N249 Gd222 2.570 1_554 S
N249 C250 1.359 . S
N249 C253 1.343 . S
C250 C243 1.422 . S
C250 N249 1.359 . S
C250 C252 1.421 . S
C251 C252 1.422 . S
C251 C254 1.321 . S
C251 H278 0.931 . S
C252 C250 1.421 . S
C252 C251 1.422 . S
C252 C276 1.417 . S
C253 H230 0.931 . S
C253 N249 1.343 . S
C253 C254 1.390 . S
C254 H232 0.930 . S
C254 C251 1.321 . S
C254 C253 1.390 . S
O255 Gd223 2.373 1_556 S
O255 C267 1.275 . S
O256 Gd222 2.353 . S
O256 C267 1.242 . S
O257 Gd222 2.468 . S
O257 C275 1.263 . S
O258 Gd222 2.427 . S
O258 C275 1.252 . S
O259 Gd223 2.307 . S
O259 C268 1.261 . S
O260 Gd222 2.386 1_554 S
O260 C268 1.255 . S
O261 Gd222 2.386 1_554 S
O261 C279 1.265 . S
O262 Gd223 2.353 . S
O262 C279 1.242 . S
O263 Gd223 2.468 . S
O263 C287 1.263 . S
O264 Gd223 2.427 . S
O264 C287 1.252 . S
O265 Gd222 2.307 1_554 S
O265 C280 1.261 . S
O266 Gd223 2.388 . S
O266 C280 1.252 . S
C267 O255 1.275 . S
C267 O256 1.242 . S
C268 O259 1.261 . S
C268 O260 1.255 . S
C269 C272 1.394 . S
C269 C274 1.370 . S
C269 C275 1.500 . S
C270 C273 1.383 . S
C270 C274 1.395 . S
C271 C272 1.396 . S
C271 C273 1.365 . S
C271 H288 0.929 . S
C272 C269 1.394 . S
C272 C271 1.396 . S
C272 H289 0.930 . S
C273 C270 1.383 . S
C273 C271 1.365 . S
C273 H290 0.931 . S
C274 C269 1.370 . S
C274 C270 1.395 . S
C274 H291 0.930 . S
C275 Gd222 2.805 . S
C275 O257 1.263 . S
C275 O258 1.252 . S
C275 C269 1.500 . S
C276 H238 0.930 . S
C276 C252 1.417 . S
C276 C277 1.329 . S
C277 C247 1.437 . S
C277 H248 0.929 . S
C277 C276 1.329 . S
H278 C251 0.931 . S
C279 O261 1.265 . S
C279 O262 1.242 . S
C280 O265 1.261 . S
C280 O266 1.252 . S
C281 C284 1.394 . S
C281 C286 1.370 . S
C281 C287 1.500 . S
C282 C285 1.383 . S
C282 C286 1.395 . S
C283 C284 1.396 . S
C283 C285 1.365 . S
C283 H292 0.929 . S
C284 C281 1.394 . S
C284 C283 1.396 . S
C284 H293 0.930 . S
C285 C282 1.383 . S
C285 C283 1.365 . S
C285 H294 0.931 . S
C286 C281 1.370 . S
C286 C282 1.395 . S
C286 H295 0.930 . S
C287 Gd223 2.805 . S
C287 O263 1.263 . S
C287 O264 1.252 . S
C287 C281 1.500 . S
H288 C271 0.929 . S
H289 C272 0.930 . S
H290 C273 0.931 . S
H291 C274 0.930 . S
H292 C283 0.929 . S
H293 C284 0.930 . S
H294 C285 0.931 . S
H295 C286 0.930 . S
H296 C308 0.930 . S
H297 C310 0.930 . S
H298 C311 0.930 . S
H299 C315 0.959 . S
H300 C315 0.959 . S
H301 C315 0.961 . S
H302 C316 0.960 . S
H303 C316 0.961 . S
H304 C316 0.959 . S
H305 C319 0.929 . S
H306 C320 0.931 . S
H307 C322 0.930 . S
C308 H296 0.930 . S
C308 C309 1.399 . S
C308 C313 1.399 . S
C309 C308 1.399 . S
C309 C310 1.376 . S
C310 H297 0.930 . S
C310 C309 1.376 . S
C310 C311 1.388 . S
C311 H298 0.930 . S
C311 C310 1.388 . S
C311 C312 1.390 . S
C312 C311 1.390 . S
C312 C313 1.394 . S
C312 C318 1.465 . S
C313 C308 1.399 . S
C313 C312 1.394 . S
C313 C314 1.516 . S
C314 C313 1.516 . S
C314 C315 1.502 . S
C314 C316 1.561 . S
C314 C317 1.526 . S
C315 H299 0.959 . S
C315 H300 0.959 . S
C315 H301 0.961 . S
C315 C314 1.502 . S
C316 H302 0.960 . S
C316 H303 0.961 . S
C316 H304 0.959 . S
C316 C314 1.561 . S
C317 C314 1.526 . S
C317 C318 1.396 . S
C317 C322 1.390 . S
C318 C312 1.465 . S
C318 C317 1.396 . S
C318 C319 1.399 . S
C319 H305 0.929 . S
C319 C318 1.399 . S
C319 C320 1.385 . S
C320 H306 0.931 . S
C320 C319 1.385 . S
C320 C321 1.389 . S
C321 C320 1.389 . S
C321 C322 1.387 . S
C322 H307 0.930 . S
C322 C317 1.390 . S
C322 C321 1.387 . S
H323 C335 0.930 . S
H324 C337 0.930 . S
H325 C338 0.930 . S
H326 C342 0.959 . S
H327 C342 0.959 . S
H328 C342 0.961 . S
H329 C343 0.960 . S
H330 C343 0.961 . S
H331 C343 0.959 . S
H332 C346 0.929 . S
H333 C347 0.931 . S
H334 C349 0.930 . S
C335 H323 0.930 . S
C335 C336 1.399 . S
C335 C340 1.399 . S
C336 C335 1.399 . S
C336 C337 1.376 1_554 S
C337 H324 0.930 . S
C337 C336 1.376 1_556 S
C337 C338 1.388 . S
C338 H325 0.930 . S
C338 C337 1.388 . S
C338 C339 1.390 1_556 S
C339 C338 1.390 1_554 S
C339 C340 1.394 . S
C339 C345 1.465 . S
C340 C335 1.399 . S
C340 C339 1.394 . S
C340 C341 1.516 . S
C341 C340 1.516 . S
C341 C342 1.502 . S
C341 C343 1.561 . S
C341 C344 1.526 . S
C342 H326 0.959 . S
C342 H327 0.959 . S
C342 H328 0.961 . S
C342 C341 1.502 . S
C343 H329 0.960 . S
C343 H330 0.961 . S
C343 H331 0.959 . S
C343 C341 1.561 . S
C344 C341 1.526 . S
C344 C345 1.396 . S
C344 C349 1.390 . S
C345 C339 1.465 . S
C345 C344 1.396 . S
C345 C346 1.399 1_554 S
C346 H332 0.929 . S
C346 C345 1.399 1_556 S
C346 C347 1.385 . S
C347 H333 0.931 . S
C347 C346 1.385 . S
C347 C348 1.389 1_556 S
C348 C347 1.389 1_554 S
C348 C349 1.387 . S
C349 H334 0.930 . S
C349 C344 1.390 . S
C349 C348 1.387 . S
H350 C362 0.930 . S
H351 C364 0.930 . S
H352 C365 0.930 . S
H353 C369 0.959 . S
H354 C369 0.959 . S
H355 C369 0.961 . S
H356 C370 0.960 . S
H357 C370 0.961 . S
H358 C370 0.959 . S
H359 C373 0.929 . S
H360 C374 0.931 . S
H361 C376 0.930 . S
C362 H350 0.930 . S
C362 C363 1.399 . S
C362 C367 1.399 . S
C363 C362 1.399 . S
C363 C364 1.376 . S
C364 H351 0.930 . S
C364 C363 1.376 . S
C364 C365 1.388 . S
C365 H352 0.930 . S
C365 C364 1.388 . S
C365 C366 1.390 . S
C366 C365 1.390 . S
C366 C367 1.394 . S
C366 C372 1.465 . S
C367 C362 1.399 . S
C367 C366 1.394 . S
C367 C368 1.516 . S
C368 C367 1.516 . S
C368 C369 1.502 . S
C368 C370 1.561 . S
C368 C371 1.526 . S
C369 H353 0.959 . S
C369 H354 0.959 . S
C369 H355 0.961 . S
C369 C368 1.502 . S
C370 H356 0.960 . S
C370 H357 0.961 . S
C370 H358 0.959 . S
C370 C368 1.561 . S
C371 C368 1.526 . S
C371 C372 1.396 . S
C371 C376 1.390 . S
C372 C366 1.465 . S
C372 C371 1.396 . S
C372 C373 1.399 . S
C373 H359 0.929 . S
C373 C372 1.399 . S
C373 C374 1.385 . S
C374 H360 0.931 . S
C374 C373 1.385 . S
C374 C375 1.389 . S
C375 C374 1.389 . S
C375 C376 1.387 . S
C376 H361 0.930 . S
C376 C371 1.390 . S
C376 C375 1.387 . S
H377 C389 0.930 1_556 S
H378 C391 0.930 . S
H379 C392 0.930 . S
H380 C396 0.959 . S
H381 C396 0.959 1_556 S
H382 C396 0.961 1_556 S
H383 C397 0.960 . S
H384 C397 0.961 . S
H385 C397 0.959 . S
H386 C400 0.929 . S
H387 C401 0.931 . S
H388 C403 0.930 1_556 S
C389 H377 0.930 1_554 S
C389 C390 1.399 . S
C389 C394 1.399 . S
C390 C389 1.399 . S
C390 C391 1.376 . S
C391 H378 0.930 . S
C391 C390 1.376 . S
C391 C392 1.388 . S
C392 H379 0.930 . S
C392 C391 1.388 . S
C392 C393 1.390 . S
C393 C392 1.390 . S
C393 C394 1.394 . S
C393 C399 1.465 . S
C394 C389 1.399 . S
C394 C393 1.394 . S
C394 C395 1.516 1_554 S
C395 C394 1.516 1_556 S
C395 C396 1.502 1_556 S
C395 C397 1.561 . S
C395 C398 1.526 1_556 S
C396 H380 0.959 . S
C396 H381 0.959 1_554 S
C396 H382 0.961 1_554 S
C396 C395 1.502 1_554 S
C397 H383 0.960 . S
C397 H384 0.961 . S
C397 H385 0.959 . S
C397 C395 1.561 . S
C398 C395 1.526 1_554 S
C398 C399 1.396 . S
C398 C403 1.390 . S
C399 C393 1.465 . S
C399 C398 1.396 . S
C399 C400 1.399 . S
C400 H386 0.929 . S
C400 C399 1.399 . S
C400 C401 1.385 . S
C401 H387 0.931 . S
C401 C400 1.385 . S
C401 C402 1.389 . S
C402 C401 1.389 . S
C402 C403 1.387 . S
C403 H388 0.930 1_554 S
C403 C398 1.390 . S
C403 C402 1.387 . S
H404 C416 0.930 . S
H405 C418 0.930 . S
H406 C419 0.930 . S
H407 C423 0.959 . S
H408 C423 0.959 . S
H409 C423 0.961 . S
H410 C424 0.960 . S
H411 C424 0.961 . S
H412 C424 0.959 . S
H413 C427 0.929 1_545 S
H414 C428 0.931 1_545 S
H415 C430 0.930 . S
C416 H404 0.930 . S
C416 C417 1.399 . S
C416 C421 1.399 . S
C417 C416 1.399 . S
C417 C418 1.376 . S
C418 H405 0.930 . S
C418 C417 1.376 . S
C418 C419 1.388 . S
C419 H406 0.930 . S
C419 C418 1.388 . S
C419 C420 1.390 . S
C420 C419 1.390 . S
C420 C421 1.394 . S
C420 C426 1.465 . S
C421 C416 1.399 . S
C421 C420 1.394 . S
C421 C422 1.516 . S
C422 C421 1.516 . S
C422 C423 1.502 . S
C422 C424 1.561 . S
C422 C425 1.526 . S
C423 H407 0.959 . S
C423 H408 0.959 . S
C423 H409 0.961 . S
C423 C422 1.502 . S
C424 H410 0.960 . S
C424 H411 0.961 . S
C424 H412 0.959 . S
C424 C422 1.561 . S
C425 C422 1.526 . S
C425 C426 1.396 . S
C425 C430 1.390 . S
C426 C420 1.465 . S
C426 C425 1.396 . S
C426 C427 1.399 . S
C427 H413 0.929 1_565 S
C427 C426 1.399 . S
C427 C428 1.385 . S
C428 H414 0.931 1_565 S
C428 C427 1.385 . S
C428 C429 1.389 . S
C429 C428 1.389 . S
C429 C430 1.387 . S
C430 H415 0.930 . S
C430 C425 1.390 . S
C430 C429 1.387 . S
H431 C443 0.930 . S
H432 C445 0.930 . S
H433 C446 0.930 . S
H434 C450 0.959 . S
H435 C450 0.959 . S
H436 C450 0.961 . S
H437 C451 0.960 . S
H438 C451 0.961 . S
H439 C451 0.959 . S
H440 C454 0.929 . S
H441 C455 0.931 . S
H442 C457 0.930 . S
C443 H431 0.930 . S
C443 C444 1.399 . S
C443 C448 1.399 . S
C444 C443 1.399 . S
C444 C445 1.376 . S
C445 H432 0.930 . S
C445 C444 1.376 . S
C445 C446 1.388 . S
C446 H433 0.930 . S
C446 C445 1.388 . S
C446 C447 1.390 . S
C447 C446 1.390 . S
C447 C448 1.394 . S
C447 C453 1.465 . S
C448 C443 1.399 . S
C448 C447 1.394 . S
C448 C449 1.516 . S
C449 C448 1.516 . S
C449 C450 1.502 . S
C449 C451 1.561 . S
C449 C452 1.526 . S
C450 H434 0.959 . S
C450 H435 0.959 . S
C450 H436 0.961 . S
C450 C449 1.502 . S
C451 H437 0.960 . S
C451 H438 0.961 . S
C451 H439 0.959 . S
C451 C449 1.561 . S
C452 C449 1.526 . S
C452 C453 1.396 . S
C452 C457 1.390 . S
C453 C447 1.465 . S
C453 C452 1.396 . S
C453 C454 1.399 . S
C454 H440 0.929 . S
C454 C453 1.399 . S
C454 C455 1.385 . S
C455 H441 0.931 . S
C455 C454 1.385 . S
C455 C456 1.389 . S
C456 C455 1.389 . S
C456 C457 1.387 . S
C457 H442 0.930 . S
C457 C452 1.390 . S
C457 C456 1.387 . S
H458 C470 0.930 . S
H459 C472 0.930 . S
H460 C473 0.930 . S
H461 C477 0.959 . S
H462 C477 0.959 . S
H463 C477 0.961 . S
H464 C478 0.960 . S
H465 C478 0.961 1_565 S
H466 C478 0.959 . S
H467 C481 0.929 . S
H468 C482 0.931 . S
H469 C484 0.930 1_565 S
C470 H458 0.930 . S
C470 C471 1.399 . S
C470 C475 1.399 . S
C471 C470 1.399 . S
C471 C472 1.376 . S
C472 H459 0.930 . S
C472 C471 1.376 . S
C472 C473 1.388 . S
C473 H460 0.930 . S
C473 C472 1.388 . S
C473 C474 1.390 . S
C474 C473 1.390 . S
C474 C475 1.394 . S
C474 C480 1.465 . S
C475 C470 1.399 . S
C475 C474 1.394 . S
C475 C476 1.516 . S
C476 C475 1.516 . S
C476 C477 1.502 1_545 S
C476 C478 1.561 . S
C476 C479 1.526 . S
C477 H461 0.959 . S
C477 H462 0.959 . S
C477 H463 0.961 . S
C477 C476 1.502 1_565 S
C478 H464 0.960 . S
C478 H465 0.961 1_545 S
C478 H466 0.959 . S
C478 C476 1.561 . S
C479 C476 1.526 . S
C479 C480 1.396 . S
C479 C484 1.390 . S
C480 C474 1.465 . S
C480 C479 1.396 . S
C480 C481 1.399 . S
C481 H467 0.929 . S
C481 C480 1.399 . S
C481 C482 1.385 . S
C482 H468 0.931 . S
C482 C481 1.385 . S
C482 C483 1.389 . S
C483 C482 1.389 . S
C483 C484 1.387 . S
C484 H469 0.930 1_545 S
C484 C479 1.390 . S
C484 C483 1.387 . S
H485 C497 0.930 . S
H486 C499 0.930 . S
H487 C500 0.930 . S
H488 C504 0.959 . S
H489 C504 0.959 . S
H490 C504 0.961 . S
H491 C505 0.960 . S
H492 C505 0.961 . S
H493 C505 0.959 . S
H494 C508 0.929 . S
H495 C509 0.931 . S
H496 C511 0.930 . S
C497 H485 0.930 . S
C497 C498 1.399 . S
C497 C502 1.399 . S
C498 C497 1.399 . S
C498 C499 1.376 . S
C499 H486 0.930 . S
C499 C498 1.376 . S
C499 C500 1.388 . S
C500 H487 0.930 . S
C500 C499 1.388 . S
C500 C501 1.390 . S
C501 C500 1.390 . S
C501 C502 1.394 . S
C501 C507 1.465 . S
C502 C497 1.399 . S
C502 C501 1.394 . S
C502 C503 1.516 . S
C503 C502 1.516 . S
C503 C504 1.502 . S
C503 C505 1.561 . S
C503 C506 1.526 . S
C504 H488 0.959 . S
C504 H489 0.959 . S
C504 H490 0.961 . S
C504 C503 1.502 . S
C505 H491 0.960 . S
C505 H492 0.961 . S
C505 H493 0.959 . S
C505 C503 1.561 . S
C506 C503 1.526 . S
C506 C507 1.396 . S
C506 C511 1.390 . S
C507 C501 1.465 . S
C507 C506 1.396 . S
C507 C508 1.399 . S
C508 H494 0.929 . S
C508 C507 1.399 . S
C508 C509 1.385 . S
C509 H495 0.931 . S
C509 C508 1.385 . S
C509 C510 1.389 . S
C510 C509 1.389 . S
C510 C511 1.387 . S
C511 H496 0.930 . S
C511 C506 1.390 . S
C511 C510 1.387 . S
H512 C524 0.930 . S
H513 C526 0.930 . S
H514 C527 0.930 . S
H515 C531 0.959 . S
H516 C531 0.959 . S
H517 C531 0.961 . S
H518 C532 0.960 . S
H519 C532 0.961 . S
H520 C532 0.959 . S
H521 C535 0.929 . S
H522 C536 0.931 . S
H523 C538 0.930 . S
C524 H512 0.930 . S
C524 C525 1.399 . S
C524 C529 1.399 . S
C525 C524 1.399 . S
C525 C526 1.376 . S
C526 H513 0.930 . S
C526 C525 1.376 . S
C526 C527 1.388 . S
C527 H514 0.930 . S
C527 C526 1.388 . S
C527 C528 1.390 . S
C528 C527 1.390 . S
C528 C529 1.394 . S
C528 C534 1.465 . S
C529 C524 1.399 . S
C529 C528 1.394 . S
C529 C530 1.516 . S
C530 C529 1.516 . S
C530 C531 1.502 . S
C530 C532 1.561 . S
C530 C533 1.526 . S
C531 H515 0.959 . S
C531 H516 0.959 . S
C531 H517 0.961 . S
C531 C530 1.502 . S
C532 H518 0.960 . S
C532 H519 0.961 . S
C532 H520 0.959 . S
C532 C530 1.561 . S
C533 C530 1.526 . S
C533 C534 1.396 . S
C533 C538 1.390 . S
C534 C528 1.465 . S
C534 C533 1.396 . S
C534 C535 1.399 . S
C535 H521 0.929 . S
C535 C534 1.399 . S
C535 C536 1.385 . S
C536 H522 0.931 . S
C536 C535 1.385 . S
C536 C537 1.389 . S
C537 C536 1.389 . S
C537 C538 1.387 . S
C538 H523 0.930 . S
C538 C533 1.390 . S
C538 C537 1.387 . S
H539 C551 0.930 . S
H540 C553 0.930 . S
H541 C554 0.930 . S
H542 C558 0.959 . S
H543 C558 0.959 . S
H544 C558 0.961 . S
H545 C559 0.960 . S
H546 C559 0.961 . S
H547 C559 0.959 . S
H548 C562 0.929 . S
H549 C563 0.931 . S
H550 C565 0.930 . S
C551 H539 0.930 . S
C551 C552 1.399 . S
C551 C556 1.399 . S
C552 C551 1.399 . S
C552 C553 1.376 . S
C553 H540 0.930 . S
C553 C552 1.376 . S
C553 C554 1.388 . S
C554 H541 0.930 . S
C554 C553 1.388 . S
C554 C555 1.390 . S
C555 C554 1.390 . S
C555 C556 1.394 . S
C555 C561 1.465 . S
C556 C551 1.399 . S
C556 C555 1.394 . S
C556 C557 1.516 . S
C557 C556 1.516 . S
C557 C558 1.502 . S
C557 C559 1.561 . S
C557 C560 1.526 . S
C558 H542 0.959 . S
C558 H543 0.959 . S
C558 H544 0.961 . S
C558 C557 1.502 . S
C559 H545 0.960 . S
C559 H546 0.961 . S
C559 H547 0.959 . S
C559 C557 1.561 . S
C560 C557 1.526 . S
C560 C561 1.396 . S
C560 C565 1.390 . S
C561 C555 1.465 . S
C561 C560 1.396 . S
C561 C562 1.399 . S
C562 H548 0.929 . S
C562 C561 1.399 . S
C562 C563 1.385 . S
C563 H549 0.931 . S
C563 C562 1.385 . S
C563 C564 1.389 . S
C564 C563 1.389 . S
C564 C565 1.387 . S
C565 H550 0.930 . S
C565 C560 1.390 . S
C565 C564 1.387 . S
H566 C578 0.930 . S
H567 C580 0.930 . S
H568 C581 0.930 . S
H569 C585 0.959 . S
H570 C585 0.959 . S
H571 C585 0.961 . S
H572 C586 0.960 . S
H573 C586 0.961 . S
H574 C586 0.959 . S
H575 C589 0.929 . S
H576 C590 0.931 . S
H577 C592 0.930 . S
C578 H566 0.930 . S
C578 C579 1.399 . S
C578 C583 1.399 . S
C579 C578 1.399 . S
C579 C580 1.376 . S
C580 H567 0.930 . S
C580 C579 1.376 . S
C580 C581 1.388 . S
C581 H568 0.930 . S
C581 C580 1.388 . S
C581 C582 1.390 . S
C582 C581 1.390 . S
C582 C583 1.394 . S
C582 C588 1.465 . S
C583 C578 1.399 . S
C583 C582 1.394 . S
C583 C584 1.516 . S
C584 C583 1.516 . S
C584 C585 1.502 . S
C584 C586 1.561 . S
C584 C587 1.526 . S
C585 H569 0.959 . S
C585 H570 0.959 . S
C585 H571 0.961 . S
C585 C584 1.502 . S
C586 H572 0.960 . S
C586 H573 0.961 . S
C586 H574 0.959 . S
C586 C584 1.561 . S
C587 C584 1.526 . S
C587 C588 1.396 . S
C587 C592 1.390 . S
C588 C582 1.465 . S
C588 C587 1.396 . S
C588 C589 1.399 . S
C589 H575 0.929 . S
C589 C588 1.399 . S
C589 C590 1.385 . S
C590 H576 0.931 . S
C590 C589 1.385 . S
C590 C591 1.389 . S
C591 C590 1.389 . S
C591 C592 1.387 . S
C592 H577 0.930 . S
C592 C587 1.390 . S
C592 C591 1.387 . S
H593 C605 0.930 . S
H594 C607 0.930 . S
H595 C608 0.930 . S
H596 C612 0.959 . S
H597 C612 0.959 . S
H598 C612 0.961 . S
H599 C613 0.960 . S
H600 C613 0.961 . S
H601 C613 0.959 . S
H602 C616 0.929 . S
H603 C617 0.931 . S
H604 C619 0.930 . S
C605 H593 0.930 . S
C605 C606 1.399 . S
C605 C610 1.399 . S
C606 C605 1.399 . S
C606 C607 1.376 . S
C607 H594 0.930 . S
C607 C606 1.376 . S
C607 C608 1.388 . S
C608 H595 0.930 . S
C608 C607 1.388 . S
C608 C609 1.390 . S
C609 C608 1.390 . S
C609 C610 1.394 . S
C609 C615 1.465 . S
C610 C605 1.399 . S
C610 C609 1.394 . S
C610 C611 1.516 . S
C611 C610 1.516 . S
C611 C612 1.502 . S
C611 C613 1.561 . S
C611 C614 1.526 . S
C612 H596 0.959 . S
C612 H597 0.959 . S
C612 H598 0.961 . S
C612 C611 1.502 . S
C613 H599 0.960 . S
C613 H600 0.961 . S
C613 H601 0.959 . S
C613 C611 1.561 . S
C614 C611 1.526 . S
C614 C615 1.396 . S
C614 C619 1.390 . S
C615 C609 1.465 . S
C615 C614 1.396 . S
C615 C616 1.399 . S
C616 H602 0.929 . S
C616 C615 1.399 . S
C616 C617 1.385 . S
C617 H603 0.931 . S
C617 C616 1.385 . S
C617 C618 1.389 . S
C618 C617 1.389 . S
C618 C619 1.387 . S
C619 H604 0.930 . S
C619 C614 1.390 . S
C619 C618 1.387 . S
C321 C196 1.604 . S
C309 C119 1.603 . S
C336 C23 1.605 . S
C348 C268 1.569 . S
C363 C55 1.519 . S
C375 C184 1.607 . S
C390 C87 1.566 . S
C402 C280 1.572 . S
C429 C186 1.420 . S
C417 C17 1.528 . S
C456 C267 1.593 . S
C444 C61 1.490 . S
C471 C93 1.446 . S
C483 C183 1.594 . S
C498 C113 1.513 . S
C510 C270 1.421 . S
C537 C282 1.438 . S
C525 C49 1.516 . S
C564 C198 1.446 . S
C552 C81 1.527 . S
C591 C279 1.594 . S
C579 C125 1.599 . S
C606 C29 1.575 . S
C618 C195 1.591 . S
