# Generated by pormake.
# Topology pyr, (3,6)-cn, num edge types: 1
# Building blocks:
#     Node 0, Type 0, BuildingBlock: ESEHIV_clean_linker_0, # of connection points: 3
#     Node 1, Type 0, BuildingBlock: ESEHIV_clean_linker_0, # of connection points: 3
#     Node 2, Type 0, BuildingBlock: ESEHIV_clean_linker_0, # of connection points: 3
#     Node 3, Type 0, BuildingBlock: ESEHIV_clean_linker_0, # of connection points: 3
#     Node 4, Type 0, BuildingBlock: ESEHIV_clean_linker_0, # of connection points: 3
#     Node 5, Type 0, BuildingBlock: ESEHIV_clean_linker_0, # of connection points: 3
#     Node 6, Type 0, BuildingBlock: ESEHIV_clean_linker_0, # of connection points: 3
#     Node 7, Type 0, BuildingBlock: ESEHIV_clean_linker_0, # of connection points: 3
#     Node 8, Type 1, BuildingBlock: BETFEN_clean_sbu_0, # of connection points: 6
#     Node 9, Type 1, BuildingBlock: BETFEN_clean_sbu_0, # of connection points: 6
#     Node 10, Type 1, BuildingBlock: BETFEN_clean_sbu_0, # of connection points: 6
#     Node 11, Type 1, BuildingBlock: BETFEN_clean_sbu_0, # of connection points: 6
#     Edge 12, Type (0, 1), BuildingBlock: MIFKUJ_clean_linker_0, # of connection points: 2
#     Edge 13, Type (0, 1), BuildingBlock: MIFKUJ_clean_linker_0, # of connection points: 2
#     Edge 14, Type (0, 1), BuildingBlock: MIFKUJ_clean_linker_0, # of connection points: 2
#     Edge 15, Type (0, 1), BuildingBlock: MIFKUJ_clean_linker_0, # of connection points: 2
#     Edge 16, Type (0, 1), BuildingBlock: MIFKUJ_clean_linker_0, # of connection points: 2
#     Edge 17, Type (0, 1), BuildingBlock: MIFKUJ_clean_linker_0, # of connection points: 2
#     Edge 18, Type (0, 1), BuildingBlock: MIFKUJ_clean_linker_0, # of connection points: 2
#     Edge 19, Type (0, 1), BuildingBlock: MIFKUJ_clean_linker_0, # of connection points: 2
#     Edge 20, Type (0, 1), BuildingBlock: MIFKUJ_clean_linker_0, # of connection points: 2
#     Edge 21, Type (0, 1), BuildingBlock: MIFKUJ_clean_linker_0, # of connection points: 2
#     Edge 22, Type (0, 1), BuildingBlock: MIFKUJ_clean_linker_0, # of connection points: 2
#     Edge 23, Type (0, 1), BuildingBlock: MIFKUJ_clean_linker_0, # of connection points: 2
#     Edge 24, Type (0, 1), BuildingBlock: MIFKUJ_clean_linker_0, # of connection points: 2
#     Edge 25, Type (0, 1), BuildingBlock: MIFKUJ_clean_linker_0, # of connection points: 2
#     Edge 26, Type (0, 1), BuildingBlock: MIFKUJ_clean_linker_0, # of connection points: 2
#     Edge 27, Type (0, 1), BuildingBlock: MIFKUJ_clean_linker_0, # of connection points: 2
#     Edge 28, Type (0, 1), BuildingBlock: MIFKUJ_clean_linker_0, # of connection points: 2
#     Edge 29, Type (0, 1), BuildingBlock: MIFKUJ_clean_linker_0, # of connection points: 2
#     Edge 30, Type (0, 1), BuildingBlock: MIFKUJ_clean_linker_0, # of connection points: 2
#     Edge 31, Type (0, 1), BuildingBlock: MIFKUJ_clean_linker_0, # of connection points: 2
#     Edge 32, Type (0, 1), BuildingBlock: MIFKUJ_clean_linker_0, # of connection points: 2
#     Edge 33, Type (0, 1), BuildingBlock: MIFKUJ_clean_linker_0, # of connection points: 2
#     Edge 34, Type (0, 1), BuildingBlock: MIFKUJ_clean_linker_0, # of connection points: 2
#     Edge 35, Type (0, 1), BuildingBlock: MIFKUJ_clean_linker_0, # of connection points: 2
# Relax obj value: 0.130
# Max RMSD: 0.233
# Mean RMSD: 0.111
data_MOF--net-pyr--node1-BETFEN_clean_sbu_0--node2-ESEHIV_clean_linker_0--edge1-MIFKUJ_clean_linker_0
_symmetry_space_group_name_H-M    P1
_symmetry_Int_Tables_number       1
_symmetry_cell_setting            triclinic
loop_
_symmetry_equiv_pos_as_xyz
'x, y, z'
_cell_length_a     45.739817
_cell_length_b     50.493442
_cell_length_c     47.670708
_cell_angle_alpha  91.133832
_cell_angle_beta   98.881237
_cell_angle_gamma 108.02863
loop_
_atom_site_label
_atom_site_type_symbol
_atom_site_fract_x
_atom_site_fract_y
_atom_site_fract_z
_atom_type_partial_charge
H0 H 0.32404 0.33824 0.2814 0.0
H1 H 0.37031 0.27627 0.29038 0.0
H2 H 0.38838 0.33482 0.22569 0.0
C3 C 0.34141 0.3297 0.27541 0.0
C4 C 0.35592 0.33948 0.25207 0.0
C5 C 0.34712 0.30734 0.28968 0.0
C6 C 0.36784 0.29483 0.28063 0.0
C7 C 0.38251 0.3042 0.25718 0.0
C8 C 0.37725 0.32728 0.24375 0.0
H9 H 0.27791 0.86495 0.69777 0.0
H10 H 0.32326 0.80199 0.70536 0.0
H11 H 0.25815 0.80148 0.62959 0.0
C12 C 0.28142 0.84634 0.68913 0.0
C13 C 0.26535 0.83441 0.66206 0.0
C14 C 0.30228 0.83471 0.70489 0.0
C15 C 0.30684 0.81085 0.69339 0.0
C16 C 0.29107 0.7987 0.6663 0.0
C17 C 0.27018 0.81052 0.65065 0.0
H18 H 0.65499 0.31472 0.86549 0.0
H19 H 0.65521 0.37977 0.80918 0.0
H20 H 0.57411 0.3064 0.80166 0.0
C21 C 0.64299 0.32286 0.84804 0.0
C22 C 0.61232 0.30732 0.83542 0.0
C23 C 0.65848 0.34894 0.83891 0.0
C24 C 0.64313 0.35971 0.8164 0.0
C25 C 0.61286 0.34452 0.80243 0.0
C26 C 0.59759 0.31803 0.81188 0.0
H27 H 0.84714 0.68118 0.36287 0.0
H28 H 0.91203 0.68891 0.30486 0.0
H29 H 0.83295 0.61369 0.30025 0.0
C30 C 0.85438 0.67241 0.34523 0.0
C31 C 0.83623 0.64563 0.33284 0.0
C32 C 0.88154 0.68839 0.33551 0.0
C33 C 0.89117 0.67676 0.31252 0.0
C34 C 0.87411 0.64955 0.29939 0.0
C35 C 0.84647 0.63431 0.30991 0.0
H36 H 0.65943 0.74304 0.74509 0.0
H37 H 0.71534 0.68845 0.75566 0.0
H38 H 0.64591 0.68307 0.80853 0.0
C39 C 0.66469 0.72562 0.75513 0.0
C40 C 0.64959 0.71412 0.77767 0.0
C41 C 0.68834 0.71644 0.7469 0.0
C42 C 0.69593 0.69456 0.76073 0.0
C43 C 0.6808 0.6825 0.78307 0.0
C44 C 0.65729 0.69205 0.79104 0.0
H45 H 0.70552 0.21449 0.33512 0.0
H46 H 0.76905 0.16727 0.33285 0.0
H47 H 0.77093 0.21409 0.40994 0.0
C48 C 0.72423 0.20734 0.3455 0.0
C49 C 0.73652 0.21587 0.37419 0.0
C50 C 0.73551 0.18964 0.33027 0.0
C51 C 0.76057 0.18157 0.34396 0.0
C52 C 0.77367 0.19049 0.37257 0.0
C53 C 0.76145 0.20761 0.3877 0.0
H54 H 0.38478 0.71688 0.1725 0.0
H55 H 0.37971 0.65389 0.2319 0.0
H56 H 0.4599 0.72848 0.24321 0.0
C57 C 0.39496 0.70977 0.19179 0.0
C58 C 0.4241 0.72636 0.20678 0.0
C59 C 0.37875 0.68391 0.20081 0.0
C60 C 0.39228 0.67398 0.22508 0.0
C61 C 0.42151 0.68974 0.24084 0.0
C62 C 0.43762 0.71592 0.23122 0.0
H63 H 0.13393 0.33941 0.73748 0.0
H64 H 0.19616 0.34843 0.6771 0.0
H65 H 0.20574 0.41852 0.73486 0.0
C66 C 0.15358 0.35227 0.72866 0.0
C67 C 0.16867 0.38051 0.73989 0.0
C68 C 0.16274 0.34082 0.70529 0.0
C69 C 0.18818 0.35774 0.69384 0.0
C70 C 0.20398 0.38587 0.7037 0.0
C71 C 0.19392 0.39702 0.7269 0.0
Pr72 Pr 0.99981 1.00515 0.53861 0.0
Pr73 Pr 0.04129 0.02362 0.50359 0.0
C74 C 0.9496 0.98378 0.56407 0.0
C75 C 0.92993 0.95785 0.57356 0.0
C76 C 0.90049 0.95683 0.57916 0.0
C77 C 0.88172 0.9331 0.58962 0.0
C78 C 0.8921 0.90989 0.5948 0.0
C79 C 0.9213 0.9106 0.58827 0.0
C80 C 0.94016 0.93449 0.57775 0.0
C81 C 0.04131 0.05845 0.56153 0.0
C82 C 0.05896 0.98552 0.55362 0.0
C83 C 0.09169 0.04512 0.47838 0.0
C84 C 0.11106 0.07174 0.4698 0.0
C85 C 0.14247 0.07538 0.46878 0.0
C86 C 0.1613 0.1001 0.45992 0.0
C87 C 0.14901 0.12167 0.45188 0.0
C88 C 0.11753 0.11811 0.4533 0.0
C89 C 0.0987 0.09334 0.46232 0.0
C90 C 1.00011 0.96998 0.48113 0.0
C91 C 0.98196 0.04355 0.4887 0.0
O92 O 0.94766 0.98589 0.53665 0.0
O93 O 0.97798 0.99428 0.57803 0.0
O94 O 0.02897 0.0524 0.53554 0.0
O95 O 0.03383 0.03642 0.5757 0.0
O96 O 0.07069 1.00834 0.541 0.0
O97 O 0.02864 0.97545 0.55174 0.0
O98 O 0.09355 0.04218 0.50565 0.0
O99 O 0.06334 0.0347 0.46432 0.0
O100 O 1.01259 0.97642 0.50702 0.0
O101 O 1.0073 0.99186 0.46672 0.0
O102 O 0.97028 0.02135 0.50222 0.0
O103 O 1.01216 0.0529 0.48934 0.0
H104 H 0.89217 0.97461 0.57579 0.0
H105 H 0.85908 0.93298 0.59383 0.0
H106 H 0.92992 0.89306 0.59207 0.0
H107 H 0.96284 0.93494 0.57334 0.0
H108 H 0.15235 0.0589 0.47449 0.0
H109 H 0.1853 0.10202 0.45863 0.0
H110 H 0.10749 0.13444 0.44744 0.0
H111 H 0.0745 0.09096 0.46322 0.0
Pr112 Pr 0.49715 0.01552 0.0235 0.0
Pr113 Pr 0.55193 1.00871 1.00777 0.0
C114 C 0.45354 0.02302 0.05193 0.0
C115 C 0.45239 0.04627 0.07022 0.0
C116 C 0.46983 0.07382 0.06647 0.0
C117 C 0.4694 0.09584 0.08438 0.0
C118 C 0.45188 0.09063 0.10658 0.0
C119 C 0.43493 0.06296 0.11063 0.0
C120 C 0.43513 0.04093 0.0925 0.0
C121 C 0.51948 0.05305 0.98285 0.0
C122 C 0.56585 0.05215 0.06131 0.0
C123 C 0.59596 1.00123 0.97976 0.0
C124 C 0.59668 0.97936 0.9592 0.0
C125 C 0.6207 0.9674 0.96388 0.0
C126 C 0.61993 0.94469 0.94621 0.0
C127 C 0.59494 0.93338 0.92363 0.0
C128 C 0.57139 0.946 0.9185 0.0
C129 C 0.57234 0.96884 0.93603 0.0
C130 C 0.52975 0.97142 0.04868 0.0
C131 C 0.48309 0.97222 0.97012 0.0
O132 O 0.4735 0.01055 0.0623 0.0
O133 O 0.45352 0.02725 0.02496 0.0
O134 O 0.53628 0.04815 1.00457 0.0
O135 O 0.49057 0.03789 0.98133 0.0
O136 O 0.5787 0.04634 0.04023 0.0
O137 O 0.53585 0.04044 0.06134 0.0
O138 O 0.57857 0.01666 0.97096 0.0
O139 O 0.59355 0.99384 1.0056 0.0
O140 O 0.51282 0.97629 0.02702 0.0
O141 O 0.55871 0.98628 0.04979 0.0
O142 O 0.47074 0.97724 0.99188 0.0
O143 O 0.51291 0.98456 0.96958 0.0
H144 H 0.48385 0.0783 0.04973 0.0
H145 H 0.48294 0.11695 0.08101 0.0
H146 H 0.42106 0.05843 0.12747 0.0
H147 H 0.42186 0.01975 0.09588 0.0
H148 H 0.63975 0.97527 0.98158 0.0
H149 H 0.63881 0.93586 0.9504 0.0
H150 H 0.55167 0.93775 0.90149 0.0
H151 H 0.55364 0.97785 0.93182 0.0
Pr152 Pr 0.53015 0.54938 0.5351 0.0
Pr153 Pr 0.5131 0.48455 0.50517 0.0
C154 C 0.52733 0.60118 0.54327 0.0
C155 C 0.51461 0.61646 0.56203 0.0
C156 C 0.49754 0.60273 0.58247 0.0
C157 C 0.48095 0.61607 0.5968 0.0
C158 C 0.4811 0.6433 0.59077 0.0
C159 C 0.49949 0.65733 0.57118 0.0
C160 C 0.51606 0.64398 0.55692 0.0
C161 C 0.54742 0.51316 0.57411 0.0
C162 C 0.46552 0.49821 0.54799 0.0
C163 C 0.51521 0.43247 0.49692 0.0
C164 C 0.52741 0.41605 0.47885 0.0
C165 C 0.51968 0.38721 0.48117 0.0
C166 C 0.53538 0.37187 0.46836 0.0
C167 C 0.5592 0.3852 0.45309 0.0
C168 C 0.56574 0.41395 0.44958 0.0
C169 C 0.54995 0.42928 0.46238 0.0
C170 C 0.49556 0.5209 0.46644 0.0
C171 C 0.57795 0.53565 0.4927 0.0
O172 O 0.50625 0.58168 0.52588 0.0
O173 O 0.55158 0.5939 0.55447 0.0
O174 O 0.53534 0.50798 0.54814 0.0
O175 O 0.55289 0.53967 0.58063 0.0
O176 O 0.47276 0.47918 0.53305 0.0
O177 O 0.4819 0.5253 0.54989 0.0
O178 O 0.53652 0.45196 0.51409 0.0
O179 O 0.49127 0.44004 0.48547 0.0
O180 O 0.50798 0.52591 0.4923 0.0
O181 O 0.4901 0.49445 0.45969 0.0
O182 O 0.56988 0.55476 0.50666 0.0
O183 O 0.56221 0.50844 0.49161 0.0
H184 H 0.49603 0.58133 0.58648 0.0
H185 H 0.46731 0.60481 0.61199 0.0
H186 H 0.49978 0.67811 0.56569 0.0
H187 H 0.52884 0.65471 0.54092 0.0
H188 H 0.50256 0.37677 0.49406 0.0
H189 H 0.53001 0.34985 0.47175 0.0
H190 H 0.58367 0.42474 0.43764 0.0
H191 H 0.55629 0.45162 0.4605 0.0
Pr192 Pr 1.0153 0.53596 1.00011 0.0
Pr193 Pr 0.02349 0.49254 0.03758 0.0
C194 C 0.99301 0.56982 0.96613 0.0
C195 C 0.96241 0.57324 0.95623 0.0
C196 C 0.95489 0.5787 0.92779 0.0
C197 C 0.92529 0.58017 0.9172 0.0
C198 C 0.90266 0.57632 0.93493 0.0
C199 C 0.91025 0.57095 0.96352 0.0
C200 C 0.93985 0.5692 0.97405 0.0
C201 C 0.07614 0.54987 0.03068 0.0
C202 C 0.99222 0.53584 0.06463 0.0
C203 C 0.04201 0.45623 0.07103 0.0
C204 C 0.0685 0.44562 0.07753 0.0
C205 C 0.06883 0.42766 0.09944 0.0
C206 C 0.09508 0.41944 0.10801 0.0
C207 C 0.1215 0.42909 0.09478 0.0
C208 C 0.12072 0.4465 0.07217 0.0
C209 C 0.09439 0.45479 0.06364 0.0
C210 C 0.96261 0.48005 1.00743 0.0
C211 C 0.04799 0.49316 0.97354 0.0
O212 O 0.9963 0.54665 0.95676 0.0
O213 O 1.00539 0.57685 0.99291 0.0
O214 O 0.05157 0.5391 0.04067 0.0
O215 O 0.06984 0.55519 1.00435 0.0
O216 O 1.00918 0.51921 0.07139 0.0
O217 O 0.98708 0.54193 0.03762 0.0
O218 O 0.04756 0.48244 0.07899 0.0
O219 O 0.02456 0.44876 0.04599 0.0
O220 O 0.98723 0.48971 0.99721 0.0
O221 O 0.96878 0.47575 0.03411 0.0
O222 O 0.03254 0.51103 0.96696 0.0
O223 O 0.051 0.48537 1.00008 0.0
H224 H 0.9719 0.58159 0.91368 0.0
H225 H 0.92025 0.58475 0.89521 0.0
H226 H 0.8932 0.56778 0.97759 0.0
H227 H 0.945 0.56445 0.99597 0.0
H228 H 0.0491 0.42062 0.1105 0.0
H229 H 0.09511 0.40636 0.12574 0.0
H230 H 0.14068 0.45414 0.06152 0.0
H231 H 0.09449 0.46885 0.04675 0.0
H232 H 0.28402 0.29187 0.28481 0.0
H233 H 0.25178 0.26624 0.31782 0.0
H234 H 0.33464 0.26752 0.37594 0.0
H235 H 0.36704 0.29249 0.34228 0.0
H236 H 0.29535 0.21756 0.36943 0.0
H237 H 0.286 0.30765 0.3895 0.0
H238 H 0.27616 0.35163 0.37691 0.0
H239 H 0.1822 0.30581 0.33841 0.0
H240 H 0.19157 0.26151 0.35046 0.0
H241 H 0.20948 0.15211 0.47306 0.0
H242 H 0.24409 0.18993 0.45101 0.0
H243 H 0.1681 0.18636 0.38351 0.0
H244 H 0.13334 0.14849 0.40543 0.0
H245 H 0.20614 0.24049 0.39909 0.0
H246 H 0.21702 0.15132 0.37417 0.0
H247 H 0.2265 0.1067 0.38432 0.0
H248 H 0.31772 0.15105 0.4304 0.0
H249 H 0.30857 0.19596 0.42087 0.0
C250 C 0.29536 0.28717 0.30489 0.0
C251 C 0.32801 0.29433 0.31116 0.0
C252 C 0.27691 0.27258 0.32381 0.0
C253 C 0.29075 0.26534 0.34966 0.0
C254 C 0.32344 0.27297 0.35619 0.0
C255 C 0.34192 0.28723 0.33703 0.0
C256 C 0.27101 0.24797 0.36873 0.0
C257 C 0.27633 0.22297 0.37646 0.0
C258 C 0.24558 0.25457 0.37726 0.0
C259 C 0.23956 0.28124 0.37077 0.0
C260 C 0.26326 0.30694 0.37828 0.0
C261 C 0.25777 0.33193 0.37123 0.0
C262 C 0.22859 0.33151 0.35683 0.0
C263 C 0.20479 0.3061 0.34957 0.0
C264 C 0.21016 0.28105 0.35657 0.0
C265 C 0.20008 0.15956 0.45366 0.0
C266 C 0.1688 0.14708 0.44077 0.0
C267 C 0.21984 0.18122 0.44115 0.0
C268 C 0.20876 0.19063 0.41541 0.0
C269 C 0.1771 0.1794 0.40339 0.0
C270 C 0.15727 0.15777 0.41595 0.0
C271 C 0.23068 0.2103 0.39971 0.0
C272 C 0.22561 0.23551 0.39248 0.0
C273 C 0.25635 0.20395 0.39153 0.0
C274 C 0.26198 0.17698 0.39709 0.0
C275 C 0.239 0.15155 0.38665 0.0
C276 C 0.24433 0.12621 0.39227 0.0
C277 C 0.27266 0.12604 0.40807 0.0
C278 C 0.29576 0.15122 0.41821 0.0
C279 C 0.29053 0.17662 0.41271 0.0
H280 H 0.27674 0.1064 0.41239 0.0
H281 H 0.22442 0.35087 0.3513 0.0
H282 H 0.36434 0.84534 0.7246 0.0
H283 H 0.39344 0.86626 0.7713 0.0
H284 H 0.30939 0.87451 0.79551 0.0
H285 H 0.28016 0.85378 0.74861 0.0
H286 H 0.35757 0.92097 0.81101 0.0
H287 H 0.33899 0.82262 0.81967 0.0
H288 H 0.33964 0.77572 0.80503 0.0
H289 H 0.4395 0.80619 0.81403 0.0
H290 H 0.43943 0.8534 0.82834 0.0
H291 H 0.41946 0.95455 0.95712 0.0
H292 H 0.38709 0.92804 0.91369 0.0
H293 H 0.46939 0.92216 0.88384 0.0
H294 H 0.50177 0.94824 0.92732 0.0
H295 H 0.42051 0.87319 0.87237 0.0
H296 H 0.43969 0.97101 0.86084 0.0
H297 H 0.44054 0.01872 0.87413 0.0
H298 H 0.34104 0.98988 0.86918 0.0
H299 H 0.33967 0.94187 0.85631 0.0
C300 C 0.35202 0.85143 0.73996 0.0
C301 C 0.31994 0.84777 0.73308 0.0
C302 C 0.36866 0.86335 0.76662 0.0
C303 C 0.35346 0.87151 0.78703 0.0
C304 C 0.32153 0.86828 0.78008 0.0
C305 C 0.30489 0.85651 0.75331 0.0
C306 C 0.37101 0.88376 0.81551 0.0
C307 C 0.37087 0.9103 0.82465 0.0
C308 C 0.38903 0.87012 0.83294 0.0
C309 C 0.38918 0.8416 0.82489 0.0
C310 C 0.36108 0.81936 0.81839 0.0
C311 C 0.36135 0.79271 0.81017 0.0
C312 C 0.38959 0.78798 0.80859 0.0
C313 C 0.41764 0.80988 0.8153 0.0
C314 C 0.41751 0.83658 0.82349 0.0
C315 C 0.43062 0.94729 0.94148 0.0
C316 C 0.46324 0.95387 0.9454 0.0
C317 C 0.41212 0.93225 0.91666 0.0
C318 C 0.42594 0.92353 0.89542 0.0
C319 C 0.45831 0.92884 0.89993 0.0
C320 C 0.47681 0.94396 0.92467 0.0
C321 C 0.4069 0.91028 0.86782 0.0
C322 C 0.4069 0.88367 0.85883 0.0
C323 C 0.3889 0.92389 0.85041 0.0
C324 C 0.38962 0.95278 0.85793 0.0
C325 C 0.41802 0.97479 0.86282 0.0
C326 C 0.4186 1.0019 0.87024 0.0
C327 C 0.39087 1.00731 0.87258 0.0
C328 C 0.36251 0.98564 0.86741 0.0
C329 C 0.36181 0.95848 0.86005 0.0
H330 H 0.39136 0.02831 0.87832 0.0
H331 H 0.38974 0.76736 0.80215 0.0
H332 H 0.58686 0.32176 0.74766 0.0
H333 H 0.57073 0.34591 0.7066 0.0
H334 H 0.59064 0.42057 0.76125 0.0
H335 H 0.60671 0.39662 0.80203 0.0
H336 H 0.5378 0.41324 0.72261 0.0
H337 H 0.64271 0.41274 0.72099 0.0
H338 H 0.68405 0.39112 0.71978 0.0
H339 H 0.63506 0.3459 0.64036 0.0
H340 H 0.59316 0.36696 0.64132 0.0
H341 H 0.56991 0.52391 0.63085 0.0
H342 H 0.57546 0.49104 0.66673 0.0
H343 H 0.541 0.42302 0.60189 0.0
H344 H 0.53422 0.45589 0.56597 0.0
H345 H 0.59653 0.4225 0.64214 0.0
H346 H 0.49389 0.42641 0.64147 0.0
H347 H 0.45359 0.44936 0.64203 0.0
H348 H 0.49816 0.48835 0.72513 0.0
H349 H 0.53912 0.46606 0.72483 0.0
C350 C 0.58715 0.34313 0.75098 0.0
C351 C 0.59813 0.35722 0.77818 0.0
C352 C 0.57819 0.35705 0.72742 0.0
C353 C 0.57975 0.38533 0.73057 0.0
C354 C 0.58919 0.39888 0.75803 0.0
C355 C 0.59844 0.38512 0.78141 0.0
C356 C 0.57315 0.40138 0.70537 0.0
C357 C 0.55079 0.41531 0.70513 0.0
C358 C 0.58949 0.40383 0.68202 0.0
C359 C 0.61461 0.39113 0.68141 0.0
C360 C 0.64061 0.39798 0.7034 0.0
C361 C 0.66416 0.38587 0.70274 0.0
C362 C 0.66213 0.36707 0.68006 0.0
C363 C 0.63656 0.36041 0.65795 0.0
C364 C 0.6129 0.37243 0.65854 0.0
C365 C 0.56361 0.50198 0.62409 0.0
C366 C 0.55201 0.49267 0.59528 0.0
C367 C 0.56676 0.48315 0.64473 0.0
C368 C 0.55872 0.45444 0.63716 0.0
C369 C 0.5476 0.44505 0.60833 0.0
C370 C 0.54389 0.46391 0.5877 0.0
C371 C 0.56148 0.43451 0.65963 0.0
C372 C 0.58322 0.42004 0.65942 0.0
C373 C 0.54455 0.43152 0.68254 0.0
C374 C 0.51978 0.44476 0.68301 0.0
C375 C 0.49528 0.44007 0.65977 0.0
C376 C 0.47228 0.45293 0.66005 0.0
C377 C 0.47335 0.47034 0.68358 0.0
C378 C 0.49739 0.47488 0.7069 0.0
C379 C 0.5205 0.46212 0.7067 0.0
H380 H 0.45553 0.48028 0.68376 0.0
H381 H 0.68041 0.35773 0.67957 0.0
H382 H 0.84081 0.62449 0.24657 0.0
H383 H 0.85917 0.60684 0.20676 0.0
H384 H 0.95126 0.62737 0.25677 0.0
H385 H 0.93326 0.64708 0.2956 0.0
H386 H 0.96331 0.63489 0.20995 0.0
H387 H 0.88825 0.55362 0.235 0.0
H388 H 0.83736 0.52403 0.24488 0.0
H389 H 0.79419 0.53153 0.16009 0.0
H390 H 0.84477 0.56143 0.14981 0.0
H391 H 1.01214 0.54162 0.12296 0.0
H392 H 0.992 0.56083 0.16072 0.0
H393 H 0.9215 0.57582 0.09811 0.0
H394 H 0.94231 0.5574 0.05998 0.0
H395 H 0.89826 0.54978 0.14963 0.0
H396 H 0.97887 0.62964 0.12638 0.0
H397 H 0.03233 0.65501 0.11909 0.0
H398 H 0.06799 0.64424 0.20537 0.0
H399 H 1.01476 0.61844 0.21305 0.0
C400 C 0.86498 0.62518 0.24921 0.0
C401 C 0.88528 0.6373 0.27484 0.0
C402 C 0.87564 0.61463 0.22622 0.0
C403 C 0.90689 0.61455 0.22806 0.0
C404 C 0.9271 0.62675 0.25382 0.0
C405 C 0.91666 0.63806 0.27645 0.0
C406 C 0.91867 0.60251 0.20342 0.0
C407 C 0.94889 0.616 0.19729 0.0
C408 C 0.90065 0.5779 0.18567 0.0
C409 C 0.87021 0.56001 0.19176 0.0
C410 C 0.86785 0.5491 0.21853 0.0
C411 C 0.83907 0.53226 0.22419 0.0
C412 C 0.81254 0.52598 0.20316 0.0
C413 C 0.81475 0.53646 0.17638 0.0
C414 C 0.84347 0.55334 0.17062 0.0
C415 C 0.99235 0.549 0.117 0.0
C416 C 0.97912 0.54774 0.08792 0.0
C417 C 0.98076 0.56013 0.13887 0.0
C418 C 0.95492 0.57002 0.13285 0.0
C419 C 0.94132 0.56844 0.10386 0.0
C420 C 0.95342 0.5579 0.08184 0.0
C421 C 0.94256 0.58213 0.15667 0.0
C422 C 0.9124 0.56864 0.16253 0.0
C423 C 0.96092 0.60618 0.17471 0.0
C424 C 0.99287 0.62189 0.1702 0.0
C425 C 0.99814 0.63249 0.14373 0.0
C426 C 0.02839 0.64698 0.13954 0.0
C427 C 0.05355 0.65117 0.16173 0.0
C428 C 0.04848 0.64095 0.18819 0.0
C429 C 0.01828 0.62641 0.19247 0.0
H430 H 0.07695 0.66239 0.15845 0.0
H431 H 0.79028 0.51294 0.20758 0.0
H432 H 0.41981 0.27507 0.28361 0.0
H433 H 0.43754 0.24022 0.26114 0.0
H434 H 0.40067 0.26029 0.17834 0.0
H435 H 0.38097 0.29337 0.20039 0.0
H436 H 0.37981 0.20712 0.18242 0.0
H437 H 0.48148 0.27679 0.20482 0.0
H438 H 0.52637 0.30993 0.23624 0.0
H439 H 0.53907 0.24297 0.28569 0.0
H440 H 0.4941 0.20946 0.2547 0.0
H441 H 0.44118 0.13825 0.08926 0.0
H442 H 0.43557 0.17598 0.11874 0.0
H443 H 0.45334 0.13387 0.19422 0.0
H444 H 0.45894 0.09582 0.16471 0.0
H445 H 0.48469 0.1953 0.19785 0.0
H446 H 0.38384 0.12583 0.1742 0.0
H447 H 0.33961 0.09287 0.14197 0.0
H448 H 0.32576 0.16063 0.09446 0.0
H449 H 0.37027 0.19396 0.12616 0.0
C450 C 0.41564 0.27219 0.2606 0.0
C451 C 0.39875 0.28705 0.24392 0.0
C452 C 0.42613 0.25246 0.24777 0.0
C453 C 0.42044 0.24762 0.21802 0.0
C454 C 0.40526 0.26359 0.20134 0.0
C455 C 0.39436 0.2829 0.21408 0.0
C456 C 0.42738 0.22424 0.20409 0.0
C457 C 0.4029 0.20485 0.18559 0.0
C458 C 0.45717 0.22054 0.209 0.0
C459 C 0.48423 0.24067 0.22762 0.0
C460 C 0.49371 0.26917 0.22252 0.0
C461 C 0.51922 0.28801 0.24022 0.0
C462 C 0.53555 0.27857 0.26298 0.0
C463 C 0.52644 0.25026 0.26805 0.0
C464 C 0.50096 0.23133 0.25041 0.0
C465 C 0.44433 0.13721 0.11216 0.0
C466 C 0.45036 0.11411 0.12474 0.0
C467 C 0.44106 0.15871 0.12894 0.0
C468 C 0.44398 0.15758 0.15857 0.0
C469 C 0.4511 0.13506 0.17136 0.0
C470 C 0.45401 0.11331 0.15452 0.0
C471 C 0.43738 0.17907 0.17571 0.0
C472 C 0.46171 0.19778 0.19488 0.0
C473 C 0.40748 0.18232 0.17142 0.0
C474 C 0.38058 0.16235 0.15239 0.0
C475 C 0.37155 0.13368 0.15672 0.0
C476 C 0.34639 0.11493 0.13858 0.0
C477 C 0.32993 0.12464 0.11614 0.0
C478 C 0.33856 0.15313 0.11184 0.0
C479 C 0.36373 0.17196 0.1299 0.0
H480 H 0.31046 0.11009 0.10212 0.0
H481 H 0.55528 0.29318 0.27667 0.0
H482 H 0.27943 0.88765 0.64659 0.0
H483 H 0.24305 0.91164 0.62613 0.0
H484 H 0.16642 0.83515 0.62244 0.0
H485 H 0.20318 0.81083 0.64198 0.0
H486 H 0.1567 0.86359 0.57757 0.0
H487 H 0.18476 0.88489 0.6781 0.0
H488 H 0.22069 0.90026 0.72376 0.0
H489 H 0.2589 0.98135 0.69375 0.0
H490 H 0.22355 0.96631 0.6477 0.0
H491 H 0.0415 0.93256 0.57121 0.0
H492 H 0.07557 0.90544 0.58916 0.0
H493 H 0.15641 0.97595 0.58369 0.0
H494 H 0.12257 1.00321 0.56568 0.0
H495 H 0.16156 0.94892 0.63417 0.0
H496 H 0.13263 0.92563 0.53261 0.0
H497 H 0.09457 0.90948 0.48826 0.0
H498 H 0.0551 0.83074 0.52241 0.0
H499 H 0.09264 0.84661 0.56717 0.0
C500 C 0.25487 0.87592 0.64092 0.0
C501 C 0.24393 0.84754 0.64598 0.0
C502 C 0.2341 0.88962 0.6294 0.0
C503 C 0.20191 0.87537 0.62348 0.0
C504 C 0.19113 0.84659 0.62703 0.0
C505 C 0.21206 0.83273 0.63814 0.0
C506 C 0.17957 0.89095 0.61519 0.0
C507 C 0.15751 0.88202 0.59015 0.0
C508 C 0.18068 0.91513 0.63152 0.0
C509 C 0.20168 0.92439 0.65935 0.0
C510 C 0.20095 0.90595 0.68117 0.0
C511 C 0.22121 0.9146 0.70712 0.0
C512 C 0.2421 0.94175 0.71163 0.0
C513 C 0.24272 0.96032 0.69022 0.0
C514 C 0.22257 0.95175 0.66419 0.0
C515 C 0.06653 0.9424 0.57412 0.0
C516 C 0.07938 0.96999 0.56694 0.0
C517 C 0.08593 0.92683 0.58423 0.0
C518 C 0.11845 0.93863 0.58742 0.0
C519 C 0.13134 0.96648 0.58128 0.0
C520 C 0.11198 0.98199 0.57096 0.0
C521 C 0.13912 0.92177 0.59644 0.0
C522 C 0.16077 0.93043 0.62167 0.0
C523 C 0.13733 0.89721 0.5805 0.0
C524 C 0.11524 0.88741 0.55335 0.0
C525 C 0.1157 0.90494 0.53073 0.0
C526 C 0.09424 0.89583 0.50552 0.0
C527 C 0.07236 0.86913 0.50255 0.0
C528 C 0.07202 0.85144 0.52476 0.0
C529 C 0.09341 0.86047 0.55005 0.0
H530 H 0.05572 0.86214 0.48303 0.0
H531 H 0.25777 0.9484 0.73174 0.0
H532 H 0.6818 0.40427 0.85833 0.0
H533 H 0.73367 0.42904 0.88548 0.0
H534 H 0.75977 0.35434 0.87887 0.0
H535 H 0.70795 0.32947 0.85235 0.0
H536 H 0.77669 0.37453 0.93021 0.0
H537 H 0.7851 0.41287 0.84058 0.0
H538 H 0.77395 0.43754 0.79822 0.0
H539 H 0.79372 0.51307 0.8507 0.0
H540 H 0.80351 0.48862 0.89358 0.0
H541 H 0.94793 0.47528 0.94954 0.0
H542 H 0.89647 0.45513 0.92028 0.0
H543 H 0.85455 0.44284 0.99615 0.0
H544 H 0.90631 0.46182 0.02553 0.0
H545 H 0.84584 0.46658 0.90986 0.0
H546 H 0.79077 0.38618 0.98713 0.0
H547 H 0.80713 0.35878 0.02522 0.0
H548 H 0.88843 0.3623 0.98895 0.0
H549 H 0.87235 0.38941 0.95047 0.0
C550 C 0.69877 0.39327 0.86239 0.0
C551 C 0.69071 0.36485 0.85333 0.0
C552 C 0.72844 0.40746 0.8779 0.0
C553 C 0.75081 0.39367 0.88426 0.0
C554 C 0.74295 0.36547 0.87453 0.0
C555 C 0.71329 0.35124 0.85933 0.0
C556 C 0.78191 0.40798 0.90207 0.0
C557 C 0.7917 0.39471 0.92568 0.0
C558 C 0.8019 0.4342 0.89615 0.0
C559 C 0.79453 0.44869 0.87045 0.0
C560 C 0.78641 0.43458 0.84322 0.0
C561 C 0.78034 0.44856 0.81908 0.0
C562 C 0.78288 0.47681 0.82179 0.0
C563 C 0.79152 0.49114 0.84865 0.0
C564 C 0.79714 0.47718 0.87291 0.0
C565 C 0.92772 0.46826 0.95998 0.0
C566 C 0.93116 0.46971 0.98984 0.0
C567 C 0.89825 0.45685 0.94321 0.0
C568 C 0.87149 0.44692 0.9559 0.0
C569 C 0.87481 0.44961 0.98577 0.0
C570 C 0.90438 0.4606 1.00258 0.0
C571 C 0.84041 0.43311 0.93785 0.0
C572 C 0.8306 0.44651 0.91436 0.0
C573 C 0.82078 0.40659 0.94324 0.0
C574 C 0.83052 0.39008 0.96613 0.0
C575 C 0.81208 0.38103 0.98726 0.0
C576 C 0.82132 0.36557 1.00891 0.0
C577 C 0.84886 0.35889 1.00956 0.0
C578 C 0.86717 0.36758 0.98849 0.0
C579 C 0.85802 0.38301 0.96677 0.0
H580 H 0.85598 0.34694 0.02635 0.0
H581 H 0.77834 0.48765 0.80307 0.0
H582 H 0.7915 0.66706 0.34688 0.0
H583 H 0.74872 0.6462 0.37249 0.0
H584 H 0.77031 0.56903 0.37233 0.0
H585 H 0.81374 0.5901 0.3465 0.0
H586 H 0.7067 0.55823 0.36499 0.0
H587 H 0.79297 0.61534 0.43226 0.0
H588 H 0.83546 0.65835 0.45126 0.0
H589 H 0.76894 0.70222 0.45348 0.0
H590 H 0.72607 0.65957 0.43405 0.0
H591 H 0.61063 0.5046 0.47025 0.0
H592 H 0.65361 0.52025 0.44332 0.0
H593 H 0.64917 0.60416 0.4497 0.0
H594 H 0.60728 0.58881 0.47779 0.0
H595 H 0.70607 0.60951 0.45455 0.0
H596 H 0.61965 0.55279 0.38599 0.0
H597 H 0.57708 0.50974 0.36708 0.0
H598 H 0.64328 0.46532 0.36661 0.0
H599 H 0.68617 0.50791 0.38617 0.0
C600 C 0.78729 0.64558 0.35213 0.0
C601 C 0.80681 0.63059 0.34472 0.0
C602 C 0.7626 0.63359 0.36699 0.0
C603 C 0.75624 0.60604 0.37529 0.0
C604 C 0.77452 0.59037 0.36659 0.0
C605 C 0.79943 0.60245 0.3516 0.0
C606 C 0.73131 0.59436 0.39369 0.0
C607 C 0.70688 0.5693 0.38477 0.0
C608 C 0.73065 0.60871 0.41946 0.0
C609 C 0.75633 0.63431 0.43147 0.0
C610 C 0.78742 0.63421 0.43663 0.0
C611 C 0.81157 0.65852 0.44749 0.0
C612 C 0.80491 0.68302 0.45351 0.0
C613 C 0.77407 0.68323 0.44877 0.0
C614 C 0.74983 0.65899 0.43785 0.0
C615 C 0.61881 0.52644 0.46606 0.0
C616 C 0.6051 0.5453 0.47652 0.0
C617 C 0.64345 0.53544 0.45024 0.0
C618 C 0.65488 0.56354 0.44349 0.0
C619 C 0.64132 0.58239 0.45423 0.0
C620 C 0.61708 0.57351 0.47045 0.0
C621 C 0.68089 0.57351 0.42571 0.0
C622 C 0.70569 0.59832 0.43478 0.0
C623 C 0.68176 0.55894 0.40005 0.0
C624 C 0.65607 0.53347 0.3878 0.0
C625 C 0.6251 0.5338 0.38198 0.0
C626 C 0.60092 0.50949 0.37114 0.0
C627 C 0.60747 0.48483 0.36563 0.0
C628 C 0.63823 0.48443 0.37091 0.0
C629 C 0.66249 0.50864 0.3819 0.0
H630 H 0.58871 0.46604 0.35725 0.0
H631 H 0.82365 0.70183 0.46191 0.0
H632 H 0.34302 0.3867 0.2678 0.0
H633 H 0.31094 0.40977 0.2381 0.0
H634 H 0.30911 0.35741 0.16485 0.0
H635 H 0.34093 0.3343 0.19422 0.0
H636 H 0.30686 0.40903 0.14978 0.0
H637 H 0.25512 0.33479 0.20479 0.0
H638 H 0.24727 0.31168 0.24937 0.0
H639 H 0.22754 0.38211 0.28423 0.0
H640 H 0.23578 0.40585 0.23994 0.0
H641 H 0.1262 0.3786 0.11016 0.0
H642 H 0.17252 0.36864 0.13393 0.0
H643 H 0.22781 0.45441 0.12935 0.0
H644 H 0.18169 0.46433 0.10505 0.0
H645 H 0.20546 0.38871 0.18381 0.0
H646 H 0.30381 0.4579 0.12906 0.0
H647 H 0.31106 0.47617 0.08212 0.0
H648 H 0.23374 0.40691 0.04157 0.0
H649 H 0.2263 0.38805 0.0882 0.0
C650 C 0.33649 0.38068 0.24521 0.0
C651 C 0.34414 0.35844 0.23344 0.0
C652 C 0.31827 0.39391 0.22827 0.0
C653 C 0.30721 0.38489 0.19943 0.0
C654 C 0.31742 0.36468 0.18706 0.0
C655 C 0.3357 0.35151 0.20393 0.0
C656 C 0.28126 0.39292 0.18336 0.0
C657 C 0.28477 0.40493 0.1573 0.0
C658 C 0.2522 0.38673 0.19284 0.0
C659 C 0.24639 0.37221 0.21919 0.0
C660 C 0.24926 0.34541 0.22202 0.0
C661 C 0.24476 0.3322 0.24723 0.0
C662 C 0.23702 0.34546 0.26966 0.0
C663 C 0.23361 0.3719 0.26686 0.0
C664 C 0.23819 0.38524 0.2417 0.0
C665 C 0.14829 0.39527 0.11401 0.0
C666 C 0.15023 0.4223 0.10597 0.0
C667 C 0.17473 0.38957 0.12761 0.0
C668 C 0.20363 0.41079 0.13351 0.0
C669 C 0.20585 0.43762 0.12474 0.0
C670 C 0.17944 0.44327 0.11086 0.0
C671 C 0.23092 0.40499 0.15009 0.0
C672 C 0.22763 0.39329 0.17636 0.0
C673 C 0.25985 0.41079 0.14036 0.0
C674 C 0.26431 0.42176 0.11216 0.0
C675 C 0.28843 0.44653 0.11011 0.0
C676 C 0.29256 0.45699 0.08356 0.0
C677 C 0.2728 0.44276 0.05889 0.0
C678 C 0.24894 0.41798 0.0607 0.0
C679 C 0.24473 0.40742 0.0872 0.0
H680 H 0.27602 0.4509 0.03836 0.0
H681 H 0.23358 0.33521 0.28919 0.0
H682 H 0.61441 0.29714 0.89181 0.0
H683 H 0.59685 0.2526 0.91287 0.0
H684 H 0.55587 0.21141 0.82964 0.0
H685 H 0.57466 0.25622 0.80797 0.0
H686 H 0.51813 0.19486 0.87812 0.0
H687 H 0.61894 0.2031 0.85327 0.0
H688 H 0.67439 0.22804 0.85239 0.0
H689 H 0.69364 0.23455 0.94377 0.0
H690 H 0.63817 0.21004 0.94519 0.0
H691 H 0.49243 0.05981 0.9295 0.0
H692 H 0.50621 0.10052 0.90146 0.0
H693 H 0.58094 0.14346 0.96957 0.0
H694 H 0.56838 0.10185 0.99677 0.0
H695 H 0.60092 0.15834 0.92504 0.0
H696 H 0.50355 0.15491 0.95268 0.0
H697 H 0.44831 0.13393 0.95738 0.0
H698 H 0.4224 0.12251 0.8664 0.0
H699 H 0.47755 0.14315 0.86117 0.0
C700 C 0.60175 0.27869 0.87776 0.0
C701 C 0.59666 0.28042 0.84796 0.0
C702 C 0.59155 0.25315 0.88998 0.0
C703 C 0.57538 0.22845 0.87293 0.0
C704 C 0.56842 0.23015 0.8433 0.0
C705 C 0.57906 0.25585 0.83091 0.0
C706 C 0.56738 0.20103 0.88636 0.0
C707 C 0.53614 0.18654 0.88791 0.0
C708 C 0.59088 0.19063 0.90015 0.0
C709 C 0.62434 0.20493 0.89933 0.0
C710 C 0.63495 0.21003 0.87318 0.0
C711 C 0.66639 0.22407 0.87258 0.0
C712 C 0.68752 0.23293 0.89801 0.0
C713 C 0.67725 0.22769 0.92409 0.0
C714 C 0.64581 0.21371 0.9248 0.0
C715 C 0.51196 0.07789 0.9384 0.0
C716 C 0.52922 0.07757 0.96545 0.0
C717 C 0.51967 0.10142 0.92243 0.0
C718 C 0.54417 0.12583 0.93345 0.0
C719 C 0.56185 0.12521 0.96032 0.0
C720 C 0.55465 0.10135 0.97599 0.0
C721 C 0.5514 0.15184 0.91713 0.0
C722 C 0.58265 0.16628 0.91511 0.0
C723 C 0.52789 0.16253 0.90348 0.0
C724 C 0.4947 0.15031 0.90655 0.0
C725 C 0.48609 0.14778 0.93368 0.0
C726 C 0.45479 0.13597 0.93644 0.0
C727 C 0.43187 0.12682 0.91221 0.0
C728 C 0.44018 0.12956 0.88515 0.0
C729 C 0.47145 0.14134 0.88228 0.0
H730 H 0.40766 0.11767 0.91439 0.0
H731 H 0.71185 0.24381 0.8975 0.0
H732 H 0.9002 0.73928 0.31148 0.0
H733 H 0.92092 0.78625 0.33582 0.0
H734 H 0.92255 0.75013 0.41704 0.0
H735 H 0.90074 0.70344 0.39273 0.0
H736 H 0.90317 0.79041 0.42359 0.0
H737 H 0.99167 0.78607 0.38417 0.0
H738 H 0.02096 0.77922 0.34683 0.0
H739 H 0.99924 0.84567 0.30234 0.0
H740 H 0.96948 0.85269 0.33925 0.0
H741 H 0.99335 0.9195 0.50575 0.0
H742 H 0.97557 0.87224 0.48195 0.0
H743 H 0.96157 0.9065 0.40075 0.0
H744 H 0.97959 0.95358 0.42437 0.0
H745 H 0.98811 0.86737 0.39503 0.0
H746 H 0.89961 0.87095 0.43687 0.0
H747 H 0.87347 0.87808 0.4766 0.0
H748 H 0.89898 0.8124 0.51932 0.0
H749 H 0.92564 0.80512 0.48 0.0
C750 C 0.90553 0.74134 0.33451 0.0
C751 C 0.89886 0.71728 0.34996 0.0
C752 C 0.91749 0.76842 0.3486 0.0
C753 C 0.9239 0.77244 0.37869 0.0
C754 C 0.91788 0.74825 0.39399 0.0
C755 C 0.90553 0.72131 0.37996 0.0
C756 C 0.93581 0.80146 0.39429 0.0
C757 C 0.92209 0.80697 0.41742 0.0
C758 C 0.96024 0.82387 0.38655 0.0
C759 C 0.97808 0.8197 0.36432 0.0
C760 C 0.99295 0.79908 0.36632 0.0
C761 C 1.00967 0.79519 0.34525 0.0
C762 C 1.01189 0.81194 0.32219 0.0
C763 C 0.99746 0.83268 0.32019 0.0
C764 C 0.98069 0.83664 0.34119 0.0
C765 C 0.98628 0.91698 0.48284 0.0
C766 C 0.98785 0.94063 0.46714 0.0
C767 C 0.97598 0.88977 0.46914 0.0
C768 C 0.96673 0.88525 0.43927 0.0
C769 C 0.96845 0.90895 0.42368 0.0
C770 C 0.97869 0.93606 0.43733 0.0
C771 C 0.95545 0.85615 0.42415 0.0
C772 C 0.96925 0.85069 0.40113 0.0
C773 C 0.93142 0.83369 0.43225 0.0
C774 C 0.91486 0.83767 0.45561 0.0
C775 C 0.89978 0.85812 0.4548 0.0
C776 C 0.88486 0.86218 0.47725 0.0
C777 C 0.88464 0.84576 0.50051 0.0
C778 C 0.89921 0.82514 0.50131 0.0
C779 C 0.9142 0.82101 0.47894 0.0
H780 H 0.87314 0.84898 0.5179 0.0
H781 H 0.02484 0.8089 0.3059 0.0
H782 H 0.29251 0.75083 0.69089 0.0
H783 H 0.31888 0.71859 0.67675 0.0
H784 H 0.33532 0.76196 0.6008 0.0
H785 H 0.30878 0.79424 0.61484 0.0
H786 H 0.32571 0.70466 0.59248 0.0
H787 H 0.38798 0.78303 0.65729 0.0
H788 H 0.39885 0.81378 0.70104 0.0
H789 H 0.4006 0.7449 0.75193 0.0
H790 H 0.38905 0.71357 0.70841 0.0
H791 H 0.49351 0.69786 0.60999 0.0
H792 H 0.45642 0.71999 0.62295 0.0
H793 H 0.38434 0.63996 0.61215 0.0
H794 H 0.42094 0.61789 0.59808 0.0
H795 H 0.42094 0.71512 0.66356 0.0
H796 H 0.31653 0.64874 0.58104 0.0
H797 H 0.30672 0.62134 0.53515 0.0
H798 H 0.39422 0.67305 0.51589 0.0
H799 H 0.40436 0.70093 0.56148 0.0
C800 C 0.30094 0.75293 0.67076 0.0
C801 C 0.29902 0.77518 0.6541 0.0
C802 C 0.31599 0.73455 0.66273 0.0
C803 C 0.32957 0.7383 0.63805 0.0
C804 C 0.32503 0.7588 0.61996 0.0
C805 C 0.30983 0.77717 0.62795 0.0
C806 C 0.35198 0.7236 0.63327 0.0
C807 C 0.34639 0.70672 0.60809 0.0
C808 C 0.37935 0.72693 0.65338 0.0
C809 C 0.38736 0.7459 0.67959 0.0
C810 C 0.39052 0.7744 0.67781 0.0
C811 C 0.39678 0.79193 0.70255 0.0
C812 C 0.40035 0.78129 0.72924 0.0
C813 C 0.39778 0.7531 0.73123 0.0
C814 C 0.39137 0.73544 0.70653 0.0
C815 C 0.46979 0.68496 0.61046 0.0
C816 C 0.4601 0.65615 0.60271 0.0
C817 C 0.44869 0.6976 0.6181 0.0
C818 C 0.41752 0.68169 0.61808 0.0
C819 C 0.40819 0.65269 0.61189 0.0
C820 C 0.42924 0.64006 0.60415 0.0
C821 C 0.39446 0.69571 0.62293 0.0
C822 C 0.40004 0.71266 0.64811 0.0
C823 C 0.36746 0.69295 0.60252 0.0
C824 C 0.36129 0.67672 0.57478 0.0
C825 C 0.33359 0.65432 0.56694 0.0
C826 C 0.32799 0.6387 0.541 0.0
C827 C 0.34987 0.6454 0.52266 0.0
C828 C 0.37734 0.66782 0.53016 0.0
C829 C 0.38303 0.68352 0.55605 0.0
H830 H 0.34551 0.63326 0.50261 0.0
H831 H 0.40518 0.7949 0.74836 0.0
H832 H 0.71178 0.69574 0.7046 0.0
H833 H 0.74587 0.72257 0.67299 0.0
H834 H 0.74296 0.79923 0.71217 0.0
H835 H 0.70988 0.77293 0.74402 0.0
H836 H 0.73389 0.79861 0.65396 0.0
H837 H 0.80416 0.77723 0.73068 0.0
H838 H 0.82423 0.74531 0.76063 0.0
H839 H 0.84276 0.70744 0.68674 0.0
H840 H 0.82233 0.7389 0.65628 0.0
H841 H 0.86117 0.91124 0.63886 0.0
H842 H 0.82605 0.87211 0.65849 0.0
H843 H 0.84438 0.81444 0.60101 0.0
H844 H 0.87954 0.85385 0.58074 0.0
H845 H 0.84286 0.79789 0.65898 0.0
H846 H 0.7795 0.82577 0.58353 0.0
H847 H 0.76058 0.85942 0.55537 0.0
H848 H 0.72948 0.88612 0.62824 0.0
H849 H 0.74867 0.85294 0.65698 0.0
C850 C 0.71845 0.71831 0.70643 0.0
C851 C 0.70776 0.73215 0.72661 0.0
C852 C 0.73785 0.73357 0.68835 0.0
C853 C 0.74684 0.76286 0.69023 0.0
C854 C 0.736 0.77663 0.71015 0.0
C855 C 0.71687 0.7615 0.72825 0.0
C856 C 0.76804 0.77969 0.67204 0.0
C857 C 0.75769 0.79841 0.655 0.0
C858 C 0.79882 0.77886 0.67284 0.0
C859 C 0.81134 0.76015 0.69116 0.0
C860 C 0.81226 0.76193 0.72079 0.0
C861 C 0.82374 0.74395 0.73786 0.0
C862 C 0.83466 0.72429 0.72558 0.0
C863 C 0.83422 0.72264 0.69621 0.0
C864 C 0.8227 0.74053 0.67903 0.0
C865 C 0.85767 0.89027 0.63023 0.0
C866 C 0.8727 0.88566 0.6079 0.0
C867 C 0.83772 0.86793 0.64159 0.0
C868 C 0.83229 0.84046 0.63088 0.0
C869 C 0.84824 0.83554 0.60945 0.0
C870 C 0.86829 0.85803 0.59795 0.0
C871 C 0.80892 0.81738 0.64171 0.0
C872 C 0.81882 0.79754 0.65733 0.0
C873 C 0.77769 0.81721 0.63976 0.0
C874 C 0.76566 0.83693 0.62244 0.0
C875 C 0.76879 0.83893 0.5936 0.0
C876 C 0.758 0.85791 0.57753 0.0
C877 C 0.74386 0.87491 0.59002 0.0
C878 C 0.74042 0.87292 0.61859 0.0
C879 C 0.75121 0.854 0.63477 0.0
H880 H 0.73554 0.88961 0.57754 0.0
H881 H 0.84354 0.71039 0.73883 0.0
H882 H 0.76174 0.17813 0.28504 0.0
H883 H 0.73477 0.15748 0.23762 0.0
H884 H 0.647 0.15677 0.26085 0.0
H885 H 0.67315 0.17496 0.3087 0.0
H886 H 0.63888 0.11051 0.23522 0.0
H887 H 0.68762 0.20501 0.21542 0.0
H888 H 0.73099 0.24857 0.21516 0.0
H889 H 0.77553 0.20543 0.16588 0.0
H890 H 0.7326 0.1615 0.16617 0.0
H891 H 0.54584 0.07948 0.10032 0.0
H892 H 0.57674 0.10728 0.14346 0.0
H893 H 0.65986 0.09505 0.12129 0.0
H894 H 0.62917 0.06789 0.07748 0.0
H895 H 0.67137 0.1478 0.14546 0.0
H896 H 0.61747 0.05245 0.16629 0.0
H897 H 0.57 0.01214 0.16518 0.0
H898 H 0.53086 0.06186 0.21269 0.0
H899 H 0.57787 0.10257 0.21365 0.0
C900 C 0.73666 0.17332 0.28016 0.0
C901 C 0.71974 0.17841 0.3008 0.0
C902 C 0.72131 0.1619 0.25285 0.0
C903 C 0.68887 0.15592 0.24547 0.0
C904 C 0.67205 0.16126 0.26594 0.0
C905 C 0.6872 0.17208 0.2933 0.0
C906 C 0.67196 0.14288 0.21695 0.0
C907 C 0.64585 0.11897 0.21565 0.0
C908 C 0.68122 0.15354 0.19131 0.0
C909 C 0.70706 0.1799 0.19108 0.0
C910 C 0.70679 0.20476 0.20472 0.0
C911 C 0.73126 0.22953 0.20454 0.0
C912 C 0.75604 0.22975 0.19059 0.0
C913 C 0.75635 0.20521 0.17672 0.0
C914 C 0.73194 0.18038 0.17687 0.0
C915 C 0.57076 0.08295 0.10447 0.0
C916 C 0.58507 0.07119 0.08578 0.0
C917 C 0.58837 0.09882 0.12912 0.0
C918 C 0.62045 0.10266 0.13587 0.0
C919 C 0.63509 0.09219 0.11652 0.0
C920 C 0.61753 0.07662 0.09158 0.0
C921 C 0.63823 0.11585 0.16398 0.0
C922 C 0.66455 0.13954 0.16515 0.0
C923 C 0.62878 0.10544 0.18959 0.0
C924 C 0.60109 0.08058 0.18987 0.0
C925 C 0.59871 0.05478 0.17644 0.0
C926 C 0.57187 0.03187 0.17583 0.0
C927 C 0.54741 0.03447 0.18883 0.0
C928 C 0.54982 0.0599 0.20262 0.0
C929 C 0.57655 0.08288 0.20322 0.0
H930 H 0.52654 0.01684 0.18823 0.0
H931 H 0.77497 0.24894 0.19046 0.0
H932 H 0.38959 0.66502 0.28254 0.0
H933 H 0.40701 0.64124 0.32255 0.0
H934 H 0.49921 0.66492 0.30066 0.0
H935 H 0.4814 0.68818 0.25963 0.0
H936 H 0.48364 0.61249 0.31232 0.0
H937 H 0.48234 0.69464 0.36124 0.0
H938 H 0.46139 0.73162 0.37487 0.0
H939 H 0.38743 0.67071 0.40621 0.0
H940 H 0.40767 0.63329 0.39239 0.0
H941 H 0.51615 0.57862 0.47316 0.0
H942 H 0.50862 0.61161 0.43763 0.0
H943 H 0.4557 0.54252 0.37702 0.0
H944 H 0.46322 0.50975 0.41232 0.0
H945 H 0.45998 0.62322 0.40922 0.0
H946 H 0.467 0.55779 0.31005 0.0
H947 H 0.49388 0.52475 0.29788 0.0
H948 H 0.56638 0.55884 0.3698 0.0
H949 H 0.54021 0.59231 0.38216 0.0
C950 C 0.41366 0.66531 0.28616 0.0
C951 C 0.43397 0.67844 0.2675 0.0
C952 C 0.42373 0.65184 0.30939 0.0
C953 C 0.45461 0.65127 0.3151 0.0
C954 C 0.47525 0.66494 0.29692 0.0
C955 C 0.46513 0.67851 0.27354 0.0
C956 C 0.46458 0.6353 0.33917 0.0
C957 C 0.47849 0.61497 0.33349 0.0
C958 C 0.4587 0.63869 0.36721 0.0
C959 C 0.44641 0.66112 0.37557 0.0
C960 C 0.46147 0.6891 0.37084 0.0
C961 C 0.44974 0.71015 0.37863 0.0
C962 C 0.42306 0.70351 0.39134 0.0
C963 C 0.40808 0.67582 0.39634 0.0
C964 C 0.4197 0.65468 0.38856 0.0
C965 C 0.50254 0.5705 0.45242 0.0
C966 C 0.49004 0.54148 0.44577 0.0
C967 C 0.49835 0.58941 0.43198 0.0
C968 C 0.48187 0.57977 0.40429 0.0
C969 C 0.46901 0.55074 0.3979 0.0
C970 C 0.47317 0.53193 0.41825 0.0
C971 C 0.47795 0.59977 0.38203 0.0
C972 C 0.46519 0.62083 0.38806 0.0
C973 C 0.4855 0.59746 0.35447 0.0
C974 C 0.50146 0.5774 0.34716 0.0
C975 C 0.48873 0.5583 0.32321 0.0
C976 C 0.50385 0.53948 0.31628 0.0
C977 C 0.53179 0.53964 0.33308 0.0
C978 C 0.5447 0.55865 0.35684 0.0
C979 C 0.5297 0.57753 0.36384 0.0
H980 H 0.54347 0.52509 0.32761 0.0
H981 H 0.41402 0.71984 0.39736 0.0
H982 H 0.14912 0.35529 0.78816 0.0
H983 H 0.13076 0.37376 0.82734 0.0
H984 H 0.14312 0.45159 0.7878 0.0
H985 H 0.16288 0.43345 0.74911 0.0
H986 H 0.1562 0.46617 0.83931 0.0
H987 H 0.0663 0.39451 0.79155 0.0
H988 H 0.03475 0.34736 0.77058 0.0
H989 H 0.04798 0.31403 0.85203 0.0
H990 H 0.07994 0.36095 0.87342 0.0
H991 H 0.05798 0.51294 0.92081 0.0
H992 H 0.079 0.49455 0.88324 0.0
H993 H 0.08998 0.42825 0.93495 0.0
H994 H 0.06947 0.44699 0.973 0.0
H995 H 0.06473 0.40788 0.87807 0.0
H996 H 0.1533 0.48254 0.9251 0.0
H997 H 0.18185 0.53094 0.94424 0.0
H998 H 0.16682 0.56003 0.86087 0.0
H999 H 0.13777 0.51182 0.84128 0.0
C1000 C 0.14786 0.37633 0.78753 0.0
C1001 C 0.15758 0.39252 0.76475 0.0
C1002 C 0.13694 0.38701 0.81021 0.0
C1003 C 0.13427 0.41422 0.811 0.0
C1004 C 0.14448 0.43058 0.78844 0.0
C1005 C 0.15595 0.42006 0.76598 0.0
C1006 C 0.12134 0.42559 0.83515 0.0
C1007 C 0.13588 0.45328 0.84726 0.0
C1008 C 0.09496 0.4094 0.84676 0.0
C1009 C 0.07579 0.38119 0.83401 0.0
C1010 C 0.06265 0.37709 0.80495 0.0
C1011 C 0.04467 0.35042 0.79299 0.0
C1012 C 0.03944 0.3277 0.80995 0.0
C1013 C 0.0521 0.33163 0.83892 0.0
C1014 C 0.07013 0.35826 0.85097 0.0
C1015 C 0.06495 0.4945 0.92446 0.0
C1016 C 0.06185 0.48176 0.9505 0.0
C1017 C 0.07718 0.48391 0.9027 0.0
C1018 C 0.08653 0.45978 0.90568 0.0
C1019 C 0.08316 0.44681 0.93156 0.0
C1020 C 0.07144 0.45772 0.9536 0.0
C1021 C 0.09959 0.44825 0.88194 0.0
C1022 C 0.08504 0.42061 0.86997 0.0
C1023 C 0.12553 0.46463 0.87009 0.0
C1024 C 0.1431 0.4936 0.88178 0.0
C1025 C 0.15587 0.49928 0.91088 0.0
C1026 C 0.17218 0.52668 0.92181 0.0
C1027 C 0.17608 0.54856 0.90379 0.0
C1028 C 0.16374 0.54307 0.8748 0.0
C1029 C 0.14737 0.51571 0.86377 0.0
H1030 H 0.18872 0.56976 0.91229 0.0
H1031 H 0.02552 0.30707 0.80065 0.0
H1032 H 0.64886 0.72479 0.83394 0.0
H1033 H 0.62544 0.75618 0.85422 0.0
H1034 H 0.58419 0.76909 0.7701 0.0
H1035 H 0.60679 0.73676 0.74946 0.0
H1036 H 0.62195 0.8177 0.8003 0.0
H1037 H 0.53704 0.7399 0.81532 0.0
H1038 H 0.51105 0.69331 0.83053 0.0
H1039 H 0.55531 0.72025 0.91699 0.0
H1040 H 0.58195 0.7669 0.90226 0.0
H1041 H 0.57494 0.92174 0.86603 0.0
H1042 H 0.57167 0.87987 0.83748 0.0
H1043 H 0.6082 0.84632 0.91256 0.0
H1044 H 0.60998 0.88735 0.94146 0.0
H1045 H 0.56284 0.80628 0.88057 0.0
H1046 H 0.65485 0.87947 0.86476 0.0
H1047 H 0.6838 0.92576 0.85072 0.0
H1048 H 0.62891 0.90682 0.76692 0.0
H1049 H 0.59937 0.86052 0.78061 0.0
C1050 C 0.63377 0.7333 0.81969 0.0
C1051 C 0.62992 0.72834 0.78998 0.0
C1052 C 0.62046 0.7514 0.83138 0.0
C1053 C 0.60311 0.76498 0.81366 0.0
C1054 C 0.59758 0.75882 0.78412 0.0
C1055 C 0.61063 0.74046 0.77239 0.0
C1056 C 0.59474 0.78828 0.8259 0.0
C1057 C 0.60828 0.81513 0.81734 0.0
C1058 C 0.57764 0.78494 0.84861 0.0
C1059 C 0.56165 0.75689 0.85763 0.0
C1060 C 0.54143 0.73585 0.83755 0.0
C1061 C 0.52654 0.70943 0.84609 0.0
C1062 C 0.53155 0.70381 0.8747 0.0
C1063 C 0.55144 0.72463 0.89483 0.0
C1064 C 0.56641 0.75108 0.8864 0.0
C1065 C 0.58188 0.90529 0.87655 0.0
C1066 C 0.59301 0.90806 0.90603 0.0
C1067 C 0.58021 0.88146 0.86015 0.0
C1068 C 0.59004 0.86011 0.87283 0.0
C1069 C 0.60053 0.86255 0.9023 0.0
C1070 C 0.60197 0.88623 0.91874 0.0
C1071 C 0.59072 0.8357 0.85541 0.0
C1072 C 0.57584 0.80874 0.86307 0.0
C1073 C 0.60692 0.8389 0.83205 0.0
C1074 C 0.62465 0.86671 0.82381 0.0
C1075 C 0.64879 0.88528 0.84341 0.0
C1076 C 0.66533 0.91149 0.83551 0.0
C1077 C 0.65812 0.91926 0.80797 0.0
C1078 C 0.63442 0.9008 0.78826 0.0
C1079 C 0.61777 0.87457 0.79607 0.0
H1080 H 0.67096 0.93956 0.80189 0.0
H1081 H 0.52 0.68334 0.88127 0.0
H1082 H 0.77476 0.16362 0.4215 0.0
H1083 H 0.81312 0.14154 0.44175 0.0
H1084 H 0.86749 0.17223 0.37593 0.0
H1085 H 0.82834 0.19326 0.35498 0.0
H1086 H 0.86336 0.12125 0.38033 0.0
H1087 H 0.89073 0.19879 0.44859 0.0
H1088 H 0.88248 0.23144 0.48338 0.0
H1089 H 0.84887 0.16403 0.53565 0.0
H1090 H 0.85651 0.13089 0.50098 0.0
H1091 H 0.99525 0.08424 0.45119 0.0
H1092 H 0.96205 0.11167 0.43139 0.0
H1093 H 0.89019 0.06629 0.47726 0.0
H1094 H 0.92282 0.03849 0.49667 0.0
H1095 H 0.90679 0.12705 0.48308 0.0
H1096 H 0.87821 0.04986 0.41153 0.0
H1097 H 0.88925 0.01905 0.37666 0.0
H1098 H 0.92957 0.08972 0.33061 0.0
H1099 H 0.91916 0.12102 0.36548 0.0
C1100 C 0.79521 0.16601 0.41171 0.0
C1101 C 0.79874 0.18018 0.38679 0.0
C1102 C 0.81718 0.15347 0.42331 0.0
C1103 C 0.84351 0.15546 0.4106 0.0
C1104 C 0.84741 0.17033 0.38612 0.0
C1105 C 0.82515 0.18242 0.37423 0.0
C1106 C 0.86589 0.14062 0.42179 0.0
C1107 C 0.87327 0.12301 0.40274 0.0
C1108 C 0.87857 0.14245 0.45111 0.0
C1109 C 0.87395 0.16231 0.47204 0.0
C1110 C 0.88136 0.19089 0.4674 0.0
C1111 C 0.87683 0.20949 0.48711 0.0
C1112 C 0.86509 0.1998 0.51167 0.0
C1113 C 0.85793 0.1715 0.5166 0.0
C1114 C 0.86239 0.1528 0.49694 0.0
C1115 C 0.97228 0.07998 0.45686 0.0
C1116 C 0.96159 0.05915 0.47539 0.0
C1117 C 0.9534 0.09566 0.44558 0.0
C1118 C 0.92376 0.09099 0.45297 0.0
C1119 C 0.91305 0.07022 0.47141 0.0
C1120 C 0.93165 0.05425 0.48231 0.0
C1121 C 0.90386 0.10782 0.44163 0.0
C1122 C 0.897 0.12569 0.46067 0.0
C1123 C 0.89208 0.10662 0.41229 0.0
C1124 C 0.89825 0.08781 0.39129 0.0
C1125 C 0.8897 0.05886 0.39412 0.0
C1126 C 0.89579 0.04131 0.37433 0.0
C1127 C 0.91019 0.05243 0.35148 0.0
C1128 C 0.91847 0.08114 0.34835 0.0
C1129 C 0.91246 0.09879 0.36811 0.0
H1130 H 0.91487 0.03881 0.33617 0.0
H1131 H 0.8616 0.21424 0.52692 0.0
H1132 H 0.35594 0.62795 0.18363 0.0
H1133 H 0.30515 0.60253 0.15483 0.0
H1134 H 0.27961 0.67794 0.15399 0.0
H1135 H 0.33029 0.70339 0.18225 0.0
H1136 H 0.24595 0.59083 0.16123 0.0
H1137 H 0.23636 0.68139 0.09141 0.0
H1138 H 0.27104 0.72271 0.07307 0.0
H1139 H 0.34267 0.68371 0.07833 0.0
H1140 H 0.30826 0.64198 0.09627 0.0
H1141 H 0.09039 0.5607 0.08836 0.0
H1142 H 0.14199 0.58128 0.11731 0.0
H1143 H 0.18432 0.58337 0.0421 0.0
H1144 H 0.13247 0.56439 1.01291 0.0
H1145 H 0.21216 0.62869 0.0711 0.0
H1146 H 0.18206 0.53371 0.09623 0.0
H1147 H 0.14755 0.4915 0.1132 0.0
H1148 H 0.15836 0.53481 0.19431 0.0
H1149 H 0.19194 0.57773 0.17756 0.0
C1150 C 0.33936 0.63901 0.17745 0.0
C1151 C 0.34728 0.66776 0.18491 0.0
C1152 C 0.31035 0.62448 0.16098 0.0
C1153 C 0.2887 0.6384 0.15172 0.0
C1154 C 0.29615 0.66685 0.16019 0.0
C1155 C 0.32515 0.68138 0.17639 0.0
C1156 C 0.25857 0.62349 0.1328 0.0
C1157 C 0.23855 0.59903 0.14147 0.0
C1158 C 0.24908 0.63387 0.10674 0.0
C1159 C 0.26979 0.65865 0.09542 0.0
C1160 C 0.25945 0.68157 0.08851 0.0
C1161 C 0.27907 0.70507 0.07821 0.0
C1162 C 0.30906 0.70586 0.07461 0.0
C1163 C 0.31946 0.6831 0.08121 0.0
C1164 C 0.29991 0.65952 0.09146 0.0
C1165 C 0.11074 0.56549 0.07805 0.0
C1166 C 0.10747 0.56098 0.04838 0.0
C1167 C 0.14032 0.5771 0.09466 0.0
C1168 C 0.16736 0.58351 0.08211 0.0
C1169 C 0.16398 0.57868 0.05242 0.0
C1170 C 0.13435 0.56774 0.03572 0.0
C1171 C 0.19905 0.59611 0.09965 0.0
C1172 C 0.21945 0.62025 0.09074 0.0
C1173 C 0.20904 0.58509 0.12524 0.0
C1174 C 0.18938 0.55905 0.13553 0.0
C1175 C 0.17695 0.53433 0.11763 0.0
C1176 C 0.15753 0.51025 0.1272 0.0
C1177 C 0.15087 0.5104 0.15481 0.0
C1178 C 0.16355 0.5347 0.17292 0.0
C1179 C 0.18271 0.55895 0.16338 0.0
H1180 H 0.13587 0.49169 0.16214 0.0
H1181 H 0.32418 0.72409 0.06665 0.0
H1182 H 0.20902 0.38287 0.64665 0.0
H1183 H 0.25388 0.40353 0.62361 0.0
H1184 H 0.30513 0.44911 0.70242 0.0
H1185 H 0.26043 0.42713 0.72644 0.0
H1186 H 0.30992 0.48098 0.64758 0.0
H1187 H 0.32492 0.39775 0.68713 0.0
H1188 H 0.30813 0.3476 0.69531 0.0
H1189 H 0.29172 0.32679 0.60525 0.0
H1190 H 0.30796 0.37684 0.59651 0.0
H1191 H 0.45478 0.52479 0.59477 0.0
H1192 H 0.41301 0.50863 0.62281 0.0
H1193 H 0.37216 0.43405 0.56638 0.0
H1194 H 0.41517 0.44945 0.53943 0.0
H1195 H 0.3629 0.41776 0.61307 0.0
H1196 H 0.34267 0.49652 0.57063 0.0
H1197 H 0.3528 0.54525 0.55781 0.0
H1198 H 0.37247 0.57353 0.64628 0.0
H1199 H 0.36275 0.52495 0.65966 0.0
C1200 C 0.2298 0.397 0.65952 0.0
C1201 C 0.23075 0.40248 0.68898 0.0
C1202 C 0.2556 0.4091 0.64601 0.0
C1203 C 0.28342 0.42781 0.66106 0.0
C1204 C 0.28414 0.43472 0.6901 0.0
C1205 C 0.25831 0.42215 0.70388 0.0
C1206 C 0.31165 0.43897 0.64641 0.0
C1207 C 0.32189 0.46726 0.64051 0.0
C1208 C 0.32679 0.42112 0.63592 0.0
C1209 C 0.3174 0.39104 0.64116 0.0
C1210 C 0.3175 0.38248 0.66906 0.0
C1211 C 0.30812 0.35407 0.6738 0.0
C1212 C 0.2988 0.33402 0.65081 0.0
C1213 C 0.29892 0.34234 0.62303 0.0
C1214 C 0.30824 0.37072 0.61818 0.0
C1215 C 0.43683 0.50499 0.58813 0.0
C1216 C 0.43857 0.48868 0.56441 0.0
C1217 C 0.4125 0.49573 0.60423 0.0
C1218 C 0.38823 0.47015 0.5968 0.0
C1219 C 0.39009 0.45384 0.57307 0.0
C1220 C 0.41484 0.4628 0.55737 0.0
C1221 C 0.36151 0.46007 0.61384 0.0
C1222 C 0.35132 0.43179 0.62017 0.0
C1223 C 0.3459 0.47785 0.62405 0.0
C1224 C 0.35229 0.50712 0.61615 0.0
C1225 C 0.34942 0.51315 0.58736 0.0
C1226 C 0.35503 0.54073 0.57999 0.0
C1227 C 0.3633 0.56246 0.60122 0.0
C1228 C 0.36607 0.55667 0.62987 0.0
C1229 C 0.36049 0.52911 0.63736 0.0
H1230 H 0.36739 0.58377 0.59545 0.0
H1231 H 0.29154 0.31204 0.65452 0.0
H1232 H 0.69355 0.68467 0.84094 0.0
H1233 H 0.72233 0.65876 0.8701 0.0
H1234 H 0.72621 0.61195 0.7949 0.0
H1235 H 0.69697 0.6377 0.7654 0.0
H1236 H 0.71839 0.58039 0.84631 0.0
H1237 H 0.78374 0.66465 0.81322 0.0
H1238 H 0.7996 0.71491 0.80556 0.0
H1239 H 0.81458 0.73471 0.89573 0.0
H1240 H 0.79828 0.68448 0.90388 0.0
H1241 H 0.86445 0.55354 0.88462 0.0
H1242 H 0.81757 0.56422 0.86309 0.0
H1243 H 0.82439 0.61621 0.93822 0.0
H1244 H 0.87153 0.60599 0.9597 0.0
H1245 H 0.8233 0.64351 0.88934 0.0
H1246 H 0.76672 0.55819 0.92253 0.0
H1247 H 0.74859 0.50801 0.92994 0.0
H1248 H 0.71548 0.48903 0.84029 0.0
H1249 H 0.73447 0.53905 0.83209 0.0
C1250 C 0.69957 0.66822 0.83064 0.0
C1251 C 0.69312 0.66328 0.80084 0.0
C1252 C 0.71612 0.65353 0.84734 0.0
C1253 C 0.72653 0.63365 0.83458 0.0
C1254 C 0.71826 0.6272 0.80509 0.0
C1255 C 0.70182 0.64204 0.78828 0.0
C1256 C 0.74949 0.62258 0.85148 0.0
C1257 C 0.74151 0.59396 0.85553 0.0
C1258 C 0.77924 0.64063 0.86393 0.0
C1259 C 0.78946 0.67083 0.85913 0.0
C1260 C 0.79017 0.67972 0.8314 0.0
C1261 C 0.79927 0.7082 0.82696 0.0
C1262 C 0.80801 0.72799 0.85014 0.0
C1263 C 0.80775 0.71934 0.8778 0.0
C1264 C 0.7986 0.69088 0.88234 0.0
C1265 C 0.85566 0.56693 0.89669 0.0
C1266 C 0.87179 0.57919 0.92371 0.0
C1267 C 0.82871 0.57273 0.8845 0.0
C1268 C 0.81745 0.59087 0.89913 0.0
C1269 C 0.83266 0.60205 0.92666 0.0
C1270 C 0.8595 0.59613 0.93893 0.0
C1271 C 0.7925 0.60102 0.8843 0.0
C1272 C 0.8002 0.62968 0.88042 0.0
C1273 C 0.76263 0.58283 0.87196 0.0
C1274 C 0.75243 0.55253 0.87665 0.0
C1275 C 0.75614 0.54336 0.90428 0.0
C1276 C 0.7456 0.5149 0.90864 0.0
C1277 C 0.73086 0.49536 0.88561 0.0
C1278 C 0.72681 0.50422 0.85812 0.0
C1279 C 0.7376 0.53263 0.85359 0.0
H1280 H 0.72252 0.47338 0.88906 0.0
H1281 H 0.81505 0.75003 0.84668 0.0
H1282 H 0.39579 0.76455 0.18745 0.0
H1283 H 0.4167 0.80602 0.16243 0.0
H1284 H 0.50734 0.79493 0.17735 0.0
H1285 H 0.4861 0.75225 0.20172 0.0
H1286 H 0.50473 0.85408 0.18552 0.0
H1287 H 0.47142 0.77544 0.11626 0.0
H1288 H 0.4343 0.73186 0.09157 0.0
H1289 H 0.36808 0.77472 0.06509 0.0
H1290 H 0.40464 0.8185 0.09004 0.0
H1291 H 0.56677 0.95095 0.08693 0.0
H1292 H 0.55152 0.91066 0.11512 0.0
H1293 H 0.4548 0.89691 0.08009 0.0
H1294 H 0.47029 0.93678 0.05079 0.0
H1295 H 0.46242 0.84906 0.08254 0.0
H1296 H 0.49051 0.92549 0.15232 0.0
H1297 H 0.52322 0.96946 0.1792 0.0
H1298 H 0.59463 0.93242 0.20662 0.0
H1299 H 0.56224 0.88808 0.17973 0.0
C1300 C 0.42023 0.77076 0.1855 0.0
C1301 C 0.43904 0.75449 0.19621 0.0
C1302 C 0.43218 0.79467 0.17121 0.0
C1303 C 0.46349 0.80349 0.16754 0.0
C1304 C 0.48303 0.7885 0.17977 0.0
C1305 C 0.4709 0.76415 0.19386 0.0
C1306 C 0.47491 0.82758 0.1498 0.0
C1307 C 0.496 0.85285 0.16289 0.0
C1308 C 0.46263 0.82642 0.12045 0.0
C1309 C 0.44068 0.8002 0.10522 0.0
C1310 C 0.44884 0.77553 0.10538 0.0
C1311 C 0.42792 0.7508 0.09131 0.0
C1312 C 0.39884 0.75052 0.07681 0.0
C1313 C 0.39062 0.77497 0.07634 0.0
C1314 C 0.41145 0.79976 0.09043 0.0
C1315 C 0.54221 0.93944 0.08524 0.0
C1316 C 0.51977 0.94725 0.06657 0.0
C1317 C 0.53342 0.91637 0.10163 0.0
C1318 C 0.50183 0.90067 0.10041 0.0
C1319 C 0.47934 0.90846 0.08167 0.0
C1320 C 0.48819 0.9314 0.06494 0.0
C1321 C 0.49242 0.87594 0.11817 0.0
C1322 C 0.47151 0.85044 0.1051 0.0
C1323 C 0.50447 0.87704 0.14768 0.0
C1324 C 0.52411 0.9036 0.16377 0.0
C1325 C 0.51329 0.92678 0.16391 0.0
C1326 C 0.53176 0.95177 0.1792 0.0
C1327 C 0.56109 0.95384 0.19452 0.0
C1328 C 0.57194 0.93082 0.19469 0.0
C1329 C 0.5535 0.90572 0.17948 0.0
H1330 H 0.57537 0.97325 0.20632 0.0
H1331 H 0.38274 0.73137 0.06585 0.0
H1332 H 0.14448 0.32409 0.64838 0.0
H1333 H 0.1232 0.27694 0.62531 0.0
H1334 H 0.12206 0.24281 0.7074 0.0
H1335 H 0.1439 0.29042 0.73078 0.0
H1336 H 0.14513 0.21362 0.67286 0.0
H1337 H 0.05378 0.24219 0.66246 0.0
H1338 H 0.02199 0.27294 0.64914 0.0
H1339 H 0.03353 0.265 0.562 0.0
H1340 H 0.06577 0.2345 0.57487 0.0
H1341 H 0.05934 0.07384 0.61864 0.0
H1342 H 0.07801 0.12051 0.64293 0.0
H1343 H 0.07194 0.15668 0.56193 0.0
H1344 H 0.05228 0.1096 0.53749 0.0
H1345 H 0.05216 0.18482 0.59666 0.0
H1346 H 0.14431 0.1579 0.6062 0.0
H1347 H 0.17721 0.1279 0.61859 0.0
H1348 H 0.16576 0.13362 0.70599 0.0
H1349 H 0.13243 0.16337 0.69405 0.0
C1350 C 0.13957 0.30664 0.66169 0.0
C1351 C 0.14612 0.31143 0.69166 0.0
C1352 C 0.12713 0.27945 0.64833 0.0
C1353 C 0.1206 0.25578 0.66431 0.0
C1354 C 0.12673 0.26043 0.6943 0.0
C1355 C 0.139 0.28781 0.70775 0.0
C1356 C 0.10827 0.2265 0.64961 0.0
C1357 C 0.12447 0.20726 0.65655 0.0
C1358 C 0.08184 0.21795 0.6275 0.0
C1359 C 0.06244 0.23626 0.61969 0.0
C1360 C 0.04975 0.24718 0.6405 0.0
C1361 C 0.03161 0.26453 0.63302 0.0
C1362 C 0.02581 0.27097 0.60475 0.0
C1363 C 0.03807 0.26002 0.58389 0.0
C1364 C 0.05626 0.24268 0.59126 0.0
C1365 C 0.0621 0.09167 0.60585 0.0
C1366 C 0.05432 0.08764 0.57592 0.0
C1367 C 0.07305 0.11862 0.61989 0.0
C1368 C 0.07714 0.14276 0.60458 0.0
C1369 C 0.06926 0.13877 0.57459 0.0
C1370 C 0.0581 0.11169 0.5605 0.0
C1371 C 0.08902 0.17185 0.61987 0.0
C1372 C 0.07278 0.1911 0.613 0.0
C1373 C 0.11557 0.18049 0.6419 0.0
C1374 C 0.13562 0.16263 0.64917 0.0
C1375 C 0.14862 0.15259 0.62802 0.0
C1376 C 0.16737 0.13566 0.63497 0.0
C1377 C 0.1735 0.12879 0.66304 0.0
C1378 C 0.16095 0.13892 0.68424 0.0
C1379 C 0.14215 0.15584 0.67741 0.0
H1380 H 0.18804 0.11568 0.66838 0.0
H1381 H 1.01175 0.28441 0.59901 0.0
H1382 H 0.67605 0.20142 0.38052 0.0
H1383 H 0.64882 0.23184 0.39703 0.0
H1384 H 0.73609 0.29869 0.41778 0.0
H1385 H 0.76362 0.26791 0.40154 0.0
H1386 H 0.69496 0.2971 0.45676 0.0
H1387 H 0.69305 0.29681 0.3557 0.0
H1388 H 0.6845 0.2743 0.30744 0.0
H1389 H 0.58771 0.23523 0.3118 0.0
H1390 H 0.59574 0.25725 0.36024 0.0
H1391 H 0.62258 0.40272 0.45657 0.0
H1392 H 0.65527 0.3755 0.44441 0.0
H1393 H 0.57314 0.30481 0.41624 0.0
H1394 H 0.54019 0.33219 0.42754 0.0
H1395 H 0.61478 0.31092 0.38069 0.0
H1396 H 0.6163 0.30889 0.48167 0.0
H1397 H 0.62418 0.32933 0.53074 0.0
H1398 H 0.72063 0.37127 0.52717 0.0
H1399 H 0.71321 0.35138 0.47789 0.0
C1400 C 0.68948 0.22242 0.38924 0.0
C1401 C 0.7218 0.23252 0.3896 0.0
C1402 C 0.67394 0.23977 0.39854 0.0
C1403 C 0.69037 0.26767 0.40799 0.0
C1404 C 0.72302 0.27725 0.41038 0.0
C1405 C 0.7387 0.25972 0.40121 0.0
C1406 C 0.67295 0.28715 0.41291 0.0
C1407 C 0.67779 0.30053 0.44006 0.0
C1408 C 0.65018 0.29117 0.39116 0.0
C1409 C 0.64506 0.27854 0.36169 0.0
C1410 C 0.66996 0.28334 0.34641 0.0
C1411 C 0.6652 0.27068 0.31901 0.0
C1412 C 0.63557 0.25336 0.30655 0.0
C1413 C 0.61062 0.24872 0.32144 0.0
C1414 C 0.61526 0.26131 0.34886 0.0
C1415 C 0.61141 0.38157 0.44724 0.0
C1416 C 0.57876 0.36957 0.44309 0.0
C1417 C 0.63017 0.36594 0.44062 0.0
C1418 C 0.61666 0.33799 0.42988 0.0
C1419 C 0.58405 0.3263 0.42468 0.0
C1420 C 0.56527 0.34191 0.43129 0.0
C1421 C 0.63647 0.32069 0.42467 0.0
C1422 C 0.63211 0.30772 0.39739 0.0
C1423 C 0.65957 0.317 0.44633 0.0
C1424 C 0.66411 0.3289 0.47599 0.0
C1425 C 0.63913 0.32266 0.49126 0.0
C1426 C 0.64352 0.33411 0.51913 0.0
C1427 C 0.67287 0.35165 0.53204 0.0
C1428 C 0.6979 0.35772 0.51713 0.0
C1429 C 0.69362 0.34635 0.48924 0.0
H1430 H 0.67622 0.36049 0.55361 0.0
H1431 H 0.63194 0.24353 0.28537 0.0
loop_
_geom_bond_atom_site_label_1
_geom_bond_atom_site_label_2
_geom_bond_distance
_geom_bond_site_symmetry_2
_ccdc_geom_bond_type
H0 C3 0.931 . S
H1 C6 0.928 . S
H2 C8 0.930 . S
C3 H0 0.931 . S
C3 C4 1.413 . S
C3 C5 1.360 . S
C4 C3 1.413 . S
C4 C8 1.429 . S
C5 C3 1.360 . S
C5 C6 1.372 . S
C6 H1 0.928 . S
C6 C5 1.372 . S
C6 C7 1.404 . S
C7 C6 1.404 . S
C7 C8 1.391 . S
C8 H2 0.930 . S
C8 C4 1.429 . S
C8 C7 1.391 . S
H9 C12 0.931 . S
H10 C15 0.928 . S
H11 C17 0.930 . S
C12 H9 0.931 . S
C12 C13 1.413 . S
C12 C14 1.360 . S
C13 C12 1.413 . S
C13 C17 1.429 . S
C14 C12 1.360 . S
C14 C15 1.372 . S
C15 H10 0.928 . S
C15 C14 1.372 . S
C15 C16 1.404 . S
C16 C15 1.404 . S
C16 C17 1.391 . S
C17 H11 0.930 . S
C17 C13 1.429 . S
C17 C16 1.391 . S
H18 C21 0.931 . S
H19 C24 0.928 . S
H20 C26 0.930 . S
C21 H18 0.931 . S
C21 C22 1.413 . S
C21 C23 1.360 . S
C22 C21 1.413 . S
C22 C26 1.429 . S
C23 C21 1.360 . S
C23 C24 1.372 . S
C24 H19 0.928 . S
C24 C23 1.372 . S
C24 C25 1.404 . S
C25 C24 1.404 . S
C25 C26 1.391 . S
C26 H20 0.930 . S
C26 C22 1.429 . S
C26 C25 1.391 . S
H27 C30 0.931 . S
H28 C33 0.928 . S
H29 C35 0.930 . S
C30 H27 0.931 . S
C30 C31 1.413 . S
C30 C32 1.360 . S
C31 C30 1.413 . S
C31 C35 1.429 . S
C32 C30 1.360 . S
C32 C33 1.372 . S
C33 H28 0.928 . S
C33 C32 1.372 . S
C33 C34 1.404 . S
C34 C33 1.404 . S
C34 C35 1.391 . S
C35 H29 0.930 . S
C35 C31 1.429 . S
C35 C34 1.391 . S
H36 C39 0.931 . S
H37 C42 0.928 . S
H38 C44 0.930 . S
C39 H36 0.931 . S
C39 C40 1.413 . S
C39 C41 1.360 . S
C40 C39 1.413 . S
C40 C44 1.429 . S
C41 C39 1.360 . S
C41 C42 1.372 . S
C42 H37 0.928 . S
C42 C41 1.372 . S
C42 C43 1.404 . S
C43 C42 1.404 . S
C43 C44 1.391 . S
C44 H38 0.930 . S
C44 C40 1.429 . S
C44 C43 1.391 . S
H45 C48 0.931 . S
H46 C51 0.928 . S
H47 C53 0.930 . S
C48 H45 0.931 . S
C48 C49 1.413 . S
C48 C50 1.360 . S
C49 C48 1.413 . S
C49 C53 1.429 . S
C50 C48 1.360 . S
C50 C51 1.372 . S
C51 H46 0.928 . S
C51 C50 1.372 . S
C51 C52 1.404 . S
C52 C51 1.404 . S
C52 C53 1.391 . S
C53 H47 0.930 . S
C53 C49 1.429 . S
C53 C52 1.391 . S
H54 C57 0.931 . S
H55 C60 0.928 . S
H56 C62 0.930 . S
C57 H54 0.931 . S
C57 C58 1.413 . S
C57 C59 1.360 . S
C58 C57 1.413 . S
C58 C62 1.429 . S
C59 C57 1.360 . S
C59 C60 1.372 . S
C60 H55 0.928 . S
C60 C59 1.372 . S
C60 C61 1.404 . S
C61 C60 1.404 . S
C61 C62 1.391 . S
C62 H56 0.930 . S
C62 C58 1.429 . S
C62 C61 1.391 . S
H63 C66 0.931 . S
H64 C69 0.928 . S
H65 C71 0.930 . S
C66 H63 0.931 . S
C66 C67 1.413 . S
C66 C68 1.360 . S
C67 C66 1.413 . S
C67 C71 1.429 . S
C68 C66 1.360 . S
C68 C69 1.372 . S
C69 H64 0.928 . S
C69 C68 1.372 . S
C69 C70 1.404 . S
C70 C69 1.404 . S
C70 C71 1.391 . S
C71 H65 0.930 . S
C71 C67 1.429 . S
C71 C70 1.391 . S
Pr72 C74 2.880 . S
Pr72 O92 2.562 . S
Pr72 O93 2.490 . S
Pr72 O94 2.695 1_665 S
Pr72 O95 2.512 1_665 S
Pr72 O97 2.437 1_655 S
Pr72 O100 2.436 . S
Pr72 O102 2.438 1_565 S
Pr73 C83 2.880 . S
Pr73 O94 2.436 . S
Pr73 O96 2.438 1_545 S
Pr73 O98 2.562 . S
Pr73 O99 2.490 . S
Pr73 O100 2.695 1_445 S
Pr73 O101 2.519 1_545 S
Pr73 O103 2.437 1_455 S
C74 Pr72 2.880 . S
C74 C75 1.491 . S
C74 O92 1.254 . S
C74 O93 1.225 . S
C75 C74 1.491 . S
C75 C76 1.392 . S
C75 C80 1.356 . S
C76 C75 1.392 . S
C76 C77 1.368 . S
C76 H104 0.929 . S
C77 C76 1.368 . S
C77 C78 1.386 . S
C77 H105 0.929 . S
C78 C77 1.386 . S
C78 C79 1.373 . S
C79 C78 1.373 . S
C79 C80 1.409 . S
C79 H106 0.931 . S
C80 C75 1.356 . S
C80 C79 1.409 . S
C80 H107 0.930 . S
C81 O94 1.270 . S
C81 O95 1.248 . S
C82 O96 1.267 . S
C82 O97 1.278 . S
C83 Pr73 2.880 . S
C83 C84 1.491 . S
C83 O98 1.254 . S
C83 O99 1.225 . S
C84 C83 1.491 . S
C84 C85 1.392 . S
C84 C89 1.356 . S
C85 C84 1.392 . S
C85 C86 1.368 . S
C85 H108 0.929 . S
C86 C85 1.368 . S
C86 C87 1.386 . S
C86 H109 0.929 . S
C87 C86 1.386 . S
C87 C88 1.373 . S
C88 C87 1.373 . S
C88 C89 1.409 . S
C88 H110 0.931 . S
C89 C84 1.356 . S
C89 C88 1.409 . S
C89 H111 0.930 . S
C90 O100 1.270 . S
C90 O101 1.231 1_655 S
C91 O102 1.267 . S
C91 O103 1.278 . S
O92 Pr72 2.562 . S
O92 C74 1.254 . S
O93 Pr72 2.490 . S
O93 C74 1.225 . S
O94 Pr72 2.695 1_445 S
O94 Pr73 2.436 . S
O94 C81 1.270 . S
O95 Pr72 2.512 1_445 S
O95 C81 1.248 . S
O96 Pr73 2.438 1_565 S
O96 C82 1.267 . S
O97 Pr72 2.437 1_455 S
O97 C82 1.278 . S
O98 Pr73 2.562 . S
O98 C83 1.254 . S
O99 Pr73 2.490 . S
O99 C83 1.225 . S
O100 Pr72 2.436 . S
O100 Pr73 2.695 1_665 S
O100 C90 1.270 . S
O101 Pr73 2.519 1_565 S
O101 C90 1.231 1_455 S
O102 Pr72 2.438 1_545 S
O102 C91 1.267 . S
O103 Pr73 2.437 1_655 S
O103 C91 1.278 . S
H104 C76 0.929 . S
H105 C77 0.929 . S
H106 C79 0.931 . S
H107 C80 0.930 . S
H108 C85 0.929 . S
H109 C86 0.929 . S
H110 C88 0.931 . S
H111 C89 0.930 . S
Pr112 C114 2.893 . S
Pr112 O132 2.580 . S
Pr112 O133 2.497 . S
Pr112 O134 2.684 1_554 S
Pr112 O135 2.500 1_554 S
Pr112 O137 2.445 . S
Pr112 O140 2.443 1_545 S
Pr112 O142 2.425 1_544 S
Pr113 C123 2.880 1_554 S
Pr113 O134 2.436 1_564 S
Pr113 O136 2.438 1_565 S
Pr113 O138 2.562 1_554 S
Pr113 O139 2.490 1_554 S
Pr113 O140 2.695 . S
Pr113 O141 2.512 . S
Pr113 O143 2.437 1_554 S
C114 Pr112 2.893 . S
C114 C115 1.491 . S
C114 O132 1.254 . S
C114 O133 1.225 . S
C115 C114 1.491 . S
C115 C116 1.392 . S
C115 C120 1.356 . S
C116 C115 1.392 . S
C116 C117 1.368 . S
C116 H144 0.929 . S
C117 C116 1.368 . S
C117 C118 1.386 . S
C117 H145 0.929 . S
C118 C117 1.386 . S
C118 C119 1.373 . S
C119 C118 1.373 . S
C119 C120 1.409 . S
C119 H146 0.931 . S
C120 C115 1.356 . S
C120 C119 1.409 . S
C120 H147 0.930 . S
C121 O134 1.270 . S
C121 O135 1.248 . S
C122 O136 1.267 . S
C122 O137 1.278 . S
C123 Pr113 2.880 1_556 S
C123 C124 1.491 . S
C123 O138 1.254 . S
C123 O139 1.225 . S
C124 C123 1.491 . S
C124 C125 1.392 . S
C124 C129 1.356 . S
C125 C124 1.392 . S
C125 C126 1.368 . S
C125 H148 0.929 . S
C126 C125 1.368 . S
C126 C127 1.386 . S
C126 H149 0.929 . S
C127 C126 1.386 . S
C127 C128 1.373 . S
C128 C127 1.373 . S
C128 C129 1.409 . S
C128 H150 0.931 . S
C129 C124 1.356 . S
C129 C128 1.409 . S
C129 H151 0.930 . S
C130 O140 1.270 . S
C130 O141 1.248 . S
C131 O142 1.267 . S
C131 O143 1.278 . S
O132 Pr112 2.580 . S
O132 C114 1.254 . S
O133 Pr112 2.497 . S
O133 C114 1.225 . S
O134 Pr112 2.684 1_556 S
O134 Pr113 2.436 1_546 S
O134 C121 1.270 . S
O135 Pr112 2.500 1_556 S
O135 C121 1.248 . S
O136 Pr113 2.438 1_545 S
O136 C122 1.267 . S
O137 Pr112 2.445 . S
O137 C122 1.278 . S
O138 Pr113 2.562 1_556 S
O138 C123 1.254 . S
O139 Pr113 2.490 1_556 S
O139 C123 1.225 . S
O140 Pr112 2.443 1_565 S
O140 Pr113 2.695 . S
O140 C130 1.270 . S
O141 Pr113 2.512 . S
O141 C130 1.248 . S
O142 Pr112 2.425 1_566 S
O142 C131 1.267 . S
O143 Pr113 2.437 1_556 S
O143 C131 1.278 . S
H144 C116 0.929 . S
H145 C117 0.929 . S
H146 C119 0.931 . S
H147 C120 0.930 . S
H148 C125 0.929 . S
H149 C126 0.929 . S
H150 C128 0.931 . S
H151 C129 0.930 . S
Pr152 C154 2.880 . S
Pr152 O172 2.562 . S
Pr152 O173 2.490 . S
Pr152 O174 2.695 . S
Pr152 O175 2.512 . S
Pr152 O177 2.437 . S
Pr152 O180 2.436 . S
Pr152 O182 2.438 . S
Pr153 C163 2.880 . S
Pr153 O174 2.436 . S
Pr153 O176 2.438 . S
Pr153 O178 2.562 . S
Pr153 O179 2.490 . S
Pr153 O180 2.695 . S
Pr153 O181 2.512 . S
Pr153 O183 2.437 . S
C154 Pr152 2.880 . S
C154 C155 1.491 . S
C154 O172 1.254 . S
C154 O173 1.225 . S
C155 C154 1.491 . S
C155 C156 1.392 . S
C155 C160 1.356 . S
C156 C155 1.392 . S
C156 C157 1.368 . S
C156 H184 0.929 . S
C157 C156 1.368 . S
C157 C158 1.386 . S
C157 H185 0.929 . S
C158 C157 1.386 . S
C158 C159 1.373 . S
C159 C158 1.373 . S
C159 C160 1.409 . S
C159 H186 0.931 . S
C160 C155 1.356 . S
C160 C159 1.409 . S
C160 H187 0.930 . S
C161 O174 1.270 . S
C161 O175 1.248 . S
C162 O176 1.267 . S
C162 O177 1.278 . S
C163 Pr153 2.880 . S
C163 C164 1.491 . S
C163 O178 1.254 . S
C163 O179 1.225 . S
C164 C163 1.491 . S
C164 C165 1.392 . S
C164 C169 1.356 . S
C165 C164 1.392 . S
C165 C166 1.368 . S
C165 H188 0.929 . S
C166 C165 1.368 . S
C166 C167 1.386 . S
C166 H189 0.929 . S
C167 C166 1.386 . S
C167 C168 1.373 . S
C168 C167 1.373 . S
C168 C169 1.409 . S
C168 H190 0.931 . S
C169 C164 1.356 . S
C169 C168 1.409 . S
C169 H191 0.930 . S
C170 O180 1.270 . S
C170 O181 1.248 . S
C171 O182 1.267 . S
C171 O183 1.278 . S
O172 Pr152 2.562 . S
O172 C154 1.254 . S
O173 Pr152 2.490 . S
O173 C154 1.225 . S
O174 Pr152 2.695 . S
O174 Pr153 2.436 . S
O174 C161 1.270 . S
O175 Pr152 2.512 . S
O175 C161 1.248 . S
O176 Pr153 2.438 . S
O176 C162 1.267 . S
O177 Pr152 2.437 . S
O177 C162 1.278 . S
O178 Pr153 2.562 . S
O178 C163 1.254 . S
O179 Pr153 2.490 . S
O179 C163 1.225 . S
O180 Pr152 2.436 . S
O180 Pr153 2.695 . S
O180 C170 1.270 . S
O181 Pr153 2.512 . S
O181 C170 1.248 . S
O182 Pr152 2.438 . S
O182 C171 1.267 . S
O183 Pr153 2.437 . S
O183 C171 1.278 . S
H184 C156 0.929 . S
H185 C157 0.929 . S
H186 C159 0.931 . S
H187 C160 0.930 . S
H188 C165 0.929 . S
H189 C166 0.929 . S
H190 C168 0.931 . S
H191 C169 0.930 . S
Pr192 C194 2.894 . S
Pr192 O212 2.580 . S
Pr192 O213 2.498 . S
Pr192 O214 2.685 1_656 S
Pr192 O215 2.502 1_656 S
Pr192 O217 2.447 1_556 S
Pr192 O220 2.442 . S
Pr192 O222 2.424 1_655 S
Pr193 C203 2.880 . S
Pr193 O214 2.436 . S
Pr193 O216 2.438 1_455 S
Pr193 O218 2.562 . S
Pr193 O219 2.490 . S
Pr193 O220 2.695 1_454 S
Pr193 O221 2.512 1_454 S
Pr193 O223 2.437 1_554 S
C194 Pr192 2.894 . S
C194 C195 1.491 . S
C194 O212 1.254 . S
C194 O213 1.225 . S
C195 C194 1.491 . S
C195 C196 1.392 . S
C195 C200 1.356 . S
C196 C195 1.392 . S
C196 C197 1.368 . S
C196 H224 0.929 . S
C197 C196 1.368 . S
C197 C198 1.386 . S
C197 H225 0.929 . S
C198 C197 1.386 . S
C198 C199 1.373 . S
C199 C198 1.373 . S
C199 C200 1.409 . S
C199 H226 0.931 . S
C200 C195 1.356 . S
C200 C199 1.409 . S
C200 H227 0.930 . S
C201 O214 1.270 . S
C201 O215 1.248 . S
C202 O216 1.267 . S
C202 O217 1.278 . S
C203 Pr193 2.880 . S
C203 C204 1.491 . S
C203 O218 1.254 . S
C203 O219 1.225 . S
C204 C203 1.491 . S
C204 C205 1.392 . S
C204 C209 1.356 . S
C205 C204 1.392 . S
C205 C206 1.368 . S
C205 H228 0.929 . S
C206 C205 1.368 . S
C206 C207 1.386 . S
C206 H229 0.929 . S
C207 C206 1.386 . S
C207 C208 1.373 . S
C208 C207 1.373 . S
C208 C209 1.409 . S
C208 H230 0.931 . S
C209 C204 1.356 . S
C209 C208 1.409 . S
C209 H231 0.930 . S
C210 O220 1.270 . S
C210 O221 1.248 . S
C211 O222 1.267 . S
C211 O223 1.278 . S
O212 Pr192 2.580 . S
O212 C194 1.254 . S
O213 Pr192 2.498 . S
O213 C194 1.225 . S
O214 Pr192 2.685 1_454 S
O214 Pr193 2.436 . S
O214 C201 1.270 . S
O215 Pr192 2.502 1_454 S
O215 C201 1.248 . S
O216 Pr193 2.438 1_655 S
O216 C202 1.267 . S
O217 Pr192 2.447 1_554 S
O217 C202 1.278 . S
O218 Pr193 2.562 . S
O218 C203 1.254 . S
O219 Pr193 2.490 . S
O219 C203 1.225 . S
O220 Pr192 2.442 . S
O220 Pr193 2.695 1_656 S
O220 C210 1.270 . S
O221 Pr193 2.512 1_656 S
O221 C210 1.248 . S
O222 Pr192 2.424 1_455 S
O222 C211 1.267 . S
O223 Pr193 2.437 1_556 S
O223 C211 1.278 . S
H224 C196 0.929 . S
H225 C197 0.929 . S
H226 C199 0.931 . S
H227 C200 0.930 . S
H228 C205 0.929 . S
H229 C206 0.929 . S
H230 C208 0.931 . S
H231 C209 0.930 . S
H232 C250 0.951 . S
H233 C252 0.951 . S
H234 C254 0.950 . S
H235 C255 0.950 . S
H236 C257 0.950 . S
H237 C260 0.950 . S
H238 C261 0.950 . S
H239 C263 0.950 . S
H240 C264 0.950 . S
H241 C265 0.951 . S
H242 C267 0.951 . S
H243 C269 0.950 . S
H244 C270 0.950 . S
H245 C272 0.950 . S
H246 C275 0.950 . S
H247 C276 0.950 . S
H248 C278 0.950 . S
H249 C279 0.950 . S
C250 H232 0.951 . S
C250 C251 1.366 . S
C250 C252 1.388 . S
C251 C250 1.366 . S
C251 C255 1.385 . S
C252 H233 0.951 . S
C252 C250 1.388 . S
C252 C253 1.366 . S
C253 C252 1.366 . S
C253 C254 1.414 . S
C253 C256 1.499 . S
C254 H234 0.950 . S
C254 C253 1.414 . S
C254 C255 1.374 . S
C255 H235 0.950 . S
C255 C251 1.385 . S
C255 C254 1.374 . S
C256 C253 1.499 . S
C256 C257 1.373 . S
C256 C258 1.389 . S
C257 H236 0.950 . S
C257 C256 1.373 . S
C257 C273 1.377 . S
C258 C256 1.389 . S
C258 C259 1.524 . S
C258 C272 1.377 . S
C259 C258 1.524 . S
C259 C260 1.397 . S
C259 C264 1.363 . S
C260 H237 0.950 . S
C260 C259 1.397 . S
C260 C261 1.334 . S
C261 H238 0.950 . S
C261 C260 1.334 . S
C261 C262 1.287 . S
C262 C261 1.287 . S
C262 C263 1.524 . S
C262 H281 0.913 . S
C263 H239 0.950 . S
C263 C262 1.524 . S
C263 C264 1.415 . S
C264 H240 0.950 . S
C264 C259 1.363 . S
C264 C263 1.415 . S
C265 H241 0.951 . S
C265 C266 1.366 . S
C265 C267 1.388 . S
C266 C265 1.366 . S
C266 C270 1.385 . S
C267 H242 0.951 . S
C267 C265 1.388 . S
C267 C268 1.366 . S
C268 C267 1.366 . S
C268 C269 1.414 . S
C268 C271 1.499 . S
C269 H243 0.950 . S
C269 C268 1.414 . S
C269 C270 1.374 . S
C270 H244 0.950 . S
C270 C266 1.385 . S
C270 C269 1.374 . S
C271 C268 1.499 . S
C271 C272 1.373 . S
C271 C273 1.389 . S
C272 H245 0.950 . S
C272 C258 1.377 . S
C272 C271 1.373 . S
C273 C257 1.377 . S
C273 C271 1.389 . S
C273 C274 1.524 . S
C274 C273 1.524 . S
C274 C275 1.397 . S
C274 C279 1.363 . S
C275 H246 0.950 . S
C275 C274 1.397 . S
C275 C276 1.334 . S
C276 H247 0.950 . S
C276 C275 1.334 . S
C276 C277 1.287 . S
C277 C276 1.287 . S
C277 C278 1.524 . S
C277 H280 0.999 . S
C278 H248 0.950 . S
C278 C277 1.524 . S
C278 C279 1.415 . S
C279 H249 0.950 . S
C279 C274 1.363 . S
C279 C278 1.415 . S
H280 C277 0.999 . S
H281 C262 0.913 . S
H282 C300 0.951 . S
H283 C302 0.951 . S
H284 C304 0.950 . S
H285 C305 0.950 . S
H286 C307 0.950 . S
H287 C310 0.950 . S
H288 C311 0.950 . S
H289 C313 0.950 . S
H290 C314 0.950 . S
H291 C315 0.951 . S
H292 C317 0.951 . S
H293 C319 0.950 . S
H294 C320 0.950 . S
H295 C322 0.950 . S
H296 C325 0.950 . S
H297 C326 0.950 . S
H298 C328 0.950 . S
H299 C329 0.950 . S
C300 H282 0.951 . S
C300 C301 1.366 . S
C300 C302 1.388 . S
C301 C300 1.366 . S
C301 C305 1.385 . S
C302 H283 0.951 . S
C302 C300 1.388 . S
C302 C303 1.366 . S
C303 C302 1.366 . S
C303 C304 1.414 . S
C303 C306 1.499 . S
C304 H284 0.950 . S
C304 C303 1.414 . S
C304 C305 1.374 . S
C305 H285 0.950 . S
C305 C301 1.385 . S
C305 C304 1.374 . S
C306 C303 1.499 . S
C306 C307 1.373 . S
C306 C308 1.389 . S
C307 H286 0.950 . S
C307 C306 1.373 . S
C307 C323 1.377 . S
C308 C306 1.389 . S
C308 C309 1.524 . S
C308 C322 1.377 . S
C309 C308 1.524 . S
C309 C310 1.397 . S
C309 C314 1.363 . S
C310 H287 0.950 . S
C310 C309 1.397 . S
C310 C311 1.334 . S
C311 H288 0.950 . S
C311 C310 1.334 . S
C311 C312 1.287 . S
C312 C311 1.287 . S
C312 C313 1.524 . S
C312 H331 0.913 . S
C313 H289 0.950 . S
C313 C312 1.524 . S
C313 C314 1.415 . S
C314 H290 0.950 . S
C314 C309 1.363 . S
C314 C313 1.415 . S
C315 H291 0.951 . S
C315 C316 1.366 . S
C315 C317 1.388 . S
C316 C315 1.366 . S
C316 C320 1.385 . S
C317 H292 0.951 . S
C317 C315 1.388 . S
C317 C318 1.366 . S
C318 C317 1.366 . S
C318 C319 1.414 . S
C318 C321 1.499 . S
C319 H293 0.950 . S
C319 C318 1.414 . S
C319 C320 1.374 . S
C320 H294 0.950 . S
C320 C316 1.385 . S
C320 C319 1.374 . S
C321 C318 1.499 . S
C321 C322 1.373 . S
C321 C323 1.389 . S
C322 H295 0.950 . S
C322 C308 1.377 . S
C322 C321 1.373 . S
C323 C307 1.377 . S
C323 C321 1.389 . S
C323 C324 1.524 . S
C324 C323 1.524 . S
C324 C325 1.397 . S
C324 C329 1.363 . S
C325 H296 0.950 . S
C325 C324 1.397 . S
C325 C326 1.334 . S
C326 H297 0.950 . S
C326 C325 1.334 . S
C326 C327 1.287 . S
C327 C326 1.287 . S
C327 C328 1.524 . S
C327 H330 0.999 . S
C328 H298 0.950 . S
C328 C327 1.524 . S
C328 C329 1.415 . S
C329 H299 0.950 . S
C329 C324 1.363 . S
C329 C328 1.415 . S
H330 C327 0.999 . S
H331 C312 0.913 . S
H332 C350 0.951 . S
H333 C352 0.951 . S
H334 C354 0.950 . S
H335 C355 0.950 . S
H336 C357 0.950 . S
H337 C360 0.950 . S
H338 C361 0.950 . S
H339 C363 0.950 . S
H340 C364 0.950 . S
H341 C365 0.951 . S
H342 C367 0.951 . S
H343 C369 0.950 . S
H344 C370 0.950 . S
H345 C372 0.950 . S
H346 C375 0.950 . S
H347 C376 0.950 . S
H348 C378 0.950 . S
H349 C379 0.950 . S
C350 H332 0.951 . S
C350 C351 1.366 . S
C350 C352 1.388 . S
C351 C350 1.366 . S
C351 C355 1.385 . S
C352 H333 0.951 . S
C352 C350 1.388 . S
C352 C353 1.366 . S
C353 C352 1.366 . S
C353 C354 1.414 . S
C353 C356 1.499 . S
C354 H334 0.950 . S
C354 C353 1.414 . S
C354 C355 1.374 . S
C355 H335 0.950 . S
C355 C351 1.385 . S
C355 C354 1.374 . S
C356 C353 1.499 . S
C356 C357 1.373 . S
C356 C358 1.389 . S
C357 H336 0.950 . S
C357 C356 1.373 . S
C357 C373 1.377 . S
C358 C356 1.389 . S
C358 C359 1.524 . S
C358 C372 1.377 . S
C359 C358 1.524 . S
C359 C360 1.397 . S
C359 C364 1.363 . S
C360 H337 0.950 . S
C360 C359 1.397 . S
C360 C361 1.334 . S
C361 H338 0.950 . S
C361 C360 1.334 . S
C361 C362 1.287 . S
C362 C361 1.287 . S
C362 C363 1.524 . S
C362 H381 0.913 . S
C363 H339 0.950 . S
C363 C362 1.524 . S
C363 C364 1.415 . S
C364 H340 0.950 . S
C364 C359 1.363 . S
C364 C363 1.415 . S
C365 H341 0.951 . S
C365 C366 1.366 . S
C365 C367 1.388 . S
C366 C365 1.366 . S
C366 C370 1.385 . S
C367 H342 0.951 . S
C367 C365 1.388 . S
C367 C368 1.366 . S
C368 C367 1.366 . S
C368 C369 1.414 . S
C368 C371 1.499 . S
C369 H343 0.950 . S
C369 C368 1.414 . S
C369 C370 1.374 . S
C370 H344 0.950 . S
C370 C366 1.385 . S
C370 C369 1.374 . S
C371 C368 1.499 . S
C371 C372 1.373 . S
C371 C373 1.389 . S
C372 H345 0.950 . S
C372 C358 1.377 . S
C372 C371 1.373 . S
C373 C357 1.377 . S
C373 C371 1.389 . S
C373 C374 1.524 . S
C374 C373 1.524 . S
C374 C375 1.397 . S
C374 C379 1.363 . S
C375 H346 0.950 . S
C375 C374 1.397 . S
C375 C376 1.334 . S
C376 H347 0.950 . S
C376 C375 1.334 . S
C376 C377 1.287 . S
C377 C376 1.287 . S
C377 C378 1.524 . S
C377 H380 0.999 . S
C378 H348 0.950 . S
C378 C377 1.524 . S
C378 C379 1.415 . S
C379 H349 0.950 . S
C379 C374 1.363 . S
C379 C378 1.415 . S
H380 C377 0.999 . S
H381 C362 0.913 . S
H382 C400 0.951 . S
H383 C402 0.951 . S
H384 C404 0.950 . S
H385 C405 0.950 . S
H386 C407 0.950 . S
H387 C410 0.950 . S
H388 C411 0.950 . S
H389 C413 0.950 . S
H390 C414 0.950 . S
H391 C415 0.951 . S
H392 C417 0.951 . S
H393 C419 0.950 . S
H394 C420 0.950 . S
H395 C422 0.950 . S
H396 C425 0.950 . S
H397 C426 0.959 . S
H398 C428 0.950 . S
H399 C429 0.950 . S
C400 H382 0.951 . S
C400 C401 1.366 . S
C400 C402 1.388 . S
C401 C400 1.366 . S
C401 C405 1.385 . S
C402 H383 0.951 . S
C402 C400 1.388 . S
C402 C403 1.366 . S
C403 C402 1.366 . S
C403 C404 1.414 . S
C403 C406 1.499 . S
C404 H384 0.950 . S
C404 C403 1.414 . S
C404 C405 1.374 . S
C405 H385 0.950 . S
C405 C401 1.385 . S
C405 C404 1.374 . S
C406 C403 1.499 . S
C406 C407 1.373 . S
C406 C408 1.389 . S
C407 H386 0.950 . S
C407 C406 1.373 . S
C407 C423 1.377 . S
C408 C406 1.389 . S
C408 C409 1.524 . S
C408 C422 1.377 . S
C409 C408 1.524 . S
C409 C410 1.397 . S
C409 C414 1.363 . S
C410 H387 0.950 . S
C410 C409 1.397 . S
C410 C411 1.334 . S
C411 H388 0.950 . S
C411 C410 1.334 . S
C411 C412 1.287 . S
C412 C411 1.287 . S
C412 C413 1.524 . S
C412 H431 0.913 . S
C413 H389 0.950 . S
C413 C412 1.524 . S
C413 C414 1.415 . S
C414 H390 0.950 . S
C414 C409 1.363 . S
C414 C413 1.415 . S
C415 H391 0.951 . S
C415 C416 1.366 . S
C415 C417 1.388 . S
C416 C415 1.366 . S
C416 C420 1.385 . S
C417 H392 0.951 . S
C417 C415 1.388 . S
C417 C418 1.366 . S
C418 C417 1.366 . S
C418 C419 1.414 . S
C418 C421 1.499 . S
C419 H393 0.950 . S
C419 C418 1.414 . S
C419 C420 1.374 . S
C420 H394 0.950 . S
C420 C416 1.385 . S
C420 C419 1.374 . S
C421 C418 1.499 . S
C421 C422 1.373 . S
C421 C423 1.389 . S
C422 H395 0.950 . S
C422 C408 1.377 . S
C422 C421 1.373 . S
C423 C407 1.377 . S
C423 C421 1.389 . S
C423 C424 1.524 . S
C424 C423 1.524 . S
C424 C425 1.397 . S
C424 C429 1.363 . S
C425 H396 0.950 . S
C425 C424 1.397 . S
C425 C426 1.334 . S
C426 H397 0.959 . S
C426 C425 1.334 . S
C426 C427 1.287 1_655 S
C427 C426 1.287 1_455 S
C427 C428 1.524 . S
C427 H430 0.999 . S
C428 H398 0.950 . S
C428 C427 1.524 . S
C428 C429 1.415 1_455 S
C429 H399 0.950 . S
C429 C424 1.363 . S
C429 C428 1.415 1_655 S
H430 C427 0.999 . S
H431 C412 0.913 . S
H432 C450 0.951 . S
H433 C452 0.951 . S
H434 C454 0.950 . S
H435 C455 0.950 . S
H436 C457 0.950 . S
H437 C460 0.950 . S
H438 C461 0.950 . S
H439 C463 0.950 . S
H440 C464 0.950 . S
H441 C465 0.951 . S
H442 C467 0.951 . S
H443 C469 0.950 . S
H444 C470 0.950 . S
H445 C472 0.950 . S
H446 C475 0.950 . S
H447 C476 0.950 . S
H448 C478 0.950 . S
H449 C479 0.950 . S
C450 H432 0.951 . S
C450 C451 1.366 . S
C450 C452 1.388 . S
C451 C450 1.366 . S
C451 C455 1.385 . S
C452 H433 0.951 . S
C452 C450 1.388 . S
C452 C453 1.366 . S
C453 C452 1.366 . S
C453 C454 1.414 . S
C453 C456 1.499 . S
C454 H434 0.950 . S
C454 C453 1.414 . S
C454 C455 1.374 . S
C455 H435 0.950 . S
C455 C451 1.385 . S
C455 C454 1.374 . S
C456 C453 1.499 . S
C456 C457 1.373 . S
C456 C458 1.389 . S
C457 H436 0.950 . S
C457 C456 1.373 . S
C457 C473 1.377 . S
C458 C456 1.389 . S
C458 C459 1.524 . S
C458 C472 1.377 . S
C459 C458 1.524 . S
C459 C460 1.397 . S
C459 C464 1.363 . S
C460 H437 0.950 . S
C460 C459 1.397 . S
C460 C461 1.334 . S
C461 H438 0.950 . S
C461 C460 1.334 . S
C461 C462 1.287 . S
C462 C461 1.287 . S
C462 C463 1.524 . S
C462 H481 0.913 . S
C463 H439 0.950 . S
C463 C462 1.524 . S
C463 C464 1.415 . S
C464 H440 0.950 . S
C464 C459 1.363 . S
C464 C463 1.415 . S
C465 H441 0.951 . S
C465 C466 1.366 . S
C465 C467 1.388 . S
C466 C465 1.366 . S
C466 C470 1.385 . S
C467 H442 0.951 . S
C467 C465 1.388 . S
C467 C468 1.366 . S
C468 C467 1.366 . S
C468 C469 1.414 . S
C468 C471 1.499 . S
C469 H443 0.950 . S
C469 C468 1.414 . S
C469 C470 1.374 . S
C470 H444 0.950 . S
C470 C466 1.385 . S
C470 C469 1.374 . S
C471 C468 1.499 . S
C471 C472 1.373 . S
C471 C473 1.389 . S
C472 H445 0.950 . S
C472 C458 1.377 . S
C472 C471 1.373 . S
C473 C457 1.377 . S
C473 C471 1.389 . S
C473 C474 1.524 . S
C474 C473 1.524 . S
C474 C475 1.397 . S
C474 C479 1.363 . S
C475 H446 0.950 . S
C475 C474 1.397 . S
C475 C476 1.334 . S
C476 H447 0.950 . S
C476 C475 1.334 . S
C476 C477 1.287 . S
C477 C476 1.287 . S
C477 C478 1.524 . S
C477 H480 0.999 . S
C478 H448 0.950 . S
C478 C477 1.524 . S
C478 C479 1.415 . S
C479 H449 0.950 . S
C479 C474 1.363 . S
C479 C478 1.415 . S
H480 C477 0.999 . S
H481 C462 0.913 . S
H482 C500 0.951 . S
H483 C502 0.951 . S
H484 C504 0.950 . S
H485 C505 0.950 . S
H486 C507 0.950 . S
H487 C510 0.950 . S
H488 C511 0.950 . S
H489 C513 0.950 . S
H490 C514 0.950 . S
H491 C515 0.951 . S
H492 C517 0.951 . S
H493 C519 0.950 . S
H494 C520 0.950 . S
H495 C522 0.950 . S
H496 C525 0.950 . S
H497 C526 0.950 . S
H498 C528 0.950 . S
H499 C529 0.950 . S
C500 H482 0.951 . S
C500 C501 1.366 . S
C500 C502 1.388 . S
C501 C500 1.366 . S
C501 C505 1.385 . S
C502 H483 0.951 . S
C502 C500 1.388 . S
C502 C503 1.366 . S
C503 C502 1.366 . S
C503 C504 1.414 . S
C503 C506 1.499 . S
C504 H484 0.950 . S
C504 C503 1.414 . S
C504 C505 1.374 . S
C505 H485 0.950 . S
C505 C501 1.385 . S
C505 C504 1.374 . S
C506 C503 1.499 . S
C506 C507 1.373 . S
C506 C508 1.389 . S
C507 H486 0.950 . S
C507 C506 1.373 . S
C507 C523 1.377 . S
C508 C506 1.389 . S
C508 C509 1.524 . S
C508 C522 1.377 . S
C509 C508 1.524 . S
C509 C510 1.397 . S
C509 C514 1.363 . S
C510 H487 0.950 . S
C510 C509 1.397 . S
C510 C511 1.334 . S
C511 H488 0.950 . S
C511 C510 1.334 . S
C511 C512 1.287 . S
C512 C511 1.287 . S
C512 C513 1.524 . S
C512 H531 0.913 . S
C513 H489 0.950 . S
C513 C512 1.524 . S
C513 C514 1.415 . S
C514 H490 0.950 . S
C514 C509 1.363 . S
C514 C513 1.415 . S
C515 H491 0.951 . S
C515 C516 1.366 . S
C515 C517 1.388 . S
C516 C515 1.366 . S
C516 C520 1.385 . S
C517 H492 0.951 . S
C517 C515 1.388 . S
C517 C518 1.366 . S
C518 C517 1.366 . S
C518 C519 1.414 . S
C518 C521 1.499 . S
C519 H493 0.950 . S
C519 C518 1.414 . S
C519 C520 1.374 . S
C520 H494 0.950 . S
C520 C516 1.385 . S
C520 C519 1.374 . S
C521 C518 1.499 . S
C521 C522 1.373 . S
C521 C523 1.389 . S
C522 H495 0.950 . S
C522 C508 1.377 . S
C522 C521 1.373 . S
C523 C507 1.377 . S
C523 C521 1.389 . S
C523 C524 1.524 . S
C524 C523 1.524 . S
C524 C525 1.397 . S
C524 C529 1.363 . S
C525 H496 0.950 . S
C525 C524 1.397 . S
C525 C526 1.334 . S
C526 H497 0.950 . S
C526 C525 1.334 . S
C526 C527 1.287 . S
C527 C526 1.287 . S
C527 C528 1.524 . S
C527 H530 0.999 . S
C528 H498 0.950 . S
C528 C527 1.524 . S
C528 C529 1.415 . S
C529 H499 0.950 . S
C529 C524 1.363 . S
C529 C528 1.415 . S
H530 C527 0.999 . S
H531 C512 0.913 . S
H532 C550 0.951 . S
H533 C552 0.951 . S
H534 C554 0.950 . S
H535 C555 0.950 . S
H536 C557 0.950 . S
H537 C560 0.950 . S
H538 C561 0.950 . S
H539 C563 0.950 . S
H540 C564 0.950 . S
H541 C565 0.951 . S
H542 C567 0.951 . S
H543 C569 0.950 . S
H544 C570 0.950 . S
H545 C572 0.950 . S
H546 C575 0.950 . S
H547 C576 0.950 1_554 S
H548 C578 0.950 . S
H549 C579 0.950 . S
C550 H532 0.951 . S
C550 C551 1.366 . S
C550 C552 1.388 . S
C551 C550 1.366 . S
C551 C555 1.385 . S
C552 H533 0.951 . S
C552 C550 1.388 . S
C552 C553 1.366 . S
C553 C552 1.366 . S
C553 C554 1.414 . S
C553 C556 1.499 . S
C554 H534 0.950 . S
C554 C553 1.414 . S
C554 C555 1.374 . S
C555 H535 0.950 . S
C555 C551 1.385 . S
C555 C554 1.374 . S
C556 C553 1.499 . S
C556 C557 1.373 . S
C556 C558 1.389 . S
C557 H536 0.950 . S
C557 C556 1.373 . S
C557 C573 1.377 . S
C558 C556 1.389 . S
C558 C559 1.524 . S
C558 C572 1.377 . S
C559 C558 1.524 . S
C559 C560 1.397 . S
C559 C564 1.363 . S
C560 H537 0.950 . S
C560 C559 1.397 . S
C560 C561 1.334 . S
C561 H538 0.950 . S
C561 C560 1.334 . S
C561 C562 1.287 . S
C562 C561 1.287 . S
C562 C563 1.524 . S
C562 H581 0.913 . S
C563 H539 0.950 . S
C563 C562 1.524 . S
C563 C564 1.415 . S
C564 H540 0.950 . S
C564 C559 1.363 . S
C564 C563 1.415 . S
C565 H541 0.951 . S
C565 C566 1.366 . S
C565 C567 1.388 . S
C566 C565 1.366 . S
C566 C570 1.385 . S
C567 H542 0.951 . S
C567 C565 1.388 . S
C567 C568 1.366 . S
C568 C567 1.366 . S
C568 C569 1.414 . S
C568 C571 1.499 . S
C569 H543 0.950 . S
C569 C568 1.414 . S
C569 C570 1.374 . S
C570 H544 0.950 . S
C570 C566 1.385 . S
C570 C569 1.374 . S
C571 C568 1.499 . S
C571 C572 1.373 . S
C571 C573 1.389 . S
C572 H545 0.950 . S
C572 C558 1.377 . S
C572 C571 1.373 . S
C573 C557 1.377 . S
C573 C571 1.389 . S
C573 C574 1.524 . S
C574 C573 1.524 . S
C574 C575 1.397 . S
C574 C579 1.363 . S
C575 H546 0.950 . S
C575 C574 1.397 . S
C575 C576 1.334 . S
C576 H547 0.950 1_556 S
C576 C575 1.334 . S
C576 C577 1.287 . S
C577 C576 1.287 . S
C577 C578 1.524 . S
C577 H580 0.990 1_556 S
C578 H548 0.950 . S
C578 C577 1.524 . S
C578 C579 1.415 . S
C579 H549 0.950 . S
C579 C574 1.363 . S
C579 C578 1.415 . S
H580 C577 0.990 1_554 S
H581 C562 0.913 . S
H582 C600 0.951 . S
H583 C602 0.951 . S
H584 C604 0.950 . S
H585 C605 0.950 . S
H586 C607 0.950 . S
H587 C610 0.950 . S
H588 C611 0.950 . S
H589 C613 0.950 . S
H590 C614 0.950 . S
H591 C615 0.951 . S
H592 C617 0.951 . S
H593 C619 0.950 . S
H594 C620 0.950 . S
H595 C622 0.950 . S
H596 C625 0.950 . S
H597 C626 0.950 . S
H598 C628 0.950 . S
H599 C629 0.950 . S
C600 H582 0.951 . S
C600 C601 1.366 . S
C600 C602 1.388 . S
C601 C600 1.366 . S
C601 C605 1.385 . S
C602 H583 0.951 . S
C602 C600 1.388 . S
C602 C603 1.366 . S
C603 C602 1.366 . S
C603 C604 1.414 . S
C603 C606 1.499 . S
C604 H584 0.950 . S
C604 C603 1.414 . S
C604 C605 1.374 . S
C605 H585 0.950 . S
C605 C601 1.385 . S
C605 C604 1.374 . S
C606 C603 1.499 . S
C606 C607 1.373 . S
C606 C608 1.389 . S
C607 H586 0.950 . S
C607 C606 1.373 . S
C607 C623 1.377 . S
C608 C606 1.389 . S
C608 C609 1.524 . S
C608 C622 1.377 . S
C609 C608 1.524 . S
C609 C610 1.397 . S
C609 C614 1.363 . S
C610 H587 0.950 . S
C610 C609 1.397 . S
C610 C611 1.334 . S
C611 H588 0.950 . S
C611 C610 1.334 . S
C611 C612 1.287 . S
C612 C611 1.287 . S
C612 C613 1.524 . S
C612 H631 0.913 . S
C613 H589 0.950 . S
C613 C612 1.524 . S
C613 C614 1.415 . S
C614 H590 0.950 . S
C614 C609 1.363 . S
C614 C613 1.415 . S
C615 H591 0.951 . S
C615 C616 1.366 . S
C615 C617 1.388 . S
C616 C615 1.366 . S
C616 C620 1.385 . S
C617 H592 0.951 . S
C617 C615 1.388 . S
C617 C618 1.366 . S
C618 C617 1.366 . S
C618 C619 1.414 . S
C618 C621 1.499 . S
C619 H593 0.950 . S
C619 C618 1.414 . S
C619 C620 1.374 . S
C620 H594 0.950 . S
C620 C616 1.385 . S
C620 C619 1.374 . S
C621 C618 1.499 . S
C621 C622 1.373 . S
C621 C623 1.389 . S
C622 H595 0.950 . S
C622 C608 1.377 . S
C622 C621 1.373 . S
C623 C607 1.377 . S
C623 C621 1.389 . S
C623 C624 1.524 . S
C624 C623 1.524 . S
C624 C625 1.397 . S
C624 C629 1.363 . S
C625 H596 0.950 . S
C625 C624 1.397 . S
C625 C626 1.334 . S
C626 H597 0.950 . S
C626 C625 1.334 . S
C626 C627 1.287 . S
C627 C626 1.287 . S
C627 C628 1.524 . S
C627 H630 0.999 . S
C628 H598 0.950 . S
C628 C627 1.524 . S
C628 C629 1.415 . S
C629 H599 0.950 . S
C629 C624 1.363 . S
C629 C628 1.415 . S
H630 C627 0.999 . S
H631 C612 0.913 . S
H632 C650 0.951 . S
H633 C652 0.951 . S
H634 C654 0.950 . S
H635 C655 0.950 . S
H636 C657 0.950 . S
H637 C660 0.950 . S
H638 C661 0.950 . S
H639 C663 0.950 . S
H640 C664 0.950 . S
H641 C665 0.951 . S
H642 C667 0.951 . S
H643 C669 0.950 . S
H644 C670 0.950 . S
H645 C672 0.950 . S
H646 C675 0.950 . S
H647 C676 0.950 . S
H648 C678 0.950 . S
H649 C679 0.950 . S
C650 H632 0.951 . S
C650 C651 1.366 . S
C650 C652 1.388 . S
C651 C650 1.366 . S
C651 C655 1.385 . S
C652 H633 0.951 . S
C652 C650 1.388 . S
C652 C653 1.366 . S
C653 C652 1.366 . S
C653 C654 1.414 . S
C653 C656 1.499 . S
C654 H634 0.950 . S
C654 C653 1.414 . S
C654 C655 1.374 . S
C655 H635 0.950 . S
C655 C651 1.385 . S
C655 C654 1.374 . S
C656 C653 1.499 . S
C656 C657 1.373 . S
C656 C658 1.389 . S
C657 H636 0.950 . S
C657 C656 1.373 . S
C657 C673 1.377 . S
C658 C656 1.389 . S
C658 C659 1.524 . S
C658 C672 1.377 . S
C659 C658 1.524 . S
C659 C660 1.397 . S
C659 C664 1.363 . S
C660 H637 0.950 . S
C660 C659 1.397 . S
C660 C661 1.334 . S
C661 H638 0.950 . S
C661 C660 1.334 . S
C661 C662 1.287 . S
C662 C661 1.287 . S
C662 C663 1.524 . S
C662 H681 0.913 . S
C663 H639 0.950 . S
C663 C662 1.524 . S
C663 C664 1.415 . S
C664 H640 0.950 . S
C664 C659 1.363 . S
C664 C663 1.415 . S
C665 H641 0.951 . S
C665 C666 1.366 . S
C665 C667 1.388 . S
C666 C665 1.366 . S
C666 C670 1.385 . S
C667 H642 0.951 . S
C667 C665 1.388 . S
C667 C668 1.366 . S
C668 C667 1.366 . S
C668 C669 1.414 . S
C668 C671 1.499 . S
C669 H643 0.950 . S
C669 C668 1.414 . S
C669 C670 1.374 . S
C670 H644 0.950 . S
C670 C666 1.385 . S
C670 C669 1.374 . S
C671 C668 1.499 . S
C671 C672 1.373 . S
C671 C673 1.389 . S
C672 H645 0.950 . S
C672 C658 1.377 . S
C672 C671 1.373 . S
C673 C657 1.377 . S
C673 C671 1.389 . S
C673 C674 1.524 . S
C674 C673 1.524 . S
C674 C675 1.397 . S
C674 C679 1.363 . S
C675 H646 0.950 . S
C675 C674 1.397 . S
C675 C676 1.334 . S
C676 H647 0.950 . S
C676 C675 1.334 . S
C676 C677 1.287 . S
C677 C676 1.287 . S
C677 C678 1.524 . S
C677 H680 0.999 . S
C678 H648 0.950 . S
C678 C677 1.524 . S
C678 C679 1.415 . S
C679 H649 0.950 . S
C679 C674 1.363 . S
C679 C678 1.415 . S
H680 C677 0.999 . S
H681 C662 0.913 . S
H682 C700 0.951 . S
H683 C702 0.951 . S
H684 C704 0.950 . S
H685 C705 0.950 . S
H686 C707 0.950 . S
H687 C710 0.950 . S
H688 C711 0.950 . S
H689 C713 0.950 . S
H690 C714 0.950 . S
H691 C715 0.951 . S
H692 C717 0.951 . S
H693 C719 0.950 . S
H694 C720 0.950 . S
H695 C722 0.950 . S
H696 C725 0.950 . S
H697 C726 0.950 . S
H698 C728 0.950 . S
H699 C729 0.950 . S
C700 H682 0.951 . S
C700 C701 1.366 . S
C700 C702 1.388 . S
C701 C700 1.366 . S
C701 C705 1.385 . S
C702 H683 0.951 . S
C702 C700 1.388 . S
C702 C703 1.366 . S
C703 C702 1.366 . S
C703 C704 1.414 . S
C703 C706 1.499 . S
C704 H684 0.950 . S
C704 C703 1.414 . S
C704 C705 1.374 . S
C705 H685 0.950 . S
C705 C701 1.385 . S
C705 C704 1.374 . S
C706 C703 1.499 . S
C706 C707 1.373 . S
C706 C708 1.389 . S
C707 H686 0.950 . S
C707 C706 1.373 . S
C707 C723 1.377 . S
C708 C706 1.389 . S
C708 C709 1.524 . S
C708 C722 1.377 . S
C709 C708 1.524 . S
C709 C710 1.397 . S
C709 C714 1.363 . S
C710 H687 0.950 . S
C710 C709 1.397 . S
C710 C711 1.334 . S
C711 H688 0.950 . S
C711 C710 1.334 . S
C711 C712 1.287 . S
C712 C711 1.287 . S
C712 C713 1.524 . S
C712 H731 0.913 . S
C713 H689 0.950 . S
C713 C712 1.524 . S
C713 C714 1.415 . S
C714 H690 0.950 . S
C714 C709 1.363 . S
C714 C713 1.415 . S
C715 H691 0.951 . S
C715 C716 1.366 . S
C715 C717 1.388 . S
C716 C715 1.366 . S
C716 C720 1.385 . S
C717 H692 0.951 . S
C717 C715 1.388 . S
C717 C718 1.366 . S
C718 C717 1.366 . S
C718 C719 1.414 . S
C718 C721 1.499 . S
C719 H693 0.950 . S
C719 C718 1.414 . S
C719 C720 1.374 . S
C720 H694 0.950 . S
C720 C716 1.385 . S
C720 C719 1.374 . S
C721 C718 1.499 . S
C721 C722 1.373 . S
C721 C723 1.389 . S
C722 H695 0.950 . S
C722 C708 1.377 . S
C722 C721 1.373 . S
C723 C707 1.377 . S
C723 C721 1.389 . S
C723 C724 1.524 . S
C724 C723 1.524 . S
C724 C725 1.397 . S
C724 C729 1.363 . S
C725 H696 0.950 . S
C725 C724 1.397 . S
C725 C726 1.334 . S
C726 H697 0.950 . S
C726 C725 1.334 . S
C726 C727 1.287 . S
C727 C726 1.287 . S
C727 C728 1.524 . S
C727 H730 0.999 . S
C728 H698 0.950 . S
C728 C727 1.524 . S
C728 C729 1.415 . S
C729 H699 0.950 . S
C729 C724 1.363 . S
C729 C728 1.415 . S
H730 C727 0.999 . S
H731 C712 0.913 . S
H732 C750 0.951 . S
H733 C752 0.951 . S
H734 C754 0.950 . S
H735 C755 0.950 . S
H736 C757 0.950 . S
H737 C760 0.950 . S
H738 C761 0.950 . S
H739 C763 0.950 . S
H740 C764 0.950 . S
H741 C765 0.951 . S
H742 C767 0.951 . S
H743 C769 0.950 . S
H744 C770 0.950 . S
H745 C772 0.950 . S
H746 C775 0.950 . S
H747 C776 0.950 . S
H748 C778 0.950 . S
H749 C779 0.950 . S
C750 H732 0.951 . S
C750 C751 1.366 . S
C750 C752 1.388 . S
C751 C750 1.366 . S
C751 C755 1.385 . S
C752 H733 0.951 . S
C752 C750 1.388 . S
C752 C753 1.366 . S
C753 C752 1.366 . S
C753 C754 1.414 . S
C753 C756 1.499 . S
C754 H734 0.950 . S
C754 C753 1.414 . S
C754 C755 1.374 . S
C755 H735 0.950 . S
C755 C751 1.385 . S
C755 C754 1.374 . S
C756 C753 1.499 . S
C756 C757 1.373 . S
C756 C758 1.389 . S
C757 H736 0.950 . S
C757 C756 1.373 . S
C757 C773 1.377 . S
C758 C756 1.389 . S
C758 C759 1.524 . S
C758 C772 1.377 . S
C759 C758 1.524 . S
C759 C760 1.397 . S
C759 C764 1.363 . S
C760 H737 0.950 . S
C760 C759 1.397 . S
C760 C761 1.334 . S
C761 H738 0.950 . S
C761 C760 1.334 . S
C761 C762 1.287 . S
C762 C761 1.287 . S
C762 C763 1.524 . S
C762 H781 0.913 . S
C763 H739 0.950 . S
C763 C762 1.524 . S
C763 C764 1.415 . S
C764 H740 0.950 . S
C764 C759 1.363 . S
C764 C763 1.415 . S
C765 H741 0.951 . S
C765 C766 1.366 . S
C765 C767 1.388 . S
C766 C765 1.366 . S
C766 C770 1.385 . S
C767 H742 0.951 . S
C767 C765 1.388 . S
C767 C768 1.366 . S
C768 C767 1.366 . S
C768 C769 1.414 . S
C768 C771 1.499 . S
C769 H743 0.950 . S
C769 C768 1.414 . S
C769 C770 1.374 . S
C770 H744 0.950 . S
C770 C766 1.385 . S
C770 C769 1.374 . S
C771 C768 1.499 . S
C771 C772 1.373 . S
C771 C773 1.389 . S
C772 H745 0.950 . S
C772 C758 1.377 . S
C772 C771 1.373 . S
C773 C757 1.377 . S
C773 C771 1.389 . S
C773 C774 1.524 . S
C774 C773 1.524 . S
C774 C775 1.397 . S
C774 C779 1.363 . S
C775 H746 0.950 . S
C775 C774 1.397 . S
C775 C776 1.334 . S
C776 H747 0.950 . S
C776 C775 1.334 . S
C776 C777 1.287 . S
C777 C776 1.287 . S
C777 C778 1.524 . S
C777 H780 0.999 . S
C778 H748 0.950 . S
C778 C777 1.524 . S
C778 C779 1.415 . S
C779 H749 0.950 . S
C779 C774 1.363 . S
C779 C778 1.415 . S
H780 C777 0.999 . S
H781 C762 0.913 . S
H782 C800 0.951 . S
H783 C802 0.951 . S
H784 C804 0.950 . S
H785 C805 0.950 . S
H786 C807 0.950 . S
H787 C810 0.950 . S
H788 C811 0.950 . S
H789 C813 0.950 . S
H790 C814 0.950 . S
H791 C815 0.951 . S
H792 C817 0.951 . S
H793 C819 0.950 . S
H794 C820 0.950 . S
H795 C822 0.950 . S
H796 C825 0.950 . S
H797 C826 0.950 . S
H798 C828 0.950 . S
H799 C829 0.950 . S
C800 H782 0.951 . S
C800 C801 1.366 . S
C800 C802 1.388 . S
C801 C800 1.366 . S
C801 C805 1.385 . S
C802 H783 0.951 . S
C802 C800 1.388 . S
C802 C803 1.366 . S
C803 C802 1.366 . S
C803 C804 1.414 . S
C803 C806 1.499 . S
C804 H784 0.950 . S
C804 C803 1.414 . S
C804 C805 1.374 . S
C805 H785 0.950 . S
C805 C801 1.385 . S
C805 C804 1.374 . S
C806 C803 1.499 . S
C806 C807 1.373 . S
C806 C808 1.389 . S
C807 H786 0.950 . S
C807 C806 1.373 . S
C807 C823 1.377 . S
C808 C806 1.389 . S
C808 C809 1.524 . S
C808 C822 1.377 . S
C809 C808 1.524 . S
C809 C810 1.397 . S
C809 C814 1.363 . S
C810 H787 0.950 . S
C810 C809 1.397 . S
C810 C811 1.334 . S
C811 H788 0.950 . S
C811 C810 1.334 . S
C811 C812 1.287 . S
C812 C811 1.287 . S
C812 C813 1.524 . S
C812 H831 0.913 . S
C813 H789 0.950 . S
C813 C812 1.524 . S
C813 C814 1.415 . S
C814 H790 0.950 . S
C814 C809 1.363 . S
C814 C813 1.415 . S
C815 H791 0.951 . S
C815 C816 1.366 . S
C815 C817 1.388 . S
C816 C815 1.366 . S
C816 C820 1.385 . S
C817 H792 0.951 . S
C817 C815 1.388 . S
C817 C818 1.366 . S
C818 C817 1.366 . S
C818 C819 1.414 . S
C818 C821 1.499 . S
C819 H793 0.950 . S
C819 C818 1.414 . S
C819 C820 1.374 . S
C820 H794 0.950 . S
C820 C816 1.385 . S
C820 C819 1.374 . S
C821 C818 1.499 . S
C821 C822 1.373 . S
C821 C823 1.389 . S
C822 H795 0.950 . S
C822 C808 1.377 . S
C822 C821 1.373 . S
C823 C807 1.377 . S
C823 C821 1.389 . S
C823 C824 1.524 . S
C824 C823 1.524 . S
C824 C825 1.397 . S
C824 C829 1.363 . S
C825 H796 0.950 . S
C825 C824 1.397 . S
C825 C826 1.334 . S
C826 H797 0.950 . S
C826 C825 1.334 . S
C826 C827 1.287 . S
C827 C826 1.287 . S
C827 C828 1.524 . S
C827 H830 0.999 . S
C828 H798 0.950 . S
C828 C827 1.524 . S
C828 C829 1.415 . S
C829 H799 0.950 . S
C829 C824 1.363 . S
C829 C828 1.415 . S
H830 C827 0.999 . S
H831 C812 0.913 . S
H832 C850 0.951 . S
H833 C852 0.951 . S
H834 C854 0.950 . S
H835 C855 0.950 . S
H836 C857 0.950 . S
H837 C860 0.950 . S
H838 C861 0.950 . S
H839 C863 0.950 . S
H840 C864 0.950 . S
H841 C865 0.951 . S
H842 C867 0.951 . S
H843 C869 0.950 . S
H844 C870 0.950 . S
H845 C872 0.950 . S
H846 C875 0.950 . S
H847 C876 0.950 . S
H848 C878 0.950 . S
H849 C879 0.950 . S
C850 H832 0.951 . S
C850 C851 1.366 . S
C850 C852 1.388 . S
C851 C850 1.366 . S
C851 C855 1.385 . S
C852 H833 0.951 . S
C852 C850 1.388 . S
C852 C853 1.366 . S
C853 C852 1.366 . S
C853 C854 1.414 . S
C853 C856 1.499 . S
C854 H834 0.950 . S
C854 C853 1.414 . S
C854 C855 1.374 . S
C855 H835 0.950 . S
C855 C851 1.385 . S
C855 C854 1.374 . S
C856 C853 1.499 . S
C856 C857 1.373 . S
C856 C858 1.389 . S
C857 H836 0.950 . S
C857 C856 1.373 . S
C857 C873 1.377 . S
C858 C856 1.389 . S
C858 C859 1.524 . S
C858 C872 1.377 . S
C859 C858 1.524 . S
C859 C860 1.397 . S
C859 C864 1.363 . S
C860 H837 0.950 . S
C860 C859 1.397 . S
C860 C861 1.334 . S
C861 H838 0.950 . S
C861 C860 1.334 . S
C861 C862 1.287 . S
C862 C861 1.287 . S
C862 C863 1.524 . S
C862 H881 0.913 . S
C863 H839 0.950 . S
C863 C862 1.524 . S
C863 C864 1.415 . S
C864 H840 0.950 . S
C864 C859 1.363 . S
C864 C863 1.415 . S
C865 H841 0.951 . S
C865 C866 1.366 . S
C865 C867 1.388 . S
C866 C865 1.366 . S
C866 C870 1.385 . S
C867 H842 0.951 . S
C867 C865 1.388 . S
C867 C868 1.366 . S
C868 C867 1.366 . S
C868 C869 1.414 . S
C868 C871 1.499 . S
C869 H843 0.950 . S
C869 C868 1.414 . S
C869 C870 1.374 . S
C870 H844 0.950 . S
C870 C866 1.385 . S
C870 C869 1.374 . S
C871 C868 1.499 . S
C871 C872 1.373 . S
C871 C873 1.389 . S
C872 H845 0.950 . S
C872 C858 1.377 . S
C872 C871 1.373 . S
C873 C857 1.377 . S
C873 C871 1.389 . S
C873 C874 1.524 . S
C874 C873 1.524 . S
C874 C875 1.397 . S
C874 C879 1.363 . S
C875 H846 0.950 . S
C875 C874 1.397 . S
C875 C876 1.334 . S
C876 H847 0.950 . S
C876 C875 1.334 . S
C876 C877 1.287 . S
C877 C876 1.287 . S
C877 C878 1.524 . S
C877 H880 0.999 . S
C878 H848 0.950 . S
C878 C877 1.524 . S
C878 C879 1.415 . S
C879 H849 0.950 . S
C879 C874 1.363 . S
C879 C878 1.415 . S
H880 C877 0.999 . S
H881 C862 0.913 . S
H882 C900 0.951 . S
H883 C902 0.951 . S
H884 C904 0.950 . S
H885 C905 0.950 . S
H886 C907 0.950 . S
H887 C910 0.950 . S
H888 C911 0.950 . S
H889 C913 0.950 . S
H890 C914 0.950 . S
H891 C915 0.951 . S
H892 C917 0.951 . S
H893 C919 0.950 . S
H894 C920 0.950 . S
H895 C922 0.950 . S
H896 C925 0.950 . S
H897 C926 0.950 . S
H898 C928 0.950 . S
H899 C929 0.950 . S
C900 H882 0.951 . S
C900 C901 1.366 . S
C900 C902 1.388 . S
C901 C900 1.366 . S
C901 C905 1.385 . S
C902 H883 0.951 . S
C902 C900 1.388 . S
C902 C903 1.366 . S
C903 C902 1.366 . S
C903 C904 1.414 . S
C903 C906 1.499 . S
C904 H884 0.950 . S
C904 C903 1.414 . S
C904 C905 1.374 . S
C905 H885 0.950 . S
C905 C901 1.385 . S
C905 C904 1.374 . S
C906 C903 1.499 . S
C906 C907 1.373 . S
C906 C908 1.389 . S
C907 H886 0.950 . S
C907 C906 1.373 . S
C907 C923 1.377 . S
C908 C906 1.389 . S
C908 C909 1.524 . S
C908 C922 1.377 . S
C909 C908 1.524 . S
C909 C910 1.397 . S
C909 C914 1.363 . S
C910 H887 0.950 . S
C910 C909 1.397 . S
C910 C911 1.334 . S
C911 H888 0.950 . S
C911 C910 1.334 . S
C911 C912 1.287 . S
C912 C911 1.287 . S
C912 C913 1.524 . S
C912 H931 0.913 . S
C913 H889 0.950 . S
C913 C912 1.524 . S
C913 C914 1.415 . S
C914 H890 0.950 . S
C914 C909 1.363 . S
C914 C913 1.415 . S
C915 H891 0.951 . S
C915 C916 1.366 . S
C915 C917 1.388 . S
C916 C915 1.366 . S
C916 C920 1.385 . S
C917 H892 0.951 . S
C917 C915 1.388 . S
C917 C918 1.366 . S
C918 C917 1.366 . S
C918 C919 1.414 . S
C918 C921 1.499 . S
C919 H893 0.950 . S
C919 C918 1.414 . S
C919 C920 1.374 . S
C920 H894 0.950 . S
C920 C916 1.385 . S
C920 C919 1.374 . S
C921 C918 1.499 . S
C921 C922 1.373 . S
C921 C923 1.389 . S
C922 H895 0.950 . S
C922 C908 1.377 . S
C922 C921 1.373 . S
C923 C907 1.377 . S
C923 C921 1.389 . S
C923 C924 1.524 . S
C924 C923 1.524 . S
C924 C925 1.397 . S
C924 C929 1.363 . S
C925 H896 0.950 . S
C925 C924 1.397 . S
C925 C926 1.334 . S
C926 H897 0.950 . S
C926 C925 1.334 . S
C926 C927 1.287 . S
C927 C926 1.287 . S
C927 C928 1.524 . S
C927 H930 0.999 . S
C928 H898 0.950 . S
C928 C927 1.524 . S
C928 C929 1.415 . S
C929 H899 0.950 . S
C929 C924 1.363 . S
C929 C928 1.415 . S
H930 C927 0.999 . S
H931 C912 0.913 . S
H932 C950 0.951 . S
H933 C952 0.951 . S
H934 C954 0.950 . S
H935 C955 0.950 . S
H936 C957 0.950 . S
H937 C960 0.950 . S
H938 C961 0.950 . S
H939 C963 0.950 . S
H940 C964 0.950 . S
H941 C965 0.951 . S
H942 C967 0.951 . S
H943 C969 0.950 . S
H944 C970 0.950 . S
H945 C972 0.950 . S
H946 C975 0.950 . S
H947 C976 0.950 . S
H948 C978 0.950 . S
H949 C979 0.950 . S
C950 H932 0.951 . S
C950 C951 1.366 . S
C950 C952 1.388 . S
C951 C950 1.366 . S
C951 C955 1.385 . S
C952 H933 0.951 . S
C952 C950 1.388 . S
C952 C953 1.366 . S
C953 C952 1.366 . S
C953 C954 1.414 . S
C953 C956 1.499 . S
C954 H934 0.950 . S
C954 C953 1.414 . S
C954 C955 1.374 . S
C955 H935 0.950 . S
C955 C951 1.385 . S
C955 C954 1.374 . S
C956 C953 1.499 . S
C956 C957 1.373 . S
C956 C958 1.389 . S
C957 H936 0.950 . S
C957 C956 1.373 . S
C957 C973 1.377 . S
C958 C956 1.389 . S
C958 C959 1.524 . S
C958 C972 1.377 . S
C959 C958 1.524 . S
C959 C960 1.397 . S
C959 C964 1.363 . S
C960 H937 0.950 . S
C960 C959 1.397 . S
C960 C961 1.334 . S
C961 H938 0.950 . S
C961 C960 1.334 . S
C961 C962 1.287 . S
C962 C961 1.287 . S
C962 C963 1.524 . S
C962 H981 0.913 . S
C963 H939 0.950 . S
C963 C962 1.524 . S
C963 C964 1.415 . S
C964 H940 0.950 . S
C964 C959 1.363 . S
C964 C963 1.415 . S
C965 H941 0.951 . S
C965 C966 1.366 . S
C965 C967 1.388 . S
C966 C965 1.366 . S
C966 C970 1.385 . S
C967 H942 0.951 . S
C967 C965 1.388 . S
C967 C968 1.366 . S
C968 C967 1.366 . S
C968 C969 1.414 . S
C968 C971 1.499 . S
C969 H943 0.950 . S
C969 C968 1.414 . S
C969 C970 1.374 . S
C970 H944 0.950 . S
C970 C966 1.385 . S
C970 C969 1.374 . S
C971 C968 1.499 . S
C971 C972 1.373 . S
C971 C973 1.389 . S
C972 H945 0.950 . S
C972 C958 1.377 . S
C972 C971 1.373 . S
C973 C957 1.377 . S
C973 C971 1.389 . S
C973 C974 1.524 . S
C974 C973 1.524 . S
C974 C975 1.397 . S
C974 C979 1.363 . S
C975 H946 0.950 . S
C975 C974 1.397 . S
C975 C976 1.334 . S
C976 H947 0.950 . S
C976 C975 1.334 . S
C976 C977 1.287 . S
C977 C976 1.287 . S
C977 C978 1.524 . S
C977 H980 0.999 . S
C978 H948 0.950 . S
C978 C977 1.524 . S
C978 C979 1.415 . S
C979 H949 0.950 . S
C979 C974 1.363 . S
C979 C978 1.415 . S
H980 C977 0.999 . S
H981 C962 0.913 . S
H982 C1000 0.951 . S
H983 C1002 0.951 . S
H984 C1004 0.950 . S
H985 C1005 0.950 . S
H986 C1007 0.950 . S
H987 C1010 0.950 . S
H988 C1011 0.950 . S
H989 C1013 0.950 . S
H990 C1014 0.950 . S
H991 C1015 0.951 . S
H992 C1017 0.951 . S
H993 C1019 0.950 . S
H994 C1020 0.950 . S
H995 C1022 0.950 . S
H996 C1025 0.950 . S
H997 C1026 0.950 . S
H998 C1028 0.950 . S
H999 C1029 0.950 . S
C1000 H982 0.951 . S
C1000 C1001 1.366 . S
C1000 C1002 1.388 . S
C1001 C1000 1.366 . S
C1001 C1005 1.385 . S
C1002 H983 0.951 . S
C1002 C1000 1.388 . S
C1002 C1003 1.366 . S
C1003 C1002 1.366 . S
C1003 C1004 1.414 . S
C1003 C1006 1.499 . S
C1004 H984 0.950 . S
C1004 C1003 1.414 . S
C1004 C1005 1.374 . S
C1005 H985 0.950 . S
C1005 C1001 1.385 . S
C1005 C1004 1.374 . S
C1006 C1003 1.499 . S
C1006 C1007 1.373 . S
C1006 C1008 1.389 . S
C1007 H986 0.950 . S
C1007 C1006 1.373 . S
C1007 C1023 1.377 . S
C1008 C1006 1.389 . S
C1008 C1009 1.524 . S
C1008 C1022 1.377 . S
C1009 C1008 1.524 . S
C1009 C1010 1.397 . S
C1009 C1014 1.363 . S
C1010 H987 0.950 . S
C1010 C1009 1.397 . S
C1010 C1011 1.334 . S
C1011 H988 0.950 . S
C1011 C1010 1.334 . S
C1011 C1012 1.287 . S
C1012 C1011 1.287 . S
C1012 C1013 1.524 . S
C1012 H1031 0.913 . S
C1013 H989 0.950 . S
C1013 C1012 1.524 . S
C1013 C1014 1.415 . S
C1014 H990 0.950 . S
C1014 C1009 1.363 . S
C1014 C1013 1.415 . S
C1015 H991 0.951 . S
C1015 C1016 1.366 . S
C1015 C1017 1.388 . S
C1016 C1015 1.366 . S
C1016 C1020 1.385 . S
C1017 H992 0.951 . S
C1017 C1015 1.388 . S
C1017 C1018 1.366 . S
C1018 C1017 1.366 . S
C1018 C1019 1.414 . S
C1018 C1021 1.499 . S
C1019 H993 0.950 . S
C1019 C1018 1.414 . S
C1019 C1020 1.374 . S
C1020 H994 0.950 . S
C1020 C1016 1.385 . S
C1020 C1019 1.374 . S
C1021 C1018 1.499 . S
C1021 C1022 1.373 . S
C1021 C1023 1.389 . S
C1022 H995 0.950 . S
C1022 C1008 1.377 . S
C1022 C1021 1.373 . S
C1023 C1007 1.377 . S
C1023 C1021 1.389 . S
C1023 C1024 1.524 . S
C1024 C1023 1.524 . S
C1024 C1025 1.397 . S
C1024 C1029 1.363 . S
C1025 H996 0.950 . S
C1025 C1024 1.397 . S
C1025 C1026 1.334 . S
C1026 H997 0.950 . S
C1026 C1025 1.334 . S
C1026 C1027 1.287 . S
C1027 C1026 1.287 . S
C1027 C1028 1.524 . S
C1027 H1030 0.999 . S
C1028 H998 0.950 . S
C1028 C1027 1.524 . S
C1028 C1029 1.415 . S
C1029 H999 0.950 . S
C1029 C1024 1.363 . S
C1029 C1028 1.415 . S
H1030 C1027 0.999 . S
H1031 C1012 0.913 . S
H1032 C1050 0.951 . S
H1033 C1052 0.951 . S
H1034 C1054 0.950 . S
H1035 C1055 0.950 . S
H1036 C1057 0.950 . S
H1037 C1060 0.950 . S
H1038 C1061 0.950 . S
H1039 C1063 0.950 . S
H1040 C1064 0.950 . S
H1041 C1065 0.951 . S
H1042 C1067 0.951 . S
H1043 C1069 0.950 . S
H1044 C1070 0.950 . S
H1045 C1072 0.950 . S
H1046 C1075 0.950 . S
H1047 C1076 0.950 . S
H1048 C1078 0.950 . S
H1049 C1079 0.950 . S
C1050 H1032 0.951 . S
C1050 C1051 1.366 . S
C1050 C1052 1.388 . S
C1051 C1050 1.366 . S
C1051 C1055 1.385 . S
C1052 H1033 0.951 . S
C1052 C1050 1.388 . S
C1052 C1053 1.366 . S
C1053 C1052 1.366 . S
C1053 C1054 1.414 . S
C1053 C1056 1.499 . S
C1054 H1034 0.950 . S
C1054 C1053 1.414 . S
C1054 C1055 1.374 . S
C1055 H1035 0.950 . S
C1055 C1051 1.385 . S
C1055 C1054 1.374 . S
C1056 C1053 1.499 . S
C1056 C1057 1.373 . S
C1056 C1058 1.389 . S
C1057 H1036 0.950 . S
C1057 C1056 1.373 . S
C1057 C1073 1.377 . S
C1058 C1056 1.389 . S
C1058 C1059 1.524 . S
C1058 C1072 1.377 . S
C1059 C1058 1.524 . S
C1059 C1060 1.397 . S
C1059 C1064 1.363 . S
C1060 H1037 0.950 . S
C1060 C1059 1.397 . S
C1060 C1061 1.334 . S
C1061 H1038 0.950 . S
C1061 C1060 1.334 . S
C1061 C1062 1.287 . S
C1062 C1061 1.287 . S
C1062 C1063 1.524 . S
C1062 H1081 0.913 . S
C1063 H1039 0.950 . S
C1063 C1062 1.524 . S
C1063 C1064 1.415 . S
C1064 H1040 0.950 . S
C1064 C1059 1.363 . S
C1064 C1063 1.415 . S
C1065 H1041 0.951 . S
C1065 C1066 1.366 . S
C1065 C1067 1.388 . S
C1066 C1065 1.366 . S
C1066 C1070 1.385 . S
C1067 H1042 0.951 . S
C1067 C1065 1.388 . S
C1067 C1068 1.366 . S
C1068 C1067 1.366 . S
C1068 C1069 1.414 . S
C1068 C1071 1.499 . S
C1069 H1043 0.950 . S
C1069 C1068 1.414 . S
C1069 C1070 1.374 . S
C1070 H1044 0.950 . S
C1070 C1066 1.385 . S
C1070 C1069 1.374 . S
C1071 C1068 1.499 . S
C1071 C1072 1.373 . S
C1071 C1073 1.389 . S
C1072 H1045 0.950 . S
C1072 C1058 1.377 . S
C1072 C1071 1.373 . S
C1073 C1057 1.377 . S
C1073 C1071 1.389 . S
C1073 C1074 1.524 . S
C1074 C1073 1.524 . S
C1074 C1075 1.397 . S
C1074 C1079 1.363 . S
C1075 H1046 0.950 . S
C1075 C1074 1.397 . S
C1075 C1076 1.334 . S
C1076 H1047 0.950 . S
C1076 C1075 1.334 . S
C1076 C1077 1.287 . S
C1077 C1076 1.287 . S
C1077 C1078 1.524 . S
C1077 H1080 0.999 . S
C1078 H1048 0.950 . S
C1078 C1077 1.524 . S
C1078 C1079 1.415 . S
C1079 H1049 0.950 . S
C1079 C1074 1.363 . S
C1079 C1078 1.415 . S
H1080 C1077 0.999 . S
H1081 C1062 0.913 . S
H1082 C1100 0.951 . S
H1083 C1102 0.951 . S
H1084 C1104 0.950 . S
H1085 C1105 0.950 . S
H1086 C1107 0.950 . S
H1087 C1110 0.950 . S
H1088 C1111 0.950 . S
H1089 C1113 0.950 . S
H1090 C1114 0.950 . S
H1091 C1115 0.951 . S
H1092 C1117 0.951 . S
H1093 C1119 0.950 . S
H1094 C1120 0.950 . S
H1095 C1122 0.950 . S
H1096 C1125 0.950 . S
H1097 C1126 0.950 . S
H1098 C1128 0.950 . S
H1099 C1129 0.950 . S
C1100 H1082 0.951 . S
C1100 C1101 1.366 . S
C1100 C1102 1.388 . S
C1101 C1100 1.366 . S
C1101 C1105 1.385 . S
C1102 H1083 0.951 . S
C1102 C1100 1.388 . S
C1102 C1103 1.366 . S
C1103 C1102 1.366 . S
C1103 C1104 1.414 . S
C1103 C1106 1.499 . S
C1104 H1084 0.950 . S
C1104 C1103 1.414 . S
C1104 C1105 1.374 . S
C1105 H1085 0.950 . S
C1105 C1101 1.385 . S
C1105 C1104 1.374 . S
C1106 C1103 1.499 . S
C1106 C1107 1.373 . S
C1106 C1108 1.389 . S
C1107 H1086 0.950 . S
C1107 C1106 1.373 . S
C1107 C1123 1.377 . S
C1108 C1106 1.389 . S
C1108 C1109 1.524 . S
C1108 C1122 1.377 . S
C1109 C1108 1.524 . S
C1109 C1110 1.397 . S
C1109 C1114 1.363 . S
C1110 H1087 0.950 . S
C1110 C1109 1.397 . S
C1110 C1111 1.334 . S
C1111 H1088 0.950 . S
C1111 C1110 1.334 . S
C1111 C1112 1.287 . S
C1112 C1111 1.287 . S
C1112 C1113 1.524 . S
C1112 H1131 0.913 . S
C1113 H1089 0.950 . S
C1113 C1112 1.524 . S
C1113 C1114 1.415 . S
C1114 H1090 0.950 . S
C1114 C1109 1.363 . S
C1114 C1113 1.415 . S
C1115 H1091 0.951 . S
C1115 C1116 1.366 . S
C1115 C1117 1.388 . S
C1116 C1115 1.366 . S
C1116 C1120 1.385 . S
C1117 H1092 0.951 . S
C1117 C1115 1.388 . S
C1117 C1118 1.366 . S
C1118 C1117 1.366 . S
C1118 C1119 1.414 . S
C1118 C1121 1.499 . S
C1119 H1093 0.950 . S
C1119 C1118 1.414 . S
C1119 C1120 1.374 . S
C1120 H1094 0.950 . S
C1120 C1116 1.385 . S
C1120 C1119 1.374 . S
C1121 C1118 1.499 . S
C1121 C1122 1.373 . S
C1121 C1123 1.389 . S
C1122 H1095 0.950 . S
C1122 C1108 1.377 . S
C1122 C1121 1.373 . S
C1123 C1107 1.377 . S
C1123 C1121 1.389 . S
C1123 C1124 1.524 . S
C1124 C1123 1.524 . S
C1124 C1125 1.397 . S
C1124 C1129 1.363 . S
C1125 H1096 0.950 . S
C1125 C1124 1.397 . S
C1125 C1126 1.334 . S
C1126 H1097 0.950 . S
C1126 C1125 1.334 . S
C1126 C1127 1.287 . S
C1127 C1126 1.287 . S
C1127 C1128 1.524 . S
C1127 H1130 0.999 . S
C1128 H1098 0.950 . S
C1128 C1127 1.524 . S
C1128 C1129 1.415 . S
C1129 H1099 0.950 . S
C1129 C1124 1.363 . S
C1129 C1128 1.415 . S
H1130 C1127 0.999 . S
H1131 C1112 0.913 . S
H1132 C1150 0.951 . S
H1133 C1152 0.951 . S
H1134 C1154 0.950 . S
H1135 C1155 0.950 . S
H1136 C1157 0.950 . S
H1137 C1160 0.950 . S
H1138 C1161 0.950 . S
H1139 C1163 0.950 . S
H1140 C1164 0.950 . S
H1141 C1165 0.951 . S
H1142 C1167 0.951 . S
H1143 C1169 0.950 . S
H1144 C1170 0.950 . S
H1145 C1172 0.950 . S
H1146 C1175 0.950 . S
H1147 C1176 0.950 . S
H1148 C1178 0.950 . S
H1149 C1179 0.950 . S
C1150 H1132 0.951 . S
C1150 C1151 1.366 . S
C1150 C1152 1.388 . S
C1151 C1150 1.366 . S
C1151 C1155 1.385 . S
C1152 H1133 0.951 . S
C1152 C1150 1.388 . S
C1152 C1153 1.366 . S
C1153 C1152 1.366 . S
C1153 C1154 1.414 . S
C1153 C1156 1.499 . S
C1154 H1134 0.950 . S
C1154 C1153 1.414 . S
C1154 C1155 1.374 . S
C1155 H1135 0.950 . S
C1155 C1151 1.385 . S
C1155 C1154 1.374 . S
C1156 C1153 1.499 . S
C1156 C1157 1.373 . S
C1156 C1158 1.389 . S
C1157 H1136 0.950 . S
C1157 C1156 1.373 . S
C1157 C1173 1.377 . S
C1158 C1156 1.389 . S
C1158 C1159 1.524 . S
C1158 C1172 1.377 . S
C1159 C1158 1.524 . S
C1159 C1160 1.397 . S
C1159 C1164 1.363 . S
C1160 H1137 0.950 . S
C1160 C1159 1.397 . S
C1160 C1161 1.334 . S
C1161 H1138 0.950 . S
C1161 C1160 1.334 . S
C1161 C1162 1.287 . S
C1162 C1161 1.287 . S
C1162 C1163 1.524 . S
C1162 H1181 0.913 . S
C1163 H1139 0.950 . S
C1163 C1162 1.524 . S
C1163 C1164 1.415 . S
C1164 H1140 0.950 . S
C1164 C1159 1.363 . S
C1164 C1163 1.415 . S
C1165 H1141 0.951 . S
C1165 C1166 1.366 . S
C1165 C1167 1.388 . S
C1166 C1165 1.366 . S
C1166 C1170 1.385 . S
C1167 H1142 0.951 . S
C1167 C1165 1.388 . S
C1167 C1168 1.366 . S
C1168 C1167 1.366 . S
C1168 C1169 1.414 . S
C1168 C1171 1.499 . S
C1169 H1143 0.950 . S
C1169 C1168 1.414 . S
C1169 C1170 1.374 . S
C1170 H1144 0.950 . S
C1170 C1166 1.385 . S
C1170 C1169 1.374 . S
C1171 C1168 1.499 . S
C1171 C1172 1.373 . S
C1171 C1173 1.389 . S
C1172 H1145 0.950 . S
C1172 C1158 1.377 . S
C1172 C1171 1.373 . S
C1173 C1157 1.377 . S
C1173 C1171 1.389 . S
C1173 C1174 1.524 . S
C1174 C1173 1.524 . S
C1174 C1175 1.397 . S
C1174 C1179 1.363 . S
C1175 H1146 0.950 . S
C1175 C1174 1.397 . S
C1175 C1176 1.334 . S
C1176 H1147 0.950 . S
C1176 C1175 1.334 . S
C1176 C1177 1.287 . S
C1177 C1176 1.287 . S
C1177 C1178 1.524 . S
C1177 H1180 0.999 . S
C1178 H1148 0.950 . S
C1178 C1177 1.524 . S
C1178 C1179 1.415 . S
C1179 H1149 0.950 . S
C1179 C1174 1.363 . S
C1179 C1178 1.415 . S
H1180 C1177 0.999 . S
H1181 C1162 0.913 . S
H1182 C1200 0.951 . S
H1183 C1202 0.951 . S
H1184 C1204 0.950 . S
H1185 C1205 0.950 . S
H1186 C1207 0.950 . S
H1187 C1210 0.950 . S
H1188 C1211 0.950 . S
H1189 C1213 0.950 . S
H1190 C1214 0.950 . S
H1191 C1215 0.951 . S
H1192 C1217 0.951 . S
H1193 C1219 0.950 . S
H1194 C1220 0.950 . S
H1195 C1222 0.950 . S
H1196 C1225 0.950 . S
H1197 C1226 0.950 . S
H1198 C1228 0.950 . S
H1199 C1229 0.950 . S
C1200 H1182 0.951 . S
C1200 C1201 1.366 . S
C1200 C1202 1.388 . S
C1201 C1200 1.366 . S
C1201 C1205 1.385 . S
C1202 H1183 0.951 . S
C1202 C1200 1.388 . S
C1202 C1203 1.366 . S
C1203 C1202 1.366 . S
C1203 C1204 1.414 . S
C1203 C1206 1.499 . S
C1204 H1184 0.950 . S
C1204 C1203 1.414 . S
C1204 C1205 1.374 . S
C1205 H1185 0.950 . S
C1205 C1201 1.385 . S
C1205 C1204 1.374 . S
C1206 C1203 1.499 . S
C1206 C1207 1.373 . S
C1206 C1208 1.389 . S
C1207 H1186 0.950 . S
C1207 C1206 1.373 . S
C1207 C1223 1.377 . S
C1208 C1206 1.389 . S
C1208 C1209 1.524 . S
C1208 C1222 1.377 . S
C1209 C1208 1.524 . S
C1209 C1210 1.397 . S
C1209 C1214 1.363 . S
C1210 H1187 0.950 . S
C1210 C1209 1.397 . S
C1210 C1211 1.334 . S
C1211 H1188 0.950 . S
C1211 C1210 1.334 . S
C1211 C1212 1.287 . S
C1212 C1211 1.287 . S
C1212 C1213 1.524 . S
C1212 H1231 0.913 . S
C1213 H1189 0.950 . S
C1213 C1212 1.524 . S
C1213 C1214 1.415 . S
C1214 H1190 0.950 . S
C1214 C1209 1.363 . S
C1214 C1213 1.415 . S
C1215 H1191 0.951 . S
C1215 C1216 1.366 . S
C1215 C1217 1.388 . S
C1216 C1215 1.366 . S
C1216 C1220 1.385 . S
C1217 H1192 0.951 . S
C1217 C1215 1.388 . S
C1217 C1218 1.366 . S
C1218 C1217 1.366 . S
C1218 C1219 1.414 . S
C1218 C1221 1.499 . S
C1219 H1193 0.950 . S
C1219 C1218 1.414 . S
C1219 C1220 1.374 . S
C1220 H1194 0.950 . S
C1220 C1216 1.385 . S
C1220 C1219 1.374 . S
C1221 C1218 1.499 . S
C1221 C1222 1.373 . S
C1221 C1223 1.389 . S
C1222 H1195 0.950 . S
C1222 C1208 1.377 . S
C1222 C1221 1.373 . S
C1223 C1207 1.377 . S
C1223 C1221 1.389 . S
C1223 C1224 1.524 . S
C1224 C1223 1.524 . S
C1224 C1225 1.397 . S
C1224 C1229 1.363 . S
C1225 H1196 0.950 . S
C1225 C1224 1.397 . S
C1225 C1226 1.334 . S
C1226 H1197 0.950 . S
C1226 C1225 1.334 . S
C1226 C1227 1.287 . S
C1227 C1226 1.287 . S
C1227 C1228 1.524 . S
C1227 H1230 0.999 . S
C1228 H1198 0.950 . S
C1228 C1227 1.524 . S
C1228 C1229 1.415 . S
C1229 H1199 0.950 . S
C1229 C1224 1.363 . S
C1229 C1228 1.415 . S
H1230 C1227 0.999 . S
H1231 C1212 0.913 . S
H1232 C1250 0.951 . S
H1233 C1252 0.951 . S
H1234 C1254 0.950 . S
H1235 C1255 0.950 . S
H1236 C1257 0.950 . S
H1237 C1260 0.950 . S
H1238 C1261 0.950 . S
H1239 C1263 0.950 . S
H1240 C1264 0.950 . S
H1241 C1265 0.951 . S
H1242 C1267 0.951 . S
H1243 C1269 0.950 . S
H1244 C1270 0.950 . S
H1245 C1272 0.950 . S
H1246 C1275 0.950 . S
H1247 C1276 0.950 . S
H1248 C1278 0.950 . S
H1249 C1279 0.950 . S
C1250 H1232 0.951 . S
C1250 C1251 1.366 . S
C1250 C1252 1.388 . S
C1251 C1250 1.366 . S
C1251 C1255 1.385 . S
C1252 H1233 0.951 . S
C1252 C1250 1.388 . S
C1252 C1253 1.366 . S
C1253 C1252 1.366 . S
C1253 C1254 1.414 . S
C1253 C1256 1.499 . S
C1254 H1234 0.950 . S
C1254 C1253 1.414 . S
C1254 C1255 1.374 . S
C1255 H1235 0.950 . S
C1255 C1251 1.385 . S
C1255 C1254 1.374 . S
C1256 C1253 1.499 . S
C1256 C1257 1.373 . S
C1256 C1258 1.389 . S
C1257 H1236 0.950 . S
C1257 C1256 1.373 . S
C1257 C1273 1.377 . S
C1258 C1256 1.389 . S
C1258 C1259 1.524 . S
C1258 C1272 1.377 . S
C1259 C1258 1.524 . S
C1259 C1260 1.397 . S
C1259 C1264 1.363 . S
C1260 H1237 0.950 . S
C1260 C1259 1.397 . S
C1260 C1261 1.334 . S
C1261 H1238 0.950 . S
C1261 C1260 1.334 . S
C1261 C1262 1.287 . S
C1262 C1261 1.287 . S
C1262 C1263 1.524 . S
C1262 H1281 0.913 . S
C1263 H1239 0.950 . S
C1263 C1262 1.524 . S
C1263 C1264 1.415 . S
C1264 H1240 0.950 . S
C1264 C1259 1.363 . S
C1264 C1263 1.415 . S
C1265 H1241 0.951 . S
C1265 C1266 1.366 . S
C1265 C1267 1.388 . S
C1266 C1265 1.366 . S
C1266 C1270 1.385 . S
C1267 H1242 0.951 . S
C1267 C1265 1.388 . S
C1267 C1268 1.366 . S
C1268 C1267 1.366 . S
C1268 C1269 1.414 . S
C1268 C1271 1.499 . S
C1269 H1243 0.950 . S
C1269 C1268 1.414 . S
C1269 C1270 1.374 . S
C1270 H1244 0.950 . S
C1270 C1266 1.385 . S
C1270 C1269 1.374 . S
C1271 C1268 1.499 . S
C1271 C1272 1.373 . S
C1271 C1273 1.389 . S
C1272 H1245 0.950 . S
C1272 C1258 1.377 . S
C1272 C1271 1.373 . S
C1273 C1257 1.377 . S
C1273 C1271 1.389 . S
C1273 C1274 1.524 . S
C1274 C1273 1.524 . S
C1274 C1275 1.397 . S
C1274 C1279 1.363 . S
C1275 H1246 0.950 . S
C1275 C1274 1.397 . S
C1275 C1276 1.334 . S
C1276 H1247 0.950 . S
C1276 C1275 1.334 . S
C1276 C1277 1.287 . S
C1277 C1276 1.287 . S
C1277 C1278 1.524 . S
C1277 H1280 0.999 . S
C1278 H1248 0.950 . S
C1278 C1277 1.524 . S
C1278 C1279 1.415 . S
C1279 H1249 0.950 . S
C1279 C1274 1.363 . S
C1279 C1278 1.415 . S
H1280 C1277 0.999 . S
H1281 C1262 0.913 . S
H1282 C1300 0.951 . S
H1283 C1302 0.951 . S
H1284 C1304 0.950 . S
H1285 C1305 0.950 . S
H1286 C1307 0.950 . S
H1287 C1310 0.950 . S
H1288 C1311 0.950 . S
H1289 C1313 0.950 . S
H1290 C1314 0.950 . S
H1291 C1315 0.951 . S
H1292 C1317 0.951 . S
H1293 C1319 0.950 . S
H1294 C1320 0.950 . S
H1295 C1322 0.950 . S
H1296 C1325 0.950 . S
H1297 C1326 0.950 . S
H1298 C1328 0.950 . S
H1299 C1329 0.950 . S
C1300 H1282 0.951 . S
C1300 C1301 1.366 . S
C1300 C1302 1.388 . S
C1301 C1300 1.366 . S
C1301 C1305 1.385 . S
C1302 H1283 0.951 . S
C1302 C1300 1.388 . S
C1302 C1303 1.366 . S
C1303 C1302 1.366 . S
C1303 C1304 1.414 . S
C1303 C1306 1.499 . S
C1304 H1284 0.950 . S
C1304 C1303 1.414 . S
C1304 C1305 1.374 . S
C1305 H1285 0.950 . S
C1305 C1301 1.385 . S
C1305 C1304 1.374 . S
C1306 C1303 1.499 . S
C1306 C1307 1.373 . S
C1306 C1308 1.389 . S
C1307 H1286 0.950 . S
C1307 C1306 1.373 . S
C1307 C1323 1.377 . S
C1308 C1306 1.389 . S
C1308 C1309 1.524 . S
C1308 C1322 1.377 . S
C1309 C1308 1.524 . S
C1309 C1310 1.397 . S
C1309 C1314 1.363 . S
C1310 H1287 0.950 . S
C1310 C1309 1.397 . S
C1310 C1311 1.334 . S
C1311 H1288 0.950 . S
C1311 C1310 1.334 . S
C1311 C1312 1.287 . S
C1312 C1311 1.287 . S
C1312 C1313 1.524 . S
C1312 H1331 0.913 . S
C1313 H1289 0.950 . S
C1313 C1312 1.524 . S
C1313 C1314 1.415 . S
C1314 H1290 0.950 . S
C1314 C1309 1.363 . S
C1314 C1313 1.415 . S
C1315 H1291 0.951 . S
C1315 C1316 1.366 . S
C1315 C1317 1.388 . S
C1316 C1315 1.366 . S
C1316 C1320 1.385 . S
C1317 H1292 0.951 . S
C1317 C1315 1.388 . S
C1317 C1318 1.366 . S
C1318 C1317 1.366 . S
C1318 C1319 1.414 . S
C1318 C1321 1.499 . S
C1319 H1293 0.950 . S
C1319 C1318 1.414 . S
C1319 C1320 1.374 . S
C1320 H1294 0.950 . S
C1320 C1316 1.385 . S
C1320 C1319 1.374 . S
C1321 C1318 1.499 . S
C1321 C1322 1.373 . S
C1321 C1323 1.389 . S
C1322 H1295 0.950 . S
C1322 C1308 1.377 . S
C1322 C1321 1.373 . S
C1323 C1307 1.377 . S
C1323 C1321 1.389 . S
C1323 C1324 1.524 . S
C1324 C1323 1.524 . S
C1324 C1325 1.397 . S
C1324 C1329 1.363 . S
C1325 H1296 0.950 . S
C1325 C1324 1.397 . S
C1325 C1326 1.334 . S
C1326 H1297 0.950 . S
C1326 C1325 1.334 . S
C1326 C1327 1.287 . S
C1327 C1326 1.287 . S
C1327 C1328 1.524 . S
C1327 H1330 0.999 . S
C1328 H1298 0.950 . S
C1328 C1327 1.524 . S
C1328 C1329 1.415 . S
C1329 H1299 0.950 . S
C1329 C1324 1.363 . S
C1329 C1328 1.415 . S
H1330 C1327 0.999 . S
H1331 C1312 0.913 . S
H1332 C1350 0.951 . S
H1333 C1352 0.951 . S
H1334 C1354 0.950 . S
H1335 C1355 0.950 . S
H1336 C1357 0.950 . S
H1337 C1360 0.950 . S
H1338 C1361 0.950 . S
H1339 C1363 0.950 . S
H1340 C1364 0.950 . S
H1341 C1365 0.951 . S
H1342 C1367 0.951 . S
H1343 C1369 0.950 . S
H1344 C1370 0.950 . S
H1345 C1372 0.950 . S
H1346 C1375 0.950 . S
H1347 C1376 0.950 . S
H1348 C1378 0.950 . S
H1349 C1379 0.950 . S
C1350 H1332 0.951 . S
C1350 C1351 1.366 . S
C1350 C1352 1.388 . S
C1351 C1350 1.366 . S
C1351 C1355 1.385 . S
C1352 H1333 0.951 . S
C1352 C1350 1.388 . S
C1352 C1353 1.366 . S
C1353 C1352 1.366 . S
C1353 C1354 1.414 . S
C1353 C1356 1.499 . S
C1354 H1334 0.950 . S
C1354 C1353 1.414 . S
C1354 C1355 1.374 . S
C1355 H1335 0.950 . S
C1355 C1351 1.385 . S
C1355 C1354 1.374 . S
C1356 C1353 1.499 . S
C1356 C1357 1.373 . S
C1356 C1358 1.389 . S
C1357 H1336 0.950 . S
C1357 C1356 1.373 . S
C1357 C1373 1.377 . S
C1358 C1356 1.389 . S
C1358 C1359 1.524 . S
C1358 C1372 1.377 . S
C1359 C1358 1.524 . S
C1359 C1360 1.397 . S
C1359 C1364 1.363 . S
C1360 H1337 0.950 . S
C1360 C1359 1.397 . S
C1360 C1361 1.334 . S
C1361 H1338 0.950 . S
C1361 C1360 1.334 . S
C1361 C1362 1.287 . S
C1362 C1361 1.287 . S
C1362 C1363 1.524 . S
C1362 H1381 0.913 . S
C1363 H1339 0.950 . S
C1363 C1362 1.524 . S
C1363 C1364 1.415 . S
C1364 H1340 0.950 . S
C1364 C1359 1.363 . S
C1364 C1363 1.415 . S
C1365 H1341 0.951 . S
C1365 C1366 1.366 . S
C1365 C1367 1.388 . S
C1366 C1365 1.366 . S
C1366 C1370 1.385 . S
C1367 H1342 0.951 . S
C1367 C1365 1.388 . S
C1367 C1368 1.366 . S
C1368 C1367 1.366 . S
C1368 C1369 1.414 . S
C1368 C1371 1.499 . S
C1369 H1343 0.950 . S
C1369 C1368 1.414 . S
C1369 C1370 1.374 . S
C1370 H1344 0.950 . S
C1370 C1366 1.385 . S
C1370 C1369 1.374 . S
C1371 C1368 1.499 . S
C1371 C1372 1.373 . S
C1371 C1373 1.389 . S
C1372 H1345 0.950 . S
C1372 C1358 1.377 . S
C1372 C1371 1.373 . S
C1373 C1357 1.377 . S
C1373 C1371 1.389 . S
C1373 C1374 1.524 . S
C1374 C1373 1.524 . S
C1374 C1375 1.397 . S
C1374 C1379 1.363 . S
C1375 H1346 0.950 . S
C1375 C1374 1.397 . S
C1375 C1376 1.334 . S
C1376 H1347 0.950 . S
C1376 C1375 1.334 . S
C1376 C1377 1.287 . S
C1377 C1376 1.287 . S
C1377 C1378 1.524 . S
C1377 H1380 0.999 . S
C1378 H1348 0.950 . S
C1378 C1377 1.524 . S
C1378 C1379 1.415 . S
C1379 H1349 0.950 . S
C1379 C1374 1.363 . S
C1379 C1378 1.415 . S
H1380 C1377 0.999 . S
H1381 C1362 0.913 . S
H1382 C1400 0.951 . S
H1383 C1402 0.951 . S
H1384 C1404 0.950 . S
H1385 C1405 0.950 . S
H1386 C1407 0.950 . S
H1387 C1410 0.950 . S
H1388 C1411 0.950 . S
H1389 C1413 0.950 . S
H1390 C1414 0.950 . S
H1391 C1415 0.951 . S
H1392 C1417 0.951 . S
H1393 C1419 0.950 . S
H1394 C1420 0.950 . S
H1395 C1422 0.950 . S
H1396 C1425 0.950 . S
H1397 C1426 0.950 . S
H1398 C1428 0.950 . S
H1399 C1429 0.950 . S
C1400 H1382 0.951 . S
C1400 C1401 1.366 . S
C1400 C1402 1.388 . S
C1401 C1400 1.366 . S
C1401 C1405 1.385 . S
C1402 H1383 0.951 . S
C1402 C1400 1.388 . S
C1402 C1403 1.366 . S
C1403 C1402 1.366 . S
C1403 C1404 1.414 . S
C1403 C1406 1.499 . S
C1404 H1384 0.950 . S
C1404 C1403 1.414 . S
C1404 C1405 1.374 . S
C1405 H1385 0.950 . S
C1405 C1401 1.385 . S
C1405 C1404 1.374 . S
C1406 C1403 1.499 . S
C1406 C1407 1.373 . S
C1406 C1408 1.389 . S
C1407 H1386 0.950 . S
C1407 C1406 1.373 . S
C1407 C1423 1.377 . S
C1408 C1406 1.389 . S
C1408 C1409 1.524 . S
C1408 C1422 1.377 . S
C1409 C1408 1.524 . S
C1409 C1410 1.397 . S
C1409 C1414 1.363 . S
C1410 H1387 0.950 . S
C1410 C1409 1.397 . S
C1410 C1411 1.334 . S
C1411 H1388 0.950 . S
C1411 C1410 1.334 . S
C1411 C1412 1.287 . S
C1412 C1411 1.287 . S
C1412 C1413 1.524 . S
C1412 H1431 0.913 . S
C1413 H1389 0.950 . S
C1413 C1412 1.524 . S
C1413 C1414 1.415 . S
C1414 H1390 0.950 . S
C1414 C1409 1.363 . S
C1414 C1413 1.415 . S
C1415 H1391 0.951 . S
C1415 C1416 1.366 . S
C1415 C1417 1.388 . S
C1416 C1415 1.366 . S
C1416 C1420 1.385 . S
C1417 H1392 0.951 . S
C1417 C1415 1.388 . S
C1417 C1418 1.366 . S
C1418 C1417 1.366 . S
C1418 C1419 1.414 . S
C1418 C1421 1.499 . S
C1419 H1393 0.950 . S
C1419 C1418 1.414 . S
C1419 C1420 1.374 . S
C1420 H1394 0.950 . S
C1420 C1416 1.385 . S
C1420 C1419 1.374 . S
C1421 C1418 1.499 . S
C1421 C1422 1.373 . S
C1421 C1423 1.389 . S
C1422 H1395 0.950 . S
C1422 C1408 1.377 . S
C1422 C1421 1.373 . S
C1423 C1407 1.377 . S
C1423 C1421 1.389 . S
C1423 C1424 1.524 . S
C1424 C1423 1.524 . S
C1424 C1425 1.397 . S
C1424 C1429 1.363 . S
C1425 H1396 0.950 . S
C1425 C1424 1.397 . S
C1425 C1426 1.334 . S
C1426 H1397 0.950 . S
C1426 C1425 1.334 . S
C1426 C1427 1.287 . S
C1427 C1426 1.287 . S
C1427 C1428 1.524 . S
C1427 H1430 0.999 . S
C1428 H1398 0.950 . S
C1428 C1427 1.524 . S
C1428 C1429 1.415 . S
C1429 H1399 0.950 . S
C1429 C1424 1.363 . S
C1429 C1428 1.415 . S
H1430 C1427 0.999 . S
H1431 C1412 0.913 . S
C251 C5 0.843 . S
C266 C87 0.844 . S
C301 C14 1.417 . S
C316 C131 1.414 . S
C366 C161 2.043 . S
C351 C25 2.053 . S
C401 C34 2.778 . S
C416 C202 2.730 . S
C466 C118 0.639 . S
C451 C7 0.640 . S
C516 C82 2.408 . S
C501 C13 2.401 . S
C566 C210 1.094 . S
C551 C23 1.100 . S
C616 C171 2.107 . S
C601 C31 2.159 . S
C651 C4 0.693 . S
C666 C207 0.691 . S
C716 C121 1.946 . S
C701 C22 1.996 . S
C751 C32 2.063 . S
C766 C90 2.013 . S
C801 C16 1.793 . S
C816 C158 1.800 . S
C866 C78 0.829 . S
C851 C41 0.828 . S
C901 C50 1.428 . S
C916 C122 1.426 . S
C951 C61 2.050 . S
C966 C170 2.039 . S
C1001 C67 2.791 . S
C1016 C211 2.742 . S
C1051 C40 0.659 . S
C1066 C127 0.659 . S
C1116 C91 2.382 . S
C1101 C52 2.371 . S
C1166 C201 1.101 . S
C1151 C59 1.111 . S
C1216 C162 2.109 . S
C1201 C70 2.157 . S
C1251 C43 0.685 . S
C1266 C198 0.684 . S
C1316 C130 1.963 . S
C1301 C58 2.016 . S
C1366 C81 1.995 . S
C1351 C68 2.042 . S
C1401 C49 1.803 . S
C1416 C167 1.806 . S
