# Generated by pormake.
# Topology anh, (6,3)-cn, num edge types: 1
# Building blocks:
#     Node 0, Type 0, BuildingBlock: BETFEN_clean_sbu_0, # of connection points: 6
#     Node 1, Type 0, BuildingBlock: BETFEN_clean_sbu_0, # of connection points: 6
#     Node 2, Type 0, BuildingBlock: BETFEN_clean_sbu_0, # of connection points: 6
#     Node 3, Type 1, BuildingBlock: VETTIZ_charged_linker_0, # of connection points: 3
#     Node 4, Type 1, BuildingBlock: VETTIZ_charged_linker_0, # of connection points: 3
#     Node 5, Type 1, BuildingBlock: VETTIZ_charged_linker_0, # of connection points: 3
#     Node 6, Type 1, BuildingBlock: VETTIZ_charged_linker_0, # of connection points: 3
#     Node 7, Type 1, BuildingBlock: VETTIZ_charged_linker_0, # of connection points: 3
#     Node 8, Type 1, BuildingBlock: VETTIZ_charged_linker_0, # of connection points: 3
#     Edge 9, Type (0, 1), BuildingBlock: XUDNAN_clean_linker_2, # of connection points: 2
#     Edge 10, Type (0, 1), BuildingBlock: XUDNAN_clean_linker_2, # of connection points: 2
#     Edge 11, Type (0, 1), BuildingBlock: XUDNAN_clean_linker_2, # of connection points: 2
#     Edge 12, Type (0, 1), BuildingBlock: XUDNAN_clean_linker_2, # of connection points: 2
#     Edge 13, Type (0, 1), BuildingBlock: XUDNAN_clean_linker_2, # of connection points: 2
#     Edge 14, Type (0, 1), BuildingBlock: XUDNAN_clean_linker_2, # of connection points: 2
#     Edge 15, Type (0, 1), BuildingBlock: XUDNAN_clean_linker_2, # of connection points: 2
#     Edge 16, Type (0, 1), BuildingBlock: XUDNAN_clean_linker_2, # of connection points: 2
#     Edge 17, Type (0, 1), BuildingBlock: XUDNAN_clean_linker_2, # of connection points: 2
#     Edge 18, Type (0, 1), BuildingBlock: XUDNAN_clean_linker_2, # of connection points: 2
#     Edge 19, Type (0, 1), BuildingBlock: XUDNAN_clean_linker_2, # of connection points: 2
#     Edge 20, Type (0, 1), BuildingBlock: XUDNAN_clean_linker_2, # of connection points: 2
#     Edge 21, Type (0, 1), BuildingBlock: XUDNAN_clean_linker_2, # of connection points: 2
#     Edge 22, Type (0, 1), BuildingBlock: XUDNAN_clean_linker_2, # of connection points: 2
#     Edge 23, Type (0, 1), BuildingBlock: XUDNAN_clean_linker_2, # of connection points: 2
#     Edge 24, Type (0, 1), BuildingBlock: XUDNAN_clean_linker_2, # of connection points: 2
#     Edge 25, Type (0, 1), BuildingBlock: XUDNAN_clean_linker_2, # of connection points: 2
#     Edge 26, Type (0, 1), BuildingBlock: XUDNAN_clean_linker_2, # of connection points: 2
# Relax obj value: 0.187
# Max RMSD: 0.210
# Mean RMSD: 0.159
data_MOF--net-anh--node1-BETFEN_clean_sbu_0--node2-VETTIZ_charged_linker_0--edge1-XUDNAN_clean_linker_2
_symmetry_space_group_name_H-M    P1
_symmetry_Int_Tables_number       1
_symmetry_cell_setting            triclinic
loop_
_symmetry_equiv_pos_as_xyz
'x, y, z'
_cell_length_a     35.363924
_cell_length_b     37.957902
_cell_length_c     66.866891
_cell_angle_alpha  90.096247
_cell_angle_beta   92.318255
_cell_angle_gamma 106.78623
loop_
_atom_site_label
_atom_site_type_symbol
_atom_site_fract_x
_atom_site_fract_y
_atom_site_fract_z
_atom_type_partial_charge
Pr0 Pr 0.03807 0.53903 0.15783 0.0
Pr1 Pr 0.06981 0.62112 0.16083 0.0
C2 C 1.01452 0.46534 0.16261 0.0
C3 C 0.97734 0.4365 0.16585 0.0
C4 C 0.97741 0.39972 0.16735 0.0
C5 C 0.94218 0.37194 0.17011 0.0
C6 C 0.90613 0.38044 0.17142 0.0
C7 C 0.90628 0.4175 0.16988 0.0
C8 C 0.94157 0.44526 0.16713 0.0
C9 C 0.04934 0.5734 0.12076 0.0
C10 C 0.97135 0.58289 0.15533 0.0
C11 C 0.09283 0.69506 0.15736 0.0
C12 C 0.12719 0.72735 0.16264 0.0
C13 C 0.12926 0.74596 0.18103 0.0
C14 C 0.16053 0.77734 0.18576 0.0
C15 C 0.19045 0.79119 0.17218 0.0
C16 C 0.18869 0.77239 0.15387 0.0
C17 C 0.15731 0.74091 0.14911 0.0
C18 C 0.06122 0.58713 0.19788 0.0
C19 C 0.13738 0.57763 0.16284 0.0
O20 O 0.02842 0.48873 0.17739 0.0
O21 O 1.01736 0.48101 0.14514 0.0
O22 O 0.07331 0.58117 0.13569 0.0
O23 O 1.01792 0.54708 0.12472 0.0
O24 O 1.00165 0.61225 0.15239 0.0
O25 O 0.97715 0.5511 0.16 0.0
O26 O 0.0967 0.67268 0.14318 0.0
O27 O 0.07221 0.67791 0.17208 0.0
O28 O 0.03598 0.5788 0.1834 0.0
O29 O 0.09183 0.61397 0.19349 0.0
O30 O 0.1075 0.54693 0.16281 0.0
O31 O 0.13125 0.61016 0.16127 0.0
H32 H 1.00472 0.39244 0.16628 0.0
H33 H 0.94313 0.34371 0.17095 0.0
H34 H 0.87922 0.42515 0.17108 0.0
H35 H 0.94096 0.47356 0.166 0.0
H36 H 0.10651 0.73649 0.19177 0.0
H37 H 0.16124 0.79077 0.20013 0.0
H38 H 0.21104 0.78252 0.14299 0.0
H39 H 0.15641 0.7275 0.13471 0.0
Pr40 Pr 0.60275 0.04293 0.51604 0.0
Pr41 Pr 0.51559 1.02061 0.52081 0.0
C42 C 0.6777 0.07558 0.50565 0.0
C43 C 0.70509 0.11331 0.50392 0.0
C44 C 0.72182 0.13474 0.521 0.0
C45 C 0.74808 0.17001 0.51912 0.0
C46 C 0.75835 0.1848 0.50013 0.0
C47 C 0.74158 0.16329 0.48306 0.0
C48 C 0.7154 0.12798 0.48495 0.0
C49 C 0.57915 1.02865 0.55519 0.0
C50 C 0.55751 0.11344 0.5205 0.0
C51 C 0.43976 0.98902 0.53037 0.0
C52 C 0.40938 0.95308 0.52822 0.0
C53 C 0.37075 0.9499 0.5337 0.0
C54 C 0.34105 0.91648 0.53111 0.0
C55 C 0.34933 0.88535 0.523 0.0
C56 C 0.38831 0.88867 0.51759 0.0
C57 C 0.41805 0.92224 0.52017 0.0
C58 C 0.53767 0.03429 0.48157 0.0
C59 C 0.5619 0.95021 0.51708 0.0
O60 O 0.64782 0.06565 0.4926 0.0
O61 O 0.66846 0.0634 0.52362 0.0
O62 O 0.56599 0.04758 0.54279 0.0
O63 O 0.60689 1.01722 0.54767 0.0
O64 O 0.52596 0.08702 0.52646 0.0
O65 O 0.58803 0.10254 0.51428 0.0
O66 O 0.47001 0.99091 0.54267 0.0
O67 O 0.44972 1.00706 0.51387 0.0
O68 O 0.55221 1.01568 0.49363 0.0
O69 O 0.51067 0.04607 0.48948 0.0
O70 O 0.59347 0.97729 0.5119 0.0
O71 O 0.52983 0.95992 0.52221 0.0
H72 H 0.71484 0.12428 0.53588 0.0
H73 H 0.76081 0.18545 0.5326 0.0
H74 H 0.7483 0.17386 0.46819 0.0
H75 H 0.70315 0.11212 0.47151 0.0
H76 H 0.36343 0.97345 0.53981 0.0
H77 H 0.31136 0.91527 0.53514 0.0
H78 H 0.39593 0.86526 0.51152 0.0
H79 H 0.44773 0.92417 0.5158 0.0
Pr80 Pr 0.55636 0.53943 0.83014 0.0
Pr81 Pr 0.58335 0.62009 0.8304 0.0
C82 C 0.52107 0.46662 0.82587 0.0
C83 C 0.51753 0.43281 0.81444 0.0
C84 C 0.49919 0.39917 0.82326 0.0
C85 C 0.48997 0.36666 0.81202 0.0
C86 C 0.49881 0.36732 0.79168 0.0
C87 C 0.51885 0.40096 0.78309 0.0
C88 C 0.52841 0.43353 0.79446 0.0
C89 C 0.56553 0.57052 0.86889 0.0
C90 C 0.65114 0.57445 0.82851 0.0
C91 C 0.61328 0.69173 0.84032 0.0
C92 C 0.59579 0.71846 0.84915 0.0
C93 C 0.61072 0.75585 0.84483 0.0
C94 C 0.59002 0.78051 0.85011 0.0
C95 C 0.55397 0.76802 0.85975 0.0
C96 C 0.54055 0.73086 0.86522 0.0
C97 C 0.5612 0.70624 0.85987 0.0
C98 C 0.56891 0.59068 0.7916 0.0
C99 C 0.48779 0.58405 0.8276 0.0
O100 O 0.50783 0.49167 0.81707 0.0
O101 O 0.55288 0.48012 0.83727 0.0
O102 O 0.54926 0.58098 0.85392 0.0
O103 O 0.57904 0.54365 0.86391 0.0
O104 O 0.64364 0.60428 0.8355 0.0
O105 O 0.62172 0.54641 0.82178 0.0
O106 O 0.6171 0.66522 0.85199 0.0
O107 O 0.59959 0.68024 0.82227 0.0
O108 O 0.58604 0.5782 0.80563 0.0
O109 O 0.56123 0.62076 0.79682 0.0
O110 O 0.49711 0.55444 0.82178 0.0
O111 O 0.51577 0.61293 0.83473 0.0
H112 H 0.4905 0.39819 0.83866 0.0
H113 H 0.47405 0.34127 0.819 0.0
H114 H 0.52634 0.40215 0.76751 0.0
H115 H 0.54315 0.45922 0.78751 0.0
H116 H 0.63721 0.76563 0.83642 0.0
H117 H 0.60088 0.80879 0.84539 0.0
H118 H 0.51306 0.72047 0.87276 0.0
H119 H 0.5491 0.67734 0.86326 0.0
C120 C 0.65407 0.15139 0.20957 0.0
C121 C 0.68819 0.17656 0.21842 0.0
C122 C 0.6959 0.17471 0.23919 0.0
C123 C 0.6364 0.12403 0.24199 0.0
C124 C 0.62871 0.12534 0.22162 0.0
C125 C 0.59101 0.09653 0.2149 0.0
H126 H 0.42481 0.96537 0.24091 0.0
C127 C 0.60426 0.09454 0.2504 0.0
C128 C 0.57753 0.07797 0.23462 0.0
H129 H 0.45625 1.00404 0.18152 0.0
H130 H 0.51969 0.04314 0.19471 0.0
H131 H 0.50778 0.9547 0.25353 0.0
H132 H 0.45746 0.04328 0.26375 0.0
H133 H 0.47957 0.03438 0.28649 0.0
H134 H 0.43995 0.99866 0.27473 0.0
H135 H 0.47414 0.95298 0.27311 0.0
H136 H 0.52681 0.97337 0.27713 0.0
C137 C 0.60144 0.06986 0.20002 0.0
C138 C 0.56184 0.11652 0.20609 0.0
C139 C 0.60171 0.07708 0.32575 0.0
C140 C 0.57525 0.0528 0.33812 0.0
C141 C 0.54351 1.02501 0.32923 0.0
C142 C 0.53724 1.02245 0.30838 0.0
C143 C 0.56297 0.04792 0.29623 0.0
C144 C 0.59515 0.074 0.30493 0.0
C145 C 0.61998 0.09807 0.28966 0.0
C146 C 0.59689 0.08265 0.27037 0.0
C147 C 0.56328 0.05369 0.27435 0.0
C148 C 0.66148 0.09182 0.29075 0.0
C149 C 0.62003 0.1383 0.29381 0.0
C150 C 0.44555 0.98218 0.23079 0.0
C151 C 0.43579 0.98209 0.21027 0.0
C152 C 0.46343 1.00388 0.19741 0.0
C153 C 0.49999 1.02664 0.20513 0.0
C154 C 0.50888 1.02738 0.22589 0.0
C155 C 0.48209 1.00466 0.23822 0.0
C156 C 0.49644 1.00801 0.25976 0.0
C157 C 0.5359 0.03716 0.25853 0.0
C158 C 0.54306 0.04885 0.23871 0.0
C159 C 0.50138 0.97038 0.26641 0.0
C160 C 0.4669 1.02158 0.27199 0.0
H161 H 0.67804 0.14904 0.26663 0.0
H162 H 0.64737 0.15182 0.19365 0.0
H163 H 0.56227 0.14072 0.21561 0.0
H164 H 0.53088 0.09917 0.20545 0.0
H165 H 0.56994 0.1266 0.19081 0.0
H166 H 0.63011 0.06499 0.20457 0.0
H167 H 0.60414 0.08126 0.18468 0.0
H168 H 0.57971 0.04232 0.19954 0.0
H169 H 0.62668 0.0984 0.33215 0.0
H170 H 0.5226 1.00612 0.33846 0.0
H171 H 0.51201 1.00127 0.30256 0.0
H172 H 0.65991 0.06358 0.29588 0.0
H173 H 0.68197 0.11157 0.30136 0.0
H174 H 0.67484 0.09376 0.27597 0.0
H175 H 0.59041 0.13926 0.29836 0.0
H176 H 0.62619 0.15591 0.28053 0.0
H177 H 0.64179 0.15108 0.30609 0.0
H178 H 0.72137 0.19406 0.24655 0.0
C179 C 0.67042 0.14864 0.25093 0.0
C180 C 0.55658 0.64153 0.52232 0.0
C181 C 0.55021 0.67329 0.53304 0.0
C182 C 0.54047 0.66635 0.55313 0.0
C183 C 0.54489 0.60246 0.55221 0.0
C184 C 0.55286 0.60581 0.53221 0.0
C185 C 0.55629 0.56712 0.52474 0.0
H186 H 0.54951 0.38249 0.55938 0.0
C187 C 0.54515 0.56479 0.5596 0.0
C188 C 0.55073 0.54174 0.54373 0.0
H189 H 0.56131 0.41066 0.49727 0.0
H190 H 0.55933 0.4743 0.50536 0.0
H191 H 0.61298 0.45415 0.57292 0.0
H192 H 0.48646 0.42005 0.56956 0.0
H193 H 0.49919 0.44363 0.59248 0.0
H194 H 0.51518 0.40347 0.588 0.0
H195 H 0.58464 0.42538 0.59146 0.0
H196 H 0.60027 0.47503 0.59392 0.0
C197 C 0.59717 0.5718 0.51636 0.0
C198 C 0.52353 0.55066 0.50876 0.0
C199 C 0.53748 0.54887 0.63527 0.0
C200 C 0.54122 0.52089 0.64837 0.0
C201 C 0.54678 0.48872 0.63994 0.0
C202 C 0.54778 0.48423 0.61919 0.0
C203 C 0.54418 0.51246 0.60628 0.0
C204 C 0.53953 0.54416 0.6145 0.0
C205 C 0.5378 0.57186 0.59879 0.0
C206 C 0.54282 0.55192 0.57964 0.0
C207 C 0.54559 0.51674 0.58407 0.0
C208 C 0.57317 0.60674 0.60341 0.0
C209 C 0.4961 0.57779 0.59914 0.0
C210 C 0.55097 0.4013 0.54709 0.0
C211 C 0.55482 0.38897 0.52755 0.0
C212 C 0.55808 0.41735 0.51272 0.0
C213 C 0.55688 0.45477 0.51733 0.0
C214 C 0.55307 0.4661 0.53728 0.0
C215 C 0.55065 0.4384 0.55141 0.0
C216 C 0.54954 0.45266 0.572 0.0
C217 C 0.54864 0.49207 0.56857 0.0
C218 C 0.55117 0.50271 0.54807 0.0
C219 C 0.58855 0.4516 0.58332 0.0
C220 C 0.51089 0.42877 0.58118 0.0
H221 H 0.53092 0.63175 0.57776 0.0
H222 H 0.56386 0.6443 0.50674 0.0
H223 H 0.49399 0.54744 0.51489 0.0
H224 H 0.52486 0.52316 0.50372 0.0
H225 H 0.52665 0.56886 0.49555 0.0
H226 H 0.62077 0.58395 0.52797 0.0
H227 H 0.60167 0.59029 0.50325 0.0
H228 H 0.60026 0.54474 0.51158 0.0
H229 H 0.53285 0.57398 0.64091 0.0
H230 H 0.55093 0.46685 0.64935 0.0
H231 H 0.55125 0.45861 0.61416 0.0
H232 H 0.5983 0.59967 0.61129 0.0
H233 H 0.56449 0.62661 0.61312 0.0
H234 H 0.58619 0.62087 0.5898 0.0
H235 H 0.47362 0.55288 0.6044 0.0
H236 H 0.48455 0.58256 0.58405 0.0
H237 H 0.49606 0.60097 0.60928 0.0
H238 H 0.53593 0.68803 0.56242 0.0
C239 C 0.53786 0.63254 0.56238 0.0
C240 C 0.18363 0.59441 0.84717 0.0
C241 C 0.22132 0.59927 0.85692 0.0
C242 C 0.22505 0.60602 0.87773 0.0
C243 C 0.15539 0.60154 0.87903 0.0
C244 C 0.15109 0.59608 0.85854 0.0
C245 C 0.10877 0.59251 0.85117 0.0
H246 H 0.91936 0.58381 0.8773 0.0
C247 C 0.11636 0.59952 0.88696 0.0
C248 C 0.08836 0.59434 0.87079 0.0
H249 H 0.95894 0.58286 0.81716 0.0
H250 H 1.0253 0.58625 0.83034 0.0
H251 H 0.95854 0.52818 0.89316 0.0
H252 H 0.99619 0.64621 0.89637 0.0
H253 H 1.00198 0.62917 0.92046 0.0
H254 H 0.9538 0.61731 0.90823 0.0
H255 H 0.94339 0.55252 0.91282 0.0
H256 H 0.98823 0.53876 0.91526 0.0
C257 C 0.09157 0.55507 0.84034 0.0
C258 C 0.10933 0.6256 0.83771 0.0
C259 C 0.1045 0.60437 0.96251 0.0
C260 C 0.07185 0.59614 0.975 0.0
C261 C 0.03353 0.58713 0.9657 0.0
C262 C 0.02799 0.58702 0.94484 0.0
C263 C 0.06088 0.59494 0.93276 0.0
C264 C 0.09825 0.60257 0.94164 0.0
C265 C 0.12938 0.60601 0.92648 0.0
C266 C 0.10446 0.60001 0.90699 0.0
C267 C 0.0646 0.59456 0.91078 0.0
C268 C 0.1493 0.57496 0.93034 0.0
C269 C 0.15793 0.64558 0.92812 0.0
C270 C 0.94235 0.58519 0.86685 0.0
C271 C 0.93376 0.58391 0.84616 0.0
C272 C 0.9646 0.58411 0.83322 0.0
C273 C 1.00321 0.58629 0.84088 0.0
C274 C 1.01123 0.58801 0.86174 0.0
C275 C 0.98059 0.5871 0.8742 0.0
C276 C 0.99277 0.58733 0.89589 0.0
C277 C 0.03634 0.59075 0.89468 0.0
C278 C 0.04769 0.59085 0.87466 0.0
C279 C 0.96951 0.54999 0.90489 0.0
C280 C 0.98575 0.62162 0.90593 0.0
H281 H 0.19802 0.61218 0.90447 0.0
H282 H 0.17966 0.58958 0.83116 0.0
H283 H 0.12786 0.65163 0.84492 0.0
H284 H 0.07972 0.62917 0.83501 0.0
H285 H 0.12186 0.6226 0.82304 0.0
H286 H 0.0969 0.53259 0.84966 0.0
H287 H 0.10565 0.55474 0.82582 0.0
H288 H 0.05932 0.54829 0.83748 0.0
H289 H 0.13457 0.61176 0.96859 0.0
H290 H 1.00733 0.57925 0.97436 0.0
H291 H 0.99812 0.58031 0.93894 0.0
H292 H 0.12966 0.55139 0.93831 0.0
H293 H 0.17711 0.58509 0.93965 0.0
H294 H 0.1556 0.56254 0.91635 0.0
H295 H 0.14138 0.66589 0.93084 0.0
H296 H 0.17355 0.65463 0.91421 0.0
H297 H 0.18005 0.64813 0.94072 0.0
H298 H 0.25306 0.60931 0.88581 0.0
C299 C 0.19268 0.60725 0.8887 0.0
C300 C 0.9762 0.44578 0.46934 0.0
C301 C 0.94931 0.4155 0.45923 0.0
C302 C 0.9469 0.41531 0.43812 0.0
C303 C 0.99688 0.47438 0.43752 0.0
C304 C 0.99969 0.47481 0.45819 0.0
C305 C 0.02986 0.50923 0.46631 0.0
H306 H 0.15926 0.6764 0.44798 0.0
C307 C 1.02434 0.50877 0.43034 0.0
C308 C 0.0439 0.52952 0.44708 0.0
H309 H 0.13299 0.62381 0.5052 0.0
H310 H 0.08748 0.57091 0.4888 0.0
H311 H 0.16517 0.60229 0.42493 0.0
H312 H 0.0714 0.6531 0.42938 0.0
H313 H 0.0706 0.63772 0.40453 0.0
H314 H 0.11361 0.6723 0.41464 0.0
H315 H 0.16642 0.64498 0.41307 0.0
H316 H 0.14236 0.6013 0.401 0.0
C317 C 0.06336 0.49774 0.47766 0.0
C318 C 1.00836 0.53047 0.47934 0.0
C319 C 0.0304 0.53164 0.3556 0.0
C320 C 0.05072 0.56148 0.34399 0.0
C321 C 0.07636 0.59275 0.35389 0.0
C322 C 0.08154 0.59421 0.37485 0.0
C323 C 0.06078 0.56416 0.38618 0.0
C324 C 0.0356 0.53368 0.37648 0.0
C325 C 1.01489 0.50476 0.3908 0.0
C326 C 0.03215 0.5226 0.41075 0.0
C327 C 0.05915 0.55731 0.40801 0.0
C328 C 1.02711 0.46942 0.38668 0.0
C329 C 0.96981 0.49992 0.38831 0.0
C330 C 0.14418 0.65339 0.45703 0.0
C331 C 0.1498 0.6548 0.47803 0.0
C332 C 0.12886 0.6241 0.48907 0.0
C333 C 0.10253 0.59315 0.47951 0.0
C334 C 0.09695 0.59247 0.45857 0.0
C335 C 0.11796 0.62214 0.44769 0.0
C336 C 0.10895 0.61637 0.42553 0.0
C337 C 0.07908 0.57846 0.4249 0.0
C338 C 0.07182 0.56457 0.44433 0.0
C339 C 0.14762 0.61644 0.41543 0.0
C340 C 0.0904 0.64647 0.41794 0.0
H341 H 0.96684 0.44232 0.4113 0.0
H342 H 0.9791 0.44676 0.48553 0.0
H343 H 0.97963 0.53057 0.47195 0.0
H344 H 1.02502 0.55969 0.48165 0.0
H345 H 1.00215 0.51746 0.49419 0.0
H346 H 0.06878 0.47343 0.47031 0.0
H347 H 0.05566 0.49027 0.49335 0.0
H348 H 0.09206 0.51928 0.47769 0.0
H349 H 1.01086 0.50692 0.34865 0.0
H350 H 0.09197 0.61647 0.34547 0.0
H351 H 0.1013 0.61883 0.38144 0.0
H352 H 0.05862 0.47643 0.38264 0.0
H353 H 1.00892 0.45306 0.37407 0.0
H354 H 1.02518 0.4517 0.3999 0.0
H355 H 0.96388 0.52593 0.38348 0.0
H356 H 0.9544 0.49319 0.40247 0.0
H357 H 0.95555 0.47843 0.37687 0.0
H358 H 0.92606 0.39292 0.42988 0.0
C359 C 0.97045 0.44434 0.42729 0.0
C360 C 0.37497 0.92422 0.79965 0.0
C361 C 0.38666 0.89186 0.79952 0.0
C362 C 0.38378 0.87203 0.78137 0.0
C363 C 0.36315 0.91919 0.76363 0.0
C364 C 0.36326 0.93732 0.78155 0.0
C365 C 0.35139 0.97206 0.77878 0.0
H366 H 0.36556 0.11247 0.71797 0.0
C367 C 0.35294 0.94127 0.74737 0.0
C368 C 0.3453 0.97211 0.75606 0.0
H369 H 0.35169 0.10828 0.78191 0.0
H370 H 0.33236 0.04177 0.78035 0.0
H371 H 0.41081 0.04649 0.71362 0.0
H372 H 0.29887 0.05955 0.70264 0.0
H373 H 0.28613 1.01089 0.69896 0.0
H374 H 0.32025 0.04178 0.68297 0.0
H375 H 0.39217 0.0764 0.69762 0.0
H376 H 0.38764 1.03082 0.68963 0.0
C377 C 0.38568 1.00535 0.78705 0.0
C378 C 0.31194 0.96711 0.78917 0.0
C379 C 0.39194 0.92575 0.67636 0.0
C380 C 0.38638 0.94393 0.65852 0.0
C381 C 0.35769 0.96337 0.65794 0.0
C382 C 0.34031 0.96983 0.67547 0.0
C383 C 0.35219 0.95717 0.69354 0.0
C384 C 0.37356 0.93217 0.69363 0.0
C385 C 0.37494 0.91559 0.71404 0.0
C386 C 0.35484 0.93856 0.72629 0.0
C387 C 0.3442 0.96447 0.71412 0.0
C388 C 0.41871 0.922 0.72096 0.0
C389 C 0.35075 0.87434 0.71283 0.0
C390 C 0.35795 0.09717 0.7316 0.0
C391 C 0.36164 0.11555 0.75016 0.0
C392 C 0.35061 0.09474 0.76754 0.0
C393 C 0.33983 0.05629 0.7667 0.0
C394 C 0.3408 0.03856 0.74842 0.0
C395 C 0.34744 0.05863 0.73106 0.0
C396 C 0.34601 0.03468 0.71291 0.0
C397 C 0.33965 0.99709 0.72269 0.0
C398 C 0.33858 1.00019 0.74359 0.0
C399 C 0.38635 0.04768 0.7029 0.0
C400 C 0.31102 0.03664 0.69863 0.0
H401 H 0.37103 0.86979 0.75004 0.0
H402 H 0.37626 0.93967 0.81343 0.0
H403 H 0.29138 0.93918 0.78602 0.0
H404 H 0.29604 0.98661 0.78372 0.0
H405 H 0.317 0.97043 0.80566 0.0
H406 H 0.39834 1.025 0.77512 0.0
H407 H 0.4111 0.997 0.79364 0.0
H408 H 0.37593 1.02042 0.79912 0.0
H409 H 0.4119 0.90891 0.67729 0.0
H410 H 0.34996 0.97499 0.64413 0.0
H411 H 0.31879 0.98478 0.67471 0.0
H412 H 0.43531 0.95166 0.72004 0.0
H413 H 0.43312 0.90612 0.71141 0.0
H414 H 0.42219 0.91365 0.73655 0.0
H415 H 0.33347 0.86692 0.69838 0.0
H416 H 0.32855 0.86718 0.72456 0.0
H417 H 0.37027 0.85613 0.7143 0.0
H418 H 0.39275 0.84708 0.78082 0.0
C419 C 0.37175 0.88541 0.76347 0.0
C420 C 0.65636 0.56822 0.139 0.0
C421 C 0.68901 0.56323 0.12887 0.0
C422 C 0.68385 0.55383 0.10837 0.0
C423 C 0.61658 0.55788 0.10778 0.0
C424 C 0.62002 0.56459 0.12819 0.0
C425 C 0.58099 0.56681 0.13613 0.0
H426 H 0.38964 0.56884 0.11275 0.0
C427 C 0.57696 0.55904 0.10035 0.0
C428 C 0.55519 0.56374 0.11686 0.0
H429 H 0.44217 0.57025 0.17222 0.0
H430 H 0.50457 0.56964 0.15813 0.0
H431 H 0.45844 0.62707 0.09699 0.0
H432 H 0.42684 0.50942 0.09197 0.0
H433 H 0.43797 0.52803 0.06803 0.0
H434 H 0.39882 0.53781 0.08113 0.0
H435 H 0.42615 0.60301 0.07695 0.0
H436 H 0.47918 0.61881 0.0747 0.0
C437 C 0.58759 0.60422 0.14685 0.0
C438 C 0.56521 0.53365 0.14987 0.0
C439 C 0.54825 0.55834 0.02492 0.0
C440 C 0.51755 0.56599 0.01312 0.0
C441 C 0.4864 0.57388 0.02315 0.0
C442 C 0.48497 0.57274 0.04401 0.0
C443 C 0.51559 0.56485 0.05542 0.0
C444 C 0.54704 0.5588 0.04589 0.0
C445 C 0.57901 0.55505 0.06059 0.0
C446 C 0.561 0.55912 0.08049 0.0
C447 C 0.52349 0.56395 0.07728 0.0
C448 C 0.61657 0.58728 0.05696 0.0
C449 C 0.58421 0.51616 0.05788 0.0
C450 C 0.41409 0.56801 0.12285 0.0
C451 C 0.41029 0.56865 0.14363 0.0
C452 C 0.44391 0.56939 0.15611 0.0
C453 C 0.48008 0.56875 0.14792 0.0
C454 C 0.48301 0.56761 0.12698 0.0
C455 C 0.45015 0.56766 0.11497 0.0
C456 C 0.45819 0.56871 0.09315 0.0
C457 C 0.50032 0.56649 0.09375 0.0
C458 C 0.51557 0.56623 0.11356 0.0
C459 C 0.45516 0.60611 0.08488 0.0
C460 C 0.42892 0.53437 0.08287 0.0
H461 H 0.64678 0.54467 0.0822 0.0
H462 H 0.65914 0.57472 0.15486 0.0
H463 H 0.56774 0.50796 0.14275 0.0
H464 H 0.53367 0.52857 0.15281 0.0
H465 H 0.58239 0.53768 0.1644 0.0
H466 H 0.60382 0.62699 0.13721 0.0
H467 H 0.60526 0.6055 0.16109 0.0
H468 H 0.55952 0.60969 0.15024 0.0
H469 H 0.57293 0.55214 0.0182 0.0
H470 H 0.46303 0.58163 0.01504 0.0
H471 H 0.46003 0.57834 0.05042 0.0
H472 H 0.60862 0.61284 0.05313 0.0
H473 H 0.63308 0.5808 0.04436 0.0
H474 H 0.63681 0.59496 0.07026 0.0
H475 H 0.5559 0.49584 0.05279 0.0
H476 H 0.59276 0.50494 0.07206 0.0
H477 H 0.60636 0.51614 0.04657 0.0
H478 H 0.70817 0.54981 0.1002 0.0
C479 C 0.64813 0.5512 0.09786 0.0
H480 H 0.17407 0.53354 0.14257 0.0
H481 H 0.19567 0.62091 0.18711 0.0
H482 H 0.26662 0.62439 0.18918 0.0
H483 H 0.24854 0.48952 0.16202 0.0
H484 H 0.26313 0.4808 0.13741 0.0
H485 H 0.21331 0.48206 0.14106 0.0
H486 H 0.2209 0.53203 0.11399 0.0
H487 H 0.2707 0.53095 0.11029 0.0
H488 H 0.26127 0.57379 0.11648 0.0
H489 H 0.33623 0.62025 0.18551 0.0
H490 H 0.39918 0.61224 0.17446 0.0
H491 H 0.33396 0.52993 0.13092 0.0
C492 C 0.19366 0.55272 0.15309 0.0
C493 C 0.17917 0.5765 0.165 0.0
C494 C 0.20601 0.60219 0.17803 0.0
C495 C 0.2464 0.60431 0.17933 0.0
C496 C 0.25998 0.58094 0.16725 0.0
C497 C 0.23448 0.5558 0.15424 0.0
C498 C 0.25739 0.53618 0.14168 0.0
C499 C 0.24484 0.49467 0.1458 0.0
C500 C 0.25226 0.5437 0.11929 0.0
C501 C 0.29958 0.55439 0.14953 0.0
C502 C 0.30034 0.57972 0.1645 0.0
C503 C 0.33592 0.60034 0.17385 0.0
C504 C 0.37163 0.59544 0.16756 0.0
C505 C 0.37187 0.57045 0.15182 0.0
C506 C 0.33504 0.54941 0.14293 0.0
H507 H 0.81646 0.20834 0.47279 0.0
H508 H 0.76374 0.24682 0.52279 0.0
H509 H 0.80981 0.30905 0.51936 0.0
H510 H 0.91723 0.26388 0.48354 0.0
H511 H 0.92764 0.27252 0.45755 0.0
H512 H 0.89188 0.23058 0.46462 0.0
H513 H 0.839 0.24523 0.44074 0.0
H514 H 0.87462 0.28711 0.43354 0.0
H515 H 0.82835 0.28866 0.44329 0.0
H516 H 0.86044 0.36822 0.50949 0.0
H517 H 0.9093 0.41912 0.49329 0.0
H518 H 0.92853 0.34159 0.44987 0.0
C519 C 0.8144 0.22981 0.483 0.0
C520 C 0.78641 0.22242 0.49813 0.0
C521 C 0.78525 0.25145 0.51128 0.0
C522 C 0.81123 0.28701 0.5094 0.0
C523 C 0.83835 0.29326 0.4943 0.0
C524 C 0.84004 0.26544 0.48132 0.0
C525 C 0.87102 0.27953 0.46596 0.0
C526 C 0.90389 0.26049 0.46805 0.0
C527 C 0.85211 0.27486 0.44463 0.0
C528 C 0.88616 0.31973 0.47215 0.0
C529 C 0.8672 0.32714 0.48861 0.0
C530 C 0.87565 0.36265 0.49667 0.0
C531 C 0.90367 0.39138 0.48745 0.0
C532 C 0.92282 0.38451 0.47027 0.0
C533 C 0.91422 0.34797 0.46284 0.0
H534 H 0.47509 0.74932 0.85065 0.0
H535 H 0.57425 0.84156 0.87016 0.0
H536 H 0.53345 0.88368 0.86394 0.0
H537 H 0.44775 0.78632 0.81108 0.0
H538 H 0.39494 0.7676 0.81252 0.0
H539 H 0.42703 0.7442 0.82424 0.0
H540 H 0.39635 0.74805 0.85925 0.0
H541 H 0.36266 0.76881 0.8462 0.0
H542 H 0.3921 0.79166 0.86767 0.0
H543 H 0.48847 0.91626 0.84824 0.0
H544 H 0.44482 0.93615 0.8239 0.0
H545 H 0.37456 0.82278 0.81456 0.0
C546 C 0.48759 0.7781 0.85468 0.0
C547 C 0.52773 0.79213 0.86102 0.0
C548 C 0.54351 0.83023 0.8653 0.0
C549 C 0.52043 0.85431 0.86197 0.0
C550 C 0.48149 0.83978 0.85462 0.0
C551 C 0.465 0.80239 0.85133 0.0
C552 C 0.42507 0.79416 0.84035 0.0
C553 C 0.42368 0.7718 0.82091 0.0
C554 C 0.39205 0.77449 0.85416 0.0
C555 C 0.42353 0.83282 0.83612 0.0
C556 C 0.45545 0.85878 0.84522 0.0
C557 C 0.46276 0.89625 0.84155 0.0
C558 C 0.43774 0.90732 0.82771 0.0
C559 C 0.40627 0.88092 0.81745 0.0
C560 C 0.39825 0.84345 0.82235 0.0
H561 H 0.90218 0.52943 0.14404 0.0
H562 H 0.94711 0.64358 0.16328 0.0
H563 H 0.87895 0.64895 0.16196 0.0
H564 H 0.83013 0.54463 0.10829 0.0
H565 H 0.79396 0.5012 0.11258 0.0
H566 H 0.8458 0.50571 0.11662 0.0
H567 H 0.83315 0.48292 0.1529 0.0
H568 H 0.78129 0.47871 0.14902 0.0
H569 H 0.80931 0.50652 0.16948 0.0
H570 H 0.8048 0.64164 0.15872 0.0
H571 H 0.73339 0.62524 0.14896 0.0
H572 H 0.73712 0.51748 0.12939 0.0
C573 C 0.89762 0.55549 0.14811 0.0
C574 C 0.93013 0.58605 0.15395 0.0
C575 C 0.92284 0.61981 0.15877 0.0
C576 C 0.8841 0.62303 0.15819 0.0
C577 C 0.8527 0.59241 0.15245 0.0
C578 C 0.85914 0.55944 0.14714 0.0
C579 C 0.82067 0.5316 0.13998 0.0
C580 C 0.82277 0.52013 0.11807 0.0
C581 C 0.81052 0.49794 0.15366 0.0
C582 C 0.79161 0.55402 0.14201 0.0
C583 C 0.81052 0.5888 0.14963 0.0
C584 C 0.78978 0.61447 0.15274 0.0
C585 C 0.74908 0.60482 0.14734 0.0
C586 C 0.72948 0.57003 0.13857 0.0
C587 C 0.75114 0.54419 0.13622 0.0
H588 H 0.33621 0.83528 0.49148 0.0
H589 H 0.28959 0.85472 0.54822 0.0
H590 H 0.23449 0.79797 0.54304 0.0
H591 H 0.24377 0.79982 0.46483 0.0
H592 H 0.25836 0.76535 0.45108 0.0
H593 H 0.29494 0.80707 0.45936 0.0
H594 H 0.33515 0.7689 0.47789 0.0
H595 H 0.2988 0.72703 0.46956 0.0
H596 H 0.31138 0.73528 0.49589 0.0
H597 H 0.18289 0.74043 0.5312 0.0
H598 H 0.13939 0.68529 0.51397 0.0
H599 H 0.22081 0.70097 0.46559 0.0
C600 C 0.31476 0.82738 0.50297 0.0
C601 C 0.31727 0.84983 0.52022 0.0
C602 C 0.28811 0.83853 0.53471 0.0
C603 C 0.25676 0.80614 0.53197 0.0
C604 C 0.25492 0.78501 0.51471 0.0
C605 C 0.28325 0.79499 0.5005 0.0
C606 C 0.274 0.76749 0.48318 0.0
C607 C 0.26737 0.78605 0.46345 0.0
C608 C 0.30678 0.74855 0.48154 0.0
C609 C 0.23586 0.74073 0.4898 0.0
C610 C 0.22545 0.75137 0.50804 0.0
C611 C 0.191 0.73158 0.51701 0.0
C612 C 0.16656 0.70005 0.50713 0.0
C613 C 0.17658 0.68826 0.48843 0.0
C614 C 0.2119 0.70912 0.47976 0.0
H615 H 0.50128 0.2981 0.80127 0.0
H616 H 0.46068 0.35985 0.75482 0.0
H617 H 0.42463 0.30168 0.73736 0.0
H618 H 0.50939 0.22108 0.76843 0.0
H619 H 0.49207 0.18782 0.78769 0.0
H620 H 0.51984 0.23436 0.79443 0.0
H621 H 0.46293 0.2394 0.81646 0.0
H622 H 0.43463 0.19327 0.80949 0.0
H623 H 0.41376 0.23085 0.80532 0.0
H624 H 0.38558 0.23659 0.72765 0.0
H625 H 0.35068 0.16991 0.72528 0.0
H626 H 0.41699 0.15176 0.77835 0.0
C627 C 0.48555 0.29938 0.78717 0.0
C628 C 0.48377 0.33337 0.77935 0.0
C629 C 0.46288 0.33406 0.7609 0.0
C630 C 0.44213 0.30117 0.75095 0.0
C631 C 0.443 0.268 0.75958 0.0
C632 C 0.46475 0.26693 0.77711 0.0
C633 C 0.45861 0.22794 0.78413 0.0
C634 C 0.49727 0.21717 0.78363 0.0
C635 C 0.44145 0.22258 0.80508 0.0
C636 C 0.42878 0.20733 0.76827 0.0
C637 C 0.42042 0.23074 0.75409 0.0
C638 C 0.39234 0.21792 0.7385 0.0
C639 C 0.37261 0.18009 0.7373 0.0
C640 C 0.38089 0.15572 0.75172 0.0
C641 C 0.40948 0.16973 0.76729 0.0
H642 H 0.51337 0.88228 0.5351 0.0
H643 H 0.61468 0.92073 0.49823 0.0
H644 H 0.62093 0.85768 0.4966 0.0
H645 H 0.55268 0.81668 0.56374 0.0
H646 H 0.50557 0.78233 0.5654 0.0
H647 H 0.50779 0.8302 0.56311 0.0
H648 H 0.46036 0.81456 0.53192 0.0
H649 H 0.4581 0.76666 0.53411 0.0
H650 H 0.47268 0.79038 0.51109 0.0
H651 H 0.61597 0.78483 0.49864 0.0
H652 H 0.60358 0.71853 0.50642 0.0
H653 H 0.50725 0.72484 0.54295 0.0
C654 C 0.53686 0.87771 0.52653 0.0
C655 C 0.56336 0.90861 0.51662 0.0
C656 C 0.59356 0.89931 0.50601 0.0
C657 C 0.5974 0.86274 0.50495 0.0
C658 C 0.57121 0.83341 0.51476 0.0
C659 C 0.54158 0.84072 0.52555 0.0
C660 C 0.51815 0.80433 0.53535 0.0
C661 C 0.52121 0.80865 0.55826 0.0
C662 C 0.47473 0.79334 0.52767 0.0
C663 C 0.53884 0.77563 0.52848 0.0
C664 C 0.56927 0.79291 0.5164 0.0
C665 C 0.5921 0.77173 0.5082 0.0
C666 C 0.58455 0.73319 0.5126 0.0
C667 C 0.55435 0.71415 0.52548 0.0
C668 C 0.53111 0.7369 0.53319 0.0
H669 H 0.71852 0.61565 0.84979 0.0
H670 H 0.67818 0.52876 0.80491 0.0
H671 H 0.74628 0.52448 0.80296 0.0
H672 H 0.815 0.65941 0.82966 0.0
H673 H 0.84005 0.66876 0.85395 0.0
H674 H 0.78855 0.66663 0.85105 0.0
H675 H 0.77156 0.61683 0.87833 0.0
H676 H 0.82299 0.61889 0.88135 0.0
H677 H 0.7865 0.57556 0.87563 0.0
H678 H 0.81953 0.52916 0.80604 0.0
H679 H 0.89005 0.539 0.81597 0.0
H680 H 0.88287 0.62123 0.85963 0.0
C681 C 0.72408 0.59596 0.83942 0.0
C682 C 0.69277 0.5727 0.82741 0.0
C683 C 0.70143 0.54691 0.81429 0.0
C684 C 0.74017 0.54436 0.813 0.0
C685 C 0.77029 0.56753 0.82506 0.0
C686 C 0.76265 0.59265 0.83816 0.0
C687 C 0.80001 0.61294 0.85022 0.0
C688 C 0.81158 0.6544 0.84596 0.0
C689 C 0.79495 0.6056 0.87271 0.0
C690 C 0.8297 0.59524 0.84194 0.0
C691 C 0.8121 0.56943 0.82726 0.0
C692 C 0.83358 0.54938 0.81751 0.0
C693 C 0.8738 0.55533 0.82315 0.0
C694 C 0.89231 0.58085 0.8386 0.0
C695 C 0.86974 0.60131 0.84786 0.0
H696 H 0.2702 0.80614 0.16573 0.0
H697 H 0.18372 0.85407 0.18979 0.0
H698 H 0.23698 0.90988 0.19976 0.0
H699 H 0.34449 0.83914 0.20345 0.0
H700 H 0.38526 0.84855 0.187 0.0
H701 H 0.34016 0.81326 0.18041 0.0
H702 H 0.33465 0.84515 0.14664 0.0
H703 H 0.37981 0.8806 0.15313 0.0
H704 H 0.33532 0.89282 0.14657 0.0
H705 H 0.29928 0.95822 0.20948 0.0
H706 H 0.36743 0.99652 0.21817 0.0
H707 H 0.41422 0.91926 0.18692 0.0
C708 C 0.2624 0.82865 0.17277 0.0
C709 C 0.2227 0.82557 0.17707 0.0
C710 C 0.21389 0.85547 0.1866 0.0
C711 C 0.24392 0.88746 0.19217 0.0
C712 C 0.28271 0.88939 0.18798 0.0
C713 C 0.2921 0.86093 0.17841 0.0
C714 C 0.33647 0.86953 0.1765 0.0
C715 C 0.35253 0.84093 0.1875 0.0
C716 C 0.34719 0.87219 0.15439 0.0
C717 C 0.35054 0.90689 0.1869 0.0
C718 C 0.31891 0.91786 0.19328 0.0
C719 C 0.32426 0.95025 0.20429 0.0
C720 C 0.36294 0.9718 0.20914 0.0
C721 C 0.39571 0.961 0.20289 0.0
C722 C 0.38949 0.9284 0.19143 0.0
H723 H 0.51957 0.16054 0.54291 0.0
H724 H 0.60071 0.16625 0.49537 0.0
H725 H 0.60707 0.2323 0.49157 0.0
H726 H 0.47131 0.22826 0.52257 0.0
H727 H 0.46857 0.24951 0.54639 0.0
H728 H 0.46863 0.20205 0.5452 0.0
H729 H 0.52874 0.21635 0.57015 0.0
H730 H 0.52881 0.26383 0.57143 0.0
H731 H 0.57278 0.25246 0.56472 0.0
H732 H 0.60359 0.30182 0.49181 0.0
H733 H 0.59553 0.36334 0.49816 0.0
H734 H 0.52079 0.31875 0.54731 0.0
C735 C 0.53861 0.17541 0.53157 0.0
C736 C 0.55934 0.1559 0.51929 0.0
C737 C 0.58412 0.17853 0.50509 0.0
C738 C 0.58795 0.21691 0.50275 0.0
C739 C 0.5675 0.23495 0.51489 0.0
C740 C 0.5436 0.21488 0.52929 0.0
C741 C 0.52634 0.24186 0.54096 0.0
C742 C 0.48101 0.22968 0.53865 0.0
C743 C 0.53996 0.24372 0.56314 0.0
C744 C 0.54376 0.27978 0.53089 0.0
C745 C 0.56711 0.27485 0.51567 0.0
C746 C 0.58542 0.30533 0.50386 0.0
C747 C 0.58038 0.34096 0.50757 0.0
C748 C 0.55748 0.34822 0.52334 0.0
C749 C 0.53898 0.31599 0.53512 0.0
H750 H 0.45395 0.63222 0.84617 0.0
H751 H 0.42466 0.53407 0.80851 0.0
H752 H 0.35386 0.53046 0.80922 0.0
H753 H 0.37316 0.6023 0.87768 0.0
H754 H 0.36529 0.64691 0.8803 0.0
H755 H 0.41376 0.64348 0.87538 0.0
H756 H 0.4154 0.68456 0.84474 0.0
H757 H 0.36584 0.68677 0.84839 0.0
H758 H 0.3779 0.67052 0.82488 0.0
H759 H 0.28472 0.53582 0.81549 0.0
H760 H 0.2248 0.54768 0.82847 0.0
H761 H 0.29898 0.642 0.86203 0.0
C762 C 0.43275 0.61027 0.83781 0.0
C763 C 0.44523 0.58356 0.82716 0.0
C764 C 0.41615 0.55497 0.81674 0.0
C765 C 0.37571 0.55272 0.81701 0.0
C766 C 0.36437 0.57922 0.8278 0.0
C767 C 0.39211 0.60743 0.83804 0.0
C768 C 0.37202 0.63122 0.84938 0.0
C769 C 0.38163 0.63094 0.87202 0.0
C770 C 0.38353 0.67062 0.84136 0.0
C771 C 0.32874 0.61159 0.84432 0.0
C772 C 0.32485 0.58195 0.83161 0.0
C773 C 0.28756 0.55916 0.82535 0.0
C774 C 0.25355 0.56628 0.83267 0.0
C775 C 0.25682 0.59574 0.84631 0.0
C776 C 0.29517 0.61908 0.85173 0.0
H777 H 0.89503 0.3205 0.1959 0.0
H778 H 0.83225 0.37334 0.15415 0.0
H779 H 0.77005 0.32486 0.15997 0.0
H780 H 0.84022 0.22591 0.18211 0.0
H781 H 0.84094 0.21007 0.20748 0.0
H782 H 0.88063 0.24814 0.19935 0.0
H783 H 0.86874 0.28863 0.22832 0.0
H784 H 0.82908 0.25072 0.23653 0.0
H785 H 0.82018 0.29412 0.23085 0.0
H786 H 0.7139 0.27124 0.17145 0.0
H787 H 0.6688 0.2189 0.18855 0.0
H788 H 0.76929 0.20046 0.2217 0.0
C789 C 0.86838 0.32163 0.18771 0.0
C790 C 0.86867 0.3508 0.17453 0.0
C791 C 0.8328 0.35155 0.16448 0.0
C792 C 0.79735 0.32395 0.16757 0.0
C793 C 0.79818 0.29564 0.18068 0.0
C794 C 0.83282 0.29433 0.19058 0.0
C795 C 0.82565 0.26179 0.20445 0.0
C796 C 0.8482 0.23489 0.19795 0.0
C797 C 0.83655 0.2746 0.22633 0.0
C798 C 0.78146 0.24528 0.20107 0.0
C799 C 0.76611 0.26495 0.1872 0.0
C800 C 0.72569 0.25546 0.1822 0.0
C801 C 0.70031 0.22552 0.1919 0.0
C802 C 0.7154 0.20552 0.20651 0.0
C803 C 0.75667 0.21532 0.21077 0.0
H804 H 1.00501 0.58587 0.08857 0.0
H805 H 0.12161 0.57857 0.10663 0.0
H806 H 0.14108 0.58556 0.07142 0.0
H807 H 0.99307 0.53776 0.04279 0.0
H808 H 0.96984 0.5674 0.02915 0.0
H809 H 0.96528 0.563 0.0558 0.0
H810 H 0.99398 0.63365 0.06041 0.0
H811 H 0.99821 0.63831 0.03372 0.0
H812 H 0.041 0.6568 0.05022 0.0
H813 H 0.14426 0.58466 0.03399 0.0
H814 H 0.13534 0.58541 -0.00242 0.0
H815 H 1.02065 0.60441 0.00419 0.0
C816 C 0.03476 0.58627 0.08505 0.0
C817 C 0.06184 0.58158 0.10014 0.0
C818 C 0.10059 0.58234 0.09519 0.0
C819 C 0.11183 0.58614 0.07526 0.0
C820 C 0.08429 0.59018 0.06061 0.0
C821 C 0.04692 0.59129 0.0653 0.0
C822 C 1.02336 0.59671 0.04673 0.0
C823 C 0.98567 0.56428 0.04343 0.0
C824 C 1.01357 0.63357 0.04784 0.0
C825 C 0.05285 0.5972 0.03082 0.0
C826 C 0.08757 0.59296 0.03913 0.0
C827 C 0.11771 0.58924 0.02732 0.0
C828 C 0.11237 0.59012 0.00645 0.0
C829 C 0.07749 0.59572 -0.0026 0.0
C830 C 0.04764 0.59968 0.01007 0.0
H831 H 0.55084 0.99 0.45193 0.0
H832 H 0.55472 0.10243 0.46614 0.0
H833 H 0.57307 0.12073 0.43158 0.0
H834 H 0.63025 1.01035 0.415 0.0
H835 H 0.60363 0.97268 0.39873 0.0
H836 H 0.59753 0.96955 0.42536 0.0
H837 H 0.5218 0.95611 0.41944 0.0
H838 H 0.52766 0.95933 0.39285 0.0
H839 H 0.50272 0.98797 0.40518 0.0
H840 H 0.5858 0.12599 0.39526 0.0
H841 H 0.58684 0.11719 0.35874 0.0
H842 H 0.57012 1.00044 0.36711 0.0
C843 C 0.55667 1.01859 0.44779 0.0
C844 C 0.55209 0.04506 0.46157 0.0
C845 C 0.55846 0.08198 0.45568 0.0
C846 C 0.56905 0.0926 0.43616 0.0
C847 C 0.57254 0.06579 0.42269 0.0
C848 C 0.56625 1.02947 0.42816 0.0
C849 C 0.5672 1.0054 0.41017 0.0
C850 C 0.60172 0.9885 0.41246 0.0
C851 C 0.52748 0.97545 0.40671 0.0
C852 C 0.57405 0.03371 0.39372 0.0
C853 C 0.57796 0.06848 0.40138 0.0
C854 C 0.5832 0.09898 0.3891 0.0
C855 C 0.58389 0.09374 0.36839 0.0
C856 C 0.57874 0.0582 0.36014 0.0
C857 C 0.57419 1.02791 0.37304 0.0
H858 H 0.57845 0.6258 0.75538 0.0
H859 H 0.54177 0.5185 0.7824 0.0
H860 H 0.52753 0.48896 0.74878 0.0
H861 H 0.50891 0.60699 0.71255 0.0
H862 H 0.54414 0.63279 0.69535 0.0
H863 H 0.54909 0.6456 0.7215 0.0
H864 H 0.62046 0.64002 0.72323 0.0
H865 H 0.61579 0.62742 0.69708 0.0
H866 H 0.6291 0.59768 0.71532 0.0
H867 H 0.51519 0.47173 0.7124 0.0
H868 H 0.51289 0.46632 0.67577 0.0
H869 H 0.56535 0.5847 0.67192 0.0
C870 C 0.56716 0.59612 0.7541 0.0
C871 C 0.56092 0.57408 0.77135 0.0
C872 C 0.54684 0.53544 0.76926 0.0
C873 C 0.53846 0.51861 0.75026 0.0
C874 C 0.54504 0.54097 0.73348 0.0
C875 C 0.55967 0.57884 0.73517 0.0
C876 C 0.56659 0.59618 0.71469 0.0
C877 C 0.54063 0.62191 0.7108 0.0
C878 C 0.6106 0.61652 0.71245 0.0
C879 C 0.55336 0.56216 0.70126 0.0
C880 C 0.54047 0.53074 0.71244 0.0
C881 C 0.52588 0.49609 0.70349 0.0
C882 C 0.52512 0.49333 0.68256 0.0
C883 C 0.53977 0.52491 0.67063 0.0
C884 C 0.55367 0.55986 0.68031 0.0
H885 H 0.52635 0.05305 0.57521 0.0
H886 H 0.57812 0.96273 0.57219 0.0
H887 H 0.53166 0.92882 0.59711 0.0
H888 H 0.51091 0.04867 0.62826 0.0
H889 H 0.46507 0.06033 0.6255 0.0
H890 H 0.50287 0.07674 0.60772 0.0
H891 H 0.45228 0.04696 0.57883 0.0
H892 H 0.41459 1.03005 0.59664 0.0
H893 H 0.42652 0.99851 0.57953 0.0
H894 H 0.47656 0.90387 0.62135 0.0
H895 H 0.42381 0.89327 0.64566 0.0
H896 H 0.41218 1.00226 0.63349 0.0
C897 C 0.52827 1.02636 0.58003 0.0
C898 C 0.55579 1.01051 0.57195 0.0
C899 C 0.55743 0.97547 0.57845 0.0
C900 C 0.53093 0.9559 0.59241 0.0
C901 C 0.50336 0.97197 0.59975 0.0
C902 C 0.50235 1.00668 0.59398 0.0
C903 C 0.4705 1.01824 0.60422 0.0
C904 C 0.48842 0.05304 0.6172 0.0
C905 C 0.43913 1.02376 0.58889 0.0
C906 C 0.45392 0.98482 0.61685 0.0
C907 C 0.47269 0.95813 0.61389 0.0
C908 C 0.46193 0.92478 0.62393 0.0
C909 C 0.43199 0.9191 0.6378 0.0
C910 C 0.41355 0.94688 0.64171 0.0
C911 C 0.4246 0.97987 0.63074 0.0
H912 H 0.60949 0.57708 0.90423 0.0
H913 H 0.49244 0.57065 0.87938 0.0
H914 H 0.46768 0.56859 0.91347 0.0
H915 H 0.58162 0.51885 0.9455 0.0
H916 H 0.61844 0.54628 0.96307 0.0
H917 H 0.62768 0.54787 0.93676 0.0
H918 H 0.64073 0.61864 0.93722 0.0
H919 H 0.63208 0.61733 0.96361 0.0
H920 H 0.60399 0.63805 0.9467 0.0
H921 H 0.45394 0.5585 0.94959 0.0
H922 H 0.45357 0.55343 0.98596 0.0
H923 H 0.58189 0.57763 0.98834 0.0
C924 C 0.57882 0.57573 0.90608 0.0
C925 C 0.55274 0.57384 0.8893 0.0
C926 C 0.51285 0.57227 0.89212 0.0
C927 C 0.49848 0.57087 0.91139 0.0
C928 C 0.52468 0.57209 0.92767 0.0
C929 C 0.56424 0.57559 0.9253 0.0
C930 C 0.58617 0.57772 0.94546 0.0
C931 C 0.60455 0.54577 0.94783 0.0
C932 C 0.6176 0.61517 0.94842 0.0
C933 C 0.55247 0.57376 0.95944 0.0
C934 C 0.51726 0.56996 0.94879 0.0
C935 C 0.48154 0.56285 0.95817 0.0
C936 C 0.48184 0.56045 0.97906 0.0
C937 C 0.51784 0.56642 0.99065 0.0
C938 C 0.5536 0.57292 0.98041 0.0
H939 H 0.11178 0.60408 0.23071 0.0
H940 H 0.99132 0.54445 0.21201 0.0
H941 H 0.97576 0.5301 0.24738 0.0
H942 H 0.12179 0.54238 0.27138 0.0
H943 H 0.15118 0.57956 0.2872 0.0
H944 H 0.15301 0.58328 0.26037 0.0
H945 H 0.13414 0.64425 0.26233 0.0
H946 H 0.13184 0.64054 0.28912 0.0
H947 H 0.08964 0.64488 0.27438 0.0
H948 H 0.97229 0.5266 0.28499 0.0
H949 H 0.98195 0.53031 0.32171 0.0
H950 H 0.10581 0.58975 0.31568 0.0
C951 C 0.08224 0.58763 0.23405 0.0
C952 C 0.05267 0.57545 0.21868 0.0
C953 C 1.01439 0.55401 0.22359 0.0
C954 C 1.00529 0.5458 0.24362 0.0
C955 C 0.03493 0.55894 0.25848 0.0
C956 C 0.07277 0.579 0.25391 0.0
C957 C 0.09911 0.59034 0.27265 0.0
C958 C 0.13329 0.57283 0.27291 0.0
C959 C 0.11458 0.6325 0.27474 0.0
C960 C 0.07001 0.5741 0.28854 0.0
C961 C 0.03317 0.55612 0.28007 0.0
C962 C 1.00119 0.54008 0.29177 0.0
C963 C 1.00708 0.54218 0.31266 0.0
C964 C 0.04479 0.55998 0.32174 0.0
C965 C 0.07654 0.57615 0.30936 0.0
loop_
_geom_bond_atom_site_label_1
_geom_bond_atom_site_label_2
_geom_bond_distance
_geom_bond_site_symmetry_2
_ccdc_geom_bond_type
Pr0 C2 2.880 . S
Pr0 O20 2.562 . S
Pr0 O21 2.490 . S
Pr0 O22 2.695 1_655 S
Pr0 O23 2.512 . S
Pr0 O25 2.437 . S
Pr0 O28 2.436 . S
Pr0 O30 2.438 1_655 S
Pr1 C11 2.880 . S
Pr1 O22 2.436 . S
Pr1 O24 2.438 1_455 S
Pr1 O26 2.562 . S
Pr1 O27 2.490 . S
Pr1 O28 2.695 1_455 S
Pr1 O29 2.512 . S
Pr1 O31 2.437 . S
C2 Pr0 2.880 . S
C2 C3 1.491 . S
C2 O20 1.254 . S
C2 O21 1.225 . S
C3 C2 1.491 . S
C3 C4 1.392 . S
C3 C8 1.356 . S
C4 C3 1.392 . S
C4 C5 1.368 . S
C4 H32 0.929 . S
C5 C4 1.368 . S
C5 C6 1.386 . S
C5 H33 0.929 . S
C6 C5 1.386 . S
C6 C7 1.373 . S
C7 C6 1.373 . S
C7 C8 1.409 . S
C7 H34 0.931 . S
C8 C3 1.356 . S
C8 C7 1.409 . S
C8 H35 0.930 . S
C9 O22 1.270 . S
C9 O23 1.248 1_455 S
C10 O24 1.267 . S
C10 O25 1.278 . S
C11 Pr1 2.880 . S
C11 C12 1.491 . S
C11 O26 1.254 . S
C11 O27 1.225 . S
C12 C11 1.491 . S
C12 C13 1.392 . S
C12 C17 1.356 . S
C13 C12 1.392 . S
C13 C14 1.368 . S
C13 H36 0.929 . S
C14 C13 1.368 . S
C14 C15 1.386 . S
C14 H37 0.929 . S
C15 C14 1.386 . S
C15 C16 1.373 . S
C16 C15 1.373 . S
C16 C17 1.409 . S
C16 H38 0.931 . S
C17 C12 1.356 . S
C17 C16 1.409 . S
C17 H39 0.930 . S
C18 O28 1.270 1_455 S
C18 O29 1.248 . S
C19 O30 1.267 . S
C19 O31 1.278 . S
O20 Pr0 2.562 . S
O20 C2 1.254 . S
O21 Pr0 2.490 . S
O21 C2 1.225 . S
O22 Pr0 2.695 1_455 S
O22 Pr1 2.436 . S
O22 C9 1.270 . S
O23 Pr0 2.512 . S
O23 C9 1.248 1_655 S
O24 Pr1 2.438 1_655 S
O24 C10 1.267 . S
O25 Pr0 2.437 . S
O25 C10 1.278 . S
O26 Pr1 2.562 . S
O26 C11 1.254 . S
O27 Pr1 2.490 . S
O27 C11 1.225 . S
O28 Pr0 2.436 . S
O28 Pr1 2.695 1_655 S
O28 C18 1.270 1_655 S
O29 Pr1 2.512 . S
O29 C18 1.248 . S
O30 Pr0 2.438 1_455 S
O30 C19 1.267 . S
O31 Pr1 2.437 . S
O31 C19 1.278 . S
H32 C4 0.929 . S
H33 C5 0.929 . S
H34 C7 0.931 . S
H35 C8 0.930 . S
H36 C13 0.929 . S
H37 C14 0.929 . S
H38 C16 0.931 . S
H39 C17 0.930 . S
Pr40 C42 2.880 . S
Pr40 O60 2.562 . S
Pr40 O61 2.490 . S
Pr40 O62 2.695 . S
Pr40 O63 2.512 . S
Pr40 O65 2.437 . S
Pr40 O68 2.436 . S
Pr40 O70 2.438 1_545 S
Pr41 C51 2.880 . S
Pr41 O62 2.436 1_565 S
Pr41 O64 2.438 1_565 S
Pr41 O66 2.562 . S
Pr41 O67 2.490 . S
Pr41 O68 2.695 1_565 S
Pr41 O69 2.512 . S
Pr41 O71 2.437 . S
C42 Pr40 2.880 . S
C42 C43 1.491 . S
C42 O60 1.254 . S
C42 O61 1.225 . S
C43 C42 1.491 . S
C43 C44 1.392 . S
C43 C48 1.356 . S
C44 C43 1.392 . S
C44 C45 1.368 . S
C44 H72 0.929 . S
C45 C44 1.368 . S
C45 C46 1.386 . S
C45 H73 0.929 . S
C46 C45 1.386 . S
C46 C47 1.373 . S
C47 C46 1.373 . S
C47 C48 1.409 . S
C47 H74 0.931 . S
C48 C43 1.356 . S
C48 C47 1.409 . S
C48 H75 0.930 . S
C49 O62 1.270 . S
C49 O63 1.248 . S
C50 O64 1.267 . S
C50 O65 1.278 . S
C51 Pr41 2.880 . S
C51 C52 1.491 . S
C51 O66 1.254 . S
C51 O67 1.225 . S
C52 C51 1.491 . S
C52 C53 1.392 . S
C52 C57 1.356 . S
C53 C52 1.392 . S
C53 C54 1.368 . S
C53 H76 0.929 . S
C54 C53 1.368 . S
C54 C55 1.386 . S
C54 H77 0.929 . S
C55 C54 1.386 . S
C55 C56 1.373 . S
C56 C55 1.373 . S
C56 C57 1.409 . S
C56 H78 0.931 . S
C57 C52 1.356 . S
C57 C56 1.409 . S
C57 H79 0.930 . S
C58 O68 1.270 . S
C58 O69 1.248 1_545 S
C59 O70 1.267 . S
C59 O71 1.278 . S
O60 Pr40 2.562 . S
O60 C42 1.254 . S
O61 Pr40 2.490 . S
O61 C42 1.225 . S
O62 Pr40 2.695 . S
O62 Pr41 2.436 1_545 S
O62 C49 1.270 . S
O63 Pr40 2.512 . S
O63 C49 1.248 . S
O64 Pr41 2.438 1_545 S
O64 C50 1.267 . S
O65 Pr40 2.437 . S
O65 C50 1.278 . S
O66 Pr41 2.562 . S
O66 C51 1.254 . S
O67 Pr41 2.490 . S
O67 C51 1.225 . S
O68 Pr40 2.436 . S
O68 Pr41 2.695 1_545 S
O68 C58 1.270 . S
O69 Pr41 2.512 . S
O69 C58 1.248 1_565 S
O70 Pr40 2.438 1_565 S
O70 C59 1.267 . S
O71 Pr41 2.437 . S
O71 C59 1.278 . S
H72 C44 0.929 . S
H73 C45 0.929 . S
H74 C47 0.931 . S
H75 C48 0.930 . S
H76 C53 0.929 . S
H77 C54 0.929 . S
H78 C56 0.931 . S
H79 C57 0.930 . S
Pr80 C82 2.880 . S
Pr80 O100 2.562 . S
Pr80 O101 2.490 . S
Pr80 O102 2.695 . S
Pr80 O103 2.512 . S
Pr80 O105 2.437 . S
Pr80 O108 2.436 . S
Pr80 O110 2.438 . S
Pr81 C91 2.880 . S
Pr81 O102 2.436 . S
Pr81 O104 2.438 . S
Pr81 O106 2.562 . S
Pr81 O107 2.490 . S
Pr81 O108 2.695 . S
Pr81 O109 2.512 . S
Pr81 O111 2.437 . S
C82 Pr80 2.880 . S
C82 C83 1.491 . S
C82 O100 1.254 . S
C82 O101 1.225 . S
C83 C82 1.491 . S
C83 C84 1.392 . S
C83 C88 1.356 . S
C84 C83 1.392 . S
C84 C85 1.368 . S
C84 H112 0.929 . S
C85 C84 1.368 . S
C85 C86 1.386 . S
C85 H113 0.929 . S
C86 C85 1.386 . S
C86 C87 1.373 . S
C87 C86 1.373 . S
C87 C88 1.409 . S
C87 H114 0.931 . S
C88 C83 1.356 . S
C88 C87 1.409 . S
C88 H115 0.930 . S
C89 O102 1.270 . S
C89 O103 1.248 . S
C90 O104 1.267 . S
C90 O105 1.278 . S
C91 Pr81 2.880 . S
C91 C92 1.491 . S
C91 O106 1.254 . S
C91 O107 1.225 . S
C92 C91 1.491 . S
C92 C93 1.392 . S
C92 C97 1.356 . S
C93 C92 1.392 . S
C93 C94 1.368 . S
C93 H116 0.929 . S
C94 C93 1.368 . S
C94 C95 1.386 . S
C94 H117 0.929 . S
C95 C94 1.386 . S
C95 C96 1.373 . S
C96 C95 1.373 . S
C96 C97 1.409 . S
C96 H118 0.931 . S
C97 C92 1.356 . S
C97 C96 1.409 . S
C97 H119 0.930 . S
C98 O108 1.270 . S
C98 O109 1.248 . S
C99 O110 1.267 . S
C99 O111 1.278 . S
O100 Pr80 2.562 . S
O100 C82 1.254 . S
O101 Pr80 2.490 . S
O101 C82 1.225 . S
O102 Pr80 2.695 . S
O102 Pr81 2.436 . S
O102 C89 1.270 . S
O103 Pr80 2.512 . S
O103 C89 1.248 . S
O104 Pr81 2.438 . S
O104 C90 1.267 . S
O105 Pr80 2.437 . S
O105 C90 1.278 . S
O106 Pr81 2.562 . S
O106 C91 1.254 . S
O107 Pr81 2.490 . S
O107 C91 1.225 . S
O108 Pr80 2.436 . S
O108 Pr81 2.695 . S
O108 C98 1.270 . S
O109 Pr81 2.512 . S
O109 C98 1.248 . S
O110 Pr80 2.438 . S
O110 C99 1.267 . S
O111 Pr81 2.437 . S
O111 C99 1.278 . S
H112 C84 0.929 . S
H113 C85 0.929 . S
H114 C87 0.931 . S
H115 C88 0.930 . S
H116 C93 0.929 . S
H117 C94 0.929 . S
H118 C96 0.931 . S
H119 C97 0.930 . S
C120 C121 1.391 . S
C120 C124 1.391 . S
C120 H162 0.948 . S
C121 C120 1.391 . S
C121 C122 1.391 . S
C122 C121 1.391 . S
C122 H178 0.947 . S
C122 C179 1.392 . S
C123 C124 1.391 . S
C123 C127 1.397 . S
C123 C179 1.419 . S
C124 C120 1.391 . S
C124 C123 1.391 . S
C124 C125 1.399 . S
C125 C124 1.399 . S
C125 C128 1.396 . S
C125 C137 1.453 . S
C125 C138 1.684 . S
H126 C150 0.948 . S
C127 C123 1.397 . S
C127 C128 1.394 . S
C127 C146 1.723 . S
C128 C125 1.396 . S
C128 C127 1.394 . S
C128 C158 1.723 . S
H129 C152 0.947 . S
H130 C153 0.948 . S
H131 C159 0.982 . S
H132 C160 0.979 . S
H133 C160 0.980 . S
H134 C160 0.983 . S
H135 C159 0.979 . S
H136 C159 0.977 . S
C137 C125 1.453 . S
C137 H166 0.982 . S
C137 H167 0.979 . S
C137 H168 0.977 . S
C138 C125 1.684 . S
C138 H163 0.979 . S
C138 H164 0.980 . S
C138 H165 0.983 . S
C139 C140 1.391 . S
C139 C144 1.391 . S
C139 H169 0.948 . S
C140 C139 1.391 . S
C140 C141 1.391 1_545 S
C141 C140 1.391 1_565 S
C141 C142 1.392 . S
C141 H170 0.947 . S
C142 C141 1.392 . S
C142 C143 1.419 1_565 S
C142 H171 0.948 . S
C143 C142 1.419 1_545 S
C143 C144 1.391 . S
C143 C147 1.397 . S
C144 C139 1.391 . S
C144 C143 1.391 . S
C144 C145 1.399 . S
C145 C144 1.399 . S
C145 C146 1.396 . S
C145 C148 1.453 . S
C145 C149 1.684 . S
C146 C127 1.723 . S
C146 C145 1.396 . S
C146 C147 1.394 . S
C147 C143 1.397 . S
C147 C146 1.394 . S
C147 C157 1.723 1_545 S
C148 C145 1.453 . S
C148 H172 0.982 . S
C148 H173 0.979 . S
C148 H174 0.977 . S
C149 C145 1.684 . S
C149 H175 0.979 . S
C149 H176 0.980 . S
C149 H177 0.983 . S
C150 H126 0.948 . S
C150 C151 1.391 . S
C150 C155 1.391 . S
C151 C150 1.391 . S
C151 C152 1.391 . S
C152 H129 0.947 . S
C152 C151 1.391 . S
C152 C153 1.392 . S
C153 H130 0.948 . S
C153 C152 1.392 . S
C153 C154 1.419 . S
C154 C153 1.419 . S
C154 C155 1.391 . S
C154 C158 1.397 1_565 S
C155 C150 1.391 . S
C155 C154 1.391 . S
C155 C156 1.399 . S
C156 C155 1.399 . S
C156 C157 1.396 . S
C156 C159 1.453 . S
C156 C160 1.684 . S
C157 C147 1.723 1_565 S
C157 C156 1.396 . S
C157 C158 1.394 1_565 S
C158 C128 1.723 . S
C158 C154 1.397 1_545 S
C158 C157 1.394 1_545 S
C159 H131 0.982 . S
C159 H135 0.979 . S
C159 H136 0.977 . S
C159 C156 1.453 . S
C160 H132 0.979 . S
C160 H133 0.980 . S
C160 H134 0.983 . S
C160 C156 1.684 . S
H161 C179 0.948 . S
H162 C120 0.948 . S
H163 C138 0.979 . S
H164 C138 0.980 . S
H165 C138 0.983 . S
H166 C137 0.982 . S
H167 C137 0.979 . S
H168 C137 0.977 . S
H169 C139 0.948 . S
H170 C141 0.947 . S
H171 C142 0.948 . S
H172 C148 0.982 . S
H173 C148 0.979 . S
H174 C148 0.977 . S
H175 C149 0.979 . S
H176 C149 0.980 . S
H177 C149 0.983 . S
H178 C122 0.947 . S
C179 C122 1.392 . S
C179 C123 1.419 . S
C179 H161 0.948 . S
C180 C181 1.391 . S
C180 C184 1.391 . S
C180 H222 0.948 . S
C181 C180 1.391 . S
C181 C182 1.391 . S
C182 C181 1.391 . S
C182 H238 0.947 . S
C182 C239 1.392 . S
C183 C184 1.391 . S
C183 C187 1.397 . S
C183 C239 1.419 . S
C184 C180 1.391 . S
C184 C183 1.391 . S
C184 C185 1.399 . S
C185 C184 1.399 . S
C185 C188 1.396 . S
C185 C197 1.453 . S
C185 C198 1.684 . S
H186 C210 0.948 . S
C187 C183 1.397 . S
C187 C188 1.394 . S
C187 C206 1.723 . S
C188 C185 1.396 . S
C188 C187 1.394 . S
C188 C218 1.723 . S
H189 C212 0.947 . S
H190 C213 0.948 . S
H191 C219 0.982 . S
H192 C220 0.979 . S
H193 C220 0.980 . S
H194 C220 0.983 . S
H195 C219 0.979 . S
H196 C219 0.977 . S
C197 C185 1.453 . S
C197 H226 0.982 . S
C197 H227 0.979 . S
C197 H228 0.977 . S
C198 C185 1.684 . S
C198 H223 0.979 . S
C198 H224 0.980 . S
C198 H225 0.983 . S
C199 C200 1.391 . S
C199 C204 1.391 . S
C199 H229 0.948 . S
C200 C199 1.391 . S
C200 C201 1.391 . S
C201 C200 1.391 . S
C201 C202 1.392 . S
C201 H230 0.947 . S
C202 C201 1.392 . S
C202 C203 1.419 . S
C202 H231 0.948 . S
C203 C202 1.419 . S
C203 C204 1.391 . S
C203 C207 1.397 . S
C204 C199 1.391 . S
C204 C203 1.391 . S
C204 C205 1.399 . S
C205 C204 1.399 . S
C205 C206 1.396 . S
C205 C208 1.453 . S
C205 C209 1.684 . S
C206 C187 1.723 . S
C206 C205 1.396 . S
C206 C207 1.394 . S
C207 C203 1.397 . S
C207 C206 1.394 . S
C207 C217 1.723 . S
C208 C205 1.453 . S
C208 H232 0.982 . S
C208 H233 0.979 . S
C208 H234 0.977 . S
C209 C205 1.684 . S
C209 H235 0.979 . S
C209 H236 0.980 . S
C209 H237 0.983 . S
C210 H186 0.948 . S
C210 C211 1.391 . S
C210 C215 1.391 . S
C211 C210 1.391 . S
C211 C212 1.391 . S
C212 H189 0.947 . S
C212 C211 1.391 . S
C212 C213 1.392 . S
C213 H190 0.948 . S
C213 C212 1.392 . S
C213 C214 1.419 . S
C214 C213 1.419 . S
C214 C215 1.391 . S
C214 C218 1.397 . S
C215 C210 1.391 . S
C215 C214 1.391 . S
C215 C216 1.399 . S
C216 C215 1.399 . S
C216 C217 1.396 . S
C216 C219 1.453 . S
C216 C220 1.684 . S
C217 C207 1.723 . S
C217 C216 1.396 . S
C217 C218 1.394 . S
C218 C188 1.723 . S
C218 C214 1.397 . S
C218 C217 1.394 . S
C219 H191 0.982 . S
C219 H195 0.979 . S
C219 H196 0.977 . S
C219 C216 1.453 . S
C220 H192 0.979 . S
C220 H193 0.980 . S
C220 H194 0.983 . S
C220 C216 1.684 . S
H221 C239 0.948 . S
H222 C180 0.948 . S
H223 C198 0.979 . S
H224 C198 0.980 . S
H225 C198 0.983 . S
H226 C197 0.982 . S
H227 C197 0.979 . S
H228 C197 0.977 . S
H229 C199 0.948 . S
H230 C201 0.947 . S
H231 C202 0.948 . S
H232 C208 0.982 . S
H233 C208 0.979 . S
H234 C208 0.977 . S
H235 C209 0.979 . S
H236 C209 0.980 . S
H237 C209 0.983 . S
H238 C182 0.947 . S
C239 C182 1.392 . S
C239 C183 1.419 . S
C239 H221 0.948 . S
C240 C241 1.391 . S
C240 C244 1.391 . S
C240 H282 0.948 . S
C241 C240 1.391 . S
C241 C242 1.391 . S
C242 C241 1.391 . S
C242 H298 0.947 . S
C242 C299 1.392 . S
C243 C244 1.391 . S
C243 C247 1.397 . S
C243 C299 1.419 . S
C244 C240 1.391 . S
C244 C243 1.391 . S
C244 C245 1.399 . S
C245 C244 1.399 . S
C245 C248 1.396 . S
C245 C257 1.453 . S
C245 C258 1.684 . S
H246 C270 0.948 . S
C247 C243 1.397 . S
C247 C248 1.394 . S
C247 C266 1.723 . S
C248 C245 1.396 . S
C248 C247 1.394 . S
C248 C278 1.723 1_455 S
H249 C272 0.947 . S
H250 C273 0.948 . S
H251 C279 0.982 . S
H252 C280 0.979 . S
H253 C280 0.980 . S
H254 C280 0.983 . S
H255 C279 0.979 . S
H256 C279 0.977 . S
C257 C245 1.453 . S
C257 H286 0.982 . S
C257 H287 0.979 . S
C257 H288 0.977 1_455 S
C258 C245 1.684 . S
C258 H283 0.979 . S
C258 H284 0.980 . S
C258 H285 0.983 . S
C259 C260 1.391 . S
C259 C264 1.391 . S
C259 H289 0.948 . S
C260 C259 1.391 . S
C260 C261 1.391 1_455 S
C261 C260 1.391 1_655 S
C261 C262 1.392 . S
C261 H290 0.947 . S
C262 C261 1.392 . S
C262 C263 1.419 1_655 S
C262 H291 0.948 . S
C263 C262 1.419 1_455 S
C263 C264 1.391 . S
C263 C267 1.397 . S
C264 C259 1.391 . S
C264 C263 1.391 . S
C264 C265 1.399 . S
C265 C264 1.399 . S
C265 C266 1.396 . S
C265 C268 1.453 . S
C265 C269 1.684 . S
C266 C247 1.723 . S
C266 C265 1.396 . S
C266 C267 1.394 . S
C267 C263 1.397 . S
C267 C266 1.394 . S
C267 C277 1.723 1_455 S
C268 C265 1.453 . S
C268 H292 0.982 . S
C268 H293 0.979 . S
C268 H294 0.977 . S
C269 C265 1.684 . S
C269 H295 0.979 . S
C269 H296 0.980 . S
C269 H297 0.983 . S
C270 H246 0.948 . S
C270 C271 1.391 . S
C270 C275 1.391 . S
C271 C270 1.391 . S
C271 C272 1.391 . S
C272 H249 0.947 . S
C272 C271 1.391 . S
C272 C273 1.392 . S
C273 H250 0.948 . S
C273 C272 1.392 . S
C273 C274 1.419 . S
C274 C273 1.419 . S
C274 C275 1.391 . S
C274 C278 1.397 . S
C275 C270 1.391 . S
C275 C274 1.391 . S
C275 C276 1.399 . S
C276 C275 1.399 . S
C276 C277 1.396 . S
C276 C279 1.453 . S
C276 C280 1.684 . S
C277 C267 1.723 1_655 S
C277 C276 1.396 . S
C277 C278 1.394 . S
C278 C248 1.723 1_655 S
C278 C274 1.397 . S
C278 C277 1.394 . S
C279 H251 0.982 . S
C279 H255 0.979 . S
C279 H256 0.977 . S
C279 C276 1.453 . S
C280 H252 0.979 . S
C280 H253 0.980 . S
C280 H254 0.983 . S
C280 C276 1.684 . S
H281 C299 0.948 . S
H282 C240 0.948 . S
H283 C258 0.979 . S
H284 C258 0.980 . S
H285 C258 0.983 . S
H286 C257 0.982 . S
H287 C257 0.979 . S
H288 C257 0.977 1_655 S
H289 C259 0.948 . S
H290 C261 0.947 . S
H291 C262 0.948 . S
H292 C268 0.982 . S
H293 C268 0.979 . S
H294 C268 0.977 . S
H295 C269 0.979 . S
H296 C269 0.980 . S
H297 C269 0.983 . S
H298 C242 0.947 . S
C299 C242 1.392 . S
C299 C243 1.419 . S
C299 H281 0.948 . S
C300 C301 1.391 . S
C300 C304 1.391 . S
C300 H342 0.948 . S
C301 C300 1.391 . S
C301 C302 1.391 . S
C302 C301 1.391 . S
C302 H358 0.947 . S
C302 C359 1.392 . S
C303 C304 1.391 . S
C303 C307 1.397 . S
C303 C359 1.419 . S
C304 C300 1.391 . S
C304 C303 1.391 . S
C304 C305 1.399 . S
C305 C304 1.399 . S
C305 C308 1.396 . S
C305 C317 1.453 1_655 S
C305 C318 1.684 . S
H306 C330 0.948 . S
C307 C303 1.397 . S
C307 C308 1.394 . S
C307 C326 1.723 . S
C308 C305 1.396 . S
C308 C307 1.394 . S
C308 C338 1.723 1_655 S
H309 C332 0.947 . S
H310 C333 0.948 . S
H311 C339 0.982 . S
H312 C340 0.979 . S
H313 C340 0.980 . S
H314 C340 0.983 . S
H315 C339 0.979 . S
H316 C339 0.977 . S
C317 C305 1.453 1_455 S
C317 H346 0.982 . S
C317 H347 0.979 1_455 S
C317 H348 0.977 . S
C318 C305 1.684 . S
C318 H343 0.979 . S
C318 H344 0.980 . S
C318 H345 0.983 . S
C319 C320 1.391 . S
C319 C324 1.391 . S
C319 H349 0.948 . S
C320 C319 1.391 . S
C320 C321 1.391 1_655 S
C321 C320 1.391 1_455 S
C321 C322 1.392 . S
C321 H350 0.947 . S
C322 C321 1.392 . S
C322 C323 1.419 . S
C322 H351 0.948 . S
C323 C322 1.419 . S
C323 C324 1.391 1_455 S
C323 C327 1.397 . S
C324 C319 1.391 . S
C324 C323 1.391 1_655 S
C324 C325 1.399 . S
C325 C324 1.399 . S
C325 C326 1.396 . S
C325 C328 1.453 . S
C325 C329 1.684 . S
C326 C307 1.723 . S
C326 C325 1.396 . S
C326 C327 1.394 1_655 S
C327 C323 1.397 . S
C327 C326 1.394 1_455 S
C327 C337 1.723 . S
C328 C325 1.453 . S
C328 H352 0.982 . S
C328 H353 0.979 . S
C328 H354 0.977 . S
C329 C325 1.684 . S
C329 H355 0.979 . S
C329 H356 0.980 . S
C329 H357 0.983 . S
C330 H306 0.948 . S
C330 C331 1.391 . S
C330 C335 1.391 . S
C331 C330 1.391 . S
C331 C332 1.391 . S
C332 H309 0.947 . S
C332 C331 1.391 . S
C332 C333 1.392 . S
C333 H310 0.948 . S
C333 C332 1.392 . S
C333 C334 1.419 . S
C334 C333 1.419 . S
C334 C335 1.391 . S
C334 C338 1.397 . S
C335 C330 1.391 . S
C335 C334 1.391 . S
C335 C336 1.399 . S
C336 C335 1.399 . S
C336 C337 1.396 . S
C336 C339 1.453 . S
C336 C340 1.684 . S
C337 C327 1.723 . S
C337 C336 1.396 . S
C337 C338 1.394 . S
C338 C308 1.723 1_455 S
C338 C334 1.397 . S
C338 C337 1.394 . S
C339 H311 0.982 . S
C339 H315 0.979 . S
C339 H316 0.977 . S
C339 C336 1.453 . S
C340 H312 0.979 . S
C340 H313 0.980 . S
C340 H314 0.983 . S
C340 C336 1.684 . S
H341 C359 0.948 . S
H342 C300 0.948 . S
H343 C318 0.979 . S
H344 C318 0.980 . S
H345 C318 0.983 . S
H346 C317 0.982 . S
H347 C317 0.979 1_655 S
H348 C317 0.977 . S
H349 C319 0.948 . S
H350 C321 0.947 . S
H351 C322 0.948 . S
H352 C328 0.982 . S
H353 C328 0.979 . S
H354 C328 0.977 . S
H355 C329 0.979 . S
H356 C329 0.980 . S
H357 C329 0.983 . S
H358 C302 0.947 . S
C359 C302 1.392 . S
C359 C303 1.419 . S
C359 H341 0.948 . S
C360 C361 1.391 . S
C360 C364 1.391 . S
C360 H402 0.948 . S
C361 C360 1.391 . S
C361 C362 1.391 . S
C362 C361 1.391 . S
C362 H418 0.947 . S
C362 C419 1.392 . S
C363 C364 1.391 . S
C363 C367 1.397 . S
C363 C419 1.419 . S
C364 C360 1.391 . S
C364 C363 1.391 . S
C364 C365 1.399 . S
C365 C364 1.399 . S
C365 C368 1.396 . S
C365 C377 1.453 . S
C365 C378 1.684 . S
H366 C390 0.948 . S
C367 C363 1.397 . S
C367 C368 1.394 . S
C367 C386 1.723 . S
C368 C365 1.396 . S
C368 C367 1.394 . S
C368 C398 1.723 1_565 S
H369 C392 0.947 . S
H370 C393 0.948 . S
H371 C399 0.982 . S
H372 C400 0.979 . S
H373 C400 0.980 . S
H374 C400 0.983 . S
H375 C399 0.979 . S
H376 C399 0.977 . S
C377 C365 1.453 . S
C377 H406 0.982 . S
C377 H407 0.979 . S
C377 H408 0.977 1_565 S
C378 C365 1.684 . S
C378 H403 0.979 . S
C378 H404 0.980 1_565 S
C378 H405 0.983 . S
C379 C380 1.391 1_565 S
C379 C384 1.391 . S
C379 H409 0.948 . S
C380 C379 1.391 1_545 S
C380 C381 1.391 . S
C381 C380 1.391 . S
C381 C382 1.392 . S
C381 H410 0.947 . S
C382 C381 1.392 . S
C382 C383 1.419 . S
C382 H411 0.948 . S
C383 C382 1.419 . S
C383 C384 1.391 1_545 S
C383 C387 1.397 . S
C384 C379 1.391 . S
C384 C383 1.391 1_565 S
C384 C385 1.399 . S
C385 C384 1.399 . S
C385 C386 1.396 . S
C385 C388 1.453 . S
C385 C389 1.684 . S
C386 C367 1.723 . S
C386 C385 1.396 . S
C386 C387 1.394 1_565 S
C387 C383 1.397 . S
C387 C386 1.394 1_545 S
C387 C397 1.723 . S
C388 C385 1.453 . S
C388 H412 0.982 . S
C388 H413 0.979 . S
C388 H414 0.977 . S
C389 C385 1.684 . S
C389 H415 0.979 . S
C389 H416 0.980 . S
C389 H417 0.983 . S
C390 H366 0.948 . S
C390 C391 1.391 . S
C390 C395 1.391 . S
C391 C390 1.391 . S
C391 C392 1.391 . S
C392 H369 0.947 . S
C392 C391 1.391 . S
C392 C393 1.392 . S
C393 H370 0.948 . S
C393 C392 1.392 . S
C393 C394 1.419 . S
C394 C393 1.419 . S
C394 C395 1.391 . S
C394 C398 1.397 . S
C395 C390 1.391 . S
C395 C394 1.391 . S
C395 C396 1.399 . S
C396 C395 1.399 . S
C396 C397 1.396 . S
C396 C399 1.453 . S
C396 C400 1.684 . S
C397 C387 1.723 . S
C397 C396 1.396 . S
C397 C398 1.394 . S
C398 C368 1.723 1_545 S
C398 C394 1.397 . S
C398 C397 1.394 . S
C399 H371 0.982 . S
C399 H375 0.979 . S
C399 H376 0.977 . S
C399 C396 1.453 . S
C400 H372 0.979 . S
C400 H373 0.980 . S
C400 H374 0.983 . S
C400 C396 1.684 . S
H401 C419 0.948 . S
H402 C360 0.948 . S
H403 C378 0.979 . S
H404 C378 0.980 1_545 S
H405 C378 0.983 . S
H406 C377 0.982 . S
H407 C377 0.979 . S
H408 C377 0.977 1_545 S
H409 C379 0.948 . S
H410 C381 0.947 . S
H411 C382 0.948 . S
H412 C388 0.982 . S
H413 C388 0.979 . S
H414 C388 0.977 . S
H415 C389 0.979 . S
H416 C389 0.980 . S
H417 C389 0.983 . S
H418 C362 0.947 . S
C419 C362 1.392 . S
C419 C363 1.419 . S
C419 H401 0.948 . S
C420 C421 1.391 . S
C420 C424 1.391 . S
C420 H462 0.948 . S
C421 C420 1.391 . S
C421 C422 1.391 . S
C422 C421 1.391 . S
C422 H478 0.947 . S
C422 C479 1.392 . S
C423 C424 1.391 . S
C423 C427 1.397 . S
C423 C479 1.419 . S
C424 C420 1.391 . S
C424 C423 1.391 . S
C424 C425 1.399 . S
C425 C424 1.399 . S
C425 C428 1.396 . S
C425 C437 1.453 . S
C425 C438 1.684 . S
H426 C450 0.948 . S
C427 C423 1.397 . S
C427 C428 1.394 . S
C427 C446 1.723 . S
C428 C425 1.396 . S
C428 C427 1.394 . S
C428 C458 1.723 . S
H429 C452 0.947 . S
H430 C453 0.948 . S
H431 C459 0.982 . S
H432 C460 0.979 . S
H433 C460 0.980 . S
H434 C460 0.983 . S
H435 C459 0.979 . S
H436 C459 0.977 . S
C437 C425 1.453 . S
C437 H466 0.982 . S
C437 H467 0.979 . S
C437 H468 0.977 . S
C438 C425 1.684 . S
C438 H463 0.979 . S
C438 H464 0.980 . S
C438 H465 0.983 . S
C439 C440 1.391 . S
C439 C444 1.391 . S
C439 H469 0.948 . S
C440 C439 1.391 . S
C440 C441 1.391 . S
C441 C440 1.391 . S
C441 C442 1.392 . S
C441 H470 0.947 . S
C442 C441 1.392 . S
C442 C443 1.419 . S
C442 H471 0.948 . S
C443 C442 1.419 . S
C443 C444 1.391 . S
C443 C447 1.397 . S
C444 C439 1.391 . S
C444 C443 1.391 . S
C444 C445 1.399 . S
C445 C444 1.399 . S
C445 C446 1.396 . S
C445 C448 1.453 . S
C445 C449 1.684 . S
C446 C427 1.723 . S
C446 C445 1.396 . S
C446 C447 1.394 . S
C447 C443 1.397 . S
C447 C446 1.394 . S
C447 C457 1.723 . S
C448 C445 1.453 . S
C448 H472 0.982 . S
C448 H473 0.979 . S
C448 H474 0.977 . S
C449 C445 1.684 . S
C449 H475 0.979 . S
C449 H476 0.980 . S
C449 H477 0.983 . S
C450 H426 0.948 . S
C450 C451 1.391 . S
C450 C455 1.391 . S
C451 C450 1.391 . S
C451 C452 1.391 . S
C452 H429 0.947 . S
C452 C451 1.391 . S
C452 C453 1.392 . S
C453 H430 0.948 . S
C453 C452 1.392 . S
C453 C454 1.419 . S
C454 C453 1.419 . S
C454 C455 1.391 . S
C454 C458 1.397 . S
C455 C450 1.391 . S
C455 C454 1.391 . S
C455 C456 1.399 . S
C456 C455 1.399 . S
C456 C457 1.396 . S
C456 C459 1.453 . S
C456 C460 1.684 . S
C457 C447 1.723 . S
C457 C456 1.396 . S
C457 C458 1.394 . S
C458 C428 1.723 . S
C458 C454 1.397 . S
C458 C457 1.394 . S
C459 H431 0.982 . S
C459 H435 0.979 . S
C459 H436 0.977 . S
C459 C456 1.453 . S
C460 H432 0.979 . S
C460 H433 0.980 . S
C460 H434 0.983 . S
C460 C456 1.684 . S
H461 C479 0.948 . S
H462 C420 0.948 . S
H463 C438 0.979 . S
H464 C438 0.980 . S
H465 C438 0.983 . S
H466 C437 0.982 . S
H467 C437 0.979 . S
H468 C437 0.977 . S
H469 C439 0.948 . S
H470 C441 0.947 . S
H471 C442 0.948 . S
H472 C448 0.982 . S
H473 C448 0.979 . S
H474 C448 0.977 . S
H475 C449 0.979 . S
H476 C449 0.980 . S
H477 C449 0.983 . S
H478 C422 0.947 . S
C479 C422 1.392 . S
C479 C423 1.419 . S
C479 H461 0.948 . S
H480 C492 0.930 . S
H481 C494 0.930 . S
H482 C495 0.930 . S
H483 C499 0.959 . S
H484 C499 0.959 . S
H485 C499 0.961 . S
H486 C500 0.960 . S
H487 C500 0.961 . S
H488 C500 0.959 . S
H489 C503 0.929 . S
H490 C504 0.931 . S
H491 C506 0.930 . S
C492 H480 0.930 . S
C492 C493 1.399 . S
C492 C497 1.399 . S
C493 C492 1.399 . S
C493 C494 1.376 . S
C494 H481 0.930 . S
C494 C493 1.376 . S
C494 C495 1.388 . S
C495 H482 0.930 . S
C495 C494 1.388 . S
C495 C496 1.390 . S
C496 C495 1.390 . S
C496 C497 1.394 . S
C496 C502 1.465 . S
C497 C492 1.399 . S
C497 C496 1.394 . S
C497 C498 1.516 . S
C498 C497 1.516 . S
C498 C499 1.502 . S
C498 C500 1.561 . S
C498 C501 1.526 . S
C499 H483 0.959 . S
C499 H484 0.959 . S
C499 H485 0.961 . S
C499 C498 1.502 . S
C500 H486 0.960 . S
C500 H487 0.961 . S
C500 H488 0.959 . S
C500 C498 1.561 . S
C501 C498 1.526 . S
C501 C502 1.396 . S
C501 C506 1.390 . S
C502 C496 1.465 . S
C502 C501 1.396 . S
C502 C503 1.399 . S
C503 H489 0.929 . S
C503 C502 1.399 . S
C503 C504 1.385 . S
C504 H490 0.931 . S
C504 C503 1.385 . S
C504 C505 1.389 . S
C505 C504 1.389 . S
C505 C506 1.387 . S
C506 H491 0.930 . S
C506 C501 1.390 . S
C506 C505 1.387 . S
H507 C519 0.930 . S
H508 C521 0.930 . S
H509 C522 0.930 . S
H510 C526 0.959 . S
H511 C526 0.959 . S
H512 C526 0.961 . S
H513 C527 0.960 . S
H514 C527 0.961 . S
H515 C527 0.959 . S
H516 C530 0.929 . S
H517 C531 0.931 . S
H518 C533 0.930 . S
C519 H507 0.930 . S
C519 C520 1.399 . S
C519 C524 1.399 . S
C520 C519 1.399 . S
C520 C521 1.376 . S
C521 H508 0.930 . S
C521 C520 1.376 . S
C521 C522 1.388 . S
C522 H509 0.930 . S
C522 C521 1.388 . S
C522 C523 1.390 . S
C523 C522 1.390 . S
C523 C524 1.394 . S
C523 C529 1.465 . S
C524 C519 1.399 . S
C524 C523 1.394 . S
C524 C525 1.516 . S
C525 C524 1.516 . S
C525 C526 1.502 . S
C525 C527 1.561 . S
C525 C528 1.526 . S
C526 H510 0.959 . S
C526 H511 0.959 . S
C526 H512 0.961 . S
C526 C525 1.502 . S
C527 H513 0.960 . S
C527 H514 0.961 . S
C527 H515 0.959 . S
C527 C525 1.561 . S
C528 C525 1.526 . S
C528 C529 1.396 . S
C528 C533 1.390 . S
C529 C523 1.465 . S
C529 C528 1.396 . S
C529 C530 1.399 . S
C530 H516 0.929 . S
C530 C529 1.399 . S
C530 C531 1.385 . S
C531 H517 0.931 . S
C531 C530 1.385 . S
C531 C532 1.389 . S
C532 C531 1.389 . S
C532 C533 1.387 . S
C533 H518 0.930 . S
C533 C528 1.390 . S
C533 C532 1.387 . S
H534 C546 0.930 . S
H535 C548 0.930 . S
H536 C549 0.930 . S
H537 C553 0.959 . S
H538 C553 0.959 . S
H539 C553 0.961 . S
H540 C554 0.960 . S
H541 C554 0.961 . S
H542 C554 0.959 . S
H543 C557 0.929 . S
H544 C558 0.931 . S
H545 C560 0.930 . S
C546 H534 0.930 . S
C546 C547 1.399 . S
C546 C551 1.399 . S
C547 C546 1.399 . S
C547 C548 1.376 . S
C548 H535 0.930 . S
C548 C547 1.376 . S
C548 C549 1.388 . S
C549 H536 0.930 . S
C549 C548 1.388 . S
C549 C550 1.390 . S
C550 C549 1.390 . S
C550 C551 1.394 . S
C550 C556 1.465 . S
C551 C546 1.399 . S
C551 C550 1.394 . S
C551 C552 1.516 . S
C552 C551 1.516 . S
C552 C553 1.502 . S
C552 C554 1.561 . S
C552 C555 1.526 . S
C553 H537 0.959 . S
C553 H538 0.959 . S
C553 H539 0.961 . S
C553 C552 1.502 . S
C554 H540 0.960 . S
C554 H541 0.961 . S
C554 H542 0.959 . S
C554 C552 1.561 . S
C555 C552 1.526 . S
C555 C556 1.396 . S
C555 C560 1.390 . S
C556 C550 1.465 . S
C556 C555 1.396 . S
C556 C557 1.399 . S
C557 H543 0.929 . S
C557 C556 1.399 . S
C557 C558 1.385 . S
C558 H544 0.931 . S
C558 C557 1.385 . S
C558 C559 1.389 . S
C559 C558 1.389 . S
C559 C560 1.387 . S
C560 H545 0.930 . S
C560 C555 1.390 . S
C560 C559 1.387 . S
H561 C573 0.930 . S
H562 C575 0.930 . S
H563 C576 0.930 . S
H564 C580 0.959 . S
H565 C580 0.959 . S
H566 C580 0.961 . S
H567 C581 0.960 . S
H568 C581 0.961 . S
H569 C581 0.959 . S
H570 C584 0.929 . S
H571 C585 0.931 . S
H572 C587 0.930 . S
C573 H561 0.930 . S
C573 C574 1.399 . S
C573 C578 1.399 . S
C574 C573 1.399 . S
C574 C575 1.376 . S
C575 H562 0.930 . S
C575 C574 1.376 . S
C575 C576 1.388 . S
C576 H563 0.930 . S
C576 C575 1.388 . S
C576 C577 1.390 . S
C577 C576 1.390 . S
C577 C578 1.394 . S
C577 C583 1.465 . S
C578 C573 1.399 . S
C578 C577 1.394 . S
C578 C579 1.516 . S
C579 C578 1.516 . S
C579 C580 1.502 . S
C579 C581 1.561 . S
C579 C582 1.526 . S
C580 H564 0.959 . S
C580 H565 0.959 . S
C580 H566 0.961 . S
C580 C579 1.502 . S
C581 H567 0.960 . S
C581 H568 0.961 . S
C581 H569 0.959 . S
C581 C579 1.561 . S
C582 C579 1.526 . S
C582 C583 1.396 . S
C582 C587 1.390 . S
C583 C577 1.465 . S
C583 C582 1.396 . S
C583 C584 1.399 . S
C584 H570 0.929 . S
C584 C583 1.399 . S
C584 C585 1.385 . S
C585 H571 0.931 . S
C585 C584 1.385 . S
C585 C586 1.389 . S
C586 C585 1.389 . S
C586 C587 1.387 . S
C587 H572 0.930 . S
C587 C582 1.390 . S
C587 C586 1.387 . S
H588 C600 0.930 . S
H589 C602 0.930 . S
H590 C603 0.930 . S
H591 C607 0.959 . S
H592 C607 0.959 . S
H593 C607 0.961 . S
H594 C608 0.960 . S
H595 C608 0.961 . S
H596 C608 0.959 . S
H597 C611 0.929 . S
H598 C612 0.931 . S
H599 C614 0.930 . S
C600 H588 0.930 . S
C600 C601 1.399 . S
C600 C605 1.399 . S
C601 C600 1.399 . S
C601 C602 1.376 . S
C602 H589 0.930 . S
C602 C601 1.376 . S
C602 C603 1.388 . S
C603 H590 0.930 . S
C603 C602 1.388 . S
C603 C604 1.390 . S
C604 C603 1.390 . S
C604 C605 1.394 . S
C604 C610 1.465 . S
C605 C600 1.399 . S
C605 C604 1.394 . S
C605 C606 1.516 . S
C606 C605 1.516 . S
C606 C607 1.502 . S
C606 C608 1.561 . S
C606 C609 1.526 . S
C607 H591 0.959 . S
C607 H592 0.959 . S
C607 H593 0.961 . S
C607 C606 1.502 . S
C608 H594 0.960 . S
C608 H595 0.961 . S
C608 H596 0.959 . S
C608 C606 1.561 . S
C609 C606 1.526 . S
C609 C610 1.396 . S
C609 C614 1.390 . S
C610 C604 1.465 . S
C610 C609 1.396 . S
C610 C611 1.399 . S
C611 H597 0.929 . S
C611 C610 1.399 . S
C611 C612 1.385 . S
C612 H598 0.931 . S
C612 C611 1.385 . S
C612 C613 1.389 . S
C613 C612 1.389 . S
C613 C614 1.387 . S
C614 H599 0.930 . S
C614 C609 1.390 . S
C614 C613 1.387 . S
H615 C627 0.930 . S
H616 C629 0.930 . S
H617 C630 0.930 . S
H618 C634 0.959 . S
H619 C634 0.959 . S
H620 C634 0.961 . S
H621 C635 0.960 . S
H622 C635 0.961 . S
H623 C635 0.959 . S
H624 C638 0.929 . S
H625 C639 0.931 . S
H626 C641 0.930 . S
C627 H615 0.930 . S
C627 C628 1.399 . S
C627 C632 1.399 . S
C628 C627 1.399 . S
C628 C629 1.376 . S
C629 H616 0.930 . S
C629 C628 1.376 . S
C629 C630 1.388 . S
C630 H617 0.930 . S
C630 C629 1.388 . S
C630 C631 1.390 . S
C631 C630 1.390 . S
C631 C632 1.394 . S
C631 C637 1.465 . S
C632 C627 1.399 . S
C632 C631 1.394 . S
C632 C633 1.516 . S
C633 C632 1.516 . S
C633 C634 1.502 . S
C633 C635 1.561 . S
C633 C636 1.526 . S
C634 H618 0.959 . S
C634 H619 0.959 . S
C634 H620 0.961 . S
C634 C633 1.502 . S
C635 H621 0.960 . S
C635 H622 0.961 . S
C635 H623 0.959 . S
C635 C633 1.561 . S
C636 C633 1.526 . S
C636 C637 1.396 . S
C636 C641 1.390 . S
C637 C631 1.465 . S
C637 C636 1.396 . S
C637 C638 1.399 . S
C638 H624 0.929 . S
C638 C637 1.399 . S
C638 C639 1.385 . S
C639 H625 0.931 . S
C639 C638 1.385 . S
C639 C640 1.389 . S
C640 C639 1.389 . S
C640 C641 1.387 . S
C641 H626 0.930 . S
C641 C636 1.390 . S
C641 C640 1.387 . S
H642 C654 0.930 . S
H643 C656 0.930 . S
H644 C657 0.930 . S
H645 C661 0.959 . S
H646 C661 0.959 . S
H647 C661 0.961 . S
H648 C662 0.960 . S
H649 C662 0.961 . S
H650 C662 0.959 . S
H651 C665 0.929 . S
H652 C666 0.931 . S
H653 C668 0.930 . S
C654 H642 0.930 . S
C654 C655 1.399 . S
C654 C659 1.399 . S
C655 C654 1.399 . S
C655 C656 1.376 . S
C656 H643 0.930 . S
C656 C655 1.376 . S
C656 C657 1.388 . S
C657 H644 0.930 . S
C657 C656 1.388 . S
C657 C658 1.390 . S
C658 C657 1.390 . S
C658 C659 1.394 . S
C658 C664 1.465 . S
C659 C654 1.399 . S
C659 C658 1.394 . S
C659 C660 1.516 . S
C660 C659 1.516 . S
C660 C661 1.502 . S
C660 C662 1.561 . S
C660 C663 1.526 . S
C661 H645 0.959 . S
C661 H646 0.959 . S
C661 H647 0.961 . S
C661 C660 1.502 . S
C662 H648 0.960 . S
C662 H649 0.961 . S
C662 H650 0.959 . S
C662 C660 1.561 . S
C663 C660 1.526 . S
C663 C664 1.396 . S
C663 C668 1.390 . S
C664 C658 1.465 . S
C664 C663 1.396 . S
C664 C665 1.399 . S
C665 H651 0.929 . S
C665 C664 1.399 . S
C665 C666 1.385 . S
C666 H652 0.931 . S
C666 C665 1.385 . S
C666 C667 1.389 . S
C667 C666 1.389 . S
C667 C668 1.387 . S
C668 H653 0.930 . S
C668 C663 1.390 . S
C668 C667 1.387 . S
H669 C681 0.930 . S
H670 C683 0.930 . S
H671 C684 0.930 . S
H672 C688 0.959 . S
H673 C688 0.959 . S
H674 C688 0.961 . S
H675 C689 0.960 . S
H676 C689 0.961 . S
H677 C689 0.959 . S
H678 C692 0.929 . S
H679 C693 0.931 . S
H680 C695 0.930 . S
C681 H669 0.930 . S
C681 C682 1.399 . S
C681 C686 1.399 . S
C682 C681 1.399 . S
C682 C683 1.376 . S
C683 H670 0.930 . S
C683 C682 1.376 . S
C683 C684 1.388 . S
C684 H671 0.930 . S
C684 C683 1.388 . S
C684 C685 1.390 . S
C685 C684 1.390 . S
C685 C686 1.394 . S
C685 C691 1.465 . S
C686 C681 1.399 . S
C686 C685 1.394 . S
C686 C687 1.516 . S
C687 C686 1.516 . S
C687 C688 1.502 . S
C687 C689 1.561 . S
C687 C690 1.526 . S
C688 H672 0.959 . S
C688 H673 0.959 . S
C688 H674 0.961 . S
C688 C687 1.502 . S
C689 H675 0.960 . S
C689 H676 0.961 . S
C689 H677 0.959 . S
C689 C687 1.561 . S
C690 C687 1.526 . S
C690 C691 1.396 . S
C690 C695 1.390 . S
C691 C685 1.465 . S
C691 C690 1.396 . S
C691 C692 1.399 . S
C692 H678 0.929 . S
C692 C691 1.399 . S
C692 C693 1.385 . S
C693 H679 0.931 . S
C693 C692 1.385 . S
C693 C694 1.389 . S
C694 C693 1.389 . S
C694 C695 1.387 . S
C695 H680 0.930 . S
C695 C690 1.390 . S
C695 C694 1.387 . S
H696 C708 0.930 . S
H697 C710 0.930 . S
H698 C711 0.930 . S
H699 C715 0.959 . S
H700 C715 0.959 . S
H701 C715 0.961 . S
H702 C716 0.960 . S
H703 C716 0.961 . S
H704 C716 0.959 . S
H705 C719 0.929 . S
H706 C720 0.931 . S
H707 C722 0.930 . S
C708 H696 0.930 . S
C708 C709 1.399 . S
C708 C713 1.399 . S
C709 C708 1.399 . S
C709 C710 1.376 . S
C710 H697 0.930 . S
C710 C709 1.376 . S
C710 C711 1.388 . S
C711 H698 0.930 . S
C711 C710 1.388 . S
C711 C712 1.390 . S
C712 C711 1.390 . S
C712 C713 1.394 . S
C712 C718 1.465 . S
C713 C708 1.399 . S
C713 C712 1.394 . S
C713 C714 1.516 . S
C714 C713 1.516 . S
C714 C715 1.502 . S
C714 C716 1.561 . S
C714 C717 1.526 . S
C715 H699 0.959 . S
C715 H700 0.959 . S
C715 H701 0.961 . S
C715 C714 1.502 . S
C716 H702 0.960 . S
C716 H703 0.961 . S
C716 H704 0.959 . S
C716 C714 1.561 . S
C717 C714 1.526 . S
C717 C718 1.396 . S
C717 C722 1.390 . S
C718 C712 1.465 . S
C718 C717 1.396 . S
C718 C719 1.399 . S
C719 H705 0.929 . S
C719 C718 1.399 . S
C719 C720 1.385 . S
C720 H706 0.931 . S
C720 C719 1.385 . S
C720 C721 1.389 . S
C721 C720 1.389 . S
C721 C722 1.387 . S
C722 H707 0.930 . S
C722 C717 1.390 . S
C722 C721 1.387 . S
H723 C735 0.930 . S
H724 C737 0.930 . S
H725 C738 0.930 . S
H726 C742 0.959 . S
H727 C742 0.959 . S
H728 C742 0.961 . S
H729 C743 0.960 . S
H730 C743 0.961 . S
H731 C743 0.959 . S
H732 C746 0.929 . S
H733 C747 0.931 . S
H734 C749 0.930 . S
C735 H723 0.930 . S
C735 C736 1.399 . S
C735 C740 1.399 . S
C736 C735 1.399 . S
C736 C737 1.376 . S
C737 H724 0.930 . S
C737 C736 1.376 . S
C737 C738 1.388 . S
C738 H725 0.930 . S
C738 C737 1.388 . S
C738 C739 1.390 . S
C739 C738 1.390 . S
C739 C740 1.394 . S
C739 C745 1.465 . S
C740 C735 1.399 . S
C740 C739 1.394 . S
C740 C741 1.516 . S
C741 C740 1.516 . S
C741 C742 1.502 . S
C741 C743 1.561 . S
C741 C744 1.526 . S
C742 H726 0.959 . S
C742 H727 0.959 . S
C742 H728 0.961 . S
C742 C741 1.502 . S
C743 H729 0.960 . S
C743 H730 0.961 . S
C743 H731 0.959 . S
C743 C741 1.561 . S
C744 C741 1.526 . S
C744 C745 1.396 . S
C744 C749 1.390 . S
C745 C739 1.465 . S
C745 C744 1.396 . S
C745 C746 1.399 . S
C746 H732 0.929 . S
C746 C745 1.399 . S
C746 C747 1.385 . S
C747 H733 0.931 . S
C747 C746 1.385 . S
C747 C748 1.389 . S
C748 C747 1.389 . S
C748 C749 1.387 . S
C749 H734 0.930 . S
C749 C744 1.390 . S
C749 C748 1.387 . S
H750 C762 0.930 . S
H751 C764 0.930 . S
H752 C765 0.930 . S
H753 C769 0.959 . S
H754 C769 0.959 . S
H755 C769 0.961 . S
H756 C770 0.960 . S
H757 C770 0.961 . S
H758 C770 0.959 . S
H759 C773 0.929 . S
H760 C774 0.931 . S
H761 C776 0.930 . S
C762 H750 0.930 . S
C762 C763 1.399 . S
C762 C767 1.399 . S
C763 C762 1.399 . S
C763 C764 1.376 . S
C764 H751 0.930 . S
C764 C763 1.376 . S
C764 C765 1.388 . S
C765 H752 0.930 . S
C765 C764 1.388 . S
C765 C766 1.390 . S
C766 C765 1.390 . S
C766 C767 1.394 . S
C766 C772 1.465 . S
C767 C762 1.399 . S
C767 C766 1.394 . S
C767 C768 1.516 . S
C768 C767 1.516 . S
C768 C769 1.502 . S
C768 C770 1.561 . S
C768 C771 1.526 . S
C769 H753 0.959 . S
C769 H754 0.959 . S
C769 H755 0.961 . S
C769 C768 1.502 . S
C770 H756 0.960 . S
C770 H757 0.961 . S
C770 H758 0.959 . S
C770 C768 1.561 . S
C771 C768 1.526 . S
C771 C772 1.396 . S
C771 C776 1.390 . S
C772 C766 1.465 . S
C772 C771 1.396 . S
C772 C773 1.399 . S
C773 H759 0.929 . S
C773 C772 1.399 . S
C773 C774 1.385 . S
C774 H760 0.931 . S
C774 C773 1.385 . S
C774 C775 1.389 . S
C775 C774 1.389 . S
C775 C776 1.387 . S
C776 H761 0.930 . S
C776 C771 1.390 . S
C776 C775 1.387 . S
H777 C789 0.930 . S
H778 C791 0.930 . S
H779 C792 0.930 . S
H780 C796 0.959 . S
H781 C796 0.959 . S
H782 C796 0.961 . S
H783 C797 0.960 . S
H784 C797 0.961 . S
H785 C797 0.959 . S
H786 C800 0.929 . S
H787 C801 0.931 . S
H788 C803 0.930 . S
C789 H777 0.930 . S
C789 C790 1.399 . S
C789 C794 1.399 . S
C790 C789 1.399 . S
C790 C791 1.376 . S
C791 H778 0.930 . S
C791 C790 1.376 . S
C791 C792 1.388 . S
C792 H779 0.930 . S
C792 C791 1.388 . S
C792 C793 1.390 . S
C793 C792 1.390 . S
C793 C794 1.394 . S
C793 C799 1.465 . S
C794 C789 1.399 . S
C794 C793 1.394 . S
C794 C795 1.516 . S
C795 C794 1.516 . S
C795 C796 1.502 . S
C795 C797 1.561 . S
C795 C798 1.526 . S
C796 H780 0.959 . S
C796 H781 0.959 . S
C796 H782 0.961 . S
C796 C795 1.502 . S
C797 H783 0.960 . S
C797 H784 0.961 . S
C797 H785 0.959 . S
C797 C795 1.561 . S
C798 C795 1.526 . S
C798 C799 1.396 . S
C798 C803 1.390 . S
C799 C793 1.465 . S
C799 C798 1.396 . S
C799 C800 1.399 . S
C800 H786 0.929 . S
C800 C799 1.399 . S
C800 C801 1.385 . S
C801 H787 0.931 . S
C801 C800 1.385 . S
C801 C802 1.389 . S
C802 C801 1.389 . S
C802 C803 1.387 . S
C803 H788 0.930 . S
C803 C798 1.390 . S
C803 C802 1.387 . S
H804 C816 0.930 . S
H805 C818 0.930 . S
H806 C819 0.930 . S
H807 C823 0.959 . S
H808 C823 0.959 . S
H809 C823 0.961 . S
H810 C824 0.960 . S
H811 C824 0.961 . S
H812 C824 0.959 . S
H813 C827 0.929 . S
H814 C828 0.931 1_556 S
H815 C830 0.930 . S
C816 H804 0.930 . S
C816 C817 1.399 . S
C816 C821 1.399 . S
C817 C816 1.399 . S
C817 C818 1.376 . S
C818 H805 0.930 . S
C818 C817 1.376 . S
C818 C819 1.388 . S
C819 H806 0.930 . S
C819 C818 1.388 . S
C819 C820 1.390 . S
C820 C819 1.390 . S
C820 C821 1.394 . S
C820 C826 1.465 . S
C821 C816 1.399 . S
C821 C820 1.394 . S
C821 C822 1.516 . S
C822 C821 1.516 . S
C822 C823 1.502 1_455 S
C822 C824 1.561 . S
C822 C825 1.526 . S
C823 H807 0.959 . S
C823 H808 0.959 . S
C823 H809 0.961 . S
C823 C822 1.502 1_655 S
C824 H810 0.960 . S
C824 H811 0.961 . S
C824 H812 0.959 . S
C824 C822 1.561 . S
C825 C822 1.526 . S
C825 C826 1.396 . S
C825 C830 1.390 . S
C826 C820 1.465 . S
C826 C825 1.396 . S
C826 C827 1.399 . S
C827 H813 0.929 . S
C827 C826 1.399 . S
C827 C828 1.385 . S
C828 H814 0.931 1_554 S
C828 C827 1.385 . S
C828 C829 1.389 1_554 S
C829 C828 1.389 1_556 S
C829 C830 1.387 1_556 S
C830 H815 0.930 . S
C830 C825 1.390 . S
C830 C829 1.387 1_554 S
H831 C843 0.930 . S
H832 C845 0.930 . S
H833 C846 0.930 . S
H834 C850 0.959 . S
H835 C850 0.959 . S
H836 C850 0.961 . S
H837 C851 0.960 . S
H838 C851 0.961 . S
H839 C851 0.959 . S
H840 C854 0.929 . S
H841 C855 0.931 . S
H842 C857 0.930 1_565 S
C843 H831 0.930 . S
C843 C844 1.399 1_565 S
C843 C848 1.399 1_565 S
C844 C843 1.399 1_545 S
C844 C845 1.376 . S
C845 H832 0.930 . S
C845 C844 1.376 . S
C845 C846 1.388 . S
C846 H833 0.930 . S
C846 C845 1.388 . S
C846 C847 1.390 . S
C847 C846 1.390 . S
C847 C848 1.394 . S
C847 C853 1.465 . S
C848 C843 1.399 1_545 S
C848 C847 1.394 . S
C848 C849 1.516 1_545 S
C849 C848 1.516 1_565 S
C849 C850 1.502 . S
C849 C851 1.561 . S
C849 C852 1.526 1_565 S
C850 H834 0.959 . S
C850 H835 0.959 . S
C850 H836 0.961 . S
C850 C849 1.502 . S
C851 H837 0.960 . S
C851 H838 0.961 . S
C851 H839 0.959 . S
C851 C849 1.561 . S
C852 C849 1.526 1_545 S
C852 C853 1.396 . S
C852 C857 1.390 . S
C853 C847 1.465 . S
C853 C852 1.396 . S
C853 C854 1.399 . S
C854 H840 0.929 . S
C854 C853 1.399 . S
C854 C855 1.385 . S
C855 H841 0.931 . S
C855 C854 1.385 . S
C855 C856 1.389 . S
C856 C855 1.389 . S
C856 C857 1.387 . S
C857 H842 0.930 1_545 S
C857 C852 1.390 . S
C857 C856 1.387 . S
H858 C870 0.930 . S
H859 C872 0.930 . S
H860 C873 0.930 . S
H861 C877 0.959 . S
H862 C877 0.959 . S
H863 C877 0.961 . S
H864 C878 0.960 . S
H865 C878 0.961 . S
H866 C878 0.959 . S
H867 C881 0.929 . S
H868 C882 0.931 . S
H869 C884 0.930 . S
C870 H858 0.930 . S
C870 C871 1.399 . S
C870 C875 1.399 . S
C871 C870 1.399 . S
C871 C872 1.376 . S
C872 H859 0.930 . S
C872 C871 1.376 . S
C872 C873 1.388 . S
C873 H860 0.930 . S
C873 C872 1.388 . S
C873 C874 1.390 . S
C874 C873 1.390 . S
C874 C875 1.394 . S
C874 C880 1.465 . S
C875 C870 1.399 . S
C875 C874 1.394 . S
C875 C876 1.516 . S
C876 C875 1.516 . S
C876 C877 1.502 . S
C876 C878 1.561 . S
C876 C879 1.526 . S
C877 H861 0.959 . S
C877 H862 0.959 . S
C877 H863 0.961 . S
C877 C876 1.502 . S
C878 H864 0.960 . S
C878 H865 0.961 . S
C878 H866 0.959 . S
C878 C876 1.561 . S
C879 C876 1.526 . S
C879 C880 1.396 . S
C879 C884 1.390 . S
C880 C874 1.465 . S
C880 C879 1.396 . S
C880 C881 1.399 . S
C881 H867 0.929 . S
C881 C880 1.399 . S
C881 C882 1.385 . S
C882 H868 0.931 . S
C882 C881 1.385 . S
C882 C883 1.389 . S
C883 C882 1.389 . S
C883 C884 1.387 . S
C884 H869 0.930 . S
C884 C879 1.390 . S
C884 C883 1.387 . S
H885 C897 0.930 . S
H886 C899 0.930 . S
H887 C900 0.930 . S
H888 C904 0.959 . S
H889 C904 0.959 . S
H890 C904 0.961 . S
H891 C905 0.960 . S
H892 C905 0.961 . S
H893 C905 0.959 . S
H894 C908 0.929 . S
H895 C909 0.931 . S
H896 C911 0.930 . S
C897 H885 0.930 . S
C897 C898 1.399 . S
C897 C902 1.399 . S
C898 C897 1.399 . S
C898 C899 1.376 1_545 S
C899 H886 0.930 . S
C899 C898 1.376 1_565 S
C899 C900 1.388 . S
C900 H887 0.930 . S
C900 C899 1.388 . S
C900 C901 1.390 . S
C901 C900 1.390 . S
C901 C902 1.394 1_565 S
C901 C907 1.465 . S
C902 C897 1.399 . S
C902 C901 1.394 1_545 S
C902 C903 1.516 . S
C903 C902 1.516 . S
C903 C904 1.502 . S
C903 C905 1.561 . S
C903 C906 1.526 . S
C904 H888 0.959 . S
C904 H889 0.959 . S
C904 H890 0.961 . S
C904 C903 1.502 . S
C905 H891 0.960 . S
C905 H892 0.961 . S
C905 H893 0.959 . S
C905 C903 1.561 . S
C906 C903 1.526 . S
C906 C907 1.396 1_545 S
C906 C911 1.390 . S
C907 C901 1.465 . S
C907 C906 1.396 1_565 S
C907 C908 1.399 . S
C908 H894 0.929 . S
C908 C907 1.399 . S
C908 C909 1.385 . S
C909 H895 0.931 . S
C909 C908 1.385 . S
C909 C910 1.389 1_565 S
C910 C909 1.389 1_545 S
C910 C911 1.387 . S
C911 H896 0.930 . S
C911 C906 1.390 . S
C911 C910 1.387 . S
H912 C924 0.930 . S
H913 C926 0.930 . S
H914 C927 0.930 . S
H915 C931 0.959 . S
H916 C931 0.959 . S
H917 C931 0.961 . S
H918 C932 0.960 . S
H919 C932 0.961 . S
H920 C932 0.959 . S
H921 C935 0.929 . S
H922 C936 0.898 1_554 S
H923 C938 0.930 . S
C924 H912 0.930 . S
C924 C925 1.399 . S
C924 C929 1.399 . S
C925 C924 1.399 . S
C925 C926 1.376 . S
C926 H913 0.930 . S
C926 C925 1.376 . S
C926 C927 1.388 . S
C927 H914 0.930 . S
C927 C926 1.388 . S
C927 C928 1.390 . S
C928 C927 1.390 . S
C928 C929 1.394 . S
C928 C934 1.465 . S
C929 C924 1.399 . S
C929 C928 1.394 . S
C929 C930 1.516 . S
C930 C929 1.516 . S
C930 C931 1.502 . S
C930 C932 1.561 . S
C930 C933 1.526 . S
C931 H915 0.959 . S
C931 H916 0.959 . S
C931 H917 0.961 . S
C931 C930 1.502 . S
C932 H918 0.960 . S
C932 H919 0.961 . S
C932 H920 0.959 . S
C932 C930 1.561 . S
C933 C930 1.526 . S
C933 C934 1.396 . S
C933 C938 1.390 . S
C934 C928 1.465 . S
C934 C933 1.396 . S
C934 C935 1.399 . S
C935 H921 0.929 . S
C935 C934 1.399 . S
C935 C936 1.432 . S
C936 H922 0.898 1_556 S
C936 C935 1.432 . S
C936 C937 1.376 1_556 S
C937 C936 1.376 1_554 S
C937 C938 1.387 1_554 S
C938 H923 0.930 . S
C938 C933 1.390 . S
C938 C937 1.387 1_556 S
H939 C951 0.930 . S
H940 C953 0.930 . S
H941 C954 0.930 . S
H942 C958 0.959 . S
H943 C958 0.959 . S
H944 C958 0.961 . S
H945 C959 0.960 . S
H946 C959 0.961 . S
H947 C959 0.959 1_455 S
H948 C962 0.929 . S
H949 C963 0.931 . S
H950 C965 0.930 . S
C951 H939 0.930 . S
C951 C952 1.399 1_655 S
C951 C956 1.399 . S
C952 C951 1.399 1_455 S
C952 C953 1.376 . S
C953 H940 0.930 . S
C953 C952 1.376 . S
C953 C954 1.388 . S
C954 H941 0.930 . S
C954 C953 1.388 . S
C954 C955 1.390 . S
C955 C954 1.390 . S
C955 C956 1.394 1_455 S
C955 C961 1.465 . S
C956 C951 1.399 . S
C956 C955 1.394 1_655 S
C956 C957 1.516 . S
C957 C956 1.516 . S
C957 C958 1.502 . S
C957 C959 1.561 . S
C957 C960 1.526 . S
C958 H942 0.959 . S
C958 H943 0.959 . S
C958 H944 0.961 . S
C958 C957 1.502 . S
C959 H945 0.960 . S
C959 H946 0.961 . S
C959 H947 0.959 1_655 S
C959 C957 1.561 . S
C960 C957 1.526 . S
C960 C961 1.396 1_655 S
C960 C965 1.390 . S
C961 C955 1.465 . S
C961 C960 1.396 1_455 S
C961 C962 1.399 . S
C962 H948 0.929 . S
C962 C961 1.399 . S
C962 C963 1.385 . S
C963 H949 0.931 . S
C963 C962 1.385 . S
C963 C964 1.377 1_455 S
C964 C963 1.377 1_655 S
C964 C965 1.394 . S
C965 H950 0.930 . S
C965 C960 1.390 . S
C965 C964 1.394 . S
C493 C19 1.929 . S
C505 C451 1.926 . S
C520 C46 1.229 . S
C532 C301 1.228 . S
C547 C95 0.562 . S
C559 C361 0.524 . S
C574 C10 2.005 . S
C586 C421 1.818 . S
C613 C331 1.310 . S
C601 C55 1.282 . S
C640 C391 0.580 . S
C628 C86 0.487 . S
C655 C59 3.098 . S
C667 C181 2.905 . S
C682 C90 2.065 . S
C694 C271 2.078 . S
C709 C15 1.257 . S
C721 C151 1.302 . S
C748 C211 3.015 . S
C736 C50 3.012 . S
C775 C241 1.743 . S
C763 C99 1.917 . S
C790 C6 1.199 . S
C802 C121 1.129 . S
C829 C260 1.366 . S
C817 C9 1.290 . S
C844 C58 1.431 . S
C856 C140 1.476 . S
C871 C98 1.719 . S
C883 C200 1.722 . S
C910 C380 1.086 . S
C898 C49 1.106 . S
C937 C440 1.314 . S
C925 C89 1.286 . S
C952 C18 1.409 . S
C964 C320 1.431 . S
