# Generated by pormake.
# Topology tsx, (6,3)-cn, num edge types: 1
# Building blocks:
#     Node 0, Type 0, BuildingBlock: MIDCAF_clean_sbu_0, # of connection points: 6
#     Node 1, Type 0, BuildingBlock: MIDCAF_clean_sbu_0, # of connection points: 6
#     Node 2, Type 1, BuildingBlock: KAKCAD_clean_linker_0, # of connection points: 3
#     Node 3, Type 1, BuildingBlock: KAKCAD_clean_linker_0, # of connection points: 3
#     Node 4, Type 1, BuildingBlock: KAKCAD_clean_linker_0, # of connection points: 3
#     Node 5, Type 1, BuildingBlock: KAKCAD_clean_linker_0, # of connection points: 3
#     Edge 6, Type (0, 1), BuildingBlock: KIFKEQ_clean_linker_1, # of connection points: 2
#     Edge 7, Type (0, 1), BuildingBlock: KIFKEQ_clean_linker_1, # of connection points: 2
#     Edge 8, Type (0, 1), BuildingBlock: KIFKEQ_clean_linker_1, # of connection points: 2
#     Edge 9, Type (0, 1), BuildingBlock: KIFKEQ_clean_linker_1, # of connection points: 2
#     Edge 10, Type (0, 1), BuildingBlock: KIFKEQ_clean_linker_1, # of connection points: 2
#     Edge 11, Type (0, 1), BuildingBlock: KIFKEQ_clean_linker_1, # of connection points: 2
#     Edge 12, Type (0, 1), BuildingBlock: KIFKEQ_clean_linker_1, # of connection points: 2
#     Edge 13, Type (0, 1), BuildingBlock: KIFKEQ_clean_linker_1, # of connection points: 2
#     Edge 14, Type (0, 1), BuildingBlock: KIFKEQ_clean_linker_1, # of connection points: 2
#     Edge 15, Type (0, 1), BuildingBlock: KIFKEQ_clean_linker_1, # of connection points: 2
#     Edge 16, Type (0, 1), BuildingBlock: KIFKEQ_clean_linker_1, # of connection points: 2
#     Edge 17, Type (0, 1), BuildingBlock: KIFKEQ_clean_linker_1, # of connection points: 2
# Relax obj value: 0.118
# Max RMSD: 0.182
# Mean RMSD: 0.113
data_MOF--net-tsx--node1-MIDCAF_clean_sbu_0--node2-KAKCAD_clean_linker_0--edge1-KIFKEQ_clean_linker_1
_symmetry_space_group_name_H-M    P1
_symmetry_Int_Tables_number       1
_symmetry_cell_setting            triclinic
loop_
_symmetry_equiv_pos_as_xyz
'x, y, z'
_cell_length_a     23.866916
_cell_length_b     25.150233
_cell_length_c     47.622422
_cell_angle_alpha  92.147588
_cell_angle_beta   96.238294
_cell_angle_gamma 91.070894
loop_
_atom_site_label
_atom_site_type_symbol
_atom_site_fract_x
_atom_site_fract_y
_atom_site_fract_z
_atom_type_partial_charge
Zn0 Zn 0.03917 0.94573 0.98769 0.0
Zn1 Zn 0.16772 0.02554 0.05333 0.0
Zn2 Zn 0.09043 0.99838 0.0191 0.0
C3 C 0.14747 0.10889 0.01424 0.0
C4 C 0.195 0.92812 0.02661 0.0
O5 O 0.02078 0.95732 0.0375 0.0
O6 O 0.03053 0.88377 0.0122 0.0
C7 C 0.99217 0.04858 0.9885 0.0
O8 O 0.10448 0.07941 0.00441 0.0
O9 O 0.18249 0.09272 0.03376 0.0
O10 O 0.21292 0.95973 0.04707 0.0
O11 O 0.14868 0.9375 0.01187 0.0
O12 O 0.9751 0.00047 0.98759 0.0
O13 O 0.04574 0.0583 0.99345 0.0
O14 O 0.09285 0.03491 0.97739 0.0
O15 O 0.09349 0.95419 0.95816 0.0
C16 C 0.10186 0.00382 0.95627 0.0
O17 O 0.04812 0.00025 0.05708 0.0
O18 O 0.12075 0.03192 0.08589 0.0
C19 C 1.00928 0.90738 0.03237 0.0
C20 C 0.06939 0.01753 0.08165 0.0
Zn21 Zn 0.66606 0.52378 0.554 0.0
Zn22 Zn 0.53909 0.44386 0.48744 0.0
Zn23 Zn 0.58972 0.49629 0.51921 0.0
C24 C 0.60266 0.50194 0.45651 0.0
C25 C 0.49222 0.54677 0.48805 0.0
O26 O 0.54623 0.49779 0.55681 0.0
O27 O 0.61802 0.52947 0.58617 0.0
C28 C 0.69461 0.42663 0.52736 0.0
O29 O 0.59324 0.53292 0.4776 0.0
O30 O 0.59425 0.45229 0.4583 0.0
O31 O 0.47499 0.49869 0.48692 0.0
O32 O 0.54575 0.55634 0.49339 0.0
O33 O 0.71189 0.4583 0.54791 0.0
O34 O 0.64848 0.43571 0.51239 0.0
O35 O 0.60407 0.57734 0.50463 0.0
O36 O 0.68098 0.59124 0.53469 0.0
C37 C 0.64654 0.60712 0.51484 0.0
O38 O 0.51925 0.45522 0.53693 0.0
O39 O 0.5293 0.3817 0.51167 0.0
C40 C 0.56676 0.51489 0.58153 0.0
C41 C 0.50744 0.40538 0.53163 0.0
C42 C 0.99427 0.94993 0.29138 0.0
C43 C 0.99284 0.00103 0.28037 0.0
C44 C 1.00302 0.94367 0.32055 0.0
C45 C 1.01047 0.98836 0.33933 0.0
C46 C 1.00726 0.03943 0.32832 0.0
C47 C 0.99842 0.04567 0.2992 0.0
C48 C 0.02308 0.98191 0.37023 0.0
C49 C 0.06121 0.94364 0.3806 0.0
C50 C 0.07442 0.93783 0.40987 0.0
C51 C 0.04905 0.97162 0.42886 0.0
C52 C 0.01206 0.01101 0.41869 0.0
C53 C 0.9988 0.0154 0.38947 0.0
C54 C 0.98829 0.04955 0.43811 0.0
C55 C 0.95597 0.0325 0.45916 0.0
C56 C 0.99436 0.1042 0.43396 0.0
C57 C 0.96685 0.14118 0.44975 0.0
C58 C 0.93226 0.12431 0.46991 0.0
C59 C 0.11615 0.89766 0.42018 0.0
C60 C 0.1186 0.84847 0.40538 0.0
C61 C 0.15538 0.90877 0.44403 0.0
C62 C 0.19638 0.87189 0.45259 0.0
C63 C 0.19957 0.82319 0.43734 0.0
C64 C 0.16002 0.81209 0.41362 0.0
C65 C 0.92773 0.06965 0.47483 0.0
H66 H 0.99062 0.91473 0.27743 0.0
H67 H 1.0045 0.9038 0.32841 0.0
H68 H 0.01326 0.07471 0.34215 0.0
H69 H 0.99691 0.08558 0.29138 0.0
H70 H 0.0822 0.91961 0.36574 0.0
H71 H 0.96914 0.04504 0.38175 0.0
H72 H 0.05862 0.96803 0.45146 0.0
H73 H 0.95066 0.99047 0.46263 0.0
H74 H 0.01931 0.11823 0.41791 0.0
H75 H 0.9707 0.18291 0.44524 0.0
H76 H 0.08862 0.83799 0.38719 0.0
H77 H 0.15528 0.94644 0.4558 0.0
H78 H 0.90158 0.05566 0.49038 0.0
H79 H 0.16141 0.77555 0.40099 0.0
H80 H 0.22548 0.88161 0.47121 0.0
C81 C 0.02445 0.12573 0.73908 0.0
C82 C 0.03968 0.07757 0.7515 0.0
C83 C 1.0107 0.1275 0.7098 0.0
C84 C 1.01097 0.08099 0.69248 0.0
C85 C 0.02399 0.03249 0.70506 0.0
C86 C 0.03858 0.03086 0.73425 0.0
C87 C 1.00312 0.08379 0.66122 0.0
C88 C 0.03539 0.12065 0.64813 0.0
C89 C 0.03357 0.1208 0.61859 0.0
C90 C 0.99732 0.0845 0.60192 0.0
C91 C 0.96382 0.04765 0.61464 0.0
C92 C 0.96739 0.0474 0.64438 0.0
C93 C 0.92723 0.00774 0.59697 0.0
C94 C 0.89347 0.02248 0.57251 0.0
C95 C 0.92614 0.95426 0.60448 0.0
C96 C 0.8922 0.91645 0.58803 0.0
C97 C 0.85819 0.93107 0.56367 0.0
C98 C 0.07405 0.15551 0.6058 0.0
C99 C 0.08297 0.20888 0.61531 0.0
C100 C 0.10862 0.13387 0.58645 0.0
C101 C 0.15306 0.16412 0.57793 0.0
C102 C 0.16366 0.21688 0.5884 0.0
C103 C 0.1271 0.23929 0.60663 0.0
C104 C 0.85899 0.98459 0.55614 0.0
H105 H 0.025 0.1623 0.75188 0.0
H106 H 1.00077 0.1654 0.70061 0.0
H107 H 0.02506 0.99616 0.69218 0.0
H108 H 0.04954 0.99309 0.74334 0.0
H109 H 0.06477 0.14721 0.66109 0.0
H110 H 0.94227 0.01899 0.6545 0.0
H111 H 0.99639 0.08401 0.57911 0.0
H112 H 0.89319 0.06343 0.56622 0.0
H113 H 0.95208 0.94141 0.62297 0.0
H114 H 0.89211 0.87568 0.59461 0.0
H115 H 0.05658 0.2267 0.63006 0.0
H116 H 0.10324 0.09262 0.57907 0.0
H117 H 0.83346 0.99703 0.53742 0.0
H118 H 0.13312 0.28011 0.6146 0.0
H119 H 0.18062 0.14523 0.56413 0.0
C120 C 0.48952 0.44535 0.79075 0.0
C121 C 0.4877 0.4964 0.77968 0.0
C122 C 0.49812 0.43924 0.81995 0.0
C123 C 0.50503 0.48404 0.83867 0.0
C124 C 0.5014 0.53503 0.82758 0.0
C125 C 0.49268 0.54112 0.79845 0.0
C126 C 0.51764 0.47785 0.86961 0.0
C127 C 0.55611 0.43996 0.8801 0.0
C128 C 0.56969 0.43478 0.9094 0.0
C129 C 0.5443 0.46878 0.92828 0.0
C130 C 0.50692 0.50775 0.91798 0.0
C131 C 0.49327 0.51148 0.88875 0.0
C132 C 0.48349 0.54682 0.93723 0.0
C133 C 0.45128 0.53047 0.95847 0.0
C134 C 0.48983 0.60131 0.93274 0.0
C135 C 0.46275 0.63882 0.9484 0.0
C136 C 0.42831 0.62266 0.96878 0.0
C137 C 0.61198 0.39519 0.91983 0.0
C138 C 0.61475 0.34574 0.90532 0.0
C139 C 0.65145 0.40716 0.94349 0.0
C140 C 0.69299 0.37084 0.95214 0.0
C141 C 0.69647 0.32187 0.93719 0.0
C142 C 0.65667 0.30991 0.91367 0.0
C143 C 0.42345 0.56816 0.97401 0.0
H144 H 0.48632 0.4101 0.77684 0.0
H145 H 0.49995 0.39942 0.82786 0.0
H146 H 0.50701 0.57041 0.84136 0.0
H147 H 0.49084 0.58098 0.79059 0.0
H148 H 0.57717 0.41582 0.86531 0.0
H149 H 0.46338 0.54086 0.88094 0.0
H150 H 0.55422 0.46574 0.9509 0.0
H151 H 0.44576 0.48856 0.96221 0.0
H152 H 0.51469 0.61481 0.91654 0.0
H153 H 0.46683 0.68042 0.94365 0.0
H154 H 0.58462 0.33463 0.88729 0.0
H155 H 0.65113 0.44505 0.95502 0.0
H156 H 0.39741 0.5547 0.98974 0.0
H157 H 0.65827 0.27312 0.90127 0.0
H158 H 0.72227 0.38121 0.9706 0.0
C159 C 0.52608 0.62483 0.23949 0.0
C160 C 0.54097 0.57655 0.25187 0.0
C161 C 0.51254 0.62677 0.21021 0.0
C162 C 0.51265 0.5803 0.19283 0.0
C163 C 0.52525 0.53168 0.20537 0.0
C164 C 0.53965 0.52989 0.23457 0.0
C165 C 0.5053 0.58327 0.16158 0.0
C166 C 0.53825 0.61984 0.14868 0.0
C167 C 0.53715 0.61992 0.11918 0.0
C168 C 0.50089 0.5839 0.10232 0.0
C169 C 0.46663 0.54741 0.11484 0.0
C170 C 0.46953 0.54718 0.14457 0.0
C171 C 0.42996 0.50779 0.09702 0.0
C172 C 0.39661 0.52281 0.07249 0.0
C173 C 0.42828 0.4543 0.10448 0.0
C174 C 0.39415 0.41677 0.08793 0.0
C175 C 0.3605 0.43169 0.06353 0.0
C176 C 0.57859 0.65403 0.1067 0.0
C177 C 0.58755 0.70753 0.11604 0.0
C178 C 0.61429 0.63157 0.08812 0.0
C179 C 0.65997 0.66109 0.08034 0.0
C180 C 0.67051 0.7138 0.09075 0.0
C181 C 0.63288 0.73722 0.10802 0.0
C182 C 0.3619 0.48522 0.05602 0.0
H183 H 0.5268 0.66137 0.25233 0.0
H184 H 0.50295 0.66476 0.20105 0.0
H185 H 0.52621 0.49538 0.19246 0.0
H186 H 0.55034 0.49203 0.24363 0.0
H187 H 0.56766 0.64615 0.16179 0.0
H188 H 0.4439 0.51898 0.15454 0.0
H189 H 0.50055 0.58332 0.07953 0.0
H190 H 0.3968 0.56378 0.06623 0.0
H191 H 0.4539 0.44124 0.12302 0.0
H192 H 0.3936 0.37599 0.09448 0.0
H193 H 0.56054 0.72583 0.13033 0.0
H194 H 0.60869 0.59032 0.0808 0.0
H195 H 0.33666 0.49787 0.03727 0.0
H196 H 0.63999 0.7777 0.11641 0.0
H197 H 0.68789 0.64226 0.06669 0.0
H198 H 0.22346 0.13876 0.97949 0.0
H199 H 0.09902 0.19946 0.03059 0.0
H200 H 0.27087 0.22601 0.9825 0.0
H201 H 0.14701 0.28637 0.03456 0.0
H202 H 0.24952 0.4393 0.04181 0.0
H203 H 0.18746 0.3683 0.01846 0.0
H204 H 0.32744 0.26127 0.02412 0.0
H205 H 0.38897 0.33204 0.04665 0.0
C206 C 0.20461 0.17165 0.99011 0.0
C207 C 0.15745 0.1627 0.00461 0.0
C208 C 0.23229 0.2214 0.99232 0.0
C209 C 0.2138 0.26286 0.0095 0.0
C210 C 0.16254 0.25554 0.02114 0.0
C211 C 0.13463 0.20578 0.0187 0.0
C212 C 0.26711 0.40087 0.03744 0.0
C213 C 0.32401 0.39108 0.04636 0.0
C214 C 0.23152 0.36012 0.02421 0.0
C215 C 0.25228 0.30893 0.01934 0.0
C216 C 0.30992 0.30024 0.02704 0.0
C217 C 0.3452 0.34068 0.04037 0.0
H218 H 0.2938 0.89703 0.05485 0.0
H219 H 0.17026 0.85119 0.98448 0.0
H220 H 0.3487 0.81951 0.0447 0.0
H221 H 0.22601 0.77384 0.97404 0.0
H222 H 0.31647 0.61657 0.97617 0.0
H223 H 0.25835 0.68789 0.99267 0.0
H224 H 0.40597 0.79137 0.0078 0.0
H225 H 0.46398 0.71984 0.99203 0.0
C226 C 0.27833 0.87046 0.03717 0.0
C227 C 0.22777 0.88053 0.02035 0.0
C228 C 0.30994 0.82606 0.03133 0.0
C229 C 0.2918 0.79059 0.00855 0.0
C230 C 0.24076 0.80009 0.99197 0.0
C231 C 0.20907 0.84464 0.9978 0.0
C232 C 0.33659 0.65418 0.98367 0.0
C233 C 0.39469 0.66279 0.9827 0.0
C234 C 0.30324 0.6952 0.99276 0.0
C235 C 0.32746 0.74543 0.00125 0.0
C236 C 0.38602 0.75308 0.00155 0.0
C237 C 0.41923 0.71224 0.99235 0.0
H238 H 0.98575 0.80096 0.03001 0.0
H239 H 0.93394 0.94978 0.06619 0.0
H240 H 0.90574 0.75554 0.04644 0.0
H241 H 0.85471 0.90366 0.08391 0.0
H242 H 0.6805 0.81666 0.07458 0.0
H243 H 0.76596 0.86403 0.06465 0.0
H244 H 0.86335 0.72491 0.08548 0.0
H245 H 0.77773 0.67742 0.09457 0.0
C246 C 0.95795 0.82383 0.04207 0.0
C247 C 0.96627 0.87904 0.04676 0.0
C248 C 0.91207 0.79764 0.05168 0.0
C249 C 0.87337 0.82587 0.0664 0.0
C250 C 0.88312 0.88079 0.07223 0.0
C251 C 0.92899 0.90713 0.06242 0.0
C252 C 0.72028 0.7964 0.0771 0.0
C253 C 0.72233 0.74314 0.08497 0.0
C254 C 0.76937 0.82363 0.07163 0.0
C255 C 0.82172 0.79832 0.07417 0.0
C256 C 0.82373 0.74539 0.08274 0.0
C257 C 0.77464 0.71808 0.08792 0.0
H258 H 1.01124 0.14825 0.9692 0.0
H259 H 0.88108 0.0449 0.99467 0.0
H260 H 0.94087 0.21565 0.95707 0.0
H261 H 0.81181 0.11259 0.98437 0.0
H262 H 0.68808 0.21293 0.93476 0.0
H263 H 0.76121 0.14981 0.94633 0.0
H264 H 0.879 0.27912 0.9734 0.0
H265 H 0.80665 0.34283 0.95929 0.0
C266 C 0.9677 0.14024 0.97244 0.0
C267 C 0.95136 0.09108 0.98238 0.0
C268 C 0.92738 0.17894 0.96571 0.0
C269 C 0.87022 0.16947 0.96932 0.0
C270 C 0.85483 0.12087 0.98036 0.0
C271 C 0.8947 0.08205 0.98648 0.0
C272 C 0.72973 0.22821 0.94269 0.0
C273 C 0.74121 0.28326 0.94587 0.0
C274 C 0.77169 0.19176 0.94988 0.0
C275 C 0.82622 0.20908 0.96113 0.0
C276 C 0.83777 0.26416 0.96455 0.0
C277 C 0.79587 0.30079 0.95688 0.0
H278 H 0.72276 0.63698 0.4802 0.0
H279 H 0.59791 0.69764 0.53107 0.0
H280 H 0.76984 0.72439 0.48307 0.0
H281 H 0.64556 0.7847 0.53489 0.0
H282 H 0.74714 0.93795 0.54195 0.0
H283 H 0.68555 0.86656 0.51868 0.0
H284 H 0.82621 0.76032 0.52454 0.0
H285 H 0.88731 0.83151 0.54695 0.0
C286 C 0.70377 0.66988 0.49074 0.0
C287 C 0.65657 0.66091 0.50521 0.0
C288 C 0.73125 0.71973 0.49287 0.0
C289 C 0.71252 0.76124 0.50993 0.0
C290 C 0.66126 0.75383 0.52155 0.0
C291 C 0.63355 0.70399 0.51921 0.0
C292 C 0.76499 0.89961 0.53764 0.0
C293 C 0.82195 0.89017 0.54659 0.0
C294 C 0.72966 0.85863 0.52446 0.0
C295 C 0.75074 0.80755 0.51968 0.0
C296 C 0.80844 0.79919 0.5274 0.0
C297 C 0.84347 0.83987 0.54067 0.0
H298 H 0.79317 0.39614 0.5561 0.0
H299 H 0.67144 0.34982 0.48504 0.0
H300 H 0.84913 0.31927 0.5461 0.0
H301 H 0.72825 0.27314 0.47476 0.0
H302 H 0.8203 0.11691 0.47684 0.0
H303 H 0.76111 0.18735 0.49334 0.0
H304 H 0.90755 0.29213 0.50947 0.0
H305 H 0.96664 0.22146 0.4937 0.0
C306 C 0.77832 0.3696 0.5383 0.0
C307 C 0.72796 0.37935 0.52124 0.0
C308 C 0.81054 0.32557 0.53256 0.0
C309 C 0.79322 0.29017 0.50962 0.0
C310 C 0.74237 0.29934 0.49281 0.0
C311 C 0.71007 0.34351 0.49855 0.0
C312 C 0.83993 0.1546 0.48457 0.0
C313 C 0.89801 0.16384 0.48387 0.0
C314 C 0.80597 0.19512 0.49365 0.0
C315 C 0.82954 0.24548 0.50241 0.0
C316 C 0.88808 0.25374 0.503 0.0
C317 C 0.92191 0.21339 0.49381 0.0
H318 H 0.43185 0.44848 0.5651 0.0
H319 H 0.48116 0.29936 0.52809 0.0
H320 H 0.34933 0.40382 0.58069 0.0
H321 H 0.3987 0.25524 0.54335 0.0
H322 H 0.20911 0.21726 0.53789 0.0
H323 H 0.29524 0.26236 0.52751 0.0
H324 H 0.31876 0.33156 0.61239 0.0
H325 H 0.23331 0.28531 0.62319 0.0
C326 C 0.42585 0.40604 0.56085 0.0
C327 C 0.46305 0.37752 0.5453 0.0
C328 C 0.37846 0.38054 0.56968 0.0
C329 C 0.36713 0.32625 0.5628 0.0
C330 C 0.40578 0.29734 0.54846 0.0
C331 C 0.45323 0.32261 0.53989 0.0
C332 C 0.23276 0.24167 0.55447 0.0
C333 C 0.21421 0.24731 0.58143 0.0
C334 C 0.28212 0.26756 0.54849 0.0
C335 C 0.31398 0.30009 0.56923 0.0
C336 C 0.29488 0.30696 0.59596 0.0
C337 C 0.24571 0.28064 0.60205 0.0
H338 H 0.51238 0.64677 0.46949 0.0
H339 H 0.38071 0.54322 0.49331 0.0
H340 H 0.44272 0.7148 0.45745 0.0
H341 H 0.31209 0.61153 0.48312 0.0
H342 H 0.19011 0.71431 0.43405 0.0
H343 H 0.26246 0.65032 0.44537 0.0
H344 H 0.38112 0.77814 0.47394 0.0
H345 H 0.30963 0.84278 0.46005 0.0
C346 C 0.46865 0.63883 0.47237 0.0
C347 C 0.45171 0.58947 0.48184 0.0
C348 C 0.42873 0.6779 0.4657 0.0
C349 C 0.37135 0.6686 0.46892 0.0
C350 C 0.35532 0.61973 0.47943 0.0
C351 C 0.3948 0.58054 0.48548 0.0
C352 C 0.23181 0.72909 0.44225 0.0
C353 C 0.24378 0.78401 0.4459 0.0
C354 C 0.27331 0.69212 0.4493 0.0
C355 C 0.32785 0.70876 0.46088 0.0
C356 C 0.33987 0.76369 0.4648 0.0
C357 C 0.29845 0.80085 0.45727 0.0
H358 H 0.04285 0.10323 0.11274 0.0
H359 H 0.02594 0.93223 0.10567 0.0
H360 H 1.00862 0.10307 0.15923 0.0
H361 H 0.99371 0.93128 0.15266 0.0
H362 H 0.92629 0.94604 0.23772 0.0
H363 H 0.92855 0.95321 0.18672 0.0
H364 H 0.05698 0.07741 0.2027 0.0
H365 H 0.05433 0.07054 0.25308 0.0
C366 C 0.03028 0.06575 0.12097 0.0
C367 C 0.03642 0.0178 0.10583 0.0
C368 C 1.01125 0.06549 0.14763 0.0
C369 C 0.99954 0.01709 0.15994 0.0
C370 C 1.00191 0.96929 0.14378 0.0
C371 C 0.02025 0.96971 0.11687 0.0
C372 C 0.95461 0.97511 0.23021 0.0
C373 C 0.99006 0.0078 0.24943 0.0
C374 C 0.95586 0.97925 0.20104 0.0
C375 C 0.99267 0.01609 0.19057 0.0
C376 C 0.02702 0.04953 0.20989 0.0
C377 C 0.02565 0.0455 0.23889 0.0
H378 H 0.08372 0.10467 0.93721 0.0
H379 H 0.13647 0.94854 0.91161 0.0
H380 H 0.07781 0.13105 0.88798 0.0
H381 H 0.129 0.97385 0.8629 0.0
H382 H 0.13357 0.03195 0.77688 0.0
H383 H 0.16161 0.02429 0.82729 0.0
H384 H 0.01445 0.11096 0.84595 0.0
H385 H 0.98783 0.1202 0.79539 0.0
C386 C 0.09521 0.07642 0.9212 0.0
C387 C 0.10997 0.02435 0.92823 0.0
C388 C 0.0912 0.09128 0.89295 0.0
C389 C 0.1022 0.05442 0.8713 0.0
C390 C 0.12069 0.00362 0.87884 0.0
C391 C 0.12467 0.98889 0.90689 0.0
C392 C 0.10746 0.04959 0.79181 0.0
C393 C 0.0581 0.07597 0.78225 0.0
C394 C 0.12346 0.04524 0.82072 0.0
C395 C 0.09 0.06643 0.84082 0.0
C396 C 0.0417 0.09468 0.83119 0.0
C397 C 0.02611 0.09966 0.80221 0.0
H398 H 0.53863 0.60008 0.61254 0.0
H399 H 0.52321 0.42902 0.60503 0.0
H400 H 0.50357 0.59919 0.65881 0.0
H401 H 0.49026 0.42734 0.65184 0.0
H402 H 0.54894 0.56639 0.75258 0.0
H403 H 0.55192 0.57356 0.70226 0.0
H404 H 0.42474 0.44831 0.68588 0.0
H405 H 0.42215 0.44084 0.73685 0.0
C406 C 0.52621 0.56241 0.62061 0.0
C407 C 0.53307 0.51467 0.60544 0.0
C408 C 0.5067 0.56174 0.64716 0.0
C409 C 0.49528 0.51312 0.65933 0.0
C410 C 0.49827 0.4655 0.64308 0.0
C411 C 0.51705 0.46633 0.61627 0.0
C412 C 0.52059 0.54117 0.73831 0.0
C413 C 0.48523 0.50313 0.74874 0.0
C414 C 0.52214 0.54538 0.70934 0.0
C415 C 0.48822 0.51178 0.68992 0.0
C416 C 0.45169 0.47452 0.70028 0.0
C417 C 0.45026 0.4702 0.72943 0.0
H418 H 0.58478 0.6029 0.43757 0.0
H419 H 0.63761 0.44686 0.41186 0.0
H420 H 0.57904 0.62948 0.38839 0.0
H421 H 0.63027 0.47235 0.36318 0.0
H422 H 0.6347 0.53063 0.27719 0.0
H423 H 0.66275 0.52278 0.32759 0.0
H424 H 0.51579 0.60966 0.34634 0.0
H425 H 0.48919 0.61913 0.2958 0.0
C426 C 0.59634 0.57471 0.42155 0.0
C427 C 0.61105 0.52261 0.42854 0.0
C428 C 0.59241 0.58968 0.39332 0.0
C429 C 0.60343 0.55289 0.37164 0.0
C430 C 0.62193 0.50207 0.37914 0.0
C431 C 0.62584 0.48724 0.40717 0.0
C432 C 0.60864 0.54828 0.29215 0.0
C433 C 0.55935 0.57479 0.28261 0.0
C434 C 0.62465 0.54381 0.32104 0.0
C435 C 0.59124 0.565 0.34117 0.0
C436 C 0.543 0.59338 0.33157 0.0
C437 C 0.52742 0.59847 0.3026 0.0
loop_
_geom_bond_atom_site_label_1
_geom_bond_atom_site_label_2
_geom_bond_distance
_geom_bond_site_symmetry_2
_ccdc_geom_bond_type
Zn0 O6 1.905 1_546 S
Zn0 O12 1.898 . S
Zn0 O15 1.905 1_545 S
Zn1 O9 1.905 . S
Zn1 O10 1.898 1_545 S
Zn1 O18 1.920 1_545 S
Zn2 O5 2.080 1_445 S
Zn2 O8 2.114 . S
Zn2 O11 2.120 1_545 S
Zn2 O13 2.120 1_455 S
Zn2 O14 2.114 1_554 S
Zn2 O17 2.080 . S
C3 O8 1.166 . S
C3 O9 1.182 . S
C4 O10 1.167 . S
C4 O11 1.299 . S
O5 Zn2 2.080 1_665 S
O5 C19 1.305 . S
O6 Zn0 1.905 1_564 S
O6 C19 1.245 . S
C7 O12 1.167 . S
C7 O13 1.299 1_556 S
O8 Zn2 2.114 . S
O8 C3 1.166 . S
O9 Zn1 1.905 . S
O9 C3 1.182 . S
O10 Zn1 1.898 1_565 S
O10 C4 1.167 . S
O11 Zn2 2.120 1_565 S
O11 C4 1.299 . S
O12 Zn0 1.898 . S
O12 C7 1.167 . S
O13 Zn2 2.120 1_655 S
O13 C7 1.299 1_554 S
O14 Zn2 2.114 1_556 S
O14 C16 1.166 1_545 S
O15 Zn0 1.905 1_565 S
O15 C16 1.182 1_655 S
C16 O14 1.166 1_565 S
C16 O15 1.182 1_455 S
O17 Zn2 2.080 . S
O17 C20 1.305 1_545 S
O18 Zn1 1.920 1_565 S
O18 C20 1.234 . S
C19 O5 1.305 . S
C19 O6 1.245 . S
C20 O17 1.305 1_565 S
C20 O18 1.234 . S
Zn21 O27 1.920 . S
Zn21 O33 1.898 . S
Zn21 O36 1.905 . S
Zn22 O30 1.905 . S
Zn22 O31 1.898 . S
Zn22 O39 1.920 . S
Zn23 O26 2.080 . S
Zn23 O29 2.114 . S
Zn23 O32 2.120 . S
Zn23 O34 2.120 . S
Zn23 O35 2.114 . S
Zn23 O38 2.080 . S
C24 O29 1.166 . S
C24 O30 1.182 . S
C25 O31 1.167 . S
C25 O32 1.299 . S
O26 Zn23 2.080 . S
O26 C40 1.305 . S
O27 Zn21 1.920 . S
O27 C40 1.234 . S
C28 O33 1.167 . S
C28 O34 1.299 . S
O29 Zn23 2.114 . S
O29 C24 1.166 . S
O30 Zn22 1.905 . S
O30 C24 1.182 . S
O31 Zn22 1.898 . S
O31 C25 1.167 . S
O32 Zn23 2.120 . S
O32 C25 1.299 . S
O33 Zn21 1.898 . S
O33 C28 1.167 . S
O34 Zn23 2.120 . S
O34 C28 1.299 . S
O35 Zn23 2.114 . S
O35 C37 1.166 . S
O36 Zn21 1.905 . S
O36 C37 1.182 . S
C37 O35 1.166 . S
C37 O36 1.182 . S
O38 Zn23 2.080 . S
O38 C41 1.305 . S
O39 Zn22 1.920 . S
O39 C41 1.234 . S
C40 O26 1.305 . S
C40 O27 1.234 . S
C41 O38 1.305 . S
C41 O39 1.234 . S
C42 C43 1.386 1_565 S
C42 C44 1.397 . S
C42 H66 0.931 . S
C43 C42 1.386 1_545 S
C43 C47 1.397 . S
C44 C42 1.397 . S
C44 C45 1.384 1_565 S
C44 H67 0.930 . S
C45 C44 1.384 1_545 S
C45 C46 1.377 . S
C45 C48 1.481 . S
C46 C45 1.377 . S
C46 C47 1.389 . S
C46 H68 0.929 . S
C47 C43 1.397 . S
C47 C46 1.389 . S
C47 H69 0.931 . S
C48 C45 1.481 . S
C48 C49 1.387 1_545 S
C48 C53 1.390 . S
C49 C48 1.387 1_565 S
C49 C50 1.401 . S
C49 H70 0.930 . S
C50 C49 1.401 . S
C50 C51 1.376 1_565 S
C50 C59 1.511 . S
C51 C50 1.376 1_545 S
C51 C52 1.392 . S
C51 H72 0.931 . S
C52 C51 1.392 . S
C52 C53 1.361 . S
C52 C54 1.500 . S
C53 C48 1.390 . S
C53 C52 1.361 . S
C53 H71 0.931 . S
C54 C52 1.500 . S
C54 C55 1.371 1_455 S
C54 C56 1.365 1_455 S
C55 C54 1.371 1_655 S
C55 C65 1.386 . S
C55 H73 0.931 . S
C56 C54 1.365 1_655 S
C56 C57 1.409 . S
C56 H74 0.929 1_655 S
C57 C56 1.409 . S
C57 C58 1.380 . S
C57 H75 0.930 . S
C58 C57 1.380 . S
C58 C65 1.357 . S
C59 C50 1.511 . S
C59 C60 1.341 . S
C59 C61 1.371 . S
C60 C59 1.341 . S
C60 C64 1.394 . S
C60 H76 0.930 . S
C61 C59 1.371 . S
C61 C62 1.392 . S
C61 H77 0.931 . S
C62 C61 1.392 . S
C62 C63 1.331 . S
C62 H80 0.932 . S
C63 C62 1.331 . S
C63 C64 1.336 . S
C64 C60 1.394 . S
C64 C63 1.336 . S
C64 H79 0.929 . S
C65 C55 1.386 . S
C65 C58 1.357 . S
C65 H78 0.928 . S
H66 C42 0.931 . S
H67 C44 0.930 . S
H68 C46 0.929 . S
H69 C47 0.931 . S
H70 C49 0.930 . S
H71 C53 0.931 . S
H72 C51 0.931 . S
H73 C55 0.931 . S
H74 C56 0.929 1_455 S
H75 C57 0.930 . S
H76 C60 0.930 . S
H77 C61 0.931 . S
H78 C65 0.928 . S
H79 C64 0.929 . S
H80 C62 0.932 . S
C81 C82 1.386 . S
C81 C83 1.397 . S
C81 H105 0.931 . S
C82 C81 1.386 . S
C82 C86 1.397 1_545 S
C83 C81 1.397 . S
C83 C84 1.384 . S
C83 H106 0.930 . S
C84 C83 1.384 . S
C84 C85 1.377 1_545 S
C84 C87 1.481 . S
C85 C84 1.377 1_565 S
C85 C86 1.389 . S
C85 H107 0.929 . S
C86 C82 1.397 1_565 S
C86 C85 1.389 . S
C86 H108 0.931 . S
C87 C84 1.481 . S
C87 C88 1.387 . S
C87 C92 1.390 1_445 S
C88 C87 1.387 . S
C88 C89 1.401 . S
C88 H109 0.930 . S
C89 C88 1.401 . S
C89 C90 1.376 1_455 S
C89 C98 1.511 . S
C90 C89 1.376 1_655 S
C90 C91 1.392 1_545 S
C90 H111 0.931 . S
C91 C90 1.392 1_565 S
C91 C92 1.361 . S
C91 C93 1.500 . S
C92 C87 1.390 1_665 S
C92 C91 1.361 . S
C92 H110 0.931 . S
C93 C91 1.500 . S
C93 C94 1.371 . S
C93 C95 1.365 . S
C94 C93 1.371 . S
C94 C104 1.386 . S
C94 H112 0.931 . S
C95 C93 1.365 . S
C95 C96 1.409 . S
C95 H113 0.929 . S
C96 C95 1.409 . S
C96 C97 1.380 . S
C96 H114 0.930 . S
C97 C96 1.380 . S
C97 C104 1.357 . S
C98 C89 1.511 . S
C98 C99 1.341 . S
C98 C100 1.371 . S
C99 C98 1.341 . S
C99 C103 1.394 . S
C99 H115 0.930 . S
C100 C98 1.371 . S
C100 C101 1.392 . S
C100 H116 0.931 . S
C101 C100 1.392 . S
C101 C102 1.331 . S
C101 H119 0.932 . S
C102 C101 1.331 . S
C102 C103 1.336 . S
C103 C99 1.394 . S
C103 C102 1.336 . S
C103 H118 0.929 . S
C104 C94 1.386 . S
C104 C97 1.357 . S
C104 H117 0.928 . S
H105 C81 0.931 . S
H106 C83 0.930 . S
H107 C85 0.929 . S
H108 C86 0.931 . S
H109 C88 0.930 . S
H110 C92 0.931 . S
H111 C90 0.931 . S
H112 C94 0.931 . S
H113 C95 0.929 . S
H114 C96 0.930 . S
H115 C99 0.930 . S
H116 C100 0.931 . S
H117 C104 0.928 . S
H118 C103 0.929 . S
H119 C101 0.932 . S
C120 C121 1.386 . S
C120 C122 1.397 . S
C120 H144 0.931 . S
C121 C120 1.386 . S
C121 C125 1.397 . S
C122 C120 1.397 . S
C122 C123 1.384 . S
C122 H145 0.930 . S
C123 C122 1.384 . S
C123 C124 1.377 . S
C123 C126 1.481 . S
C124 C123 1.377 . S
C124 C125 1.389 . S
C124 H146 0.929 . S
C125 C121 1.397 . S
C125 C124 1.389 . S
C125 H147 0.931 . S
C126 C123 1.481 . S
C126 C127 1.387 . S
C126 C131 1.390 . S
C127 C126 1.387 . S
C127 C128 1.401 . S
C127 H148 0.930 . S
C128 C127 1.401 . S
C128 C129 1.376 . S
C128 C137 1.511 . S
C129 C128 1.376 . S
C129 C130 1.392 . S
C129 H150 0.931 . S
C130 C129 1.392 . S
C130 C131 1.361 . S
C130 C132 1.500 . S
C131 C126 1.390 . S
C131 C130 1.361 . S
C131 H149 0.931 . S
C132 C130 1.500 . S
C132 C133 1.371 . S
C132 C134 1.365 . S
C133 C132 1.371 . S
C133 C143 1.386 . S
C133 H151 0.931 . S
C134 C132 1.365 . S
C134 C135 1.409 . S
C134 H152 0.929 . S
C135 C134 1.409 . S
C135 C136 1.380 . S
C135 H153 0.930 . S
C136 C135 1.380 . S
C136 C143 1.357 . S
C137 C128 1.511 . S
C137 C138 1.341 . S
C137 C139 1.371 . S
C138 C137 1.341 . S
C138 C142 1.394 . S
C138 H154 0.930 . S
C139 C137 1.371 . S
C139 C140 1.392 . S
C139 H155 0.931 . S
C140 C139 1.392 . S
C140 C141 1.331 . S
C140 H158 0.932 . S
C141 C140 1.331 . S
C141 C142 1.336 . S
C142 C138 1.394 . S
C142 C141 1.336 . S
C142 H157 0.929 . S
C143 C133 1.386 . S
C143 C136 1.357 . S
C143 H156 0.928 . S
H144 C120 0.931 . S
H145 C122 0.930 . S
H146 C124 0.929 . S
H147 C125 0.931 . S
H148 C127 0.930 . S
H149 C131 0.931 . S
H150 C129 0.931 . S
H151 C133 0.931 . S
H152 C134 0.929 . S
H153 C135 0.930 . S
H154 C138 0.930 . S
H155 C139 0.931 . S
H156 C143 0.928 . S
H157 C142 0.929 . S
H158 C140 0.932 . S
C159 C160 1.386 . S
C159 C161 1.397 . S
C159 H183 0.931 . S
C160 C159 1.386 . S
C160 C164 1.397 . S
C161 C159 1.397 . S
C161 C162 1.384 . S
C161 H184 0.930 . S
C162 C161 1.384 . S
C162 C163 1.377 . S
C162 C165 1.481 . S
C163 C162 1.377 . S
C163 C164 1.389 . S
C163 H185 0.929 . S
C164 C160 1.397 . S
C164 C163 1.389 . S
C164 H186 0.931 . S
C165 C162 1.481 . S
C165 C166 1.387 . S
C165 C170 1.390 . S
C166 C165 1.387 . S
C166 C167 1.401 . S
C166 H187 0.930 . S
C167 C166 1.401 . S
C167 C168 1.376 . S
C167 C176 1.511 . S
C168 C167 1.376 . S
C168 C169 1.392 . S
C168 H189 0.931 . S
C169 C168 1.392 . S
C169 C170 1.361 . S
C169 C171 1.500 . S
C170 C165 1.390 . S
C170 C169 1.361 . S
C170 H188 0.931 . S
C171 C169 1.500 . S
C171 C172 1.371 . S
C171 C173 1.365 . S
C172 C171 1.371 . S
C172 C182 1.386 . S
C172 H190 0.931 . S
C173 C171 1.365 . S
C173 C174 1.409 . S
C173 H191 0.929 . S
C174 C173 1.409 . S
C174 C175 1.380 . S
C174 H192 0.930 . S
C175 C174 1.380 . S
C175 C182 1.357 . S
C176 C167 1.511 . S
C176 C177 1.341 . S
C176 C178 1.371 . S
C177 C176 1.341 . S
C177 C181 1.394 . S
C177 H193 0.930 . S
C178 C176 1.371 . S
C178 C179 1.392 . S
C178 H194 0.931 . S
C179 C178 1.392 . S
C179 C180 1.331 . S
C179 H197 0.932 . S
C180 C179 1.331 . S
C180 C181 1.336 . S
C181 C177 1.394 . S
C181 C180 1.336 . S
C181 H196 0.929 . S
C182 C172 1.386 . S
C182 C175 1.357 . S
C182 H195 0.928 . S
H183 C159 0.931 . S
H184 C161 0.930 . S
H185 C163 0.929 . S
H186 C164 0.931 . S
H187 C166 0.930 . S
H188 C170 0.931 . S
H189 C168 0.931 . S
H190 C172 0.931 . S
H191 C173 0.929 . S
H192 C174 0.930 . S
H193 C177 0.930 . S
H194 C178 0.931 . S
H195 C182 0.928 . S
H196 C181 0.929 . S
H197 C179 0.932 . S
H198 C206 0.950 . S
H199 C211 0.950 . S
H200 C208 0.950 . S
H201 C210 0.950 . S
H202 C212 0.950 . S
H203 C214 0.950 . S
H204 C216 0.950 . S
H205 C217 0.950 . S
C206 H198 0.950 . S
C206 C207 1.386 . S
C206 C208 1.391 . S
C207 C206 1.386 . S
C207 C211 1.393 . S
C208 H200 0.950 . S
C208 C206 1.391 . S
C208 C209 1.400 . S
C209 C208 1.400 . S
C209 C210 1.398 . S
C209 C215 1.491 . S
C210 H201 0.950 . S
C210 C209 1.398 . S
C210 C211 1.391 . S
C211 H199 0.950 . S
C211 C207 1.393 . S
C211 C210 1.391 . S
C212 H202 0.950 . S
C212 C213 1.386 . S
C212 C214 1.391 . S
C213 C212 1.386 . S
C213 C217 1.393 . S
C214 H203 0.950 . S
C214 C212 1.391 . S
C214 C215 1.400 . S
C215 C209 1.491 . S
C215 C214 1.400 . S
C215 C216 1.398 . S
C216 H204 0.950 . S
C216 C215 1.398 . S
C216 C217 1.391 . S
C217 H205 0.950 . S
C217 C213 1.393 . S
C217 C216 1.391 . S
H218 C226 0.950 . S
H219 C231 0.950 . S
H220 C228 0.950 . S
H221 C230 0.950 . S
H222 C232 0.950 . S
H223 C234 0.950 . S
H224 C236 0.950 1_554 S
H225 C237 0.950 1_554 S
C226 H218 0.950 . S
C226 C227 1.372 1_554 S
C226 C228 1.391 . S
C227 C226 1.372 1_556 S
C227 C231 1.413 . S
C228 H220 0.950 . S
C228 C226 1.391 . S
C228 C229 1.400 1_554 S
C229 C228 1.400 1_556 S
C229 C230 1.398 . S
C229 C235 1.491 . S
C230 H221 0.950 . S
C230 C229 1.398 . S
C230 C231 1.391 . S
C231 H219 0.950 . S
C231 C227 1.413 . S
C231 C230 1.391 . S
C232 H222 0.950 . S
C232 C233 1.386 . S
C232 C234 1.391 . S
C233 C232 1.386 . S
C233 C237 1.393 . S
C234 H223 0.950 . S
C234 C232 1.391 . S
C234 C235 1.400 . S
C235 C229 1.491 . S
C235 C234 1.400 . S
C235 C236 1.398 . S
C236 H224 0.950 1_556 S
C236 C235 1.398 . S
C236 C237 1.391 . S
C237 H225 0.950 1_556 S
C237 C233 1.393 . S
C237 C236 1.391 . S
H238 C246 0.950 . S
H239 C251 0.950 . S
H240 C248 0.950 . S
H241 C250 0.950 . S
H242 C252 0.950 . S
H243 C254 0.950 . S
H244 C256 0.950 . S
H245 C257 0.950 . S
C246 H238 0.950 . S
C246 C247 1.386 . S
C246 C248 1.391 . S
C247 C246 1.386 . S
C247 C251 1.393 . S
C248 H240 0.950 . S
C248 C246 1.391 . S
C248 C249 1.400 . S
C249 C248 1.400 . S
C249 C250 1.398 . S
C249 C255 1.491 . S
C250 H241 0.950 . S
C250 C249 1.398 . S
C250 C251 1.391 . S
C251 H239 0.950 . S
C251 C247 1.393 . S
C251 C250 1.391 . S
C252 H242 0.950 . S
C252 C253 1.386 . S
C252 C254 1.391 . S
C253 C252 1.386 . S
C253 C257 1.393 . S
C254 H243 0.950 . S
C254 C252 1.391 . S
C254 C255 1.400 . S
C255 C249 1.491 . S
C255 C254 1.400 . S
C255 C256 1.398 . S
C256 H244 0.950 . S
C256 C255 1.398 . S
C256 C257 1.391 . S
C257 H245 0.950 . S
C257 C253 1.393 . S
C257 C256 1.391 . S
H258 C266 0.950 . S
H259 C271 0.950 . S
H260 C268 0.950 . S
H261 C270 0.950 . S
H262 C272 0.950 1_554 S
H263 C274 0.950 . S
H264 C276 0.950 . S
H265 C277 0.950 . S
C266 H258 0.950 . S
C266 C267 1.386 1_556 S
C266 C268 1.391 . S
C267 C266 1.386 1_554 S
C267 C271 1.393 . S
C268 H260 0.950 . S
C268 C266 1.391 . S
C268 C269 1.400 . S
C269 C268 1.400 . S
C269 C270 1.398 1_556 S
C269 C275 1.491 . S
C270 H261 0.950 . S
C270 C269 1.398 1_554 S
C270 C271 1.391 . S
C271 H259 0.950 . S
C271 C267 1.393 . S
C271 C270 1.391 . S
C272 H262 0.950 1_556 S
C272 C273 1.386 . S
C272 C274 1.391 1_556 S
C273 C272 1.386 . S
C273 C277 1.393 . S
C274 H263 0.950 . S
C274 C272 1.391 1_554 S
C274 C275 1.400 1_554 S
C275 C269 1.491 . S
C275 C274 1.400 1_556 S
C275 C276 1.398 . S
C276 H264 0.950 . S
C276 C275 1.398 . S
C276 C277 1.391 . S
C277 H265 0.950 . S
C277 C273 1.393 . S
C277 C276 1.391 . S
H278 C286 0.950 . S
H279 C291 0.950 . S
H280 C288 0.950 . S
H281 C290 0.950 . S
H282 C292 0.950 . S
H283 C294 0.950 . S
H284 C296 0.950 . S
H285 C297 0.950 . S
C286 H278 0.950 . S
C286 C287 1.386 . S
C286 C288 1.391 . S
C287 C286 1.386 . S
C287 C291 1.393 . S
C288 H280 0.950 . S
C288 C286 1.391 . S
C288 C289 1.400 . S
C289 C288 1.400 . S
C289 C290 1.398 . S
C289 C295 1.491 . S
C290 H281 0.950 . S
C290 C289 1.398 . S
C290 C291 1.391 . S
C291 H279 0.950 . S
C291 C287 1.393 . S
C291 C290 1.391 . S
C292 H282 0.950 . S
C292 C293 1.386 . S
C292 C294 1.391 . S
C293 C292 1.386 . S
C293 C297 1.393 . S
C294 H283 0.950 . S
C294 C292 1.391 . S
C294 C295 1.400 . S
C295 C289 1.491 . S
C295 C294 1.400 . S
C295 C296 1.398 . S
C296 H284 0.950 . S
C296 C295 1.398 . S
C296 C297 1.391 . S
C297 H285 0.950 . S
C297 C293 1.393 . S
C297 C296 1.391 . S
H298 C306 0.950 . S
H299 C311 0.950 . S
H300 C308 0.950 . S
H301 C310 0.950 . S
H302 C312 0.950 . S
H303 C314 0.950 . S
H304 C316 0.950 . S
H305 C317 0.950 . S
C306 H298 0.950 . S
C306 C307 1.386 . S
C306 C308 1.391 . S
C307 C306 1.386 . S
C307 C311 1.393 . S
C308 H300 0.950 . S
C308 C306 1.391 . S
C308 C309 1.400 . S
C309 C308 1.400 . S
C309 C310 1.398 . S
C309 C315 1.491 . S
C310 H301 0.950 . S
C310 C309 1.398 . S
C310 C311 1.391 . S
C311 H299 0.950 . S
C311 C307 1.393 . S
C311 C310 1.391 . S
C312 H302 0.950 . S
C312 C313 1.386 . S
C312 C314 1.391 . S
C313 C312 1.386 . S
C313 C317 1.393 . S
C314 H303 0.950 . S
C314 C312 1.391 . S
C314 C315 1.400 . S
C315 C309 1.491 . S
C315 C314 1.400 . S
C315 C316 1.398 . S
C316 H304 0.950 . S
C316 C315 1.398 . S
C316 C317 1.391 . S
C317 H305 0.950 . S
C317 C313 1.393 . S
C317 C316 1.391 . S
H318 C326 0.950 . S
H319 C331 0.950 . S
H320 C328 0.950 . S
H321 C330 0.950 . S
H322 C332 0.950 . S
H323 C334 0.950 . S
H324 C336 0.950 . S
H325 C337 0.950 . S
C326 H318 0.950 . S
C326 C327 1.386 . S
C326 C328 1.391 . S
C327 C326 1.386 . S
C327 C331 1.393 . S
C328 H320 0.950 . S
C328 C326 1.391 . S
C328 C329 1.400 . S
C329 C328 1.400 . S
C329 C330 1.398 . S
C329 C335 1.491 . S
C330 H321 0.950 . S
C330 C329 1.398 . S
C330 C331 1.391 . S
C331 H319 0.950 . S
C331 C327 1.393 . S
C331 C330 1.391 . S
C332 H322 0.950 . S
C332 C333 1.386 . S
C332 C334 1.391 . S
C333 C332 1.386 . S
C333 C337 1.393 . S
C334 H323 0.950 . S
C334 C332 1.391 . S
C334 C335 1.400 . S
C335 C329 1.491 . S
C335 C334 1.400 . S
C335 C336 1.398 . S
C336 H324 0.950 . S
C336 C335 1.398 . S
C336 C337 1.391 . S
C337 H325 0.950 . S
C337 C333 1.393 . S
C337 C336 1.391 . S
H338 C346 0.950 . S
H339 C351 0.950 . S
H340 C348 0.950 . S
H341 C350 0.950 . S
H342 C352 0.950 . S
H343 C354 0.950 . S
H344 C356 0.950 . S
H345 C357 0.950 . S
C346 H338 0.950 . S
C346 C347 1.386 . S
C346 C348 1.391 . S
C347 C346 1.386 . S
C347 C351 1.393 . S
C348 H340 0.950 . S
C348 C346 1.391 . S
C348 C349 1.400 . S
C349 C348 1.400 . S
C349 C350 1.398 . S
C349 C355 1.491 . S
C350 H341 0.950 . S
C350 C349 1.398 . S
C350 C351 1.391 . S
C351 H339 0.950 . S
C351 C347 1.393 . S
C351 C350 1.391 . S
C352 H342 0.950 . S
C352 C353 1.386 . S
C352 C354 1.391 . S
C353 C352 1.386 . S
C353 C357 1.393 . S
C354 H343 0.950 . S
C354 C352 1.391 . S
C354 C355 1.400 . S
C355 C349 1.491 . S
C355 C354 1.400 . S
C355 C356 1.398 . S
C356 H344 0.950 . S
C356 C355 1.398 . S
C356 C357 1.391 . S
C357 H345 0.950 . S
C357 C353 1.393 . S
C357 C356 1.391 . S
H358 C366 0.950 . S
H359 C371 0.950 1_655 S
H360 C368 0.950 . S
H361 C370 0.950 1_655 S
H362 C372 0.950 . S
H363 C374 0.950 . S
H364 C376 0.950 . S
H365 C377 0.950 . S
C366 H358 0.950 . S
C366 C367 1.386 1_545 S
C366 C368 1.391 . S
C367 C366 1.386 1_565 S
C367 C371 1.393 . S
C368 H360 0.950 . S
C368 C366 1.391 . S
C368 C369 1.400 . S
C369 C368 1.400 . S
C369 C370 1.398 1_545 S
C369 C375 1.491 . S
C370 H361 0.950 1_455 S
C370 C369 1.398 1_565 S
C370 C371 1.391 . S
C371 H359 0.950 1_455 S
C371 C367 1.393 . S
C371 C370 1.391 . S
C372 H362 0.950 . S
C372 C373 1.386 1_565 S
C372 C374 1.391 . S
C373 C372 1.386 1_545 S
C373 C377 1.393 . S
C374 H363 0.950 . S
C374 C372 1.391 . S
C374 C375 1.400 1_565 S
C375 C369 1.491 . S
C375 C374 1.400 1_545 S
C375 C376 1.398 . S
C376 H364 0.950 . S
C376 C375 1.398 . S
C376 C377 1.391 . S
C377 H365 0.950 . S
C377 C373 1.393 . S
C377 C376 1.391 . S
H378 C386 0.950 . S
H379 C391 0.950 . S
H380 C388 0.950 . S
H381 C390 0.950 . S
H382 C392 0.950 1_565 S
H383 C394 0.950 . S
H384 C396 0.950 . S
H385 C397 0.950 . S
C386 H378 0.950 . S
C386 C387 1.386 1_645 S
C386 C388 1.391 . S
C387 C386 1.386 1_465 S
C387 C391 1.393 . S
C388 H380 0.950 . S
C388 C386 1.391 . S
C388 C389 1.400 1_655 S
C389 C388 1.400 1_455 S
C389 C390 1.398 1_545 S
C389 C395 1.491 . S
C390 H381 0.950 . S
C390 C389 1.398 1_565 S
C390 C391 1.391 . S
C391 H379 0.950 . S
C391 C387 1.393 . S
C391 C390 1.391 . S
C392 H382 0.950 1_545 S
C392 C393 1.386 . S
C392 C394 1.391 1_545 S
C393 C392 1.386 . S
C393 C397 1.393 1_455 S
C394 H383 0.950 . S
C394 C392 1.391 1_565 S
C394 C395 1.400 1_565 S
C395 C389 1.491 . S
C395 C394 1.400 1_545 S
C395 C396 1.398 1_455 S
C396 H384 0.950 . S
C396 C395 1.398 1_655 S
C396 C397 1.391 . S
C397 H385 0.950 . S
C397 C393 1.393 1_655 S
C397 C396 1.391 . S
H398 C406 0.950 . S
H399 C411 0.950 . S
H400 C408 0.950 . S
H401 C410 0.950 . S
H402 C412 0.950 . S
H403 C414 0.950 . S
H404 C416 0.950 . S
H405 C417 0.950 . S
C406 H398 0.950 . S
C406 C407 1.386 . S
C406 C408 1.391 . S
C407 C406 1.386 . S
C407 C411 1.393 . S
C408 H400 0.950 . S
C408 C406 1.391 . S
C408 C409 1.400 . S
C409 C408 1.400 . S
C409 C410 1.398 . S
C409 C415 1.491 . S
C410 H401 0.950 . S
C410 C409 1.398 . S
C410 C411 1.391 . S
C411 H399 0.950 . S
C411 C407 1.393 . S
C411 C410 1.391 . S
C412 H402 0.950 . S
C412 C413 1.386 . S
C412 C414 1.391 . S
C413 C412 1.386 . S
C413 C417 1.393 . S
C414 H403 0.950 . S
C414 C412 1.391 . S
C414 C415 1.400 . S
C415 C409 1.491 . S
C415 C414 1.400 . S
C415 C416 1.398 . S
C416 H404 0.950 . S
C416 C415 1.398 . S
C416 C417 1.391 . S
C417 H405 0.950 . S
C417 C413 1.393 . S
C417 C416 1.391 . S
H418 C426 0.950 . S
H419 C431 0.950 . S
H420 C428 0.950 . S
H421 C430 0.950 . S
H422 C432 0.950 . S
H423 C434 0.950 . S
H424 C436 0.950 . S
H425 C437 0.950 . S
C426 H418 0.950 . S
C426 C427 1.386 . S
C426 C428 1.391 . S
C427 C426 1.386 . S
C427 C431 1.393 . S
C428 H420 0.950 . S
C428 C426 1.391 . S
C428 C429 1.400 . S
C429 C428 1.400 . S
C429 C430 1.398 . S
C429 C435 1.491 . S
C430 H421 0.950 . S
C430 C429 1.398 . S
C430 C431 1.391 . S
C431 H419 0.950 . S
C431 C427 1.393 . S
C431 C430 1.391 . S
C432 H422 0.950 . S
C432 C433 1.386 . S
C432 C434 1.391 . S
C433 C432 1.386 . S
C433 C437 1.393 . S
C434 H423 0.950 . S
C434 C432 1.391 . S
C434 C435 1.400 . S
C435 C429 1.491 . S
C435 C434 1.400 . S
C435 C436 1.398 . S
C436 H424 0.950 . S
C436 C435 1.398 . S
C436 C437 1.391 . S
C437 H425 0.950 . S
C437 C433 1.393 . S
C437 C436 1.391 . S
C213 C175 1.219 . S
C207 C3 1.146 . S
C227 C4 1.486 1_556 S
C233 C136 1.609 . S
C247 C19 1.538 . S
C253 C180 1.638 . S
C267 C7 1.098 1_554 S
C273 C141 1.244 . S
C287 C37 1.138 . S
C293 C97 1.219 . S
C307 C28 1.503 . S
C313 C58 1.610 . S
C333 C102 1.633 . S
C327 C41 1.523 . S
C353 C63 1.243 . S
C347 C25 1.098 . S
C367 C20 1.308 . S
C373 C43 1.453 . S
C387 C16 1.342 . S
C393 C82 1.503 . S
C413 C121 1.460 . S
C407 C40 1.301 . S
C427 C24 1.348 . S
C433 C160 1.504 . S
