# Generated by pormake.
# Topology nom, (4,4)-cn, num edge types: 1
# Building blocks:
#     Node 0, Type 0, BuildingBlock: MUDLON_clean_linker_0, # of connection points: 4
#     Node 1, Type 0, BuildingBlock: MUDLON_clean_linker_0, # of connection points: 4
#     Node 2, Type 0, BuildingBlock: MUDLON_clean_linker_0, # of connection points: 4
#     Node 3, Type 0, BuildingBlock: MUDLON_clean_linker_0, # of connection points: 4
#     Node 4, Type 0, BuildingBlock: MUDLON_clean_linker_0, # of connection points: 4
#     Node 5, Type 0, BuildingBlock: MUDLON_clean_linker_0, # of connection points: 4
#     Node 6, Type 1, BuildingBlock: CEKHIL_clean_sbu_0, # of connection points: 4
#     Node 7, Type 1, BuildingBlock: CEKHIL_clean_sbu_0, # of connection points: 4
#     Node 8, Type 1, BuildingBlock: CEKHIL_clean_sbu_0, # of connection points: 4
#     Node 9, Type 1, BuildingBlock: CEKHIL_clean_sbu_0, # of connection points: 4
#     Node 10, Type 1, BuildingBlock: CEKHIL_clean_sbu_0, # of connection points: 4
#     Node 11, Type 1, BuildingBlock: CEKHIL_clean_sbu_0, # of connection points: 4
#     Edge 12, Type (0, 1), BuildingBlock: ZUJKAS_clean_linker_0, # of connection points: 2
#     Edge 13, Type (0, 1), BuildingBlock: ZUJKAS_clean_linker_0, # of connection points: 2
#     Edge 14, Type (0, 1), BuildingBlock: ZUJKAS_clean_linker_0, # of connection points: 2
#     Edge 15, Type (0, 1), BuildingBlock: ZUJKAS_clean_linker_0, # of connection points: 2
#     Edge 16, Type (0, 1), BuildingBlock: ZUJKAS_clean_linker_0, # of connection points: 2
#     Edge 17, Type (0, 1), BuildingBlock: ZUJKAS_clean_linker_0, # of connection points: 2
#     Edge 18, Type (0, 1), BuildingBlock: ZUJKAS_clean_linker_0, # of connection points: 2
#     Edge 19, Type (0, 1), BuildingBlock: ZUJKAS_clean_linker_0, # of connection points: 2
#     Edge 20, Type (0, 1), BuildingBlock: ZUJKAS_clean_linker_0, # of connection points: 2
#     Edge 21, Type (0, 1), BuildingBlock: ZUJKAS_clean_linker_0, # of connection points: 2
#     Edge 22, Type (0, 1), BuildingBlock: ZUJKAS_clean_linker_0, # of connection points: 2
#     Edge 23, Type (0, 1), BuildingBlock: ZUJKAS_clean_linker_0, # of connection points: 2
#     Edge 24, Type (0, 1), BuildingBlock: ZUJKAS_clean_linker_0, # of connection points: 2
#     Edge 25, Type (0, 1), BuildingBlock: ZUJKAS_clean_linker_0, # of connection points: 2
#     Edge 26, Type (0, 1), BuildingBlock: ZUJKAS_clean_linker_0, # of connection points: 2
#     Edge 27, Type (0, 1), BuildingBlock: ZUJKAS_clean_linker_0, # of connection points: 2
#     Edge 28, Type (0, 1), BuildingBlock: ZUJKAS_clean_linker_0, # of connection points: 2
#     Edge 29, Type (0, 1), BuildingBlock: ZUJKAS_clean_linker_0, # of connection points: 2
#     Edge 30, Type (0, 1), BuildingBlock: ZUJKAS_clean_linker_0, # of connection points: 2
#     Edge 31, Type (0, 1), BuildingBlock: ZUJKAS_clean_linker_0, # of connection points: 2
#     Edge 32, Type (0, 1), BuildingBlock: ZUJKAS_clean_linker_0, # of connection points: 2
#     Edge 33, Type (0, 1), BuildingBlock: ZUJKAS_clean_linker_0, # of connection points: 2
#     Edge 34, Type (0, 1), BuildingBlock: ZUJKAS_clean_linker_0, # of connection points: 2
#     Edge 35, Type (0, 1), BuildingBlock: ZUJKAS_clean_linker_0, # of connection points: 2
# Relax obj value: 0.007
# Max RMSD: 0.104
# Mean RMSD: 0.066
data_MOF--net-nom--node1-CEKHIL_clean_sbu_0--node2-MUDLON_clean_linker_0--edge1-ZUJKAS_clean_linker_0
_symmetry_space_group_name_H-M    P1
_symmetry_Int_Tables_number       1
_symmetry_cell_setting            triclinic
loop_
_symmetry_equiv_pos_as_xyz
'x, y, z'
_cell_length_a     74.38142
_cell_length_b     74.695386
_cell_length_c     74.314858
_cell_angle_alpha  90.351786
_cell_angle_beta   89.818137
_cell_angle_gamma 121.40744
loop_
_atom_site_label
_atom_site_type_symbol
_atom_site_fract_x
_atom_site_fract_y
_atom_site_fract_z
_atom_type_partial_charge
H0 H 0.10616 0.55466 0.33235 0.0
N1 N 0.08475 0.57398 0.34194 0.0
H2 H 0.13659 0.56877 0.31242 0.0
H3 H 0.09975 0.60762 0.32121 0.0
H4 H 0.13061 0.62221 0.3015 0.0
H5 H 0.10274 0.6059 0.36475 0.0
H6 H 0.1201 0.60787 0.39313 0.0
H7 H 0.08322 0.54082 0.359 0.0
H8 H 0.10035 0.54246 0.38765 0.0
H9 H 0.07003 0.53677 0.32353 0.0
H10 H 0.05105 0.5758 0.35001 0.0
H11 H 0.034 0.51294 0.31376 0.0
H12 H 0.01453 0.55126 0.34135 0.0
H13 H 0.91474 0.43886 0.28442 0.0
H14 H 0.90111 0.43349 0.25372 0.0
H15 H 0.93318 0.50062 0.24662 0.0
H16 H 0.94644 0.50582 0.2773 0.0
H17 H 0.91912 0.49974 0.30012 0.0
H18 H 0.88828 0.49469 0.31608 0.0
H19 H 0.88542 0.44377 0.34598 0.0
H20 H 0.91594 0.44842 0.32921 0.0
H21 H 0.96385 0.46434 0.31106 0.0
H22 H 0.99984 0.48732 0.32197 0.0
H23 H 0.9923 0.54069 0.31654 0.0
N24 N 0.93597 0.47474 0.30233 0.0
H25 H 0.9561 0.51743 0.3069 0.0
C26 C 0.10067 0.58016 0.32827 0.0
C27 C 0.11106 0.56915 0.32537 0.0
C28 C 0.1286 0.57734 0.31406 0.0
C29 C 0.13617 0.59673 0.30551 0.0
C30 C 0.12508 0.60714 0.30773 0.0
C31 C 0.1075 0.5989 0.31901 0.0
C32 C 0.09172 0.5733 0.35984 0.0
C33 C 0.10179 0.5919 0.36991 0.0
C34 C 0.11166 0.59294 0.38614 0.0
C35 C 0.11166 0.57531 0.39268 0.0
C36 C 0.10084 0.55637 0.38288 0.0
C37 C 0.09091 0.55536 0.36659 0.0
C38 C 0.06335 0.5584 0.33725 0.0
C39 C 0.05811 0.54017 0.32742 0.0
C40 C 0.03731 0.52635 0.32196 0.0
C41 C 0.02122 0.5302 0.32654 0.0
C42 C 0.02648 0.54801 0.33708 0.0
C43 C 0.04731 0.56197 0.34224 0.0
C44 C 0.9316 0.47263 0.28326 0.0
C45 C 0.91922 0.45239 0.27607 0.0
C46 C 0.91147 0.44939 0.25852 0.0
C47 C 0.91594 0.46665 0.24775 0.0
C48 C 0.92921 0.487 0.25466 0.0
C49 C 0.93698 0.48998 0.27224 0.0
C50 C 0.91972 0.47422 0.31334 0.0
C51 C 0.91207 0.48764 0.31022 0.0
C52 C 0.89442 0.4848 0.3195 0.0
C53 C 0.88416 0.46867 0.33223 0.0
C54 C 0.89261 0.45606 0.336 0.0
C55 C 0.91016 0.45879 0.32659 0.0
C56 C 0.95736 0.4891 0.30796 0.0
C57 C 0.97008 0.48102 0.31225 0.0
C58 C 0.99069 0.49424 0.31837 0.0
C59 C 0.99915 0.51598 0.32014 0.0
C60 C 0.98632 0.52404 0.31569 0.0
C61 C 0.9656 0.51074 0.30986 0.0
H62 H 0.46361 0.91533 0.4599 0.0
N63 N 0.44526 0.93822 0.45282 0.0
H64 H 0.44884 0.88404 0.47837 0.0
H65 H 0.41279 0.92413 0.47524 0.0
H66 H 0.39824 0.89313 0.4945 0.0
H67 H 0.41317 0.92028 0.43015 0.0
H68 H 0.41157 0.90401 0.40115 0.0
H69 H 0.47891 0.94103 0.43495 0.0
H70 H 0.47763 0.92501 0.40571 0.0
H71 H 0.48205 0.95162 0.47155 0.0
H72 H 0.44458 0.9725 0.44542 0.0
H73 H 0.50655 0.98719 0.48191 0.0
H74 H 0.46982 0.00854 0.45465 0.0
H75 H 0.58233 0.10226 0.51467 0.0
H76 H 0.58726 0.11528 0.54558 0.0
H77 H 0.52017 0.08896 0.55044 0.0
H78 H 0.51544 0.07622 0.51954 0.0
H79 H 0.52304 0.10257 0.49649 0.0
H80 H 0.53119 0.13503 0.482 0.0
H81 H 0.5847 0.13813 0.45575 0.0
H82 H 0.5768 0.10585 0.471 0.0
H83 H 0.55672 0.05638 0.48595 0.0
H84 H 0.53307 0.02099 0.47424 0.0
H85 H 0.48065 0.03046 0.47967 0.0
N86 N 0.54722 0.08469 0.49552 0.0
H87 H 0.50463 0.0661 0.49008 0.0
C88 C 0.43908 0.92194 0.46601 0.0
C89 C 0.4495 0.9108 0.46756 0.0
C90 C 0.44109 0.89292 0.47829 0.0
C91 C 0.42218 0.88587 0.48777 0.0
C92 C 0.41257 0.89785 0.48708 0.0
C93 C 0.42094 0.91566 0.47624 0.0
C94 C 0.44606 0.93185 0.43465 0.0
C95 C 0.42738 0.92174 0.42467 0.0
C96 C 0.42655 0.91249 0.40809 0.0
C97 C 0.44448 0.91316 0.40109 0.0
C98 C 0.46349 0.92402 0.41081 0.0
C99 C 0.4643 0.93333 0.42745 0.0
C100 C 0.46115 0.95931 0.45797 0.0
C101 C 0.47915 0.96387 0.46788 0.0
C102 C 0.49335 0.9844 0.47366 0.0
C103 C 0.49015 0.00088 0.46932 0.0
C104 C 0.47257 0.99628 0.45874 0.0
C105 C 0.45822 0.97572 0.45326 0.0
C106 C 0.54864 0.08832 0.51469 0.0
C107 C 0.56865 0.09884 0.52259 0.0
C108 C 0.5714 0.10623 0.54027 0.0
C109 C 0.5541 0.10328 0.55045 0.0
C110 C 0.53384 0.09172 0.54286 0.0
C111 C 0.53111 0.08427 0.52516 0.0
C112 C 0.54947 0.10183 0.48491 0.0
C113 C 0.53633 0.10998 0.48743 0.0
C114 C 0.54099 0.1286 0.47902 0.0
C115 C 0.55876 0.13938 0.46783 0.0
C116 C 0.57116 0.1305 0.46458 0.0
C117 C 0.56656 0.11196 0.4731 0.0
C118 C 0.5325 0.0638 0.48911 0.0
C119 C 0.5401 0.05072 0.48455 0.0
C120 C 0.5265 0.03044 0.47798 0.0
C121 C 0.50482 0.02267 0.47604 0.0
C122 C 0.49725 0.0359 0.48068 0.0
C123 C 0.51095 0.05631 0.48694 0.0
H124 H 0.48644 0.58386 0.65569 0.0
N125 N 0.47832 0.54813 0.67036 0.0
H126 H 0.46291 0.58961 0.63688 0.0
H127 H 0.4414 0.5173 0.65489 0.0
H128 H 0.41771 0.52297 0.63646 0.0
H129 H 0.44046 0.52069 0.68655 0.0
H130 H 0.42904 0.5246 0.71618 0.0
H131 H 0.50113 0.57669 0.6952 0.0
H132 H 0.48951 0.58119 0.72481 0.0
H133 H 0.51566 0.55927 0.65668 0.0
H134 H 0.45772 0.50534 0.67497 0.0
H135 H 0.5293 0.5366 0.64891 0.0
H136 H 0.47085 0.48267 0.66686 0.0
H137 H 0.56265 0.47466 0.62363 0.0
H138 H 0.58102 0.47646 0.59566 0.0
H139 H 0.52176 0.42948 0.57198 0.0
H140 H 0.50364 0.42798 0.59992 0.0
H141 H 0.49942 0.40603 0.63408 0.0
H142 H 0.51013 0.38461 0.65015 0.0
H143 H 0.56547 0.44092 0.66975 0.0
H144 H 0.55425 0.46222 0.65394 0.0
H145 H 0.53147 0.48534 0.61537 0.0
H146 H 0.52268 0.51018 0.6266 0.0
H147 H 0.49618 0.47313 0.67455 0.0
N148 N 0.52082 0.44738 0.63073 0.0
H149 H 0.50448 0.44769 0.66315 0.0
C150 C 0.46571 0.55027 0.65685 0.0
C151 C 0.4717 0.57048 0.65112 0.0
C152 C 0.45826 0.57371 0.64039 0.0
C153 C 0.43841 0.55673 0.63536 0.0
C154 C 0.43284 0.53635 0.64032 0.0
C155 C 0.44642 0.5331 0.65086 0.0
C156 C 0.47185 0.54841 0.68862 0.0
C157 C 0.45153 0.53365 0.69489 0.0
C158 C 0.44487 0.53604 0.71185 0.0
C159 C 0.45827 0.55329 0.72285 0.0
C160 C 0.47885 0.56757 0.71682 0.0
C161 C 0.48552 0.56509 0.69988 0.0
C162 C 0.48571 0.53414 0.66633 0.0
C163 C 0.5059 0.54255 0.659 0.0
C164 C 0.51361 0.52957 0.65453 0.0
C165 C 0.50118 0.50779 0.65727 0.0
C166 C 0.481 0.4994 0.66483 0.0
C167 C 0.47334 0.51241 0.66934 0.0
C168 C 0.53175 0.45104 0.61381 0.0
C169 C 0.55364 0.46494 0.61234 0.0
C170 C 0.5641 0.46593 0.59636 0.0
C171 C 0.55288 0.45305 0.58161 0.0
C172 C 0.53087 0.43984 0.58295 0.0
C173 C 0.52047 0.43887 0.59891 0.0
C174 C 0.52603 0.43561 0.64273 0.0
C175 C 0.51361 0.41369 0.64217 0.0
C176 C 0.51988 0.40153 0.65119 0.0
C177 C 0.53883 0.41107 0.66098 0.0
C178 C 0.55077 0.4331 0.66235 0.0
C179 C 0.54445 0.4453 0.65326 0.0
C180 C 0.51945 0.46454 0.63859 0.0
C181 C 0.52441 0.48258 0.62858 0.0
C182 C 0.51929 0.49699 0.63502 0.0
C183 C 0.50872 0.4937 0.65148 0.0
C184 C 0.50417 0.47607 0.66172 0.0
C185 C 0.50926 0.46162 0.65529 0.0
H186 H 0.12325 0.58198 0.80701 0.0
N187 N 0.08989 0.54659 0.79562 0.0
H188 H 0.1527 0.58606 0.8248 0.0
H189 H 0.09158 0.51483 0.81251 0.0
H190 H 0.12053 0.51874 0.83085 0.0
H191 H 0.10025 0.52021 0.77905 0.0
H192 H 0.11594 0.52496 0.74931 0.0
H193 H 0.09378 0.57364 0.77065 0.0
H194 H 0.10932 0.57838 0.74062 0.0
H195 H 0.06595 0.55683 0.81408 0.0
H196 H 0.06461 0.50452 0.78782 0.0
H197 H 0.02925 0.53379 0.82349 0.0
H198 H 0.0283 0.48146 0.79736 0.0
H199 H 0.93498 0.4756 0.84901 0.0
H200 H 0.91795 0.47539 0.87732 0.0
H201 H 0.9185 0.42035 0.894 0.0
H202 H 0.93552 0.42075 0.8657 0.0
H203 H 0.9185 0.40505 0.82934 0.0
H204 H 0.88578 0.38839 0.81192 0.0
H205 H 0.89475 0.44933 0.80122 0.0
H206 H 0.92762 0.46586 0.81851 0.0
H207 H 0.97481 0.47974 0.85577 0.0
H208 H 0.00953 0.50476 0.84444 0.0
H209 H 0.99281 0.47398 0.79258 0.0
N210 N 0.94297 0.44539 0.83761 0.0
H211 H 0.95807 0.44853 0.80389 0.0
C212 C 0.1052 0.54822 0.80845 0.0
C213 C 0.12243 0.56816 0.81249 0.0
C214 C 0.1392 0.57043 0.82273 0.0
C215 C 0.13905 0.55271 0.82924 0.0
C216 C 0.12131 0.5327 0.82583 0.0
C217 C 0.10458 0.53046 0.81547 0.0
C218 C 0.09583 0.54667 0.77711 0.0
C219 C 0.10166 0.53264 0.77064 0.0
C220 C 0.11065 0.53536 0.75357 0.0
C221 C 0.11407 0.55217 0.74268 0.0
C222 C 0.10718 0.56547 0.74881 0.0
C223 C 0.09815 0.5627 0.76586 0.0
C224 C 0.06805 0.53254 0.80021 0.0
C225 C 0.0577 0.5404 0.8103 0.0
C226 C 0.03681 0.52721 0.81573 0.0
C227 C 0.02583 0.50578 0.81116 0.0
C228 C 0.03618 0.49795 0.80086 0.0
C229 C 0.05707 0.51116 0.79545 0.0
C230 C 0.93642 0.44805 0.85524 0.0
C231 C 0.93166 0.46367 0.85886 0.0
C232 C 0.92189 0.4635 0.87503 0.0
C233 C 0.91674 0.44777 0.88787 0.0
C234 C 0.92247 0.43284 0.88453 0.0
C235 C 0.93217 0.433 0.86837 0.0
C236 C 0.92535 0.43656 0.82534 0.0
C237 C 0.91356 0.41478 0.82293 0.0
C238 C 0.89495 0.40534 0.81296 0.0
C239 C 0.88767 0.41757 0.80529 0.0
C240 C 0.89987 0.43952 0.80717 0.0
C241 C 0.91863 0.44897 0.81703 0.0
C242 C 0.96285 0.46241 0.83055 0.0
C243 C 0.97805 0.47851 0.84177 0.0
C244 C 0.99817 0.49295 0.83529 0.0
C245 C 0.00393 0.49148 0.81757 0.0
C246 C 0.98892 0.47554 0.80633 0.0
C247 C 0.96882 0.46111 0.81278 0.0
H248 H 0.53559 0.11215 0.97277 0.0
N249 N 0.5424 0.08232 0.96191 0.0
H250 H 0.55946 0.14386 0.9898 0.0
H251 H 0.57833 0.09002 0.97957 0.0
H252 H 0.60183 0.12117 0.99711 0.0
H253 H 0.5812 0.09976 0.94586 0.0
H254 H 0.59076 0.11597 0.91639 0.0
H255 H 0.51637 0.0805 0.93653 0.0
H256 H 0.52573 0.09628 0.90653 0.0
H257 H 0.50825 0.05323 0.97892 0.0
H258 H 0.56584 0.06429 0.95461 0.0
H259 H 0.49935 0.01791 0.98744 0.0
H260 H 0.55755 0.02956 0.96357 0.0
H261 H 0.47645 0.92662 0.01605 0.0
H262 H 0.46502 0.91015 0.04539 0.0
H263 H 0.52892 0.92736 0.05754 0.0
H264 H 0.54 0.94303 0.02763 0.0
H265 H 0.53145 0.91886 0.99195 0.0
H266 H 0.51341 0.88496 0.97642 0.0
H267 H 0.45912 0.89076 0.96856 0.0
H268 H 0.47742 0.92479 0.98408 0.0
H269 H 0.50468 0.96823 0.01888 0.0
H270 H 0.51032 0.0012 0.00819 0.0
H271 H 0.53492 0.99302 0.95813 0.0
N272 N 0.51556 0.94219 0.00119 0.0
H273 H 0.52996 0.96008 0.96909 0.0
C274 C 0.55499 0.09863 0.97485 0.0
C275 C 0.54981 0.11384 0.97841 0.0
C276 C 0.56348 0.13194 0.98819 0.0
C277 C 0.5827 0.13518 0.99472 0.0
C278 C 0.58735 0.11936 0.99201 0.0
C279 C 0.57372 0.10132 0.9821 0.0
C280 C 0.54796 0.08889 0.94346 0.0
C281 C 0.56887 0.0985 0.93729 0.0
C282 C 0.57434 0.10777 0.92032 0.0
C283 C 0.55905 0.1076 0.90909 0.0
C284 C 0.53796 0.09702 0.91495 0.0
C285 C 0.53253 0.0878 0.93197 0.0
C286 C 0.53763 0.06146 0.96616 0.0
C287 C 0.51896 0.04802 0.97544 0.0
C288 C 0.51399 0.02791 0.98038 0.0
C289 C 0.52774 0.02084 0.97624 0.0
C290 C 0.5464 0.03429 0.96674 0.0
C291 C 0.55126 0.05433 0.96169 0.0
C292 C 0.50913 0.93593 0.01959 0.0
C293 C 0.48804 0.92702 0.02506 0.0
C294 C 0.48157 0.91776 0.04198 0.0
C295 C 0.49602 0.91725 0.05382 0.0
C296 C 0.5173 0.92715 0.04864 0.0
C297 C 0.52374 0.93632 0.03167 0.0
C298 C 0.5058 0.92425 0.98926 0.0
C299 C 0.51587 0.91302 0.98647 0.0
C300 C 0.50552 0.89368 0.97759 0.0
C301 C 0.48477 0.88512 0.97138 0.0
C302 C 0.475 0.89684 0.97341 0.0
C303 C 0.48546 0.91631 0.98221 0.0
C304 C 0.51635 0.96091 0.99464 0.0
C305 C 0.51089 0.97299 0.00544 0.0
C306 C 0.51413 0.99211 0.99928 0.0
C307 C 0.52304 0.99983 0.98226 0.0
C308 C 0.52824 0.98771 0.9714 0.0
C309 C 0.52513 0.96867 0.97758 0.0
H310 H 0.53928 0.43169 0.15011 0.0
N311 N 0.54859 0.46857 0.16327 0.0
H312 H 0.56243 0.42369 0.13303 0.0
H313 H 0.5862 0.49764 0.14758 0.0
H314 H 0.60965 0.48981 0.13111 0.0
H315 H 0.58631 0.49512 0.17997 0.0
H316 H 0.59675 0.49064 0.20978 0.0
H317 H 0.52425 0.44093 0.18798 0.0
H318 H 0.53459 0.4364 0.21811 0.0
H319 H 0.51104 0.45833 0.15083 0.0
H320 H 0.5712 0.51161 0.16612 0.0
H321 H 0.49812 0.48174 0.14407 0.0
H322 H 0.55889 0.53506 0.15873 0.0
H323 H 0.46433 0.54433 0.12038 0.0
H324 H 0.44792 0.54648 0.09265 0.0
H325 H 0.50879 0.59548 0.07352 0.0
H326 H 0.52495 0.59357 0.10153 0.0
H327 H 0.52537 0.6113 0.13857 0.0
H328 H 0.51213 0.62942 0.15671 0.0
H329 H 0.45652 0.56985 0.16955 0.0
H330 H 0.47017 0.55181 0.15154 0.0
H331 H 0.49207 0.53217 0.11428 0.0
H332 H 0.50206 0.50741 0.12287 0.0
H333 H 0.53589 0.54617 0.16871 0.0
N334 N 0.50546 0.57084 0.13036 0.0
H335 H 0.52657 0.57158 0.15971 0.0
C336 C 0.56092 0.46516 0.15024 0.0
C337 C 0.5544 0.44446 0.14554 0.0
C338 C 0.56776 0.43993 0.13598 0.0
C339 C 0.58807 0.45609 0.13099 0.0
C340 C 0.59409 0.47699 0.13468 0.0
C341 C 0.58065 0.4815 0.14421 0.0
C342 C 0.55436 0.46831 0.18172 0.0
C343 C 0.5747 0.48256 0.18828 0.0
C344 C 0.58071 0.47999 0.2054 0.0
C345 C 0.56655 0.46308 0.21625 0.0
C346 C 0.54594 0.44942 0.20996 0.0
C347 C 0.53994 0.45206 0.19286 0.0
C348 C 0.54207 0.4831 0.15883 0.0
C349 C 0.52151 0.47509 0.15253 0.0
C350 C 0.51421 0.48851 0.14863 0.0
C351 C 0.52743 0.51034 0.15087 0.0
C352 C 0.54812 0.51834 0.15712 0.0
C353 C 0.55533 0.50488 0.16115 0.0
C354 C 0.4959 0.56898 0.11304 0.0
C355 C 0.47415 0.55537 0.11014 0.0
C356 C 0.46482 0.5565 0.09422 0.0
C357 C 0.47704 0.57134 0.081 0.0
C358 C 0.49892 0.58413 0.08358 0.0
C359 C 0.50821 0.58295 0.09946 0.0
C360 C 0.49872 0.58034 0.14359 0.0
C361 C 0.51059 0.60216 0.14568 0.0
C362 C 0.503 0.61245 0.15606 0.0
C363 C 0.48321 0.60106 0.16446 0.0
C364 C 0.47171 0.57903 0.16306 0.0
C365 C 0.47948 0.56872 0.15281 0.0
C366 C 0.50814 0.55395 0.13653 0.0
C367 C 0.50125 0.53542 0.12641 0.0
C368 C 0.50702 0.52105 0.13135 0.0
C369 C 0.51989 0.52478 0.14644 0.0
C370 C 0.52625 0.54291 0.15683 0.0
C371 C 0.52062 0.55734 0.15183 0.0
Co372 Co 0.64118 0.38141 0.3995 0.0
O373 O 0.66042 0.38115 0.38223 0.0
O374 O 0.66813 0.40721 0.40117 0.0
C375 C 0.62898 0.34875 0.40994 0.0
O376 O 0.62647 0.38739 0.41971 0.0
Co377 Co 0.59297 0.35066 0.39768 0.0
O378 O 0.59266 0.36146 0.42203 0.0
C379 C 0.61345 0.38659 0.37269 0.0
C380 C 0.67432 0.39951 0.38856 0.0
C381 C 0.60859 0.37836 0.42785 0.0
O382 O 0.63109 0.39392 0.38103 0.0
O383 O 0.59695 0.36895 0.37653 0.0
O384 O 0.64657 0.36449 0.41596 0.0
O385 O 0.62014 0.35294 0.39706 0.0
Co386 Co 0.28606 0.64297 0.56634 0.0
O387 O 0.30532 0.64275 0.58343 0.0
O388 O 0.28626 0.61728 0.56388 0.0
C389 C 0.30821 0.67599 0.55664 0.0
O390 O 0.26519 0.63781 0.54627 0.0
Co391 Co 0.27056 0.67422 0.56989 0.0
O392 O 0.25827 0.66371 0.54573 0.0
C393 C 0.25317 0.63732 0.59383 0.0
C394 C 0.30032 0.6247 0.5766 0.0
C395 C 0.25646 0.64708 0.53909 0.0
O396 O 0.2626 0.62986 0.5847 0.0
O397 O 0.25579 0.6554 0.59087 0.0
O398 O 0.30944 0.66048 0.55014 0.0
O399 O 0.29489 0.67132 0.56957 0.0
Co400 Co 0.6429 0.27326 0.72898 0.0
O401 O 0.64259 0.29225 0.71172 0.0
O402 O 0.61688 0.27306 0.73094 0.0
C403 C 0.67586 0.29572 0.73902 0.0
O404 O 0.63768 0.2528 0.74926 0.0
Co405 Co 0.6747 0.25824 0.72675 0.0
O406 O 0.66413 0.24664 0.75101 0.0
C407 C 0.63781 0.23991 0.7023 0.0
C408 C 0.62435 0.28714 0.71834 0.0
C409 C 0.64714 0.24463 0.75708 0.0
O410 O 0.63021 0.2497 0.71065 0.0
O411 O 0.65585 0.24252 0.70593 0.0
O412 O 0.6601 0.29679 0.74521 0.0
O413 O 0.67147 0.28229 0.72623 0.0
Co414 Co 0.37901 0.6384 0.90334 0.0
O415 O 0.36015 0.63885 0.88596 0.0
O416 O 0.35217 0.61229 0.90409 0.0
C417 C 0.39038 0.67075 0.91455 0.0
O418 O 0.39359 0.63231 0.9235 0.0
Co419 Co 0.42722 0.67023 0.90236 0.0
O420 O 0.42729 0.65855 0.92617 0.0
C421 C 0.40798 0.63454 0.87672 0.0
C422 C 0.3462 0.62027 0.89166 0.0
C423 C 0.41149 0.64138 0.93163 0.0
O424 O 0.39001 0.62671 0.88465 0.0
O425 O 0.42412 0.65229 0.88104 0.0
O426 O 0.37277 0.65473 0.92012 0.0
O427 O 0.39968 0.66697 0.9017 0.0
Co428 Co 0.7495 0.37775 0.06782 0.0
O429 O 0.72989 0.37701 0.0852 0.0
O430 O 0.74876 0.40322 0.06647 0.0
C431 C 0.7277 0.34495 0.0572 0.0
O432 O 0.77043 0.38391 0.04749 0.0
Co433 Co 0.76591 0.34724 0.0695 0.0
O434 O 0.77683 0.35775 0.04505 0.0
C435 C 0.78323 0.38361 0.0944 0.0
C436 C 0.73443 0.39509 0.07896 0.0
C437 C 0.77864 0.37464 0.03927 0.0
O438 O 0.77292 0.39067 0.08624 0.0
O439 O 0.78134 0.36598 0.0905 0.0
O440 O 0.72628 0.36053 0.05139 0.0
O441 O 0.74109 0.34937 0.07002 0.0
Co442 Co 0.37884 0.74158 0.22518 0.0
O443 O 0.37869 0.72139 0.20886 0.0
O444 O 0.40442 0.74109 0.22797 0.0
C445 C 0.34559 0.7203 0.23507 0.0
O446 O 0.38433 0.76324 0.24464 0.0
Co447 Co 0.34827 0.75773 0.22066 0.0
O448 O 0.35862 0.77056 0.24471 0.0
C449 C 0.38572 0.77415 0.19715 0.0
C450 C 0.39673 0.72637 0.21578 0.0
C451 C 0.37517 0.77232 0.25152 0.0
O452 O 0.39242 0.76419 0.20631 0.0
O453 O 0.36786 0.77235 0.19999 0.0
O454 O 0.36102 0.71915 0.24189 0.0
O455 O 0.35046 0.73306 0.22177 0.0
H456 H 0.17233 0.59821 0.31511 0.0
H457 H 0.20682 0.61787 0.30071 0.0
H458 H 0.18101 0.63857 0.25963 0.0
H459 H 0.14626 0.61871 0.27386 0.0
H460 H 0.22049 0.61664 0.26494 0.0
H461 H 0.22934 0.69344 0.28217 0.0
H462 H 0.20953 0.66917 0.29237 0.0
H463 H 0.20595 0.6754 0.26987 0.0
C464 C 0.17384 0.60658 0.30281 0.0
C465 C 0.15654 0.60697 0.29567 0.0
C466 C 0.1936 0.6179 0.29466 0.0
C467 C 0.19649 0.62991 0.2793 0.0
C468 C 0.17914 0.6297 0.27169 0.0
H469 H 0.31072 0.71921 0.22226 0.0
H470 H 0.27425 0.69664 0.23221 0.0
C471 C 0.15933 0.61836 0.27984 0.0
C472 C 0.21789 0.64325 0.27175 0.0
H473 H 0.25691 0.69432 0.2657 0.0
C474 C 0.22846 0.63362 0.26504 0.0
C475 C 0.22819 0.66539 0.27195 0.0
C476 C 0.2178 0.67655 0.27959 0.0
C477 C 0.24912 0.64558 0.25843 0.0
C478 C 0.25955 0.66773 0.25891 0.0
C479 C 0.24886 0.67733 0.26539 0.0
C480 C 0.28167 0.68128 0.25293 0.0
C481 C 0.25948 0.63439 0.25079 0.0
C482 C 0.29796 0.68038 0.26153 0.0
C483 C 0.31881 0.69325 0.25588 0.0
C484 C 0.32372 0.70733 0.24161 0.0
C485 C 0.30743 0.70849 0.23327 0.0
C486 C 0.28659 0.6956 0.23891 0.0
H487 H 0.24768 0.61798 0.24686 0.0
H488 H 0.26924 0.64272 0.23885 0.0
H489 H 0.26992 0.63389 0.26115 0.0
H490 H 0.29455 0.66979 0.27267 0.0
H491 H 0.33105 0.69209 0.26262 0.0
H492 H 0.53327 0.15296 0.45496 0.0
H493 H 0.54389 0.18833 0.44496 0.0
H494 H 0.60901 0.20867 0.45408 0.0
H495 H 0.59863 0.17368 0.46463 0.0
H496 H 0.57042 0.22792 0.4667 0.0
H497 H 0.60458 0.22571 0.40058 0.0
H498 H 0.58557 0.2022 0.41231 0.0
H499 H 0.61245 0.21678 0.41974 0.0
C500 C 0.54985 0.16496 0.45491 0.0
C501 C 0.56509 0.1604 0.46056 0.0
C502 C 0.55587 0.18511 0.44913 0.0
C503 C 0.57721 0.20098 0.44869 0.0
C504 C 0.59247 0.19651 0.45412 0.0
H505 H 0.64243 0.33597 0.43859 0.0
H506 H 0.62861 0.29986 0.44865 0.0
C507 C 0.58649 0.17644 0.46003 0.0
C508 C 0.58359 0.22242 0.44298 0.0
H509 H 0.60962 0.25839 0.40989 0.0
C510 C 0.57891 0.2346 0.45426 0.0
C511 C 0.59458 0.23095 0.42672 0.0
C512 C 0.59952 0.21826 0.41401 0.0
C513 C 0.58535 0.25534 0.4498 0.0
C514 C 0.59667 0.26398 0.4337 0.0
C515 C 0.601 0.25168 0.42227 0.0
C516 C 0.60417 0.28581 0.42841 0.0
C517 C 0.57997 0.26792 0.46224 0.0
C518 C 0.59491 0.28974 0.41377 0.0
C519 C 0.60265 0.31029 0.40808 0.0
C520 C 0.61998 0.32722 0.4168 0.0
C521 C 0.62907 0.32324 0.43162 0.0
C522 C 0.62118 0.30267 0.4374 0.0
H523 H 0.56848 0.25801 0.47276 0.0
H524 H 0.59454 0.28028 0.46897 0.0
H525 H 0.57336 0.27583 0.45447 0.0
H526 H 0.5818 0.27688 0.40666 0.0
H527 H 0.59533 0.31285 0.39661 0.0
H528 H 0.44433 0.58128 0.60605 0.0
H529 H 0.41945 0.59011 0.59352 0.0
H530 H 0.3731 0.55049 0.63291 0.0
H531 H 0.3976 0.5411 0.645 0.0
H532 H 0.35478 0.54668 0.60138 0.0
H533 H 0.40771 0.63118 0.61727 0.0
H534 H 0.41931 0.62118 0.60218 0.0
H535 H 0.41299 0.6115 0.62487 0.0
C536 C 0.42875 0.57434 0.61188 0.0
C537 C 0.4229 0.56058 0.62652 0.0
C538 C 0.4146 0.57948 0.60481 0.0
C539 C 0.39457 0.57137 0.61255 0.0
C540 C 0.38847 0.557 0.62673 0.0
H541 H 0.32085 0.62982 0.60816 0.0
H542 H 0.34216 0.61502 0.61655 0.0
C543 C 0.40247 0.55161 0.63361 0.0
C544 C 0.38018 0.57833 0.60644 0.0
H545 H 0.37657 0.62172 0.60131 0.0
C546 C 0.35952 0.56309 0.60136 0.0
C547 C 0.38627 0.59973 0.6067 0.0
C548 C 0.40769 0.61682 0.61321 0.0
C549 C 0.34476 0.56863 0.59665 0.0
C550 C 0.35103 0.59007 0.59647 0.0
C551 C 0.37175 0.60529 0.60137 0.0
C552 C 0.33634 0.59724 0.59186 0.0
C553 C 0.32245 0.55137 0.59253 0.0
C554 C 0.32561 0.59192 0.57531 0.0
C555 C 0.313 0.60002 0.57068 0.0
C556 C 0.31136 0.61401 0.58231 0.0
C557 C 0.32185 0.61909 0.59893 0.0
C558 C 0.33409 0.61068 0.6037 0.0
H559 H 0.31875 0.53621 0.59849 0.0
H560 H 0.3109 0.55532 0.59768 0.0
H561 H 0.32047 0.54913 0.57774 0.0
H562 H 0.3275 0.58206 0.56572 0.0
H563 H 0.3053 0.59608 0.55767 0.0
H564 H 0.85666 0.42643 0.80984 0.0
H565 H 0.8207 0.40677 0.79796 0.0
H566 H 0.83543 0.36577 0.76903 0.0
H567 H 0.87135 0.38523 0.781 0.0
H568 H 0.80412 0.39754 0.76345 0.0
H569 H 0.78526 0.32503 0.7997 0.0
H570 H 0.80863 0.35012 0.80439 0.0
H571 H 0.80779 0.33486 0.78523 0.0
C572 C 0.85232 0.41342 0.80072 0.0
C573 C 0.86674 0.40723 0.79646 0.0
C574 C 0.83176 0.40216 0.79402 0.0
C575 C 0.82529 0.38454 0.78296 0.0
C576 C 0.83996 0.37898 0.77795 0.0
H577 H 0.7102 0.2935 0.73019 0.0
H578 H 0.74627 0.31579 0.74112 0.0
C579 C 0.86046 0.39013 0.78473 0.0
C580 C 0.80305 0.37164 0.77708 0.0
H581 H 0.75987 0.32202 0.77862 0.0
C582 C 0.79439 0.38107 0.76684 0.0
C583 C 0.79037 0.35018 0.78165 0.0
C584 C 0.79838 0.33947 0.79349 0.0
C585 C 0.77351 0.36942 0.76064 0.0
C586 C 0.76101 0.3479 0.76496 0.0
C587 C 0.76958 0.33854 0.77532 0.0
C588 C 0.73912 0.33464 0.75845 0.0
C589 C 0.76509 0.38003 0.74918 0.0
C590 C 0.72315 0.33772 0.7648 0.0
C591 C 0.70245 0.32491 0.75866 0.0
C592 C 0.69749 0.30887 0.74606 0.0
C593 C 0.71353 0.30575 0.73987 0.0
C594 C 0.73414 0.31846 0.74609 0.0
H595 H 0.77782 0.39563 0.74438 0.0
H596 H 0.75651 0.37011 0.73734 0.0
H597 H 0.75381 0.38229 0.75721 0.0
H598 H 0.72668 0.34996 0.77456 0.0
H599 H 0.6904 0.32766 0.76367 0.0
H600 H 0.44436 0.8541 0.97908 0.0
H601 H 0.42651 0.81715 0.97002 0.0
H602 H 0.4807 0.82996 0.9385 0.0
H603 H 0.49865 0.8669 0.94751 0.0
H604 H 0.4162 0.79687 0.93633 0.0
H605 H 0.47331 0.78411 0.97314 0.0
H606 H 0.4717 0.8072 0.97643 0.0
H607 H 0.48543 0.80522 0.95728 0.0
C608 C 0.45233 0.84912 0.96996 0.0
C609 C 0.47299 0.86338 0.96412 0.0
C610 C 0.44216 0.82799 0.96489 0.0
C611 C 0.45248 0.82076 0.95393 0.0
C612 C 0.47268 0.83514 0.94735 0.0
H613 H 0.42801 0.70563 0.90638 0.0
H614 H 0.44176 0.74147 0.91701 0.0
C615 C 0.48288 0.85623 0.95246 0.0
C616 C 0.44243 0.79811 0.94975 0.0
H617 H 0.44954 0.75666 0.95349 0.0
C618 C 0.42335 0.788 0.9402 0.0
C619 C 0.45174 0.78656 0.95499 0.0
C620 C 0.47156 0.79625 0.96618 0.0
C621 C 0.41377 0.76681 0.93511 0.0
C622 C 0.42344 0.75548 0.9399 0.0
C623 C 0.44224 0.76546 0.9498 0.0
C624 C 0.41494 0.73356 0.93395 0.0
C625 C 0.39379 0.75689 0.92413 0.0
C626 C 0.39545 0.71719 0.94023 0.0
C627 C 0.38755 0.6966 0.93422 0.0
C628 C 0.39905 0.69215 0.92185 0.0
C629 C 0.41874 0.70855 0.91588 0.0
C630 C 0.42663 0.72905 0.92193 0.0
H631 H 0.39046 0.76874 0.91882 0.0
H632 H 0.39479 0.74785 0.91265 0.0
H633 H 0.38034 0.74581 0.9327 0.0
H634 H 0.38636 0.72034 0.94974 0.0
H635 H 0.37235 0.68426 0.93907 0.0
H636 H 0.59419 0.42462 0.14122 0.0
H637 H 0.62044 0.41707 0.13012 0.0
H638 H 0.64364 0.46866 0.09305 0.0
H639 H 0.61715 0.47628 0.10399 0.0
H640 H 0.62672 0.4073 0.09486 0.0
H641 H 0.69692 0.4805 0.12056 0.0
H642 H 0.67052 0.4718 0.12812 0.0
H643 H 0.67926 0.48378 0.10644 0.0
C644 C 0.60464 0.43421 0.13051 0.0
C645 C 0.60349 0.45103 0.12345 0.0
C646 C 0.61975 0.42995 0.12428 0.0
C647 C 0.63416 0.44246 0.11094 0.0
C648 C 0.63292 0.45907 0.10361 0.0
H649 H 0.73626 0.42999 0.06516 0.0
H650 H 0.71259 0.44283 0.07207 0.0
C651 C 0.61775 0.46336 0.10985 0.0
C652 C 0.65028 0.43781 0.10478 0.0
H653 H 0.70314 0.45651 0.10521 0.0
C654 C 0.64344 0.41811 0.09702 0.0
C655 C 0.67209 0.45199 0.10755 0.0
C656 C 0.68024 0.47316 0.11624 0.0
C657 C 0.65777 0.41205 0.09222 0.0
C658 C 0.6795 0.42592 0.09556 0.0
C659 C 0.68645 0.4459 0.10276 0.0
C660 C 0.695 0.41945 0.09239 0.0
C661 C 0.6495 0.3908 0.08363 0.0
C662 C 0.69341 0.40257 0.10198 0.0
C663 C 0.70685 0.39525 0.0981 0.0
C664 C 0.72226 0.40475 0.08461 0.0
C665 C 0.72453 0.42234 0.07562 0.0
C666 C 0.71101 0.42966 0.07951 0.0
H667 H 0.63372 0.38466 0.07751 0.0
H668 H 0.66043 0.39146 0.07307 0.0
H669 H 0.64798 0.37952 0.09406 0.0
H670 H 0.68144 0.39476 0.11224 0.0
H671 H 0.70478 0.38177 0.10537 0.0
H672 H 0.44029 0.8683 0.50754 0.0
H673 H 0.42294 0.83265 0.51961 0.0
H674 H 0.36288 0.8213 0.50138 0.0
H675 H 0.38007 0.85638 0.4886 0.0
H676 H 0.39136 0.81189 0.5448 0.0
H677 H 0.36576 0.77341 0.47804 0.0
H678 H 0.38482 0.80106 0.48064 0.0
H679 H 0.3571 0.79138 0.48247 0.0
C680 C 0.4234 0.85818 0.50603 0.0
C681 C 0.41162 0.86519 0.49696 0.0
C682 C 0.41351 0.83787 0.51302 0.0
C683 C 0.3917 0.82421 0.51103 0.0
C684 C 0.3798 0.83144 0.5027 0.0
H685 H 0.30629 0.7101 0.56663 0.0
H686 H 0.328 0.74603 0.55577 0.0
C687 C 0.38964 0.85166 0.49564 0.0
C688 C 0.38132 0.80229 0.51745 0.0
H689 H 0.34996 0.75145 0.50363 0.0
C690 C 0.38244 0.79865 0.5358 0.0
C691 C 0.37007 0.78503 0.50561 0.0
C692 C 0.36952 0.78786 0.48556 0.0
C693 C 0.3719 0.77821 0.54274 0.0
C694 C 0.35961 0.76104 0.53106 0.0
C695 C 0.35917 0.76465 0.51261 0.0
C696 C 0.34663 0.73924 0.53773 0.0
C697 C 0.37416 0.77521 0.56249 0.0
C698 C 0.3494 0.72333 0.53074 0.0
C699 C 0.3368 0.70268 0.53676 0.0
C700 C 0.32119 0.69762 0.54983 0.0
C701 C 0.31828 0.71354 0.55663 0.0
C702 C 0.33081 0.73413 0.55056 0.0
H703 H 0.38881 0.7887 0.56818 0.0
H704 H 0.36063 0.77403 0.56993 0.0
H705 H 0.37432 0.76063 0.56483 0.0
H706 H 0.3614 0.72692 0.52071 0.0
H707 H 0.33938 0.69074 0.53127 0.0
H708 H 0.53883 0.37817 0.64498 0.0
H709 H 0.55178 0.3567 0.6571 0.0
H710 H 0.56995 0.39307 0.70619 0.0
H711 H 0.55703 0.41482 0.69404 0.0
H712 H 0.60068 0.38669 0.69366 0.0
H713 H 0.52457 0.31117 0.69473 0.0
H714 H 0.53026 0.32319 0.67297 0.0
H715 H 0.5263 0.336 0.69183 0.0
C716 C 0.54526 0.38142 0.65848 0.0
C717 C 0.54662 0.39802 0.66866 0.0
C718 C 0.55264 0.3691 0.66539 0.0
C719 C 0.56137 0.37294 0.68271 0.0
C720 C 0.56307 0.3897 0.69285 0.0
H721 H 0.59008 0.28535 0.73397 0.0
H722 H 0.57469 0.30646 0.72651 0.0
C723 C 0.55576 0.40215 0.68589 0.0
C724 C 0.56943 0.3599 0.68981 0.0
H725 H 0.55565 0.30912 0.69668 0.0
C726 C 0.59079 0.36975 0.69451 0.0
C727 C 0.55645 0.33783 0.69122 0.0
C728 C 0.53308 0.32644 0.6876 0.0
C729 C 0.5997 0.35805 0.69989 0.0
C730 C 0.58701 0.33587 0.70015 0.0
C731 C 0.56546 0.32609 0.69618 0.0
C732 C 0.59586 0.32255 0.70429 0.0
C733 C 0.6226 0.36961 0.70534 0.0
C734 C 0.61243 0.3241 0.69394 0.0
C735 C 0.62131 0.31216 0.69823 0.0
C736 C 0.61357 0.29817 0.71278 0.0
C737 C 0.59639 0.29597 0.72267 0.0
C738 C 0.58761 0.30807 0.71845 0.0
H739 H 0.62809 0.3859 0.70978 0.0
H740 H 0.62539 0.36141 0.71639 0.0
H741 H 0.6323 0.37055 0.69359 0.0
H742 H 0.61863 0.33469 0.68261 0.0
H743 H 0.63442 0.31409 0.69026 0.0
H744 H 0.16524 0.58312 0.85339 0.0
H745 H 0.19891 0.58975 0.86492 0.0
H746 H 0.18911 0.53403 0.83801 0.0
H747 H 0.15598 0.52787 0.82561 0.0
H748 H 0.21093 0.56754 0.88574 0.0
H749 H 0.24478 0.57926 0.81699 0.0
H750 H 0.22003 0.57745 0.82137 0.0
H751 H 0.22139 0.55412 0.82054 0.0
C752 C 0.17025 0.57229 0.84986 0.0
C753 C 0.15801 0.55514 0.83834 0.0
C754 C 0.18942 0.576 0.8566 0.0
C755 C 0.19671 0.56262 0.85201 0.0
C756 C 0.18399 0.54481 0.8414 0.0
H757 H 0.31328 0.58126 0.90083 0.0
H758 H 0.27645 0.56476 0.89123 0.0
C759 C 0.16489 0.54117 0.83452 0.0
C760 C 0.2181 0.56803 0.8576 0.0
H761 H 0.26654 0.58191 0.84107 0.0
C762 C 0.22308 0.57055 0.87601 0.0
C763 C 0.23396 0.57217 0.84483 0.0
C764 C 0.2299 0.57081 0.82482 0.0
C765 C 0.2436 0.57747 0.88199 0.0
C766 C 0.25942 0.58154 0.8692 0.0
C767 C 0.25432 0.5786 0.85083 0.0
C768 C 0.28178 0.59066 0.87442 0.0
C769 C 0.24834 0.58122 0.90185 0.0
C770 C 0.29709 0.61029 0.86762 0.0
C771 C 0.3181 0.61959 0.87288 0.0
C772 C 0.32424 0.60945 0.88506 0.0
C773 C 0.309 0.5895 0.89149 0.0
C774 C 0.28794 0.58013 0.88613 0.0
H775 H 0.23569 0.58179 0.90935 0.0
H776 H 0.24972 0.56826 0.90746 0.0
H777 H 0.26347 0.59615 0.90423 0.0
H778 H 0.29271 0.61866 0.85851 0.0
H779 H 0.32944 0.63495 0.86766 0.0
H780 H 0.57568 0.15976 0.01787 0.0
H781 H 0.60133 0.19511 0.02862 0.0
H782 H 0.6511 0.19203 0.00171 0.0
H783 H 0.62553 0.15719 0.99017 0.0
H784 H 0.63675 0.21074 0.04943 0.0
H785 H 0.65743 0.24518 0.98106 0.0
H786 H 0.6351 0.21928 0.98527 0.0
H787 H 0.66121 0.22353 0.98405 0.0
C788 C 0.59207 0.16663 0.01415 0.0
C789 C 0.59847 0.15566 0.003 0.0
C790 C 0.60672 0.18678 0.02041 0.0
C791 C 0.62805 0.19636 0.01564 0.0
C792 C 0.63465 0.18512 0.00521 0.0
H793 H 0.72994 0.31053 0.06516 0.0
H794 H 0.70632 0.27442 0.05493 0.0
C795 C 0.62001 0.16504 0.99885 0.0
C796 C 0.64328 0.21824 0.02134 0.0
H797 H 0.67813 0.26714 0.00519 0.0
C798 C 0.6458 0.22309 0.03978 0.0
C799 C 0.65482 0.23438 0.00868 0.0
C800 C 0.6519 0.23043 0.98866 0.0
C801 C 0.65969 0.24362 0.04593 0.0
C802 C 0.67172 0.25963 0.0333 0.0
C803 C 0.66906 0.2548 0.01485 0.0
C804 C 0.68667 0.28162 0.03889 0.0
C805 C 0.66094 0.24806 0.06588 0.0
C806 C 0.684 0.2978 0.03268 0.0
C807 C 0.69765 0.3185 0.0383 0.0
C808 C 0.7142 0.32336 0.05025 0.0
C809 C 0.7172 0.30723 0.05607 0.0
C810 C 0.70363 0.28656 0.05035 0.0
H811 H 0.64685 0.23567 0.0731 0.0
H812 H 0.67498 0.24854 0.07151 0.0
H813 H 0.66245 0.26342 0.06858 0.0
H814 H 0.67109 0.29436 0.02373 0.0
H815 H 0.69496 0.3306 0.03356 0.0
H816 H 0.44337 0.59356 0.16064 0.0
H817 H 0.42972 0.61516 0.17164 0.0
H818 H 0.48854 0.65584 0.19891 0.0
H819 H 0.50239 0.63444 0.18773 0.0
H820 H 0.42392 0.62689 0.20519 0.0
H821 H 0.48323 0.69661 0.16686 0.0
H822 H 0.47921 0.67086 0.16331 0.0
H823 H 0.49435 0.68655 0.18224 0.0
C824 C 0.45327 0.6069 0.16924 0.0
C825 C 0.47401 0.61242 0.17321 0.0
C826 C 0.44549 0.61929 0.17544 0.0
C827 C 0.45829 0.6374 0.18574 0.0
C828 C 0.4786 0.64228 0.19056 0.0
H829 H 0.43456 0.73297 0.22779 0.0
H830 H 0.45007 0.71159 0.22122 0.0
C831 C 0.48645 0.62999 0.18425 0.0
C832 C 0.45054 0.65144 0.19091 0.0
H833 H 0.46037 0.70123 0.18585 0.0
C834 C 0.43191 0.64315 0.20098 0.0
C835 C 0.46096 0.67265 0.18535 0.0
C836 C 0.48043 0.68219 0.1737 0.0
C837 C 0.42343 0.6555 0.20569 0.0
C838 C 0.43377 0.67663 0.20003 0.0
C839 C 0.45256 0.68504 0.19021 0.0
C840 C 0.42484 0.68998 0.20358 0.0
C841 C 0.4035 0.6459 0.21672 0.0
C842 C 0.40584 0.68518 0.19545 0.0
C843 C 0.39705 0.6974 0.19906 0.0
C844 C 0.4071 0.71466 0.21088 0.0
C845 C 0.42644 0.71976 0.21865 0.0
C846 C 0.43529 0.70756 0.21494 0.0
H847 H 0.40024 0.63127 0.22347 0.0
H848 H 0.40446 0.65713 0.2271 0.0
H849 H 0.39 0.64196 0.20776 0.0
H850 H 0.39773 0.67188 0.18639 0.0
H851 H 0.38217 0.69307 0.19282 0.0
H852 H 0.8729 0.49669 0.34342 0.0
H853 H 0.83847 0.48872 0.35457 0.0
H854 H 0.81541 0.42258 0.3512 0.0
H855 H 0.84936 0.43024 0.33949 0.0
H856 H 0.79807 0.46157 0.33491 0.0
H857 H 0.80028 0.43339 0.40345 0.0
H858 H 0.82383 0.45023 0.39063 0.0
H859 H 0.80813 0.42274 0.38541 0.0
C860 C 0.86051 0.48044 0.34502 0.0
C861 C 0.86397 0.46412 0.34055 0.0
C862 C 0.84091 0.47594 0.35149 0.0
C863 C 0.82454 0.45509 0.35383 0.0
C864 C 0.82799 0.43879 0.34974 0.0
H865 H 0.69051 0.38922 0.3601 0.0
H866 H 0.72758 0.40542 0.35161 0.0
C867 C 0.84749 0.44323 0.34313 0.0
C868 C 0.80342 0.45017 0.35963 0.0
H869 H 0.76703 0.42657 0.39307 0.0
C870 C 0.79133 0.45414 0.34771 0.0
C871 C 0.7948 0.4406 0.37636 0.0
C872 C 0.80743 0.4366 0.38982 0.0
C873 C 0.77047 0.44802 0.35181 0.0
C874 C 0.76156 0.43767 0.36822 0.0
C875 C 0.77392 0.43444 0.38046 0.0
C876 C 0.73912 0.42908 0.37256 0.0
C877 C 0.75798 0.45242 0.33852 0.0
C878 C 0.73339 0.43708 0.38714 0.0
C879 C 0.71221 0.42793 0.39198 0.0
C880 C 0.69647 0.41044 0.38245 0.0
C881 C 0.70227 0.40269 0.36768 0.0
C882 C 0.72341 0.41196 0.36277 0.0
H883 H 0.76834 0.46451 0.32858 0.0
H884 H 0.74706 0.43777 0.33107 0.0
H885 H 0.74838 0.45774 0.34557 0.0
H886 H 0.74535 0.45022 0.39491 0.0
H887 H 0.70823 0.43419 0.40347 0.0
H888 H 0.13673 0.55899 0.39836 0.0
H889 H 0.16003 0.5655 0.42397 0.0
H890 H 0.13911 0.6038 0.44893 0.0
H891 H 0.11518 0.59664 0.42386 0.0
H892 H 0.19278 0.60308 0.43441 0.0
H893 H 0.1365 0.56881 0.49086 0.0
H894 H 0.12823 0.56321 0.46765 0.0
H895 H 0.13242 0.58682 0.47832 0.0
C896 C 0.13664 0.5683 0.40955 0.0
C897 C 0.12406 0.57728 0.40905 0.0
C898 C 0.1501 0.57215 0.42411 0.0
C899 C 0.15115 0.58493 0.43849 0.0
C900 C 0.13826 0.59351 0.43821 0.0
H901 H 0.23253 0.65999 0.52229 0.0
H902 H 0.20778 0.64286 0.49755 0.0
C903 C 0.12476 0.58961 0.42373 0.0
C904 C 0.16685 0.59078 0.45311 0.0
H905 H 0.17239 0.59484 0.49882 0.0
C906 C 0.1883 0.6009 0.44849 0.0
C907 C 0.16101 0.58785 0.47149 0.0
C908 C 0.13827 0.57587 0.47737 0.0
C909 C 0.20405 0.60917 0.46177 0.0
C910 C 0.19818 0.60724 0.48005 0.0
C911 C 0.17679 0.59639 0.48472 0.0
C912 C 0.21399 0.61779 0.49447 0.0
C913 C 0.22691 0.62074 0.45624 0.0
C914 C 0.2258 0.60938 0.50079 0.0
C915 C 0.24 0.61911 0.51505 0.0
C916 C 0.24262 0.63742 0.52315 0.0
C917 C 0.23099 0.64595 0.51642 0.0
C918 C 0.21677 0.63617 0.5023 0.0
H919 H 0.22889 0.62163 0.44139 0.0
H920 H 0.23512 0.63691 0.46187 0.0
H921 H 0.23465 0.61269 0.46185 0.0
H922 H 0.22377 0.59514 0.4949 0.0
H923 H 0.24866 0.61211 0.51987 0.0
H924 H 0.53556 0.12419 0.56349 0.0
H925 H 0.54514 0.146 0.59065 0.0
H926 H 0.59048 0.12888 0.60435 0.0
H927 H 0.5808 0.10677 0.57739 0.0
H928 H 0.54863 0.13721 0.63002 0.0
H929 H 0.62375 0.19477 0.59656 0.0
H930 H 0.60118 0.17482 0.58424 0.0
H931 H 0.61767 0.1681 0.5964 0.0
C932 C 0.54717 0.1246 0.57252 0.0
C933 C 0.55757 0.11388 0.56819 0.0
C934 C 0.55266 0.13714 0.58799 0.0
C935 C 0.56867 0.13921 0.59931 0.0
C936 C 0.57823 0.12763 0.59561 0.0
H937 H 0.64587 0.2121 0.68594 0.0
H938 H 0.62669 0.18792 0.66147 0.0
C939 C 0.57275 0.11508 0.58019 0.0
C940 C 0.57673 0.15478 0.61413 0.0
H941 H 0.62064 0.20029 0.62753 0.0
C942 C 0.56428 0.15112 0.62949 0.0
C943 C 0.59704 0.17299 0.6132 0.0
C944 C 0.61068 0.17809 0.59667 0.0
C945 C 0.57213 0.16478 0.64441 0.0
C946 C 0.59278 0.18258 0.64371 0.0
C947 C 0.60484 0.18658 0.62804 0.0
C948 C 0.60305 0.19639 0.65949 0.0
C949 C 0.5587 0.15966 0.66106 0.0
C950 C 0.59602 0.20915 0.66662 0.0
C951 C 0.60702 0.22313 0.68077 0.0
C952 C 0.62531 0.22466 0.68785 0.0
C953 C 0.632 0.21156 0.68077 0.0
C954 C 0.62101 0.19763 0.66678 0.0
H955 H 0.54452 0.1436 0.66048 0.0
H956 H 0.56796 0.16103 0.67324 0.0
H957 H 0.55344 0.17103 0.66247 0.0
H958 H 0.58235 0.20864 0.66098 0.0
H959 H 0.60147 0.23301 0.68588 0.0
H960 H 0.41951 0.54798 0.72928 0.0
H961 H 0.40767 0.5576 0.75639 0.0
H962 H 0.46734 0.57803 0.78183 0.0
H963 H 0.47922 0.56794 0.75496 0.0
H964 H 0.41213 0.54653 0.79876 0.0
H965 H 0.45393 0.62941 0.77528 0.0
H966 H 0.44402 0.60758 0.75974 0.0
H967 H 0.46694 0.61482 0.77299 0.0
C968 C 0.42996 0.554 0.74078 0.0
C969 C 0.45037 0.55725 0.73991 0.0
C970 C 0.42316 0.55955 0.75622 0.0
C971 C 0.43666 0.56849 0.771 0.0
C972 C 0.45674 0.57112 0.77048 0.0
H973 H 0.44469 0.64009 0.86353 0.0
H974 H 0.44955 0.62208 0.83835 0.0
C975 C 0.46354 0.56551 0.75508 0.0
C976 C 0.43053 0.57678 0.78635 0.0
H977 H 0.43813 0.62249 0.80385 0.0
C978 C 0.41767 0.5631 0.79993 0.0
C979 C 0.43778 0.59836 0.78764 0.0
C980 C 0.45137 0.61351 0.77315 0.0
C981 C 0.41241 0.57065 0.81519 0.0
C982 C 0.41994 0.59235 0.81662 0.0
C983 C 0.4324 0.60588 0.80275 0.0
C984 C 0.41629 0.6018 0.83276 0.0
C985 C 0.39949 0.55551 0.82992 0.0
C986 C 0.3959 0.59624 0.83813 0.0
C987 C 0.39301 0.60647 0.85272 0.0
C988 C 0.41052 0.62263 0.86194 0.0
C989 C 0.43085 0.62788 0.85663 0.0
C990 C 0.43368 0.61756 0.84224 0.0
H991 H 0.39907 0.54047 0.82866 0.0
H992 H 0.40582 0.56242 0.84338 0.0
H993 H 0.38306 0.552 0.82909 0.0
H994 H 0.38226 0.58439 0.83077 0.0
H995 H 0.37716 0.60214 0.85643 0.0
H996 H 0.92166 0.43827 0.92237 0.0
H997 H 0.89751 0.42998 0.94771 0.0
H998 H 0.85888 0.44462 0.91533 0.0
H999 H 0.8826 0.45236 0.88977 0.0
H1000 H 0.88211 0.45304 0.96625 0.0
H1001 H 0.81896 0.38285 0.93018 0.0
H1002 H 0.84604 0.39669 0.92279 0.0
H1003 H 0.82972 0.40737 0.91856 0.0
C1004 C 0.90808 0.43983 0.92067 0.0
C1005 C 0.90394 0.44575 0.90399 0.0
C1006 C 0.89438 0.43523 0.93518 0.0
C1007 C 0.87626 0.43638 0.93328 0.0
C1008 C 0.87265 0.44336 0.91698 0.0
H1009 H 0.79012 0.41265 0.02409 0.0
H1010 H 0.81299 0.4291 0.99794 0.0
C1011 C 0.88634 0.44798 0.90244 0.0
C1012 C 0.86054 0.42893 0.948 0.0
H1013 H 0.81104 0.38936 0.95925 0.0
C1014 C 0.86649 0.43925 0.96471 0.0
C1015 C 0.84026 0.4108 0.94594 0.0
C1016 C 0.83332 0.39862 0.92847 0.0
C1017 C 0.85278 0.4317 0.97955 0.0
C1018 C 0.83256 0.41349 0.97751 0.0
C1019 C 0.8265 0.40341 0.96071 0.0
C1020 C 0.81815 0.40355 0.99298 0.0
C1021 C 0.86031 0.44275 0.99747 0.0
C1022 C 0.81306 0.38354 0.99853 0.0
C1023 C 0.79998 0.37407 0.01335 0.0
C1024 C 0.7916 0.38438 0.02294 0.0
C1025 C 0.79634 0.40428 0.01708 0.0
C1026 C 0.80951 0.41377 0.00221 0.0
H1027 H 0.87755 0.45425 0.99754 0.0
H1028 H 0.85213 0.4513 0.00049 0.0
H1029 H 0.85652 0.43123 0.0084 0.0
H1030 H 0.81951 0.37535 0.99153 0.0
H1031 H 0.79664 0.35872 0.01739 0.0
H1032 H 0.46595 0.91427 0.07725 0.0
H1033 H 0.45107 0.8912 0.10321 0.0
H1034 H 0.49451 0.87001 0.09525 0.0
H1035 H 0.50878 0.89224 0.06872 0.0
H1036 H 0.45484 0.8377 0.09926 0.0
H1037 H 0.4727 0.89558 0.15362 0.0
H1038 H 0.45883 0.89856 0.13532 0.0
H1039 H 0.48484 0.9031 0.1317 0.0
C1040 C 0.47241 0.90477 0.08104 0.0
C1041 C 0.48858 0.90514 0.07085 0.0
C1042 C 0.46407 0.89179 0.09606 0.0
C1043 C 0.47191 0.87912 0.10137 0.0
C1044 C 0.48835 0.87979 0.09149 0.0
H1045 H 0.42379 0.78128 0.18464 0.0
H1046 H 0.44651 0.8067 0.16181 0.0
C1047 C 0.49662 0.89267 0.07641 0.0
C1048 C 0.46183 0.86399 0.11632 0.0
H1049 H 0.44612 0.85982 0.16011 0.0
C1050 C 0.45323 0.84256 0.11265 0.0
C1051 C 0.45978 0.87036 0.1338 0.0
C1052 C 0.46972 0.89318 0.13891 0.0
C1053 C 0.44185 0.82727 0.12576 0.0
C1054 C 0.43913 0.83362 0.14298 0.0
C1055 C 0.44821 0.85504 0.14683 0.0
C1056 C 0.42566 0.8182 0.15677 0.0
C1057 C 0.43206 0.8044 0.12092 0.0
C1058 C 0.40655 0.8164 0.16151 0.0
C1059 C 0.39355 0.80193 0.17443 0.0
C1060 C 0.39945 0.78901 0.18303 0.0
C1061 C 0.41871 0.79091 0.17827 0.0
C1062 C 0.4317 0.80539 0.16522 0.0
H1063 H 0.43316 0.802 0.10628 0.0
H1064 H 0.44026 0.79785 0.12833 0.0
H1065 H 0.41522 0.79542 0.12496 0.0
H1066 H 0.40165 0.82618 0.15512 0.0
H1067 H 0.37891 0.80103 0.17776 0.0
H1068 H 0.5911 0.49117 0.24257 0.0
H1069 H 0.6043 0.4839 0.27011 0.0
H1070 H 0.57142 0.41819 0.25617 0.0
H1071 H 0.55854 0.42531 0.22859 0.0
H1072 H 0.5805 0.45612 0.29874 0.0
H1073 H 0.6326 0.43342 0.26559 0.0
H1074 H 0.62273 0.44786 0.25416 0.0
H1075 H 0.60632 0.41989 0.25665 0.0
C1076 C 0.58678 0.4752 0.24536 0.0
C1077 C 0.57376 0.45881 0.23342 0.0
C1078 C 0.59428 0.47108 0.26108 0.0
C1079 C 0.58911 0.45058 0.26497 0.0
C1080 C 0.57589 0.43418 0.25323 0.0
H1081 H 0.57771 0.38026 0.35651 0.0
H1082 H 0.57483 0.39959 0.33156 0.0
C1083 C 0.56831 0.43824 0.2376 0.0
C1084 C 0.5969 0.44598 0.28155 0.0
H1085 H 0.62315 0.4226 0.29628 0.0
C1086 C 0.59012 0.44912 0.29825 0.0
C1087 C 0.60975 0.43718 0.28088 0.0
C1088 C 0.61847 0.43457 0.26337 0.0
C1089 C 0.59473 0.44243 0.31425 0.0
C1090 C 0.60623 0.43219 0.31342 0.0
C1091 C 0.61416 0.43028 0.29685 0.0
C1092 C 0.60836 0.42153 0.32925 0.0
C1093 C 0.58684 0.4459 0.33186 0.0
C1094 C 0.62826 0.42727 0.33606 0.0
C1095 C 0.63002 0.41619 0.3504 0.0
C1096 C 0.61189 0.39899 0.35795 0.0
C1097 C 0.59202 0.39338 0.35104 0.0
C1098 C 0.5903 0.40453 0.33686 0.0
H1099 H 0.58408 0.45913 0.33098 0.0
H1100 H 0.57164 0.43155 0.33532 0.0
H1101 H 0.59817 0.44917 0.34292 0.0
H1102 H 0.6424 0.44024 0.33021 0.0
H1103 H 0.64555 0.42087 0.35534 0.0
H1104 H 0.46165 0.88907 0.3941 0.0
H1105 H 0.45562 0.86678 0.36775 0.0
H1106 H 0.41631 0.88723 0.34445 0.0
H1107 H 0.42295 0.91014 0.3703 0.0
H1108 H 0.41807 0.83404 0.35695 0.0
H1109 H 0.45201 0.8918 0.30188 0.0
H1110 H 0.4575 0.89935 0.32528 0.0
H1111 H 0.43367 0.89513 0.31499 0.0
C1112 C 0.45221 0.88928 0.38313 0.0
C1113 C 0.44279 0.90141 0.38431 0.0
C1114 C 0.44865 0.8764 0.36815 0.0
C1115 C 0.43572 0.87551 0.35401 0.0
C1116 C 0.42671 0.88798 0.35498 0.0
H1117 H 0.36304 0.79752 0.26736 0.0
H1118 H 0.3798 0.82195 0.29239 0.0
C1119 C 0.43032 0.90089 0.36989 0.0
C1120 C 0.43016 0.86036 0.33895 0.0
H1121 H 0.42642 0.85617 0.29315 0.0
C1122 C 0.42027 0.8389 0.34299 0.0
C1123 C 0.4331 0.86671 0.32074 0.0
C1124 C 0.44486 0.88953 0.31546 0.0
C1125 C 0.41223 0.8236 0.32932 0.0
C1126 C 0.41419 0.82995 0.31121 0.0
C1127 C 0.42481 0.85139 0.30711 0.0
C1128 C 0.40401 0.81458 0.29639 0.0
C1129 C 0.40083 0.8007 0.3343 0.0
C1130 C 0.41208 0.80229 0.29043 0.0
C1131 C 0.40257 0.78828 0.27602 0.0
C1132 C 0.38478 0.78632 0.26739 0.0
C1133 C 0.37665 0.79853 0.27365 0.0
C1134 C 0.38624 0.81257 0.28794 0.0
H1135 H 0.39902 0.79832 0.34909 0.0
H1136 H 0.38498 0.79222 0.32798 0.0
H1137 H 0.40974 0.79361 0.32907 0.0
H1138 H 0.42589 0.80375 0.29676 0.0
H1139 H 0.40927 0.77916 0.27155 0.0
H1140 H 0.5894 0.45263 0.58041 0.0
H1141 H 0.60498 0.44574 0.55429 0.0
H1142 H 0.55652 0.44267 0.52033 0.0
H1143 H 0.54131 0.45033 0.54625 0.0
H1144 H 0.58441 0.40953 0.53529 0.0
H1145 H 0.60852 0.47639 0.48942 0.0
H1146 H 0.60288 0.47734 0.51295 0.0
H1147 H 0.58177 0.4649 0.49684 0.0
C1148 C 0.58245 0.45118 0.56729 0.0
C1149 C 0.56405 0.45195 0.56542 0.0
C1150 C 0.5913 0.4471 0.55239 0.0
C1151 C 0.58202 0.44385 0.53533 0.0
C1152 C 0.56419 0.4455 0.53329 0.0
H1153 H 0.57373 0.36389 0.44926 0.0
H1154 H 0.56953 0.38085 0.47573 0.0
C1155 C 0.55535 0.44962 0.54816 0.0
C1156 C 0.58937 0.43627 0.52018 0.0
H1157 H 0.6039 0.44482 0.47596 0.0
C1158 C 0.58897 0.41742 0.5224 0.0
C1159 C 0.59552 0.44667 0.50343 0.0
C1160 C 0.59742 0.46756 0.50055 0.0
C1161 C 0.59367 0.40821 0.5081 0.0
C1162 C 0.59853 0.41792 0.49105 0.0
C1163 C 0.59989 0.43726 0.48901 0.0
C1164 C 0.60133 0.40774 0.47503 0.0
C1165 C 0.59319 0.38804 0.51133 0.0
C1166 C 0.6205 0.41746 0.46566 0.0
C1167 C 0.62297 0.40783 0.45045 0.0
C1168 C 0.60623 0.38837 0.44425 0.0
C1169 C 0.587 0.37879 0.45367 0.0
C1170 C 0.58458 0.38842 0.46887 0.0
H1171 H 0.59521 0.38592 0.52582 0.0
H1172 H 0.57773 0.37461 0.50694 0.0
H1173 H 0.60573 0.38761 0.50354 0.0
H1174 H 0.63357 0.43244 0.47018 0.0
H1175 H 0.63797 0.41571 0.4435 0.0
H1176 H 0.14547 0.59038 0.73105 0.0
H1177 H 0.16704 0.59835 0.704 0.0
H1178 H 0.1329 0.53289 0.68923 0.0
H1179 H 0.11095 0.52469 0.71633 0.0
H1180 H 0.19083 0.57412 0.6938 0.0
H1181 H 0.13319 0.5725 0.64497 0.0
H1182 H 0.13296 0.5793 0.6683 0.0
H1183 H 0.12461 0.55283 0.66227 0.0
C1184 C 0.1423 0.57768 0.72194 0.0
C1185 C 0.12638 0.55691 0.72576 0.0
C1186 C 0.15477 0.58225 0.7066 0.0
C1187 C 0.15152 0.5662 0.69472 0.0
C1188 C 0.1356 0.54545 0.69832 0.0
H1189 H 0.24205 0.5977 0.6051 0.0
H1190 H 0.21656 0.57671 0.62866 0.0
C1191 C 0.12313 0.54082 0.71377 0.0
C1192 C 0.16499 0.57151 0.67861 0.0
H1193 H 0.16774 0.58547 0.63464 0.0
C1194 C 0.18574 0.57621 0.68073 0.0
C1195 C 0.15819 0.57425 0.66171 0.0
C1196 C 0.13603 0.56951 0.65899 0.0
C1197 C 0.20024 0.58454 0.66648 0.0
C1198 C 0.19369 0.58815 0.64976 0.0
C1199 C 0.17265 0.58256 0.64746 0.0
C1200 C 0.20896 0.60025 0.63534 0.0
C1201 C 0.22274 0.59056 0.66966 0.0
C1202 C 0.21294 0.62028 0.63126 0.0
C1203 C 0.22738 0.63224 0.61791 0.0
C1204 C 0.23816 0.62441 0.60823 0.0
C1205 C 0.2341 0.60424 0.61232 0.0
C1206 C 0.21958 0.59224 0.62578 0.0
H1207 H 0.2258 0.58891 0.684 0.0
H1208 H 0.22628 0.58034 0.66141 0.0
H1209 H 0.23372 0.60702 0.66547 0.0
H1210 H 0.20494 0.62675 0.63853 0.0
H1211 H 0.23001 0.64766 0.6152 0.0
H1212 H 0.54446 0.13158 0.89524 0.0
H1213 H 0.55676 0.15353 0.86841 0.0
H1214 H 0.60137 0.13428 0.85816 0.0
H1215 H 0.58849 0.11151 0.88447 0.0
H1216 H 0.59598 0.18672 0.86243 0.0
H1217 H 0.57548 0.12707 0.80902 0.0
H1218 H 0.56504 0.12022 0.83156 0.0
H1219 H 0.59106 0.12549 0.82659 0.0
C1220 C 0.55649 0.13154 0.88702 0.0
C1221 C 0.5654 0.11966 0.892 0.0
C1222 C 0.56364 0.14427 0.87178 0.0
C1223 C 0.57981 0.14537 0.86115 0.0
C1224 C 0.58858 0.13336 0.86594 0.0
H1225 H 0.66031 0.22179 0.77533 0.0
H1226 H 0.64321 0.19836 0.80074 0.0
C1227 C 0.58136 0.12054 0.88113 0.0
C1228 C 0.58837 0.16001 0.84571 0.0
H1229 H 0.59961 0.16278 0.80086 0.0
C1230 C 0.59655 0.18146 0.84893 0.0
C1231 C 0.58908 0.15312 0.82809 0.0
C1232 C 0.5795 0.13019 0.82354 0.0
C1233 C 0.60603 0.19627 0.83511 0.0
C1234 C 0.60722 0.18941 0.81763 0.0
C1235 C 0.59874 0.16796 0.81433 0.0
C1236 C 0.61777 0.20431 0.80267 0.0
C1237 C 0.61529 0.21921 0.83938 0.0
C1238 C 0.60912 0.21546 0.79538 0.0
C1239 C 0.61882 0.22889 0.78078 0.0
C1240 C 0.63737 0.23138 0.77321 0.0
C1241 C 0.64609 0.22033 0.78078 0.0
C1242 C 0.63633 0.20687 0.79529 0.0
H1243 H 0.61632 0.22226 0.8541 0.0
H1244 H 0.63128 0.22876 0.83345 0.0
H1245 H 0.60522 0.22453 0.83338 0.0
H1246 H 0.59466 0.2135 0.8008 0.0
H1247 H 0.61164 0.23709 0.77529 0.0
H1248 H 0.44557 0.54167 0.05928 0.0
H1249 H 0.42861 0.54786 0.03372 0.0
H1250 H 0.46851 0.6146 0.04193 0.0
H1251 H 0.48524 0.60862 0.06747 0.0
H1252 H 0.42257 0.5975 0.03748 0.0
H1253 H 0.45895 0.57386 0.9839 0.0
H1254 H 0.44641 0.55657 0.00269 0.0
H1255 H 0.4702 0.58138 0.00618 0.0
C1256 C 0.45067 0.55764 0.05563 0.0
C1257 C 0.46689 0.57467 0.06526 0.0
C1258 C 0.44104 0.56113 0.04102 0.0
C1259 C 0.44743 0.58168 0.03594 0.0
C1260 C 0.46342 0.59863 0.04564 0.0
H1261 H 0.44805 0.65317 0.94959 0.0
H1262 H 0.45326 0.63553 0.97471 0.0
C1263 C 0.47309 0.59518 0.06012 0.0
C1264 C 0.43779 0.5859 0.02044 0.0
H1265 H 0.43953 0.58884 0.9746 0.0
C1266 C 0.42589 0.59524 0.0237 0.0
C1267 C 0.44229 0.58299 0.00255 0.0
C1268 C 0.45523 0.57323 0.99846 0.0
C1269 C 0.41904 0.60252 0.00948 0.0
C1270 C 0.42431 0.60041 0.99165 0.0
C1271 C 0.43548 0.59032 0.98834 0.0
C1272 C 0.42055 0.61075 0.97649 0.0
C1273 C 0.40721 0.61343 0.01358 0.0
C1274 C 0.40034 0.60262 0.96925 0.0
C1275 C 0.39725 0.61266 0.95479 0.0
C1276 C 0.41433 0.63103 0.94742 0.0
C1277 C 0.4345 0.63913 0.95491 0.0
C1278 C 0.43756 0.62903 0.96924 0.0
H1279 H 0.40529 0.61475 0.02827 0.0
H1280 H 0.41564 0.62941 0.0077 0.0
H1281 H 0.39136 0.60459 0.00731 0.0
H1282 H 0.38705 0.58846 0.9747 0.0
H1283 H 0.38152 0.60597 0.94935 0.0
H1284 H 0.89846 0.48787 0.23351 0.0
H1285 H 0.8784 0.48013 0.20554 0.0
H1286 H 0.88896 0.42966 0.19417 0.0
H1287 H 0.9096 0.43769 0.22182 0.0
H1288 H 0.89349 0.45473 0.16384 0.0
H1289 H 0.81854 0.42835 0.2008 0.0
H1290 H 0.84003 0.45438 0.20584 0.0
H1291 H 0.84187 0.43214 0.21183 0.0
C1292 C 0.89688 0.47539 0.22489 0.0
C1293 C 0.90553 0.4633 0.22996 0.0
C1294 C 0.8852 0.47085 0.20901 0.0
C1295 C 0.88189 0.45409 0.19798 0.0
C1296 C 0.89122 0.44257 0.20259 0.0
H1297 H 0.81148 0.37647 0.11116 0.0
H1298 H 0.83613 0.39692 0.13502 0.0
C1299 C 0.9029 0.44709 0.21844 0.0
C1300 C 0.86806 0.44791 0.18195 0.0
H1301 H 0.81658 0.42545 0.16929 0.0
C1302 C 0.87671 0.44853 0.16499 0.0
C1303 C 0.84619 0.43997 0.18349 0.0
C1304 C 0.83598 0.43848 0.20145 0.0
C1305 C 0.86396 0.44084 0.1496 0.0
C1306 C 0.84197 0.43199 0.15128 0.0
C1307 C 0.83345 0.43226 0.16807 0.0
C1308 C 0.82736 0.42033 0.13627 0.0
C1309 C 0.87408 0.44192 0.13169 0.0
C1310 C 0.81386 0.42645 0.12931 0.0
C1311 C 0.79956 0.41469 0.11559 0.0
C1312 C 0.79836 0.39645 0.10881 0.0
C1313 C 0.81189 0.39039 0.11599 0.0
C1314 C 0.82617 0.40218 0.12956 0.0
H1315 H 0.89097 0.45459 0.13157 0.0
H1316 H 0.87318 0.42683 0.12911 0.0
H1317 H 0.86586 0.44464 0.12056 0.0
H1318 H 0.8144 0.44032 0.13448 0.0
H1319 H 0.78933 0.41977 0.11042 0.0
loop_
_geom_bond_atom_site_label_1
_geom_bond_atom_site_label_2
_geom_bond_distance
_geom_bond_site_symmetry_2
_ccdc_geom_bond_type
H0 C27 0.929 . S
N1 C26 1.433 . S
N1 C32 1.435 . S
N1 C38 1.423 . S
H2 C28 0.930 . S
H3 C31 0.931 . S
H4 C30 0.929 . S
H5 C33 0.930 . S
H6 C34 0.932 . S
H7 C37 0.929 . S
H8 C36 0.931 . S
H9 C39 0.929 . S
H10 C43 0.932 . S
H11 C40 0.931 . S
H12 C42 0.929 . S
H13 C45 0.929 . S
H14 C46 0.930 . S
H15 C48 0.929 . S
H16 C49 0.931 . S
H17 C51 0.930 . S
H18 C52 0.932 . S
H19 C54 0.931 . S
H20 C55 0.929 . S
H21 C57 0.929 . S
H22 C58 0.931 1_455 S
H23 C60 0.929 . S
N24 C44 1.433 . S
N24 C50 1.435 . S
N24 C56 1.423 . S
H25 C61 0.932 . S
C26 N1 1.433 . S
C26 C27 1.363 . S
C26 C31 1.370 . S
C27 H0 0.929 . S
C27 C26 1.363 . S
C27 C28 1.385 . S
C28 H2 0.930 . S
C28 C27 1.385 . S
C28 C29 1.357 . S
C29 C28 1.357 . S
C29 C30 1.406 . S
C30 H4 0.929 . S
C30 C29 1.406 . S
C30 C31 1.391 . S
C31 H3 0.931 . S
C31 C26 1.370 . S
C31 C30 1.391 . S
C32 N1 1.435 . S
C32 C33 1.358 . S
C32 C37 1.371 . S
C33 H5 0.930 . S
C33 C32 1.358 . S
C33 C34 1.405 . S
C34 H6 0.932 . S
C34 C33 1.405 . S
C34 C35 1.383 . S
C35 C34 1.383 . S
C35 C36 1.393 . S
C36 H8 0.931 . S
C36 C35 1.393 . S
C36 C37 1.382 . S
C37 H7 0.929 . S
C37 C32 1.371 . S
C37 C36 1.382 . S
C38 N1 1.423 . S
C38 C39 1.362 . S
C38 C43 1.388 . S
C39 H9 0.929 . S
C39 C38 1.362 . S
C39 C40 1.376 . S
C40 H11 0.931 . S
C40 C39 1.376 . S
C40 C41 1.396 . S
C41 C40 1.396 . S
C41 C42 1.348 . S
C41 C59 1.470 1_455 S
C42 H12 0.929 . S
C42 C41 1.348 . S
C42 C43 1.443 . S
C43 H10 0.932 . S
C43 C38 1.388 . S
C43 C42 1.443 . S
C44 N24 1.433 . S
C44 C45 1.363 . S
C44 C49 1.370 . S
C45 H13 0.929 . S
C45 C44 1.363 . S
C45 C46 1.385 . S
C46 H14 0.930 . S
C46 C45 1.385 . S
C46 C47 1.357 . S
C47 C46 1.357 . S
C47 C48 1.406 . S
C48 H15 0.929 . S
C48 C47 1.406 . S
C48 C49 1.391 . S
C49 H16 0.931 . S
C49 C44 1.370 . S
C49 C48 1.391 . S
C50 N24 1.435 . S
C50 C51 1.358 . S
C50 C55 1.371 . S
C51 H17 0.930 . S
C51 C50 1.358 . S
C51 C52 1.405 . S
C52 H18 0.932 . S
C52 C51 1.405 . S
C52 C53 1.383 . S
C53 C52 1.383 . S
C53 C54 1.393 . S
C54 H19 0.931 . S
C54 C53 1.393 . S
C54 C55 1.382 . S
C55 H20 0.929 . S
C55 C50 1.371 . S
C55 C54 1.382 . S
C56 N24 1.423 . S
C56 C57 1.362 . S
C56 C61 1.388 . S
C57 H21 0.929 . S
C57 C56 1.362 . S
C57 C58 1.376 . S
C58 H22 0.931 1_655 S
C58 C57 1.376 . S
C58 C59 1.396 . S
C59 C41 1.470 1_655 S
C59 C58 1.396 . S
C59 C60 1.350 . S
C60 H23 0.929 . S
C60 C59 1.350 . S
C60 C61 1.443 . S
C61 H25 0.932 . S
C61 C56 1.388 . S
C61 C60 1.443 . S
H62 C89 0.929 . S
N63 C88 1.433 . S
N63 C94 1.435 . S
N63 C100 1.423 . S
H64 C90 0.930 . S
H65 C93 0.931 . S
H66 C92 0.929 . S
H67 C95 0.930 . S
H68 C96 0.932 . S
H69 C99 0.929 . S
H70 C98 0.931 . S
H71 C101 0.929 . S
H72 C105 0.932 . S
H73 C102 0.931 . S
H74 C104 0.929 1_545 S
H75 C107 0.929 . S
H76 C108 0.930 . S
H77 C110 0.929 . S
H78 C111 0.931 . S
H79 C113 0.930 . S
H80 C114 0.932 . S
H81 C116 0.931 . S
H82 C117 0.929 . S
H83 C119 0.929 . S
H84 C120 0.931 . S
H85 C122 0.929 . S
N86 C106 1.433 . S
N86 C112 1.435 . S
N86 C118 1.423 . S
H87 C123 0.932 . S
C88 N63 1.433 . S
C88 C89 1.363 . S
C88 C93 1.370 . S
C89 H62 0.929 . S
C89 C88 1.363 . S
C89 C90 1.385 . S
C90 H64 0.930 . S
C90 C89 1.385 . S
C90 C91 1.357 . S
C91 C90 1.357 . S
C91 C92 1.406 . S
C92 H66 0.929 . S
C92 C91 1.406 . S
C92 C93 1.391 . S
C93 H65 0.931 . S
C93 C88 1.370 . S
C93 C92 1.391 . S
C94 N63 1.435 . S
C94 C95 1.358 . S
C94 C99 1.371 . S
C95 H67 0.930 . S
C95 C94 1.358 . S
C95 C96 1.405 . S
C96 H68 0.932 . S
C96 C95 1.405 . S
C96 C97 1.383 . S
C97 C96 1.383 . S
C97 C98 1.393 . S
C98 H70 0.931 . S
C98 C97 1.393 . S
C98 C99 1.382 . S
C99 H69 0.929 . S
C99 C94 1.371 . S
C99 C98 1.382 . S
C100 N63 1.423 . S
C100 C101 1.362 . S
C100 C105 1.388 . S
C101 H71 0.929 . S
C101 C100 1.362 . S
C101 C102 1.376 . S
C102 H73 0.931 . S
C102 C101 1.376 . S
C102 C103 1.396 1_565 S
C103 C102 1.396 1_545 S
C103 C104 1.348 1_545 S
C103 C121 1.472 . S
C104 H74 0.929 1_565 S
C104 C103 1.348 1_565 S
C104 C105 1.443 . S
C105 H72 0.932 . S
C105 C100 1.388 . S
C105 C104 1.443 . S
C106 N86 1.433 . S
C106 C107 1.363 . S
C106 C111 1.370 . S
C107 H75 0.929 . S
C107 C106 1.363 . S
C107 C108 1.385 . S
C108 H76 0.930 . S
C108 C107 1.385 . S
C108 C109 1.357 . S
C109 C108 1.357 . S
C109 C110 1.406 . S
C110 H77 0.929 . S
C110 C109 1.406 . S
C110 C111 1.391 . S
C111 H78 0.931 . S
C111 C106 1.370 . S
C111 C110 1.391 . S
C112 N86 1.435 . S
C112 C113 1.358 . S
C112 C117 1.371 . S
C113 H79 0.930 . S
C113 C112 1.358 . S
C113 C114 1.405 . S
C114 H80 0.932 . S
C114 C113 1.405 . S
C114 C115 1.383 . S
C115 C114 1.383 . S
C115 C116 1.393 . S
C116 H81 0.931 . S
C116 C115 1.393 . S
C116 C117 1.382 . S
C117 H82 0.929 . S
C117 C112 1.371 . S
C117 C116 1.382 . S
C118 N86 1.423 . S
C118 C119 1.362 . S
C118 C123 1.388 . S
C119 H83 0.929 . S
C119 C118 1.362 . S
C119 C120 1.376 . S
C120 H84 0.931 . S
C120 C119 1.376 . S
C120 C121 1.396 . S
C121 C103 1.472 . S
C121 C120 1.396 . S
C121 C122 1.348 . S
C122 H85 0.929 . S
C122 C121 1.348 . S
C122 C123 1.443 . S
C123 H87 0.932 . S
C123 C118 1.388 . S
C123 C122 1.443 . S
H124 C151 0.929 . S
N125 C150 1.433 . S
N125 C156 1.435 . S
N125 C162 1.423 . S
H126 C152 0.930 . S
H127 C155 0.931 . S
H128 C154 0.929 . S
H129 C157 0.930 . S
H130 C158 0.932 . S
H131 C161 0.929 . S
H132 C160 0.931 . S
H133 C163 0.929 . S
H134 C167 0.932 . S
H135 C164 0.931 . S
H136 C166 0.929 . S
H137 C169 0.929 . S
H138 C170 0.930 . S
H139 C172 0.929 . S
H140 C173 0.931 . S
H141 C175 0.930 . S
H142 C176 0.932 . S
H143 C178 0.931 . S
H144 C179 0.929 . S
H145 C181 0.929 . S
H146 C182 0.931 . S
H147 C184 0.929 . S
N148 C168 1.433 . S
N148 C174 1.435 . S
N148 C180 1.423 . S
H149 C185 0.932 . S
C150 N125 1.433 . S
C150 C151 1.363 . S
C150 C155 1.370 . S
C151 H124 0.929 . S
C151 C150 1.363 . S
C151 C152 1.385 . S
C152 H126 0.930 . S
C152 C151 1.385 . S
C152 C153 1.357 . S
C153 C152 1.357 . S
C153 C154 1.406 . S
C154 H128 0.929 . S
C154 C153 1.406 . S
C154 C155 1.391 . S
C155 H127 0.931 . S
C155 C150 1.370 . S
C155 C154 1.391 . S
C156 N125 1.435 . S
C156 C157 1.358 . S
C156 C161 1.371 . S
C157 H129 0.930 . S
C157 C156 1.358 . S
C157 C158 1.405 . S
C158 H130 0.932 . S
C158 C157 1.405 . S
C158 C159 1.383 . S
C159 C158 1.383 . S
C159 C160 1.393 . S
C160 H132 0.931 . S
C160 C159 1.393 . S
C160 C161 1.382 . S
C161 H131 0.929 . S
C161 C156 1.371 . S
C161 C160 1.382 . S
C162 N125 1.423 . S
C162 C163 1.362 . S
C162 C167 1.388 . S
C163 H133 0.929 . S
C163 C162 1.362 . S
C163 C164 1.376 . S
C164 H135 0.931 . S
C164 C163 1.376 . S
C164 C165 1.396 . S
C165 C164 1.396 . S
C165 C166 1.348 . S
C165 C183 1.472 . S
C166 H136 0.929 . S
C166 C165 1.348 . S
C166 C167 1.443 . S
C167 H134 0.932 . S
C167 C162 1.388 . S
C167 C166 1.443 . S
C168 N148 1.433 . S
C168 C169 1.363 . S
C168 C173 1.370 . S
C169 H137 0.929 . S
C169 C168 1.363 . S
C169 C170 1.385 . S
C170 H138 0.930 . S
C170 C169 1.385 . S
C170 C171 1.357 . S
C171 C170 1.357 . S
C171 C172 1.406 . S
C172 H139 0.929 . S
C172 C171 1.406 . S
C172 C173 1.391 . S
C173 H140 0.931 . S
C173 C168 1.370 . S
C173 C172 1.391 . S
C174 N148 1.435 . S
C174 C175 1.358 . S
C174 C179 1.371 . S
C175 H141 0.930 . S
C175 C174 1.358 . S
C175 C176 1.405 . S
C176 H142 0.932 . S
C176 C175 1.405 . S
C176 C177 1.383 . S
C177 C176 1.383 . S
C177 C178 1.393 . S
C178 H143 0.931 . S
C178 C177 1.393 . S
C178 C179 1.382 . S
C179 H144 0.929 . S
C179 C174 1.371 . S
C179 C178 1.382 . S
C180 N148 1.423 . S
C180 C181 1.362 . S
C180 C185 1.388 . S
C181 H145 0.929 . S
C181 C180 1.362 . S
C181 C182 1.376 . S
C182 H146 0.931 . S
C182 C181 1.376 . S
C182 C183 1.396 . S
C183 C165 1.472 . S
C183 C182 1.396 . S
C183 C184 1.348 . S
C184 H147 0.929 . S
C184 C183 1.348 . S
C184 C185 1.443 . S
C185 H149 0.932 . S
C185 C180 1.388 . S
C185 C184 1.443 . S
H186 C213 0.929 . S
N187 C212 1.433 . S
N187 C218 1.435 . S
N187 C224 1.423 . S
H188 C214 0.930 . S
H189 C217 0.931 . S
H190 C216 0.929 . S
H191 C219 0.930 . S
H192 C220 0.932 . S
H193 C223 0.929 . S
H194 C222 0.931 . S
H195 C225 0.929 . S
H196 C229 0.932 . S
H197 C226 0.931 . S
H198 C228 0.929 . S
H199 C231 0.929 . S
H200 C232 0.930 . S
H201 C234 0.929 . S
H202 C235 0.931 . S
H203 C237 0.930 . S
H204 C238 0.932 . S
H205 C240 0.931 . S
H206 C241 0.929 . S
H207 C243 0.929 . S
H208 C244 0.931 1_455 S
H209 C246 0.929 . S
N210 C230 1.433 . S
N210 C236 1.435 . S
N210 C242 1.423 . S
H211 C247 0.932 . S
C212 N187 1.433 . S
C212 C213 1.363 . S
C212 C217 1.370 . S
C213 H186 0.929 . S
C213 C212 1.363 . S
C213 C214 1.385 . S
C214 H188 0.930 . S
C214 C213 1.385 . S
C214 C215 1.357 . S
C215 C214 1.357 . S
C215 C216 1.406 . S
C216 H190 0.929 . S
C216 C215 1.406 . S
C216 C217 1.391 . S
C217 H189 0.931 . S
C217 C212 1.370 . S
C217 C216 1.391 . S
C218 N187 1.435 . S
C218 C219 1.358 . S
C218 C223 1.371 . S
C219 H191 0.930 . S
C219 C218 1.358 . S
C219 C220 1.405 . S
C220 H192 0.932 . S
C220 C219 1.405 . S
C220 C221 1.383 . S
C221 C220 1.383 . S
C221 C222 1.393 . S
C222 H194 0.931 . S
C222 C221 1.393 . S
C222 C223 1.382 . S
C223 H193 0.929 . S
C223 C218 1.371 . S
C223 C222 1.382 . S
C224 N187 1.423 . S
C224 C225 1.362 . S
C224 C229 1.388 . S
C225 H195 0.929 . S
C225 C224 1.362 . S
C225 C226 1.376 . S
C226 H197 0.931 . S
C226 C225 1.376 . S
C226 C227 1.396 . S
C227 C226 1.396 . S
C227 C228 1.348 . S
C227 C245 1.425 1_455 S
C228 H198 0.929 . S
C228 C227 1.348 . S
C228 C229 1.443 . S
C229 H196 0.932 . S
C229 C224 1.388 . S
C229 C228 1.443 . S
C230 N210 1.433 . S
C230 C231 1.363 . S
C230 C235 1.370 . S
C231 H199 0.929 . S
C231 C230 1.363 . S
C231 C232 1.385 . S
C232 H200 0.930 . S
C232 C231 1.385 . S
C232 C233 1.357 . S
C233 C232 1.357 . S
C233 C234 1.406 . S
C234 H201 0.929 . S
C234 C233 1.406 . S
C234 C235 1.391 . S
C235 H202 0.931 . S
C235 C230 1.370 . S
C235 C234 1.391 . S
C236 N210 1.435 . S
C236 C237 1.358 . S
C236 C241 1.371 . S
C237 H203 0.930 . S
C237 C236 1.358 . S
C237 C238 1.405 . S
C238 H204 0.932 . S
C238 C237 1.405 . S
C238 C239 1.383 . S
C239 C238 1.383 . S
C239 C240 1.393 . S
C240 H205 0.931 . S
C240 C239 1.393 . S
C240 C241 1.382 . S
C241 H206 0.929 . S
C241 C236 1.371 . S
C241 C240 1.382 . S
C242 N210 1.423 . S
C242 C243 1.362 . S
C242 C247 1.388 . S
C243 H207 0.929 . S
C243 C242 1.362 . S
C243 C244 1.376 . S
C244 H208 0.931 1_655 S
C244 C243 1.376 . S
C244 C245 1.428 . S
C245 C227 1.425 1_655 S
C245 C244 1.428 . S
C245 C246 1.367 . S
C246 H209 0.929 . S
C246 C245 1.367 . S
C246 C247 1.443 . S
C247 H211 0.932 . S
C247 C242 1.388 . S
C247 C246 1.443 . S
H248 C275 0.929 . S
N249 C274 1.433 . S
N249 C280 1.435 . S
N249 C286 1.423 . S
H250 C276 0.930 . S
H251 C279 0.931 . S
H252 C278 0.929 . S
H253 C281 0.930 . S
H254 C282 0.932 . S
H255 C285 0.929 . S
H256 C284 0.931 . S
H257 C287 0.929 . S
H258 C291 0.932 . S
H259 C288 0.931 . S
H260 C290 0.929 . S
H261 C293 0.929 . S
H262 C294 0.930 . S
H263 C296 0.929 . S
H264 C297 0.931 . S
H265 C299 0.930 1_554 S
H266 C300 0.932 . S
H267 C302 0.931 . S
H268 C303 0.929 . S
H269 C305 0.929 . S
H270 C306 0.931 1_554 S
H271 C308 0.929 . S
N272 C292 1.433 . S
N272 C298 1.435 1_554 S
N272 C304 1.423 1_554 S
H273 C309 0.932 . S
C274 N249 1.433 . S
C274 C275 1.363 . S
C274 C279 1.370 . S
C275 H248 0.929 . S
C275 C274 1.363 . S
C275 C276 1.385 . S
C276 H250 0.930 . S
C276 C275 1.385 . S
C276 C277 1.357 1_556 S
C277 C276 1.357 1_554 S
C277 C278 1.406 . S
C278 H252 0.929 . S
C278 C277 1.406 . S
C278 C279 1.391 1_554 S
C279 H251 0.931 . S
C279 C274 1.370 . S
C279 C278 1.391 1_556 S
C280 N249 1.435 . S
C280 C281 1.358 . S
C280 C285 1.371 . S
C281 H253 0.930 . S
C281 C280 1.358 . S
C281 C282 1.405 . S
C282 H254 0.932 . S
C282 C281 1.405 . S
C282 C283 1.383 . S
C283 C282 1.383 . S
C283 C284 1.393 . S
C284 H256 0.931 . S
C284 C283 1.393 . S
C284 C285 1.382 . S
C285 H255 0.929 . S
C285 C280 1.371 . S
C285 C284 1.382 . S
C286 N249 1.423 . S
C286 C287 1.362 . S
C286 C291 1.388 . S
C287 H257 0.929 . S
C287 C286 1.362 . S
C287 C288 1.376 . S
C288 H259 0.931 . S
C288 C287 1.376 . S
C288 C289 1.396 . S
C289 C288 1.396 . S
C289 C290 1.348 . S
C289 C307 1.472 1_545 S
C290 H260 0.929 . S
C290 C289 1.348 . S
C290 C291 1.443 . S
C291 H258 0.932 . S
C291 C286 1.388 . S
C291 C290 1.443 . S
C292 N272 1.433 . S
C292 C293 1.363 . S
C292 C297 1.370 . S
C293 H261 0.929 . S
C293 C292 1.363 . S
C293 C294 1.385 . S
C294 H262 0.930 . S
C294 C293 1.385 . S
C294 C295 1.357 . S
C295 C294 1.357 . S
C295 C296 1.406 . S
C296 H263 0.929 . S
C296 C295 1.406 . S
C296 C297 1.391 . S
C297 H264 0.931 . S
C297 C292 1.370 . S
C297 C296 1.391 . S
C298 N272 1.435 1_556 S
C298 C299 1.358 . S
C298 C303 1.371 . S
C299 H265 0.930 1_556 S
C299 C298 1.358 . S
C299 C300 1.405 . S
C300 H266 0.932 . S
C300 C299 1.405 . S
C300 C301 1.383 . S
C301 C300 1.383 . S
C301 C302 1.393 . S
C302 H267 0.931 . S
C302 C301 1.393 . S
C302 C303 1.382 . S
C303 H268 0.929 . S
C303 C298 1.371 . S
C303 C302 1.382 . S
C304 N272 1.423 1_556 S
C304 C305 1.362 1_556 S
C304 C309 1.388 . S
C305 H269 0.929 . S
C305 C304 1.362 1_554 S
C305 C306 1.376 1_554 S
C306 H270 0.931 1_556 S
C306 C305 1.376 1_556 S
C306 C307 1.396 . S
C307 C289 1.472 1_565 S
C307 C306 1.396 . S
C307 C308 1.348 . S
C308 H271 0.929 . S
C308 C307 1.348 . S
C308 C309 1.443 . S
C309 H273 0.932 . S
C309 C304 1.388 . S
C309 C308 1.443 . S
H310 C337 0.929 . S
N311 C336 1.433 . S
N311 C342 1.435 . S
N311 C348 1.423 . S
H312 C338 0.930 . S
H313 C341 0.931 . S
H314 C340 0.929 . S
H315 C343 0.930 . S
H316 C344 0.932 . S
H317 C347 0.929 . S
H318 C346 0.931 . S
H319 C349 0.929 . S
H320 C353 0.932 . S
H321 C350 0.931 . S
H322 C352 0.929 . S
H323 C355 0.929 . S
H324 C356 0.930 . S
H325 C358 0.929 . S
H326 C359 0.931 . S
H327 C361 0.930 . S
H328 C362 0.932 . S
H329 C364 0.931 . S
H330 C365 0.929 . S
H331 C367 0.929 . S
H332 C368 0.931 . S
H333 C370 0.929 . S
N334 C354 1.433 . S
N334 C360 1.435 . S
N334 C366 1.423 . S
H335 C371 0.932 . S
C336 N311 1.433 . S
C336 C337 1.363 . S
C336 C341 1.370 . S
C337 H310 0.929 . S
C337 C336 1.363 . S
C337 C338 1.385 . S
C338 H312 0.930 . S
C338 C337 1.385 . S
C338 C339 1.357 . S
C339 C338 1.357 . S
C339 C340 1.406 . S
C340 H314 0.929 . S
C340 C339 1.406 . S
C340 C341 1.391 . S
C341 H313 0.931 . S
C341 C336 1.370 . S
C341 C340 1.391 . S
C342 N311 1.435 . S
C342 C343 1.358 . S
C342 C347 1.371 . S
C343 H315 0.930 . S
C343 C342 1.358 . S
C343 C344 1.405 . S
C344 H316 0.932 . S
C344 C343 1.405 . S
C344 C345 1.383 . S
C345 C344 1.383 . S
C345 C346 1.393 . S
C346 H318 0.931 . S
C346 C345 1.393 . S
C346 C347 1.382 . S
C347 H317 0.929 . S
C347 C342 1.371 . S
C347 C346 1.382 . S
C348 N311 1.423 . S
C348 C349 1.362 . S
C348 C353 1.388 . S
C349 H319 0.929 . S
C349 C348 1.362 . S
C349 C350 1.376 . S
C350 H321 0.931 . S
C350 C349 1.376 . S
C350 C351 1.396 . S
C351 C350 1.396 . S
C351 C352 1.348 . S
C351 C369 1.472 . S
C352 H322 0.929 . S
C352 C351 1.348 . S
C352 C353 1.443 . S
C353 H320 0.932 . S
C353 C348 1.388 . S
C353 C352 1.443 . S
C354 N334 1.433 . S
C354 C355 1.363 . S
C354 C359 1.370 . S
C355 H323 0.929 . S
C355 C354 1.363 . S
C355 C356 1.385 . S
C356 H324 0.930 . S
C356 C355 1.385 . S
C356 C357 1.357 . S
C357 C356 1.357 . S
C357 C358 1.406 . S
C358 H325 0.929 . S
C358 C357 1.406 . S
C358 C359 1.391 . S
C359 H326 0.931 . S
C359 C354 1.370 . S
C359 C358 1.391 . S
C360 N334 1.435 . S
C360 C361 1.358 . S
C360 C365 1.371 . S
C361 H327 0.930 . S
C361 C360 1.358 . S
C361 C362 1.405 . S
C362 H328 0.932 . S
C362 C361 1.405 . S
C362 C363 1.383 . S
C363 C362 1.383 . S
C363 C364 1.393 . S
C364 H329 0.931 . S
C364 C363 1.393 . S
C364 C365 1.382 . S
C365 H330 0.929 . S
C365 C360 1.371 . S
C365 C364 1.382 . S
C366 N334 1.423 . S
C366 C367 1.362 . S
C366 C371 1.388 . S
C367 H331 0.929 . S
C367 C366 1.362 . S
C367 C368 1.376 . S
C368 H332 0.931 . S
C368 C367 1.376 . S
C368 C369 1.396 . S
C369 C351 1.472 . S
C369 C368 1.396 . S
C369 C370 1.348 . S
C370 H333 0.929 . S
C370 C369 1.348 . S
C370 C371 1.443 . S
C371 H335 0.932 . S
C371 C366 1.388 . S
C371 C370 1.443 . S
Co372 O373 2.216 . S
Co372 O374 2.091 . S
Co372 O376 2.004 . S
Co372 O382 2.021 . S
Co372 O384 2.137 . S
Co372 O385 2.244 . S
O373 Co372 2.216 . S
O373 C380 1.247 . S
O374 Co372 2.091 . S
O374 C380 1.261 . S
C375 O384 1.247 . S
C375 O385 1.272 . S
O376 Co372 2.004 . S
O376 C381 1.259 . S
Co377 O378 2.061 . S
Co377 O383 2.052 . S
Co377 O385 2.135 . S
O378 Co377 2.061 . S
O378 C381 1.235 . S
C379 O382 1.238 . S
C379 O383 1.241 . S
C380 O373 1.247 . S
C380 O374 1.261 . S
C381 O376 1.259 . S
C381 O378 1.235 . S
O382 Co372 2.021 . S
O382 C379 1.238 . S
O383 Co377 2.052 . S
O383 C379 1.241 . S
O384 Co372 2.137 . S
O384 C375 1.247 . S
O385 Co372 2.244 . S
O385 C375 1.272 . S
O385 Co377 2.135 . S
Co386 O387 2.216 . S
Co386 O388 2.091 . S
Co386 O390 2.004 . S
Co386 O396 2.021 . S
Co386 O398 2.137 . S
Co386 O399 2.244 . S
O387 Co386 2.216 . S
O387 C394 1.247 . S
O388 Co386 2.091 . S
O388 C394 1.261 . S
C389 O398 1.247 . S
C389 O399 1.272 . S
O390 Co386 2.004 . S
O390 C395 1.259 . S
Co391 O392 2.061 . S
Co391 O397 2.052 . S
Co391 O399 2.135 . S
O392 Co391 2.061 . S
O392 C395 1.235 . S
C393 O396 1.238 . S
C393 O397 1.241 . S
C394 O387 1.247 . S
C394 O388 1.261 . S
C395 O390 1.259 . S
C395 O392 1.235 . S
O396 Co386 2.021 . S
O396 C393 1.238 . S
O397 Co391 2.052 . S
O397 C393 1.241 . S
O398 Co386 2.137 . S
O398 C389 1.247 . S
O399 Co386 2.244 . S
O399 C389 1.272 . S
O399 Co391 2.135 . S
Co400 O401 2.216 . S
Co400 O402 2.091 . S
Co400 O404 2.004 . S
Co400 O410 2.021 . S
Co400 O412 2.137 . S
Co400 O413 2.244 . S
O401 Co400 2.216 . S
O401 C408 1.247 . S
O402 Co400 2.091 . S
O402 C408 1.261 . S
C403 O412 1.247 . S
C403 O413 1.272 . S
O404 Co400 2.004 . S
O404 C409 1.259 . S
Co405 O406 2.061 . S
Co405 O411 2.052 . S
Co405 O413 2.135 . S
O406 Co405 2.061 . S
O406 C409 1.235 . S
C407 O410 1.238 . S
C407 O411 1.241 . S
C408 O401 1.247 . S
C408 O402 1.261 . S
C409 O404 1.259 . S
C409 O406 1.235 . S
O410 Co400 2.021 . S
O410 C407 1.238 . S
O411 Co405 2.052 . S
O411 C407 1.241 . S
O412 Co400 2.137 . S
O412 C403 1.247 . S
O413 Co400 2.244 . S
O413 C403 1.272 . S
O413 Co405 2.135 . S
Co414 O415 2.216 . S
Co414 O416 2.091 . S
Co414 O418 2.004 . S
Co414 O424 2.021 . S
Co414 O426 2.137 . S
Co414 O427 2.244 . S
O415 Co414 2.216 . S
O415 C422 1.247 . S
O416 Co414 2.091 . S
O416 C422 1.261 . S
C417 O426 1.247 . S
C417 O427 1.272 . S
O418 Co414 2.004 . S
O418 C423 1.259 . S
Co419 O420 2.061 . S
Co419 O425 2.052 . S
Co419 O427 2.135 . S
O420 Co419 2.061 . S
O420 C423 1.235 . S
C421 O424 1.238 . S
C421 O425 1.241 . S
C422 O415 1.247 . S
C422 O416 1.261 . S
C423 O418 1.259 . S
C423 O420 1.235 . S
O424 Co414 2.021 . S
O424 C421 1.238 . S
O425 Co419 2.052 . S
O425 C421 1.241 . S
O426 Co414 2.137 . S
O426 C417 1.247 . S
O427 Co414 2.244 . S
O427 C417 1.272 . S
O427 Co419 2.135 . S
Co428 O429 2.216 . S
Co428 O430 2.091 . S
Co428 O432 2.004 . S
Co428 O438 2.021 . S
Co428 O440 2.137 . S
Co428 O441 2.244 . S
O429 Co428 2.216 . S
O429 C436 1.247 . S
O430 Co428 2.091 . S
O430 C436 1.261 . S
C431 O440 1.247 . S
C431 O441 1.272 . S
O432 Co428 2.004 . S
O432 C437 1.259 . S
Co433 O434 2.061 . S
Co433 O439 2.052 . S
Co433 O441 2.135 . S
O434 Co433 2.061 . S
O434 C437 1.235 . S
C435 O438 1.238 . S
C435 O439 1.241 . S
C436 O429 1.247 . S
C436 O430 1.261 . S
C437 O432 1.259 . S
C437 O434 1.235 . S
O438 Co428 2.021 . S
O438 C435 1.238 . S
O439 Co433 2.052 . S
O439 C435 1.241 . S
O440 Co428 2.137 . S
O440 C431 1.247 . S
O441 Co428 2.244 . S
O441 C431 1.272 . S
O441 Co433 2.135 . S
Co442 O443 2.216 . S
Co442 O444 2.091 . S
Co442 O446 2.004 . S
Co442 O452 2.021 . S
Co442 O454 2.137 . S
Co442 O455 2.244 . S
O443 Co442 2.216 . S
O443 C450 1.247 . S
O444 Co442 2.091 . S
O444 C450 1.261 . S
C445 O454 1.247 . S
C445 O455 1.272 . S
O446 Co442 2.004 . S
O446 C451 1.259 . S
Co447 O448 2.061 . S
Co447 O453 2.052 . S
Co447 O455 2.135 . S
O448 Co447 2.061 . S
O448 C451 1.235 . S
C449 O452 1.238 . S
C449 O453 1.241 . S
C450 O443 1.247 . S
C450 O444 1.261 . S
C451 O446 1.259 . S
C451 O448 1.235 . S
O452 Co442 2.021 . S
O452 C449 1.238 . S
O453 Co447 2.052 . S
O453 C449 1.241 . S
O454 Co442 2.137 . S
O454 C445 1.247 . S
O455 Co442 2.244 . S
O455 C445 1.272 . S
O455 Co447 2.135 . S
H456 C464 0.929 . S
H457 C466 0.930 . S
H458 C468 0.930 . S
H459 C471 0.929 . S
H460 C474 0.930 . S
H461 C476 0.960 . S
H462 C476 0.960 . S
H463 C476 0.960 . S
C464 H456 0.929 . S
C464 C465 1.377 . S
C464 C466 1.384 . S
C465 C464 1.377 . S
C465 C471 1.390 . S
C466 H457 0.930 . S
C466 C464 1.384 . S
C466 C467 1.372 . S
C467 C466 1.372 . S
C467 C468 1.400 . S
C467 C472 1.490 . S
C468 H458 0.930 . S
C468 C467 1.400 . S
C468 C471 1.386 . S
H469 C485 0.930 . S
H470 C486 0.931 . S
C471 H459 0.929 . S
C471 C465 1.390 . S
C471 C468 1.386 . S
C472 C467 1.490 . S
C472 C474 1.395 . S
C472 C475 1.403 . S
H473 C479 0.930 . S
C474 H460 0.930 . S
C474 C472 1.395 . S
C474 C477 1.403 . S
C475 C472 1.403 . S
C475 C476 1.524 . S
C475 C479 1.400 . S
C476 H461 0.960 . S
C476 H462 0.960 . S
C476 H463 0.960 . S
C476 C475 1.524 . S
C477 C474 1.403 . S
C477 C478 1.392 . S
C477 C481 1.495 . S
C478 C477 1.392 . S
C478 C479 1.385 . S
C478 C480 1.478 . S
C479 H473 0.930 . S
C479 C475 1.400 . S
C479 C478 1.385 . S
C480 C478 1.478 . S
C480 C482 1.381 . S
C480 C486 1.383 . S
C481 C477 1.495 . S
C481 H487 0.959 . S
C481 H488 0.961 . S
C481 H489 0.960 . S
C482 C480 1.381 . S
C482 C483 1.394 . S
C482 H490 0.930 . S
C483 C482 1.394 . S
C483 C484 1.383 . S
C483 H491 0.929 . S
C484 C483 1.383 . S
C484 C485 1.377 . S
C485 H469 0.930 . S
C485 C484 1.377 . S
C485 C486 1.379 . S
C486 H470 0.931 . S
C486 C480 1.383 . S
C486 C485 1.379 . S
H487 C481 0.959 . S
H488 C481 0.961 . S
H489 C481 0.960 . S
H490 C482 0.930 . S
H491 C483 0.929 . S
H492 C500 0.929 . S
H493 C502 0.930 . S
H494 C504 0.930 . S
H495 C507 0.929 . S
H496 C510 0.930 . S
H497 C512 0.960 . S
H498 C512 0.960 . S
H499 C512 0.960 . S
C500 H492 0.929 . S
C500 C501 1.377 . S
C500 C502 1.384 . S
C501 C500 1.377 . S
C501 C507 1.390 . S
C502 H493 0.930 . S
C502 C500 1.384 . S
C502 C503 1.372 . S
C503 C502 1.372 . S
C503 C504 1.400 . S
C503 C508 1.490 . S
C504 H494 0.930 . S
C504 C503 1.400 . S
C504 C507 1.386 . S
H505 C521 0.930 . S
H506 C522 0.931 . S
C507 H495 0.929 . S
C507 C501 1.390 . S
C507 C504 1.386 . S
C508 C503 1.490 . S
C508 C510 1.395 . S
C508 C511 1.403 . S
H509 C515 0.930 . S
C510 H496 0.930 . S
C510 C508 1.395 . S
C510 C513 1.403 . S
C511 C508 1.403 . S
C511 C512 1.524 . S
C511 C515 1.400 . S
C512 H497 0.960 . S
C512 H498 0.960 . S
C512 H499 0.960 . S
C512 C511 1.524 . S
C513 C510 1.403 . S
C513 C514 1.392 . S
C513 C517 1.495 . S
C514 C513 1.392 . S
C514 C515 1.385 . S
C514 C516 1.478 . S
C515 H509 0.930 . S
C515 C511 1.400 . S
C515 C514 1.385 . S
C516 C514 1.478 . S
C516 C518 1.381 . S
C516 C522 1.383 . S
C517 C513 1.495 . S
C517 H523 0.959 . S
C517 H524 0.961 . S
C517 H525 0.960 . S
C518 C516 1.381 . S
C518 C519 1.394 . S
C518 H526 0.930 . S
C519 C518 1.394 . S
C519 C520 1.383 . S
C519 H527 0.929 . S
C520 C519 1.383 . S
C520 C521 1.377 . S
C521 H505 0.930 . S
C521 C520 1.377 . S
C521 C522 1.379 . S
C522 H506 0.931 . S
C522 C516 1.383 . S
C522 C521 1.379 . S
H523 C517 0.959 . S
H524 C517 0.961 . S
H525 C517 0.960 . S
H526 C518 0.930 . S
H527 C519 0.929 . S
H528 C536 0.929 . S
H529 C538 0.930 . S
H530 C540 0.930 . S
H531 C543 0.929 . S
H532 C546 0.930 . S
H533 C548 0.960 . S
H534 C548 0.960 . S
H535 C548 0.960 . S
C536 H528 0.929 . S
C536 C537 1.377 . S
C536 C538 1.384 . S
C537 C536 1.377 . S
C537 C543 1.390 . S
C538 H529 0.930 . S
C538 C536 1.384 . S
C538 C539 1.372 . S
C539 C538 1.372 . S
C539 C540 1.400 . S
C539 C544 1.490 . S
C540 H530 0.930 . S
C540 C539 1.400 . S
C540 C543 1.386 . S
H541 C557 0.930 . S
H542 C558 0.931 . S
C543 H531 0.929 . S
C543 C537 1.390 . S
C543 C540 1.386 . S
C544 C539 1.490 . S
C544 C546 1.395 . S
C544 C547 1.403 . S
H545 C551 0.930 . S
C546 H532 0.930 . S
C546 C544 1.395 . S
C546 C549 1.403 . S
C547 C544 1.403 . S
C547 C548 1.524 . S
C547 C551 1.400 . S
C548 H533 0.960 . S
C548 H534 0.960 . S
C548 H535 0.960 . S
C548 C547 1.524 . S
C549 C546 1.403 . S
C549 C550 1.392 . S
C549 C553 1.495 . S
C550 C549 1.392 . S
C550 C551 1.385 . S
C550 C552 1.478 . S
C551 H545 0.930 . S
C551 C547 1.400 . S
C551 C550 1.385 . S
C552 C550 1.478 . S
C552 C554 1.381 . S
C552 C558 1.383 . S
C553 C549 1.495 . S
C553 H559 0.959 . S
C553 H560 0.961 . S
C553 H561 0.960 . S
C554 C552 1.381 . S
C554 C555 1.394 . S
C554 H562 0.930 . S
C555 C554 1.394 . S
C555 C556 1.383 . S
C555 H563 0.929 . S
C556 C555 1.383 . S
C556 C557 1.377 . S
C557 H541 0.930 . S
C557 C556 1.377 . S
C557 C558 1.379 . S
C558 H542 0.931 . S
C558 C552 1.383 . S
C558 C557 1.379 . S
H559 C553 0.959 . S
H560 C553 0.961 . S
H561 C553 0.960 . S
H562 C554 0.930 . S
H563 C555 0.929 . S
H564 C572 0.929 . S
H565 C574 0.930 . S
H566 C576 0.930 . S
H567 C579 0.929 . S
H568 C582 0.930 . S
H569 C584 0.960 . S
H570 C584 0.960 . S
H571 C584 0.960 . S
C572 H564 0.929 . S
C572 C573 1.377 . S
C572 C574 1.384 . S
C573 C572 1.377 . S
C573 C579 1.390 . S
C574 H565 0.930 . S
C574 C572 1.384 . S
C574 C575 1.372 . S
C575 C574 1.372 . S
C575 C576 1.400 . S
C575 C580 1.490 . S
C576 H566 0.930 . S
C576 C575 1.400 . S
C576 C579 1.386 . S
H577 C593 0.930 . S
H578 C594 0.931 . S
C579 H567 0.929 . S
C579 C573 1.390 . S
C579 C576 1.386 . S
C580 C575 1.490 . S
C580 C582 1.395 . S
C580 C583 1.403 . S
H581 C587 0.930 . S
C582 H568 0.930 . S
C582 C580 1.395 . S
C582 C585 1.403 . S
C583 C580 1.403 . S
C583 C584 1.524 . S
C583 C587 1.400 . S
C584 H569 0.960 . S
C584 H570 0.960 . S
C584 H571 0.960 . S
C584 C583 1.524 . S
C585 C582 1.403 . S
C585 C586 1.392 . S
C585 C589 1.495 . S
C586 C585 1.392 . S
C586 C587 1.385 . S
C586 C588 1.478 . S
C587 H581 0.930 . S
C587 C583 1.400 . S
C587 C586 1.385 . S
C588 C586 1.478 . S
C588 C590 1.381 . S
C588 C594 1.383 . S
C589 C585 1.495 . S
C589 H595 0.959 . S
C589 H596 0.961 . S
C589 H597 0.960 . S
C590 C588 1.381 . S
C590 C591 1.394 . S
C590 H598 0.930 . S
C591 C590 1.394 . S
C591 C592 1.383 . S
C591 H599 0.929 . S
C592 C591 1.383 . S
C592 C593 1.377 . S
C593 H577 0.930 . S
C593 C592 1.377 . S
C593 C594 1.379 . S
C594 H578 0.931 . S
C594 C588 1.383 . S
C594 C593 1.379 . S
H595 C589 0.959 . S
H596 C589 0.961 . S
H597 C589 0.960 . S
H598 C590 0.930 . S
H599 C591 0.929 . S
H600 C608 0.929 . S
H601 C610 0.930 . S
H602 C612 0.930 . S
H603 C615 0.929 . S
H604 C618 0.930 . S
H605 C620 0.960 . S
H606 C620 0.960 . S
H607 C620 0.960 . S
C608 H600 0.929 . S
C608 C609 1.377 . S
C608 C610 1.384 . S
C609 C608 1.377 . S
C609 C615 1.390 . S
C610 H601 0.930 . S
C610 C608 1.384 . S
C610 C611 1.372 . S
C611 C610 1.372 . S
C611 C612 1.400 . S
C611 C616 1.490 . S
C612 H602 0.930 . S
C612 C611 1.400 . S
C612 C615 1.386 . S
H613 C629 0.930 . S
H614 C630 0.931 . S
C615 H603 0.929 . S
C615 C609 1.390 . S
C615 C612 1.386 . S
C616 C611 1.490 . S
C616 C618 1.395 . S
C616 C619 1.403 . S
H617 C623 0.930 . S
C618 H604 0.930 . S
C618 C616 1.395 . S
C618 C621 1.403 . S
C619 C616 1.403 . S
C619 C620 1.524 . S
C619 C623 1.400 . S
C620 H605 0.960 . S
C620 H606 0.960 . S
C620 H607 0.960 . S
C620 C619 1.524 . S
C621 C618 1.403 . S
C621 C622 1.392 . S
C621 C625 1.495 . S
C622 C621 1.392 . S
C622 C623 1.385 . S
C622 C624 1.478 . S
C623 H617 0.930 . S
C623 C619 1.400 . S
C623 C622 1.385 . S
C624 C622 1.478 . S
C624 C626 1.381 . S
C624 C630 1.383 . S
C625 C621 1.495 . S
C625 H631 0.959 . S
C625 H632 0.961 . S
C625 H633 0.960 . S
C626 C624 1.381 . S
C626 C627 1.394 . S
C626 H634 0.930 . S
C627 C626 1.394 . S
C627 C628 1.383 . S
C627 H635 0.929 . S
C628 C627 1.383 . S
C628 C629 1.377 . S
C629 H613 0.930 . S
C629 C628 1.377 . S
C629 C630 1.379 . S
C630 H614 0.931 . S
C630 C624 1.383 . S
C630 C629 1.379 . S
H631 C625 0.959 . S
H632 C625 0.961 . S
H633 C625 0.960 . S
H634 C626 0.930 . S
H635 C627 0.929 . S
H636 C644 0.929 . S
H637 C646 0.930 . S
H638 C648 0.930 . S
H639 C651 0.929 . S
H640 C654 0.930 . S
H641 C656 0.960 . S
H642 C656 0.960 . S
H643 C656 0.960 . S
C644 H636 0.929 . S
C644 C645 1.377 . S
C644 C646 1.384 . S
C645 C644 1.377 . S
C645 C651 1.390 . S
C646 H637 0.930 . S
C646 C644 1.384 . S
C646 C647 1.372 . S
C647 C646 1.372 . S
C647 C648 1.400 . S
C647 C652 1.490 . S
C648 H638 0.930 . S
C648 C647 1.400 . S
C648 C651 1.386 . S
H649 C665 0.930 . S
H650 C666 0.931 . S
C651 H639 0.929 . S
C651 C645 1.390 . S
C651 C648 1.386 . S
C652 C647 1.490 . S
C652 C654 1.395 . S
C652 C655 1.403 . S
H653 C659 0.930 . S
C654 H640 0.930 . S
C654 C652 1.395 . S
C654 C657 1.403 . S
C655 C652 1.403 . S
C655 C656 1.524 . S
C655 C659 1.400 . S
C656 H641 0.960 . S
C656 H642 0.960 . S
C656 H643 0.960 . S
C656 C655 1.524 . S
C657 C654 1.403 . S
C657 C658 1.392 . S
C657 C661 1.495 . S
C658 C657 1.392 . S
C658 C659 1.385 . S
C658 C660 1.478 . S
C659 H653 0.930 . S
C659 C655 1.400 . S
C659 C658 1.385 . S
C660 C658 1.478 . S
C660 C662 1.381 . S
C660 C666 1.383 . S
C661 C657 1.495 . S
C661 H667 0.959 . S
C661 H668 0.961 . S
C661 H669 0.960 . S
C662 C660 1.381 . S
C662 C663 1.394 . S
C662 H670 0.930 . S
C663 C662 1.394 . S
C663 C664 1.383 . S
C663 H671 0.929 . S
C664 C663 1.383 . S
C664 C665 1.377 . S
C665 H649 0.930 . S
C665 C664 1.377 . S
C665 C666 1.379 . S
C666 H650 0.931 . S
C666 C660 1.383 . S
C666 C665 1.379 . S
H667 C661 0.959 . S
H668 C661 0.961 . S
H669 C661 0.960 . S
H670 C662 0.930 . S
H671 C663 0.929 . S
H672 C680 0.929 . S
H673 C682 0.930 . S
H674 C684 0.930 . S
H675 C687 0.929 . S
H676 C690 0.930 . S
H677 C692 0.960 . S
H678 C692 0.960 . S
H679 C692 0.960 . S
C680 H672 0.929 . S
C680 C681 1.377 . S
C680 C682 1.384 . S
C681 C680 1.377 . S
C681 C687 1.390 . S
C682 H673 0.930 . S
C682 C680 1.384 . S
C682 C683 1.372 . S
C683 C682 1.372 . S
C683 C684 1.400 . S
C683 C688 1.490 . S
C684 H674 0.930 . S
C684 C683 1.400 . S
C684 C687 1.386 . S
H685 C701 0.930 . S
H686 C702 0.931 . S
C687 H675 0.929 . S
C687 C681 1.390 . S
C687 C684 1.386 . S
C688 C683 1.490 . S
C688 C690 1.395 . S
C688 C691 1.403 . S
H689 C695 0.930 . S
C690 H676 0.930 . S
C690 C688 1.395 . S
C690 C693 1.403 . S
C691 C688 1.403 . S
C691 C692 1.524 . S
C691 C695 1.400 . S
C692 H677 0.960 . S
C692 H678 0.960 . S
C692 H679 0.960 . S
C692 C691 1.524 . S
C693 C690 1.403 . S
C693 C694 1.392 . S
C693 C697 1.495 . S
C694 C693 1.392 . S
C694 C695 1.385 . S
C694 C696 1.478 . S
C695 H689 0.930 . S
C695 C691 1.400 . S
C695 C694 1.385 . S
C696 C694 1.478 . S
C696 C698 1.381 . S
C696 C702 1.383 . S
C697 C693 1.495 . S
C697 H703 0.959 . S
C697 H704 0.961 . S
C697 H705 0.960 . S
C698 C696 1.381 . S
C698 C699 1.394 . S
C698 H706 0.930 . S
C699 C698 1.394 . S
C699 C700 1.383 . S
C699 H707 0.929 . S
C700 C699 1.383 . S
C700 C701 1.377 . S
C701 H685 0.930 . S
C701 C700 1.377 . S
C701 C702 1.379 . S
C702 H686 0.931 . S
C702 C696 1.383 . S
C702 C701 1.379 . S
H703 C697 0.959 . S
H704 C697 0.961 . S
H705 C697 0.960 . S
H706 C698 0.930 . S
H707 C699 0.929 . S
H708 C716 0.929 . S
H709 C718 0.930 . S
H710 C720 0.930 . S
H711 C723 0.929 . S
H712 C726 0.930 . S
H713 C728 0.960 . S
H714 C728 0.960 . S
H715 C728 0.960 . S
C716 H708 0.929 . S
C716 C717 1.377 . S
C716 C718 1.384 . S
C717 C716 1.377 . S
C717 C723 1.390 . S
C718 H709 0.930 . S
C718 C716 1.384 . S
C718 C719 1.372 . S
C719 C718 1.372 . S
C719 C720 1.400 . S
C719 C724 1.490 . S
C720 H710 0.930 . S
C720 C719 1.400 . S
C720 C723 1.386 . S
H721 C737 0.930 . S
H722 C738 0.931 . S
C723 H711 0.929 . S
C723 C717 1.390 . S
C723 C720 1.386 . S
C724 C719 1.490 . S
C724 C726 1.395 . S
C724 C727 1.403 . S
H725 C731 0.930 . S
C726 H712 0.930 . S
C726 C724 1.395 . S
C726 C729 1.403 . S
C727 C724 1.403 . S
C727 C728 1.524 . S
C727 C731 1.400 . S
C728 H713 0.960 . S
C728 H714 0.960 . S
C728 H715 0.960 . S
C728 C727 1.524 . S
C729 C726 1.403 . S
C729 C730 1.392 . S
C729 C733 1.495 . S
C730 C729 1.392 . S
C730 C731 1.385 . S
C730 C732 1.478 . S
C731 H725 0.930 . S
C731 C727 1.400 . S
C731 C730 1.385 . S
C732 C730 1.478 . S
C732 C734 1.381 . S
C732 C738 1.383 . S
C733 C729 1.495 . S
C733 H739 0.959 . S
C733 H740 0.961 . S
C733 H741 0.960 . S
C734 C732 1.381 . S
C734 C735 1.394 . S
C734 H742 0.930 . S
C735 C734 1.394 . S
C735 C736 1.383 . S
C735 H743 0.929 . S
C736 C735 1.383 . S
C736 C737 1.377 . S
C737 H721 0.930 . S
C737 C736 1.377 . S
C737 C738 1.379 . S
C738 H722 0.931 . S
C738 C732 1.383 . S
C738 C737 1.379 . S
H739 C733 0.959 . S
H740 C733 0.961 . S
H741 C733 0.960 . S
H742 C734 0.930 . S
H743 C735 0.929 . S
H744 C752 0.929 . S
H745 C754 0.930 . S
H746 C756 0.930 . S
H747 C759 0.929 . S
H748 C762 0.930 . S
H749 C764 0.960 . S
H750 C764 0.960 . S
H751 C764 0.960 . S
C752 H744 0.929 . S
C752 C753 1.377 . S
C752 C754 1.384 . S
C753 C752 1.377 . S
C753 C759 1.390 . S
C754 H745 0.930 . S
C754 C752 1.384 . S
C754 C755 1.372 . S
C755 C754 1.372 . S
C755 C756 1.400 . S
C755 C760 1.490 . S
C756 H746 0.930 . S
C756 C755 1.400 . S
C756 C759 1.386 . S
H757 C773 0.930 . S
H758 C774 0.931 . S
C759 H747 0.929 . S
C759 C753 1.390 . S
C759 C756 1.386 . S
C760 C755 1.490 . S
C760 C762 1.395 . S
C760 C763 1.403 . S
H761 C767 0.930 . S
C762 H748 0.930 . S
C762 C760 1.395 . S
C762 C765 1.403 . S
C763 C760 1.403 . S
C763 C764 1.524 . S
C763 C767 1.400 . S
C764 H749 0.960 . S
C764 H750 0.960 . S
C764 H751 0.960 . S
C764 C763 1.524 . S
C765 C762 1.403 . S
C765 C766 1.392 . S
C765 C769 1.495 . S
C766 C765 1.392 . S
C766 C767 1.385 . S
C766 C768 1.478 . S
C767 H761 0.930 . S
C767 C763 1.400 . S
C767 C766 1.385 . S
C768 C766 1.478 . S
C768 C770 1.381 . S
C768 C774 1.383 . S
C769 C765 1.495 . S
C769 H775 0.959 . S
C769 H776 0.961 . S
C769 H777 0.960 . S
C770 C768 1.381 . S
C770 C771 1.394 . S
C770 H778 0.930 . S
C771 C770 1.394 . S
C771 C772 1.383 . S
C771 H779 0.929 . S
C772 C771 1.383 . S
C772 C773 1.377 . S
C773 H757 0.930 . S
C773 C772 1.377 . S
C773 C774 1.379 . S
C774 H758 0.931 . S
C774 C768 1.383 . S
C774 C773 1.379 . S
H775 C769 0.959 . S
H776 C769 0.961 . S
H777 C769 0.960 . S
H778 C770 0.930 . S
H779 C771 0.929 . S
H780 C788 0.929 . S
H781 C790 0.930 . S
H782 C792 0.930 . S
H783 C795 0.920 1_556 S
H784 C798 0.930 . S
H785 C800 0.957 . S
H786 C800 0.959 1_554 S
H787 C800 0.957 . S
C788 H780 0.929 . S
C788 C789 1.377 . S
C788 C790 1.384 . S
C789 C788 1.377 . S
C789 C795 1.390 . S
C790 H781 0.930 . S
C790 C788 1.384 . S
C790 C791 1.372 . S
C791 C790 1.372 . S
C791 C792 1.400 . S
C791 C796 1.490 . S
C792 H782 0.930 . S
C792 C791 1.400 . S
C792 C795 1.386 . S
H793 C809 0.930 . S
H794 C810 0.931 . S
C795 H783 0.920 1_554 S
C795 C789 1.390 . S
C795 C792 1.386 . S
C796 C791 1.490 . S
C796 C798 1.395 . S
C796 C799 1.403 . S
H797 C803 0.930 . S
C798 H784 0.930 . S
C798 C796 1.395 . S
C798 C801 1.403 . S
C799 C796 1.403 . S
C799 C800 1.530 1_554 S
C799 C803 1.400 . S
C800 H785 0.957 . S
C800 H786 0.959 1_556 S
C800 H787 0.957 . S
C800 C799 1.530 1_556 S
C801 C798 1.403 . S
C801 C802 1.392 . S
C801 C805 1.495 . S
C802 C801 1.392 . S
C802 C803 1.385 . S
C802 C804 1.478 . S
C803 H797 0.930 . S
C803 C799 1.400 . S
C803 C802 1.385 . S
C804 C802 1.478 . S
C804 C806 1.381 . S
C804 C810 1.383 . S
C805 C801 1.495 . S
C805 H811 0.959 . S
C805 H812 0.961 . S
C805 H813 0.960 . S
C806 C804 1.381 . S
C806 C807 1.394 . S
C806 H814 0.930 . S
C807 C806 1.394 . S
C807 C808 1.383 . S
C807 H815 0.929 . S
C808 C807 1.383 . S
C808 C809 1.377 . S
C809 H793 0.930 . S
C809 C808 1.377 . S
C809 C810 1.379 . S
C810 H794 0.931 . S
C810 C804 1.383 . S
C810 C809 1.379 . S
H811 C805 0.959 . S
H812 C805 0.961 . S
H813 C805 0.960 . S
H814 C806 0.930 . S
H815 C807 0.929 . S
H816 C824 0.929 . S
H817 C826 0.930 . S
H818 C828 0.930 . S
H819 C831 0.929 . S
H820 C834 0.930 . S
H821 C836 0.960 . S
H822 C836 0.960 . S
H823 C836 0.960 . S
C824 H816 0.929 . S
C824 C825 1.377 . S
C824 C826 1.384 . S
C825 C824 1.377 . S
C825 C831 1.390 . S
C826 H817 0.930 . S
C826 C824 1.384 . S
C826 C827 1.372 . S
C827 C826 1.372 . S
C827 C828 1.400 . S
C827 C832 1.490 . S
C828 H818 0.930 . S
C828 C827 1.400 . S
C828 C831 1.386 . S
H829 C845 0.930 . S
H830 C846 0.931 . S
C831 H819 0.929 . S
C831 C825 1.390 . S
C831 C828 1.386 . S
C832 C827 1.490 . S
C832 C834 1.395 . S
C832 C835 1.403 . S
H833 C839 0.930 . S
C834 H820 0.930 . S
C834 C832 1.395 . S
C834 C837 1.403 . S
C835 C832 1.403 . S
C835 C836 1.524 . S
C835 C839 1.400 . S
C836 H821 0.960 . S
C836 H822 0.960 . S
C836 H823 0.960 . S
C836 C835 1.524 . S
C837 C834 1.403 . S
C837 C838 1.392 . S
C837 C841 1.495 . S
C838 C837 1.392 . S
C838 C839 1.385 . S
C838 C840 1.478 . S
C839 H833 0.930 . S
C839 C835 1.400 . S
C839 C838 1.385 . S
C840 C838 1.478 . S
C840 C842 1.381 . S
C840 C846 1.383 . S
C841 C837 1.495 . S
C841 H847 0.959 . S
C841 H848 0.961 . S
C841 H849 0.960 . S
C842 C840 1.381 . S
C842 C843 1.394 . S
C842 H850 0.930 . S
C843 C842 1.394 . S
C843 C844 1.383 . S
C843 H851 0.929 . S
C844 C843 1.383 . S
C844 C845 1.377 . S
C845 H829 0.930 . S
C845 C844 1.377 . S
C845 C846 1.379 . S
C846 H830 0.931 . S
C846 C840 1.383 . S
C846 C845 1.379 . S
H847 C841 0.959 . S
H848 C841 0.961 . S
H849 C841 0.960 . S
H850 C842 0.930 . S
H851 C843 0.929 . S
H852 C860 0.929 . S
H853 C862 0.930 . S
H854 C864 0.930 . S
H855 C867 0.929 . S
H856 C870 0.930 . S
H857 C872 0.960 . S
H858 C872 0.960 . S
H859 C872 0.960 . S
C860 H852 0.929 . S
C860 C861 1.377 . S
C860 C862 1.384 . S
C861 C860 1.377 . S
C861 C867 1.390 . S
C862 H853 0.930 . S
C862 C860 1.384 . S
C862 C863 1.372 . S
C863 C862 1.372 . S
C863 C864 1.400 . S
C863 C868 1.490 . S
C864 H854 0.930 . S
C864 C863 1.400 . S
C864 C867 1.386 . S
H865 C881 0.930 . S
H866 C882 0.931 . S
C867 H855 0.929 . S
C867 C861 1.390 . S
C867 C864 1.386 . S
C868 C863 1.490 . S
C868 C870 1.395 . S
C868 C871 1.403 . S
H869 C875 0.930 . S
C870 H856 0.930 . S
C870 C868 1.395 . S
C870 C873 1.403 . S
C871 C868 1.403 . S
C871 C872 1.524 . S
C871 C875 1.400 . S
C872 H857 0.960 . S
C872 H858 0.960 . S
C872 H859 0.960 . S
C872 C871 1.524 . S
C873 C870 1.403 . S
C873 C874 1.392 . S
C873 C877 1.495 . S
C874 C873 1.392 . S
C874 C875 1.385 . S
C874 C876 1.478 . S
C875 H869 0.930 . S
C875 C871 1.400 . S
C875 C874 1.385 . S
C876 C874 1.478 . S
C876 C878 1.381 . S
C876 C882 1.383 . S
C877 C873 1.495 . S
C877 H883 0.959 . S
C877 H884 0.961 . S
C877 H885 0.960 . S
C878 C876 1.381 . S
C878 C879 1.394 . S
C878 H886 0.930 . S
C879 C878 1.394 . S
C879 C880 1.383 . S
C879 H887 0.929 . S
C880 C879 1.383 . S
C880 C881 1.377 . S
C881 H865 0.930 . S
C881 C880 1.377 . S
C881 C882 1.379 . S
C882 H866 0.931 . S
C882 C876 1.383 . S
C882 C881 1.379 . S
H883 C877 0.959 . S
H884 C877 0.961 . S
H885 C877 0.960 . S
H886 C878 0.930 . S
H887 C879 0.929 . S
H888 C896 0.929 . S
H889 C898 0.930 . S
H890 C900 0.930 . S
H891 C903 0.929 . S
H892 C906 0.930 . S
H893 C908 0.960 . S
H894 C908 0.960 . S
H895 C908 0.960 . S
C896 H888 0.929 . S
C896 C897 1.377 . S
C896 C898 1.384 . S
C897 C896 1.377 . S
C897 C903 1.390 . S
C898 H889 0.930 . S
C898 C896 1.384 . S
C898 C899 1.372 . S
C899 C898 1.372 . S
C899 C900 1.400 . S
C899 C904 1.490 . S
C900 H890 0.930 . S
C900 C899 1.400 . S
C900 C903 1.386 . S
H901 C917 0.930 . S
H902 C918 0.931 . S
C903 H891 0.929 . S
C903 C897 1.390 . S
C903 C900 1.386 . S
C904 C899 1.490 . S
C904 C906 1.395 . S
C904 C907 1.403 . S
H905 C911 0.930 . S
C906 H892 0.930 . S
C906 C904 1.395 . S
C906 C909 1.403 . S
C907 C904 1.403 . S
C907 C908 1.524 . S
C907 C911 1.400 . S
C908 H893 0.960 . S
C908 H894 0.960 . S
C908 H895 0.960 . S
C908 C907 1.524 . S
C909 C906 1.403 . S
C909 C910 1.392 . S
C909 C913 1.495 . S
C910 C909 1.392 . S
C910 C911 1.385 . S
C910 C912 1.478 . S
C911 H905 0.930 . S
C911 C907 1.400 . S
C911 C910 1.385 . S
C912 C910 1.478 . S
C912 C914 1.381 . S
C912 C918 1.383 . S
C913 C909 1.495 . S
C913 H919 0.959 . S
C913 H920 0.961 . S
C913 H921 0.960 . S
C914 C912 1.381 . S
C914 C915 1.394 . S
C914 H922 0.930 . S
C915 C914 1.394 . S
C915 C916 1.383 . S
C915 H923 0.929 . S
C916 C915 1.383 . S
C916 C917 1.377 . S
C917 H901 0.930 . S
C917 C916 1.377 . S
C917 C918 1.379 . S
C918 H902 0.931 . S
C918 C912 1.383 . S
C918 C917 1.379 . S
H919 C913 0.959 . S
H920 C913 0.961 . S
H921 C913 0.960 . S
H922 C914 0.930 . S
H923 C915 0.929 . S
H924 C932 0.929 . S
H925 C934 0.930 . S
H926 C936 0.930 . S
H927 C939 0.929 . S
H928 C942 0.930 . S
H929 C944 0.960 . S
H930 C944 0.960 . S
H931 C944 0.960 . S
C932 H924 0.929 . S
C932 C933 1.377 . S
C932 C934 1.384 . S
C933 C932 1.377 . S
C933 C939 1.390 . S
C934 H925 0.930 . S
C934 C932 1.384 . S
C934 C935 1.372 . S
C935 C934 1.372 . S
C935 C936 1.400 . S
C935 C940 1.490 . S
C936 H926 0.930 . S
C936 C935 1.400 . S
C936 C939 1.386 . S
H937 C953 0.930 . S
H938 C954 0.931 . S
C939 H927 0.929 . S
C939 C933 1.390 . S
C939 C936 1.386 . S
C940 C935 1.490 . S
C940 C942 1.395 . S
C940 C943 1.403 . S
H941 C947 0.930 . S
C942 H928 0.930 . S
C942 C940 1.395 . S
C942 C945 1.403 . S
C943 C940 1.403 . S
C943 C944 1.524 . S
C943 C947 1.400 . S
C944 H929 0.960 . S
C944 H930 0.960 . S
C944 H931 0.960 . S
C944 C943 1.524 . S
C945 C942 1.403 . S
C945 C946 1.392 . S
C945 C949 1.495 . S
C946 C945 1.392 . S
C946 C947 1.385 . S
C946 C948 1.478 . S
C947 H941 0.930 . S
C947 C943 1.400 . S
C947 C946 1.385 . S
C948 C946 1.478 . S
C948 C950 1.381 . S
C948 C954 1.383 . S
C949 C945 1.495 . S
C949 H955 0.959 . S
C949 H956 0.961 . S
C949 H957 0.960 . S
C950 C948 1.381 . S
C950 C951 1.394 . S
C950 H958 0.930 . S
C951 C950 1.394 . S
C951 C952 1.383 . S
C951 H959 0.929 . S
C952 C951 1.383 . S
C952 C953 1.377 . S
C953 H937 0.930 . S
C953 C952 1.377 . S
C953 C954 1.379 . S
C954 H938 0.931 . S
C954 C948 1.383 . S
C954 C953 1.379 . S
H955 C949 0.959 . S
H956 C949 0.961 . S
H957 C949 0.960 . S
H958 C950 0.930 . S
H959 C951 0.929 . S
H960 C968 0.929 . S
H961 C970 0.930 . S
H962 C972 0.930 . S
H963 C975 0.929 . S
H964 C978 0.930 . S
H965 C980 0.960 . S
H966 C980 0.960 . S
H967 C980 0.960 . S
C968 H960 0.929 . S
C968 C969 1.377 . S
C968 C970 1.384 . S
C969 C968 1.377 . S
C969 C975 1.390 . S
C970 H961 0.930 . S
C970 C968 1.384 . S
C970 C971 1.372 . S
C971 C970 1.372 . S
C971 C972 1.400 . S
C971 C976 1.490 . S
C972 H962 0.930 . S
C972 C971 1.400 . S
C972 C975 1.386 . S
H973 C989 0.930 . S
H974 C990 0.931 . S
C975 H963 0.929 . S
C975 C969 1.390 . S
C975 C972 1.386 . S
C976 C971 1.490 . S
C976 C978 1.395 . S
C976 C979 1.403 . S
H977 C983 0.930 . S
C978 H964 0.930 . S
C978 C976 1.395 . S
C978 C981 1.403 . S
C979 C976 1.403 . S
C979 C980 1.524 . S
C979 C983 1.400 . S
C980 H965 0.960 . S
C980 H966 0.960 . S
C980 H967 0.960 . S
C980 C979 1.524 . S
C981 C978 1.403 . S
C981 C982 1.392 . S
C981 C985 1.495 . S
C982 C981 1.392 . S
C982 C983 1.385 . S
C982 C984 1.478 . S
C983 H977 0.930 . S
C983 C979 1.400 . S
C983 C982 1.385 . S
C984 C982 1.478 . S
C984 C986 1.381 . S
C984 C990 1.383 . S
C985 C981 1.495 . S
C985 H991 0.959 . S
C985 H992 0.961 . S
C985 H993 0.960 . S
C986 C984 1.381 . S
C986 C987 1.394 . S
C986 H994 0.930 . S
C987 C986 1.394 . S
C987 C988 1.383 . S
C987 H995 0.929 . S
C988 C987 1.383 . S
C988 C989 1.377 . S
C989 H973 0.930 . S
C989 C988 1.377 . S
C989 C990 1.379 . S
C990 H974 0.931 . S
C990 C984 1.383 . S
C990 C989 1.379 . S
H991 C985 0.959 . S
H992 C985 0.961 . S
H993 C985 0.960 . S
H994 C986 0.930 . S
H995 C987 0.929 . S
H996 C1004 0.929 . S
H997 C1006 0.930 . S
H998 C1008 0.930 . S
H999 C1011 0.929 . S
H1000 C1014 0.930 . S
H1001 C1016 0.960 . S
H1002 C1016 0.960 . S
H1003 C1016 0.960 . S
C1004 H996 0.929 . S
C1004 C1005 1.377 . S
C1004 C1006 1.384 . S
C1005 C1004 1.377 . S
C1005 C1011 1.390 . S
C1006 H997 0.930 . S
C1006 C1004 1.384 . S
C1006 C1007 1.372 . S
C1007 C1006 1.372 . S
C1007 C1008 1.400 . S
C1007 C1012 1.490 . S
C1008 H998 0.930 . S
C1008 C1007 1.400 . S
C1008 C1011 1.386 . S
H1009 C1025 0.930 . S
H1010 C1026 0.931 . S
C1011 H999 0.929 . S
C1011 C1005 1.390 . S
C1011 C1008 1.386 . S
C1012 C1007 1.490 . S
C1012 C1014 1.395 . S
C1012 C1015 1.403 . S
H1013 C1019 0.930 . S
C1014 H1000 0.930 . S
C1014 C1012 1.395 . S
C1014 C1017 1.403 . S
C1015 C1012 1.403 . S
C1015 C1016 1.524 . S
C1015 C1019 1.400 . S
C1016 H1001 0.960 . S
C1016 H1002 0.960 . S
C1016 H1003 0.960 . S
C1016 C1015 1.524 . S
C1017 C1014 1.403 . S
C1017 C1018 1.392 . S
C1017 C1021 1.495 . S
C1018 C1017 1.392 . S
C1018 C1019 1.385 . S
C1018 C1020 1.478 . S
C1019 H1013 0.930 . S
C1019 C1015 1.400 . S
C1019 C1018 1.385 . S
C1020 C1018 1.478 . S
C1020 C1022 1.381 1_556 S
C1020 C1026 1.383 . S
C1021 C1017 1.495 . S
C1021 H1027 0.959 . S
C1021 H1028 0.961 . S
C1021 H1029 0.960 1_556 S
C1022 C1020 1.381 1_554 S
C1022 C1023 1.394 . S
C1022 H1030 0.930 . S
C1023 C1022 1.394 . S
C1023 C1024 1.383 . S
C1023 H1031 0.929 . S
C1024 C1023 1.383 . S
C1024 C1025 1.377 . S
C1025 H1009 0.930 . S
C1025 C1024 1.377 . S
C1025 C1026 1.379 1_554 S
C1026 H1010 0.931 . S
C1026 C1020 1.383 . S
C1026 C1025 1.379 1_556 S
H1027 C1021 0.959 . S
H1028 C1021 0.961 . S
H1029 C1021 0.960 1_554 S
H1030 C1022 0.930 . S
H1031 C1023 0.929 . S
H1032 C1040 0.929 . S
H1033 C1042 0.930 . S
H1034 C1044 0.930 . S
H1035 C1047 0.929 . S
H1036 C1050 0.930 . S
H1037 C1052 0.960 . S
H1038 C1052 0.960 . S
H1039 C1052 0.960 . S
C1040 H1032 0.929 . S
C1040 C1041 1.377 . S
C1040 C1042 1.384 . S
C1041 C1040 1.377 . S
C1041 C1047 1.390 . S
C1042 H1033 0.930 . S
C1042 C1040 1.384 . S
C1042 C1043 1.372 . S
C1043 C1042 1.372 . S
C1043 C1044 1.400 . S
C1043 C1048 1.490 . S
C1044 H1034 0.930 . S
C1044 C1043 1.400 . S
C1044 C1047 1.386 . S
H1045 C1061 0.930 . S
H1046 C1062 0.931 . S
C1047 H1035 0.929 . S
C1047 C1041 1.390 . S
C1047 C1044 1.386 . S
C1048 C1043 1.490 . S
C1048 C1050 1.395 . S
C1048 C1051 1.403 . S
H1049 C1055 0.930 . S
C1050 H1036 0.930 . S
C1050 C1048 1.395 . S
C1050 C1053 1.403 . S
C1051 C1048 1.403 . S
C1051 C1052 1.524 . S
C1051 C1055 1.400 . S
C1052 H1037 0.960 . S
C1052 H1038 0.960 . S
C1052 H1039 0.960 . S
C1052 C1051 1.524 . S
C1053 C1050 1.403 . S
C1053 C1054 1.392 . S
C1053 C1057 1.495 . S
C1054 C1053 1.392 . S
C1054 C1055 1.385 . S
C1054 C1056 1.478 . S
C1055 H1049 0.930 . S
C1055 C1051 1.400 . S
C1055 C1054 1.385 . S
C1056 C1054 1.478 . S
C1056 C1058 1.381 . S
C1056 C1062 1.383 . S
C1057 C1053 1.495 . S
C1057 H1063 0.959 . S
C1057 H1064 0.961 . S
C1057 H1065 0.960 . S
C1058 C1056 1.381 . S
C1058 C1059 1.394 . S
C1058 H1066 0.930 . S
C1059 C1058 1.394 . S
C1059 C1060 1.383 . S
C1059 H1067 0.929 . S
C1060 C1059 1.383 . S
C1060 C1061 1.377 . S
C1061 H1045 0.930 . S
C1061 C1060 1.377 . S
C1061 C1062 1.379 . S
C1062 H1046 0.931 . S
C1062 C1056 1.383 . S
C1062 C1061 1.379 . S
H1063 C1057 0.959 . S
H1064 C1057 0.961 . S
H1065 C1057 0.960 . S
H1066 C1058 0.930 . S
H1067 C1059 0.929 . S
H1068 C1076 0.929 . S
H1069 C1078 0.930 . S
H1070 C1080 0.930 . S
H1071 C1083 0.929 . S
H1072 C1086 0.930 . S
H1073 C1088 0.960 . S
H1074 C1088 0.960 . S
H1075 C1088 0.960 . S
C1076 H1068 0.929 . S
C1076 C1077 1.377 . S
C1076 C1078 1.384 . S
C1077 C1076 1.377 . S
C1077 C1083 1.390 . S
C1078 H1069 0.930 . S
C1078 C1076 1.384 . S
C1078 C1079 1.372 . S
C1079 C1078 1.372 . S
C1079 C1080 1.400 . S
C1079 C1084 1.490 . S
C1080 H1070 0.930 . S
C1080 C1079 1.400 . S
C1080 C1083 1.386 . S
H1081 C1097 0.930 . S
H1082 C1098 0.931 . S
C1083 H1071 0.929 . S
C1083 C1077 1.390 . S
C1083 C1080 1.386 . S
C1084 C1079 1.490 . S
C1084 C1086 1.395 . S
C1084 C1087 1.403 . S
H1085 C1091 0.930 . S
C1086 H1072 0.930 . S
C1086 C1084 1.395 . S
C1086 C1089 1.403 . S
C1087 C1084 1.403 . S
C1087 C1088 1.524 . S
C1087 C1091 1.400 . S
C1088 H1073 0.960 . S
C1088 H1074 0.960 . S
C1088 H1075 0.960 . S
C1088 C1087 1.524 . S
C1089 C1086 1.403 . S
C1089 C1090 1.392 . S
C1089 C1093 1.495 . S
C1090 C1089 1.392 . S
C1090 C1091 1.385 . S
C1090 C1092 1.478 . S
C1091 H1085 0.930 . S
C1091 C1087 1.400 . S
C1091 C1090 1.385 . S
C1092 C1090 1.478 . S
C1092 C1094 1.381 . S
C1092 C1098 1.383 . S
C1093 C1089 1.495 . S
C1093 H1099 0.959 . S
C1093 H1100 0.961 . S
C1093 H1101 0.960 . S
C1094 C1092 1.381 . S
C1094 C1095 1.394 . S
C1094 H1102 0.930 . S
C1095 C1094 1.394 . S
C1095 C1096 1.383 . S
C1095 H1103 0.929 . S
C1096 C1095 1.383 . S
C1096 C1097 1.377 . S
C1097 H1081 0.930 . S
C1097 C1096 1.377 . S
C1097 C1098 1.379 . S
C1098 H1082 0.931 . S
C1098 C1092 1.383 . S
C1098 C1097 1.379 . S
H1099 C1093 0.959 . S
H1100 C1093 0.961 . S
H1101 C1093 0.960 . S
H1102 C1094 0.930 . S
H1103 C1095 0.929 . S
H1104 C1112 0.929 . S
H1105 C1114 0.930 . S
H1106 C1116 0.930 . S
H1107 C1119 0.929 . S
H1108 C1122 0.930 . S
H1109 C1124 0.960 . S
H1110 C1124 0.960 . S
H1111 C1124 0.960 . S
C1112 H1104 0.929 . S
C1112 C1113 1.377 . S
C1112 C1114 1.384 . S
C1113 C1112 1.377 . S
C1113 C1119 1.390 . S
C1114 H1105 0.930 . S
C1114 C1112 1.384 . S
C1114 C1115 1.372 . S
C1115 C1114 1.372 . S
C1115 C1116 1.400 . S
C1115 C1120 1.490 . S
C1116 H1106 0.930 . S
C1116 C1115 1.400 . S
C1116 C1119 1.386 . S
H1117 C1133 0.930 . S
H1118 C1134 0.931 . S
C1119 H1107 0.929 . S
C1119 C1113 1.390 . S
C1119 C1116 1.386 . S
C1120 C1115 1.490 . S
C1120 C1122 1.395 . S
C1120 C1123 1.403 . S
H1121 C1127 0.930 . S
C1122 H1108 0.930 . S
C1122 C1120 1.395 . S
C1122 C1125 1.403 . S
C1123 C1120 1.403 . S
C1123 C1124 1.524 . S
C1123 C1127 1.400 . S
C1124 H1109 0.960 . S
C1124 H1110 0.960 . S
C1124 H1111 0.960 . S
C1124 C1123 1.524 . S
C1125 C1122 1.403 . S
C1125 C1126 1.392 . S
C1125 C1129 1.495 . S
C1126 C1125 1.392 . S
C1126 C1127 1.385 . S
C1126 C1128 1.478 . S
C1127 H1121 0.930 . S
C1127 C1123 1.400 . S
C1127 C1126 1.385 . S
C1128 C1126 1.478 . S
C1128 C1130 1.381 . S
C1128 C1134 1.383 . S
C1129 C1125 1.495 . S
C1129 H1135 0.959 . S
C1129 H1136 0.961 . S
C1129 H1137 0.960 . S
C1130 C1128 1.381 . S
C1130 C1131 1.394 . S
C1130 H1138 0.930 . S
C1131 C1130 1.394 . S
C1131 C1132 1.383 . S
C1131 H1139 0.929 . S
C1132 C1131 1.383 . S
C1132 C1133 1.377 . S
C1133 H1117 0.930 . S
C1133 C1132 1.377 . S
C1133 C1134 1.379 . S
C1134 H1118 0.931 . S
C1134 C1128 1.383 . S
C1134 C1133 1.379 . S
H1135 C1129 0.959 . S
H1136 C1129 0.961 . S
H1137 C1129 0.960 . S
H1138 C1130 0.930 . S
H1139 C1131 0.929 . S
H1140 C1148 0.929 . S
H1141 C1150 0.930 . S
H1142 C1152 0.930 . S
H1143 C1155 0.929 . S
H1144 C1158 0.930 . S
H1145 C1160 0.960 . S
H1146 C1160 0.960 . S
H1147 C1160 0.960 . S
C1148 H1140 0.929 . S
C1148 C1149 1.377 . S
C1148 C1150 1.384 . S
C1149 C1148 1.377 . S
C1149 C1155 1.390 . S
C1150 H1141 0.930 . S
C1150 C1148 1.384 . S
C1150 C1151 1.372 . S
C1151 C1150 1.372 . S
C1151 C1152 1.400 . S
C1151 C1156 1.490 . S
C1152 H1142 0.930 . S
C1152 C1151 1.400 . S
C1152 C1155 1.386 . S
H1153 C1169 0.930 . S
H1154 C1170 0.931 . S
C1155 H1143 0.929 . S
C1155 C1149 1.390 . S
C1155 C1152 1.386 . S
C1156 C1151 1.490 . S
C1156 C1158 1.395 . S
C1156 C1159 1.403 . S
H1157 C1163 0.930 . S
C1158 H1144 0.930 . S
C1158 C1156 1.395 . S
C1158 C1161 1.403 . S
C1159 C1156 1.403 . S
C1159 C1160 1.524 . S
C1159 C1163 1.400 . S
C1160 H1145 0.960 . S
C1160 H1146 0.960 . S
C1160 H1147 0.960 . S
C1160 C1159 1.524 . S
C1161 C1158 1.403 . S
C1161 C1162 1.392 . S
C1161 C1165 1.495 . S
C1162 C1161 1.392 . S
C1162 C1163 1.385 . S
C1162 C1164 1.478 . S
C1163 H1157 0.930 . S
C1163 C1159 1.400 . S
C1163 C1162 1.385 . S
C1164 C1162 1.478 . S
C1164 C1166 1.381 . S
C1164 C1170 1.383 . S
C1165 C1161 1.495 . S
C1165 H1171 0.959 . S
C1165 H1172 0.961 . S
C1165 H1173 0.960 . S
C1166 C1164 1.381 . S
C1166 C1167 1.394 . S
C1166 H1174 0.930 . S
C1167 C1166 1.394 . S
C1167 C1168 1.383 . S
C1167 H1175 0.929 . S
C1168 C1167 1.383 . S
C1168 C1169 1.377 . S
C1169 H1153 0.930 . S
C1169 C1168 1.377 . S
C1169 C1170 1.379 . S
C1170 H1154 0.931 . S
C1170 C1164 1.383 . S
C1170 C1169 1.379 . S
H1171 C1165 0.959 . S
H1172 C1165 0.961 . S
H1173 C1165 0.960 . S
H1174 C1166 0.930 . S
H1175 C1167 0.929 . S
H1176 C1184 0.929 . S
H1177 C1186 0.930 . S
H1178 C1188 0.930 . S
H1179 C1191 0.929 . S
H1180 C1194 0.930 . S
H1181 C1196 0.960 . S
H1182 C1196 0.960 . S
H1183 C1196 0.960 . S
C1184 H1176 0.929 . S
C1184 C1185 1.377 . S
C1184 C1186 1.384 . S
C1185 C1184 1.377 . S
C1185 C1191 1.390 . S
C1186 H1177 0.930 . S
C1186 C1184 1.384 . S
C1186 C1187 1.372 . S
C1187 C1186 1.372 . S
C1187 C1188 1.400 . S
C1187 C1192 1.490 . S
C1188 H1178 0.930 . S
C1188 C1187 1.400 . S
C1188 C1191 1.386 . S
H1189 C1205 0.930 . S
H1190 C1206 0.931 . S
C1191 H1179 0.929 . S
C1191 C1185 1.390 . S
C1191 C1188 1.386 . S
C1192 C1187 1.490 . S
C1192 C1194 1.395 . S
C1192 C1195 1.403 . S
H1193 C1199 0.930 . S
C1194 H1180 0.930 . S
C1194 C1192 1.395 . S
C1194 C1197 1.403 . S
C1195 C1192 1.403 . S
C1195 C1196 1.524 . S
C1195 C1199 1.400 . S
C1196 H1181 0.960 . S
C1196 H1182 0.960 . S
C1196 H1183 0.960 . S
C1196 C1195 1.524 . S
C1197 C1194 1.403 . S
C1197 C1198 1.392 . S
C1197 C1201 1.495 . S
C1198 C1197 1.392 . S
C1198 C1199 1.385 . S
C1198 C1200 1.478 . S
C1199 H1193 0.930 . S
C1199 C1195 1.400 . S
C1199 C1198 1.385 . S
C1200 C1198 1.478 . S
C1200 C1202 1.381 . S
C1200 C1206 1.383 . S
C1201 C1197 1.495 . S
C1201 H1207 0.959 . S
C1201 H1208 0.961 . S
C1201 H1209 0.960 . S
C1202 C1200 1.381 . S
C1202 C1203 1.394 . S
C1202 H1210 0.930 . S
C1203 C1202 1.394 . S
C1203 C1204 1.383 . S
C1203 H1211 0.929 . S
C1204 C1203 1.383 . S
C1204 C1205 1.377 . S
C1205 H1189 0.930 . S
C1205 C1204 1.377 . S
C1205 C1206 1.379 . S
C1206 H1190 0.931 . S
C1206 C1200 1.383 . S
C1206 C1205 1.379 . S
H1207 C1201 0.959 . S
H1208 C1201 0.961 . S
H1209 C1201 0.960 . S
H1210 C1202 0.930 . S
H1211 C1203 0.929 . S
H1212 C1220 0.929 . S
H1213 C1222 0.930 . S
H1214 C1224 0.930 . S
H1215 C1227 0.929 . S
H1216 C1230 0.930 . S
H1217 C1232 0.960 . S
H1218 C1232 0.960 . S
H1219 C1232 0.960 . S
C1220 H1212 0.929 . S
C1220 C1221 1.377 . S
C1220 C1222 1.384 . S
C1221 C1220 1.377 . S
C1221 C1227 1.390 . S
C1222 H1213 0.930 . S
C1222 C1220 1.384 . S
C1222 C1223 1.372 . S
C1223 C1222 1.372 . S
C1223 C1224 1.400 . S
C1223 C1228 1.490 . S
C1224 H1214 0.930 . S
C1224 C1223 1.400 . S
C1224 C1227 1.386 . S
H1225 C1241 0.930 . S
H1226 C1242 0.931 . S
C1227 H1215 0.929 . S
C1227 C1221 1.390 . S
C1227 C1224 1.386 . S
C1228 C1223 1.490 . S
C1228 C1230 1.395 . S
C1228 C1231 1.403 . S
H1229 C1235 0.930 . S
C1230 H1216 0.930 . S
C1230 C1228 1.395 . S
C1230 C1233 1.403 . S
C1231 C1228 1.403 . S
C1231 C1232 1.524 . S
C1231 C1235 1.400 . S
C1232 H1217 0.960 . S
C1232 H1218 0.960 . S
C1232 H1219 0.960 . S
C1232 C1231 1.524 . S
C1233 C1230 1.403 . S
C1233 C1234 1.392 . S
C1233 C1237 1.495 . S
C1234 C1233 1.392 . S
C1234 C1235 1.385 . S
C1234 C1236 1.478 . S
C1235 H1229 0.930 . S
C1235 C1231 1.400 . S
C1235 C1234 1.385 . S
C1236 C1234 1.478 . S
C1236 C1238 1.381 . S
C1236 C1242 1.383 . S
C1237 C1233 1.495 . S
C1237 H1243 0.959 . S
C1237 H1244 0.961 . S
C1237 H1245 0.960 . S
C1238 C1236 1.381 . S
C1238 C1239 1.394 . S
C1238 H1246 0.930 . S
C1239 C1238 1.394 . S
C1239 C1240 1.383 . S
C1239 H1247 0.929 . S
C1240 C1239 1.383 . S
C1240 C1241 1.377 . S
C1241 H1225 0.930 . S
C1241 C1240 1.377 . S
C1241 C1242 1.379 . S
C1242 H1226 0.931 . S
C1242 C1236 1.383 . S
C1242 C1241 1.379 . S
H1243 C1237 0.959 . S
H1244 C1237 0.961 . S
H1245 C1237 0.960 . S
H1246 C1238 0.930 . S
H1247 C1239 0.929 . S
H1248 C1256 0.929 . S
H1249 C1258 0.930 . S
H1250 C1260 0.930 . S
H1251 C1263 0.929 . S
H1252 C1266 0.930 . S
H1253 C1268 0.960 . S
H1254 C1268 0.957 . S
H1255 C1268 0.960 . S
C1256 H1248 0.929 . S
C1256 C1257 1.377 . S
C1256 C1258 1.384 . S
C1257 C1256 1.377 . S
C1257 C1263 1.390 . S
C1258 H1249 0.930 . S
C1258 C1256 1.384 . S
C1258 C1259 1.372 . S
C1259 C1258 1.372 . S
C1259 C1260 1.400 . S
C1259 C1264 1.490 . S
C1260 H1250 0.930 . S
C1260 C1259 1.400 . S
C1260 C1263 1.386 . S
H1261 C1277 0.930 . S
H1262 C1278 0.931 . S
C1263 H1251 0.929 . S
C1263 C1257 1.390 . S
C1263 C1260 1.386 . S
C1264 C1259 1.490 . S
C1264 C1266 1.395 . S
C1264 C1267 1.412 . S
H1265 C1271 0.930 . S
C1266 H1252 0.930 . S
C1266 C1264 1.395 . S
C1266 C1269 1.403 . S
C1267 C1264 1.412 . S
C1267 C1268 1.521 1_554 S
C1267 C1271 1.394 1_554 S
C1268 H1253 0.960 . S
C1268 H1254 0.957 . S
C1268 H1255 0.960 . S
C1268 C1267 1.521 1_556 S
C1269 C1266 1.403 . S
C1269 C1270 1.392 1_554 S
C1269 C1273 1.495 . S
C1270 C1269 1.392 1_556 S
C1270 C1271 1.385 . S
C1270 C1272 1.478 . S
C1271 H1265 0.930 . S
C1271 C1267 1.394 1_556 S
C1271 C1270 1.385 . S
C1272 C1270 1.478 . S
C1272 C1274 1.381 . S
C1272 C1278 1.383 . S
C1273 C1269 1.495 . S
C1273 H1279 0.959 . S
C1273 H1280 0.961 . S
C1273 H1281 0.960 . S
C1274 C1272 1.381 . S
C1274 C1275 1.394 . S
C1274 H1282 0.930 . S
C1275 C1274 1.394 . S
C1275 C1276 1.383 . S
C1275 H1283 0.929 . S
C1276 C1275 1.383 . S
C1276 C1277 1.377 . S
C1277 H1261 0.930 . S
C1277 C1276 1.377 . S
C1277 C1278 1.379 . S
C1278 H1262 0.931 . S
C1278 C1272 1.383 . S
C1278 C1277 1.379 . S
H1279 C1273 0.959 . S
H1280 C1273 0.961 . S
H1281 C1273 0.960 . S
H1282 C1274 0.930 . S
H1283 C1275 0.929 . S
H1284 C1292 0.929 . S
H1285 C1294 0.930 . S
H1286 C1296 0.930 . S
H1287 C1299 0.929 . S
H1288 C1302 0.930 . S
H1289 C1304 0.960 . S
H1290 C1304 0.960 . S
H1291 C1304 0.960 . S
C1292 H1284 0.929 . S
C1292 C1293 1.377 . S
C1292 C1294 1.384 . S
C1293 C1292 1.377 . S
C1293 C1299 1.390 . S
C1294 H1285 0.930 . S
C1294 C1292 1.384 . S
C1294 C1295 1.372 . S
C1295 C1294 1.372 . S
C1295 C1296 1.400 . S
C1295 C1300 1.490 . S
C1296 H1286 0.930 . S
C1296 C1295 1.400 . S
C1296 C1299 1.386 . S
H1297 C1313 0.930 . S
H1298 C1314 0.931 . S
C1299 H1287 0.929 . S
C1299 C1293 1.390 . S
C1299 C1296 1.386 . S
C1300 C1295 1.490 . S
C1300 C1302 1.395 . S
C1300 C1303 1.403 . S
H1301 C1307 0.930 . S
C1302 H1288 0.930 . S
C1302 C1300 1.395 . S
C1302 C1305 1.403 . S
C1303 C1300 1.403 . S
C1303 C1304 1.524 . S
C1303 C1307 1.400 . S
C1304 H1289 0.960 . S
C1304 H1290 0.960 . S
C1304 H1291 0.960 . S
C1304 C1303 1.524 . S
C1305 C1302 1.403 . S
C1305 C1306 1.392 . S
C1305 C1309 1.495 . S
C1306 C1305 1.392 . S
C1306 C1307 1.385 . S
C1306 C1308 1.478 . S
C1307 H1301 0.930 . S
C1307 C1303 1.400 . S
C1307 C1306 1.385 . S
C1308 C1306 1.478 . S
C1308 C1310 1.381 . S
C1308 C1314 1.383 . S
C1309 C1305 1.495 . S
C1309 H1315 0.959 . S
C1309 H1316 0.961 . S
C1309 H1317 0.960 . S
C1310 C1308 1.381 . S
C1310 C1311 1.394 . S
C1310 H1318 0.930 . S
C1311 C1310 1.394 . S
C1311 C1312 1.383 . S
C1311 H1319 0.929 . S
C1312 C1311 1.383 . S
C1312 C1313 1.377 . S
C1313 H1297 0.930 . S
C1313 C1312 1.377 . S
C1313 C1314 1.379 . S
C1314 H1298 0.931 . S
C1314 C1308 1.383 . S
C1314 C1313 1.379 . S
H1315 C1309 0.959 . S
H1316 C1309 0.961 . S
H1317 C1309 0.960 . S
H1318 C1310 0.930 . S
H1319 C1311 0.929 . S
C484 C445 1.682 . S
C465 C29 1.584 . S
C501 C115 1.552 . S
C520 C375 1.565 . S
C537 C153 1.633 . S
C556 C394 1.725 . S
C573 C239 1.541 . S
C592 C403 1.561 . S
C628 C417 1.617 . S
C609 C301 1.596 . S
C645 C339 1.877 . S
C664 C436 1.992 . S
C681 C91 1.581 . S
C700 C389 1.687 . S
C717 C177 1.548 . S
C736 C408 1.572 . S
C753 C215 1.595 . S
C772 C422 1.685 . S
C808 C431 1.952 . S
C789 C277 1.833 . S
C844 C450 1.622 . S
C825 C363 1.596 . S
C880 C380 1.582 . S
C861 C53 1.559 . S
C897 C35 1.554 . S
C916 C395 1.573 . S
C933 C109 1.402 . S
C952 C407 1.492 . S
C988 C421 1.447 . S
C969 C159 1.439 . S
C1005 C233 1.624 . S
C1024 C437 1.721 . S
C1060 C449 1.527 . S
C1041 C295 1.415 . S
C1096 C379 1.373 . S
C1077 C345 1.379 . S
C1132 C451 1.461 . S
C1113 C97 1.448 . S
C1149 C171 1.438 . S
C1168 C381 1.533 . S
C1204 C393 1.583 . S
C1185 C221 1.564 . S
C1221 C283 1.394 . S
C1240 C409 1.408 . S
C1257 C357 1.444 . S
C1276 C423 1.553 . S
C1293 C47 1.629 . S
C1312 C435 1.702 . S
