# Generated by pormake.
# Topology pyr, (3,6)-cn, num edge types: 1
# Building blocks:
#     Node 0, Type 0, BuildingBlock: PAMTOO_clean_linker_0, # of connection points: 3
#     Node 1, Type 0, BuildingBlock: PAMTOO_clean_linker_0, # of connection points: 3
#     Node 2, Type 0, BuildingBlock: PAMTOO_clean_linker_0, # of connection points: 3
#     Node 3, Type 0, BuildingBlock: PAMTOO_clean_linker_0, # of connection points: 3
#     Node 4, Type 0, BuildingBlock: PAMTOO_clean_linker_0, # of connection points: 3
#     Node 5, Type 0, BuildingBlock: PAMTOO_clean_linker_0, # of connection points: 3
#     Node 6, Type 0, BuildingBlock: PAMTOO_clean_linker_0, # of connection points: 3
#     Node 7, Type 0, BuildingBlock: PAMTOO_clean_linker_0, # of connection points: 3
#     Node 8, Type 1, BuildingBlock: BETFAJ_clean_sbu_0, # of connection points: 6
#     Node 9, Type 1, BuildingBlock: BETFAJ_clean_sbu_0, # of connection points: 6
#     Node 10, Type 1, BuildingBlock: BETFAJ_clean_sbu_0, # of connection points: 6
#     Node 11, Type 1, BuildingBlock: BETFAJ_clean_sbu_0, # of connection points: 6
#     Edge 12, Type (0, 1), BuildingBlock: TEMPAE_clean_linker_10, # of connection points: 2
#     Edge 13, Type (0, 1), BuildingBlock: TEMPAE_clean_linker_10, # of connection points: 2
#     Edge 14, Type (0, 1), BuildingBlock: TEMPAE_clean_linker_10, # of connection points: 2
#     Edge 15, Type (0, 1), BuildingBlock: TEMPAE_clean_linker_10, # of connection points: 2
#     Edge 16, Type (0, 1), BuildingBlock: TEMPAE_clean_linker_10, # of connection points: 2
#     Edge 17, Type (0, 1), BuildingBlock: TEMPAE_clean_linker_10, # of connection points: 2
#     Edge 18, Type (0, 1), BuildingBlock: TEMPAE_clean_linker_10, # of connection points: 2
#     Edge 19, Type (0, 1), BuildingBlock: TEMPAE_clean_linker_10, # of connection points: 2
#     Edge 20, Type (0, 1), BuildingBlock: TEMPAE_clean_linker_10, # of connection points: 2
#     Edge 21, Type (0, 1), BuildingBlock: TEMPAE_clean_linker_10, # of connection points: 2
#     Edge 22, Type (0, 1), BuildingBlock: TEMPAE_clean_linker_10, # of connection points: 2
#     Edge 23, Type (0, 1), BuildingBlock: TEMPAE_clean_linker_10, # of connection points: 2
#     Edge 24, Type (0, 1), BuildingBlock: TEMPAE_clean_linker_10, # of connection points: 2
#     Edge 25, Type (0, 1), BuildingBlock: TEMPAE_clean_linker_10, # of connection points: 2
#     Edge 26, Type (0, 1), BuildingBlock: TEMPAE_clean_linker_10, # of connection points: 2
#     Edge 27, Type (0, 1), BuildingBlock: TEMPAE_clean_linker_10, # of connection points: 2
#     Edge 28, Type (0, 1), BuildingBlock: TEMPAE_clean_linker_10, # of connection points: 2
#     Edge 29, Type (0, 1), BuildingBlock: TEMPAE_clean_linker_10, # of connection points: 2
#     Edge 30, Type (0, 1), BuildingBlock: TEMPAE_clean_linker_10, # of connection points: 2
#     Edge 31, Type (0, 1), BuildingBlock: TEMPAE_clean_linker_10, # of connection points: 2
#     Edge 32, Type (0, 1), BuildingBlock: TEMPAE_clean_linker_10, # of connection points: 2
#     Edge 33, Type (0, 1), BuildingBlock: TEMPAE_clean_linker_10, # of connection points: 2
#     Edge 34, Type (0, 1), BuildingBlock: TEMPAE_clean_linker_10, # of connection points: 2
#     Edge 35, Type (0, 1), BuildingBlock: TEMPAE_clean_linker_10, # of connection points: 2
# Relax obj value: 0.176
# Max RMSD: 0.225
# Mean RMSD: 0.149
data_MOF--net-pyr--node1-BETFAJ_clean_sbu_0--node2-PAMTOO_clean_linker_0--edge1-TEMPAE_clean_linker_10
_symmetry_space_group_name_H-M    P1
_symmetry_Int_Tables_number       1
_symmetry_cell_setting            triclinic
loop_
_symmetry_equiv_pos_as_xyz
'x, y, z'
_cell_length_a     37.441274
_cell_length_b     42.259151
_cell_length_c     37.953054
_cell_angle_alpha  91.884243
_cell_angle_beta   89.935931
_cell_angle_gamma 105.02796
loop_
_atom_site_label
_atom_site_type_symbol
_atom_site_fract_x
_atom_site_fract_y
_atom_site_fract_z
_atom_type_partial_charge
H0 H 0.28619 0.2749 0.22393 0.0
H1 H 0.36624 0.21851 0.22935 0.0
H2 H 0.37911 0.29399 0.15354 0.0
H3 H 0.43934 0.25926 0.22085 0.0
C4 C 0.44064 0.25554 0.19171 0.0
O5 O 0.40579 0.24703 0.17679 0.0
H6 H 0.45694 0.27891 0.18072 0.0
C7 C 0.31155 0.26972 0.21455 0.0
C8 C 0.33101 0.2875 0.18686 0.0
C9 C 0.32423 0.24515 0.23021 0.0
C10 C 0.35677 0.23818 0.21812 0.0
C11 C 0.37662 0.25601 0.19067 0.0
C12 C 0.36412 0.28099 0.1754 0.0
H13 H 0.31474 0.92486 0.6491 0.0
H14 H 0.32327 0.90772 0.53766 0.0
H15 H 0.38629 0.86688 0.60942 0.0
H16 H 0.41818 0.91276 0.54232 0.0
C17 C 0.40593 0.88833 0.52923 0.0
O18 O 0.37177 0.87335 0.54298 0.0
H19 H 0.40251 0.89269 0.50086 0.0
C20 C 0.32597 0.91321 0.62744 0.0
C21 C 0.35235 0.89566 0.63387 0.0
C22 C 0.31514 0.91736 0.59296 0.0
C23 C 0.33117 0.90435 0.56447 0.0
C24 C 0.35682 0.88625 0.57052 0.0
C25 C 0.36681 0.88135 0.6051 0.0
H26 H 0.73819 0.32642 0.92591 0.0
H27 H 0.65443 0.31169 0.84419 0.0
H28 H 0.7444 0.39914 0.84785 0.0
H29 H 0.67664 0.41205 0.82737 0.0
C30 C 0.66342 0.39007 0.81059 0.0
O31 O 0.68518 0.36763 0.81165 0.0
H32 H 0.6363 0.37874 0.8228 0.0
C33 C 0.72611 0.33492 0.90336 0.0
C34 C 0.74486 0.36551 0.88964 0.0
C35 C 0.69334 0.3146 0.88768 0.0
C36 C 0.67935 0.32634 0.85697 0.0
C37 C 0.69753 0.35707 0.84244 0.0
C38 C 0.73035 0.37596 0.85894 0.0
H39 H 0.87836 0.73569 0.42735 0.0
H40 H 0.87771 0.65873 0.35002 0.0
H41 H 0.9662 0.74732 0.3512 0.0
H42 H 0.95252 0.71642 0.27783 0.0
C43 C 0.93676 0.69125 0.28446 0.0
O44 O 0.94121 0.68738 0.32063 0.0
H45 H 0.90705 0.68943 0.27916 0.0
C46 C 0.89046 0.72688 0.40435 0.0
C47 C 0.92379 0.74673 0.39077 0.0
C48 C 0.87298 0.69531 0.39002 0.0
C49 C 0.89031 0.68289 0.36137 0.0
C50 C 0.92399 0.70128 0.34706 0.0
C51 C 0.9405 0.73317 0.36208 0.0
H52 H 0.73672 0.84724 0.83958 0.0
H53 H 0.70798 0.81236 0.94412 0.0
H54 H 0.79515 0.785 0.88911 0.0
H55 H 0.71969 0.73435 0.92382 0.0
C56 C 0.73857 0.74351 0.94674 0.0
O57 O 0.75469 0.77675 0.94543 0.0
H58 H 0.7213 0.73869 0.97078 0.0
C59 C 0.74086 0.83319 0.86185 0.0
C60 C 0.76909 0.81671 0.86052 0.0
C61 C 0.71908 0.83287 0.89219 0.0
C62 C 0.72354 0.8129 0.91999 0.0
C63 C 0.74994 0.79487 0.91803 0.0
C64 C 0.77315 0.79733 0.88885 0.0
H65 H 0.78541 0.11904 0.45349 0.0
H66 H 0.72465 0.19188 0.4721 0.0
H67 H 0.79838 0.17511 0.55139 0.0
H68 H 0.73736 0.20785 0.58651 0.0
C69 C 0.72485 0.20374 0.55969 0.0
O70 O 0.75278 0.20944 0.53506 0.0
H71 H 0.70768 0.17788 0.55753 0.0
C72 C 0.77766 0.1372 0.47056 0.0
C73 C 0.79435 0.14467 0.50393 0.0
C74 C 0.75264 0.15426 0.45846 0.0
C75 C 0.74396 0.17849 0.48067 0.0
C76 C 0.76032 0.18563 0.51415 0.0
C77 C 0.78562 0.16902 0.52557 0.0
H78 H 0.38438 0.74339 0.14319 0.0
H79 H 0.37758 0.67109 0.22199 0.0
H80 H 0.46665 0.75903 0.22642 0.0
H81 H 0.48602 0.69431 0.2478 0.0
C82 C 0.45942 0.68249 0.26067 0.0
O83 O 0.43612 0.70356 0.25891 0.0
H84 H 0.44694 0.65967 0.24487 0.0
C85 C 0.39609 0.73509 0.16609 0.0
C86 C 0.42843 0.75573 0.18232 0.0
C87 C 0.37731 0.70442 0.17977 0.0
C88 C 0.39156 0.69428 0.21087 0.0
C89 C 0.42397 0.71356 0.22776 0.0
C90 C 0.44202 0.74423 0.2133 0.0
H91 H 0.13377 0.32649 0.77176 0.0
H92 H 0.21958 0.41695 0.76414 0.0
H93 H 0.21512 0.33885 0.6885 0.0
H94 H 0.28977 0.37481 0.71833 0.0
C95 C 0.28696 0.40006 0.7145 0.0
O96 O 0.25016 0.39857 0.70688 0.0
H97 H 0.29483 0.41401 0.73989 0.0
C98 C 0.15772 0.34116 0.75853 0.0
C99 C 0.17268 0.32723 0.72867 0.0
C100 C 0.17466 0.37371 0.77219 0.0
C101 C 0.20639 0.39217 0.75476 0.0
C102 C 0.22091 0.37953 0.72475 0.0
C103 C 0.2039 0.34755 0.7121 0.0
Sm104 Sm 0.05514 0.05153 0.52887 0.0
Sm105 Sm 0.0519 1.0178 0.59723 0.0
C106 C 0.054 0.0898 0.47532 0.0
C107 C 0.08459 0.11092 0.45629 0.0
C108 C 0.07779 0.12876 0.42776 0.0
C109 C 0.10723 0.14577 0.40733 0.0
C110 C 0.14364 0.14473 0.41505 0.0
C111 C 0.15036 0.12774 0.44443 0.0
C112 C 0.12105 0.11109 0.46499 0.0
C113 C 0.11789 0.03207 0.54341 0.0
C114 C 0.0794 0.09753 0.60312 0.0
C115 C 0.0558 0.97851 0.64915 0.0
C116 C 0.02909 0.94989 0.66295 0.0
C117 C 0.04027 0.92977 0.68688 0.0
C118 C 1.01392 0.90474 0.70286 0.0
C119 C 0.97596 0.89975 0.69537 0.0
C120 C 0.96528 0.91914 0.66999 0.0
C121 C 0.9916 0.94381 0.65381 0.0
C122 C 0.98857 0.03605 0.58112 0.0
C123 C 0.02377 0.97196 0.52324 0.0
O124 O 0.04991 0.09877 0.50801 0.0
O125 O 0.0518 0.05857 0.47153 0.0
O126 O 0.10033 0.04477 0.56558 0.0
O127 O 0.10443 0.0318 0.51207 0.0
O128 O 0.06523 0.0956 0.57076 0.0
O129 O 0.08286 0.07042 0.61785 0.0
O130 O 0.06843 0.97478 0.61757 0.0
O131 O 0.0468 1.00623 0.65373 0.0
O132 O 1.00741 1.02388 0.55997 0.0
O133 O 1.00075 0.03626 0.61306 0.0
O134 O 0.03716 0.97314 0.55585 0.0
O135 O 0.02209 0.99956 0.50849 0.0
H136 H 0.04975 0.1287 0.42069 0.0
H137 H 0.1014 0.15856 0.38464 0.0
H138 H 0.17821 0.12684 0.45106 0.0
H139 H 0.12671 0.09743 0.48705 0.0
H140 H 0.0692 0.93401 0.69395 0.0
H141 H 0.0232 0.88992 0.7218 0.0
H142 H 0.93639 0.91651 0.66387 0.0
H143 H 0.98253 0.95909 0.6352 0.0
Sm144 Sm 0.59731 0.04272 0.05665 0.0
Sm145 Sm 0.53222 0.02877 1.01996 0.0
C146 C 0.65734 0.06869 0.09557 0.0
C147 C 0.6661 0.08064 0.13229 0.0
C148 C 0.64922 0.10336 0.14854 0.0
C149 C 0.65736 0.11373 0.18365 0.0
C150 C 0.68264 0.10167 0.20312 0.0
C151 C 0.69963 0.07911 0.18666 0.0
C152 C 0.69145 0.06874 0.15159 0.0
C153 C 0.55355 0.98042 0.07404 0.0
C154 C 0.52985 0.06917 0.0904 0.0
C155 C 0.47219 1.00079 0.98198 0.0
C156 C 0.46408 0.9862 0.94629 0.0
C157 C 0.4342 0.95857 0.94095 0.0
C158 C 0.42595 0.94437 0.90719 0.0
C159 C 0.44736 0.95778 0.87826 0.0
C160 C 0.47772 0.98514 0.88379 0.0
C161 C 0.48619 0.99911 0.9176 0.0
C162 C 0.57518 0.09116 1.00228 0.0
C163 C 0.60062 1.00323 0.98642 0.0
O164 O 0.64139 0.08582 0.07581 0.0
O165 O 0.64356 0.03721 0.09071 0.0
O166 O 0.54198 1.00615 0.07183 0.0
O167 O 0.58822 0.98729 0.06584 0.0
O168 O 0.56585 0.07422 0.0881 0.0
O169 O 0.50813 0.04755 0.06912 0.0
O170 O 0.48778 0.98477 1.00334 0.0
O171 O 0.48638 0.03242 0.98457 0.0
O172 O 0.58732 0.06568 1.00474 0.0
O173 O 0.54043 0.08387 1.01031 0.0
O174 O 0.5645 0.99745 0.98859 0.0
O175 O 0.6218 1.02559 1.00725 0.0
H176 H 0.62976 0.11312 0.13416 0.0
H177 H 0.64413 0.1314 0.19545 0.0
H178 H 0.71883 0.06901 0.20107 0.0
H179 H 0.70474 0.05117 0.13959 0.0
H180 H 0.41706 0.94814 0.96287 0.0
H181 H 0.40223 0.92346 0.90355 0.0
H182 H 0.49481 0.99573 0.86192 0.0
H183 H 0.5098 1.02011 0.92128 0.0
Sm184 Sm 0.56556 0.51663 0.51423 0.0
Sm185 Sm 0.57318 0.57072 0.55943 0.0
C186 C 0.5757 0.4665 0.4756 0.0
C187 C 0.57928 0.43364 0.48279 0.0
C188 C 0.60282 0.42025 0.46188 0.0
C189 C 0.61021 0.39081 0.47075 0.0
C190 C 0.59394 0.37414 0.50064 0.0
C191 C 0.56934 0.38722 0.52091 0.0
C192 C 0.56227 0.41688 0.51219 0.0
C193 C 0.50163 0.51039 0.55418 0.0
C194 C 0.59863 0.51087 0.59517 0.0
C195 C 0.5629 0.62153 0.59702 0.0
C196 C 0.55025 0.6508 0.58919 0.0
C197 C 0.51868 0.64821 0.56815 0.0
C198 C 0.50648 0.67595 0.56148 0.0
C199 C 0.52581 0.70684 0.57537 0.0
C200 C 0.55789 0.70959 0.59568 0.0
C201 C 0.56991 0.68171 0.60268 0.0
C202 C 0.63765 0.57632 0.52074 0.0
C203 C 0.53895 0.57513 0.47877 0.0
O204 O 0.60285 0.49053 0.4876 0.0
O205 O 0.5432 0.47183 0.48072 0.0
O206 O 0.53455 0.52003 0.56567 0.0
O207 O 0.50184 0.50484 0.52035 0.0
O208 O 0.59512 0.49904 0.56217 0.0
O209 O 0.58938 0.53853 0.60236 0.0
O210 O 0.5382 0.59337 0.59379 0.0
O211 O 0.59507 0.62045 0.58456 0.0
O212 O 0.60492 0.56727 0.50837 0.0
O213 O 0.63669 0.58095 0.55469 0.0
O214 O 0.5402 0.58583 0.51213 0.0
O215 O 0.55142 0.54929 0.47127 0.0
H216 H 0.61655 0.43316 0.43939 0.0
H217 H 0.62991 0.3819 0.45498 0.0
H218 H 0.55608 0.37487 0.54387 0.0
H219 H 0.5443 0.42712 0.5289 0.0
H220 H 0.50323 0.62474 0.55698 0.0
H221 H 0.48196 0.6733 0.54534 0.0
H222 H 0.57316 0.73317 0.60673 0.0
H223 H 0.59441 0.68423 0.6188 0.0
Sm224 Sm 0.06236 0.5077 0.05524 0.0
Sm225 Sm 0.06263 0.55623 1.01066 0.0
C226 C 0.07717 0.46093 0.09323 0.0
C227 C 0.11086 0.45127 0.10191 0.0
C228 C 0.14341 0.46297 0.08269 0.0
C229 C 0.17515 0.45294 0.09056 0.0
C230 C 0.17476 0.43114 0.11781 0.0
C231 C 0.14218 0.41999 0.13734 0.0
C232 C 0.1105 0.43002 0.12944 0.0
C233 C 0.02538 0.55042 0.08856 0.0
C234 C 0.13662 0.56963 0.05738 0.0
C235 C 0.04803 0.60277 0.97185 0.0
C236 C 0.01595 0.61616 0.96747 0.0
C237 C 0.98451 0.60541 0.98838 0.0
C238 C 0.95395 0.61814 0.98412 0.0
C239 C 0.95441 0.64194 0.95895 0.0
C240 C 0.98604 0.65259 0.93803 0.0
C241 C 0.01656 0.63973 0.94224 0.0
C242 C 0.09764 0.51168 0.97715 0.0
C243 C 0.98772 0.49567 1.01009 0.0
O244 O 0.06676 0.45669 0.06029 0.0
O245 O 0.07476 0.48902 0.10672 0.0
O246 O 0.05503 0.55912 0.07078 0.0
O247 O 1.0136 0.51869 0.08682 0.0
O248 O 0.12454 0.53761 0.06043 0.0
O249 O 0.1154 0.58484 0.04092 0.0
O250 O 0.06447 0.60849 1.0025 0.0
O251 O 0.04377 0.57261 0.96048 0.0
O252 O 0.0683 0.50427 0.99532 0.0
O253 O 0.11011 0.54336 0.97799 0.0
O254 O 1.00001 0.52774 1.00775 0.0
O255 O 1.00913 0.47985 0.0253 0.0
H256 H 0.14414 0.47951 0.06134 0.0
H257 H 0.1999 0.46208 0.07525 0.0
H258 H 0.14083 0.40274 0.15811 0.0
H259 H 0.08557 0.42082 0.1445 0.0
H260 H 0.98368 0.58732 1.00814 0.0
H261 H 0.93022 0.60977 1.00095 0.0
H262 H 0.98705 0.67064 0.91819 0.0
H263 H 0.04062 0.64818 0.92583 0.0
C264 C 0.26575 0.2083 0.25069 0.0
C265 C 0.30207 0.22623 0.25817 0.0
C266 C 0.24227 0.19368 0.27762 0.0
C267 C 0.25535 0.19771 0.31289 0.0
C268 C 0.29249 0.21495 0.32042 0.0
C269 C 0.31561 0.22888 0.29277 0.0
C270 C 0.20307 0.17496 0.26846 0.0
C271 C 0.30721 0.22 0.35775 0.0
C272 C 0.17924 0.19152 0.38015 0.0
C273 C 0.17422 0.15939 0.39116 0.0
C274 C 0.20683 0.20485 0.35584 0.0
C275 C 0.22934 0.18529 0.34183 0.0
C276 C 0.22491 0.15307 0.3535 0.0
C277 C 0.19749 0.14056 0.37823 0.0
C278 C 0.21116 0.23952 0.34437 0.0
C279 C 0.24798 0.13134 0.33874 0.0
H280 H 0.25552 0.20641 0.22377 0.0
H281 H 0.34369 0.24311 0.29834 0.0
H282 H 0.19662 0.15031 0.27992 0.0
H283 H 0.18346 0.18808 0.27995 0.0
H284 H 0.1982 0.17196 0.23953 0.0
H285 H 0.33737 0.23189 0.35887 0.0
H286 H 0.2926 0.23564 0.37298 0.0
H287 H 0.30184 0.19622 0.37097 0.0
H288 H 0.16142 0.20612 0.39044 0.0
H289 H 0.19332 0.11556 0.38652 0.0
H290 H 0.20336 0.23923 0.31615 0.0
H291 H 0.24047 0.2538 0.34704 0.0
H292 H 0.19369 0.25233 0.35998 0.0
H293 H 0.24135 0.1258 0.31035 0.0
H294 H 0.24302 0.10783 0.35254 0.0
H295 H 0.27782 0.14409 0.34076 0.0
C296 C 0.3432 0.89321 0.69926 0.0
C297 C 0.36679 0.89496 0.67024 0.0
C298 C 0.35739 0.89916 0.73369 0.0
C299 C 0.39607 0.90634 0.73927 0.0
C300 C 0.41974 0.90515 0.71044 0.0
C301 C 0.40486 0.89975 0.67619 0.0
C302 C 0.33119 0.90021 0.76373 0.0
C303 C 0.46106 0.91192 0.71542 0.0
C304 C 0.4331 0.96566 0.81561 0.0
C305 C 0.43671 0.94444 0.84215 0.0
C306 C 0.42053 0.95351 0.78185 0.0
C307 C 0.41184 0.91929 0.77433 0.0
C308 C 0.41658 0.89779 0.80071 0.0
C309 C 0.42865 0.91063 0.83451 0.0
C310 C 0.41544 0.97723 0.75454 0.0
C311 C 0.40833 0.86128 0.7934 0.0
H312 H 0.31365 0.8886 0.69497 0.0
H313 H 0.42341 0.90124 0.65401 0.0
H314 H 0.33671 0.88561 0.78586 0.0
H315 H 0.33559 0.9259 0.77383 0.0
H316 H 0.30176 0.8908 0.75554 0.0
H317 H 0.47463 0.90428 0.69174 0.0
H318 H 0.47298 0.93857 0.72055 0.0
H319 H 0.46775 0.899 0.7385 0.0
H320 H 0.43895 0.99177 0.82164 0.0
H321 H 0.43176 0.89426 0.85502 0.0
H322 H 0.38593 0.9715 0.74639 0.0
H323 H 0.43173 0.97469 0.73068 0.0
H324 H 0.42408 1.00313 0.76448 0.0
H325 H 0.37833 0.85115 0.78814 0.0
H326 H 0.41636 0.84827 0.81582 0.0
H327 H 0.42318 0.85605 0.76948 0.0
C328 C 0.68503 0.42459 0.7555 0.0
C329 C 0.65692 0.40214 0.77331 0.0
C330 C 0.67748 0.44097 0.72515 0.0
C331 C 0.6407 0.43542 0.71179 0.0
C332 C 0.6125 0.4119 0.72897 0.0
C333 C 0.62084 0.39579 0.75907 0.0
C334 C 0.7089 0.46524 0.70808 0.0
C335 C 0.57289 0.40467 0.71647 0.0
C336 C 0.61213 0.50328 0.66017 0.0
C337 C 0.61086 0.49202 0.62467 0.0
C338 C 0.62201 0.48551 0.6882 0.0
C339 C 0.63131 0.45527 0.68138 0.0
C340 C 0.63048 0.44391 0.64553 0.0
C341 C 0.62024 0.46211 0.61798 0.0
C342 C 0.622 0.49904 0.72547 0.0
C343 C 0.63996 0.41211 0.63614 0.0
H344 H 0.71288 0.43039 0.76621 0.0
H345 H 0.59853 0.37904 0.77248 0.0
H346 H 0.70899 0.45982 0.67927 0.0
H347 H 0.70506 0.49031 0.71178 0.0
H348 H 0.7362 0.46501 0.71931 0.0
H349 H 0.55436 0.38455 0.73103 0.0
H350 H 0.56273 0.42702 0.71998 0.0
H351 H 0.57099 0.39783 0.68793 0.0
H352 H 0.60493 0.52607 0.66629 0.0
H353 H 0.61938 0.45264 0.59102 0.0
H354 H 0.64966 0.50232 0.73776 0.0
H355 H 0.60184 0.48139 0.74146 0.0
H356 H 0.61479 0.52294 0.72674 0.0
H357 H 0.66664 0.41167 0.64856 0.0
H358 H 0.64192 0.40813 0.6072 0.0
H359 H 0.61842 0.39134 0.64651 0.0
C360 C 0.93202 0.65928 0.2254 0.0
C361 C 0.94947 0.66676 0.25872 0.0
C362 C 0.94491 0.64089 0.1985 0.0
C363 C 0.97666 0.62911 0.20411 0.0
C364 C 0.99452 0.63644 0.23775 0.0
C365 C 0.98118 0.65536 0.26421 0.0
C366 C 0.92471 0.6346 0.16355 0.0
C367 C 0.02819 0.62456 0.24569 0.0
C368 C 0.98712 0.55626 0.14306 0.0
C369 C 1.01326 0.57113 0.11777 0.0
C370 C 0.97592 0.57445 0.17129 0.0
C371 C 0.99047 0.60903 0.17491 0.0
C372 C 0.0168 0.62428 0.14935 0.0
C373 C 0.02796 0.60535 0.12156 0.0
C374 C 0.9482 0.55646 0.19741 0.0
C375 C 0.03303 0.66087 0.15113 0.0
H376 H 0.90829 0.66859 0.21995 0.0
H377 H 0.99589 0.66155 0.28909 0.0
H378 H 0.94387 0.64507 0.14209 0.0
H379 H 0.91475 0.60784 0.15784 0.0
H380 H 0.90065 0.6454 0.16295 0.0
H381 H 0.03823 0.63086 0.27321 0.0
H382 H 0.02178 0.59757 0.24135 0.0
H383 H 0.05079 0.6356 0.22741 0.0
H384 H 0.97542 0.52997 0.14101 0.0
H385 H 0.04813 0.61748 0.10258 0.0
H386 H 0.92268 0.56509 0.19627 0.0
H387 H 0.95956 0.56182 0.22459 0.0
H388 H 0.94068 0.5295 0.19232 0.0
H389 H 1.01062 0.6735 0.14888 0.0
H390 H 0.05342 0.66926 0.1299 0.0
H391 H 0.04685 0.66849 0.17701 0.0
C392 C 0.45026 0.20024 0.20384 0.0
C393 C 0.45829 0.22814 0.1833 0.0
C394 C 0.46178 0.1723 0.19339 0.0
C395 C 0.48131 0.17228 0.16144 0.0
C396 C 0.49013 0.20071 0.14102 0.0
C397 C 0.4783 0.22826 0.15213 0.0
C398 C 0.45188 0.14246 0.2158 0.0
C399 C 0.5109 0.20163 0.10676 0.0
C400 C 0.53766 0.11206 0.13852 0.0
C401 C 0.51467 0.09123 0.11355 0.0
C402 C 0.52633 0.13751 0.15597 0.0
C403 C 0.49116 0.14219 0.14821 0.0
C404 C 0.4668 0.1198 0.12492 0.0
C405 C 0.47884 0.09449 0.1079 0.0
C406 C 0.55293 0.16059 0.18096 0.0
C407 C 0.42894 0.12387 0.11617 0.0
H408 H 0.43399 0.19999 0.22753 0.0
H409 H 0.48371 0.24962 0.13592 0.0
H410 H 0.43198 0.12219 0.20128 0.0
H411 H 0.47683 0.13385 0.22135 0.0
H412 H 0.43928 0.14736 0.24123 0.0
H413 H 0.51695 0.2261 0.09484 0.0
H414 H 0.53739 0.19515 0.11113 0.0
H415 H 0.49439 0.1832 0.0876 0.0
H416 H 0.56516 0.10933 0.14345 0.0
H417 H 0.46089 0.07843 0.0887 0.0
H418 H 0.53884 0.16459 0.2058 0.0
H419 H 0.56302 0.18477 0.16877 0.0
H420 H 0.57722 0.15127 0.18744 0.0
H421 H 0.4139 0.12724 0.14061 0.0
H422 H 0.41196 0.1025 0.10065 0.0
H423 H 0.43188 0.14616 0.1006 0.0
C424 C 0.29581 0.96415 0.56792 0.0
C425 C 0.28705 0.93542 0.58699 0.0
C426 C 0.26932 0.9817 0.56253 0.0
C427 C 0.23312 0.9696 0.57575 0.0
C428 C 0.22425 0.94053 0.59508 0.0
C429 C 0.25156 0.92398 0.60085 0.0
C430 C 0.27994 1.01299 0.54246 0.0
C431 C 0.18571 0.92643 0.60881 0.0
C432 C 0.16769 1.02476 0.58358 0.0
C433 C 0.14779 1.01687 0.5519 0.0
C434 C 0.19616 1.01001 0.59151 0.0
C435 C 0.20392 0.98624 0.56759 0.0
C436 C 0.18343 0.97795 0.5358 0.0
C437 C 0.15594 0.99372 0.52814 0.0
C438 C 0.21801 1.01991 0.6253 0.0
C439 C 0.19018 0.95209 0.51009 0.0
H440 H 0.3235 0.97302 0.5576 0.0
H441 H 0.24502 0.90166 0.61557 0.0
H442 H 0.26398 1.00986 0.51741 0.0
H443 H 0.27296 0.03323 0.55803 0.0
H444 H 0.3099 1.02028 0.53621 0.0
H445 H 0.18361 0.90396 0.62393 0.0
H446 H 0.17717 0.94481 0.62607 0.0
H447 H 0.16579 0.92028 0.58642 0.0
H448 H 0.16131 0.04272 0.6019 0.0
H449 H 0.14021 0.98739 0.50378 0.0
H450 H 0.24793 0.02851 0.61936 0.0
H451 H 0.21437 0.99845 0.64226 0.0
H452 H 0.20946 0.03968 0.64036 0.0
H453 H 0.21905 0.95938 0.50048 0.0
H454 H 0.17116 0.94797 0.48697 0.0
H455 H 0.18656 0.92853 0.5235 0.0
C456 C 0.78229 0.39055 0.94441 0.0
C457 C 0.7799 0.38615 0.90745 0.0
C458 C 0.81499 0.40912 0.9616 0.0
C459 C 0.84693 0.42351 0.94173 0.0
C460 C 0.84468 0.41921 0.9044 0.0
C461 C 0.81137 0.40101 0.88783 0.0
C462 C 0.81533 0.4133 1.00125 0.0
C463 C 0.87783 0.43335 0.88187 0.0
C464 C 0.9251 0.4938 0.9825 0.0
C465 C 0.95093 0.4773 0.99399 0.0
C466 C 0.89123 0.47676 0.96603 0.0
C467 C 0.88278 0.4422 0.95999 0.0
C468 C 0.90883 0.42548 0.97149 0.0
C469 C 0.94211 0.44303 0.98846 0.0
C470 C 0.86442 0.49585 0.95504 0.0
C471 C 0.90182 0.38891 0.96535 0.0
H472 H 0.75827 0.37966 0.96004 0.0
H473 H 0.81031 0.39769 0.85938 0.0
H474 H 0.83615 0.40203 1.0127 0.0
H475 H 0.82348 0.43975 1.00903 0.0
H476 H 0.78797 0.40193 1.01292 0.0
H477 H 0.87183 0.42816 0.8533 0.0
H478 H 0.88727 0.46029 0.88657 0.0
H479 H 0.90105 0.423 0.88927 0.0
H480 H 0.93131 0.52019 0.98644 0.0
H481 H 0.96172 0.42982 0.99676 0.0
H482 H 0.8372 0.48586 0.96754 0.0
H483 H 0.85998 0.4932 0.92609 0.0
H484 H 0.87433 0.52236 0.9624 0.0
H485 H 0.87595 0.37607 0.97862 0.0
H486 H 0.92483 0.37945 0.97529 0.0
H487 H 0.898 0.38264 0.93674 0.0
C488 C 0.81014 0.69131 0.41828 0.0
C489 C 0.83691 0.67563 0.40583 0.0
C490 C 0.77748 0.67406 0.43521 0.0
C491 C 0.77052 0.63982 0.44 0.0
C492 C 0.79684 0.62359 0.4267 0.0
C493 C 0.82943 0.64151 0.40992 0.0
C494 C 0.75062 0.69275 0.44858 0.0
C495 C 0.79096 0.58724 0.43091 0.0
C496 C 0.70606 0.60397 0.51634 0.0
C497 C 0.67183 0.59047 0.49938 0.0
C498 C 0.73815 0.61935 0.49741 0.0
C499 C 0.73661 0.62156 0.4602 0.0
C500 C 0.70226 0.60738 0.4428 0.0
C501 C 0.67049 0.59211 0.46246 0.0
C502 C 0.77371 0.6339 0.51749 0.0
C503 C 0.69886 0.60887 0.40334 0.0
H504 H 0.81469 0.7174 0.41485 0.0
H505 H 0.8496 0.62882 0.40087 0.0
H506 H 0.72271 0.6817 0.43721 0.0
H507 H 0.74824 0.69111 0.47765 0.0
H508 H 0.75922 0.71904 0.44195 0.0
H509 H 0.81264 0.57772 0.41751 0.0
H510 H 0.79112 0.58189 0.45933 0.0
H511 H 0.76354 0.57376 0.42006 0.0
H512 H 0.70773 0.60296 0.54477 0.0
H513 H 0.64438 0.58191 0.44889 0.0
H514 H 0.78245 0.66079 0.51406 0.0
H515 H 0.79606 0.62358 0.50685 0.0
H516 H 0.77093 0.62924 0.54612 0.0
H517 H 0.70451 0.6348 0.39568 0.0
H518 H 0.67094 0.5955 0.39341 0.0
H519 H 0.71975 0.59825 0.39012 0.0
C520 C 0.27753 0.30232 0.15978 0.0
C521 C 0.31503 0.31144 0.16929 0.0
C522 C 0.25993 0.32541 0.14795 0.0
C523 C 0.28044 0.35846 0.14531 0.0
C524 C 0.31891 0.36744 0.15262 0.0
C525 C 0.33586 0.3437 0.16463 0.0
C526 C 0.21888 0.31471 0.1402 0.0
C527 C 0.3417 0.40235 0.14958 0.0
C528 C 0.22573 0.40708 0.09668 0.0
C529 C 0.20725 0.41827 0.12471 0.0
C530 C 0.25235 0.38986 0.10301 0.0
C531 C 0.26034 0.38358 0.13812 0.0
C532 C 0.24394 0.39711 0.1665 0.0
C533 C 0.21762 0.41437 0.15943 0.0
C534 C 0.26962 0.37619 0.07208 0.0
C535 C 0.25188 0.39112 0.20436 0.0
H536 H 0.26162 0.27717 0.16273 0.0
H537 H 0.3649 0.35069 0.17193 0.0
H538 H 0.20397 0.32673 0.15957 0.0
H539 H 0.21299 0.32234 0.11361 0.0
H540 H 0.20756 0.28773 0.1415 0.0
H541 H 0.37184 0.40424 0.15053 0.0
H542 H 0.33514 0.41276 0.12468 0.0
H543 H 0.33496 0.41762 0.17166 0.0
H544 H 0.21781 0.41 0.06976 0.0
H545 H 0.204 0.42366 0.18115 0.0
H546 H 0.25625 0.34959 0.06846 0.0
H547 H 0.29953 0.37902 0.07687 0.0
H548 H 0.26621 0.38834 0.04724 0.0
H549 H 0.23934 0.36499 0.21002 0.0
H550 H 0.24049 0.40658 0.22322 0.0
H551 H 0.28209 0.39607 0.20901 0.0
C552 C 0.65697 0.25344 0.88271 0.0
C553 C 0.67495 0.28127 0.90362 0.0
C554 C 0.64169 0.2222 0.89748 0.0
C555 C 0.64412 0.21779 0.9344 0.0
C556 C 0.66192 0.24576 0.95563 0.0
C557 C 0.67663 0.27666 0.94029 0.0
C558 C 0.62287 0.19371 0.87337 0.0
C559 C 0.66541 0.24314 0.99497 0.0
C560 C 0.57416 0.14698 0.97999 0.0
C561 C 0.59395 0.12315 0.98469 0.0
C562 C 0.58979 0.1771 0.96352 0.0
C563 C 0.62677 0.18464 0.95111 0.0
C564 C 0.64707 0.16075 0.9558 0.0
C565 C 0.63057 0.13054 0.97229 0.0
C566 C 0.56647 0.20104 0.95951 0.0
C567 C 0.68652 0.16722 0.94354 0.0
H568 H 0.65537 0.25581 0.85447 0.0
H569 H 0.68931 0.29748 0.95748 0.0
H570 H 0.63676 0.17361 0.87545 0.0
H571 H 0.59374 0.18389 0.88157 0.0
H572 H 0.62314 0.20065 0.84538 0.0
H573 H 0.68124 0.26653 1.0079 0.0
H574 H 0.63752 0.23596 1.00689 0.0
H575 H 0.6794 0.22372 1.00076 0.0
H576 H 0.54593 0.14207 0.98926 0.0
H577 H 0.64647 0.11274 0.97556 0.0
H578 H 0.5648 0.20678 0.93134 0.0
H579 H 0.57952 0.22439 0.97403 0.0
H580 H 0.53796 0.19147 0.96955 0.0
H581 H 0.68793 0.17189 0.91491 0.0
H582 H 0.69868 0.14641 0.94846 0.0
H583 H 0.70365 0.18956 0.95734 0.0
C584 C 0.97872 0.79525 0.41066 0.0
C585 C 0.94026 0.7811 0.40756 0.0
C586 C 0.99356 0.82622 0.42841 0.0
C587 C 0.96979 0.84407 0.44411 0.0
C588 C 0.93108 0.83021 0.44053 0.0
C589 C 0.91705 0.79963 0.42225 0.0
C590 C 0.03494 0.83973 0.4307 0.0
C591 C 0.90413 0.84758 0.45651 0.0
C592 C 1.00527 0.90906 0.51977 0.0
C593 C 1.01025 0.93918 0.503 0.0
C594 C 0.99258 0.87837 0.50113 0.0
C595 C 0.98497 0.87698 0.46427 0.0
C596 C 0.99049 0.90732 0.44713 0.0
C597 C 1.00263 0.93766 0.4665 0.0
C598 C 0.98679 0.84723 0.52117 0.0
C599 C 0.9835 0.90779 0.40804 0.0
H600 H 0.99746 0.78181 0.3999 0.0
H601 H 0.88737 0.79023 0.41954 0.0
H602 H 0.04302 0.86474 0.42013 0.0
H603 H 0.04401 0.84183 0.45868 0.0
H604 H 0.04988 0.82405 0.41591 0.0
H605 H 0.87489 0.83358 0.45217 0.0
H606 H 0.9093 0.85159 0.4853 0.0
H607 H 0.90822 0.87204 0.44501 0.0
H608 H 1.01087 0.9094 0.5478 0.0
H609 H 1.00645 0.96037 0.45279 0.0
H610 H 1.00376 0.83164 0.50955 0.0
H611 H 0.95741 0.83303 0.51894 0.0
H612 H 0.99412 0.85208 0.54955 0.0
H613 H 0.99991 0.89328 0.39348 0.0
H614 H 0.99069 0.93306 0.39806 0.0
H615 H 0.95392 0.89618 0.40205 0.0
C616 C 0.43207 0.84209 0.50796 0.0
C617 C 0.43105 0.86622 0.53382 0.0
C618 C 0.45106 0.81818 0.514 0.0
C619 C 0.46852 0.818 0.54705 0.0
C620 C 0.4684 0.84292 0.5729 0.0
C621 C 0.44986 0.86692 0.56582 0.0
C622 C 0.45094 0.79224 0.48564 0.0
C623 C 0.48612 0.84323 0.60867 0.0
C624 C 0.47471 0.73462 0.5759 0.0
C625 C 0.51183 0.73588 0.56922 0.0
C626 C 0.46054 0.7615 0.56951 0.0
C627 C 0.48398 0.79014 0.55558 0.0
C628 C 0.52161 0.79166 0.54903 0.0
C629 C 0.53521 0.76452 0.55621 0.0
C630 C 0.42038 0.75912 0.57739 0.0
C631 C 0.54723 0.82163 0.53374 0.0
H632 H 0.4171 0.8414 0.48339 0.0
H633 H 0.44883 0.88556 0.58583 0.0
H634 H 0.47942 0.78982 0.48116 0.0
H635 H 0.43399 0.76816 0.49422 0.0
H636 H 0.43952 0.79782 0.46026 0.0
H637 H 0.48555 0.86542 0.62498 0.0
H638 H 0.4713 0.82126 0.62301 0.0
H639 H 0.51524 0.84208 0.60578 0.0
H640 H 0.45677 0.71256 0.58635 0.0
H641 H 0.56388 0.76535 0.55086 0.0
H642 H 0.40543 0.76115 0.55269 0.0
H643 H 0.41809 0.77969 0.59542 0.0
H644 H 0.40636 0.73566 0.58964 0.0
H645 H 0.53686 0.82594 0.50741 0.0
H646 H 0.57594 0.81917 0.53092 0.0
H647 H 0.54778 0.84361 0.55073 0.0
C648 C 0.80903 0.85416 0.81814 0.0
C649 C 0.79674 0.82267 0.8316 0.0
C650 C 0.83742 0.86139 0.79334 0.0
C651 C 0.85471 0.83676 0.78216 0.0
C652 C 0.842 0.80469 0.79484 0.0
C653 C 0.81294 0.79794 0.81924 0.0
C654 C 0.8499 0.89588 0.7802 0.0
C655 C 0.85998 0.77789 0.78371 0.0
C656 C 0.91324 0.86039 0.70113 0.0
C657 C 0.94725 0.87727 0.71649 0.0
C658 C 0.88327 0.84484 0.72204 0.0
C659 C 0.88766 0.84573 0.75911 0.0
C660 C 0.92283 0.85997 0.77445 0.0
C661 C 0.95211 0.8758 0.75301 0.0
C662 C 0.84622 0.82992 0.70466 0.0
C663 C 0.92882 0.86094 0.81386 0.0
H664 H 0.79748 0.87371 0.82797 0.0
H665 H 0.80337 0.77342 0.82908 0.0
H666 H 0.87845 0.90754 0.78968 0.0
H667 H 0.85039 0.89542 0.75096 0.0
H668 H 0.83168 0.91142 0.78935 0.0
H669 H 0.84489 0.75365 0.79362 0.0
H670 H 0.86148 0.77598 0.75455 0.0
H671 H 0.88877 0.78398 0.79399 0.0
H672 H 0.90946 0.86063 0.67284 0.0
H673 H 0.97807 0.88886 0.76532 0.0
H674 H 0.82782 0.84637 0.70953 0.0
H675 H 0.83269 0.80596 0.71601 0.0
H676 H 0.8487 0.82637 0.67571 0.0
H677 H 0.91544 0.87894 0.82646 0.0
H678 H 0.95866 0.86818 0.82106 0.0
H679 H 0.91597 0.83668 0.82491 0.0
C680 C 0.73624 0.17371 0.40041 0.0
C681 C 0.73729 0.14769 0.42209 0.0
C682 C 0.72514 0.16791 0.36494 0.0
C683 C 0.71496 0.13536 0.35086 0.0
C684 C 0.71469 0.10895 0.37294 0.0
C685 C 0.72579 0.11544 0.40829 0.0
C686 C 0.72566 0.19669 0.34221 0.0
C687 C 0.70386 0.07387 0.35894 0.0
C688 C 0.66259 0.1144 0.26391 0.0
C689 C 0.69104 0.11219 0.2406 0.0
C690 C 0.67004 0.12271 0.29977 0.0
C691 C 0.70677 0.12887 0.31258 0.0
C692 C 0.7357 0.12745 0.28903 0.0
C693 C 0.72749 0.11918 0.25334 0.0
C694 C 0.6385 0.12407 0.32409 0.0
C695 C 0.77528 0.13403 0.30166 0.0
H696 H 0.74544 0.19871 0.41079 0.0
H697 H 0.72598 0.09522 0.42508 0.0
H698 H 0.74737 0.19872 0.32187 0.0
H699 H 0.69883 0.19294 0.32819 0.0
H700 H 0.73126 0.22019 0.35781 0.0
H701 H 0.70318 0.05607 0.37999 0.0
H702 H 0.67622 0.06828 0.34612 0.0
H703 H 0.72388 0.07028 0.33858 0.0
H704 H 0.63432 0.10876 0.2543 0.0
H705 H 0.74968 0.11809 0.23535 0.0
H706 H 0.64466 0.14796 0.33891 0.0
H707 H 0.6351 0.10466 0.34373 0.0
H708 H 0.61192 0.12065 0.30962 0.0
H709 H 0.78401 0.15851 0.31516 0.0
H710 H 0.79471 0.13306 0.27974 0.0
H711 H 0.7776 0.11563 0.32114 0.0
C712 C 0.50313 0.6831 0.31334 0.0
C713 C 0.46734 0.67248 0.29842 0.0
C714 C 0.51351 0.66916 0.34411 0.0
C715 C 0.48772 0.64362 0.36127 0.0
C716 C 0.45103 0.63385 0.34728 0.0
C717 C 0.44143 0.64815 0.31631 0.0
C718 C 0.55288 0.68084 0.3573 0.0
C719 C 0.4221 0.60714 0.36421 0.0
C720 C 0.52582 0.5818 0.41371 0.0
C721 C 0.52482 0.59256 0.4492 0.0
C722 C 0.51376 0.59785 0.38544 0.0
C723 C 0.49985 0.62578 0.39198 0.0
C724 C 0.49849 0.6367 0.42779 0.0
C725 C 0.51092 0.6202 0.45565 0.0
C726 C 0.51629 0.58493 0.34824 0.0
C727 C 0.48398 0.66607 0.43677 0.0
H728 H 0.52378 0.70148 0.29991 0.0
H729 H 0.41389 0.63919 0.30513 0.0
H730 H 0.55341 0.68742 0.38587 0.0
H731 H 0.56682 0.66076 0.35391 0.0
H732 H 0.56897 0.70242 0.34305 0.0
H733 H 0.39416 0.60432 0.35265 0.0
H734 H 0.42956 0.58348 0.36074 0.0
H735 H 0.42102 0.6124 0.39297 0.0
H736 H 0.53643 0.56069 0.40779 0.0
H737 H 0.50981 0.62912 0.48262 0.0
H738 H 0.53454 0.60422 0.33247 0.0
H739 H 0.48856 0.57852 0.33552 0.0
H740 H 0.5273 0.56291 0.34722 0.0
H741 H 0.5012 0.688 0.42395 0.0
H742 H 0.48388 0.67133 0.46564 0.0
H743 H 0.45538 0.66194 0.42639 0.0
C744 C 0.18426 0.40252 0.83319 0.0
C745 C 0.16045 0.38938 0.80452 0.0
C746 C 0.17328 0.42023 0.86201 0.0
C747 C 0.13769 0.42648 0.86251 0.0
C748 C 0.11337 0.41305 0.83372 0.0
C749 C 0.12473 0.39454 0.80564 0.0
C750 C 0.20028 0.43273 0.89192 0.0
C751 C 0.07558 0.41931 0.83185 0.0
C752 C 0.09787 0.45503 0.94988 0.0
C753 C 0.10792 0.48951 0.94826 0.0
C754 C 0.10746 0.43446 0.92277 0.0
C755 C 0.1268 0.44812 0.89211 0.0
C756 C 0.13646 0.48292 0.89022 0.0
C757 C 0.12753 0.50288 0.91813 0.0
C758 C 0.09725 0.39791 0.92724 0.0
C759 C 0.1561 0.49927 0.8583 0.0
H760 H 0.21195 0.39905 0.83298 0.0
H761 H 0.10606 0.38521 0.7837 0.0
H762 H 0.20891 0.45991 0.89238 0.0
H763 H 0.18687 0.42529 0.91752 0.0
H764 H 0.22539 0.42347 0.88958 0.0
H765 H 0.05945 0.40686 0.80847 0.0
H766 H 0.05974 0.41075 0.85596 0.0
H767 H 0.07846 0.44606 0.83065 0.0
H768 H 0.08288 0.44403 0.97275 0.0
H769 H 0.13543 0.52928 0.91594 0.0
H770 H 0.12248 0.38876 0.92579 0.0
H771 H 0.07858 0.38544 0.90549 0.0
H772 H 0.08334 0.39087 0.95274 0.0
H773 H 0.18362 0.49419 0.85588 0.0
H774 H 0.15999 0.52626 0.85959 0.0
H775 H 0.14013 0.48907 0.83405 0.0
C776 C 0.66383 0.8486 0.9183 0.0
C777 C 0.69519 0.85611 0.89667 0.0
C778 C 0.64558 0.87258 0.92827 0.0
C779 C 0.65798 0.90451 0.91515 0.0
C780 C 0.68714 0.91137 0.89058 0.0
C781 C 0.70586 0.88739 0.8822 0.0
C782 C 0.61494 0.86439 0.95502 0.0
C783 C 0.70036 0.94479 0.87501 0.0
C784 C 0.59829 0.96314 0.93584 0.0
C785 C 0.61708 0.98089 0.96512 0.0
C786 C 0.61201 0.93901 0.9182 0.0
C787 C 0.64439 0.93178 0.93109 0.0
C788 C 0.66367 0.95005 0.96033 0.0
C789 C 0.65011 0.97474 0.97658 0.0
C790 C 0.59153 0.92091 0.88628 0.0
C791 C 0.69786 0.94267 0.97544 0.0
H792 H 0.6544 0.82433 0.92876 0.0
H793 H 0.73016 0.89403 0.8658 0.0
H794 H 0.62454 0.87797 0.98025 0.0
H795 H 0.59048 0.87219 0.94603 0.0
H796 H 0.60628 0.83777 0.96018 0.0
H797 H 0.71796 0.94428 0.85152 0.0
H798 H 0.67658 0.95427 0.86734 0.0
H799 H 0.71686 0.96227 0.89499 0.0
H800 H 0.57273 0.96792 0.92696 0.0
H801 H 0.66444 0.9881 0.99951 0.0
H802 H 0.57884 0.89498 0.89253 0.0
H803 H 0.61101 0.92087 0.86423 0.0
H804 H 0.56933 0.93192 0.87734 0.0
H805 H 0.69129 0.9168 0.98352 0.0
H806 H 0.70917 0.95881 0.99868 0.0
H807 H 0.71971 0.94574 0.95515 0.0
C808 C 0.81317 0.09358 0.51576 0.0
C809 C 0.8219 0.12785 0.51575 0.0
C810 C 0.83912 0.0774 0.52721 0.0
C811 C 0.87471 0.09604 0.53814 0.0
C812 C 0.8837 0.1307 0.53785 0.0
C813 C 0.85699 0.14622 0.52694 0.0
C814 C 0.82847 0.04042 0.52767 0.0
C815 C 0.92166 0.15134 0.54862 0.0
C816 C 0.9351 0.05893 0.59546 0.0
C817 C 0.9584 0.05003 0.57033 0.0
C818 C 0.90706 0.0733 0.58526 0.0
C819 C 0.90292 0.07936 0.54921 0.0
C820 C 0.92641 0.0703 0.52375 0.0
C821 C 0.95369 0.05545 0.53462 0.0
C822 C 0.88214 0.08228 0.61301 0.0
C823 C 0.92326 0.07694 0.48516 0.0
H824 H 0.78587 0.07951 0.50726 0.0
H825 H 0.86371 0.17276 0.52654 0.0
H826 H 0.84671 0.03049 0.50982 0.0
H827 H 0.83238 0.03232 0.55458 0.0
H828 H 0.79929 0.02963 0.51935 0.0
H829 H 0.92421 0.178 0.54663 0.0
H830 H 0.92785 0.14642 0.57616 0.0
H831 H 0.94295 0.14472 0.53164 0.0
H832 H 0.93879 0.05466 0.62307 0.0
H833 H 0.97193 0.04873 0.51519 0.0
H834 H 0.85276 0.07073 0.60608 0.0
H835 H 0.88582 0.1092 0.61408 0.0
H836 H 0.88788 0.0745 0.63963 0.0
H837 H 0.89508 0.06467 0.47517 0.0
H838 H 0.94368 0.06828 0.46877 0.0
H839 H 0.92763 0.10364 0.48168 0.0
C840 C 0.34048 0.67866 0.12471 0.0
C841 C 0.34252 0.68336 0.16167 0.0
C842 C 0.30813 0.65948 0.10733 0.0
C843 C 0.27608 0.64477 0.12695 0.0
C844 C 0.27794 0.64945 0.16427 0.0
C845 C 0.31093 0.66821 0.18103 0.0
C846 C 0.30832 0.65491 0.06775 0.0
C847 C 0.24469 0.6351 0.18659 0.0
C848 C 0.18119 0.62304 0.079 0.0
C849 C 0.17302 0.58872 0.07397 0.0
C850 C 0.2141 0.64127 0.09621 0.0
C851 C 0.24054 0.62528 0.10845 0.0
C852 C 0.23272 0.59067 0.10296 0.0
C853 C 0.19919 0.57292 0.08629 0.0
C854 C 0.22028 0.67782 0.10178 0.0
C855 C 0.25992 0.57226 0.11469 0.0
H856 H 0.36454 0.68975 0.10923 0.0
H857 H 0.31165 0.67172 0.20946 0.0
H858 H 0.3008 0.62839 0.06029 0.0
H859 H 0.28727 0.66562 0.05581 0.0
H860 H 0.33569 0.66659 0.05628 0.0
H861 H 0.25027 0.64081 0.21515 0.0
H862 H 0.22118 0.6448 0.17858 0.0
H863 H 0.23593 0.60809 0.18236 0.0
H864 H 0.16136 0.63576 0.07009 0.0
H865 H 0.19354 0.54653 0.08278 0.0
H866 H 0.24608 0.69089 0.08856 0.0
H867 H 0.22377 0.68448 0.13033 0.0
H868 H 0.19701 0.68669 0.09141 0.0
H869 H 0.2872 0.58252 0.1024 0.0
H870 H 0.25058 0.54565 0.10768 0.0
H871 H 0.26401 0.57532 0.14367 0.0
C872 C 0.33655 0.3994 0.6683 0.0
C873 C 0.31406 0.41669 0.68603 0.0
C874 C 0.36576 0.41524 0.64619 0.0
C875 C 0.37314 0.44949 0.64124 0.0
C876 C 0.34976 0.46691 0.65819 0.0
C877 C 0.32078 0.45043 0.68036 0.0
C878 C 0.38956 0.39535 0.62897 0.0
C879 C 0.35603 0.50326 0.65371 0.0
C880 C 0.47196 0.49482 0.61354 0.0
C881 C 0.46845 0.49675 0.57684 0.0
C882 C 0.44132 0.48006 0.6347 0.0
C883 C 0.40579 0.46696 0.61914 0.0
C884 C 0.40199 0.46955 0.58218 0.0
C885 C 0.43315 0.48418 0.56162 0.0
C886 C 0.44719 0.47787 0.67377 0.0
C887 C 0.36497 0.45634 0.56416 0.0
H888 H 0.33206 0.37345 0.67265 0.0
H889 H 0.30402 0.46416 0.6942 0.0
H890 H 0.39012 0.39836 0.60003 0.0
H891 H 0.41843 0.40438 0.63881 0.0
H892 H 0.37959 0.36883 0.63428 0.0
H893 H 0.33431 0.513 0.66673 0.0
H894 H 0.38331 0.51645 0.66511 0.0
H895 H 0.3566 0.50873 0.62529 0.0
H896 H 0.49896 0.50429 0.62573 0.0
H897 H 0.42989 0.48549 0.53338 0.0
H898 H 0.44057 0.45176 0.68098 0.0
H899 H 0.42822 0.48949 0.68875 0.0
H900 H 0.47608 0.48991 0.68214 0.0
H901 H 0.35558 0.42941 0.567 0.0
H902 H 0.36598 0.46161 0.53564 0.0
H903 H 0.34396 0.46713 0.57688 0.0
C904 C 0.78294 0.71627 0.91612 0.0
C905 C 0.76855 0.72581 0.94762 0.0
C906 C 0.81282 0.70194 0.91646 0.0
C907 C 0.82867 0.69725 0.94911 0.0
C908 C 0.81416 0.70688 0.981 0.0
C909 C 0.78437 0.72126 0.97984 0.0
C910 C 0.82772 0.69226 0.88191 0.0
C911 C 0.83044 0.70245 1.01631 0.0
C912 C 0.88607 0.63554 0.95509 0.0
C913 C 0.92219 0.65594 0.955 0.0
C914 C 0.85535 0.6486 0.95259 0.0
C915 C 0.86091 0.68287 0.95002 0.0
C916 C 0.8973 0.70355 0.94941 0.0
C917 C 0.92751 0.68982 0.95189 0.0
C918 C 0.81695 0.62577 0.9531 0.0
C919 C 0.90433 0.74024 0.94683 0.0
H920 H 0.77103 0.7204 0.89121 0.0
H921 H 0.7736 0.72927 1.00411 0.0
H922 H 0.85712 0.70596 0.87915 0.0
H923 H 0.82674 0.66578 0.88142 0.0
H924 H 0.81194 0.69718 0.85886 0.0
H925 H 0.81546 0.71064 0.03866 0.0
H926 H 0.82967 0.67627 1.01948 0.0
H927 H 0.85988 0.71658 1.01776 0.0
H928 H 0.88183 0.60929 0.957 0.0
H929 H 0.95535 0.70574 0.95222 0.0
H930 H 0.8013 0.62888 0.92922 0.0
H931 H 0.80169 0.63196 0.97629 0.0
H932 H 0.81738 0.59964 0.95423 0.0
H933 H 0.89032 0.74614 0.92312 0.0
H934 H 0.93428 0.75275 0.94542 0.0
H935 H 0.89256 0.75038 0.97012 0.0
C936 C 0.46505 0.81664 0.18846 0.0
C937 C 0.44705 0.78924 0.16694 0.0
C938 C 0.48133 0.84793 0.17435 0.0
C939 C 0.47987 0.85289 0.13749 0.0
C940 C 0.46185 0.82543 0.11563 0.0
C941 C 0.44611 0.7944 0.13035 0.0
C942 C 0.50024 0.87588 0.1991 0.0
C943 C 0.45933 0.82872 0.07631 0.0
C944 C 0.49674 0.94119 0.10184 0.0
C945 C 0.5337 0.94816 0.09043 0.0
C946 C 0.47903 0.91071 0.11715 0.0
C947 C 0.4984 0.88612 0.12161 0.0
C948 C 0.53571 0.89323 0.11014 0.0
C949 C 0.55258 0.92366 0.09483 0.0
C950 C 0.4393 0.90473 0.12846 0.0
C951 C 0.55807 0.86851 0.11402 0.0
H952 H 0.46601 0.81389 0.21668 0.0
H953 H 0.43335 0.77393 0.11274 0.0
H954 H 0.52967 0.88519 0.19159 0.0
H955 H 0.48713 0.89647 0.19693 0.0
H956 H 0.49905 0.86855 0.227 0.0
H957 H 0.44316 0.80573 0.06285 0.0
H958 H 0.44618 0.84871 0.07054 0.0
H959 H 0.48749 0.83544 0.06494 0.0
H960 H 0.48154 0.95953 0.09871 0.0
H961 H 0.58104 0.92828 0.08627 0.0
H962 H 0.43698 0.89957 0.15696 0.0
H963 H 0.4221 0.88282 0.114 0.0
H964 H 0.42787 0.92598 0.12359 0.0
H965 H 0.55901 0.86221 0.14209 0.0
H966 H 0.58686 0.87768 0.10451 0.0
H967 H 0.54471 0.84556 0.09896 0.0
C968 C 0.18073 0.27428 0.69839 0.0
C969 C 0.15701 0.29194 0.71386 0.0
C970 C 0.16739 0.24296 0.6814 0.0
C971 C 0.12892 0.2274 0.67992 0.0
C972 C 0.10473 0.24435 0.69654 0.0
C973 C 0.11885 0.27607 0.71303 0.0
C974 C 0.19481 0.22669 0.6644 0.0
C975 C 0.0636 0.2291 0.69647 0.0
C976 C 0.09358 0.16035 0.60606 0.0
C977 C 0.09146 0.13071 0.62302 0.0
C978 C 0.10509 0.19147 0.6241 0.0
C979 C 0.11448 0.19385 0.66062 0.0
C980 C 0.1118 0.16397 0.67803 0.0
C981 C 0.10073 0.13319 0.65922 0.0
C982 C 0.10778 0.22203 0.60372 0.0
C983 C 0.12084 0.16449 0.71679 0.0
H984 H 0.21031 0.28503 0.69937 0.0
H985 H 0.09974 0.28878 0.72452 0.0
H986 H 0.19259 0.20258 0.67616 0.0
H987 H 0.18842 0.22206 0.63586 0.0
H988 H 0.22379 0.24178 0.66745 0.0
H989 H 0.04844 0.24409 0.71204 0.0
H990 H 0.05289 0.22618 0.669 0.0
H991 H 0.0576 0.20426 0.70744 0.0
H992 H 0.08667 0.15934 0.57825 0.0
H993 H 0.09916 0.11088 0.67312 0.0
H994 H 0.13673 0.23742 0.60438 0.0
H995 H 0.09035 0.2368 0.6162 0.0
H996 H 0.09897 0.21643 0.57577 0.0
H997 H 0.15037 0.17729 0.72143 0.0
H998 H 0.1155 0.13944 0.7272 0.0
H999 H 0.10417 0.17835 0.73198 0.0
C1000 C 0.66278 0.21646 0.55507 0.0
C1001 C 0.70146 0.22727 0.55465 0.0
C1002 C 0.64095 0.23821 0.54898 0.0
C1003 C 0.65839 0.27131 0.542 0.0
C1004 C 0.69746 0.28251 0.54267 0.0
C1005 C 0.7185 0.26042 0.54954 0.0
C1006 C 0.59936 0.22571 0.54936 0.0
C1007 C 0.71709 0.31757 0.53503 0.0
C1008 C 0.61206 0.32212 0.4866 0.0
C1009 C 0.60497 0.34467 0.51185 0.0
C1010 C 0.62797 0.2971 0.49629 0.0
C1011 C 0.63622 0.29413 0.53222 0.0
C1012 C 0.62671 0.3153 0.55814 0.0
C1013 C 0.6115 0.34053 0.54761 0.0
C1014 C 0.63802 0.27515 0.46784 0.0
C1015 C 0.6345 0.3125 0.59678 0.0
H1016 H 0.64964 0.19092 0.55972 0.0
H1017 H 0.74843 0.26886 0.54996 0.0
H1018 H 0.58733 0.24144 0.56725 0.0
H1019 H 0.58803 0.22691 0.52259 0.0
H1020 H 0.59018 0.19999 0.55794 0.0
H1021 H 0.74764 0.32238 0.53706 0.0
H1022 H 0.70987 0.32331 0.50805 0.0
H1023 H 0.70796 0.33461 0.55367 0.0
H1024 H 0.60627 0.32467 0.45902 0.0
H1025 H 0.60641 0.35793 0.56734 0.0
H1026 H 0.62697 0.24901 0.47419 0.0
H1027 H 0.66856 0.27999 0.46638 0.0
H1028 H 0.62734 0.27911 0.4415 0.0
H1029 H 0.62537 0.28658 0.60456 0.0
H1030 H 0.62052 0.32744 0.61383 0.0
H1031 H 0.66471 0.32106 0.60181 0.0
loop_
_geom_bond_atom_site_label_1
_geom_bond_atom_site_label_2
_geom_bond_distance
_geom_bond_site_symmetry_2
_ccdc_geom_bond_type
H0 C7 0.929 . S
H1 C10 0.930 . S
H2 C12 0.929 . S
H3 C4 0.969 . S
C4 H3 0.969 . S
C4 O5 1.550 . S
C4 H6 0.973 . S
O5 C4 1.550 . S
O5 C11 1.412 . S
H6 C4 0.973 . S
C7 H0 0.929 . S
C7 C8 1.400 . S
C7 C9 1.364 . S
C8 C7 1.400 . S
C8 C12 1.377 . S
C9 C7 1.364 . S
C9 C10 1.374 . S
C10 H1 0.930 . S
C10 C9 1.374 . S
C10 C11 1.383 . S
C11 O5 1.412 . S
C11 C10 1.383 . S
C11 C12 1.394 . S
C12 H2 0.929 . S
C12 C8 1.377 . S
C12 C11 1.394 . S
H13 C20 0.929 . S
H14 C23 0.930 . S
H15 C25 0.929 . S
H16 C17 0.969 . S
C17 H16 0.969 . S
C17 O18 1.550 . S
C17 H19 0.973 . S
O18 C17 1.550 . S
O18 C24 1.412 . S
H19 C17 0.973 . S
C20 H13 0.929 . S
C20 C21 1.400 . S
C20 C22 1.364 . S
C21 C20 1.400 . S
C21 C25 1.377 . S
C22 C20 1.364 . S
C22 C23 1.374 . S
C23 H14 0.930 . S
C23 C22 1.374 . S
C23 C24 1.383 . S
C24 O18 1.412 . S
C24 C23 1.383 . S
C24 C25 1.394 . S
C25 H15 0.929 . S
C25 C21 1.377 . S
C25 C24 1.394 . S
H26 C33 0.929 . S
H27 C36 0.930 . S
H28 C38 0.929 . S
H29 C30 0.969 . S
C30 H29 0.969 . S
C30 O31 1.550 . S
C30 H32 0.973 . S
O31 C30 1.550 . S
O31 C37 1.412 . S
H32 C30 0.973 . S
C33 H26 0.929 . S
C33 C34 1.400 . S
C33 C35 1.364 . S
C34 C33 1.400 . S
C34 C38 1.377 . S
C35 C33 1.364 . S
C35 C36 1.374 . S
C36 H27 0.930 . S
C36 C35 1.374 . S
C36 C37 1.383 . S
C37 O31 1.412 . S
C37 C36 1.383 . S
C37 C38 1.394 . S
C38 H28 0.929 . S
C38 C34 1.377 . S
C38 C37 1.394 . S
H39 C46 0.929 . S
H40 C49 0.930 . S
H41 C51 0.929 . S
H42 C43 0.969 . S
C43 H42 0.969 . S
C43 O44 1.550 . S
C43 H45 0.973 . S
O44 C43 1.550 . S
O44 C50 1.412 . S
H45 C43 0.973 . S
C46 H39 0.929 . S
C46 C47 1.400 . S
C46 C48 1.364 . S
C47 C46 1.400 . S
C47 C51 1.377 . S
C48 C46 1.364 . S
C48 C49 1.374 . S
C49 H40 0.930 . S
C49 C48 1.374 . S
C49 C50 1.383 . S
C50 O44 1.412 . S
C50 C49 1.383 . S
C50 C51 1.394 . S
C51 H41 0.929 . S
C51 C47 1.377 . S
C51 C50 1.394 . S
H52 C59 0.929 . S
H53 C62 0.930 . S
H54 C64 0.929 . S
H55 C56 0.969 . S
C56 H55 0.969 . S
C56 O57 1.550 . S
C56 H58 0.973 . S
O57 C56 1.550 . S
O57 C63 1.412 . S
H58 C56 0.973 . S
C59 H52 0.929 . S
C59 C60 1.400 . S
C59 C61 1.364 . S
C60 C59 1.400 . S
C60 C64 1.377 . S
C61 C59 1.364 . S
C61 C62 1.374 . S
C62 H53 0.930 . S
C62 C61 1.374 . S
C62 C63 1.383 . S
C63 O57 1.412 . S
C63 C62 1.383 . S
C63 C64 1.394 . S
C64 H54 0.929 . S
C64 C60 1.377 . S
C64 C63 1.394 . S
H65 C72 0.929 . S
H66 C75 0.930 . S
H67 C77 0.929 . S
H68 C69 0.969 . S
C69 H68 0.969 . S
C69 O70 1.550 . S
C69 H71 0.973 . S
O70 C69 1.550 . S
O70 C76 1.412 . S
H71 C69 0.973 . S
C72 H65 0.929 . S
C72 C73 1.400 . S
C72 C74 1.364 . S
C73 C72 1.400 . S
C73 C77 1.377 . S
C74 C72 1.364 . S
C74 C75 1.374 . S
C75 H66 0.930 . S
C75 C74 1.374 . S
C75 C76 1.383 . S
C76 O70 1.412 . S
C76 C75 1.383 . S
C76 C77 1.394 . S
C77 H67 0.929 . S
C77 C73 1.377 . S
C77 C76 1.394 . S
H78 C85 0.929 . S
H79 C88 0.930 . S
H80 C90 0.929 . S
H81 C82 0.969 . S
C82 H81 0.969 . S
C82 O83 1.550 . S
C82 H84 0.973 . S
O83 C82 1.550 . S
O83 C89 1.412 . S
H84 C82 0.973 . S
C85 H78 0.929 . S
C85 C86 1.400 . S
C85 C87 1.364 . S
C86 C85 1.400 . S
C86 C90 1.377 . S
C87 C85 1.364 . S
C87 C88 1.374 . S
C88 H79 0.930 . S
C88 C87 1.374 . S
C88 C89 1.383 . S
C89 O83 1.412 . S
C89 C88 1.383 . S
C89 C90 1.394 . S
C90 H80 0.929 . S
C90 C86 1.377 . S
C90 C89 1.394 . S
H91 C98 0.929 . S
H92 C101 0.930 . S
H93 C103 0.929 . S
H94 C95 0.969 . S
C95 H94 0.969 . S
C95 O96 1.550 . S
C95 H97 0.973 . S
O96 C95 1.550 . S
O96 C102 1.412 . S
H97 C95 0.973 . S
C98 H91 0.929 . S
C98 C99 1.400 . S
C98 C100 1.364 . S
C99 C98 1.400 . S
C99 C103 1.377 . S
C100 C98 1.364 . S
C100 C101 1.374 . S
C101 H92 0.930 . S
C101 C100 1.374 . S
C101 C102 1.383 . S
C102 O96 1.412 . S
C102 C101 1.383 . S
C102 C103 1.394 . S
C103 H93 0.929 . S
C103 C99 1.377 . S
C103 C102 1.394 . S
Sm104 C106 2.846 . S
Sm104 O124 2.543 . S
Sm104 O125 2.450 . S
Sm104 O126 2.681 1_545 S
Sm104 O127 2.464 . S
Sm104 O128 2.396 . S
Sm104 O132 2.386 . S
Sm104 O135 2.408 1_545 S
Sm105 C115 2.846 1_545 S
Sm105 O126 2.386 1_645 S
Sm105 O129 2.408 1_655 S
Sm105 O130 2.543 1_545 S
Sm105 O131 2.450 1_545 S
Sm105 O132 2.681 1_655 S
Sm105 O133 2.464 . S
Sm105 O134 2.396 1_545 S
C106 Sm104 2.846 . S
C106 C107 1.506 . S
C106 O124 1.261 . S
C106 O125 1.242 . S
C107 C106 1.506 . S
C107 C108 1.358 . S
C107 C112 1.382 . S
C108 C107 1.358 . S
C108 C109 1.385 . S
C108 H136 0.930 . S
C109 C108 1.385 . S
C109 C110 1.395 . S
C109 H137 0.929 . S
C110 C109 1.395 . S
C110 C111 1.335 . S
C111 C110 1.335 . S
C111 C112 1.398 . S
C111 H138 0.930 . S
C112 C107 1.382 . S
C112 C111 1.398 . S
C112 H139 0.929 . S
C113 O126 1.271 . S
C113 O127 1.251 1_565 S
C114 O128 1.252 . S
C114 O129 1.272 . S
C115 Sm105 2.846 1_565 S
C115 C116 1.506 . S
C115 O130 1.261 . S
C115 O131 1.242 . S
C116 C115 1.506 . S
C116 C117 1.358 . S
C116 C121 1.382 . S
C117 C116 1.358 . S
C117 C118 1.385 . S
C117 H140 0.930 . S
C118 C117 1.385 . S
C118 C119 1.395 . S
C118 H141 0.929 . S
C119 C118 1.395 . S
C119 C120 1.335 . S
C120 C119 1.335 . S
C120 C121 1.398 . S
C120 H142 0.930 . S
C121 C116 1.382 . S
C121 C120 1.398 . S
C121 H143 0.929 . S
C122 O132 1.271 1_655 S
C122 O133 1.251 . S
C123 O134 1.252 . S
C123 O135 1.272 1_655 S
O124 Sm104 2.543 . S
O124 C106 1.261 . S
O125 Sm104 2.450 . S
O125 C106 1.242 . S
O126 Sm104 2.681 1_565 S
O126 Sm105 2.386 1_465 S
O126 C113 1.271 . S
O127 Sm104 2.464 . S
O127 C113 1.251 1_545 S
O128 Sm104 2.396 . S
O128 C114 1.252 . S
O129 Sm105 2.408 1_455 S
O129 C114 1.272 . S
O130 Sm105 2.543 1_565 S
O130 C115 1.261 . S
O131 Sm105 2.450 1_565 S
O131 C115 1.242 . S
O132 Sm104 2.386 . S
O132 Sm105 2.681 1_455 S
O132 C122 1.271 1_455 S
O133 Sm105 2.464 . S
O133 C122 1.251 . S
O134 Sm105 2.396 1_565 S
O134 C123 1.252 . S
O135 Sm104 2.408 1_565 S
O135 C123 1.272 1_455 S
H136 C108 0.930 . S
H137 C109 0.929 . S
H138 C111 0.930 . S
H139 C112 0.929 . S
H140 C117 0.930 . S
H141 C118 0.929 . S
H142 C120 0.930 . S
H143 C121 0.929 . S
Sm144 C146 2.846 . S
Sm144 O164 2.543 . S
Sm144 O165 2.450 . S
Sm144 O166 2.681 1_545 S
Sm144 O167 2.464 1_545 S
Sm144 O168 2.396 . S
Sm144 O172 2.388 . S
Sm144 O175 2.408 1_544 S
Sm145 C155 2.846 1_545 S
Sm145 O166 2.386 1_546 S
Sm145 O169 2.408 1_556 S
Sm145 O170 2.543 1_545 S
Sm145 O171 2.450 1_545 S
Sm145 O172 2.680 1_556 S
Sm145 O173 2.464 . S
Sm145 O174 2.396 1_545 S
C146 Sm144 2.846 . S
C146 C147 1.506 . S
C146 O164 1.261 . S
C146 O165 1.242 . S
C147 C146 1.506 . S
C147 C148 1.358 . S
C147 C152 1.382 . S
C148 C147 1.358 . S
C148 C149 1.385 . S
C148 H176 0.930 . S
C149 C148 1.385 . S
C149 C150 1.395 . S
C149 H177 0.929 . S
C150 C149 1.395 . S
C150 C151 1.335 . S
C151 C150 1.335 . S
C151 C152 1.398 . S
C151 H178 0.930 . S
C152 C147 1.382 . S
C152 C151 1.398 . S
C152 H179 0.929 . S
C153 O166 1.271 . S
C153 O167 1.251 . S
C154 O168 1.252 . S
C154 O169 1.272 . S
C155 Sm145 2.846 1_565 S
C155 C156 1.506 . S
C155 O170 1.261 . S
C155 O171 1.242 . S
C156 C155 1.506 . S
C156 C157 1.358 . S
C156 C161 1.382 . S
C157 C156 1.358 . S
C157 C158 1.385 . S
C157 H180 0.930 . S
C158 C157 1.385 . S
C158 C159 1.395 . S
C158 H181 0.929 . S
C159 C158 1.395 . S
C159 C160 1.335 . S
C160 C159 1.335 . S
C160 C161 1.398 . S
C160 H182 0.930 . S
C161 C156 1.382 . S
C161 C160 1.398 . S
C161 H183 0.929 . S
C162 O172 1.269 1_556 S
C162 O173 1.251 . S
C163 O174 1.252 . S
C163 O175 1.272 . S
O164 Sm144 2.543 . S
O164 C146 1.261 . S
O165 Sm144 2.450 . S
O165 C146 1.242 . S
O166 Sm144 2.681 1_565 S
O166 Sm145 2.386 1_564 S
O166 C153 1.271 . S
O167 Sm144 2.464 1_565 S
O167 C153 1.251 . S
O168 Sm144 2.396 . S
O168 C154 1.252 . S
O169 Sm145 2.408 1_554 S
O169 C154 1.272 . S
O170 Sm145 2.543 1_565 S
O170 C155 1.261 . S
O171 Sm145 2.450 1_565 S
O171 C155 1.242 . S
O172 Sm144 2.388 . S
O172 Sm145 2.680 1_554 S
O172 C162 1.269 1_554 S
O173 Sm145 2.464 . S
O173 C162 1.251 . S
O174 Sm145 2.396 1_565 S
O174 C163 1.252 . S
O175 Sm144 2.408 1_566 S
O175 C163 1.272 . S
H176 C148 0.930 . S
H177 C149 0.929 . S
H178 C151 0.930 . S
H179 C152 0.929 . S
H180 C157 0.930 . S
H181 C158 0.929 . S
H182 C160 0.930 . S
H183 C161 0.929 . S
Sm184 C186 2.846 . S
Sm184 O204 2.543 . S
Sm184 O205 2.450 . S
Sm184 O206 2.681 . S
Sm184 O207 2.464 . S
Sm184 O208 2.396 . S
Sm184 O212 2.386 . S
Sm184 O215 2.408 . S
Sm185 C195 2.846 . S
Sm185 O206 2.386 . S
Sm185 O209 2.408 . S
Sm185 O210 2.543 . S
Sm185 O211 2.450 . S
Sm185 O212 2.681 . S
Sm185 O213 2.464 . S
Sm185 O214 2.396 . S
C186 Sm184 2.846 . S
C186 C187 1.506 . S
C186 O204 1.261 . S
C186 O205 1.242 . S
C187 C186 1.506 . S
C187 C188 1.358 . S
C187 C192 1.382 . S
C188 C187 1.358 . S
C188 C189 1.385 . S
C188 H216 0.930 . S
C189 C188 1.385 . S
C189 C190 1.395 . S
C189 H217 0.929 . S
C190 C189 1.395 . S
C190 C191 1.335 . S
C191 C190 1.335 . S
C191 C192 1.398 . S
C191 H218 0.930 . S
C192 C187 1.382 . S
C192 C191 1.398 . S
C192 H219 0.929 . S
C193 O206 1.271 . S
C193 O207 1.251 . S
C194 O208 1.252 . S
C194 O209 1.272 . S
C195 Sm185 2.846 . S
C195 C196 1.506 . S
C195 O210 1.261 . S
C195 O211 1.242 . S
C196 C195 1.506 . S
C196 C197 1.358 . S
C196 C201 1.382 . S
C197 C196 1.358 . S
C197 C198 1.385 . S
C197 H220 0.930 . S
C198 C197 1.385 . S
C198 C199 1.395 . S
C198 H221 0.929 . S
C199 C198 1.395 . S
C199 C200 1.335 . S
C200 C199 1.335 . S
C200 C201 1.398 . S
C200 H222 0.930 . S
C201 C196 1.382 . S
C201 C200 1.398 . S
C201 H223 0.929 . S
C202 O212 1.271 . S
C202 O213 1.251 . S
C203 O214 1.252 . S
C203 O215 1.272 . S
O204 Sm184 2.543 . S
O204 C186 1.261 . S
O205 Sm184 2.450 . S
O205 C186 1.242 . S
O206 Sm184 2.681 . S
O206 Sm185 2.386 . S
O206 C193 1.271 . S
O207 Sm184 2.464 . S
O207 C193 1.251 . S
O208 Sm184 2.396 . S
O208 C194 1.252 . S
O209 Sm185 2.408 . S
O209 C194 1.272 . S
O210 Sm185 2.543 . S
O210 C195 1.261 . S
O211 Sm185 2.450 . S
O211 C195 1.242 . S
O212 Sm184 2.386 . S
O212 Sm185 2.681 . S
O212 C202 1.271 . S
O213 Sm185 2.464 . S
O213 C202 1.251 . S
O214 Sm185 2.396 . S
O214 C203 1.252 . S
O215 Sm184 2.408 . S
O215 C203 1.272 . S
H216 C188 0.930 . S
H217 C189 0.929 . S
H218 C191 0.930 . S
H219 C192 0.929 . S
H220 C197 0.930 . S
H221 C198 0.929 . S
H222 C200 0.930 . S
H223 C201 0.929 . S
Sm224 C226 2.846 . S
Sm224 O244 2.543 . S
Sm224 O245 2.450 . S
Sm224 O246 2.681 . S
Sm224 O247 2.464 . S
Sm224 O248 2.396 . S
Sm224 O252 2.386 . S
Sm224 O255 2.408 1_455 S
Sm225 C235 2.846 1_454 S
Sm225 O246 2.386 . S
Sm225 O249 2.408 . S
Sm225 O250 2.543 1_455 S
Sm225 O251 2.450 1_554 S
Sm225 O252 2.681 . S
Sm225 O253 2.464 1_554 S
Sm225 O254 2.396 1_454 S
C226 Sm224 2.846 . S
C226 C227 1.506 . S
C226 O244 1.261 . S
C226 O245 1.242 . S
C227 C226 1.506 . S
C227 C228 1.358 . S
C227 C232 1.382 . S
C228 C227 1.358 . S
C228 C229 1.385 . S
C228 H256 0.930 . S
C229 C228 1.385 . S
C229 C230 1.395 . S
C229 H257 0.929 . S
C230 C229 1.395 . S
C230 C231 1.335 . S
C231 C230 1.335 . S
C231 C232 1.398 . S
C231 H258 0.930 . S
C232 C227 1.382 . S
C232 C231 1.398 . S
C232 H259 0.929 . S
C233 O246 1.271 . S
C233 O247 1.251 . S
C234 O248 1.252 . S
C234 O249 1.272 . S
C235 Sm225 2.846 1_656 S
C235 C236 1.506 . S
C235 O250 1.261 1_556 S
C235 O251 1.242 1_655 S
C236 C235 1.506 . S
C236 C237 1.358 . S
C236 C241 1.382 . S
C237 C236 1.358 . S
C237 C238 1.385 . S
C237 H260 0.930 1_556 S
C238 C237 1.385 . S
C238 C239 1.395 . S
C238 H261 0.929 . S
C239 C238 1.395 . S
C239 C240 1.335 . S
C240 C239 1.335 . S
C240 C241 1.398 . S
C240 H262 0.930 . S
C241 C236 1.382 . S
C241 C240 1.398 . S
C241 H263 0.929 . S
C242 O252 1.271 1_556 S
C242 O253 1.251 . S
C243 O254 1.252 1_554 S
C243 O255 1.272 . S
O244 Sm224 2.543 . S
O244 C226 1.261 . S
O245 Sm224 2.450 . S
O245 C226 1.242 . S
O246 Sm224 2.681 . S
O246 Sm225 2.386 . S
O246 C233 1.271 . S
O247 Sm224 2.464 . S
O247 C233 1.251 . S
O248 Sm224 2.396 . S
O248 C234 1.252 . S
O249 Sm225 2.408 . S
O249 C234 1.272 . S
O250 Sm225 2.543 1_655 S
O250 C235 1.261 1_554 S
O251 Sm225 2.450 1_556 S
O251 C235 1.242 1_455 S
O252 Sm224 2.386 . S
O252 Sm225 2.681 . S
O252 C242 1.271 1_554 S
O253 Sm225 2.464 1_556 S
O253 C242 1.251 . S
O254 Sm225 2.396 1_656 S
O254 C243 1.252 1_556 S
O255 Sm224 2.408 1_655 S
O255 C243 1.272 . S
H256 C228 0.930 . S
H257 C229 0.929 . S
H258 C231 0.930 . S
H259 C232 0.929 . S
H260 C237 0.930 1_554 S
H261 C238 0.929 . S
H262 C240 0.930 . S
H263 C241 0.929 . S
C264 C265 1.391 . S
C264 C266 1.394 . S
C264 H280 0.931 . S
C265 C264 1.391 . S
C265 C269 1.376 . S
C266 C264 1.394 . S
C266 C267 1.369 . S
C266 C270 1.531 . S
C267 C266 1.369 . S
C267 C268 1.410 . S
C267 C275 1.503 . S
C268 C267 1.410 . S
C268 C269 1.392 . S
C268 C271 1.511 . S
C269 C265 1.376 . S
C269 C268 1.392 . S
C269 H281 0.929 . S
C270 C266 1.531 . S
C270 H282 0.960 . S
C270 H283 0.962 . S
C270 H284 0.960 . S
C271 C268 1.511 . S
C271 H285 0.961 . S
C271 H286 0.961 . S
C271 H287 0.961 . S
C272 C273 1.370 . S
C272 C274 1.363 . S
C272 H288 0.931 . S
C273 C272 1.370 . S
C273 C277 1.408 . S
C274 C272 1.363 . S
C274 C275 1.370 . S
C274 C278 1.524 . S
C275 C267 1.503 . S
C275 C274 1.370 . S
C275 C276 1.403 . S
C276 C275 1.403 . S
C276 C277 1.404 . S
C276 C279 1.539 . S
C277 C273 1.408 . S
C277 C276 1.404 . S
C277 H289 0.930 . S
C278 C274 1.524 . S
C278 H290 0.956 . S
C278 H291 0.961 . S
C278 H292 0.961 . S
C279 C276 1.539 . S
C279 H293 0.958 . S
C279 H294 0.961 . S
C279 H295 0.960 . S
H280 C264 0.931 . S
H281 C269 0.929 . S
H282 C270 0.960 . S
H283 C270 0.962 . S
H284 C270 0.960 . S
H285 C271 0.961 . S
H286 C271 0.961 . S
H287 C271 0.961 . S
H288 C272 0.931 . S
H289 C277 0.930 . S
H290 C278 0.956 . S
H291 C278 0.961 . S
H292 C278 0.961 . S
H293 C279 0.958 . S
H294 C279 0.961 . S
H295 C279 0.960 . S
C296 C297 1.391 . S
C296 C298 1.394 . S
C296 H312 0.931 . S
C297 C296 1.391 . S
C297 C301 1.376 . S
C298 C296 1.394 . S
C298 C299 1.369 . S
C298 C302 1.531 . S
C299 C298 1.369 . S
C299 C300 1.410 . S
C299 C307 1.503 . S
C300 C299 1.410 . S
C300 C301 1.392 . S
C300 C303 1.511 . S
C301 C297 1.376 . S
C301 C300 1.392 . S
C301 H313 0.929 . S
C302 C298 1.531 . S
C302 H314 0.960 . S
C302 H315 0.962 . S
C302 H316 0.960 . S
C303 C300 1.511 . S
C303 H317 0.961 . S
C303 H318 0.961 . S
C303 H319 0.961 . S
C304 C305 1.370 . S
C304 C306 1.363 . S
C304 H320 0.931 . S
C305 C304 1.370 . S
C305 C309 1.408 . S
C306 C304 1.363 . S
C306 C307 1.370 . S
C306 C310 1.524 . S
C307 C299 1.503 . S
C307 C306 1.370 . S
C307 C308 1.403 . S
C308 C307 1.403 . S
C308 C309 1.404 . S
C308 C311 1.539 . S
C309 C305 1.408 . S
C309 C308 1.404 . S
C309 H321 0.930 . S
C310 C306 1.524 . S
C310 H322 0.956 . S
C310 H323 0.961 . S
C310 H324 0.961 . S
C311 C308 1.539 . S
C311 H325 0.958 . S
C311 H326 0.961 . S
C311 H327 0.960 . S
H312 C296 0.931 . S
H313 C301 0.929 . S
H314 C302 0.960 . S
H315 C302 0.962 . S
H316 C302 0.960 . S
H317 C303 0.961 . S
H318 C303 0.961 . S
H319 C303 0.961 . S
H320 C304 0.931 . S
H321 C309 0.930 . S
H322 C310 0.956 . S
H323 C310 0.961 . S
H324 C310 0.961 . S
H325 C311 0.958 . S
H326 C311 0.961 . S
H327 C311 0.960 . S
C328 C329 1.391 . S
C328 C330 1.394 . S
C328 H344 0.931 . S
C329 C328 1.391 . S
C329 C333 1.376 . S
C330 C328 1.394 . S
C330 C331 1.369 . S
C330 C334 1.531 . S
C331 C330 1.369 . S
C331 C332 1.410 . S
C331 C339 1.503 . S
C332 C331 1.410 . S
C332 C333 1.392 . S
C332 C335 1.511 . S
C333 C329 1.376 . S
C333 C332 1.392 . S
C333 H345 0.929 . S
C334 C330 1.531 . S
C334 H346 0.960 . S
C334 H347 0.962 . S
C334 H348 0.960 . S
C335 C332 1.511 . S
C335 H349 0.961 . S
C335 H350 0.961 . S
C335 H351 0.961 . S
C336 C337 1.370 . S
C336 C338 1.363 . S
C336 H352 0.931 . S
C337 C336 1.370 . S
C337 C341 1.408 . S
C338 C336 1.363 . S
C338 C339 1.370 . S
C338 C342 1.524 . S
C339 C331 1.503 . S
C339 C338 1.370 . S
C339 C340 1.403 . S
C340 C339 1.403 . S
C340 C341 1.404 . S
C340 C343 1.539 . S
C341 C337 1.408 . S
C341 C340 1.404 . S
C341 H353 0.930 . S
C342 C338 1.524 . S
C342 H354 0.956 . S
C342 H355 0.961 . S
C342 H356 0.961 . S
C343 C340 1.539 . S
C343 H357 0.958 . S
C343 H358 0.961 . S
C343 H359 0.960 . S
H344 C328 0.931 . S
H345 C333 0.929 . S
H346 C334 0.960 . S
H347 C334 0.962 . S
H348 C334 0.960 . S
H349 C335 0.961 . S
H350 C335 0.961 . S
H351 C335 0.961 . S
H352 C336 0.931 . S
H353 C341 0.930 . S
H354 C342 0.956 . S
H355 C342 0.961 . S
H356 C342 0.961 . S
H357 C343 0.958 . S
H358 C343 0.961 . S
H359 C343 0.960 . S
C360 C361 1.391 . S
C360 C362 1.394 . S
C360 H376 0.931 . S
C361 C360 1.391 . S
C361 C365 1.376 . S
C362 C360 1.394 . S
C362 C363 1.369 . S
C362 C366 1.531 . S
C363 C362 1.369 . S
C363 C364 1.410 . S
C363 C371 1.503 . S
C364 C363 1.410 . S
C364 C365 1.392 . S
C364 C367 1.511 1_655 S
C365 C361 1.376 . S
C365 C364 1.392 . S
C365 H377 0.929 . S
C366 C362 1.531 . S
C366 H378 0.960 . S
C366 H379 0.962 . S
C366 H380 0.960 . S
C367 C364 1.511 1_455 S
C367 H381 0.961 . S
C367 H382 0.961 . S
C367 H383 0.961 . S
C368 C369 1.370 . S
C368 C370 1.363 . S
C368 H384 0.931 . S
C369 C368 1.370 . S
C369 C373 1.408 . S
C370 C368 1.363 . S
C370 C371 1.370 . S
C370 C374 1.524 . S
C371 C363 1.503 . S
C371 C370 1.370 . S
C371 C372 1.403 . S
C372 C371 1.403 . S
C372 C373 1.404 . S
C372 C375 1.539 1_655 S
C373 C369 1.408 . S
C373 C372 1.404 . S
C373 H385 0.930 1_655 S
C374 C370 1.524 . S
C374 H386 0.956 . S
C374 H387 0.961 . S
C374 H388 0.961 . S
C375 C372 1.539 1_455 S
C375 H389 0.958 1_455 S
C375 H390 0.961 . S
C375 H391 0.960 . S
H376 C360 0.931 . S
H377 C365 0.929 . S
H378 C366 0.960 . S
H379 C366 0.962 . S
H380 C366 0.960 . S
H381 C367 0.961 . S
H382 C367 0.961 . S
H383 C367 0.961 . S
H384 C368 0.931 . S
H385 C373 0.930 1_455 S
H386 C374 0.956 . S
H387 C374 0.961 . S
H388 C374 0.961 . S
H389 C375 0.958 1_655 S
H390 C375 0.961 . S
H391 C375 0.960 . S
C392 C393 1.391 . S
C392 C394 1.394 . S
C392 H408 0.931 . S
C393 C392 1.391 . S
C393 C397 1.376 . S
C394 C392 1.394 . S
C394 C395 1.369 . S
C394 C398 1.531 . S
C395 C394 1.369 . S
C395 C396 1.410 . S
C395 C403 1.503 . S
C396 C395 1.410 . S
C396 C397 1.392 . S
C396 C399 1.511 . S
C397 C393 1.376 . S
C397 C396 1.392 . S
C397 H409 0.929 . S
C398 C394 1.531 . S
C398 H410 0.960 . S
C398 H411 0.962 . S
C398 H412 0.960 . S
C399 C396 1.511 . S
C399 H413 0.961 . S
C399 H414 0.961 . S
C399 H415 0.961 . S
C400 C401 1.370 . S
C400 C402 1.363 . S
C400 H416 0.931 . S
C401 C400 1.370 . S
C401 C405 1.408 . S
C402 C400 1.363 . S
C402 C403 1.370 . S
C402 C406 1.524 . S
C403 C395 1.503 . S
C403 C402 1.370 . S
C403 C404 1.403 . S
C404 C403 1.403 . S
C404 C405 1.404 . S
C404 C407 1.539 . S
C405 C401 1.408 . S
C405 C404 1.404 . S
C405 H417 0.930 . S
C406 C402 1.524 . S
C406 H418 0.956 . S
C406 H419 0.961 . S
C406 H420 0.961 . S
C407 C404 1.539 . S
C407 H421 0.958 . S
C407 H422 0.961 . S
C407 H423 0.960 . S
H408 C392 0.931 . S
H409 C397 0.929 . S
H410 C398 0.960 . S
H411 C398 0.962 . S
H412 C398 0.960 . S
H413 C399 0.961 . S
H414 C399 0.961 . S
H415 C399 0.961 . S
H416 C400 0.931 . S
H417 C405 0.930 . S
H418 C406 0.956 . S
H419 C406 0.961 . S
H420 C406 0.961 . S
H421 C407 0.958 . S
H422 C407 0.961 . S
H423 C407 0.960 . S
C424 C425 1.391 . S
C424 C426 1.394 . S
C424 H440 0.931 . S
C425 C424 1.391 . S
C425 C429 1.376 . S
C426 C424 1.394 . S
C426 C427 1.369 . S
C426 C430 1.531 . S
C427 C426 1.369 . S
C427 C428 1.410 . S
C427 C435 1.503 . S
C428 C427 1.410 . S
C428 C429 1.392 . S
C428 C431 1.511 . S
C429 C425 1.376 . S
C429 C428 1.392 . S
C429 H441 0.929 . S
C430 C426 1.531 . S
C430 H442 0.960 . S
C430 H443 0.962 . S
C430 H444 0.960 . S
C431 C428 1.511 . S
C431 H445 0.961 . S
C431 H446 0.961 . S
C431 H447 0.961 . S
C432 C433 1.370 . S
C432 C434 1.363 . S
C432 H448 0.931 1_565 S
C433 C432 1.370 . S
C433 C437 1.408 . S
C434 C432 1.363 . S
C434 C435 1.370 . S
C434 C438 1.524 . S
C435 C427 1.503 . S
C435 C434 1.370 . S
C435 C436 1.403 . S
C436 C435 1.403 . S
C436 C437 1.404 . S
C436 C439 1.539 . S
C437 C433 1.408 . S
C437 C436 1.404 . S
C437 H449 0.930 . S
C438 C434 1.524 . S
C438 H450 0.956 . S
C438 H451 0.961 . S
C438 H452 0.961 . S
C439 C436 1.539 . S
C439 H453 0.958 . S
C439 H454 0.961 . S
C439 H455 0.960 . S
H440 C424 0.931 . S
H441 C429 0.929 . S
H442 C430 0.960 . S
H443 C430 0.962 . S
H444 C430 0.960 . S
H445 C431 0.961 . S
H446 C431 0.961 . S
H447 C431 0.961 . S
H448 C432 0.931 1_545 S
H449 C437 0.930 . S
H450 C438 0.956 . S
H451 C438 0.961 . S
H452 C438 0.961 . S
H453 C439 0.958 . S
H454 C439 0.961 . S
H455 C439 0.960 . S
C456 C457 1.391 . S
C456 C458 1.394 . S
C456 H472 0.931 . S
C457 C456 1.391 . S
C457 C461 1.376 . S
C458 C456 1.394 . S
C458 C459 1.369 . S
C458 C462 1.531 . S
C459 C458 1.369 . S
C459 C460 1.410 . S
C459 C467 1.503 . S
C460 C459 1.410 . S
C460 C461 1.392 . S
C460 C463 1.511 . S
C461 C457 1.376 . S
C461 C460 1.392 . S
C461 H473 0.929 . S
C462 C458 1.531 . S
C462 H474 0.960 . S
C462 H475 0.962 . S
C462 H476 0.960 . S
C463 C460 1.511 . S
C463 H477 0.961 . S
C463 H478 0.961 . S
C463 H479 0.961 . S
C464 C465 1.370 . S
C464 C466 1.363 . S
C464 H480 0.931 . S
C465 C464 1.370 . S
C465 C469 1.408 . S
C466 C464 1.363 . S
C466 C467 1.370 . S
C466 C470 1.524 . S
C467 C459 1.503 . S
C467 C466 1.370 . S
C467 C468 1.403 . S
C468 C467 1.403 . S
C468 C469 1.404 . S
C468 C471 1.539 . S
C469 C465 1.408 . S
C469 C468 1.404 . S
C469 H481 0.930 1_556 S
C470 C466 1.524 . S
C470 H482 0.956 . S
C470 H483 0.961 . S
C470 H484 0.961 . S
C471 C468 1.539 . S
C471 H485 0.958 . S
C471 H486 0.961 . S
C471 H487 0.960 . S
H472 C456 0.931 . S
H473 C461 0.929 . S
H474 C462 0.960 . S
H475 C462 0.962 . S
H476 C462 0.960 . S
H477 C463 0.961 . S
H478 C463 0.961 . S
H479 C463 0.961 . S
H480 C464 0.931 . S
H481 C469 0.930 1_554 S
H482 C470 0.956 . S
H483 C470 0.961 . S
H484 C470 0.961 . S
H485 C471 0.958 . S
H486 C471 0.961 . S
H487 C471 0.960 . S
C488 C489 1.391 . S
C488 C490 1.394 . S
C488 H504 0.931 . S
C489 C488 1.391 . S
C489 C493 1.376 . S
C490 C488 1.394 . S
C490 C491 1.369 . S
C490 C494 1.531 . S
C491 C490 1.369 . S
C491 C492 1.410 . S
C491 C499 1.503 . S
C492 C491 1.410 . S
C492 C493 1.392 . S
C492 C495 1.511 . S
C493 C489 1.376 . S
C493 C492 1.392 . S
C493 H505 0.929 . S
C494 C490 1.531 . S
C494 H506 0.960 . S
C494 H507 0.962 . S
C494 H508 0.960 . S
C495 C492 1.511 . S
C495 H509 0.961 . S
C495 H510 0.961 . S
C495 H511 0.961 . S
C496 C497 1.370 . S
C496 C498 1.363 . S
C496 H512 0.931 . S
C497 C496 1.370 . S
C497 C501 1.408 . S
C498 C496 1.363 . S
C498 C499 1.370 . S
C498 C502 1.524 . S
C499 C491 1.503 . S
C499 C498 1.370 . S
C499 C500 1.403 . S
C500 C499 1.403 . S
C500 C501 1.404 . S
C500 C503 1.539 . S
C501 C497 1.408 . S
C501 C500 1.404 . S
C501 H513 0.930 . S
C502 C498 1.524 . S
C502 H514 0.956 . S
C502 H515 0.961 . S
C502 H516 0.961 . S
C503 C500 1.539 . S
C503 H517 0.958 . S
C503 H518 0.961 . S
C503 H519 0.960 . S
H504 C488 0.931 . S
H505 C493 0.929 . S
H506 C494 0.960 . S
H507 C494 0.962 . S
H508 C494 0.960 . S
H509 C495 0.961 . S
H510 C495 0.961 . S
H511 C495 0.961 . S
H512 C496 0.931 . S
H513 C501 0.930 . S
H514 C502 0.956 . S
H515 C502 0.961 . S
H516 C502 0.961 . S
H517 C503 0.958 . S
H518 C503 0.961 . S
H519 C503 0.960 . S
C520 C521 1.391 . S
C520 C522 1.394 . S
C520 H536 0.931 . S
C521 C520 1.391 . S
C521 C525 1.376 . S
C522 C520 1.394 . S
C522 C523 1.369 . S
C522 C526 1.531 . S
C523 C522 1.369 . S
C523 C524 1.410 . S
C523 C531 1.503 . S
C524 C523 1.410 . S
C524 C525 1.392 . S
C524 C527 1.511 . S
C525 C521 1.376 . S
C525 C524 1.392 . S
C525 H537 0.929 . S
C526 C522 1.531 . S
C526 H538 0.960 . S
C526 H539 0.962 . S
C526 H540 0.960 . S
C527 C524 1.511 . S
C527 H541 0.961 . S
C527 H542 0.961 . S
C527 H543 0.961 . S
C528 C529 1.370 . S
C528 C530 1.363 . S
C528 H544 0.931 . S
C529 C528 1.370 . S
C529 C533 1.408 . S
C530 C528 1.363 . S
C530 C531 1.370 . S
C530 C534 1.524 . S
C531 C523 1.503 . S
C531 C530 1.370 . S
C531 C532 1.403 . S
C532 C531 1.403 . S
C532 C533 1.404 . S
C532 C535 1.539 . S
C533 C529 1.408 . S
C533 C532 1.404 . S
C533 H545 0.930 . S
C534 C530 1.524 . S
C534 H546 0.956 . S
C534 H547 0.961 . S
C534 H548 0.961 . S
C535 C532 1.539 . S
C535 H549 0.958 . S
C535 H550 0.961 . S
C535 H551 0.960 . S
H536 C520 0.931 . S
H537 C525 0.929 . S
H538 C526 0.960 . S
H539 C526 0.962 . S
H540 C526 0.960 . S
H541 C527 0.961 . S
H542 C527 0.961 . S
H543 C527 0.961 . S
H544 C528 0.931 . S
H545 C533 0.930 . S
H546 C534 0.956 . S
H547 C534 0.961 . S
H548 C534 0.961 . S
H549 C535 0.958 . S
H550 C535 0.961 . S
H551 C535 0.960 . S
C552 C553 1.391 . S
C552 C554 1.394 . S
C552 H568 0.931 . S
C553 C552 1.391 . S
C553 C557 1.376 . S
C554 C552 1.394 . S
C554 C555 1.369 . S
C554 C558 1.531 . S
C555 C554 1.369 . S
C555 C556 1.410 . S
C555 C563 1.503 . S
C556 C555 1.410 . S
C556 C557 1.392 . S
C556 C559 1.511 . S
C557 C553 1.376 . S
C557 C556 1.392 . S
C557 H569 0.929 . S
C558 C554 1.531 . S
C558 H570 0.960 . S
C558 H571 0.962 . S
C558 H572 0.960 . S
C559 C556 1.511 . S
C559 H573 0.961 . S
C559 H574 0.961 . S
C559 H575 0.961 . S
C560 C561 1.370 . S
C560 C562 1.363 . S
C560 H576 0.931 . S
C561 C560 1.370 . S
C561 C565 1.408 . S
C562 C560 1.363 . S
C562 C563 1.370 . S
C562 C566 1.524 . S
C563 C555 1.503 . S
C563 C562 1.370 . S
C563 C564 1.403 . S
C564 C563 1.403 . S
C564 C565 1.404 . S
C564 C567 1.539 . S
C565 C561 1.408 . S
C565 C564 1.404 . S
C565 H577 0.930 . S
C566 C562 1.524 . S
C566 H578 0.956 . S
C566 H579 0.961 . S
C566 H580 0.961 . S
C567 C564 1.539 . S
C567 H581 0.958 . S
C567 H582 0.961 . S
C567 H583 0.960 . S
H568 C552 0.931 . S
H569 C557 0.929 . S
H570 C558 0.960 . S
H571 C558 0.962 . S
H572 C558 0.960 . S
H573 C559 0.961 . S
H574 C559 0.961 . S
H575 C559 0.961 . S
H576 C560 0.931 . S
H577 C565 0.930 . S
H578 C566 0.956 . S
H579 C566 0.961 . S
H580 C566 0.961 . S
H581 C567 0.958 . S
H582 C567 0.961 . S
H583 C567 0.960 . S
C584 C585 1.391 . S
C584 C586 1.394 . S
C584 H600 0.931 . S
C585 C584 1.391 . S
C585 C589 1.376 . S
C586 C584 1.394 . S
C586 C587 1.369 . S
C586 C590 1.515 1_655 S
C587 C586 1.369 . S
C587 C588 1.410 . S
C587 C595 1.503 . S
C588 C587 1.410 . S
C588 C589 1.392 . S
C588 C591 1.511 . S
C589 C585 1.376 . S
C589 C588 1.392 . S
C589 H601 0.929 . S
C590 C586 1.515 1_455 S
C590 H602 0.962 . S
C590 H603 0.962 . S
C590 H604 0.975 . S
C591 C588 1.511 . S
C591 H605 0.961 . S
C591 H606 0.961 . S
C591 H607 0.961 . S
C592 C593 1.370 . S
C592 C594 1.363 . S
C592 H608 0.931 . S
C593 C592 1.370 . S
C593 C597 1.408 . S
C594 C592 1.363 . S
C594 C595 1.370 . S
C594 C598 1.524 . S
C595 C587 1.503 . S
C595 C594 1.370 . S
C595 C596 1.403 . S
C596 C595 1.403 . S
C596 C597 1.404 . S
C596 C599 1.539 . S
C597 C593 1.408 . S
C597 C596 1.404 . S
C597 H609 0.930 . S
C598 C594 1.524 . S
C598 H610 0.956 . S
C598 H611 0.961 . S
C598 H612 0.961 . S
C599 C596 1.539 . S
C599 H613 0.958 . S
C599 H614 0.961 . S
C599 H615 0.960 . S
H600 C584 0.931 . S
H601 C589 0.929 . S
H602 C590 0.962 . S
H603 C590 0.962 . S
H604 C590 0.975 . S
H605 C591 0.961 . S
H606 C591 0.961 . S
H607 C591 0.961 . S
H608 C592 0.931 . S
H609 C597 0.930 . S
H610 C598 0.956 . S
H611 C598 0.961 . S
H612 C598 0.961 . S
H613 C599 0.958 . S
H614 C599 0.961 . S
H615 C599 0.960 . S
C616 C617 1.391 . S
C616 C618 1.394 . S
C616 H632 0.931 . S
C617 C616 1.391 . S
C617 C621 1.376 . S
C618 C616 1.394 . S
C618 C619 1.369 . S
C618 C622 1.531 . S
C619 C618 1.369 . S
C619 C620 1.410 . S
C619 C627 1.503 . S
C620 C619 1.410 . S
C620 C621 1.392 . S
C620 C623 1.511 . S
C621 C617 1.376 . S
C621 C620 1.392 . S
C621 H633 0.929 . S
C622 C618 1.531 . S
C622 H634 0.960 . S
C622 H635 0.962 . S
C622 H636 0.960 . S
C623 C620 1.511 . S
C623 H637 0.961 . S
C623 H638 0.961 . S
C623 H639 0.961 . S
C624 C625 1.370 . S
C624 C626 1.363 . S
C624 H640 0.931 . S
C625 C624 1.370 . S
C625 C629 1.408 . S
C626 C624 1.363 . S
C626 C627 1.370 . S
C626 C630 1.524 . S
C627 C619 1.503 . S
C627 C626 1.370 . S
C627 C628 1.403 . S
C628 C627 1.403 . S
C628 C629 1.404 . S
C628 C631 1.539 . S
C629 C625 1.408 . S
C629 C628 1.404 . S
C629 H641 0.930 . S
C630 C626 1.524 . S
C630 H642 0.956 . S
C630 H643 0.961 . S
C630 H644 0.961 . S
C631 C628 1.539 . S
C631 H645 0.958 . S
C631 H646 0.961 . S
C631 H647 0.960 . S
H632 C616 0.931 . S
H633 C621 0.929 . S
H634 C622 0.960 . S
H635 C622 0.962 . S
H636 C622 0.960 . S
H637 C623 0.961 . S
H638 C623 0.961 . S
H639 C623 0.961 . S
H640 C624 0.931 . S
H641 C629 0.930 . S
H642 C630 0.956 . S
H643 C630 0.961 . S
H644 C630 0.961 . S
H645 C631 0.958 . S
H646 C631 0.961 . S
H647 C631 0.960 . S
C648 C649 1.391 . S
C648 C650 1.394 . S
C648 H664 0.931 . S
C649 C648 1.391 . S
C649 C653 1.376 . S
C650 C648 1.394 . S
C650 C651 1.369 . S
C650 C654 1.531 . S
C651 C650 1.369 . S
C651 C652 1.410 . S
C651 C659 1.503 . S
C652 C651 1.410 . S
C652 C653 1.392 . S
C652 C655 1.511 . S
C653 C649 1.376 . S
C653 C652 1.392 . S
C653 H665 0.929 . S
C654 C650 1.531 . S
C654 H666 0.960 . S
C654 H667 0.962 . S
C654 H668 0.960 . S
C655 C652 1.511 . S
C655 H669 0.961 . S
C655 H670 0.961 . S
C655 H671 0.961 . S
C656 C657 1.370 . S
C656 C658 1.363 . S
C656 H672 0.931 . S
C657 C656 1.370 . S
C657 C661 1.408 . S
C658 C656 1.363 . S
C658 C659 1.370 . S
C658 C662 1.524 . S
C659 C651 1.503 . S
C659 C658 1.370 . S
C659 C660 1.403 . S
C660 C659 1.403 . S
C660 C661 1.404 . S
C660 C663 1.539 . S
C661 C657 1.408 . S
C661 C660 1.404 . S
C661 H673 0.930 . S
C662 C658 1.524 . S
C662 H674 0.956 . S
C662 H675 0.961 . S
C662 H676 0.961 . S
C663 C660 1.539 . S
C663 H677 0.958 . S
C663 H678 0.961 . S
C663 H679 0.960 . S
H664 C648 0.931 . S
H665 C653 0.929 . S
H666 C654 0.960 . S
H667 C654 0.962 . S
H668 C654 0.960 . S
H669 C655 0.961 . S
H670 C655 0.961 . S
H671 C655 0.961 . S
H672 C656 0.931 . S
H673 C661 0.930 . S
H674 C662 0.956 . S
H675 C662 0.961 . S
H676 C662 0.961 . S
H677 C663 0.958 . S
H678 C663 0.961 . S
H679 C663 0.960 . S
C680 C681 1.391 . S
C680 C682 1.394 . S
C680 H696 0.931 . S
C681 C680 1.391 . S
C681 C685 1.376 . S
C682 C680 1.394 . S
C682 C683 1.369 . S
C682 C686 1.531 . S
C683 C682 1.369 . S
C683 C684 1.410 . S
C683 C691 1.503 . S
C684 C683 1.410 . S
C684 C685 1.392 . S
C684 C687 1.511 . S
C685 C681 1.376 . S
C685 C684 1.392 . S
C685 H697 0.929 . S
C686 C682 1.531 . S
C686 H698 0.960 . S
C686 H699 0.962 . S
C686 H700 0.960 . S
C687 C684 1.511 . S
C687 H701 0.961 . S
C687 H702 0.961 . S
C687 H703 0.961 . S
C688 C689 1.370 . S
C688 C690 1.363 . S
C688 H704 0.931 . S
C689 C688 1.370 . S
C689 C693 1.408 . S
C690 C688 1.363 . S
C690 C691 1.370 . S
C690 C694 1.524 . S
C691 C683 1.503 . S
C691 C690 1.370 . S
C691 C692 1.403 . S
C692 C691 1.403 . S
C692 C693 1.404 . S
C692 C695 1.539 . S
C693 C689 1.408 . S
C693 C692 1.404 . S
C693 H705 0.930 . S
C694 C690 1.524 . S
C694 H706 0.956 . S
C694 H707 0.961 . S
C694 H708 0.961 . S
C695 C692 1.539 . S
C695 H709 0.958 . S
C695 H710 0.961 . S
C695 H711 0.960 . S
H696 C680 0.931 . S
H697 C685 0.929 . S
H698 C686 0.960 . S
H699 C686 0.962 . S
H700 C686 0.960 . S
H701 C687 0.961 . S
H702 C687 0.961 . S
H703 C687 0.961 . S
H704 C688 0.931 . S
H705 C693 0.930 . S
H706 C694 0.956 . S
H707 C694 0.961 . S
H708 C694 0.961 . S
H709 C695 0.958 . S
H710 C695 0.961 . S
H711 C695 0.960 . S
C712 C713 1.391 . S
C712 C714 1.394 . S
C712 H728 0.931 . S
C713 C712 1.391 . S
C713 C717 1.376 . S
C714 C712 1.394 . S
C714 C715 1.369 . S
C714 C718 1.531 . S
C715 C714 1.369 . S
C715 C716 1.410 . S
C715 C723 1.503 . S
C716 C715 1.410 . S
C716 C717 1.392 . S
C716 C719 1.511 . S
C717 C713 1.376 . S
C717 C716 1.392 . S
C717 H729 0.929 . S
C718 C714 1.531 . S
C718 H730 0.960 . S
C718 H731 0.962 . S
C718 H732 0.960 . S
C719 C716 1.511 . S
C719 H733 0.961 . S
C719 H734 0.961 . S
C719 H735 0.961 . S
C720 C721 1.370 . S
C720 C722 1.363 . S
C720 H736 0.931 . S
C721 C720 1.370 . S
C721 C725 1.408 . S
C722 C720 1.363 . S
C722 C723 1.370 . S
C722 C726 1.524 . S
C723 C715 1.503 . S
C723 C722 1.370 . S
C723 C724 1.403 . S
C724 C723 1.403 . S
C724 C725 1.404 . S
C724 C727 1.539 . S
C725 C721 1.408 . S
C725 C724 1.404 . S
C725 H737 0.930 . S
C726 C722 1.524 . S
C726 H738 0.956 . S
C726 H739 0.961 . S
C726 H740 0.961 . S
C727 C724 1.539 . S
C727 H741 0.958 . S
C727 H742 0.961 . S
C727 H743 0.960 . S
H728 C712 0.931 . S
H729 C717 0.929 . S
H730 C718 0.960 . S
H731 C718 0.962 . S
H732 C718 0.960 . S
H733 C719 0.961 . S
H734 C719 0.961 . S
H735 C719 0.961 . S
H736 C720 0.931 . S
H737 C725 0.930 . S
H738 C726 0.956 . S
H739 C726 0.961 . S
H740 C726 0.961 . S
H741 C727 0.958 . S
H742 C727 0.961 . S
H743 C727 0.960 . S
C744 C745 1.391 . S
C744 C746 1.394 . S
C744 H760 0.931 . S
C745 C744 1.391 . S
C745 C749 1.376 . S
C746 C744 1.394 . S
C746 C747 1.369 . S
C746 C750 1.531 . S
C747 C746 1.369 . S
C747 C748 1.410 . S
C747 C755 1.503 . S
C748 C747 1.410 . S
C748 C749 1.392 . S
C748 C751 1.511 . S
C749 C745 1.376 . S
C749 C748 1.392 . S
C749 H761 0.929 . S
C750 C746 1.531 . S
C750 H762 0.960 . S
C750 H763 0.962 . S
C750 H764 0.960 . S
C751 C748 1.511 . S
C751 H765 0.961 . S
C751 H766 0.961 . S
C751 H767 0.961 . S
C752 C753 1.370 . S
C752 C754 1.363 . S
C752 H768 0.931 . S
C753 C752 1.370 . S
C753 C757 1.408 . S
C754 C752 1.363 . S
C754 C755 1.370 . S
C754 C758 1.524 . S
C755 C747 1.503 . S
C755 C754 1.370 . S
C755 C756 1.403 . S
C756 C755 1.403 . S
C756 C757 1.404 . S
C756 C759 1.539 . S
C757 C753 1.408 . S
C757 C756 1.404 . S
C757 H769 0.930 . S
C758 C754 1.524 . S
C758 H770 0.956 . S
C758 H771 0.961 . S
C758 H772 0.961 . S
C759 C756 1.539 . S
C759 H773 0.958 . S
C759 H774 0.961 . S
C759 H775 0.960 . S
H760 C744 0.931 . S
H761 C749 0.929 . S
H762 C750 0.960 . S
H763 C750 0.962 . S
H764 C750 0.960 . S
H765 C751 0.961 . S
H766 C751 0.961 . S
H767 C751 0.961 . S
H768 C752 0.931 . S
H769 C757 0.930 . S
H770 C758 0.956 . S
H771 C758 0.961 . S
H772 C758 0.961 . S
H773 C759 0.958 . S
H774 C759 0.961 . S
H775 C759 0.960 . S
C776 C777 1.391 . S
C776 C778 1.394 . S
C776 H792 0.931 . S
C777 C776 1.391 . S
C777 C781 1.376 . S
C778 C776 1.394 . S
C778 C779 1.369 . S
C778 C782 1.531 . S
C779 C778 1.369 . S
C779 C780 1.410 . S
C779 C787 1.503 . S
C780 C779 1.410 . S
C780 C781 1.392 . S
C780 C783 1.511 . S
C781 C777 1.376 . S
C781 C780 1.392 . S
C781 H793 0.929 . S
C782 C778 1.531 . S
C782 H794 0.960 . S
C782 H795 0.962 . S
C782 H796 0.960 . S
C783 C780 1.511 . S
C783 H797 0.961 . S
C783 H798 0.961 . S
C783 H799 0.961 . S
C784 C785 1.370 . S
C784 C786 1.363 . S
C784 H800 0.931 . S
C785 C784 1.370 . S
C785 C789 1.408 . S
C786 C784 1.363 . S
C786 C787 1.370 . S
C786 C790 1.524 . S
C787 C779 1.503 . S
C787 C786 1.370 . S
C787 C788 1.403 . S
C788 C787 1.403 . S
C788 C789 1.404 . S
C788 C791 1.539 . S
C789 C785 1.408 . S
C789 C788 1.404 . S
C789 H801 0.930 . S
C790 C786 1.524 . S
C790 H802 0.956 . S
C790 H803 0.961 . S
C790 H804 0.961 . S
C791 C788 1.539 . S
C791 H805 0.958 . S
C791 H806 0.961 . S
C791 H807 0.960 . S
H792 C776 0.931 . S
H793 C781 0.929 . S
H794 C782 0.960 . S
H795 C782 0.962 . S
H796 C782 0.960 . S
H797 C783 0.961 . S
H798 C783 0.961 . S
H799 C783 0.961 . S
H800 C784 0.931 . S
H801 C789 0.930 . S
H802 C790 0.956 . S
H803 C790 0.961 . S
H804 C790 0.961 . S
H805 C791 0.958 . S
H806 C791 0.961 . S
H807 C791 0.960 . S
C808 C809 1.391 . S
C808 C810 1.394 . S
C808 H824 0.931 . S
C809 C808 1.391 . S
C809 C813 1.376 . S
C810 C808 1.394 . S
C810 C811 1.369 . S
C810 C814 1.531 . S
C811 C810 1.369 . S
C811 C812 1.410 . S
C811 C819 1.503 . S
C812 C811 1.410 . S
C812 C813 1.392 . S
C812 C815 1.511 . S
C813 C809 1.376 . S
C813 C812 1.392 . S
C813 H825 0.929 . S
C814 C810 1.531 . S
C814 H826 0.960 . S
C814 H827 0.962 . S
C814 H828 0.960 . S
C815 C812 1.511 . S
C815 H829 0.961 . S
C815 H830 0.961 . S
C815 H831 0.961 . S
C816 C817 1.370 . S
C816 C818 1.363 . S
C816 H832 0.931 . S
C817 C816 1.370 . S
C817 C821 1.408 . S
C818 C816 1.363 . S
C818 C819 1.370 . S
C818 C822 1.524 . S
C819 C811 1.503 . S
C819 C818 1.370 . S
C819 C820 1.403 . S
C820 C819 1.403 . S
C820 C821 1.404 . S
C820 C823 1.539 . S
C821 C817 1.408 . S
C821 C820 1.404 . S
C821 H833 0.930 . S
C822 C818 1.524 . S
C822 H834 0.956 . S
C822 H835 0.961 . S
C822 H836 0.961 . S
C823 C820 1.539 . S
C823 H837 0.958 . S
C823 H838 0.961 . S
C823 H839 0.960 . S
H824 C808 0.931 . S
H825 C813 0.929 . S
H826 C814 0.960 . S
H827 C814 0.962 . S
H828 C814 0.960 . S
H829 C815 0.961 . S
H830 C815 0.961 . S
H831 C815 0.961 . S
H832 C816 0.931 . S
H833 C821 0.930 . S
H834 C822 0.956 . S
H835 C822 0.961 . S
H836 C822 0.961 . S
H837 C823 0.958 . S
H838 C823 0.961 . S
H839 C823 0.960 . S
C840 C841 1.391 . S
C840 C842 1.394 . S
C840 H856 0.931 . S
C841 C840 1.391 . S
C841 C845 1.376 . S
C842 C840 1.394 . S
C842 C843 1.369 . S
C842 C846 1.531 . S
C843 C842 1.369 . S
C843 C844 1.410 . S
C843 C851 1.503 . S
C844 C843 1.410 . S
C844 C845 1.392 . S
C844 C847 1.511 . S
C845 C841 1.376 . S
C845 C844 1.392 . S
C845 H857 0.929 . S
C846 C842 1.531 . S
C846 H858 0.960 . S
C846 H859 0.962 . S
C846 H860 0.960 . S
C847 C844 1.511 . S
C847 H861 0.961 . S
C847 H862 0.961 . S
C847 H863 0.961 . S
C848 C849 1.370 . S
C848 C850 1.363 . S
C848 H864 0.931 . S
C849 C848 1.370 . S
C849 C853 1.408 . S
C850 C848 1.363 . S
C850 C851 1.370 . S
C850 C854 1.524 . S
C851 C843 1.503 . S
C851 C850 1.370 . S
C851 C852 1.403 . S
C852 C851 1.403 . S
C852 C853 1.404 . S
C852 C855 1.539 . S
C853 C849 1.408 . S
C853 C852 1.404 . S
C853 H865 0.930 . S
C854 C850 1.524 . S
C854 H866 0.956 . S
C854 H867 0.961 . S
C854 H868 0.961 . S
C855 C852 1.539 . S
C855 H869 0.958 . S
C855 H870 0.961 . S
C855 H871 0.960 . S
H856 C840 0.931 . S
H857 C845 0.929 . S
H858 C846 0.960 . S
H859 C846 0.962 . S
H860 C846 0.960 . S
H861 C847 0.961 . S
H862 C847 0.961 . S
H863 C847 0.961 . S
H864 C848 0.931 . S
H865 C853 0.930 . S
H866 C854 0.956 . S
H867 C854 0.961 . S
H868 C854 0.961 . S
H869 C855 0.958 . S
H870 C855 0.961 . S
H871 C855 0.960 . S
C872 C873 1.391 . S
C872 C874 1.394 . S
C872 H888 0.931 . S
C873 C872 1.391 . S
C873 C877 1.376 . S
C874 C872 1.394 . S
C874 C875 1.369 . S
C874 C878 1.531 . S
C875 C874 1.369 . S
C875 C876 1.410 . S
C875 C883 1.503 . S
C876 C875 1.410 . S
C876 C877 1.392 . S
C876 C879 1.511 . S
C877 C873 1.376 . S
C877 C876 1.392 . S
C877 H889 0.929 . S
C878 C874 1.531 . S
C878 H890 0.960 . S
C878 H891 0.962 . S
C878 H892 0.960 . S
C879 C876 1.511 . S
C879 H893 0.961 . S
C879 H894 0.961 . S
C879 H895 0.961 . S
C880 C881 1.370 . S
C880 C882 1.363 . S
C880 H896 0.931 . S
C881 C880 1.370 . S
C881 C885 1.408 . S
C882 C880 1.363 . S
C882 C883 1.370 . S
C882 C886 1.524 . S
C883 C875 1.503 . S
C883 C882 1.370 . S
C883 C884 1.403 . S
C884 C883 1.403 . S
C884 C885 1.404 . S
C884 C887 1.539 . S
C885 C881 1.408 . S
C885 C884 1.404 . S
C885 H897 0.930 . S
C886 C882 1.524 . S
C886 H898 0.956 . S
C886 H899 0.961 . S
C886 H900 0.961 . S
C887 C884 1.539 . S
C887 H901 0.958 . S
C887 H902 0.961 . S
C887 H903 0.960 . S
H888 C872 0.931 . S
H889 C877 0.929 . S
H890 C878 0.960 . S
H891 C878 0.962 . S
H892 C878 0.960 . S
H893 C879 0.961 . S
H894 C879 0.961 . S
H895 C879 0.961 . S
H896 C880 0.931 . S
H897 C885 0.930 . S
H898 C886 0.956 . S
H899 C886 0.961 . S
H900 C886 0.961 . S
H901 C887 0.958 . S
H902 C887 0.961 . S
H903 C887 0.960 . S
C904 C905 1.391 . S
C904 C906 1.394 . S
C904 H920 0.931 . S
C905 C904 1.391 . S
C905 C909 1.376 . S
C906 C904 1.394 . S
C906 C907 1.369 . S
C906 C910 1.531 . S
C907 C906 1.369 . S
C907 C908 1.410 . S
C907 C915 1.503 . S
C908 C907 1.410 . S
C908 C909 1.392 . S
C908 C911 1.511 . S
C909 C905 1.376 . S
C909 C908 1.392 . S
C909 H921 0.929 . S
C910 C906 1.531 . S
C910 H922 0.960 . S
C910 H923 0.962 . S
C910 H924 0.960 . S
C911 C908 1.511 . S
C911 H925 0.961 . S
C911 H926 0.961 . S
C911 H927 0.961 . S
C912 C913 1.370 . S
C912 C914 1.363 . S
C912 H928 0.931 . S
C913 C912 1.370 . S
C913 C917 1.408 . S
C914 C912 1.363 . S
C914 C915 1.370 . S
C914 C918 1.524 . S
C915 C907 1.503 . S
C915 C914 1.370 . S
C915 C916 1.403 . S
C916 C915 1.403 . S
C916 C917 1.404 . S
C916 C919 1.539 . S
C917 C913 1.408 . S
C917 C916 1.404 . S
C917 H929 0.930 . S
C918 C914 1.524 . S
C918 H930 0.956 . S
C918 H931 0.961 . S
C918 H932 0.961 . S
C919 C916 1.539 . S
C919 H933 0.958 . S
C919 H934 0.961 . S
C919 H935 0.960 . S
H920 C904 0.931 . S
H921 C909 0.929 . S
H922 C910 0.960 . S
H923 C910 0.962 . S
H924 C910 0.960 . S
H925 C911 0.961 . S
H926 C911 0.961 . S
H927 C911 0.961 . S
H928 C912 0.931 . S
H929 C917 0.930 . S
H930 C918 0.956 . S
H931 C918 0.961 . S
H932 C918 0.961 . S
H933 C919 0.958 . S
H934 C919 0.961 . S
H935 C919 0.960 . S
C936 C937 1.391 . S
C936 C938 1.394 . S
C936 H952 0.931 . S
C937 C936 1.391 . S
C937 C941 1.376 . S
C938 C936 1.394 . S
C938 C939 1.369 . S
C938 C942 1.531 . S
C939 C938 1.369 . S
C939 C940 1.410 . S
C939 C947 1.503 . S
C940 C939 1.410 . S
C940 C941 1.392 . S
C940 C943 1.511 . S
C941 C937 1.376 . S
C941 C940 1.392 . S
C941 H953 0.929 . S
C942 C938 1.531 . S
C942 H954 0.960 . S
C942 H955 0.962 . S
C942 H956 0.960 . S
C943 C940 1.511 . S
C943 H957 0.961 . S
C943 H958 0.961 . S
C943 H959 0.961 . S
C944 C945 1.370 . S
C944 C946 1.363 . S
C944 H960 0.931 . S
C945 C944 1.370 . S
C945 C949 1.408 . S
C946 C944 1.363 . S
C946 C947 1.370 . S
C946 C950 1.524 . S
C947 C939 1.503 . S
C947 C946 1.370 . S
C947 C948 1.403 . S
C948 C947 1.403 . S
C948 C949 1.404 . S
C948 C951 1.539 . S
C949 C945 1.408 . S
C949 C948 1.404 . S
C949 H961 0.930 . S
C950 C946 1.524 . S
C950 H962 0.956 . S
C950 H963 0.961 . S
C950 H964 0.961 . S
C951 C948 1.539 . S
C951 H965 0.958 . S
C951 H966 0.961 . S
C951 H967 0.960 . S
H952 C936 0.931 . S
H953 C941 0.929 . S
H954 C942 0.960 . S
H955 C942 0.962 . S
H956 C942 0.960 . S
H957 C943 0.961 . S
H958 C943 0.961 . S
H959 C943 0.961 . S
H960 C944 0.931 . S
H961 C949 0.930 . S
H962 C950 0.956 . S
H963 C950 0.961 . S
H964 C950 0.961 . S
H965 C951 0.958 . S
H966 C951 0.961 . S
H967 C951 0.960 . S
C968 C969 1.391 . S
C968 C970 1.394 . S
C968 H984 0.931 . S
C969 C968 1.391 . S
C969 C973 1.376 . S
C970 C968 1.394 . S
C970 C971 1.369 . S
C970 C974 1.531 . S
C971 C970 1.369 . S
C971 C972 1.410 . S
C971 C979 1.503 . S
C972 C971 1.410 . S
C972 C973 1.392 . S
C972 C975 1.511 . S
C973 C969 1.376 . S
C973 C972 1.392 . S
C973 H985 0.929 . S
C974 C970 1.531 . S
C974 H986 0.960 . S
C974 H987 0.962 . S
C974 H988 0.960 . S
C975 C972 1.511 . S
C975 H989 0.961 . S
C975 H990 0.961 . S
C975 H991 0.961 . S
C976 C977 1.370 . S
C976 C978 1.363 . S
C976 H992 0.931 . S
C977 C976 1.370 . S
C977 C981 1.408 . S
C978 C976 1.363 . S
C978 C979 1.370 . S
C978 C982 1.524 . S
C979 C971 1.503 . S
C979 C978 1.370 . S
C979 C980 1.403 . S
C980 C979 1.403 . S
C980 C981 1.404 . S
C980 C983 1.539 . S
C981 C977 1.408 . S
C981 C980 1.404 . S
C981 H993 0.930 . S
C982 C978 1.524 . S
C982 H994 0.956 . S
C982 H995 0.961 . S
C982 H996 0.961 . S
C983 C980 1.539 . S
C983 H997 0.958 . S
C983 H998 0.961 . S
C983 H999 0.960 . S
H984 C968 0.931 . S
H985 C973 0.929 . S
H986 C974 0.960 . S
H987 C974 0.962 . S
H988 C974 0.960 . S
H989 C975 0.961 . S
H990 C975 0.961 . S
H991 C975 0.961 . S
H992 C976 0.931 . S
H993 C981 0.930 . S
H994 C982 0.956 . S
H995 C982 0.961 . S
H996 C982 0.961 . S
H997 C983 0.958 . S
H998 C983 0.961 . S
H999 C983 0.960 . S
C1000 C1001 1.391 . S
C1000 C1002 1.394 . S
C1000 H1016 0.931 . S
C1001 C1000 1.391 . S
C1001 C1005 1.376 . S
C1002 C1000 1.394 . S
C1002 C1003 1.369 . S
C1002 C1006 1.531 . S
C1003 C1002 1.369 . S
C1003 C1004 1.410 . S
C1003 C1011 1.503 . S
C1004 C1003 1.410 . S
C1004 C1005 1.392 . S
C1004 C1007 1.511 . S
C1005 C1001 1.376 . S
C1005 C1004 1.392 . S
C1005 H1017 0.929 . S
C1006 C1002 1.531 . S
C1006 H1018 0.960 . S
C1006 H1019 0.962 . S
C1006 H1020 0.960 . S
C1007 C1004 1.511 . S
C1007 H1021 0.961 . S
C1007 H1022 0.961 . S
C1007 H1023 0.961 . S
C1008 C1009 1.370 . S
C1008 C1010 1.363 . S
C1008 H1024 0.931 . S
C1009 C1008 1.370 . S
C1009 C1013 1.408 . S
C1010 C1008 1.363 . S
C1010 C1011 1.370 . S
C1010 C1014 1.524 . S
C1011 C1003 1.503 . S
C1011 C1010 1.370 . S
C1011 C1012 1.403 . S
C1012 C1011 1.403 . S
C1012 C1013 1.404 . S
C1012 C1015 1.539 . S
C1013 C1009 1.408 . S
C1013 C1012 1.404 . S
C1013 H1025 0.930 . S
C1014 C1010 1.524 . S
C1014 H1026 0.956 . S
C1014 H1027 0.961 . S
C1014 H1028 0.961 . S
C1015 C1012 1.539 . S
C1015 H1029 0.958 . S
C1015 H1030 0.961 . S
C1015 H1031 0.960 . S
H1016 C1000 0.931 . S
H1017 C1005 0.929 . S
H1018 C1006 0.960 . S
H1019 C1006 0.962 . S
H1020 C1006 0.960 . S
H1021 C1007 0.961 . S
H1022 C1007 0.961 . S
H1023 C1007 0.961 . S
H1024 C1008 0.931 . S
H1025 C1013 0.930 . S
H1026 C1014 0.956 . S
H1027 C1014 0.961 . S
H1028 C1014 0.961 . S
H1029 C1015 0.958 . S
H1030 C1015 0.961 . S
H1031 C1015 0.960 . S
C265 C9 1.430 . S
C273 C110 1.445 . S
C297 C21 1.055 . S
C305 C159 1.116 . S
C337 C194 2.197 . S
C329 C30 2.208 . S
C361 C43 2.191 . S
C369 C233 2.259 1_655 S
C401 C154 2.097 . S
C393 C4 1.792 . S
C433 C113 1.522 . S
C425 C22 1.598 . S
C465 C243 1.571 1_556 S
C457 C34 1.622 . S
C497 C202 1.532 . S
C489 C48 1.548 . S
C521 C8 1.569 . S
C529 C230 1.609 . S
C561 C162 2.272 . S
C553 C35 2.340 . S
C585 C47 2.564 . S
C593 C123 2.563 . S
C617 C17 0.813 . S
C625 C199 0.864 . S
C657 C119 1.031 . S
C649 C60 0.976 . S
C681 C74 1.113 . S
C689 C150 1.101 . S
C713 C82 1.958 . S
C721 C203 1.994 . S
C745 C100 2.756 . S
C753 C242 2.682 . S
C777 C61 2.423 . S
C785 C163 2.526 . S
C817 C122 0.770 . S
C809 C73 0.742 . S
C849 C234 2.135 . S
C841 C87 2.195 . S
C881 C193 1.324 . S
C873 C95 1.311 . S
C905 C56 1.503 . S
C913 C239 1.500 . S
C945 C153 2.464 . S
C937 C86 2.529 . S
C977 C114 2.356 . S
C969 C99 2.366 . S
C1001 C69 0.743 . S
C1009 C190 0.723 . S
