# Generated by pormake.
# Topology pyr, (3,6)-cn, num edge types: 1
# Building blocks:
#     Node 0, Type 0, BuildingBlock: BETDIP_clean_linker_0, # of connection points: 3
#     Node 1, Type 0, BuildingBlock: BETDIP_clean_linker_0, # of connection points: 3
#     Node 2, Type 0, BuildingBlock: BETDIP_clean_linker_0, # of connection points: 3
#     Node 3, Type 0, BuildingBlock: BETDIP_clean_linker_0, # of connection points: 3
#     Node 4, Type 0, BuildingBlock: BETDIP_clean_linker_0, # of connection points: 3
#     Node 5, Type 0, BuildingBlock: BETDIP_clean_linker_0, # of connection points: 3
#     Node 6, Type 0, BuildingBlock: BETDIP_clean_linker_0, # of connection points: 3
#     Node 7, Type 0, BuildingBlock: BETDIP_clean_linker_0, # of connection points: 3
#     Node 8, Type 1, BuildingBlock: VOLQOD_clean_sbu_1, # of connection points: 6
#     Node 9, Type 1, BuildingBlock: VOLQOD_clean_sbu_1, # of connection points: 6
#     Node 10, Type 1, BuildingBlock: VOLQOD_clean_sbu_1, # of connection points: 6
#     Node 11, Type 1, BuildingBlock: VOLQOD_clean_sbu_1, # of connection points: 6
#     Edge 12, Type (0, 1), BuildingBlock: EZIPEK_clean_linker_0, # of connection points: 2
#     Edge 13, Type (0, 1), BuildingBlock: EZIPEK_clean_linker_0, # of connection points: 2
#     Edge 14, Type (0, 1), BuildingBlock: EZIPEK_clean_linker_0, # of connection points: 2
#     Edge 15, Type (0, 1), BuildingBlock: EZIPEK_clean_linker_0, # of connection points: 2
#     Edge 16, Type (0, 1), BuildingBlock: EZIPEK_clean_linker_0, # of connection points: 2
#     Edge 17, Type (0, 1), BuildingBlock: EZIPEK_clean_linker_0, # of connection points: 2
#     Edge 18, Type (0, 1), BuildingBlock: EZIPEK_clean_linker_0, # of connection points: 2
#     Edge 19, Type (0, 1), BuildingBlock: EZIPEK_clean_linker_0, # of connection points: 2
#     Edge 20, Type (0, 1), BuildingBlock: EZIPEK_clean_linker_0, # of connection points: 2
#     Edge 21, Type (0, 1), BuildingBlock: EZIPEK_clean_linker_0, # of connection points: 2
#     Edge 22, Type (0, 1), BuildingBlock: EZIPEK_clean_linker_0, # of connection points: 2
#     Edge 23, Type (0, 1), BuildingBlock: EZIPEK_clean_linker_0, # of connection points: 2
#     Edge 24, Type (0, 1), BuildingBlock: EZIPEK_clean_linker_0, # of connection points: 2
#     Edge 25, Type (0, 1), BuildingBlock: EZIPEK_clean_linker_0, # of connection points: 2
#     Edge 26, Type (0, 1), BuildingBlock: EZIPEK_clean_linker_0, # of connection points: 2
#     Edge 27, Type (0, 1), BuildingBlock: EZIPEK_clean_linker_0, # of connection points: 2
#     Edge 28, Type (0, 1), BuildingBlock: EZIPEK_clean_linker_0, # of connection points: 2
#     Edge 29, Type (0, 1), BuildingBlock: EZIPEK_clean_linker_0, # of connection points: 2
#     Edge 30, Type (0, 1), BuildingBlock: EZIPEK_clean_linker_0, # of connection points: 2
#     Edge 31, Type (0, 1), BuildingBlock: EZIPEK_clean_linker_0, # of connection points: 2
#     Edge 32, Type (0, 1), BuildingBlock: EZIPEK_clean_linker_0, # of connection points: 2
#     Edge 33, Type (0, 1), BuildingBlock: EZIPEK_clean_linker_0, # of connection points: 2
#     Edge 34, Type (0, 1), BuildingBlock: EZIPEK_clean_linker_0, # of connection points: 2
#     Edge 35, Type (0, 1), BuildingBlock: EZIPEK_clean_linker_0, # of connection points: 2
# Relax obj value: 0.111
# Max RMSD: 0.182
# Mean RMSD: 0.148
data_MOF--net-pry--node1-VOLQOD_clean_sbu_1--node2-BETDIP_clean_linker_0--edge1-EZIPEK_clean_linker_0
_symmetry_space_group_name_H-M    P1
_symmetry_Int_Tables_number       1
_symmetry_cell_setting            triclinic
loop_
_symmetry_equiv_pos_as_xyz
'x, y, z'
_cell_length_a     27.268515
_cell_length_b     26.727747
_cell_length_c     28.376641
_cell_angle_alpha  93.675815
_cell_angle_beta   85.398867
_cell_angle_gamma 96.953093
loop_
_atom_site_label
_atom_site_type_symbol
_atom_site_fract_x
_atom_site_fract_y
_atom_site_fract_z
_atom_type_partial_charge
H0 H 0.0643 0.13457 0.19621 0.0
H1 H 0.17841 0.13716 0.08163 0.0
H2 H 0.1878 0.0493 0.20089 0.0
H3 H 0.13438 0.18402 0.04663 0.0
C4 C 0.10845 0.20018 0.07245 0.0
C5 C 0.09807 0.12168 0.17963 0.0
C6 C 0.12338 0.08927 0.20346 0.0
C7 C 0.11718 0.13947 0.13559 0.0
C8 C 0.16186 0.12353 0.11495 0.0
C9 C 0.18694 0.09061 0.13818 0.0
C10 C 0.16769 0.07364 0.18239 0.0
N11 N 0.09236 0.17591 0.11518 0.0
H12 H 0.36417 0.93753 0.71813 0.0
H13 H 0.36805 0.82696 0.601 0.0
H14 H 0.45829 0.81941 0.71715 0.0
H15 H 0.33564 0.88483 0.5627 0.0
C16 C 0.31406 0.90577 0.58912 0.0
C17 C 0.37891 0.90473 0.70057 0.0
C18 C 0.41338 0.88096 0.72245 0.0
C19 C 0.36296 0.88647 0.6564 0.0
C20 C 0.38128 0.84306 0.63424 0.0
C21 C 0.41578 0.81885 0.65602 0.0
C22 C 0.43204 0.8382 0.70001 0.0
N23 N 0.32658 0.91125 0.63695 0.0
H24 H 0.67632 0.46071 0.89025 0.0
H25 H 0.55159 0.34488 0.89454 0.0
H26 H 0.67294 0.33583 0.97934 0.0
H27 H 0.55095 0.36144 0.81953 0.0
C28 C 0.56103 0.4018 0.8173 0.0
C29 C 0.65688 0.42671 0.90485 0.0
C30 C 0.679 0.4016 0.93811 0.0
C31 C 0.61151 0.40599 0.88775 0.0
C32 C 0.58707 0.36129 0.9063 0.0
C33 C 0.60927 0.33603 0.93908 0.0
C34 C 0.65505 0.3563 0.95513 0.0
N35 N 0.59339 0.4286 0.84958 0.0
H36 H 0.851 0.52921 0.40834 0.0
H37 H 0.97569 0.64473 0.39824 0.0
H38 H 0.83951 0.6768 0.47403 0.0
H39 H 0.01441 0.58534 0.35067 0.0
C40 C 0.98154 0.56571 0.33565 0.0
C41 C 0.86833 0.56673 0.41805 0.0
C42 C 0.84071 0.60084 0.44461 0.0
C43 C 0.9167 0.58222 0.40031 0.0
C44 C 0.93841 0.63168 0.41172 0.0
C45 C 0.91053 0.66583 0.43832 0.0
C46 C 0.86168 0.65018 0.45454 0.0
N47 N 0.93889 0.5501 0.3653 0.0
H48 H 0.84076 0.90594 0.96737 0.0
H49 H 0.95913 0.91092 0.8576 0.0
H50 H 0.82691 0.97793 0.83887 0.0
H51 H 0.9934 0.86004 0.89997 0.0
C52 C 0.96518 0.84417 0.92569 0.0
C53 C 0.85644 0.91813 0.93307 0.0
C54 C 0.82958 0.94597 0.90624 0.0
C55 C 0.90259 0.9044 0.91573 0.0
C56 C 0.92297 0.92014 0.87116 0.0
C57 C 0.89544 0.94549 0.84226 0.0
C58 C 0.84878 0.95855 0.86049 0.0
N59 N 0.92458 0.87078 0.94227 0.0
H60 H 0.62458 0.05389 0.34849 0.0
H61 H 0.62966 0.17353 0.4551 0.0
H62 H 0.53859 0.17813 0.34063 0.0
H63 H 0.71812 0.1586 0.42835 0.0
C64 C 0.7133 0.1185 0.43441 0.0
C65 C 0.6087 0.08687 0.36368 0.0
C66 C 0.57109 0.10728 0.34192 0.0
C67 C 0.62982 0.11053 0.40385 0.0
C68 C 0.61413 0.15575 0.42334 0.0
C69 C 0.58022 0.17934 0.40067 0.0
C70 C 0.56072 0.15623 0.35921 0.0
N71 N 0.66842 0.08913 0.42306 0.0
H72 H 0.32749 0.54153 0.13797 0.0
H73 H 0.45819 0.64913 0.14888 0.0
H74 H 0.34502 0.67665 0.06107 0.0
H75 H 0.48978 0.5851 0.1778 0.0
C76 C 0.45829 0.56743 0.19901 0.0
C77 C 0.34967 0.57604 0.12759 0.0
C78 C 0.33203 0.60659 0.09584 0.0
C79 C 0.39554 0.59051 0.14663 0.0
C80 C 0.42342 0.63617 0.13383 0.0
C81 C 0.40479 0.66764 0.10375 0.0
C82 C 0.35956 0.65227 0.08435 0.0
N83 N 0.41031 0.56111 0.18181 0.0
H84 H 0.02351 0.3781 0.61174 0.0
H85 H 0.15102 0.49015 0.60368 0.0
H86 H 0.15818 0.34432 0.5338 0.0
H87 H 0.10763 0.53679 0.65765 0.0
C88 C 0.08314 0.50694 0.67444 0.0
C89 C 0.06037 0.3908 0.59666 0.0
C90 C 0.08766 0.35666 0.56954 0.0
C91 C 0.08277 0.43908 0.60957 0.0
C92 C 0.13205 0.45387 0.59276 0.0
C93 C 0.15893 0.4198 0.56509 0.0
C94 C 0.13644 0.37159 0.55285 0.0
N95 N 0.05849 0.46715 0.64658 0.0
O96 O -0.00081 0.12051 0.563 0.0
Zn97 Zn 0.96886 0.04938 0.56196 0.0
O98 O 0.00877 0.00842 0.51869 0.0
Zn99 Zn 0.97309 0.98689 0.46248 0.0
Zn100 Zn 0.07246 0.04599 0.49931 0.0
Zn101 Zn 0.01902 0.95104 0.55355 0.0
O102 O 0.95766 0.91085 0.45807 0.0
O103 O -0.00315 0.88774 0.5175 0.0
O104 O 0.90056 0.05083 0.5393 0.0
O105 O 0.90953 0.01829 0.46548 0.0
O106 O 0.01231 0.00943 0.40226 0.0
O107 O 0.08278 0.04793 0.42804 0.0
O108 O 0.12957 0.01499 0.52289 0.0
O109 O 0.96354 0.02779 0.62936 0.0
O110 O 0.09143 0.94958 0.56149 0.0
O111 O 0.98076 0.94943 0.61807 0.0
C112 C 0.04049 0.14229 0.5469 0.0
C113 C 0.97156 0.87684 0.4818 0.0
C114 C 0.05533 0.0331 0.39439 0.0
C115 C 0.88456 0.04079 0.49837 0.0
C116 C 0.13079 0.97661 0.54705 0.0
C117 C 0.96497 0.98466 0.64531 0.0
O118 O 0.07298 0.11852 0.52336 0.0
O119 O 0.49764 0.10932 0.97652 0.0
Zn120 Zn 0.46415 0.03952 0.98866 0.0
O121 O 0.50475 0.00469 0.02709 0.0
Zn122 Zn 0.52735 0.94621 0.99114 0.0
Zn123 Zn 0.56315 0.0496 0.04604 0.0
Zn124 Zn 0.46408 0.98118 0.08263 0.0
O125 O 0.50838 0.88267 0.0248 0.0
O126 O 0.45476 0.9055 0.0829 0.0
O127 O 0.45358 0.00094 0.92575 0.0
O128 O 0.49747 0.9362 0.92833 0.0
O129 O 0.6006 0.95369 0.97791 0.0
O130 O 0.62715 0.02642 0.01476 0.0
O131 O 0.56433 0.05719 0.11796 0.0
O132 O 0.39723 0.04853 0.02258 0.0
O133 O 0.49555 0.00869 0.14159 0.0
O134 O 0.39721 0.00594 0.08735 0.0
C135 C 0.53486 0.13559 0.99363 0.0
C136 C 0.47674 0.87174 0.05902 0.0
C137 C 0.63558 0.98739 0.9885 0.0
C138 C 0.46937 0.96065 0.90724 0.0
C139 C 0.53421 0.03823 0.15063 0.0
C140 C 0.37618 0.03262 0.06137 0.0
O141 O 0.56145 0.11807 0.02201 0.0
O142 O 0.54594 0.51223 0.62123 0.0
Zn143 Zn 0.54257 0.54791 0.56156 0.0
O144 O 0.50234 0.50559 0.51673 0.0
Zn145 Zn 0.54203 0.48704 0.45972 0.0
Zn146 Zn 0.4738 0.44291 0.54559 0.0
Zn147 Zn 0.45134 0.54463 0.49867 0.0
O148 O 0.51627 0.50884 0.4014 0.0
O149 O 0.45592 0.55443 0.42849 0.0
O150 O 0.6122 0.56277 0.53324 0.0
O151 O 0.61105 0.51944 0.46343 0.0
O152 O 0.54533 0.4127 0.45042 0.0
O153 O 0.49809 0.38054 0.51095 0.0
O154 O 0.39965 0.43678 0.54617 0.0
O155 O 0.51458 0.61376 0.58072 0.0
O156 O 0.38517 0.50738 0.51456 0.0
O157 O 0.45193 0.61208 0.53486 0.0
C158 C 0.52322 0.47156 0.63692 0.0
C159 C 0.48283 0.53618 0.39452 0.0
C160 C 0.52644 0.37503 0.47353 0.0
C161 C 0.63366 0.54802 0.49422 0.0
C162 C 0.37006 0.46561 0.53287 0.0
C163 C 0.47868 0.6338 0.56664 0.0
O164 O 0.49321 0.44243 0.61255 0.0
O165 O 0.96524 0.48948 0.11218 0.0
Zn166 Zn 0.96809 0.46489 0.04353 0.0
O167 O 0.00978 0.51411 0.00489 0.0
Zn168 Zn 0.97148 0.5355 0.95653 0.0
Zn169 Zn 0.03215 0.57407 0.04385 0.0
Zn170 Zn 0.06748 0.4836 0.97529 0.0
O171 O 0.00259 0.52063 0.89236 0.0
O172 O 0.07055 0.48606 0.90414 0.0
O173 O 0.89851 0.4514 0.02109 0.0
O174 O 0.90232 0.50068 0.96012 0.0
O175 O 0.96936 0.61037 0.96026 0.0
O176 O 0.01032 0.63825 0.023 0.0
O177 O 0.10581 0.58477 0.04156 0.0
O178 O -0.00165 0.39937 0.0423 0.0
O179 O 0.13114 0.52186 0.99595 0.0
O180 O 0.06714 0.41203 0.99467 0.0
C181 C 0.98435 0.52962 0.13345 0.0
C182 C 0.04191 0.50222 0.87672 0.0
C183 C 0.98656 0.64634 0.98798 0.0
C184 C 0.87857 0.46876 0.98739 0.0
C185 C 0.14086 0.56256 0.02093 0.0
C186 C 0.03761 0.38424 0.02183 0.0
O187 O 0.00999 0.56497 0.11156 0.0
C188 C 0.08603 0.02386 0.26043 0.0
C189 C 0.10543 0.07454 0.25221 0.0
C190 C 0.08703 0.09856 0.336 0.0
C191 C 0.07256 0.04702 0.34531 0.0
N192 N 0.06639 0.95937 0.31758 0.0
N193 N 0.13389 0.15804 0.28388 0.0
C194 C 0.07414 0.00925 0.3078 0.0
C195 C 0.10868 0.11131 0.29051 0.0
N196 N 0.07776 0.99 0.22293 0.0
N197 N 0.07796 0.1357 0.36987 0.0
H198 H 0.15084 0.16885 0.25124 0.0
H199 H 0.14204 0.18439 0.31165 0.0
H200 H 0.06061 0.12831 0.40317 0.0
H201 H 0.0829 0.17395 0.3633 0.0
H202 H 0.05886 0.95402 0.22642 0.0
H203 H 0.08599 -0.00063 0.18781 0.0
H204 H 0.07209 0.93019 0.29237 0.0
H205 H 0.05873 0.94715 0.35185 0.0
C206 C 0.39692 0.88799 0.81069 0.0
C207 C 0.42858 0.90043 0.76991 0.0
C208 C 0.48811 0.95071 0.81952 0.0
C209 C 0.45473 0.94126 0.85983 0.0
N210 N 0.3753 0.90617 0.89419 0.0
N211 N 0.5011 0.94794 0.73378 0.0
C212 C 0.40844 0.91146 0.8555 0.0
C213 C 0.47343 0.9329 0.77384 0.0
N214 N 0.35667 0.8525 0.80665 0.0
N215 N 0.53408 0.97618 0.82509 0.0
H216 H 0.49202 0.93484 0.69979 0.0
H217 H 0.53117 0.97592 0.7338 0.0
H218 H 0.54516 0.99202 0.85766 0.0
H219 H 0.56236 0.97914 0.79815 0.0
H220 H 0.33503 0.83763 0.83548 0.0
H221 H 0.34693 0.83477 0.77434 0.0
H222 H 0.33883 0.88973 0.89249 0.0
H223 H 0.38312 0.92143 0.9279 0.0
C224 C 0.52558 0.46347 0.7702 0.0
C225 C 0.55454 0.42302 0.77161 0.0
C226 C 0.56266 0.41445 0.68492 0.0
C227 C 0.53478 0.45579 0.68336 0.0
N228 N 0.49519 0.52438 0.72314 0.0
N229 N 0.60897 0.36658 0.73185 0.0
C230 C 0.51816 0.48197 0.72565 0.0
C231 C 0.57533 0.40025 0.72936 0.0
N232 N 0.50323 0.48242 0.81126 0.0
N233 N 0.57684 0.38858 0.64387 0.0
H234 H 0.61977 0.35584 0.76382 0.0
H235 H 0.62958 0.35255 0.70258 0.0
H236 H 0.57166 0.39991 0.61031 0.0
H237 H 0.59142 0.35426 0.64289 0.0
H238 H 0.47715 0.50793 0.81248 0.0
H239 H 0.50835 0.47013 0.84448 0.0
H240 H 0.48714 0.54847 0.75227 0.0
H241 H 0.48663 0.53741 0.69127 0.0
C242 C 0.94365 0.57055 0.25847 0.0
C243 C 0.98134 0.55453 0.28388 0.0
C244 C 0.02077 0.52105 0.20995 0.0
C245 C 0.98103 0.53381 0.18545 0.0
N246 N 0.90014 0.56144 0.18666 0.0
N247 N 0.05138 0.50773 0.28554 0.0
C248 C 0.94085 0.55532 0.20991 0.0
C249 C 0.01879 0.5279 0.26009 0.0
N250 N 0.91283 0.60338 0.27963 0.0
N251 N 0.06085 0.5034 0.18513 0.0
H252 H 0.0511 0.51208 0.32235 0.0
H253 H 0.0761 0.4833 0.2707 0.0
H254 H 0.06267 0.49583 0.14854 0.0
H255 H 0.09354 0.49915 0.20025 0.0
H256 H 0.88798 0.62016 0.26148 0.0
H257 H 0.91587 0.61855 0.31405 0.0
H258 H 0.86745 0.57197 0.20384 0.0
H259 H 0.89745 0.5516 0.15069 0.0
C260 C 0.2798 0.10321 0.13324 0.0
C261 C 0.23544 0.07644 0.1174 0.0
C262 C 0.2836 0.02514 0.06039 0.0
C263 C 0.32778 0.04898 0.07909 0.0
N264 N 0.36896 0.10756 0.13561 0.0
N265 N 0.19383 0.00883 0.06994 0.0
C266 C 0.32615 0.08714 0.11622 0.0
C267 C 0.23697 0.03664 0.08188 0.0
N268 N 0.27757 0.14501 0.16346 0.0
N269 N 0.28635 0.99178 0.02192 0.0
H270 H 0.15906 0.01667 0.08452 0.0
H271 H 0.19239 0.97593 0.04815 0.0
H272 H 0.31981 0.9812 0.00639 0.0
H273 H 0.25599 0.97708 0.00332 0.0
H274 H 0.30846 0.16961 0.17226 0.0
H275 H 0.24429 0.15754 0.17724 0.0
H276 H 0.36983 0.13067 0.16655 0.0
H277 H 0.40398 0.09917 0.1223 0.0
C278 C 0.23323 0.8928 0.55092 0.0
C279 C 0.26867 0.92537 0.57572 0.0
C280 C 0.21322 0.99172 0.58281 0.0
C281 C 0.17921 0.96024 0.55552 0.0
N282 N 0.16202 0.88569 0.5041 0.0
N283 N 0.29789 0.00975 0.60464 0.0
C284 C 0.19075 0.91217 0.53676 0.0
C285 C 0.26026 0.97601 0.5887 0.0
N286 N 0.23885 0.84276 0.54275 0.0
N287 N 0.2 0.03574 0.60454 0.0
H288 H 0.33349 0.00025 0.6074 0.0
H289 H 0.29535 0.04827 0.61026 0.0
H290 H 0.16586 0.0485 0.60113 0.0
H291 H 0.22112 0.05739 0.62911 0.0
H292 H 0.21132 0.81618 0.52979 0.0
H293 H 0.26917 0.82671 0.55274 0.0
H294 H 0.17162 0.85301 0.48547 0.0
H295 H 0.13108 0.89895 0.49207 0.0
C296 C 0.77072 0.40227 0.92283 0.0
C297 C 0.73003 0.41921 0.9512 0.0
C298 C 0.78682 0.46829 0.00432 0.0
C299 C 0.82725 0.44937 0.97722 0.0
N300 N 0.85838 0.39253 0.91575 0.0
N301 N 0.6977 0.46242 0.02193 0.0
C302 C 0.81938 0.4147 0.93784 0.0
C303 C 0.73761 0.4505 0.99291 0.0
N304 N 0.76282 0.37499 0.88109 0.0
N305 N 0.79564 0.50456 0.03984 0.0
H306 H 0.66118 0.45152 0.01374 0.0
H307 H 0.70051 0.48031 0.05543 0.0
H308 H 0.83116 0.51747 0.04985 0.0
H309 H 0.76829 0.52417 0.0575 0.0
H310 H 0.7911 0.36659 0.85606 0.0
H311 H 0.72761 0.36343 0.86967 0.0
H312 H 0.85458 0.36297 0.89011 0.0
H313 H 0.89459 0.40083 0.92578 0.0
C314 C 0.77304 0.56167 0.49984 0.0
C315 C 0.78776 0.58697 0.45776 0.0
C316 C 0.70149 0.5937 0.44446 0.0
C317 C 0.68659 0.56402 0.48385 0.0
N318 N 0.70697 0.5132 0.54529 0.0
N319 N 0.76724 0.62117 0.38609 0.0
C320 C 0.72199 0.54637 0.5108 0.0
C321 C 0.75232 0.60135 0.42889 0.0
N322 N 0.80777 0.55317 0.52966 0.0
N323 N 0.66715 0.6159 0.423 0.0
H324 H 0.80435 0.62792 0.37361 0.0
H325 H 0.74281 0.62716 0.36121 0.0
H326 H 0.6295 0.61164 0.43394 0.0
H327 H 0.67636 0.6422 0.39726 0.0
H328 H 0.79889 0.54001 0.56339 0.0
H329 H 0.84569 0.56285 0.5221 0.0
H330 H 0.73131 0.49466 0.56241 0.0
H331 H 0.66984 0.50097 0.5544 0.0
C332 C 0.06657 0.24786 0.0166 0.0
C333 C 0.08788 0.24671 0.06066 0.0
C334 C 0.07604 0.3359 0.07884 0.0
C335 C 0.05321 0.33633 0.03562 0.0
N336 N 0.02106 0.29285 0.96586 0.0
N337 N 0.11184 0.28854 0.13479 0.0
C338 C 0.04702 0.29234 0.0051 0.0
C339 C 0.09184 0.29029 0.0923 0.0
N340 N 0.06531 0.20641 0.98561 0.0
N341 N 0.08492 0.37999 0.10579 0.0
H342 H 0.13033 0.2589 0.14347 0.0
H343 H 0.1091 0.31583 0.16239 0.0
H344 H 0.07338 0.41398 0.09753 0.0
H345 H 0.10622 0.38425 0.13489 0.0
H346 H 0.05621 0.20648 0.95071 0.0
H347 H 0.07555 0.17189 0.99398 0.0
H348 H 0.01052 0.26099 0.94437 0.0
H349 H 0.00691 0.32502 0.95629 0.0
C350 C 0.55882 0.27874 0.99584 0.0
C351 C 0.58741 0.285 0.95221 0.0
C352 C 0.57442 0.19395 0.93281 0.0
C353 C 0.54973 0.18721 0.97829 0.0
N354 N 0.52058 0.22132 0.05473 0.0
N355 N 0.62772 0.24946 0.88119 0.0
C356 C 0.54245 0.22914 0.01031 0.0
C357 C 0.59638 0.24287 0.92104 0.0
N358 N 0.54654 0.3203 0.02278 0.0
N359 N 0.57691 0.15353 0.90092 0.0
H360 H 0.64412 0.28476 0.87088 0.0
H361 H 0.64055 0.21987 0.85996 0.0
H362 H 0.56357 0.11659 0.90892 0.0
H363 H 0.5891 0.15679 0.86542 0.0
H364 H 0.52167 0.31866 0.05259 0.0
H365 H 0.55864 0.35712 0.01342 0.0
H366 H 0.51929 0.2495 0.08171 0.0
H367 H 0.50569 0.18573 0.0656 0.0
C368 C 0.93239 0.73771 0.49603 0.0
C369 C 0.93084 0.71904 0.4483 0.0
C370 C 0.96253 0.80304 0.42206 0.0
C371 C 0.9565 0.8229 0.4695 0.0
N372 N 0.92288 0.80975 0.55001 0.0
N373 N 0.93437 0.73658 0.3654 0.0
C374 C 0.93794 0.79043 0.50618 0.0
C375 C 0.9432 0.75234 0.411 0.0
N376 N 0.92894 0.70514 0.53168 0.0
N377 N 0.98819 0.83158 0.38791 0.0
H378 H 0.91835 0.70035 0.35589 0.0
H379 H 0.93832 0.76107 0.33784 0.0
H380 H 0.00493 0.8682 0.39483 0.0
H381 H -0.00266 0.81689 0.35386 0.0
H382 H 0.93427 0.71718 0.56676 0.0
H383 H 0.92603 0.66603 0.5254 0.0
H384 H 0.90511 0.78729 0.57644 0.0
H385 H 0.92251 0.8483 0.5582 0.0
C386 C 0.41429 0.72445 0.65225 0.0
C387 C 0.43323 0.7716 0.63368 0.0
C388 C 0.48128 0.72826 0.57005 0.0
C389 C 0.46484 0.68155 0.5905 0.0
N390 N 0.4219 0.63514 0.65462 0.0
N391 N 0.49028 0.81979 0.57973 0.0
C392 C 0.4333 0.67969 0.63279 0.0
C393 C 0.46829 0.77391 0.59384 0.0
N394 N 0.37661 0.72223 0.6872 0.0
N395 N 0.50856 0.72881 0.52746 0.0
H396 H 0.48156 0.85392 0.59625 0.0
H397 H 0.51984 0.82416 0.55418 0.0
H398 H 0.52024 0.69629 0.51 0.0
H399 H 0.51697 0.7608 0.50793 0.0
H400 H 0.35736 0.6886 0.69858 0.0
H401 H 0.36161 0.75411 0.70236 0.0
H402 H 0.40387 0.63239 0.68827 0.0
H403 H 0.43378 0.60121 0.64069 0.0
C404 C 0.91049 0.0034 0.77347 0.0
C405 C 0.91434 0.95615 0.79219 0.0
C406 C 0.96139 0.93314 0.71861 0.0
C407 C 0.94791 0.97528 0.69624 0.0
N408 N 0.89213 0.04075 0.70323 0.0
N409 N 0.92976 0.86935 0.77286 0.0
C410 C 0.91744 0.0079 0.72376 0.0
C411 C 0.93557 0.91879 0.7619 0.0
N412 N 0.90144 0.0444 0.80259 0.0
N413 N 0.00025 0.90818 0.7009 0.0
H414 H 0.90692 0.85594 0.80167 0.0
H415 H 0.94259 0.84109 0.74967 0.0
H416 H 0.02566 0.92151 0.67389 0.0
H417 H 0.01163 0.87883 0.71831 0.0
H418 H 0.90154 0.08016 0.7898 0.0
H419 H 0.90005 0.04389 0.8394 0.0
H420 H 0.86797 0.06282 0.72299 0.0
H421 H 0.88862 0.04024 0.66695 0.0
C422 C 0.51603 0.10412 0.27182 0.0
C423 C 0.5485 0.08099 0.29791 0.0
C424 C 0.56234 0.02211 0.22958 0.0
C425 C 0.541 0.05382 0.20081 0.0
N426 N 0.49525 0.1249 0.19481 0.0
N427 N 0.56331 0.99579 0.30925 0.0
C428 C 0.5171 0.09483 0.22199 0.0
C429 C 0.56105 0.03321 0.27927 0.0
N430 N 0.47822 0.12682 0.29513 0.0
N431 N 0.58414 0.98169 0.20964 0.0
H432 H 0.55371 0.00071 0.34549 0.0
H433 H 0.5677 0.9587 0.29764 0.0
H434 H 0.58513 0.97199 0.17338 0.0
H435 H 0.60437 0.96036 0.22875 0.0
H436 H 0.45055 0.1403 0.27787 0.0
H437 H 0.47082 0.12505 0.33172 0.0
H438 H 0.48131 0.1579 0.20853 0.0
H439 H 0.49447 0.11893 0.15815 0.0
C440 C 0.44743 0.51199 0.26808 0.0
C441 C 0.46396 0.55957 0.24936 0.0
C442 C 0.49417 0.59165 0.32594 0.0
C443 C 0.47429 0.54539 0.34539 0.0
N444 N 0.42477 0.46459 0.33818 0.0
N445 N 0.49487 0.64763 0.26207 0.0
C446 C 0.44868 0.50644 0.31739 0.0
C447 C 0.48523 0.60025 0.27868 0.0
N448 N 0.43293 0.47147 0.23843 0.0
N449 N 0.52276 0.62677 0.35221 0.0
H450 H 0.48846 0.65582 0.22783 0.0
H451 H 0.50514 0.67975 0.2834 0.0
H452 H 0.52909 0.62227 0.38739 0.0
H453 H 0.54317 0.65859 0.3382 0.0
H454 H 0.42546 0.43468 0.2493 0.0
H455 H 0.43278 0.47371 0.20189 0.0
H456 H 0.40101 0.43744 0.32068 0.0
H457 H 0.42527 0.45909 0.37421 0.0
C458 C 0.06557 0.55117 0.75362 0.0
C459 C 0.07662 0.50686 0.7268 0.0
C460 C 0.06444 0.45894 0.79834 0.0
C461 C 0.05628 0.5038 0.82556 0.0
N462 N 0.0622 0.59494 0.83094 0.0
N463 N 0.10319 0.42374 0.72646 0.0
C464 C 0.06074 0.55071 0.80376 0.0
C465 C 0.08083 0.4621 0.74989 0.0
N466 N 0.05781 0.5931 0.73136 0.0
N467 N 0.05504 0.41315 0.81813 0.0
H468 H 0.12001 0.42667 0.69238 0.0
H469 H 0.11085 0.39208 0.74289 0.0
H470 H 0.04235 0.40906 0.85349 0.0
H471 H 0.05547 0.37898 0.7983 0.0
H472 H 0.04415 0.62441 0.74917 0.0
H473 H 0.06101 0.5951 0.69465 0.0
H474 H 0.07031 0.63032 0.81691 0.0
H475 H 0.06049 0.59636 0.86785 0.0
C476 C 0.73729 0.94508 0.90151 0.0
C477 C 0.78044 0.96022 0.92599 0.0
C478 C 0.72867 0.99184 0.99352 0.0
C479 C 0.68636 0.9817 0.96678 0.0
N480 N 0.65555 0.96479 0.88891 0.0
N481 N 0.81783 0.01124 0.99005 0.0
C482 C 0.6922 0.96326 0.91876 0.0
C483 C 0.77637 0.98782 0.97039 0.0
N484 N 0.73836 0.91149 0.86317 0.0
N485 N 0.72366 0.00251 0.04126 0.0
H486 H 0.85327 0.01098 0.97327 0.0
H487 H 0.81633 0.03541 0.02032 0.0
H488 H 0.68947 0.00298 0.06039 0.0
H489 H 0.75337 0.00541 0.0626 0.0
H490 H 0.70645 0.89622 0.84702 0.0
H491 H 0.7698 0.89458 0.8509 0.0
H492 H 0.66004 0.95531 0.85273 0.0
H493 H 0.62343 0.98155 0.89894 0.0
C494 C 0.7831 0.12536 0.48762 0.0
C495 C 0.75433 0.09612 0.45395 0.0
C496 C 0.80371 0.02647 0.46026 0.0
C497 C 0.83755 0.05879 0.48708 0.0
N498 N 0.86441 0.14415 0.51654 0.0
N499 N 0.74707 0.02279 0.39885 0.0
C500 C 0.82858 0.10965 0.49848 0.0
C501 C 0.76691 0.04749 0.43781 0.0
N502 N 0.76685 0.16781 0.5099 0.0
N503 N 0.80629 0.97563 0.45647 0.0
H504 H 0.72432 0.03878 0.37774 0.0
H505 H 0.75863 0.98916 0.38385 0.0
H506 H 0.83159 0.95859 0.47394 0.0
H507 H 0.77972 0.95017 0.4405 0.0
H508 H 0.7845 0.18763 0.53785 0.0
H509 H 0.73299 0.17997 0.5042 0.0
H510 H 0.86086 0.1826 0.52085 0.0
H511 H 0.89979 0.1359 0.52207 0.0
C512 C 0.27754 0.55877 0.03682 0.0
C513 C 0.28305 0.59387 0.07627 0.0
C514 C 0.20278 0.62154 0.06552 0.0
C515 C 0.19332 0.58092 0.03153 0.0
N516 N 0.23111 0.53007 0.96881 0.0
N517 N 0.24847 0.65405 0.1325 0.0
C518 C 0.23331 0.55444 0.01256 0.0
C519 C 0.2449 0.62389 0.09186 0.0
N520 N 0.31442 0.52946 0.02281 0.0
N521 N 0.17462 0.66075 0.06912 0.0
H522 H 0.27865 0.65635 0.15326 0.0
H523 H 0.21931 0.67276 0.14794 0.0
H524 H 0.14899 0.66477 0.04465 0.0
H525 H 0.18229 0.69312 0.09099 0.0
H526 H 0.31051 0.49909 0.99803 0.0
H527 H 0.34811 0.53322 0.0384 0.0
H528 H 0.26005 0.51263 0.95135 0.0
H529 H 0.20312 0.53376 0.94676 0.0
C530 C 0.24366 0.42841 0.59403 0.0
C531 C 0.21307 0.43096 0.55631 0.0
C532 C 0.28624 0.44794 0.50168 0.0
C533 C 0.31633 0.4516 0.54063 0.0
N534 N 0.32294 0.45531 0.62529 0.0
N535 N 0.20385 0.44872 0.47552 0.0
C536 C 0.29493 0.44444 0.58725 0.0
C537 C 0.23395 0.44231 0.5104 0.0
N538 N 0.22403 0.40919 0.63587 0.0
N539 N 0.30763 0.44794 0.45641 0.0
H540 H 0.16528 0.44425 0.48069 0.0
H541 H 0.21704 0.46228 0.44273 0.0
H542 H 0.34588 0.45075 0.44864 0.0
H543 H 0.28755 0.44044 0.42655 0.0
H544 H 0.24561 0.40155 0.66262 0.0
H545 H 0.18663 0.39615 0.64209 0.0
H546 H 0.3078 0.45596 0.6602 0.0
H547 H 0.36057 0.46851 0.6222 0.0
C548 C 0.92908 0.75639 0.94679 0.0
C549 C 0.97018 0.79451 0.9445 0.0
C550 C 0.02315 0.73495 0.96991 0.0
C551 C 0.98084 0.6988 0.97708 0.0
N552 N 0.89183 0.68012 0.98314 0.0
N553 N 0.05416 0.8232 0.96302 0.0
C554 C 0.93323 0.71117 0.96899 0.0
C555 C 0.01659 0.78475 0.95887 0.0
N556 N 0.88722 0.7615 0.92494 0.0
N557 N 0.06977 0.72123 0.97075 0.0
H558 H 0.05071 0.86031 0.9557 0.0
H559 H 0.08698 0.81921 0.97809 0.0
H560 H 0.07674 0.68484 0.97696 0.0
H561 H 0.1017 0.74474 0.96065 0.0
H562 H 0.8582 0.73257 0.92189 0.0
H563 H 0.88381 0.79204 0.90488 0.0
H564 H 0.85607 0.68985 0.98206 0.0
H565 H 0.89336 0.64723 1.00062 0.0
C566 C 0.44413 0.72937 0.04565 0.0
C567 C 0.43091 0.71812 0.09342 0.0
C568 C 0.46034 0.80507 0.11838 0.0
C569 C 0.46403 0.81828 0.07047 0.0
N570 N 0.44915 0.79316 0.98867 0.0
N571 N 0.41866 0.74822 0.1754 0.0
C572 C 0.45364 0.78046 0.03392 0.0
C573 C 0.43719 0.75663 0.13004 0.0
N574 N 0.4474 0.69124 0.01152 0.0
N575 N 0.47991 0.83816 0.15257 0.0
H576 H 0.39954 0.714 0.18553 0.0
H577 H 0.41806 0.77691 0.20205 0.0
H578 H 0.49922 0.87322 0.14509 0.0
H579 H 0.48187 0.82839 0.1873 0.0
H580 H 0.46106 0.69752 0.97676 0.0
H581 H 0.44151 0.65322 0.01922 0.0
H582 H 0.43699 0.76685 0.96215 0.0
H583 H 0.45181 0.83028 0.9787 0.0
C584 C 0.07909 0.27173 0.60273 0.0
C585 C 0.06943 0.30248 0.56629 0.0
C586 C 0.04 0.22798 0.51744 0.0
C587 C 0.04962 0.19735 0.55393 0.0
N588 N 0.06909 0.18854 0.63412 0.0
N589 N 0.03403 0.31245 0.493 0.0
C590 C 0.06623 0.2188 0.59755 0.0
C591 C 0.04776 0.28131 0.52478 0.0
N592 N 0.10243 0.29304 0.64133 0.0
N593 N 0.02401 0.20584 0.47572 0.0
H594 H 0.03957 0.35172 0.49762 0.0
H595 H 0.01415 0.29993 0.46387 0.0
H596 H 0.01507 0.16695 0.47031 0.0
H597 H 0.02151 0.22541 0.44564 0.0
H598 H 0.11628 0.27234 0.66604 0.0
H599 H 0.11064 0.33189 0.64759 0.0
H600 H 0.07536 0.20224 0.66854 0.0
H601 H 0.06177 0.14929 0.63097 0.0
C602 C 0.51618 0.23437 0.43618 0.0
C603 C 0.56606 0.22931 0.4198 0.0
C604 C 0.59031 0.31711 0.44659 0.0
C605 C 0.53967 0.32412 0.45698 0.0
N606 N 0.45349 0.29119 0.45276 0.0
N607 N 0.64879 0.26936 0.40021 0.0
C608 C 0.50224 0.2832 0.44947 0.0
C609 C 0.60267 0.27171 0.42236 0.0
N610 N 0.48239 0.19247 0.44051 0.0
N611 N 0.62679 0.35287 0.46157 0.0
H612 H 0.65896 0.23733 0.38073 0.0
H613 H 0.6752 0.30082 0.39707 0.0
H614 H 0.61947 0.38565 0.48151 0.0
H615 H 0.66412 0.34734 0.45881 0.0
H616 H 0.44688 0.19363 0.45678 0.0
H617 H 0.49128 0.15593 0.43211 0.0
H618 H 0.42523 0.26368 0.44278 0.0
H619 H 0.44161 0.32657 0.46089 0.0
loop_
_geom_bond_atom_site_label_1
_geom_bond_atom_site_label_2
_geom_bond_distance
_geom_bond_site_symmetry_2
_ccdc_geom_bond_type
H0 C5 0.930 . S
H1 C8 0.930 . S
H2 C10 0.930 . S
H3 C4 1.016 . S
C4 H3 1.016 . S
C4 N11 1.286 . S
C5 H0 0.930 . S
C5 C6 1.397 . S
C5 C7 1.361 . S
C6 C5 1.397 . S
C6 C10 1.390 . S
C7 C5 1.361 . S
C7 C8 1.393 . S
C7 N11 1.413 . S
C8 H1 0.930 . S
C8 C7 1.393 . S
C8 C9 1.399 . S
C9 C8 1.399 . S
C9 C10 1.381 . S
C10 H2 0.930 . S
C10 C6 1.390 . S
C10 C9 1.381 . S
N11 C4 1.286 . S
N11 C7 1.413 . S
H12 C17 0.930 . S
H13 C20 0.930 . S
H14 C22 0.930 . S
H15 C16 1.016 . S
C16 H15 1.016 . S
C16 N23 1.286 . S
C17 H12 0.930 . S
C17 C18 1.397 . S
C17 C19 1.361 . S
C18 C17 1.397 . S
C18 C22 1.390 . S
C19 C17 1.361 . S
C19 C20 1.393 . S
C19 N23 1.413 . S
C20 H13 0.930 . S
C20 C19 1.393 . S
C20 C21 1.399 . S
C21 C20 1.399 . S
C21 C22 1.381 . S
C22 H14 0.930 . S
C22 C18 1.390 . S
C22 C21 1.381 . S
N23 C16 1.286 . S
N23 C19 1.413 . S
H24 C29 0.930 . S
H25 C32 0.930 . S
H26 C34 0.930 . S
H27 C28 1.016 . S
C28 H27 1.016 . S
C28 N35 1.286 . S
C29 H24 0.930 . S
C29 C30 1.397 . S
C29 C31 1.361 . S
C30 C29 1.397 . S
C30 C34 1.390 . S
C31 C29 1.361 . S
C31 C32 1.393 . S
C31 N35 1.413 . S
C32 H25 0.930 . S
C32 C31 1.393 . S
C32 C33 1.399 . S
C33 C32 1.399 . S
C33 C34 1.381 . S
C34 H26 0.930 . S
C34 C30 1.390 . S
C34 C33 1.381 . S
N35 C28 1.286 . S
N35 C31 1.413 . S
H36 C41 0.930 . S
H37 C44 0.930 . S
H38 C46 0.930 . S
H39 C40 1.016 . S
C40 H39 1.016 . S
C40 N47 1.286 . S
C41 H36 0.930 . S
C41 C42 1.397 . S
C41 C43 1.361 . S
C42 C41 1.397 . S
C42 C46 1.390 . S
C43 C41 1.361 . S
C43 C44 1.393 . S
C43 N47 1.413 . S
C44 H37 0.930 . S
C44 C43 1.393 . S
C44 C45 1.399 . S
C45 C44 1.399 . S
C45 C46 1.381 . S
C46 H38 0.930 . S
C46 C42 1.390 . S
C46 C45 1.381 . S
N47 C40 1.286 . S
N47 C43 1.413 . S
H48 C53 0.930 . S
H49 C56 0.930 . S
H50 C58 0.930 1_545 S
H51 C52 1.016 . S
C52 H51 1.016 . S
C52 N59 1.286 . S
C53 H48 0.930 . S
C53 C54 1.397 . S
C53 C55 1.361 . S
C54 C53 1.397 . S
C54 C58 1.390 . S
C55 C53 1.361 . S
C55 C56 1.393 . S
C55 N59 1.413 . S
C56 H49 0.930 . S
C56 C55 1.393 . S
C56 C57 1.399 . S
C57 C56 1.399 . S
C57 C58 1.381 . S
C58 H50 0.930 1_565 S
C58 C54 1.390 . S
C58 C57 1.381 . S
N59 C52 1.286 . S
N59 C55 1.413 . S
H60 C65 0.930 . S
H61 C68 0.930 . S
H62 C70 0.930 . S
H63 C64 1.016 . S
C64 H63 1.016 . S
C64 N71 1.286 . S
C65 H60 0.930 . S
C65 C66 1.397 . S
C65 C67 1.361 . S
C66 C65 1.397 . S
C66 C70 1.390 . S
C67 C65 1.361 . S
C67 C68 1.393 . S
C67 N71 1.413 . S
C68 H61 0.930 . S
C68 C67 1.393 . S
C68 C69 1.399 . S
C69 C68 1.399 . S
C69 C70 1.381 . S
C70 H62 0.930 . S
C70 C66 1.390 . S
C70 C69 1.381 . S
N71 C64 1.286 . S
N71 C67 1.413 . S
H72 C77 0.930 . S
H73 C80 0.930 . S
H74 C82 0.930 . S
H75 C76 1.016 . S
C76 H75 1.016 . S
C76 N83 1.286 . S
C77 H72 0.930 . S
C77 C78 1.397 . S
C77 C79 1.361 . S
C78 C77 1.397 . S
C78 C82 1.390 . S
C79 C77 1.361 . S
C79 C80 1.393 . S
C79 N83 1.413 . S
C80 H73 0.930 . S
C80 C79 1.393 . S
C80 C81 1.399 . S
C81 C80 1.399 . S
C81 C82 1.381 . S
C82 H74 0.930 . S
C82 C78 1.390 . S
C82 C81 1.381 . S
N83 C76 1.286 . S
N83 C79 1.413 . S
H84 C89 0.930 . S
H85 C92 0.930 . S
H86 C94 0.930 . S
H87 C88 1.016 . S
C88 H87 1.016 . S
C88 N95 1.286 . S
C89 H84 0.930 . S
C89 C90 1.397 . S
C89 C91 1.361 . S
C90 C89 1.397 . S
C90 C94 1.390 . S
C91 C89 1.361 . S
C91 C92 1.393 . S
C91 N95 1.413 . S
C92 H85 0.930 . S
C92 C91 1.393 . S
C92 C93 1.399 . S
C93 C92 1.399 . S
C93 C94 1.381 . S
C94 H86 0.930 . S
C94 C90 1.390 . S
C94 C93 1.381 . S
N95 C88 1.286 . S
N95 C91 1.413 . S
O96 Zn97 1.953 . S
O96 C112 1.225 1_655 S
Zn97 O96 1.953 . S
Zn97 O98 1.949 1_655 S
Zn97 O104 1.919 . S
Zn97 O109 1.924 . S
O98 Zn97 1.949 1_455 S
O98 Zn99 1.923 1_445 S
O98 Zn100 1.950 . S
O98 Zn101 1.945 1_545 S
Zn99 O98 1.923 1_665 S
Zn99 O102 1.933 . S
Zn99 O105 1.941 1_565 S
Zn99 O106 1.965 1_665 S
Zn100 O98 1.950 . S
Zn100 O107 1.938 . S
Zn100 O108 1.906 1_545 S
Zn100 O118 1.953 . S
Zn101 O98 1.945 1_565 S
Zn101 O103 1.932 1_455 S
Zn101 O110 1.977 . S
Zn101 O111 1.910 1_455 S
O102 Zn99 1.933 . S
O102 C113 1.226 . S
O103 Zn101 1.932 1_655 S
O103 C113 1.307 . S
O104 Zn97 1.919 . S
O104 C115 1.253 . S
O105 Zn99 1.941 1_545 S
O105 C115 1.283 . S
O106 Zn99 1.965 1_445 S
O106 C114 1.303 . S
O107 Zn100 1.938 . S
O107 C114 1.247 . S
O108 Zn100 1.906 1_565 S
O108 C116 1.304 . S
O109 Zn97 1.924 . S
O109 C117 1.311 1_545 S
O110 Zn101 1.977 . S
O110 C116 1.272 . S
O111 Zn101 1.910 1_655 S
O111 C117 1.231 . S
C112 O96 1.225 1_455 S
C112 O118 1.298 . S
C113 O102 1.226 . S
C113 O103 1.307 . S
C114 O106 1.303 . S
C114 O107 1.247 . S
C115 O104 1.253 . S
C115 O105 1.283 . S
C116 O108 1.304 . S
C116 O110 1.272 . S
C117 O109 1.311 1_565 S
C117 O111 1.231 . S
O118 Zn100 1.953 . S
O118 C112 1.298 . S
O119 Zn120 1.953 . S
O119 C135 1.225 . S
Zn120 O119 1.953 . S
Zn120 O121 1.949 1_556 S
Zn120 O127 1.919 . S
Zn120 O132 1.924 1_556 S
O121 Zn120 1.949 1_554 S
O121 Zn122 1.923 1_544 S
O121 Zn123 1.950 . S
O121 Zn124 1.945 1_545 S
Zn122 O121 1.923 1_566 S
Zn122 O125 1.933 1_556 S
Zn122 O128 1.941 . S
Zn122 O129 1.965 . S
Zn123 O121 1.950 . S
Zn123 O130 1.938 . S
Zn123 O131 1.906 . S
Zn123 O141 1.953 . S
Zn124 O121 1.945 1_565 S
Zn124 O126 1.932 . S
Zn124 O133 1.977 1_565 S
Zn124 O134 1.910 1_565 S
O125 Zn122 1.933 1_554 S
O125 C136 1.226 . S
O126 Zn124 1.932 . S
O126 C136 1.307 . S
O127 Zn120 1.919 . S
O127 C138 1.253 1_545 S
O128 Zn122 1.941 . S
O128 C138 1.283 . S
O129 Zn122 1.965 . S
O129 C137 1.303 1_565 S
O130 Zn123 1.938 . S
O130 C137 1.247 1_554 S
O131 Zn123 1.906 . S
O131 C139 1.304 . S
O132 Zn120 1.924 1_554 S
O132 C140 1.311 . S
O133 Zn124 1.977 1_545 S
O133 C139 1.272 . S
O134 Zn124 1.910 1_545 S
O134 C140 1.231 . S
C135 O119 1.225 . S
C135 O141 1.298 1_556 S
C136 O125 1.226 . S
C136 O126 1.307 . S
C137 O129 1.303 1_545 S
C137 O130 1.247 1_556 S
C138 O127 1.253 1_565 S
C138 O128 1.283 . S
C139 O131 1.304 . S
C139 O133 1.272 . S
C140 O132 1.311 . S
C140 O134 1.231 . S
O141 Zn123 1.953 . S
O141 C135 1.298 1_554 S
O142 Zn143 1.953 . S
O142 C158 1.225 . S
Zn143 O142 1.953 . S
Zn143 O144 1.949 . S
Zn143 O150 1.919 . S
Zn143 O155 1.924 . S
O144 Zn143 1.949 . S
O144 Zn145 1.923 . S
O144 Zn146 1.950 . S
O144 Zn147 1.945 . S
Zn145 O144 1.923 . S
Zn145 O148 1.933 . S
Zn145 O151 1.941 . S
Zn145 O152 1.965 . S
Zn146 O144 1.950 . S
Zn146 O153 1.938 . S
Zn146 O154 1.906 . S
Zn146 O164 1.953 . S
Zn147 O144 1.945 . S
Zn147 O149 1.932 . S
Zn147 O156 1.977 . S
Zn147 O157 1.910 . S
O148 Zn145 1.933 . S
O148 C159 1.226 . S
O149 Zn147 1.932 . S
O149 C159 1.307 . S
O150 Zn143 1.919 . S
O150 C161 1.253 . S
O151 Zn145 1.941 . S
O151 C161 1.283 . S
O152 Zn145 1.965 . S
O152 C160 1.303 . S
O153 Zn146 1.938 . S
O153 C160 1.247 . S
O154 Zn146 1.906 . S
O154 C162 1.304 . S
O155 Zn143 1.924 . S
O155 C163 1.311 . S
O156 Zn147 1.977 . S
O156 C162 1.272 . S
O157 Zn147 1.910 . S
O157 C163 1.231 . S
C158 O142 1.225 . S
C158 O164 1.298 . S
C159 O148 1.226 . S
C159 O149 1.307 . S
C160 O152 1.303 . S
C160 O153 1.247 . S
C161 O150 1.253 . S
C161 O151 1.283 . S
C162 O154 1.304 . S
C162 O156 1.272 . S
C163 O155 1.311 . S
C163 O157 1.231 . S
O164 Zn146 1.953 . S
O164 C158 1.298 . S
O165 Zn166 1.953 . S
O165 C181 1.225 . S
Zn166 O165 1.953 . S
Zn166 O167 1.949 1_655 S
Zn166 O173 1.919 . S
Zn166 O178 1.924 . S
O167 Zn166 1.949 1_455 S
O167 Zn168 1.923 1_554 S
O167 Zn169 1.950 . S
O167 Zn170 1.945 1_554 S
Zn168 O167 1.923 1_556 S
Zn168 O171 1.933 . S
Zn168 O174 1.941 1_455 S
Zn168 O175 1.965 . S
Zn169 O167 1.950 . S
Zn169 O176 1.938 . S
Zn169 O177 1.906 . S
Zn169 O187 1.953 . S
Zn170 O167 1.945 1_556 S
Zn170 O172 1.932 . S
Zn170 O179 1.977 1_556 S
Zn170 O180 1.910 1_556 S
O171 Zn168 1.933 . S
O171 C182 1.226 . S
O172 Zn170 1.932 . S
O172 C182 1.307 . S
O173 Zn166 1.919 . S
O173 C184 1.253 1_554 S
O174 Zn168 1.941 1_655 S
O174 C184 1.283 . S
O175 Zn168 1.965 . S
O175 C183 1.303 . S
O176 Zn169 1.938 . S
O176 C183 1.247 1_554 S
O177 Zn169 1.906 . S
O177 C185 1.304 . S
O178 Zn166 1.924 . S
O178 C186 1.311 1_655 S
O179 Zn170 1.977 1_554 S
O179 C185 1.272 . S
O180 Zn170 1.910 1_554 S
O180 C186 1.231 . S
C181 O165 1.225 . S
C181 O187 1.298 1_655 S
C182 O171 1.226 . S
C182 O172 1.307 . S
C183 O175 1.303 . S
C183 O176 1.247 1_556 S
C184 O173 1.253 1_556 S
C184 O174 1.283 . S
C185 O177 1.304 . S
C185 O179 1.272 . S
C186 O178 1.311 1_455 S
C186 O180 1.231 . S
O187 Zn169 1.953 . S
O187 C181 1.298 1_455 S
C188 C189 1.363 . S
C188 C194 1.379 . S
C188 N196 1.356 . S
C189 C188 1.363 . S
C189 C195 1.363 . S
C190 C191 1.363 . S
C190 C195 1.379 . S
C190 N197 1.356 . S
C191 C190 1.363 . S
C191 C194 1.363 . S
N192 C194 1.356 . S
N192 H204 0.975 1_445 S
N192 H205 0.985 . S
N193 C195 1.356 . S
N193 H198 0.984 . S
N193 H199 0.985 . S
C194 C188 1.379 . S
C194 C191 1.363 . S
C194 N192 1.356 . S
C195 C189 1.363 . S
C195 C190 1.379 . S
C195 N193 1.356 . S
N196 C188 1.356 . S
N196 H202 0.984 . S
N196 H203 0.984 . S
N197 C190 1.356 . S
N197 H200 0.984 . S
N197 H201 0.985 . S
H198 N193 0.984 . S
H199 N193 0.985 . S
H200 N197 0.984 . S
H201 N197 0.985 . S
H202 N196 0.984 . S
H203 N196 0.984 . S
H204 N192 0.975 1_665 S
H205 N192 0.985 . S
C206 C207 1.363 . S
C206 C212 1.379 . S
C206 N214 1.356 . S
C207 C206 1.363 . S
C207 C213 1.363 . S
C208 C209 1.363 . S
C208 C213 1.379 . S
C208 N215 1.356 . S
C209 C208 1.363 . S
C209 C212 1.363 . S
N210 C212 1.356 . S
N210 H222 0.984 . S
N210 H223 0.985 . S
N211 C213 1.356 . S
N211 H216 0.984 . S
N211 H217 0.985 . S
C212 C206 1.379 . S
C212 C209 1.363 . S
C212 N210 1.356 . S
C213 C207 1.363 . S
C213 C208 1.379 . S
C213 N211 1.356 . S
N214 C206 1.356 . S
N214 H220 0.984 . S
N214 H221 0.984 . S
N215 C208 1.356 . S
N215 H218 0.984 . S
N215 H219 0.985 . S
H216 N211 0.984 . S
H217 N211 0.985 . S
H218 N215 0.984 . S
H219 N215 0.985 . S
H220 N214 0.984 . S
H221 N214 0.984 . S
H222 N210 0.984 . S
H223 N210 0.985 . S
C224 C225 1.363 . S
C224 C230 1.379 . S
C224 N232 1.356 . S
C225 C224 1.363 . S
C225 C231 1.363 . S
C226 C227 1.363 . S
C226 C231 1.379 . S
C226 N233 1.356 . S
C227 C226 1.363 . S
C227 C230 1.363 . S
N228 C230 1.356 . S
N228 H240 0.984 . S
N228 H241 0.985 . S
N229 C231 1.356 . S
N229 H234 0.984 . S
N229 H235 0.985 . S
C230 C224 1.379 . S
C230 C227 1.363 . S
C230 N228 1.356 . S
C231 C225 1.363 . S
C231 C226 1.379 . S
C231 N229 1.356 . S
N232 C224 1.356 . S
N232 H238 0.984 . S
N232 H239 0.984 . S
N233 C226 1.356 . S
N233 H236 0.984 . S
N233 H237 0.985 . S
H234 N229 0.984 . S
H235 N229 0.985 . S
H236 N233 0.984 . S
H237 N233 0.985 . S
H238 N232 0.984 . S
H239 N232 0.984 . S
H240 N228 0.984 . S
H241 N228 0.985 . S
C242 C243 1.363 . S
C242 C248 1.379 . S
C242 N250 1.356 . S
C243 C242 1.363 . S
C243 C249 1.363 . S
C244 C245 1.363 . S
C244 C249 1.379 . S
C244 N251 1.356 1_655 S
C245 C244 1.363 . S
C245 C248 1.363 . S
N246 C248 1.356 . S
N246 H258 0.984 . S
N246 H259 0.985 . S
N247 C249 1.356 . S
N247 H252 0.984 . S
N247 H253 0.985 . S
C248 C242 1.379 . S
C248 C245 1.363 . S
C248 N246 1.356 . S
C249 C243 1.363 . S
C249 C244 1.379 . S
C249 N247 1.356 . S
N250 C242 1.356 . S
N250 H256 0.984 . S
N250 H257 0.984 . S
N251 C244 1.356 1_455 S
N251 H254 0.984 . S
N251 H255 0.985 . S
H252 N247 0.984 . S
H253 N247 0.985 . S
H254 N251 0.984 . S
H255 N251 0.985 . S
H256 N250 0.984 . S
H257 N250 0.984 . S
H258 N246 0.984 . S
H259 N246 0.985 . S
C260 C261 1.363 . S
C260 C266 1.379 . S
C260 N268 1.356 . S
C261 C260 1.363 . S
C261 C267 1.363 . S
C262 C263 1.363 . S
C262 C267 1.379 . S
C262 N269 1.356 . S
C263 C262 1.363 . S
C263 C266 1.363 . S
N264 C266 1.356 . S
N264 H276 0.984 . S
N264 H277 0.985 . S
N265 C267 1.356 . S
N265 H270 0.984 . S
N265 H271 0.985 . S
C266 C260 1.379 . S
C266 C263 1.363 . S
C266 N264 1.356 . S
C267 C261 1.363 . S
C267 C262 1.379 . S
C267 N265 1.356 . S
N268 C260 1.356 . S
N268 H274 0.984 . S
N268 H275 0.984 . S
N269 C262 1.356 . S
N269 H272 0.984 1_554 S
N269 H273 0.985 1_554 S
H270 N265 0.984 . S
H271 N265 0.985 . S
H272 N269 0.984 1_556 S
H273 N269 0.985 1_556 S
H274 N268 0.984 . S
H275 N268 0.984 . S
H276 N264 0.984 . S
H277 N264 0.985 . S
C278 C279 1.363 . S
C278 C284 1.379 . S
C278 N286 1.356 . S
C279 C278 1.363 . S
C279 C285 1.363 . S
C280 C281 1.363 . S
C280 C285 1.379 . S
C280 N287 1.356 1_565 S
C281 C280 1.363 . S
C281 C284 1.363 . S
N282 C284 1.356 . S
N282 H294 0.984 . S
N282 H295 0.985 . S
N283 C285 1.356 . S
N283 H288 0.984 . S
N283 H289 0.985 1_565 S
C284 C278 1.379 . S
C284 C281 1.363 . S
C284 N282 1.356 . S
C285 C279 1.363 . S
C285 C280 1.379 . S
C285 N283 1.356 . S
N286 C278 1.356 . S
N286 H292 0.984 . S
N286 H293 0.984 . S
N287 C280 1.356 1_545 S
N287 H290 0.983 . S
N287 H291 0.985 . S
H288 N283 0.984 . S
H289 N283 0.985 1_545 S
H290 N287 0.983 . S
H291 N287 0.985 . S
H292 N286 0.984 . S
H293 N286 0.984 . S
H294 N282 0.984 . S
H295 N282 0.985 . S
C296 C297 1.363 . S
C296 C302 1.379 . S
C296 N304 1.356 . S
C297 C296 1.363 . S
C297 C303 1.363 . S
C298 C299 1.363 . S
C298 C303 1.379 . S
C298 N305 1.356 1_556 S
C299 C298 1.363 . S
C299 C302 1.363 . S
N300 C302 1.356 . S
N300 H312 0.984 . S
N300 H313 0.985 . S
N301 C303 1.356 1_554 S
N301 H306 0.984 1_554 S
N301 H307 0.985 . S
C302 C296 1.379 . S
C302 C299 1.363 . S
C302 N300 1.356 . S
C303 C297 1.363 . S
C303 C298 1.379 . S
C303 N301 1.356 1_556 S
N304 C296 1.356 . S
N304 H310 0.984 . S
N304 H311 0.984 . S
N305 C298 1.356 1_554 S
N305 H308 0.984 . S
N305 H309 0.985 . S
H306 N301 0.984 1_556 S
H307 N301 0.985 . S
H308 N305 0.984 . S
H309 N305 0.985 . S
H310 N304 0.984 . S
H311 N304 0.984 . S
H312 N300 0.984 . S
H313 N300 0.985 . S
C314 C315 1.363 . S
C314 C320 1.379 . S
C314 N322 1.356 . S
C315 C314 1.363 . S
C315 C321 1.363 . S
C316 C317 1.363 . S
C316 C321 1.379 . S
C316 N323 1.356 . S
C317 C316 1.363 . S
C317 C320 1.363 . S
N318 C320 1.356 . S
N318 H330 0.984 . S
N318 H331 0.985 . S
N319 C321 1.356 . S
N319 H324 0.984 . S
N319 H325 0.985 . S
C320 C314 1.379 . S
C320 C317 1.363 . S
C320 N318 1.356 . S
C321 C315 1.363 . S
C321 C316 1.379 . S
C321 N319 1.356 . S
N322 C314 1.356 . S
N322 H328 0.984 . S
N322 H329 0.984 . S
N323 C316 1.356 . S
N323 H326 0.984 . S
N323 H327 0.985 . S
H324 N319 0.984 . S
H325 N319 0.985 . S
H326 N323 0.984 . S
H327 N323 0.985 . S
H328 N322 0.984 . S
H329 N322 0.984 . S
H330 N318 0.984 . S
H331 N318 0.985 . S
C332 C333 1.363 . S
C332 C338 1.379 . S
C332 N340 1.356 . S
C333 C332 1.363 . S
C333 C339 1.363 . S
C334 C335 1.363 . S
C334 C339 1.379 . S
C334 N341 1.356 1_455 S
C335 C334 1.363 . S
C335 C338 1.363 . S
N336 C338 1.356 . S
N336 H348 0.984 1_554 S
N336 H349 0.985 . S
N337 C339 1.356 . S
N337 H342 0.984 . S
N337 H343 0.985 . S
C338 C332 1.379 . S
C338 C335 1.363 . S
C338 N336 1.356 . S
C339 C333 1.363 . S
C339 C334 1.379 . S
C339 N337 1.356 . S
N340 C332 1.356 . S
N340 H346 0.984 . S
N340 H347 0.984 . S
N341 C334 1.356 1_655 S
N341 H344 0.984 . S
N341 H345 0.985 . S
H342 N337 0.984 . S
H343 N337 0.985 . S
H344 N341 0.984 . S
H345 N341 0.985 . S
H346 N340 0.984 . S
H347 N340 0.984 . S
H348 N336 0.984 1_556 S
H349 N336 0.985 . S
C350 C351 1.363 . S
C350 C356 1.379 . S
C350 N358 1.356 1_556 S
C351 C350 1.363 . S
C351 C357 1.363 . S
C352 C353 1.363 . S
C352 C357 1.379 . S
C352 N359 1.356 . S
C353 C352 1.363 . S
C353 C356 1.363 . S
N354 C356 1.356 1_554 S
N354 H366 0.984 . S
N354 H367 0.985 . S
N355 C357 1.356 . S
N355 H360 0.984 . S
N355 H361 0.985 . S
C356 C350 1.379 . S
C356 C353 1.363 . S
C356 N354 1.356 1_556 S
C357 C351 1.363 . S
C357 C352 1.379 . S
C357 N355 1.356 . S
N358 C350 1.356 1_554 S
N358 H364 0.984 . S
N358 H365 0.984 1_554 S
N359 C352 1.356 . S
N359 H362 0.984 . S
N359 H363 0.985 . S
H360 N355 0.984 . S
H361 N355 0.985 . S
H362 N359 0.984 . S
H363 N359 0.985 . S
H364 N358 0.984 . S
H365 N358 0.984 1_556 S
H366 N354 0.984 . S
H367 N354 0.985 . S
C368 C369 1.363 . S
C368 C374 1.379 . S
C368 N376 1.356 . S
C369 C368 1.363 . S
C369 C375 1.363 . S
C370 C371 1.363 . S
C370 C375 1.379 . S
C370 N377 1.356 . S
C371 C370 1.363 . S
C371 C374 1.363 . S
N372 C374 1.356 . S
N372 H384 0.984 . S
N372 H385 0.985 . S
N373 C375 1.356 . S
N373 H378 0.984 . S
N373 H379 0.985 . S
C374 C368 1.379 . S
C374 C371 1.363 . S
C374 N372 1.356 . S
C375 C369 1.363 . S
C375 C370 1.379 . S
C375 N373 1.356 . S
N376 C368 1.356 . S
N376 H382 0.984 . S
N376 H383 0.984 . S
N377 C370 1.356 . S
N377 H380 0.984 1_655 S
N377 H381 0.985 1_655 S
H378 N373 0.984 . S
H379 N373 0.985 . S
H380 N377 0.984 1_455 S
H381 N377 0.985 1_455 S
H382 N376 0.984 . S
H383 N376 0.984 . S
H384 N372 0.984 . S
H385 N372 0.985 . S
C386 C387 1.363 . S
C386 C392 1.379 . S
C386 N394 1.356 . S
C387 C386 1.363 . S
C387 C393 1.363 . S
C388 C389 1.363 . S
C388 C393 1.379 . S
C388 N395 1.356 . S
C389 C388 1.363 . S
C389 C392 1.363 . S
N390 C392 1.356 . S
N390 H402 0.984 . S
N390 H403 0.985 . S
N391 C393 1.356 . S
N391 H396 0.984 . S
N391 H397 0.985 . S
C392 C386 1.379 . S
C392 C389 1.363 . S
C392 N390 1.356 . S
C393 C387 1.363 . S
C393 C388 1.379 . S
C393 N391 1.356 . S
N394 C386 1.356 . S
N394 H400 0.984 . S
N394 H401 0.984 . S
N395 C388 1.356 . S
N395 H398 0.984 . S
N395 H399 0.985 . S
H396 N391 0.984 . S
H397 N391 0.985 . S
H398 N395 0.984 . S
H399 N395 0.985 . S
H400 N394 0.984 . S
H401 N394 0.984 . S
H402 N390 0.984 . S
H403 N390 0.985 . S
C404 C405 1.363 1_545 S
C404 C410 1.379 . S
C404 N412 1.356 . S
C405 C404 1.363 1_565 S
C405 C411 1.363 . S
C406 C407 1.363 . S
C406 C411 1.379 . S
C406 N413 1.360 . S
C407 C406 1.363 . S
C407 C410 1.363 1_565 S
N408 C410 1.356 . S
N408 H420 0.984 . S
N408 H421 0.985 . S
N409 C411 1.356 . S
N409 H414 0.984 . S
N409 H415 0.985 1_655 S
C410 C404 1.379 . S
C410 C407 1.363 1_545 S
C410 N408 1.356 . S
C411 C405 1.363 . S
C411 C406 1.379 . S
C411 N409 1.356 . S
N412 C404 1.356 . S
N412 H418 0.984 . S
N412 H419 0.984 . S
N413 C406 1.360 . S
N413 H416 0.986 . S
N413 H417 0.980 1_655 S
H414 N409 0.984 . S
H415 N409 0.985 1_455 S
H416 N413 0.986 . S
H417 N413 0.980 1_455 S
H418 N412 0.984 . S
H419 N412 0.984 . S
H420 N408 0.984 . S
H421 N408 0.985 . S
C422 C423 1.363 . S
C422 C428 1.379 . S
C422 N430 1.356 . S
C423 C422 1.363 . S
C423 C429 1.363 . S
C424 C425 1.363 . S
C424 C429 1.379 . S
C424 N431 1.356 1_545 S
C425 C424 1.363 . S
C425 C428 1.363 . S
N426 C428 1.356 . S
N426 H438 0.984 . S
N426 H439 0.985 . S
N427 C429 1.356 1_565 S
N427 H432 0.984 1_565 S
N427 H433 0.985 . S
C428 C422 1.379 . S
C428 C425 1.363 . S
C428 N426 1.356 . S
C429 C423 1.363 . S
C429 C424 1.379 . S
C429 N427 1.356 1_545 S
N430 C422 1.356 . S
N430 H436 0.984 . S
N430 H437 0.984 . S
N431 C424 1.356 1_565 S
N431 H434 0.984 . S
N431 H435 0.985 . S
H432 N427 0.984 1_545 S
H433 N427 0.985 . S
H434 N431 0.984 . S
H435 N431 0.985 . S
H436 N430 0.984 . S
H437 N430 0.984 . S
H438 N426 0.984 . S
H439 N426 0.985 . S
C440 C441 1.363 . S
C440 C446 1.379 . S
C440 N448 1.356 . S
C441 C440 1.363 . S
C441 C447 1.363 . S
C442 C443 1.363 . S
C442 C447 1.379 . S
C442 N449 1.356 . S
C443 C442 1.363 . S
C443 C446 1.363 . S
N444 C446 1.356 . S
N444 H456 0.984 . S
N444 H457 0.985 . S
N445 C447 1.356 . S
N445 H450 0.984 . S
N445 H451 0.985 . S
C446 C440 1.379 . S
C446 C443 1.363 . S
C446 N444 1.356 . S
C447 C441 1.363 . S
C447 C442 1.379 . S
C447 N445 1.356 . S
N448 C440 1.356 . S
N448 H454 0.984 . S
N448 H455 0.984 . S
N449 C442 1.356 . S
N449 H452 0.984 . S
N449 H453 0.985 . S
H450 N445 0.984 . S
H451 N445 0.985 . S
H452 N449 0.984 . S
H453 N449 0.985 . S
H454 N448 0.984 . S
H455 N448 0.984 . S
H456 N444 0.984 . S
H457 N444 0.985 . S
C458 C459 1.363 . S
C458 C464 1.379 . S
C458 N466 1.356 . S
C459 C458 1.363 . S
C459 C465 1.363 . S
C460 C461 1.363 . S
C460 C465 1.379 . S
C460 N467 1.356 . S
C461 C460 1.363 . S
C461 C464 1.363 . S
N462 C464 1.356 . S
N462 H474 0.984 . S
N462 H475 0.985 . S
N463 C465 1.356 . S
N463 H468 0.984 . S
N463 H469 0.985 . S
C464 C458 1.379 . S
C464 C461 1.363 . S
C464 N462 1.356 . S
C465 C459 1.363 . S
C465 C460 1.379 . S
C465 N463 1.356 . S
N466 C458 1.356 . S
N466 H472 0.984 . S
N466 H473 0.984 . S
N467 C460 1.356 . S
N467 H470 0.984 . S
N467 H471 0.985 . S
H468 N463 0.984 . S
H469 N463 0.985 . S
H470 N467 0.984 . S
H471 N467 0.985 . S
H472 N466 0.984 . S
H473 N466 0.984 . S
H474 N462 0.984 . S
H475 N462 0.985 . S
C476 C477 1.363 . S
C476 C482 1.379 . S
C476 N484 1.356 . S
C477 C476 1.363 . S
C477 C483 1.363 1_565 S
C478 C479 1.363 . S
C478 C483 1.379 . S
C478 N485 1.356 1_556 S
C479 C478 1.363 . S
C479 C482 1.363 1_545 S
N480 C482 1.356 . S
N480 H492 0.984 . S
N480 H493 0.987 . S
N481 C483 1.356 1_554 S
N481 H486 0.984 1_554 S
N481 H487 0.985 . S
C482 C476 1.379 . S
C482 C479 1.363 1_565 S
C482 N480 1.356 . S
C483 C477 1.363 1_545 S
C483 C478 1.379 . S
C483 N481 1.356 1_556 S
N484 C476 1.356 . S
N484 H490 0.984 . S
N484 H491 0.984 . S
N485 C478 1.356 1_554 S
N485 H488 0.984 . S
N485 H489 0.985 . S
H486 N481 0.984 1_556 S
H487 N481 0.985 . S
H488 N485 0.984 . S
H489 N485 0.985 . S
H490 N484 0.984 . S
H491 N484 0.984 . S
H492 N480 0.984 . S
H493 N480 0.987 . S
C494 C495 1.363 . S
C494 C500 1.379 . S
C494 N502 1.356 . S
C495 C494 1.363 . S
C495 C501 1.363 1_545 S
C496 C497 1.363 1_565 S
C496 C501 1.379 . S
C496 N503 1.356 . S
C497 C496 1.363 1_545 S
C497 C500 1.363 . S
N498 C500 1.356 . S
N498 H510 0.984 . S
N498 H511 0.985 . S
N499 C501 1.356 . S
N499 H504 0.984 . S
N499 H505 0.985 . S
C500 C494 1.379 . S
C500 C497 1.363 . S
C500 N498 1.356 . S
C501 C495 1.363 1_565 S
C501 C496 1.379 . S
C501 N499 1.356 . S
N502 C494 1.356 . S
N502 H508 0.984 . S
N502 H509 0.984 . S
N503 C496 1.356 . S
N503 H506 0.984 . S
N503 H507 0.985 . S
H504 N499 0.984 . S
H505 N499 0.985 . S
H506 N503 0.984 . S
H507 N503 0.985 . S
H508 N502 0.984 . S
H509 N502 0.984 . S
H510 N498 0.984 . S
H511 N498 0.985 . S
C512 C513 1.363 . S
C512 C518 1.379 . S
C512 N520 1.356 . S
C513 C512 1.363 . S
C513 C519 1.363 . S
C514 C515 1.363 . S
C514 C519 1.379 . S
C514 N521 1.356 . S
C515 C514 1.363 . S
C515 C518 1.363 . S
N516 C518 1.356 1_556 S
N516 H528 0.984 . S
N516 H529 0.985 . S
N517 C519 1.356 . S
N517 H522 0.984 . S
N517 H523 0.985 . S
C518 C512 1.379 . S
C518 C515 1.363 . S
C518 N516 1.356 1_554 S
C519 C513 1.363 . S
C519 C514 1.379 . S
C519 N517 1.356 . S
N520 C512 1.356 . S
N520 H526 0.984 1_554 S
N520 H527 0.984 . S
N521 C514 1.356 . S
N521 H524 0.984 . S
N521 H525 0.985 . S
H522 N517 0.984 . S
H523 N517 0.985 . S
H524 N521 0.984 . S
H525 N521 0.985 . S
H526 N520 0.984 1_556 S
H527 N520 0.984 . S
H528 N516 0.984 . S
H529 N516 0.985 . S
C530 C531 1.363 . S
C530 C536 1.379 . S
C530 N538 1.356 . S
C531 C530 1.363 . S
C531 C537 1.363 . S
C532 C533 1.363 . S
C532 C537 1.379 . S
C532 N539 1.356 . S
C533 C532 1.363 . S
C533 C536 1.363 . S
N534 C536 1.356 . S
N534 H546 0.984 . S
N534 H547 0.985 . S
N535 C537 1.356 . S
N535 H540 0.984 . S
N535 H541 0.985 . S
C536 C530 1.379 . S
C536 C533 1.363 . S
C536 N534 1.356 . S
C537 C531 1.363 . S
C537 C532 1.379 . S
C537 N535 1.356 . S
N538 C530 1.356 . S
N538 H544 0.984 . S
N538 H545 0.984 . S
N539 C532 1.356 . S
N539 H542 0.984 . S
N539 H543 0.985 . S
H540 N535 0.984 . S
H541 N535 0.985 . S
H542 N539 0.984 . S
H543 N539 0.985 . S
H544 N538 0.984 . S
H545 N538 0.984 . S
H546 N534 0.984 . S
H547 N534 0.985 . S
C548 C549 1.363 . S
C548 C554 1.379 . S
C548 N556 1.356 . S
C549 C548 1.363 . S
C549 C555 1.363 1_655 S
C550 C551 1.363 1_455 S
C550 C555 1.379 . S
C550 N557 1.356 . S
C551 C550 1.363 1_655 S
C551 C554 1.363 . S
N552 C554 1.356 . S
N552 H564 0.984 . S
N552 H565 0.985 . S
N553 C555 1.356 . S
N553 H558 0.984 . S
N553 H559 0.985 . S
C554 C548 1.379 . S
C554 C551 1.363 . S
C554 N552 1.356 . S
C555 C549 1.363 1_455 S
C555 C550 1.379 . S
C555 N553 1.356 . S
N556 C548 1.356 . S
N556 H562 0.984 . S
N556 H563 0.984 . S
N557 C550 1.356 . S
N557 H560 0.984 . S
N557 H561 0.985 . S
H558 N553 0.984 . S
H559 N553 0.985 . S
H560 N557 0.984 . S
H561 N557 0.985 . S
H562 N556 0.984 . S
H563 N556 0.984 . S
H564 N552 0.984 . S
H565 N552 0.985 . S
C566 C567 1.363 . S
C566 C572 1.379 . S
C566 N574 1.356 . S
C567 C566 1.363 . S
C567 C573 1.363 . S
C568 C569 1.363 . S
C568 C573 1.379 . S
C568 N575 1.356 . S
C569 C568 1.363 . S
C569 C572 1.363 . S
N570 C572 1.359 . S
N570 H582 0.981 1_554 S
N570 H583 0.985 . S
N571 C573 1.356 . S
N571 H576 0.984 . S
N571 H577 0.985 . S
C572 C566 1.379 . S
C572 C569 1.363 . S
C572 N570 1.359 . S
C573 C567 1.363 . S
C573 C568 1.379 . S
C573 N571 1.356 . S
N574 C566 1.356 . S
N574 H580 0.984 1_554 S
N574 H581 0.984 . S
N575 C568 1.356 . S
N575 H578 0.984 . S
N575 H579 0.985 . S
H576 N571 0.984 . S
H577 N571 0.985 . S
H578 N575 0.984 . S
H579 N575 0.985 . S
H580 N574 0.984 1_556 S
H581 N574 0.984 . S
H582 N570 0.981 1_556 S
H583 N570 0.985 . S
C584 C585 1.363 . S
C584 C590 1.379 . S
C584 N592 1.356 . S
C585 C584 1.363 . S
C585 C591 1.363 . S
C586 C587 1.363 . S
C586 C591 1.379 . S
C586 N593 1.356 . S
C587 C586 1.363 . S
C587 C590 1.363 . S
N588 C590 1.356 . S
N588 H600 0.984 . S
N588 H601 0.985 . S
N589 C591 1.356 . S
N589 H594 0.984 . S
N589 H595 0.985 . S
C590 C584 1.379 . S
C590 C587 1.363 . S
C590 N588 1.356 . S
C591 C585 1.363 . S
C591 C586 1.379 . S
C591 N589 1.356 . S
N592 C584 1.356 . S
N592 H598 0.984 . S
N592 H599 0.984 . S
N593 C586 1.356 . S
N593 H596 0.984 . S
N593 H597 0.985 1_455 S
H594 N589 0.984 . S
H595 N589 0.985 . S
H596 N593 0.984 . S
H597 N593 0.985 1_655 S
H598 N592 0.984 . S
H599 N592 0.984 . S
H600 N588 0.984 . S
H601 N588 0.985 . S
C602 C603 1.363 . S
C602 C608 1.379 . S
C602 N610 1.356 . S
C603 C602 1.363 . S
C603 C609 1.363 . S
C604 C605 1.363 . S
C604 C609 1.379 . S
C604 N611 1.356 . S
C605 C604 1.363 . S
C605 C608 1.363 . S
N606 C608 1.356 . S
N606 H618 0.984 . S
N606 H619 0.985 . S
N607 C609 1.356 . S
N607 H612 0.984 . S
N607 H613 0.985 . S
C608 C602 1.379 . S
C608 C605 1.363 . S
C608 N606 1.356 . S
C609 C603 1.363 . S
C609 C604 1.379 . S
C609 N607 1.356 . S
N610 C602 1.356 . S
N610 H616 0.984 . S
N610 H617 0.984 . S
N611 C604 1.356 . S
N611 H614 0.984 . S
N611 H615 0.985 . S
H612 N607 0.984 . S
H613 N607 0.985 . S
H614 N611 0.984 . S
H615 N611 0.985 . S
H616 N610 0.984 . S
H617 N610 0.984 . S
H618 N606 0.984 . S
H619 N606 0.985 . S
C189 C6 1.732 . S
C191 C114 1.694 . S
C207 C18 1.804 . S
C209 C138 1.779 . S
C227 C158 1.461 . S
C225 C28 1.436 . S
C243 C40 1.095 . S
C245 C181 1.118 . S
C263 C140 1.839 . S
C261 C9 1.891 . S
C281 C116 1.569 . S
C279 C16 1.618 . S
C299 C184 1.571 . S
C297 C30 1.632 . S
C317 C161 1.339 . S
C315 C42 1.392 . S
C333 C4 1.485 . S
C335 C186 1.439 . S
C353 C135 1.634 . S
C351 C33 1.625 . S
C369 C45 1.412 . S
C371 C113 1.420 . S
C387 C21 1.668 . S
C389 C163 1.629 . S
C407 C117 1.823 . S
C405 C57 1.798 . S
C423 C66 1.788 . S
C425 C139 1.769 . S
C441 C76 1.705 . S
C443 C159 1.724 . S
C459 C88 1.263 . S
C461 C182 1.309 . S
C477 C54 1.736 . S
C479 C137 1.710 . S
C497 C115 1.564 . S
C495 C64 1.547 . S
C515 C185 1.426 . S
C513 C78 1.467 . S
C533 C162 1.314 . S
C531 C93 1.334 . S
C549 C52 1.634 . S
C551 C183 1.635 1_655 S
C569 C136 1.580 . S
C567 C81 1.540 . S
C587 C112 1.438 . S
C585 C90 1.418 . S
C603 C69 1.917 . S
C605 C160 1.882 . S
