# Generated by pormake.
# Topology pyr, (3,6)-cn, num edge types: 1
# Building blocks:
#     Node 0, Type 0, BuildingBlock: VETTIZ_charged_linker_0, # of connection points: 3
#     Node 1, Type 0, BuildingBlock: VETTIZ_charged_linker_0, # of connection points: 3
#     Node 2, Type 0, BuildingBlock: VETTIZ_charged_linker_0, # of connection points: 3
#     Node 3, Type 0, BuildingBlock: VETTIZ_charged_linker_0, # of connection points: 3
#     Node 4, Type 0, BuildingBlock: VETTIZ_charged_linker_0, # of connection points: 3
#     Node 5, Type 0, BuildingBlock: VETTIZ_charged_linker_0, # of connection points: 3
#     Node 6, Type 0, BuildingBlock: VETTIZ_charged_linker_0, # of connection points: 3
#     Node 7, Type 0, BuildingBlock: VETTIZ_charged_linker_0, # of connection points: 3
#     Node 8, Type 1, BuildingBlock: BETDEL_clean_sbu_0, # of connection points: 6
#     Node 9, Type 1, BuildingBlock: BETDEL_clean_sbu_0, # of connection points: 6
#     Node 10, Type 1, BuildingBlock: BETDEL_clean_sbu_0, # of connection points: 6
#     Node 11, Type 1, BuildingBlock: BETDEL_clean_sbu_0, # of connection points: 6
#     Edge 12, Type (0, 1), BuildingBlock: AJUNOK_clean_linker_0, # of connection points: 2
#     Edge 13, Type (0, 1), BuildingBlock: AJUNOK_clean_linker_0, # of connection points: 2
#     Edge 14, Type (0, 1), BuildingBlock: AJUNOK_clean_linker_0, # of connection points: 2
#     Edge 15, Type (0, 1), BuildingBlock: AJUNOK_clean_linker_0, # of connection points: 2
#     Edge 16, Type (0, 1), BuildingBlock: AJUNOK_clean_linker_0, # of connection points: 2
#     Edge 17, Type (0, 1), BuildingBlock: AJUNOK_clean_linker_0, # of connection points: 2
#     Edge 18, Type (0, 1), BuildingBlock: AJUNOK_clean_linker_0, # of connection points: 2
#     Edge 19, Type (0, 1), BuildingBlock: AJUNOK_clean_linker_0, # of connection points: 2
#     Edge 20, Type (0, 1), BuildingBlock: AJUNOK_clean_linker_0, # of connection points: 2
#     Edge 21, Type (0, 1), BuildingBlock: AJUNOK_clean_linker_0, # of connection points: 2
#     Edge 22, Type (0, 1), BuildingBlock: AJUNOK_clean_linker_0, # of connection points: 2
#     Edge 23, Type (0, 1), BuildingBlock: AJUNOK_clean_linker_0, # of connection points: 2
#     Edge 24, Type (0, 1), BuildingBlock: AJUNOK_clean_linker_0, # of connection points: 2
#     Edge 25, Type (0, 1), BuildingBlock: AJUNOK_clean_linker_0, # of connection points: 2
#     Edge 26, Type (0, 1), BuildingBlock: AJUNOK_clean_linker_0, # of connection points: 2
#     Edge 27, Type (0, 1), BuildingBlock: AJUNOK_clean_linker_0, # of connection points: 2
#     Edge 28, Type (0, 1), BuildingBlock: AJUNOK_clean_linker_0, # of connection points: 2
#     Edge 29, Type (0, 1), BuildingBlock: AJUNOK_clean_linker_0, # of connection points: 2
#     Edge 30, Type (0, 1), BuildingBlock: AJUNOK_clean_linker_0, # of connection points: 2
#     Edge 31, Type (0, 1), BuildingBlock: AJUNOK_clean_linker_0, # of connection points: 2
#     Edge 32, Type (0, 1), BuildingBlock: AJUNOK_clean_linker_0, # of connection points: 2
#     Edge 33, Type (0, 1), BuildingBlock: AJUNOK_clean_linker_0, # of connection points: 2
#     Edge 34, Type (0, 1), BuildingBlock: AJUNOK_clean_linker_0, # of connection points: 2
#     Edge 35, Type (0, 1), BuildingBlock: AJUNOK_clean_linker_0, # of connection points: 2
# Relax obj value: 0.033
# Max RMSD: 0.093
# Mean RMSD: 0.040
data_MOF--net-pyr--node1-BETDEL_clean_sbu_0--node2-VETTIZ_charged_linker_0--edge1-AJUNOK_clean_linker_0
_symmetry_space_group_name_H-M    P1
_symmetry_Int_Tables_number       1
_symmetry_cell_setting            triclinic
loop_
_symmetry_equiv_pos_as_xyz
'x, y, z'
_cell_length_a     35.0179
_cell_length_b     36.588406
_cell_length_c     33.908127
_cell_angle_alpha  91.514374
_cell_angle_beta   88.89514
_cell_angle_gamma 96.010791
loop_
_atom_site_label
_atom_site_type_symbol
_atom_site_fract_x
_atom_site_fract_y
_atom_site_fract_z
_atom_type_partial_charge
C0 C 0.17659 0.15847 0.2893 0.0
C1 C 0.13989 0.16616 0.30214 0.0
C2 C 0.12296 0.19516 0.28532 0.0
C3 C 0.17565 0.20312 0.23817 0.0
C4 C 0.19387 0.17711 0.2572 0.0
C5 C 0.23039 0.16877 0.23648 0.0
H6 H 0.332 0.16679 0.06722 0.0
C7 C 0.19728 0.21191 0.20146 0.0
C8 C 0.2296 0.19235 0.20042 0.0
H9 H 0.35587 0.1191 0.17821 0.0
H10 H 0.30577 0.1501 0.21037 0.0
H11 H 0.31771 0.24874 0.10665 0.0
H12 H 0.24277 0.15254 0.07259 0.0
H13 H 0.22182 0.19126 0.05733 0.0
H14 H 0.26792 0.18216 0.03714 0.0
H15 H 0.30852 0.23613 0.05594 0.0
H16 H 0.27748 0.26373 0.08422 0.0
C17 C 0.26463 0.18181 0.26355 0.0
C18 C 0.22675 0.12712 0.22552 0.0
C19 C 0.13735 0.28509 0.09973 0.0
C20 C 0.14691 0.29374 0.06053 0.0
C21 C 0.17952 0.28047 0.04258 0.0
C22 C 0.2027 0.2593 0.06396 0.0
C23 C 0.19284 0.25125 0.10344 0.0
C24 C 0.16047 0.26395 0.12046 0.0
C25 C 0.15356 0.25232 0.16223 0.0
C26 C 0.18766 0.23096 0.1679 0.0
C27 C 0.21061 0.23049 0.13355 0.0
C28 C 0.15577 0.28725 0.18929 0.0
C29 C 0.11453 0.22777 0.16445 0.0
C30 C 0.32634 0.16321 0.09848 0.0
C31 C 0.34692 0.13994 0.12022 0.0
C32 C 0.33992 0.13669 0.16101 0.0
C33 C 0.31074 0.15442 0.17949 0.0
C34 C 0.28817 0.17504 0.15673 0.0
C35 C 0.29711 0.18052 0.11735 0.0
C36 C 0.27064 0.20436 0.09833 0.0
C37 C 0.24372 0.21131 0.13264 0.0
C38 C 0.25374 0.19338 0.1664 0.0
C39 C 0.29461 0.2401 0.08524 0.0
C40 C 0.24972 0.18175 0.06435 0.0
H41 H 0.12589 0.23462 0.24056 0.0
H42 H 0.1903 0.13645 0.30202 0.0
H43 H 0.19808 0.11826 0.21287 0.0
H44 H 0.24781 0.11954 0.20307 0.0
H45 H 0.23003 0.11048 0.25194 0.0
H46 H 0.257 0.20278 0.28589 0.0
H47 H 0.27426 0.15855 0.27981 0.0
H48 H 0.28935 0.19555 0.24683 0.0
H49 H 0.11274 0.29536 0.11448 0.0
H50 H 0.18721 0.28673 0.01223 0.0
H51 H 0.22733 0.25007 0.04897 0.0
H52 H 0.17954 0.30778 0.1795 0.0
H53 H 0.12865 0.30048 0.18859 0.0
H54 H 0.16207 0.28164 0.22023 0.0
H55 H 0.10466 0.21738 0.13482 0.0
H56 H 0.11626 0.20259 0.18142 0.0
H57 H 0.09149 0.24314 0.17758 0.0
H58 H 0.0952 0.20228 0.29579 0.0
C59 C 0.14078 0.21381 0.25334 0.0
C60 C 0.16979 0.84993 0.58546 0.0
C61 C 0.15476 0.88341 0.59534 0.0
C62 C 0.16922 0.90405 0.62847 0.0
C63 C 0.21396 0.85967 0.63988 0.0
C64 C 0.19969 0.83881 0.60788 0.0
C65 C 0.22146 0.80571 0.60007 0.0
H66 H 0.36577 0.70805 0.65678 0.0
C67 C 0.24573 0.84188 0.65616 0.0
C68 C 0.25041 0.80998 0.63324 0.0
H69 H 0.29605 0.68666 0.55338 0.0
H70 H 0.25923 0.73739 0.57252 0.0
H71 H 0.38212 0.78835 0.64233 0.0
H72 H 0.30035 0.72807 0.71792 0.0
H73 H 0.31745 0.76755 0.74535 0.0
H74 H 0.35065 0.73584 0.72815 0.0
H75 H 0.39499 0.77316 0.68962 0.0
H76 H 0.37817 0.81762 0.68348 0.0
C77 C 0.24121 0.80956 0.55897 0.0
C78 C 0.19325 0.7706 0.60407 0.0
C79 C 0.32011 0.90291 0.77175 0.0
C80 C 0.35201 0.89312 0.79177 0.0
C81 C 0.36702 0.85983 0.78241 0.0
C82 C 0.35086 0.83651 0.75268 0.0
C83 C 0.31963 0.84689 0.73182 0.0
C84 C 0.30449 0.87937 0.74164 0.0
C85 C 0.27171 0.88588 0.71564 0.0
C86 C 0.27006 0.85205 0.68843 0.0
C87 C 0.29824 0.82965 0.69811 0.0
C88 C 0.28326 0.9218 0.69303 0.0
C89 C 0.23503 0.88637 0.74197 0.0
C90 C 0.34254 0.71408 0.63814 0.0
C91 C 0.33393 0.69343 0.60359 0.0
C92 C 0.30309 0.70204 0.58045 0.0
C93 C 0.2821 0.73174 0.59133 0.0
C94 C 0.29256 0.75323 0.62527 0.0
C95 C 0.32234 0.74388 0.64787 0.0
C96 C 0.33213 0.77048 0.68113 0.0
C97 C 0.303 0.7974 0.67555 0.0
C98 C 0.2795 0.78743 0.64303 0.0
C99 C 0.37401 0.78829 0.67423 0.0
C100 C 0.32515 0.74963 0.72032 0.0
H101 H 0.20822 0.90963 0.6753 0.0
H102 H 0.15902 0.83303 0.56059 0.0
H103 H 0.17509 0.77245 0.63119 0.0
H104 H 0.208 0.74562 0.60677 0.0
H105 H 0.1739 0.7668 0.57837 0.0
H106 H 0.25252 0.83865 0.55386 0.0
H107 H 0.22066 0.80073 0.53516 0.0
H108 H 0.26635 0.79386 0.55576 0.0
H109 H 0.30836 0.9286 0.77865 0.0
H110 H 0.3916 0.85208 0.79795 0.0
H111 H 0.36381 0.81163 0.74682 0.0
H112 H 0.31454 0.92487 0.68573 0.0
H113 H 0.27699 0.94636 0.711 0.0
H114 H 0.26916 0.92234 0.66424 0.0
H115 H 0.23599 0.86809 0.76758 0.0
H116 H 0.20858 0.87566 0.7264 0.0
H117 H 0.23184 0.91448 0.75385 0.0
H118 H 0.15884 0.93015 0.6365 0.0
C119 C 0.19837 0.89227 0.65084 0.0
C120 C 0.61471 0.22481 0.90728 0.0
C121 C 0.57944 0.20559 0.89628 0.0
C122 C 0.55899 0.21986 0.86559 0.0
C123 C 0.60786 0.272 0.85882 0.0
C124 C 0.62814 0.25772 0.88849 0.0
C125 C 0.66448 0.28178 0.89786 0.0
H126 H 0.78642 0.43476 0.86572 0.0
C127 C 0.62965 0.30715 0.84598 0.0
C128 C 0.6629 0.31276 0.8691 0.0
H129 H 0.79588 0.35068 0.95117 0.0
H130 H 0.73696 0.31767 0.92819 0.0
H131 H 0.69606 0.43997 0.88031 0.0
H132 H 0.75868 0.38026 0.79443 0.0
H133 H 0.72049 0.39633 0.76957 0.0
H134 H 0.7564 0.42891 0.79205 0.0
H135 H 0.72279 0.46196 0.84025 0.0
H136 H 0.67345 0.44293 0.83491 0.0
C137 C 0.66167 0.29555 0.94136 0.0
C138 C 0.69884 0.25929 0.88862 0.0
C139 C 0.58151 0.38376 0.73511 0.0
C140 C 0.59742 0.41643 0.71699 0.0
C141 C 0.63217 0.43418 0.73145 0.0
C142 C 0.65115 0.41978 0.76264 0.0
C143 C 0.63558 0.38689 0.77997 0.0
C144 C 0.60121 0.36937 0.76639 0.0
C145 C 0.5898 0.33416 0.78832 0.0
C146 C 0.62293 0.33355 0.81699 0.0
C147 C 0.6496 0.36475 0.81182 0.0
C148 C 0.55127 0.33797 0.81022 0.0
C149 C 0.58825 0.30159 0.75823 0.0
C150 C 0.77559 0.40948 0.87982 0.0
C151 C 0.79594 0.3956 0.91067 0.0
C152 C 0.78107 0.36201 0.92729 0.0
C153 C 0.74662 0.34292 0.91401 0.0
C154 C 0.72639 0.35736 0.88358 0.0
C155 C 0.74101 0.3901 0.86699 0.0
C156 C 0.71557 0.40133 0.83503 0.0
C157 C 0.68316 0.37011 0.83534 0.0
C158 C 0.68972 0.34435 0.86378 0.0
C159 C 0.70127 0.4386 0.84785 0.0
C160 C 0.7388 0.4021 0.79562 0.0
H161 H 0.55582 0.26205 0.82403 0.0
H162 H 0.63117 0.21491 0.93075 0.0
H163 H 0.69328 0.24125 0.86197 0.0
H164 H 0.72566 0.2767 0.88157 0.0
H165 H 0.704 0.24141 0.91353 0.0
H166 H 0.63154 0.2998 0.94974 0.0
H167 H 0.67141 0.27538 0.96187 0.0
H168 H 0.6781 0.32259 0.94681 0.0
H169 H 0.55503 0.36925 0.72443 0.0
H170 H 0.64499 0.45925 0.71813 0.0
H171 H 0.6776 0.43475 0.77177 0.0
H172 H 0.55138 0.36577 0.82436 0.0
H173 H 0.52692 0.33416 0.78947 0.0
H174 H 0.54567 0.31842 0.83436 0.0
H175 H 0.61299 0.30513 0.7371 0.0
H176 H 0.59033 0.27501 0.77219 0.0
H177 H 0.56146 0.29967 0.74093 0.0
H178 H 0.53212 0.20541 0.85583 0.0
C179 C 0.5729 0.25276 0.84695 0.0
C180 C 0.91416 0.78184 0.36119 0.0
C181 C 0.90316 0.8014 0.3955 0.0
C182 C 0.87253 0.785 0.41886 0.0
C183 C 0.86341 0.73233 0.37363 0.0
C184 C 0.89419 0.74729 0.35115 0.0
C185 C 0.90265 0.72192 0.31677 0.0
H186 H 0.85933 0.5603 0.21381 0.0
C187 C 0.84797 0.69675 0.35495 0.0
C188 C 0.87103 0.69014 0.32168 0.0
H189 H 0.95441 0.64332 0.19375 0.0
H190 H 0.93153 0.68081 0.2471 0.0
H191 H 0.86163 0.5633 0.3113 0.0
H192 H 0.79499 0.61976 0.2307 0.0
H193 H 0.76553 0.60313 0.27032 0.0
H194 H 0.78639 0.571 0.23723 0.0
H195 H 0.82657 0.53918 0.27938 0.0
H196 H 0.81266 0.55905 0.32584 0.0
C197 C 0.94311 0.7096 0.32248 0.0
C198 C 0.8984 0.74246 0.27808 0.0
C199 C 0.72625 0.62923 0.41323 0.0
C200 C 0.7017 0.59789 0.4018 0.0
C201 C 0.71289 0.57697 0.36866 0.0
C202 C 0.74691 0.58774 0.34687 0.0
C203 C 0.77033 0.61994 0.35807 0.0
C204 C 0.7596 0.63993 0.3909 0.0
C205 C 0.7867 0.67395 0.39832 0.0
C206 C 0.81548 0.67157 0.36448 0.0
C207 C 0.80628 0.63969 0.34093 0.0
C208 C 0.80551 0.67052 0.43894 0.0
C209 C 0.7636 0.70766 0.39508 0.0
C210 C 0.8755 0.58636 0.22115 0.0
C211 C 0.90927 0.59839 0.1995 0.0
C212 C 0.92845 0.63318 0.20958 0.0
C213 C 0.91528 0.65485 0.24095 0.0
C214 C 0.88231 0.64196 0.26296 0.0
C215 C 0.86268 0.60838 0.2526 0.0
C216 C 0.82769 0.59946 0.27889 0.0
C217 C 0.8304 0.63237 0.30765 0.0
C218 C 0.86253 0.65741 0.29804 0.0
C219 C 0.83202 0.56322 0.29996 0.0
C220 C 0.79157 0.59795 0.25314 0.0
H221 H 0.82962 0.74069 0.42734 0.0
H222 H 0.93731 0.79326 0.34218 0.0
H223 H 0.8727 0.75796 0.27983 0.0
H224 H 0.89399 0.72376 0.25214 0.0
H225 H 0.92391 0.76247 0.27245 0.0
H226 H 0.94863 0.70604 0.35429 0.0
H227 H 0.96583 0.7303 0.31106 0.0
H228 H 0.94661 0.68258 0.30841 0.0
H229 H 0.71962 0.64549 0.43912 0.0
H230 H 0.69487 0.55263 0.35903 0.0
H231 H 0.75353 0.57077 0.32186 0.0
H232 H 0.80812 0.64127 0.4456 0.0
H233 H 0.78825 0.68201 0.46317 0.0
H234 H 0.83529 0.68395 0.43998 0.0
H235 H 0.74208 0.70306 0.37125 0.0
H236 H 0.78156 0.73303 0.38698 0.0
H237 H 0.74782 0.71287 0.42305 0.0
H238 H 0.8638 0.79843 0.44591 0.0
C239 C 0.85271 0.75104 0.40815 0.0
C240 C 0.84254 0.72654 0.92701 0.0
C241 C 0.87675 0.71318 0.91351 0.0
C242 C 0.88959 0.71947 0.87445 0.0
C243 C 0.83691 0.75539 0.86418 0.0
C244 C 0.82302 0.74752 0.90174 0.0
C245 C 0.78662 0.76476 0.91104 0.0
H246 H 0.6623 0.88368 0.85875 0.0
C247 C 0.81171 0.77966 0.84625 0.0
C248 C 0.78162 0.78473 0.87305 0.0
H249 H 0.66437 0.82628 0.96801 0.0
H250 H 0.71553 0.79217 0.942 0.0
H251 H 0.68077 0.81326 0.79617 0.0
H252 H 0.74262 0.90535 0.85524 0.0
H253 H 0.77082 0.89792 0.81329 0.0
H254 H 0.7225 0.90977 0.80767 0.0
H255 H 0.67777 0.86055 0.78489 0.0
H256 H 0.71375 0.83481 0.76191 0.0
C257 C 0.75385 0.73363 0.91786 0.0
C258 C 0.79424 0.79169 0.94674 0.0
C259 C 0.85778 0.8472 0.72353 0.0
C260 C 0.84455 0.87708 0.70486 0.0
C261 C 0.80769 0.88713 0.71435 0.0
C262 C 0.78544 0.86926 0.74416 0.0
C263 C 0.80061 0.84164 0.7651 0.0
C264 C 0.83573 0.83036 0.75397 0.0
C265 C 0.84826 0.80204 0.78074 0.0
C266 C 0.8154 0.79924 0.8107 0.0
C267 C 0.7877 0.82242 0.80132 0.0
C268 C 0.85025 0.76569 0.75653 0.0
C269 C 0.88686 0.81807 0.79926 0.0
C270 C 0.67308 0.86285 0.87641 0.0
C271 C 0.65948 0.85693 0.91494 0.0
C272 C 0.67463 0.8307 0.93799 0.0
C273 C 0.70441 0.81133 0.92296 0.0
C274 C 0.71957 0.81924 0.88505 0.0
C275 C 0.70341 0.84419 0.86227 0.0
C276 C 0.72512 0.8519 0.82438 0.0
C277 C 0.7566 0.82685 0.82766 0.0
C278 C 0.75338 0.80791 0.86325 0.0
C279 C 0.69807 0.83979 0.7898 0.0
C280 C 0.74098 0.89328 0.82477 0.0
H281 H 0.88111 0.74445 0.82039 0.0
H282 H 0.83163 0.72123 0.95665 0.0
H283 H 0.8238 0.80611 0.94502 0.0
H284 H 0.7752 0.81388 0.94796 0.0
H285 H 0.79141 0.77686 0.97498 0.0
H286 H 0.75731 0.70962 0.89777 0.0
H287 H 0.7537 0.72393 0.94864 0.0
H288 H 0.72524 0.74187 0.91127 0.0
H289 H 0.88554 0.83821 0.71585 0.0
H290 H 0.79678 0.90988 0.69993 0.0
H291 H 0.75806 0.87876 0.75086 0.0
H292 H 0.83141 0.76424 0.73035 0.0
H293 H 0.87993 0.76285 0.74564 0.0
H294 H 0.83972 0.74119 0.77369 0.0
H295 H 0.88598 0.84753 0.80788 0.0
H296 H 0.89374 0.80464 0.82651 0.0
H297 H 0.91112 0.81633 0.77794 0.0
H298 H 0.91499 0.70802 0.86299 0.0
C299 C 0.86973 0.74033 0.84967 0.0
C300 C 0.85002 0.17084 0.4172 0.0
C301 C 0.87066 0.1432 0.39974 0.0
C302 C 0.86497 0.13383 0.35949 0.0
C303 C 0.81264 0.17148 0.35797 0.0
C304 C 0.82178 0.18536 0.39522 0.0
C305 C 0.79759 0.21584 0.40736 0.0
H306 H 0.63478 0.29574 0.37572 0.0
C307 C 0.77764 0.1864 0.34566 0.0
C308 C 0.76901 0.21331 0.37384 0.0
H309 H 0.72727 0.33778 0.45232 0.0
H310 H 0.76211 0.2852 0.43385 0.0
H311 H 0.63681 0.21009 0.39178 0.0
H312 H 0.68591 0.28517 0.30527 0.0
H313 H 0.6739 0.24385 0.27904 0.0
H314 H 0.63661 0.26613 0.30444 0.0
H315 H 0.60971 0.22453 0.35176 0.0
H316 H 0.6357 0.18445 0.34732 0.0
C317 C 0.77752 0.20716 0.44747 0.0
C318 C 0.82359 0.25285 0.40772 0.0
C319 C 0.69829 0.11994 0.23626 0.0
C320 C 0.66098 0.12329 0.2235 0.0
C321 C 0.63939 0.14958 0.24151 0.0
C322 C 0.65483 0.17265 0.27177 0.0
C323 C 0.69224 0.16931 0.2843 0.0
C324 C 0.71323 0.14306 0.26703 0.0
C325 C 0.75183 0.14263 0.28568 0.0
C326 C 0.75061 0.17363 0.31645 0.0
C327 C 0.71568 0.18886 0.31522 0.0
C328 C 0.75248 0.10464 0.30458 0.0
C329 C 0.78367 0.15132 0.25385 0.0
C330 C 0.66283 0.29424 0.38816 0.0
C331 C 0.67885 0.32152 0.41438 0.0
C332 C 0.71464 0.31735 0.43138 0.0
C333 C 0.73489 0.2872 0.42047 0.0
C334 C 0.71918 0.2614 0.39217 0.0
C335 C 0.68374 0.26543 0.37662 0.0
C336 C 0.67251 0.2379 0.34451 0.0
C337 C 0.70785 0.21757 0.34183 0.0
C338 C 0.73463 0.23038 0.37057 0.0
C339 C 0.63669 0.21297 0.35919 0.0
C340 C 0.66659 0.25903 0.30627 0.0
H341 H 0.83187 0.13836 0.30864 0.0
H342 H 0.85416 0.17959 0.44766 0.0
H343 H 0.85046 0.25104 0.39005 0.0
H344 H 0.80951 0.27505 0.39414 0.0
H345 H 0.83212 0.26165 0.43819 0.0
H346 H 0.76161 0.17921 0.4465 0.0
H347 H 0.79882 0.20819 0.47143 0.0
H348 H 0.75662 0.22682 0.45556 0.0
H349 H 0.71515 0.09954 0.22294 0.0
H350 H 0.61058 0.15251 0.23178 0.0
H351 H 0.63693 0.19222 0.28406 0.0
H352 H 0.72708 0.09874 0.32449 0.0
H353 H 0.75163 0.08247 0.28147 0.0
H354 H 0.77797 0.10245 0.32244 0.0
H355 H 0.77279 0.16499 0.22802 0.0
H356 H 0.80754 0.17091 0.26505 0.0
H357 H 0.79541 0.12589 0.24266 0.0
H358 H 0.88184 0.1143 0.34454 0.0
C359 C 0.83594 0.14764 0.33865 0.0
C360 C 0.43225 0.63354 0.28028 0.0
C361 C 0.41925 0.59902 0.29633 0.0
C362 C 0.38672 0.57886 0.27961 0.0
C363 C 0.37961 0.62766 0.23364 0.0
C364 C 0.41217 0.64719 0.24898 0.0
C365 C 0.4221 0.6831 0.22807 0.0
H366 H 0.37956 0.80074 0.08545 0.0
C367 C 0.3645 0.64986 0.20237 0.0
C368 C 0.38942 0.68252 0.19881 0.0
H369 H 0.47708 0.81284 0.16263 0.0
H370 H 0.45397 0.75605 0.19424 0.0
H371 H 0.31895 0.77851 0.15173 0.0
H372 H 0.37777 0.7126 0.06857 0.0
H373 H 0.32848 0.69662 0.06878 0.0
H374 H 0.34343 0.74316 0.05529 0.0
H375 H 0.30213 0.76997 0.10242 0.0
H376 H 0.28694 0.73929 0.14198 0.0
C377 C 0.42126 0.71501 0.25877 0.0
C378 C 0.46144 0.68157 0.20689 0.0
C379 C 0.2402 0.60254 0.13197 0.0
C380 C 0.21701 0.61846 0.10481 0.0
C381 C 0.22928 0.65434 0.09211 0.0
C382 C 0.26365 0.67354 0.10534 0.0
C383 C 0.28632 0.65726 0.13225 0.0
C384 C 0.27411 0.62262 0.14576 0.0
C385 C 0.30065 0.61088 0.17653 0.0
C386 C 0.3311 0.64385 0.1786 0.0
C387 C 0.32282 0.67067 0.15203 0.0
C388 C 0.27747 0.60591 0.21576 0.0
C389 C 0.31763 0.57579 0.16084 0.0
C390 C 0.39576 0.79161 0.10951 0.0
C391 C 0.43032 0.81181 0.12135 0.0
C392 C 0.45062 0.79793 0.1524 0.0
C393 C 0.43712 0.76485 0.17086 0.0
C394 C 0.40275 0.74489 0.15837 0.0
C395 C 0.38258 0.75867 0.12836 0.0
C396 C 0.34625 0.73443 0.11923 0.0
C397 C 0.34848 0.70324 0.14764 0.0
C398 C 0.38164 0.7093 0.17076 0.0
C399 C 0.31163 0.75653 0.129 0.0
C400 C 0.34873 0.721 0.07564 0.0
H401 H 0.34223 0.57614 0.23772 0.0
H402 H 0.45758 0.64952 0.29174 0.0
H403 H 0.46387 0.65368 0.1938 0.0
H404 H 0.46571 0.70035 0.18192 0.0
H405 H 0.48538 0.68791 0.22783 0.0
H406 H 0.39596 0.71005 0.279 0.0
H407 H 0.44749 0.71771 0.27697 0.0
H408 H 0.41845 0.74164 0.24519 0.0
H409 H 0.23259 0.57491 0.14211 0.0
H410 H 0.21209 0.66795 0.072 0.0
H411 H 0.27117 0.70049 0.09409 0.0
H412 H 0.25638 0.62656 0.21908 0.0
H413 H 0.2612 0.5782 0.21688 0.0
H414 H 0.29557 0.61038 0.24209 0.0
H415 H 0.32402 0.57751 0.12863 0.0
H416 H 0.34527 0.57183 0.17437 0.0
H417 H 0.29715 0.55093 0.16553 0.0
H418 H 0.37594 0.55238 0.29121 0.0
C419 C 0.36693 0.5929 0.24865 0.0
C420 C 0.09496 0.2312 0.64405 0.0
C421 C 0.10867 0.21056 0.6119 0.0
C422 C 0.14405 0.2233 0.594 0.0
C423 C 0.15045 0.27713 0.63777 0.0
C424 C 0.11628 0.26446 0.65636 0.0
C425 C 0.10586 0.29091 0.689 0.0
H426 H 0.14999 0.45009 0.79633 0.0
C427 C 0.16518 0.31293 0.65646 0.0
C428 C 0.13932 0.32128 0.68675 0.0
H429 H 0.04947 0.37142 0.80746 0.0
H430 H 0.07301 0.33443 0.75445 0.0
H431 H 0.14902 0.44902 0.69865 0.0
H432 H 0.2135 0.39018 0.77902 0.0
H433 H 0.2441 0.40956 0.74141 0.0
H434 H 0.22091 0.43932 0.7752 0.0
H435 H 0.1857 0.47219 0.72935 0.0
H436 H 0.19735 0.45099 0.68271 0.0
C437 C 0.06726 0.30512 0.67868 0.0
C438 C 0.10501 0.27058 0.72847 0.0
C439 C 0.28916 0.37968 0.60226 0.0
C440 C 0.31179 0.41255 0.61249 0.0
C441 C 0.29871 0.43442 0.64395 0.0
C442 C 0.26446 0.42332 0.66516 0.0
C443 C 0.24259 0.38996 0.65486 0.0
C444 C 0.25529 0.36893 0.62373 0.0
C445 C 0.22918 0.33421 0.61663 0.0
C446 C 0.19841 0.33765 0.64832 0.0
C447 C 0.20606 0.37039 0.67086 0.0
C448 C 0.21281 0.3355 0.57456 0.0
C449 C 0.25242 0.30113 0.62353 0.0
C450 C 0.13303 0.42488 0.78743 0.0
C451 C 0.09816 0.41343 0.80751 0.0
C452 C 0.07707 0.38048 0.79416 0.0
C453 C 0.0906 0.35909 0.7628 0.0
C454 C 0.12558 0.37061 0.74358 0.0
C455 C 0.14606 0.40324 0.75573 0.0
C456 C 0.18204 0.41174 0.73077 0.0
C457 C 0.18002 0.37875 0.70211 0.0
C458 C 0.14677 0.35451 0.70987 0.0
C459 C 0.17874 0.44801 0.70928 0.0
C460 C 0.21718 0.41305 0.75784 0.0
H461 H 0.19122 0.26419 0.59112 0.0
H462 H 0.06788 0.2222 0.65849 0.0
H463 H 0.12959 0.25371 0.7298 0.0
H464 H 0.10794 0.2894 0.75443 0.0
H465 H 0.07813 0.25183 0.73177 0.0
H466 H 0.06534 0.30874 0.64632 0.0
H467 H 0.04253 0.28549 0.68787 0.0
H468 H 0.06385 0.33249 0.69196 0.0
H469 H 0.29748 0.36252 0.57772 0.0
H470 H 0.31537 0.45989 0.6526 0.0
H471 H 0.2564 0.44103 0.68896 0.0
H472 H 0.20739 0.36399 0.56741 0.0
H473 H 0.23321 0.32611 0.55193 0.0
H474 H 0.18471 0.31909 0.57118 0.0
H475 H 0.27498 0.30815 0.64596 0.0
H476 H 0.23458 0.27715 0.63562 0.0
H477 H 0.26699 0.29257 0.59593 0.0
H478 H 0.15563 0.20777 0.56975 0.0
C479 C 0.16482 0.25619 0.60659 0.0
Dy480 Dy 0.02769 0.01756 0.46332 0.0
C481 C 0.94073 0.96383 0.59447 0.0
C482 C 0.06295 0.0575 0.40452 0.0
Dy483 Dy 0.98279 0.99796 0.53566 0.0
O484 O 0.08024 0.0446 0.43373 0.0
O485 O 0.02635 0.04715 0.40635 0.0
O486 O 0.05966 0.96838 0.46511 0.0
O487 O 0.04248 0.99314 0.51861 0.0
C488 C 0.05721 0.96581 0.50322 0.0
C489 C 0.955 0.04935 0.49345 0.0
O490 O 0.01972 0.04531 0.56346 0.0
O491 O 0.03952 0.06803 0.50285 0.0
O492 O 0.92692 0.97632 0.56302 0.0
O493 O 0.97793 0.97046 0.5944 0.0
O494 O 0.95388 0.04966 0.53168 0.0
O495 O 0.96821 0.02076 0.48001 0.0
O496 O 0.99246 0.96936 0.43586 0.0
O497 O 0.97001 0.94711 0.49632 0.0
C498 C 0.03696 0.072 0.54175 0.0
C499 C 0.97383 0.94337 0.45741 0.0
Dy500 Dy 0.5335 0.0166 0.03711 0.0
C501 C 0.43673 0.97087 0.9165 0.0
C502 C 0.57985 0.04588 0.09581 0.0
Dy503 Dy 0.48113 0.99848 0.97743 0.0
O504 O 0.54623 0.02821 0.10082 0.0
O505 O 0.58816 0.04815 0.05849 0.0
O506 O 0.5345 0.95792 0.05339 0.0
O507 O 0.48213 0.97515 0.03658 0.0
C508 C 0.49857 0.94776 0.04717 0.0
C509 C 0.51447 0.06807 0.96918 0.0
O510 O 0.44013 0.0206 0.01982 0.0
O511 O 0.48889 0.05421 0.05263 0.0
O512 O 0.42618 0.96969 0.95335 0.0
O513 O 0.47143 0.98655 0.91323 0.0
O514 O 0.47868 0.05728 0.96325 0.0
O515 O 0.53186 0.04075 0.97835 0.0
O516 O 0.57357 0.99124 0.9962 0.0
O517 O 0.52391 0.95838 0.96429 0.0
C518 C 0.45204 0.0469 0.04522 0.0
C519 C 0.56077 0.96421 0.9721 0.0
Dy520 Dy 0.52163 0.47265 0.48252 0.0
C521 C 0.43841 0.58462 0.56321 0.0
C522 C 0.57674 0.43145 0.45471 0.0
Dy523 Dy 0.49099 0.54175 0.53271 0.0
O524 O 0.57771 0.44976 0.48792 0.0
O525 O 0.54535 0.43567 0.43587 0.0
O526 O 0.47003 0.43134 0.49695 0.0
O527 O 0.47259 0.48493 0.51754 0.0
C528 C 0.45234 0.45442 0.51883 0.0
C529 C 0.56025 0.55931 0.49561 0.0
O530 O 0.51101 0.50818 0.5823 0.0
O531 O 0.54477 0.46801 0.54351 0.0
O532 O 0.47431 0.58709 0.57359 0.0
O533 O 0.43147 0.55846 0.53699 0.0
O534 O 0.5429 0.58262 0.51742 0.0
O535 O 0.5396 0.52913 0.49728 0.0
O536 O 0.50288 0.5072 0.43314 0.0
O537 O 0.47058 0.5493 0.47107 0.0
C538 C 0.53457 0.48178 0.5784 0.0
C539 C 0.48127 0.53523 0.43644 0.0
Dy540 Dy 0.01777 0.46841 0.0224 0.0
C541 C 0.96236 0.60782 0.98295 0.0
C542 C 0.05705 0.40875 0.02253 0.0
Dy543 Dy 0.99754 0.54582 0.98847 0.0
O544 O 0.0212 0.40869 0.03378 0.0
O545 O 0.07106 0.44127 0.01185 0.0
O546 O 0.99129 0.47516 0.08371 0.0
O547 O 0.9915 0.51613 0.04297 0.0
C548 C 0.98125 0.50799 0.07786 0.0
C549 C 0.03207 0.50452 0.93263 0.0
O550 O 0.05035 0.56416 0.02355 0.0
O551 O 0.06917 0.50699 0.04062 0.0
O552 O 0.99815 0.60511 0.97333 0.0
O553 O 0.94609 0.5767 0.99558 0.0
O554 O 0.02242 0.5373 0.92626 0.0
O555 O 0.02286 0.49776 0.968 0.0
O556 O 0.96491 0.45045 0.98707 0.0
O557 O 0.94435 0.50789 0.97494 0.0
C558 C 0.07474 0.54348 0.03955 0.0
C559 C 0.93904 0.47133 0.97405 0.0
C560 C 0.13612 0.12979 0.36327 0.0
C561 C 0.1181 0.141 0.32966 0.0
C562 C 0.11812 0.10225 0.38692 0.0
C563 C 0.0814 0.08516 0.37791 0.0
H564 H 0.16459 0.14204 0.371 0.0
H565 H 0.13309 0.09446 0.41256 0.0
S566 S 0.02197 0.10441 0.2932 0.0
N567 N 0.06168 0.13261 0.28819 0.0
N568 N 0.0273 0.08146 0.33367 0.0
C569 C 0.06268 0.0965 0.34489 0.0
C570 C 0.08115 0.12436 0.32053 0.0
C571 C 0.35496 0.92045 0.85952 0.0
C572 C 0.3712 0.91777 0.82157 0.0
C573 C 0.37604 0.93878 0.89011 0.0
C574 C 0.41374 0.95494 0.88335 0.0
H575 H 0.32657 0.90694 0.86591 0.0
H576 H 0.36315 0.93935 0.9194 0.0
S577 S 0.4673 0.95776 0.78775 0.0
N578 N 0.4256 0.93421 0.77791 0.0
N579 N 0.46531 0.96918 0.83513 0.0
C580 C 0.42943 0.95388 0.84491 0.0
C581 C 0.40807 0.93507 0.814 0.0
C582 C 0.54462 0.44631 0.68339 0.0
C583 C 0.58017 0.43137 0.68138 0.0
C584 C 0.5303 0.46345 0.65052 0.0
C585 C 0.55073 0.46585 0.61419 0.0
H586 H 0.52812 0.44535 0.71075 0.0
H587 H 0.50279 0.47438 0.65345 0.0
S588 S 0.64536 0.43083 0.59391 0.0
N589 N 0.63533 0.42025 0.64024 0.0
N590 N 0.60885 0.45169 0.57896 0.0
C591 C 0.58624 0.45072 0.61205 0.0
C592 C 0.60081 0.43374 0.64542 0.0
C593 C 0.9393 0.58935 0.13125 0.0
C594 C 0.92558 0.57456 0.16762 0.0
C595 C 0.95648 0.56779 0.10196 0.0
C596 C 0.96106 0.53052 0.10783 0.0
H597 H 0.93682 0.61794 0.12536 0.0
H598 H 0.96691 0.58063 0.07486 0.0
S599 S 0.93112 0.4785 0.19797 0.0
N600 N 0.91865 0.52012 0.20763 0.0
N601 N 0.95038 0.47992 0.15316 0.0
C602 C 0.94734 0.51541 0.14395 0.0
C603 C 0.92974 0.53724 0.17357 0.0
C604 C 0.41108 0.1167 0.11365 0.0
C605 C 0.37353 0.11683 0.10006 0.0
C606 C 0.43623 0.09383 0.09573 0.0
C607 C 0.42448 0.07004 0.06392 0.0
H608 H 0.42108 0.1345 0.1382 0.0
H609 H 0.46501 0.09473 0.1071 0.0
S610 S 0.32821 0.05961 0.01837 0.0
N611 N 0.32518 0.09098 0.05385 0.0
N612 N 0.37243 0.04797 0.01982 0.0
C613 C 0.38677 0.06982 0.05026 0.0
C614 C 0.36129 0.09329 0.06839 0.0
C615 C 0.09677 0.91746 0.58844 0.0
C616 C 0.12614 0.89893 0.57042 0.0
C617 C 0.07385 0.93824 0.56639 0.0
C618 C 0.07885 0.94071 0.52536 0.0
H619 H 0.09228 0.91695 0.62014 0.0
H620 H 0.0527 0.95315 0.58174 0.0
S621 S 0.1491 0.89485 0.46313 0.0
N622 N 0.15758 0.8832 0.50857 0.0
N623 N 0.11311 0.92052 0.46693 0.0
C624 C 0.10631 0.92041 0.50654 0.0
C625 C 0.13023 0.89986 0.52909 0.0
C626 C 0.86441 0.39673 0.93306 0.0
C627 C 0.83238 0.41583 0.92587 0.0
C628 C 0.89856 0.41484 0.94844 0.0
C629 C 0.90239 0.45287 0.95739 0.0
H630 H 0.86318 0.36758 0.92653 0.0
H631 H 0.9223 0.39867 0.95318 0.0
S632 S 0.82624 0.51533 0.94576 0.0
N633 N 0.80627 0.47478 0.93023 0.0
N634 N 0.87022 0.50884 0.95856 0.0
C635 C 0.87047 0.47231 0.95034 0.0
C636 C 0.83566 0.45381 0.93474 0.0
C637 C 0.65243 0.55102 0.43391 0.0
C638 C 0.66448 0.58779 0.42408 0.0
C639 C 0.61852 0.54168 0.45645 0.0
C640 C 0.59539 0.5687 0.47042 0.0
H641 H 0.66974 0.52933 0.42487 0.0
H642 H 0.61088 0.51322 0.46366 0.0
S643 S 0.61089 0.66814 0.44871 0.0
N644 N 0.64763 0.65066 0.42688 0.0
N645 N 0.58539 0.63335 0.46997 0.0
C646 C 0.60646 0.60528 0.45983 0.0
C647 C 0.64052 0.61473 0.43655 0.0
C648 C 0.08389 0.31448 0.04401 0.0
C649 C 0.12422 0.31936 0.0407 0.0
C650 C 0.06192 0.34307 0.03599 0.0
C651 C 0.07963 0.37724 0.02407 0.0
H652 H 0.06944 0.28916 0.05532 0.0
H653 H 0.03115 0.33892 0.04104 0.0
S654 S 0.1837 0.40202 1.00489 0.0
N655 N 0.1806 0.35952 0.0207 0.0
N656 N 0.13918 0.41297 1.00422 0.0
C657 C 0.11954 0.38133 0.01699 0.0
C658 C 0.14194 0.35234 0.02556 0.0
C659 C 0.58647 0.14251 0.92368 0.0
C660 C 0.56355 0.17133 0.9172 0.0
C661 C 0.57122 0.10956 0.94177 0.0
C662 C 0.53245 0.10417 0.95421 0.0
H663 H 0.61618 0.14503 0.91373 0.0
H664 H 0.5896 0.08783 0.94493 0.0
S665 S 0.46179 0.17289 0.94938 0.0
N666 N 0.5011 0.19329 0.92858 0.0
N667 N 0.47263 0.13202 0.96206 0.0
C668 C 0.50985 0.13343 0.94948 0.0
C669 C 0.52527 0.16673 0.93113 0.0
C670 C 0.90002 0.86555 0.42422 0.0
C671 C 0.92236 0.83878 0.40765 0.0
C672 C 0.91687 0.89941 0.43957 0.0
C673 C 0.95677 0.90865 0.43809 0.0
H674 H 0.86903 0.86018 0.42587 0.0
H675 H 0.89845 0.9185 0.4529 0.0
S676 S 0.02891 0.8496 0.39831 0.0
N677 N 0.98737 0.82455 0.39158 0.0
N678 N 0.01851 0.88893 0.41871 0.0
C679 C 0.97959 0.88302 0.4207 0.0
C680 C 0.96254 0.84804 0.40577 0.0
C681 C 0.39956 0.67339 0.59445 0.0
C682 C 0.35945 0.66503 0.59144 0.0
C683 C 0.42476 0.64682 0.58654 0.0
C684 C 0.41095 0.61103 0.5745 0.0
H685 H 0.41167 0.70084 0.60308 0.0
H686 H 0.45535 0.65466 0.58904 0.0
S687 S 0.30885 0.5745 0.56245 0.0
N688 N 0.30718 0.61791 0.57648 0.0
N689 N 0.35485 0.56814 0.55999 0.0
C690 C 0.37107 0.60221 0.57082 0.0
C691 C 0.34524 0.6292 0.57952 0.0
C692 C 0.85557 0.90892 0.6411 0.0
C693 C 0.8699 0.89907 0.67723 0.0
C694 C 0.87879 0.93032 0.61479 0.0
C695 C 0.91718 0.94242 0.62363 0.0
H696 H 0.82629 0.89975 0.63295 0.0
H697 H 0.86663 0.93703 0.58708 0.0
S698 S 0.96781 0.92595 0.71536 0.0
N699 N 0.92425 0.90463 0.72158 0.0
N700 N 0.96832 0.9441 0.67125 0.0
C701 C 0.9319 0.93304 0.6597 0.0
C702 C 0.90813 0.9115 0.68674 0.0
C703 C 0.60809 0.07947 0.19791 0.0
C704 C 0.64381 0.09976 0.19143 0.0
C705 C 0.58829 0.06101 0.16677 0.0
C706 C 0.60345 0.06256 0.12811 0.0
H707 H 0.59491 0.07872 0.2271 0.0
H708 H 0.56036 0.04642 0.17292 0.0
S709 S 0.69722 0.11024 0.0964 0.0
N710 N 0.69464 0.11901 0.14436 0.0
N711 N 0.65725 0.08419 0.08534 0.0
C712 C 0.6399 0.08152 0.12149 0.0
C713 C 0.6602 0.10016 0.15336 0.0
C714 C 0.44705 0.5473 0.33097 0.0
C715 C 0.43821 0.58412 0.33114 0.0
C716 C 0.46208 0.53195 0.36445 0.0
C717 C 0.46819 0.55248 0.39994 0.0
H718 H 0.44204 0.53005 0.30474 0.0
H719 H 0.46785 0.50344 0.36282 0.0
S720 S 0.45097 0.65049 0.41571 0.0
N721 N 0.43781 0.64086 0.36979 0.0
N722 N 0.46562 0.61239 0.43231 0.0
C723 C 0.46015 0.58956 0.40018 0.0
C724 C 0.44536 0.60524 0.366 0.0
C725 C 0.08445 0.47471 0.83876 0.0
C726 C 0.08296 0.43614 0.84114 0.0
C727 C 0.06836 0.4963 0.86861 0.0
C728 C 0.05031 0.48055 0.9026 0.0
H729 H 0.09727 0.48839 0.81305 0.0
H730 H 0.0699 0.52572 0.86483 0.0
S731 S 0.03873 0.38106 0.92403 0.0
N732 N 0.06256 0.38338 0.88154 0.0
N733 N 0.03142 0.42376 0.93641 0.0
C734 C 0.04887 0.44216 0.90565 0.0
C735 C 0.06533 0.4201 0.87532 0.0
C736 C 0.59559 0.88034 0.92086 0.0
C737 C 0.63395 0.88239 0.93235 0.0
C738 C 0.57223 0.90724 0.93358 0.0
C739 C 0.58676 0.93732 0.95766 0.0
H740 H 0.58377 0.85806 0.9016 0.0
H741 H 0.54264 0.90441 0.92425 0.0
S742 S 0.68674 0.95544 0.99359 0.0
N743 N 0.68623 0.91656 0.96767 0.0
N744 N 0.64276 0.96763 0.99151 0.0
C745 C 0.62548 0.93965 0.96891 0.0
C746 C 0.64899 0.91201 0.95625 0.0
C747 C 0.89226 0.0825 0.41599 0.0
C748 C 0.8945 0.12081 0.4235 0.0
C749 C 0.91286 0.05984 0.43808 0.0
C750 C 0.93552 0.0743 0.46947 0.0
H751 H 0.87372 0.06954 0.39333 0.0
H752 H 0.91 0.03056 0.43134 0.0
S753 S 0.9539 0.17228 0.50038 0.0
N754 N 0.92411 0.17227 0.46316 0.0
N755 N 0.96081 0.12883 0.50652 0.0
C756 C 0.93842 0.11228 0.47754 0.0
C757 C 0.91832 0.13573 0.4542 0.0
C758 C 0.17027 0.60259 0.04938 0.0
C759 C 0.18048 0.59827 0.08902 0.0
C760 C 0.13582 0.58531 0.03388 0.0
C761 C 0.11048 0.56209 0.05691 0.0
H762 H 0.18918 0.61931 0.02983 0.0
H763 H 0.12933 0.58961 1.00334 0.0
S764 S 0.1215 0.54222 0.16239 0.0
N765 N 0.16019 0.57015 0.15142 0.0
N766 N 0.09693 0.536 0.12125 0.0
C767 C 0.1201 0.55705 0.09626 0.0
C768 C 0.1547 0.57543 0.11252 0.0
C769 C 0.35778 0.4598 0.57718 0.0
C770 C 0.34877 0.42359 0.59038 0.0
C771 C 0.39136 0.46987 0.55451 0.0
C772 C 0.41742 0.44429 0.54408 0.0
H773 H 0.3382 0.48032 0.58348 0.0
H774 H 0.39617 0.49754 0.54404 0.0
S775 S 0.40961 0.347 0.57442 0.0
N776 N 0.37078 0.36289 0.59366 0.0
N777 N 0.4329 0.38163 0.55077 0.0
C778 C 0.4092 0.40829 0.55781 0.0
C779 C 0.37528 0.39805 0.58102 0.0
C780 C 0.87963 0.65941 0.95625 0.0
C781 C 0.89838 0.69088 0.9388 0.0
C782 C 0.9007 0.63373 0.97333 0.0
C783 C 0.94108 0.63876 0.97324 0.0
H784 H 0.84874 0.6534 0.9544 0.0
H785 H 0.88532 0.60872 0.98435 0.0
S786 S 1.00296 0.72026 0.93824 0.0
N787 N 0.95886 0.72858 0.92783 0.0
N788 N 0.99865 0.67987 0.95944 0.0
C789 C 0.95991 0.67162 0.95899 0.0
C790 C 0.93845 0.69784 0.94182 0.0
C791 C 0.48563 0.85241 0.0915 0.0
C792 C 0.4461 0.84643 0.10084 0.0
C793 C 0.5017 0.88472 0.07332 0.0
C794 C 0.47917 0.91276 0.06339 0.0
H795 H 0.50448 0.83187 0.09821 0.0
H796 H 0.53237 0.88783 0.06729 0.0
S797 S 0.37418 0.9114 0.08125 0.0
N798 N 0.38473 0.87199 0.09869 0.0
N799 N 0.41496 0.9322 0.0639 0.0
C800 C 0.43949 0.90703 0.07175 0.0
C801 C 0.42302 0.87409 0.09056 0.0
C802 C 0.0756 0.14566 0.61839 0.0
C803 C 0.08638 0.17658 0.59518 0.0
C804 C 0.059 0.11212 0.60131 0.0
C805 C 0.05258 0.10816 0.56033 0.0
H806 H 0.08126 0.147 0.64971 0.0
H807 H 0.05209 0.08889 0.62024 0.0
S808 S 0.07131 0.18271 0.48762 0.0
N809 N 0.08609 0.20207 0.52989 0.0
N810 N 0.05548 0.1399 0.49785 0.0
C811 C 0.06179 0.13959 0.53728 0.0
C812 C 0.07847 0.17349 0.55465 0.0
C813 C 0.65149 0.36485 0.46296 0.0
C814 C 0.65734 0.35362 0.42359 0.0
C815 C 0.62619 0.39109 0.4725 0.0
C816 C 0.60547 0.40649 0.44307 0.0
H817 H 0.66516 0.35212 0.48667 0.0
H818 H 0.6216 0.39818 0.50334 0.0
S819 S 0.61533 0.39107 0.33526 0.0
N820 N 0.64452 0.36399 0.35456 0.0
N821 N 0.59543 0.41186 0.37301 0.0
C822 C 0.61247 0.39701 0.40357 0.0
C823 C 0.63888 0.37098 0.39371 0.0
loop_
_geom_bond_atom_site_label_1
_geom_bond_atom_site_label_2
_geom_bond_distance
_geom_bond_site_symmetry_2
_ccdc_geom_bond_type
C0 C1 1.391 . S
C0 C4 1.391 . S
C0 H42 0.948 . S
C1 C0 1.391 . S
C1 C2 1.391 . S
C2 C1 1.391 . S
C2 H58 0.947 . S
C2 C59 1.392 . S
C3 C4 1.391 . S
C3 C7 1.397 . S
C3 C59 1.419 . S
C4 C0 1.391 . S
C4 C3 1.391 . S
C4 C5 1.399 . S
C5 C4 1.399 . S
C5 C8 1.396 . S
C5 C17 1.453 . S
C5 C18 1.684 . S
H6 C30 0.948 . S
C7 C3 1.397 . S
C7 C8 1.394 . S
C7 C26 1.723 . S
C8 C5 1.396 . S
C8 C7 1.394 . S
C8 C38 1.723 . S
H9 C32 0.947 . S
H10 C33 0.948 . S
H11 C39 0.982 . S
H12 C40 0.979 . S
H13 C40 0.980 . S
H14 C40 0.983 . S
H15 C39 0.979 . S
H16 C39 0.977 . S
C17 C5 1.453 . S
C17 H46 0.982 . S
C17 H47 0.979 . S
C17 H48 0.977 . S
C18 C5 1.684 . S
C18 H43 0.979 . S
C18 H44 0.980 . S
C18 H45 0.983 . S
C19 C20 1.391 . S
C19 C24 1.391 . S
C19 H49 0.948 . S
C20 C19 1.391 . S
C20 C21 1.391 . S
C21 C20 1.391 . S
C21 C22 1.392 . S
C21 H50 0.947 . S
C22 C21 1.392 . S
C22 C23 1.419 . S
C22 H51 0.948 . S
C23 C22 1.419 . S
C23 C24 1.391 . S
C23 C27 1.397 . S
C24 C19 1.391 . S
C24 C23 1.391 . S
C24 C25 1.399 . S
C25 C24 1.399 . S
C25 C26 1.396 . S
C25 C28 1.453 . S
C25 C29 1.684 . S
C26 C7 1.723 . S
C26 C25 1.396 . S
C26 C27 1.394 . S
C27 C23 1.397 . S
C27 C26 1.394 . S
C27 C37 1.723 . S
C28 C25 1.453 . S
C28 H52 0.982 . S
C28 H53 0.979 . S
C28 H54 0.977 . S
C29 C25 1.684 . S
C29 H55 0.979 . S
C29 H56 0.980 . S
C29 H57 0.983 . S
C30 H6 0.948 . S
C30 C31 1.391 . S
C30 C35 1.391 . S
C31 C30 1.391 . S
C31 C32 1.391 . S
C32 H9 0.947 . S
C32 C31 1.391 . S
C32 C33 1.392 . S
C33 H10 0.948 . S
C33 C32 1.392 . S
C33 C34 1.419 . S
C34 C33 1.419 . S
C34 C35 1.391 . S
C34 C38 1.397 . S
C35 C30 1.391 . S
C35 C34 1.391 . S
C35 C36 1.399 . S
C36 C35 1.399 . S
C36 C37 1.396 . S
C36 C39 1.453 . S
C36 C40 1.684 . S
C37 C27 1.723 . S
C37 C36 1.396 . S
C37 C38 1.394 . S
C38 C8 1.723 . S
C38 C34 1.397 . S
C38 C37 1.394 . S
C39 H11 0.982 . S
C39 H15 0.979 . S
C39 H16 0.977 . S
C39 C36 1.453 . S
C40 H12 0.979 . S
C40 H13 0.980 . S
C40 H14 0.983 . S
C40 C36 1.684 . S
H41 C59 0.948 . S
H42 C0 0.948 . S
H43 C18 0.979 . S
H44 C18 0.980 . S
H45 C18 0.983 . S
H46 C17 0.982 . S
H47 C17 0.979 . S
H48 C17 0.977 . S
H49 C19 0.948 . S
H50 C21 0.947 . S
H51 C22 0.948 . S
H52 C28 0.982 . S
H53 C28 0.979 . S
H54 C28 0.977 . S
H55 C29 0.979 . S
H56 C29 0.980 . S
H57 C29 0.983 . S
H58 C2 0.947 . S
C59 C2 1.392 . S
C59 C3 1.419 . S
C59 H41 0.948 . S
C60 C61 1.391 . S
C60 C64 1.391 . S
C60 H102 0.948 . S
C61 C60 1.391 . S
C61 C62 1.391 . S
C62 C61 1.391 . S
C62 H118 0.947 . S
C62 C119 1.392 . S
C63 C64 1.391 . S
C63 C67 1.397 . S
C63 C119 1.419 . S
C64 C60 1.391 . S
C64 C63 1.391 . S
C64 C65 1.399 . S
C65 C64 1.399 . S
C65 C68 1.396 . S
C65 C77 1.453 . S
C65 C78 1.684 . S
H66 C90 0.948 . S
C67 C63 1.397 . S
C67 C68 1.394 . S
C67 C86 1.723 . S
C68 C65 1.396 . S
C68 C67 1.394 . S
C68 C98 1.723 . S
H69 C92 0.947 . S
H70 C93 0.948 . S
H71 C99 0.982 . S
H72 C100 0.979 . S
H73 C100 0.980 . S
H74 C100 0.983 . S
H75 C99 0.979 . S
H76 C99 0.977 . S
C77 C65 1.453 . S
C77 H106 0.982 . S
C77 H107 0.979 . S
C77 H108 0.977 . S
C78 C65 1.684 . S
C78 H103 0.979 . S
C78 H104 0.980 . S
C78 H105 0.983 . S
C79 C80 1.391 . S
C79 C84 1.391 . S
C79 H109 0.948 . S
C80 C79 1.391 . S
C80 C81 1.391 . S
C81 C80 1.391 . S
C81 C82 1.392 . S
C81 H110 0.947 . S
C82 C81 1.392 . S
C82 C83 1.419 . S
C82 H111 0.948 . S
C83 C82 1.419 . S
C83 C84 1.391 . S
C83 C87 1.397 . S
C84 C79 1.391 . S
C84 C83 1.391 . S
C84 C85 1.399 . S
C85 C84 1.399 . S
C85 C86 1.396 . S
C85 C88 1.453 . S
C85 C89 1.684 . S
C86 C67 1.723 . S
C86 C85 1.396 . S
C86 C87 1.394 . S
C87 C83 1.397 . S
C87 C86 1.394 . S
C87 C97 1.723 . S
C88 C85 1.453 . S
C88 H112 0.982 . S
C88 H113 0.979 . S
C88 H114 0.977 . S
C89 C85 1.684 . S
C89 H115 0.979 . S
C89 H116 0.980 . S
C89 H117 0.983 . S
C90 H66 0.948 . S
C90 C91 1.391 . S
C90 C95 1.391 . S
C91 C90 1.391 . S
C91 C92 1.391 . S
C92 H69 0.947 . S
C92 C91 1.391 . S
C92 C93 1.392 . S
C93 H70 0.948 . S
C93 C92 1.392 . S
C93 C94 1.419 . S
C94 C93 1.419 . S
C94 C95 1.391 . S
C94 C98 1.397 . S
C95 C90 1.391 . S
C95 C94 1.391 . S
C95 C96 1.399 . S
C96 C95 1.399 . S
C96 C97 1.396 . S
C96 C99 1.453 . S
C96 C100 1.684 . S
C97 C87 1.723 . S
C97 C96 1.396 . S
C97 C98 1.394 . S
C98 C68 1.723 . S
C98 C94 1.397 . S
C98 C97 1.394 . S
C99 H71 0.982 . S
C99 H75 0.979 . S
C99 H76 0.977 . S
C99 C96 1.453 . S
C100 H72 0.979 . S
C100 H73 0.980 . S
C100 H74 0.983 . S
C100 C96 1.684 . S
H101 C119 0.948 . S
H102 C60 0.948 . S
H103 C78 0.979 . S
H104 C78 0.980 . S
H105 C78 0.983 . S
H106 C77 0.982 . S
H107 C77 0.979 . S
H108 C77 0.977 . S
H109 C79 0.948 . S
H110 C81 0.947 . S
H111 C82 0.948 . S
H112 C88 0.982 . S
H113 C88 0.979 . S
H114 C88 0.977 . S
H115 C89 0.979 . S
H116 C89 0.980 . S
H117 C89 0.983 . S
H118 C62 0.947 . S
C119 C62 1.392 . S
C119 C63 1.419 . S
C119 H101 0.948 . S
C120 C121 1.391 . S
C120 C124 1.391 . S
C120 H162 0.948 . S
C121 C120 1.391 . S
C121 C122 1.391 . S
C122 C121 1.391 . S
C122 H178 0.947 . S
C122 C179 1.392 . S
C123 C124 1.391 . S
C123 C127 1.397 . S
C123 C179 1.419 . S
C124 C120 1.391 . S
C124 C123 1.391 . S
C124 C125 1.399 . S
C125 C124 1.399 . S
C125 C128 1.396 . S
C125 C137 1.453 . S
C125 C138 1.684 . S
H126 C150 0.948 . S
C127 C123 1.397 . S
C127 C128 1.394 . S
C127 C146 1.723 . S
C128 C125 1.396 . S
C128 C127 1.394 . S
C128 C158 1.723 . S
H129 C152 0.947 . S
H130 C153 0.948 . S
H131 C159 0.982 . S
H132 C160 0.979 . S
H133 C160 0.980 . S
H134 C160 0.983 . S
H135 C159 0.979 . S
H136 C159 0.977 . S
C137 C125 1.453 . S
C137 H166 0.982 . S
C137 H167 0.979 . S
C137 H168 0.977 . S
C138 C125 1.684 . S
C138 H163 0.979 . S
C138 H164 0.980 . S
C138 H165 0.983 . S
C139 C140 1.391 . S
C139 C144 1.391 . S
C139 H169 0.948 . S
C140 C139 1.391 . S
C140 C141 1.391 . S
C141 C140 1.391 . S
C141 C142 1.392 . S
C141 H170 0.947 . S
C142 C141 1.392 . S
C142 C143 1.419 . S
C142 H171 0.948 . S
C143 C142 1.419 . S
C143 C144 1.391 . S
C143 C147 1.397 . S
C144 C139 1.391 . S
C144 C143 1.391 . S
C144 C145 1.399 . S
C145 C144 1.399 . S
C145 C146 1.396 . S
C145 C148 1.453 . S
C145 C149 1.684 . S
C146 C127 1.723 . S
C146 C145 1.396 . S
C146 C147 1.394 . S
C147 C143 1.397 . S
C147 C146 1.394 . S
C147 C157 1.723 . S
C148 C145 1.453 . S
C148 H172 0.982 . S
C148 H173 0.979 . S
C148 H174 0.977 . S
C149 C145 1.684 . S
C149 H175 0.979 . S
C149 H176 0.980 . S
C149 H177 0.983 . S
C150 H126 0.948 . S
C150 C151 1.391 . S
C150 C155 1.391 . S
C151 C150 1.391 . S
C151 C152 1.391 . S
C152 H129 0.947 . S
C152 C151 1.391 . S
C152 C153 1.392 . S
C153 H130 0.948 . S
C153 C152 1.392 . S
C153 C154 1.419 . S
C154 C153 1.419 . S
C154 C155 1.391 . S
C154 C158 1.397 . S
C155 C150 1.391 . S
C155 C154 1.391 . S
C155 C156 1.399 . S
C156 C155 1.399 . S
C156 C157 1.396 . S
C156 C159 1.453 . S
C156 C160 1.684 . S
C157 C147 1.723 . S
C157 C156 1.396 . S
C157 C158 1.394 . S
C158 C128 1.723 . S
C158 C154 1.397 . S
C158 C157 1.394 . S
C159 H131 0.982 . S
C159 H135 0.979 . S
C159 H136 0.977 . S
C159 C156 1.453 . S
C160 H132 0.979 . S
C160 H133 0.980 . S
C160 H134 0.983 . S
C160 C156 1.684 . S
H161 C179 0.948 . S
H162 C120 0.948 . S
H163 C138 0.979 . S
H164 C138 0.980 . S
H165 C138 0.983 . S
H166 C137 0.982 . S
H167 C137 0.979 . S
H168 C137 0.977 . S
H169 C139 0.948 . S
H170 C141 0.947 . S
H171 C142 0.948 . S
H172 C148 0.982 . S
H173 C148 0.979 . S
H174 C148 0.977 . S
H175 C149 0.979 . S
H176 C149 0.980 . S
H177 C149 0.983 . S
H178 C122 0.947 . S
C179 C122 1.392 . S
C179 C123 1.419 . S
C179 H161 0.948 . S
C180 C181 1.391 . S
C180 C184 1.391 . S
C180 H222 0.948 . S
C181 C180 1.391 . S
C181 C182 1.391 . S
C182 C181 1.391 . S
C182 H238 0.947 . S
C182 C239 1.392 . S
C183 C184 1.391 . S
C183 C187 1.397 . S
C183 C239 1.419 . S
C184 C180 1.391 . S
C184 C183 1.391 . S
C184 C185 1.399 . S
C185 C184 1.399 . S
C185 C188 1.396 . S
C185 C197 1.453 . S
C185 C198 1.684 . S
H186 C210 0.948 . S
C187 C183 1.397 . S
C187 C188 1.394 . S
C187 C206 1.723 . S
C188 C185 1.396 . S
C188 C187 1.394 . S
C188 C218 1.723 . S
H189 C212 0.947 . S
H190 C213 0.948 . S
H191 C219 0.982 . S
H192 C220 0.979 . S
H193 C220 0.980 . S
H194 C220 0.983 . S
H195 C219 0.979 . S
H196 C219 0.977 . S
C197 C185 1.453 . S
C197 H226 0.982 . S
C197 H227 0.979 . S
C197 H228 0.977 . S
C198 C185 1.684 . S
C198 H223 0.979 . S
C198 H224 0.980 . S
C198 H225 0.983 . S
C199 C200 1.391 . S
C199 C204 1.391 . S
C199 H229 0.948 . S
C200 C199 1.391 . S
C200 C201 1.391 . S
C201 C200 1.391 . S
C201 C202 1.392 . S
C201 H230 0.947 . S
C202 C201 1.392 . S
C202 C203 1.419 . S
C202 H231 0.948 . S
C203 C202 1.419 . S
C203 C204 1.391 . S
C203 C207 1.397 . S
C204 C199 1.391 . S
C204 C203 1.391 . S
C204 C205 1.399 . S
C205 C204 1.399 . S
C205 C206 1.396 . S
C205 C208 1.453 . S
C205 C209 1.684 . S
C206 C187 1.723 . S
C206 C205 1.396 . S
C206 C207 1.394 . S
C207 C203 1.397 . S
C207 C206 1.394 . S
C207 C217 1.723 . S
C208 C205 1.453 . S
C208 H232 0.982 . S
C208 H233 0.979 . S
C208 H234 0.977 . S
C209 C205 1.684 . S
C209 H235 0.979 . S
C209 H236 0.980 . S
C209 H237 0.983 . S
C210 H186 0.948 . S
C210 C211 1.391 . S
C210 C215 1.391 . S
C211 C210 1.391 . S
C211 C212 1.391 . S
C212 H189 0.947 . S
C212 C211 1.391 . S
C212 C213 1.392 . S
C213 H190 0.948 . S
C213 C212 1.392 . S
C213 C214 1.419 . S
C214 C213 1.419 . S
C214 C215 1.391 . S
C214 C218 1.397 . S
C215 C210 1.391 . S
C215 C214 1.391 . S
C215 C216 1.399 . S
C216 C215 1.399 . S
C216 C217 1.396 . S
C216 C219 1.453 . S
C216 C220 1.684 . S
C217 C207 1.723 . S
C217 C216 1.396 . S
C217 C218 1.394 . S
C218 C188 1.723 . S
C218 C214 1.397 . S
C218 C217 1.394 . S
C219 H191 0.982 . S
C219 H195 0.979 . S
C219 H196 0.977 . S
C219 C216 1.453 . S
C220 H192 0.979 . S
C220 H193 0.980 . S
C220 H194 0.983 . S
C220 C216 1.684 . S
H221 C239 0.948 . S
H222 C180 0.948 . S
H223 C198 0.979 . S
H224 C198 0.980 . S
H225 C198 0.983 . S
H226 C197 0.982 . S
H227 C197 0.979 . S
H228 C197 0.977 . S
H229 C199 0.948 . S
H230 C201 0.947 . S
H231 C202 0.948 . S
H232 C208 0.982 . S
H233 C208 0.979 . S
H234 C208 0.977 . S
H235 C209 0.979 . S
H236 C209 0.980 . S
H237 C209 0.983 . S
H238 C182 0.947 . S
C239 C182 1.392 . S
C239 C183 1.419 . S
C239 H221 0.948 . S
C240 C241 1.391 . S
C240 C244 1.391 . S
C240 H282 0.948 . S
C241 C240 1.391 . S
C241 C242 1.391 . S
C242 C241 1.391 . S
C242 H298 0.947 . S
C242 C299 1.392 . S
C243 C244 1.391 . S
C243 C247 1.397 . S
C243 C299 1.419 . S
C244 C240 1.391 . S
C244 C243 1.391 . S
C244 C245 1.399 . S
C245 C244 1.399 . S
C245 C248 1.396 . S
C245 C257 1.453 . S
C245 C258 1.684 . S
H246 C270 0.948 . S
C247 C243 1.397 . S
C247 C248 1.394 . S
C247 C266 1.723 . S
C248 C245 1.396 . S
C248 C247 1.394 . S
C248 C278 1.723 . S
H249 C272 0.947 . S
H250 C273 0.948 . S
H251 C279 0.982 . S
H252 C280 0.979 . S
H253 C280 0.980 . S
H254 C280 0.983 . S
H255 C279 0.979 . S
H256 C279 0.977 . S
C257 C245 1.453 . S
C257 H286 0.982 . S
C257 H287 0.979 . S
C257 H288 0.977 . S
C258 C245 1.684 . S
C258 H283 0.979 . S
C258 H284 0.980 . S
C258 H285 0.983 . S
C259 C260 1.391 . S
C259 C264 1.391 . S
C259 H289 0.948 . S
C260 C259 1.391 . S
C260 C261 1.391 . S
C261 C260 1.391 . S
C261 C262 1.392 . S
C261 H290 0.947 . S
C262 C261 1.392 . S
C262 C263 1.419 . S
C262 H291 0.948 . S
C263 C262 1.419 . S
C263 C264 1.391 . S
C263 C267 1.397 . S
C264 C259 1.391 . S
C264 C263 1.391 . S
C264 C265 1.399 . S
C265 C264 1.399 . S
C265 C266 1.396 . S
C265 C268 1.453 . S
C265 C269 1.684 . S
C266 C247 1.723 . S
C266 C265 1.396 . S
C266 C267 1.394 . S
C267 C263 1.397 . S
C267 C266 1.394 . S
C267 C277 1.723 . S
C268 C265 1.453 . S
C268 H292 0.982 . S
C268 H293 0.979 . S
C268 H294 0.977 . S
C269 C265 1.684 . S
C269 H295 0.979 . S
C269 H296 0.980 . S
C269 H297 0.983 . S
C270 H246 0.948 . S
C270 C271 1.391 . S
C270 C275 1.391 . S
C271 C270 1.391 . S
C271 C272 1.391 . S
C272 H249 0.947 . S
C272 C271 1.391 . S
C272 C273 1.392 . S
C273 H250 0.948 . S
C273 C272 1.392 . S
C273 C274 1.419 . S
C274 C273 1.419 . S
C274 C275 1.391 . S
C274 C278 1.397 . S
C275 C270 1.391 . S
C275 C274 1.391 . S
C275 C276 1.399 . S
C276 C275 1.399 . S
C276 C277 1.396 . S
C276 C279 1.453 . S
C276 C280 1.684 . S
C277 C267 1.723 . S
C277 C276 1.396 . S
C277 C278 1.394 . S
C278 C248 1.723 . S
C278 C274 1.397 . S
C278 C277 1.394 . S
C279 H251 0.982 . S
C279 H255 0.979 . S
C279 H256 0.977 . S
C279 C276 1.453 . S
C280 H252 0.979 . S
C280 H253 0.980 . S
C280 H254 0.983 . S
C280 C276 1.684 . S
H281 C299 0.948 . S
H282 C240 0.948 . S
H283 C258 0.979 . S
H284 C258 0.980 . S
H285 C258 0.983 . S
H286 C257 0.982 . S
H287 C257 0.979 . S
H288 C257 0.977 . S
H289 C259 0.948 . S
H290 C261 0.947 . S
H291 C262 0.948 . S
H292 C268 0.982 . S
H293 C268 0.979 . S
H294 C268 0.977 . S
H295 C269 0.979 . S
H296 C269 0.980 . S
H297 C269 0.983 . S
H298 C242 0.947 . S
C299 C242 1.392 . S
C299 C243 1.419 . S
C299 H281 0.948 . S
C300 C301 1.391 . S
C300 C304 1.391 . S
C300 H342 0.948 . S
C301 C300 1.391 . S
C301 C302 1.391 . S
C302 C301 1.391 . S
C302 H358 0.947 . S
C302 C359 1.392 . S
C303 C304 1.391 . S
C303 C307 1.397 . S
C303 C359 1.419 . S
C304 C300 1.391 . S
C304 C303 1.391 . S
C304 C305 1.399 . S
C305 C304 1.399 . S
C305 C308 1.396 . S
C305 C317 1.453 . S
C305 C318 1.684 . S
H306 C330 0.948 . S
C307 C303 1.397 . S
C307 C308 1.394 . S
C307 C326 1.723 . S
C308 C305 1.396 . S
C308 C307 1.394 . S
C308 C338 1.723 . S
H309 C332 0.947 . S
H310 C333 0.948 . S
H311 C339 0.982 . S
H312 C340 0.979 . S
H313 C340 0.980 . S
H314 C340 0.983 . S
H315 C339 0.979 . S
H316 C339 0.977 . S
C317 C305 1.453 . S
C317 H346 0.982 . S
C317 H347 0.979 . S
C317 H348 0.977 . S
C318 C305 1.684 . S
C318 H343 0.979 . S
C318 H344 0.980 . S
C318 H345 0.983 . S
C319 C320 1.391 . S
C319 C324 1.391 . S
C319 H349 0.948 . S
C320 C319 1.391 . S
C320 C321 1.391 . S
C321 C320 1.391 . S
C321 C322 1.392 . S
C321 H350 0.947 . S
C322 C321 1.392 . S
C322 C323 1.419 . S
C322 H351 0.948 . S
C323 C322 1.419 . S
C323 C324 1.391 . S
C323 C327 1.397 . S
C324 C319 1.391 . S
C324 C323 1.391 . S
C324 C325 1.399 . S
C325 C324 1.399 . S
C325 C326 1.396 . S
C325 C328 1.453 . S
C325 C329 1.684 . S
C326 C307 1.723 . S
C326 C325 1.396 . S
C326 C327 1.394 . S
C327 C323 1.397 . S
C327 C326 1.394 . S
C327 C337 1.723 . S
C328 C325 1.453 . S
C328 H352 0.982 . S
C328 H353 0.979 . S
C328 H354 0.977 . S
C329 C325 1.684 . S
C329 H355 0.979 . S
C329 H356 0.980 . S
C329 H357 0.983 . S
C330 H306 0.948 . S
C330 C331 1.391 . S
C330 C335 1.391 . S
C331 C330 1.391 . S
C331 C332 1.391 . S
C332 H309 0.947 . S
C332 C331 1.391 . S
C332 C333 1.392 . S
C333 H310 0.948 . S
C333 C332 1.392 . S
C333 C334 1.419 . S
C334 C333 1.419 . S
C334 C335 1.391 . S
C334 C338 1.397 . S
C335 C330 1.391 . S
C335 C334 1.391 . S
C335 C336 1.399 . S
C336 C335 1.399 . S
C336 C337 1.396 . S
C336 C339 1.453 . S
C336 C340 1.684 . S
C337 C327 1.723 . S
C337 C336 1.396 . S
C337 C338 1.394 . S
C338 C308 1.723 . S
C338 C334 1.397 . S
C338 C337 1.394 . S
C339 H311 0.982 . S
C339 H315 0.979 . S
C339 H316 0.977 . S
C339 C336 1.453 . S
C340 H312 0.979 . S
C340 H313 0.980 . S
C340 H314 0.983 . S
C340 C336 1.684 . S
H341 C359 0.948 . S
H342 C300 0.948 . S
H343 C318 0.979 . S
H344 C318 0.980 . S
H345 C318 0.983 . S
H346 C317 0.982 . S
H347 C317 0.979 . S
H348 C317 0.977 . S
H349 C319 0.948 . S
H350 C321 0.947 . S
H351 C322 0.948 . S
H352 C328 0.982 . S
H353 C328 0.979 . S
H354 C328 0.977 . S
H355 C329 0.979 . S
H356 C329 0.980 . S
H357 C329 0.983 . S
H358 C302 0.947 . S
C359 C302 1.392 . S
C359 C303 1.419 . S
C359 H341 0.948 . S
C360 C361 1.391 . S
C360 C364 1.391 . S
C360 H402 0.948 . S
C361 C360 1.391 . S
C361 C362 1.391 . S
C362 C361 1.391 . S
C362 H418 0.947 . S
C362 C419 1.392 . S
C363 C364 1.391 . S
C363 C367 1.397 . S
C363 C419 1.419 . S
C364 C360 1.391 . S
C364 C363 1.391 . S
C364 C365 1.399 . S
C365 C364 1.399 . S
C365 C368 1.396 . S
C365 C377 1.453 . S
C365 C378 1.684 . S
H366 C390 0.948 . S
C367 C363 1.397 . S
C367 C368 1.394 . S
C367 C386 1.723 . S
C368 C365 1.396 . S
C368 C367 1.394 . S
C368 C398 1.723 . S
H369 C392 0.947 . S
H370 C393 0.948 . S
H371 C399 0.982 . S
H372 C400 0.979 . S
H373 C400 0.980 . S
H374 C400 0.983 . S
H375 C399 0.979 . S
H376 C399 0.977 . S
C377 C365 1.453 . S
C377 H406 0.982 . S
C377 H407 0.979 . S
C377 H408 0.977 . S
C378 C365 1.684 . S
C378 H403 0.979 . S
C378 H404 0.980 . S
C378 H405 0.983 . S
C379 C380 1.391 . S
C379 C384 1.391 . S
C379 H409 0.948 . S
C380 C379 1.391 . S
C380 C381 1.391 . S
C381 C380 1.391 . S
C381 C382 1.392 . S
C381 H410 0.947 . S
C382 C381 1.392 . S
C382 C383 1.419 . S
C382 H411 0.948 . S
C383 C382 1.419 . S
C383 C384 1.391 . S
C383 C387 1.397 . S
C384 C379 1.391 . S
C384 C383 1.391 . S
C384 C385 1.399 . S
C385 C384 1.399 . S
C385 C386 1.396 . S
C385 C388 1.453 . S
C385 C389 1.684 . S
C386 C367 1.723 . S
C386 C385 1.396 . S
C386 C387 1.394 . S
C387 C383 1.397 . S
C387 C386 1.394 . S
C387 C397 1.723 . S
C388 C385 1.453 . S
C388 H412 0.982 . S
C388 H413 0.979 . S
C388 H414 0.977 . S
C389 C385 1.684 . S
C389 H415 0.979 . S
C389 H416 0.980 . S
C389 H417 0.983 . S
C390 H366 0.948 . S
C390 C391 1.391 . S
C390 C395 1.391 . S
C391 C390 1.391 . S
C391 C392 1.391 . S
C392 H369 0.947 . S
C392 C391 1.391 . S
C392 C393 1.392 . S
C393 H370 0.948 . S
C393 C392 1.392 . S
C393 C394 1.419 . S
C394 C393 1.419 . S
C394 C395 1.391 . S
C394 C398 1.397 . S
C395 C390 1.391 . S
C395 C394 1.391 . S
C395 C396 1.399 . S
C396 C395 1.399 . S
C396 C397 1.396 . S
C396 C399 1.453 . S
C396 C400 1.684 . S
C397 C387 1.723 . S
C397 C396 1.396 . S
C397 C398 1.394 . S
C398 C368 1.723 . S
C398 C394 1.397 . S
C398 C397 1.394 . S
C399 H371 0.982 . S
C399 H375 0.979 . S
C399 H376 0.977 . S
C399 C396 1.453 . S
C400 H372 0.979 . S
C400 H373 0.980 . S
C400 H374 0.983 . S
C400 C396 1.684 . S
H401 C419 0.948 . S
H402 C360 0.948 . S
H403 C378 0.979 . S
H404 C378 0.980 . S
H405 C378 0.983 . S
H406 C377 0.982 . S
H407 C377 0.979 . S
H408 C377 0.977 . S
H409 C379 0.948 . S
H410 C381 0.947 . S
H411 C382 0.948 . S
H412 C388 0.982 . S
H413 C388 0.979 . S
H414 C388 0.977 . S
H415 C389 0.979 . S
H416 C389 0.980 . S
H417 C389 0.983 . S
H418 C362 0.947 . S
C419 C362 1.392 . S
C419 C363 1.419 . S
C419 H401 0.948 . S
C420 C421 1.391 . S
C420 C424 1.391 . S
C420 H462 0.948 . S
C421 C420 1.391 . S
C421 C422 1.391 . S
C422 C421 1.391 . S
C422 H478 0.947 . S
C422 C479 1.392 . S
C423 C424 1.391 . S
C423 C427 1.397 . S
C423 C479 1.419 . S
C424 C420 1.391 . S
C424 C423 1.391 . S
C424 C425 1.399 . S
C425 C424 1.399 . S
C425 C428 1.396 . S
C425 C437 1.453 . S
C425 C438 1.684 . S
H426 C450 0.948 . S
C427 C423 1.397 . S
C427 C428 1.394 . S
C427 C446 1.723 . S
C428 C425 1.396 . S
C428 C427 1.394 . S
C428 C458 1.723 . S
H429 C452 0.947 . S
H430 C453 0.948 . S
H431 C459 0.982 . S
H432 C460 0.979 . S
H433 C460 0.980 . S
H434 C460 0.983 . S
H435 C459 0.979 . S
H436 C459 0.977 . S
C437 C425 1.453 . S
C437 H466 0.982 . S
C437 H467 0.979 . S
C437 H468 0.977 . S
C438 C425 1.684 . S
C438 H463 0.979 . S
C438 H464 0.980 . S
C438 H465 0.983 . S
C439 C440 1.391 . S
C439 C444 1.391 . S
C439 H469 0.948 . S
C440 C439 1.391 . S
C440 C441 1.391 . S
C441 C440 1.391 . S
C441 C442 1.392 . S
C441 H470 0.947 . S
C442 C441 1.392 . S
C442 C443 1.419 . S
C442 H471 0.948 . S
C443 C442 1.419 . S
C443 C444 1.391 . S
C443 C447 1.397 . S
C444 C439 1.391 . S
C444 C443 1.391 . S
C444 C445 1.399 . S
C445 C444 1.399 . S
C445 C446 1.396 . S
C445 C448 1.453 . S
C445 C449 1.684 . S
C446 C427 1.723 . S
C446 C445 1.396 . S
C446 C447 1.394 . S
C447 C443 1.397 . S
C447 C446 1.394 . S
C447 C457 1.723 . S
C448 C445 1.453 . S
C448 H472 0.982 . S
C448 H473 0.979 . S
C448 H474 0.977 . S
C449 C445 1.684 . S
C449 H475 0.979 . S
C449 H476 0.980 . S
C449 H477 0.983 . S
C450 H426 0.948 . S
C450 C451 1.391 . S
C450 C455 1.391 . S
C451 C450 1.391 . S
C451 C452 1.391 . S
C452 H429 0.947 . S
C452 C451 1.391 . S
C452 C453 1.392 . S
C453 H430 0.948 . S
C453 C452 1.392 . S
C453 C454 1.419 . S
C454 C453 1.419 . S
C454 C455 1.391 . S
C454 C458 1.397 . S
C455 C450 1.391 . S
C455 C454 1.391 . S
C455 C456 1.399 . S
C456 C455 1.399 . S
C456 C457 1.396 . S
C456 C459 1.453 . S
C456 C460 1.684 . S
C457 C447 1.723 . S
C457 C456 1.396 . S
C457 C458 1.394 . S
C458 C428 1.723 . S
C458 C454 1.397 . S
C458 C457 1.394 . S
C459 H431 0.982 . S
C459 H435 0.979 . S
C459 H436 0.977 . S
C459 C456 1.453 . S
C460 H432 0.979 . S
C460 H433 0.980 . S
C460 H434 0.983 . S
C460 C456 1.684 . S
H461 C479 0.948 . S
H462 C420 0.948 . S
H463 C438 0.979 . S
H464 C438 0.980 . S
H465 C438 0.983 . S
H466 C437 0.982 . S
H467 C437 0.979 . S
H468 C437 0.977 . S
H469 C439 0.948 . S
H470 C441 0.947 . S
H471 C442 0.948 . S
H472 C448 0.982 . S
H473 C448 0.979 . S
H474 C448 0.977 . S
H475 C449 0.979 . S
H476 C449 0.980 . S
H477 C449 0.983 . S
H478 C422 0.947 . S
C479 C422 1.392 . S
C479 C423 1.419 . S
C479 H461 0.948 . S
Dy480 O484 2.398 . S
Dy480 O485 2.491 . S
Dy480 O486 2.403 1_545 S
Dy480 O487 2.664 1_545 S
Dy480 O491 2.326 . S
Dy480 O495 2.310 1_455 S
Dy480 O496 2.351 1_445 S
C481 O492 1.185 . S
C481 O493 1.355 . S
C482 O484 1.185 . S
C482 O485 1.355 . S
Dy483 O487 2.310 1_655 S
Dy483 O490 2.351 1_665 S
Dy483 O492 2.398 . S
Dy483 O493 2.491 . S
Dy483 O494 2.403 1_565 S
Dy483 O495 2.664 1_565 S
Dy483 O497 2.326 . S
O484 Dy480 2.398 . S
O484 C482 1.185 . S
O485 Dy480 2.491 . S
O485 C482 1.355 . S
O486 Dy480 2.403 1_565 S
O486 C488 1.254 . S
O487 Dy480 2.664 1_565 S
O487 Dy483 2.310 1_455 S
O487 C488 1.268 . S
C488 O486 1.254 . S
C488 O487 1.268 . S
C489 O494 1.254 . S
C489 O495 1.268 . S
O490 Dy483 2.351 1_445 S
O490 C498 1.249 . S
O491 Dy480 2.326 . S
O491 C498 1.267 . S
O492 C481 1.185 . S
O492 Dy483 2.398 . S
O493 C481 1.355 . S
O493 Dy483 2.491 . S
O494 Dy483 2.403 1_545 S
O494 C489 1.254 . S
O495 Dy480 2.310 1_655 S
O495 Dy483 2.664 1_545 S
O495 C489 1.268 . S
O496 Dy480 2.351 1_665 S
O496 C499 1.249 . S
O497 Dy483 2.326 . S
O497 C499 1.267 . S
C498 O490 1.249 . S
C498 O491 1.267 . S
C499 O496 1.249 . S
C499 O497 1.267 . S
Dy500 O504 2.398 . S
Dy500 O505 2.491 . S
Dy500 O506 2.403 1_545 S
Dy500 O507 2.664 1_545 S
Dy500 O511 2.326 . S
Dy500 O515 2.310 1_554 S
Dy500 O516 2.351 1_544 S
C501 O512 1.185 . S
C501 O513 1.355 . S
C502 O504 1.185 . S
C502 O505 1.355 . S
Dy503 O507 2.330 1_556 S
Dy503 O510 2.334 1_566 S
Dy503 O512 2.402 . S
Dy503 O513 2.520 . S
Dy503 O514 2.378 1_565 S
Dy503 O515 2.649 1_565 S
Dy503 O517 2.340 . S
O504 Dy500 2.398 . S
O504 C502 1.185 . S
O505 Dy500 2.491 . S
O505 C502 1.355 . S
O506 Dy500 2.403 1_565 S
O506 C508 1.254 . S
O507 Dy500 2.664 1_565 S
O507 Dy503 2.330 1_554 S
O507 C508 1.268 . S
C508 O506 1.254 . S
C508 O507 1.268 . S
C509 O514 1.254 . S
C509 O515 1.268 . S
O510 Dy503 2.334 1_544 S
O510 C518 1.249 . S
O511 Dy500 2.326 . S
O511 C518 1.267 . S
O512 C501 1.185 . S
O512 Dy503 2.402 . S
O513 C501 1.355 . S
O513 Dy503 2.520 . S
O514 Dy503 2.378 1_545 S
O514 C509 1.254 . S
O515 Dy500 2.310 1_556 S
O515 Dy503 2.649 1_545 S
O515 C509 1.268 . S
O516 Dy500 2.351 1_566 S
O516 C519 1.249 . S
O517 Dy503 2.340 . S
O517 C519 1.267 . S
C518 O510 1.249 . S
C518 O511 1.267 . S
C519 O516 1.249 . S
C519 O517 1.267 . S
Dy520 O524 2.398 . S
Dy520 O525 2.491 . S
Dy520 O526 2.403 . S
Dy520 O527 2.664 . S
Dy520 O531 2.326 . S
Dy520 O535 2.310 . S
Dy520 O536 2.351 . S
C521 O532 1.185 . S
C521 O533 1.355 . S
C522 O524 1.185 . S
C522 O525 1.355 . S
Dy523 O527 2.310 . S
Dy523 O530 2.351 . S
Dy523 O532 2.398 . S
Dy523 O533 2.491 . S
Dy523 O534 2.403 . S
Dy523 O535 2.664 . S
Dy523 O537 2.326 . S
O524 Dy520 2.398 . S
O524 C522 1.185 . S
O525 Dy520 2.491 . S
O525 C522 1.355 . S
O526 Dy520 2.403 . S
O526 C528 1.254 . S
O527 Dy520 2.664 . S
O527 Dy523 2.310 . S
O527 C528 1.268 . S
C528 O526 1.254 . S
C528 O527 1.268 . S
C529 O534 1.254 . S
C529 O535 1.268 . S
O530 Dy523 2.351 . S
O530 C538 1.249 . S
O531 Dy520 2.326 . S
O531 C538 1.267 . S
O532 C521 1.185 . S
O532 Dy523 2.398 . S
O533 C521 1.355 . S
O533 Dy523 2.491 . S
O534 Dy523 2.403 . S
O534 C529 1.254 . S
O535 Dy520 2.310 . S
O535 Dy523 2.664 . S
O535 C529 1.268 . S
O536 Dy520 2.351 . S
O536 C539 1.249 . S
O537 Dy523 2.326 . S
O537 C539 1.267 . S
C538 O530 1.249 . S
C538 O531 1.267 . S
C539 O536 1.249 . S
C539 O537 1.267 . S
Dy540 O544 2.398 . S
Dy540 O545 2.491 . S
Dy540 O546 2.403 1_455 S
Dy540 O547 2.664 1_455 S
Dy540 O551 2.326 . S
Dy540 O555 2.310 1_554 S
Dy540 O556 2.351 1_454 S
C541 O552 1.185 . S
C541 O553 1.355 . S
C542 O544 1.185 . S
C542 O545 1.355 . S
Dy543 O547 2.310 1_556 S
Dy543 O550 2.351 1_656 S
Dy543 O552 2.398 . S
Dy543 O553 2.491 . S
Dy543 O554 2.403 1_655 S
Dy543 O555 2.664 1_655 S
Dy543 O557 2.326 . S
O544 Dy540 2.398 . S
O544 C542 1.185 . S
O545 Dy540 2.491 . S
O545 C542 1.355 . S
O546 Dy540 2.403 1_655 S
O546 C548 1.254 . S
O547 Dy540 2.664 1_655 S
O547 Dy543 2.310 1_554 S
O547 C548 1.268 . S
C548 O546 1.254 . S
C548 O547 1.268 . S
C549 O554 1.254 . S
C549 O555 1.268 . S
O550 Dy543 2.351 1_454 S
O550 C558 1.249 . S
O551 Dy540 2.326 . S
O551 C558 1.267 . S
O552 C541 1.185 . S
O552 Dy543 2.398 . S
O553 C541 1.355 . S
O553 Dy543 2.491 . S
O554 Dy543 2.403 1_455 S
O554 C549 1.254 . S
O555 Dy540 2.310 1_556 S
O555 Dy543 2.664 1_455 S
O555 C549 1.268 . S
O556 Dy540 2.351 1_656 S
O556 C559 1.249 . S
O557 Dy543 2.326 . S
O557 C559 1.267 . S
C558 O550 1.249 . S
C558 O551 1.267 . S
C559 O556 1.249 . S
C559 O557 1.267 . S
C560 C561 1.369 . S
C560 C562 1.419 . S
C560 H564 0.930 . S
C561 C560 1.369 . S
C561 C570 1.429 . S
C562 C560 1.419 . S
C562 C563 1.363 . S
C562 H565 0.929 . S
C563 C562 1.363 . S
C563 C569 1.428 . S
H564 C560 0.930 . S
H565 C562 0.929 . S
S566 N567 1.613 . S
S566 N568 1.610 . S
N567 S566 1.613 . S
N567 C570 1.350 . S
N568 S566 1.610 . S
N568 C569 1.351 . S
C569 C563 1.428 . S
C569 N568 1.351 . S
C569 C570 1.434 . S
C570 C561 1.429 . S
C570 N567 1.350 . S
C570 C569 1.434 . S
C571 C572 1.369 . S
C571 C573 1.419 . S
C571 H575 0.930 . S
C572 C571 1.369 . S
C572 C581 1.429 . S
C573 C571 1.419 . S
C573 C574 1.363 . S
C573 H576 0.929 . S
C574 C573 1.363 . S
C574 C580 1.428 . S
H575 C571 0.930 . S
H576 C573 0.929 . S
S577 N578 1.613 . S
S577 N579 1.610 . S
N578 S577 1.613 . S
N578 C581 1.350 . S
N579 S577 1.610 . S
N579 C580 1.351 . S
C580 C574 1.428 . S
C580 N579 1.351 . S
C580 C581 1.434 . S
C581 C572 1.429 . S
C581 N578 1.350 . S
C581 C580 1.434 . S
C582 C583 1.369 . S
C582 C584 1.419 . S
C582 H586 0.930 . S
C583 C582 1.369 . S
C583 C592 1.429 . S
C584 C582 1.419 . S
C584 C585 1.363 . S
C584 H587 0.929 . S
C585 C584 1.363 . S
C585 C591 1.428 . S
H586 C582 0.930 . S
H587 C584 0.929 . S
S588 N589 1.613 . S
S588 N590 1.610 . S
N589 S588 1.613 . S
N589 C592 1.350 . S
N590 S588 1.610 . S
N590 C591 1.351 . S
C591 C585 1.428 . S
C591 N590 1.351 . S
C591 C592 1.434 . S
C592 C583 1.429 . S
C592 N589 1.350 . S
C592 C591 1.434 . S
C593 C594 1.369 . S
C593 C595 1.419 . S
C593 H597 0.930 . S
C594 C593 1.369 . S
C594 C603 1.429 . S
C595 C593 1.419 . S
C595 C596 1.363 . S
C595 H598 0.929 . S
C596 C595 1.363 . S
C596 C602 1.428 . S
H597 C593 0.930 . S
H598 C595 0.929 . S
S599 N600 1.613 . S
S599 N601 1.610 . S
N600 S599 1.613 . S
N600 C603 1.350 . S
N601 S599 1.610 . S
N601 C602 1.351 . S
C602 C596 1.428 . S
C602 N601 1.351 . S
C602 C603 1.434 . S
C603 C594 1.429 . S
C603 N600 1.350 . S
C603 C602 1.434 . S
C604 C605 1.369 . S
C604 C606 1.419 . S
C604 H608 0.930 . S
C605 C604 1.369 . S
C605 C614 1.429 . S
C606 C604 1.419 . S
C606 C607 1.363 . S
C606 H609 0.929 . S
C607 C606 1.363 . S
C607 C613 1.428 . S
H608 C604 0.930 . S
H609 C606 0.929 . S
S610 N611 1.613 . S
S610 N612 1.610 . S
N611 S610 1.613 . S
N611 C614 1.350 . S
N612 S610 1.610 . S
N612 C613 1.351 . S
C613 C607 1.428 . S
C613 N612 1.351 . S
C613 C614 1.434 . S
C614 C605 1.429 . S
C614 N611 1.350 . S
C614 C613 1.434 . S
C615 C616 1.369 . S
C615 C617 1.419 . S
C615 H619 0.930 . S
C616 C615 1.369 . S
C616 C625 1.429 . S
C617 C615 1.419 . S
C617 C618 1.363 . S
C617 H620 0.929 . S
C618 C617 1.363 . S
C618 C624 1.428 . S
H619 C615 0.930 . S
H620 C617 0.929 . S
S621 N622 1.613 . S
S621 N623 1.610 . S
N622 S621 1.613 . S
N622 C625 1.350 . S
N623 S621 1.610 . S
N623 C624 1.351 . S
C624 C618 1.428 . S
C624 N623 1.351 . S
C624 C625 1.434 . S
C625 C616 1.429 . S
C625 N622 1.350 . S
C625 C624 1.434 . S
C626 C627 1.369 . S
C626 C628 1.419 . S
C626 H630 0.930 . S
C627 C626 1.369 . S
C627 C636 1.429 . S
C628 C626 1.419 . S
C628 C629 1.363 . S
C628 H631 0.929 . S
C629 C628 1.363 . S
C629 C635 1.428 . S
H630 C626 0.930 . S
H631 C628 0.929 . S
S632 N633 1.613 . S
S632 N634 1.610 . S
N633 S632 1.613 . S
N633 C636 1.350 . S
N634 S632 1.610 . S
N634 C635 1.351 . S
C635 C629 1.428 . S
C635 N634 1.351 . S
C635 C636 1.434 . S
C636 C627 1.429 . S
C636 N633 1.350 . S
C636 C635 1.434 . S
C637 C638 1.369 . S
C637 C639 1.419 . S
C637 H641 0.930 . S
C638 C637 1.369 . S
C638 C647 1.429 . S
C639 C637 1.419 . S
C639 C640 1.363 . S
C639 H642 0.929 . S
C640 C639 1.363 . S
C640 C646 1.428 . S
H641 C637 0.930 . S
H642 C639 0.929 . S
S643 N644 1.613 . S
S643 N645 1.610 . S
N644 S643 1.613 . S
N644 C647 1.350 . S
N645 S643 1.610 . S
N645 C646 1.351 . S
C646 C640 1.428 . S
C646 N645 1.351 . S
C646 C647 1.434 . S
C647 C638 1.429 . S
C647 N644 1.350 . S
C647 C646 1.434 . S
C648 C649 1.369 . S
C648 C650 1.419 . S
C648 H652 0.930 . S
C649 C648 1.369 . S
C649 C658 1.429 . S
C650 C648 1.419 . S
C650 C651 1.363 . S
C650 H653 0.929 . S
C651 C650 1.363 . S
C651 C657 1.428 . S
H652 C648 0.930 . S
H653 C650 0.929 . S
S654 N655 1.613 . S
S654 N656 1.610 . S
N655 S654 1.613 . S
N655 C658 1.350 . S
N656 S654 1.610 . S
N656 C657 1.351 . S
C657 C651 1.428 . S
C657 N656 1.351 . S
C657 C658 1.434 . S
C658 C649 1.429 . S
C658 N655 1.350 . S
C658 C657 1.434 . S
C659 C660 1.369 . S
C659 C661 1.419 . S
C659 H663 0.930 . S
C660 C659 1.369 . S
C660 C669 1.429 . S
C661 C659 1.419 . S
C661 C662 1.363 . S
C661 H664 0.929 . S
C662 C661 1.363 . S
C662 C668 1.428 . S
H663 C659 0.930 . S
H664 C661 0.929 . S
S665 N666 1.613 . S
S665 N667 1.610 . S
N666 S665 1.613 . S
N666 C669 1.350 . S
N667 S665 1.610 . S
N667 C668 1.351 . S
C668 C662 1.428 . S
C668 N667 1.351 . S
C668 C669 1.434 . S
C669 C660 1.429 . S
C669 N666 1.350 . S
C669 C668 1.434 . S
C670 C671 1.369 . S
C670 C672 1.419 . S
C670 H674 0.930 . S
C671 C670 1.369 . S
C671 C680 1.429 . S
C672 C670 1.419 . S
C672 C673 1.363 . S
C672 H675 0.929 . S
C673 C672 1.363 . S
C673 C679 1.428 . S
H674 C670 0.930 . S
H675 C672 0.929 . S
S676 N677 1.613 1_455 S
S676 N678 1.610 . S
N677 S676 1.613 1_655 S
N677 C680 1.350 . S
N678 S676 1.610 . S
N678 C679 1.351 1_455 S
C679 C673 1.428 . S
C679 N678 1.351 1_655 S
C679 C680 1.434 . S
C680 C671 1.429 . S
C680 N677 1.350 . S
C680 C679 1.434 . S
C681 C682 1.369 . S
C681 C683 1.419 . S
C681 H685 0.930 . S
C682 C681 1.369 . S
C682 C691 1.429 . S
C683 C681 1.419 . S
C683 C684 1.363 . S
C683 H686 0.929 . S
C684 C683 1.363 . S
C684 C690 1.428 . S
H685 C681 0.930 . S
H686 C683 0.929 . S
S687 N688 1.613 . S
S687 N689 1.610 . S
N688 S687 1.613 . S
N688 C691 1.350 . S
N689 S687 1.610 . S
N689 C690 1.351 . S
C690 C684 1.428 . S
C690 N689 1.351 . S
C690 C691 1.434 . S
C691 C682 1.429 . S
C691 N688 1.350 . S
C691 C690 1.434 . S
C692 C693 1.369 . S
C692 C694 1.419 . S
C692 H696 0.930 . S
C693 C692 1.369 . S
C693 C702 1.429 . S
C694 C692 1.419 . S
C694 C695 1.363 . S
C694 H697 0.929 . S
C695 C694 1.363 . S
C695 C701 1.428 . S
H696 C692 0.930 . S
H697 C694 0.929 . S
S698 N699 1.613 . S
S698 N700 1.610 . S
N699 S698 1.613 . S
N699 C702 1.350 . S
N700 S698 1.610 . S
N700 C701 1.351 . S
C701 C695 1.428 . S
C701 N700 1.351 . S
C701 C702 1.434 . S
C702 C693 1.429 . S
C702 N699 1.350 . S
C702 C701 1.434 . S
C703 C704 1.369 . S
C703 C705 1.419 . S
C703 H707 0.930 . S
C704 C703 1.369 . S
C704 C713 1.429 . S
C705 C703 1.419 . S
C705 C706 1.363 . S
C705 H708 0.929 . S
C706 C705 1.363 . S
C706 C712 1.428 . S
H707 C703 0.930 . S
H708 C705 0.929 . S
S709 N710 1.613 . S
S709 N711 1.610 . S
N710 S709 1.613 . S
N710 C713 1.350 . S
N711 S709 1.610 . S
N711 C712 1.351 . S
C712 C706 1.428 . S
C712 N711 1.351 . S
C712 C713 1.434 . S
C713 C704 1.429 . S
C713 N710 1.350 . S
C713 C712 1.434 . S
C714 C715 1.369 . S
C714 C716 1.419 . S
C714 H718 0.930 . S
C715 C714 1.369 . S
C715 C724 1.429 . S
C716 C714 1.419 . S
C716 C717 1.363 . S
C716 H719 0.929 . S
C717 C716 1.363 . S
C717 C723 1.428 . S
H718 C714 0.930 . S
H719 C716 0.929 . S
S720 N721 1.613 . S
S720 N722 1.610 . S
N721 S720 1.613 . S
N721 C724 1.350 . S
N722 S720 1.610 . S
N722 C723 1.351 . S
C723 C717 1.428 . S
C723 N722 1.351 . S
C723 C724 1.434 . S
C724 C715 1.429 . S
C724 N721 1.350 . S
C724 C723 1.434 . S
C725 C726 1.369 . S
C725 C727 1.419 . S
C725 H729 0.930 . S
C726 C725 1.369 . S
C726 C735 1.429 . S
C727 C725 1.419 . S
C727 C728 1.363 . S
C727 H730 0.929 . S
C728 C727 1.363 . S
C728 C734 1.428 . S
H729 C725 0.930 . S
H730 C727 0.929 . S
S731 N732 1.613 . S
S731 N733 1.610 . S
N732 S731 1.613 . S
N732 C735 1.350 . S
N733 S731 1.610 . S
N733 C734 1.351 . S
C734 C728 1.428 . S
C734 N733 1.351 . S
C734 C735 1.434 . S
C735 C726 1.429 . S
C735 N732 1.350 . S
C735 C734 1.434 . S
C736 C737 1.369 . S
C736 C738 1.419 . S
C736 H740 0.930 . S
C737 C736 1.369 . S
C737 C746 1.429 . S
C738 C736 1.419 . S
C738 C739 1.363 . S
C738 H741 0.929 . S
C739 C738 1.363 . S
C739 C745 1.428 . S
H740 C736 0.930 . S
H741 C738 0.929 . S
S742 N743 1.613 . S
S742 N744 1.610 . S
N743 S742 1.613 . S
N743 C746 1.350 . S
N744 S742 1.610 . S
N744 C745 1.351 . S
C745 C739 1.428 . S
C745 N744 1.351 . S
C745 C746 1.434 . S
C746 C737 1.429 . S
C746 N743 1.350 . S
C746 C745 1.434 . S
C747 C748 1.369 . S
C747 C749 1.419 . S
C747 H751 0.930 . S
C748 C747 1.369 . S
C748 C757 1.429 . S
C749 C747 1.419 . S
C749 C750 1.363 . S
C749 H752 0.929 . S
C750 C749 1.363 . S
C750 C756 1.428 . S
H751 C747 0.930 . S
H752 C749 0.929 . S
S753 N754 1.613 . S
S753 N755 1.610 . S
N754 S753 1.613 . S
N754 C757 1.350 . S
N755 S753 1.610 . S
N755 C756 1.351 . S
C756 C750 1.428 . S
C756 N755 1.351 . S
C756 C757 1.434 . S
C757 C748 1.429 . S
C757 N754 1.350 . S
C757 C756 1.434 . S
C758 C759 1.369 . S
C758 C760 1.419 . S
C758 H762 0.930 . S
C759 C758 1.369 . S
C759 C768 1.429 . S
C760 C758 1.419 . S
C760 C761 1.363 . S
C760 H763 0.929 1_554 S
C761 C760 1.363 . S
C761 C767 1.428 . S
H762 C758 0.930 . S
H763 C760 0.929 1_556 S
S764 N765 1.613 . S
S764 N766 1.610 . S
N765 S764 1.613 . S
N765 C768 1.350 . S
N766 S764 1.610 . S
N766 C767 1.351 . S
C767 C761 1.428 . S
C767 N766 1.351 . S
C767 C768 1.434 . S
C768 C759 1.429 . S
C768 N765 1.350 . S
C768 C767 1.434 . S
C769 C770 1.369 . S
C769 C771 1.419 . S
C769 H773 0.930 . S
C770 C769 1.369 . S
C770 C779 1.429 . S
C771 C769 1.419 . S
C771 C772 1.363 . S
C771 H774 0.929 . S
C772 C771 1.363 . S
C772 C778 1.428 . S
H773 C769 0.930 . S
H774 C771 0.929 . S
S775 N776 1.613 . S
S775 N777 1.610 . S
N776 S775 1.613 . S
N776 C779 1.350 . S
N777 S775 1.610 . S
N777 C778 1.351 . S
C778 C772 1.428 . S
C778 N777 1.351 . S
C778 C779 1.434 . S
C779 C770 1.429 . S
C779 N776 1.350 . S
C779 C778 1.434 . S
C780 C781 1.369 . S
C780 C782 1.419 . S
C780 H784 0.930 . S
C781 C780 1.369 . S
C781 C790 1.429 . S
C782 C780 1.419 . S
C782 C783 1.363 . S
C782 H785 0.929 . S
C783 C782 1.363 . S
C783 C789 1.428 . S
H784 C780 0.930 . S
H785 C782 0.929 . S
S786 N787 1.613 . S
S786 N788 1.610 . S
N787 S786 1.613 . S
N787 C790 1.350 . S
N788 S786 1.610 . S
N788 C789 1.351 . S
C789 C783 1.428 . S
C789 N788 1.351 . S
C789 C790 1.434 . S
C790 C781 1.429 . S
C790 N787 1.350 . S
C790 C789 1.434 . S
C791 C792 1.369 . S
C791 C793 1.419 . S
C791 H795 0.930 . S
C792 C791 1.369 . S
C792 C801 1.429 . S
C793 C791 1.419 . S
C793 C794 1.363 . S
C793 H796 0.929 . S
C794 C793 1.363 . S
C794 C800 1.428 . S
H795 C791 0.930 . S
H796 C793 0.929 . S
S797 N798 1.613 . S
S797 N799 1.610 . S
N798 S797 1.613 . S
N798 C801 1.350 . S
N799 S797 1.610 . S
N799 C800 1.351 . S
C800 C794 1.428 . S
C800 N799 1.351 . S
C800 C801 1.434 . S
C801 C792 1.429 . S
C801 N798 1.350 . S
C801 C800 1.434 . S
C802 C803 1.369 . S
C802 C804 1.419 . S
C802 H806 0.930 . S
C803 C802 1.369 . S
C803 C812 1.429 . S
C804 C802 1.419 . S
C804 C805 1.363 . S
C804 H807 0.929 . S
C805 C804 1.363 . S
C805 C811 1.428 . S
H806 C802 0.930 . S
H807 C804 0.929 . S
S808 N809 1.613 . S
S808 N810 1.610 . S
N809 S808 1.613 . S
N809 C812 1.350 . S
N810 S808 1.610 . S
N810 C811 1.351 . S
C811 C805 1.428 . S
C811 N810 1.351 . S
C811 C812 1.434 . S
C812 C803 1.429 . S
C812 N809 1.350 . S
C812 C811 1.434 . S
C813 C814 1.369 . S
C813 C815 1.419 . S
C813 H817 0.930 . S
C814 C813 1.369 . S
C814 C823 1.429 . S
C815 C813 1.419 . S
C815 C816 1.363 . S
C815 H818 0.929 . S
C816 C815 1.363 . S
C816 C822 1.428 . S
H817 C813 0.930 . S
H818 C815 0.929 . S
S819 N820 1.613 . S
S819 N821 1.610 . S
N820 S819 1.613 . S
N820 C823 1.350 . S
N821 S819 1.610 . S
N821 C822 1.351 . S
C822 C816 1.428 . S
C822 N821 1.351 . S
C822 C823 1.434 . S
C823 C814 1.429 . S
C823 N820 1.350 . S
C823 C822 1.434 . S
C561 C1 1.454 . S
C563 C482 1.599 . S
C572 C80 1.289 . S
C574 C501 1.325 . S
C585 C538 1.761 . S
C583 C140 1.744 . S
C594 C211 1.717 . S
C596 C548 1.689 . S
C607 C518 2.024 . S
C605 C31 1.816 . S
C618 C488 1.384 . S
C616 C61 1.401 . S
C629 C559 1.526 . S
C627 C151 1.542 . S
C640 C529 1.467 . S
C638 C200 1.454 . S
C649 C20 1.675 . S
C651 C542 1.783 . S
C662 C509 1.700 . S
C660 C121 1.745 . S
C671 C181 1.715 . S
C673 C499 1.760 . S
C682 C91 1.274 . S
C684 C521 1.289 . S
C695 C481 1.602 . S
C693 C260 1.479 . S
C704 C320 1.290 . S
C706 C502 1.317 . S
C715 C361 1.758 . S
C717 C539 1.762 . S
C726 C451 1.710 . S
C728 C549 1.698 . S
C737 C271 1.882 . S
C739 C519 2.026 . S
C750 C489 1.388 . S
C748 C301 1.401 . S
C761 C558 1.526 . S
C759 C380 1.528 . S
C772 C528 1.467 . S
C770 C440 1.453 . S
C781 C241 1.613 . S
C783 C541 1.789 . S
C794 C508 1.706 . S
C792 C391 1.754 . S
C805 C498 1.758 . S
C803 C421 1.711 . S
C814 C331 1.274 . S
C816 C522 1.289 . S
