# Generated by pormake.
# Topology ctn, (3,4)-cn, num edge types: 1
# Building blocks:
#     Node 0, Type 0, BuildingBlock: BELTOD_clean_linker_0, # of connection points: 3
#     Node 1, Type 0, BuildingBlock: BELTOD_clean_linker_0, # of connection points: 3
#     Node 2, Type 0, BuildingBlock: BELTOD_clean_linker_0, # of connection points: 3
#     Node 3, Type 0, BuildingBlock: BELTOD_clean_linker_0, # of connection points: 3
#     Node 4, Type 0, BuildingBlock: BELTOD_clean_linker_0, # of connection points: 3
#     Node 5, Type 0, BuildingBlock: BELTOD_clean_linker_0, # of connection points: 3
#     Node 6, Type 0, BuildingBlock: BELTOD_clean_linker_0, # of connection points: 3
#     Node 7, Type 0, BuildingBlock: BELTOD_clean_linker_0, # of connection points: 3
#     Node 8, Type 0, BuildingBlock: BELTOD_clean_linker_0, # of connection points: 3
#     Node 9, Type 0, BuildingBlock: BELTOD_clean_linker_0, # of connection points: 3
#     Node 10, Type 0, BuildingBlock: BELTOD_clean_linker_0, # of connection points: 3
#     Node 11, Type 0, BuildingBlock: BELTOD_clean_linker_0, # of connection points: 3
#     Node 12, Type 0, BuildingBlock: BELTOD_clean_linker_0, # of connection points: 3
#     Node 13, Type 0, BuildingBlock: BELTOD_clean_linker_0, # of connection points: 3
#     Node 14, Type 0, BuildingBlock: BELTOD_clean_linker_0, # of connection points: 3
#     Node 15, Type 0, BuildingBlock: BELTOD_clean_linker_0, # of connection points: 3
#     Node 16, Type 1, BuildingBlock: NAHDIM_clean_sbu_0, # of connection points: 4
#     Node 17, Type 1, BuildingBlock: NAHDIM_clean_sbu_0, # of connection points: 4
#     Node 18, Type 1, BuildingBlock: NAHDIM_clean_sbu_0, # of connection points: 4
#     Node 19, Type 1, BuildingBlock: NAHDIM_clean_sbu_0, # of connection points: 4
#     Node 20, Type 1, BuildingBlock: NAHDIM_clean_sbu_0, # of connection points: 4
#     Node 21, Type 1, BuildingBlock: NAHDIM_clean_sbu_0, # of connection points: 4
#     Node 22, Type 1, BuildingBlock: NAHDIM_clean_sbu_0, # of connection points: 4
#     Node 23, Type 1, BuildingBlock: NAHDIM_clean_sbu_0, # of connection points: 4
#     Node 24, Type 1, BuildingBlock: NAHDIM_clean_sbu_0, # of connection points: 4
#     Node 25, Type 1, BuildingBlock: NAHDIM_clean_sbu_0, # of connection points: 4
#     Node 26, Type 1, BuildingBlock: NAHDIM_clean_sbu_0, # of connection points: 4
#     Node 27, Type 1, BuildingBlock: NAHDIM_clean_sbu_0, # of connection points: 4
#     Edge 28, Type (0, 1), BuildingBlock: OJICUG_clean_linker_0, # of connection points: 2
#     Edge 29, Type (0, 1), BuildingBlock: OJICUG_clean_linker_0, # of connection points: 2
#     Edge 30, Type (0, 1), BuildingBlock: OJICUG_clean_linker_0, # of connection points: 2
#     Edge 31, Type (0, 1), BuildingBlock: OJICUG_clean_linker_0, # of connection points: 2
#     Edge 32, Type (0, 1), BuildingBlock: OJICUG_clean_linker_0, # of connection points: 2
#     Edge 33, Type (0, 1), BuildingBlock: OJICUG_clean_linker_0, # of connection points: 2
#     Edge 34, Type (0, 1), BuildingBlock: OJICUG_clean_linker_0, # of connection points: 2
#     Edge 35, Type (0, 1), BuildingBlock: OJICUG_clean_linker_0, # of connection points: 2
#     Edge 36, Type (0, 1), BuildingBlock: OJICUG_clean_linker_0, # of connection points: 2
#     Edge 37, Type (0, 1), BuildingBlock: OJICUG_clean_linker_0, # of connection points: 2
#     Edge 38, Type (0, 1), BuildingBlock: OJICUG_clean_linker_0, # of connection points: 2
#     Edge 39, Type (0, 1), BuildingBlock: OJICUG_clean_linker_0, # of connection points: 2
#     Edge 40, Type (0, 1), BuildingBlock: OJICUG_clean_linker_0, # of connection points: 2
#     Edge 41, Type (0, 1), BuildingBlock: OJICUG_clean_linker_0, # of connection points: 2
#     Edge 42, Type (0, 1), BuildingBlock: OJICUG_clean_linker_0, # of connection points: 2
#     Edge 43, Type (0, 1), BuildingBlock: OJICUG_clean_linker_0, # of connection points: 2
#     Edge 44, Type (0, 1), BuildingBlock: OJICUG_clean_linker_0, # of connection points: 2
#     Edge 45, Type (0, 1), BuildingBlock: OJICUG_clean_linker_0, # of connection points: 2
#     Edge 46, Type (0, 1), BuildingBlock: OJICUG_clean_linker_0, # of connection points: 2
#     Edge 47, Type (0, 1), BuildingBlock: OJICUG_clean_linker_0, # of connection points: 2
#     Edge 48, Type (0, 1), BuildingBlock: OJICUG_clean_linker_0, # of connection points: 2
#     Edge 49, Type (0, 1), BuildingBlock: OJICUG_clean_linker_0, # of connection points: 2
#     Edge 50, Type (0, 1), BuildingBlock: OJICUG_clean_linker_0, # of connection points: 2
#     Edge 51, Type (0, 1), BuildingBlock: OJICUG_clean_linker_0, # of connection points: 2
#     Edge 52, Type (0, 1), BuildingBlock: OJICUG_clean_linker_0, # of connection points: 2
#     Edge 53, Type (0, 1), BuildingBlock: OJICUG_clean_linker_0, # of connection points: 2
#     Edge 54, Type (0, 1), BuildingBlock: OJICUG_clean_linker_0, # of connection points: 2
#     Edge 55, Type (0, 1), BuildingBlock: OJICUG_clean_linker_0, # of connection points: 2
#     Edge 56, Type (0, 1), BuildingBlock: OJICUG_clean_linker_0, # of connection points: 2
#     Edge 57, Type (0, 1), BuildingBlock: OJICUG_clean_linker_0, # of connection points: 2
#     Edge 58, Type (0, 1), BuildingBlock: OJICUG_clean_linker_0, # of connection points: 2
#     Edge 59, Type (0, 1), BuildingBlock: OJICUG_clean_linker_0, # of connection points: 2
#     Edge 60, Type (0, 1), BuildingBlock: OJICUG_clean_linker_0, # of connection points: 2
#     Edge 61, Type (0, 1), BuildingBlock: OJICUG_clean_linker_0, # of connection points: 2
#     Edge 62, Type (0, 1), BuildingBlock: OJICUG_clean_linker_0, # of connection points: 2
#     Edge 63, Type (0, 1), BuildingBlock: OJICUG_clean_linker_0, # of connection points: 2
#     Edge 64, Type (0, 1), BuildingBlock: OJICUG_clean_linker_0, # of connection points: 2
#     Edge 65, Type (0, 1), BuildingBlock: OJICUG_clean_linker_0, # of connection points: 2
#     Edge 66, Type (0, 1), BuildingBlock: OJICUG_clean_linker_0, # of connection points: 2
#     Edge 67, Type (0, 1), BuildingBlock: OJICUG_clean_linker_0, # of connection points: 2
#     Edge 68, Type (0, 1), BuildingBlock: OJICUG_clean_linker_0, # of connection points: 2
#     Edge 69, Type (0, 1), BuildingBlock: OJICUG_clean_linker_0, # of connection points: 2
#     Edge 70, Type (0, 1), BuildingBlock: OJICUG_clean_linker_0, # of connection points: 2
#     Edge 71, Type (0, 1), BuildingBlock: OJICUG_clean_linker_0, # of connection points: 2
#     Edge 72, Type (0, 1), BuildingBlock: OJICUG_clean_linker_0, # of connection points: 2
#     Edge 73, Type (0, 1), BuildingBlock: OJICUG_clean_linker_0, # of connection points: 2
#     Edge 74, Type (0, 1), BuildingBlock: OJICUG_clean_linker_0, # of connection points: 2
#     Edge 75, Type (0, 1), BuildingBlock: OJICUG_clean_linker_0, # of connection points: 2
# Relax obj value: 0.003
# Max RMSD: 0.034
# Mean RMSD: 0.021
data_MOF--net-ctn--node1-NAHDIM_clean_sbu_0--node2-BELTOD_clean_linker_0--edge1-OJICUG_clean_linker_0
_symmetry_space_group_name_H-M    P1
_symmetry_Int_Tables_number       1
_symmetry_cell_setting            triclinic
loop_
_symmetry_equiv_pos_as_xyz
'x, y, z'
_cell_length_a     47.049641
_cell_length_b     47.709083
_cell_length_c     46.697374
_cell_angle_alpha  90.519951
_cell_angle_beta   90.116203
_cell_angle_gamma 93.286542
loop_
_atom_site_label
_atom_site_type_symbol
_atom_site_fract_x
_atom_site_fract_y
_atom_site_fract_z
_atom_type_partial_charge
P0 P 0.08622 0.08179 0.09175 0.0
H1 H 0.08139 0.06396 0.15116 0.0
H2 H 0.04109 0.04627 0.18006 0.0
H3 H 0.9862 0.04858 0.10588 0.0
H4 H 0.02656 0.06659 0.07723 0.0
H5 H 0.14335 0.08305 0.0683 0.0
H6 H 0.17318 0.04646 0.05048 0.0
H7 H 0.10401 0.98436 0.06374 0.0
H8 H 0.07447 0.02107 0.08193 0.0
H9 H 0.06488 0.13749 0.09482 0.0
H10 H 0.07724 0.07493 0.0295 0.0
O11 O 0.10734 0.10153 0.11359 0.0
H12 H 0.04459 0.16787 0.05924 0.0
H13 H 0.05664 0.10512 0.99372 0.0
C14 C 0.05677 0.06723 0.11231 0.0
C15 C 0.06067 0.06064 0.14115 0.0
C16 C 0.03766 0.05031 0.15757 0.0
C17 C 0.01038 0.04623 0.14531 0.0
C18 C 0.00682 0.05197 0.11607 0.0
C19 C 0.02988 0.06224 0.09967 0.0
C20 C 0.10693 0.05471 0.07685 0.0
C21 C 0.13461 0.06155 0.06728 0.0
C22 C 0.15156 0.04063 0.05692 0.0
C23 C 0.14102 0.01243 0.05583 0.0
C24 C 0.11291 0.00579 0.06475 0.0
C25 C 0.09595 0.02679 0.07506 0.0
C26 C 0.07304 0.10427 0.06467 0.0
C27 C 0.06342 0.13042 0.07273 0.0
C28 C 0.05158 0.14763 0.05242 0.0
C29 C 0.04899 0.13889 0.02365 0.0
C30 C 0.05869 0.11259 0.01564 0.0
C31 C 0.07046 0.09532 0.03606 0.0
P32 P 0.31068 0.67782 0.19899 0.0
H33 H 0.33814 0.71661 0.15869 0.0
H34 H 0.32059 0.75426 0.12959 0.0
H35 H 0.23803 0.74247 0.16953 0.0
H36 H 0.25579 0.70467 0.19854 0.0
H37 H 0.35613 0.65112 0.22835 0.0
H38 H 0.38686 0.66533 0.26872 0.0
H39 H 0.34295 0.74206 0.27754 0.0
H40 H 0.31183 0.72734 0.23729 0.0
H41 H 0.26627 0.6492 0.16501 0.0
H42 H 0.29104 0.65341 0.254 0.0
O43 O 0.33109 0.66071 0.17634 0.0
H44 H 0.22806 0.61431 0.17635 0.0
H45 H 0.25341 0.61788 0.26541 0.0
C46 C 0.29811 0.7075 0.18026 0.0
C47 C 0.31632 0.72227 0.16132 0.0
C48 C 0.30628 0.74389 0.14482 0.0
C49 C 0.27782 0.75119 0.14708 0.0
C50 C 0.25991 0.737 0.16696 0.0
C51 C 0.27006 0.71545 0.18359 0.0
C52 C 0.33225 0.68851 0.22944 0.0
C53 C 0.35315 0.67102 0.23895 0.0
C54 C 0.37073 0.6792 0.26199 0.0
C55 C 0.36762 0.70501 0.27609 0.0
C56 C 0.34584 0.72203 0.26717 0.0
C57 C 0.32822 0.71377 0.24403 0.0
C58 C 0.28147 0.65383 0.2086 0.0
C59 C 0.26339 0.64265 0.18702 0.0
C60 C 0.24169 0.62258 0.19352 0.0
C61 C 0.23784 0.6131 0.22176 0.0
C62 C 0.25564 0.6249 0.2435 0.0
C63 C 0.27731 0.64511 0.23695 0.0
P64 P 0.98757 0.49111 0.02377 0.0
H65 H 0.03086 0.46705 0.98814 0.0
H66 H 0.03524 0.42051 0.96709 0.0
H67 H 0.95418 0.39301 0.0037 0.0
H68 H 0.94978 0.43995 0.02438 0.0
H69 H 0.95808 0.53036 0.05985 0.0
H70 H 0.91268 0.55216 0.05471 0.0
H71 H 0.89446 0.50201 0.97856 0.0
H72 H 0.9404 0.4813 0.98322 0.0
H73 H 0.0374 0.51604 0.05409 0.0
H74 H 0.96475 0.46017 0.07321 0.0
O75 O 0.00891 0.51419 0.00621 0.0
H76 H 0.05534 0.5107 0.10265 0.0
H77 H 0.98263 0.45471 0.1221 0.0
C78 C 0.98972 0.45709 0.00727 0.0
C79 C 0.01389 0.45111 0.9914 0.0
C80 C 0.01649 0.42439 0.97962 0.0
C81 C 0.99504 0.40305 0.98373 0.0
C82 C 0.97088 0.4091 -0.00016 0.0
C83 C 0.96836 0.43587 0.0117 0.0
C84 C 0.95228 0.50366 0.02236 0.0
C85 C 0.94405 0.52369 0.04236 0.0
C86 C 0.91802 0.53612 0.03941 0.0
C87 C 0.89981 0.52884 0.01623 0.0
C88 C 0.90805 0.50838 0.99649 0.0
C89 C 0.93418 0.49618 0.99935 0.0
C90 C 0.99971 0.48856 0.06012 0.0
C91 C 0.02515 0.50282 0.06882 0.0
C92 C 0.03534 0.49982 0.09666 0.0
C93 C 0.02035 0.48233 0.11623 0.0
C94 C 0.99474 0.46815 0.10743 0.0
C95 C 0.98447 0.47133 0.07958 0.0
P96 P 0.67689 0.82692 0.16891 0.0
H97 H 0.71347 0.8649 0.13521 0.0
H98 H 0.75209 0.89925 0.14783 0.0
H99 H 0.74351 0.87604 0.23678 0.0
H100 H 0.70463 0.84194 0.22398 0.0
H101 H 0.65235 0.78681 0.12723 0.0
H102 H 0.67057 0.74582 0.1034 0.0
H103 H 0.74805 0.75639 0.15325 0.0
H104 H 0.72979 0.79783 0.17658 0.0
H105 H 0.63484 0.8589 0.19793 0.0
H106 H 0.67002 0.77794 0.2069 0.0
O107 O 0.65738 0.84225 0.14431 0.0
H108 H 0.60263 0.84845 0.23789 0.0
H109 H 0.63745 0.76705 0.24659 0.0
C110 C 0.70587 0.85134 0.17871 0.0
C111 C 0.7199 0.86726 0.15743 0.0
C112 C 0.74211 0.88673 0.16466 0.0
C113 C 0.75078 0.89048 0.19335 0.0
C114 C 0.73701 0.87397 0.21457 0.0
C115 C 0.71482 0.85443 0.20727 0.0
C116 C 0.69001 0.79569 0.1531 0.0
C117 C 0.67325 0.78027 0.13303 0.0
C118 C 0.68361 0.75666 0.11963 0.0
C119 C 0.71088 0.74788 0.12628 0.0
C120 C 0.72718 0.76287 0.14727 0.0
C121 C 0.71676 0.78653 0.16066 0.0
C122 C 0.6543 0.81897 0.19909 0.0
C123 C 0.63552 0.83882 0.20846 0.0
C124 C 0.61709 0.83277 0.23124 0.0
C125 C 0.61723 0.80677 0.24518 0.0
C126 C 0.63688 0.7873 0.23636 0.0
C127 C 0.65534 0.7934 0.21351 0.0
P128 P 0.05063 0.93991 0.42739 0.0
H129 H 0.11228 0.94393 0.43377 0.0
H130 H 0.1462 0.98235 0.44773 0.0
H131 H 0.07663 0.0365 0.46035 0.0
H132 H 0.04286 0.99797 0.44595 0.0
H133 H 0.03132 0.88115 0.43121 0.0
H134 H 0.01772 0.8509 0.47136 0.0
H135 H 0.03485 0.9206 0.52989 0.0
H136 H 0.04753 0.95092 0.48942 0.0
H137 H 0.04474 0.97826 0.38021 0.0
H138 H 0.98873 0.92981 0.43641 0.0
O139 O 0.06683 0.92039 0.40325 0.0
H140 H 0.00362 0.9933 0.35359 0.0
H141 H 0.94752 0.94496 0.41006 0.0
C142 C 0.07519 0.96834 0.43821 0.0
C143 C 0.10437 0.96412 0.43943 0.0
C144 C 0.1237 0.98604 0.44764 0.0
C145 C 0.11413 0.01255 0.455 0.0
C146 C 0.08472 0.01649 0.45431 0.0
C147 C 0.0654 0.99449 0.44614 0.0
C148 C 0.04102 0.91806 0.45742 0.0
C149 C 0.03226 0.88985 0.45271 0.0
C150 C 0.02458 0.87257 0.47572 0.0
C151 C 0.0255 0.88322 0.50393 0.0
C152 C 0.03374 0.91175 0.50846 0.0
C153 C 0.04127 0.92906 0.48535 0.0
C154 C 0.01983 0.95302 0.41029 0.0
C155 C 0.02356 0.97121 0.38707 0.0
C156 C 2e-05 0.97989 0.37198 0.0
C157 C 0.97228 0.97033 0.37974 0.0
C158 C 0.96862 0.95248 0.40342 0.0
C159 C 0.99222 0.9439 0.41858 0.0
P160 P 0.23648 0.76423 0.76987 0.0
H161 H 0.28302 0.79382 0.80063 0.0
H162 H 0.28614 0.81724 0.84736 0.0
H163 H 0.19795 0.79202 0.86341 0.0
H164 H 0.19516 0.7682 0.8167 0.0
H165 H 0.25798 0.72936 0.7245 0.0
H166 H 0.27551 0.68216 0.72359 0.0
H167 H 0.25878 0.67454 0.81426 0.0
H168 H 0.2407 0.72165 0.81482 0.0
H169 H 0.20361 0.80999 0.75035 0.0
H170 H 0.19071 0.72035 0.75999 0.0
O171 O 0.25769 0.78357 0.7482 0.0
H172 H 0.15596 0.81179 0.72969 0.0
H173 H 0.14291 0.72199 0.73967 0.0
C174 C 0.2387 0.77992 0.80499 0.0
C175 C 0.26437 0.79334 0.81422 0.0
C176 C 0.26608 0.80679 0.84088 0.0
C177 C 0.24216 0.80685 0.8589 0.0
C178 C 0.21674 0.79234 0.85002 0.0
C179 C 0.21506 0.77891 0.82326 0.0
C180 C 0.24868 0.72919 0.76982 0.0
C181 C 0.25816 0.71753 0.74419 0.0
C182 C 0.26826 0.69059 0.74374 0.0
C183 C 0.2689 0.67471 0.76894 0.0
C184 C 0.25851 0.68618 0.79447 0.0
C185 C 0.24838 0.71321 0.79487 0.0
C186 C 0.20083 0.76502 0.75615 0.0
C187 C 0.19043 0.79072 0.7481 0.0
C188 C 0.16312 0.79174 0.73653 0.0
C189 C 0.14571 0.767 0.73288 0.0
C190 C 0.15599 0.74134 0.74177 0.0
C191 C 0.1833 0.74038 0.75343 0.0
P192 P 0.99603 0.49961 0.52495 0.0
H193 H 0.04815 0.48065 0.49913 0.0
H194 H 0.06668 0.48227 0.45042 0.0
H195 H 0.99149 0.52231 0.42234 0.0
H196 H 0.97328 0.52102 0.47149 0.0
H197 H 0.03731 0.53046 0.56198 0.0
H198 H 0.03811 0.57713 0.58398 0.0
H199 H 0.95894 0.59267 0.54135 0.0
H200 H 0.95885 0.54627 0.51874 0.0
H201 H 0.96161 0.4607 0.48783 0.0
H202 H 0.9519 0.50467 0.56801 0.0
O203 O 0.01625 0.47979 0.54492 0.0
H204 H 0.9133 0.4395 0.49231 0.0
H205 H 0.90342 0.48424 0.57227 0.0
C206 C 0.00919 0.5004 0.48881 0.0
C207 C 0.03556 0.48965 0.4825 0.0
C208 C 0.04608 0.49048 0.45457 0.0
C209 C 0.03047 0.50221 0.4324 0.0
C210 C 0.00413 0.5133 0.43893 0.0
C211 C 0.99363 0.51244 0.46695 0.0
C212 C 0.99773 0.53477 0.53924 0.0
C213 C 0.02021 0.54398 0.55728 0.0
C214 C 0.02053 0.57061 0.56999 0.0
C215 C 0.99834 0.5885 0.56482 0.0
C216 C 0.97642 0.57952 0.54574 0.0
C217 C 0.97624 0.55293 0.53292 0.0
C218 C 0.96003 0.4849 0.52716 0.0
C219 C 0.94892 0.4662 0.50613 0.0
C220 C 0.92126 0.45413 0.50871 0.0
C221 C 0.90439 0.46034 0.53256 0.0
C222 C 0.91585 0.47885 0.55374 0.0
C223 C 0.94349 0.4908 0.55117 0.0
P224 P 0.82384 0.82245 0.83373 0.0
H225 H 0.86573 0.84971 0.79612 0.0
H226 H 0.89387 0.83263 0.75638 0.0
H227 H 0.84918 0.75118 0.76247 0.0
H228 H 0.82137 0.76839 0.80252 0.0
H229 H 0.80436 0.87379 0.85927 0.0
H230 H 0.76492 0.90285 0.84838 0.0
H231 H 0.74122 0.84826 0.77676 0.0
H232 H 0.78164 0.81983 0.7873 0.0
H233 H 0.85125 0.78171 0.86872 0.0
H234 H 0.76539 0.79963 0.84559 0.0
O235 O 0.84775 0.84102 0.85368 0.0
H236 H 0.83279 0.74424 0.90021 0.0
H237 H 0.74688 0.76206 0.87654 0.0
C238 C 0.84196 0.81016 0.80259 0.0
C239 C 0.86188 0.82823 0.78875 0.0
C240 C 0.8778 0.81848 0.7659 0.0
C241 C 0.87394 0.79045 0.75639 0.0
C242 C 0.85302 0.77273 0.76961 0.0
C243 C 0.83705 0.78256 0.79246 0.0
C244 C 0.79617 0.84498 0.82379 0.0
C245 C 0.79096 0.86832 0.84095 0.0
C246 C 0.76812 0.88473 0.83489 0.0
C247 C 0.74969 0.87781 0.8118 0.0
C248 C 0.75516 0.85442 0.79448 0.0
C249 C 0.77823 0.83813 0.80046 0.0
C250 C 0.80975 0.79372 0.85514 0.0
C251 C 0.82845 0.77745 0.87028 0.0
C252 C 0.81787 0.75592 0.8881 0.0
C253 C 0.78834 0.7503 0.89103 0.0
C254 C 0.76971 0.76618 0.87513 0.0
C255 C 0.78032 0.78765 0.85729 0.0
P256 P 0.30793 0.31303 0.31327 0.0
H257 H 0.36196 0.33665 0.29081 0.0
H258 H 0.39283 0.32208 0.2523 0.0
H259 H 0.33131 0.25459 0.22999 0.0
H260 H 0.30062 0.26913 0.26912 0.0
H261 H 0.25783 0.32444 0.34634 0.0
H262 H 0.21505 0.34887 0.33559 0.0
H263 H 0.24281 0.3589 0.24789 0.0
H264 H 0.28602 0.33492 0.2591 0.0
H265 H 0.33785 0.29128 0.3623 0.0
H266 H 0.26374 0.26711 0.3114 0.0
O267 O 0.32611 0.33738 0.3329 0.0
H268 H 0.32781 0.25103 0.39341 0.0
H269 H 0.25334 0.22687 0.34266 0.0
C270 C 0.32916 0.30377 0.283 0.0
C271 C 0.35498 0.31883 0.27756 0.0
C272 C 0.37256 0.31057 0.25535 0.0
C273 C 0.3646 0.2871 0.23809 0.0
C274 C 0.33825 0.27251 0.24314 0.0
C275 C 0.32064 0.28085 0.2654 0.0
C276 C 0.27487 0.32752 0.30345 0.0
C277 C 0.25445 0.33144 0.32466 0.0
C278 C 0.2299 0.34532 0.31843 0.0
C279 C 0.22538 0.35578 0.29082 0.0
C280 C 0.24572 0.35129 0.26941 0.0
C281 C 0.27035 0.33739 0.27573 0.0
C282 C 0.30116 0.28248 0.33501 0.0
C283 C 0.31937 0.27732 0.35787 0.0
C284 C 0.31358 0.25434 0.37565 0.0
C285 C 0.28959 0.23597 0.37069 0.0
C286 C 0.27202 0.24059 0.34698 0.0
C287 C 0.27782 0.26366 0.32924 0.0
P288 P 0.48597 0.99581 0.51646 0.0
H289 H 0.48884 0.98276 0.45564 0.0
H290 H 0.48706 0.93866 0.42857 0.0
H291 H 0.47593 0.89262 0.50746 0.0
H292 H 0.47831 0.93695 0.53442 0.0
H293 H 0.46875 0.05338 0.52035 0.0
H294 H 0.42232 0.07389 0.51989 0.0
H295 H 0.38104 0.99069 0.51468 0.0
H296 H 0.4276 0.9704 0.51475 0.0
H297 H 0.5415 0.9823 0.53769 0.0
H298 H 0.45995 0.99959 0.57374 0.0
O299 O 0.50864 0.01814 0.49953 0.0
H300 H 0.56152 0.9794 0.58586 0.0
H301 H 0.47967 0.99638 0.62194 0.0
C302 C 0.48437 0.96304 0.49701 0.0
C303 C 0.48617 0.96315 0.4671 0.0
C304 C 0.48486 0.93791 0.45164 0.0
C305 C 0.48145 0.91206 0.46585 0.0
C306 C 0.47905 0.91212 0.4959 0.0
C307 C 0.48037 0.93744 0.51134 0.0
C308 C 0.45159 0.01046 0.51683 0.0
C309 C 0.44969 0.03959 0.51901 0.0
C310 C 0.42312 0.05126 0.51903 0.0
C311 C 0.39797 0.03393 0.51705 0.0
C312 C 0.40002 0.00463 0.51571 0.0
C313 C 0.42662 0.99299 0.51576 0.0
C314 C 0.49942 0.99153 0.55215 0.0
C315 C 0.52786 0.98524 0.55601 0.0
C316 C 0.5392 0.9834 0.58355 0.0
C317 C 0.52221 0.98781 0.60775 0.0
C318 C 0.49342 0.99331 0.60374 0.0
C319 C 0.48209 0.99507 0.57615 0.0
P320 P 0.16201 0.32636 0.67868 0.0
H321 H 0.20639 0.35352 0.64396 0.0
H322 H 0.24626 0.38697 0.65502 0.0
H323 H 0.22427 0.38328 0.74477 0.0
H324 H 0.18424 0.35005 0.73348 0.0
H325 H 0.1305 0.29265 0.63585 0.0
H326 H 0.14339 0.25441 0.60417 0.0
H327 H 0.22802 0.25847 0.64075 0.0
H328 H 0.21463 0.29628 0.67293 0.0
H329 H 0.11716 0.34822 0.71384 0.0
H330 H 0.16676 0.27497 0.7122 0.0
O331 O 0.13981 0.34544 0.66018 0.0
H332 H 0.08993 0.32907 0.75437 0.0
H333 H 0.13978 0.25574 0.75301 0.0
C334 C 0.19257 0.34908 0.68789 0.0
C335 C 0.21037 0.35969 0.66605 0.0
C336 C 0.23319 0.37874 0.67242 0.0
C337 C 0.23848 0.38774 0.7008 0.0
C338 C 0.22061 0.37694 0.72268 0.0
C339 C 0.19781 0.35777 0.71626 0.0
C340 C 0.17186 0.29779 0.65607 0.0
C341 C 0.15184 0.28533 0.63699 0.0
C342 C 0.15926 0.26351 0.61887 0.0
C343 C 0.18687 0.25365 0.61963 0.0
C344 C 0.20657 0.26552 0.63965 0.0
C345 C 0.19905 0.28735 0.65784 0.0
C346 C 0.1435 0.31272 0.70966 0.0
C347 C 0.12223 0.32803 0.72229 0.0
C348 C 0.10685 0.31715 0.74561 0.0
C349 C 0.11258 0.29078 0.75679 0.0
C350 C 0.13456 0.27588 0.74457 0.0
C351 C 0.15003 0.28688 0.7213 0.0
P352 P 0.81745 0.17502 0.69091 0.0
H353 H 0.85078 0.21911 0.66213 0.0
H354 H 0.83827 0.2572 0.63074 0.0
H355 H 0.749 0.23352 0.64244 0.0
H356 H 0.76172 0.19609 0.67461 0.0
H357 H 0.86271 0.15097 0.72347 0.0
H358 H 0.8918 0.16826 0.76392 0.0
H359 H 0.84264 0.24196 0.76921 0.0
H360 H 0.81395 0.22465 0.72822 0.0
H361 H 0.77959 0.14049 0.65455 0.0
H362 H 0.78971 0.15711 0.74503 0.0
O363 O 0.83958 0.15739 0.67056 0.0
H364 H 0.74105 0.10551 0.66445 0.0
H365 H 0.75172 0.12148 0.75523 0.0
C366 C 0.80724 0.20451 0.67028 0.0
C367 C 0.82851 0.2223 0.65811 0.0
C368 C 0.82131 0.24394 0.64003 0.0
C369 C 0.79263 0.24813 0.63368 0.0
C370 C 0.77129 0.23093 0.64691 0.0
C371 C 0.77855 0.20932 0.66515 0.0
C372 C 0.8367 0.18687 0.72248 0.0
C373 C 0.85815 0.1708 0.73342 0.0
C374 C 0.8746 0.18062 0.75673 0.0
C375 C 0.86972 0.20663 0.7697 0.0
C376 C 0.84729 0.2221 0.75939 0.0
C377 C 0.83083 0.21221 0.73603 0.0
C378 C 0.7876 0.1512 0.69902 0.0
C379 C 0.77342 0.13662 0.67656 0.0
C380 C 0.75152 0.11651 0.68228 0.0
C381 C 0.74351 0.11043 0.71066 0.0
C382 C 0.75722 0.12578 0.73313 0.0
C383 C 0.7791 0.14604 0.72733 0.0
P384 P 0.57457 0.57875 0.58205 0.0
H385 H 0.57 0.56051 0.64124 0.0
H386 H 0.52986 0.54322 0.67048 0.0
H387 H 0.47384 0.54837 0.59745 0.0
H388 H 0.51416 0.56605 0.56843 0.0
H389 H 0.62974 0.57881 0.55441 0.0
H390 H 0.65881 0.54132 0.53718 0.0
H391 H 0.5917 0.47982 0.5596 0.0
H392 H 0.56291 0.51741 0.57706 0.0
H393 H 0.55206 0.6339 0.58556 0.0
H394 H 0.56922 0.57385 0.51914 0.0
O395 O 0.59642 0.59786 0.60373 0.0
H396 H 0.53506 0.66594 0.54965 0.0
H397 H 0.55203 0.60575 0.48302 0.0
C398 C 0.54488 0.56517 0.60293 0.0
C399 C 0.54906 0.55797 0.63156 0.0
C400 C 0.52612 0.54784 0.64816 0.0
C401 C 0.4986 0.54453 0.63632 0.0
C402 C 0.49468 0.55111 0.60732 0.0
C403 C 0.5177 0.56118 0.59071 0.0
C404 C 0.59437 0.55089 0.56728 0.0
C405 C 0.62125 0.55726 0.55543 0.0
C406 C 0.63776 0.53581 0.54545 0.0
C407 C 0.62761 0.50755 0.54714 0.0
C408 C 0.60028 0.50133 0.55839 0.0
C409 C 0.58375 0.52285 0.56828 0.0
C410 C 0.56231 0.60177 0.55496 0.0
C411 C 0.55221 0.62767 0.5632 0.0
C412 C 0.54229 0.64585 0.54267 0.0
C413 C 0.54223 0.6384 0.51347 0.0
C414 C 0.55216 0.61223 0.50531 0.0
C415 C 0.56196 0.59397 0.52594 0.0
P416 P 0.54932 0.43814 0.91613 0.0
H417 H 0.61107 0.44212 0.92105 0.0
H418 H 0.64511 0.4796 0.93702 0.0
H419 H 0.57572 0.53312 0.95338 0.0
H420 H 0.54184 0.49559 0.93676 0.0
H421 H 0.53362 0.37844 0.92042 0.0
H422 H 0.51996 0.34831 0.96066 0.0
H423 H 0.5308 0.41964 0.01823 0.0
H424 H 0.54357 0.44976 0.97768 0.0
H425 H 0.54196 0.4775 0.87001 0.0
H426 H 0.48779 0.427 0.92616 0.0
O427 O 0.56508 0.41892 0.89141 0.0
H428 H 0.50003 0.49226 0.84448 0.0
H429 H 0.44583 0.44196 0.90105 0.0
C430 C 0.57405 0.46633 0.92715 0.0
C431 C 0.60323 0.46202 0.92782 0.0
C432 C 0.62263 0.48339 0.93722 0.0
C433 C 0.61315 0.50941 0.94644 0.0
C434 C 0.58377 0.51352 0.94597 0.0
C435 C 0.56437 0.49208 0.93652 0.0
C436 C 0.54027 0.41614 0.94619 0.0
C437 C 0.53324 0.38752 0.94174 0.0
C438 C 0.5255 0.37032 0.9648 0.0
C439 C 0.52455 0.38149 0.99275 0.0
C440 C 0.53113 0.41038 0.99699 0.0
C441 C 0.53875 0.42759 0.97385 0.0
C442 C 0.51804 0.45128 0.90001 0.0
C443 C 0.52101 0.46997 0.87713 0.0
C444 C 0.49701 0.47848 0.86266 0.0
C445 C 0.46957 0.46827 0.87074 0.0
C446 C 0.46668 0.44997 0.89413 0.0
C447 C 0.49072 0.44152 0.90861 0.0
P448 P 0.73573 0.26165 0.26568 0.0
H449 H 0.76491 0.31368 0.2865 0.0
H450 H 0.76817 0.33608 0.3336 0.0
H451 H 0.71457 0.26827 0.36866 0.0
H452 H 0.71095 0.24618 0.32109 0.0
H453 H 0.79316 0.2441 0.25564 0.0
H454 H 0.8145 0.19876 0.25842 0.0
H455 H 0.73344 0.15999 0.28439 0.0
H456 H 0.71238 0.20571 0.28209 0.0
H457 H 0.6844 0.29108 0.28005 0.0
H458 H 0.70829 0.22621 0.22138 0.0
O459 O 0.75449 0.28135 0.24225 0.0
H460 H 0.63681 0.28958 0.25891 0.0
H461 H 0.66059 0.22431 0.20039 0.0
C462 C 0.73777 0.27823 0.30039 0.0
C463 C 0.7538 0.30362 0.30427 0.0
C464 C 0.75577 0.31635 0.33127 0.0
C465 C 0.74176 0.30387 0.35492 0.0
C466 C 0.72541 0.27853 0.35084 0.0
C467 C 0.72349 0.26579 0.32375 0.0
C468 C 0.75106 0.22807 0.26797 0.0
C469 C 0.77995 0.22582 0.2618 0.0
C470 C 0.7921 0.19985 0.26332 0.0
C471 C 0.77559 0.17566 0.27128 0.0
C472 C 0.74677 0.17821 0.27829 0.0
C473 C 0.73464 0.20426 0.27676 0.0
C474 C 0.69968 0.25827 0.25272 0.0
C475 C 0.67924 0.27606 0.26305 0.0
C476 C 0.652 0.27519 0.25095 0.0
C477 C 0.64492 0.2568 0.228 0.0
C478 C 0.66545 0.23886 0.21789 0.0
C479 C 0.69264 0.23973 0.23004 0.0
P480 P 0.50686 0.00249 0.01482 0.0
H481 H 0.54076 0.96518 0.98106 0.0
H482 H 0.55808 0.96672 0.93186 0.0
H483 H 0.51463 0.04288 0.91806 0.0
H484 H 0.49773 0.04138 0.96758 0.0
H485 H 0.54905 0.03653 0.04798 0.0
H486 H 0.54778 0.08262 0.07111 0.0
H487 H 0.46303 0.09115 0.03758 0.0
H488 H 0.46476 0.04534 0.01402 0.0
H489 H 0.469 0.96873 0.9756 0.0
H490 H 0.46797 0.99916 0.06282 0.0
O491 O 0.52924 0.98407 0.03382 0.0
H492 H 0.42163 0.94587 0.98206 0.0
H493 H 0.42033 0.97734 0.06917 0.0
C494 C 0.51853 0.0035 0.97815 0.0
C495 C 0.53501 0.98225 0.96748 0.0
C496 C 0.54468 0.98302 0.93923 0.0
C497 C 0.53785 0.00501 0.92104 0.0
C498 C 0.52065 0.02591 0.93165 0.0
C499 C 0.51093 0.02506 0.95995 0.0
C500 C 0.50681 0.03738 0.02976 0.0
C501 C 0.53027 0.0484 0.04552 0.0
C502 C 0.52943 0.07466 0.05887 0.0
C503 C 0.50514 0.09039 0.05651 0.0
C504 C 0.48209 0.07964 0.03975 0.0
C505 C 0.48298 0.05339 0.0264 0.0
C506 C 0.47181 0.98591 0.01866 0.0
C507 C 0.45849 0.97073 0.99605 0.0
C508 C 0.43131 0.9578 -0.00026 0.0
C509 C 0.4171 0.95981 0.02613 0.0
C510 C 0.43074 0.97501 0.0487 0.0
C511 C 0.4579 0.98771 0.04503 0.0
C512 C 0.21871 0.92819 0.02239 0.0
O513 O 0.23733 0.93369 0.002 0.0
O514 O 0.24206 0.85816 0.98942 0.0
Zn515 Zn 0.25073 0.87921 0.02651 0.0
O516 O 0.28808 0.90169 0.02206 0.0
C517 C 0.23943 0.83109 0.06508 0.0
O518 O 0.21552 0.82633 0.0508 0.0
O519 O 0.21985 0.90541 0.03617 0.0
C520 C 0.30526 0.90535 0.04296 0.0
O521 O 0.29806 0.89515 0.06813 0.0
C522 C 0.25163 0.86857 0.96613 0.0
O523 O 0.26602 0.89298 0.96686 0.0
O524 O 0.25614 0.85183 0.05835 0.0
C525 C 0.13362 0.43059 0.2804 0.0
O526 O 0.11017 0.42619 0.29532 0.0
O527 O 0.09315 0.48603 0.30946 0.0
Zn528 Zn 0.11362 0.48701 0.27164 0.0
O529 O 0.14005 0.52149 0.26866 0.0
C530 C 0.07446 0.46704 0.22578 0.0
O531 O 0.07862 0.44174 0.23522 0.0
O532 O 0.13844 0.4541 0.26826 0.0
C533 C 0.15454 0.52234 0.24571 0.0
O534 O 0.15073 0.50165 0.22707 0.0
C535 C 0.07919 0.50633 0.31853 0.0
O536 O 0.07769 0.52877 0.30262 0.0
O537 O 0.0864 0.48823 0.23849 0.0
C538 C 0.79719 0.5882 0.99848 0.0
O539 O 0.78787 0.59196 0.97232 0.0
O540 O 0.75911 0.64567 0.97736 0.0
Zn541 Zn 0.74893 0.61908 0.00972 0.0
O542 O 0.71766 0.59073 0.99768 0.0
C543 C 0.75365 0.66101 0.05374 0.0
O544 O 0.77937 0.66426 0.04291 0.0
O545 O 0.78367 0.59823 0.01939 0.0
C546 C 0.69581 0.59701 0.98358 0.0
O547 O 0.6929 0.62327 0.97652 0.0
C548 C 0.74724 0.66876 0.97454 0.0
O549 O 0.72713 0.67513 0.99254 0.0
O550 O 0.73657 0.64181 0.04358 0.0
C551 C 0.82676 0.06801 0.27263 0.0
O552 O 0.8209 0.04973 0.29296 0.0
O553 O 0.8844 0.01908 0.28787 0.0
Zn554 Zn 0.86393 0.02583 0.25079 0.0
O555 O 0.83514 0.99391 0.24136 0.0
C556 C 0.91629 0.01663 0.22078 0.0
O557 O 0.91916 0.99812 0.24109 0.0
O558 O 0.8442 0.06207 0.25305 0.0
C559 C 0.83833 0.97695 0.22061 0.0
O560 O 0.86112 0.98006 0.2045 0.0
C561 C 0.88355 0.99529 0.29998 0.0
O562 O 0.86711 0.97463 0.2892 0.0
O563 O 0.89394 0.0304 0.2201 0.0
C564 C 0.29054 0.08615 0.50521 0.0
O565 O 0.27295 0.07773 0.48458 0.0
O566 O 0.25942 0.15327 0.47748 0.0
Zn567 Zn 0.24947 0.12733 0.51019 0.0
O568 O 0.21797 0.09845 0.49972 0.0
C569 C 0.22132 0.17148 0.53645 0.0
O570 O 0.21407 0.17442 0.50952 0.0
O571 O 0.28476 0.1074 0.5203 0.0
C572 C 0.19675 0.10313 0.48392 0.0
O573 O 0.19444 0.12832 0.47334 0.0
C574 C 0.25972 0.14733 0.45091 0.0
O575 O 0.25284 0.12154 0.44227 0.0
O576 O 0.23694 0.15161 0.54306 0.0
C577 C 0.31586 0.56503 0.76567 0.0
O578 O 0.30382 0.54374 0.77966 0.0
O579 O 0.37817 0.51677 0.78232 0.0
Zn580 Zn 0.35577 0.52421 0.74656 0.0
O581 O 0.32524 0.49338 0.7389 0.0
C582 C 0.40647 0.51443 0.71397 0.0
O583 O 0.4106 0.49669 0.73472 0.0
O584 O 0.33784 0.56131 0.75064 0.0
C585 C 0.32941 0.47229 0.72292 0.0
O586 O 0.35438 0.47026 0.7108 0.0
C587 C 0.37771 0.49302 0.79448 0.0
O588 O 0.36045 0.4725 0.78472 0.0
O589 O 0.38389 0.52786 0.71392 0.0
C590 C 0.70487 0.42217 0.51602 0.0
O591 O 0.72155 0.42577 0.49365 0.0
O592 O 0.73383 0.35808 0.48387 0.0
Zn593 Zn 0.74022 0.37653 0.52281 0.0
O594 O 0.77676 0.40065 0.52173 0.0
C595 C 0.76546 0.33139 0.54982 0.0
O596 O 0.78244 0.33563 0.52779 0.0
O597 O 0.70829 0.40139 0.53228 0.0
C598 C 0.7917 0.40626 0.54396 0.0
O599 O 0.78254 0.39711 0.56893 0.0
C600 C 0.75465 0.35671 0.46666 0.0
O601 O 0.7798 0.36753 0.47448 0.0
O602 O 0.74432 0.34662 0.5527 0.0
C603 C 0.65652 0.94934 0.79139 0.0
O604 O 0.64778 0.96484 0.81266 0.0
O605 O 0.59457 0.98622 0.79576 0.0
Zn606 Zn 0.61956 0.98376 0.7608 0.0
O607 O 0.64386 0.01937 0.75489 0.0
C608 C 0.57749 0.99368 0.71866 0.0
O609 O 0.57387 0.01523 0.73572 0.0
O610 O 0.64664 0.95296 0.76642 0.0
C611 C 0.66156 0.01832 0.73444 0.0
O612 O 0.66204 0.9951 0.71913 0.0
C613 C 0.59108 0.00895 0.80939 0.0
O614 O 0.6033 0.03252 0.79994 0.0
O615 O 0.59585 0.97632 0.72533 0.0
C616 C 0.00091 0.21398 0.94223 0.0
O617 O 0.97838 0.22764 0.94907 0.0
O618 O 0.96436 0.23351 0.8701 0.0
Zn619 Zn 0.99855 0.24863 0.89255 0.0
O620 O 0.98898 0.28257 0.91571 0.0
C621 C 0.03757 0.24528 0.84501 0.0
O622 O 0.02666 0.21935 0.84315 0.0
O623 O 0.01317 0.21914 0.91848 0.0
C624 C 0.00918 0.29508 0.92977 0.0
O625 O 0.03445 0.28471 0.9292 0.0
C626 C 0.95297 0.24988 0.8527 0.0
O627 O 0.96332 0.27598 0.85093 0.0
O628 O 0.02905 0.26129 0.8647 0.0
C629 C 0.50518 0.71894 0.43125 0.0
O630 O 0.48216 0.73258 0.43611 0.0
O631 O 0.47453 0.74139 0.35929 0.0
Zn632 Zn 0.50818 0.7557 0.38318 0.0
O633 O 0.49999 0.78985 0.40709 0.0
C634 C 0.53348 0.77802 0.33241 0.0
O635 O 0.50671 0.78297 0.32768 0.0
O636 O 0.52011 0.72508 0.40929 0.0
C637 C 0.48575 0.80995 0.39828 0.0
O638 O 0.47468 0.80858 0.37244 0.0
C639 C 0.44812 0.74306 0.36421 0.0
O640 O 0.43987 0.75483 0.3881 0.0
O641 O 0.54005 0.76622 0.35563 0.0
C642 C 0.99764 0.80937 0.59895 0.0
O643 O 0.98536 0.81869 0.62213 0.0
O644 O 0.96338 0.76654 0.65351 0.0
Zn645 Zn 0.99659 0.75601 0.62913 0.0
O646 O 0.9898 0.71757 0.61114 0.0
C647 C 0.03817 0.77291 0.67344 0.0
O648 O 0.02074 0.79269 0.6794 0.0
O649 O 0.00382 0.78382 0.5975 0.0
C650 C 0.99914 0.69614 0.62321 0.0
O651 O 0.01188 0.69916 0.64819 0.0
C652 C 0.95506 0.75123 0.67436 0.0
O653 O 0.96784 0.72799 0.6793 0.0
O654 O 0.03201 0.75561 0.65323 0.0
C655 C 0.4964 0.30904 0.0887 0.0
O656 O 0.48279 0.31834 0.11108 0.0
O657 O 0.46456 0.26754 0.14495 0.0
Zn658 Zn 0.49812 0.25707 0.121 0.0
O659 O 0.49248 0.21825 0.10377 0.0
C660 C 0.53533 0.25904 0.17167 0.0
O661 O 0.51162 0.25869 0.18649 0.0
O662 O 0.5043 0.28402 0.08851 0.0
C663 C 0.50219 0.19712 0.11606 0.0
O664 O 0.51445 0.20049 0.14125 0.0
C665 C 0.44818 0.24959 0.15768 0.0
O666 O 0.45273 0.22278 0.15503 0.0
O667 O 0.53416 0.25881 0.14447 0.0
C668 C 0.23147 0.81135 0.91151 0.0
C669 C 0.24368 0.82274 0.8864 0.0
H670 H 0.22444 0.81684 0.95651 0.0
C671 C 0.25759 0.84958 0.88765 0.0
H672 H 0.22074 0.79065 0.91124 0.0
C673 C 0.25972 0.86451 0.91345 0.0
C674 C 0.24802 0.85298 0.93869 0.0
H675 H 0.26675 0.85916 0.86859 0.0
H676 H 0.27079 0.88506 0.91359 0.0
C677 C 0.23368 0.82631 0.93743 0.0
C678 C 0.05556 0.47988 0.39145 0.0
C679 C 0.04185 0.50295 0.40271 0.0
H680 H 0.07793 0.46277 0.35616 0.0
C681 C 0.03972 0.52688 0.38564 0.0
H682 H 0.05715 0.46094 0.40384 0.0
C683 C 0.05151 0.52788 0.35816 0.0
C684 C 0.06567 0.50498 0.34715 0.0
H685 H 0.02953 0.54511 0.39376 0.0
H686 H 0.04986 0.54677 0.34572 0.0
C687 C 0.06734 0.48088 0.36403 0.0
C688 C 0.75384 0.73419 0.92917 0.0
C689 C 0.77702 0.72872 0.91143 0.0
H690 H 0.72628 0.71963 0.96292 0.0
C691 C 0.78975 0.7029 0.91398 0.0
H692 H 0.74378 0.75401 0.92801 0.0
C693 C 0.77977 0.68319 0.9341 0.0
C694 C 0.75691 0.68891 0.95218 0.0
H695 H 0.80743 0.69793 0.90039 0.0
H696 H 0.79022 0.66361 0.93571 0.0
C697 C 0.74391 0.71453 0.94931 0.0
C698 C 0.92641 0.95695 0.3543 0.0
C699 C 0.94756 0.97766 0.36205 0.0
H700 H 0.88949 0.9463 0.32876 0.0
C701 C 0.94591 0.00489 0.35118 0.0
H702 H 0.9272 0.93571 0.36212 0.0
C703 C 0.92433 0.01097 0.33199 0.0
C704 C 0.90398 0.9899 0.32317 0.0
H705 H 0.96165 0.0214 0.35708 0.0
H706 H 0.92419 0.03196 0.32338 0.0
C707 C 0.90486 0.963 0.33506 0.0
C708 C 0.21246 0.21019 0.60706 0.0
C709 C 0.1953 0.23194 0.59878 0.0
H710 H 0.23403 0.17381 0.59395 0.0
C711 C 0.18655 0.23324 0.57006 0.0
H712 H 0.21935 0.20848 0.62909 0.0
C713 C 0.1948 0.21342 0.55007 0.0
C714 C 0.21207 0.19177 0.55823 0.0
H715 H 0.17373 0.24996 0.56283 0.0
H716 H 0.1878 0.2153 0.5281 0.0
C717 C 0.22073 0.19026 0.58699 0.0
C718 C 0.44815 0.54832 0.65276 0.0
C719 C 0.47406 0.53513 0.65452 0.0
H720 H 0.40644 0.55211 0.67007 0.0
C721 C 0.47679 0.51381 0.67475 0.0
H722 H 0.44544 0.56499 0.63758 0.0
C723 C 0.4545 0.50651 0.69345 0.0
C724 C 0.42896 0.52038 0.69237 0.0
H725 H 0.49631 0.50292 0.67633 0.0
H726 H 0.45755 0.49037 0.70914 0.0
C727 C 0.42584 0.54103 0.67149 0.0
C728 C 0.76189 0.28624 0.61648 0.0
C729 C 0.78523 0.2695 0.61232 0.0
H730 H 0.73728 0.31901 0.60003 0.0
C731 C 0.8015 0.27302 0.58727 0.0
H732 H 0.74904 0.28418 0.63564 0.0
C733 C 0.79487 0.29297 0.56703 0.0
C734 C 0.77173 0.30988 0.57123 0.0
H735 H 0.81925 0.26011 0.58307 0.0
H736 H 0.80797 0.29508 0.54804 0.0
C737 C 0.75521 0.30625 0.59613 0.0
C738 C 0.55451 0.96816 0.64456 0.0
C739 C 0.53488 0.98797 0.63694 0.0
H740 H 0.58318 0.95424 0.67639 0.0
C741 C 0.52838 0.00878 0.657 0.0
H742 H 0.55971 0.95166 0.62971 0.0
C743 C 0.54175 0.01023 0.68376 0.0
C744 C 0.5619 0.99086 0.69111 0.0
H745 H 0.51361 0.02455 0.65169 0.0
H746 H 0.53667 0.02689 0.69845 0.0
C747 C 0.56784 0.96956 0.67137 0.0
C748 C 0.89856 0.24666 0.79268 0.0
C749 C 0.88904 0.21818 0.79271 0.0
H750 H 0.92608 0.27898 0.81157 0.0
C751 C 0.89951 0.20058 0.81381 0.0
H752 H 0.89123 0.26074 0.77655 0.0
C753 C 0.91971 0.211 0.8338 0.0
C754 C 0.92989 0.23927 0.83314 0.0
H755 H 0.89231 0.17863 0.81468 0.0
H756 H 0.92773 0.19675 0.84941 0.0
C757 C 0.91873 0.25708 0.81267 0.0
C758 C 0.49569 0.86241 0.45949 0.0
C759 C 0.48105 0.88522 0.44934 0.0
H760 H 0.50864 0.82081 0.45143 0.0
C761 C 0.46688 0.88252 0.42282 0.0
H762 H 0.50709 0.86388 0.47967 0.0
C763 C 0.46793 0.85788 0.40652 0.0
C764 C 0.48315 0.83535 0.41636 0.0
H765 H 0.45502 0.8995 0.41459 0.0
H766 H 0.45708 0.85666 0.38603 0.0
C767 C 0.49672 0.83776 0.4432 0.0
C768 C 0.08685 0.29552 0.80347 0.0
C769 C 0.09499 0.27858 0.78047 0.0
H770 H 0.06258 0.29829 0.84194 0.0
C771 C 0.08515 0.25019 0.77961 0.0
H772 H 0.0944 0.31737 0.80495 0.0
C773 C 0.06694 0.2392 0.80087 0.0
C774 C 0.05825 0.25634 0.82347 0.0
H775 H 0.0908 0.23666 0.76202 0.0
H776 H 0.05928 0.2174 0.79926 0.0
C777 C 0.06872 0.28453 0.82474 0.0
C778 C 0.50757 0.67289 0.4968 0.0
C779 C 0.53207 0.65807 0.49172 0.0
H780 H 0.4798 0.70351 0.48169 0.0
C781 C 0.54719 0.6628 0.46612 0.0
H782 H 0.49524 0.66943 0.51614 0.0
C783 C 0.53833 0.68234 0.44631 0.0
C784 C 0.51407 0.69748 0.45163 0.0
H785 H 0.56629 0.6519 0.4617 0.0
H786 H 0.55068 0.68579 0.42699 0.0
C787 C 0.49865 0.69232 0.47697 0.0
C788 C 0.90425 0.75306 0.73708 0.0
C789 C 0.89283 0.77946 0.73395 0.0
H790 H 0.93276 0.72347 0.72079 0.0
C791 C 0.90092 0.79585 0.71012 0.0
H792 H 0.89874 0.74005 0.75536 0.0
C793 C 0.92059 0.78641 0.69034 0.0
C794 C 0.93264 0.76038 0.69399 0.0
H795 H 0.89225 0.81613 0.7069 0.0
H796 H 0.92673 0.79977 0.6725 0.0
C797 C 0.92393 0.74364 0.71735 0.0
C798 C 0.00269 0.87394 0.55194 0.0
C799 C 0.01829 0.86445 0.52845 0.0
H800 H 0.98385 0.86401 0.59261 0.0
C801 C 0.02705 0.83677 0.52849 0.0
H802 H 0.99533 0.89503 0.55245 0.0
C803 C 0.02024 0.81895 0.55131 0.0
C804 C 0.00463 0.8284 0.57477 0.0
H805 H 0.03952 0.8289 0.51102 0.0
H806 H 0.02742 0.79778 0.55061 0.0
C807 C 0.99597 0.85611 0.57489 0.0
C808 C 0.09932 0.78954 0.72503 0.0
C809 C 0.11747 0.76788 0.71877 0.0
H810 H 0.05997 0.80807 0.71577 0.0
C811 C 0.10891 0.74754 0.69808 0.0
H812 H 0.10519 0.80535 0.74109 0.0
C813 C 0.08305 0.74905 0.68364 0.0
C814 C 0.06509 0.77094 0.68956 0.0
H815 H 0.12254 0.73079 0.6925 0.0
H816 H 0.07731 0.73319 0.66757 0.0
C817 C 0.07337 0.79102 0.71061 0.0
C818 C 0.98886 0.63992 0.56561 0.0
C819 C 0.99777 0.61608 0.57984 0.0
H820 H 0.98214 0.68389 0.56814 0.0
C821 C 0.00609 0.61869 0.60872 0.0
H822 H 0.98255 0.63871 0.54329 0.0
C823 C 0.00607 0.64459 0.62287 0.0
C824 C 0.99756 0.66848 0.60854 0.0
H825 H 0.01249 0.60066 0.62054 0.0
H826 H 0.01285 0.64586 0.64504 0.0
C827 C 0.98869 0.66584 0.57983 0.0
C828 C 0.77106 0.92944 0.22514 0.0
C829 C 0.77374 0.91191 0.20104 0.0
H830 H 0.78925 0.96377 0.25019 0.0
C831 C 0.79817 0.91553 0.18389 0.0
H832 H 0.75236 0.92738 0.23861 0.0
C833 C 0.81925 0.93644 0.19044 0.0
C834 C 0.81636 0.95426 0.21426 0.0
H835 H 0.80105 0.90213 0.1654 0.0
H836 H 0.8377 0.93874 0.17665 0.0
C837 C 0.79212 0.95041 0.23166 0.0
C838 C 0.80714 0.14044 0.2499 0.0
C839 C 0.78839 0.14789 0.27172 0.0
H840 H 0.83382 0.10954 0.23305 0.0
C841 C 0.7821 0.12868 0.2938 0.0
H842 H 0.81208 0.15453 0.23232 0.0
C843 C 0.79448 0.10269 0.29414 0.0
C844 C 0.81337 0.09537 0.27238 0.0
H845 H 0.76795 0.13389 0.31107 0.0
H846 H 0.78935 0.08842 0.31153 0.0
C847 C 0.81948 0.11453 0.25024 0.0
C848 C 0.38117 0.9329 0.05645 0.0
C849 C 0.38832 0.94594 0.03034 0.0
H850 H 0.34942 0.91006 0.08094 0.0
C851 C 0.36773 0.94573 0.00845 0.0
H852 H 0.39663 0.93222 0.0736 0.0
C853 C 0.34068 0.93271 0.01257 0.0
C854 C 0.3336 0.91974 0.03871 0.0
H855 H 0.37237 0.95592 0.98823 0.0
H856 H 0.32531 0.93288 0.99528 0.0
C857 C 0.35411 0.92006 0.06062 0.0
C858 C 0.20418 0.39777 0.26908 0.0
C859 C 0.20068 0.37309 0.28523 0.0
H860 H 0.1858 0.43511 0.25474 0.0
C861 C 0.17401 0.36633 0.29776 0.0
H862 H 0.22449 0.40381 0.25939 0.0
C863 C 0.15182 0.38448 0.29532 0.0
C864 C 0.1558 0.40975 0.28026 0.0
H865 H 0.17044 0.34726 0.30995 0.0
H866 H 0.13183 0.37903 0.30592 0.0
C867 C 0.18201 0.41585 0.26658 0.0
C868 C 0.15825 0.03118 0.48075 0.0
C869 C 0.13482 0.03599 0.46309 0.0
H870 H 0.19605 0.04852 0.50123 0.0
C871 C 0.13165 0.06323 0.45276 0.0
H872 H 0.1611 0.01053 0.48937 0.0
C873 C 0.15165 0.08509 0.45965 0.0
C874 C 0.17522 0.08018 0.47707 0.0
H875 H 0.11401 0.06756 0.43886 0.0
H876 H 0.14872 0.10576 0.45112 0.0
C877 C 0.1782 0.05302 0.48767 0.0
C878 C 0.72201 0.06204 0.70083 0.0
C879 C 0.72195 0.08722 0.71668 0.0
H880 H 0.70311 0.02078 0.69394 0.0
C881 C 0.70159 0.0897 0.73845 0.0
H882 H 0.73771 0.05919 0.68429 0.0
C883 C 0.68176 0.06745 0.74418 0.0
C884 C 0.68194 0.04228 0.72829 0.0
H885 H 0.70082 0.10891 0.75089 0.0
H886 H 0.66635 0.06995 0.76109 0.0
C887 C 0.70224 0.0399 0.70651 0.0
C888 C 0.34919 0.03577 0.49567 0.0
C889 C 0.36982 0.04644 0.51533 0.0
H890 H 0.3081 0.03988 0.4771 0.0
C891 C 0.36369 0.06969 0.53251 0.0
H892 H 0.35336 0.01811 0.48188 0.0
C893 C 0.33771 0.08229 0.5297 0.0
C894 C 0.31736 0.07196 0.50958 0.0
H895 H 0.379 0.07819 0.5481 0.0
H896 H 0.33377 0.10036 0.54301 0.0
C897 C 0.32329 0.04839 0.49282 0.0
C898 C 0.66268 0.48741 0.51329 0.0
C899 C 0.64596 0.48472 0.53813 0.0
H900 H 0.69414 0.46973 0.48673 0.0
C901 C 0.64782 0.46059 0.55495 0.0
H902 H 0.66146 0.50555 0.49966 0.0
C903 C 0.66651 0.43997 0.5475 0.0
C904 C 0.68373 0.44301 0.52303 0.0
H905 H 0.63544 0.45801 0.57438 0.0
H906 H 0.66785 0.42192 0.56124 0.0
C907 C 0.68131 0.46678 0.50581 0.0
C908 C 0.72128 0.31844 0.40218 0.0
C909 C 0.7448 0.31707 0.38377 0.0
H910 H 0.70583 0.3322 0.44281 0.0
C911 C 0.77144 0.32857 0.39302 0.0
H912 H 0.70043 0.30997 0.39556 0.0
C913 C 0.7745 0.34136 0.4199 0.0
C914 C 0.75101 0.34296 0.43826 0.0
H915 H 0.79007 0.32744 0.37956 0.0
H916 H 0.79539 0.34997 0.42627 0.0
C917 C 0.72435 0.3313 0.42916 0.0
C918 C 0.55081 0.98192 0.87467 0.0
C919 C 0.54941 0.00642 0.89144 0.0
H920 H 0.5648 0.9635 0.83562 0.0
C921 C 0.56035 0.03207 0.88022 0.0
H922 H 0.54217 0.9619 0.88249 0.0
C923 C 0.57322 0.03304 0.85324 0.0
C924 C 0.57541 0.00838 0.83688 0.0
H925 H 0.55985 0.05129 0.89268 0.0
H926 H 0.58204 0.05303 0.84553 0.0
C927 C 0.56365 0.98288 0.84772 0.0
C928 C 0.28415 0.21791 0.4206 0.0
C929 C 0.2823 0.21289 0.39095 0.0
H930 H 0.27842 0.20133 0.46262 0.0
C931 C 0.27302 0.18598 0.38104 0.0
H932 H 0.2908 0.23853 0.42892 0.0
C933 C 0.26584 0.16452 0.40043 0.0
C934 C 0.26761 0.16965 0.43009 0.0
H935 H 0.27155 0.18145 0.35829 0.0
H936 H 0.25879 0.14399 0.39218 0.0
C937 C 0.27686 0.19659 0.43992 0.0
C938 C 0.44199 0.50272 0.84325 0.0
C939 C 0.44432 0.47542 0.85373 0.0
H940 H 0.41894 0.52981 0.81665 0.0
C941 C 0.42318 0.45454 0.84639 0.0
H942 H 0.45769 0.51936 0.84886 0.0
C943 C 0.40087 0.46054 0.82805 0.0
C944 C 0.39921 0.48755 0.81663 0.0
H945 H 0.42449 0.43323 0.85388 0.0
H946 H 0.38547 0.44374 0.8221 0.0
C947 C 0.41967 0.50873 0.82493 0.0
C948 C 0.75107 0.72586 0.10084 0.0
C949 C 0.72266 0.7241 0.11025 0.0
H950 H 0.78317 0.70729 0.07579 0.0
C951 C 0.7052 0.70026 0.10269 0.0
H952 H 0.76504 0.74405 0.106 0.0
C953 C 0.71554 0.67925 0.08517 0.0
C954 C 0.74361 0.68158 0.07483 0.0
H955 H 0.68335 0.69802 0.10998 0.0
H956 H 0.7013 0.66152 0.07916 0.0
C957 C 0.76143 0.70483 0.08336 0.0
C958 C 0.98802 0.01631 0.18412 0.0
C959 C 0.98559 0.03711 0.16327 0.0
H960 H 0.96799 0.99334 0.21843 0.0
C961 C 0.95964 0.05006 0.16053 0.0
H962 H 0.00761 0.00569 0.1865 0.0
C963 C 0.93689 0.04294 0.17875 0.0
C964 C 0.93958 0.02267 0.2001 0.0
H965 H 0.95717 0.06637 0.14489 0.0
H966 H 0.91741 0.05375 0.17646 0.0
C967 C 0.96525 0.00914 0.2023 0.0
C968 C 0.28338 0.7974 0.12193 0.0
C969 C 0.26676 0.77276 0.1279 0.0
H970 H 0.28773 0.83516 0.0977 0.0
C971 C 0.24022 0.76819 0.11421 0.0
H972 H 0.30373 0.80173 0.13244 0.0
C973 C 0.23095 0.78742 0.09426 0.0
C974 C 0.24802 0.81163 0.08765 0.0
H975 H 0.22703 0.74927 0.11816 0.0
H976 H 0.21072 0.78297 0.08356 0.0
C977 C 0.27412 0.81661 0.10208 0.0
C978 C 0.04368 0.50169 0.16101 0.0
C979 C 0.03195 0.47851 0.14542 0.0
H980 H 0.06596 0.5163 0.19866 0.0
C981 C 0.03264 0.4516 0.15733 0.0
H982 H 0.0431 0.52273 0.15257 0.0
C983 C 0.04576 0.44785 0.18384 0.0
C984 C 0.05832 0.47098 0.19899 0.0
H985 H 0.02392 0.43331 0.14571 0.0
H986 H 0.04664 0.42678 0.1921 0.0
C987 C 0.05665 0.49799 0.18751 0.0
C988 C 0.41708 0.71068 0.29592 0.0
C989 C 0.38787 0.71449 0.29914 0.0
H990 H 0.45881 0.7166 0.31376 0.0
C991 C 0.37844 0.72756 0.32423 0.0
H992 H 0.42512 0.70111 0.27667 0.0
C993 C 0.39788 0.73657 0.34564 0.0
C994 C 0.42712 0.73283 0.34227 0.0
H995 H 0.35603 0.73061 0.32742 0.0
H996 H 0.39002 0.74662 0.3647 0.0
C997 C 0.43644 0.71973 0.31718 0.0
C998 C 0.02446 0.36227 0.97214 0.0
C999 C 0.99808 0.37464 0.97124 0.0
H1000 H 0.04857 0.32746 0.96002 0.0
C1001 C 0.97493 0.36 0.95768 0.0
H1002 H 0.04258 0.3728 0.98284 0.0
C1003 C 0.97832 0.33388 0.94466 0.0
C1004 C 0.00492 0.32185 0.94501 0.0
H1005 H 0.95439 0.36907 0.95646 0.0
H1006 H 0.96023 0.32337 0.9339 0.0
C1007 C 0.02784 0.33618 0.9592 0.0
C1008 C 0.56768 0.80654 0.26463 0.0
C1009 C 0.59613 0.79968 0.268 0.0
H1010 H 0.52577 0.80511 0.28218 0.0
C1011 C 0.60398 0.78574 0.29297 0.0
H1012 H 0.56083 0.81687 0.24546 0.0
C1013 C 0.58376 0.77887 0.31411 0.0
C1014 C 0.55528 0.78566 0.3106 0.0
H1015 H 0.6258 0.78037 0.29627 0.0
H1016 H 0.59042 0.76812 0.3331 0.0
C1017 C 0.54752 0.79962 0.28565 0.0
C1018 C 0.04823 0.16094 0.97498 0.0
C1019 C 0.03605 0.15721 0.00224 0.0
H1020 H 0.04678 0.18184 0.93466 0.0
C1021 C 0.0117 0.1716 0.00919 0.0
H1022 H 0.06712 0.15032 0.96907 0.0
C1023 C 7e-05 0.18967 0.98954 0.0
C1024 C 0.01255 0.19383 0.96249 0.0
H1025 H 0.00156 0.16884 0.02986 0.0
H1026 H 0.98144 0.20058 0.99572 0.0
C1027 C 0.03664 0.1791 0.95533 0.0
C1028 C 0.38858 0.24854 0.21226 0.0
C1029 C 0.38437 0.27731 0.2158 0.0
H1030 H 0.41199 0.21721 0.19118 0.0
C1031 C 0.40031 0.29673 0.19894 0.0
H1032 H 0.3769 0.23304 0.22513 0.0
C1033 C 0.42059 0.28768 0.17964 0.0
C1034 C 0.42538 0.25898 0.17671 0.0
H1035 H 0.39728 0.319 0.20081 0.0
H1036 H 0.4328 0.30326 0.16732 0.0
C1037 C 0.40885 0.23947 0.19292 0.0
C1038 C 0.52726 0.33589 0.01866 0.0
C1039 C 0.51705 0.36297 0.01735 0.0
H1040 H 0.52876 0.29772 0.04204 0.0
C1041 C 0.4998 0.37215 0.03974 0.0
H1042 H 0.54098 0.32831 0.00205 0.0
C1043 C 0.493 0.35465 0.06291 0.0
C1044 C 0.50322 0.32759 0.06413 0.0
H1045 H 0.49128 0.39275 0.03923 0.0
H1046 H 0.47965 0.36233 0.0798 0.0
C1047 C 0.52037 0.3184 0.04171 0.0
C1048 C 0.6147 0.25626 0.18376 0.0
C1049 C 0.61669 0.25721 0.21378 0.0
H1050 H 0.58762 0.25626 0.147 0.0
C1051 C 0.59166 0.259 0.22994 0.0
H1052 H 0.63362 0.25533 0.17069 0.0
C1053 C 0.56519 0.25966 0.21633 0.0
C1054 C 0.56325 0.25868 0.18628 0.0
H1055 H 0.59251 0.25957 0.25312 0.0
H1056 H 0.54628 0.26089 0.22936 0.0
C1057 C 0.58832 0.25701 0.17018 0.0
C1058 C 0.4918 0.14064 0.05878 0.0
C1059 C 0.50368 0.11763 0.07195 0.0
H1060 H 0.4819 0.18375 0.06237 0.0
C1061 C 0.51409 0.12075 0.1001 0.0
H1062 H 0.4838 0.13898 0.03703 0.0
C1063 C 0.51309 0.14641 0.11459 0.0
C1064 C 0.50163 0.16953 0.10128 0.0
H1065 H 0.52289 0.10329 0.11105 0.0
H1066 H 0.52154 0.14813 0.13617 0.0
C1067 C 0.49078 0.16631 0.07329 0.0
C1068 C 0.25804 0.43122 0.72642 0.0
C1069 C 0.2621 0.40887 0.7073 0.0
H1070 H 0.27599 0.46883 0.74625 0.0
C1071 C 0.28866 0.40729 0.69383 0.0
H1072 H 0.23773 0.43322 0.73689 0.0
C1073 C 0.31055 0.42774 0.6991 0.0
C1074 C 0.30637 0.45031 0.71789 0.0
H1075 H 0.29258 0.39015 0.67926 0.0
H1076 H 0.3307 0.42592 0.68826 0.0
C1077 C 0.27992 0.45174 0.73162 0.0
C1078 C 0.30575 0.6421 0.75284 0.0
C1079 C 0.28094 0.64657 0.76855 0.0
H1080 H 0.33621 0.61308 0.73969 0.0
C1081 C 0.26785 0.62401 0.78371 0.0
H1082 H 0.31665 0.65913 0.74132 0.0
C1083 C 0.27919 0.59752 0.78291 0.0
C1084 C 0.30389 0.59306 0.76699 0.0
H1085 H 0.24857 0.62671 0.79582 0.0
H1086 H 0.2685 0.58052 0.79463 0.0
C1087 C 0.31707 0.6157 0.75205 0.0
C1088 C 0.857 0.44384 0.51174 0.0
C1089 C 0.87516 0.4472 0.53562 0.0
H1090 H 0.81638 0.42851 0.49567 0.0
C1091 C 0.86527 0.43768 0.56243 0.0
H1092 H 0.8638 0.4513 0.49088 0.0
C1093 C 0.83798 0.42486 0.56525 0.0
C1094 C 0.82 0.42117 0.5413 0.0
H1095 H 0.87884 0.4396 0.58119 0.0
H1096 H 0.83119 0.41744 0.58613 0.0
C1097 C 0.82974 0.43096 0.51455 0.0
C1098 C 0.71645 0.90097 0.77814 0.0
C1099 C 0.72472 0.89481 0.80626 0.0
H1100 H 0.68831 0.92292 0.75132 0.0
C1101 C 0.70927 0.90554 0.82925 0.0
H1102 H 0.728 0.89326 0.75993 0.0
C1103 C 0.68681 0.92277 0.82432 0.0
C1104 C 0.679 0.92947 0.79628 0.0
H1105 H 0.71455 0.90069 0.85116 0.0
H1106 H 0.67569 0.931 0.84257 0.0
C1107 C 0.69376 0.91805 0.7732 0.0
C1108 C 0.63078 0.56014 0.94889 0.0
C1109 C 0.63389 0.53204 0.95656 0.0
H1110 H 0.64786 0.60266 0.95133 0.0
C1111 C 0.65723 0.52564 0.97368 0.0
H1112 H 0.61322 0.56574 0.93548 0.0
C1113 C 0.67717 0.54675 0.98261 0.0
C1114 C 0.67424 0.57479 0.97468 0.0
H1115 H 0.66002 0.50429 0.98036 0.0
H1116 H 0.69494 0.54102 0.99567 0.0
C1117 C 0.65074 0.58128 0.95786 0.0
C1118 C 0.19956 0.59066 0.25311 0.0
C1119 C 0.21619 0.59012 0.22813 0.0
H1120 H 0.16687 0.56972 0.27829 0.0
C1121 C 0.21232 0.56714 0.20921 0.0
H1122 H 0.20188 0.60818 0.26799 0.0
C1123 C 0.19225 0.54531 0.21498 0.0
C1124 C 0.17558 0.54581 0.23989 0.0
H1125 H 0.22515 0.56577 0.19006 0.0
H1126 H 0.18997 0.52792 0.19992 0.0
C1127 C 0.17943 0.56871 0.25893 0.0
C1128 C 0.8562 0.55102 0.03526 0.0
C1129 C 0.87307 0.54351 0.01186 0.0
H1130 H 0.81904 0.57103 0.04946 0.0
C1131 C 0.86457 0.55076 0.98413 0.0
H1132 H 0.86191 0.5455 0.05688 0.0
C1133 C 0.83987 0.56507 0.97988 0.0
C1134 C 0.82315 0.57273 0.00325 0.0
H1135 H 0.87729 0.54587 0.96564 0.0
H1136 H 0.83411 0.57043 0.95822 0.0
C1137 C 0.83155 0.56555 0.03101 0.0
C1138 C 0.17818 0.99455 0.02289 0.0
C1139 C 0.15966 0.99006 0.04619 0.0
H1140 H 0.21113 0.97856 0.99704 0.0
C1141 C 0.15989 0.96447 0.06089 0.0
H1142 H 0.17824 0.01385 0.01085 0.0
C1143 C 0.17869 0.94413 0.0529 0.0
C1144 C 0.19766 0.94894 0.03001 0.0
H1145 H 0.14611 0.96046 0.07912 0.0
H1146 H 0.17869 0.92486 0.06499 0.0
C1147 C 0.19695 0.97424 0.0149 0.0
loop_
_geom_bond_atom_site_label_1
_geom_bond_atom_site_label_2
_geom_bond_distance
_geom_bond_site_symmetry_2
_ccdc_geom_bond_type
P0 O11 1.490 . S
P0 C14 1.812 . S
P0 C20 1.803 . S
P0 C26 1.819 . S
H1 C15 0.941 . S
H2 C16 0.939 . S
H3 C18 0.940 . S
H4 C19 0.940 . S
H5 C21 0.939 . S
H6 C22 0.942 . S
H7 C24 0.940 . S
H8 C25 0.939 . S
H9 C27 0.941 . S
H10 C31 0.939 . S
O11 P0 1.490 . S
H12 C28 0.939 . S
H13 C30 0.940 . S
C14 P0 1.812 . S
C14 C15 1.389 . S
C14 C19 1.391 . S
C15 H1 0.941 . S
C15 C14 1.389 . S
C15 C16 1.397 . S
C16 H2 0.939 . S
C16 C15 1.397 . S
C16 C17 1.378 1_455 S
C17 C16 1.378 1_655 S
C17 C18 1.378 . S
C18 H3 0.940 . S
C18 C17 1.378 . S
C18 C19 1.396 1_655 S
C19 H4 0.940 . S
C19 C14 1.391 . S
C19 C18 1.396 1_455 S
C20 P0 1.803 . S
C20 C21 1.378 . S
C20 C25 1.400 . S
C21 H5 0.939 . S
C21 C20 1.378 . S
C21 C22 1.361 . S
C22 H6 0.942 . S
C22 C21 1.361 . S
C22 C23 1.369 1_545 S
C23 C22 1.369 1_565 S
C23 C24 1.404 . S
C24 H7 0.940 . S
C24 C23 1.404 . S
C24 C25 1.389 1_565 S
C25 H8 0.939 . S
C25 C20 1.400 . S
C25 C24 1.389 1_545 S
C26 P0 1.819 . S
C26 C27 1.391 . S
C26 C31 1.391 . S
C27 H9 0.941 . S
C27 C26 1.391 . S
C27 C28 1.396 . S
C28 H12 0.939 . S
C28 C27 1.396 . S
C28 C29 1.397 1_554 S
C29 C28 1.397 1_556 S
C29 C30 1.385 . S
C30 H13 0.940 . S
C30 C29 1.385 . S
C30 C31 1.388 1_556 S
C31 H10 0.939 . S
C31 C26 1.391 . S
C31 C30 1.388 1_554 S
P32 O43 1.490 . S
P32 C46 1.812 . S
P32 C52 1.803 . S
P32 C58 1.819 . S
H33 C47 0.941 . S
H34 C48 0.939 . S
H35 C50 0.940 . S
H36 C51 0.940 . S
H37 C53 0.939 . S
H38 C54 0.942 . S
H39 C56 0.940 . S
H40 C57 0.939 . S
H41 C59 0.941 . S
H42 C63 0.939 . S
O43 P32 1.490 . S
H44 C60 0.939 . S
H45 C62 0.940 . S
C46 P32 1.812 . S
C46 C47 1.389 . S
C46 C51 1.391 . S
C47 H33 0.941 . S
C47 C46 1.389 . S
C47 C48 1.397 . S
C48 H34 0.939 . S
C48 C47 1.397 . S
C48 C49 1.378 . S
C49 C48 1.378 . S
C49 C50 1.378 . S
C50 H35 0.940 . S
C50 C49 1.378 . S
C50 C51 1.396 . S
C51 H36 0.940 . S
C51 C46 1.391 . S
C51 C50 1.396 . S
C52 P32 1.803 . S
C52 C53 1.378 . S
C52 C57 1.400 . S
C53 H37 0.939 . S
C53 C52 1.378 . S
C53 C54 1.361 . S
C54 H38 0.942 . S
C54 C53 1.361 . S
C54 C55 1.369 . S
C55 C54 1.369 . S
C55 C56 1.404 . S
C56 H39 0.940 . S
C56 C55 1.404 . S
C56 C57 1.389 . S
C57 H40 0.939 . S
C57 C52 1.400 . S
C57 C56 1.389 . S
C58 P32 1.819 . S
C58 C59 1.391 . S
C58 C63 1.391 . S
C59 H41 0.941 . S
C59 C58 1.391 . S
C59 C60 1.396 . S
C60 H44 0.939 . S
C60 C59 1.396 . S
C60 C61 1.397 . S
C61 C60 1.397 . S
C61 C62 1.385 . S
C62 H45 0.940 . S
C62 C61 1.385 . S
C62 C63 1.388 . S
C63 H42 0.939 . S
C63 C58 1.391 . S
C63 C62 1.388 . S
P64 O75 1.490 1_654 S
P64 C78 1.812 . S
P64 C84 1.803 . S
P64 C90 1.819 1_655 S
H65 C79 0.941 . S
H66 C80 0.939 . S
H67 C82 0.940 . S
H68 C83 0.940 . S
H69 C85 0.939 . S
H70 C86 0.942 . S
H71 C88 0.940 . S
H72 C89 0.939 . S
H73 C91 0.941 . S
H74 C95 0.939 . S
O75 P64 1.490 1_456 S
H76 C92 0.939 . S
H77 C94 0.940 . S
C78 P64 1.812 . S
C78 C79 1.389 1_554 S
C78 C83 1.391 . S
C79 H65 0.941 . S
C79 C78 1.389 1_556 S
C79 C80 1.397 . S
C80 H66 0.939 . S
C80 C79 1.397 . S
C80 C81 1.378 . S
C81 C80 1.378 . S
C81 C82 1.378 1_556 S
C82 H67 0.940 . S
C82 C81 1.378 1_554 S
C82 C83 1.396 . S
C83 H68 0.940 . S
C83 C78 1.391 . S
C83 C82 1.396 . S
C84 P64 1.803 . S
C84 C85 1.378 . S
C84 C89 1.400 . S
C85 H69 0.939 . S
C85 C84 1.378 . S
C85 C86 1.361 . S
C86 H70 0.942 . S
C86 C85 1.361 . S
C86 C87 1.369 . S
C87 C86 1.369 . S
C87 C88 1.404 . S
C88 H71 0.940 . S
C88 C87 1.404 . S
C88 C89 1.389 . S
C89 H72 0.939 . S
C89 C84 1.400 . S
C89 C88 1.389 . S
C90 P64 1.819 1_455 S
C90 C91 1.391 . S
C90 C95 1.391 1_455 S
C91 H73 0.941 . S
C91 C90 1.391 . S
C91 C92 1.396 . S
C92 H76 0.939 . S
C92 C91 1.396 . S
C92 C93 1.397 . S
C93 C92 1.397 . S
C93 C94 1.385 1_455 S
C94 H77 0.940 . S
C94 C93 1.385 1_655 S
C94 C95 1.388 . S
C95 H74 0.939 . S
C95 C90 1.391 1_655 S
C95 C94 1.388 . S
P96 O107 1.490 . S
P96 C110 1.812 . S
P96 C116 1.803 . S
P96 C122 1.819 . S
H97 C111 0.941 . S
H98 C112 0.939 . S
H99 C114 0.940 . S
H100 C115 0.940 . S
H101 C117 0.939 . S
H102 C118 0.942 . S
H103 C120 0.940 . S
H104 C121 0.939 . S
H105 C123 0.941 . S
H106 C127 0.939 . S
O107 P96 1.490 . S
H108 C124 0.939 . S
H109 C126 0.940 . S
C110 P96 1.812 . S
C110 C111 1.389 . S
C110 C115 1.391 . S
C111 H97 0.941 . S
C111 C110 1.389 . S
C111 C112 1.397 . S
C112 H98 0.939 . S
C112 C111 1.397 . S
C112 C113 1.378 . S
C113 C112 1.378 . S
C113 C114 1.378 . S
C114 H99 0.940 . S
C114 C113 1.378 . S
C114 C115 1.396 . S
C115 H100 0.940 . S
C115 C110 1.391 . S
C115 C114 1.396 . S
C116 P96 1.803 . S
C116 C117 1.378 . S
C116 C121 1.400 . S
C117 H101 0.939 . S
C117 C116 1.378 . S
C117 C118 1.361 . S
C118 H102 0.942 . S
C118 C117 1.361 . S
C118 C119 1.369 . S
C119 C118 1.369 . S
C119 C120 1.404 . S
C120 H103 0.940 . S
C120 C119 1.404 . S
C120 C121 1.389 . S
C121 H104 0.939 . S
C121 C116 1.400 . S
C121 C120 1.389 . S
C122 P96 1.819 . S
C122 C123 1.391 . S
C122 C127 1.391 . S
C123 H105 0.941 . S
C123 C122 1.391 . S
C123 C124 1.396 . S
C124 H108 0.939 . S
C124 C123 1.396 . S
C124 C125 1.397 . S
C125 C124 1.397 . S
C125 C126 1.385 . S
C126 H109 0.940 . S
C126 C125 1.385 . S
C126 C127 1.388 . S
C127 H106 0.939 . S
C127 C122 1.391 . S
C127 C126 1.388 . S
P128 O139 1.490 . S
P128 C142 1.812 . S
P128 C148 1.803 . S
P128 C154 1.819 . S
H129 C143 0.941 . S
H130 C144 0.939 . S
H131 C146 0.940 . S
H132 C147 0.940 . S
H133 C149 0.939 . S
H134 C150 0.942 . S
H135 C152 0.940 . S
H136 C153 0.939 . S
H137 C155 0.941 . S
H138 C159 0.935 1_655 S
O139 P128 1.490 . S
H140 C156 0.939 . S
H141 C158 0.940 . S
C142 P128 1.812 . S
C142 C143 1.389 . S
C142 C147 1.391 1_565 S
C143 H129 0.941 . S
C143 C142 1.389 . S
C143 C144 1.397 1_565 S
C144 H130 0.939 . S
C144 C143 1.397 1_545 S
C144 C145 1.378 . S
C145 C144 1.378 . S
C145 C146 1.378 . S
C146 H131 0.940 . S
C146 C145 1.378 . S
C146 C147 1.396 . S
C147 H132 0.940 . S
C147 C142 1.391 1_545 S
C147 C146 1.396 . S
C148 P128 1.803 . S
C148 C149 1.378 . S
C148 C153 1.400 . S
C149 H133 0.939 . S
C149 C148 1.378 . S
C149 C150 1.361 . S
C150 H134 0.942 . S
C150 C149 1.361 . S
C150 C151 1.369 . S
C151 C150 1.369 . S
C151 C152 1.404 . S
C152 H135 0.940 . S
C152 C151 1.404 . S
C152 C153 1.389 . S
C153 H136 0.939 . S
C153 C148 1.400 . S
C153 C152 1.389 . S
C154 P128 1.819 . S
C154 C155 1.391 . S
C154 C159 1.391 . S
C155 H137 0.941 . S
C155 C154 1.391 . S
C155 C156 1.396 . S
C156 H140 0.939 . S
C156 C155 1.396 . S
C156 C157 1.397 1_455 S
C157 C156 1.397 1_655 S
C157 C158 1.385 . S
C158 H141 0.940 . S
C158 C157 1.385 . S
C158 C159 1.388 1_655 S
C159 H138 0.935 1_455 S
C159 C154 1.391 . S
C159 C158 1.388 1_455 S
P160 O171 1.490 . S
P160 C174 1.812 . S
P160 C180 1.803 . S
P160 C186 1.819 . S
H161 C175 0.941 . S
H162 C176 0.939 . S
H163 C178 0.940 . S
H164 C179 0.940 . S
H165 C181 0.939 . S
H166 C182 0.942 . S
H167 C184 0.940 . S
H168 C185 0.939 . S
H169 C187 0.941 . S
H170 C191 0.939 . S
O171 P160 1.490 . S
H172 C188 0.939 . S
H173 C190 0.940 . S
C174 P160 1.812 . S
C174 C175 1.389 . S
C174 C179 1.391 . S
C175 H161 0.941 . S
C175 C174 1.389 . S
C175 C176 1.397 . S
C176 H162 0.939 . S
C176 C175 1.397 . S
C176 C177 1.378 . S
C177 C176 1.378 . S
C177 C178 1.378 . S
C178 H163 0.940 . S
C178 C177 1.378 . S
C178 C179 1.396 . S
C179 H164 0.940 . S
C179 C174 1.391 . S
C179 C178 1.396 . S
C180 P160 1.803 . S
C180 C181 1.378 . S
C180 C185 1.400 . S
C181 H165 0.939 . S
C181 C180 1.378 . S
C181 C182 1.361 . S
C182 H166 0.942 . S
C182 C181 1.361 . S
C182 C183 1.369 . S
C183 C182 1.369 . S
C183 C184 1.404 . S
C184 H167 0.940 . S
C184 C183 1.404 . S
C184 C185 1.389 . S
C185 H168 0.939 . S
C185 C180 1.400 . S
C185 C184 1.389 . S
C186 P160 1.819 . S
C186 C187 1.391 . S
C186 C191 1.391 . S
C187 H169 0.941 . S
C187 C186 1.391 . S
C187 C188 1.396 . S
C188 H172 0.939 . S
C188 C187 1.396 . S
C188 C189 1.397 . S
C189 C188 1.397 . S
C189 C190 1.385 . S
C190 H173 0.940 . S
C190 C189 1.385 . S
C190 C191 1.388 . S
C191 H170 0.939 . S
C191 C186 1.391 . S
C191 C190 1.388 . S
P192 O203 1.490 1_655 S
P192 C206 1.799 1_655 S
P192 C212 1.803 . S
P192 C218 1.819 . S
H193 C207 0.941 . S
H194 C208 0.939 . S
H195 C210 0.940 . S
H196 C211 0.940 . S
H197 C213 0.939 . S
H198 C214 0.942 . S
H199 C216 0.940 . S
H200 C217 0.939 . S
H201 C219 0.941 . S
H202 C223 0.939 . S
O203 P192 1.490 1_455 S
H204 C220 0.939 . S
H205 C222 0.940 . S
C206 P192 1.799 1_455 S
C206 C207 1.428 . S
C206 C211 1.367 1_455 S
C207 H193 0.941 . S
C207 C206 1.428 . S
C207 C208 1.397 . S
C208 H194 0.939 . S
C208 C207 1.397 . S
C208 C209 1.378 . S
C209 C208 1.378 . S
C209 C210 1.378 1_455 S
C210 H195 0.940 . S
C210 C209 1.378 1_655 S
C210 C211 1.396 . S
C211 H196 0.940 . S
C211 C206 1.367 1_655 S
C211 C210 1.396 . S
C212 P192 1.803 . S
C212 C213 1.378 . S
C212 C217 1.400 . S
C213 H197 0.939 . S
C213 C212 1.378 . S
C213 C214 1.361 . S
C214 H198 0.942 . S
C214 C213 1.361 . S
C214 C215 1.369 . S
C215 C214 1.369 . S
C215 C216 1.404 . S
C216 H199 0.940 . S
C216 C215 1.404 . S
C216 C217 1.389 . S
C217 H200 0.939 . S
C217 C212 1.400 . S
C217 C216 1.389 . S
C218 P192 1.819 . S
C218 C219 1.391 . S
C218 C223 1.391 . S
C219 H201 0.941 . S
C219 C218 1.391 . S
C219 C220 1.396 . S
C220 H204 0.939 . S
C220 C219 1.396 . S
C220 C221 1.397 . S
C221 C220 1.397 . S
C221 C222 1.385 . S
C222 H205 0.940 . S
C222 C221 1.385 . S
C222 C223 1.388 . S
C223 H202 0.939 . S
C223 C218 1.391 . S
C223 C222 1.388 . S
P224 O235 1.490 . S
P224 C238 1.812 . S
P224 C244 1.803 . S
P224 C250 1.819 . S
H225 C239 0.941 . S
H226 C240 0.939 . S
H227 C242 0.940 . S
H228 C243 0.940 . S
H229 C245 0.939 . S
H230 C246 0.942 . S
H231 C248 0.940 . S
H232 C249 0.939 . S
H233 C251 0.941 . S
H234 C255 0.939 . S
O235 P224 1.490 . S
H236 C252 0.939 . S
H237 C254 0.940 . S
C238 P224 1.812 . S
C238 C239 1.389 . S
C238 C243 1.391 . S
C239 H225 0.941 . S
C239 C238 1.389 . S
C239 C240 1.397 . S
C240 H226 0.939 . S
C240 C239 1.397 . S
C240 C241 1.378 . S
C241 C240 1.378 . S
C241 C242 1.378 . S
C242 H227 0.940 . S
C242 C241 1.378 . S
C242 C243 1.396 . S
C243 H228 0.940 . S
C243 C238 1.391 . S
C243 C242 1.396 . S
C244 P224 1.803 . S
C244 C245 1.378 . S
C244 C249 1.400 . S
C245 H229 0.939 . S
C245 C244 1.378 . S
C245 C246 1.361 . S
C246 H230 0.942 . S
C246 C245 1.361 . S
C246 C247 1.369 . S
C247 C246 1.369 . S
C247 C248 1.404 . S
C248 H231 0.940 . S
C248 C247 1.404 . S
C248 C249 1.389 . S
C249 H232 0.939 . S
C249 C244 1.400 . S
C249 C248 1.389 . S
C250 P224 1.819 . S
C250 C251 1.391 . S
C250 C255 1.391 . S
C251 H233 0.941 . S
C251 C250 1.391 . S
C251 C252 1.396 . S
C252 H236 0.939 . S
C252 C251 1.396 . S
C252 C253 1.397 . S
C253 C252 1.397 . S
C253 C254 1.385 . S
C254 H237 0.940 . S
C254 C253 1.385 . S
C254 C255 1.388 . S
C255 H234 0.939 . S
C255 C250 1.391 . S
C255 C254 1.388 . S
P256 O267 1.490 . S
P256 C270 1.812 . S
P256 C276 1.803 . S
P256 C282 1.819 . S
H257 C271 0.941 . S
H258 C272 0.939 . S
H259 C274 0.940 . S
H260 C275 0.940 . S
H261 C277 0.939 . S
H262 C278 0.942 . S
H263 C280 0.940 . S
H264 C281 0.939 . S
H265 C283 0.941 . S
H266 C287 0.939 . S
O267 P256 1.490 . S
H268 C284 0.939 . S
H269 C286 0.940 . S
C270 P256 1.812 . S
C270 C271 1.389 . S
C270 C275 1.391 . S
C271 H257 0.941 . S
C271 C270 1.389 . S
C271 C272 1.397 . S
C272 H258 0.939 . S
C272 C271 1.397 . S
C272 C273 1.378 . S
C273 C272 1.378 . S
C273 C274 1.378 . S
C274 H259 0.940 . S
C274 C273 1.378 . S
C274 C275 1.396 . S
C275 H260 0.940 . S
C275 C270 1.391 . S
C275 C274 1.396 . S
C276 P256 1.803 . S
C276 C277 1.378 . S
C276 C281 1.400 . S
C277 H261 0.939 . S
C277 C276 1.378 . S
C277 C278 1.361 . S
C278 H262 0.942 . S
C278 C277 1.361 . S
C278 C279 1.369 . S
C279 C278 1.369 . S
C279 C280 1.404 . S
C280 H263 0.940 . S
C280 C279 1.404 . S
C280 C281 1.389 . S
C281 H264 0.939 . S
C281 C276 1.400 . S
C281 C280 1.389 . S
C282 P256 1.819 . S
C282 C283 1.391 . S
C282 C287 1.391 . S
C283 H265 0.941 . S
C283 C282 1.391 . S
C283 C284 1.396 . S
C284 H268 0.939 . S
C284 C283 1.396 . S
C284 C285 1.397 . S
C285 C284 1.397 . S
C285 C286 1.385 . S
C286 H269 0.940 . S
C286 C285 1.385 . S
C286 C287 1.388 . S
C287 H266 0.939 . S
C287 C282 1.391 . S
C287 C286 1.388 . S
P288 O299 1.490 1_565 S
P288 C302 1.812 . S
P288 C308 1.803 1_565 S
P288 C314 1.819 . S
H289 C303 0.941 . S
H290 C304 0.939 . S
H291 C306 0.940 . S
H292 C307 0.940 . S
H293 C309 0.939 . S
H294 C310 0.942 . S
H295 C312 0.940 . S
H296 C313 0.939 . S
H297 C315 0.941 . S
H298 C319 0.950 . S
O299 P288 1.490 1_545 S
H300 C316 0.939 . S
H301 C318 0.940 . S
C302 P288 1.812 . S
C302 C303 1.389 . S
C302 C307 1.391 . S
C303 H289 0.941 . S
C303 C302 1.389 . S
C303 C304 1.397 . S
C304 H290 0.939 . S
C304 C303 1.397 . S
C304 C305 1.378 . S
C305 C304 1.378 . S
C305 C306 1.378 . S
C306 H291 0.940 . S
C306 C305 1.378 . S
C306 C307 1.396 . S
C307 H292 0.940 . S
C307 C302 1.391 . S
C307 C306 1.396 . S
C308 P288 1.803 1_545 S
C308 C309 1.378 . S
C308 C313 1.400 1_545 S
C309 H293 0.939 . S
C309 C308 1.378 . S
C309 C310 1.361 . S
C310 H294 0.942 . S
C310 C309 1.361 . S
C310 C311 1.369 . S
C311 C310 1.369 . S
C311 C312 1.404 1_545 S
C312 H295 0.940 . S
C312 C311 1.404 1_565 S
C312 C313 1.389 . S
C313 H296 0.939 . S
C313 C308 1.400 1_565 S
C313 C312 1.389 . S
C314 P288 1.819 . S
C314 C315 1.391 . S
C314 C319 1.391 . S
C315 H297 0.941 . S
C315 C314 1.391 . S
C315 C316 1.396 . S
C316 H300 0.939 . S
C316 C315 1.396 . S
C316 C317 1.397 . S
C317 C316 1.397 . S
C317 C318 1.385 . S
C318 H301 0.940 . S
C318 C317 1.385 . S
C318 C319 1.388 . S
C319 H298 0.950 . S
C319 C314 1.391 . S
C319 C318 1.388 . S
P320 O331 1.490 . S
P320 C334 1.812 . S
P320 C340 1.803 . S
P320 C346 1.819 . S
H321 C335 0.941 . S
H322 C336 0.939 . S
H323 C338 0.940 . S
H324 C339 0.940 . S
H325 C341 0.939 . S
H326 C342 0.942 . S
H327 C344 0.940 . S
H328 C345 0.939 . S
H329 C347 0.941 . S
H330 C351 0.939 . S
O331 P320 1.490 . S
H332 C348 0.939 . S
H333 C350 0.940 . S
C334 P320 1.812 . S
C334 C335 1.389 . S
C334 C339 1.391 . S
C335 H321 0.941 . S
C335 C334 1.389 . S
C335 C336 1.397 . S
C336 H322 0.939 . S
C336 C335 1.397 . S
C336 C337 1.378 . S
C337 C336 1.378 . S
C337 C338 1.378 . S
C338 H323 0.940 . S
C338 C337 1.378 . S
C338 C339 1.396 . S
C339 H324 0.940 . S
C339 C334 1.391 . S
C339 C338 1.396 . S
C340 P320 1.803 . S
C340 C341 1.378 . S
C340 C345 1.400 . S
C341 H325 0.939 . S
C341 C340 1.378 . S
C341 C342 1.361 . S
C342 H326 0.942 . S
C342 C341 1.361 . S
C342 C343 1.369 . S
C343 C342 1.369 . S
C343 C344 1.404 . S
C344 H327 0.940 . S
C344 C343 1.404 . S
C344 C345 1.389 . S
C345 H328 0.939 . S
C345 C340 1.400 . S
C345 C344 1.389 . S
C346 P320 1.819 . S
C346 C347 1.391 . S
C346 C351 1.391 . S
C347 H329 0.941 . S
C347 C346 1.391 . S
C347 C348 1.396 . S
C348 H332 0.939 . S
C348 C347 1.396 . S
C348 C349 1.397 . S
C349 C348 1.397 . S
C349 C350 1.385 . S
C350 H333 0.940 . S
C350 C349 1.385 . S
C350 C351 1.388 . S
C351 H330 0.939 . S
C351 C346 1.391 . S
C351 C350 1.388 . S
P352 O363 1.490 . S
P352 C366 1.812 . S
P352 C372 1.803 . S
P352 C378 1.819 . S
H353 C367 0.941 . S
H354 C368 0.939 . S
H355 C370 0.940 . S
H356 C371 0.940 . S
H357 C373 0.939 . S
H358 C374 0.942 . S
H359 C376 0.940 . S
H360 C377 0.939 . S
H361 C379 0.941 . S
H362 C383 0.939 . S
O363 P352 1.490 . S
H364 C380 0.939 . S
H365 C382 0.940 . S
C366 P352 1.812 . S
C366 C367 1.389 . S
C366 C371 1.391 . S
C367 H353 0.941 . S
C367 C366 1.389 . S
C367 C368 1.397 . S
C368 H354 0.939 . S
C368 C367 1.397 . S
C368 C369 1.378 . S
C369 C368 1.378 . S
C369 C370 1.378 . S
C370 H355 0.940 . S
C370 C369 1.378 . S
C370 C371 1.396 . S
C371 H356 0.940 . S
C371 C366 1.391 . S
C371 C370 1.396 . S
C372 P352 1.803 . S
C372 C373 1.378 . S
C372 C377 1.400 . S
C373 H357 0.939 . S
C373 C372 1.378 . S
C373 C374 1.361 . S
C374 H358 0.942 . S
C374 C373 1.361 . S
C374 C375 1.369 . S
C375 C374 1.369 . S
C375 C376 1.404 . S
C376 H359 0.940 . S
C376 C375 1.404 . S
C376 C377 1.389 . S
C377 H360 0.939 . S
C377 C372 1.400 . S
C377 C376 1.389 . S
C378 P352 1.819 . S
C378 C379 1.391 . S
C378 C383 1.391 . S
C379 H361 0.941 . S
C379 C378 1.391 . S
C379 C380 1.396 . S
C380 H364 0.939 . S
C380 C379 1.396 . S
C380 C381 1.397 . S
C381 C380 1.397 . S
C381 C382 1.385 . S
C382 H365 0.940 . S
C382 C381 1.385 . S
C382 C383 1.388 . S
C383 H362 0.939 . S
C383 C378 1.391 . S
C383 C382 1.388 . S
P384 O395 1.490 . S
P384 C398 1.812 . S
P384 C404 1.803 . S
P384 C410 1.819 . S
H385 C399 0.941 . S
H386 C400 0.939 . S
H387 C402 0.940 . S
H388 C403 0.940 . S
H389 C405 0.939 . S
H390 C406 0.942 . S
H391 C408 0.940 . S
H392 C409 0.939 . S
H393 C411 0.941 . S
H394 C415 0.939 . S
O395 P384 1.490 . S
H396 C412 0.939 . S
H397 C414 0.940 . S
C398 P384 1.812 . S
C398 C399 1.389 . S
C398 C403 1.391 . S
C399 H385 0.941 . S
C399 C398 1.389 . S
C399 C400 1.397 . S
C400 H386 0.939 . S
C400 C399 1.397 . S
C400 C401 1.378 . S
C401 C400 1.378 . S
C401 C402 1.378 . S
C402 H387 0.940 . S
C402 C401 1.378 . S
C402 C403 1.396 . S
C403 H388 0.940 . S
C403 C398 1.391 . S
C403 C402 1.396 . S
C404 P384 1.803 . S
C404 C405 1.378 . S
C404 C409 1.400 . S
C405 H389 0.939 . S
C405 C404 1.378 . S
C405 C406 1.361 . S
C406 H390 0.942 . S
C406 C405 1.361 . S
C406 C407 1.369 . S
C407 C406 1.369 . S
C407 C408 1.404 . S
C408 H391 0.940 . S
C408 C407 1.404 . S
C408 C409 1.389 . S
C409 H392 0.939 . S
C409 C404 1.400 . S
C409 C408 1.389 . S
C410 P384 1.819 . S
C410 C411 1.391 . S
C410 C415 1.391 . S
C411 H393 0.941 . S
C411 C410 1.391 . S
C411 C412 1.396 . S
C412 H396 0.939 . S
C412 C411 1.396 . S
C412 C413 1.397 . S
C413 C412 1.397 . S
C413 C414 1.385 . S
C414 H397 0.940 . S
C414 C413 1.385 . S
C414 C415 1.388 . S
C415 H394 0.939 . S
C415 C410 1.391 . S
C415 C414 1.388 . S
P416 O427 1.490 . S
P416 C430 1.812 . S
P416 C436 1.803 . S
P416 C442 1.819 . S
H417 C431 0.941 . S
H418 C432 0.939 . S
H419 C434 0.940 . S
H420 C435 0.940 . S
H421 C437 0.939 . S
H422 C438 0.942 . S
H423 C440 0.940 . S
H424 C441 0.939 1_554 S
H425 C443 0.941 . S
H426 C447 0.939 . S
O427 P416 1.490 . S
H428 C444 0.939 . S
H429 C446 0.940 . S
C430 P416 1.812 . S
C430 C431 1.389 . S
C430 C435 1.391 . S
C431 H417 0.941 . S
C431 C430 1.389 . S
C431 C432 1.397 . S
C432 H418 0.939 . S
C432 C431 1.397 . S
C432 C433 1.378 . S
C433 C432 1.378 . S
C433 C434 1.378 . S
C434 H419 0.940 . S
C434 C433 1.378 . S
C434 C435 1.396 . S
C435 H420 0.940 . S
C435 C430 1.391 . S
C435 C434 1.396 . S
C436 P416 1.803 . S
C436 C437 1.378 . S
C436 C441 1.399 . S
C437 H421 0.939 . S
C437 C436 1.378 . S
C437 C438 1.361 . S
C438 H422 0.942 . S
C438 C437 1.361 . S
C438 C439 1.369 1_556 S
C439 C438 1.369 1_554 S
C439 C440 1.404 . S
C440 H423 0.940 . S
C440 C439 1.404 . S
C440 C441 1.390 1_554 S
C441 H424 0.939 1_556 S
C441 C436 1.399 . S
C441 C440 1.390 1_556 S
C442 P416 1.819 . S
C442 C443 1.391 . S
C442 C447 1.391 . S
C443 H425 0.941 . S
C443 C442 1.391 . S
C443 C444 1.396 . S
C444 H428 0.939 . S
C444 C443 1.396 . S
C444 C445 1.397 . S
C445 C444 1.397 . S
C445 C446 1.385 . S
C446 H429 0.940 . S
C446 C445 1.385 . S
C446 C447 1.388 . S
C447 H426 0.939 . S
C447 C442 1.391 . S
C447 C446 1.388 . S
P448 O459 1.490 . S
P448 C462 1.812 . S
P448 C468 1.803 . S
P448 C474 1.819 . S
H449 C463 0.941 . S
H450 C464 0.939 . S
H451 C466 0.940 . S
H452 C467 0.940 . S
H453 C469 0.939 . S
H454 C470 0.942 . S
H455 C472 0.940 . S
H456 C473 0.939 . S
H457 C475 0.941 . S
H458 C479 0.939 . S
O459 P448 1.490 . S
H460 C476 0.939 . S
H461 C478 0.940 . S
C462 P448 1.812 . S
C462 C463 1.389 . S
C462 C467 1.391 . S
C463 H449 0.941 . S
C463 C462 1.389 . S
C463 C464 1.397 . S
C464 H450 0.939 . S
C464 C463 1.397 . S
C464 C465 1.378 . S
C465 C464 1.378 . S
C465 C466 1.378 . S
C466 H451 0.940 . S
C466 C465 1.378 . S
C466 C467 1.396 . S
C467 H452 0.940 . S
C467 C462 1.391 . S
C467 C466 1.396 . S
C468 P448 1.803 . S
C468 C469 1.378 . S
C468 C473 1.400 . S
C469 H453 0.939 . S
C469 C468 1.378 . S
C469 C470 1.361 . S
C470 H454 0.942 . S
C470 C469 1.361 . S
C470 C471 1.369 . S
C471 C470 1.369 . S
C471 C472 1.404 . S
C472 H455 0.940 . S
C472 C471 1.404 . S
C472 C473 1.389 . S
C473 H456 0.939 . S
C473 C468 1.400 . S
C473 C472 1.389 . S
C474 P448 1.819 . S
C474 C475 1.391 . S
C474 C479 1.391 . S
C475 H457 0.941 . S
C475 C474 1.391 . S
C475 C476 1.396 . S
C476 H460 0.939 . S
C476 C475 1.396 . S
C476 C477 1.397 . S
C477 C476 1.397 . S
C477 C478 1.385 . S
C478 H461 0.940 . S
C478 C477 1.385 . S
C478 C479 1.388 . S
C479 H458 0.939 . S
C479 C474 1.391 . S
C479 C478 1.388 . S
P480 O491 1.490 1_556 S
P480 C494 1.812 . S
P480 C500 1.803 1_556 S
P480 C506 1.819 . S
H481 C495 0.941 . S
H482 C496 0.939 . S
H483 C498 0.940 . S
H484 C499 0.940 . S
H485 C501 0.939 . S
H486 C502 0.942 . S
H487 C504 0.940 1_556 S
H488 C505 0.939 . S
H489 C507 0.941 . S
H490 C511 0.939 1_554 S
O491 P480 1.490 1_554 S
H492 C508 0.939 . S
H493 C510 0.940 . S
C494 P480 1.812 . S
C494 C495 1.389 . S
C494 C499 1.391 . S
C495 H481 0.941 . S
C495 C494 1.389 . S
C495 C496 1.397 . S
C496 H482 0.939 . S
C496 C495 1.397 . S
C496 C497 1.378 . S
C497 C496 1.378 . S
C497 C498 1.378 . S
C498 H483 0.940 . S
C498 C497 1.378 . S
C498 C499 1.396 . S
C499 H484 0.940 . S
C499 C494 1.391 . S
C499 C498 1.396 . S
C500 P480 1.803 1_554 S
C500 C501 1.378 . S
C500 C505 1.400 1_554 S
C501 H485 0.939 . S
C501 C500 1.378 . S
C501 C502 1.361 . S
C502 H486 0.942 . S
C502 C501 1.361 . S
C502 C503 1.369 . S
C503 C502 1.369 . S
C503 C504 1.404 . S
C504 H487 0.940 1_554 S
C504 C503 1.404 . S
C504 C505 1.389 1_554 S
C505 H488 0.939 . S
C505 C500 1.400 1_556 S
C505 C504 1.389 1_556 S
C506 P480 1.819 . S
C506 C507 1.391 1_545 S
C506 C511 1.391 . S
C507 H489 0.941 . S
C507 C506 1.391 1_565 S
C507 C508 1.396 . S
C508 H492 0.939 . S
C508 C507 1.396 . S
C508 C509 1.397 . S
C509 C508 1.397 . S
C509 C510 1.385 1_565 S
C510 H493 0.940 . S
C510 C509 1.385 1_545 S
C510 C511 1.388 . S
C511 H490 0.939 1_556 S
C511 C506 1.391 . S
C511 C510 1.388 . S
C512 O513 1.160 1_554 S
C512 O519 1.185 . S
O513 C512 1.160 1_556 S
O514 Zn515 1.899 1_556 S
O514 C522 1.284 . S
Zn515 O514 1.899 1_554 S
Zn515 O516 2.032 . S
Zn515 O519 2.086 . S
Zn515 O524 1.977 . S
O516 Zn515 2.032 . S
O516 C520 1.278 . S
C517 O518 1.203 . S
C517 O524 1.267 . S
O518 C517 1.203 . S
O519 C512 1.185 . S
O519 Zn515 2.086 . S
C520 O516 1.278 . S
C520 O521 1.211 . S
O521 C520 1.211 . S
C522 O514 1.284 . S
C522 O523 1.273 . S
O523 C522 1.273 . S
O524 Zn515 1.977 . S
O524 C517 1.267 . S
C525 O526 1.160 . S
C525 O532 1.185 . S
O526 C525 1.160 . S
O527 Zn528 1.899 . S
O527 C535 1.284 . S
Zn528 O527 1.899 . S
Zn528 O529 2.032 . S
Zn528 O532 2.086 . S
Zn528 O537 1.977 . S
O529 Zn528 2.032 . S
O529 C533 1.278 . S
C530 O531 1.203 . S
C530 O537 1.267 . S
O531 C530 1.203 . S
O532 C525 1.185 . S
O532 Zn528 2.086 . S
C533 O529 1.278 . S
C533 O534 1.211 . S
O534 C533 1.211 . S
C535 O527 1.284 . S
C535 O536 1.273 . S
O536 C535 1.273 . S
O537 Zn528 1.977 . S
O537 C530 1.267 . S
C538 O539 1.160 1_554 S
C538 O545 1.185 . S
O539 C538 1.160 1_556 S
O540 Zn541 1.899 1_556 S
O540 C548 1.284 . S
Zn541 O540 1.899 1_554 S
Zn541 O542 2.032 1_554 S
Zn541 O545 2.086 . S
Zn541 O550 1.977 . S
O542 Zn541 2.032 1_556 S
O542 C546 1.278 . S
C543 O544 1.203 . S
C543 O550 1.267 . S
O544 C543 1.203 . S
O545 C538 1.185 . S
O545 Zn541 2.086 . S
C546 O542 1.278 . S
C546 O547 1.211 1_556 S
O547 C546 1.211 1_554 S
C548 O540 1.284 . S
C548 O549 1.273 . S
O549 C548 1.273 . S
O550 Zn541 1.977 . S
O550 C543 1.267 . S
C551 O552 1.160 . S
C551 O558 1.185 . S
O552 C551 1.160 . S
O553 Zn554 1.899 . S
O553 C561 1.284 . S
Zn554 O553 1.899 . S
Zn554 O555 2.032 1_545 S
Zn554 O558 2.086 . S
Zn554 O563 1.977 . S
O555 Zn554 2.032 1_565 S
O555 C559 1.278 . S
C556 O557 1.203 . S
C556 O563 1.267 . S
O557 C556 1.203 . S
O558 C551 1.185 . S
O558 Zn554 2.086 . S
C559 O555 1.278 . S
C559 O560 1.211 . S
O560 C559 1.211 . S
C561 O553 1.284 . S
C561 O562 1.273 1_545 S
O562 C561 1.273 1_565 S
O563 Zn554 1.977 . S
O563 C556 1.267 . S
C564 O565 1.160 . S
C564 O571 1.185 . S
O565 C564 1.160 . S
O566 Zn567 1.899 . S
O566 C574 1.284 . S
Zn567 O566 1.899 . S
Zn567 O568 2.032 . S
Zn567 O571 2.086 . S
Zn567 O576 1.977 . S
O568 Zn567 2.032 . S
O568 C572 1.278 . S
C569 O570 1.203 . S
C569 O576 1.267 . S
O570 C569 1.203 . S
O571 C564 1.185 . S
O571 Zn567 2.086 . S
C572 O568 1.278 . S
C572 O573 1.211 . S
O573 C572 1.211 . S
C574 O566 1.284 . S
C574 O575 1.273 . S
O575 C574 1.273 . S
O576 Zn567 1.977 . S
O576 C569 1.267 . S
C577 O578 1.160 . S
C577 O584 1.185 . S
O578 C577 1.160 . S
O579 Zn580 1.899 . S
O579 C587 1.284 . S
Zn580 O579 1.899 . S
Zn580 O581 2.032 . S
Zn580 O584 2.086 . S
Zn580 O589 1.977 . S
O581 Zn580 2.032 . S
O581 C585 1.278 . S
C582 O583 1.203 . S
C582 O589 1.267 . S
O583 C582 1.203 . S
O584 C577 1.185 . S
O584 Zn580 2.086 . S
C585 O581 1.278 . S
C585 O586 1.211 . S
O586 C585 1.211 . S
C587 O579 1.284 . S
C587 O588 1.273 . S
O588 C587 1.273 . S
O589 Zn580 1.977 . S
O589 C582 1.267 . S
C590 O591 1.160 . S
C590 O597 1.185 . S
O591 C590 1.160 . S
O592 Zn593 1.899 . S
O592 C600 1.284 . S
Zn593 O592 1.899 . S
Zn593 O594 2.032 . S
Zn593 O597 2.086 . S
Zn593 O602 1.977 . S
O594 Zn593 2.032 . S
O594 C598 1.278 . S
C595 O596 1.203 . S
C595 O602 1.267 . S
O596 C595 1.203 . S
O597 C590 1.185 . S
O597 Zn593 2.086 . S
C598 O594 1.278 . S
C598 O599 1.211 . S
O599 C598 1.211 . S
C600 O592 1.284 . S
C600 O601 1.273 . S
O601 C600 1.273 . S
O602 Zn593 1.977 . S
O602 C595 1.267 . S
C603 O604 1.160 . S
C603 O610 1.185 . S
O604 C603 1.160 . S
O605 Zn606 1.899 . S
O605 C613 1.284 1_565 S
Zn606 O605 1.899 . S
Zn606 O607 2.032 1_565 S
Zn606 O610 2.086 . S
Zn606 O615 1.977 . S
O607 Zn606 2.032 1_545 S
O607 C611 1.278 . S
C608 O609 1.203 1_565 S
C608 O615 1.267 . S
O609 C608 1.203 1_545 S
O610 C603 1.185 . S
O610 Zn606 2.086 . S
C611 O607 1.278 . S
C611 O612 1.211 . S
O612 C611 1.211 . S
C613 O605 1.284 1_545 S
C613 O614 1.273 . S
O614 C613 1.273 . S
O615 Zn606 1.977 . S
O615 C608 1.267 . S
C616 O617 1.160 1_455 S
C616 O623 1.185 . S
O617 C616 1.160 1_655 S
O618 Zn619 1.899 1_655 S
O618 C626 1.284 . S
Zn619 O618 1.899 1_455 S
Zn619 O620 2.029 1_455 S
Zn619 O623 2.086 . S
Zn619 O628 1.977 . S
O620 Zn619 2.029 1_655 S
O620 C624 1.277 1_655 S
C621 O622 1.203 . S
C621 O628 1.267 . S
O622 C621 1.203 . S
O623 C616 1.185 . S
O623 Zn619 2.086 . S
C624 O620 1.277 1_455 S
C624 O625 1.211 . S
O625 C624 1.211 . S
C626 O618 1.284 . S
C626 O627 1.273 . S
O627 C626 1.273 . S
O628 Zn619 1.977 . S
O628 C621 1.267 . S
C629 O630 1.160 . S
C629 O636 1.185 . S
O630 C629 1.160 . S
O631 Zn632 1.899 . S
O631 C639 1.284 . S
Zn632 O631 1.899 . S
Zn632 O633 2.032 . S
Zn632 O636 2.086 . S
Zn632 O641 1.977 . S
O633 Zn632 2.032 . S
O633 C637 1.278 . S
C634 O635 1.203 . S
C634 O641 1.267 . S
O635 C634 1.203 . S
O636 C629 1.185 . S
O636 Zn632 2.086 . S
C637 O633 1.278 . S
C637 O638 1.211 . S
O638 C637 1.211 . S
C639 O631 1.284 . S
C639 O640 1.273 . S
O640 C639 1.273 . S
O641 Zn632 1.977 . S
O641 C634 1.267 . S
C642 O643 1.160 1_455 S
C642 O649 1.185 . S
O643 C642 1.160 1_655 S
O644 Zn645 1.899 1_655 S
O644 C652 1.284 . S
Zn645 O644 1.899 1_455 S
Zn645 O646 2.032 1_455 S
Zn645 O649 2.086 . S
Zn645 O654 1.977 . S
O646 Zn645 2.032 1_655 S
O646 C650 1.278 . S
C647 O648 1.203 . S
C647 O654 1.267 . S
O648 C647 1.203 . S
O649 C642 1.185 . S
O649 Zn645 2.086 . S
C650 O646 1.278 . S
C650 O651 1.211 1_655 S
O651 C650 1.211 1_455 S
C652 O644 1.284 . S
C652 O653 1.273 . S
O653 C652 1.273 . S
O654 Zn645 1.977 . S
O654 C647 1.267 . S
C655 O656 1.160 . S
C655 O662 1.185 . S
O656 C655 1.160 . S
O657 Zn658 1.899 . S
O657 C665 1.284 . S
Zn658 O657 1.899 . S
Zn658 O659 2.032 . S
Zn658 O662 2.086 . S
Zn658 O667 1.977 . S
O659 Zn658 2.032 . S
O659 C663 1.278 . S
C660 O661 1.203 . S
C660 O667 1.267 . S
O661 C660 1.203 . S
O662 C655 1.185 . S
O662 Zn658 2.086 . S
C663 O659 1.278 . S
C663 O664 1.211 . S
O664 C663 1.211 . S
C665 O657 1.284 . S
C665 O666 1.273 . S
O666 C665 1.273 . S
O667 Zn658 1.977 . S
O667 C660 1.267 . S
C668 C669 1.387 . S
C668 H672 0.950 . S
C668 C677 1.390 . S
C669 C668 1.387 . S
C669 C671 1.387 . S
H670 C677 0.950 . S
C671 C669 1.387 . S
C671 C673 1.390 . S
C671 H675 0.950 . S
H672 C668 0.950 . S
C673 C671 1.390 . S
C673 C674 1.387 . S
C673 H676 0.950 . S
C674 C673 1.387 . S
C674 C677 1.387 . S
H675 C671 0.950 . S
H676 C673 0.950 . S
C677 C668 1.390 . S
C677 H670 0.950 . S
C677 C674 1.387 . S
C678 C679 1.387 . S
C678 H682 0.950 . S
C678 C687 1.390 . S
C679 C678 1.387 . S
C679 C681 1.387 . S
H680 C687 0.950 . S
C681 C679 1.387 . S
C681 C683 1.390 . S
C681 H685 0.950 . S
H682 C678 0.950 . S
C683 C681 1.390 . S
C683 C684 1.387 . S
C683 H686 0.950 . S
C684 C683 1.387 . S
C684 C687 1.387 . S
H685 C681 0.950 . S
H686 C683 0.950 . S
C687 C678 1.390 . S
C687 H680 0.950 . S
C687 C684 1.387 . S
C688 C689 1.387 . S
C688 H692 0.950 . S
C688 C697 1.390 . S
C689 C688 1.387 . S
C689 C691 1.387 . S
H690 C697 0.950 . S
C691 C689 1.387 . S
C691 C693 1.390 . S
C691 H695 0.950 . S
H692 C688 0.950 . S
C693 C691 1.390 . S
C693 C694 1.387 . S
C693 H696 0.950 . S
C694 C693 1.387 . S
C694 C697 1.387 . S
H695 C691 0.950 . S
H696 C693 0.950 . S
C697 C688 1.390 . S
C697 H690 0.950 . S
C697 C694 1.387 . S
C698 C699 1.387 . S
C698 H702 0.950 . S
C698 C707 1.390 . S
C699 C698 1.387 . S
C699 C701 1.387 1_565 S
H700 C707 0.950 . S
C701 C699 1.387 1_545 S
C701 C703 1.390 . S
C701 H705 0.950 . S
H702 C698 0.950 . S
C703 C701 1.390 . S
C703 C704 1.391 . S
C703 H706 0.950 . S
C704 C703 1.391 . S
C704 C707 1.383 1_545 S
H705 C701 0.950 . S
H706 C703 0.950 . S
C707 C698 1.390 . S
C707 H700 0.950 . S
C707 C704 1.383 1_565 S
C708 C709 1.387 . S
C708 H712 0.950 . S
C708 C717 1.390 . S
C709 C708 1.387 . S
C709 C711 1.387 . S
H710 C717 0.950 . S
C711 C709 1.387 . S
C711 C713 1.390 . S
C711 H715 0.950 . S
H712 C708 0.950 . S
C713 C711 1.390 . S
C713 C714 1.387 . S
C713 H716 0.950 . S
C714 C713 1.387 . S
C714 C717 1.387 . S
H715 C711 0.950 . S
H716 C713 0.950 . S
C717 C708 1.390 . S
C717 H710 0.950 . S
C717 C714 1.387 . S
C718 C719 1.387 . S
C718 H722 0.950 . S
C718 C727 1.390 . S
C719 C718 1.387 . S
C719 C721 1.387 . S
H720 C727 0.950 . S
C721 C719 1.387 . S
C721 C723 1.390 . S
C721 H725 0.950 . S
H722 C718 0.950 . S
C723 C721 1.390 . S
C723 C724 1.387 . S
C723 H726 0.950 . S
C724 C723 1.387 . S
C724 C727 1.387 . S
H725 C721 0.950 . S
H726 C723 0.950 . S
C727 C718 1.390 . S
C727 H720 0.950 . S
C727 C724 1.387 . S
C728 C729 1.387 . S
C728 H732 0.950 . S
C728 C737 1.390 . S
C729 C728 1.387 . S
C729 C731 1.387 . S
H730 C737 0.950 . S
C731 C729 1.387 . S
C731 C733 1.390 . S
C731 H735 0.950 . S
H732 C728 0.950 . S
C733 C731 1.390 . S
C733 C734 1.387 . S
C733 H736 0.950 . S
C734 C733 1.387 . S
C734 C737 1.387 . S
H735 C731 0.950 . S
H736 C733 0.950 . S
C737 C728 1.390 . S
C737 H730 0.950 . S
C737 C734 1.387 . S
C738 C739 1.387 . S
C738 H742 0.950 . S
C738 C747 1.390 . S
C739 C738 1.387 . S
C739 C741 1.387 1_565 S
H740 C747 0.950 . S
C741 C739 1.387 1_545 S
C741 C743 1.390 . S
C741 H745 0.950 . S
H742 C738 0.950 . S
C743 C741 1.390 . S
C743 C744 1.387 1_545 S
C743 H746 0.950 . S
C744 C743 1.387 1_565 S
C744 C747 1.387 . S
H745 C741 0.950 . S
H746 C743 0.950 . S
C747 C738 1.390 . S
C747 H740 0.950 . S
C747 C744 1.387 . S
C748 C749 1.387 . S
C748 H752 0.950 . S
C748 C757 1.390 . S
C749 C748 1.387 . S
C749 C751 1.387 . S
H750 C757 0.950 . S
C751 C749 1.387 . S
C751 C753 1.390 . S
C751 H755 0.950 . S
H752 C748 0.950 . S
C753 C751 1.390 . S
C753 C754 1.387 . S
C753 H756 0.950 . S
C754 C753 1.387 . S
C754 C757 1.387 . S
H755 C751 0.950 . S
H756 C753 0.950 . S
C757 C748 1.390 . S
C757 H750 0.950 . S
C757 C754 1.387 . S
C758 C759 1.387 . S
C758 H762 0.950 . S
C758 C767 1.390 . S
C759 C758 1.387 . S
C759 C761 1.387 . S
H760 C767 0.950 . S
C761 C759 1.387 . S
C761 C763 1.390 . S
C761 H765 0.950 . S
H762 C758 0.950 . S
C763 C761 1.390 . S
C763 C764 1.387 . S
C763 H766 0.950 . S
C764 C763 1.387 . S
C764 C767 1.387 . S
H765 C761 0.950 . S
H766 C763 0.950 . S
C767 C758 1.390 . S
C767 H760 0.950 . S
C767 C764 1.387 . S
C768 C769 1.387 . S
C768 H772 0.950 . S
C768 C777 1.390 . S
C769 C768 1.387 . S
C769 C771 1.387 . S
H770 C777 0.950 . S
C771 C769 1.387 . S
C771 C773 1.390 . S
C771 H775 0.950 . S
H772 C768 0.950 . S
C773 C771 1.390 . S
C773 C774 1.387 . S
C773 H776 0.950 . S
C774 C773 1.387 . S
C774 C777 1.387 . S
H775 C771 0.950 . S
H776 C773 0.950 . S
C777 C768 1.390 . S
C777 H770 0.950 . S
C777 C774 1.387 . S
C778 C779 1.387 . S
C778 H782 0.950 . S
C778 C787 1.390 . S
C779 C778 1.387 . S
C779 C781 1.387 . S
H780 C787 0.950 . S
C781 C779 1.387 . S
C781 C783 1.390 . S
C781 H785 0.950 . S
H782 C778 0.950 . S
C783 C781 1.390 . S
C783 C784 1.387 . S
C783 H786 0.950 . S
C784 C783 1.387 . S
C784 C787 1.387 . S
H785 C781 0.950 . S
H786 C783 0.950 . S
C787 C778 1.390 . S
C787 H780 0.950 . S
C787 C784 1.387 . S
C788 C789 1.387 . S
C788 H792 0.950 . S
C788 C797 1.390 . S
C789 C788 1.387 . S
C789 C791 1.387 . S
H790 C797 0.950 . S
C791 C789 1.387 . S
C791 C793 1.390 . S
C791 H795 0.950 . S
H792 C788 0.950 . S
C793 C791 1.390 . S
C793 C794 1.387 . S
C793 H796 0.950 . S
C794 C793 1.387 . S
C794 C797 1.387 . S
H795 C791 0.950 . S
H796 C793 0.950 . S
C797 C788 1.390 . S
C797 H790 0.950 . S
C797 C794 1.387 . S
C798 C799 1.387 1_655 S
C798 H802 0.950 . S
C798 C807 1.390 . S
C799 C798 1.387 1_455 S
C799 C801 1.387 . S
H800 C807 0.950 . S
C801 C799 1.387 . S
C801 C803 1.390 . S
C801 H805 0.950 . S
H802 C798 0.950 . S
C803 C801 1.390 . S
C803 C804 1.387 . S
C803 H806 0.950 . S
C804 C803 1.387 . S
C804 C807 1.387 1_455 S
H805 C801 0.950 . S
H806 C803 0.950 . S
C807 C798 1.390 . S
C807 H800 0.950 . S
C807 C804 1.387 1_655 S
C808 C809 1.387 . S
C808 H812 0.950 . S
C808 C817 1.390 . S
C809 C808 1.387 . S
C809 C811 1.387 . S
H810 C817 0.950 . S
C811 C809 1.387 . S
C811 C813 1.390 . S
C811 H815 0.950 . S
H812 C808 0.950 . S
C813 C811 1.390 . S
C813 C814 1.387 . S
C813 H816 0.950 . S
C814 C813 1.387 . S
C814 C817 1.387 . S
H815 C811 0.950 . S
H816 C813 0.950 . S
C817 C808 1.390 . S
C817 H810 0.950 . S
C817 C814 1.387 . S
C818 C819 1.387 . S
C818 H822 0.950 . S
C818 C827 1.390 . S
C819 C818 1.387 . S
C819 C821 1.387 . S
H820 C827 0.950 . S
C821 C819 1.387 . S
C821 C823 1.390 . S
C821 H825 0.950 . S
H822 C818 0.950 . S
C823 C821 1.390 . S
C823 C824 1.387 . S
C823 H826 0.950 . S
C824 C823 1.387 . S
C824 C827 1.387 . S
H825 C821 0.950 . S
H826 C823 0.950 . S
C827 C818 1.390 . S
C827 H820 0.950 . S
C827 C824 1.387 . S
C828 C829 1.387 . S
C828 H832 0.950 . S
C828 C837 1.390 . S
C829 C828 1.387 . S
C829 C831 1.387 . S
H830 C837 0.950 . S
C831 C829 1.387 . S
C831 C833 1.390 . S
C831 H835 0.950 . S
H832 C828 0.950 . S
C833 C831 1.390 . S
C833 C834 1.387 . S
C833 H836 0.950 . S
C834 C833 1.387 . S
C834 C837 1.387 . S
H835 C831 0.950 . S
H836 C833 0.950 . S
C837 C828 1.390 . S
C837 H830 0.950 . S
C837 C834 1.387 . S
C838 C839 1.387 . S
C838 H842 0.950 . S
C838 C847 1.390 . S
C839 C838 1.387 . S
C839 C841 1.387 . S
H840 C847 0.950 . S
C841 C839 1.387 . S
C841 C843 1.390 . S
C841 H845 0.950 . S
H842 C838 0.950 . S
C843 C841 1.390 . S
C843 C844 1.387 . S
C843 H846 0.950 . S
C844 C843 1.387 . S
C844 C847 1.387 . S
H845 C841 0.950 . S
H846 C843 0.950 . S
C847 C838 1.390 . S
C847 H840 0.950 . S
C847 C844 1.387 . S
C848 C849 1.387 1_554 S
C848 H852 0.950 . S
C848 C857 1.390 . S
C849 C848 1.387 1_556 S
C849 C851 1.387 . S
H850 C857 0.950 . S
C851 C849 1.387 . S
C851 C853 1.390 . S
C851 H855 0.950 . S
H852 C848 0.950 . S
C853 C851 1.390 . S
C853 C854 1.411 . S
C853 H856 0.950 . S
C854 C853 1.411 . S
C854 C857 1.368 1_556 S
H855 C851 0.950 . S
H856 C853 0.950 . S
C857 C848 1.390 . S
C857 H850 0.950 . S
C857 C854 1.368 1_554 S
C858 C859 1.387 . S
C858 H862 0.950 . S
C858 C867 1.390 . S
C859 C858 1.387 . S
C859 C861 1.387 . S
H860 C867 0.950 . S
C861 C859 1.387 . S
C861 C863 1.390 . S
C861 H865 0.950 . S
H862 C858 0.950 . S
C863 C861 1.390 . S
C863 C864 1.387 . S
C863 H866 0.950 . S
C864 C863 1.387 . S
C864 C867 1.387 . S
H865 C861 0.950 . S
H866 C863 0.950 . S
C867 C858 1.390 . S
C867 H860 0.950 . S
C867 C864 1.387 . S
C868 C869 1.387 . S
C868 H872 0.950 . S
C868 C877 1.390 . S
C869 C868 1.387 . S
C869 C871 1.387 . S
H870 C877 0.950 . S
C871 C869 1.387 . S
C871 C873 1.390 . S
C871 H875 0.950 . S
H872 C868 0.950 . S
C873 C871 1.390 . S
C873 C874 1.387 . S
C873 H876 0.950 . S
C874 C873 1.387 . S
C874 C877 1.387 . S
H875 C871 0.950 . S
H876 C873 0.950 . S
C877 C868 1.390 . S
C877 H870 0.950 . S
C877 C874 1.387 . S
C878 C879 1.387 . S
C878 H882 0.950 . S
C878 C887 1.390 . S
C879 C878 1.387 . S
C879 C881 1.387 . S
H880 C887 0.950 . S
C881 C879 1.387 . S
C881 C883 1.390 . S
C881 H885 0.950 . S
H882 C878 0.950 . S
C883 C881 1.390 . S
C883 C884 1.387 . S
C883 H886 0.950 . S
C884 C883 1.387 . S
C884 C887 1.387 . S
H885 C881 0.950 . S
H886 C883 0.950 . S
C887 C878 1.390 . S
C887 H880 0.950 . S
C887 C884 1.387 . S
C888 C889 1.387 . S
C888 H892 0.950 . S
C888 C897 1.390 . S
C889 C888 1.387 . S
C889 C891 1.387 . S
H890 C897 0.950 . S
C891 C889 1.387 . S
C891 C893 1.390 . S
C891 H895 0.950 . S
H892 C888 0.950 . S
C893 C891 1.390 . S
C893 C894 1.387 . S
C893 H896 0.950 . S
C894 C893 1.387 . S
C894 C897 1.387 . S
H895 C891 0.950 . S
H896 C893 0.950 . S
C897 C888 1.390 . S
C897 H890 0.950 . S
C897 C894 1.387 . S
C898 C899 1.387 . S
C898 H902 0.950 . S
C898 C907 1.390 . S
C899 C898 1.387 . S
C899 C901 1.387 . S
H900 C907 0.950 . S
C901 C899 1.387 . S
C901 C903 1.390 . S
C901 H905 0.950 . S
H902 C898 0.950 . S
C903 C901 1.390 . S
C903 C904 1.387 . S
C903 H906 0.950 . S
C904 C903 1.387 . S
C904 C907 1.387 . S
H905 C901 0.950 . S
H906 C903 0.950 . S
C907 C898 1.390 . S
C907 H900 0.950 . S
C907 C904 1.387 . S
C908 C909 1.387 . S
C908 H912 0.950 . S
C908 C917 1.390 . S
C909 C908 1.387 . S
C909 C911 1.387 . S
H910 C917 0.950 . S
C911 C909 1.387 . S
C911 C913 1.390 . S
C911 H915 0.950 . S
H912 C908 0.950 . S
C913 C911 1.390 . S
C913 C914 1.387 . S
C913 H916 0.950 . S
C914 C913 1.387 . S
C914 C917 1.387 . S
H915 C911 0.950 . S
H916 C913 0.950 . S
C917 C908 1.390 . S
C917 H910 0.950 . S
C917 C914 1.387 . S
C918 C919 1.387 1_565 S
C918 H922 0.950 . S
C918 C927 1.390 . S
C919 C918 1.387 1_545 S
C919 C921 1.387 . S
H920 C927 0.950 . S
C921 C919 1.387 . S
C921 C923 1.390 . S
C921 H925 0.950 . S
H922 C918 0.950 . S
C923 C921 1.390 . S
C923 C924 1.387 . S
C923 H926 0.950 . S
C924 C923 1.387 . S
C924 C927 1.387 1_545 S
H925 C921 0.950 . S
H926 C923 0.950 . S
C927 C918 1.390 . S
C927 H920 0.950 . S
C927 C924 1.387 1_565 S
C928 C929 1.387 . S
C928 H932 0.950 . S
C928 C937 1.390 . S
C929 C928 1.387 . S
C929 C931 1.387 . S
H930 C937 0.950 . S
C931 C929 1.387 . S
C931 C933 1.390 . S
C931 H935 0.950 . S
H932 C928 0.950 . S
C933 C931 1.390 . S
C933 C934 1.387 . S
C933 H936 0.950 . S
C934 C933 1.387 . S
C934 C937 1.387 . S
H935 C931 0.950 . S
H936 C933 0.950 . S
C937 C928 1.390 . S
C937 H930 0.950 . S
C937 C934 1.387 . S
C938 C939 1.387 . S
C938 H942 0.950 . S
C938 C947 1.390 . S
C939 C938 1.387 . S
C939 C941 1.387 . S
H940 C947 0.950 . S
C941 C939 1.387 . S
C941 C943 1.390 . S
C941 H945 0.950 . S
H942 C938 0.950 . S
C943 C941 1.390 . S
C943 C944 1.387 . S
C943 H946 0.950 . S
C944 C943 1.387 . S
C944 C947 1.387 . S
H945 C941 0.950 . S
H946 C943 0.950 . S
C947 C938 1.390 . S
C947 H940 0.950 . S
C947 C944 1.387 . S
C948 C949 1.387 . S
C948 H952 0.950 . S
C948 C957 1.390 . S
C949 C948 1.387 . S
C949 C951 1.387 . S
H950 C957 0.950 . S
C951 C949 1.387 . S
C951 C953 1.390 . S
C951 H955 0.950 . S
H952 C948 0.950 . S
C953 C951 1.390 . S
C953 C954 1.387 . S
C953 H956 0.950 . S
C954 C953 1.387 . S
C954 C957 1.387 . S
H955 C951 0.950 . S
H956 C953 0.950 . S
C957 C948 1.390 . S
C957 H950 0.950 . S
C957 C954 1.387 . S
C958 C959 1.387 . S
C958 H962 0.950 1_545 S
C958 C967 1.395 . S
C959 C958 1.387 . S
C959 C961 1.387 . S
H960 C967 0.917 1_565 S
C961 C959 1.387 . S
C961 C963 1.390 . S
C961 H965 0.950 . S
H962 C958 0.950 1_565 S
C963 C961 1.390 . S
C963 C964 1.387 . S
C963 H966 0.950 . S
C964 C963 1.387 . S
C964 C967 1.416 . S
H965 C961 0.950 . S
H966 C963 0.950 . S
C967 C958 1.395 . S
C967 H960 0.917 1_545 S
C967 C964 1.416 . S
C968 C969 1.387 . S
C968 H972 0.950 . S
C968 C977 1.390 . S
C969 C968 1.387 . S
C969 C971 1.387 . S
H970 C977 0.950 . S
C971 C969 1.387 . S
C971 C973 1.390 . S
C971 H975 0.950 . S
H972 C968 0.950 . S
C973 C971 1.390 . S
C973 C974 1.387 . S
C973 H976 0.950 . S
C974 C973 1.387 . S
C974 C977 1.387 . S
H975 C971 0.950 . S
H976 C973 0.950 . S
C977 C968 1.390 . S
C977 H970 0.950 . S
C977 C974 1.387 . S
C978 C979 1.387 . S
C978 H982 0.950 . S
C978 C987 1.390 . S
C979 C978 1.387 . S
C979 C981 1.387 . S
H980 C987 0.950 . S
C981 C979 1.387 . S
C981 C983 1.390 . S
C981 H985 0.950 . S
H982 C978 0.950 . S
C983 C981 1.390 . S
C983 C984 1.387 . S
C983 H986 0.950 . S
C984 C983 1.387 . S
C984 C987 1.387 . S
H985 C981 0.950 . S
H986 C983 0.950 . S
C987 C978 1.390 . S
C987 H980 0.950 . S
C987 C984 1.387 . S
C988 C989 1.387 . S
C988 H992 0.950 . S
C988 C997 1.390 . S
C989 C988 1.387 . S
C989 C991 1.387 . S
H990 C997 0.950 . S
C991 C989 1.387 . S
C991 C993 1.390 . S
C991 H995 0.950 . S
H992 C988 0.950 . S
C993 C991 1.390 . S
C993 C994 1.387 . S
C993 H996 0.950 . S
C994 C993 1.387 . S
C994 C997 1.387 . S
H995 C991 0.950 . S
H996 C993 0.950 . S
C997 C988 1.390 . S
C997 H990 0.950 . S
C997 C994 1.387 . S
C998 C999 1.387 1_455 S
C998 H1002 0.950 . S
C998 C1007 1.390 . S
C999 C998 1.387 1_655 S
C999 C1001 1.387 . S
H1000 C1007 0.950 . S
C1001 C999 1.387 . S
C1001 C1003 1.390 . S
C1001 H1005 0.950 . S
H1002 C998 0.950 . S
C1003 C1001 1.390 . S
C1003 C1004 1.387 . S
C1003 H1006 0.950 . S
C1004 C1003 1.387 . S
C1004 C1007 1.387 1_655 S
H1005 C1001 0.950 . S
H1006 C1003 0.950 . S
C1007 C998 1.390 . S
C1007 H1000 0.950 . S
C1007 C1004 1.387 1_455 S
C1008 C1009 1.387 . S
C1008 H1012 0.950 . S
C1008 C1017 1.390 . S
C1009 C1008 1.387 . S
C1009 C1011 1.387 . S
H1010 C1017 0.950 . S
C1011 C1009 1.387 . S
C1011 C1013 1.390 . S
C1011 H1015 0.950 . S
H1012 C1008 0.950 . S
C1013 C1011 1.390 . S
C1013 C1014 1.387 . S
C1013 H1016 0.950 . S
C1014 C1013 1.387 . S
C1014 C1017 1.387 . S
H1015 C1011 0.950 . S
H1016 C1013 0.950 . S
C1017 C1008 1.390 . S
C1017 H1010 0.950 . S
C1017 C1014 1.387 . S
C1018 C1019 1.387 . S
C1018 H1022 0.950 . S
C1018 C1027 1.390 . S
C1019 C1018 1.387 . S
C1019 C1021 1.387 1_455 S
H1020 C1027 0.950 . S
C1021 C1019 1.387 1_655 S
C1021 C1023 1.390 . S
C1021 H1025 0.950 . S
H1022 C1018 0.950 . S
C1023 C1021 1.390 . S
C1023 C1024 1.387 1_655 S
C1023 H1026 0.950 . S
C1024 C1023 1.387 1_455 S
C1024 C1027 1.387 . S
H1025 C1021 0.950 . S
H1026 C1023 0.950 . S
C1027 C1018 1.390 . S
C1027 H1020 0.950 . S
C1027 C1024 1.387 . S
C1028 C1029 1.387 . S
C1028 H1032 0.950 . S
C1028 C1037 1.390 . S
C1029 C1028 1.387 . S
C1029 C1031 1.387 . S
H1030 C1037 0.950 . S
C1031 C1029 1.387 . S
C1031 C1033 1.390 . S
C1031 H1035 0.950 . S
H1032 C1028 0.950 . S
C1033 C1031 1.390 . S
C1033 C1034 1.387 . S
C1033 H1036 0.950 . S
C1034 C1033 1.387 . S
C1034 C1037 1.387 . S
H1035 C1031 0.950 . S
H1036 C1033 0.950 . S
C1037 C1028 1.390 . S
C1037 H1030 0.950 . S
C1037 C1034 1.387 . S
C1038 C1039 1.387 . S
C1038 H1042 0.950 . S
C1038 C1047 1.390 . S
C1039 C1038 1.387 . S
C1039 C1041 1.387 . S
H1040 C1047 0.950 . S
C1041 C1039 1.387 . S
C1041 C1043 1.390 . S
C1041 H1045 0.950 . S
H1042 C1038 0.950 . S
C1043 C1041 1.390 . S
C1043 C1044 1.387 . S
C1043 H1046 0.950 . S
C1044 C1043 1.387 . S
C1044 C1047 1.387 . S
H1045 C1041 0.950 . S
H1046 C1043 0.950 . S
C1047 C1038 1.390 . S
C1047 H1040 0.950 . S
C1047 C1044 1.387 . S
C1048 C1049 1.387 . S
C1048 H1052 0.950 . S
C1048 C1057 1.390 . S
C1049 C1048 1.387 . S
C1049 C1051 1.387 . S
H1050 C1057 0.950 . S
C1051 C1049 1.387 . S
C1051 C1053 1.390 . S
C1051 H1055 0.950 . S
H1052 C1048 0.950 . S
C1053 C1051 1.390 . S
C1053 C1054 1.387 . S
C1053 H1056 0.950 . S
C1054 C1053 1.387 . S
C1054 C1057 1.387 . S
H1055 C1051 0.950 . S
H1056 C1053 0.950 . S
C1057 C1048 1.390 . S
C1057 H1050 0.950 . S
C1057 C1054 1.387 . S
C1058 C1059 1.387 . S
C1058 H1062 0.950 . S
C1058 C1067 1.390 . S
C1059 C1058 1.387 . S
C1059 C1061 1.387 . S
H1060 C1067 0.950 . S
C1061 C1059 1.387 . S
C1061 C1063 1.390 . S
C1061 H1065 0.950 . S
H1062 C1058 0.950 . S
C1063 C1061 1.390 . S
C1063 C1064 1.387 . S
C1063 H1066 0.950 . S
C1064 C1063 1.387 . S
C1064 C1067 1.387 . S
H1065 C1061 0.950 . S
H1066 C1063 0.950 . S
C1067 C1058 1.390 . S
C1067 H1060 0.950 . S
C1067 C1064 1.387 . S
C1068 C1069 1.387 . S
C1068 H1072 0.950 . S
C1068 C1077 1.390 . S
C1069 C1068 1.387 . S
C1069 C1071 1.387 . S
H1070 C1077 0.950 . S
C1071 C1069 1.387 . S
C1071 C1073 1.390 . S
C1071 H1075 0.950 . S
H1072 C1068 0.950 . S
C1073 C1071 1.390 . S
C1073 C1074 1.387 . S
C1073 H1076 0.950 . S
C1074 C1073 1.387 . S
C1074 C1077 1.387 . S
H1075 C1071 0.950 . S
H1076 C1073 0.950 . S
C1077 C1068 1.390 . S
C1077 H1070 0.950 . S
C1077 C1074 1.387 . S
C1078 C1079 1.387 . S
C1078 H1082 0.950 . S
C1078 C1087 1.390 . S
C1079 C1078 1.387 . S
C1079 C1081 1.387 . S
H1080 C1087 0.950 . S
C1081 C1079 1.387 . S
C1081 C1083 1.390 . S
C1081 H1085 0.950 . S
H1082 C1078 0.950 . S
C1083 C1081 1.390 . S
C1083 C1084 1.387 . S
C1083 H1086 0.950 . S
C1084 C1083 1.387 . S
C1084 C1087 1.387 . S
H1085 C1081 0.950 . S
H1086 C1083 0.950 . S
C1087 C1078 1.390 . S
C1087 H1080 0.950 . S
C1087 C1084 1.387 . S
C1088 C1089 1.387 . S
C1088 H1092 0.950 . S
C1088 C1097 1.390 . S
C1089 C1088 1.387 . S
C1089 C1091 1.387 . S
H1090 C1097 0.950 . S
C1091 C1089 1.387 . S
C1091 C1093 1.390 . S
C1091 H1095 0.950 . S
H1092 C1088 0.950 . S
C1093 C1091 1.390 . S
C1093 C1094 1.387 . S
C1093 H1096 0.950 . S
C1094 C1093 1.387 . S
C1094 C1097 1.387 . S
H1095 C1091 0.950 . S
H1096 C1093 0.950 . S
C1097 C1088 1.390 . S
C1097 H1090 0.950 . S
C1097 C1094 1.387 . S
C1098 C1099 1.387 . S
C1098 H1102 0.950 . S
C1098 C1107 1.390 . S
C1099 C1098 1.387 . S
C1099 C1101 1.387 . S
H1100 C1107 0.950 . S
C1101 C1099 1.387 . S
C1101 C1103 1.390 . S
C1101 H1105 0.950 . S
H1102 C1098 0.950 . S
C1103 C1101 1.390 . S
C1103 C1104 1.387 . S
C1103 H1106 0.950 . S
C1104 C1103 1.387 . S
C1104 C1107 1.387 . S
H1105 C1101 0.950 . S
H1106 C1103 0.950 . S
C1107 C1098 1.390 . S
C1107 H1100 0.950 . S
C1107 C1104 1.387 . S
C1108 C1109 1.387 . S
C1108 H1112 0.950 . S
C1108 C1117 1.390 . S
C1109 C1108 1.387 . S
C1109 C1111 1.387 . S
H1110 C1117 0.950 . S
C1111 C1109 1.387 . S
C1111 C1113 1.390 . S
C1111 H1115 0.950 . S
H1112 C1108 0.950 . S
C1113 C1111 1.390 . S
C1113 C1114 1.387 . S
C1113 H1116 0.950 . S
C1114 C1113 1.387 . S
C1114 C1117 1.387 . S
H1115 C1111 0.950 . S
H1116 C1113 0.950 . S
C1117 C1108 1.390 . S
C1117 H1110 0.950 . S
C1117 C1114 1.387 . S
C1118 C1119 1.387 . S
C1118 H1122 0.950 . S
C1118 C1127 1.390 . S
C1119 C1118 1.387 . S
C1119 C1121 1.387 . S
H1120 C1127 0.950 . S
C1121 C1119 1.387 . S
C1121 C1123 1.390 . S
C1121 H1125 0.950 . S
H1122 C1118 0.950 . S
C1123 C1121 1.390 . S
C1123 C1124 1.387 . S
C1123 H1126 0.950 . S
C1124 C1123 1.387 . S
C1124 C1127 1.387 . S
H1125 C1121 0.950 . S
H1126 C1123 0.950 . S
C1127 C1118 1.390 . S
C1127 H1120 0.950 . S
C1127 C1124 1.387 . S
C1128 C1129 1.387 . S
C1128 H1132 0.950 . S
C1128 C1137 1.390 . S
C1129 C1128 1.387 . S
C1129 C1131 1.387 1_554 S
H1130 C1137 0.950 . S
C1131 C1129 1.387 1_556 S
C1131 C1133 1.390 . S
C1131 H1135 0.950 . S
H1132 C1128 0.950 . S
C1133 C1131 1.390 . S
C1133 C1134 1.387 1_556 S
C1133 H1136 0.950 . S
C1134 C1133 1.387 1_554 S
C1134 C1137 1.387 . S
H1135 C1131 0.950 . S
H1136 C1133 0.950 . S
C1137 C1128 1.390 . S
C1137 H1130 0.950 . S
C1137 C1134 1.387 . S
C1138 C1139 1.387 . S
C1138 H1142 0.950 1_554 S
C1138 C1147 1.390 . S
C1139 C1138 1.387 . S
C1139 C1141 1.387 . S
H1140 C1147 0.950 1_556 S
C1141 C1139 1.387 . S
C1141 C1143 1.390 . S
C1141 H1145 0.950 . S
H1142 C1138 0.950 1_556 S
C1143 C1141 1.390 . S
C1143 C1144 1.387 . S
C1143 H1146 0.950 . S
C1144 C1143 1.387 . S
C1144 C1147 1.387 . S
H1145 C1141 0.950 . S
H1146 C1143 0.950 . S
C1147 C1138 1.390 . S
C1147 H1140 0.950 1_554 S
C1147 C1144 1.387 . S
C674 C522 1.413 . S
C669 C177 1.380 . S
C684 C535 1.598 . S
C679 C209 1.590 . S
C689 C253 1.402 . S
C694 C548 1.423 . S
C704 C561 1.524 . S
C699 C157 1.498 . S
C714 C569 1.475 . S
C709 C343 1.490 . S
C724 C582 1.420 . S
C719 C401 1.405 . S
C729 C369 1.514 . S
C734 C595 1.512 . S
C744 C608 1.504 . S
C739 C317 1.496 . S
C749 C375 1.443 . S
C754 C626 1.455 . S
C764 C637 1.533 . S
C759 C305 1.551 . S
C769 C349 1.475 . S
C774 C621 1.462 . S
C784 C629 1.462 . S
C779 C413 1.455 . S
C789 C241 1.462 . S
C794 C652 1.478 . S
C799 C151 1.457 . S
C804 C642 1.457 . S
C809 C189 1.473 . S
C814 C647 1.487 . S
C819 C215 1.536 . S
C824 C650 1.522 . S
C829 C113 1.444 . S
C834 C559 1.429 . S
C839 C471 1.399 . S
C844 C551 1.419 . S
C854 C520 1.530 1_556 S
C849 C509 1.538 . S
C864 C525 1.495 . S
C859 C279 1.483 . S
C869 C145 1.471 . S
C874 C572 1.474 . S
C884 C611 1.541 . S
C879 C381 1.539 . S
C894 C564 1.492 . S
C889 C311 1.504 . S
C904 C590 1.444 . S
C899 C407 1.442 . S
C914 C600 1.414 . S
C909 C465 1.378 . S
C919 C497 1.589 . S
C924 C613 1.598 . S
C929 C285 1.403 . S
C934 C574 1.423 . S
C944 C587 1.525 . S
C939 C445 1.499 . S
C949 C119 1.489 . S
C954 C543 1.476 . S
C964 C556 1.419 . S
C959 C17 1.408 . S
C974 C517 1.510 . S
C969 C49 1.515 . S
C984 C530 1.503 . S
C979 C93 1.496 . S
C989 C55 1.445 . S
C994 C639 1.456 . S
C999 C81 1.551 . S
C1004 C624 1.533 1_655 S
C1009 C125 1.474 . S
C1014 C634 1.462 . S
C1019 C29 1.453 . S
C1024 C616 1.460 . S
C1034 C665 1.478 . S
C1029 C273 1.462 . S
C1044 C655 1.456 . S
C1039 C439 1.456 . S
C1054 C660 1.485 . S
C1049 C477 1.470 . S
C1059 C503 1.536 . S
C1064 C663 1.522 . S
C1069 C337 1.444 . S
C1074 C585 1.429 . S
C1084 C577 1.419 . S
C1079 C183 1.398 . S
C1094 C598 1.535 . S
C1089 C221 1.540 . S
C1104 C603 1.495 . S
C1099 C247 1.485 . S
C1109 C433 1.469 . S
C1114 C546 1.472 . S
C1124 C533 1.539 . S
C1119 C61 1.539 . S
C1129 C87 1.506 . S
C1134 C538 1.490 . S
C1144 C512 1.444 . S
C1139 C23 1.442 . S
