# Generated by pormake.
# Topology zzz, (3,6)-cn, num edge types: 1
# Building blocks:
#     Node 0, Type 0, BuildingBlock: BETDIP_clean_linker_0, # of connection points: 3
#     Node 1, Type 0, BuildingBlock: BETDIP_clean_linker_0, # of connection points: 3
#     Node 2, Type 0, BuildingBlock: BETDIP_clean_linker_0, # of connection points: 3
#     Node 3, Type 0, BuildingBlock: BETDIP_clean_linker_0, # of connection points: 3
#     Node 4, Type 0, BuildingBlock: BETDIP_clean_linker_0, # of connection points: 3
#     Node 5, Type 0, BuildingBlock: BETDIP_clean_linker_0, # of connection points: 3
#     Node 6, Type 0, BuildingBlock: BETDIP_clean_linker_0, # of connection points: 3
#     Node 7, Type 0, BuildingBlock: BETDIP_clean_linker_0, # of connection points: 3
#     Node 8, Type 1, BuildingBlock: BETGAK_clean_sbu_0, # of connection points: 6
#     Node 9, Type 1, BuildingBlock: BETGAK_clean_sbu_0, # of connection points: 6
#     Node 10, Type 1, BuildingBlock: BETGAK_clean_sbu_0, # of connection points: 6
#     Node 11, Type 1, BuildingBlock: BETGAK_clean_sbu_0, # of connection points: 6
#     Edge 12, Type (0, 1), BuildingBlock: XUDNAN_clean_linker_2, # of connection points: 2
#     Edge 13, Type (0, 1), BuildingBlock: XUDNAN_clean_linker_2, # of connection points: 2
#     Edge 14, Type (0, 1), BuildingBlock: XUDNAN_clean_linker_2, # of connection points: 2
#     Edge 15, Type (0, 1), BuildingBlock: XUDNAN_clean_linker_2, # of connection points: 2
#     Edge 16, Type (0, 1), BuildingBlock: XUDNAN_clean_linker_2, # of connection points: 2
#     Edge 17, Type (0, 1), BuildingBlock: XUDNAN_clean_linker_2, # of connection points: 2
#     Edge 18, Type (0, 1), BuildingBlock: XUDNAN_clean_linker_2, # of connection points: 2
#     Edge 19, Type (0, 1), BuildingBlock: XUDNAN_clean_linker_2, # of connection points: 2
#     Edge 20, Type (0, 1), BuildingBlock: XUDNAN_clean_linker_2, # of connection points: 2
#     Edge 21, Type (0, 1), BuildingBlock: XUDNAN_clean_linker_2, # of connection points: 2
#     Edge 22, Type (0, 1), BuildingBlock: XUDNAN_clean_linker_2, # of connection points: 2
#     Edge 23, Type (0, 1), BuildingBlock: XUDNAN_clean_linker_2, # of connection points: 2
#     Edge 24, Type (0, 1), BuildingBlock: XUDNAN_clean_linker_2, # of connection points: 2
#     Edge 25, Type (0, 1), BuildingBlock: XUDNAN_clean_linker_2, # of connection points: 2
#     Edge 26, Type (0, 1), BuildingBlock: XUDNAN_clean_linker_2, # of connection points: 2
#     Edge 27, Type (0, 1), BuildingBlock: XUDNAN_clean_linker_2, # of connection points: 2
#     Edge 28, Type (0, 1), BuildingBlock: XUDNAN_clean_linker_2, # of connection points: 2
#     Edge 29, Type (0, 1), BuildingBlock: XUDNAN_clean_linker_2, # of connection points: 2
#     Edge 30, Type (0, 1), BuildingBlock: XUDNAN_clean_linker_2, # of connection points: 2
#     Edge 31, Type (0, 1), BuildingBlock: XUDNAN_clean_linker_2, # of connection points: 2
#     Edge 32, Type (0, 1), BuildingBlock: XUDNAN_clean_linker_2, # of connection points: 2
#     Edge 33, Type (0, 1), BuildingBlock: XUDNAN_clean_linker_2, # of connection points: 2
#     Edge 34, Type (0, 1), BuildingBlock: XUDNAN_clean_linker_2, # of connection points: 2
#     Edge 35, Type (0, 1), BuildingBlock: XUDNAN_clean_linker_2, # of connection points: 2
# Relax obj value: 0.281
# Max RMSD: 0.193
# Mean RMSD: 0.160
data_MOF--net-zzz--node1-BETGAK_clean_sbu_0--node2-BETDIP_clean_linker_0--edge1-XUDNAN_clean_linker_2
_symmetry_space_group_name_H-M    P1
_symmetry_Int_Tables_number       1
_symmetry_cell_setting            triclinic
loop_
_symmetry_equiv_pos_as_xyz
'x, y, z'
_cell_length_a     52.595516
_cell_length_b     52.678771
_cell_length_c     13.370653
_cell_angle_alpha  89.894745
_cell_angle_beta   89.407978
_cell_angle_gamma 90.011042
loop_
_atom_site_label
_atom_site_type_symbol
_atom_site_fract_x
_atom_site_fract_y
_atom_site_fract_z
_atom_type_partial_charge
H0 H 0.77812 0.53531 0.40044 0.0
H1 H 0.75531 0.47264 0.2144 0.0
H2 H 0.82591 0.46947 0.3705 0.0
H3 H 0.74751 0.50985 0.11001 0.0
C4 C 0.73394 0.51709 0.16484 0.0
C5 C 0.78152 0.51642 0.37144 0.0
C6 C 0.80374 0.50278 0.40032 0.0
C7 C 0.76406 0.50576 0.30211 0.0
C8 C 0.76868 0.4812 0.26534 0.0
C9 C 0.7908 0.46791 0.28992 0.0
C10 C 0.80795 0.47887 0.35717 0.0
N11 N 0.74237 0.51964 0.2664 0.0
H12 H 1.00507 0.7732 0.47571 0.0
H13 H 0.99279 0.75345 0.16666 0.0
H14 H 0.99217 0.83128 0.25301 0.0
H15 H 0.9663 0.7217 0.2671 0.0
C16 C 0.98482 0.71517 0.29193 0.0
C17 C 1.0009 0.77884 0.39974 0.0
C18 C 0.99798 0.80517 0.37563 0.0
C19 C 0.99784 0.75981 0.32472 0.0
C20 C 0.9934 0.76742 0.22603 0.0
C21 C 0.99103 0.79289 0.20144 0.0
C22 C 0.9929 0.81151 0.27557 0.0
N23 N 1.00019 0.73313 0.34498 0.0
H24 H 0.7839 1.01617 0.52374 0.0
H25 H 0.80807 0.04141 0.22993 0.0
H26 H 0.7307 0.05125 0.32191 0.0
H27 H 0.82455 0.99087 0.27389 0.0
C28 C 0.83663 1.00422 0.3132 0.0
C29 C 0.77973 0.02547 0.45352 0.0
C30 C 0.75427 0.0334 0.43282 0.0
C31 C 0.7994 0.02825 0.37921 0.0
C32 C 0.79359 0.03973 0.28793 0.0
C33 C 0.76918 0.04819 0.26873 0.0
C34 C 0.74982 0.04523 0.34053 0.0
N35 N 0.82475 0.01881 0.39151 0.0
H36 H 0.52803 0.7718 0.40483 0.0
H37 H 0.59052 0.78204 0.1948 0.0
H38 H 0.58635 0.71514 0.37414 0.0
H39 H 0.58413 0.82255 0.21645 0.0
C40 C 0.56365 0.82475 0.22155 0.0
C41 C 0.5459 0.76555 0.37237 0.0
C42 C 0.55573 0.74123 0.39761 0.0
C43 C 0.55902 0.78142 0.30209 0.0
C44 C 0.58139 0.77195 0.2558 0.0
C45 C 0.59158 0.74851 0.28375 0.0
C46 C 0.57896 0.73381 0.35583 0.0
N47 N 0.5489 0.8058 0.27368 0.0
H48 H 0.27136 0.52201 0.1133 0.0
H49 H 0.29267 0.48885 0.39543 0.0
H50 H 0.21659 0.48113 0.29636 0.0
H51 H 0.30945 0.54271 0.37337 0.0
C52 C 0.32147 0.52999 0.32985 0.0
C53 C 0.26613 0.51114 0.17903 0.0
C54 C 0.24074 0.50152 0.19087 0.0
C55 C 0.28482 0.50711 0.25457 0.0
C56 C 0.27855 0.49246 0.33859 0.0
C57 C 0.2544 0.48217 0.34943 0.0
C58 C 0.23564 0.48747 0.27869 0.0
N59 N 0.31013 0.51704 0.24713 0.0
H60 H 0.03205 0.2755 0.09403 0.0
H61 H 0.96885 0.29828 0.28173 0.0
H62 H 0.96933 0.22481 0.14451 0.0
H63 H 0.98185 0.33877 0.21733 0.0
C64 C 1.00126 0.3362 0.24253 0.0
C65 C 1.01343 0.27169 0.126 0.0
C66 C 1.00104 0.24829 0.10517 0.0
C67 C 1.00158 0.29029 0.1881 0.0
C68 C 0.97766 0.28478 0.23125 0.0
C69 C 0.96581 0.26128 0.21582 0.0
C70 C 0.97756 0.24355 0.15202 0.0
N71 N 1.01447 0.31341 0.21396 0.0
H72 H 0.26522 0.02214 0.97741 0.0
H73 H 0.24275 0.03988 0.28148 0.0
H74 H 0.3208 0.044 0.19767 0.0
H75 H 0.22089 0.99804 0.23671 0.0
C76 C 0.21016 1.01022 0.18666 0.0
C77 C 0.27016 0.02826 0.05196 0.0
C78 C 0.29613 0.03401 0.07508 0.0
C79 C 0.25064 0.02999 0.12741 0.0
C80 C 0.25717 0.03816 0.22335 0.0
C81 C 0.28216 0.04352 0.2465 0.0
C82 C 0.30136 0.04118 0.17405 0.0
N83 N 0.22456 0.02325 0.11027 0.0
H84 H 0.52861 0.27384 0.10381 0.0
H85 H 0.46865 0.2579 0.31855 0.0
H86 H 0.47089 0.32931 0.16617 0.0
H87 H 0.50605 0.24316 0.40119 0.0
C88 C 0.51076 0.22975 0.34208 0.0
C89 C 0.51118 0.27935 0.14167 0.0
C90 C 0.49995 0.30334 0.12073 0.0
C91 C 0.50009 0.26281 0.21452 0.0
C92 C 0.47747 0.27033 0.26367 0.0
C93 C 0.46659 0.29413 0.24572 0.0
C94 C 0.47803 0.31018 0.17456 0.0
N95 N 0.51189 0.23916 0.24129 0.0
La96 La 0.04123 0.02198 0.80785 0.0
La97 La 1.00308 0.0336 0.66942 0.0
C98 C 0.06605 1.00051 0.94357 0.0
C99 C 0.06523 0.97319 0.96827 0.0
C100 C 0.0806 0.95601 0.91431 0.0
C101 C 0.07269 0.93091 0.90182 0.0
C102 C 0.04926 0.92307 0.94211 0.0
C103 C 0.03639 0.93893 0.00994 0.0
C104 C 0.0445 0.96376 0.02398 0.0
C105 C 0.06131 0.03619 0.63307 0.0
C106 C 1.01779 0.97684 0.67629 0.0
C107 C 0.97616 0.05343 0.53516 0.0
C108 C 0.96153 0.0772 0.52932 0.0
C109 C 0.93697 0.07715 0.48917 0.0
C110 C 0.92281 0.09964 0.48488 0.0
C111 C 0.93298 0.12242 0.5218 0.0
C112 C 0.95748 0.12223 0.56278 0.0
C113 C 0.97158 0.09991 0.56662 0.0
C114 C 0.98342 0.01907 0.84487 0.0
C115 C 0.02689 0.07888 0.80436 0.0
O116 O 0.07567 1.00606 0.85578 0.0
O117 O 0.04488 1.01295 0.95991 0.0
O118 O 0.06928 0.043 0.72032 0.0
O119 O 0.04197 0.022 0.64558 0.0
O120 O 0.02843 0.98356 0.76171 0.0
O121 O 1.00866 0.99458 0.6169 0.0
O122 O 0.96759 0.03683 0.59965 0.0
O123 O 1.00094 0.05559 0.53865 0.0
O124 O 0.97524 1.01226 0.75817 0.0
O125 O 1.00235 0.03363 0.83116 0.0
O126 O 1.01163 0.07222 0.73023 0.0
O127 O 0.04027 0.06155 0.85127 0.0
H128 H 0.09713 0.96258 0.87273 0.0
H129 H 0.08338 0.91863 0.8519 0.0
H130 H 0.01896 0.93273 0.04643 0.0
H131 H 0.03278 0.97625 0.06934 0.0
H132 H 0.92882 0.05975 0.46067 0.0
H133 H 0.90408 0.09929 0.45197 0.0
H134 H 0.96626 0.1396 0.58833 0.0
H135 H 0.9905 0.10064 0.5974 0.0
La136 La 0.52854 0.03269 0.85899 0.0
La137 La 0.52139 1.00761 0.65266 0.0
C138 C 0.54242 0.03387 0.03685 0.0
C139 C 0.56907 0.03225 0.06734 0.0
C140 C 0.58022 0.05307 0.11483 0.0
C141 C 0.60636 0.05708 0.1061 0.0
C142 C 0.62155 0.0405 0.04847 0.0
C143 C 0.61071 0.01796 0.01261 0.0
C144 C 0.58477 1.01375 0.02289 0.0
C145 C 0.52437 0.06837 0.71794 0.0
C146 C 0.57725 0.02267 0.70939 0.0
C147 C 0.50195 1.00134 0.48643 0.0
C148 C 0.47745 1.01349 0.46549 0.0
C149 C 0.45704 0.99909 0.43057 0.0
C150 C 0.43212 1.00772 0.44505 0.0
C151 C 0.42729 0.03052 0.49739 0.0
C152 C 0.44793 0.04556 0.52603 0.0
C153 C 0.47263 0.03737 0.50858 0.0
C154 C 0.53298 0.97646 0.80045 0.0
C155 C 0.47222 0.02385 0.79481 0.0
O156 O 0.53696 0.0544 0.98593 0.0
O157 O 0.53319 1.01342 0.99509 0.0
O158 O 0.5262 0.07301 0.81304 0.0
O159 O 0.52414 0.04451 0.70949 0.0
O160 O 0.56828 0.02738 0.80156 0.0
O161 O 0.56191 1.01616 0.63552 0.0
O162 O 0.50064 0.98398 0.55671 0.0
O163 O 0.52097 1.01704 0.49988 0.0
O164 O 0.54015 0.97309 0.70786 0.0
O165 O 0.51878 0.99582 0.80419 0.0
O166 O 0.48175 1.01472 0.70906 0.0
O167 O 0.48713 0.032 0.86723 0.0
H168 H 0.56849 0.06745 0.1503 0.0
H169 H 0.61435 0.07395 0.13963 0.0
H170 H 0.62165 1.00456 0.96854 0.0
H171 H 0.5768 0.99731 0.98595 0.0
H172 H 0.46025 0.98051 0.39828 0.0
H173 H 0.41671 0.99606 0.41809 0.0
H174 H 0.4452 0.06301 0.56741 0.0
H175 H 0.48783 0.04869 0.53891 0.0
La176 La 0.5151 0.5306 0.86568 0.0
La177 La 0.5353 0.51536 0.65595 0.0
C178 C 0.51265 0.5406 0.04915 0.0
C179 C 0.52597 0.56104 0.10329 0.0
C180 C 0.51924 0.58652 0.08753 0.0
C181 C 0.53641 0.60584 0.10891 0.0
C182 C 0.56083 0.60009 0.14468 0.0
C183 C 0.56596 0.57503 0.17434 0.0
C184 C 0.54858 0.55565 0.15434 0.0
C185 C 0.47998 0.52578 0.72566 0.0
C186 C 0.53014 0.57396 0.71106 0.0
C187 C 0.53119 0.49989 0.48047 0.0
C188 C 0.51706 0.477 0.44955 0.0
C189 C 0.52331 0.45333 0.49103 0.0
C190 C 0.50602 0.43339 0.48897 0.0
C191 C 0.48195 0.43655 0.44582 0.0
C192 C 0.47696 0.45915 0.39333 0.0
C193 C 0.4943 0.47935 0.3961 0.0
C194 C 0.57404 0.5268 0.77753 0.0
C195 C 0.52517 0.47171 0.81826 0.0
O196 O 0.49536 0.54778 0.98505 0.0
O197 O 0.52748 0.52303 0.01143 0.0
O198 O 0.4784 0.54114 0.80107 0.0
O199 O 0.49973 0.51228 0.73609 0.0
O200 O 0.5287 0.56732 0.80708 0.0
O201 O 0.53032 0.55666 0.63878 0.0
O202 O 0.55155 0.49592 0.53441 0.0
O203 O 0.51693 0.51811 0.51758 0.0
O204 O 0.57679 0.51964 0.68493 0.0
O205 O 0.55036 0.52791 0.7923 0.0
O206 O 0.53255 0.47758 0.72584 0.0
O207 O 0.51682 0.48899 0.88297 0.0
H208 H 0.50154 0.59151 0.05175 0.0
H209 H 0.53095 0.62519 0.09204 0.0
H210 H 0.58409 0.56999 0.20619 0.0
H211 H 0.55395 0.5362 0.16996 0.0
H212 H 0.54087 0.45055 0.53121 0.0
H213 H 0.51128 0.41571 0.52464 0.0
H214 H 0.45903 0.46192 0.35591 0.0
H215 H 0.48908 0.49736 0.36286 0.0
La216 La 1.01463 0.5046 0.87606 0.0
La217 La 0.02806 0.53528 0.71261 0.0
C218 C 0.99441 0.48381 0.02666 0.0
C219 C 0.97399 0.46502 0.03581 0.0
C220 C 0.96813 0.44908 0.95512 0.0
C221 C 0.94751 0.43244 0.96164 0.0
C222 C 0.93233 0.43163 0.04866 0.0
C223 C 0.93888 0.44713 0.13037 0.0
C224 C 0.95953 0.46368 0.1238 0.0
C225 C 0.02958 0.47682 0.71992 0.0
C226 C 0.97045 0.5244 0.72618 0.0
C227 C 0.05153 0.54763 0.55765 0.0
C228 C 0.07353 0.53231 0.52488 0.0
C229 C 0.09806 0.54245 0.53246 0.0
C230 C 0.1189 0.52633 0.54432 0.0
C231 C 0.1155 0.49979 0.55088 0.0
C232 C 0.09129 0.48975 0.53256 0.0
C233 C 0.07066 0.50579 0.51795 0.0
C234 C 1.01377 0.56323 0.86896 0.0
C235 C 0.07169 0.51697 0.85928 0.0
O236 O 1.01517 0.47564 0.98335 0.0
O237 O 0.98766 0.50615 0.99325 0.0
O238 O 0.03508 0.47231 0.81192 0.0
O239 O 1.01553 0.4963 0.71768 0.0
O240 O 0.97638 0.51103 0.8073 0.0
O241 O 0.98831 0.53593 0.67379 0.0
O242 O 0.05473 0.55945 0.6426 0.0
O243 O 0.0296 0.53596 0.55544 0.0
O244 O 1.00912 0.5686 0.77632 0.0
O245 O 0.02724 0.54331 0.87138 0.0
O246 O 0.06553 0.52156 0.76539 0.0
O247 O 0.05327 0.51352 0.92558 0.0
H248 H 0.9791 0.44998 0.88613 0.0
H249 H 0.94296 0.42082 0.89752 0.0
H250 H 0.92727 0.44754 0.19772 0.0
H251 H 0.96373 0.47598 0.18638 0.0
H252 H 0.10085 0.56278 0.5378 0.0
H253 H 0.13749 0.53485 0.55238 0.0
H254 H 0.08779 0.46954 0.53536 0.0
H255 H 0.05206 0.49719 0.51114 0.0
H256 H 0.19919 0.02187 0.37963 0.0
H257 H 0.16412 1.01664 0.08916 0.0
H258 H 0.12163 0.02362 0.16877 0.0
H259 H 0.15245 0.99011 0.51936 0.0
H260 H 0.15459 1.01029 0.62766 0.0
H261 H 0.18177 1.00632 0.54638 0.0
H262 H 0.18462 0.05499 0.52086 0.0
H263 H 0.15761 0.05915 0.60317 0.0
H264 H 0.1571 0.07217 0.47843 0.0
H265 H 0.08171 0.02642 0.29012 0.0
H266 H 0.05076 0.0301 0.43167 0.0
H267 H 0.11339 0.03702 0.63762 0.0
C268 C 0.18261 0.0228 0.33236 0.0
C269 C 0.18504 0.01899 0.22788 0.0
C270 C 0.16283 0.01997 0.16894 0.0
C271 C 0.13858 0.02372 0.21397 0.0
C272 C 0.13684 0.02692 0.318 0.0
C273 C 0.15851 0.02707 0.37573 0.0
C274 C 0.15199 0.03088 0.48554 0.0
C275 C 0.16072 1.00804 0.54839 0.0
C276 C 0.16351 0.05578 0.52426 0.0
C277 C 0.12321 0.03239 0.48189 0.0
C278 C 0.1146 0.02981 0.38504 0.0
C279 C 0.08846 0.02895 0.36563 0.0
C280 C 0.07094 0.03099 0.44655 0.0
C281 C 0.07948 0.03429 0.54591 0.0
C282 C 0.10605 0.03506 0.56266 0.0
H283 H 0.50654 0.21107 0.5296 0.0
H284 H 0.5228 0.18703 0.22606 0.0
H285 H 0.52755 0.14249 0.28618 0.0
H286 H 0.55042 0.16973 0.65262 0.0
H287 H 0.52962 0.16433 0.75854 0.0
H288 H 0.52775 0.19368 0.68982 0.0
H289 H 0.47973 0.18597 0.66066 0.0
H290 H 0.48149 0.15654 0.72899 0.0
H291 H 0.46957 0.15681 0.60308 0.0
H292 H 0.53104 0.09951 0.38688 0.0
H293 H 0.5328 0.06471 0.51249 0.0
H294 H 0.51293 0.11814 0.746 0.0
C295 C 0.51117 0.19646 0.47547 0.0
C296 C 0.51439 0.20262 0.37303 0.0
C297 C 0.52032 0.18287 0.30487 0.0
C298 C 0.52301 0.15748 0.33861 0.0
C299 C 0.51961 0.15211 0.44067 0.0
C300 C 0.51379 0.17124 0.50772 0.0
C301 C 0.51096 0.16103 0.61334 0.0
C302 C 0.53088 0.17289 0.68263 0.0
C303 C 0.48383 0.16534 0.65386 0.0
C304 C 0.51615 0.13308 0.59637 0.0
C305 C 0.52112 0.12808 0.49655 0.0
C306 C 0.52689 0.10339 0.4648 0.0
C307 C 0.52764 0.0836 0.53657 0.0
C308 C 0.52243 0.08845 0.63897 0.0
C309 C 0.51671 0.11362 0.66827 0.0
H310 H 0.34868 0.56003 0.45495 0.0
H311 H 0.3534 0.48866 0.29563 0.0
H312 H 0.39469 0.47961 0.37746 0.0
H313 H 0.41658 0.5751 0.43892 0.0
H314 H 0.41698 0.58951 0.56105 0.0
H315 H 0.38837 0.5902 0.48813 0.0
H316 H 0.36357 0.56902 0.63437 0.0
H317 H 0.39211 0.56815 0.70748 0.0
H318 H 0.3747 0.5393 0.68461 0.0
H319 H 0.43407 0.47709 0.49332 0.0
H320 H 0.47078 0.48405 0.60621 0.0
H321 H 0.44044 0.55792 0.68409 0.0
C322 C 0.35858 0.54262 0.43616 0.0
C323 C 0.34778 0.52512 0.36822 0.0
C324 C 0.36132 0.50251 0.3463 0.0
C325 C 0.38475 0.49716 0.39318 0.0
C326 C 0.39466 0.51474 0.46106 0.0
C327 C 0.3821 0.53724 0.4809 0.0
C328 C 0.39671 0.55323 0.55553 0.0
C329 C 0.40516 0.57851 0.50806 0.0
C330 C 0.38082 0.55767 0.65115 0.0
C331 C 0.41938 0.53619 0.57592 0.0
C332 C 0.41784 0.51396 0.52152 0.0
C333 C 0.43608 0.49488 0.53246 0.0
C334 C 0.45677 0.49893 0.59735 0.0
C335 C 0.45889 0.52173 0.65271 0.0
C336 C 0.4397 0.54042 0.64181 0.0
H337 H 0.97966 0.3817 0.29302 0.0
H338 H 0.04678 0.33605 0.34577 0.0
H339 H 0.06224 0.36845 0.465 0.0
H340 H 1.01149 0.44396 0.30796 0.0
H341 H 0.98448 0.45872 0.36823 0.0
H342 H 0.97987 0.43242 0.28421 0.0
H343 H 0.9551 0.4086 0.42357 0.0
H344 H 0.96015 0.43457 0.50838 0.0
H345 H 0.97015 0.403 0.54217 0.0
H346 H 0.06872 0.40452 0.58876 0.0
H347 H 0.0665 0.44138 0.70244 0.0
H348 H 0.99609 0.46523 0.56549 0.0
C349 C 0.99779 0.37867 0.32882 0.0
C350 C 1.01207 0.35627 0.30945 0.0
C351 C 0.03557 0.353 0.35849 0.0
C352 C 0.04447 0.37135 0.42658 0.0
C353 C 0.0298 0.39308 0.44459 0.0
C354 C 1.00702 0.3969 0.39645 0.0
C355 C 0.99463 0.42165 0.43041 0.0
C356 C 0.9925 0.44032 0.34249 0.0
C357 C 0.96846 0.41664 0.47903 0.0
C358 C 1.0137 0.43098 0.50694 0.0
C359 C 0.03386 0.41418 0.51373 0.0
C360 C 0.05318 0.41787 0.5829 0.0
C361 C 0.05174 0.43891 0.64737 0.0
C362 C 0.03136 0.45645 0.64228 0.0
C363 C 1.01223 0.45253 0.56988 0.0
H364 H 0.85649 0.98205 0.14738 0.0
H365 H 0.87419 0.03931 0.36797 0.0
H366 H 0.91503 0.0482 0.2784 0.0
H367 H 0.92059 0.95825 0.10804 0.0
H368 H 0.91613 0.95354 0.9759 0.0
H369 H 0.8894 0.95123 0.06075 0.0
H370 H 0.86543 0.98534 0.95856 0.0
H371 H 0.89204 0.98771 0.87336 0.0
H372 H 0.88027 1.01569 0.93584 0.0
H373 H 0.95475 0.05085 0.15636 0.0
H374 H 0.98621 0.04847 0.01652 0.0
H375 H 0.94091 0.99001 0.87687 0.0
C376 C 0.86905 0.99633 0.17773 0.0
C377 C 0.86209 1.00983 0.26548 0.0
C378 C 0.87904 0.02856 0.30154 0.0
C379 C 0.90233 0.03369 0.25088 0.0
C380 C 0.9085 0.02 0.16397 0.0
C381 C 0.89213 1.00171 0.12801 0.0
C382 C 0.90226 0.99014 0.03156 0.0
C383 C 0.9074 0.9616 0.0449 0.0
C384 C 0.88391 0.99502 0.94472 0.0
C385 C 0.92688 1.00479 0.01744 0.0
C386 C 0.93044 0.02182 0.09472 0.0
C387 C 0.95196 0.0375 0.09603 0.0
C388 C 0.96986 0.03597 0.01629 0.0
C389 C 0.96618 0.01904 0.93529 0.0
C390 C 0.94444 1.00314 0.93741 0.0
H391 H 0.58569 0.85094 0.06919 0.0
H392 H 0.51783 0.85011 0.2554 0.0
H393 H 0.50314 0.88977 0.17249 0.0
H394 H 0.59555 0.91807 0.06117 0.0
H395 H 0.60571 0.91851 0.93204 0.0
H396 H 0.61078 0.89059 0.00717 0.0
H397 H 0.58642 0.86334 0.87857 0.0
H398 H 0.5815 0.89114 0.80261 0.0
H399 H 0.55467 0.87239 0.8436 0.0
H400 H 0.49754 0.93173 0.07231 0.0
H401 H 0.49857 0.96772 0.95255 0.0
H402 H 0.56857 0.93866 0.82331 0.0
C403 C 0.56764 0.85904 0.0923 0.0
C404 C 0.55292 0.84744 0.16915 0.0
C405 C 0.52937 0.85854 0.19662 0.0
C406 C 0.52099 0.88117 0.15015 0.0
C407 C 0.53618 0.89227 0.07516 0.0
C408 C 0.55883 0.8812 0.04538 0.0
C409 C 0.57131 0.89609 0.96066 0.0
C410 C 0.59738 0.90642 0.99219 0.0
C411 C 0.5736 0.87977 0.86574 0.0
C412 C 0.5523 0.91746 0.94712 0.0
C413 C 0.53234 0.91522 0.01487 0.0
C414 C 0.51298 0.93337 0.01854 0.0
C415 C 0.51378 0.95387 0.95045 0.0
C416 C 0.53357 0.95599 0.87803 0.0
C417 C 0.5531 0.93751 0.8772 0.0
H418 H 0.71702 0.51137 0.9752 0.0
H419 H 0.69076 0.53345 0.2706 0.0
H420 H 0.64715 0.53946 0.20384 0.0
H421 H 0.67812 0.55522 0.83412 0.0
H422 H 0.67271 0.53302 0.73415 0.0
H423 H 0.70154 0.53126 0.80542 0.0
H424 H 0.69195 0.48424 0.84819 0.0
H425 H 0.66311 0.48584 0.77709 0.0
H426 H 0.66197 0.47602 0.90627 0.0
H427 H 0.6056 0.54186 0.10066 0.0
H428 H 0.5711 0.54162 0.97458 0.0
H429 H 0.62494 0.51666 0.74917 0.0
C430 C 0.70213 0.51764 0.026 0.0
C431 C 0.70744 0.52204 0.12838 0.0
C432 C 0.68732 0.53006 0.19206 0.0
C433 C 0.66244 0.53348 0.15451 0.0
C434 C 0.6579 0.52879 0.053 0.0
C435 C 0.67734 0.52108 0.98981 0.0
C436 C 0.66773 0.51689 0.88418 0.0
C437 C 0.6808 0.53519 0.81011 0.0
C438 C 0.67141 0.4891 0.85208 0.0
C439 C 0.63973 0.52328 0.8971 0.0
C440 C 0.63437 0.53018 0.99481 0.0
C441 C 0.60966 0.53671 0.02409 0.0
C442 C 0.59009 0.53623 0.95237 0.0
C443 C 0.59502 0.5288 0.85244 0.0
C444 C 0.62036 0.52244 0.82491 0.0
H445 H 0.96589 0.69206 0.12801 0.0
H446 H 0.02533 0.68402 0.34747 0.0
H447 H 0.03857 0.64332 0.26772 0.0
H448 H 0.94885 0.62661 0.10573 0.0
H449 H 0.9439 0.62822 0.97267 0.0
H450 H 0.93914 0.65604 0.04869 0.0
H451 H 0.97124 0.68104 0.93815 0.0
H452 H 0.97595 0.65337 0.86133 0.0
H453 H 1.00281 0.66857 0.91864 0.0
H454 H 0.04367 0.60158 0.1632 0.0
H455 H 0.04328 0.56684 0.03797 0.0
H456 H 0.98221 0.60459 0.8817 0.0
C457 C 0.98174 0.68175 0.15948 0.0
C458 C 0.99448 0.69119 0.24459 0.0
C459 C 1.01528 0.67724 0.28251 0.0
C460 C 0.02283 0.65403 0.2377 0.0
C461 C 1.00964 0.64519 0.154 0.0
C462 C 0.98974 0.65897 0.11465 0.0
C463 C 0.97914 0.64621 0.02219 0.0
C464 C 0.9511 0.63884 0.03834 0.0
C465 C 0.98249 0.66332 0.92961 0.0
C466 C 0.99595 0.62287 0.01529 0.0
C467 C 1.01326 0.62233 0.09253 0.0
C468 C 0.03029 0.60209 0.10232 0.0
C469 C 0.02985 0.58231 0.03098 0.0
C470 C 1.01278 0.58295 0.94954 0.0
C471 C 0.99558 0.60354 0.94264 0.0
H472 H 0.92643 0.23051 0.16137 0.0
H473 H 0.95618 0.2719 0.41398 0.0
H474 H 0.93182 0.24484 0.52806 0.0
H475 H 0.86573 0.20006 0.29927 0.0
H476 H 0.8724 0.1707 0.23516 0.0
H477 H 0.87783 0.20063 0.17266 0.0
H478 H 0.9243 0.18723 0.13549 0.0
H479 H 0.91914 0.15772 0.19786 0.0
H480 H 0.94451 0.17827 0.23788 0.0
H481 H 0.9212 0.206 0.61348 0.0
H482 H 0.92786 0.16116 0.65649 0.0
H483 H 0.91059 0.1396 0.35265 0.0
C484 C 0.92687 0.23444 0.24073 0.0
C485 C 0.94369 0.25293 0.27841 0.0
C486 C 0.94342 0.25802 0.38227 0.0
C487 C 0.92956 0.24252 0.44825 0.0
C488 C 0.91631 0.22182 0.40965 0.0
C489 C 0.91453 0.21794 0.30739 0.0
C490 C 0.90632 0.19096 0.28449 0.0
C491 C 0.87894 0.19058 0.24564 0.0
C492 C 0.92469 0.17781 0.20981 0.0
C493 C 0.90756 0.17937 0.3881 0.0
C494 C 0.91145 0.19785 0.46003 0.0
C495 C 0.91743 0.19149 0.55838 0.0
C496 C 0.9214 0.16594 0.58212 0.0
C497 C 0.91995 0.14707 0.5073 0.0
C498 C 0.91125 0.1537 0.41134 0.0
H499 H 0.29178 1.00883 0.38545 0.0
H500 H 0.29131 0.08939 0.32992 0.0
H501 H 0.32204 0.09586 0.4643 0.0
H502 H 0.31914 1.01353 0.67311 0.0
H503 H 0.33746 0.98541 0.64495 0.0
H504 H 0.30545 0.98849 0.5995 0.0
H505 H 0.32253 0.9797 0.42126 0.0
H506 H 0.35428 0.97765 0.46523 0.0
H507 H 0.34671 1.00021 0.36835 0.0
H508 H 0.36412 0.09201 0.52101 0.0
H509 H 0.40848 0.07921 0.50862 0.0
H510 H 0.38629 1.00032 0.54099 0.0
C511 C 0.29691 0.02785 0.40827 0.0
C512 C 0.28944 0.04864 0.34976 0.0
C513 C 0.29673 0.07339 0.37604 0.0
C514 C 0.31423 0.07711 0.45243 0.0
C515 C 0.32441 0.05581 0.49999 0.0
C516 C 0.31525 0.0315 0.48177 0.0
C517 C 0.33359 1.01146 0.51883 0.0
C518 C 0.3233 0.99901 0.61493 0.0
C519 C 0.33964 0.99116 0.43851 0.0
C520 C 0.35634 0.028 0.541 0.0
C521 C 0.35018 0.05354 0.53591 0.0
C522 C 0.36896 0.07218 0.52989 0.0
C523 C 0.39435 0.06465 0.52232 0.0
C524 C 0.40094 0.03861 0.52238 0.0
C525 C 0.38176 0.02033 0.53868 0.0
H526 H 0.42719 0.32497 0.19533 0.0
H527 H 0.46205 0.28884 0.4494 0.0
H528 H 0.44757 0.32326 0.55703 0.0
H529 H 0.45568 0.37251 0.20361 0.0
H530 H 0.43311 0.39717 0.1748 0.0
H531 H 0.42678 0.36544 0.13697 0.0
H532 H 0.38377 0.36683 0.23141 0.0
H533 H 0.39044 0.39895 0.2699 0.0
H534 H 0.3827 0.3751 0.36207 0.0
H535 H 0.45137 0.36585 0.61388 0.0
H536 H 0.47345 0.40679 0.61001 0.0
H537 H 0.44649 0.42035 0.31017 0.0
C538 C 0.4304 0.32396 0.27504 0.0
C539 C 0.44663 0.30499 0.31309 0.0
C540 C 0.44994 0.3033 0.41753 0.0
C541 C 0.44176 0.32311 0.47963 0.0
C542 C 0.43085 0.3446 0.43589 0.0
C543 C 0.4244 0.34489 0.33532 0.0
C544 C 0.42123 0.372 0.29808 0.0
C545 C 0.43511 0.37701 0.19768 0.0
C546 C 0.39286 0.37861 0.28997 0.0
C547 C 0.43302 0.38632 0.38398 0.0
C548 C 0.43558 0.37061 0.46658 0.0
C549 C 0.44909 0.37832 0.55026 0.0
C550 C 0.46208 0.40142 0.54648 0.0
C551 C 0.46249 0.41621 0.45801 0.0
C552 C 0.4464 0.4094 0.37865 0.0
H553 H 0.24986 0.49993 0.53648 0.0
H554 H 0.24043 0.4328 0.35762 0.0
H555 H 0.20639 0.41813 0.46901 0.0
H556 H 0.21222 0.46523 0.7891 0.0
H557 H 0.19994 0.49625 0.81809 0.0
H558 H 0.23284 0.4925 0.78167 0.0
H559 H 0.22716 0.52559 0.64207 0.0
H560 H 0.1948 0.52972 0.67874 0.0
H561 H 0.20234 0.52129 0.55099 0.0
H562 H 0.16333 0.42654 0.50294 0.0
H563 H 0.1242 0.45063 0.48795 0.0
H564 H 0.15586 0.5103 0.67138 0.0
C565 C 0.2419 0.48114 0.52759 0.0
C566 C 0.24707 0.46761 0.43918 0.0
C567 C 0.23648 0.44334 0.42556 0.0
C568 C 0.21704 0.43492 0.48898 0.0
C569 C 0.20861 0.451 0.56538 0.0
C570 C 0.22202 0.47285 0.5906 0.0
C571 C 0.20596 0.48973 0.65821 0.0
C572 C 0.21318 0.48566 0.76824 0.0
C573 C 0.20764 0.51821 0.63039 0.0
C574 C 0.18001 0.47845 0.63889 0.0
C575 C 0.1821 0.45502 0.59232 0.0
C576 C 0.16139 0.44418 0.54362 0.0
C577 C 0.13901 0.45823 0.53477 0.0
C578 C 0.13707 0.48279 0.57668 0.0
C579 C 0.1571 0.49189 0.63616 0.0
H580 H 0.03097 0.79048 0.07897 0.0
H581 H 0.95287 0.81482 0.09564 0.0
H582 H 0.95943 0.842 0.94827 0.0
H583 H 0.056 0.83929 0.08397 0.0
H584 H 0.08187 0.83792 0.99429 0.0
H585 H 0.06909 0.80922 0.04384 0.0
H586 H 0.05995 0.79307 0.86575 0.0
H587 H 0.07315 0.82203 0.81498 0.0
H588 H 0.04162 0.81216 0.78089 0.0
H589 H 0.97659 0.87821 0.86822 0.0
H590 H 1.00046 0.91795 0.88136 0.0
H591 H 0.07 0.87594 0.92562 0.0
C592 C 1.01507 0.80033 0.04581 0.0
C593 C 0.99151 0.80068 0.09613 0.0
C594 C 0.97094 0.81422 0.05614 0.0
C595 C 0.97461 0.82957 0.97189 0.0
C596 C 0.99911 0.83168 0.93076 0.0
C597 C 0.01906 0.81675 0.96487 0.0
C598 C 0.04454 0.82774 0.93279 0.0
C599 C 0.06392 0.82865 0.019 0.0
C600 C 0.05544 0.81287 0.84327 0.0
C601 C 0.03608 0.85383 0.89959 0.0
C602 C 1.00987 0.85465 0.88804 0.0
C603 C 0.99705 0.87757 0.87531 0.0
C604 C 1.01068 0.90011 0.88493 0.0
C605 C 0.03683 0.89961 0.90793 0.0
C606 C 0.04999 0.87641 0.90784 0.0
H607 H 0.75975 1.01516 0.12676 0.0
H608 H 0.75986 0.09517 0.19123 0.0
H609 H 0.72816 0.10243 0.0608 0.0
H610 H 0.72657 0.01926 0.85365 0.0
H611 H 0.70698 0.99248 0.88782 0.0
H612 H 0.73995 0.99348 0.92386 0.0
H613 H 0.72784 0.98679 0.1081 0.0
H614 H 0.69521 0.98497 0.07599 0.0
H615 H 0.70528 1.00795 0.16743 0.0
H616 H 0.68619 0.09955 0.99705 0.0
H617 H 0.64122 0.08806 0.01277 0.0
H618 H 0.66189 1.00845 0.02048 0.0
C619 C 0.75421 0.03429 0.10668 0.0
C620 C 0.76193 0.05463 0.16657 0.0
C621 C 0.75425 0.07951 0.14392 0.0
C622 C 0.73616 0.08365 0.0698 0.0
C623 C 0.72536 0.06257 0.02288 0.0
C624 C 0.73453 0.03813 0.03923 0.0
C625 C 0.71498 0.01825 0.01178 0.0
C626 C 0.72254 1.00511 0.91339 0.0
C627 C 0.71056 0.99844 0.09597 0.0
C628 C 0.69214 0.03514 0.99694 0.0
C629 C 0.69897 0.06052 0.99423 0.0
C630 C 0.68076 0.07974 0.99711 0.0
C631 C 0.65522 0.07302 0.00894 0.0
C632 C 0.6481 0.04729 0.02129 0.0
C633 C 0.6667 0.02823 0.01021 0.0
H634 H 0.5897 0.7377 0.08848 0.0
H635 H 0.63643 0.72843 0.34862 0.0
H636 H 0.64646 0.6849 0.29841 0.0
H637 H 0.55701 0.69413 0.10757 0.0
H638 H 0.55376 0.68067 0.98441 0.0
H639 H 0.56297 0.71303 0.99683 0.0
H640 H 0.60396 0.70557 0.89357 0.0
H641 H 0.59433 0.67301 0.87629 0.0
H642 H 0.6252 0.68012 0.92648 0.0
H643 H 0.63024 0.64212 0.28499 0.0
H644 H 0.60079 0.60611 0.27611 0.0
H645 H 0.56679 0.63914 0.01191 0.0
C646 C 0.60395 0.72713 0.12892 0.0
C647 C 0.6115 0.73566 0.22378 0.0
C648 C 0.63021 0.7219 0.27608 0.0
C649 C 0.63574 0.6969 0.2484 0.0
C650 C 0.62341 0.68676 0.16558 0.0
C651 C 0.6092 0.70195 0.10189 0.0
C652 C 0.59343 0.6858 0.03189 0.0
C653 C 0.56516 0.69389 0.03048 0.0
C654 C 0.60494 0.68614 0.92579 0.0
C655 C 0.59692 0.66004 0.07982 0.0
C656 C 0.61501 0.66068 0.15408 0.0
C657 C 0.61712 0.64091 0.2234 0.0
C658 C 0.60008 0.62048 0.21826 0.0
C659 C 0.58105 0.6199 0.14422 0.0
C660 C 0.58065 0.63927 0.07108 0.0
H661 H 0.81684 0.42662 0.35849 0.0
H662 H 0.78384 0.45816 0.09049 0.0
H663 H 0.81167 0.43175 0.98788 0.0
H664 H 0.87126 0.43983 0.30611 0.0
H665 H 0.88895 0.41287 0.3512 0.0
H666 H 0.85827 0.41941 0.4024 0.0
H667 H 0.84299 0.37437 0.35537 0.0
H668 H 0.87411 0.36751 0.30424 0.0
H669 H 0.8463 0.36328 0.22847 0.0
H670 H 0.85225 0.4214 0.91947 0.0
H671 H 0.89777 0.42902 0.89795 0.0
H672 H 0.91057 0.40537 0.20344 0.0
C673 C 0.81483 0.42692 0.27804 0.0
C674 C 0.7987 0.44492 0.23284 0.0
C675 C 0.79595 0.44458 0.12775 0.0
C676 C 0.81191 0.42951 0.06833 0.0
C677 C 0.83069 0.41506 0.11472 0.0
C678 C 0.83182 0.41308 0.21814 0.0
C679 C 0.85747 0.403 0.25074 0.0
C680 C 0.86967 0.41982 0.33208 0.0
C681 C 0.85507 0.37539 0.28678 0.0
C682 C 0.87189 0.40425 0.15218 0.0
C683 C 0.85567 0.40933 0.07353 0.0
C684 C 0.865 0.4165 0.97949 0.0
C685 C 0.89109 0.4208 0.96773 0.0
C686 C 0.9076 0.41806 0.04983 0.0
C687 C 0.89814 0.40764 0.14005 0.0
H688 H 0.97695 0.21741 0.96871 0.0
H689 H 0.05026 0.22969 0.10586 0.0
H690 H 0.06571 0.18929 0.03231 0.0
H691 H 0.97343 0.15245 0.0191 0.0
H692 H 0.95789 0.14387 0.90445 0.0
H693 H 0.95376 0.17522 0.95544 0.0
H694 H 0.9698 0.19519 0.78918 0.0
H695 H 0.97343 0.16383 0.73771 0.0
H696 H 1.00003 0.1854 0.73735 0.0
H697 H 0.07117 0.14451 0.96219 0.0
H698 H 0.06755 0.10134 0.89258 0.0
H699 H 0.9906 0.11769 0.79862 0.0
C700 C 0.99649 0.21196 0.98156 0.0
C701 C 1.01242 0.22707 0.04328 0.0
C702 C 0.03778 0.21893 0.05795 0.0
C703 C 0.04662 0.19579 0.01703 0.0
C704 C 0.03002 0.18091 0.96055 0.0
C705 C 1.00555 0.18889 0.94166 0.0
C706 C 0.99093 0.16877 0.88388 0.0
C707 C 0.96763 0.15954 0.94434 0.0
C708 C 0.9831 0.17892 0.78088 0.0
C709 C 1.01085 0.14793 0.87399 0.0
C710 C 0.03325 0.15535 0.919 0.0
C711 C 0.05385 0.13878 0.92552 0.0
C712 C 0.05156 0.11415 0.88582 0.0
C713 C 0.02891 0.10597 0.83881 0.0
C714 C 1.00837 0.12338 0.83204 0.0
H715 H 0.34076 0.06247 0.06819 0.0
H716 H 0.30411 0.99934 0.9194 0.0
H717 H 0.344 0.99154 0.82359 0.0
H718 H 0.38222 0.08406 0.86648 0.0
H719 H 0.40833 0.09029 0.94921 0.0
H720 H 0.37607 0.09284 0.99475 0.0
H721 H 0.38604 0.06085 0.13642 0.0
H722 H 0.41828 0.05817 0.09125 0.0
H723 H 0.39888 0.03014 0.10493 0.0
H724 H 0.38992 0.99083 0.74287 0.0
H725 H 0.43606 0.99372 0.70477 0.0
H726 H 0.44334 0.05352 0.92479 0.0
C727 C 0.34075 0.04695 0.01535 0.0
C728 C 0.31869 0.03148 1.00292 0.0
C729 C 0.32015 1.01186 0.93036 0.0
C730 C 0.34294 1.00723 0.87544 0.0
C731 C 0.36442 0.02234 0.89276 0.0
C732 C 0.3634 0.04169 0.96206 0.0
C733 C 0.38947 0.05378 0.9752 0.0
C734 C 0.38898 0.08191 0.94458 0.0
C735 C 0.39871 0.05054 0.08334 0.0
C736 C 0.40558 0.03827 0.90262 0.0
C737 C 0.39075 0.02056 0.8539 0.0
C738 C 0.40153 1.00453 0.78168 0.0
C739 C 0.4279 1.00636 0.76025 0.0
C740 C 0.44373 0.02365 0.81225 0.0
C741 C 0.43207 0.03989 0.884 0.0
H742 H 0.47465 0.33491 0.99112 0.0
H743 H 0.55024 0.31873 0.10045 0.0
H744 H 0.56589 0.35856 0.02158 0.0
H745 H 0.49259 0.36931 0.75461 0.0
H746 H 0.46626 0.39076 0.77418 0.0
H747 H 0.46424 0.35861 0.81896 0.0
H748 H 0.45302 0.37767 0.9919 0.0
H749 H 0.45756 0.40961 0.94802 0.0
H750 H 0.47551 0.39825 0.05309 0.0
H751 H 0.57191 0.40348 0.94563 0.0
H752 H 0.56783 0.44745 0.88048 0.0
H753 H 0.48742 0.43541 0.83397 0.0
C754 C 0.49471 0.33931 0.99648 0.0
C755 C 0.51121 0.32333 0.05214 0.0
C756 C 0.53724 0.33015 0.05711 0.0
C757 C 0.54622 0.35298 0.01323 0.0
C758 C 0.529 0.36894 0.96428 0.0
C759 C 0.50378 0.36218 0.95521 0.0
C760 C 0.48844 0.38348 0.9081 0.0
C761 C 0.47727 0.37501 0.80791 0.0
C762 C 0.4674 0.39281 0.9797 0.0
C763 C 0.50876 0.4036 0.89304 0.0
C764 C 0.53216 0.39478 0.92464 0.0
C765 C 0.55368 0.41033 0.92024 0.0
C766 C 0.5512 0.43531 0.88323 0.0
C767 C 0.52736 0.44481 0.85219 0.0
C768 C 0.50591 0.42863 0.85695 0.0
H769 H 0.1949 0.47432 0.16691 0.0
H770 H 0.23547 0.53944 0.04383 0.0
H771 H 0.19828 0.54867 0.93811 0.0
H772 H 0.15862 0.45669 0.95449 0.0
H773 H 0.13045 0.44952 0.02711 0.0
H774 H 0.16137 0.44608 0.0822 0.0
H775 H 0.14809 0.47618 0.22649 0.0
H776 H 0.11708 0.47962 0.17235 0.0
H777 H 0.13605 0.50734 0.19742 0.0
H778 H 0.15473 0.55029 0.84263 0.0
H779 H 0.10993 0.54764 0.78743 0.0
H780 H 0.09615 0.48678 0.99927 0.0
C781 C 0.19637 0.49107 0.12069 0.0
C782 C 0.2189 0.50635 0.11777 0.0
C783 C 0.21913 0.52705 0.04919 0.0
C784 C 0.19778 0.53263 0.98878 0.0
C785 C 0.17577 0.51774 0.99793 0.0
C786 C 0.17497 0.49758 0.06365 0.0
C787 C 0.14864 0.48548 0.06648 0.0
C788 C 0.14986 0.4578 0.03043 0.0
C789 C 0.13677 0.48727 0.17192 0.0
C790 C 0.13445 0.50203 0.99243 0.0
C791 C 0.1506 0.52007 0.95109 0.0
C792 C 0.14201 0.53651 0.87643 0.0
C793 C 0.11644 0.53482 0.84519 0.0
C794 C 0.09919 0.51735 0.8901 0.0
C795 C 0.10857 0.5007 0.96463 0.0
H796 H 0.97083 0.85015 0.39184 0.0
H797 H 0.03461 0.81035 0.5224 0.0
H798 H 0.04556 0.84918 0.61757 0.0
H799 H 1.0016 0.90847 0.35305 0.0
H800 H 0.97444 0.92797 0.38319 0.0
H801 H 0.9699 0.89644 0.33487 0.0
H802 H 0.94211 0.88476 0.4892 0.0
H803 H 0.9463 0.9164 0.53745 0.0
H804 H 0.95459 0.88932 0.61298 0.0
H805 H 0.05282 0.89486 0.68116 0.0
H806 H 0.05242 0.94057 0.72362 0.0
H807 H 0.98366 0.95078 0.55403 0.0
C808 C 0.98697 0.84937 0.44134 0.0
C809 C 1.00189 0.82684 0.44861 0.0
C810 C 0.02264 0.82697 0.51557 0.0
C811 C 0.02916 0.84915 0.56931 0.0
C812 C 1.01472 0.87126 0.55633 0.0
C813 C 0.99375 0.87133 0.49516 0.0
C814 C 0.98169 0.89766 0.49163 0.0
C815 C 0.98193 0.90825 0.38431 0.0
C816 C 0.95456 0.89699 0.53543 0.0
C817 C 0.99942 0.91269 0.55858 0.0
C818 C 1.01835 0.89708 0.59525 0.0
C819 C 0.03762 0.90692 0.6548 0.0
C820 C 0.03715 0.93294 0.67965 0.0
C821 C 1.01763 0.94928 0.64586 0.0
C822 C 0.99869 0.93889 0.58287 0.0
H823 H 0.70785 1.01241 0.38469 0.0
H824 H 0.74768 0.04646 0.63268 0.0
H825 H 0.70726 0.04706 0.73092 0.0
H826 H 0.65118 0.04786 0.40962 0.0
H827 H 0.63023 0.02225 0.37603 0.0
H828 H 0.66242 0.02279 0.32889 0.0
H829 H 0.67035 0.97813 0.40281 0.0
H830 H 0.63808 0.97728 0.44941 0.0
H831 H 0.66415 0.97242 0.53381 0.0
H832 H 0.66066 0.04665 0.79762 0.0
H833 H 0.61434 0.04326 0.82919 0.0
H834 H 0.60498 1.00829 0.53886 0.0
C835 C 0.7083 0.01945 0.46072 0.0
C836 C 0.73135 0.02917 0.50092 0.0
C837 C 0.73069 0.03844 0.60039 0.0
C838 C 0.70766 0.03898 0.65658 0.0
C839 C 0.68525 0.0298 0.61352 0.0
C840 C 0.68555 0.01992 0.51793 0.0
C841 C 0.65886 1.01195 0.48695 0.0
C842 C 0.65017 0.02711 0.39494 0.0
C843 C 0.6578 0.98324 0.46709 0.0
C844 C 0.64328 0.01898 0.57965 0.0
C845 C 0.65883 0.02931 0.65182 0.0
C846 C 0.64856 0.03804 0.74228 0.0
C847 C 0.62207 0.03586 0.75995 0.0
C848 C 0.60563 0.02486 0.68839 0.0
C849 C 0.61671 1.01651 0.59644 0.0
H850 H 0.54013 0.69417 0.34067 0.0
H851 H 0.54529 0.74271 0.60034 0.0
H852 H 0.53717 0.70542 0.7103 0.0
H853 H 0.49144 0.6486 0.44084 0.0
H854 H 0.50698 0.62208 0.38095 0.0
H855 H 0.5087 0.65318 0.32496 0.0
H856 H 0.5577 0.65025 0.32312 0.0
H857 H 0.55618 0.61937 0.38065 0.0
H858 H 0.57428 0.64437 0.43817 0.0
H859 H 0.53381 0.66095 0.79228 0.0
H860 H 0.53236 0.6154 0.83707 0.0
H861 H 0.53095 0.59587 0.52196 0.0
C862 C 0.53831 0.69716 0.42057 0.0
C863 C 0.54258 0.72165 0.46164 0.0
C864 C 0.54122 0.72448 0.56684 0.0
C865 C 0.53697 0.70323 0.62985 0.0
C866 C 0.5341 0.67917 0.58677 0.0
C867 C 0.53434 0.67618 0.48411 0.0
C868 C 0.53292 0.64824 0.45581 0.0
C869 C 0.50855 0.64271 0.39721 0.0
C870 C 0.55669 0.64009 0.39597 0.0
C871 C 0.53214 0.63578 0.55843 0.0
C872 C 0.53274 0.65389 0.63319 0.0
C873 C 0.533 0.64676 0.73394 0.0
C874 C 0.53226 0.62069 0.75875 0.0
C875 C 0.53145 0.6017 0.68349 0.0
C876 C 0.53147 0.60965 0.58188 0.0
H877 H 0.83273 0.4774 0.5414 0.0
H878 H 0.82348 0.55153 0.40472 0.0
H879 H 0.8631 0.56586 0.48573 0.0
H880 H 0.86221 0.49845 0.77798 0.0
H881 H 0.88374 0.47184 0.78078 0.0
H882 H 0.85302 0.46856 0.72367 0.0
H883 H 0.8747 0.45352 0.55956 0.0
H884 H 0.90546 0.4569 0.61578 0.0
H885 H 0.89854 0.47326 0.50072 0.0
H886 H 0.90686 0.57037 0.56391 0.0
H887 H 0.94921 0.56579 0.63947 0.0
H888 H 0.93097 0.48855 0.72668 0.0
C889 C 0.83869 0.49686 0.52972 0.0
C890 C 0.82458 0.51333 0.46597 0.0
C891 C 0.83337 0.53859 0.45382 0.0
C892 C 0.85611 0.54682 0.49907 0.0
C893 C 0.87001 0.52971 0.55736 0.0
C894 C 0.86143 0.5053 0.57377 0.0
C895 C 0.8807 0.49008 0.63409 0.0
C896 C 0.86923 0.48174 0.73513 0.0
C897 C 0.89042 0.46709 0.57395 0.0
C898 C 0.90171 0.50963 0.64835 0.0
C899 C 0.89508 0.53236 0.60333 0.0
C900 C 0.91195 0.55278 0.60056 0.0
C901 C 0.93609 0.54995 0.64374 0.0
C902 C 0.94351 0.52696 0.69063 0.0
C903 C 0.92579 0.5066 0.69381 0.0
loop_
_geom_bond_atom_site_label_1
_geom_bond_atom_site_label_2
_geom_bond_distance
_geom_bond_site_symmetry_2
_ccdc_geom_bond_type
H0 C5 0.930 . S
H1 C8 0.930 . S
H2 C10 0.930 . S
H3 C4 1.016 . S
C4 H3 1.016 . S
C4 N11 1.286 . S
C5 H0 0.930 . S
C5 C6 1.397 . S
C5 C7 1.361 . S
C6 C5 1.397 . S
C6 C10 1.390 . S
C7 C5 1.361 . S
C7 C8 1.393 . S
C7 N11 1.413 . S
C8 H1 0.930 . S
C8 C7 1.393 . S
C8 C9 1.399 . S
C9 C8 1.399 . S
C9 C10 1.381 . S
C10 H2 0.930 . S
C10 C6 1.390 . S
C10 C9 1.381 . S
N11 C4 1.286 . S
N11 C7 1.413 . S
H12 C17 0.930 . S
H13 C20 0.930 . S
H14 C22 0.930 . S
H15 C16 1.029 . S
C16 H15 1.029 . S
C16 N23 1.268 1_655 S
C17 H12 0.930 . S
C17 C18 1.397 . S
C17 C19 1.361 . S
C18 C17 1.397 . S
C18 C22 1.390 1_455 S
C19 C17 1.361 . S
C19 C20 1.393 . S
C19 N23 1.413 . S
C20 H13 0.930 . S
C20 C19 1.393 . S
C20 C21 1.402 . S
C21 C20 1.402 . S
C21 C22 1.379 1_455 S
C22 H14 0.930 . S
C22 C18 1.390 1_655 S
C22 C21 1.379 1_655 S
N23 C16 1.268 1_455 S
N23 C19 1.413 . S
H24 C29 0.930 . S
H25 C32 0.930 . S
H26 C34 0.930 . S
H27 C28 1.030 . S
C28 H27 1.030 . S
C28 N35 1.268 1_565 S
C29 H24 0.930 . S
C29 C30 1.397 . S
C29 C31 1.361 . S
C30 C29 1.397 . S
C30 C34 1.390 1_545 S
C31 C29 1.361 . S
C31 C32 1.393 . S
C31 N35 1.413 . S
C32 H25 0.930 . S
C32 C31 1.393 . S
C32 C33 1.402 . S
C33 C32 1.402 . S
C33 C34 1.379 1_545 S
C34 H26 0.930 . S
C34 C30 1.390 1_565 S
C34 C33 1.379 1_565 S
N35 C28 1.268 1_545 S
N35 C31 1.413 . S
H36 C41 0.930 . S
H37 C44 0.930 . S
H38 C46 0.930 . S
H39 C40 1.016 . S
C40 H39 1.016 . S
C40 N47 1.286 . S
C41 H36 0.930 . S
C41 C42 1.397 . S
C41 C43 1.361 . S
C42 C41 1.397 . S
C42 C46 1.390 . S
C43 C41 1.361 . S
C43 C44 1.393 . S
C43 N47 1.413 . S
C44 H37 0.930 . S
C44 C43 1.393 . S
C44 C45 1.399 . S
C45 C44 1.399 . S
C45 C46 1.381 . S
C46 H38 0.930 . S
C46 C42 1.390 . S
C46 C45 1.381 . S
N47 C40 1.286 . S
N47 C43 1.413 . S
H48 C53 0.930 . S
H49 C56 0.930 . S
H50 C58 0.930 . S
H51 C52 1.016 . S
C52 H51 1.016 . S
C52 N59 1.286 . S
C53 H48 0.930 . S
C53 C54 1.397 . S
C53 C55 1.361 1_556 S
C54 C53 1.397 . S
C54 C58 1.390 1_556 S
C55 C53 1.361 1_554 S
C55 C56 1.393 . S
C55 N59 1.413 . S
C56 H49 0.930 . S
C56 C55 1.393 . S
C56 C57 1.399 . S
C57 C56 1.399 . S
C57 C58 1.381 . S
C58 H50 0.930 . S
C58 C54 1.390 1_554 S
C58 C57 1.381 . S
N59 C52 1.286 . S
N59 C55 1.413 . S
H60 C65 0.930 . S
H61 C68 0.930 . S
H62 C70 0.930 . S
H63 C64 1.026 . S
C64 H63 1.026 . S
C64 N71 1.273 1_655 S
C65 H60 0.930 . S
C65 C66 1.397 . S
C65 C67 1.361 1_556 S
C66 C65 1.397 . S
C66 C70 1.390 1_456 S
C67 C65 1.361 1_554 S
C67 C68 1.393 . S
C67 N71 1.413 . S
C68 H61 0.930 . S
C68 C67 1.393 . S
C68 C69 1.404 . S
C69 C68 1.404 . S
C69 C70 1.378 1_455 S
C70 H62 0.930 . S
C70 C66 1.390 1_654 S
C70 C69 1.378 1_655 S
N71 C64 1.273 1_455 S
N71 C67 1.413 . S
H72 C77 0.930 . S
H73 C80 0.930 . S
H74 C82 0.930 . S
H75 C76 1.026 . S
C76 H75 1.026 . S
C76 N83 1.273 1_565 S
C77 H72 0.930 . S
C77 C78 1.397 . S
C77 C79 1.361 1_556 S
C78 C77 1.397 . S
C78 C82 1.390 1_546 S
C79 C77 1.361 1_554 S
C79 C80 1.393 . S
C79 N83 1.413 . S
C80 H73 0.930 . S
C80 C79 1.393 . S
C80 C81 1.404 . S
C81 C80 1.404 . S
C81 C82 1.378 1_545 S
C82 H74 0.930 . S
C82 C78 1.390 1_564 S
C82 C81 1.378 1_565 S
N83 C76 1.273 1_545 S
N83 C79 1.413 . S
H84 C89 0.930 . S
H85 C92 0.930 . S
H86 C94 0.930 . S
H87 C88 1.016 . S
C88 H87 1.016 . S
C88 N95 1.286 . S
C89 H84 0.930 . S
C89 C90 1.397 . S
C89 C91 1.361 1_556 S
C90 C89 1.397 . S
C90 C94 1.390 1_556 S
C91 C89 1.361 1_554 S
C91 C92 1.393 . S
C91 N95 1.413 . S
C92 H85 0.930 . S
C92 C91 1.393 . S
C92 C93 1.399 . S
C93 C92 1.399 . S
C93 C94 1.381 . S
C94 H86 0.930 . S
C94 C90 1.390 1_554 S
C94 C93 1.381 . S
N95 C88 1.286 . S
N95 C91 1.413 . S
La96 C98 2.928 . S
La96 O116 2.521 . S
La96 O117 2.628 . S
La96 O118 2.554 . S
La96 O119 2.757 1_565 S
La96 O120 2.470 . S
La96 O125 2.482 1_455 S
La96 O127 2.503 1_565 S
La97 C107 2.928 . S
La97 O119 2.482 1_655 S
La97 O121 2.503 1_545 S
La97 O122 2.521 . S
La97 O123 2.628 . S
La97 O124 2.554 . S
La97 O125 2.757 1_545 S
La97 O126 2.470 . S
C98 La96 2.928 . S
C98 C99 1.503 1_556 S
C98 O116 1.261 . S
C98 O117 1.243 . S
C99 C98 1.503 1_554 S
C99 C100 1.394 . S
C99 C104 1.373 . S
C100 C99 1.394 . S
C100 C101 1.380 . S
C100 H128 0.930 . S
C101 C100 1.380 . S
C101 C102 1.376 . S
C101 H129 0.930 . S
C102 C101 1.376 . S
C102 C103 1.370 . S
C103 C102 1.370 . S
C103 C104 1.396 . S
C103 H130 0.929 1_455 S
C104 C99 1.373 . S
C104 C103 1.396 . S
C104 H131 0.929 1_455 S
C105 O118 1.240 . S
C105 O119 1.289 1_565 S
C106 O120 1.258 1_655 S
C106 O121 1.256 . S
C107 La97 2.928 . S
C107 C108 1.503 . S
C107 O122 1.261 . S
C107 O123 1.243 . S
C108 C107 1.503 . S
C108 C109 1.394 . S
C108 C113 1.373 . S
C109 C108 1.394 . S
C109 C110 1.380 . S
C109 H132 0.930 . S
C110 C109 1.380 . S
C110 C111 1.376 . S
C110 H133 0.930 . S
C111 C110 1.376 . S
C111 C112 1.370 . S
C112 C111 1.370 . S
C112 C113 1.396 . S
C112 H134 0.929 1_655 S
C113 C108 1.373 . S
C113 C112 1.396 . S
C113 H135 0.929 1_655 S
C114 O124 1.240 . S
C114 O125 1.289 1_545 S
C115 O126 1.258 1_455 S
C115 O127 1.256 . S
O116 La96 2.521 . S
O116 C98 1.261 . S
O117 La96 2.628 . S
O117 C98 1.243 . S
O118 La96 2.554 . S
O118 C105 1.240 . S
O119 La96 2.757 1_545 S
O119 La97 2.482 1_455 S
O119 C105 1.289 1_545 S
O120 La96 2.470 . S
O120 C106 1.258 1_455 S
O121 La97 2.503 1_565 S
O121 C106 1.256 . S
O122 La97 2.521 . S
O122 C107 1.261 . S
O123 La97 2.628 . S
O123 C107 1.243 . S
O124 La97 2.554 . S
O124 C114 1.240 . S
O125 La96 2.482 1_655 S
O125 La97 2.757 1_565 S
O125 C114 1.289 1_565 S
O126 La97 2.470 . S
O126 C115 1.258 1_655 S
O127 La96 2.503 1_545 S
O127 C115 1.256 . S
H128 C100 0.930 . S
H129 C101 0.930 . S
H130 C103 0.929 1_655 S
H131 C104 0.929 1_655 S
H132 C109 0.930 . S
H133 C110 0.930 . S
H134 C112 0.929 1_455 S
H135 C113 0.929 1_455 S
La136 C138 2.928 . S
La136 O156 2.521 . S
La136 O157 2.628 . S
La136 O158 2.554 . S
La136 O159 2.757 . S
La136 O160 2.470 . S
La136 O165 2.482 1_545 S
La136 O167 2.503 . S
La137 C147 2.928 . S
La137 O159 2.482 1_565 S
La137 O161 2.503 . S
La137 O162 2.521 . S
La137 O163 2.628 . S
La137 O164 2.554 . S
La137 O165 2.757 . S
La137 O166 2.470 . S
C138 La136 2.928 . S
C138 C139 1.503 1_556 S
C138 O156 1.261 . S
C138 O157 1.243 . S
C139 C138 1.503 1_554 S
C139 C140 1.394 . S
C139 C144 1.373 . S
C140 C139 1.394 . S
C140 C141 1.380 . S
C140 H168 0.930 . S
C141 C140 1.380 . S
C141 C142 1.376 . S
C141 H169 0.930 . S
C142 C141 1.376 . S
C142 C143 1.370 . S
C143 C142 1.370 . S
C143 C144 1.396 . S
C143 H170 0.929 1_545 S
C144 C139 1.373 . S
C144 C143 1.396 . S
C144 H171 0.929 1_545 S
C145 O158 1.240 . S
C145 O159 1.289 . S
C146 O160 1.258 1_565 S
C146 O161 1.256 . S
C147 La137 2.928 . S
C147 C148 1.503 . S
C147 O162 1.261 . S
C147 O163 1.243 . S
C148 C147 1.503 . S
C148 C149 1.394 . S
C148 C153 1.373 . S
C149 C148 1.394 . S
C149 C150 1.380 . S
C149 H172 0.930 . S
C150 C149 1.380 . S
C150 C151 1.376 . S
C150 H173 0.930 . S
C151 C150 1.376 . S
C151 C152 1.370 . S
C152 C151 1.370 . S
C152 C153 1.396 . S
C152 H174 0.929 1_565 S
C153 C148 1.373 . S
C153 C152 1.396 . S
C153 H175 0.929 1_565 S
C154 O164 1.240 . S
C154 O165 1.289 . S
C155 O166 1.258 1_545 S
C155 O167 1.256 . S
O156 La136 2.521 . S
O156 C138 1.261 . S
O157 La136 2.628 . S
O157 C138 1.243 . S
O158 La136 2.554 . S
O158 C145 1.240 . S
O159 La136 2.757 . S
O159 La137 2.482 1_545 S
O159 C145 1.289 . S
O160 La136 2.470 . S
O160 C146 1.258 1_545 S
O161 La137 2.503 . S
O161 C146 1.256 . S
O162 La137 2.521 . S
O162 C147 1.261 . S
O163 La137 2.628 . S
O163 C147 1.243 . S
O164 La137 2.554 . S
O164 C154 1.240 . S
O165 La136 2.482 1_565 S
O165 La137 2.757 . S
O165 C154 1.289 . S
O166 La137 2.470 . S
O166 C155 1.258 1_565 S
O167 La136 2.503 . S
O167 C155 1.256 . S
H168 C140 0.930 . S
H169 C141 0.930 . S
H170 C143 0.929 1_565 S
H171 C144 0.929 1_565 S
H172 C149 0.930 . S
H173 C150 0.930 . S
H174 C152 0.929 1_545 S
H175 C153 0.929 1_545 S
La176 C178 2.928 . S
La176 O196 2.521 . S
La176 O197 2.628 . S
La176 O198 2.554 . S
La176 O199 2.757 . S
La176 O200 2.470 . S
La176 O205 2.482 . S
La176 O207 2.503 . S
La177 C187 2.928 . S
La177 O199 2.482 . S
La177 O201 2.503 . S
La177 O202 2.521 . S
La177 O203 2.628 . S
La177 O204 2.554 . S
La177 O205 2.757 . S
La177 O206 2.470 . S
C178 La176 2.928 . S
C178 C179 1.503 1_556 S
C178 O196 1.261 . S
C178 O197 1.243 . S
C179 C178 1.503 1_554 S
C179 C180 1.394 . S
C179 C184 1.373 . S
C180 C179 1.394 . S
C180 C181 1.380 . S
C180 H208 0.930 . S
C181 C180 1.380 . S
C181 C182 1.376 . S
C181 H209 0.930 . S
C182 C181 1.376 . S
C182 C183 1.370 . S
C183 C182 1.370 . S
C183 C184 1.396 . S
C183 H210 0.929 . S
C184 C179 1.373 . S
C184 C183 1.396 . S
C184 H211 0.929 . S
C185 O198 1.240 . S
C185 O199 1.289 . S
C186 O200 1.258 . S
C186 O201 1.256 . S
C187 La177 2.928 . S
C187 C188 1.503 . S
C187 O202 1.261 . S
C187 O203 1.243 . S
C188 C187 1.503 . S
C188 C189 1.394 . S
C188 C193 1.373 . S
C189 C188 1.394 . S
C189 C190 1.380 . S
C189 H212 0.930 . S
C190 C189 1.380 . S
C190 C191 1.376 . S
C190 H213 0.930 . S
C191 C190 1.376 . S
C191 C192 1.370 . S
C192 C191 1.370 . S
C192 C193 1.396 . S
C192 H214 0.929 . S
C193 C188 1.373 . S
C193 C192 1.396 . S
C193 H215 0.929 . S
C194 O204 1.240 . S
C194 O205 1.289 . S
C195 O206 1.258 . S
C195 O207 1.256 . S
O196 La176 2.521 . S
O196 C178 1.261 . S
O197 La176 2.628 . S
O197 C178 1.243 . S
O198 La176 2.554 . S
O198 C185 1.240 . S
O199 La176 2.757 . S
O199 La177 2.482 . S
O199 C185 1.289 . S
O200 La176 2.470 . S
O200 C186 1.258 . S
O201 La177 2.503 . S
O201 C186 1.256 . S
O202 La177 2.521 . S
O202 C187 1.261 . S
O203 La177 2.628 . S
O203 C187 1.243 . S
O204 La177 2.554 . S
O204 C194 1.240 . S
O205 La176 2.482 . S
O205 La177 2.757 . S
O205 C194 1.289 . S
O206 La177 2.470 . S
O206 C195 1.258 . S
O207 La176 2.503 . S
O207 C195 1.256 . S
H208 C180 0.930 . S
H209 C181 0.930 . S
H210 C183 0.929 . S
H211 C184 0.929 . S
H212 C189 0.930 . S
H213 C190 0.930 . S
H214 C192 0.929 . S
H215 C193 0.929 . S
La216 C218 2.928 . S
La216 O236 2.521 . S
La216 O237 2.628 . S
La216 O238 2.554 . S
La216 O239 2.757 1_655 S
La216 O240 2.470 . S
La216 O245 2.482 . S
La216 O247 2.503 1_655 S
La217 C227 2.928 . S
La217 O239 2.482 . S
La217 O241 2.503 1_455 S
La217 O242 2.521 . S
La217 O243 2.628 . S
La217 O244 2.554 . S
La217 O245 2.757 1_455 S
La217 O246 2.470 . S
C218 La216 2.928 . S
C218 C219 1.503 1_556 S
C218 O236 1.261 . S
C218 O237 1.243 . S
C219 C218 1.503 1_554 S
C219 C220 1.394 . S
C219 C224 1.373 . S
C220 C219 1.394 . S
C220 C221 1.380 . S
C220 H248 0.930 . S
C221 C220 1.380 . S
C221 C222 1.376 . S
C221 H249 0.930 . S
C222 C221 1.376 . S
C222 C223 1.370 . S
C223 C222 1.370 . S
C223 C224 1.396 . S
C223 H250 0.929 . S
C224 C219 1.373 . S
C224 C223 1.396 . S
C224 H251 0.929 . S
C225 O238 1.257 . S
C225 O239 1.279 1_655 S
C226 O240 1.258 . S
C226 O241 1.256 . S
C227 La217 2.928 . S
C227 C228 1.503 . S
C227 O242 1.261 . S
C227 O243 1.243 . S
C228 C227 1.503 . S
C228 C229 1.394 . S
C228 C233 1.373 . S
C229 C228 1.394 . S
C229 C230 1.380 . S
C229 H252 0.930 . S
C230 C229 1.380 . S
C230 C231 1.376 . S
C230 H253 0.930 . S
C231 C230 1.376 . S
C231 C232 1.370 . S
C232 C231 1.370 . S
C232 C233 1.396 . S
C232 H254 0.929 . S
C233 C228 1.373 . S
C233 C232 1.396 . S
C233 H255 0.929 . S
C234 O244 1.262 . S
C234 O245 1.276 1_455 S
C235 O246 1.258 . S
C235 O247 1.256 . S
O236 La216 2.521 . S
O236 C218 1.261 . S
O237 La216 2.628 . S
O237 C218 1.243 . S
O238 La216 2.554 . S
O238 C225 1.257 . S
O239 La216 2.757 1_455 S
O239 La217 2.482 . S
O239 C225 1.279 1_455 S
O240 La216 2.470 . S
O240 C226 1.258 . S
O241 La217 2.503 1_655 S
O241 C226 1.256 . S
O242 La217 2.521 . S
O242 C227 1.261 . S
O243 La217 2.628 . S
O243 C227 1.243 . S
O244 La217 2.554 . S
O244 C234 1.262 . S
O245 La216 2.482 . S
O245 La217 2.757 1_655 S
O245 C234 1.276 1_655 S
O246 La217 2.470 . S
O246 C235 1.258 . S
O247 La216 2.503 1_455 S
O247 C235 1.256 . S
H248 C220 0.930 . S
H249 C221 0.930 . S
H250 C223 0.929 . S
H251 C224 0.929 . S
H252 C229 0.930 . S
H253 C230 0.930 . S
H254 C232 0.929 . S
H255 C233 0.929 . S
H256 C268 0.930 . S
H257 C270 0.930 . S
H258 C271 0.930 . S
H259 C275 0.959 . S
H260 C275 0.959 . S
H261 C275 0.961 . S
H262 C276 0.960 . S
H263 C276 0.961 . S
H264 C276 0.959 . S
H265 C279 0.929 . S
H266 C280 0.931 . S
H267 C282 0.930 . S
C268 H256 0.930 . S
C268 C269 1.399 1_545 S
C268 C273 1.399 . S
C269 C268 1.399 1_565 S
C269 C270 1.376 . S
C270 H257 0.930 . S
C270 C269 1.376 . S
C270 C271 1.388 . S
C271 H258 0.930 . S
C271 C270 1.388 . S
C271 C272 1.390 . S
C272 C271 1.390 . S
C272 C273 1.394 1_565 S
C272 C278 1.465 . S
C273 C268 1.399 . S
C273 C272 1.394 1_545 S
C273 C274 1.516 . S
C274 C273 1.516 . S
C274 C275 1.502 . S
C274 C276 1.561 . S
C274 C277 1.526 . S
C275 H259 0.959 . S
C275 H260 0.959 . S
C275 H261 0.961 . S
C275 C274 1.502 . S
C276 H262 0.960 . S
C276 H263 0.961 . S
C276 H264 0.959 . S
C276 C274 1.561 . S
C277 C274 1.526 . S
C277 C278 1.396 1_545 S
C277 C282 1.390 . S
C278 C272 1.465 . S
C278 C277 1.396 1_565 S
C278 C279 1.399 . S
C279 H265 0.929 . S
C279 C278 1.399 . S
C279 C280 1.385 . S
C280 H266 0.931 . S
C280 C279 1.385 . S
C280 C281 1.389 . S
C281 C280 1.389 . S
C281 C282 1.387 1_565 S
C282 H267 0.930 . S
C282 C277 1.390 . S
C282 C281 1.387 1_545 S
H283 C295 0.930 . S
H284 C297 0.930 . S
H285 C298 0.930 . S
H286 C302 0.959 . S
H287 C302 0.959 . S
H288 C302 0.961 . S
H289 C303 0.960 . S
H290 C303 0.961 . S
H291 C303 0.959 . S
H292 C306 0.929 . S
H293 C307 0.931 . S
H294 C309 0.930 . S
C295 H283 0.930 . S
C295 C296 1.399 . S
C295 C300 1.399 . S
C296 C295 1.399 . S
C296 C297 1.376 . S
C297 H284 0.930 . S
C297 C296 1.376 . S
C297 C298 1.388 . S
C298 H285 0.930 . S
C298 C297 1.388 . S
C298 C299 1.390 . S
C299 C298 1.390 . S
C299 C300 1.394 . S
C299 C305 1.465 . S
C300 C295 1.399 . S
C300 C299 1.394 . S
C300 C301 1.516 . S
C301 C300 1.516 . S
C301 C302 1.502 . S
C301 C303 1.561 . S
C301 C304 1.526 . S
C302 H286 0.959 . S
C302 H287 0.959 . S
C302 H288 0.961 . S
C302 C301 1.502 . S
C303 H289 0.960 . S
C303 H290 0.961 . S
C303 H291 0.959 . S
C303 C301 1.561 . S
C304 C301 1.526 . S
C304 C305 1.396 . S
C304 C309 1.390 . S
C305 C299 1.465 . S
C305 C304 1.396 . S
C305 C306 1.399 . S
C306 H292 0.929 . S
C306 C305 1.399 . S
C306 C307 1.385 . S
C307 H293 0.931 . S
C307 C306 1.385 . S
C307 C308 1.389 . S
C308 C307 1.389 . S
C308 C309 1.387 . S
C309 H294 0.930 . S
C309 C304 1.390 . S
C309 C308 1.387 . S
H310 C322 0.930 . S
H311 C324 0.930 . S
H312 C325 0.930 . S
H313 C329 0.959 . S
H314 C329 0.959 . S
H315 C329 0.961 . S
H316 C330 0.960 . S
H317 C330 0.961 . S
H318 C330 0.959 . S
H319 C333 0.929 . S
H320 C334 0.931 . S
H321 C336 0.930 . S
C322 H310 0.930 . S
C322 C323 1.399 . S
C322 C327 1.399 . S
C323 C322 1.399 . S
C323 C324 1.376 . S
C324 H311 0.930 . S
C324 C323 1.376 . S
C324 C325 1.388 . S
C325 H312 0.930 . S
C325 C324 1.388 . S
C325 C326 1.390 . S
C326 C325 1.390 . S
C326 C327 1.394 . S
C326 C332 1.465 . S
C327 C322 1.399 . S
C327 C326 1.394 . S
C327 C328 1.516 . S
C328 C327 1.516 . S
C328 C329 1.502 . S
C328 C330 1.561 . S
C328 C331 1.526 . S
C329 H313 0.959 . S
C329 H314 0.959 . S
C329 H315 0.961 . S
C329 C328 1.502 . S
C330 H316 0.960 . S
C330 H317 0.961 . S
C330 H318 0.959 . S
C330 C328 1.561 . S
C331 C328 1.526 . S
C331 C332 1.396 . S
C331 C336 1.390 . S
C332 C326 1.465 . S
C332 C331 1.396 . S
C332 C333 1.399 . S
C333 H319 0.929 . S
C333 C332 1.399 . S
C333 C334 1.385 . S
C334 H320 0.931 . S
C334 C333 1.385 . S
C334 C335 1.389 . S
C335 C334 1.389 . S
C335 C336 1.387 . S
C336 H321 0.930 . S
C336 C331 1.390 . S
C336 C335 1.387 . S
H337 C349 0.930 . S
H338 C351 0.930 . S
H339 C352 0.930 . S
H340 C356 0.959 . S
H341 C356 0.959 . S
H342 C356 0.961 . S
H343 C357 0.964 . S
H344 C357 0.967 . S
H345 C357 0.941 1_655 S
H346 C360 0.929 . S
H347 C361 0.931 . S
H348 C363 0.930 . S
C349 H337 0.930 . S
C349 C350 1.399 1_455 S
C349 C354 1.399 . S
C350 C349 1.399 1_655 S
C350 C351 1.376 . S
C351 H338 0.930 . S
C351 C350 1.376 . S
C351 C352 1.388 . S
C352 H339 0.930 . S
C352 C351 1.388 . S
C352 C353 1.390 . S
C353 C352 1.390 . S
C353 C354 1.394 1_655 S
C353 C359 1.465 . S
C354 C349 1.399 . S
C354 C353 1.394 1_455 S
C354 C355 1.516 . S
C355 C354 1.516 . S
C355 C356 1.502 . S
C355 C357 1.570 . S
C355 C358 1.526 . S
C356 H340 0.959 . S
C356 H341 0.959 . S
C356 H342 0.961 . S
C356 C355 1.502 . S
C357 H343 0.964 . S
C357 H344 0.967 . S
C357 H345 0.941 1_455 S
C357 C355 1.570 . S
C358 C355 1.526 . S
C358 C359 1.396 1_455 S
C358 C363 1.390 . S
C359 C353 1.465 . S
C359 C358 1.396 1_655 S
C359 C360 1.399 . S
C360 H346 0.929 . S
C360 C359 1.399 . S
C360 C361 1.385 . S
C361 H347 0.931 . S
C361 C360 1.385 . S
C361 C362 1.390 . S
C362 C361 1.390 . S
C362 C363 1.386 1_655 S
C363 H348 0.930 . S
C363 C358 1.390 . S
C363 C362 1.386 1_455 S
H364 C376 0.930 . S
H365 C378 0.930 . S
H366 C379 0.930 . S
H367 C383 0.959 . S
H368 C383 0.959 . S
H369 C383 0.961 . S
H370 C384 0.960 . S
H371 C384 0.961 . S
H372 C384 0.959 . S
H373 C387 0.929 . S
H374 C388 0.931 . S
H375 C390 0.930 . S
C376 H364 0.930 . S
C376 C377 1.399 1_565 S
C376 C381 1.399 . S
C377 C376 1.399 1_545 S
C377 C378 1.376 . S
C378 H365 0.930 . S
C378 C377 1.376 . S
C378 C379 1.388 . S
C379 H366 0.930 . S
C379 C378 1.388 . S
C379 C380 1.390 . S
C380 C379 1.390 . S
C380 C381 1.394 1_545 S
C380 C386 1.465 . S
C381 C376 1.399 . S
C381 C380 1.394 1_565 S
C381 C382 1.516 . S
C382 C381 1.516 . S
C382 C383 1.502 . S
C382 C384 1.561 . S
C382 C385 1.526 . S
C383 H367 0.959 . S
C383 H368 0.959 . S
C383 H369 0.961 . S
C383 C382 1.502 . S
C384 H370 0.960 . S
C384 H371 0.961 . S
C384 H372 0.959 . S
C384 C382 1.561 . S
C385 C382 1.526 . S
C385 C386 1.396 1_565 S
C385 C390 1.385 1_554 S
C386 C380 1.465 . S
C386 C385 1.396 1_545 S
C386 C387 1.399 . S
C387 H373 0.929 . S
C387 C386 1.399 . S
C387 C388 1.385 1_554 S
C388 H374 0.931 . S
C388 C387 1.385 1_556 S
C388 C389 1.389 . S
C389 C388 1.389 . S
C389 C390 1.390 1_545 S
C390 H375 0.930 . S
C390 C385 1.385 1_556 S
C390 C389 1.390 1_565 S
H391 C403 0.930 . S
H392 C405 0.930 . S
H393 C406 0.930 . S
H394 C410 0.960 . S
H395 C410 0.959 1_556 S
H396 C410 0.961 . S
H397 C411 0.960 . S
H398 C411 0.961 . S
H399 C411 0.959 . S
H400 C414 0.929 . S
H401 C415 0.931 . S
H402 C417 0.930 . S
C403 H391 0.930 . S
C403 C404 1.399 . S
C403 C408 1.399 . S
C404 C403 1.399 . S
C404 C405 1.376 . S
C405 H392 0.930 . S
C405 C404 1.376 . S
C405 C406 1.388 . S
C406 H393 0.930 . S
C406 C405 1.388 . S
C406 C407 1.390 . S
C407 C406 1.390 . S
C407 C408 1.394 . S
C407 C413 1.465 . S
C408 C403 1.399 . S
C408 C407 1.394 . S
C408 C409 1.516 . S
C409 C408 1.516 . S
C409 C410 1.502 . S
C409 C411 1.561 . S
C409 C412 1.526 . S
C410 H394 0.960 . S
C410 H395 0.959 1_554 S
C410 H396 0.961 . S
C410 C409 1.502 . S
C411 H397 0.960 . S
C411 H398 0.961 . S
C411 H399 0.959 . S
C411 C409 1.561 . S
C412 C409 1.526 . S
C412 C413 1.396 . S
C412 C417 1.390 1_554 S
C413 C407 1.465 . S
C413 C412 1.396 . S
C413 C414 1.399 . S
C414 H400 0.929 . S
C414 C413 1.399 . S
C414 C415 1.385 . S
C415 H401 0.931 . S
C415 C414 1.385 . S
C415 C416 1.389 1_554 S
C416 C415 1.389 1_556 S
C416 C417 1.387 . S
C417 H402 0.930 . S
C417 C412 1.390 1_556 S
C417 C416 1.387 . S
H418 C430 0.930 . S
H419 C432 0.930 . S
H420 C433 0.930 . S
H421 C437 0.959 . S
H422 C437 0.959 . S
H423 C437 0.961 . S
H424 C438 0.960 . S
H425 C438 0.961 . S
H426 C438 0.959 . S
H427 C441 0.929 . S
H428 C442 0.931 . S
H429 C444 0.930 . S
C430 H418 0.930 . S
C430 C431 1.399 . S
C430 C435 1.399 . S
C431 C430 1.399 . S
C431 C432 1.376 . S
C432 H419 0.930 . S
C432 C431 1.376 . S
C432 C433 1.388 . S
C433 H420 0.930 . S
C433 C432 1.388 . S
C433 C434 1.390 . S
C434 C433 1.390 . S
C434 C435 1.394 . S
C434 C440 1.465 . S
C435 C430 1.399 . S
C435 C434 1.394 . S
C435 C436 1.516 . S
C436 C435 1.516 . S
C436 C437 1.502 . S
C436 C438 1.561 . S
C436 C439 1.526 . S
C437 H421 0.959 . S
C437 H422 0.959 . S
C437 H423 0.961 . S
C437 C436 1.502 . S
C438 H424 0.960 . S
C438 H425 0.961 . S
C438 H426 0.959 . S
C438 C436 1.561 . S
C439 C436 1.526 . S
C439 C440 1.396 . S
C439 C444 1.390 . S
C440 C434 1.465 . S
C440 C439 1.396 . S
C440 C441 1.399 1_554 S
C441 H427 0.929 . S
C441 C440 1.399 1_556 S
C441 C442 1.385 . S
C442 H428 0.931 . S
C442 C441 1.385 . S
C442 C443 1.389 . S
C443 C442 1.389 . S
C443 C444 1.387 1_556 S
C444 H429 0.930 . S
C444 C439 1.390 . S
C444 C443 1.387 1_554 S
H445 C457 0.930 . S
H446 C459 0.930 . S
H447 C460 0.930 . S
H448 C464 0.959 . S
H449 C464 0.959 . S
H450 C464 0.961 . S
H451 C465 0.960 1_455 S
H452 C465 0.961 1_455 S
H453 C465 0.959 . S
H454 C468 0.929 . S
H455 C469 0.931 . S
H456 C471 0.930 . S
C457 H445 0.930 . S
C457 C458 1.399 1_455 S
C457 C462 1.399 . S
C458 C457 1.399 1_655 S
C458 C459 1.376 . S
C459 H446 0.930 . S
C459 C458 1.376 . S
C459 C460 1.388 . S
C460 H447 0.930 . S
C460 C459 1.388 . S
C460 C461 1.390 . S
C461 C460 1.390 . S
C461 C462 1.394 1_655 S
C461 C467 1.465 . S
C462 C457 1.399 . S
C462 C461 1.394 1_455 S
C462 C463 1.516 . S
C463 C462 1.516 . S
C463 C464 1.502 . S
C463 C465 1.561 1_455 S
C463 C466 1.526 . S
C464 H448 0.959 . S
C464 H449 0.959 . S
C464 H450 0.961 . S
C464 C463 1.502 . S
C465 H451 0.960 1_655 S
C465 H452 0.961 1_655 S
C465 H453 0.959 . S
C465 C463 1.561 1_655 S
C466 C463 1.526 . S
C466 C467 1.396 1_455 S
C466 C471 1.390 . S
C467 C461 1.465 . S
C467 C466 1.396 1_655 S
C467 C468 1.399 1_554 S
C468 H454 0.929 . S
C468 C467 1.399 1_556 S
C468 C469 1.385 . S
C469 H455 0.931 . S
C469 C468 1.385 . S
C469 C470 1.389 . S
C470 C469 1.389 . S
C470 C471 1.387 1_656 S
C471 H456 0.930 . S
C471 C466 1.390 . S
C471 C470 1.387 1_454 S
H472 C484 0.930 . S
H473 C486 0.928 1_456 S
H474 C487 0.930 . S
H475 C491 0.959 1_455 S
H476 C491 0.959 . S
H477 C491 0.961 . S
H478 C492 0.960 . S
H479 C492 0.961 . S
H480 C492 0.959 . S
H481 C495 0.929 . S
H482 C496 0.931 . S
H483 C498 0.930 . S
C484 H472 0.930 . S
C484 C485 1.399 1_655 S
C484 C489 1.399 . S
C485 C484 1.399 1_455 S
C485 C486 1.376 1_455 S
C486 H473 0.928 1_654 S
C486 C485 1.376 1_655 S
C486 C487 1.391 . S
C487 H474 0.930 . S
C487 C486 1.391 . S
C487 C488 1.390 . S
C488 C487 1.390 . S
C488 C489 1.394 . S
C488 C494 1.465 . S
C489 C484 1.399 . S
C489 C488 1.394 . S
C489 C490 1.516 . S
C490 C489 1.516 . S
C490 C491 1.502 . S
C490 C492 1.561 . S
C490 C493 1.526 . S
C491 H475 0.959 1_655 S
C491 H476 0.959 . S
C491 H477 0.961 . S
C491 C490 1.502 . S
C492 H478 0.960 . S
C492 H479 0.961 . S
C492 H480 0.959 . S
C492 C490 1.561 . S
C493 C490 1.526 . S
C493 C494 1.396 . S
C493 C498 1.390 . S
C494 C488 1.465 . S
C494 C493 1.396 . S
C494 C495 1.399 . S
C495 H481 0.929 . S
C495 C494 1.399 . S
C495 C496 1.385 . S
C496 H482 0.931 . S
C496 C495 1.385 . S
C496 C497 1.389 . S
C497 C496 1.389 . S
C497 C498 1.387 . S
C498 H483 0.930 . S
C498 C493 1.390 . S
C498 C497 1.387 . S
H499 C511 0.930 . S
H500 C513 0.930 . S
H501 C514 0.930 . S
H502 C518 0.959 . S
H503 C518 0.959 . S
H504 C518 0.961 . S
H505 C519 0.960 . S
H506 C519 0.961 . S
H507 C519 0.959 . S
H508 C522 0.929 . S
H509 C523 0.955 . S
H510 C525 0.930 . S
C511 H499 0.930 . S
C511 C512 1.399 1_565 S
C511 C516 1.399 . S
C512 C511 1.399 1_545 S
C512 C513 1.376 . S
C513 H500 0.930 . S
C513 C512 1.376 . S
C513 C514 1.388 . S
C514 H501 0.930 . S
C514 C513 1.388 . S
C514 C515 1.390 1_545 S
C515 C514 1.390 1_565 S
C515 C516 1.394 . S
C515 C521 1.465 . S
C516 C511 1.399 . S
C516 C515 1.394 . S
C516 C517 1.516 . S
C517 C516 1.516 . S
C517 C518 1.502 . S
C517 C519 1.561 . S
C517 C520 1.526 . S
C518 H502 0.959 . S
C518 H503 0.959 . S
C518 H504 0.961 . S
C518 C517 1.502 . S
C519 H505 0.960 . S
C519 H506 0.961 . S
C519 H507 0.959 . S
C519 C517 1.561 . S
C520 C517 1.526 . S
C520 C521 1.396 . S
C520 C525 1.390 . S
C521 C515 1.465 . S
C521 C520 1.396 . S
C521 C522 1.399 1_565 S
C522 H508 0.929 . S
C522 C521 1.399 1_545 S
C522 C523 1.385 1_545 S
C523 H509 0.955 . S
C523 C522 1.385 1_565 S
C523 C524 1.389 . S
C524 C523 1.389 . S
C524 C525 1.387 . S
C525 H510 0.930 . S
C525 C520 1.390 . S
C525 C524 1.387 . S
H526 C538 0.930 . S
H527 C540 0.930 . S
H528 C541 0.930 . S
H529 C545 0.959 . S
H530 C545 0.959 . S
H531 C545 0.961 . S
H532 C546 0.960 . S
H533 C546 0.961 . S
H534 C546 0.959 . S
H535 C549 0.929 . S
H536 C550 0.931 . S
H537 C552 0.930 . S
C538 H526 0.930 . S
C538 C539 1.399 . S
C538 C543 1.399 . S
C539 C538 1.399 . S
C539 C540 1.376 . S
C540 H527 0.930 . S
C540 C539 1.376 . S
C540 C541 1.388 . S
C541 H528 0.930 . S
C541 C540 1.388 . S
C541 C542 1.390 . S
C542 C541 1.390 . S
C542 C543 1.394 . S
C542 C548 1.465 . S
C543 C538 1.399 . S
C543 C542 1.394 . S
C543 C544 1.516 . S
C544 C543 1.516 . S
C544 C545 1.502 . S
C544 C546 1.561 . S
C544 C547 1.526 . S
C545 H529 0.959 . S
C545 H530 0.959 . S
C545 H531 0.961 . S
C545 C544 1.502 . S
C546 H532 0.960 . S
C546 H533 0.961 . S
C546 H534 0.959 . S
C546 C544 1.561 . S
C547 C544 1.526 . S
C547 C548 1.396 . S
C547 C552 1.390 . S
C548 C542 1.465 . S
C548 C547 1.396 . S
C548 C549 1.399 . S
C549 H535 0.929 . S
C549 C548 1.399 . S
C549 C550 1.385 . S
C550 H536 0.931 . S
C550 C549 1.385 . S
C550 C551 1.389 . S
C551 C550 1.389 . S
C551 C552 1.387 . S
C552 H537 0.930 . S
C552 C547 1.390 . S
C552 C551 1.387 . S
H553 C565 0.930 . S
H554 C567 0.930 . S
H555 C568 0.930 . S
H556 C572 0.959 . S
H557 C572 0.959 . S
H558 C572 0.961 . S
H559 C573 0.960 . S
H560 C573 0.961 . S
H561 C573 0.959 . S
H562 C576 0.929 . S
H563 C577 0.931 . S
H564 C579 0.930 . S
C565 H553 0.930 . S
C565 C566 1.399 . S
C565 C570 1.399 . S
C566 C565 1.399 . S
C566 C567 1.376 . S
C567 H554 0.930 . S
C567 C566 1.376 . S
C567 C568 1.388 . S
C568 H555 0.930 . S
C568 C567 1.388 . S
C568 C569 1.390 . S
C569 C568 1.390 . S
C569 C570 1.394 . S
C569 C575 1.465 . S
C570 C565 1.399 . S
C570 C569 1.394 . S
C570 C571 1.516 . S
C571 C570 1.516 . S
C571 C572 1.502 . S
C571 C573 1.561 . S
C571 C574 1.526 . S
C572 H556 0.959 . S
C572 H557 0.959 . S
C572 H558 0.961 . S
C572 C571 1.502 . S
C573 H559 0.960 . S
C573 H560 0.961 . S
C573 H561 0.959 . S
C573 C571 1.561 . S
C574 C571 1.526 . S
C574 C575 1.396 . S
C574 C579 1.390 . S
C575 C569 1.465 . S
C575 C574 1.396 . S
C575 C576 1.399 . S
C576 H562 0.929 . S
C576 C575 1.399 . S
C576 C577 1.385 . S
C577 H563 0.931 . S
C577 C576 1.385 . S
C577 C578 1.389 . S
C578 C577 1.389 . S
C578 C579 1.387 . S
C579 H564 0.930 . S
C579 C574 1.390 . S
C579 C578 1.387 . S
H580 C592 0.930 . S
H581 C594 0.930 . S
H582 C595 0.930 . S
H583 C599 0.959 . S
H584 C599 0.959 . S
H585 C599 0.961 . S
H586 C600 0.960 . S
H587 C600 0.961 . S
H588 C600 0.959 . S
H589 C603 0.929 1_655 S
H590 C604 0.931 . S
H591 C606 0.930 . S
C592 H580 0.930 . S
C592 C593 1.399 1_455 S
C592 C597 1.399 . S
C593 C592 1.399 1_655 S
C593 C594 1.376 . S
C594 H581 0.930 . S
C594 C593 1.376 . S
C594 C595 1.388 . S
C595 H582 0.930 . S
C595 C594 1.388 . S
C595 C596 1.390 1_655 S
C596 C595 1.390 1_455 S
C596 C597 1.394 . S
C596 C602 1.465 . S
C597 C592 1.399 . S
C597 C596 1.394 . S
C597 C598 1.516 . S
C598 C597 1.516 . S
C598 C599 1.502 . S
C598 C600 1.561 . S
C598 C601 1.526 . S
C599 H583 0.959 . S
C599 H584 0.959 . S
C599 H585 0.961 . S
C599 C598 1.502 . S
C600 H586 0.960 . S
C600 H587 0.961 . S
C600 H588 0.959 . S
C600 C598 1.561 . S
C601 C598 1.526 . S
C601 C602 1.396 . S
C601 C606 1.390 . S
C602 C596 1.465 . S
C602 C601 1.396 . S
C602 C603 1.399 . S
C603 H589 0.929 1_455 S
C603 C602 1.399 . S
C603 C604 1.385 . S
C604 H590 0.931 . S
C604 C603 1.385 . S
C604 C605 1.389 . S
C605 C604 1.389 . S
C605 C606 1.387 . S
C606 H591 0.930 . S
C606 C601 1.390 . S
C606 C605 1.387 . S
H607 C619 0.930 . S
H608 C621 0.930 . S
H609 C622 0.930 . S
H610 C626 0.959 . S
H611 C626 0.959 . S
H612 C626 0.961 . S
H613 C627 0.960 . S
H614 C627 0.961 . S
H615 C627 0.959 . S
H616 C630 0.929 . S
H617 C631 0.931 . S
H618 C633 0.930 . S
C619 H607 0.930 . S
C619 C620 1.393 1_565 S
C619 C624 1.399 1_565 S
C620 C619 1.393 1_545 S
C620 C621 1.394 . S
C621 H608 0.930 . S
C621 C620 1.394 . S
C621 C622 1.388 . S
C622 H609 0.930 . S
C622 C621 1.388 . S
C622 C623 1.390 . S
C623 C622 1.390 . S
C623 C624 1.394 . S
C623 C629 1.465 . S
C624 C619 1.399 1_545 S
C624 C623 1.394 . S
C624 C625 1.516 . S
C625 C624 1.516 . S
C625 C626 1.502 1_545 S
C625 C627 1.561 . S
C625 C628 1.526 . S
C626 H610 0.959 . S
C626 H611 0.959 . S
C626 H612 0.961 . S
C626 C625 1.502 1_565 S
C627 H613 0.960 . S
C627 H614 0.961 . S
C627 H615 0.959 . S
C627 C625 1.561 . S
C628 C625 1.526 . S
C628 C629 1.396 . S
C628 C633 1.390 . S
C629 C623 1.465 . S
C629 C628 1.396 . S
C629 C630 1.399 . S
C630 H616 0.929 . S
C630 C629 1.399 . S
C630 C631 1.385 . S
C631 H617 0.931 . S
C631 C630 1.385 . S
C631 C632 1.389 . S
C632 C631 1.389 . S
C632 C633 1.387 . S
C633 H618 0.930 . S
C633 C628 1.390 . S
C633 C632 1.387 . S
H634 C646 0.930 . S
H635 C648 0.930 . S
H636 C649 0.930 . S
H637 C653 0.959 . S
H638 C653 0.959 . S
H639 C653 0.961 . S
H640 C654 0.960 . S
H641 C654 0.961 . S
H642 C654 0.959 . S
H643 C657 0.929 . S
H644 C658 0.931 . S
H645 C660 0.930 . S
C646 H634 0.930 . S
C646 C647 1.399 . S
C646 C651 1.399 . S
C647 C646 1.399 . S
C647 C648 1.376 . S
C648 H635 0.930 . S
C648 C647 1.376 . S
C648 C649 1.388 . S
C649 H636 0.930 . S
C649 C648 1.388 . S
C649 C650 1.390 . S
C650 C649 1.390 . S
C650 C651 1.394 . S
C650 C656 1.465 . S
C651 C646 1.399 . S
C651 C650 1.394 . S
C651 C652 1.516 . S
C652 C651 1.516 . S
C652 C653 1.502 . S
C652 C654 1.561 . S
C652 C655 1.526 . S
C653 H637 0.959 . S
C653 H638 0.959 . S
C653 H639 0.961 . S
C653 C652 1.502 . S
C654 H640 0.960 . S
C654 H641 0.961 . S
C654 H642 0.959 . S
C654 C652 1.561 . S
C655 C652 1.526 . S
C655 C656 1.396 . S
C655 C660 1.390 . S
C656 C650 1.465 . S
C656 C655 1.396 . S
C656 C657 1.399 . S
C657 H643 0.929 . S
C657 C656 1.399 . S
C657 C658 1.385 . S
C658 H644 0.931 . S
C658 C657 1.385 . S
C658 C659 1.389 . S
C659 C658 1.389 . S
C659 C660 1.387 . S
C660 H645 0.930 . S
C660 C655 1.390 . S
C660 C659 1.387 . S
H661 C673 0.930 . S
H662 C675 0.930 . S
H663 C676 0.930 . S
H664 C680 0.959 . S
H665 C680 0.959 . S
H666 C680 0.961 . S
H667 C681 0.960 . S
H668 C681 0.961 . S
H669 C681 0.959 . S
H670 C684 0.929 . S
H671 C685 0.931 1_556 S
H672 C687 0.930 . S
C673 H661 0.930 . S
C673 C674 1.399 . S
C673 C678 1.399 . S
C674 C673 1.399 . S
C674 C675 1.376 . S
C675 H662 0.930 . S
C675 C674 1.376 . S
C675 C676 1.388 . S
C676 H663 0.930 . S
C676 C675 1.388 . S
C676 C677 1.390 . S
C677 C676 1.390 . S
C677 C678 1.394 . S
C677 C683 1.465 . S
C678 C673 1.399 . S
C678 C677 1.394 . S
C678 C679 1.516 . S
C679 C678 1.516 . S
C679 C680 1.502 . S
C679 C681 1.561 . S
C679 C682 1.526 . S
C680 H664 0.959 . S
C680 H665 0.959 . S
C680 H666 0.961 . S
C680 C679 1.502 . S
C681 H667 0.960 . S
C681 H668 0.961 . S
C681 H669 0.959 . S
C681 C679 1.561 . S
C682 C679 1.526 . S
C682 C683 1.396 . S
C682 C687 1.390 . S
C683 C677 1.465 . S
C683 C682 1.396 . S
C683 C684 1.399 . S
C684 H670 0.929 . S
C684 C683 1.399 . S
C684 C685 1.385 . S
C685 H671 0.931 1_554 S
C685 C684 1.385 . S
C685 C686 1.389 . S
C686 C685 1.389 . S
C686 C687 1.387 . S
C687 H672 0.930 . S
C687 C682 1.390 . S
C687 C686 1.387 . S
H688 C700 0.930 . S
H689 C702 0.930 1_554 S
H690 C703 0.930 1_554 S
H691 C707 0.959 . S
H692 C707 0.959 . S
H693 C707 0.961 . S
H694 C708 0.960 . S
H695 C708 0.961 . S
H696 C708 0.959 . S
H697 C711 0.929 1_554 S
H698 C712 0.931 . S
H699 C714 0.930 1_655 S
C700 H688 0.930 . S
C700 C701 1.399 1_655 S
C700 C705 1.399 1_655 S
C701 C700 1.399 1_455 S
C701 C702 1.376 . S
C702 H689 0.930 1_556 S
C702 C701 1.376 . S
C702 C703 1.388 . S
C703 H690 0.930 1_556 S
C703 C702 1.388 . S
C703 C704 1.390 . S
C704 C703 1.390 . S
C704 C705 1.394 . S
C704 C710 1.465 . S
C705 C700 1.399 1_455 S
C705 C704 1.394 . S
C705 C706 1.516 1_455 S
C706 C705 1.516 1_655 S
C706 C707 1.502 . S
C706 C708 1.561 1_655 S
C706 C709 1.526 1_655 S
C707 H691 0.959 . S
C707 H692 0.959 . S
C707 H693 0.961 . S
C707 C706 1.502 . S
C708 H694 0.960 . S
C708 H695 0.961 . S
C708 H696 0.959 . S
C708 C706 1.561 1_455 S
C709 C706 1.526 1_455 S
C709 C710 1.396 . S
C709 C714 1.390 . S
C710 C704 1.465 . S
C710 C709 1.396 . S
C710 C711 1.399 . S
C711 H697 0.929 1_556 S
C711 C710 1.399 . S
C711 C712 1.385 . S
C712 H698 0.931 . S
C712 C711 1.385 . S
C712 C713 1.389 . S
C713 C712 1.389 . S
C713 C714 1.387 . S
C714 H699 0.930 1_455 S
C714 C709 1.390 . S
C714 C713 1.387 . S
H715 C727 0.930 . S
H716 C729 0.930 . S
H717 C730 0.930 . S
H718 C734 0.959 . S
H719 C734 0.959 . S
H720 C734 0.961 . S
H721 C735 0.960 1_554 S
H722 C735 0.961 1_554 S
H723 C735 0.959 . S
H724 C738 0.929 . S
H725 C739 0.931 . S
H726 C741 0.933 . S
C727 H715 0.930 . S
C727 C728 1.399 1_565 S
C727 C732 1.399 . S
C728 C727 1.399 1_545 S
C728 C729 1.376 . S
C729 H716 0.930 . S
C729 C728 1.376 . S
C729 C730 1.388 . S
C730 H717 0.930 . S
C730 C729 1.388 . S
C730 C731 1.390 . S
C731 C730 1.390 . S
C731 C732 1.392 1_545 S
C731 C737 1.465 . S
C732 C727 1.399 . S
C732 C731 1.392 1_565 S
C732 C733 1.517 . S
C733 C732 1.517 . S
C733 C734 1.502 1_566 S
C733 C735 1.561 . S
C733 C736 1.526 1_565 S
C734 H718 0.959 . S
C734 H719 0.959 . S
C734 H720 0.961 . S
C734 C733 1.502 1_544 S
C735 H721 0.960 1_556 S
C735 H722 0.961 1_556 S
C735 H723 0.959 . S
C735 C733 1.561 . S
C736 C733 1.526 1_545 S
C736 C737 1.396 . S
C736 C741 1.390 . S
C737 C731 1.465 . S
C737 C736 1.396 . S
C737 C738 1.399 . S
C738 H724 0.929 . S
C738 C737 1.399 . S
C738 C739 1.385 . S
C739 H725 0.931 . S
C739 C738 1.385 . S
C739 C740 1.389 . S
C740 C739 1.389 . S
C740 C741 1.387 . S
C741 H726 0.933 . S
C741 C736 1.390 . S
C741 C740 1.387 . S
H742 C754 0.930 . S
H743 C756 0.930 . S
H744 C757 0.930 . S
H745 C761 0.959 1_556 S
H746 C761 0.959 . S
H747 C761 0.961 . S
H748 C762 0.960 . S
H749 C762 0.961 . S
H750 C762 0.959 . S
H751 C765 0.929 . S
H752 C766 0.931 . S
H753 C768 0.930 . S
C754 H742 0.930 . S
C754 C755 1.399 . S
C754 C759 1.399 . S
C755 C754 1.399 . S
C755 C756 1.376 . S
C756 H743 0.930 . S
C756 C755 1.376 . S
C756 C757 1.388 . S
C757 H744 0.930 . S
C757 C756 1.388 . S
C757 C758 1.390 . S
C758 C757 1.390 . S
C758 C759 1.394 . S
C758 C764 1.465 . S
C759 C754 1.399 . S
C759 C758 1.394 . S
C759 C760 1.516 . S
C760 C759 1.516 . S
C760 C761 1.502 1_556 S
C760 C762 1.561 1_556 S
C760 C763 1.526 . S
C761 H745 0.959 1_554 S
C761 H746 0.959 . S
C761 H747 0.961 . S
C761 C760 1.502 1_554 S
C762 H748 0.960 . S
C762 H749 0.961 . S
C762 H750 0.959 . S
C762 C760 1.561 1_554 S
C763 C760 1.526 . S
C763 C764 1.396 . S
C763 C768 1.390 . S
C764 C758 1.465 . S
C764 C763 1.396 . S
C764 C765 1.399 . S
C765 H751 0.929 . S
C765 C764 1.399 . S
C765 C766 1.385 . S
C766 H752 0.931 . S
C766 C765 1.385 . S
C766 C767 1.389 . S
C767 C766 1.389 . S
C767 C768 1.387 . S
C768 H753 0.930 . S
C768 C763 1.390 . S
C768 C767 1.387 . S
H769 C781 0.930 . S
H770 C783 0.930 . S
H771 C784 0.930 . S
H772 C788 0.959 . S
H773 C788 0.959 . S
H774 C788 0.961 . S
H775 C789 0.960 . S
H776 C789 0.961 . S
H777 C789 0.959 . S
H778 C792 0.929 . S
H779 C793 0.931 . S
H780 C795 0.930 . S
C781 H769 0.930 . S
C781 C782 1.399 . S
C781 C786 1.399 . S
C782 C781 1.399 . S
C782 C783 1.376 . S
C783 H770 0.930 . S
C783 C782 1.376 . S
C783 C784 1.388 . S
C784 H771 0.930 . S
C784 C783 1.388 . S
C784 C785 1.390 . S
C785 C784 1.390 . S
C785 C786 1.394 . S
C785 C791 1.465 . S
C786 C781 1.399 . S
C786 C785 1.394 . S
C786 C787 1.516 . S
C787 C786 1.516 . S
C787 C788 1.502 . S
C787 C789 1.561 1_556 S
C787 C790 1.526 . S
C788 H772 0.959 . S
C788 H773 0.959 . S
C788 H774 0.961 . S
C788 C787 1.502 . S
C789 H775 0.960 . S
C789 H776 0.961 . S
C789 H777 0.959 . S
C789 C787 1.561 1_554 S
C790 C787 1.526 . S
C790 C791 1.396 . S
C790 C795 1.390 . S
C791 C785 1.465 . S
C791 C790 1.396 . S
C791 C792 1.399 . S
C792 H778 0.929 . S
C792 C791 1.399 . S
C792 C793 1.385 . S
C793 H779 0.931 . S
C793 C792 1.385 . S
C793 C794 1.389 . S
C794 C793 1.389 . S
C794 C795 1.387 . S
C795 H780 0.930 . S
C795 C790 1.390 . S
C795 C794 1.387 . S
H796 C808 0.930 . S
H797 C810 0.930 . S
H798 C811 0.930 . S
H799 C815 0.959 . S
H800 C815 0.959 . S
H801 C815 0.961 . S
H802 C816 0.960 . S
H803 C816 0.961 . S
H804 C816 0.959 1_455 S
H805 C819 0.929 . S
H806 C820 0.931 . S
H807 C822 0.930 . S
C808 H796 0.930 . S
C808 C809 1.394 1_655 S
C808 C813 1.399 . S
C809 C808 1.394 1_455 S
C809 C810 1.382 . S
C810 H797 0.930 . S
C810 C809 1.382 . S
C810 C811 1.388 . S
C811 H798 0.930 . S
C811 C810 1.388 . S
C811 C812 1.390 . S
C812 C811 1.390 . S
C812 C813 1.394 1_455 S
C812 C818 1.465 . S
C813 C808 1.399 . S
C813 C812 1.394 1_655 S
C813 C814 1.516 . S
C814 C813 1.516 . S
C814 C815 1.502 . S
C814 C816 1.561 . S
C814 C817 1.526 . S
C815 H799 0.959 . S
C815 H800 0.959 . S
C815 H801 0.961 . S
C815 C814 1.502 . S
C816 H802 0.960 . S
C816 H803 0.961 . S
C816 H804 0.959 1_655 S
C816 C814 1.561 . S
C817 C814 1.526 . S
C817 C818 1.396 1_655 S
C817 C822 1.390 . S
C818 C812 1.465 . S
C818 C817 1.396 1_455 S
C818 C819 1.399 . S
C819 H805 0.929 . S
C819 C818 1.399 . S
C819 C820 1.385 . S
C820 H806 0.931 . S
C820 C819 1.385 . S
C820 C821 1.389 1_455 S
C821 C820 1.389 1_655 S
C821 C822 1.387 . S
C822 H807 0.930 . S
C822 C817 1.390 . S
C822 C821 1.387 . S
H823 C835 0.930 . S
H824 C837 0.930 . S
H825 C838 0.930 . S
H826 C842 0.959 . S
H827 C842 0.959 . S
H828 C842 0.961 . S
H829 C843 0.960 . S
H830 C843 0.961 . S
H831 C843 0.959 . S
H832 C846 0.929 . S
H833 C847 0.931 . S
H834 C849 0.930 . S
C835 H823 0.930 . S
C835 C836 1.399 . S
C835 C840 1.399 . S
C836 C835 1.399 . S
C836 C837 1.376 1_565 S
C837 H824 0.930 . S
C837 C836 1.376 1_545 S
C837 C838 1.388 . S
C838 H825 0.930 . S
C838 C837 1.388 . S
C838 C839 1.409 . S
C839 C838 1.409 . S
C839 C840 1.373 1_545 S
C839 C845 1.463 1_545 S
C840 C835 1.399 . S
C840 C839 1.373 1_565 S
C840 C841 1.516 . S
C841 C840 1.516 . S
C841 C842 1.502 . S
C841 C843 1.561 . S
C841 C844 1.526 . S
C842 H826 0.959 . S
C842 H827 0.959 . S
C842 H828 0.961 . S
C842 C841 1.502 . S
C843 H829 0.960 . S
C843 H830 0.961 . S
C843 H831 0.959 . S
C843 C841 1.561 . S
C844 C841 1.526 . S
C844 C845 1.418 . S
C844 C849 1.390 . S
C845 C839 1.463 1_565 S
C845 C844 1.418 . S
C845 C846 1.383 1_565 S
C846 H832 0.929 . S
C846 C845 1.383 1_545 S
C846 C847 1.385 . S
C847 H833 0.931 . S
C847 C846 1.385 . S
C847 C848 1.389 1_545 S
C848 C847 1.389 1_565 S
C848 C849 1.387 . S
C849 H834 0.930 . S
C849 C844 1.390 . S
C849 C848 1.387 . S
H850 C862 0.930 . S
H851 C864 0.930 . S
H852 C865 0.930 . S
H853 C869 0.959 . S
H854 C869 0.959 . S
H855 C869 0.961 . S
H856 C870 0.960 . S
H857 C870 0.961 . S
H858 C870 0.959 . S
H859 C873 0.929 . S
H860 C874 0.931 . S
H861 C876 0.930 . S
C862 H850 0.930 . S
C862 C863 1.399 . S
C862 C867 1.399 . S
C863 C862 1.399 . S
C863 C864 1.376 . S
C864 H851 0.930 . S
C864 C863 1.376 . S
C864 C865 1.388 . S
C865 H852 0.930 . S
C865 C864 1.388 . S
C865 C866 1.390 . S
C866 C865 1.390 . S
C866 C867 1.394 . S
C866 C872 1.465 . S
C867 C862 1.399 . S
C867 C866 1.394 . S
C867 C868 1.516 . S
C868 C867 1.516 . S
C868 C869 1.502 . S
C868 C870 1.561 . S
C868 C871 1.526 . S
C869 H853 0.959 . S
C869 H854 0.959 . S
C869 H855 0.961 . S
C869 C868 1.502 . S
C870 H856 0.960 . S
C870 H857 0.961 . S
C870 H858 0.959 . S
C870 C868 1.561 . S
C871 C868 1.526 . S
C871 C872 1.396 . S
C871 C876 1.390 . S
C872 C866 1.465 . S
C872 C871 1.396 . S
C872 C873 1.399 . S
C873 H859 0.929 . S
C873 C872 1.399 . S
C873 C874 1.385 . S
C874 H860 0.931 . S
C874 C873 1.385 . S
C874 C875 1.389 . S
C875 C874 1.389 . S
C875 C876 1.387 . S
C876 H861 0.930 . S
C876 C871 1.390 . S
C876 C875 1.387 . S
H877 C889 0.930 . S
H878 C891 0.930 . S
H879 C892 0.930 . S
H880 C896 0.959 . S
H881 C896 0.959 . S
H882 C896 0.961 . S
H883 C897 0.960 . S
H884 C897 0.961 . S
H885 C897 0.959 . S
H886 C900 0.929 . S
H887 C901 0.931 . S
H888 C903 0.930 . S
C889 H877 0.930 . S
C889 C890 1.399 . S
C889 C894 1.399 . S
C890 C889 1.399 . S
C890 C891 1.376 . S
C891 H878 0.930 . S
C891 C890 1.376 . S
C891 C892 1.388 . S
C892 H879 0.930 . S
C892 C891 1.388 . S
C892 C893 1.390 . S
C893 C892 1.390 . S
C893 C894 1.394 . S
C893 C899 1.465 . S
C894 C889 1.399 . S
C894 C893 1.394 . S
C894 C895 1.516 . S
C895 C894 1.516 . S
C895 C896 1.502 . S
C895 C897 1.561 . S
C895 C898 1.526 . S
C896 H880 0.959 . S
C896 H881 0.959 . S
C896 H882 0.961 . S
C896 C895 1.502 . S
C897 H883 0.960 . S
C897 H884 0.961 . S
C897 H885 0.959 . S
C897 C895 1.561 . S
C898 C895 1.526 . S
C898 C899 1.396 . S
C898 C903 1.390 . S
C899 C893 1.465 . S
C899 C898 1.396 . S
C899 C900 1.399 . S
C900 H886 0.929 . S
C900 C899 1.399 . S
C900 C901 1.385 . S
C901 H887 0.931 . S
C901 C900 1.385 . S
C901 C902 1.389 . S
C902 C901 1.389 . S
C902 C903 1.387 . S
C903 H888 0.930 . S
C903 C898 1.390 . S
C903 C902 1.387 . S
C269 C76 1.840 . S
C281 C105 1.958 . S
C308 C145 1.966 . S
C296 C88 1.819 . S
C335 C185 1.990 . S
C323 C52 1.799 . S
C362 C225 1.962 . S
C350 C64 1.795 . S
C389 C114 1.958 . S
C377 C28 1.790 1_545 S
C404 C40 1.860 . S
C416 C154 1.992 . S
C431 C4 1.792 . S
C443 C194 1.969 . S
C458 C16 1.796 . S
C470 C234 1.974 1_655 S
C497 C111 0.523 . S
C485 C69 0.401 . S
C524 C151 0.416 . S
C512 C81 0.526 . S
C551 C191 0.517 . S
C539 C93 0.611 . S
C566 C57 0.504 . S
C578 C231 0.410 . S
C593 C21 0.621 1_655 S
C605 C102 0.423 . S
C632 C142 0.572 . S
C620 C33 0.516 . S
C659 C182 0.469 . S
C647 C45 0.533 . S
C674 C9 0.607 . S
C686 C222 0.479 . S
C701 C66 2.025 . S
C713 C115 2.294 . S
C728 C78 2.087 . S
C740 C155 2.275 . S
C767 C195 2.254 . S
C755 C90 2.069 . S
C794 C235 2.265 . S
C782 C54 2.063 . S
C809 C18 2.045 . S
C821 C106 2.282 . S
C848 C146 2.260 . S
C836 C30 2.090 1_565 S
C875 C186 2.279 . S
C863 C42 2.017 . S
C890 C6 2.099 . S
C902 C226 2.294 . S
