# Generated by pormake.
# Topology ssb, (4,4)-cn, num edge types: 1
# Building blocks:
#     Node 0, Type 0, BuildingBlock: NAHDIM_clean_linker_0, # of connection points: 4
#     Node 1, Type 0, BuildingBlock: NAHDIM_clean_linker_0, # of connection points: 4
#     Node 2, Type 0, BuildingBlock: NAHDIM_clean_linker_0, # of connection points: 4
#     Node 3, Type 0, BuildingBlock: NAHDIM_clean_linker_0, # of connection points: 4
#     Node 4, Type 0, BuildingBlock: NAHDIM_clean_linker_0, # of connection points: 4
#     Node 5, Type 0, BuildingBlock: NAHDIM_clean_linker_0, # of connection points: 4
#     Node 6, Type 0, BuildingBlock: NAHDIM_clean_linker_0, # of connection points: 4
#     Node 7, Type 0, BuildingBlock: NAHDIM_clean_linker_0, # of connection points: 4
#     Node 8, Type 1, BuildingBlock: KOZSID_clean_sbu_0, # of connection points: 4
#     Node 9, Type 1, BuildingBlock: KOZSID_clean_sbu_0, # of connection points: 4
#     Node 10, Type 1, BuildingBlock: KOZSID_clean_sbu_0, # of connection points: 4
#     Node 11, Type 1, BuildingBlock: KOZSID_clean_sbu_0, # of connection points: 4
#     Node 12, Type 1, BuildingBlock: KOZSID_clean_sbu_0, # of connection points: 4
#     Node 13, Type 1, BuildingBlock: KOZSID_clean_sbu_0, # of connection points: 4
#     Node 14, Type 1, BuildingBlock: KOZSID_clean_sbu_0, # of connection points: 4
#     Node 15, Type 1, BuildingBlock: KOZSID_clean_sbu_0, # of connection points: 4
#     Edge 16, Type (0, 1), BuildingBlock: XUDNAN_clean_linker_2, # of connection points: 2
#     Edge 17, Type (0, 1), BuildingBlock: XUDNAN_clean_linker_2, # of connection points: 2
#     Edge 18, Type (0, 1), BuildingBlock: XUDNAN_clean_linker_2, # of connection points: 2
#     Edge 19, Type (0, 1), BuildingBlock: XUDNAN_clean_linker_2, # of connection points: 2
#     Edge 20, Type (0, 1), BuildingBlock: XUDNAN_clean_linker_2, # of connection points: 2
#     Edge 21, Type (0, 1), BuildingBlock: XUDNAN_clean_linker_2, # of connection points: 2
#     Edge 22, Type (0, 1), BuildingBlock: XUDNAN_clean_linker_2, # of connection points: 2
#     Edge 23, Type (0, 1), BuildingBlock: XUDNAN_clean_linker_2, # of connection points: 2
#     Edge 24, Type (0, 1), BuildingBlock: XUDNAN_clean_linker_2, # of connection points: 2
#     Edge 25, Type (0, 1), BuildingBlock: XUDNAN_clean_linker_2, # of connection points: 2
#     Edge 26, Type (0, 1), BuildingBlock: XUDNAN_clean_linker_2, # of connection points: 2
#     Edge 27, Type (0, 1), BuildingBlock: XUDNAN_clean_linker_2, # of connection points: 2
#     Edge 28, Type (0, 1), BuildingBlock: XUDNAN_clean_linker_2, # of connection points: 2
#     Edge 29, Type (0, 1), BuildingBlock: XUDNAN_clean_linker_2, # of connection points: 2
#     Edge 30, Type (0, 1), BuildingBlock: XUDNAN_clean_linker_2, # of connection points: 2
#     Edge 31, Type (0, 1), BuildingBlock: XUDNAN_clean_linker_2, # of connection points: 2
#     Edge 32, Type (0, 1), BuildingBlock: XUDNAN_clean_linker_2, # of connection points: 2
#     Edge 33, Type (0, 1), BuildingBlock: XUDNAN_clean_linker_2, # of connection points: 2
#     Edge 34, Type (0, 1), BuildingBlock: XUDNAN_clean_linker_2, # of connection points: 2
#     Edge 35, Type (0, 1), BuildingBlock: XUDNAN_clean_linker_2, # of connection points: 2
#     Edge 36, Type (0, 1), BuildingBlock: XUDNAN_clean_linker_2, # of connection points: 2
#     Edge 37, Type (0, 1), BuildingBlock: XUDNAN_clean_linker_2, # of connection points: 2
#     Edge 38, Type (0, 1), BuildingBlock: XUDNAN_clean_linker_2, # of connection points: 2
#     Edge 39, Type (0, 1), BuildingBlock: XUDNAN_clean_linker_2, # of connection points: 2
#     Edge 40, Type (0, 1), BuildingBlock: XUDNAN_clean_linker_2, # of connection points: 2
#     Edge 41, Type (0, 1), BuildingBlock: XUDNAN_clean_linker_2, # of connection points: 2
#     Edge 42, Type (0, 1), BuildingBlock: XUDNAN_clean_linker_2, # of connection points: 2
#     Edge 43, Type (0, 1), BuildingBlock: XUDNAN_clean_linker_2, # of connection points: 2
#     Edge 44, Type (0, 1), BuildingBlock: XUDNAN_clean_linker_2, # of connection points: 2
#     Edge 45, Type (0, 1), BuildingBlock: XUDNAN_clean_linker_2, # of connection points: 2
#     Edge 46, Type (0, 1), BuildingBlock: XUDNAN_clean_linker_2, # of connection points: 2
#     Edge 47, Type (0, 1), BuildingBlock: XUDNAN_clean_linker_2, # of connection points: 2
# Relax obj value: 0.004
# Max RMSD: 0.052
# Mean RMSD: 0.032
data_MOF--net-ssb--node1-KOZSID_clean_sbu_0--node2-NAHDIM_clean_linker_0--edge1-XUDNAN_clean_linker_2
_symmetry_space_group_name_H-M    P1
_symmetry_Int_Tables_number       1
_symmetry_cell_setting            triclinic
loop_
_symmetry_equiv_pos_as_xyz
'x, y, z'
_cell_length_a     72.330628
_cell_length_b     72.190889
_cell_length_c     52.798307
_cell_angle_alpha  91.90174
_cell_angle_beta   94.027203
_cell_angle_gamma 90.014058
loop_
_atom_site_label
_atom_site_type_symbol
_atom_site_fract_x
_atom_site_fract_y
_atom_site_fract_z
_atom_type_partial_charge
C0 C 0.31823 0.14535 0.35255 0.0
C1 C 0.30666 0.15395 0.37315 0.0
C2 C 0.28669 0.17526 0.34928 0.0
C3 C 0.29401 0.1924 0.35846 0.0
C4 C 0.29229 0.20819 0.34364 0.0
C5 C 0.28292 0.20685 0.3192 0.0
C6 C 0.2746 0.18984 0.3105 0.0
C7 C 0.27644 0.17428 0.32581 0.0
C8 C 0.301 0.22619 0.35376 0.0
C9 C 0.26437 0.18796 0.28465 0.0
C10 C 0.38165 0.26262 0.21703 0.0
C11 C 0.37726 0.24252 0.20808 0.0
C12 C 0.34532 0.23845 0.22101 0.0
C13 C 0.32704 0.23547 0.21152 0.0
C14 C 0.31259 0.23469 0.22775 0.0
C15 C 0.31647 0.23784 0.25422 0.0
C16 C 0.33506 0.24038 0.2641 0.0
C17 C 0.34936 0.24021 0.2474 0.0
C18 C 0.29319 0.23068 0.21638 0.0
C19 C 0.33983 0.24354 0.2922 0.0
C20 C 0.24887 0.34107 0.21504 0.0
C21 C 0.24528 0.32318 0.20483 0.0
C22 C 0.24433 0.30802 0.22073 0.0
C23 C 0.24756 0.3108 0.2474 0.0
C24 C 0.25105 0.32896 0.25769 0.0
C25 C 0.25137 0.34392 0.24134 0.0
C26 C 0.23973 0.28908 0.20898 0.0
C27 C 0.25451 0.33256 0.28594 0.0
C28 C 0.153 0.24208 0.35894 0.0
C29 C 0.15738 0.26284 0.36135 0.0
C30 C 0.1764 0.27171 0.32729 0.0
C31 C 0.17801 0.26601 0.30204 0.0
C32 C 0.19478 0.26794 0.29062 0.0
C33 C 0.21013 0.27625 0.30473 0.0
C34 C 0.20836 0.28275 0.33003 0.0
C35 C 0.19147 0.28037 0.3411 0.0
C36 C 0.19616 0.26096 0.26355 0.0
C37 C 0.22431 0.29218 0.34528 0.0
C38 C 0.28355 0.22269 0.30193 0.0
C39 C 0.29868 0.22364 0.28694 0.0
C40 C 0.30102 0.2386 0.27133 0.0
C41 C 0.2881 0.25331 0.27092 0.0
C42 C 0.29065 0.26918 0.25676 0.0
C43 C 0.27726 0.28301 0.25508 0.0
C44 C 0.26075 0.28146 0.26738 0.0
C45 C 0.24652 0.29489 0.26456 0.0
C46 C 0.23042 0.29293 0.27741 0.0
C47 C 0.22805 0.27795 0.293 0.0
C48 C 0.24207 0.2644 0.29601 0.0
C49 C 0.2401 0.24913 0.31154 0.0
C50 C 0.25382 0.23563 0.31393 0.0
C51 C 0.26983 0.23668 0.30045 0.0
C52 C 0.27215 0.25205 0.28486 0.0
C53 C 0.25837 0.26605 0.28289 0.0
C54 C 0.28078 0.3664 0.19581 0.0
C55 C 0.26343 0.3573 0.18249 0.0
O56 O 0.28955 0.15947 0.3624 0.0
O57 O 0.1599 0.26926 0.33738 0.0
O58 O 0.24994 0.35572 0.19972 0.0
O59 O 0.35833 0.23978 0.20383 0.0
H60 H 0.31459 0.16612 0.38152 0.0
H61 H 0.32129 0.15598 0.33868 0.0
H62 H 0.31067 0.13374 0.3421 0.0
H63 H 0.33163 0.14015 0.36115 0.0
H64 H 0.30117 0.19351 0.37714 0.0
H65 H 0.27056 0.16106 0.31904 0.0
H66 H 0.31248 0.22992 0.34197 0.0
H67 H 0.3066 0.22536 0.37383 0.0
H68 H 0.29062 0.23751 0.35243 0.0
H69 H 0.25779 0.17412 0.28121 0.0
H70 H 0.27417 0.19017 0.26975 0.0
H71 H 0.2535 0.19878 0.28271 0.0
H72 H 0.38296 0.23285 0.22265 0.0
H73 H 0.39689 0.26484 0.21905 0.0
H74 H 0.37619 0.26588 0.23574 0.0
H75 H 0.37541 0.27254 0.20325 0.0
H76 H 0.32411 0.23377 0.19116 0.0
H77 H 0.36354 0.24176 0.25513 0.0
H78 H 0.28555 0.22169 0.22875 0.0
H79 H 0.29331 0.22382 0.19724 0.0
H80 H 0.28548 0.24389 0.21433 0.0
H81 H 0.35439 0.24826 0.29634 0.0
H82 H 0.33796 0.23041 0.30208 0.0
H83 H 0.33044 0.25402 0.30023 0.0
H84 H 0.26742 0.34326 0.17534 0.0
H85 H 0.24298 0.32116 0.18443 0.0
H86 H 0.25402 0.35786 0.249 0.0
H87 H 0.25229 0.28025 0.21027 0.0
H88 H 0.23473 0.28977 0.18865 0.0
H89 H 0.22894 0.28224 0.2194 0.0
H90 H 0.2594 0.34694 0.29062 0.0
H91 H 0.26497 0.3227 0.29395 0.0
H92 H 0.24147 0.33033 0.29533 0.0
H93 H 0.17015 0.26468 0.37419 0.0
H94 H 0.15136 0.23634 0.37792 0.0
H95 H 0.16454 0.23461 0.35028 0.0
H96 H 0.14005 0.23955 0.3467 0.0
H97 H 0.16614 0.25965 0.29146 0.0
H98 H 0.18998 0.28558 0.36031 0.0
H99 H 0.20782 0.25102 0.26256 0.0
H100 H 0.19913 0.27274 0.25145 0.0
H101 H 0.18321 0.25401 0.25561 0.0
H102 H 0.22037 0.29746 0.36416 0.0
H103 H 0.22946 0.30394 0.33467 0.0
H104 H 0.23593 0.28225 0.34817 0.0
H105 H 0.30874 0.21248 0.28733 0.0
H106 H 0.303 0.27102 0.24664 0.0
H107 H 0.2799 0.29482 0.24372 0.0
H108 H 0.21941 0.30306 0.27491 0.0
H109 H 0.22791 0.24741 0.322 0.0
H110 H 0.25157 0.22417 0.32608 0.0
H111 H 0.27747 0.38035 0.20379 0.0
H112 H 0.29173 0.36778 0.18224 0.0
H113 H 0.28631 0.35771 0.21157 0.0
C114 C 0.663 0.17299 0.15215 0.0
C115 C 0.6602 0.19391 0.15538 0.0
C116 C 0.68859 0.20927 0.17172 0.0
C117 C 0.68253 0.22127 0.19079 0.0
C118 C 0.69476 0.22737 0.21118 0.0
C119 C 0.71335 0.22109 0.21262 0.0
C120 C 0.71955 0.20925 0.19303 0.0
C121 C 0.70712 0.20381 0.17252 0.0
C122 C 0.68768 0.24025 0.23139 0.0
C123 C 0.73914 0.20198 0.19401 0.0
C124 C 0.69347 0.18451 0.39061 0.0
C125 C 0.69975 0.17294 0.36785 0.0
C126 C 0.72198 0.18866 0.34334 0.0
C127 C 0.73703 0.18361 0.32945 0.0
C128 C 0.74166 0.19385 0.30864 0.0
C129 C 0.73144 0.21 0.30245 0.0
C130 C 0.71678 0.21567 0.31729 0.0
C131 C 0.71199 0.20475 0.3373 0.0
C132 C 0.7571 0.18717 0.2929 0.0
C133 C 0.70603 0.23318 0.31183 0.0
C134 C 0.83084 0.28677 0.34217 0.0
C135 C 0.83371 0.27098 0.32697 0.0
C136 C 0.8214 0.26634 0.30594 0.0
C137 C 0.80587 0.2778 0.30024 0.0
C138 C 0.80308 0.29391 0.31552 0.0
C139 C 0.81579 0.29835 0.33612 0.0
C140 C 0.82508 0.24934 0.28969 0.0
C141 C 0.78682 0.30657 0.30988 0.0
C142 C 0.76898 0.31617 0.10299 0.0
C143 C 0.7762 0.32514 0.12843 0.0
C144 C 0.78883 0.3065 0.16359 0.0
C145 C 0.79763 0.28959 0.16801 0.0
C146 C 0.79665 0.2809 0.19124 0.0
C147 C 0.78665 0.28946 0.21049 0.0
C148 C 0.77867 0.30713 0.20672 0.0
C149 C 0.77998 0.31558 0.18335 0.0
C150 C 0.80573 0.26227 0.19487 0.0
C151 C 0.76835 0.31684 0.22716 0.0
C152 C 0.72598 0.22607 0.23525 0.0
C153 C 0.72383 0.21655 0.25746 0.0
C154 C 0.7352 0.22032 0.27953 0.0
C155 C 0.74942 0.23375 0.27949 0.0
C156 C 0.76114 0.23789 0.30134 0.0
C157 C 0.77532 0.25091 0.30092 0.0
C158 C 0.77829 0.26032 0.27865 0.0
C159 C 0.79286 0.27333 0.27784 0.0
C160 C 0.79526 0.28257 0.25543 0.0
C161 C 0.78336 0.2793 0.23373 0.0
C162 C 0.76871 0.26637 0.23416 0.0
C163 C 0.75637 0.26293 0.21271 0.0
C164 C 0.74224 0.2499 0.2131 0.0
C165 C 0.73996 0.23973 0.2349 0.0
C166 C 0.7519 0.24338 0.257 0.0
C167 C 0.76631 0.2567 0.25661 0.0
C168 C 0.83073 0.30572 0.39836 0.0
C169 C 0.84037 0.28879 0.38701 0.0
O170 O 0.67682 0.20286 0.1523 0.0
O171 O 0.78921 0.31351 0.14009 0.0
O172 O 0.84331 0.29135 0.36169 0.0
O173 O 0.71756 0.17784 0.36257 0.0
H174 H 0.65561 0.19671 0.17485 0.0
H175 H 0.67377 0.1683 0.16656 0.0
H176 H 0.66757 0.1694 0.13293 0.0
H177 H 0.64991 0.16547 0.15485 0.0
H178 H 0.66825 0.22589 0.18967 0.0
H179 H 0.71165 0.19469 0.15745 0.0
H180 H 0.68569 0.23229 0.24861 0.0
H181 H 0.6742 0.2466 0.22512 0.0
H182 H 0.69787 0.25146 0.23671 0.0
H183 H 0.74109 0.19121 0.17893 0.0
H184 H 0.74289 0.19601 0.2128 0.0
H185 H 0.74889 0.21355 0.19157 0.0
H186 H 0.68983 0.17554 0.35121 0.0
H187 H 0.67975 0.17955 0.39589 0.0
H188 H 0.69201 0.19929 0.38589 0.0
H189 H 0.70362 0.18361 0.4073 0.0
H190 H 0.74472 0.17121 0.3344 0.0
H191 H 0.70053 0.20892 0.34822 0.0
H192 H 0.76823 0.1978 0.29356 0.0
H193 H 0.7518 0.18513 0.27274 0.0
H194 H 0.7632 0.17393 0.29963 0.0
H195 H 0.69684 0.23701 0.32716 0.0
H196 H 0.69736 0.23117 0.29378 0.0
H197 H 0.71568 0.24487 0.30948 0.0
H198 H 0.83139 0.27638 0.38857 0.0
H199 H 0.84567 0.26236 0.33157 0.0
H200 H 0.81413 0.31101 0.34726 0.0
H201 H 0.81374 0.23913 0.29094 0.0
H202 H 0.83845 0.24263 0.29562 0.0
H203 H 0.82529 0.25309 0.26948 0.0
H204 H 0.78546 0.31733 0.32516 0.0
H205 H 0.77376 0.29841 0.30742 0.0
H206 H 0.78859 0.31358 0.29181 0.0
H207 H 0.76392 0.32693 0.13982 0.0
H208 H 0.75853 0.32525 0.09322 0.0
H209 H 0.76227 0.30269 0.10626 0.0
H210 H 0.7805 0.31361 0.09047 0.0
H211 H 0.80478 0.28291 0.15284 0.0
H212 H 0.77403 0.32918 0.18061 0.0
H213 H 0.79488 0.25148 0.19575 0.0
H214 H 0.81433 0.26235 0.21315 0.0
H215 H 0.8146 0.25839 0.17919 0.0
H216 H 0.76284 0.33051 0.22124 0.0
H217 H 0.77774 0.31895 0.24457 0.0
H218 H 0.75663 0.30805 0.23214 0.0
H219 H 0.71306 0.2061 0.25762 0.0
H220 H 0.75954 0.23102 0.31898 0.0
H221 H 0.78398 0.25345 0.31826 0.0
H222 H 0.80649 0.29248 0.25488 0.0
H223 H 0.7575 0.27023 0.1953 0.0
H224 H 0.73319 0.24782 0.19603 0.0
H225 H 0.83819 0.31866 0.39442 0.0
H226 H 0.83023 0.30461 0.41925 0.0
H227 H 0.81621 0.30656 0.39027 0.0
C228 C 0.76183 0.87394 0.33818 0.0
C229 C 0.74066 0.87346 0.33366 0.0
C230 C 0.73201 0.84053 0.32774 0.0
C231 C 0.7227 0.82596 0.33818 0.0
C232 C 0.72019 0.80881 0.32507 0.0
C233 C 0.72734 0.80617 0.30097 0.0
C234 C 0.73697 0.82075 0.29036 0.0
C235 C 0.73921 0.83778 0.30382 0.0
C236 C 0.70985 0.79353 0.33686 0.0
C237 C 0.74485 0.81833 0.26473 0.0
C238 C 0.62478 0.74664 0.18016 0.0
C239 C 0.62842 0.76751 0.17878 0.0
C240 C 0.66075 0.77082 0.19674 0.0
C241 C 0.67881 0.77447 0.19056 0.0
C242 C 0.69366 0.77453 0.20907 0.0
C243 C 0.69035 0.77049 0.2344 0.0
C244 C 0.67209 0.76685 0.2409 0.0
C245 C 0.65741 0.76718 0.22203 0.0
C246 C 0.71288 0.77894 0.2015 0.0
C247 C 0.66812 0.76256 0.26776 0.0
C248 C 0.75599 0.66402 0.20984 0.0
C249 C 0.76022 0.68147 0.20062 0.0
C250 C 0.76126 0.6973 0.21683 0.0
C251 C 0.75733 0.69581 0.24259 0.0
C252 C 0.75288 0.67831 0.25186 0.0
C253 C 0.75257 0.66261 0.23542 0.0
C254 C 0.76685 0.71557 0.20644 0.0
C255 C 0.74848 0.67615 0.27912 0.0
C256 C 0.84342 0.76857 0.38005 0.0
C257 C 0.8424 0.74753 0.38242 0.0
C258 C 0.82614 0.73621 0.3429 0.0
C259 C 0.82667 0.74015 0.31726 0.0
C260 C 0.81081 0.73808 0.30052 0.0
C261 C 0.7942 0.73147 0.3097 0.0
C262 C 0.79385 0.72659 0.33539 0.0
C263 C 0.80985 0.72905 0.35178 0.0
C264 C 0.81169 0.74329 0.27319 0.0
C265 C 0.77652 0.71893 0.34553 0.0
C266 C 0.72453 0.78828 0.28658 0.0
C267 C 0.70904 0.78655 0.26932 0.0
C268 C 0.70601 0.7705 0.25409 0.0
C269 C 0.71855 0.75552 0.25639 0.0
C270 C 0.71567 0.73899 0.2418 0.0
C271 C 0.72858 0.72469 0.24329 0.0
C272 C 0.74489 0.72644 0.25932 0.0
C273 C 0.75858 0.71243 0.26001 0.0
C274 C 0.77438 0.71443 0.27672 0.0
C275 C 0.77706 0.7302 0.29261 0.0
C276 C 0.7638 0.74458 0.29171 0.0
C277 C 0.76636 0.76088 0.30691 0.0
C278 C 0.75343 0.77513 0.30549 0.0
C279 C 0.73746 0.77365 0.28877 0.0
C280 C 0.73447 0.75723 0.27353 0.0
C281 C 0.74767 0.74269 0.27497 0.0
C282 C 0.73203 0.64918 0.16097 0.0
C283 C 0.75263 0.64655 0.16883 0.0
O284 O 0.73373 0.85683 0.34141 0.0
O285 O 0.8417 0.73906 0.35841 0.0
O286 O 0.75542 0.64819 0.19508 0.0
O287 O 0.64718 0.77087 0.1776 0.0
H288 H 0.73688 0.87511 0.31306 0.0
H289 H 0.76819 0.86278 0.32678 0.0
H290 H 0.76613 0.87194 0.35853 0.0
H291 H 0.76732 0.88744 0.33245 0.0
H292 H 0.71726 0.82814 0.35665 0.0
H293 H 0.74665 0.84875 0.29547 0.0
H294 H 0.69758 0.78935 0.32414 0.0
H295 H 0.70515 0.79777 0.35578 0.0
H296 H 0.71891 0.78118 0.33901 0.0
H297 H 0.75243 0.83084 0.25938 0.0
H298 H 0.73346 0.81529 0.24997 0.0
H299 H 0.75446 0.80634 0.26481 0.0
H300 H 0.6233 0.77489 0.19575 0.0
H301 H 0.60969 0.74396 0.18081 0.0
H302 H 0.63194 0.741 0.19749 0.0
H303 H 0.62987 0.73909 0.16333 0.0
H304 H 0.68121 0.77734 0.17104 0.0
H305 H 0.64349 0.7645 0.22722 0.0
H306 H 0.71942 0.78981 0.21456 0.0
H307 H 0.71278 0.78376 0.18173 0.0
H308 H 0.72166 0.76636 0.203 0.0
H309 H 0.65343 0.75852 0.26935 0.0
H310 H 0.67126 0.77493 0.28037 0.0
H311 H 0.67721 0.75114 0.27473 0.0
H312 H 0.76087 0.65709 0.15971 0.0
H313 H 0.76316 0.68291 0.18102 0.0
H314 H 0.7494 0.64911 0.24242 0.0
H315 H 0.75461 0.72483 0.20473 0.0
H316 H 0.77236 0.71383 0.18739 0.0
H317 H 0.77755 0.72257 0.21953 0.0
H318 H 0.74282 0.6622 0.28242 0.0
H319 H 0.73828 0.68679 0.28464 0.0
H320 H 0.76129 0.6783 0.29172 0.0
H321 H 0.82978 0.74428 0.3923 0.0
H322 H 0.8441 0.77558 0.39916 0.0
H323 H 0.83085 0.77354 0.36902 0.0
H324 H 0.85582 0.77249 0.37013 0.0
H325 H 0.83944 0.74535 0.31055 0.0
H326 H 0.80964 0.72512 0.37135 0.0
H327 H 0.80103 0.75393 0.2684 0.0
H328 H 0.80854 0.73095 0.26051 0.0
H329 H 0.8255 0.74879 0.26925 0.0
H330 H 0.77892 0.71442 0.3654 0.0
H331 H 0.77126 0.70696 0.33337 0.0
H332 H 0.76557 0.72971 0.34493 0.0
H333 H 0.69947 0.79807 0.26722 0.0
H334 H 0.70346 0.73697 0.22892 0.0
H335 H 0.7257 0.71233 0.23151 0.0
H336 H 0.78486 0.70367 0.27715 0.0
H337 H 0.77848 0.76289 0.31995 0.0
H338 H 0.75619 0.78739 0.31753 0.0
H339 H 0.72953 0.64815 0.13997 0.0
H340 H 0.72743 0.6631 0.16752 0.0
H341 H 0.72357 0.63851 0.16955 0.0
C342 C 0.36542 0.79703 0.18686 0.0
C343 C 0.3582 0.78314 0.1658 0.0
C344 C 0.3255 0.78159 0.17559 0.0
C345 C 0.32825 0.77087 0.19729 0.0
C346 C 0.31395 0.76845 0.21348 0.0
C347 C 0.29656 0.77684 0.20782 0.0
C348 C 0.29349 0.78695 0.18545 0.0
C349 C 0.30801 0.78909 0.16952 0.0
C350 C 0.31757 0.75738 0.23707 0.0
C351 C 0.27504 0.79596 0.17882 0.0
C352 C 0.27254 0.89119 0.32947 0.0
C353 C 0.26677 0.87464 0.31359 0.0
C354 C 0.27265 0.84162 0.30845 0.0
C355 C 0.25848 0.83873 0.28906 0.0
C356 C 0.25699 0.82191 0.27506 0.0
C357 C 0.26966 0.80749 0.28091 0.0
C358 C 0.28328 0.80995 0.30132 0.0
C359 C 0.2846 0.82705 0.31484 0.0
C360 C 0.24229 0.81985 0.25335 0.0
C361 C 0.29681 0.79475 0.3083 0.0
C362 C 0.18485 0.73215 0.32983 0.0
C363 C 0.17775 0.74101 0.30792 0.0
C364 C 0.18758 0.74074 0.28593 0.0
C365 C 0.20468 0.73125 0.28585 0.0
C366 C 0.21114 0.7212 0.30724 0.0
C367 C 0.20104 0.72172 0.32896 0.0
C368 C 0.18011 0.75115 0.26313 0.0
C369 C 0.22909 0.71054 0.30751 0.0
C370 C 0.24795 0.66959 0.10616 0.0
C371 C 0.24165 0.66304 0.1315 0.0
C372 C 0.22486 0.68319 0.15986 0.0
C373 C 0.2143 0.69937 0.15918 0.0
C374 C 0.21399 0.71133 0.18063 0.0
C375 C 0.22439 0.7068 0.20328 0.0
C376 C 0.23393 0.68973 0.20464 0.0
C377 C 0.23396 0.67802 0.18293 0.0
C378 C 0.20328 0.72922 0.17877 0.0
C379 C 0.24472 0.68427 0.22873 0.0
C380 C 0.2822 0.77633 0.22644 0.0
C381 C 0.2825 0.79045 0.24515 0.0
C382 C 0.26981 0.79076 0.26388 0.0
C383 C 0.25676 0.77626 0.26456 0.0
C384 C 0.24448 0.77557 0.28397 0.0
C385 C 0.23146 0.76139 0.28415 0.0
C386 C 0.23001 0.74756 0.26467 0.0
C387 C 0.21667 0.73321 0.26448 0.0
C388 C 0.21506 0.72015 0.24429 0.0
C389 C 0.22688 0.72072 0.2245 0.0
C390 C 0.2409 0.73442 0.22496 0.0
C391 C 0.25361 0.73482 0.20596 0.0
C392 C 0.26731 0.74838 0.20656 0.0
C393 C 0.2686 0.76226 0.22589 0.0
C394 C 0.25592 0.76216 0.24517 0.0
C395 C 0.24227 0.74803 0.24493 0.0
C396 C 0.17372 0.75489 0.38682 0.0
C397 C 0.16597 0.74811 0.36042 0.0
O398 O 0.33932 0.7854 0.16035 0.0
O399 O 0.22628 0.67316 0.13788 0.0
O400 O 0.17668 0.7335 0.35218 0.0
O401 O 0.27546 0.85834 0.32078 0.0
H402 H 0.36102 0.76877 0.17194 0.0
H403 H 0.35891 0.79452 0.20484 0.0
H404 H 0.36228 0.81146 0.1813 0.0
H405 H 0.38066 0.79555 0.19059 0.0
H406 H 0.34157 0.76461 0.20203 0.0
H407 H 0.30595 0.79716 0.15261 0.0
H408 H 0.31658 0.7666 0.25417 0.0
H409 H 0.33147 0.75078 0.23802 0.0
H410 H 0.30686 0.7464 0.23767 0.0
H411 H 0.27457 0.80257 0.16008 0.0
H412 H 0.27225 0.8067 0.19361 0.0
H413 H 0.26378 0.78548 0.17852 0.0
H414 H 0.26627 0.87674 0.2927 0.0
H415 H 0.27938 0.9006 0.31629 0.0
H416 H 0.28593 0.88744 0.34036 0.0
H417 H 0.24803 0.89888 0.34754 0.0
H418 H 0.24875 0.84967 0.28434 0.0
H419 H 0.29534 0.82928 0.33002 0.0
H420 H 0.24877 0.81587 0.23552 0.0
H421 H 0.23426 0.83279 0.25028 0.0
H422 H 0.2325 0.80864 0.2573 0.0
H423 H 0.30469 0.79776 0.3268 0.0
H424 H 0.30681 0.79314 0.29337 0.0
H425 H 0.28938 0.78134 0.30925 0.0
H426 H 0.16686 0.76019 0.34799 0.0
H427 H 0.16467 0.7483 0.30799 0.0
H428 H 0.20616 0.71458 0.34577 0.0
H429 H 0.18956 0.76284 0.25994 0.0
H430 H 0.16602 0.75677 0.26553 0.0
H431 H 0.17961 0.74189 0.24588 0.0
H432 H 0.23158 0.70247 0.32497 0.0
H433 H 0.24081 0.72033 0.30629 0.0
H434 H 0.22897 0.70088 0.29068 0.0
H435 H 0.2537 0.66581 0.14544 0.0
H436 H 0.25946 0.66078 0.0998 0.0
H437 H 0.25302 0.68411 0.10855 0.0
H438 H 0.23637 0.66924 0.09119 0.0
H439 H 0.20697 0.70302 0.14144 0.0
H440 H 0.24138 0.66502 0.18394 0.0
H441 H 0.21313 0.74106 0.17968 0.0
H442 H 0.19446 0.73095 0.19507 0.0
H443 H 0.19436 0.72981 0.16081 0.0
H444 H 0.25083 0.67021 0.22701 0.0
H445 H 0.23553 0.68462 0.24472 0.0
H446 H 0.25608 0.69441 0.23355 0.0
H447 H 0.2926 0.80156 0.24487 0.0
H448 H 0.2449 0.78594 0.29929 0.0
H449 H 0.22241 0.76155 0.29963 0.0
H450 H 0.20462 0.70935 0.2441 0.0
H451 H 0.25319 0.7246 0.19046 0.0
H452 H 0.27675 0.74799 0.19151 0.0
H453 H 0.16516 0.76645 0.394 0.0
H454 H 0.18811 0.76004 0.38576 0.0
H455 H 0.17399 0.7435 0.40049 0.0
C456 C 0.15192 0.67657 0.65653 0.0
C457 C 0.14848 0.69736 0.6604 0.0
C458 C 0.17719 0.71452 0.6663 0.0
C459 C 0.17397 0.72675 0.68666 0.0
C460 C 0.18862 0.73277 0.70377 0.0
C461 C 0.20677 0.72622 0.7005 0.0
C462 C 0.21017 0.71473 0.67908 0.0
C463 C 0.19529 0.70921 0.66199 0.0
C464 C 0.18455 0.74547 0.72594 0.0
C465 C 0.22936 0.70758 0.67495 0.0
C466 C 0.22679 0.64082 0.86305 0.0
C467 C 0.2339 0.65126 0.84196 0.0
C468 C 0.22896 0.68073 0.82058 0.0
C469 C 0.24221 0.67765 0.80262 0.0
C470 C 0.24481 0.69059 0.78384 0.0
C471 C 0.23422 0.70708 0.7833 0.0
C472 C 0.22145 0.71054 0.80201 0.0
C473 C 0.21893 0.69726 0.82028 0.0
C474 C 0.25851 0.68644 0.76416 0.0
C475 C 0.21009 0.72806 0.80229 0.0
C476 C 0.32828 0.79091 0.8239 0.0
C477 C 0.33318 0.78206 0.80145 0.0
C478 C 0.31984 0.7776 0.78165 0.0
C479 C 0.30113 0.78258 0.78419 0.0
C480 C 0.29602 0.79158 0.80689 0.0
C481 C 0.30959 0.79531 0.82674 0.0
C482 C 0.32579 0.76774 0.75793 0.0
C483 C 0.27627 0.79751 0.81006 0.0
C484 C 0.25587 0.83901 0.60779 0.0
C485 C 0.26359 0.84983 0.63172 0.0
C486 C 0.27636 0.82768 0.66234 0.0
C487 C 0.28691 0.81147 0.66193 0.0
C488 C 0.28582 0.79832 0.6808 0.0
C489 C 0.27407 0.80164 0.7008 0.0
C490 C 0.26367 0.81822 0.70164 0.0
C491 C 0.26498 0.83111 0.68248 0.0
C492 C 0.29734 0.78093 0.67952 0.0
C493 C 0.25141 0.82243 0.72306 0.0
C494 C 0.2216 0.72952 0.72102 0.0
C495 C 0.22215 0.71765 0.74143 0.0
C496 C 0.23527 0.71993 0.76199 0.0
C497 C 0.24844 0.73443 0.76218 0.0
C498 C 0.26193 0.7371 0.78245 0.0
C499 C 0.27475 0.75149 0.78254 0.0
C500 C 0.27439 0.76393 0.76255 0.0
C501 C 0.28705 0.77888 0.76279 0.0
C502 C 0.28649 0.79081 0.74244 0.0
C503 C 0.27357 0.78834 0.72167 0.0
C504 C 0.26059 0.77363 0.72122 0.0
C505 C 0.24717 0.77087 0.70085 0.0
C506 C 0.23435 0.75645 0.70074 0.0
C507 C 0.23457 0.74416 0.72088 0.0
C508 C 0.24805 0.74661 0.74156 0.0
C509 C 0.26103 0.76139 0.74176 0.0
C510 C 0.3377 0.82379 0.86533 0.0
C511 C 0.34067 0.80275 0.86614 0.0
O512 O 0.16293 0.70719 0.65122 0.0
O513 O 0.27797 0.8399 0.64353 0.0
O514 O 0.34212 0.79521 0.84189 0.0
O515 O 0.22518 0.66815 0.83816 0.0
H516 H 0.14783 0.70011 0.68122 0.0
H517 H 0.16503 0.67267 0.66725 0.0
H518 H 0.1531 0.67289 0.63611 0.0
H519 H 0.14041 0.66846 0.66365 0.0
H520 H 0.15994 0.73123 0.68941 0.0
H521 H 0.19758 0.69994 0.64595 0.0
H522 H 0.18542 0.73748 0.74357 0.0
H523 H 0.17051 0.75167 0.72354 0.0
H524 H 0.19499 0.75679 0.7284 0.0
H525 H 0.2298 0.69921 0.65696 0.0
H526 H 0.23424 0.69888 0.69103 0.0
H527 H 0.23917 0.71938 0.67453 0.0
H528 H 0.23549 0.64285 0.82415 0.0
H529 H 0.22066 0.62773 0.85371 0.0
H530 H 0.21292 0.64702 0.86694 0.0
H531 H 0.24958 0.64064 0.89094 0.0
H532 H 0.25033 0.66507 0.80283 0.0
H533 H 0.20886 0.69962 0.8343 0.0
H534 H 0.25122 0.68598 0.74492 0.0
H535 H 0.26576 0.67304 0.7672 0.0
H536 H 0.26901 0.69769 0.76463 0.0
H537 H 0.2026 0.72979 0.81987 0.0
H538 H 0.19977 0.72766 0.78572 0.0
H539 H 0.21912 0.74034 0.8006 0.0
H540 H 0.32885 0.79625 0.87496 0.0
H541 H 0.34762 0.77864 0.79949 0.0
H542 H 0.30547 0.8019 0.84413 0.0
H543 H 0.31639 0.75587 0.7525 0.0
H544 H 0.34024 0.76254 0.76037 0.0
H545 H 0.32491 0.77745 0.74203 0.0
H546 H 0.27504 0.80646 0.82739 0.0
H547 H 0.26743 0.78508 0.81146 0.0
H548 H 0.27078 0.80518 0.79327 0.0
H549 H 0.25174 0.8513 0.64394 0.0
H550 H 0.24559 0.8475 0.59668 0.0
H551 H 0.24881 0.82625 0.61334 0.0
H552 H 0.26715 0.83471 0.59564 0.0
H553 H 0.29589 0.80907 0.64658 0.0
H554 H 0.25748 0.84403 0.68374 0.0
H555 H 0.28826 0.76855 0.67988 0.0
H556 H 0.30734 0.78061 0.69644 0.0
H557 H 0.30516 0.78 0.66216 0.0
H558 H 0.24382 0.83571 0.72069 0.0
H559 H 0.25995 0.82319 0.74138 0.0
H560 H 0.24117 0.81108 0.72419 0.0
H561 H 0.21203 0.70654 0.74145 0.0
H562 H 0.26273 0.72807 0.79845 0.0
H563 H 0.28489 0.7528 0.79858 0.0
H564 H 0.29629 0.80222 0.74278 0.0
H565 H 0.24638 0.77989 0.68484 0.0
H566 H 0.22425 0.75502 0.68465 0.0
H567 H 0.34912 0.83058 0.85607 0.0
H568 H 0.33712 0.82978 0.88493 0.0
H569 H 0.32448 0.82711 0.85455 0.0
C570 C 0.18754 0.35554 0.86644 0.0
C571 C 0.2084 0.35634 0.87408 0.0
C572 C 0.21989 0.33559 0.84073 0.0
C573 C 0.2137 0.3189 0.85026 0.0
C574 C 0.21438 0.30226 0.83589 0.0
C575 C 0.22145 0.3023 0.81159 0.0
C576 C 0.22831 0.31893 0.80233 0.0
C577 C 0.22752 0.33536 0.81714 0.0
C578 C 0.20718 0.28468 0.84642 0.0
C579 C 0.23609 0.31938 0.77659 0.0
C580 C 0.12261 0.22592 0.68069 0.0
C581 C 0.1305 0.24553 0.68482 0.0
C582 C 0.15025 0.25379 0.72324 0.0
C583 C 0.16391 0.26396 0.71207 0.0
C584 C 0.18095 0.26805 0.72553 0.0
C585 C 0.18424 0.26196 0.75064 0.0
C586 C 0.17023 0.2523 0.76219 0.0
C587 C 0.15334 0.24847 0.74834 0.0
C588 C 0.19549 0.27873 0.71294 0.0
C589 C 0.17318 0.24584 0.78906 0.0
C590 C 0.24989 0.16484 0.71769 0.0
C591 C 0.26061 0.17937 0.7093 0.0
C592 C 0.26513 0.19487 0.72527 0.0
C593 C 0.25908 0.19565 0.75017 0.0
C594 C 0.24961 0.18036 0.7593 0.0
C595 C 0.24517 0.1651 0.74288 0.0
C596 C 0.27567 0.21077 0.71522 0.0
C597 C 0.2434 0.18056 0.78599 0.0
C598 C 0.3437 0.27207 0.8907 0.0
C599 C 0.34271 0.2509 0.88846 0.0
C600 C 0.32743 0.24138 0.8473 0.0
C601 C 0.32721 0.247 0.82223 0.0
C602 C 0.31158 0.24397 0.8053 0.0
C603 C 0.29593 0.23485 0.81371 0.0
C604 C 0.2964 0.22835 0.83873 0.0
C605 C 0.31221 0.23158 0.85525 0.0
C606 C 0.31161 0.2508 0.77862 0.0
C607 C 0.28012 0.21813 0.84804 0.0
C608 C 0.2207 0.28517 0.79532 0.0
C609 C 0.20443 0.28162 0.78007 0.0
C610 C 0.20239 0.26548 0.76486 0.0
C611 C 0.21706 0.25256 0.76445 0.0
C612 C 0.21551 0.23626 0.74914 0.0
C613 C 0.22986 0.22345 0.74926 0.0
C614 C 0.24627 0.22637 0.76486 0.0
C615 C 0.26074 0.21319 0.76557 0.0
C616 C 0.27681 0.21641 0.78136 0.0
C617 C 0.27885 0.23258 0.79664 0.0
C618 C 0.26456 0.24598 0.79613 0.0
C619 C 0.26617 0.2624 0.81126 0.0
C620 C 0.25189 0.27534 0.81091 0.0
C621 C 0.23545 0.27233 0.79547 0.0
C622 C 0.2336 0.25595 0.77995 0.0
C623 C 0.24819 0.2428 0.78023 0.0
C624 C 0.22116 0.14321 0.66809 0.0
C625 C 0.24053 0.15089 0.67586 0.0
O626 O 0.21854 0.35221 0.8533 0.0
O627 O 0.34267 0.24528 0.86307 0.0
O628 O 0.24356 0.15057 0.70205 0.0
O629 O 0.13381 0.2491 0.7107 0.0
H630 H 0.21188 0.34632 0.88924 0.0
H631 H 0.18326 0.34134 0.85981 0.0
H632 H 0.18393 0.36518 0.85087 0.0
H633 H 0.17949 0.35943 0.88298 0.0
H634 H 0.2081 0.31874 0.8687 0.0
H635 H 0.23244 0.34826 0.81007 0.0
H636 H 0.19475 0.27982 0.83453 0.0
H637 H 0.20337 0.28667 0.86634 0.0
H638 H 0.2178 0.27361 0.84567 0.0
H639 H 0.24129 0.33335 0.77238 0.0
H640 H 0.2252 0.31514 0.76164 0.0
H641 H 0.24763 0.3093 0.77559 0.0
H642 H 0.14359 0.24582 0.67495 0.0
H643 H 0.10938 0.22462 0.69001 0.0
H644 H 0.13265 0.21575 0.68895 0.0
H645 H 0.12007 0.22248 0.66006 0.0
H646 H 0.16129 0.26889 0.69302 0.0
H647 H 0.14256 0.24092 0.7569 0.0
H648 H 0.20821 0.27021 0.71196 0.0
H649 H 0.19928 0.29148 0.7245 0.0
H650 H 0.19072 0.28272 0.69342 0.0
H651 H 0.16088 0.23847 0.79528 0.0
H652 H 0.1763 0.25792 0.80222 0.0
H653 H 0.18529 0.23639 0.79061 0.0
H654 H 0.24046 0.16535 0.66918 0.0
H655 H 0.26522 0.17884 0.69023 0.0
H656 H 0.23729 0.15362 0.74934 0.0
H657 H 0.26671 0.22326 0.71442 0.0
H658 H 0.2803 0.20762 0.69592 0.0
H659 H 0.28799 0.21418 0.72828 0.0
H660 H 0.23794 0.16687 0.79104 0.0
H661 H 0.23233 0.19107 0.78786 0.0
H662 H 0.25513 0.18456 0.7998 0.0
H663 H 0.32974 0.2467 0.89682 0.0
H664 H 0.34401 0.27681 0.91097 0.0
H665 H 0.33129 0.2781 0.8805 0.0
H666 H 0.35626 0.27731 0.88225 0.0
H667 H 0.33919 0.2542 0.81613 0.0
H668 H 0.31266 0.22623 0.87418 0.0
H669 H 0.30046 0.26122 0.77548 0.0
H670 H 0.30862 0.2391 0.76474 0.0
H671 H 0.32506 0.25719 0.77478 0.0
H672 H 0.28277 0.21367 0.8679 0.0
H673 H 0.27687 0.20571 0.83556 0.0
H674 H 0.26771 0.22719 0.84704 0.0
H675 H 0.19306 0.29141 0.78041 0.0
H676 H 0.20318 0.2332 0.7369 0.0
H677 H 0.22783 0.21117 0.73706 0.0
H678 H 0.28777 0.20614 0.78196 0.0
H679 H 0.27846 0.26542 0.8236 0.0
H680 H 0.25385 0.28769 0.823 0.0
H681 H 0.21859 0.14293 0.64708 0.0
H682 H 0.21056 0.15222 0.67643 0.0
H683 H 0.21949 0.12897 0.67498 0.0
C684 C 0.84893 0.33819 0.67515 0.0
C685 C 0.84897 0.31696 0.67563 0.0
C686 C 0.81891 0.30336 0.681 0.0
C687 C 0.82368 0.29066 0.6999 0.0
C688 C 0.81062 0.2851 0.71656 0.0
C689 C 0.79245 0.29239 0.71418 0.0
C690 C 0.7873 0.30426 0.6941 0.0
C691 C 0.80061 0.30946 0.67754 0.0
C692 C 0.81642 0.27194 0.73724 0.0
C693 C 0.76794 0.31199 0.69076 0.0
C694 C 0.78932 0.33285 0.90171 0.0
C695 C 0.79353 0.34696 0.88168 0.0
C696 C 0.77764 0.33469 0.84176 0.0
C697 C 0.76335 0.33797 0.82323 0.0
C698 C 0.76053 0.32629 0.8015 0.0
C699 C 0.77215 0.31073 0.79847 0.0
C700 C 0.78658 0.30724 0.81718 0.0
C701 C 0.78927 0.3193 0.83852 0.0
C702 C 0.74515 0.33056 0.78177 0.0
C703 C 0.79922 0.29075 0.8146 0.0
C704 C 0.68559 0.22676 0.83222 0.0
C705 C 0.67985 0.24003 0.81454 0.0
C706 C 0.69044 0.24356 0.79392 0.0
C707 C 0.70719 0.23375 0.79122 0.0
C708 C 0.71277 0.22011 0.80882 0.0
C709 C 0.70169 0.2166 0.82888 0.0
C710 C 0.68375 0.25772 0.775 0.0
C711 C 0.73044 0.20927 0.80654 0.0
C712 C 0.75834 0.15991 0.64213 0.0
C713 C 0.73942 0.15502 0.65161 0.0
C714 C 0.72932 0.1843 0.67159 0.0
C715 C 0.7169 0.19907 0.66921 0.0
C716 C 0.71699 0.21354 0.68767 0.0
C717 C 0.72988 0.21319 0.70905 0.0
C718 C 0.74256 0.19834 0.71159 0.0
C719 C 0.74216 0.18406 0.69289 0.0
C720 C 0.70331 0.2292 0.68441 0.0
C721 C 0.75651 0.19753 0.73419 0.0
C722 C 0.77945 0.28894 0.73404 0.0
C723 C 0.78048 0.30088 0.7555 0.0
C724 C 0.76938 0.29815 0.77566 0.0
C725 C 0.75664 0.28324 0.77435 0.0
C726 C 0.74538 0.27998 0.79439 0.0
C727 C 0.73299 0.26519 0.79304 0.0
C728 C 0.73142 0.25303 0.77162 0.0
C729 C 0.719 0.23783 0.77019 0.0
C730 C 0.71835 0.22557 0.7491 0.0
C731 C 0.72985 0.22799 0.72927 0.0
C732 C 0.74196 0.24342 0.72996 0.0
C733 C 0.75344 0.24649 0.71008 0.0
C734 C 0.76563 0.26149 0.71125 0.0
C735 C 0.76685 0.2739 0.73239 0.0
C736 C 0.75535 0.2711 0.7526 0.0
C737 C 0.74279 0.25593 0.7513 0.0
C738 C 0.68143 0.23789 0.89237 0.0
C739 C 0.66813 0.2358 0.86852 0.0
O740 O 0.83178 0.31023 0.66631 0.0
O741 O 0.72844 0.17073 0.65296 0.0
O742 O 0.67555 0.22288 0.8521 0.0
O743 O 0.77951 0.3466 0.86235 0.0
H744 H 0.85184 0.3137 0.69601 0.0
H745 H 0.83944 0.34382 0.68915 0.0
H746 H 0.84395 0.34309 0.65616 0.0
H747 H 0.86305 0.34378 0.68035 0.0
H748 H 0.83768 0.28532 0.70185 0.0
H749 H 0.79701 0.31899 0.66255 0.0
H750 H 0.81652 0.27938 0.75598 0.0
H751 H 0.83044 0.26609 0.73499 0.0
H752 H 0.80631 0.26037 0.7373 0.0
H753 H 0.76586 0.32029 0.67345 0.0
H754 H 0.76514 0.32093 0.70758 0.0
H755 H 0.75768 0.3005 0.68955 0.0
H756 H 0.80699 0.34307 0.87402 0.0
H757 H 0.79995 0.33372 0.91795 0.0
H758 H 0.78954 0.31853 0.89344 0.0
H759 H 0.77534 0.33526 0.90861 0.0
H760 H 0.75443 0.34985 0.82581 0.0
H761 H 0.80042 0.31644 0.85254 0.0
H762 H 0.7348 0.31915 0.7805 0.0
H763 H 0.75082 0.33143 0.76283 0.0
H764 H 0.738 0.34376 0.78622 0.0
H765 H 0.80858 0.28889 0.83192 0.0
H766 H 0.80784 0.29264 0.79829 0.0
H767 H 0.79093 0.2779 0.81064 0.0
H768 H 0.66674 0.2496 0.85982 0.0
H769 H 0.66694 0.24734 0.81652 0.0
H770 H 0.70576 0.20614 0.84243 0.0
H771 H 0.69326 0.26983 0.7765 0.0
H772 H 0.66952 0.26265 0.7782 0.0
H773 H 0.68388 0.25174 0.75536 0.0
H774 H 0.73399 0.20094 0.82351 0.0
H775 H 0.74217 0.21877 0.80383 0.0
H776 H 0.72882 0.19972 0.78962 0.0
H777 H 0.7415 0.14902 0.67073 0.0
H778 H 0.76704 0.14728 0.64081 0.0
H779 H 0.76582 0.17004 0.6554 0.0
H780 H 0.75662 0.16611 0.62312 0.0
H781 H 0.70706 0.19921 0.65276 0.0
H782 H 0.75195 0.17284 0.69519 0.0
H783 H 0.71083 0.24263 0.68499 0.0
H784 H 0.69411 0.22954 0.70038 0.0
H785 H 0.69461 0.22781 0.66624 0.0
H786 H 0.76525 0.18489 0.73361 0.0
H787 H 0.74922 0.19779 0.75201 0.0
H788 H 0.76568 0.20989 0.73485 0.0
H789 H 0.79034 0.31226 0.75674 0.0
H790 H 0.74602 0.28884 0.81139 0.0
H791 H 0.72473 0.26336 0.8091 0.0
H792 H 0.70914 0.21366 0.74846 0.0
H793 H 0.75313 0.23733 0.69341 0.0
H794 H 0.77417 0.26317 0.69544 0.0
H795 H 0.68245 0.22465 0.90252 0.0
H796 H 0.67676 0.249 0.90547 0.0
H797 H 0.69546 0.24171 0.88692 0.0
C798 C 0.82296 0.65416 0.84212 0.0
C799 C 0.80385 0.65803 0.85199 0.0
C800 C 0.79051 0.67879 0.81947 0.0
C801 C 0.80055 0.69474 0.82808 0.0
C802 C 0.79958 0.71094 0.81411 0.0
C803 C 0.78854 0.71115 0.79093 0.0
C804 C 0.77827 0.69522 0.78232 0.0
C805 C 0.77927 0.67929 0.79687 0.0
C806 C 0.81047 0.72782 0.82404 0.0
C807 C 0.76637 0.69503 0.75767 0.0
C808 C 0.88419 0.77441 0.69068 0.0
C809 C 0.87922 0.75442 0.68187 0.0
C810 C 0.84725 0.75049 0.69444 0.0
C811 C 0.82891 0.74765 0.68506 0.0
C812 C 0.81465 0.74582 0.70147 0.0
C813 C 0.81881 0.74754 0.72805 0.0
C814 C 0.8374 0.75029 0.73774 0.0
C815 C 0.85147 0.75141 0.72085 0.0
C816 C 0.79515 0.74212 0.69031 0.0
C817 C 0.84245 0.75208 0.76595 0.0
C818 C 0.76285 0.85712 0.72734 0.0
C819 C 0.75293 0.84338 0.71264 0.0
C820 C 0.74878 0.82636 0.72311 0.0
C821 C 0.7548 0.82307 0.74865 0.0
C822 C 0.76413 0.83722 0.76372 0.0
C823 C 0.76781 0.85418 0.75289 0.0
C824 C 0.73834 0.81175 0.70677 0.0
C825 C 0.77063 0.83428 0.79107 0.0
C826 C 0.68076 0.74664 0.87798 0.0
C827 C 0.67869 0.76755 0.87454 0.0
C828 C 0.69072 0.77575 0.83404 0.0
C829 C 0.68911 0.76993 0.80849 0.0
C830 C 0.70325 0.77342 0.7924 0.0
C831 C 0.71937 0.78304 0.80222 0.0
C832 C 0.72068 0.78981 0.82772 0.0
C833 C 0.70623 0.7863 0.8433 0.0
C834 C 0.70119 0.76643 0.7651 0.0
C835 C 0.73744 0.80059 0.83861 0.0
C836 C 0.78816 0.72798 0.77557 0.0
C837 C 0.80212 0.73009 0.7589 0.0
C838 C 0.80374 0.74638 0.74564 0.0
C839 C 0.79116 0.76109 0.7492 0.0
C840 C 0.79306 0.77812 0.73746 0.0
C841 C 0.78046 0.7924 0.74084 0.0
C842 C 0.76537 0.79014 0.75588 0.0
C843 C 0.7524 0.80453 0.75928 0.0
C844 C 0.73742 0.80174 0.77409 0.0
C845 C 0.7353 0.78505 0.78629 0.0
C846 C 0.74845 0.77073 0.78377 0.0
C847 C 0.74719 0.75409 0.79672 0.0
C848 C 0.76024 0.74012 0.79422 0.0
C849 C 0.77488 0.74212 0.77835 0.0
C850 C 0.77642 0.75875 0.76515 0.0
C851 C 0.76335 0.77319 0.76817 0.0
C852 C 0.79031 0.88685 0.69326 0.0
C853 C 0.77208 0.87607 0.6928 0.0
O854 O 0.79132 0.66266 0.83212 0.0
O855 O 0.6769 0.77117 0.84886 0.0
O856 O 0.7679 0.87337 0.71762 0.0
O857 O 0.86021 0.75244 0.67727 0.0
H858 H 0.80493 0.66955 0.86654 0.0
H859 H 0.82836 0.66667 0.83343 0.0
H860 H 0.82207 0.64266 0.82754 0.0
H861 H 0.833 0.65033 0.85797 0.0
H862 H 0.80923 0.69475 0.84559 0.0
H863 H 0.77152 0.66697 0.79041 0.0
H864 H 0.82105 0.73116 0.81065 0.0
H865 H 0.81759 0.72577 0.84308 0.0
H866 H 0.80111 0.73995 0.82528 0.0
H867 H 0.75945 0.68143 0.7534 0.0
H868 H 0.77501 0.69827 0.74181 0.0
H869 H 0.75559 0.70593 0.75857 0.0
H870 H 0.88435 0.74474 0.69674 0.0
H871 H 0.89948 0.776 0.69363 0.0
H872 H 0.87815 0.77807 0.7089 0.0
H873 H 0.87885 0.78439 0.67637 0.0
H874 H 0.82579 0.74677 0.66466 0.0
H875 H 0.86564 0.75322 0.72851 0.0
H876 H 0.78677 0.75491 0.69207 0.0
H877 H 0.78849 0.73113 0.70079 0.0
H878 H 0.79482 0.73781 0.66989 0.0
H879 H 0.85679 0.75738 0.77024 0.0
H880 H 0.84143 0.73827 0.77437 0.0
H881 H 0.83269 0.76153 0.7753 0.0
H882 H 0.77438 0.86255 0.68271 0.0
H883 H 0.74843 0.8459 0.69307 0.0
H884 H 0.77517 0.86504 0.76413 0.0
H885 H 0.74765 0.79986 0.70324 0.0
H886 H 0.73299 0.81709 0.68817 0.0
H887 H 0.72652 0.80646 0.7168 0.0
H888 H 0.77846 0.84638 0.79984 0.0
H889 H 0.77962 0.82183 0.79239 0.0
H890 H 0.75848 0.83177 0.80221 0.0
H891 H 0.69138 0.77395 0.8841 0.0
H892 H 0.68089 0.74342 0.89842 0.0
H893 H 0.69406 0.74188 0.87073 0.0
H894 H 0.66935 0.7388 0.86728 0.0
H895 H 0.67689 0.76219 0.80133 0.0
H896 H 0.70716 0.79202 0.86252 0.0
H897 H 0.71133 0.75514 0.76216 0.0
H898 H 0.70429 0.77772 0.75224 0.0
H899 H 0.68705 0.76099 0.75967 0.0
H900 H 0.73697 0.80372 0.8593 0.0
H901 H 0.73823 0.81387 0.82873 0.0
H902 H 0.75029 0.79271 0.83537 0.0
H903 H 0.81205 0.719 0.75652 0.0
H904 H 0.80436 0.78064 0.72562 0.0
H905 H 0.78268 0.80519 0.73134 0.0
H906 H 0.72749 0.81281 0.77654 0.0
H907 H 0.73617 0.75171 0.80908 0.0
H908 H 0.75861 0.72766 0.80471 0.0
H909 H 0.78899 0.90062 0.70302 0.0
H910 H 0.79434 0.88888 0.67361 0.0
H911 H 0.80151 0.879 0.70358 0.0
C912 C 0.02791 0.31206 0.56001 0.0
C913 C 0.03374 0.32939 0.56958 0.0
C914 C 0.02478 0.34212 0.55464 0.0
C915 C 0.0141 0.33189 0.53681 0.0
N916 N 0.01557 0.31338 0.53959 0.0
Co917 Co 0.00337 0.29348 0.51689 0.0
N918 N 0.98876 0.31216 0.49649 0.0
C919 C 0.98948 0.33082 0.49971 0.0
C920 C 0.97632 0.33988 0.48485 0.0
C921 C 0.96625 0.32616 0.47187 0.0
C922 C 0.97402 0.30947 0.47943 0.0
N923 N 0.99176 0.27368 0.49365 0.0
C924 C 0.97765 0.27488 0.47559 0.0
C925 C 0.97367 0.25787 0.46347 0.0
C926 C 0.98538 0.24533 0.47491 0.0
C927 C 0.99583 0.25542 0.49317 0.0
N928 N 0.01705 0.27464 0.53801 0.0
C929 C 0.01624 0.25597 0.53453 0.0
C930 C 0.02645 0.24657 0.55275 0.0
C931 C 0.03425 0.26001 0.56885 0.0
C932 C 0.02848 0.27694 0.5593 0.0
N933 N 0.98261 0.292 0.53913 0.0
C934 C 0.95245 0.29008 0.56971 0.0
C935 C 0.96007 0.27398 0.55943 0.0
C936 C 0.97498 0.27525 0.54414 0.0
C937 C 0.96019 0.30713 0.5645 0.0
C938 C 0.97524 0.30777 0.54941 0.0
N939 N 0.02433 0.29495 0.49439 0.0
C940 C 0.05018 0.28049 0.47478 0.0
C941 C 0.05407 0.29677 0.46272 0.0
C942 C 0.04293 0.31219 0.46679 0.0
C943 C 0.02835 0.31103 0.4827 0.0
C944 C 0.03537 0.27986 0.49024 0.0
H945 H 0.02061 0.32338 0.48511 0.0
H946 H 0.03319 0.26688 0.49842 0.0
H947 H 0.98007 0.26254 0.53641 0.0
H948 H 0.9807 0.32117 0.54622 0.0
C949 C 0.00172 0.33924 0.51828 0.0
C950 C 0.0348 0.29477 0.57057 0.0
C951 C 0.9664 0.29134 0.47133 0.0
C952 C 0.00681 0.24779 0.51299 0.0
H953 H 0.04349 0.33249 0.58566 0.0
H954 H 0.0258 0.35706 0.55667 0.0
H955 H 0.97381 0.35464 0.48439 0.0
H956 H 0.95422 0.32831 0.459 0.0
H957 H 0.96277 0.25475 0.44884 0.0
H958 H 0.98535 0.23046 0.47153 0.0
H959 H 0.02827 0.23174 0.55395 0.0
H960 H 0.0434 0.2576 0.58552 0.0
H961 H 0.95439 0.26048 0.56288 0.0
H962 H 0.95486 0.31994 0.57238 0.0
H963 H 0.05828 0.26807 0.47184 0.0
H964 H 0.04553 0.32516 0.45789 0.0
C965 C 0.69132 0.03341 0.54033 0.0
C966 C 0.67419 0.03959 0.54737 0.0
C967 C 0.66123 0.02794 0.53547 0.0
C968 C 0.67115 0.01539 0.52188 0.0
N969 N 0.6897 0.01808 0.5248 0.0
Co970 Co 0.70918 0.00408 0.50685 0.0
N971 N 0.69003 0.98848 0.48688 0.0
C972 C 0.67163 0.98813 0.48995 0.0
C973 C 0.66203 0.97563 0.47392 0.0
C974 C 0.67507 0.96749 0.45978 0.0
C975 C 0.69193 0.9756 0.46798 0.0
N976 N 0.72864 0.99092 0.48784 0.0
C977 C 0.72684 0.97838 0.46817 0.0
C978 C 0.74394 0.97358 0.45942 0.0
C979 C 0.757 0.98338 0.47418 0.0
C980 C 0.74718 0.99367 0.49085 0.0
N981 N 0.72836 0.01916 0.5276 0.0
C982 C 0.74696 0.0171 0.52797 0.0
C983 C 0.7566 0.02959 0.54394 0.0
C984 C 0.74339 0.04039 0.5542 0.0
C985 C 0.72634 0.0338 0.54391 0.0
N986 N 0.71073 0.98504 0.53345 0.0
C987 C 0.71336 0.95825 0.57124 0.0
C988 C 0.7286 0.96259 0.55779 0.0
C989 C 0.72704 0.97593 0.53931 0.0
C990 C 0.69673 0.96744 0.56549 0.0
C991 C 0.69568 0.98057 0.54654 0.0
N992 N 0.70763 0.02294 0.48052 0.0
C993 C 0.72226 0.04603 0.45656 0.0
C994 C 0.70518 0.05093 0.44468 0.0
C995 C 0.68939 0.04127 0.45063 0.0
C996 C 0.69092 0.02743 0.46849 0.0
C997 C 0.72318 0.03207 0.47425 0.0
H998 H 0.67837 0.02071 0.47261 0.0
H999 H 0.73657 0.029 0.48286 0.0
H1000 H 0.73936 0.97865 0.53029 0.0
H1001 H 0.68253 0.98687 0.54301 0.0
C1002 C 0.66355 0.00105 0.50604 0.0
C1003 C 0.70871 0.04262 0.54873 0.0
C1004 C 0.70933 0.97068 0.45717 0.0
C1005 C 0.75496 0.00547 0.5102 0.0
H1006 H 0.67139 0.0514 0.55967 0.0
H1007 H 0.64634 0.02869 0.53629 0.0
H1008 H 0.64723 0.9731 0.47222 0.0
H1009 H 0.67247 0.95692 0.44493 0.0
H1010 H 0.74672 0.964 0.44397 0.0
H1011 H 0.77187 0.98302 0.47293 0.0
H1012 H 0.77148 0.03132 0.54669 0.0
H1013 H 0.74614 0.05221 0.56703 0.0
H1014 H 0.74191 0.95604 0.56195 0.0
H1015 H 0.68453 0.96445 0.57545 0.0
H1016 H 0.73491 0.05297 0.45232 0.0
H1017 H 0.67582 0.04472 0.44214 0.0
C1018 C 0.03702 0.73052 0.52782 0.0
C1019 C 0.04757 0.74648 0.53276 0.0
C1020 C 0.04307 0.75817 0.51329 0.0
C1021 C 0.03004 0.74876 0.49762 0.0
N1022 N 0.026 0.73198 0.50624 0.0
Co1023 Co 0.0085 0.71372 0.48922 0.0
N1024 N 0.99607 0.73311 0.46875 0.0
C1025 C 0.00312 0.74969 0.46363 0.0
C1026 C 0.99072 0.7602 0.44937 0.0
C1027 C 0.97499 0.74948 0.44539 0.0
C1028 C 0.97876 0.73299 0.45747 0.0
N1029 N 0.99102 0.6956 0.47206 0.0
C1030 C 0.97407 0.69871 0.4607 0.0
C1031 C 0.9658 0.68228 0.45152 0.0
C1032 C 0.9782 0.66839 0.4576 0.0
C1033 C 0.99328 0.67715 0.47007 0.0
N1034 N 0.02099 0.69422 0.50945 0.0
C1035 C 0.0203 0.67588 0.5039 0.0
C1036 C 0.03072 0.6658 0.52126 0.0
C1037 C 0.03853 0.67864 0.53859 0.0
C1038 C 0.03241 0.69592 0.53078 0.0
N1039 N 0.9913 0.71818 0.51556 0.0
C1040 C 0.96333 0.72505 0.54833 0.0
C1041 C 0.96882 0.70687 0.54281 0.0
C1042 C 0.9828 0.70371 0.52619 0.0
C1043 C 0.97266 0.73971 0.53815 0.0
C1044 C 0.98675 0.73599 0.52208 0.0
N1045 N 0.02565 0.70947 0.46271 0.0
C1046 C 0.05702 0.70854 0.4506 0.0
C1047 C 0.05084 0.71014 0.42501 0.0
C1048 C 0.03172 0.70999 0.41854 0.0
C1049 C 0.01935 0.70952 0.43767 0.0
C1050 C 0.04423 0.70816 0.46909 0.0
H1051 H 0.0047 0.71014 0.43228 0.0
H1052 H 0.04946 0.70782 0.48868 0.0
H1053 H 0.98633 0.68959 0.52131 0.0
H1054 H 0.99354 0.74754 0.51423 0.0
C1055 C 0.01939 0.75618 0.4771 0.0
C1056 C 0.03902 0.71365 0.54254 0.0
C1057 C 0.96612 0.71718 0.45762 0.0
C1058 C 0.00756 0.66861 0.48479 0.0
H1059 H 0.05766 0.74928 0.54855 0.0
H1060 H 0.04828 0.77205 0.51124 0.0
H1061 H 0.99246 0.77436 0.44381 0.0
H1062 H 0.96221 0.75344 0.43509 0.0
H1063 H 0.95223 0.68055 0.4417 0.0
H1064 H 0.97601 0.65363 0.45457 0.0
H1065 H 0.03205 0.65088 0.52175 0.0
H1066 H 0.04785 0.67565 0.55487 0.0
H1067 H 0.96188 0.69522 0.55046 0.0
H1068 H 0.96893 0.75396 0.54234 0.0
H1069 H 0.07165 0.70875 0.45658 0.0
H1070 H 0.02635 0.7109 0.39895 0.0
C1071 C 0.30916 0.97512 0.55039 0.0
C1072 C 0.32587 0.96755 0.5595 0.0
C1073 C 0.33952 0.97685 0.54857 0.0
C1074 C 0.33041 0.98961 0.53364 0.0
N1075 N 0.31178 0.98898 0.53425 0.0
Co1076 Co 0.29345 0.00586 0.51647 0.0
N1077 N 0.31348 0.01907 0.49981 0.0
C1078 C 0.3316 0.01443 0.5005 0.0
C1079 C 0.342 0.02569 0.48664 0.0
C1080 C 0.32979 0.03835 0.47657 0.0
C1081 C 0.31261 0.03413 0.48509 0.0
N1082 N 0.27523 0.02367 0.50023 0.0
C1083 C 0.27811 0.03896 0.48675 0.0
C1084 C 0.26169 0.04835 0.48088 0.0
C1085 C 0.24796 0.03867 0.49102 0.0
C1086 C 0.25675 0.02409 0.50266 0.0
N1087 N 0.27325 0.99184 0.53167 0.0
C1088 C 0.2548 0.99454 0.52748 0.0
C1089 C 0.2442 0.98214 0.53922 0.0
C1090 C 0.2566 0.97075 0.55155 0.0
C1091 C 0.27415 0.977 0.5468 0.0
N1092 N 0.29608 0.02326 0.5463 0.0
C1093 C 0.29774 0.05239 0.58297 0.0
C1094 C 0.28156 0.04202 0.57789 0.0
C1095 C 0.281 0.02767 0.5596 0.0
C1096 C 0.31348 0.04721 0.57063 0.0
C1097 C 0.31245 0.0324 0.5528 0.0
N1098 N 0.29072 0.98856 0.48638 0.0
C1099 C 0.2722 0.9764 0.44973 0.0
C1100 C 0.28652 0.96471 0.44321 0.0
C1101 C 0.30293 0.96482 0.45869 0.0
C1102 C 0.30482 0.97696 0.47995 0.0
C1103 C 0.27449 0.98796 0.47132 0.0
H1104 H 0.31784 0.97673 0.49075 0.0
H1105 H 0.26284 0.99625 0.47529 0.0
H1106 H 0.26797 0.02087 0.5559 0.0
H1107 H 0.3249 0.02896 0.54396 0.0
C1108 C 0.33876 0.00116 0.51708 0.0
C1109 C 0.2912 0.96852 0.55732 0.0
C1110 C 0.29611 0.04532 0.47961 0.0
C1111 C 0.24796 0.00998 0.51471 0.0
H1112 H 0.32796 0.95631 0.57246 0.0
H1113 H 0.35429 0.97434 0.55083 0.0
H1114 H 0.35682 0.02523 0.48491 0.0
H1115 H 0.33322 0.04969 0.46483 0.0
H1116 H 0.25981 0.06093 0.47044 0.0
H1117 H 0.23331 0.04186 0.49 0.0
H1118 H 0.22924 0.9817 0.53928 0.0
H1119 H 0.25311 0.95925 0.56298 0.0
H1120 H 0.26899 0.0456 0.58696 0.0
H1121 H 0.32638 0.05477 0.57436 0.0
H1122 H 0.25916 0.97649 0.4383 0.0
H1123 H 0.31435 0.95588 0.45413 0.0
C1124 C 0.52771 0.81267 0.03368 0.0
C1125 C 0.53336 0.82988 0.04385 0.0
C1126 C 0.52447 0.84279 0.02914 0.0
C1127 C 0.51397 0.83275 0.0109 0.0
N1128 N 0.51539 0.81419 0.01332 0.0
Co1129 Co 0.50343 0.79436 0.99017 0.0
N1130 N 0.49097 0.81329 0.9679 0.0
C1131 C 0.49266 0.83195 0.97024 0.0
C1132 C 0.481 0.84122 0.95345 0.0
C1133 C 0.47086 0.82771 0.94014 0.0
C1134 C 0.47703 0.81093 0.94958 0.0
N1135 N 0.49158 0.77459 0.96696 0.0
C1136 C 0.47784 0.77616 0.94845 0.0
C1137 C 0.4725 0.75908 0.93758 0.0
C1138 C 0.48291 0.74611 0.9503 0.0
C1139 C 0.49395 0.75604 0.96809 0.0
N1140 N 0.51557 0.77535 0.01255 0.0
C1141 C 0.51416 0.75668 0.00966 0.0
C1142 C 0.52425 0.7473 0.02804 0.0
C1143 C 0.53285 0.76075 0.04336 0.0
C1144 C 0.52751 0.77762 0.03332 0.0
N1145 N 0.48151 0.79435 0.01059 0.0
C1146 C 0.44959 0.7944 0.03811 0.0
C1147 C 0.45759 0.77777 0.03024 0.0
C1148 C 0.47342 0.77806 0.0166 0.0
C1149 C 0.45786 0.811 0.03202 0.0
C1150 C 0.4737 0.81066 0.01841 0.0
N1151 N 0.52552 0.79439 0.96974 0.0
C1152 C 0.55107 0.77802 0.95204 0.0
C1153 C 0.55938 0.7947 0.9464 0.0
C1154 C 0.55003 0.81116 0.95147 0.0
C1155 C 0.53322 0.81068 0.96288 0.0
C1156 C 0.53428 0.77819 0.96355 0.0
H1157 H 0.52697 0.82372 0.96641 0.0
H1158 H 0.52896 0.76504 0.96782 0.0
H1159 H 0.47877 0.76494 0.01091 0.0
H1160 H 0.47936 0.82376 0.01435 0.0
C1161 C 0.50336 0.8403 0.9906 0.0
C1162 C 0.53522 0.7953 0.04306 0.0
C1163 C 0.46804 0.79323 0.9428 0.0
C1164 C 0.50425 0.74838 0.98855 0.0
H1165 H 0.54322 0.83277 0.05988 0.0
H1166 H 0.52587 0.85771 0.03109 0.0
H1167 H 0.47923 0.85606 0.95218 0.0
H1168 H 0.45961 0.83005 0.92603 0.0
H1169 H 0.46149 0.75631 0.92297 0.0
H1170 H 0.48164 0.7312 0.94806 0.0
H1171 H 0.52565 0.73245 0.02966 0.0
H1172 H 0.5424 0.75842 0.05965 0.0
H1173 H 0.45156 0.76455 0.03431 0.0
H1174 H 0.45232 0.82424 0.03806 0.0
H1175 H 0.55781 0.76488 0.94851 0.0
H1176 H 0.55576 0.82441 0.94691 0.0
C1177 C 0.20525 0.52879 0.06115 0.0
C1178 C 0.18817 0.53309 0.07033 0.0
C1179 C 0.17493 0.52747 0.05189 0.0
C1180 C 0.18459 0.51992 0.03265 0.0
N1181 N 0.2031 0.52013 0.03799 0.0
Co1182 Co 0.22197 0.51036 0.01548 0.0
N1183 N 0.20294 0.49633 0.9938 0.0
C1184 C 0.18453 0.49914 0.99267 0.0
C1185 C 0.17492 0.48713 0.97585 0.0
C1186 C 0.18815 0.47608 0.96577 0.0
C1187 C 0.20512 0.48201 0.97713 0.0
N1188 N 0.24072 0.5007 0.99271 0.0
C1189 C 0.23966 0.48603 0.97609 0.0
C1190 C 0.25609 0.48379 0.96423 0.0
C1191 C 0.26769 0.49779 0.97358 0.0
C1192 C 0.25778 0.50766 0.99065 0.0
N1193 N 0.24114 0.52432 0.03717 0.0
C1194 C 0.25833 0.52843 0.03067 0.0
C1195 C 0.26844 0.53873 0.04896 0.0
C1196 C 0.25682 0.54161 0.06803 0.0
C1197 C 0.24011 0.53286 0.06028 0.0
N1198 N 0.22587 0.48882 0.0368 0.0
C1199 C 0.23178 0.45663 0.06436 0.0
C1200 C 0.2467 0.46646 0.05593 0.0
C1201 C 0.24348 0.4826 0.04249 0.0
C1202 C 0.21384 0.46345 0.05935 0.0
C1203 C 0.21116 0.47949 0.04532 0.0
N1204 N 0.21827 0.53189 0.99401 0.0
C1205 C 0.21658 0.54491 0.95248 0.0
C1206 C 0.21752 0.56295 0.96327 0.0
C1207 C 0.21793 0.565 0.98982 0.0
C1208 C 0.21813 0.54938 0.00473 0.0
C1209 C 0.21704 0.52963 0.96812 0.0
H1210 H 0.21881 0.55154 0.02501 0.0
H1211 H 0.21691 0.51598 0.95921 0.0
H1212 H 0.25527 0.48985 0.03628 0.0
H1213 H 0.19718 0.48412 0.04096 0.0
C1214 C 0.17673 0.51059 0.01089 0.0
C1215 C 0.22291 0.53576 0.07323 0.0
C1216 C 0.22305 0.47464 0.97044 0.0
C1217 C 0.26512 0.52088 0.00845 0.0
H1218 H 0.1856 0.54018 0.08812 0.0
H1219 H 0.16005 0.52853 0.0526 0.0
H1220 H 0.16005 0.48597 0.97219 0.0
H1221 H 0.18562 0.46496 0.95169 0.0
H1222 H 0.25943 0.47312 0.95043 0.0
H1223 H 0.28196 0.4999 0.96939 0.0
H1224 H 0.28259 0.54353 0.04857 0.0
H1225 H 0.26016 0.54989 0.08516 0.0
H1226 H 0.26079 0.46164 0.05961 0.0
H1227 H 0.20197 0.45612 0.06551 0.0
H1228 H 0.21578 0.54252 0.93208 0.0
H1229 H 0.21884 0.57855 -0.00075 0.0
C1230 C 0.47447 0.2371 0.9768 0.0
C1231 C 0.46792 0.25455 0.97038 0.0
C1232 C 0.48008 0.26713 0.98196 0.0
C1233 C 0.49321 0.25673 0.99488 0.0
N1234 N 0.49044 0.23821 0.99184 0.0
Co1235 Co 0.5051 0.21808 0.00931 0.0
N1236 N 0.52185 0.23667 0.02841 0.0
C1237 C 0.52131 0.25533 0.0267 0.0
C1238 C 0.53514 0.26439 0.04125 0.0
C1239 C 0.54538 0.2507 0.05257 0.0
C1240 C 0.53716 0.23403 0.04417 0.0
N1241 N 0.51934 0.19798 0.02739 0.0
C1242 C 0.53459 0.19908 0.04383 0.0
C1243 C 0.54035 0.18168 0.05158 0.0
C1244 C 0.52843 0.16913 0.0394 0.0
C1245 C 0.51614 0.17952 0.02496 0.0
N1246 N 0.48868 0.19951 0.98971 0.0
C1247 C 0.49014 0.18084 0.98988 0.0
C1248 C 0.47661 0.17176 0.97473 0.0
C1249 C 0.46569 0.18545 0.96461 0.0
C1250 C 0.47319 0.20212 0.97433 0.0
N1251 N 0.52257 0.2171 0.98187 0.0
C1252 C 0.55036 0.21647 0.94692 0.0
C1253 C 0.54436 0.20013 0.95729 0.0
C1254 C 0.53043 0.20073 0.97433 0.0
C1255 C 0.5415 0.23297 0.95342 0.0
C1256 C 0.52788 0.23298 0.97083 0.0
N1257 N 0.48767 0.21911 0.03665 0.0
C1258 C 0.46532 0.20422 0.06137 0.0
C1259 C 0.45964 0.22141 0.07075 0.0
C1260 C 0.46875 0.23728 0.06393 0.0
C1261 C 0.48279 0.23581 0.04727 0.0
C1262 C 0.47927 0.20339 0.0443 0.0
H1263 H 0.48918 0.24844 0.04279 0.0
H1264 H 0.48269 0.18997 0.03703 0.0
H1265 H 0.52658 0.18781 0.98157 0.0
H1266 H 0.52215 0.24612 0.97534 0.0
C1267 C 0.50778 0.26393 0.01101 0.0
C1268 C 0.46445 0.21997 0.96965 0.0
C1269 C 0.54485 0.21607 0.05097 0.0
C1270 C 0.50279 0.17228 0.0069 0.0
H1271 H 0.45538 0.25795 0.95914 0.0
H1272 H 0.47909 0.28208 0.98171 0.0
H1273 H 0.53766 0.27917 0.04308 0.0
H1274 H 0.5577 0.25272 0.06523 0.0
H1275 H 0.55231 0.17831 0.06403 0.0
H1276 H 0.52914 0.15418 0.04013 0.0
H1277 H 0.47444 0.15696 0.9723 0.0
H1278 H 0.45325 0.18343 0.95218 0.0
H1279 H 0.55075 0.18694 0.953 0.0
H1280 H 0.54517 0.24596 0.94537 0.0
H1281 H 0.45858 0.1916 0.06641 0.0
H1282 H 0.46486 0.25084 0.0712 0.0
C1283 C 0.76961 0.52592 0.05719 0.0
C1284 C 0.75168 0.52929 0.06395 0.0
C1285 C 0.74023 0.51859 0.04792 0.0
C1286 C 0.75176 0.50932 0.03238 0.0
N1287 N 0.76993 0.51339 0.03754 0.0
Co1288 Co 0.79143 0.50309 0.0196 0.0
N1289 N 0.77448 0.48762 0.99569 0.0
C1290 C 0.75573 0.48713 0.99466 0.0
C1291 C 0.74792 0.47531 0.9761 0.0
C1292 C 0.76254 0.46758 0.96473 0.0
C1293 C 0.7785 0.47507 0.97724 0.0
N1294 N 0.81292 0.49259 0.00178 0.0
C1295 C 0.81331 0.47916 0.9832 0.0
C1296 C 0.83132 0.4752 0.97726 0.0
C1297 C 0.8427 0.48651 0.99256 0.0
C1298 C 0.83109 0.49661 0.00705 0.0
N1299 N 0.80835 0.51871 0.0434 0.0
C1300 C 0.82705 0.51982 0.04369 0.0
C1301 C 0.83481 0.53198 0.06191 0.0
C1302 C 0.82021 0.53915 0.07394 0.0
C1303 C 0.80434 0.5309 0.06231 0.0
N1304 N 0.79347 0.4824 0.0434 0.0
C1305 C 0.79715 0.45019 0.07203 0.0
C1306 C 0.81239 0.46164 0.06916 0.0
C1307 C 0.81026 0.47753 0.05489 0.0
C1308 C 0.77984 0.45576 0.06151 0.0
C1309 C 0.77831 0.47187 0.04761 0.0
N1310 N 0.78942 0.52372 0.99557 0.0
C1311 C 0.80388 0.54729 0.97207 0.0
C1312 C 0.7868 0.55213 0.96024 0.0
C1313 C 0.77101 0.54276 0.9666 0.0
C1314 C 0.7726 0.52885 0.98436 0.0
C1315 C 0.80488 0.5331 0.98942 0.0
H1316 H 0.76002 0.52244 0.98862 0.0
H1317 H 0.81833 0.5299 0.99742 0.0
H1318 H 0.82249 0.48539 0.05295 0.0
H1319 H 0.7648 0.47521 0.03983 0.0
C1320 C 0.74589 0.49722 0.01225 0.0
C1321 C 0.78578 0.53528 0.0697 0.0
C1322 C 0.79711 0.46928 0.9715 0.0
C1323 C 0.8369 0.50928 0.02656 0.0
H1324 H 0.74731 0.53867 0.0788 0.0
H1325 H 0.72527 0.51782 0.04743 0.0
H1326 H 0.73335 0.47237 0.9717 0.0
H1327 H 0.76156 0.45733 0.94926 0.0
H1328 H 0.83586 0.46493 0.96368 0.0
H1329 H 0.85769 0.48696 0.99348 0.0
H1330 H 0.84934 0.53528 0.06588 0.0
H1331 H 0.82111 0.54938 0.08945 0.0
H1332 H 0.82602 0.45822 0.0775 0.0
H1333 H 0.76756 0.4474 0.06303 0.0
H1334 H 0.81651 0.55414 0.96755 0.0
H1335 H 0.75745 0.54627 0.95808 0.0
H1336 H 0.14964 0.26405 0.41124 0.0
H1337 H 0.12904 0.28373 0.33778 0.0
H1338 H 0.1024 0.29807 0.35736 0.0
H1339 H 0.10665 0.25032 0.42942 0.0
H1340 H 0.11099 0.25667 0.46261 0.0
H1341 H 0.13001 0.2506 0.44381 0.0
H1342 H 0.14584 0.2821 0.45646 0.0
H1343 H 0.12683 0.28827 0.47537 0.0
H1344 H 0.1333 0.30333 0.45089 0.0
H1345 H 0.07666 0.30805 0.38403 0.0
H1346 H 0.05271 0.31073 0.41513 0.0
H1347 H 0.08929 0.28336 0.47071 0.0
C1348 C 0.13974 0.27179 0.39944 0.0
C1349 C 0.14172 0.27314 0.37315 0.0
C1350 C 0.12814 0.28283 0.35808 0.0
C1351 C 0.11292 0.29105 0.36903 0.0
C1352 C 0.11134 0.28931 0.39498 0.0
C1353 C 0.12434 0.27982 0.40998 0.0
C1354 C 0.1184 0.27818 0.43673 0.0
C1355 C 0.11639 0.25773 0.44352 0.0
C1356 C 0.1319 0.2886 0.456 0.0
C1357 C 0.09979 0.28775 0.43424 0.0
C1358 C 0.09614 0.29443 0.41017 0.0
C1359 C 0.07944 0.30307 0.40303 0.0
C1360 C 0.06595 0.30459 0.42081 0.0
C1361 C 0.06919 0.29725 0.44525 0.0
C1362 C 0.08646 0.28905 0.45211 0.0
H1363 H 0.72015 0.15493 0.40547 0.0
H1364 H 0.67901 0.14497 0.3427 0.0
H1365 H 0.67783 0.11184 0.3532 0.0
H1366 H 0.74416 0.11057 0.40152 0.0
H1367 H 0.74738 0.10903 0.43555 0.0
H1368 H 0.74633 0.13139 0.42134 0.0
H1369 H 0.71952 0.14097 0.44916 0.0
H1370 H 0.72051 0.11868 0.46344 0.0
H1371 H 0.69902 0.12669 0.44827 0.0
H1372 H 0.67965 0.08026 0.3726 0.0
H1373 H 0.68385 0.05306 0.39969 0.0
H1374 H 0.72279 0.08448 0.45062 0.0
C1375 C 0.71096 0.14576 0.39385 0.0
C1376 C 0.69955 0.15252 0.37341 0.0
C1377 C 0.68779 0.14007 0.35853 0.0
C1378 C 0.68708 0.12125 0.36431 0.0
C1379 C 0.69821 0.11515 0.385 0.0
C1380 C 0.70991 0.12706 0.39953 0.0
C1381 C 0.71948 0.11742 0.42181 0.0
C1382 C 0.74059 0.11708 0.41993 0.0
C1383 C 0.71432 0.12648 0.44716 0.0
C1384 C 0.71118 0.09825 0.41775 0.0
C1385 C 0.69907 0.09713 0.39631 0.0
C1386 C 0.68917 0.08097 0.38936 0.0
C1387 C 0.69156 0.06564 0.40493 0.0
C1388 C 0.70368 0.06664 0.42722 0.0
C1389 C 0.71371 0.08314 0.43344 0.0
H1390 H 0.87712 0.73874 0.36672 0.0
H1391 H 0.84575 0.74237 0.43376 0.0
H1392 H 0.87365 0.73327 0.46027 0.0
H1393 H 0.90516 0.6986 0.38588 0.0
H1394 H 0.92554 0.70724 0.37236 0.0
H1395 H 0.90285 0.71302 0.35862 0.0
H1396 H 0.91098 0.74798 0.36393 0.0
H1397 H 0.93365 0.74232 0.37772 0.0
H1398 H 0.91876 0.75746 0.39489 0.0
H1399 H 0.90541 0.72542 0.47964 0.0
H1400 H 0.93884 0.7195 0.49024 0.0
H1401 H 0.94898 0.72041 0.41045 0.0
C1402 C 0.87603 0.73725 0.38691 0.0
C1403 C 0.85918 0.74081 0.39817 0.0
C1404 C 0.85845 0.73931 0.42476 0.0
C1405 C 0.8742 0.73418 0.43992 0.0
C1406 C 0.89054 0.73061 0.42817 0.0
C1407 C 0.89154 0.73202 0.40225 0.0
C1408 C 0.91091 0.72808 0.3944 0.0
C1409 C 0.91112 0.7107 0.37677 0.0
C1410 C 0.91904 0.74497 0.38201 0.0
C1411 C 0.92075 0.72464 0.42002 0.0
C1412 C 0.90876 0.72605 0.43928 0.0
C1413 C 0.91487 0.7241 0.4647 0.0
C1414 C 0.93377 0.72075 0.47056 0.0
C1415 C 0.94615 0.7195 0.45106 0.0
C1416 C 0.93958 0.72124 0.42553 0.0
H1417 H 0.25909 0.86242 0.36905 0.0
H1418 H 0.23836 0.90134 0.29169 0.0
H1419 H 0.25378 0.93359 0.31996 0.0
H1420 H 0.24896 0.90249 0.41674 0.0
H1421 H 0.26807 0.8985 0.43967 0.0
H1422 H 0.25962 0.87994 0.41836 0.0
H1423 H 0.29284 0.87562 0.40347 0.0
H1424 H 0.30107 0.89453 0.42445 0.0
H1425 H 0.3045 0.89505 0.391 0.0
H1426 H 0.2704 0.95594 0.35712 0.0
H1427 H 0.27922 0.97567 0.39512 0.0
H1428 H 0.28718 0.92699 0.44019 0.0
C1429 C 0.2579 0.87558 0.35988 0.0
C1430 C 0.25032 0.87765 0.32539 0.0
C1431 C 0.24432 0.90035 0.31097 0.0
C1432 C 0.25504 0.91999 0.32787 0.0
C1433 C 0.26706 0.91723 0.35825 0.0
C1434 C 0.26798 0.89643 0.37418 0.0
C1435 C 0.27603 0.90078 0.4006 0.0
C1436 C 0.26236 0.8951 0.41998 0.0
C1437 C 0.29472 0.8909 0.40514 0.0
C1438 C 0.27863 0.92203 0.40052 0.0
C1439 C 0.27394 0.93056 0.37731 0.0
C1440 C 0.2744 0.94967 0.37502 0.0
C1441 C 0.27941 0.96074 0.39659 0.0
C1442 C 0.28399 0.95266 0.42017 0.0
C1443 C 0.28402 0.93322 0.42201 0.0
H1444 H 0.14011 0.7006 0.60895 0.0
H1445 H 0.11563 0.70524 0.68153 0.0
H1446 H 0.08508 0.71145 0.65948 0.0
H1447 H 0.11201 0.73645 0.57715 0.0
H1448 H 0.11026 0.72368 0.54716 0.0
H1449 H 0.1304 0.72104 0.56882 0.0
H1450 H 0.12492 0.68552 0.56803 0.0
H1451 H 0.10473 0.68807 0.5465 0.0
H1452 H 0.10284 0.67667 0.57607 0.0
H1453 H 0.05683 0.7153 0.62931 0.0
H1454 H 0.03316 0.7168 0.59296 0.0
H1455 H 0.07614 0.70947 0.54046 0.0
C1456 C 0.12836 0.70327 0.62017 0.0
C1457 C 0.13024 0.70274 0.64694 0.0
C1458 C 0.1145 0.70586 0.66102 0.0
C1459 C 0.09712 0.70936 0.64867 0.0
C1460 C 0.09571 0.70965 0.62224 0.0
C1461 C 0.11093 0.70675 0.60815 0.0
C1462 C 0.10555 0.70693 0.57995 0.0
C1463 C 0.11512 0.72298 0.56755 0.0
C1464 C 0.10976 0.68818 0.56688 0.0
C1465 C 0.08491 0.71013 0.58036 0.0
C1466 C 0.07948 0.71176 0.60492 0.0
C1467 C 0.06094 0.71422 0.61 0.0
C1468 C 0.04763 0.71503 0.58939 0.0
C1469 C 0.05304 0.71336 0.56426 0.0
C1470 C 0.07185 0.71093 0.55968 0.0
H1471 H 0.25001 0.11459 0.68383 0.0
H1472 H 0.26345 0.16156 0.63945 0.0
H1473 H 0.28495 0.14197 0.61593 0.0
H1474 H 0.29648 0.09109 0.68433 0.0
H1475 H 0.28582 0.06849 0.68093 0.0
H1476 H 0.27469 0.087 0.69782 0.0
H1477 H 0.24485 0.0823 0.66808 0.0
H1478 H 0.25583 0.0638 0.65125 0.0
H1479 H 0.2463 0.08322 0.63418 0.0
H1480 H 0.30131 0.11646 0.59334 0.0
H1481 H 0.30902 0.08695 0.57146 0.0
H1482 H 0.28414 0.05646 0.62973 0.0
C1483 C 0.25786 0.12082 0.66959 0.0
C1484 C 0.25519 0.13956 0.66349 0.0
C1485 C 0.26542 0.14724 0.64448 0.0
C1486 C 0.27773 0.13625 0.63116 0.0
C1487 C 0.27968 0.11765 0.63716 0.0
C1488 C 0.27 0.11 0.65596 0.0
C1489 C 0.27252 0.08922 0.65647 0.0
C1490 C 0.28301 0.08362 0.68137 0.0
C1491 C 0.25377 0.07905 0.65222 0.0
C1492 C 0.28431 0.08621 0.63415 0.0
C1493 C 0.28878 0.10281 0.62373 0.0
C1494 C 0.29824 0.1034 0.60164 0.0
C1495 C 0.30264 0.08659 0.58941 0.0
C1496 C 0.29727 0.06951 0.59909 0.0
C1497 C 0.28857 0.06937 0.62216 0.0
H1498 H 0.85987 0.32572 0.62773 0.0
H1499 H 0.87178 0.28819 0.68929 0.0
H1500 H 0.89778 0.27497 0.66675 0.0
H1501 H 0.87316 0.29459 0.57553 0.0
H1502 H 0.88346 0.31312 0.55925 0.0
H1503 H 0.86428 0.31783 0.57849 0.0
H1504 H 0.88383 0.3429 0.60448 0.0
H1505 H 0.90305 0.33824 0.58539 0.0
H1506 H 0.90606 0.33673 0.61944 0.0
H1507 H 0.92399 0.26764 0.63928 0.0
H1508 H 0.94898 0.26745 0.60961 0.0
H1509 H 0.92081 0.31089 0.56729 0.0
C1510 C 0.86787 0.31471 0.63651 0.0
C1511 C 0.86405 0.30829 0.66063 0.0
C1512 C 0.87465 0.29351 0.67103 0.0
C1513 C 0.88938 0.28587 0.65833 0.0
C1514 C 0.89326 0.29307 0.63513 0.0
C1515 C 0.8828 0.30715 0.6243 0.0
C1516 C 0.89074 0.31343 0.60022 0.0
C1517 C 0.8771 0.3095 0.577 0.0
C1518 C 0.89625 0.33404 0.60254 0.0
C1519 C 0.90759 0.30105 0.59959 0.0
C1520 C 0.90861 0.28915 0.6196 0.0
C1521 C 0.92325 0.27677 0.6234 0.0
C1522 C 0.93734 0.27673 0.60645 0.0
C1523 C 0.93679 0.28916 0.58624 0.0
C1524 C 0.9216 0.3013 0.58267 0.0
H1525 H 0.76404 0.87594 0.64159 0.0
H1526 H 0.74718 0.90135 0.71181 0.0
H1527 H 0.72579 0.92181 0.68739 0.0
H1528 H 0.76752 0.91605 0.61064 0.0
H1529 H 0.75924 0.90721 0.57956 0.0
H1530 H 0.76992 0.89179 0.60222 0.0
H1531 H 0.74072 0.8708 0.59793 0.0
H1532 H 0.72994 0.88616 0.57507 0.0
H1533 H 0.71834 0.8807 0.60302 0.0
H1534 H 0.7097 0.94236 0.65562 0.0
H1535 H 0.70186 0.96239 0.61935 0.0
H1536 H 0.72998 0.9243 0.56987 0.0
C1537 C 0.75529 0.88533 0.65176 0.0
C1538 C 0.75685 0.88666 0.67854 0.0
C1539 C 0.74583 0.8997 0.69131 0.0
C1540 C 0.73363 0.91138 0.67758 0.0
C1541 C 0.73268 0.90994 0.65113 0.0
C1542 C 0.74322 0.89721 0.63834 0.0
C1543 C 0.74162 0.90011 0.61002 0.0
C1544 C 0.76071 0.90403 0.60005 0.0
C1545 C 0.73208 0.88345 0.59567 0.0
C1546 C 0.72934 0.91706 0.609 0.0
C1547 C 0.72389 0.92222 0.63279 0.0
C1548 C 0.7136 0.93825 0.63683 0.0
C1549 C 0.70917 0.94953 0.61613 0.0
C1550 C 0.71531 0.94484 0.59188 0.0
C1551 C 0.72509 0.92816 0.58823 0.0
H1552 H 0.91 0.73256 0.6753 0.0
H1553 H 0.86937 0.76639 0.63397 0.0
H1554 H 0.88529 0.76057 0.59462 0.0
H1555 H 0.94884 0.7475 0.64511 0.0
H1556 H 0.96006 0.72522 0.6442 0.0
H1557 H 0.94468 0.73077 0.66869 0.0
H1558 H 0.92508 0.7015 0.65568 0.0
H1559 H 0.94044 0.69583 0.63112 0.0
H1560 H 0.91592 0.69815 0.6232 0.0
H1561 H 0.90677 0.75333 0.56091 0.0
H1562 H 0.93248 0.7446 0.53445 0.0
H1563 H 0.95884 0.71465 0.59696 0.0
C1564 C 0.9043 0.73846 0.65785 0.0
C1565 C 0.88833 0.74973 0.65756 0.0
C1566 C 0.88146 0.75753 0.63448 0.0
C1567 C 0.89039 0.7543 0.61208 0.0
C1568 C 0.90612 0.74317 0.61303 0.0
C1569 C 0.91299 0.73526 0.63524 0.0
C1570 C 0.9306 0.72451 0.63124 0.0
C1571 C 0.94701 0.73249 0.64832 0.0
C1572 C 0.92783 0.70376 0.63556 0.0
C1573 C 0.93281 0.72802 0.60349 0.0
C1574 C 0.91847 0.73875 0.59335 0.0
C1575 C 0.91796 0.74474 0.56851 0.0
C1576 C 0.9326 0.7398 0.55369 0.0
C1577 C 0.94746 0.72893 0.56375 0.0
C1578 C 0.94744 0.72274 0.58881 0.0
H1579 H 0.28159 0.86242 0.58994 0.0
H1580 H 0.26114 0.88108 0.6618 0.0
H1581 H 0.26932 0.91331 0.65274 0.0
H1582 H 0.31955 0.89659 0.58875 0.0
H1583 H 0.31574 0.89932 0.55498 0.0
H1584 H 0.3107 0.87747 0.56862 0.0
H1585 H 0.27709 0.8787 0.54823 0.0
H1586 H 0.28202 0.90049 0.53455 0.0
H1587 H 0.26293 0.89866 0.55452 0.0
H1588 H 0.27645 0.94376 0.6339 0.0
H1589 H 0.28202 0.97012 0.60645 0.0
H1590 H 0.29693 0.93178 0.54651 0.0
C1591 C 0.27887 0.87319 0.60389 0.0
C1592 C 0.27019 0.86922 0.62636 0.0
C1593 C 0.26742 0.88383 0.64427 0.0
C1594 C 0.2721 0.90216 0.63934 0.0
C1595 C 0.2798 0.90568 0.61652 0.0
C1596 C 0.28326 0.8916 0.59913 0.0
C1597 C 0.29034 0.89924 0.5752 0.0
C1598 C 0.31027 0.89277 0.57169 0.0
C1599 C 0.27731 0.89396 0.55175 0.0
C1600 C 0.28972 0.91985 0.5815 0.0
C1601 C 0.2839 0.92326 0.60561 0.0
C1602 C 0.28128 0.94125 0.61515 0.0
C1603 C 0.28445 0.9561 0.59952 0.0
C1604 C 0.29004 0.95283 0.57465 0.0
C1605 C 0.29295 0.93453 0.56567 0.0
H1606 H 0.12727 0.25653 0.63573 0.0
H1607 H 0.10209 0.26416 0.70744 0.0
H1608 H 0.07737 0.28297 0.68651 0.0
H1609 H 0.11372 0.30262 0.60846 0.0
H1610 H 0.10909 0.29221 0.57715 0.0
H1611 H 0.12684 0.28274 0.59864 0.0
H1612 H 0.1109 0.25051 0.59355 0.0
H1613 H 0.09319 0.25987 0.57211 0.0
H1614 H 0.08685 0.2484 0.60005 0.0
H1615 H 0.05295 0.29656 0.65691 0.0
H1616 H 0.03035 0.30258 0.6206 0.0
H1617 H 0.07109 0.28598 0.56816 0.0
C1618 C 0.11693 0.26279 0.64715 0.0
C1619 C 0.11693 0.25939 0.67332 0.0
C1620 C 0.10269 0.26704 0.68752 0.0
C1621 C 0.08859 0.27776 0.67579 0.0
C1622 C 0.08884 0.28062 0.64983 0.0
C1623 C 0.10269 0.27338 0.63569 0.0
C1624 C 0.09851 0.27629 0.60761 0.0
C1625 C 0.1129 0.28924 0.59737 0.0
C1626 C 0.09728 0.25767 0.59246 0.0
C1627 C 0.07977 0.28556 0.60805 0.0
C1628 C 0.07458 0.28829 0.63261 0.0
C1629 C 0.05703 0.29491 0.63764 0.0
C1630 C 0.04431 0.29831 0.61702 0.0
C1631 C 0.04925 0.29496 0.59188 0.0
C1632 C 0.06731 0.28904 0.58734 0.0
H1633 H 0.73716 0.11749 0.65797 0.0
H1634 H 0.72148 0.15992 0.6044 0.0
H1635 H 0.70902 0.13574 0.57347 0.0
H1636 H 0.75293 0.08536 0.6141 0.0
H1637 H 0.74451 0.06519 0.62894 0.0
H1638 H 0.75019 0.08588 0.6478 0.0
H1639 H 0.71712 0.08643 0.66384 0.0
H1640 H 0.71135 0.06565 0.64507 0.0
H1641 H 0.69728 0.0861 0.64115 0.0
H1642 H 0.70128 0.10675 0.54694 0.0
H1643 H 0.69877 0.07512 0.52709 0.0
H1644 H 0.7187 0.05182 0.5984 0.0
C1645 C 0.73066 0.12171 0.63998 0.0
C1646 C 0.72992 0.14059 0.63375 0.0
C1647 C 0.72183 0.14555 0.6097 0.0
C1648 C 0.71475 0.13193 0.59205 0.0
C1649 C 0.71582 0.11342 0.59877 0.0
C1650 C 0.72347 0.10832 0.62224 0.0
C1651 C 0.72407 0.08745 0.62421 0.0
C1652 C 0.74411 0.08058 0.62904 0.0
C1653 C 0.71171 0.08103 0.64479 0.0
C1654 C 0.71606 0.08158 0.59793 0.0
C1655 C 0.71126 0.09675 0.58357 0.0
C1656 C 0.70473 0.09478 0.55812 0.0
C1657 C 0.70334 0.07685 0.54702 0.0
C1658 C 0.70853 0.06127 0.56136 0.0
C1659 C 0.71455 0.06363 0.58722 0.0
H1660 H 0.8754 0.30212 0.37828 0.0
H1661 H 0.84633 0.26935 0.43037 0.0
H1662 H 0.87539 0.2663 0.45753 0.0
H1663 H 0.91864 0.27575 0.38357 0.0
H1664 H 0.93286 0.29607 0.38136 0.0
H1665 H 0.90987 0.29518 0.36583 0.0
H1666 H 0.90164 0.32562 0.3899 0.0
H1667 H 0.92452 0.32647 0.40575 0.0
H1668 H 0.90443 0.32686 0.42412 0.0
H1669 H 0.90708 0.26834 0.48012 0.0
H1670 H 0.93991 0.27365 0.49522 0.0
H1671 H 0.94872 0.3033 0.42705 0.0
C1672 C 0.87521 0.29398 0.39512 0.0
C1673 C 0.85867 0.28563 0.402 0.0
C1674 C 0.85893 0.27555 0.42458 0.0
C1675 C 0.87532 0.27381 0.44013 0.0
C1676 C 0.89136 0.28219 0.43278 0.0
C1677 C 0.8915 0.29189 0.41066 0.0
C1678 C 0.91059 0.29961 0.40714 0.0
C1679 C 0.91846 0.29114 0.38305 0.0
C1680 C 0.91026 0.3209 0.40671 0.0
C1681 C 0.92111 0.29296 0.43092 0.0
C1682 C 0.90972 0.28303 0.44552 0.0
C1683 C 0.91615 0.27597 0.46875 0.0
C1684 C 0.93473 0.27906 0.47719 0.0
C1685 C 0.94662 0.28904 0.46238 0.0
C1686 C 0.93976 0.29592 0.43887 0.0
H1687 H 0.73897 0.87803 0.38551 0.0
H1688 H 0.72387 0.90482 0.31473 0.0
H1689 H 0.71151 0.93152 0.33867 0.0
H1690 H 0.69964 0.89453 0.42033 0.0
H1691 H 0.71359 0.89786 0.44977 0.0
H1692 H 0.71963 0.88012 0.427 0.0
H1693 H 0.75255 0.89428 0.42642 0.0
H1694 H 0.74661 0.912 0.44919 0.0
H1695 H 0.75501 0.91839 0.41934 0.0
H1696 H 0.70271 0.95613 0.37034 0.0
H1697 H 0.69923 0.97729 0.40772 0.0
H1698 H 0.72038 0.93464 0.45763 0.0
C1699 C 0.7328 0.88941 0.37509 0.0
C1700 C 0.73217 0.8893 0.34827 0.0
C1701 C 0.7243 0.90457 0.33525 0.0
C1702 C 0.71723 0.91975 0.34868 0.0
C1703 C 0.71817 0.91947 0.37511 0.0
C1704 C 0.72579 0.90471 0.38819 0.0
C1705 C 0.72627 0.90836 0.41662 0.0
C1706 C 0.71405 0.89439 0.42916 0.0
C1707 C 0.7463 0.90826 0.42858 0.0
C1708 C 0.71804 0.92761 0.4175 0.0
C1709 C 0.71327 0.93372 0.39336 0.0
C1710 C 0.7062 0.95144 0.38933 0.0
C1711 C 0.70424 0.96332 0.41054 0.0
C1712 C 0.70943 0.95738 0.43524 0.0
C1713 C 0.71613 0.93927 0.4388 0.0
H1714 H 0.15282 0.71754 0.38317 0.0
H1715 H 0.1345 0.76523 0.34051 0.0
H1716 H 0.10189 0.75706 0.3462 0.0
H1717 H 0.11245 0.68628 0.36264 0.0
H1718 H 0.11229 0.6769 0.39384 0.0
H1719 H 0.13381 0.68432 0.38211 0.0
H1720 H 0.13984 0.70607 0.4219 0.0
H1721 H 0.11841 0.69876 0.4337 0.0
H1722 H 0.12261 0.72304 0.42949 0.0
H1723 H 0.07199 0.74652 0.36179 0.0
H1724 H 0.04742 0.73552 0.38769 0.0
H1725 H 0.08508 0.69454 0.42032 0.0
C1726 C 0.14188 0.72592 0.37443 0.0
C1727 C 0.14609 0.74189 0.36118 0.0
C1728 C 0.13151 0.75283 0.35049 0.0
C1729 C 0.11297 0.74825 0.35353 0.0
C1730 C 0.10929 0.73264 0.36723 0.0
C1731 C 0.12336 0.7216 0.37744 0.0
C1732 C 0.11592 0.70699 0.39397 0.0
C1733 C 0.11879 0.68746 0.38244 0.0
C1734 C 0.12471 0.70884 0.42137 0.0
C1735 C 0.09561 0.71212 0.39253 0.0
C1736 C 0.09198 0.72665 0.37652 0.0
C1737 C 0.07456 0.73487 0.37392 0.0
C1738 C 0.06064 0.72845 0.38863 0.0
C1739 C 0.0643 0.71409 0.40593 0.0
C1740 C 0.08186 0.70548 0.4072 0.0
H1741 H 0.28973 0.11926 0.36969 0.0
H1742 H 0.31849 0.15784 0.42361 0.0
H1743 H 0.31748 0.13486 0.45704 0.0
H1744 H 0.26011 0.09793 0.41452 0.0
H1745 H 0.26214 0.07506 0.40026 0.0
H1746 H 0.26353 0.09515 0.38111 0.0
H1747 H 0.29537 0.08401 0.36693 0.0
H1748 H 0.29412 0.06395 0.38612 0.0
H1749 H 0.31378 0.07934 0.39066 0.0
H1750 H 0.31533 0.10711 0.48392 0.0
H1751 H 0.31153 0.07638 0.50256 0.0
H1752 H 0.28498 0.05539 0.43127 0.0
C1753 C 0.2956 0.12293 0.38862 0.0
C1754 C 0.30422 0.14036 0.39402 0.0
C1755 C 0.3118 0.14461 0.41903 0.0
C1756 C 0.31131 0.13164 0.43815 0.0
C1757 C 0.30318 0.11444 0.43203 0.0
C1758 C 0.29539 0.11005 0.40791 0.0
C1759 C 0.2884 0.0902 0.40606 0.0
C1760 C 0.26729 0.08956 0.40014 0.0
C1761 C 0.29852 0.0787 0.38627 0.0
C1762 C 0.29368 0.08408 0.43279 0.0
C1763 C 0.30209 0.09832 0.4475 0.0
C1764 C 0.30863 0.0959 0.47266 0.0
C1765 C 0.30647 0.07847 0.48306 0.0
C1766 C 0.2979 0.06375 0.46831 0.0
C1767 C 0.29143 0.06658 0.44289 0.0
H1768 H 0.64202 0.75619 0.86747 0.0
H1769 H 0.67768 0.79678 0.90904 0.0
H1770 H 0.65066 0.80947 0.92988 0.0
H1771 H 0.60138 0.78524 0.85843 0.0
H1772 H 0.58543 0.7667 0.86323 0.0
H1773 H 0.60733 0.76164 0.85028 0.0
H1774 H 0.61518 0.73866 0.88616 0.0
H1775 H 0.5933 0.74361 0.89916 0.0
H1776 H 0.61455 0.74656 0.91884 0.0
H1777 H 0.62008 0.81689 0.94738 0.0
H1778 H 0.58828 0.81781 0.96158 0.0
H1779 H 0.57277 0.7718 0.90938 0.0
C1780 C 0.64418 0.76767 0.88106 0.0
C1781 C 0.66203 0.77527 0.88704 0.0
C1782 C 0.66417 0.79059 0.90448 0.0
C1783 C 0.64891 0.79793 0.91631 0.0
C1784 C 0.6316 0.78983 0.91042 0.0
C1785 C 0.62915 0.77501 0.89327 0.0
C1786 C 0.60926 0.76829 0.89117 0.0
C1787 C 0.60033 0.77061 0.86417 0.0
C1788 C 0.60801 0.74808 0.89933 0.0
C1789 C 0.60094 0.78152 0.91005 0.0
C1790 C 0.61401 0.79397 0.92072 0.0
C1791 C 0.60969 0.8073 0.93904 0.0
C1792 C 0.59157 0.80778 0.94687 0.0
C1793 C 0.57805 0.79492 0.93651 0.0
C1794 C 0.58283 0.78175 0.91771 0.0
H1795 H 0.26303 0.62055 0.84527 0.0
H1796 H 0.23803 0.68031 0.88737 0.0
H1797 H 0.22079 0.65684 0.92285 0.0
H1798 H 0.21985 0.58792 0.86114 0.0
H1799 H 0.23404 0.56834 0.86999 0.0
H1800 H 0.24209 0.58475 0.8482 0.0
H1801 H 0.27208 0.59022 0.87751 0.0
H1802 H 0.26408 0.57357 0.8989 0.0
H1803 H 0.27016 0.59668 0.91052 0.0
H1804 H 0.20832 0.62576 0.94658 0.0
H1805 H 0.20306 0.59788 0.97069 0.0
H1806 H 0.23572 0.56549 0.9196 0.0
C1807 C 0.25561 0.62748 0.85992 0.0
C1808 C 0.24946 0.65262 0.85917 0.0
C1809 C 0.23985 0.66543 0.88681 0.0
C1810 C 0.22827 0.65074 0.90765 0.0
C1811 C 0.22979 0.62607 0.90389 0.0
C1812 C 0.24327 0.61484 0.88199 0.0
C1813 C 0.24359 0.59473 0.88791 0.0
C1814 C 0.23435 0.58326 0.86548 0.0
C1815 C 0.26366 0.58844 0.89409 0.0
C1816 C 0.23204 0.59424 0.91139 0.0
C1817 C 0.22446 0.61122 0.91948 0.0
C1818 C 0.21405 0.6126 0.94063 0.0
C1819 C 0.21126 0.59667 0.95434 0.0
C1820 C 0.21908 0.57946 0.94718 0.0
C1821 C 0.22932 0.57837 0.92531 0.0
H1822 H 0.37919 0.24971 0.87638 0.0
H1823 H 0.34317 0.2339 0.93434 0.0
H1824 H 0.37023 0.22199 0.96003 0.0
H1825 H 0.41151 0.21062 0.88281 0.0
H1826 H 0.43142 0.22476 0.87797 0.0
H1827 H 0.40903 0.2306 0.86326 0.0
H1828 H 0.41173 0.26353 0.88435 0.0
H1829 H 0.43408 0.25778 0.89914 0.0
H1830 H 0.41596 0.26603 0.91836 0.0
H1831 H 0.4014 0.21393 0.98071 0.0
H1832 H 0.43461 0.2106 0.99496 0.0
H1833 H 0.4502 0.23123 0.92336 0.0
C1834 C 0.377 0.24343 0.89427 0.0
C1835 C 0.35909 0.24246 0.90325 0.0
C1836 C 0.35676 0.23455 0.92701 0.0
C1837 C 0.37203 0.22775 0.94169 0.0
C1838 C 0.38951 0.22899 0.93234 0.0
C1839 C 0.39207 0.2366 0.90916 0.0
C1840 C 0.4124 0.23726 0.9041 0.0
C1841 C 0.41631 0.22508 0.88064 0.0
C1842 C 0.41892 0.25734 0.90133 0.0
C1843 C 0.42091 0.22911 0.92824 0.0
C1844 C 0.40747 0.22433 0.94424 0.0
C1845 C 0.41203 0.21742 0.96823 0.0
C1846 C 0.43083 0.21557 0.97616 0.0
C1847 C 0.44471 0.22068 0.96016 0.0
C1848 C 0.43971 0.22719 0.93578 0.0
H1849 H 0.78409 0.36327 0.92883 0.0
H1850 H 0.80774 0.37588 0.85793 0.0
H1851 H 0.81188 0.40854 0.87298 0.0
H1852 H 0.75944 0.40552 0.93658 0.0
H1853 H 0.76407 0.4069 0.97058 0.0
H1854 H 0.76288 0.38464 0.95411 0.0
H1855 H 0.79574 0.37676 0.97354 0.0
H1856 H 0.79704 0.39901 0.99004 0.0
H1857 H 0.81475 0.39224 0.96925 0.0
H1858 H 0.81269 0.44004 0.89551 0.0
H1859 H 0.81051 0.46774 0.92428 0.0
H1860 H 0.78796 0.43371 0.98075 0.0
C1861 C 0.79029 0.37266 0.91633 0.0
C1862 C 0.79588 0.36679 0.89214 0.0
C1863 C 0.80358 0.38001 0.87661 0.0
C1864 C 0.80597 0.39856 0.88497 0.0
C1865 C 0.8006 0.40374 0.90901 0.0
C1866 C 0.79297 0.39116 0.92447 0.0
C1867 C 0.78839 0.40021 0.94954 0.0
C1868 C 0.76745 0.39926 0.95289 0.0
C1869 C 0.79966 0.39154 0.97191 0.0
C1870 C 0.79458 0.41987 0.94573 0.0
C1871 C 0.8015 0.42168 0.92219 0.0
C1872 C 0.80748 0.43874 0.91409 0.0
C1873 C 0.80628 0.45433 0.93049 0.0
C1874 C 0.79936 0.45265 0.9547 0.0
C1875 C 0.79352 0.4352 0.9624 0.0
H1876 H 0.62284 0.19541 0.16066 0.0
H1877 H 0.66369 0.20536 0.1063 0.0
H1878 H 0.63865 0.21354 0.07435 0.0
H1879 H 0.58985 0.17372 0.1165 0.0
H1880 H 0.56994 0.18332 0.13084 0.0
H1881 H 0.59112 0.17965 0.15002 0.0
H1882 H 0.59161 0.21425 0.16487 0.0
H1883 H 0.57037 0.21801 0.14582 0.0
H1884 H 0.59051 0.23195 0.14151 0.0
H1885 H 0.60904 0.21943 0.04784 0.0
H1886 H 0.5769 0.22198 0.02855 0.0
H1887 H 0.55548 0.2077 0.09996 0.0
C1888 C 0.6265 0.19968 0.14218 0.0
C1889 C 0.64522 0.2003 0.1362 0.0
C1890 C 0.64948 0.20529 0.11152 0.0
C1891 C 0.63535 0.20988 0.09324 0.0
C1892 C 0.61704 0.20919 0.09983 0.0
C1893 C 0.61259 0.20418 0.12369 0.0
C1894 C 0.5918 0.20357 0.12557 0.0
C1895 C 0.5853 0.18389 0.13105 0.0
C1896 C 0.58572 0.2178 0.14563 0.0
C1897 C 0.58524 0.209 0.09901 0.0
C1898 C 0.60001 0.21223 0.08446 0.0
C1899 C 0.59738 0.21701 0.05909 0.0
C1900 C 0.57918 0.21842 0.0483 0.0
C1901 C 0.56396 0.215 0.06289 0.0
C1902 C 0.56701 0.21038 0.08856 0.0
H1903 H 0.75996 0.63642 0.12027 0.0
H1904 H 0.759 0.61404 0.19547 0.0
H1905 H 0.76918 0.58372 0.17863 0.0
H1906 H 0.74122 0.59584 0.08721 0.0
H1907 H 0.75485 0.59827 0.06021 0.0
H1908 H 0.74862 0.61849 0.07858 0.0
H1909 H 0.78333 0.62756 0.08588 0.0
H1910 H 0.78965 0.60731 0.06762 0.0
H1911 H 0.7996 0.61117 0.09963 0.0
H1912 H 0.77903 0.55556 0.15336 0.0
H1913 H 0.78586 0.53137 0.1208 0.0
H1914 H 0.77921 0.57182 0.06217 0.0
C1915 C 0.76208 0.62516 0.13322 0.0
C1916 C 0.75909 0.62776 0.15926 0.0
C1917 C 0.76155 0.61257 0.17554 0.0
C1918 C 0.76732 0.59526 0.16615 0.0
C1919 C 0.77028 0.59327 0.14041 0.0
C1920 C 0.76757 0.60777 0.12413 0.0
C1921 C 0.77067 0.60177 0.09701 0.0
C1922 C 0.75278 0.60371 0.07974 0.0
C1923 C 0.78677 0.6126 0.08696 0.0
C1924 C 0.77565 0.58163 0.10058 0.0
C1925 C 0.77545 0.577 0.12577 0.0
C1926 C 0.77927 0.55904 0.1336 0.0
C1927 C 0.78316 0.54545 0.11513 0.0
C1928 C 0.78312 0.54996 0.08931 0.0
C1929 C 0.77945 0.56824 0.08195 0.0
H1930 H 0.38925 0.76528 0.15089 0.0
H1931 H 0.35072 0.80884 0.1288 0.0
H1932 H 0.36893 0.81529 0.09215 0.0
H1933 H 0.4296 0.78907 0.13704 0.0
H1934 H 0.44137 0.7688 0.12552 0.0
H1935 H 0.42443 0.76657 0.14862 0.0
H1936 H 0.40613 0.74273 0.11878 0.0
H1937 H 0.42306 0.74485 0.09559 0.0
H1938 H 0.3989 0.74888 0.08679 0.0
H1939 H 0.39224 0.81797 0.05926 0.0
H1940 H 0.41915 0.81696 0.03286 0.0
H1941 H 0.44271 0.77213 0.07736 0.0
C1942 C 0.38445 0.7759 0.13799 0.0
C1943 C 0.36831 0.7862 0.1422 0.0
C1944 C 0.36278 0.80046 0.12548 0.0
C1945 C 0.37305 0.80425 0.10469 0.0
C1946 C 0.38888 0.79376 0.10105 0.0
C1947 C 0.39455 0.77989 0.11724 0.0
C1948 C 0.41261 0.77135 0.11 0.0
C1949 C 0.4279 0.77412 0.13158 0.0
C1950 C 0.41001 0.75073 0.10233 0.0
C1951 C 0.41633 0.78273 0.08737 0.0
C1952 C 0.40245 0.79552 0.08241 0.0
C1953 C 0.40316 0.80796 0.06289 0.0
C1954 C 0.41854 0.80736 0.04812 0.0
C1955 C 0.433 0.79446 0.05305 0.0
C1956 C 0.43173 0.78194 0.07285 0.0
H1957 H 0.24258 0.38973 0.18213 0.0
H1958 H 0.27001 0.35109 0.1326 0.0
H1959 H 0.26262 0.37116 0.09638 0.0
H1960 H 0.20528 0.40359 0.13405 0.0
H1961 H 0.20568 0.42738 0.1456 0.0
H1962 H 0.21138 0.40905 0.16716 0.0
H1963 H 0.24283 0.42497 0.18038 0.0
H1964 H 0.2373 0.44326 0.15879 0.0
H1965 H 0.25837 0.4302 0.15633 0.0
H1966 H 0.25545 0.39669 0.06676 0.0
H1967 H 0.24772 0.4258 0.04502 0.0
H1968 H 0.22389 0.44787 0.11273 0.0
C1969 C 0.24653 0.38528 0.16349 0.0
C1970 C 0.25651 0.36861 0.16004 0.0
C1971 C 0.26202 0.36356 0.13554 0.0
C1972 C 0.25792 0.3749 0.11487 0.0
C1973 C 0.24825 0.39129 0.11892 0.0
C1974 C 0.24245 0.39643 0.14253 0.0
C1975 C 0.23316 0.4153 0.14191 0.0
C1976 C 0.21266 0.41373 0.14751 0.0
C1977 C 0.24354 0.42925 0.16045 0.0
C1978 C 0.23515 0.42015 0.11448 0.0
C1979 C 0.24384 0.40604 0.10157 0.0
C1980 C 0.24837 0.40771 0.07652 0.0
C1981 C 0.244 0.42427 0.06436 0.0
C1982 C 0.23509 0.43889 0.07717 0.0
C1983 C 0.23041 0.43672 0.10244 0.0
H1984 H 0.40853 0.2217 0.19944 0.0
H1985 H 0.36598 0.25508 0.16112 0.0
H1986 H 0.38098 0.25058 0.12087 0.0
H1987 H 0.44594 0.23854 0.16852 0.0
H1988 H 0.45786 0.2167 0.16596 0.0
H1989 H 0.44285 0.22092 0.19128 0.0
H1990 H 0.42404 0.19133 0.1773 0.0
H1991 H 0.43902 0.18702 0.15186 0.0
H1992 H 0.41432 0.18867 0.145 0.0
H1993 H 0.4018 0.2453 0.08624 0.0
H1994 H 0.42753 0.23917 0.05871 0.0
H1995 H 0.45637 0.2083 0.11834 0.0
C1996 C 0.40223 0.22775 0.18244 0.0
C1997 C 0.38599 0.23856 0.18328 0.0
C1998 C 0.37831 0.24658 0.16078 0.0
C1999 C 0.38669 0.24407 0.13785 0.0
C2000 C 0.4027 0.23341 0.13766 0.0
C2001 C 0.41038 0.22527 0.15926 0.0
C2002 C 0.42824 0.21532 0.15401 0.0
C2003 C 0.44469 0.22336 0.17094 0.0
C2004 C 0.42628 0.19434 0.15723 0.0
C2005 C 0.42973 0.21977 0.12637 0.0
C2006 C 0.41471 0.23007 0.1173 0.0
C2007 C 0.41348 0.23698 0.09293 0.0
C2008 C 0.42811 0.2335 0.07749 0.0
C2009 C 0.44367 0.22316 0.08647 0.0
C2010 C 0.44438 0.21593 0.11101 0.0
H2011 H 0.76071 0.35965 0.13413 0.0
H2012 H 0.81058 0.33225 0.11157 0.0
H2013 H 0.82311 0.36233 0.09961 0.0
H2014 H 0.75593 0.38916 0.08438 0.0
H2015 H 0.7478 0.40889 0.10222 0.0
H2016 H 0.74396 0.38587 0.11274 0.0
H2017 H 0.76049 0.39457 0.15666 0.0
H2018 H 0.76429 0.41772 0.14632 0.0
H2019 H 0.78362 0.40406 0.15836 0.0
H2020 H 0.82832 0.39426 0.08499 0.0
H2021 H 0.82599 0.42579 0.06875 0.0
H2022 H 0.77315 0.43296 0.10212 0.0
C2023 C 0.77449 0.36012 0.12738 0.0
C2024 C 0.78485 0.34374 0.12423 0.0
C2025 C 0.8026 0.34473 0.11459 0.0
C2026 C 0.80981 0.36173 0.10777 0.0
C2027 C 0.79913 0.3776 0.11079 0.0
C2028 C 0.78191 0.37699 0.12057 0.0
C2029 C 0.77259 0.39577 0.11988 0.0
C2030 C 0.75398 0.39486 0.10384 0.0
C2031 C 0.77011 0.40348 0.14692 0.0
C2032 C 0.78689 0.40681 0.10713 0.0
C2033 C 0.80221 0.39615 0.1024 0.0
C2034 C 0.8166 0.40288 0.08909 0.0
C2035 C 0.81518 0.42089 0.08004 0.0
C2036 C 0.79944 0.43199 0.08428 0.0
C2037 C 0.78533 0.42488 0.09848 0.0
H2038 H 0.59328 0.78213 0.17425 0.0
H2039 H 0.6398 0.76774 0.12996 0.0
H2040 H 0.62201 0.77731 0.09106 0.0
H2041 H 0.55919 0.76423 0.13056 0.0
H2042 H 0.54221 0.78193 0.13601 0.0
H2043 H 0.55944 0.77653 0.16088 0.0
H2044 H 0.56975 0.81097 0.16432 0.0
H2045 H 0.55253 0.81647 0.13935 0.0
H2046 H 0.57652 0.82221 0.13642 0.0
H2047 H 0.59854 0.78554 0.05664 0.0
H2048 H 0.57009 0.79039 0.02871 0.0
H2049 H 0.53852 0.79893 0.09478 0.0
C2050 C 0.59984 0.78149 0.15643 0.0
C2051 C 0.61811 0.77477 0.15525 0.0
C2052 C 0.62603 0.77337 0.13144 0.0
C2053 C 0.61604 0.77878 0.10924 0.0
C2054 C 0.59809 0.7854 0.11109 0.0
C2055 C 0.59002 0.78674 0.13404 0.0
C2056 C 0.56994 0.79266 0.13044 0.0
C2057 C 0.55693 0.77796 0.14003 0.0
C2058 C 0.56702 0.81171 0.1434 0.0
C2059 C 0.56782 0.79377 0.1018 0.0
C2060 C 0.58433 0.78987 0.09105 0.0
C2061 C 0.58561 0.78892 0.06482 0.0
C2062 C 0.56948 0.79169 0.04915 0.0
C2063 C 0.55244 0.79526 0.05984 0.0
C2064 C 0.5516 0.7966 0.08639 0.0
H2065 H 0.21798 0.64358 0.09672 0.0
H2066 H 0.2549 0.63637 0.16401 0.0
H2067 H 0.24922 0.6026 0.16079 0.0
H2068 H 0.18563 0.60458 0.10555 0.0
H2069 H 0.18387 0.59848 0.07208 0.0
H2070 H 0.18767 0.62228 0.08261 0.0
H2071 H 0.21708 0.62358 0.05726 0.0
H2072 H 0.21323 0.59993 0.04653 0.0
H2073 H 0.23507 0.6066 0.06281 0.0
H2074 H 0.24264 0.56938 0.14724 0.0
H2075 H 0.23798 0.53977 0.12232 0.0
H2076 H 0.20753 0.56901 0.06252 0.0
C2077 C 0.22472 0.63494 0.11094 0.0
C2078 C 0.23706 0.64257 0.13045 0.0
C2079 C 0.24545 0.63079 0.14883 0.0
C2080 C 0.24222 0.61161 0.14725 0.0
C2081 C 0.23053 0.60445 0.1272 0.0
C2082 C 0.22197 0.61578 0.1093 0.0
C2083 C 0.21212 0.60457 0.08771 0.0
C2084 C 0.19107 0.60766 0.08696 0.0
C2085 C 0.21985 0.60893 0.06208 0.0
C2086 C 0.21712 0.58519 0.09571 0.0
C2087 C 0.22725 0.58532 0.11891 0.0
C2088 C 0.23447 0.56907 0.12926 0.0
C2089 C 0.23176 0.55236 0.1151 0.0
C2090 C 0.22231 0.55224 0.09075 0.0
C2091 C 0.2145 0.56875 0.08133 0.0
H2092 H 0.3764 0.80799 0.85329 0.0
H2093 H 0.34488 0.78914 0.91447 0.0
H2094 H 0.37415 0.78365 0.9404 0.0
H2095 H 0.41447 0.77576 0.86148 0.0
H2096 H 0.43162 0.79256 0.85428 0.0
H2097 H 0.40823 0.79428 0.84045 0.0
H2098 H 0.40621 0.82792 0.85888 0.0
H2099 H 0.42956 0.82627 0.87283 0.0
H2100 H 0.41097 0.83234 0.89252 0.0
H2101 H 0.40694 0.7812 0.95995 0.0
H2102 H 0.44075 0.78217 0.97165 0.0
H2103 H 0.45049 0.80234 0.89738 0.0
C2104 C 0.37568 0.80255 0.87207 0.0
C2105 C 0.35843 0.79878 0.88182 0.0
C2106 C 0.35799 0.79194 0.9066 0.0
C2107 C 0.37451 0.7888 0.92142 0.0
C2108 C 0.39128 0.79266 0.91117 0.0
C2109 C 0.39197 0.79939 0.88706 0.0
C2110 C 0.41169 0.80294 0.88067 0.0
C2111 C 0.4168 0.79064 0.85787 0.0
C2112 C 0.41478 0.82359 0.87595 0.0
C2113 C 0.42206 0.7972 0.90498 0.0
C2114 C 0.41006 0.79131 0.92238 0.0
C2115 C 0.41644 0.78573 0.94646 0.0
C2116 C 0.43557 0.78632 0.95293 0.0
C2117 C 0.44796 0.79246 0.93539 0.0
C2118 C 0.44116 0.79775 0.91109 0.0
H2119 H 0.21029 0.36909 0.92381 0.0
H2120 H 0.21639 0.38721 0.84731 0.0
H2121 H 0.22252 0.41912 0.86406 0.0
H2122 H 0.18609 0.40884 0.94434 0.0
H2123 H 0.19677 0.40944 0.97625 0.0
H2124 H 0.19429 0.38773 0.95856 0.0
H2125 H 0.22966 0.3821 0.96555 0.0
H2126 H 0.23222 0.40379 0.98333 0.0
H2127 H 0.24561 0.39939 0.95624 0.0
H2128 H 0.22628 0.44919 0.88861 0.0
H2129 H 0.22728 0.47567 0.91975 0.0
H2130 H 0.2186 0.43819 0.98021 0.0
C2131 C 0.21329 0.37973 0.9107 0.0
C2132 C 0.21342 0.3756 0.88438 0.0
C2133 C 0.21673 0.38999 0.86762 0.0
C2134 C 0.22016 0.40814 0.87694 0.0
C2135 C 0.22003 0.41171 0.903 0.0
C2136 C 0.21666 0.39794 0.91967 0.0
C2137 C 0.21633 0.40567 0.94665 0.0
C2138 C 0.19723 0.40274 0.95705 0.0
C2139 C 0.23188 0.39723 0.96396 0.0
C2140 C 0.21993 0.42595 0.94251 0.0
C2141 C 0.22208 0.42912 0.9172 0.0
C2142 C 0.22486 0.44686 0.90853 0.0
C2143 C 0.22546 0.46175 0.92624 0.0
C2144 C 0.22342 0.45871 0.95221 0.0
C2145 C 0.22055 0.44066 0.96044 0.0
H2146 H 0.64437 0.25492 0.89795 0.0
H2147 H 0.6486 0.20302 0.85467 0.0
H2148 H 0.6181 0.19354 0.86766 0.0
H2149 H 0.62512 0.23484 0.95064 0.0
H2150 H 0.61035 0.2543 0.95708 0.0
H2151 H 0.63168 0.25783 0.94228 0.0
H2152 H 0.61356 0.2736 0.90477 0.0
H2153 H 0.59215 0.27004 0.91944 0.0
H2154 H 0.59467 0.26138 0.88745 0.0
H2155 H 0.58737 0.18921 0.88651 0.0
H2156 H 0.55977 0.18977 0.91149 0.0
H2157 H 0.57725 0.24321 0.94528 0.0
C2158 C 0.63887 0.24158 0.89112 0.0
C2159 C 0.64903 0.22979 0.87536 0.0
C2160 C 0.64125 0.21243 0.86677 0.0
C2161 C 0.62385 0.20688 0.874 0.0
C2162 C 0.61443 0.21873 0.88996 0.0
C2163 C 0.62173 0.23567 0.89855 0.0
C2164 C 0.60947 0.24526 0.91696 0.0
C2165 C 0.61977 0.24822 0.94329 0.0
C2166 C 0.60202 0.26366 0.90652 0.0
C2167 C 0.59417 0.23102 0.91748 0.0
C2168 C 0.59714 0.21593 0.90155 0.0
C2169 C 0.58493 0.20094 0.89912 0.0
C2170 C 0.56936 0.20133 0.91355 0.0
C2171 C 0.56625 0.21651 0.93047 0.0
C2172 C 0.57889 0.23154 0.93223 0.0
H2173 H 0.81169 0.64835 0.90119 0.0
H2174 H 0.78221 0.62882 0.83097 0.0
H2175 H 0.77306 0.60046 0.85189 0.0
H2176 H 0.83025 0.60485 0.91789 0.0
H2177 H 0.82841 0.60852 0.95155 0.0
H2178 H 0.83118 0.62802 0.93177 0.0
H2179 H 0.8013 0.64282 0.94774 0.0
H2180 H 0.79846 0.62337 0.96765 0.0
H2181 H 0.77998 0.62973 0.94493 0.0
H2182 H 0.76776 0.57389 0.88028 0.0
H2183 H 0.76846 0.55022 0.91319 0.0
H2184 H 0.80256 0.58662 0.9641 0.0
C2185 C 0.80301 0.63824 0.8904 0.0
C2186 C 0.79716 0.64106 0.86473 0.0
C2187 C 0.78639 0.62722 0.85087 0.0
C2188 C 0.78117 0.61105 0.86257 0.0
C2189 C 0.78706 0.60881 0.88798 0.0
C2190 C 0.79785 0.62198 0.90167 0.0
C2191 C 0.80336 0.61572 0.92821 0.0
C2192 C 0.82456 0.61418 0.9326 0.0
C2193 C 0.79529 0.62868 0.94831 0.0
C2194 C 0.79419 0.59686 0.92722 0.0
C2195 C 0.78464 0.59322 0.90398 0.0
C2196 C 0.77514 0.5766 0.89857 0.0
C2197 C 0.77555 0.5633 0.91736 0.0
C2198 C 0.78558 0.56664 0.94108 0.0
C2199 C 0.7949 0.58369 0.94604 0.0
loop_
_geom_bond_atom_site_label_1
_geom_bond_atom_site_label_2
_geom_bond_distance
_geom_bond_site_symmetry_2
_ccdc_geom_bond_type
C0 C1 1.560 . S
C0 H61 0.959 . S
C0 H62 0.959 . S
C0 H63 0.960 . S
C1 C0 1.560 . S
C1 O56 1.426 . S
C1 H60 0.980 . S
C2 C3 1.407 . S
C2 C7 1.418 . S
C2 O56 1.334 . S
C3 C2 1.407 . S
C3 C4 1.360 . S
C3 H64 0.929 . S
C4 C3 1.360 . S
C4 C5 1.401 . S
C4 C8 1.527 . S
C5 C4 1.401 . S
C5 C6 1.405 . S
C5 C38 1.587 . S
C6 C5 1.405 . S
C6 C7 1.332 . S
C6 C9 1.496 . S
C7 C2 1.418 . S
C7 C6 1.332 . S
C7 H65 0.929 . S
C8 C4 1.527 . S
C8 H66 0.959 . S
C8 H67 0.961 . S
C8 H68 0.961 . S
C9 C6 1.496 . S
C9 H69 0.960 . S
C9 H70 0.960 . S
C9 H71 0.961 . S
C10 C11 1.517 . S
C10 H73 0.961 . S
C10 H74 0.960 . S
C10 H75 0.959 . S
C11 C10 1.517 . S
C11 O59 1.468 . S
C11 H72 0.980 . S
C12 C13 1.349 . S
C12 C17 1.367 . S
C12 O59 1.408 . S
C13 C12 1.349 . S
C13 C14 1.407 . S
C13 H76 0.930 . S
C14 C13 1.407 . S
C14 C15 1.449 . S
C14 C18 1.535 . S
C15 C14 1.449 . S
C15 C16 1.384 . S
C15 C40 1.553 . S
C16 C15 1.384 . S
C16 C17 1.364 . S
C16 C19 1.450 . S
C17 C12 1.367 . S
C17 C16 1.364 . S
C17 H77 0.931 . S
C18 C14 1.535 . S
C18 H78 0.959 . S
C18 H79 0.961 . S
C18 H80 0.959 . S
C19 C16 1.450 . S
C19 H81 0.960 . S
C19 H82 0.960 . S
C19 H83 0.960 . S
C20 C21 1.309 . S
C20 C25 1.304 . S
C20 O58 1.435 . S
C21 C20 1.309 . S
C21 C22 1.476 . S
C21 H85 0.930 . S
C22 C21 1.476 . S
C22 C23 1.400 . S
C22 C26 1.567 . S
C23 C22 1.400 . S
C23 C24 1.373 . S
C23 C45 1.432 . S
C24 C23 1.373 . S
C24 C25 1.339 . S
C24 C27 1.530 . S
C25 C20 1.304 . S
C25 C24 1.339 . S
C25 H86 0.930 . S
C26 C22 1.567 . S
C26 H87 0.961 . S
C26 H88 0.960 . S
C26 H89 0.958 . S
C27 C24 1.530 . S
C27 H90 0.961 . S
C27 H91 0.960 . S
C27 H92 0.960 . S
C28 C29 1.530 . S
C28 H94 0.961 . S
C28 H95 0.961 . S
C28 H96 0.959 . S
C29 C28 1.530 . S
C29 O57 1.412 . S
C29 H93 0.980 . S
C30 C31 1.288 . S
C30 C35 1.377 . S
C30 O57 1.393 . S
C31 C30 1.288 . S
C31 C32 1.369 . S
C31 H97 0.932 . S
C32 C31 1.369 . S
C32 C33 1.398 . S
C32 C36 1.527 . S
C33 C32 1.398 . S
C33 C34 1.380 . S
C33 C47 1.497 . S
C34 C33 1.380 . S
C34 C35 1.383 . S
C34 C37 1.603 . S
C35 C30 1.377 . S
C35 C34 1.383 . S
C35 H98 0.929 . S
C36 C32 1.527 . S
C36 H99 0.961 . S
C36 H100 0.959 . S
C36 H101 0.959 . S
C37 C34 1.603 . S
C37 H102 0.960 . S
C37 H103 0.962 . S
C37 H104 0.961 . S
C38 C5 1.587 . S
C38 C39 1.360 . S
C38 C51 1.412 . S
C39 C38 1.360 . S
C39 C40 1.365 . S
C39 H105 0.929 . S
C40 C15 1.553 . S
C40 C39 1.365 . S
C40 C41 1.404 . S
C41 C40 1.404 . S
C41 C42 1.395 . S
C41 C52 1.451 . S
C42 C41 1.395 . S
C42 C43 1.322 . S
C42 H106 0.930 . S
C43 C42 1.322 . S
C43 C44 1.459 . S
C43 H107 0.929 . S
C44 C43 1.459 . S
C44 C45 1.445 . S
C44 C53 1.395 . S
C45 C23 1.432 . S
C45 C44 1.445 . S
C45 C46 1.370 . S
C46 C45 1.370 . S
C46 C47 1.438 . S
C46 H108 0.930 . S
C47 C33 1.497 . S
C47 C46 1.438 . S
C47 C48 1.360 . S
C48 C47 1.360 . S
C48 C49 1.401 . S
C48 C53 1.446 . S
C49 C48 1.401 . S
C49 C50 1.347 . S
C49 H109 0.929 . S
C50 C49 1.347 . S
C50 C51 1.455 . S
C50 H110 0.930 . S
C51 C38 1.412 . S
C51 C50 1.455 . S
C51 C52 1.331 . S
C52 C41 1.451 . S
C52 C51 1.331 . S
C52 C53 1.497 . S
C53 C44 1.395 . S
C53 C48 1.446 . S
C53 C52 1.497 . S
C54 C55 1.582 . S
C54 H111 0.962 . S
C54 H112 0.959 . S
C54 H113 0.958 . S
C55 C54 1.582 . S
C55 O58 1.458 . S
C55 H84 0.980 . S
O56 C1 1.426 . S
O56 C2 1.334 . S
O57 C29 1.412 . S
O57 C30 1.393 . S
O58 C20 1.435 . S
O58 C55 1.458 . S
O59 C11 1.468 . S
O59 C12 1.408 . S
H60 C1 0.980 . S
H61 C0 0.959 . S
H62 C0 0.959 . S
H63 C0 0.960 . S
H64 C3 0.929 . S
H65 C7 0.929 . S
H66 C8 0.959 . S
H67 C8 0.961 . S
H68 C8 0.961 . S
H69 C9 0.960 . S
H70 C9 0.960 . S
H71 C9 0.961 . S
H72 C11 0.980 . S
H73 C10 0.961 . S
H74 C10 0.960 . S
H75 C10 0.959 . S
H76 C13 0.930 . S
H77 C17 0.931 . S
H78 C18 0.959 . S
H79 C18 0.961 . S
H80 C18 0.959 . S
H81 C19 0.960 . S
H82 C19 0.960 . S
H83 C19 0.960 . S
H84 C55 0.980 . S
H85 C21 0.930 . S
H86 C25 0.930 . S
H87 C26 0.961 . S
H88 C26 0.960 . S
H89 C26 0.958 . S
H90 C27 0.961 . S
H91 C27 0.960 . S
H92 C27 0.960 . S
H93 C29 0.980 . S
H94 C28 0.961 . S
H95 C28 0.961 . S
H96 C28 0.959 . S
H97 C31 0.932 . S
H98 C35 0.929 . S
H99 C36 0.961 . S
H100 C36 0.959 . S
H101 C36 0.959 . S
H102 C37 0.960 . S
H103 C37 0.962 . S
H104 C37 0.961 . S
H105 C39 0.929 . S
H106 C42 0.930 . S
H107 C43 0.929 . S
H108 C46 0.930 . S
H109 C49 0.929 . S
H110 C50 0.930 . S
H111 C54 0.962 . S
H112 C54 0.959 . S
H113 C54 0.958 . S
C114 C115 1.560 . S
C114 H175 0.959 . S
C114 H176 0.959 . S
C114 H177 0.960 . S
C115 C114 1.560 . S
C115 O170 1.426 . S
C115 H174 0.980 . S
C116 C117 1.407 . S
C116 C121 1.418 . S
C116 O170 1.334 . S
C117 C116 1.407 . S
C117 C118 1.360 . S
C117 H178 0.929 . S
C118 C117 1.360 . S
C118 C119 1.401 . S
C118 C122 1.527 . S
C119 C118 1.401 . S
C119 C120 1.405 . S
C119 C152 1.587 . S
C120 C119 1.405 . S
C120 C121 1.332 . S
C120 C123 1.496 . S
C121 C116 1.418 . S
C121 C120 1.332 . S
C121 H179 0.929 . S
C122 C118 1.527 . S
C122 H180 0.959 . S
C122 H181 0.961 . S
C122 H182 0.961 . S
C123 C120 1.496 . S
C123 H183 0.960 . S
C123 H184 0.960 . S
C123 H185 0.961 . S
C124 C125 1.517 . S
C124 H187 0.961 . S
C124 H188 0.960 . S
C124 H189 0.959 . S
C125 C124 1.517 . S
C125 O173 1.468 . S
C125 H186 0.980 . S
C126 C127 1.349 . S
C126 C131 1.367 . S
C126 O173 1.408 . S
C127 C126 1.349 . S
C127 C128 1.407 . S
C127 H190 0.930 . S
C128 C127 1.407 . S
C128 C129 1.449 . S
C128 C132 1.535 . S
C129 C128 1.449 . S
C129 C130 1.384 . S
C129 C154 1.553 . S
C130 C129 1.384 . S
C130 C131 1.364 . S
C130 C133 1.450 . S
C131 C126 1.367 . S
C131 C130 1.364 . S
C131 H191 0.931 . S
C132 C128 1.535 . S
C132 H192 0.959 . S
C132 H193 0.961 . S
C132 H194 0.959 . S
C133 C130 1.450 . S
C133 H195 0.960 . S
C133 H196 0.960 . S
C133 H197 0.960 . S
C134 C135 1.309 . S
C134 C139 1.304 . S
C134 O172 1.435 . S
C135 C134 1.309 . S
C135 C136 1.476 . S
C135 H199 0.930 . S
C136 C135 1.476 . S
C136 C137 1.400 . S
C136 C140 1.567 . S
C137 C136 1.400 . S
C137 C138 1.373 . S
C137 C159 1.432 . S
C138 C137 1.373 . S
C138 C139 1.339 . S
C138 C141 1.530 . S
C139 C134 1.304 . S
C139 C138 1.339 . S
C139 H200 0.930 . S
C140 C136 1.567 . S
C140 H201 0.961 . S
C140 H202 0.960 . S
C140 H203 0.958 . S
C141 C138 1.530 . S
C141 H204 0.961 . S
C141 H205 0.960 . S
C141 H206 0.960 . S
C142 C143 1.530 . S
C142 H208 0.961 . S
C142 H209 0.961 . S
C142 H210 0.959 . S
C143 C142 1.530 . S
C143 O171 1.412 . S
C143 H207 0.980 . S
C144 C145 1.288 . S
C144 C149 1.377 . S
C144 O171 1.393 . S
C145 C144 1.288 . S
C145 C146 1.369 . S
C145 H211 0.932 . S
C146 C145 1.369 . S
C146 C147 1.398 . S
C146 C150 1.527 . S
C147 C146 1.398 . S
C147 C148 1.380 . S
C147 C161 1.497 . S
C148 C147 1.380 . S
C148 C149 1.383 . S
C148 C151 1.603 . S
C149 C144 1.377 . S
C149 C148 1.383 . S
C149 H212 0.929 . S
C150 C146 1.527 . S
C150 H213 0.961 . S
C150 H214 0.959 . S
C150 H215 0.959 . S
C151 C148 1.603 . S
C151 H216 0.960 . S
C151 H217 0.962 . S
C151 H218 0.961 . S
C152 C119 1.587 . S
C152 C153 1.360 . S
C152 C165 1.412 . S
C153 C152 1.360 . S
C153 C154 1.365 . S
C153 H219 0.929 . S
C154 C129 1.553 . S
C154 C153 1.365 . S
C154 C155 1.404 . S
C155 C154 1.404 . S
C155 C156 1.395 . S
C155 C166 1.451 . S
C156 C155 1.395 . S
C156 C157 1.322 . S
C156 H220 0.930 . S
C157 C156 1.322 . S
C157 C158 1.459 . S
C157 H221 0.929 . S
C158 C157 1.459 . S
C158 C159 1.445 . S
C158 C167 1.395 . S
C159 C137 1.432 . S
C159 C158 1.445 . S
C159 C160 1.370 . S
C160 C159 1.370 . S
C160 C161 1.438 . S
C160 H222 0.930 . S
C161 C147 1.497 . S
C161 C160 1.438 . S
C161 C162 1.360 . S
C162 C161 1.360 . S
C162 C163 1.401 . S
C162 C167 1.446 . S
C163 C162 1.401 . S
C163 C164 1.347 . S
C163 H223 0.929 . S
C164 C163 1.347 . S
C164 C165 1.455 . S
C164 H224 0.930 . S
C165 C152 1.412 . S
C165 C164 1.455 . S
C165 C166 1.331 . S
C166 C155 1.451 . S
C166 C165 1.331 . S
C166 C167 1.497 . S
C167 C158 1.395 . S
C167 C162 1.446 . S
C167 C166 1.497 . S
C168 C169 1.582 . S
C168 H225 0.962 . S
C168 H226 0.959 . S
C168 H227 0.958 . S
C169 C168 1.582 . S
C169 O172 1.458 . S
C169 H198 0.980 . S
O170 C115 1.426 . S
O170 C116 1.334 . S
O171 C143 1.412 . S
O171 C144 1.393 . S
O172 C134 1.435 . S
O172 C169 1.458 . S
O173 C125 1.468 . S
O173 C126 1.408 . S
H174 C115 0.980 . S
H175 C114 0.959 . S
H176 C114 0.959 . S
H177 C114 0.960 . S
H178 C117 0.929 . S
H179 C121 0.929 . S
H180 C122 0.959 . S
H181 C122 0.961 . S
H182 C122 0.961 . S
H183 C123 0.960 . S
H184 C123 0.960 . S
H185 C123 0.961 . S
H186 C125 0.980 . S
H187 C124 0.961 . S
H188 C124 0.960 . S
H189 C124 0.959 . S
H190 C127 0.930 . S
H191 C131 0.931 . S
H192 C132 0.959 . S
H193 C132 0.961 . S
H194 C132 0.959 . S
H195 C133 0.960 . S
H196 C133 0.960 . S
H197 C133 0.960 . S
H198 C169 0.980 . S
H199 C135 0.930 . S
H200 C139 0.930 . S
H201 C140 0.961 . S
H202 C140 0.960 . S
H203 C140 0.958 . S
H204 C141 0.961 . S
H205 C141 0.960 . S
H206 C141 0.960 . S
H207 C143 0.980 . S
H208 C142 0.961 . S
H209 C142 0.961 . S
H210 C142 0.959 . S
H211 C145 0.932 . S
H212 C149 0.929 . S
H213 C150 0.961 . S
H214 C150 0.959 . S
H215 C150 0.959 . S
H216 C151 0.960 . S
H217 C151 0.962 . S
H218 C151 0.961 . S
H219 C153 0.929 . S
H220 C156 0.930 . S
H221 C157 0.929 . S
H222 C160 0.930 . S
H223 C163 0.929 . S
H224 C164 0.930 . S
H225 C168 0.962 . S
H226 C168 0.959 . S
H227 C168 0.958 . S
C228 C229 1.560 . S
C228 H289 0.959 . S
C228 H290 0.959 . S
C228 H291 0.960 . S
C229 C228 1.560 . S
C229 O284 1.426 . S
C229 H288 0.980 . S
C230 C231 1.407 . S
C230 C235 1.418 . S
C230 O284 1.334 . S
C231 C230 1.407 . S
C231 C232 1.360 . S
C231 H292 0.929 . S
C232 C231 1.360 . S
C232 C233 1.401 . S
C232 C236 1.527 . S
C233 C232 1.401 . S
C233 C234 1.405 . S
C233 C266 1.587 . S
C234 C233 1.405 . S
C234 C235 1.332 . S
C234 C237 1.496 . S
C235 C230 1.418 . S
C235 C234 1.332 . S
C235 H293 0.929 . S
C236 C232 1.527 . S
C236 H294 0.959 . S
C236 H295 0.961 . S
C236 H296 0.961 . S
C237 C234 1.496 . S
C237 H297 0.960 . S
C237 H298 0.960 . S
C237 H299 0.961 . S
C238 C239 1.517 . S
C238 H301 0.961 . S
C238 H302 0.960 . S
C238 H303 0.959 . S
C239 C238 1.517 . S
C239 O287 1.468 . S
C239 H300 0.980 . S
C240 C241 1.349 . S
C240 C245 1.367 . S
C240 O287 1.408 . S
C241 C240 1.349 . S
C241 C242 1.407 . S
C241 H304 0.930 . S
C242 C241 1.407 . S
C242 C243 1.449 . S
C242 C246 1.535 . S
C243 C242 1.449 . S
C243 C244 1.384 . S
C243 C268 1.553 . S
C244 C243 1.384 . S
C244 C245 1.364 . S
C244 C247 1.450 . S
C245 C240 1.367 . S
C245 C244 1.364 . S
C245 H305 0.931 . S
C246 C242 1.535 . S
C246 H306 0.959 . S
C246 H307 0.961 . S
C246 H308 0.959 . S
C247 C244 1.450 . S
C247 H309 0.960 . S
C247 H310 0.960 . S
C247 H311 0.960 . S
C248 C249 1.309 . S
C248 C253 1.304 . S
C248 O286 1.435 . S
C249 C248 1.309 . S
C249 C250 1.476 . S
C249 H313 0.930 . S
C250 C249 1.476 . S
C250 C251 1.400 . S
C250 C254 1.567 . S
C251 C250 1.400 . S
C251 C252 1.373 . S
C251 C273 1.432 . S
C252 C251 1.373 . S
C252 C253 1.339 . S
C252 C255 1.530 . S
C253 C248 1.304 . S
C253 C252 1.339 . S
C253 H314 0.930 . S
C254 C250 1.567 . S
C254 H315 0.961 . S
C254 H316 0.960 . S
C254 H317 0.958 . S
C255 C252 1.530 . S
C255 H318 0.961 . S
C255 H319 0.960 . S
C255 H320 0.960 . S
C256 C257 1.530 . S
C256 H322 0.961 . S
C256 H323 0.961 . S
C256 H324 0.959 . S
C257 C256 1.530 . S
C257 O285 1.412 . S
C257 H321 0.980 . S
C258 C259 1.288 . S
C258 C263 1.377 . S
C258 O285 1.393 . S
C259 C258 1.288 . S
C259 C260 1.369 . S
C259 H325 0.932 . S
C260 C259 1.369 . S
C260 C261 1.398 . S
C260 C264 1.527 . S
C261 C260 1.398 . S
C261 C262 1.380 . S
C261 C275 1.497 . S
C262 C261 1.380 . S
C262 C263 1.383 . S
C262 C265 1.603 . S
C263 C258 1.377 . S
C263 C262 1.383 . S
C263 H326 0.929 . S
C264 C260 1.527 . S
C264 H327 0.961 . S
C264 H328 0.959 . S
C264 H329 0.959 . S
C265 C262 1.603 . S
C265 H330 0.960 . S
C265 H331 0.962 . S
C265 H332 0.961 . S
C266 C233 1.587 . S
C266 C267 1.360 . S
C266 C279 1.412 . S
C267 C266 1.360 . S
C267 C268 1.365 . S
C267 H333 0.929 . S
C268 C243 1.553 . S
C268 C267 1.365 . S
C268 C269 1.404 . S
C269 C268 1.404 . S
C269 C270 1.395 . S
C269 C280 1.451 . S
C270 C269 1.395 . S
C270 C271 1.322 . S
C270 H334 0.930 . S
C271 C270 1.322 . S
C271 C272 1.459 . S
C271 H335 0.929 . S
C272 C271 1.459 . S
C272 C273 1.445 . S
C272 C281 1.395 . S
C273 C251 1.432 . S
C273 C272 1.445 . S
C273 C274 1.370 . S
C274 C273 1.370 . S
C274 C275 1.438 . S
C274 H336 0.930 . S
C275 C261 1.497 . S
C275 C274 1.438 . S
C275 C276 1.360 . S
C276 C275 1.360 . S
C276 C277 1.401 . S
C276 C281 1.446 . S
C277 C276 1.401 . S
C277 C278 1.347 . S
C277 H337 0.929 . S
C278 C277 1.347 . S
C278 C279 1.455 . S
C278 H338 0.930 . S
C279 C266 1.412 . S
C279 C278 1.455 . S
C279 C280 1.331 . S
C280 C269 1.451 . S
C280 C279 1.331 . S
C280 C281 1.497 . S
C281 C272 1.395 . S
C281 C276 1.446 . S
C281 C280 1.497 . S
C282 C283 1.582 . S
C282 H339 0.962 . S
C282 H340 0.959 . S
C282 H341 0.958 . S
C283 C282 1.582 . S
C283 O286 1.458 . S
C283 H312 0.980 . S
O284 C229 1.426 . S
O284 C230 1.334 . S
O285 C257 1.412 . S
O285 C258 1.393 . S
O286 C248 1.435 . S
O286 C283 1.458 . S
O287 C239 1.468 . S
O287 C240 1.408 . S
H288 C229 0.980 . S
H289 C228 0.959 . S
H290 C228 0.959 . S
H291 C228 0.960 . S
H292 C231 0.929 . S
H293 C235 0.929 . S
H294 C236 0.959 . S
H295 C236 0.961 . S
H296 C236 0.961 . S
H297 C237 0.960 . S
H298 C237 0.960 . S
H299 C237 0.961 . S
H300 C239 0.980 . S
H301 C238 0.961 . S
H302 C238 0.960 . S
H303 C238 0.959 . S
H304 C241 0.930 . S
H305 C245 0.931 . S
H306 C246 0.959 . S
H307 C246 0.961 . S
H308 C246 0.959 . S
H309 C247 0.960 . S
H310 C247 0.960 . S
H311 C247 0.960 . S
H312 C283 0.980 . S
H313 C249 0.930 . S
H314 C253 0.930 . S
H315 C254 0.961 . S
H316 C254 0.960 . S
H317 C254 0.958 . S
H318 C255 0.961 . S
H319 C255 0.960 . S
H320 C255 0.960 . S
H321 C257 0.980 . S
H322 C256 0.961 . S
H323 C256 0.961 . S
H324 C256 0.959 . S
H325 C259 0.932 . S
H326 C263 0.929 . S
H327 C264 0.961 . S
H328 C264 0.959 . S
H329 C264 0.959 . S
H330 C265 0.960 . S
H331 C265 0.962 . S
H332 C265 0.961 . S
H333 C267 0.929 . S
H334 C270 0.930 . S
H335 C271 0.929 . S
H336 C274 0.930 . S
H337 C277 0.929 . S
H338 C278 0.930 . S
H339 C282 0.962 . S
H340 C282 0.959 . S
H341 C282 0.958 . S
C342 C343 1.560 . S
C342 H403 0.959 . S
C342 H404 0.959 . S
C342 H405 0.960 . S
C343 C342 1.560 . S
C343 O398 1.426 . S
C343 H402 0.980 . S
C344 C345 1.407 . S
C344 C349 1.418 . S
C344 O398 1.334 . S
C345 C344 1.407 . S
C345 C346 1.360 . S
C345 H406 0.929 . S
C346 C345 1.360 . S
C346 C347 1.401 . S
C346 C350 1.527 . S
C347 C346 1.401 . S
C347 C348 1.405 . S
C347 C380 1.587 . S
C348 C347 1.405 . S
C348 C349 1.332 . S
C348 C351 1.496 . S
C349 C344 1.418 . S
C349 C348 1.332 . S
C349 H407 0.929 . S
C350 C346 1.527 . S
C350 H408 0.959 . S
C350 H409 0.961 . S
C350 H410 0.961 . S
C351 C348 1.496 . S
C351 H411 0.960 . S
C351 H412 0.960 . S
C351 H413 0.961 . S
C352 C353 1.517 . S
C352 H415 0.961 . S
C352 H416 0.960 . S
C352 H417 0.959 . S
C353 C352 1.517 . S
C353 O401 1.468 . S
C353 H414 0.980 . S
C354 C355 1.349 . S
C354 C359 1.367 . S
C354 O401 1.408 . S
C355 C354 1.349 . S
C355 C356 1.407 . S
C355 H418 0.930 . S
C356 C355 1.407 . S
C356 C357 1.449 . S
C356 C360 1.535 . S
C357 C356 1.449 . S
C357 C358 1.384 . S
C357 C382 1.553 . S
C358 C357 1.384 . S
C358 C359 1.364 . S
C358 C361 1.450 . S
C359 C354 1.367 . S
C359 C358 1.364 . S
C359 H419 0.931 . S
C360 C356 1.535 . S
C360 H420 0.959 . S
C360 H421 0.961 . S
C360 H422 0.959 . S
C361 C358 1.450 . S
C361 H423 0.960 . S
C361 H424 0.960 . S
C361 H425 0.960 . S
C362 C363 1.309 . S
C362 C367 1.304 . S
C362 O400 1.435 . S
C363 C362 1.309 . S
C363 C364 1.476 . S
C363 H427 0.930 . S
C364 C363 1.476 . S
C364 C365 1.400 . S
C364 C368 1.567 . S
C365 C364 1.400 . S
C365 C366 1.373 . S
C365 C387 1.432 . S
C366 C365 1.373 . S
C366 C367 1.339 . S
C366 C369 1.530 . S
C367 C362 1.304 . S
C367 C366 1.339 . S
C367 H428 0.930 . S
C368 C364 1.567 . S
C368 H429 0.961 . S
C368 H430 0.960 . S
C368 H431 0.958 . S
C369 C366 1.530 . S
C369 H432 0.961 . S
C369 H433 0.960 . S
C369 H434 0.960 . S
C370 C371 1.530 . S
C370 H436 0.961 . S
C370 H437 0.961 . S
C370 H438 0.959 . S
C371 C370 1.530 . S
C371 O399 1.412 . S
C371 H435 0.980 . S
C372 C373 1.288 . S
C372 C377 1.377 . S
C372 O399 1.393 . S
C373 C372 1.288 . S
C373 C374 1.369 . S
C373 H439 0.932 . S
C374 C373 1.369 . S
C374 C375 1.398 . S
C374 C378 1.527 . S
C375 C374 1.398 . S
C375 C376 1.380 . S
C375 C389 1.497 . S
C376 C375 1.380 . S
C376 C377 1.383 . S
C376 C379 1.603 . S
C377 C372 1.377 . S
C377 C376 1.383 . S
C377 H440 0.929 . S
C378 C374 1.527 . S
C378 H441 0.961 . S
C378 H442 0.959 . S
C378 H443 0.959 . S
C379 C376 1.603 . S
C379 H444 0.960 . S
C379 H445 0.962 . S
C379 H446 0.961 . S
C380 C347 1.587 . S
C380 C381 1.360 . S
C380 C393 1.412 . S
C381 C380 1.360 . S
C381 C382 1.365 . S
C381 H447 0.929 . S
C382 C357 1.553 . S
C382 C381 1.365 . S
C382 C383 1.404 . S
C383 C382 1.404 . S
C383 C384 1.395 . S
C383 C394 1.451 . S
C384 C383 1.395 . S
C384 C385 1.322 . S
C384 H448 0.930 . S
C385 C384 1.322 . S
C385 C386 1.459 . S
C385 H449 0.929 . S
C386 C385 1.459 . S
C386 C387 1.445 . S
C386 C395 1.395 . S
C387 C365 1.432 . S
C387 C386 1.445 . S
C387 C388 1.370 . S
C388 C387 1.370 . S
C388 C389 1.438 . S
C388 H450 0.930 . S
C389 C375 1.497 . S
C389 C388 1.438 . S
C389 C390 1.360 . S
C390 C389 1.360 . S
C390 C391 1.401 . S
C390 C395 1.446 . S
C391 C390 1.401 . S
C391 C392 1.347 . S
C391 H451 0.929 . S
C392 C391 1.347 . S
C392 C393 1.455 . S
C392 H452 0.930 . S
C393 C380 1.412 . S
C393 C392 1.455 . S
C393 C394 1.331 . S
C394 C383 1.451 . S
C394 C393 1.331 . S
C394 C395 1.497 . S
C395 C386 1.395 . S
C395 C390 1.446 . S
C395 C394 1.497 . S
C396 C397 1.582 . S
C396 H453 0.962 . S
C396 H454 0.959 . S
C396 H455 0.958 . S
C397 C396 1.582 . S
C397 O400 1.458 . S
C397 H426 0.980 . S
O398 C343 1.426 . S
O398 C344 1.334 . S
O399 C371 1.412 . S
O399 C372 1.393 . S
O400 C362 1.435 . S
O400 C397 1.458 . S
O401 C353 1.468 . S
O401 C354 1.408 . S
H402 C343 0.980 . S
H403 C342 0.959 . S
H404 C342 0.959 . S
H405 C342 0.960 . S
H406 C345 0.929 . S
H407 C349 0.929 . S
H408 C350 0.959 . S
H409 C350 0.961 . S
H410 C350 0.961 . S
H411 C351 0.960 . S
H412 C351 0.960 . S
H413 C351 0.961 . S
H414 C353 0.980 . S
H415 C352 0.961 . S
H416 C352 0.960 . S
H417 C352 0.959 . S
H418 C355 0.930 . S
H419 C359 0.931 . S
H420 C360 0.959 . S
H421 C360 0.961 . S
H422 C360 0.959 . S
H423 C361 0.960 . S
H424 C361 0.960 . S
H425 C361 0.960 . S
H426 C397 0.980 . S
H427 C363 0.930 . S
H428 C367 0.930 . S
H429 C368 0.961 . S
H430 C368 0.960 . S
H431 C368 0.958 . S
H432 C369 0.961 . S
H433 C369 0.960 . S
H434 C369 0.960 . S
H435 C371 0.980 . S
H436 C370 0.961 . S
H437 C370 0.961 . S
H438 C370 0.959 . S
H439 C373 0.932 . S
H440 C377 0.929 . S
H441 C378 0.961 . S
H442 C378 0.959 . S
H443 C378 0.959 . S
H444 C379 0.960 . S
H445 C379 0.962 . S
H446 C379 0.961 . S
H447 C381 0.929 . S
H448 C384 0.930 . S
H449 C385 0.929 . S
H450 C388 0.930 . S
H451 C391 0.929 . S
H452 C392 0.930 . S
H453 C396 0.962 . S
H454 C396 0.959 . S
H455 C396 0.958 . S
C456 C457 1.560 . S
C456 H517 0.959 . S
C456 H518 0.959 . S
C456 H519 0.960 . S
C457 C456 1.560 . S
C457 O512 1.426 . S
C457 H516 0.980 . S
C458 C459 1.407 . S
C458 C463 1.418 . S
C458 O512 1.334 . S
C459 C458 1.407 . S
C459 C460 1.360 . S
C459 H520 0.929 . S
C460 C459 1.360 . S
C460 C461 1.401 . S
C460 C464 1.527 . S
C461 C460 1.401 . S
C461 C462 1.405 . S
C461 C494 1.587 . S
C462 C461 1.405 . S
C462 C463 1.332 . S
C462 C465 1.496 . S
C463 C458 1.418 . S
C463 C462 1.332 . S
C463 H521 0.929 . S
C464 C460 1.527 . S
C464 H522 0.959 . S
C464 H523 0.961 . S
C464 H524 0.961 . S
C465 C462 1.496 . S
C465 H525 0.960 . S
C465 H526 0.960 . S
C465 H527 0.961 . S
C466 C467 1.517 . S
C466 H529 0.961 . S
C466 H530 0.960 . S
C466 H531 0.959 . S
C467 C466 1.517 . S
C467 O515 1.468 . S
C467 H528 0.980 . S
C468 C469 1.349 . S
C468 C473 1.367 . S
C468 O515 1.408 . S
C469 C468 1.349 . S
C469 C470 1.407 . S
C469 H532 0.930 . S
C470 C469 1.407 . S
C470 C471 1.449 . S
C470 C474 1.535 . S
C471 C470 1.449 . S
C471 C472 1.384 . S
C471 C496 1.553 . S
C472 C471 1.384 . S
C472 C473 1.364 . S
C472 C475 1.450 . S
C473 C468 1.367 . S
C473 C472 1.364 . S
C473 H533 0.931 . S
C474 C470 1.535 . S
C474 H534 0.959 . S
C474 H535 0.961 . S
C474 H536 0.959 . S
C475 C472 1.450 . S
C475 H537 0.960 . S
C475 H538 0.960 . S
C475 H539 0.960 . S
C476 C477 1.309 . S
C476 C481 1.304 . S
C476 O514 1.435 . S
C477 C476 1.309 . S
C477 C478 1.476 . S
C477 H541 0.930 . S
C478 C477 1.476 . S
C478 C479 1.400 . S
C478 C482 1.567 . S
C479 C478 1.400 . S
C479 C480 1.373 . S
C479 C501 1.432 . S
C480 C479 1.373 . S
C480 C481 1.339 . S
C480 C483 1.530 . S
C481 C476 1.304 . S
C481 C480 1.339 . S
C481 H542 0.930 . S
C482 C478 1.567 . S
C482 H543 0.961 . S
C482 H544 0.960 . S
C482 H545 0.958 . S
C483 C480 1.530 . S
C483 H546 0.961 . S
C483 H547 0.960 . S
C483 H548 0.960 . S
C484 C485 1.530 . S
C484 H550 0.961 . S
C484 H551 0.961 . S
C484 H552 0.959 . S
C485 C484 1.530 . S
C485 O513 1.412 . S
C485 H549 0.980 . S
C486 C487 1.288 . S
C486 C491 1.377 . S
C486 O513 1.393 . S
C487 C486 1.288 . S
C487 C488 1.369 . S
C487 H553 0.932 . S
C488 C487 1.369 . S
C488 C489 1.398 . S
C488 C492 1.527 . S
C489 C488 1.398 . S
C489 C490 1.380 . S
C489 C503 1.497 . S
C490 C489 1.380 . S
C490 C491 1.383 . S
C490 C493 1.603 . S
C491 C486 1.377 . S
C491 C490 1.383 . S
C491 H554 0.929 . S
C492 C488 1.527 . S
C492 H555 0.961 . S
C492 H556 0.959 . S
C492 H557 0.959 . S
C493 C490 1.603 . S
C493 H558 0.960 . S
C493 H559 0.962 . S
C493 H560 0.961 . S
C494 C461 1.587 . S
C494 C495 1.360 . S
C494 C507 1.412 . S
C495 C494 1.360 . S
C495 C496 1.365 . S
C495 H561 0.929 . S
C496 C471 1.553 . S
C496 C495 1.365 . S
C496 C497 1.404 . S
C497 C496 1.404 . S
C497 C498 1.395 . S
C497 C508 1.451 . S
C498 C497 1.395 . S
C498 C499 1.322 . S
C498 H562 0.930 . S
C499 C498 1.322 . S
C499 C500 1.459 . S
C499 H563 0.929 . S
C500 C499 1.459 . S
C500 C501 1.445 . S
C500 C509 1.395 . S
C501 C479 1.432 . S
C501 C500 1.445 . S
C501 C502 1.370 . S
C502 C501 1.370 . S
C502 C503 1.438 . S
C502 H564 0.930 . S
C503 C489 1.497 . S
C503 C502 1.438 . S
C503 C504 1.360 . S
C504 C503 1.360 . S
C504 C505 1.401 . S
C504 C509 1.446 . S
C505 C504 1.401 . S
C505 C506 1.347 . S
C505 H565 0.929 . S
C506 C505 1.347 . S
C506 C507 1.455 . S
C506 H566 0.930 . S
C507 C494 1.412 . S
C507 C506 1.455 . S
C507 C508 1.331 . S
C508 C497 1.451 . S
C508 C507 1.331 . S
C508 C509 1.497 . S
C509 C500 1.395 . S
C509 C504 1.446 . S
C509 C508 1.497 . S
C510 C511 1.582 . S
C510 H567 0.962 . S
C510 H568 0.959 . S
C510 H569 0.958 . S
C511 C510 1.582 . S
C511 O514 1.458 . S
C511 H540 0.980 . S
O512 C457 1.426 . S
O512 C458 1.334 . S
O513 C485 1.412 . S
O513 C486 1.393 . S
O514 C476 1.435 . S
O514 C511 1.458 . S
O515 C467 1.468 . S
O515 C468 1.408 . S
H516 C457 0.980 . S
H517 C456 0.959 . S
H518 C456 0.959 . S
H519 C456 0.960 . S
H520 C459 0.929 . S
H521 C463 0.929 . S
H522 C464 0.959 . S
H523 C464 0.961 . S
H524 C464 0.961 . S
H525 C465 0.960 . S
H526 C465 0.960 . S
H527 C465 0.961 . S
H528 C467 0.980 . S
H529 C466 0.961 . S
H530 C466 0.960 . S
H531 C466 0.959 . S
H532 C469 0.930 . S
H533 C473 0.931 . S
H534 C474 0.959 . S
H535 C474 0.961 . S
H536 C474 0.959 . S
H537 C475 0.960 . S
H538 C475 0.960 . S
H539 C475 0.960 . S
H540 C511 0.980 . S
H541 C477 0.930 . S
H542 C481 0.930 . S
H543 C482 0.961 . S
H544 C482 0.960 . S
H545 C482 0.958 . S
H546 C483 0.961 . S
H547 C483 0.960 . S
H548 C483 0.960 . S
H549 C485 0.980 . S
H550 C484 0.961 . S
H551 C484 0.961 . S
H552 C484 0.959 . S
H553 C487 0.932 . S
H554 C491 0.929 . S
H555 C492 0.961 . S
H556 C492 0.959 . S
H557 C492 0.959 . S
H558 C493 0.960 . S
H559 C493 0.962 . S
H560 C493 0.961 . S
H561 C495 0.929 . S
H562 C498 0.930 . S
H563 C499 0.929 . S
H564 C502 0.930 . S
H565 C505 0.929 . S
H566 C506 0.930 . S
H567 C510 0.962 . S
H568 C510 0.959 . S
H569 C510 0.958 . S
C570 C571 1.560 . S
C570 H631 0.959 . S
C570 H632 0.959 . S
C570 H633 0.960 . S
C571 C570 1.560 . S
C571 O626 1.426 . S
C571 H630 0.980 . S
C572 C573 1.407 . S
C572 C577 1.418 . S
C572 O626 1.334 . S
C573 C572 1.407 . S
C573 C574 1.360 . S
C573 H634 0.929 . S
C574 C573 1.360 . S
C574 C575 1.401 . S
C574 C578 1.527 . S
C575 C574 1.401 . S
C575 C576 1.405 . S
C575 C608 1.587 . S
C576 C575 1.405 . S
C576 C577 1.332 . S
C576 C579 1.496 . S
C577 C572 1.418 . S
C577 C576 1.332 . S
C577 H635 0.929 . S
C578 C574 1.527 . S
C578 H636 0.959 . S
C578 H637 0.961 . S
C578 H638 0.961 . S
C579 C576 1.496 . S
C579 H639 0.960 . S
C579 H640 0.960 . S
C579 H641 0.961 . S
C580 C581 1.517 . S
C580 H643 0.961 . S
C580 H644 0.960 . S
C580 H645 0.959 . S
C581 C580 1.517 . S
C581 O629 1.468 . S
C581 H642 0.980 . S
C582 C583 1.349 . S
C582 C587 1.367 . S
C582 O629 1.408 . S
C583 C582 1.349 . S
C583 C584 1.407 . S
C583 H646 0.930 . S
C584 C583 1.407 . S
C584 C585 1.449 . S
C584 C588 1.535 . S
C585 C584 1.449 . S
C585 C586 1.384 . S
C585 C610 1.553 . S
C586 C585 1.384 . S
C586 C587 1.364 . S
C586 C589 1.450 . S
C587 C582 1.367 . S
C587 C586 1.364 . S
C587 H647 0.931 . S
C588 C584 1.535 . S
C588 H648 0.959 . S
C588 H649 0.961 . S
C588 H650 0.959 . S
C589 C586 1.450 . S
C589 H651 0.960 . S
C589 H652 0.960 . S
C589 H653 0.960 . S
C590 C591 1.309 . S
C590 C595 1.304 . S
C590 O628 1.435 . S
C591 C590 1.309 . S
C591 C592 1.476 . S
C591 H655 0.930 . S
C592 C591 1.476 . S
C592 C593 1.400 . S
C592 C596 1.567 . S
C593 C592 1.400 . S
C593 C594 1.373 . S
C593 C615 1.432 . S
C594 C593 1.373 . S
C594 C595 1.339 . S
C594 C597 1.530 . S
C595 C590 1.304 . S
C595 C594 1.339 . S
C595 H656 0.930 . S
C596 C592 1.567 . S
C596 H657 0.961 . S
C596 H658 0.960 . S
C596 H659 0.958 . S
C597 C594 1.530 . S
C597 H660 0.961 . S
C597 H661 0.960 . S
C597 H662 0.960 . S
C598 C599 1.530 . S
C598 H664 0.961 . S
C598 H665 0.961 . S
C598 H666 0.959 . S
C599 C598 1.530 . S
C599 O627 1.412 . S
C599 H663 0.980 . S
C600 C601 1.288 . S
C600 C605 1.377 . S
C600 O627 1.393 . S
C601 C600 1.288 . S
C601 C602 1.369 . S
C601 H667 0.932 . S
C602 C601 1.369 . S
C602 C603 1.398 . S
C602 C606 1.527 . S
C603 C602 1.398 . S
C603 C604 1.380 . S
C603 C617 1.497 . S
C604 C603 1.380 . S
C604 C605 1.383 . S
C604 C607 1.603 . S
C605 C600 1.377 . S
C605 C604 1.383 . S
C605 H668 0.929 . S
C606 C602 1.527 . S
C606 H669 0.961 . S
C606 H670 0.959 . S
C606 H671 0.959 . S
C607 C604 1.603 . S
C607 H672 0.960 . S
C607 H673 0.962 . S
C607 H674 0.961 . S
C608 C575 1.587 . S
C608 C609 1.360 . S
C608 C621 1.412 . S
C609 C608 1.360 . S
C609 C610 1.365 . S
C609 H675 0.929 . S
C610 C585 1.553 . S
C610 C609 1.365 . S
C610 C611 1.404 . S
C611 C610 1.404 . S
C611 C612 1.395 . S
C611 C622 1.451 . S
C612 C611 1.395 . S
C612 C613 1.322 . S
C612 H676 0.930 . S
C613 C612 1.322 . S
C613 C614 1.459 . S
C613 H677 0.929 . S
C614 C613 1.459 . S
C614 C615 1.445 . S
C614 C623 1.395 . S
C615 C593 1.432 . S
C615 C614 1.445 . S
C615 C616 1.370 . S
C616 C615 1.370 . S
C616 C617 1.438 . S
C616 H678 0.930 . S
C617 C603 1.497 . S
C617 C616 1.438 . S
C617 C618 1.360 . S
C618 C617 1.360 . S
C618 C619 1.401 . S
C618 C623 1.446 . S
C619 C618 1.401 . S
C619 C620 1.347 . S
C619 H679 0.929 . S
C620 C619 1.347 . S
C620 C621 1.455 . S
C620 H680 0.930 . S
C621 C608 1.412 . S
C621 C620 1.455 . S
C621 C622 1.331 . S
C622 C611 1.451 . S
C622 C621 1.331 . S
C622 C623 1.497 . S
C623 C614 1.395 . S
C623 C618 1.446 . S
C623 C622 1.497 . S
C624 C625 1.582 . S
C624 H681 0.962 . S
C624 H682 0.959 . S
C624 H683 0.958 . S
C625 C624 1.582 . S
C625 O628 1.458 . S
C625 H654 0.980 . S
O626 C571 1.426 . S
O626 C572 1.334 . S
O627 C599 1.412 . S
O627 C600 1.393 . S
O628 C590 1.435 . S
O628 C625 1.458 . S
O629 C581 1.468 . S
O629 C582 1.408 . S
H630 C571 0.980 . S
H631 C570 0.959 . S
H632 C570 0.959 . S
H633 C570 0.960 . S
H634 C573 0.929 . S
H635 C577 0.929 . S
H636 C578 0.959 . S
H637 C578 0.961 . S
H638 C578 0.961 . S
H639 C579 0.960 . S
H640 C579 0.960 . S
H641 C579 0.961 . S
H642 C581 0.980 . S
H643 C580 0.961 . S
H644 C580 0.960 . S
H645 C580 0.959 . S
H646 C583 0.930 . S
H647 C587 0.931 . S
H648 C588 0.959 . S
H649 C588 0.961 . S
H650 C588 0.959 . S
H651 C589 0.960 . S
H652 C589 0.960 . S
H653 C589 0.960 . S
H654 C625 0.980 . S
H655 C591 0.930 . S
H656 C595 0.930 . S
H657 C596 0.961 . S
H658 C596 0.960 . S
H659 C596 0.958 . S
H660 C597 0.961 . S
H661 C597 0.960 . S
H662 C597 0.960 . S
H663 C599 0.980 . S
H664 C598 0.961 . S
H665 C598 0.961 . S
H666 C598 0.959 . S
H667 C601 0.932 . S
H668 C605 0.929 . S
H669 C606 0.961 . S
H670 C606 0.959 . S
H671 C606 0.959 . S
H672 C607 0.960 . S
H673 C607 0.962 . S
H674 C607 0.961 . S
H675 C609 0.929 . S
H676 C612 0.930 . S
H677 C613 0.929 . S
H678 C616 0.930 . S
H679 C619 0.929 . S
H680 C620 0.930 . S
H681 C624 0.962 . S
H682 C624 0.959 . S
H683 C624 0.958 . S
C684 C685 1.560 . S
C684 H745 0.959 . S
C684 H746 0.959 . S
C684 H747 0.960 . S
C685 C684 1.560 . S
C685 O740 1.426 . S
C685 H744 0.980 . S
C686 C687 1.407 . S
C686 C691 1.418 . S
C686 O740 1.334 . S
C687 C686 1.407 . S
C687 C688 1.360 . S
C687 H748 0.929 . S
C688 C687 1.360 . S
C688 C689 1.401 . S
C688 C692 1.527 . S
C689 C688 1.401 . S
C689 C690 1.405 . S
C689 C722 1.587 . S
C690 C689 1.405 . S
C690 C691 1.332 . S
C690 C693 1.496 . S
C691 C686 1.418 . S
C691 C690 1.332 . S
C691 H749 0.929 . S
C692 C688 1.527 . S
C692 H750 0.959 . S
C692 H751 0.961 . S
C692 H752 0.961 . S
C693 C690 1.496 . S
C693 H753 0.960 . S
C693 H754 0.960 . S
C693 H755 0.961 . S
C694 C695 1.517 . S
C694 H757 0.961 . S
C694 H758 0.960 . S
C694 H759 0.959 . S
C695 C694 1.517 . S
C695 O743 1.468 . S
C695 H756 0.980 . S
C696 C697 1.349 . S
C696 C701 1.367 . S
C696 O743 1.408 . S
C697 C696 1.349 . S
C697 C698 1.407 . S
C697 H760 0.930 . S
C698 C697 1.407 . S
C698 C699 1.449 . S
C698 C702 1.535 . S
C699 C698 1.449 . S
C699 C700 1.384 . S
C699 C724 1.553 . S
C700 C699 1.384 . S
C700 C701 1.364 . S
C700 C703 1.450 . S
C701 C696 1.367 . S
C701 C700 1.364 . S
C701 H761 0.931 . S
C702 C698 1.535 . S
C702 H762 0.959 . S
C702 H763 0.961 . S
C702 H764 0.959 . S
C703 C700 1.450 . S
C703 H765 0.960 . S
C703 H766 0.960 . S
C703 H767 0.960 . S
C704 C705 1.309 . S
C704 C709 1.304 . S
C704 O742 1.435 . S
C705 C704 1.309 . S
C705 C706 1.476 . S
C705 H769 0.930 . S
C706 C705 1.476 . S
C706 C707 1.400 . S
C706 C710 1.567 . S
C707 C706 1.400 . S
C707 C708 1.373 . S
C707 C729 1.432 . S
C708 C707 1.373 . S
C708 C709 1.339 . S
C708 C711 1.530 . S
C709 C704 1.304 . S
C709 C708 1.339 . S
C709 H770 0.930 . S
C710 C706 1.567 . S
C710 H771 0.961 . S
C710 H772 0.960 . S
C710 H773 0.958 . S
C711 C708 1.530 . S
C711 H774 0.961 . S
C711 H775 0.960 . S
C711 H776 0.960 . S
C712 C713 1.530 . S
C712 H778 0.961 . S
C712 H779 0.961 . S
C712 H780 0.959 . S
C713 C712 1.530 . S
C713 O741 1.412 . S
C713 H777 0.980 . S
C714 C715 1.288 . S
C714 C719 1.377 . S
C714 O741 1.393 . S
C715 C714 1.288 . S
C715 C716 1.369 . S
C715 H781 0.932 . S
C716 C715 1.369 . S
C716 C717 1.398 . S
C716 C720 1.527 . S
C717 C716 1.398 . S
C717 C718 1.380 . S
C717 C731 1.497 . S
C718 C717 1.380 . S
C718 C719 1.383 . S
C718 C721 1.603 . S
C719 C714 1.377 . S
C719 C718 1.383 . S
C719 H782 0.929 . S
C720 C716 1.527 . S
C720 H783 0.961 . S
C720 H784 0.959 . S
C720 H785 0.959 . S
C721 C718 1.603 . S
C721 H786 0.960 . S
C721 H787 0.962 . S
C721 H788 0.961 . S
C722 C689 1.587 . S
C722 C723 1.360 . S
C722 C735 1.412 . S
C723 C722 1.360 . S
C723 C724 1.365 . S
C723 H789 0.929 . S
C724 C699 1.553 . S
C724 C723 1.365 . S
C724 C725 1.404 . S
C725 C724 1.404 . S
C725 C726 1.395 . S
C725 C736 1.451 . S
C726 C725 1.395 . S
C726 C727 1.322 . S
C726 H790 0.930 . S
C727 C726 1.322 . S
C727 C728 1.459 . S
C727 H791 0.929 . S
C728 C727 1.459 . S
C728 C729 1.445 . S
C728 C737 1.395 . S
C729 C707 1.432 . S
C729 C728 1.445 . S
C729 C730 1.370 . S
C730 C729 1.370 . S
C730 C731 1.438 . S
C730 H792 0.930 . S
C731 C717 1.497 . S
C731 C730 1.438 . S
C731 C732 1.360 . S
C732 C731 1.360 . S
C732 C733 1.401 . S
C732 C737 1.446 . S
C733 C732 1.401 . S
C733 C734 1.347 . S
C733 H793 0.929 . S
C734 C733 1.347 . S
C734 C735 1.455 . S
C734 H794 0.930 . S
C735 C722 1.412 . S
C735 C734 1.455 . S
C735 C736 1.331 . S
C736 C725 1.451 . S
C736 C735 1.331 . S
C736 C737 1.497 . S
C737 C728 1.395 . S
C737 C732 1.446 . S
C737 C736 1.497 . S
C738 C739 1.582 . S
C738 H795 0.962 . S
C738 H796 0.959 . S
C738 H797 0.958 . S
C739 C738 1.582 . S
C739 O742 1.458 . S
C739 H768 0.980 . S
O740 C685 1.426 . S
O740 C686 1.334 . S
O741 C713 1.412 . S
O741 C714 1.393 . S
O742 C704 1.435 . S
O742 C739 1.458 . S
O743 C695 1.468 . S
O743 C696 1.408 . S
H744 C685 0.980 . S
H745 C684 0.959 . S
H746 C684 0.959 . S
H747 C684 0.960 . S
H748 C687 0.929 . S
H749 C691 0.929 . S
H750 C692 0.959 . S
H751 C692 0.961 . S
H752 C692 0.961 . S
H753 C693 0.960 . S
H754 C693 0.960 . S
H755 C693 0.961 . S
H756 C695 0.980 . S
H757 C694 0.961 . S
H758 C694 0.960 . S
H759 C694 0.959 . S
H760 C697 0.930 . S
H761 C701 0.931 . S
H762 C702 0.959 . S
H763 C702 0.961 . S
H764 C702 0.959 . S
H765 C703 0.960 . S
H766 C703 0.960 . S
H767 C703 0.960 . S
H768 C739 0.980 . S
H769 C705 0.930 . S
H770 C709 0.930 . S
H771 C710 0.961 . S
H772 C710 0.960 . S
H773 C710 0.958 . S
H774 C711 0.961 . S
H775 C711 0.960 . S
H776 C711 0.960 . S
H777 C713 0.980 . S
H778 C712 0.961 . S
H779 C712 0.961 . S
H780 C712 0.959 . S
H781 C715 0.932 . S
H782 C719 0.929 . S
H783 C720 0.961 . S
H784 C720 0.959 . S
H785 C720 0.959 . S
H786 C721 0.960 . S
H787 C721 0.962 . S
H788 C721 0.961 . S
H789 C723 0.929 . S
H790 C726 0.930 . S
H791 C727 0.929 . S
H792 C730 0.930 . S
H793 C733 0.929 . S
H794 C734 0.930 . S
H795 C738 0.962 . S
H796 C738 0.959 . S
H797 C738 0.958 . S
C798 C799 1.560 . S
C798 H859 0.959 . S
C798 H860 0.959 . S
C798 H861 0.960 . S
C799 C798 1.560 . S
C799 O854 1.426 . S
C799 H858 0.980 . S
C800 C801 1.407 . S
C800 C805 1.418 . S
C800 O854 1.334 . S
C801 C800 1.407 . S
C801 C802 1.360 . S
C801 H862 0.929 . S
C802 C801 1.360 . S
C802 C803 1.401 . S
C802 C806 1.527 . S
C803 C802 1.401 . S
C803 C804 1.405 . S
C803 C836 1.587 . S
C804 C803 1.405 . S
C804 C805 1.332 . S
C804 C807 1.496 . S
C805 C800 1.418 . S
C805 C804 1.332 . S
C805 H863 0.929 . S
C806 C802 1.527 . S
C806 H864 0.959 . S
C806 H865 0.961 . S
C806 H866 0.961 . S
C807 C804 1.496 . S
C807 H867 0.960 . S
C807 H868 0.960 . S
C807 H869 0.961 . S
C808 C809 1.517 . S
C808 H871 0.961 . S
C808 H872 0.960 . S
C808 H873 0.959 . S
C809 C808 1.517 . S
C809 O857 1.468 . S
C809 H870 0.980 . S
C810 C811 1.349 . S
C810 C815 1.367 . S
C810 O857 1.408 . S
C811 C810 1.349 . S
C811 C812 1.407 . S
C811 H874 0.930 . S
C812 C811 1.407 . S
C812 C813 1.449 . S
C812 C816 1.535 . S
C813 C812 1.449 . S
C813 C814 1.384 . S
C813 C838 1.553 . S
C814 C813 1.384 . S
C814 C815 1.364 . S
C814 C817 1.450 . S
C815 C810 1.367 . S
C815 C814 1.364 . S
C815 H875 0.931 . S
C816 C812 1.535 . S
C816 H876 0.959 . S
C816 H877 0.961 . S
C816 H878 0.959 . S
C817 C814 1.450 . S
C817 H879 0.960 . S
C817 H880 0.960 . S
C817 H881 0.960 . S
C818 C819 1.309 . S
C818 C823 1.304 . S
C818 O856 1.435 . S
C819 C818 1.309 . S
C819 C820 1.476 . S
C819 H883 0.930 . S
C820 C819 1.476 . S
C820 C821 1.400 . S
C820 C824 1.567 . S
C821 C820 1.400 . S
C821 C822 1.373 . S
C821 C843 1.432 . S
C822 C821 1.373 . S
C822 C823 1.339 . S
C822 C825 1.530 . S
C823 C818 1.304 . S
C823 C822 1.339 . S
C823 H884 0.930 . S
C824 C820 1.567 . S
C824 H885 0.961 . S
C824 H886 0.960 . S
C824 H887 0.958 . S
C825 C822 1.530 . S
C825 H888 0.961 . S
C825 H889 0.960 . S
C825 H890 0.960 . S
C826 C827 1.530 . S
C826 H892 0.961 . S
C826 H893 0.961 . S
C826 H894 0.959 . S
C827 C826 1.530 . S
C827 O855 1.412 . S
C827 H891 0.980 . S
C828 C829 1.288 . S
C828 C833 1.377 . S
C828 O855 1.393 . S
C829 C828 1.288 . S
C829 C830 1.369 . S
C829 H895 0.932 . S
C830 C829 1.369 . S
C830 C831 1.398 . S
C830 C834 1.527 . S
C831 C830 1.398 . S
C831 C832 1.380 . S
C831 C845 1.497 . S
C832 C831 1.380 . S
C832 C833 1.383 . S
C832 C835 1.603 . S
C833 C828 1.377 . S
C833 C832 1.383 . S
C833 H896 0.929 . S
C834 C830 1.527 . S
C834 H897 0.961 . S
C834 H898 0.959 . S
C834 H899 0.959 . S
C835 C832 1.603 . S
C835 H900 0.960 . S
C835 H901 0.962 . S
C835 H902 0.961 . S
C836 C803 1.587 . S
C836 C837 1.360 . S
C836 C849 1.412 . S
C837 C836 1.360 . S
C837 C838 1.365 . S
C837 H903 0.929 . S
C838 C813 1.553 . S
C838 C837 1.365 . S
C838 C839 1.404 . S
C839 C838 1.404 . S
C839 C840 1.395 . S
C839 C850 1.451 . S
C840 C839 1.395 . S
C840 C841 1.322 . S
C840 H904 0.930 . S
C841 C840 1.322 . S
C841 C842 1.459 . S
C841 H905 0.929 . S
C842 C841 1.459 . S
C842 C843 1.445 . S
C842 C851 1.395 . S
C843 C821 1.432 . S
C843 C842 1.445 . S
C843 C844 1.370 . S
C844 C843 1.370 . S
C844 C845 1.438 . S
C844 H906 0.930 . S
C845 C831 1.497 . S
C845 C844 1.438 . S
C845 C846 1.360 . S
C846 C845 1.360 . S
C846 C847 1.401 . S
C846 C851 1.446 . S
C847 C846 1.401 . S
C847 C848 1.347 . S
C847 H907 0.929 . S
C848 C847 1.347 . S
C848 C849 1.455 . S
C848 H908 0.930 . S
C849 C836 1.412 . S
C849 C848 1.455 . S
C849 C850 1.331 . S
C850 C839 1.451 . S
C850 C849 1.331 . S
C850 C851 1.497 . S
C851 C842 1.395 . S
C851 C846 1.446 . S
C851 C850 1.497 . S
C852 C853 1.582 . S
C852 H909 0.962 . S
C852 H910 0.959 . S
C852 H911 0.958 . S
C853 C852 1.582 . S
C853 O856 1.458 . S
C853 H882 0.980 . S
O854 C799 1.426 . S
O854 C800 1.334 . S
O855 C827 1.412 . S
O855 C828 1.393 . S
O856 C818 1.435 . S
O856 C853 1.458 . S
O857 C809 1.468 . S
O857 C810 1.408 . S
H858 C799 0.980 . S
H859 C798 0.959 . S
H860 C798 0.959 . S
H861 C798 0.960 . S
H862 C801 0.929 . S
H863 C805 0.929 . S
H864 C806 0.959 . S
H865 C806 0.961 . S
H866 C806 0.961 . S
H867 C807 0.960 . S
H868 C807 0.960 . S
H869 C807 0.961 . S
H870 C809 0.980 . S
H871 C808 0.961 . S
H872 C808 0.960 . S
H873 C808 0.959 . S
H874 C811 0.930 . S
H875 C815 0.931 . S
H876 C816 0.959 . S
H877 C816 0.961 . S
H878 C816 0.959 . S
H879 C817 0.960 . S
H880 C817 0.960 . S
H881 C817 0.960 . S
H882 C853 0.980 . S
H883 C819 0.930 . S
H884 C823 0.930 . S
H885 C824 0.961 . S
H886 C824 0.960 . S
H887 C824 0.958 . S
H888 C825 0.961 . S
H889 C825 0.960 . S
H890 C825 0.960 . S
H891 C827 0.980 . S
H892 C826 0.961 . S
H893 C826 0.961 . S
H894 C826 0.959 . S
H895 C829 0.932 . S
H896 C833 0.929 . S
H897 C834 0.961 . S
H898 C834 0.959 . S
H899 C834 0.959 . S
H900 C835 0.960 . S
H901 C835 0.962 . S
H902 C835 0.961 . S
H903 C837 0.929 . S
H904 C840 0.930 . S
H905 C841 0.929 . S
H906 C844 0.930 . S
H907 C847 0.929 . S
H908 C848 0.930 . S
H909 C852 0.962 . S
H910 C852 0.959 . S
H911 C852 0.958 . S
C912 C913 1.443 . S
C912 N916 1.376 . S
C912 C950 1.389 . S
C913 C912 1.443 . S
C913 C914 1.340 . S
C913 H953 0.951 . S
C914 C913 1.340 . S
C914 C915 1.439 . S
C914 H954 0.950 . S
C915 C914 1.439 . S
C915 N916 1.374 . S
C915 C949 1.395 . S
N916 C912 1.376 . S
N916 C915 1.374 . S
N916 Co917 2.008 . S
Co917 N916 2.008 . S
Co917 N918 1.995 1_455 S
Co917 N923 2.008 1_455 S
Co917 N928 1.995 . S
Co917 N933 2.282 1_455 S
Co917 N939 2.282 . S
N918 Co917 1.995 1_655 S
N918 C919 1.376 . S
N918 C922 1.383 . S
C919 N918 1.376 . S
C919 C920 1.446 . S
C919 C949 1.391 1_655 S
C920 C919 1.446 . S
C920 C921 1.339 . S
C920 H955 0.949 . S
C921 C920 1.339 . S
C921 C922 1.439 . S
C921 H956 0.950 . S
C922 N918 1.383 . S
C922 C921 1.439 . S
C922 C951 1.392 . S
N923 Co917 2.008 1_655 S
N923 C924 1.376 . S
N923 C927 1.374 . S
C924 N923 1.376 . S
C924 C925 1.443 . S
C924 C951 1.389 . S
C925 C924 1.443 . S
C925 C926 1.340 . S
C925 H957 0.951 . S
C926 C925 1.340 . S
C926 C927 1.439 . S
C926 H958 0.950 . S
C927 N923 1.374 . S
C927 C926 1.439 . S
C927 C952 1.395 1_655 S
N928 Co917 1.995 . S
N928 C929 1.376 . S
N928 C932 1.383 . S
C929 N928 1.376 . S
C929 C930 1.446 . S
C929 C952 1.391 . S
C930 C929 1.446 . S
C930 C931 1.339 . S
C930 H959 0.949 . S
C931 C930 1.339 . S
C931 C932 1.439 . S
C931 H960 0.950 . S
C932 N928 1.383 . S
C932 C931 1.439 . S
C932 C950 1.392 . S
N933 Co917 2.282 1_655 S
N933 C936 1.332 . S
N933 C938 1.332 . S
C934 C935 1.386 . S
C934 C937 1.388 . S
C935 C934 1.386 . S
C935 C936 1.382 . S
C935 H961 0.950 . S
C936 N933 1.332 . S
C936 C935 1.382 . S
C936 H947 0.952 . S
C937 C934 1.388 . S
C937 C938 1.382 . S
C937 H962 0.950 . S
C938 N933 1.332 . S
C938 C937 1.382 . S
C938 H948 0.948 . S
N939 Co917 2.282 . S
N939 C943 1.332 . S
N939 C944 1.332 . S
C940 C941 1.388 . S
C940 C944 1.382 . S
C940 H963 0.950 . S
C941 C940 1.388 . S
C941 C942 1.386 . S
C942 C941 1.386 . S
C942 C943 1.382 . S
C942 H964 0.950 . S
C943 N939 1.332 . S
C943 C942 1.382 . S
C943 H945 0.952 . S
C944 N939 1.332 . S
C944 C940 1.382 . S
C944 H946 0.948 . S
H945 C943 0.952 . S
H946 C944 0.948 . S
H947 C936 0.952 . S
H948 C938 0.948 . S
C949 C915 1.395 . S
C949 C919 1.391 1_455 S
C950 C912 1.389 . S
C950 C932 1.392 . S
C951 C922 1.392 . S
C951 C924 1.389 . S
C952 C927 1.395 1_455 S
C952 C929 1.391 . S
H953 C913 0.951 . S
H954 C914 0.950 . S
H955 C920 0.949 . S
H956 C921 0.950 . S
H957 C925 0.951 . S
H958 C926 0.950 . S
H959 C930 0.949 . S
H960 C931 0.950 . S
H961 C935 0.950 . S
H962 C937 0.950 . S
H963 C940 0.950 . S
H964 C942 0.950 . S
C965 C966 1.443 . S
C965 N969 1.376 . S
C965 C1003 1.389 . S
C966 C965 1.443 . S
C966 C967 1.340 . S
C966 H1006 0.951 . S
C967 C966 1.340 . S
C967 C968 1.439 . S
C967 H1007 0.950 . S
C968 C967 1.439 . S
C968 N969 1.374 . S
C968 C1002 1.395 . S
N969 C965 1.376 . S
N969 C968 1.374 . S
N969 Co970 2.008 . S
Co970 N969 2.008 . S
Co970 N971 1.995 1_545 S
Co970 N976 2.008 1_545 S
Co970 N981 1.995 . S
Co970 N986 2.282 1_545 S
Co970 N992 2.282 . S
N971 Co970 1.995 1_565 S
N971 C972 1.376 . S
N971 C975 1.383 . S
C972 N971 1.376 . S
C972 C973 1.446 . S
C972 C1002 1.391 1_565 S
C973 C972 1.446 . S
C973 C974 1.339 . S
C973 H1008 0.949 . S
C974 C973 1.339 . S
C974 C975 1.439 . S
C974 H1009 0.950 . S
C975 N971 1.383 . S
C975 C974 1.439 . S
C975 C1004 1.392 . S
N976 Co970 2.008 1_565 S
N976 C977 1.376 . S
N976 C980 1.374 . S
C977 N976 1.376 . S
C977 C978 1.443 . S
C977 C1004 1.389 . S
C978 C977 1.443 . S
C978 C979 1.340 . S
C978 H1010 0.951 . S
C979 C978 1.340 . S
C979 C980 1.439 . S
C979 H1011 0.950 . S
C980 N976 1.374 . S
C980 C979 1.439 . S
C980 C1005 1.395 1_565 S
N981 Co970 1.995 . S
N981 C982 1.376 . S
N981 C985 1.383 . S
C982 N981 1.376 . S
C982 C983 1.446 . S
C982 C1005 1.391 . S
C983 C982 1.446 . S
C983 C984 1.339 . S
C983 H1012 0.949 . S
C984 C983 1.339 . S
C984 C985 1.439 . S
C984 H1013 0.950 . S
C985 N981 1.383 . S
C985 C984 1.439 . S
C985 C1003 1.392 . S
N986 Co970 2.282 1_565 S
N986 C989 1.332 . S
N986 C991 1.332 . S
C987 C988 1.386 . S
C987 C990 1.388 . S
C988 C987 1.386 . S
C988 C989 1.382 . S
C988 H1014 0.950 . S
C989 N986 1.332 . S
C989 C988 1.382 . S
C989 H1000 0.952 . S
C990 C987 1.388 . S
C990 C991 1.382 . S
C990 H1015 0.950 . S
C991 N986 1.332 . S
C991 C990 1.382 . S
C991 H1001 0.948 . S
N992 Co970 2.282 . S
N992 C996 1.332 . S
N992 C997 1.332 . S
C993 C994 1.388 . S
C993 C997 1.382 . S
C993 H1016 0.950 . S
C994 C993 1.388 . S
C994 C995 1.386 . S
C995 C994 1.386 . S
C995 C996 1.382 . S
C995 H1017 0.950 . S
C996 N992 1.332 . S
C996 C995 1.382 . S
C996 H998 0.952 . S
C997 N992 1.332 . S
C997 C993 1.382 . S
C997 H999 0.948 . S
H998 C996 0.952 . S
H999 C997 0.948 . S
H1000 C989 0.952 . S
H1001 C991 0.948 . S
C1002 C968 1.395 . S
C1002 C972 1.391 1_545 S
C1003 C965 1.389 . S
C1003 C985 1.392 . S
C1004 C975 1.392 . S
C1004 C977 1.389 . S
C1005 C980 1.395 1_545 S
C1005 C982 1.391 . S
H1006 C966 0.951 . S
H1007 C967 0.950 . S
H1008 C973 0.949 . S
H1009 C974 0.950 . S
H1010 C978 0.951 . S
H1011 C979 0.950 . S
H1012 C983 0.949 . S
H1013 C984 0.950 . S
H1014 C988 0.950 . S
H1015 C990 0.950 . S
H1016 C993 0.950 . S
H1017 C995 0.950 . S
C1018 C1019 1.443 . S
C1018 N1022 1.376 . S
C1018 C1056 1.389 . S
C1019 C1018 1.443 . S
C1019 C1020 1.340 . S
C1019 H1059 0.951 . S
C1020 C1019 1.340 . S
C1020 C1021 1.439 . S
C1020 H1060 0.950 . S
C1021 C1020 1.439 . S
C1021 N1022 1.374 . S
C1021 C1055 1.395 . S
N1022 C1018 1.376 . S
N1022 C1021 1.374 . S
N1022 Co1023 2.008 . S
Co1023 N1022 2.008 . S
Co1023 N1024 1.995 1_455 S
Co1023 N1029 2.008 1_455 S
Co1023 N1034 1.995 . S
Co1023 N1039 2.282 1_455 S
Co1023 N1045 2.282 . S
N1024 Co1023 1.995 1_655 S
N1024 C1025 1.376 . S
N1024 C1028 1.383 . S
C1025 N1024 1.376 . S
C1025 C1026 1.446 . S
C1025 C1055 1.391 1_655 S
C1026 C1025 1.446 . S
C1026 C1027 1.339 . S
C1026 H1061 0.949 . S
C1027 C1026 1.339 . S
C1027 C1028 1.439 . S
C1027 H1062 0.950 . S
C1028 N1024 1.383 . S
C1028 C1027 1.439 . S
C1028 C1057 1.392 . S
N1029 Co1023 2.008 1_655 S
N1029 C1030 1.376 . S
N1029 C1033 1.374 . S
C1030 N1029 1.376 . S
C1030 C1031 1.443 . S
C1030 C1057 1.389 . S
C1031 C1030 1.443 . S
C1031 C1032 1.340 . S
C1031 H1063 0.951 . S
C1032 C1031 1.340 . S
C1032 C1033 1.439 . S
C1032 H1064 0.950 . S
C1033 N1029 1.374 . S
C1033 C1032 1.439 . S
C1033 C1058 1.360 1_655 S
N1034 Co1023 1.995 . S
N1034 C1035 1.376 . S
N1034 C1038 1.383 . S
C1035 N1034 1.376 . S
C1035 C1036 1.446 . S
C1035 C1058 1.429 . S
C1036 C1035 1.446 . S
C1036 C1037 1.339 . S
C1036 H1065 0.949 . S
C1037 C1036 1.339 . S
C1037 C1038 1.439 . S
C1037 H1066 0.950 . S
C1038 N1034 1.383 . S
C1038 C1037 1.439 . S
C1038 C1056 1.392 . S
N1039 Co1023 2.282 1_655 S
N1039 C1042 1.332 . S
N1039 C1044 1.332 . S
C1040 C1041 1.386 . S
C1040 C1043 1.388 . S
C1041 C1040 1.386 . S
C1041 C1042 1.382 . S
C1041 H1067 0.950 . S
C1042 N1039 1.332 . S
C1042 C1041 1.382 . S
C1042 H1053 0.952 . S
C1043 C1040 1.388 . S
C1043 C1044 1.382 . S
C1043 H1068 0.950 . S
C1044 N1039 1.332 . S
C1044 C1043 1.382 . S
C1044 H1054 0.948 . S
N1045 Co1023 2.282 . S
N1045 C1049 1.332 . S
N1045 C1050 1.332 . S
C1046 C1047 1.388 . S
C1046 C1050 1.382 . S
C1046 H1069 0.950 . S
C1047 C1046 1.388 . S
C1047 C1048 1.386 . S
C1048 C1047 1.386 . S
C1048 C1049 1.382 . S
C1048 H1070 0.950 . S
C1049 N1045 1.332 . S
C1049 C1048 1.382 . S
C1049 H1051 0.952 . S
C1050 N1045 1.332 . S
C1050 C1046 1.382 . S
C1050 H1052 0.948 . S
H1051 C1049 0.952 . S
H1052 C1050 0.948 . S
H1053 C1042 0.952 . S
H1054 C1044 0.948 . S
C1055 C1021 1.395 . S
C1055 C1025 1.391 1_455 S
C1056 C1018 1.389 . S
C1056 C1038 1.392 . S
C1057 C1028 1.392 . S
C1057 C1030 1.389 . S
C1058 C1033 1.360 1_455 S
C1058 C1035 1.429 . S
H1059 C1019 0.951 . S
H1060 C1020 0.950 . S
H1061 C1026 0.949 . S
H1062 C1027 0.950 . S
H1063 C1031 0.951 . S
H1064 C1032 0.950 . S
H1065 C1036 0.949 . S
H1066 C1037 0.950 . S
H1067 C1041 0.950 . S
H1068 C1043 0.950 . S
H1069 C1046 0.950 . S
H1070 C1048 0.950 . S
C1071 C1072 1.443 . S
C1071 N1075 1.376 . S
C1071 C1109 1.389 . S
C1072 C1071 1.443 . S
C1072 C1073 1.340 . S
C1072 H1112 0.951 . S
C1073 C1072 1.340 . S
C1073 C1074 1.439 . S
C1073 H1113 0.950 . S
C1074 C1073 1.439 . S
C1074 N1075 1.374 . S
C1074 C1108 1.395 1_565 S
N1075 C1071 1.376 . S
N1075 C1074 1.374 . S
N1075 Co1076 2.008 1_565 S
Co1076 N1075 2.008 1_545 S
Co1076 N1077 1.995 . S
Co1076 N1082 2.008 . S
Co1076 N1087 1.995 1_545 S
Co1076 N1092 2.282 . S
Co1076 N1098 2.282 1_545 S
N1077 Co1076 1.995 . S
N1077 C1078 1.376 . S
N1077 C1081 1.383 . S
C1078 N1077 1.376 . S
C1078 C1079 1.446 . S
C1078 C1108 1.391 . S
C1079 C1078 1.446 . S
C1079 C1080 1.339 . S
C1079 H1114 0.949 . S
C1080 C1079 1.339 . S
C1080 C1081 1.439 . S
C1080 H1115 0.950 . S
C1081 N1077 1.383 . S
C1081 C1080 1.439 . S
C1081 C1110 1.392 . S
N1082 Co1076 2.008 . S
N1082 C1083 1.376 . S
N1082 C1086 1.374 . S
C1083 N1082 1.376 . S
C1083 C1084 1.443 . S
C1083 C1110 1.389 . S
C1084 C1083 1.443 . S
C1084 C1085 1.340 . S
C1084 H1116 0.951 . S
C1085 C1084 1.340 . S
C1085 C1086 1.439 . S
C1085 H1117 0.950 . S
C1086 N1082 1.374 . S
C1086 C1085 1.439 . S
C1086 C1111 1.395 . S
N1087 Co1076 1.995 1_565 S
N1087 C1088 1.376 . S
N1087 C1091 1.383 . S
C1088 N1087 1.376 . S
C1088 C1089 1.446 . S
C1088 C1111 1.391 1_565 S
C1089 C1088 1.446 . S
C1089 C1090 1.339 . S
C1089 H1118 0.949 . S
C1090 C1089 1.339 . S
C1090 C1091 1.439 . S
C1090 H1119 0.950 . S
C1091 N1087 1.383 . S
C1091 C1090 1.439 . S
C1091 C1109 1.392 . S
N1092 Co1076 2.282 . S
N1092 C1095 1.332 . S
N1092 C1097 1.332 . S
C1093 C1094 1.386 . S
C1093 C1096 1.388 . S
C1094 C1093 1.386 . S
C1094 C1095 1.382 . S
C1094 H1120 0.950 . S
C1095 N1092 1.332 . S
C1095 C1094 1.382 . S
C1095 H1106 0.952 . S
C1096 C1093 1.388 . S
C1096 C1097 1.382 . S
C1096 H1121 0.950 . S
C1097 N1092 1.332 . S
C1097 C1096 1.382 . S
C1097 H1107 0.948 . S
N1098 Co1076 2.282 1_565 S
N1098 C1102 1.332 . S
N1098 C1103 1.332 . S
C1099 C1100 1.388 . S
C1099 C1103 1.382 . S
C1099 H1122 0.950 . S
C1100 C1099 1.388 . S
C1100 C1101 1.386 . S
C1101 C1100 1.386 . S
C1101 C1102 1.382 . S
C1101 H1123 0.950 . S
C1102 N1098 1.332 . S
C1102 C1101 1.382 . S
C1102 H1104 0.952 . S
C1103 N1098 1.332 . S
C1103 C1099 1.382 . S
C1103 H1105 0.948 . S
H1104 C1102 0.952 . S
H1105 C1103 0.948 . S
H1106 C1095 0.952 . S
H1107 C1097 0.948 . S
C1108 C1074 1.395 1_545 S
C1108 C1078 1.391 . S
C1109 C1071 1.389 . S
C1109 C1091 1.392 . S
C1110 C1081 1.392 . S
C1110 C1083 1.389 . S
C1111 C1086 1.395 . S
C1111 C1088 1.391 1_545 S
H1112 C1072 0.951 . S
H1113 C1073 0.950 . S
H1114 C1079 0.949 . S
H1115 C1080 0.950 . S
H1116 C1084 0.951 . S
H1117 C1085 0.950 . S
H1118 C1089 0.949 . S
H1119 C1090 0.950 . S
H1120 C1094 0.950 . S
H1121 C1096 0.950 . S
H1122 C1099 0.950 . S
H1123 C1101 0.950 . S
C1124 C1125 1.443 . S
C1124 N1128 1.376 . S
C1124 C1162 1.389 . S
C1125 C1124 1.443 . S
C1125 C1126 1.340 . S
C1125 H1165 0.951 . S
C1126 C1125 1.340 . S
C1126 C1127 1.439 . S
C1126 H1166 0.950 . S
C1127 C1126 1.439 . S
C1127 N1128 1.374 . S
C1127 C1161 1.369 1_554 S
N1128 C1124 1.376 . S
N1128 C1127 1.374 . S
N1128 Co1129 2.020 . S
Co1129 N1128 2.020 . S
Co1129 N1130 1.981 1_554 S
Co1129 N1135 1.997 1_554 S
Co1129 N1140 2.009 . S
Co1129 N1145 2.302 . S
Co1129 N1151 2.264 1_554 S
N1130 Co1129 1.981 1_556 S
N1130 C1131 1.376 . S
N1130 C1134 1.383 . S
C1131 N1130 1.376 . S
C1131 C1132 1.446 . S
C1131 C1161 1.416 . S
C1132 C1131 1.446 . S
C1132 C1133 1.339 . S
C1132 H1167 0.949 . S
C1133 C1132 1.339 . S
C1133 C1134 1.439 . S
C1133 H1168 0.950 . S
C1134 N1130 1.383 . S
C1134 C1133 1.439 . S
C1134 C1163 1.392 . S
N1135 Co1129 1.997 1_556 S
N1135 C1136 1.376 . S
N1135 C1139 1.374 . S
C1136 N1135 1.376 . S
C1136 C1137 1.443 . S
C1136 C1163 1.389 . S
C1137 C1136 1.443 . S
C1137 C1138 1.340 . S
C1137 H1169 0.951 . S
C1138 C1137 1.340 . S
C1138 C1139 1.439 . S
C1138 H1170 0.950 . S
C1139 N1135 1.374 . S
C1139 C1138 1.439 . S
C1139 C1164 1.395 1_556 S
N1140 Co1129 2.009 . S
N1140 C1141 1.376 . S
N1140 C1144 1.383 . S
C1141 N1140 1.376 . S
C1141 C1142 1.446 . S
C1141 C1164 1.391 . S
C1142 C1141 1.446 . S
C1142 C1143 1.339 . S
C1142 H1171 0.949 . S
C1143 C1142 1.339 . S
C1143 C1144 1.439 . S
C1143 H1172 0.950 . S
C1144 N1140 1.383 . S
C1144 C1143 1.439 . S
C1144 C1162 1.392 . S
N1145 Co1129 2.302 . S
N1145 C1148 1.332 . S
N1145 C1150 1.332 . S
C1146 C1147 1.386 . S
C1146 C1149 1.388 . S
C1147 C1146 1.386 . S
C1147 C1148 1.382 . S
C1147 H1173 0.950 . S
C1148 N1145 1.332 . S
C1148 C1147 1.382 . S
C1148 H1159 0.952 . S
C1149 C1146 1.388 . S
C1149 C1150 1.382 . S
C1149 H1174 0.950 . S
C1150 N1145 1.332 . S
C1150 C1149 1.382 . S
C1150 H1160 0.948 . S
N1151 Co1129 2.264 1_556 S
N1151 C1155 1.332 . S
N1151 C1156 1.332 . S
C1152 C1153 1.388 . S
C1152 C1156 1.382 . S
C1152 H1175 0.950 . S
C1153 C1152 1.388 . S
C1153 C1154 1.386 . S
C1154 C1153 1.386 . S
C1154 C1155 1.382 . S
C1154 H1176 0.950 . S
C1155 N1151 1.332 . S
C1155 C1154 1.382 . S
C1155 H1157 0.952 . S
C1156 N1151 1.332 . S
C1156 C1152 1.382 . S
C1156 H1158 0.948 . S
H1157 C1155 0.952 . S
H1158 C1156 0.948 . S
H1159 C1148 0.952 . S
H1160 C1150 0.948 . S
C1161 C1127 1.369 1_556 S
C1161 C1131 1.416 . S
C1162 C1124 1.389 . S
C1162 C1144 1.392 . S
C1163 C1134 1.392 . S
C1163 C1136 1.389 . S
C1164 C1139 1.395 1_554 S
C1164 C1141 1.391 . S
H1165 C1125 0.951 . S
H1166 C1126 0.950 . S
H1167 C1132 0.949 . S
H1168 C1133 0.950 . S
H1169 C1137 0.951 . S
H1170 C1138 0.950 . S
H1171 C1142 0.949 . S
H1172 C1143 0.950 . S
H1173 C1147 0.950 . S
H1174 C1149 0.950 . S
H1175 C1152 0.950 . S
H1176 C1154 0.950 . S
C1177 C1178 1.443 . S
C1177 N1181 1.376 . S
C1177 C1215 1.389 . S
C1178 C1177 1.443 . S
C1178 C1179 1.340 . S
C1178 H1218 0.951 . S
C1179 C1178 1.340 . S
C1179 C1180 1.439 . S
C1179 H1219 0.950 . S
C1180 C1179 1.439 . S
C1180 N1181 1.374 . S
C1180 C1214 1.395 . S
N1181 C1177 1.376 . S
N1181 C1180 1.374 . S
N1181 Co1182 2.008 . S
Co1182 N1181 2.008 . S
Co1182 N1183 1.995 1_554 S
Co1182 N1188 2.022 . S
Co1182 N1193 1.995 . S
Co1182 N1198 2.282 . S
Co1182 N1204 2.282 1_554 S
N1183 Co1182 1.995 1_556 S
N1183 C1184 1.376 . S
N1183 C1187 1.383 . S
C1184 N1183 1.376 . S
C1184 C1185 1.446 . S
C1184 C1214 1.391 1_556 S
C1185 C1184 1.446 . S
C1185 C1186 1.339 . S
C1185 H1220 0.949 . S
C1186 C1185 1.339 . S
C1186 C1187 1.439 . S
C1186 H1221 0.950 . S
C1187 N1183 1.383 . S
C1187 C1186 1.439 . S
C1187 C1216 1.392 . S
N1188 Co1182 2.022 . S
N1188 C1189 1.358 1_554 S
N1188 C1192 1.381 . S
C1189 N1188 1.358 1_556 S
C1189 C1190 1.443 . S
C1189 C1216 1.389 . S
C1190 C1189 1.443 . S
C1190 C1191 1.340 . S
C1190 H1222 0.951 . S
C1191 C1190 1.340 . S
C1191 C1192 1.439 1_556 S
C1191 H1223 0.950 . S
C1192 N1188 1.381 . S
C1192 C1191 1.439 1_554 S
C1192 C1217 1.395 . S
N1193 Co1182 1.995 . S
N1193 C1194 1.376 . S
N1193 C1197 1.383 . S
C1194 N1193 1.376 . S
C1194 C1195 1.446 . S
C1194 C1217 1.391 . S
C1195 C1194 1.446 . S
C1195 C1196 1.339 . S
C1195 H1224 0.949 . S
C1196 C1195 1.339 . S
C1196 C1197 1.439 . S
C1196 H1225 0.950 . S
C1197 N1193 1.383 . S
C1197 C1196 1.439 . S
C1197 C1215 1.392 . S
N1198 Co1182 2.282 . S
N1198 C1201 1.332 . S
N1198 C1203 1.332 . S
C1199 C1200 1.386 . S
C1199 C1202 1.388 . S
C1200 C1199 1.386 . S
C1200 C1201 1.382 . S
C1200 H1226 0.950 . S
C1201 N1198 1.332 . S
C1201 C1200 1.382 . S
C1201 H1212 0.952 . S
C1202 C1199 1.388 . S
C1202 C1203 1.382 . S
C1202 H1227 0.950 . S
C1203 N1198 1.332 . S
C1203 C1202 1.382 . S
C1203 H1213 0.948 . S
N1204 Co1182 2.282 1_556 S
N1204 C1208 1.332 . S
N1204 C1209 1.332 . S
C1205 C1206 1.388 . S
C1205 C1209 1.382 . S
C1205 H1228 0.950 . S
C1206 C1205 1.388 . S
C1206 C1207 1.386 . S
C1207 C1206 1.386 . S
C1207 C1208 1.382 . S
C1207 H1229 0.950 . S
C1208 N1204 1.332 . S
C1208 C1207 1.382 . S
C1208 H1210 0.952 . S
C1209 N1204 1.332 . S
C1209 C1205 1.382 . S
C1209 H1211 0.948 . S
H1210 C1208 0.952 . S
H1211 C1209 0.948 . S
H1212 C1201 0.952 . S
H1213 C1203 0.948 . S
C1214 C1180 1.395 . S
C1214 C1184 1.391 1_554 S
C1215 C1177 1.389 . S
C1215 C1197 1.392 . S
C1216 C1187 1.392 . S
C1216 C1189 1.389 . S
C1217 C1192 1.395 . S
C1217 C1194 1.391 . S
H1218 C1178 0.951 . S
H1219 C1179 0.950 . S
H1220 C1185 0.949 . S
H1221 C1186 0.950 . S
H1222 C1190 0.951 . S
H1223 C1191 0.950 . S
H1224 C1195 0.949 . S
H1225 C1196 0.950 . S
H1226 C1200 0.950 . S
H1227 C1202 0.950 . S
H1228 C1205 0.950 . S
H1229 C1207 0.950 . S
C1230 C1231 1.443 . S
C1230 N1234 1.367 1_556 S
C1230 C1268 1.389 . S
C1231 C1230 1.443 . S
C1231 C1232 1.340 . S
C1231 H1271 0.951 . S
C1232 C1231 1.340 . S
C1232 C1233 1.439 1_556 S
C1232 H1272 0.950 . S
C1233 C1232 1.439 1_554 S
C1233 N1234 1.378 . S
C1233 C1267 1.395 . S
N1234 C1230 1.367 1_554 S
N1234 C1233 1.378 . S
N1234 Co1235 2.015 . S
Co1235 N1234 2.015 . S
Co1235 N1236 1.995 . S
Co1235 N1241 2.008 . S
Co1235 N1246 1.995 1_554 S
Co1235 N1251 2.282 1_554 S
Co1235 N1257 2.282 . S
N1236 Co1235 1.995 . S
N1236 C1237 1.376 . S
N1236 C1240 1.383 . S
C1237 N1236 1.376 . S
C1237 C1238 1.446 . S
C1237 C1267 1.391 . S
C1238 C1237 1.446 . S
C1238 C1239 1.339 . S
C1238 H1273 0.949 . S
C1239 C1238 1.339 . S
C1239 C1240 1.439 . S
C1239 H1274 0.950 . S
C1240 N1236 1.383 . S
C1240 C1239 1.439 . S
C1240 C1269 1.392 . S
N1241 Co1235 2.008 . S
N1241 C1242 1.376 . S
N1241 C1245 1.374 . S
C1242 N1241 1.376 . S
C1242 C1243 1.443 . S
C1242 C1269 1.389 . S
C1243 C1242 1.443 . S
C1243 C1244 1.340 . S
C1243 H1275 0.951 . S
C1244 C1243 1.340 . S
C1244 C1245 1.439 . S
C1244 H1276 0.950 . S
C1245 N1241 1.374 . S
C1245 C1244 1.439 . S
C1245 C1270 1.395 . S
N1246 Co1235 1.995 1_556 S
N1246 C1247 1.376 . S
N1246 C1250 1.383 . S
C1247 N1246 1.376 . S
C1247 C1248 1.446 . S
C1247 C1270 1.391 1_556 S
C1248 C1247 1.446 . S
C1248 C1249 1.339 . S
C1248 H1277 0.949 . S
C1249 C1248 1.339 . S
C1249 C1250 1.439 . S
C1249 H1278 0.950 . S
C1250 N1246 1.383 . S
C1250 C1249 1.439 . S
C1250 C1268 1.392 . S
N1251 Co1235 2.282 1_556 S
N1251 C1254 1.332 . S
N1251 C1256 1.332 . S
C1252 C1253 1.386 . S
C1252 C1255 1.388 . S
C1253 C1252 1.386 . S
C1253 C1254 1.382 . S
C1253 H1279 0.950 . S
C1254 N1251 1.332 . S
C1254 C1253 1.382 . S
C1254 H1265 0.952 . S
C1255 C1252 1.388 . S
C1255 C1256 1.382 . S
C1255 H1280 0.950 . S
C1256 N1251 1.332 . S
C1256 C1255 1.382 . S
C1256 H1266 0.948 . S
N1257 Co1235 2.282 . S
N1257 C1261 1.332 . S
N1257 C1262 1.332 . S
C1258 C1259 1.388 . S
C1258 C1262 1.382 . S
C1258 H1281 0.950 . S
C1259 C1258 1.388 . S
C1259 C1260 1.386 . S
C1260 C1259 1.386 . S
C1260 C1261 1.382 . S
C1260 H1282 0.950 . S
C1261 N1257 1.332 . S
C1261 C1260 1.382 . S
C1261 H1263 0.952 . S
C1262 N1257 1.332 . S
C1262 C1258 1.382 . S
C1262 H1264 0.948 . S
H1263 C1261 0.952 . S
H1264 C1262 0.948 . S
H1265 C1254 0.952 . S
H1266 C1256 0.948 . S
C1267 C1233 1.395 . S
C1267 C1237 1.391 . S
C1268 C1230 1.389 . S
C1268 C1250 1.392 . S
C1269 C1240 1.392 . S
C1269 C1242 1.389 . S
C1270 C1245 1.395 . S
C1270 C1247 1.391 1_554 S
H1271 C1231 0.951 . S
H1272 C1232 0.950 . S
H1273 C1238 0.949 . S
H1274 C1239 0.950 . S
H1275 C1243 0.951 . S
H1276 C1244 0.950 . S
H1277 C1248 0.949 . S
H1278 C1249 0.950 . S
H1279 C1253 0.950 . S
H1280 C1255 0.950 . S
H1281 C1258 0.950 . S
H1282 C1260 0.950 . S
C1283 C1284 1.443 . S
C1283 N1287 1.376 . S
C1283 C1321 1.389 . S
C1284 C1283 1.443 . S
C1284 C1285 1.340 . S
C1284 H1324 0.951 . S
C1285 C1284 1.340 . S
C1285 C1286 1.439 . S
C1285 H1325 0.950 . S
C1286 C1285 1.439 . S
C1286 N1287 1.374 . S
C1286 C1320 1.395 . S
N1287 C1283 1.376 . S
N1287 C1286 1.374 . S
N1287 Co1288 2.008 . S
Co1288 N1287 2.008 . S
Co1288 N1289 1.995 1_554 S
Co1288 N1294 2.008 . S
Co1288 N1299 1.995 . S
Co1288 N1304 2.282 . S
Co1288 N1310 2.282 1_554 S
N1289 Co1288 1.995 1_556 S
N1289 C1290 1.376 . S
N1289 C1293 1.383 . S
C1290 N1289 1.376 . S
C1290 C1291 1.446 . S
C1290 C1320 1.391 1_556 S
C1291 C1290 1.446 . S
C1291 C1292 1.339 . S
C1291 H1326 0.949 . S
C1292 C1291 1.339 . S
C1292 C1293 1.439 . S
C1292 H1327 0.950 . S
C1293 N1289 1.383 . S
C1293 C1292 1.439 . S
C1293 C1322 1.392 . S
N1294 Co1288 2.008 . S
N1294 C1295 1.376 1_554 S
N1294 C1298 1.374 . S
C1295 N1294 1.376 1_556 S
C1295 C1296 1.443 . S
C1295 C1322 1.389 . S
C1296 C1295 1.443 . S
C1296 C1297 1.340 . S
C1296 H1328 0.951 . S
C1297 C1296 1.340 . S
C1297 C1298 1.439 1_556 S
C1297 H1329 0.950 . S
C1298 N1294 1.374 . S
C1298 C1297 1.439 1_554 S
C1298 C1323 1.395 . S
N1299 Co1288 1.995 . S
N1299 C1300 1.376 . S
N1299 C1303 1.383 . S
C1300 N1299 1.376 . S
C1300 C1301 1.446 . S
C1300 C1323 1.391 . S
C1301 C1300 1.446 . S
C1301 C1302 1.339 . S
C1301 H1330 0.949 . S
C1302 C1301 1.339 . S
C1302 C1303 1.439 . S
C1302 H1331 0.950 . S
C1303 N1299 1.383 . S
C1303 C1302 1.439 . S
C1303 C1321 1.392 . S
N1304 Co1288 2.282 . S
N1304 C1307 1.332 . S
N1304 C1309 1.332 . S
C1305 C1306 1.386 . S
C1305 C1308 1.388 . S
C1306 C1305 1.386 . S
C1306 C1307 1.382 . S
C1306 H1332 0.950 . S
C1307 N1304 1.332 . S
C1307 C1306 1.382 . S
C1307 H1318 0.952 . S
C1308 C1305 1.388 . S
C1308 C1309 1.382 . S
C1308 H1333 0.950 . S
C1309 N1304 1.332 . S
C1309 C1308 1.382 . S
C1309 H1319 0.948 . S
N1310 Co1288 2.282 1_556 S
N1310 C1314 1.332 . S
N1310 C1315 1.332 . S
C1311 C1312 1.388 . S
C1311 C1315 1.382 . S
C1311 H1334 0.950 . S
C1312 C1311 1.388 . S
C1312 C1313 1.386 . S
C1313 C1312 1.386 . S
C1313 C1314 1.382 . S
C1313 H1335 0.950 . S
C1314 N1310 1.332 . S
C1314 C1313 1.382 . S
C1314 H1316 0.952 . S
C1315 N1310 1.332 . S
C1315 C1311 1.382 . S
C1315 H1317 0.948 . S
H1316 C1314 0.952 . S
H1317 C1315 0.948 . S
H1318 C1307 0.952 . S
H1319 C1309 0.948 . S
C1320 C1286 1.395 . S
C1320 C1290 1.391 1_554 S
C1321 C1283 1.389 . S
C1321 C1303 1.392 . S
C1322 C1293 1.392 . S
C1322 C1295 1.389 . S
C1323 C1298 1.395 . S
C1323 C1300 1.391 . S
H1324 C1284 0.951 . S
H1325 C1285 0.950 . S
H1326 C1291 0.949 . S
H1327 C1292 0.950 . S
H1328 C1296 0.951 . S
H1329 C1297 0.950 . S
H1330 C1301 0.949 . S
H1331 C1302 0.950 . S
H1332 C1306 0.950 . S
H1333 C1308 0.950 . S
H1334 C1311 0.950 . S
H1335 C1313 0.950 . S
H1336 C1348 0.930 . S
H1337 C1350 0.930 . S
H1338 C1351 0.930 . S
H1339 C1355 0.959 . S
H1340 C1355 0.959 . S
H1341 C1355 0.961 . S
H1342 C1356 0.960 . S
H1343 C1356 0.961 . S
H1344 C1356 0.959 . S
H1345 C1359 0.929 . S
H1346 C1360 0.931 . S
H1347 C1362 0.930 . S
C1348 H1336 0.930 . S
C1348 C1349 1.399 . S
C1348 C1353 1.399 . S
C1349 C1348 1.399 . S
C1349 C1350 1.376 . S
C1350 H1337 0.930 . S
C1350 C1349 1.376 . S
C1350 C1351 1.388 . S
C1351 H1338 0.930 . S
C1351 C1350 1.388 . S
C1351 C1352 1.390 . S
C1352 C1351 1.390 . S
C1352 C1353 1.394 . S
C1352 C1358 1.465 . S
C1353 C1348 1.399 . S
C1353 C1352 1.394 . S
C1353 C1354 1.516 . S
C1354 C1353 1.516 . S
C1354 C1355 1.502 . S
C1354 C1356 1.561 . S
C1354 C1357 1.526 . S
C1355 H1339 0.959 . S
C1355 H1340 0.959 . S
C1355 H1341 0.961 . S
C1355 C1354 1.502 . S
C1356 H1342 0.960 . S
C1356 H1343 0.961 . S
C1356 H1344 0.959 . S
C1356 C1354 1.561 . S
C1357 C1354 1.526 . S
C1357 C1358 1.396 . S
C1357 C1362 1.390 . S
C1358 C1352 1.465 . S
C1358 C1357 1.396 . S
C1358 C1359 1.399 . S
C1359 H1345 0.929 . S
C1359 C1358 1.399 . S
C1359 C1360 1.385 . S
C1360 H1346 0.931 . S
C1360 C1359 1.385 . S
C1360 C1361 1.389 . S
C1361 C1360 1.389 . S
C1361 C1362 1.387 . S
C1362 H1347 0.930 . S
C1362 C1357 1.390 . S
C1362 C1361 1.387 . S
H1363 C1375 0.930 . S
H1364 C1377 0.930 . S
H1365 C1378 0.930 . S
H1366 C1382 0.959 . S
H1367 C1382 0.959 . S
H1368 C1382 0.961 . S
H1369 C1383 0.960 . S
H1370 C1383 0.961 . S
H1371 C1383 0.959 . S
H1372 C1386 0.929 . S
H1373 C1387 0.931 . S
H1374 C1389 0.930 . S
C1375 H1363 0.930 . S
C1375 C1376 1.399 . S
C1375 C1380 1.399 . S
C1376 C1375 1.399 . S
C1376 C1377 1.376 . S
C1377 H1364 0.930 . S
C1377 C1376 1.376 . S
C1377 C1378 1.388 . S
C1378 H1365 0.930 . S
C1378 C1377 1.388 . S
C1378 C1379 1.390 . S
C1379 C1378 1.390 . S
C1379 C1380 1.394 . S
C1379 C1385 1.465 . S
C1380 C1375 1.399 . S
C1380 C1379 1.394 . S
C1380 C1381 1.516 . S
C1381 C1380 1.516 . S
C1381 C1382 1.502 . S
C1381 C1383 1.561 . S
C1381 C1384 1.526 . S
C1382 H1366 0.959 . S
C1382 H1367 0.959 . S
C1382 H1368 0.961 . S
C1382 C1381 1.502 . S
C1383 H1369 0.960 . S
C1383 H1370 0.961 . S
C1383 H1371 0.959 . S
C1383 C1381 1.561 . S
C1384 C1381 1.526 . S
C1384 C1385 1.396 . S
C1384 C1389 1.390 . S
C1385 C1379 1.465 . S
C1385 C1384 1.396 . S
C1385 C1386 1.399 . S
C1386 H1372 0.929 . S
C1386 C1385 1.399 . S
C1386 C1387 1.385 . S
C1387 H1373 0.931 . S
C1387 C1386 1.385 . S
C1387 C1388 1.389 . S
C1388 C1387 1.389 . S
C1388 C1389 1.387 . S
C1389 H1374 0.930 . S
C1389 C1384 1.390 . S
C1389 C1388 1.387 . S
H1390 C1402 0.930 . S
H1391 C1404 0.930 . S
H1392 C1405 0.930 . S
H1393 C1409 0.959 . S
H1394 C1409 0.959 . S
H1395 C1409 0.961 . S
H1396 C1410 0.960 . S
H1397 C1410 0.961 . S
H1398 C1410 0.959 . S
H1399 C1413 0.929 . S
H1400 C1414 0.931 . S
H1401 C1416 0.930 . S
C1402 H1390 0.930 . S
C1402 C1403 1.399 . S
C1402 C1407 1.399 . S
C1403 C1402 1.399 . S
C1403 C1404 1.376 . S
C1404 H1391 0.930 . S
C1404 C1403 1.376 . S
C1404 C1405 1.388 . S
C1405 H1392 0.930 . S
C1405 C1404 1.388 . S
C1405 C1406 1.390 . S
C1406 C1405 1.390 . S
C1406 C1407 1.394 . S
C1406 C1412 1.465 . S
C1407 C1402 1.399 . S
C1407 C1406 1.394 . S
C1407 C1408 1.516 . S
C1408 C1407 1.516 . S
C1408 C1409 1.502 . S
C1408 C1410 1.561 . S
C1408 C1411 1.526 . S
C1409 H1393 0.959 . S
C1409 H1394 0.959 . S
C1409 H1395 0.961 . S
C1409 C1408 1.502 . S
C1410 H1396 0.960 . S
C1410 H1397 0.961 . S
C1410 H1398 0.959 . S
C1410 C1408 1.561 . S
C1411 C1408 1.526 . S
C1411 C1412 1.396 . S
C1411 C1416 1.390 . S
C1412 C1406 1.465 . S
C1412 C1411 1.396 . S
C1412 C1413 1.399 . S
C1413 H1399 0.929 . S
C1413 C1412 1.399 . S
C1413 C1414 1.385 . S
C1414 H1400 0.931 . S
C1414 C1413 1.385 . S
C1414 C1415 1.389 . S
C1415 C1414 1.389 . S
C1415 C1416 1.387 . S
C1416 H1401 0.930 . S
C1416 C1411 1.390 . S
C1416 C1415 1.387 . S
H1417 C1429 0.930 . S
H1418 C1431 0.930 . S
H1419 C1432 0.930 . S
H1420 C1436 0.959 . S
H1421 C1436 0.959 . S
H1422 C1436 0.961 . S
H1423 C1437 0.960 . S
H1424 C1437 0.961 . S
H1425 C1437 0.959 . S
H1426 C1440 0.929 . S
H1427 C1441 0.931 . S
H1428 C1443 0.930 . S
C1429 H1417 0.930 . S
C1429 C1430 1.399 . S
C1429 C1434 1.399 . S
C1430 C1429 1.399 . S
C1430 C1431 1.376 . S
C1431 H1418 0.930 . S
C1431 C1430 1.376 . S
C1431 C1432 1.388 . S
C1432 H1419 0.930 . S
C1432 C1431 1.388 . S
C1432 C1433 1.390 . S
C1433 C1432 1.390 . S
C1433 C1434 1.394 . S
C1433 C1439 1.465 . S
C1434 C1429 1.399 . S
C1434 C1433 1.394 . S
C1434 C1435 1.516 . S
C1435 C1434 1.516 . S
C1435 C1436 1.502 . S
C1435 C1437 1.561 . S
C1435 C1438 1.526 . S
C1436 H1420 0.959 . S
C1436 H1421 0.959 . S
C1436 H1422 0.961 . S
C1436 C1435 1.502 . S
C1437 H1423 0.960 . S
C1437 H1424 0.961 . S
C1437 H1425 0.959 . S
C1437 C1435 1.561 . S
C1438 C1435 1.526 . S
C1438 C1439 1.396 . S
C1438 C1443 1.390 . S
C1439 C1433 1.465 . S
C1439 C1438 1.396 . S
C1439 C1440 1.399 . S
C1440 H1426 0.929 . S
C1440 C1439 1.399 . S
C1440 C1441 1.385 . S
C1441 H1427 0.931 . S
C1441 C1440 1.385 . S
C1441 C1442 1.389 . S
C1442 C1441 1.389 . S
C1442 C1443 1.387 . S
C1443 H1428 0.930 . S
C1443 C1438 1.390 . S
C1443 C1442 1.387 . S
H1444 C1456 0.930 . S
H1445 C1458 0.930 . S
H1446 C1459 0.930 . S
H1447 C1463 0.959 . S
H1448 C1463 0.959 . S
H1449 C1463 0.961 . S
H1450 C1464 0.960 . S
H1451 C1464 0.961 . S
H1452 C1464 0.959 . S
H1453 C1467 0.929 . S
H1454 C1468 0.931 . S
H1455 C1470 0.930 . S
C1456 H1444 0.930 . S
C1456 C1457 1.399 . S
C1456 C1461 1.399 . S
C1457 C1456 1.399 . S
C1457 C1458 1.376 . S
C1458 H1445 0.930 . S
C1458 C1457 1.376 . S
C1458 C1459 1.388 . S
C1459 H1446 0.930 . S
C1459 C1458 1.388 . S
C1459 C1460 1.390 . S
C1460 C1459 1.390 . S
C1460 C1461 1.394 . S
C1460 C1466 1.465 . S
C1461 C1456 1.399 . S
C1461 C1460 1.394 . S
C1461 C1462 1.516 . S
C1462 C1461 1.516 . S
C1462 C1463 1.502 . S
C1462 C1464 1.561 . S
C1462 C1465 1.526 . S
C1463 H1447 0.959 . S
C1463 H1448 0.959 . S
C1463 H1449 0.961 . S
C1463 C1462 1.502 . S
C1464 H1450 0.960 . S
C1464 H1451 0.961 . S
C1464 H1452 0.959 . S
C1464 C1462 1.561 . S
C1465 C1462 1.526 . S
C1465 C1466 1.396 . S
C1465 C1470 1.390 . S
C1466 C1460 1.465 . S
C1466 C1465 1.396 . S
C1466 C1467 1.399 . S
C1467 H1453 0.929 . S
C1467 C1466 1.399 . S
C1467 C1468 1.385 . S
C1468 H1454 0.931 . S
C1468 C1467 1.385 . S
C1468 C1469 1.389 . S
C1469 C1468 1.389 . S
C1469 C1470 1.387 . S
C1470 H1455 0.930 . S
C1470 C1465 1.390 . S
C1470 C1469 1.387 . S
H1471 C1483 0.930 . S
H1472 C1485 0.930 . S
H1473 C1486 0.930 . S
H1474 C1490 0.959 . S
H1475 C1490 0.959 . S
H1476 C1490 0.961 . S
H1477 C1491 0.960 . S
H1478 C1491 0.961 . S
H1479 C1491 0.959 . S
H1480 C1494 0.929 . S
H1481 C1495 0.931 . S
H1482 C1497 0.930 . S
C1483 H1471 0.930 . S
C1483 C1484 1.399 . S
C1483 C1488 1.399 . S
C1484 C1483 1.399 . S
C1484 C1485 1.376 . S
C1485 H1472 0.930 . S
C1485 C1484 1.376 . S
C1485 C1486 1.388 . S
C1486 H1473 0.930 . S
C1486 C1485 1.388 . S
C1486 C1487 1.390 . S
C1487 C1486 1.390 . S
C1487 C1488 1.394 . S
C1487 C1493 1.465 . S
C1488 C1483 1.399 . S
C1488 C1487 1.394 . S
C1488 C1489 1.516 . S
C1489 C1488 1.516 . S
C1489 C1490 1.502 . S
C1489 C1491 1.561 . S
C1489 C1492 1.526 . S
C1490 H1474 0.959 . S
C1490 H1475 0.959 . S
C1490 H1476 0.961 . S
C1490 C1489 1.502 . S
C1491 H1477 0.960 . S
C1491 H1478 0.961 . S
C1491 H1479 0.959 . S
C1491 C1489 1.561 . S
C1492 C1489 1.526 . S
C1492 C1493 1.396 . S
C1492 C1497 1.390 . S
C1493 C1487 1.465 . S
C1493 C1492 1.396 . S
C1493 C1494 1.399 . S
C1494 H1480 0.929 . S
C1494 C1493 1.399 . S
C1494 C1495 1.385 . S
C1495 H1481 0.931 . S
C1495 C1494 1.385 . S
C1495 C1496 1.389 . S
C1496 C1495 1.389 . S
C1496 C1497 1.387 . S
C1497 H1482 0.930 . S
C1497 C1492 1.390 . S
C1497 C1496 1.387 . S
H1498 C1510 0.930 . S
H1499 C1512 0.930 . S
H1500 C1513 0.930 . S
H1501 C1517 0.959 . S
H1502 C1517 0.959 . S
H1503 C1517 0.961 . S
H1504 C1518 0.960 . S
H1505 C1518 0.961 . S
H1506 C1518 0.959 . S
H1507 C1521 0.929 . S
H1508 C1522 0.931 . S
H1509 C1524 0.930 . S
C1510 H1498 0.930 . S
C1510 C1511 1.399 . S
C1510 C1515 1.399 . S
C1511 C1510 1.399 . S
C1511 C1512 1.376 . S
C1512 H1499 0.930 . S
C1512 C1511 1.376 . S
C1512 C1513 1.388 . S
C1513 H1500 0.930 . S
C1513 C1512 1.388 . S
C1513 C1514 1.390 . S
C1514 C1513 1.390 . S
C1514 C1515 1.394 . S
C1514 C1520 1.465 . S
C1515 C1510 1.399 . S
C1515 C1514 1.394 . S
C1515 C1516 1.516 . S
C1516 C1515 1.516 . S
C1516 C1517 1.502 . S
C1516 C1518 1.561 . S
C1516 C1519 1.526 . S
C1517 H1501 0.959 . S
C1517 H1502 0.959 . S
C1517 H1503 0.961 . S
C1517 C1516 1.502 . S
C1518 H1504 0.960 . S
C1518 H1505 0.961 . S
C1518 H1506 0.959 . S
C1518 C1516 1.561 . S
C1519 C1516 1.526 . S
C1519 C1520 1.396 . S
C1519 C1524 1.390 . S
C1520 C1514 1.465 . S
C1520 C1519 1.396 . S
C1520 C1521 1.399 . S
C1521 H1507 0.929 . S
C1521 C1520 1.399 . S
C1521 C1522 1.385 . S
C1522 H1508 0.931 . S
C1522 C1521 1.385 . S
C1522 C1523 1.389 . S
C1523 C1522 1.389 . S
C1523 C1524 1.387 . S
C1524 H1509 0.930 . S
C1524 C1519 1.390 . S
C1524 C1523 1.387 . S
H1525 C1537 0.930 . S
H1526 C1539 0.930 . S
H1527 C1540 0.930 . S
H1528 C1544 0.959 . S
H1529 C1544 0.959 . S
H1530 C1544 0.961 . S
H1531 C1545 0.960 . S
H1532 C1545 0.961 . S
H1533 C1545 0.959 . S
H1534 C1548 0.929 . S
H1535 C1549 0.931 . S
H1536 C1551 0.930 . S
C1537 H1525 0.930 . S
C1537 C1538 1.399 . S
C1537 C1542 1.399 . S
C1538 C1537 1.399 . S
C1538 C1539 1.376 . S
C1539 H1526 0.930 . S
C1539 C1538 1.376 . S
C1539 C1540 1.388 . S
C1540 H1527 0.930 . S
C1540 C1539 1.388 . S
C1540 C1541 1.390 . S
C1541 C1540 1.390 . S
C1541 C1542 1.394 . S
C1541 C1547 1.465 . S
C1542 C1537 1.399 . S
C1542 C1541 1.394 . S
C1542 C1543 1.516 . S
C1543 C1542 1.516 . S
C1543 C1544 1.502 . S
C1543 C1545 1.561 . S
C1543 C1546 1.526 . S
C1544 H1528 0.959 . S
C1544 H1529 0.959 . S
C1544 H1530 0.961 . S
C1544 C1543 1.502 . S
C1545 H1531 0.960 . S
C1545 H1532 0.961 . S
C1545 H1533 0.959 . S
C1545 C1543 1.561 . S
C1546 C1543 1.526 . S
C1546 C1547 1.396 . S
C1546 C1551 1.390 . S
C1547 C1541 1.465 . S
C1547 C1546 1.396 . S
C1547 C1548 1.399 . S
C1548 H1534 0.929 . S
C1548 C1547 1.399 . S
C1548 C1549 1.385 . S
C1549 H1535 0.931 . S
C1549 C1548 1.385 . S
C1549 C1550 1.389 . S
C1550 C1549 1.389 . S
C1550 C1551 1.387 . S
C1551 H1536 0.930 . S
C1551 C1546 1.390 . S
C1551 C1550 1.387 . S
H1552 C1564 0.930 . S
H1553 C1566 0.930 . S
H1554 C1567 0.930 . S
H1555 C1571 0.959 . S
H1556 C1571 0.959 . S
H1557 C1571 0.961 . S
H1558 C1572 0.960 . S
H1559 C1572 0.961 . S
H1560 C1572 0.959 . S
H1561 C1575 0.929 . S
H1562 C1576 0.931 . S
H1563 C1578 0.930 . S
C1564 H1552 0.930 . S
C1564 C1565 1.399 . S
C1564 C1569 1.399 . S
C1565 C1564 1.399 . S
C1565 C1566 1.376 . S
C1566 H1553 0.930 . S
C1566 C1565 1.376 . S
C1566 C1567 1.388 . S
C1567 H1554 0.930 . S
C1567 C1566 1.388 . S
C1567 C1568 1.390 . S
C1568 C1567 1.390 . S
C1568 C1569 1.394 . S
C1568 C1574 1.465 . S
C1569 C1564 1.399 . S
C1569 C1568 1.394 . S
C1569 C1570 1.516 . S
C1570 C1569 1.516 . S
C1570 C1571 1.502 . S
C1570 C1572 1.561 . S
C1570 C1573 1.526 . S
C1571 H1555 0.959 . S
C1571 H1556 0.959 . S
C1571 H1557 0.961 . S
C1571 C1570 1.502 . S
C1572 H1558 0.960 . S
C1572 H1559 0.961 . S
C1572 H1560 0.959 . S
C1572 C1570 1.561 . S
C1573 C1570 1.526 . S
C1573 C1574 1.396 . S
C1573 C1578 1.390 . S
C1574 C1568 1.465 . S
C1574 C1573 1.396 . S
C1574 C1575 1.399 . S
C1575 H1561 0.929 . S
C1575 C1574 1.399 . S
C1575 C1576 1.385 . S
C1576 H1562 0.931 . S
C1576 C1575 1.385 . S
C1576 C1577 1.389 . S
C1577 C1576 1.389 . S
C1577 C1578 1.387 . S
C1578 H1563 0.930 . S
C1578 C1573 1.390 . S
C1578 C1577 1.387 . S
H1579 C1591 0.930 . S
H1580 C1593 0.930 . S
H1581 C1594 0.930 . S
H1582 C1598 0.959 . S
H1583 C1598 0.959 . S
H1584 C1598 0.961 . S
H1585 C1599 0.960 . S
H1586 C1599 0.961 . S
H1587 C1599 0.959 . S
H1588 C1602 0.929 . S
H1589 C1603 0.931 . S
H1590 C1605 0.930 . S
C1591 H1579 0.930 . S
C1591 C1592 1.399 . S
C1591 C1596 1.399 . S
C1592 C1591 1.399 . S
C1592 C1593 1.376 . S
C1593 H1580 0.930 . S
C1593 C1592 1.376 . S
C1593 C1594 1.388 . S
C1594 H1581 0.930 . S
C1594 C1593 1.388 . S
C1594 C1595 1.390 . S
C1595 C1594 1.390 . S
C1595 C1596 1.394 . S
C1595 C1601 1.465 . S
C1596 C1591 1.399 . S
C1596 C1595 1.394 . S
C1596 C1597 1.516 . S
C1597 C1596 1.516 . S
C1597 C1598 1.502 . S
C1597 C1599 1.561 . S
C1597 C1600 1.526 . S
C1598 H1582 0.959 . S
C1598 H1583 0.959 . S
C1598 H1584 0.961 . S
C1598 C1597 1.502 . S
C1599 H1585 0.960 . S
C1599 H1586 0.961 . S
C1599 H1587 0.959 . S
C1599 C1597 1.561 . S
C1600 C1597 1.526 . S
C1600 C1601 1.396 . S
C1600 C1605 1.390 . S
C1601 C1595 1.465 . S
C1601 C1600 1.396 . S
C1601 C1602 1.399 . S
C1602 H1588 0.929 . S
C1602 C1601 1.399 . S
C1602 C1603 1.385 . S
C1603 H1589 0.931 . S
C1603 C1602 1.385 . S
C1603 C1604 1.389 . S
C1604 C1603 1.389 . S
C1604 C1605 1.387 . S
C1605 H1590 0.930 . S
C1605 C1600 1.390 . S
C1605 C1604 1.387 . S
H1606 C1618 0.930 . S
H1607 C1620 0.930 . S
H1608 C1621 0.930 . S
H1609 C1625 0.959 . S
H1610 C1625 0.959 . S
H1611 C1625 0.961 . S
H1612 C1626 0.960 . S
H1613 C1626 0.961 . S
H1614 C1626 0.959 . S
H1615 C1629 0.929 . S
H1616 C1630 0.931 . S
H1617 C1632 0.930 . S
C1618 H1606 0.930 . S
C1618 C1619 1.399 . S
C1618 C1623 1.399 . S
C1619 C1618 1.399 . S
C1619 C1620 1.376 . S
C1620 H1607 0.930 . S
C1620 C1619 1.376 . S
C1620 C1621 1.388 . S
C1621 H1608 0.930 . S
C1621 C1620 1.388 . S
C1621 C1622 1.390 . S
C1622 C1621 1.390 . S
C1622 C1623 1.394 . S
C1622 C1628 1.465 . S
C1623 C1618 1.399 . S
C1623 C1622 1.394 . S
C1623 C1624 1.516 . S
C1624 C1623 1.516 . S
C1624 C1625 1.502 . S
C1624 C1626 1.561 . S
C1624 C1627 1.526 . S
C1625 H1609 0.959 . S
C1625 H1610 0.959 . S
C1625 H1611 0.961 . S
C1625 C1624 1.502 . S
C1626 H1612 0.960 . S
C1626 H1613 0.961 . S
C1626 H1614 0.959 . S
C1626 C1624 1.561 . S
C1627 C1624 1.526 . S
C1627 C1628 1.396 . S
C1627 C1632 1.390 . S
C1628 C1622 1.465 . S
C1628 C1627 1.396 . S
C1628 C1629 1.399 . S
C1629 H1615 0.929 . S
C1629 C1628 1.399 . S
C1629 C1630 1.385 . S
C1630 H1616 0.931 . S
C1630 C1629 1.385 . S
C1630 C1631 1.389 . S
C1631 C1630 1.389 . S
C1631 C1632 1.387 . S
C1632 H1617 0.930 . S
C1632 C1627 1.390 . S
C1632 C1631 1.387 . S
H1633 C1645 0.930 . S
H1634 C1647 0.930 . S
H1635 C1648 0.930 . S
H1636 C1652 0.959 . S
H1637 C1652 0.959 . S
H1638 C1652 0.961 . S
H1639 C1653 0.960 . S
H1640 C1653 0.961 . S
H1641 C1653 0.959 . S
H1642 C1656 0.929 . S
H1643 C1657 0.931 . S
H1644 C1659 0.930 . S
C1645 H1633 0.930 . S
C1645 C1646 1.399 . S
C1645 C1650 1.399 . S
C1646 C1645 1.399 . S
C1646 C1647 1.376 . S
C1647 H1634 0.930 . S
C1647 C1646 1.376 . S
C1647 C1648 1.388 . S
C1648 H1635 0.930 . S
C1648 C1647 1.388 . S
C1648 C1649 1.390 . S
C1649 C1648 1.390 . S
C1649 C1650 1.394 . S
C1649 C1655 1.465 . S
C1650 C1645 1.399 . S
C1650 C1649 1.394 . S
C1650 C1651 1.516 . S
C1651 C1650 1.516 . S
C1651 C1652 1.502 . S
C1651 C1653 1.561 . S
C1651 C1654 1.526 . S
C1652 H1636 0.959 . S
C1652 H1637 0.959 . S
C1652 H1638 0.961 . S
C1652 C1651 1.502 . S
C1653 H1639 0.960 . S
C1653 H1640 0.961 . S
C1653 H1641 0.959 . S
C1653 C1651 1.561 . S
C1654 C1651 1.526 . S
C1654 C1655 1.396 . S
C1654 C1659 1.390 . S
C1655 C1649 1.465 . S
C1655 C1654 1.396 . S
C1655 C1656 1.399 . S
C1656 H1642 0.929 . S
C1656 C1655 1.399 . S
C1656 C1657 1.385 . S
C1657 H1643 0.931 . S
C1657 C1656 1.385 . S
C1657 C1658 1.389 . S
C1658 C1657 1.389 . S
C1658 C1659 1.387 . S
C1659 H1644 0.930 . S
C1659 C1654 1.390 . S
C1659 C1658 1.387 . S
H1660 C1672 0.930 . S
H1661 C1674 0.930 . S
H1662 C1675 0.930 . S
H1663 C1679 0.959 . S
H1664 C1679 0.959 . S
H1665 C1679 0.961 . S
H1666 C1680 0.960 . S
H1667 C1680 0.961 . S
H1668 C1680 0.959 . S
H1669 C1683 0.929 . S
H1670 C1684 0.931 . S
H1671 C1686 0.930 . S
C1672 H1660 0.930 . S
C1672 C1673 1.399 . S
C1672 C1677 1.399 . S
C1673 C1672 1.399 . S
C1673 C1674 1.376 . S
C1674 H1661 0.930 . S
C1674 C1673 1.376 . S
C1674 C1675 1.388 . S
C1675 H1662 0.930 . S
C1675 C1674 1.388 . S
C1675 C1676 1.390 . S
C1676 C1675 1.390 . S
C1676 C1677 1.394 . S
C1676 C1682 1.465 . S
C1677 C1672 1.399 . S
C1677 C1676 1.394 . S
C1677 C1678 1.516 . S
C1678 C1677 1.516 . S
C1678 C1679 1.502 . S
C1678 C1680 1.561 . S
C1678 C1681 1.526 . S
C1679 H1663 0.959 . S
C1679 H1664 0.959 . S
C1679 H1665 0.961 . S
C1679 C1678 1.502 . S
C1680 H1666 0.960 . S
C1680 H1667 0.961 . S
C1680 H1668 0.959 . S
C1680 C1678 1.561 . S
C1681 C1678 1.526 . S
C1681 C1682 1.396 . S
C1681 C1686 1.390 . S
C1682 C1676 1.465 . S
C1682 C1681 1.396 . S
C1682 C1683 1.399 . S
C1683 H1669 0.929 . S
C1683 C1682 1.399 . S
C1683 C1684 1.385 . S
C1684 H1670 0.931 . S
C1684 C1683 1.385 . S
C1684 C1685 1.389 . S
C1685 C1684 1.389 . S
C1685 C1686 1.387 . S
C1686 H1671 0.930 . S
C1686 C1681 1.390 . S
C1686 C1685 1.387 . S
H1687 C1699 0.930 . S
H1688 C1701 0.930 . S
H1689 C1702 0.930 . S
H1690 C1706 0.959 . S
H1691 C1706 0.959 . S
H1692 C1706 0.961 . S
H1693 C1707 0.960 . S
H1694 C1707 0.961 . S
H1695 C1707 0.959 . S
H1696 C1710 0.929 . S
H1697 C1711 0.931 . S
H1698 C1713 0.930 . S
C1699 H1687 0.930 . S
C1699 C1700 1.399 . S
C1699 C1704 1.399 . S
C1700 C1699 1.399 . S
C1700 C1701 1.376 . S
C1701 H1688 0.930 . S
C1701 C1700 1.376 . S
C1701 C1702 1.388 . S
C1702 H1689 0.930 . S
C1702 C1701 1.388 . S
C1702 C1703 1.390 . S
C1703 C1702 1.390 . S
C1703 C1704 1.394 . S
C1703 C1709 1.465 . S
C1704 C1699 1.399 . S
C1704 C1703 1.394 . S
C1704 C1705 1.516 . S
C1705 C1704 1.516 . S
C1705 C1706 1.502 . S
C1705 C1707 1.561 . S
C1705 C1708 1.526 . S
C1706 H1690 0.959 . S
C1706 H1691 0.959 . S
C1706 H1692 0.961 . S
C1706 C1705 1.502 . S
C1707 H1693 0.960 . S
C1707 H1694 0.961 . S
C1707 H1695 0.959 . S
C1707 C1705 1.561 . S
C1708 C1705 1.526 . S
C1708 C1709 1.396 . S
C1708 C1713 1.390 . S
C1709 C1703 1.465 . S
C1709 C1708 1.396 . S
C1709 C1710 1.399 . S
C1710 H1696 0.929 . S
C1710 C1709 1.399 . S
C1710 C1711 1.385 . S
C1711 H1697 0.931 . S
C1711 C1710 1.385 . S
C1711 C1712 1.389 . S
C1712 C1711 1.389 . S
C1712 C1713 1.387 . S
C1713 H1698 0.930 . S
C1713 C1708 1.390 . S
C1713 C1712 1.387 . S
H1714 C1726 0.930 . S
H1715 C1728 0.930 . S
H1716 C1729 0.930 . S
H1717 C1733 0.959 . S
H1718 C1733 0.959 . S
H1719 C1733 0.961 . S
H1720 C1734 0.960 . S
H1721 C1734 0.961 . S
H1722 C1734 0.959 . S
H1723 C1737 0.929 . S
H1724 C1738 0.931 . S
H1725 C1740 0.930 . S
C1726 H1714 0.930 . S
C1726 C1727 1.399 . S
C1726 C1731 1.399 . S
C1727 C1726 1.399 . S
C1727 C1728 1.376 . S
C1728 H1715 0.930 . S
C1728 C1727 1.376 . S
C1728 C1729 1.388 . S
C1729 H1716 0.930 . S
C1729 C1728 1.388 . S
C1729 C1730 1.390 . S
C1730 C1729 1.390 . S
C1730 C1731 1.394 . S
C1730 C1736 1.465 . S
C1731 C1726 1.399 . S
C1731 C1730 1.394 . S
C1731 C1732 1.516 . S
C1732 C1731 1.516 . S
C1732 C1733 1.502 . S
C1732 C1734 1.561 . S
C1732 C1735 1.526 . S
C1733 H1717 0.959 . S
C1733 H1718 0.959 . S
C1733 H1719 0.961 . S
C1733 C1732 1.502 . S
C1734 H1720 0.960 . S
C1734 H1721 0.961 . S
C1734 H1722 0.959 . S
C1734 C1732 1.561 . S
C1735 C1732 1.526 . S
C1735 C1736 1.396 . S
C1735 C1740 1.390 . S
C1736 C1730 1.465 . S
C1736 C1735 1.396 . S
C1736 C1737 1.399 . S
C1737 H1723 0.929 . S
C1737 C1736 1.399 . S
C1737 C1738 1.385 . S
C1738 H1724 0.931 . S
C1738 C1737 1.385 . S
C1738 C1739 1.389 . S
C1739 C1738 1.389 . S
C1739 C1740 1.387 . S
C1740 H1725 0.930 . S
C1740 C1735 1.390 . S
C1740 C1739 1.387 . S
H1741 C1753 0.930 . S
H1742 C1755 0.930 . S
H1743 C1756 0.930 . S
H1744 C1760 0.959 . S
H1745 C1760 0.959 . S
H1746 C1760 0.961 . S
H1747 C1761 0.960 . S
H1748 C1761 0.961 . S
H1749 C1761 0.959 . S
H1750 C1764 0.929 . S
H1751 C1765 0.931 . S
H1752 C1767 0.930 . S
C1753 H1741 0.930 . S
C1753 C1754 1.399 . S
C1753 C1758 1.399 . S
C1754 C1753 1.399 . S
C1754 C1755 1.376 . S
C1755 H1742 0.930 . S
C1755 C1754 1.376 . S
C1755 C1756 1.388 . S
C1756 H1743 0.930 . S
C1756 C1755 1.388 . S
C1756 C1757 1.390 . S
C1757 C1756 1.390 . S
C1757 C1758 1.394 . S
C1757 C1763 1.465 . S
C1758 C1753 1.399 . S
C1758 C1757 1.394 . S
C1758 C1759 1.516 . S
C1759 C1758 1.516 . S
C1759 C1760 1.502 . S
C1759 C1761 1.561 . S
C1759 C1762 1.526 . S
C1760 H1744 0.959 . S
C1760 H1745 0.959 . S
C1760 H1746 0.961 . S
C1760 C1759 1.502 . S
C1761 H1747 0.960 . S
C1761 H1748 0.961 . S
C1761 H1749 0.959 . S
C1761 C1759 1.561 . S
C1762 C1759 1.526 . S
C1762 C1763 1.396 . S
C1762 C1767 1.390 . S
C1763 C1757 1.465 . S
C1763 C1762 1.396 . S
C1763 C1764 1.399 . S
C1764 H1750 0.929 . S
C1764 C1763 1.399 . S
C1764 C1765 1.385 . S
C1765 H1751 0.931 . S
C1765 C1764 1.385 . S
C1765 C1766 1.389 . S
C1766 C1765 1.389 . S
C1766 C1767 1.387 . S
C1767 H1752 0.930 . S
C1767 C1762 1.390 . S
C1767 C1766 1.387 . S
H1768 C1780 0.930 . S
H1769 C1782 0.930 . S
H1770 C1783 0.930 . S
H1771 C1787 0.959 . S
H1772 C1787 0.959 . S
H1773 C1787 0.961 . S
H1774 C1788 0.960 . S
H1775 C1788 0.961 . S
H1776 C1788 0.959 . S
H1777 C1791 0.929 . S
H1778 C1792 0.931 . S
H1779 C1794 0.930 . S
C1780 H1768 0.930 . S
C1780 C1781 1.399 . S
C1780 C1785 1.399 . S
C1781 C1780 1.399 . S
C1781 C1782 1.376 . S
C1782 H1769 0.930 . S
C1782 C1781 1.376 . S
C1782 C1783 1.388 . S
C1783 H1770 0.930 . S
C1783 C1782 1.388 . S
C1783 C1784 1.390 . S
C1784 C1783 1.390 . S
C1784 C1785 1.394 . S
C1784 C1790 1.465 . S
C1785 C1780 1.399 . S
C1785 C1784 1.394 . S
C1785 C1786 1.516 . S
C1786 C1785 1.516 . S
C1786 C1787 1.502 . S
C1786 C1788 1.561 . S
C1786 C1789 1.526 . S
C1787 H1771 0.959 . S
C1787 H1772 0.959 . S
C1787 H1773 0.961 . S
C1787 C1786 1.502 . S
C1788 H1774 0.960 . S
C1788 H1775 0.961 . S
C1788 H1776 0.959 . S
C1788 C1786 1.561 . S
C1789 C1786 1.526 . S
C1789 C1790 1.396 . S
C1789 C1794 1.390 . S
C1790 C1784 1.465 . S
C1790 C1789 1.396 . S
C1790 C1791 1.399 . S
C1791 H1777 0.929 . S
C1791 C1790 1.399 . S
C1791 C1792 1.385 . S
C1792 H1778 0.931 . S
C1792 C1791 1.385 . S
C1792 C1793 1.389 . S
C1793 C1792 1.389 . S
C1793 C1794 1.387 . S
C1794 H1779 0.930 . S
C1794 C1789 1.390 . S
C1794 C1793 1.387 . S
H1795 C1807 0.930 . S
H1796 C1809 0.930 . S
H1797 C1810 0.930 . S
H1798 C1814 0.959 . S
H1799 C1814 0.959 . S
H1800 C1814 0.961 . S
H1801 C1815 0.960 . S
H1802 C1815 0.961 . S
H1803 C1815 0.959 . S
H1804 C1818 0.929 . S
H1805 C1819 0.931 . S
H1806 C1821 0.930 . S
C1807 H1795 0.930 . S
C1807 C1808 1.399 . S
C1807 C1812 1.399 . S
C1808 C1807 1.399 . S
C1808 C1809 1.376 . S
C1809 H1796 0.930 . S
C1809 C1808 1.376 . S
C1809 C1810 1.388 . S
C1810 H1797 0.930 . S
C1810 C1809 1.388 . S
C1810 C1811 1.390 . S
C1811 C1810 1.390 . S
C1811 C1812 1.394 . S
C1811 C1817 1.465 . S
C1812 C1807 1.399 . S
C1812 C1811 1.394 . S
C1812 C1813 1.516 . S
C1813 C1812 1.516 . S
C1813 C1814 1.502 . S
C1813 C1815 1.561 . S
C1813 C1816 1.526 . S
C1814 H1798 0.959 . S
C1814 H1799 0.959 . S
C1814 H1800 0.961 . S
C1814 C1813 1.502 . S
C1815 H1801 0.960 . S
C1815 H1802 0.961 . S
C1815 H1803 0.959 . S
C1815 C1813 1.561 . S
C1816 C1813 1.526 . S
C1816 C1817 1.396 . S
C1816 C1821 1.390 . S
C1817 C1811 1.465 . S
C1817 C1816 1.396 . S
C1817 C1818 1.399 . S
C1818 H1804 0.929 . S
C1818 C1817 1.399 . S
C1818 C1819 1.385 . S
C1819 H1805 0.931 . S
C1819 C1818 1.385 . S
C1819 C1820 1.389 . S
C1820 C1819 1.389 . S
C1820 C1821 1.387 . S
C1821 H1806 0.930 . S
C1821 C1816 1.390 . S
C1821 C1820 1.387 . S
H1822 C1834 0.930 . S
H1823 C1836 0.930 . S
H1824 C1837 0.930 . S
H1825 C1841 0.959 . S
H1826 C1841 0.959 . S
H1827 C1841 0.961 . S
H1828 C1842 0.960 . S
H1829 C1842 0.961 . S
H1830 C1842 0.959 . S
H1831 C1845 0.929 . S
H1832 C1846 0.931 . S
H1833 C1848 0.930 . S
C1834 H1822 0.930 . S
C1834 C1835 1.399 . S
C1834 C1839 1.399 . S
C1835 C1834 1.399 . S
C1835 C1836 1.376 . S
C1836 H1823 0.930 . S
C1836 C1835 1.376 . S
C1836 C1837 1.388 . S
C1837 H1824 0.930 . S
C1837 C1836 1.388 . S
C1837 C1838 1.390 . S
C1838 C1837 1.390 . S
C1838 C1839 1.394 . S
C1838 C1844 1.465 . S
C1839 C1834 1.399 . S
C1839 C1838 1.394 . S
C1839 C1840 1.516 . S
C1840 C1839 1.516 . S
C1840 C1841 1.502 . S
C1840 C1842 1.561 . S
C1840 C1843 1.526 . S
C1841 H1825 0.959 . S
C1841 H1826 0.959 . S
C1841 H1827 0.961 . S
C1841 C1840 1.502 . S
C1842 H1828 0.960 . S
C1842 H1829 0.961 . S
C1842 H1830 0.959 . S
C1842 C1840 1.561 . S
C1843 C1840 1.526 . S
C1843 C1844 1.396 . S
C1843 C1848 1.390 . S
C1844 C1838 1.465 . S
C1844 C1843 1.396 . S
C1844 C1845 1.399 . S
C1845 H1831 0.929 . S
C1845 C1844 1.399 . S
C1845 C1846 1.385 . S
C1846 H1832 0.931 . S
C1846 C1845 1.385 . S
C1846 C1847 1.389 . S
C1847 C1846 1.389 . S
C1847 C1848 1.387 . S
C1848 H1833 0.930 . S
C1848 C1843 1.390 . S
C1848 C1847 1.387 . S
H1849 C1861 0.930 . S
H1850 C1863 0.930 . S
H1851 C1864 0.930 . S
H1852 C1868 0.959 . S
H1853 C1868 0.959 . S
H1854 C1868 0.961 . S
H1855 C1869 0.960 . S
H1856 C1869 0.961 . S
H1857 C1869 0.959 . S
H1858 C1872 0.929 . S
H1859 C1873 0.931 . S
H1860 C1875 0.930 . S
C1861 H1849 0.930 . S
C1861 C1862 1.399 . S
C1861 C1866 1.399 . S
C1862 C1861 1.399 . S
C1862 C1863 1.376 . S
C1863 H1850 0.930 . S
C1863 C1862 1.376 . S
C1863 C1864 1.388 . S
C1864 H1851 0.930 . S
C1864 C1863 1.388 . S
C1864 C1865 1.390 . S
C1865 C1864 1.390 . S
C1865 C1866 1.394 . S
C1865 C1871 1.465 . S
C1866 C1861 1.399 . S
C1866 C1865 1.394 . S
C1866 C1867 1.516 . S
C1867 C1866 1.516 . S
C1867 C1868 1.502 . S
C1867 C1869 1.561 . S
C1867 C1870 1.526 . S
C1868 H1852 0.959 . S
C1868 H1853 0.959 . S
C1868 H1854 0.961 . S
C1868 C1867 1.502 . S
C1869 H1855 0.960 . S
C1869 H1856 0.961 . S
C1869 H1857 0.959 . S
C1869 C1867 1.561 . S
C1870 C1867 1.526 . S
C1870 C1871 1.396 . S
C1870 C1875 1.390 . S
C1871 C1865 1.465 . S
C1871 C1870 1.396 . S
C1871 C1872 1.399 . S
C1872 H1858 0.929 . S
C1872 C1871 1.399 . S
C1872 C1873 1.385 . S
C1873 H1859 0.931 . S
C1873 C1872 1.385 . S
C1873 C1874 1.389 . S
C1874 C1873 1.389 . S
C1874 C1875 1.387 . S
C1875 H1860 0.930 . S
C1875 C1870 1.390 . S
C1875 C1874 1.387 . S
H1876 C1888 0.930 . S
H1877 C1890 0.930 . S
H1878 C1891 0.930 . S
H1879 C1895 0.959 . S
H1880 C1895 0.959 . S
H1881 C1895 0.961 . S
H1882 C1896 0.960 . S
H1883 C1896 0.961 . S
H1884 C1896 0.959 . S
H1885 C1899 0.929 . S
H1886 C1900 0.931 . S
H1887 C1902 0.930 . S
C1888 H1876 0.930 . S
C1888 C1889 1.399 . S
C1888 C1893 1.399 . S
C1889 C1888 1.399 . S
C1889 C1890 1.376 . S
C1890 H1877 0.930 . S
C1890 C1889 1.376 . S
C1890 C1891 1.388 . S
C1891 H1878 0.930 . S
C1891 C1890 1.388 . S
C1891 C1892 1.390 . S
C1892 C1891 1.390 . S
C1892 C1893 1.394 . S
C1892 C1898 1.465 . S
C1893 C1888 1.399 . S
C1893 C1892 1.394 . S
C1893 C1894 1.516 . S
C1894 C1893 1.516 . S
C1894 C1895 1.502 . S
C1894 C1896 1.561 . S
C1894 C1897 1.526 . S
C1895 H1879 0.959 . S
C1895 H1880 0.959 . S
C1895 H1881 0.961 . S
C1895 C1894 1.502 . S
C1896 H1882 0.960 . S
C1896 H1883 0.961 . S
C1896 H1884 0.959 . S
C1896 C1894 1.561 . S
C1897 C1894 1.526 . S
C1897 C1898 1.396 . S
C1897 C1902 1.390 . S
C1898 C1892 1.465 . S
C1898 C1897 1.396 . S
C1898 C1899 1.399 . S
C1899 H1885 0.929 . S
C1899 C1898 1.399 . S
C1899 C1900 1.385 . S
C1900 H1886 0.931 . S
C1900 C1899 1.385 . S
C1900 C1901 1.389 . S
C1901 C1900 1.389 . S
C1901 C1902 1.387 . S
C1902 H1887 0.930 . S
C1902 C1897 1.390 . S
C1902 C1901 1.387 . S
H1903 C1915 0.930 . S
H1904 C1917 0.930 . S
H1905 C1918 0.930 . S
H1906 C1922 0.959 . S
H1907 C1922 0.959 . S
H1908 C1922 0.961 . S
H1909 C1923 0.960 . S
H1910 C1923 0.961 . S
H1911 C1923 0.959 . S
H1912 C1926 0.929 . S
H1913 C1927 0.931 . S
H1914 C1929 0.930 . S
C1915 H1903 0.930 . S
C1915 C1916 1.399 . S
C1915 C1920 1.399 . S
C1916 C1915 1.399 . S
C1916 C1917 1.376 . S
C1917 H1904 0.930 . S
C1917 C1916 1.376 . S
C1917 C1918 1.388 . S
C1918 H1905 0.930 . S
C1918 C1917 1.388 . S
C1918 C1919 1.390 . S
C1919 C1918 1.390 . S
C1919 C1920 1.394 . S
C1919 C1925 1.465 . S
C1920 C1915 1.399 . S
C1920 C1919 1.394 . S
C1920 C1921 1.516 . S
C1921 C1920 1.516 . S
C1921 C1922 1.502 . S
C1921 C1923 1.561 . S
C1921 C1924 1.526 . S
C1922 H1906 0.959 . S
C1922 H1907 0.959 . S
C1922 H1908 0.961 . S
C1922 C1921 1.502 . S
C1923 H1909 0.960 . S
C1923 H1910 0.961 . S
C1923 H1911 0.959 . S
C1923 C1921 1.561 . S
C1924 C1921 1.526 . S
C1924 C1925 1.396 . S
C1924 C1929 1.390 . S
C1925 C1919 1.465 . S
C1925 C1924 1.396 . S
C1925 C1926 1.399 . S
C1926 H1912 0.929 . S
C1926 C1925 1.399 . S
C1926 C1927 1.385 . S
C1927 H1913 0.931 . S
C1927 C1926 1.385 . S
C1927 C1928 1.389 . S
C1928 C1927 1.389 . S
C1928 C1929 1.387 . S
C1929 H1914 0.930 . S
C1929 C1924 1.390 . S
C1929 C1928 1.387 . S
H1930 C1942 0.930 . S
H1931 C1944 0.930 . S
H1932 C1945 0.930 . S
H1933 C1949 0.959 . S
H1934 C1949 0.959 . S
H1935 C1949 0.961 . S
H1936 C1950 0.960 . S
H1937 C1950 0.961 . S
H1938 C1950 0.959 . S
H1939 C1953 0.929 . S
H1940 C1954 0.931 . S
H1941 C1956 0.930 . S
C1942 H1930 0.930 . S
C1942 C1943 1.399 . S
C1942 C1947 1.399 . S
C1943 C1942 1.399 . S
C1943 C1944 1.376 . S
C1944 H1931 0.930 . S
C1944 C1943 1.376 . S
C1944 C1945 1.388 . S
C1945 H1932 0.930 . S
C1945 C1944 1.388 . S
C1945 C1946 1.390 . S
C1946 C1945 1.390 . S
C1946 C1947 1.394 . S
C1946 C1952 1.465 . S
C1947 C1942 1.399 . S
C1947 C1946 1.394 . S
C1947 C1948 1.516 . S
C1948 C1947 1.516 . S
C1948 C1949 1.502 . S
C1948 C1950 1.561 . S
C1948 C1951 1.526 . S
C1949 H1933 0.959 . S
C1949 H1934 0.959 . S
C1949 H1935 0.961 . S
C1949 C1948 1.502 . S
C1950 H1936 0.960 . S
C1950 H1937 0.961 . S
C1950 H1938 0.959 . S
C1950 C1948 1.561 . S
C1951 C1948 1.526 . S
C1951 C1952 1.396 . S
C1951 C1956 1.390 . S
C1952 C1946 1.465 . S
C1952 C1951 1.396 . S
C1952 C1953 1.399 . S
C1953 H1939 0.929 . S
C1953 C1952 1.399 . S
C1953 C1954 1.385 . S
C1954 H1940 0.931 . S
C1954 C1953 1.385 . S
C1954 C1955 1.389 . S
C1955 C1954 1.389 . S
C1955 C1956 1.387 . S
C1956 H1941 0.930 . S
C1956 C1951 1.390 . S
C1956 C1955 1.387 . S
H1957 C1969 0.930 . S
H1958 C1971 0.930 . S
H1959 C1972 0.930 . S
H1960 C1976 0.959 . S
H1961 C1976 0.959 . S
H1962 C1976 0.961 . S
H1963 C1977 0.960 . S
H1964 C1977 0.961 . S
H1965 C1977 0.959 . S
H1966 C1980 0.929 . S
H1967 C1981 0.931 . S
H1968 C1983 0.930 . S
C1969 H1957 0.930 . S
C1969 C1970 1.399 . S
C1969 C1974 1.399 . S
C1970 C1969 1.399 . S
C1970 C1971 1.376 . S
C1971 H1958 0.930 . S
C1971 C1970 1.376 . S
C1971 C1972 1.388 . S
C1972 H1959 0.930 . S
C1972 C1971 1.388 . S
C1972 C1973 1.390 . S
C1973 C1972 1.390 . S
C1973 C1974 1.394 . S
C1973 C1979 1.465 . S
C1974 C1969 1.399 . S
C1974 C1973 1.394 . S
C1974 C1975 1.516 . S
C1975 C1974 1.516 . S
C1975 C1976 1.502 . S
C1975 C1977 1.561 . S
C1975 C1978 1.526 . S
C1976 H1960 0.959 . S
C1976 H1961 0.959 . S
C1976 H1962 0.961 . S
C1976 C1975 1.502 . S
C1977 H1963 0.960 . S
C1977 H1964 0.961 . S
C1977 H1965 0.959 . S
C1977 C1975 1.561 . S
C1978 C1975 1.526 . S
C1978 C1979 1.396 . S
C1978 C1983 1.390 . S
C1979 C1973 1.465 . S
C1979 C1978 1.396 . S
C1979 C1980 1.399 . S
C1980 H1966 0.929 . S
C1980 C1979 1.399 . S
C1980 C1981 1.385 . S
C1981 H1967 0.931 . S
C1981 C1980 1.385 . S
C1981 C1982 1.389 . S
C1982 C1981 1.389 . S
C1982 C1983 1.387 . S
C1983 H1968 0.930 . S
C1983 C1978 1.390 . S
C1983 C1982 1.387 . S
H1984 C1996 0.930 . S
H1985 C1998 0.930 . S
H1986 C1999 0.930 . S
H1987 C2003 0.959 . S
H1988 C2003 0.959 . S
H1989 C2003 0.961 . S
H1990 C2004 0.960 . S
H1991 C2004 0.961 . S
H1992 C2004 0.959 . S
H1993 C2007 0.929 . S
H1994 C2008 0.931 . S
H1995 C2010 0.930 . S
C1996 H1984 0.930 . S
C1996 C1997 1.399 . S
C1996 C2001 1.399 . S
C1997 C1996 1.399 . S
C1997 C1998 1.376 . S
C1998 H1985 0.930 . S
C1998 C1997 1.376 . S
C1998 C1999 1.388 . S
C1999 H1986 0.930 . S
C1999 C1998 1.388 . S
C1999 C2000 1.390 . S
C2000 C1999 1.390 . S
C2000 C2001 1.394 . S
C2000 C2006 1.465 . S
C2001 C1996 1.399 . S
C2001 C2000 1.394 . S
C2001 C2002 1.516 . S
C2002 C2001 1.516 . S
C2002 C2003 1.502 . S
C2002 C2004 1.561 . S
C2002 C2005 1.526 . S
C2003 H1987 0.959 . S
C2003 H1988 0.959 . S
C2003 H1989 0.961 . S
C2003 C2002 1.502 . S
C2004 H1990 0.960 . S
C2004 H1991 0.961 . S
C2004 H1992 0.959 . S
C2004 C2002 1.561 . S
C2005 C2002 1.526 . S
C2005 C2006 1.396 . S
C2005 C2010 1.390 . S
C2006 C2000 1.465 . S
C2006 C2005 1.396 . S
C2006 C2007 1.399 . S
C2007 H1993 0.929 . S
C2007 C2006 1.399 . S
C2007 C2008 1.385 . S
C2008 H1994 0.931 . S
C2008 C2007 1.385 . S
C2008 C2009 1.389 . S
C2009 C2008 1.389 . S
C2009 C2010 1.387 . S
C2010 H1995 0.930 . S
C2010 C2005 1.390 . S
C2010 C2009 1.387 . S
H2011 C2023 0.930 . S
H2012 C2025 0.930 . S
H2013 C2026 0.930 . S
H2014 C2030 0.959 . S
H2015 C2030 0.959 . S
H2016 C2030 0.961 . S
H2017 C2031 0.960 . S
H2018 C2031 0.961 . S
H2019 C2031 0.959 . S
H2020 C2034 0.929 . S
H2021 C2035 0.931 . S
H2022 C2037 0.930 . S
C2023 H2011 0.930 . S
C2023 C2024 1.399 . S
C2023 C2028 1.399 . S
C2024 C2023 1.399 . S
C2024 C2025 1.376 . S
C2025 H2012 0.930 . S
C2025 C2024 1.376 . S
C2025 C2026 1.388 . S
C2026 H2013 0.930 . S
C2026 C2025 1.388 . S
C2026 C2027 1.390 . S
C2027 C2026 1.390 . S
C2027 C2028 1.394 . S
C2027 C2033 1.465 . S
C2028 C2023 1.399 . S
C2028 C2027 1.394 . S
C2028 C2029 1.516 . S
C2029 C2028 1.516 . S
C2029 C2030 1.502 . S
C2029 C2031 1.561 . S
C2029 C2032 1.526 . S
C2030 H2014 0.959 . S
C2030 H2015 0.959 . S
C2030 H2016 0.961 . S
C2030 C2029 1.502 . S
C2031 H2017 0.960 . S
C2031 H2018 0.961 . S
C2031 H2019 0.959 . S
C2031 C2029 1.561 . S
C2032 C2029 1.526 . S
C2032 C2033 1.396 . S
C2032 C2037 1.390 . S
C2033 C2027 1.465 . S
C2033 C2032 1.396 . S
C2033 C2034 1.399 . S
C2034 H2020 0.929 . S
C2034 C2033 1.399 . S
C2034 C2035 1.385 . S
C2035 H2021 0.931 . S
C2035 C2034 1.385 . S
C2035 C2036 1.389 . S
C2036 C2035 1.389 . S
C2036 C2037 1.387 . S
C2037 H2022 0.930 . S
C2037 C2032 1.390 . S
C2037 C2036 1.387 . S
H2038 C2050 0.930 . S
H2039 C2052 0.930 . S
H2040 C2053 0.930 . S
H2041 C2057 0.959 . S
H2042 C2057 0.959 . S
H2043 C2057 0.961 . S
H2044 C2058 0.960 . S
H2045 C2058 0.961 . S
H2046 C2058 0.959 . S
H2047 C2061 0.929 . S
H2048 C2062 0.931 . S
H2049 C2064 0.930 . S
C2050 H2038 0.930 . S
C2050 C2051 1.399 . S
C2050 C2055 1.399 . S
C2051 C2050 1.399 . S
C2051 C2052 1.376 . S
C2052 H2039 0.930 . S
C2052 C2051 1.376 . S
C2052 C2053 1.388 . S
C2053 H2040 0.930 . S
C2053 C2052 1.388 . S
C2053 C2054 1.390 . S
C2054 C2053 1.390 . S
C2054 C2055 1.394 . S
C2054 C2060 1.465 . S
C2055 C2050 1.399 . S
C2055 C2054 1.394 . S
C2055 C2056 1.516 . S
C2056 C2055 1.516 . S
C2056 C2057 1.502 . S
C2056 C2058 1.561 . S
C2056 C2059 1.526 . S
C2057 H2041 0.959 . S
C2057 H2042 0.959 . S
C2057 H2043 0.961 . S
C2057 C2056 1.502 . S
C2058 H2044 0.960 . S
C2058 H2045 0.961 . S
C2058 H2046 0.959 . S
C2058 C2056 1.561 . S
C2059 C2056 1.526 . S
C2059 C2060 1.396 . S
C2059 C2064 1.390 . S
C2060 C2054 1.465 . S
C2060 C2059 1.396 . S
C2060 C2061 1.399 . S
C2061 H2047 0.929 . S
C2061 C2060 1.399 . S
C2061 C2062 1.385 . S
C2062 H2048 0.931 . S
C2062 C2061 1.385 . S
C2062 C2063 1.389 . S
C2063 C2062 1.389 . S
C2063 C2064 1.387 . S
C2064 H2049 0.930 . S
C2064 C2059 1.390 . S
C2064 C2063 1.387 . S
H2065 C2077 0.930 . S
H2066 C2079 0.930 . S
H2067 C2080 0.930 . S
H2068 C2084 0.959 . S
H2069 C2084 0.959 . S
H2070 C2084 0.961 . S
H2071 C2085 0.960 . S
H2072 C2085 0.961 . S
H2073 C2085 0.959 . S
H2074 C2088 0.929 . S
H2075 C2089 0.931 . S
H2076 C2091 0.930 . S
C2077 H2065 0.930 . S
C2077 C2078 1.399 . S
C2077 C2082 1.399 . S
C2078 C2077 1.399 . S
C2078 C2079 1.376 . S
C2079 H2066 0.930 . S
C2079 C2078 1.376 . S
C2079 C2080 1.388 . S
C2080 H2067 0.930 . S
C2080 C2079 1.388 . S
C2080 C2081 1.390 . S
C2081 C2080 1.390 . S
C2081 C2082 1.394 . S
C2081 C2087 1.465 . S
C2082 C2077 1.399 . S
C2082 C2081 1.394 . S
C2082 C2083 1.516 . S
C2083 C2082 1.516 . S
C2083 C2084 1.502 . S
C2083 C2085 1.561 . S
C2083 C2086 1.526 . S
C2084 H2068 0.959 . S
C2084 H2069 0.959 . S
C2084 H2070 0.961 . S
C2084 C2083 1.502 . S
C2085 H2071 0.960 . S
C2085 H2072 0.961 . S
C2085 H2073 0.959 . S
C2085 C2083 1.561 . S
C2086 C2083 1.526 . S
C2086 C2087 1.396 . S
C2086 C2091 1.390 . S
C2087 C2081 1.465 . S
C2087 C2086 1.396 . S
C2087 C2088 1.399 . S
C2088 H2074 0.929 . S
C2088 C2087 1.399 . S
C2088 C2089 1.385 . S
C2089 H2075 0.931 . S
C2089 C2088 1.385 . S
C2089 C2090 1.389 . S
C2090 C2089 1.389 . S
C2090 C2091 1.387 . S
C2091 H2076 0.930 . S
C2091 C2086 1.390 . S
C2091 C2090 1.387 . S
H2092 C2104 0.930 . S
H2093 C2106 0.930 . S
H2094 C2107 0.930 . S
H2095 C2111 0.959 . S
H2096 C2111 0.959 . S
H2097 C2111 0.961 . S
H2098 C2112 0.960 . S
H2099 C2112 0.961 . S
H2100 C2112 0.959 . S
H2101 C2115 0.929 . S
H2102 C2116 0.931 . S
H2103 C2118 0.930 . S
C2104 H2092 0.930 . S
C2104 C2105 1.399 . S
C2104 C2109 1.399 . S
C2105 C2104 1.399 . S
C2105 C2106 1.376 . S
C2106 H2093 0.930 . S
C2106 C2105 1.376 . S
C2106 C2107 1.388 . S
C2107 H2094 0.930 . S
C2107 C2106 1.388 . S
C2107 C2108 1.390 . S
C2108 C2107 1.390 . S
C2108 C2109 1.394 . S
C2108 C2114 1.465 . S
C2109 C2104 1.399 . S
C2109 C2108 1.394 . S
C2109 C2110 1.516 . S
C2110 C2109 1.516 . S
C2110 C2111 1.502 . S
C2110 C2112 1.561 . S
C2110 C2113 1.526 . S
C2111 H2095 0.959 . S
C2111 H2096 0.959 . S
C2111 H2097 0.961 . S
C2111 C2110 1.502 . S
C2112 H2098 0.960 . S
C2112 H2099 0.961 . S
C2112 H2100 0.959 . S
C2112 C2110 1.561 . S
C2113 C2110 1.526 . S
C2113 C2114 1.396 . S
C2113 C2118 1.390 . S
C2114 C2108 1.465 . S
C2114 C2113 1.396 . S
C2114 C2115 1.399 . S
C2115 H2101 0.929 . S
C2115 C2114 1.399 . S
C2115 C2116 1.385 . S
C2116 H2102 0.931 . S
C2116 C2115 1.385 . S
C2116 C2117 1.389 . S
C2117 C2116 1.389 . S
C2117 C2118 1.387 . S
C2118 H2103 0.930 . S
C2118 C2113 1.390 . S
C2118 C2117 1.387 . S
H2119 C2131 0.930 . S
H2120 C2133 0.930 . S
H2121 C2134 0.930 . S
H2122 C2138 0.959 . S
H2123 C2138 0.959 . S
H2124 C2138 0.961 . S
H2125 C2139 0.960 . S
H2126 C2139 0.961 . S
H2127 C2139 0.959 . S
H2128 C2142 0.929 . S
H2129 C2143 0.931 . S
H2130 C2145 0.930 . S
C2131 H2119 0.930 . S
C2131 C2132 1.399 . S
C2131 C2136 1.399 . S
C2132 C2131 1.399 . S
C2132 C2133 1.376 . S
C2133 H2120 0.930 . S
C2133 C2132 1.376 . S
C2133 C2134 1.388 . S
C2134 H2121 0.930 . S
C2134 C2133 1.388 . S
C2134 C2135 1.390 . S
C2135 C2134 1.390 . S
C2135 C2136 1.394 . S
C2135 C2141 1.465 . S
C2136 C2131 1.399 . S
C2136 C2135 1.394 . S
C2136 C2137 1.516 . S
C2137 C2136 1.516 . S
C2137 C2138 1.502 . S
C2137 C2139 1.561 . S
C2137 C2140 1.526 . S
C2138 H2122 0.959 . S
C2138 H2123 0.959 . S
C2138 H2124 0.961 . S
C2138 C2137 1.502 . S
C2139 H2125 0.960 . S
C2139 H2126 0.961 . S
C2139 H2127 0.959 . S
C2139 C2137 1.561 . S
C2140 C2137 1.526 . S
C2140 C2141 1.396 . S
C2140 C2145 1.390 . S
C2141 C2135 1.465 . S
C2141 C2140 1.396 . S
C2141 C2142 1.399 . S
C2142 H2128 0.929 . S
C2142 C2141 1.399 . S
C2142 C2143 1.385 . S
C2143 H2129 0.931 . S
C2143 C2142 1.385 . S
C2143 C2144 1.389 . S
C2144 C2143 1.389 . S
C2144 C2145 1.387 . S
C2145 H2130 0.930 . S
C2145 C2140 1.390 . S
C2145 C2144 1.387 . S
H2146 C2158 0.930 . S
H2147 C2160 0.930 . S
H2148 C2161 0.930 . S
H2149 C2165 0.959 . S
H2150 C2165 0.959 . S
H2151 C2165 0.961 . S
H2152 C2166 0.960 . S
H2153 C2166 0.961 . S
H2154 C2166 0.959 . S
H2155 C2169 0.929 . S
H2156 C2170 0.931 . S
H2157 C2172 0.930 . S
C2158 H2146 0.930 . S
C2158 C2159 1.399 . S
C2158 C2163 1.399 . S
C2159 C2158 1.399 . S
C2159 C2160 1.376 . S
C2160 H2147 0.930 . S
C2160 C2159 1.376 . S
C2160 C2161 1.388 . S
C2161 H2148 0.930 . S
C2161 C2160 1.388 . S
C2161 C2162 1.390 . S
C2162 C2161 1.390 . S
C2162 C2163 1.394 . S
C2162 C2168 1.465 . S
C2163 C2158 1.399 . S
C2163 C2162 1.394 . S
C2163 C2164 1.516 . S
C2164 C2163 1.516 . S
C2164 C2165 1.502 . S
C2164 C2166 1.561 . S
C2164 C2167 1.526 . S
C2165 H2149 0.959 . S
C2165 H2150 0.959 . S
C2165 H2151 0.961 . S
C2165 C2164 1.502 . S
C2166 H2152 0.960 . S
C2166 H2153 0.961 . S
C2166 H2154 0.959 . S
C2166 C2164 1.561 . S
C2167 C2164 1.526 . S
C2167 C2168 1.396 . S
C2167 C2172 1.390 . S
C2168 C2162 1.465 . S
C2168 C2167 1.396 . S
C2168 C2169 1.399 . S
C2169 H2155 0.929 . S
C2169 C2168 1.399 . S
C2169 C2170 1.385 . S
C2170 H2156 0.931 . S
C2170 C2169 1.385 . S
C2170 C2171 1.389 . S
C2171 C2170 1.389 . S
C2171 C2172 1.387 . S
C2172 H2157 0.930 . S
C2172 C2167 1.390 . S
C2172 C2171 1.387 . S
H2173 C2185 0.930 . S
H2174 C2187 0.930 . S
H2175 C2188 0.930 . S
H2176 C2192 0.959 . S
H2177 C2192 0.959 . S
H2178 C2192 0.961 . S
H2179 C2193 0.960 . S
H2180 C2193 0.961 . S
H2181 C2193 0.959 . S
H2182 C2196 0.929 . S
H2183 C2197 0.931 . S
H2184 C2199 0.930 . S
C2185 H2173 0.930 . S
C2185 C2186 1.399 . S
C2185 C2190 1.399 . S
C2186 C2185 1.399 . S
C2186 C2187 1.376 . S
C2187 H2174 0.930 . S
C2187 C2186 1.376 . S
C2187 C2188 1.388 . S
C2188 H2175 0.930 . S
C2188 C2187 1.388 . S
C2188 C2189 1.390 . S
C2189 C2188 1.390 . S
C2189 C2190 1.394 . S
C2189 C2195 1.465 . S
C2190 C2185 1.399 . S
C2190 C2189 1.394 . S
C2190 C2191 1.516 . S
C2191 C2190 1.516 . S
C2191 C2192 1.502 . S
C2191 C2193 1.561 . S
C2191 C2194 1.526 . S
C2192 H2176 0.959 . S
C2192 H2177 0.959 . S
C2192 H2178 0.961 . S
C2192 C2191 1.502 . S
C2193 H2179 0.960 . S
C2193 H2180 0.961 . S
C2193 H2181 0.959 . S
C2193 C2191 1.561 . S
C2194 C2191 1.526 . S
C2194 C2195 1.396 . S
C2194 C2199 1.390 . S
C2195 C2189 1.465 . S
C2195 C2194 1.396 . S
C2195 C2196 1.399 . S
C2196 H2182 0.929 . S
C2196 C2195 1.399 . S
C2196 C2197 1.385 . S
C2197 H2183 0.931 . S
C2197 C2196 1.385 . S
C2197 C2198 1.389 . S
C2198 C2197 1.389 . S
C2198 C2199 1.387 . S
C2199 H2184 0.930 . S
C2199 C2194 1.390 . S
C2199 C2198 1.387 . S
C1361 C941 1.463 . S
C1349 C29 1.266 . S
C1388 C994 1.492 . S
C1376 C125 0.758 . S
C1415 C1057 1.544 . S
C1403 C257 1.185 . S
C1442 C1100 1.407 . S
C1430 C353 0.790 . S
C1457 C457 1.161 . S
C1469 C1056 1.499 . S
C1496 C1093 1.489 . S
C1484 C625 1.165 . S
C1523 C934 1.425 . S
C1511 C685 1.154 . S
C1550 C987 1.387 . S
C1538 C853 1.164 . S
C1577 C1040 1.640 . S
C1565 C809 1.178 . S
C1604 C1109 1.755 . S
C1592 C485 1.511 . S
C1631 C950 1.747 . S
C1619 C581 1.024 . S
C1658 C1003 1.684 . S
C1646 C713 1.330 . S
C1685 C951 1.701 . S
C1673 C169 1.170 . S
C1712 C1004 1.728 . S
C1700 C229 1.279 . S
C1739 C1047 1.615 . S
C1727 C397 1.109 . S
C1766 C1110 1.646 . S
C1754 C1 1.323 . S
C1793 C1153 1.428 . S
C1781 C827 1.218 . S
C1808 C467 1.073 . S
C1820 C1206 1.852 . S
C1835 C599 1.375 . S
C1847 C1268 1.590 . S
C1862 C695 0.970 . S
C1874 C1322 1.834 . S
C1889 C115 1.237 . S
C1901 C1269 1.463 . S
C1916 C283 1.586 . S
C1928 C1321 1.920 . S
C1943 C343 1.059 . S
C1955 C1146 1.468 . S
C1982 C1199 1.726 . S
C1970 C55 1.307 . S
C2009 C1259 1.594 . S
C1997 C11 1.148 . S
C2024 C143 1.064 . S
C2036 C1305 1.320 . S
C2051 C239 1.212 . S
C2063 C1162 1.773 . S
C2078 C371 1.139 . S
C2090 C1215 1.282 . S
C2117 C1163 1.653 . S
C2105 C511 1.114 . S
C2144 C1216 1.344 . S
C2132 C571 1.015 . S
C2159 C739 1.302 . S
C2171 C1252 1.669 . S
C2198 C1312 1.199 . S
C2186 C799 0.882 . S
