# Generated by pormake.
# Topology anh, (6,3)-cn, num edge types: 1
# Building blocks:
#     Node 0, Type 0, BuildingBlock: CUWYAW_clean_sbu_0, # of connection points: 6
#     Node 1, Type 0, BuildingBlock: CUWYAW_clean_sbu_0, # of connection points: 6
#     Node 2, Type 0, BuildingBlock: CUWYAW_clean_sbu_0, # of connection points: 6
#     Node 3, Type 1, BuildingBlock: BETDIP_clean_linker_0, # of connection points: 3
#     Node 4, Type 1, BuildingBlock: BETDIP_clean_linker_0, # of connection points: 3
#     Node 5, Type 1, BuildingBlock: BETDIP_clean_linker_0, # of connection points: 3
#     Node 6, Type 1, BuildingBlock: BETDIP_clean_linker_0, # of connection points: 3
#     Node 7, Type 1, BuildingBlock: BETDIP_clean_linker_0, # of connection points: 3
#     Node 8, Type 1, BuildingBlock: BETDIP_clean_linker_0, # of connection points: 3
#     Edge 9, Type (0, 1), BuildingBlock: TEMPAE_clean_linker_10, # of connection points: 2
#     Edge 10, Type (0, 1), BuildingBlock: TEMPAE_clean_linker_10, # of connection points: 2
#     Edge 11, Type (0, 1), BuildingBlock: TEMPAE_clean_linker_10, # of connection points: 2
#     Edge 12, Type (0, 1), BuildingBlock: TEMPAE_clean_linker_10, # of connection points: 2
#     Edge 13, Type (0, 1), BuildingBlock: TEMPAE_clean_linker_10, # of connection points: 2
#     Edge 14, Type (0, 1), BuildingBlock: TEMPAE_clean_linker_10, # of connection points: 2
#     Edge 15, Type (0, 1), BuildingBlock: TEMPAE_clean_linker_10, # of connection points: 2
#     Edge 16, Type (0, 1), BuildingBlock: TEMPAE_clean_linker_10, # of connection points: 2
#     Edge 17, Type (0, 1), BuildingBlock: TEMPAE_clean_linker_10, # of connection points: 2
#     Edge 18, Type (0, 1), BuildingBlock: TEMPAE_clean_linker_10, # of connection points: 2
#     Edge 19, Type (0, 1), BuildingBlock: TEMPAE_clean_linker_10, # of connection points: 2
#     Edge 20, Type (0, 1), BuildingBlock: TEMPAE_clean_linker_10, # of connection points: 2
#     Edge 21, Type (0, 1), BuildingBlock: TEMPAE_clean_linker_10, # of connection points: 2
#     Edge 22, Type (0, 1), BuildingBlock: TEMPAE_clean_linker_10, # of connection points: 2
#     Edge 23, Type (0, 1), BuildingBlock: TEMPAE_clean_linker_10, # of connection points: 2
#     Edge 24, Type (0, 1), BuildingBlock: TEMPAE_clean_linker_10, # of connection points: 2
#     Edge 25, Type (0, 1), BuildingBlock: TEMPAE_clean_linker_10, # of connection points: 2
#     Edge 26, Type (0, 1), BuildingBlock: TEMPAE_clean_linker_10, # of connection points: 2
# Relax obj value: 0.260
# Max RMSD: 0.188
# Mean RMSD: 0.131
data_MOF--net-anh--node1-CUWYAW_clean_sbu_0--node2-BETDIP_clean_linker_0--edge1-TEMPAE_clean_linker_10
_symmetry_space_group_name_H-M    P1
_symmetry_Int_Tables_number       1
_symmetry_cell_setting            triclinic
loop_
_symmetry_equiv_pos_as_xyz
'x, y, z'
_cell_length_a     32.540825
_cell_length_b     32.517552
_cell_length_c     50.411119
_cell_angle_alpha  93.653306
_cell_angle_beta   89.606017
_cell_angle_gamma 119.98892
loop_
_atom_site_label
_atom_site_type_symbol
_atom_site_fract_x
_atom_site_fract_y
_atom_site_fract_z
_atom_type_partial_charge
C0 C 1.03054 0.47896 0.13234 0.0
Eu1 Eu 0.08147 0.56762 0.15084 0.0
C2 C 0.99736 0.43218 0.14172 0.0
C3 C 0.99884 0.42276 0.16836 0.0
C4 C 0.97225 0.37632 0.17616 0.0
C5 C 0.94355 0.33877 0.15747 0.0
C6 C 0.94015 0.34882 0.13114 0.0
C7 C 0.96709 0.39526 0.1233 0.0
C8 C 0.09792 0.59319 0.20426 0.0
C9 C 1.0131 0.62012 0.15232 0.0
C10 C 0.1836 0.75804 0.17621 0.0
Eu11 Eu 0.12856 0.66916 0.16014 0.0
C12 C 0.23541 0.78981 0.17666 0.0
C13 C 0.2547 0.83423 0.16579 0.0
C14 C 0.3039 0.86328 0.16428 0.0
C15 C 0.33443 0.84838 0.17384 0.0
C16 C 0.31502 0.80395 0.18476 0.0
C17 C 0.266 0.77486 0.1861 0.0
C18 C 0.10789 0.63657 0.1082 0.0
C19 C 0.19889 0.62053 0.1496 0.0
O20 O 1.016 0.5097 0.13165 0.0
O21 O 1.07414 0.49824 0.1414 0.0
O22 O 0.09874 0.55734 0.19224 0.0
O23 O 0.08489 0.61274 0.18784 0.0
O24 O 1.01735 0.58221 0.14431 0.0
O25 O 1.0521 0.65856 0.16262 0.0
O26 O 0.16695 0.72336 0.19223 0.0
O27 O 0.16335 0.74433 0.15256 0.0
O28 O 0.10164 0.67048 0.11856 0.0
O29 O 0.1256 0.62345 0.12536 0.0
O30 O 0.19557 0.65775 0.16003 0.0
O31 O 0.15819 0.58193 0.1413 0.0
H32 H 1.02192 0.45097 0.18288 0.0
H33 H 0.975 0.36953 0.19665 0.0
H34 H 0.91849 0.32046 0.11634 0.0
H35 H 0.96571 0.40202 0.10264 0.0
H36 H 0.23167 0.84618 0.15818 0.0
H37 H 0.31808 0.89751 0.15591 0.0
H38 H 0.33783 0.79139 0.19196 0.0
H39 H 0.25214 0.74047 0.19421 0.0
C40 C 0.50989 0.14206 0.45495 0.0
Eu41 Eu 0.55312 0.10735 0.48082 0.0
C42 C 0.52558 0.19193 0.44988 0.0
C43 C 0.50249 0.21433 0.46224 0.0
C44 C 0.5238 0.26385 0.4638 0.0
C45 C 0.56845 0.29187 0.45275 0.0
C46 C 0.58904 0.26904 0.43796 0.0
C47 C 0.56798 0.21955 0.43665 0.0
C48 C 0.56705 0.12357 0.53507 0.0
C49 C 0.66758 0.17813 0.48785 0.0
C50 C 0.65011 1.04059 0.53336 0.0
Eu51 Eu 0.59916 0.06198 0.50346 0.0
C52 C 0.66484 1.00532 0.53728 0.0
C53 C 0.71344 1.02201 0.54083 0.0
C54 C 0.72981 0.99043 0.54419 0.0
C55 C 0.69786 0.94132 0.54416 0.0
C56 C 0.64891 0.92446 0.54103 0.0
C57 C 0.63245 0.9563 0.53747 0.0
C58 C 0.58929 1.0445 0.45039 0.0
C59 C 0.48508 0.98895 0.48747 0.0
O60 O 0.53307 0.12309 0.44321 0.0
O61 O 0.50214 0.13216 0.47985 0.0
O62 O 0.57585 0.15648 0.51907 0.0
O63 O 0.55173 0.08434 0.52187 0.0
O64 O 0.62877 0.17089 0.47498 0.0
O65 O 0.66278 0.14292 0.50259 0.0
O66 O 0.60683 1.03036 0.53886 0.0
O67 O 0.66549 0.0641 0.5121 0.0
O68 O 0.58498 1.01359 0.46685 0.0
O69 O 0.60094 0.08416 0.4626 0.0
O70 O 0.52286 0.99358 0.50081 0.0
O71 O 0.48998 1.02769 0.47668 0.0
H72 H 0.46975 0.19381 0.47252 0.0
H73 H 0.50698 0.28012 0.4755 0.0
H74 H 0.62291 0.28955 0.42873 0.0
H75 H 0.58659 0.2034 0.42673 0.0
H76 H 0.73895 0.05973 0.54093 0.0
H77 H 0.76762 1.00455 0.54702 0.0
H78 H 0.62356 0.88673 0.54089 0.0
H79 H 0.59473 0.94264 0.53473 0.0
C80 C 0.71988 0.6917 0.80224 0.0
Eu81 Eu 0.63366 0.66098 0.81787 0.0
C82 C 0.74659 0.66619 0.79903 0.0
C83 C 0.78478 0.67841 0.81667 0.0
C84 C 0.80026 0.64609 0.8202 0.0
C85 C 0.77803 0.60158 0.80591 0.0
C86 C 0.74422 0.59182 0.7859 0.0
C87 C 0.72851 0.62398 0.7824 0.0
C88 C 0.60741 0.65364 0.8698 0.0
C89 C 0.58417 0.54104 0.81736 0.0
C90 C 0.44468 0.56647 0.8369 0.0
Eu91 Eu 0.53269 0.60611 0.82276 0.0
C92 C 0.39811 0.56023 0.8298 0.0
C93 C 0.36085 0.51369 0.824 0.0
C94 C 0.31552 0.50503 0.81798 0.0
C95 C 0.30621 0.54277 0.81773 0.0
C96 C 0.34367 0.58969 0.82325 0.0
C97 C 0.38953 0.59844 0.82916 0.0
C98 C 0.56041 0.61534 0.77174 0.0
C99 C 0.58174 0.72606 0.81748 0.0
O100 O 0.6837 0.67768 0.78582 0.0
O101 O 0.7098 0.69826 0.82676 0.0
O102 O 0.64083 0.692 0.86024 0.0
O103 O 0.58978 0.6201 0.85171 0.0
O104 O 0.62087 0.58228 0.81048 0.0
O105 O 0.54662 0.54273 0.82672 0.0
O106 O 0.47787 0.60754 0.84765 0.0
O107 O 0.46092 0.54668 0.8198 0.0
O108 O 0.52632 0.57619 0.77994 0.0
O109 O 0.57604 0.64737 0.79024 0.0
O110 O 0.5429 0.68436 0.82233 0.0
O111 O 0.62223 0.72571 0.81378 0.0
H112 H 0.79948 0.71084 0.82954 0.0
H113 H 0.82642 0.65399 0.83581 0.0
H114 H 0.72727 0.55777 0.77455 0.0
H115 H 0.69941 0.6137 0.76834 0.0
H116 H 0.36665 0.4837 0.82458 0.0
H117 H 0.2873 0.46841 0.81456 0.0
H118 H 0.33738 0.6194 0.82329 0.0
H119 H 0.41787 0.63473 0.83351 0.0
H120 H 0.70939 0.98356 0.19047 0.0
H121 H 0.73494 0.99582 0.27484 0.0
H122 H 0.62702 1.02037 0.24349 0.0
H123 H 0.81411 0.97936 0.19982 0.0
C124 C 0.79914 1.00031 0.20836 0.0
C125 C 0.70191 0.99206 0.2104 0.0
C126 C 0.66503 1.0021 0.21438 0.0
C127 C 0.72777 0.9909 0.23228 0.0
C128 C 0.71593 0.99866 0.25815 0.0
C129 C 0.67989 1.00997 0.26241 0.0
C130 C 0.65549 1.0126 0.24035 0.0
N131 N 0.7653 0.98098 0.22859 0.0
H132 H 0.80163 0.63489 0.54013 0.0
H133 H 0.79806 0.7084 0.61317 0.0
H134 H 0.67416 0.57781 0.58549 0.0
H135 H 0.90469 0.78497 0.58384 0.0
C136 C 0.86783 0.76191 0.5775 0.0
C137 C 0.78211 0.63717 0.55712 0.0
C138 C 0.73485 0.60148 0.56032 0.0
C139 C 0.80448 0.67629 0.57569 0.0
C140 C 0.78031 0.67884 0.59836 0.0
C141 C 0.7334 0.64313 0.60203 0.0
C142 C 0.7106 0.60514 0.58272 0.0
N143 N 0.85152 0.71278 0.57132 0.0
H144 H 0.88653 0.38576 0.87134 0.0
H145 H 0.98513 0.40517 0.93352 0.0
H146 H 0.88405 0.45204 0.94728 0.0
H147 H 0.93857 0.3858 0.8446 0.0
C148 C 0.96687 0.3852 0.85545 0.0
C149 C 0.89925 0.3964 0.89172 0.0
C150 C 0.88018 0.41879 0.90819 0.0
C151 C 0.93718 0.39152 0.90074 0.0
C152 C 0.95452 0.40708 0.92693 0.0
C153 C 0.93569 0.42925 0.94378 0.0
C154 C 0.89753 0.43356 0.93457 0.0
N155 N 0.96324 0.37795 0.8831 0.0
H156 H 0.11936 0.62444 0.48569 0.0
H157 H 1.04188 0.55262 0.41168 0.0
H158 H 0.17305 0.68448 0.41041 0.0
H159 H 1.00876 0.48585 0.4328 0.0
C160 C 0.9989 0.49455 0.45205 0.0
C161 C 0.11606 0.62269 0.46426 0.0
C162 C 0.15445 0.66061 0.44974 0.0
C163 C 1.07395 0.58168 0.45072 0.0
C164 C 1.07197 0.58143 0.42263 0.0
C165 C 0.10773 0.61767 0.40808 0.0
C166 C 0.14723 0.65624 0.42187 0.0
N167 N 1.03396 0.5423 0.46451 0.0
H168 H 0.57977 0.17456 0.8157 0.0
H169 H 0.57763 0.09626 0.74201 0.0
H170 H 0.58184 0.22875 0.73891 0.0
H171 H 0.60511 0.05973 0.7635 0.0
C172 C 0.58984 0.0529 0.78299 0.0
C173 C 0.58024 0.17141 0.79423 0.0
C174 C 0.57944 0.20861 0.7792 0.0
C175 C 0.58076 0.12955 0.78114 0.0
C176 C 0.57998 0.12697 0.75303 0.0
C177 C 0.58004 0.16221 0.73816 0.0
C178 C 0.58029 0.20194 0.75122 0.0
N179 N 0.57993 0.0899 0.79523 0.0
H180 H 0.56546 0.62504 0.14861 0.0
H181 H 0.6371 0.62494 0.07568 0.0
H182 H 0.50445 0.62175 0.07186 0.0
H183 H 0.70304 0.65643 0.09943 0.0
C184 C 0.69501 0.63667 0.11708 0.0
C185 C 0.56703 0.62485 0.12716 0.0
C186 C 0.52874 0.62583 0.1121 0.0
C187 C 0.60811 0.62489 0.11423 0.0
C188 C 0.60821 0.62512 0.08619 0.0
C189 C 0.57184 0.62512 0.07102 0.0
C190 C 0.53297 0.62444 0.08411 0.0
N191 N 0.64782 0.62349 0.12834 0.0
C192 C 0.29185 0.65876 0.15841 0.0
C193 C 0.24837 0.62218 0.14628 0.0
C194 C 0.33694 0.65999 0.15554 0.0
C195 C 0.34161 0.62441 0.1395 0.0
C196 C 0.29789 0.58769 0.12707 0.0
C197 C 0.25316 0.58676 0.13074 0.0
C198 C 0.38014 0.70008 0.17001 0.0
C199 C 0.29831 0.54902 0.10917 0.0
C200 C 0.46628 0.6545 0.10878 0.0
C201 C 0.48368 0.62894 0.12261 0.0
C202 C 0.42196 0.65323 0.11395 0.0
C203 C 0.3915 0.62684 0.13452 0.0
C204 C 0.40944 0.60257 0.14957 0.0
C205 C 0.45387 0.60351 0.14349 0.0
C206 C 0.40713 0.67984 0.09652 0.0
C207 C 0.38107 0.57461 0.17223 0.0
H208 H 0.2908 0.68687 0.17059 0.0
H209 H 0.22145 0.55792 0.12084 0.0
H210 H 0.39903 0.68576 0.18112 0.0
H211 H 0.40509 0.72377 0.15545 0.0
H212 H 0.37099 0.72174 0.18413 0.0
H213 H 0.26261 0.52319 0.10043 0.0
H214 H 0.32315 0.56505 0.09278 0.0
H215 H 0.31137 0.52949 0.12051 0.0
H216 H 0.48751 0.67579 0.09302 0.0
H217 H 0.46447 0.58301 0.15485 0.0
H218 H 0.40396 0.70765 0.10874 0.0
H219 H 0.37169 0.65507 0.08716 0.0
H220 H 0.43269 0.69709 0.08058 0.0
H221 H 0.37097 0.59658 0.18545 0.0
H222 H 0.40095 0.56236 0.18419 0.0
H223 H 0.34776 0.54302 0.16431 0.0
C224 C 0.72084 0.26296 0.46945 0.0
C225 C 0.71655 0.22629 0.48527 0.0
C226 C 0.765 0.3068 0.46612 0.0
C227 C 0.80889 0.31711 0.47871 0.0
C228 C 0.80479 0.28045 0.4949 0.0
C229 C 0.76004 0.2368 0.49791 0.0
C230 C 0.76459 0.34205 0.44829 0.0
C231 C 0.84847 0.28706 0.50909 0.0
C232 C 0.93167 0.40624 0.44657 0.0
C233 C 0.95131 0.45072 0.46187 0.0
C234 C 0.88748 0.36426 0.45192 0.0
C235 C 0.85855 0.3637 0.47349 0.0
C236 C 0.8778 0.40838 0.48929 0.0
C237 C 0.92286 0.45033 0.48353 0.0
C238 C 0.87139 0.31986 0.43383 0.0
C239 C 0.85002 0.4122 0.51235 0.0
H240 H 0.68911 0.25733 0.45917 0.0
H241 H 0.7594 0.21042 0.51025 0.0
H242 H 0.78473 0.37871 0.4578 0.0
H243 H 0.78235 0.34138 0.42953 0.0
H244 H 0.72797 0.33386 0.44326 0.0
H245 H 0.84043 0.25758 0.52194 0.0
H246 H 0.87474 0.28912 0.4943 0.0
H247 H 0.86532 0.32117 0.52152 0.0
H248 H 0.9513 0.40405 0.42962 0.0
H249 H 0.93516 0.48307 0.49585 0.0
H250 H 0.83707 0.30988 0.42385 0.0
H251 H 0.86542 0.28978 0.44565 0.0
H252 H 0.89753 0.32441 0.41835 0.0
H253 H 0.81521 0.40611 0.50498 0.0
H254 H 0.86903 0.44755 0.52354 0.0
H255 H 0.8427 0.38418 0.52613 0.0
C256 C 0.53786 0.77616 0.81455 0.0
C257 C 0.58035 0.7738 0.81508 0.0
C258 C 0.53693 0.8198 0.81145 0.0
C259 C 0.57944 0.86478 0.809 0.0
C260 C 0.62237 0.86263 0.80993 0.0
C261 C 0.62227 0.81851 0.8127 0.0
C262 C 0.48957 0.81744 0.81032 0.0
C263 C 0.66934 0.90759 0.80779 0.0
C264 C 0.58043 0.96983 0.77205 0.0
C265 C 0.5823 1.00374 0.79208 0.0
C266 C 0.57844 0.9258 0.77723 0.0
C267 C 0.57911 0.91255 0.80362 0.0
C268 C 0.58067 0.94626 0.82423 0.0
C269 C 0.58197 0.99033 0.81842 0.0
C270 C 0.57616 0.89327 0.75388 0.0
C271 C 0.58212 0.93624 0.85283 0.0
H272 H 0.5046 0.74331 0.81618 0.0
H273 H 0.65592 0.81928 0.81299 0.0
H274 H 0.48868 0.8428 0.82579 0.0
H275 H 0.48439 0.82829 0.79076 0.0
H276 H 0.4596 0.78118 0.81326 0.0
H277 H 0.69991 0.90196 0.81077 0.0
H278 H 0.67164 0.92118 0.78788 0.0
H279 H 0.67222 0.93555 0.82275 0.0
H280 H 0.58092 0.97806 0.75152 0.0
H281 H 0.58421 1.01486 0.83468 0.0
H282 H 0.5453 0.85705 0.75553 0.0
H283 H 0.60854 0.89008 0.75394 0.0
H284 H 0.57313 0.90627 0.73454 0.0
H285 H 0.55119 0.90116 0.85673 0.0
H286 H 0.58196 0.96397 0.86682 0.0
H287 H 0.61457 0.9343 0.85688 0.0
C288 C 0.92287 0.58164 0.13634 0.0
C289 C 0.96442 0.62005 0.14918 0.0
C290 C 0.87868 0.58187 0.13289 0.0
C291 C 0.87306 0.62133 0.14244 0.0
C292 C 0.91474 0.65997 0.15562 0.0
C293 C 0.95855 0.65894 0.15867 0.0
C294 C 0.83757 0.53932 0.11847 0.0
C295 C 0.91335 0.70346 0.16652 0.0
C296 C 0.77789 0.6462 0.1087 0.0
C297 C 0.73839 0.63022 0.12576 0.0
C298 C 0.81989 0.64327 0.11375 0.0
C299 C 0.82584 0.62373 0.13702 0.0
C300 C 0.78624 0.60726 0.15461 0.0
C301 C 0.74393 0.61046 0.14894 0.0
C302 C 0.85857 0.66158 0.09366 0.0
C303 C 0.78864 0.58611 0.17984 0.0
H304 H 0.92485 0.55088 0.12854 0.0
H305 H 0.98879 0.68945 0.16865 0.0
H306 H 0.80588 0.5251 0.13106 0.0
H307 H 0.8283 0.55019 0.10004 0.0
H308 H 0.84557 0.51045 0.11306 0.0
H309 H 0.94662 0.72954 0.17761 0.0
H310 H 0.90764 0.72114 0.14998 0.0
H311 H 0.88307 0.69296 0.17998 0.0
H312 H 0.77608 0.66161 0.09061 0.0
H313 H 0.71537 0.59758 0.16288 0.0
H314 H 0.86551 0.63275 0.08638 0.0
H315 H 0.89203 0.69068 0.10319 0.0
H316 H 0.84942 0.6752 0.07633 0.0
H317 H 0.79318 0.55487 0.17501 0.0
H318 H 0.7563 0.57478 0.19171 0.0
H319 H 0.82006 0.61253 0.19215 0.0
C320 C 0.39783 0.93335 0.46767 0.0
C321 C 0.43631 0.93985 0.48412 0.0
C322 C 0.35312 0.88895 0.46404 0.0
C323 C 0.34357 0.84734 0.47722 0.0
C324 C 0.38206 0.85374 0.49409 0.0
C325 C 0.42672 0.89848 0.49713 0.0
C326 C 0.31572 0.88654 0.44554 0.0
C327 C 0.37613 0.81271 0.5092 0.0
C328 C 0.20875 0.73939 0.48144 0.0
C329 C 0.20351 0.70528 0.46062 0.0
C330 C 0.25299 0.78402 0.48736 0.0
C331 C 0.29521 0.79755 0.47232 0.0
C332 C 0.29021 0.76275 0.45182 0.0
C333 C 0.24614 0.71861 0.44655 0.0
C334 C 0.25412 0.81762 0.50968 0.0
C335 C 0.33174 0.77267 0.43455 0.0
H336 H 0.4027 0.96341 0.45712 0.0
H337 H 0.45444 0.90094 0.51005 0.0
H338 H 0.30729 0.85875 0.42919 0.0
H339 H 0.28253 0.87616 0.4564 0.0
H340 H 0.32708 0.92098 0.43677 0.0
H341 H 0.40708 0.82281 0.52267 0.0
H342 H 0.34368 0.79919 0.52114 0.0
H343 H 0.37141 0.78304 0.49502 0.0
H344 H 0.17766 0.73213 0.49272 0.0
H345 H 0.24489 0.69429 0.43043 0.0
H346 H 0.25863 0.85042 0.50144 0.0
H347 H 0.28497 0.82836 0.52334 0.0
H348 H 0.22114 0.80158 0.52123 0.0
H349 H 0.34221 0.80517 0.42389 0.0
H350 H 0.32361 0.74272 0.41966 0.0
H351 H 0.36276 0.77958 0.44705 0.0
C352 C 0.61951 0.48662 0.79999 0.0
C353 C 0.58459 0.49228 0.81426 0.0
C354 C 0.61916 0.4418 0.79621 0.0
C355 C 0.5834 0.399 0.80717 0.0
C356 C 0.54865 0.40477 0.82209 0.0
C357 C 0.54936 0.44981 0.82512 0.0
C358 C 0.65795 0.44069 0.78026 0.0
C359 C 0.51003 0.36276 0.83518 0.0
C360 C 0.55096 0.27074 0.77493 0.0
C361 C 0.57697 0.25473 0.78974 0.0
C362 C 0.55296 0.31587 0.78021 0.0
C363 C 0.58069 0.34862 0.80182 0.0
C364 C 0.60566 0.33228 0.8177 0.0
C365 C 0.60386 0.28693 0.81159 0.0
C366 C 0.52595 0.32918 0.76171 0.0
C367 C 0.63521 0.36347 0.84129 0.0
H368 H 0.64724 0.51752 0.79115 0.0
H369 H 0.52174 0.45162 0.83635 0.0
H370 H 0.68492 0.44169 0.79405 0.0
H371 H 0.64379 0.40752 0.7671 0.0
H372 H 0.67588 0.4716 0.76784 0.0
H373 H 0.48807 0.37271 0.84805 0.0
H374 H 0.48651 0.33508 0.81977 0.0
H375 H 0.52581 0.34666 0.84741 0.0
H376 H 0.5288 0.24777 0.75828 0.0
H377 H 0.62488 0.27747 0.82367 0.0
H378 H 0.55084 0.36309 0.75292 0.0
H379 H 0.49974 0.33511 0.77296 0.0
H380 H 0.50689 0.30141 0.74534 0.0
H381 H 0.61216 0.36867 0.85583 0.0
H382 H 0.66125 0.399 0.83477 0.0
H383 H 0.65443 0.34834 0.85133 0.0
C384 C 0.69698 0.87356 0.56591 0.0
C385 C 0.71643 0.9085 0.54744 0.0
C386 C 0.71787 0.84595 0.57105 0.0
C387 C 0.75893 0.85349 0.5573 0.0
C388 C 0.77744 0.88736 0.53786 0.0
C389 C 0.75595 0.9144 0.53318 0.0
C390 C 0.69704 0.80992 0.5918 0.0
C391 C 0.82086 0.89613 0.52256 0.0
C392 C 0.84806 0.82581 0.58759 0.0
C393 C 0.83775 0.78341 0.57317 0.0
C394 C 0.82154 0.84815 0.58328 0.0
C395 C 0.78406 0.82767 0.56389 0.0
C396 C 0.77313 0.78447 0.54948 0.0
C397 C 0.80044 0.7631 0.55409 0.0
C398 C 0.8344 0.89431 0.59898 0.0
C399 C 0.73363 0.76163 0.52856 0.0
H400 H 0.66656 0.86908 0.57705 0.0
H401 H 0.77058 0.94086 0.51857 0.0
H402 H 0.69052 0.77468 0.58348 0.0
H403 H 0.72268 0.821 0.60881 0.0
H404 H 0.66319 0.80597 0.59936 0.0
H405 H 0.82941 0.92218 0.50727 0.0
H406 H 0.85191 0.90986 0.53648 0.0
H407 H 0.81547 0.86231 0.51261 0.0
H408 H 0.87715 0.84166 0.60218 0.0
H409 H 0.79331 0.73125 0.54214 0.0
H410 H 0.80267 0.89162 0.60887 0.0
H411 H 0.84691 0.92348 0.58534 0.0
H412 H 0.86268 0.9041 0.61435 0.0
H413 H 0.70038 0.7582 0.5367 0.0
H414 H 0.72669 0.72581 0.52099 0.0
H415 H 0.74308 0.78452 0.51157 0.0
C416 C 0.74853 0.53472 0.83469 0.0
C417 C 0.78186 0.56259 0.81639 0.0
C418 C 0.7559 0.5039 0.84948 0.0
C419 C 0.79718 0.50054 0.84538 0.0
C420 C 0.82895 0.52589 0.82531 0.0
C421 C 0.82127 0.55741 0.81125 0.0
C422 C 0.72175 0.47854 0.87104 0.0
C423 C 0.87267 0.5221 0.81996 0.0
C424 C 0.86026 0.48238 0.90193 0.0
C425 C 0.8501 0.43542 0.89599 0.0
C426 C 0.84061 0.50287 0.88653 0.0
C427 C 0.81079 0.4761 0.86431 0.0
C428 C 0.79752 0.42767 0.8593 0.0
C429 C 0.81703 0.40775 0.8754 0.0
C430 C 0.85459 0.55433 0.89296 0.0
C431 C 0.7658 0.39767 0.83586 0.0
H432 H 0.71821 0.53934 0.83862 0.0
H433 H 0.84687 0.5793 0.79707 0.0
H434 H 0.71789 0.44311 0.87346 0.0
H435 H 0.73562 0.5 0.89023 0.0
H436 H 0.68617 0.47401 0.86688 0.0
H437 H 0.89069 0.53976 0.8018 0.0
H438 H 0.89812 0.539 0.83713 0.0
H439 H 0.86316 0.48417 0.81762 0.0
H440 H 0.88618 0.50447 0.91748 0.0
H441 H 0.80829 0.37116 0.87094 0.0
H442 H 0.82269 0.55836 0.89335 0.0
H443 H 0.87775 0.57637 0.87727 0.0
H444 H 0.87399 0.56854 0.91242 0.0
H445 H 0.74062 0.40937 0.83015 0.0
H446 H 0.74535 0.35952 0.84013 0.0
H447 H 0.7882 0.40076 0.81856 0.0
C448 C 0.41437 0.88674 0.19577 0.0
C449 C 0.38654 0.87909 0.17298 0.0
C450 C 0.46387 0.91327 0.1953 0.0
C451 C 0.48623 0.93241 0.1713 0.0
C452 C 0.45833 0.92574 0.14829 0.0
C453 C 0.40856 0.89933 0.14946 0.0
C454 C 0.49221 0.9199 0.22048 0.0
C455 C 0.48093 0.94589 0.12248 0.0
C456 C 0.611 1.02307 0.19145 0.0
C457 C 0.63018 0.99303 0.19285 0.0
C458 C 0.56527 1.00567 0.18059 0.0
C459 C 0.53884 0.95744 0.1708 0.0
C460 C 0.56154 0.92999 0.16779 0.0
C461 C 0.6072 0.94819 0.17896 0.0
C462 C 0.54295 1.03664 0.18351 0.0
C463 C 0.53511 0.87884 0.15669 0.0
H464 H 0.39726 0.8717 0.21405 0.0
H465 H 0.38691 0.89333 0.13181 0.0
H466 H 0.51461 0.90328 0.21726 0.0
H467 H 0.51624 0.95835 0.22587 0.0
H468 H 0.46918 0.90387 0.23758 0.0
H469 H 0.45435 0.93402 0.10586 0.0
H470 H 0.49999 0.98533 0.12486 0.0
H471 H 0.50755 0.93524 0.11704 0.0
H472 H 0.62938 0.05829 0.20161 0.0
H473 H 0.62209 0.92497 0.17968 0.0
H474 H 0.52279 1.02915 0.20214 0.0
H475 H 0.51779 1.02914 0.16674 0.0
H476 H 0.57029 0.07503 0.18468 0.0
H477 H 0.51285 0.85598 0.17239 0.0
H478 H 0.5599 0.86635 0.15003 0.0
H479 H 0.51125 0.87406 0.13973 0.0
C480 C 0.64439 0.36449 0.46806 0.0
C481 C 0.59633 0.34376 0.46035 0.0
C482 C 0.66907 0.41044 0.48053 0.0
C483 C 0.64498 0.43606 0.48572 0.0
C484 C 0.59764 0.41691 0.47622 0.0
C485 C 0.5739 0.37099 0.46351 0.0
C486 C 0.71972 0.42983 0.49015 0.0
C487 C 0.57078 0.44321 0.48138 0.0
C488 C 0.68324 0.51397 0.54994 0.0
C489 C 0.71121 0.55954 0.54089 0.0
C490 C 0.66078 0.47377 0.53208 0.0
C491 C 0.66686 0.47912 0.50444 0.0
C492 C 0.69493 0.52496 0.49508 0.0
C493 C 0.71673 0.56474 0.51345 0.0
C494 C 0.63108 0.42542 0.54288 0.0
C495 C 0.70231 0.53185 0.46574 0.0
H496 H 0.66198 0.34367 0.46609 0.0
H497 H 0.53704 0.35553 0.45719 0.0
H498 H 0.74228 0.46719 0.48493 0.0
H499 H 0.72096 0.42971 0.51213 0.0
H500 H 0.73515 0.40838 0.4816 0.0
H501 H 0.53713 0.42697 0.46937 0.0
H502 H 0.56209 0.44252 0.50273 0.0
H503 H 0.59281 0.48106 0.47693 0.0
H504 H 0.67953 0.50957 0.57111 0.0
H505 H 0.73788 0.59995 0.50633 0.0
H506 H 0.64673 0.40264 0.53749 0.0
H507 H 0.5947 0.40747 0.53387 0.0
H508 H 0.62847 0.42766 0.56485 0.0
H509 H 0.72021 0.51264 0.45747 0.0
H510 H 0.72409 0.56999 0.46167 0.0
H511 H 0.66757 0.51652 0.455 0.0
C512 C 0.23769 0.55159 0.83291 0.0
C513 C 0.25636 0.53153 0.81455 0.0
C514 C 0.18847 0.53169 0.83506 0.0
C515 C 0.1576 0.49061 0.81867 0.0
C516 C 0.17629 0.47364 0.79814 0.0
C517 C 0.22558 0.49463 0.7962 0.0
C518 C 0.16975 0.55165 0.8567 0.0
C519 C 0.1446 0.4302 0.7801 0.0
C520 C 1.05005 0.40132 0.85415 0.0
C521 C 1.0142 0.40796 0.84381 0.0
C522 C 0.09656 0.42699 0.84537 0.0
C523 C 0.1075 0.46074 0.82615 0.0
C524 C 1.07108 0.46661 0.81508 0.0
C525 C 1.02457 0.43969 0.82391 0.0
C526 C 0.13426 0.41891 0.85723 0.0
C527 C 0.08156 0.50274 0.7949 0.0
H528 H 0.26127 0.58022 0.84709 0.0
H529 H 0.24003 0.47981 0.78153 0.0
H530 H 0.1383 0.55278 0.84936 0.0
H531 H 0.15845 0.52826 0.87352 0.0
H532 H 0.19711 0.58806 0.86431 0.0
H533 H 0.16355 0.42685 0.76241 0.0
H534 H 0.13215 0.39789 0.79128 0.0
H535 H 0.11278 0.43115 0.7733 0.0
H536 H 1.04186 0.37652 0.86942 0.0
H537 H 0.99672 0.445 0.81611 0.0
H538 H 0.16102 0.45181 0.86864 0.0
H539 H 0.15304 0.41055 0.8412 0.0
H540 H 0.11928 0.3894 0.87075 0.0
H541 H 0.10241 0.53912 0.8047 0.0
H542 H 1.04862 0.49889 0.78593 0.0
H543 H 0.10336 0.49951 0.77879 0.0
C544 C 0.94661 0.27305 0.17852 0.0
C545 C 0.92028 0.28891 0.16494 0.0
C546 C 0.92608 0.22562 0.18495 0.0
C547 C 0.87788 0.1934 0.17787 0.0
C548 C 0.85096 0.20924 0.16429 0.0
C549 C 0.87264 0.25686 0.15779 0.0
C550 C 0.95607 0.20993 0.1992 0.0
C551 C 0.79927 0.17599 0.15681 0.0
C552 C 0.83773 0.06164 0.17543 0.0
C553 C 0.81791 1.04958 0.20043 0.0
C554 C 0.85669 0.10822 0.16756 0.0
C555 C 0.85562 0.14336 0.18519 0.0
C556 C 0.83551 0.13128 0.21045 0.0
C557 C 0.81768 0.08475 0.21795 0.0
C558 C 0.87855 0.12003 0.14061 0.0
C559 C 0.83364 0.16772 0.22979 0.0
H560 H 0.98369 0.29763 0.18365 0.0
H561 H 0.85225 0.2692 0.14737 0.0
H562 H 0.94055 0.19653 0.21861 0.0
H563 H 0.95645 0.18019 0.18734 0.0
H564 H 0.99327 0.23925 0.2028 0.0
H565 H 0.78331 0.19392 0.14634 0.0
H566 H 0.79533 0.14537 0.14377 0.0
H567 H 0.77889 0.16142 0.17493 0.0
H568 H 0.83847 1.03457 0.16204 0.0
H569 H 0.80455 0.07644 0.23781 0.0
H570 H 0.91669 0.1474 0.14305 0.0
H571 H 0.86116 0.13528 0.129 0.0
H572 H 0.87546 0.08835 0.129 0.0
H573 H 0.87019 0.1956 0.23617 0.0
H574 H 0.81343 0.15164 0.24776 0.0
H575 H 0.81691 0.18557 0.22004 0.0
C576 C 1.06025 0.62037 0.06612 0.0
C577 C 0.08405 0.60709 0.08364 0.0
C578 C 1.03553 0.59068 0.0435 0.0
C579 C 1.0341 0.54653 0.03869 0.0
C580 C 1.0579 0.53298 0.05647 0.0
C581 C 0.08306 0.5637 0.07852 0.0
C582 C 1.01101 0.60651 0.02474 0.0
C583 C 1.05652 0.48587 0.05233 0.0
C584 C 0.93658 0.45157 -0.00763 0.0
C585 C 0.96117 0.45587 0.96885 0.0
C586 C 0.96 0.48045 0.01545 0.0
C587 C 1.00882 0.51496 0.01469 0.0
C588 C 1.03381 0.51913 -0.00899 0.0
C589 C 1.00973 0.48932 0.96842 0.0
C590 C 0.93249 0.47437 0.04054 0.0
C591 C 0.08576 0.55581 0.98935 0.0
H592 H 1.06089 0.65384 0.07013 0.0
H593 H 0.10131 0.55321 0.09209 0.0
H594 H 1.0251 0.60813 0.00449 0.0
H595 H 0.97246 0.58026 0.02332 0.0
H596 H 1.01581 0.64199 0.03121 0.0
H597 H 1.07579 0.48015 0.06849 0.0
H598 H 1.01918 0.45626 0.05135 0.0
H599 H 1.07257 0.48405 0.03312 0.0
H600 H 0.89898 0.42582 -0.00738 0.0
H601 H 1.02856 0.49338 0.95006 0.0
H602 H 0.93255 0.50781 0.04658 0.0
H603 H 0.94976 0.46698 0.05703 0.0
H604 H 0.8951 0.44497 0.03804 0.0
H605 H 0.09103 0.59199 -0.00606 0.0
H606 H 0.09992 0.55456 0.96938 0.0
H607 H 0.10688 0.55011 0.00434 0.0
C608 C 0.59979 0.99895 0.41207 0.0
C609 C 0.59805 1.03928 0.42199 0.0
C610 C 0.61265 0.99513 0.38587 0.0
C611 C 0.62312 1.03215 0.36904 0.0
C612 C 0.61976 0.07224 0.37865 0.0
C613 C 0.60756 0.0755 0.40516 0.0
C614 C 0.6162 0.952 0.37641 0.0
C615 C 0.62968 0.11187 0.36105 0.0
C616 C 0.69997 1.04145 0.31017 0.0
C617 C 0.66571 1.01667 0.28973 0.0
C618 C 0.68666 1.04743 0.33604 0.0
C619 C 0.63799 1.02878 0.34146 0.0
C620 C 0.6033 1.00449 0.32085 0.0
C621 C 0.61751 0.99817 0.29536 0.0
C622 C 0.72458 0.07297 0.35767 0.0
C623 C 0.55108 0.98445 0.32581 0.0
H624 H 0.5924 0.97083 0.42504 0.0
H625 H 0.60604 0.10663 0.41281 0.0
H626 H 0.59235 0.93341 0.35878 0.0
H627 H 0.65293 0.96328 0.37022 0.0
H628 H 0.60673 0.92632 0.39201 0.0
H629 H 0.62329 0.13944 0.37119 0.0
H630 H 0.66712 0.12913 0.35485 0.0
H631 H 0.60693 0.09724 0.3427 0.0
H632 H 0.73726 0.05634 0.30594 0.0
H633 H 0.59061 0.978 0.2799 0.0
H634 H 0.71881 1.04858 0.37351 0.0
H635 H 0.72238 0.10363 0.36698 0.0
H636 H 0.76088 0.08616 0.35008 0.0
H637 H 0.53892 0.95558 0.33962 0.0
H638 H 0.529 0.96986 0.30719 0.0
H639 H 0.54486 1.01244 0.33543 0.0
C640 C 0.57605 0.58035 0.73018 0.0
C641 C 0.58251 0.6205 0.74569 0.0
C642 C 0.60035 0.58521 0.70644 0.0
C643 C 0.63102 0.63128 0.69789 0.0
C644 C 0.63655 0.67186 0.71318 0.0
C645 C 0.61249 0.66597 0.73706 0.0
C646 C 0.59423 0.54115 0.69089 0.0
C647 C 0.66844 0.72149 0.70454 0.0
C648 C 0.72913 0.64632 0.65145 0.0
C649 C 0.70868 0.64383 0.62661 0.0
C650 C 0.70432 0.64256 0.67487 0.0
C651 C 0.65836 0.63703 0.67334 0.0
C652 C 0.6382 0.63601 0.64833 0.0
C653 C 0.66348 0.63897 0.6252 0.0
C654 C 0.72668 0.64311 0.70116 0.0
C655 C 0.58969 0.6311 0.64599 0.0
H656 H 0.55318 0.54521 0.73704 0.0
H657 H 0.61742 0.69702 0.74912 0.0
H658 H 0.58179 0.5397 0.67024 0.0
H659 H 0.62892 0.54245 0.68967 0.0
H660 H 0.56851 0.50794 0.70004 0.0
H661 H 0.66673 0.74907 0.71791 0.0
H662 H 0.70573 0.72925 0.70427 0.0
H663 H 0.65839 0.72425 0.68401 0.0
H664 H 0.76391 0.64954 0.65245 0.0
H665 H 0.64788 0.63729 0.60593 0.0
H666 H 0.70449 0.60885 0.71031 0.0
H667 H 0.72838 0.67167 0.71518 0.0
H668 H 0.76309 0.64872 0.69898 0.0
H669 H 0.56249 0.59642 0.65304 0.0
H670 H 0.58015 0.63333 0.62523 0.0
H671 H 0.58836 0.65941 0.65883 0.0
C672 C 0.59492 0.17526 0.57802 0.0
C673 C 0.56991 0.12982 0.56478 0.0
C674 C 0.59797 0.18136 0.6061 0.0
C675 C 0.57454 0.14116 0.6215 0.0
C676 C 0.54897 0.09522 0.60814 0.0
C677 C 0.54747 0.09011 0.58009 0.0
C678 C 0.62655 0.23089 0.61929 0.0
C679 C 0.52261 0.05136 0.62351 0.0
C680 C 0.61195 0.14854 0.69457 0.0
C681 C 0.57891 0.15707 0.70827 0.0
C682 C 0.61146 0.14411 0.66648 0.0
C683 C 0.57636 0.14709 0.6515 0.0
C684 C 0.5426 0.1552 0.66529 0.0
C685 C 0.54463 0.16062 0.69336 0.0
C686 C 0.64881 0.13656 0.65282 0.0
C687 C 0.50384 0.15754 0.65039 0.0
H688 H 0.61264 0.20612 0.56639 0.0
H689 H 0.52798 0.05485 0.57008 0.0
H690 H 0.60323 0.2397 0.63158 0.0
H691 H 0.65422 0.23268 0.63284 0.0
H692 H 0.64403 0.25828 0.60464 0.0
H693 H 0.50359 1.01831 0.61025 0.0
H694 H 0.54774 1.04797 0.6367 0.0
H695 H 0.49644 0.05457 0.63641 0.0
H696 H 0.63877 0.14609 0.70588 0.0
H697 H 0.5187 0.16679 0.70374 0.0
H698 H 0.66847 0.16493 0.639 0.0
H699 H 0.63176 0.1021 0.64075 0.0
H700 H 0.67462 0.13665 0.66717 0.0
H701 H 0.51961 0.18689 0.63684 0.0
H702 H 0.47982 0.16324 0.66395 0.0
H703 H 0.48241 0.12397 0.6379 0.0
C704 C 0.63422 0.68147 0.91754 0.0
C705 C 0.60038 0.64749 0.89899 0.0
C706 C 0.62904 0.67636 0.94516 0.0
C707 C 0.58837 0.63682 0.95483 0.0
C708 C 0.55375 0.6026 0.93617 0.0
C709 C 0.56042 0.60803 0.90855 0.0
C710 C 0.66746 0.7133 0.96402 0.0
C711 C 0.50932 0.56045 0.94539 0.0
C712 C 0.5946 0.60326 0.02588 0.0
C713 C 0.57468 0.62658 0.04099 0.0
C714 C 0.59901 0.60603 -0.00197 0.0
C715 C 0.58213 0.63181 0.98442 0.0
C716 C 0.56095 0.65443 -0.00065 0.0
C717 C 0.55806 0.65209 0.02724 0.0
C718 C 0.62255 0.58192 0.98319 0.0
C719 C 0.54175 0.68174 0.98587 0.0
H720 H 0.66536 0.71199 0.91044 0.0
H721 H 0.53397 0.5817 0.89442 0.0
H722 H 0.65267 0.7309 0.97732 0.0
H723 H 0.6811 0.69597 0.97682 0.0
H724 H 0.69766 0.74105 0.95341 0.0
H725 H 0.48541 0.53743 0.92853 0.0
H726 H 0.51877 0.53868 0.95729 0.0
H727 H 0.48967 0.57297 0.9585 0.0
H728 H 0.60678 0.58253 0.03576 0.0
H729 H 0.5434 0.67117 0.03833 0.0
H730 H 0.65414 0.60867 0.97302 0.0
H731 H 0.59786 0.55567 0.96759 0.0
H732 H 0.63393 0.56332 -0.00347 0.0
H733 H 0.57124 0.71312 0.9771 0.0
H734 H 0.52312 0.69428 -0.00016 0.0
H735 H 0.51669 0.6591 0.96935 0.0
C736 C 0.09949 0.63901 0.24749 0.0
C737 C 0.09683 0.59857 0.23401 0.0
C738 C 0.10021 0.64392 0.27568 0.0
C739 C 0.09732 0.60719 0.29087 0.0
C740 C 0.09361 0.56595 0.27721 0.0
C741 C 0.0939 0.56242 0.2492 0.0
C742 C 0.10501 0.68886 0.28924 0.0
C743 C 0.08967 0.52543 0.29221 0.0
C744 C 0.14578 0.6314 0.36281 0.0
C745 C 0.10461 0.61549 0.37794 0.0
C746 C 0.14401 0.63045 0.33479 0.0
C747 C 0.09986 0.6121 0.32096 0.0
C748 C 1.05808 0.59576 0.33595 0.0
C749 C 1.06096 0.59796 0.36407 0.0
C750 C 0.18963 0.64853 0.31992 0.0
C751 C 1.01009 0.57522 0.32224 0.0
H752 H 0.10195 0.66721 0.23604 0.0
H753 H 0.09163 0.53085 0.23913 0.0
H754 H 1.07492 0.68008 0.30261 0.0
H755 H 0.13804 0.70726 0.30179 0.0
H756 H 0.10604 0.71376 0.2748 0.0
H757 H 0.08456 0.49476 0.27871 0.0
H758 H 0.12228 0.53784 0.30463 0.0
H759 H 1.05941 0.51298 0.30581 0.0
H760 H 0.17974 0.6441 0.37286 0.0
H761 H 1.02882 0.58615 0.37518 0.0
H762 H 0.19295 0.6752 0.3061 0.0
H763 H 0.18926 0.61871 0.30773 0.0
H764 H 0.22141 0.66506 0.3335 0.0
H765 H 1.00982 0.60147 0.30933 0.0
H766 H 0.98102 0.56491 0.33658 0.0
H767 H 1.00274 0.54332 0.30922 0.0
loop_
_geom_bond_atom_site_label_1
_geom_bond_atom_site_label_2
_geom_bond_distance
_geom_bond_site_symmetry_2
_ccdc_geom_bond_type
C0 Eu1 2.835 1_655 S
C0 C2 1.500 . S
C0 O20 1.257 . S
C0 O21 1.260 . S
Eu1 C0 2.835 1_455 S
Eu1 O20 2.473 1_455 S
Eu1 O21 2.480 1_455 S
Eu1 O22 2.430 . S
Eu1 O23 2.670 . S
Eu1 O24 2.394 1_455 S
Eu1 O29 2.355 . S
Eu1 O31 2.374 . S
C2 C0 1.500 . S
C2 C3 1.377 . S
C2 C7 1.377 . S
C3 C2 1.377 . S
C3 C4 1.395 . S
C3 H32 0.931 . S
C4 C3 1.395 . S
C4 C5 1.383 . S
C4 H33 0.931 . S
C5 C4 1.383 . S
C5 C6 1.394 . S
C6 C5 1.394 . S
C6 C7 1.378 . S
C6 H34 0.931 . S
C7 C2 1.377 . S
C7 C6 1.378 . S
C7 H35 0.931 . S
C8 O22 1.259 . S
C8 O23 1.270 . S
C9 O24 1.251 . S
C9 O25 1.251 . S
C10 Eu11 2.835 . S
C10 C12 1.500 . S
C10 O26 1.257 . S
C10 O27 1.260 . S
Eu11 C10 2.835 . S
Eu11 O23 2.355 . S
Eu11 O25 2.374 1_455 S
Eu11 O26 2.473 . S
Eu11 O27 2.480 . S
Eu11 O28 2.430 . S
Eu11 O29 2.670 . S
Eu11 O30 2.394 . S
C12 C10 1.500 . S
C12 C13 1.377 . S
C12 C17 1.377 . S
C13 C12 1.377 . S
C13 C14 1.395 . S
C13 H36 0.931 . S
C14 C13 1.395 . S
C14 C15 1.383 . S
C14 H37 0.931 . S
C15 C14 1.383 . S
C15 C16 1.394 . S
C16 C15 1.394 . S
C16 C17 1.378 . S
C16 H38 0.931 . S
C17 C12 1.377 . S
C17 C16 1.378 . S
C17 H39 0.931 . S
C18 O28 1.259 . S
C18 O29 1.270 . S
C19 O30 1.251 . S
C19 O31 1.251 . S
O20 C0 1.257 . S
O20 Eu1 2.473 1_655 S
O21 C0 1.260 . S
O21 Eu1 2.480 1_655 S
O22 Eu1 2.430 . S
O22 C8 1.259 . S
O23 Eu1 2.670 . S
O23 C8 1.270 . S
O23 Eu11 2.355 . S
O24 Eu1 2.394 1_655 S
O24 C9 1.251 . S
O25 C9 1.251 . S
O25 Eu11 2.374 1_655 S
O26 C10 1.257 . S
O26 Eu11 2.473 . S
O27 C10 1.260 . S
O27 Eu11 2.480 . S
O28 Eu11 2.430 . S
O28 C18 1.259 . S
O29 Eu1 2.355 . S
O29 Eu11 2.670 . S
O29 C18 1.270 . S
O30 Eu11 2.394 . S
O30 C19 1.251 . S
O31 Eu1 2.374 . S
O31 C19 1.251 . S
H32 C3 0.931 . S
H33 C4 0.931 . S
H34 C6 0.931 . S
H35 C7 0.931 . S
H36 C13 0.931 . S
H37 C14 0.931 . S
H38 C16 0.931 . S
H39 C17 0.931 . S
C40 Eu41 2.835 . S
C40 C42 1.500 . S
C40 O60 1.257 . S
C40 O61 1.260 . S
Eu41 C40 2.835 . S
Eu41 O60 2.473 . S
Eu41 O61 2.480 . S
Eu41 O62 2.430 . S
Eu41 O63 2.670 . S
Eu41 O64 2.394 . S
Eu41 O69 2.355 . S
Eu41 O71 2.387 . S
C42 C40 1.500 . S
C42 C43 1.377 . S
C42 C47 1.377 . S
C43 C42 1.377 . S
C43 C44 1.395 . S
C43 H72 0.931 . S
C44 C43 1.395 . S
C44 C45 1.383 . S
C44 H73 0.931 . S
C45 C44 1.383 . S
C45 C46 1.394 . S
C46 C45 1.394 . S
C46 C47 1.378 . S
C46 H74 0.931 . S
C47 C42 1.377 . S
C47 C46 1.378 . S
C47 H75 0.931 . S
C48 O62 1.259 . S
C48 O63 1.270 . S
C49 O64 1.251 . S
C49 O65 1.251 . S
C50 Eu51 2.835 1_565 S
C50 C52 1.500 . S
C50 O66 1.257 . S
C50 O67 1.260 . S
Eu51 C50 2.835 1_545 S
Eu51 O63 2.355 . S
Eu51 O65 2.374 . S
Eu51 O66 2.473 1_545 S
Eu51 O67 2.480 1_545 S
Eu51 O68 2.430 . S
Eu51 O69 2.670 . S
Eu51 O70 2.394 1_545 S
C52 C50 1.500 . S
C52 C53 1.377 . S
C52 C57 1.377 . S
C53 C52 1.377 . S
C53 C54 1.395 . S
C53 H76 0.931 . S
C54 C53 1.395 . S
C54 C55 1.383 . S
C54 H77 0.931 . S
C55 C54 1.383 . S
C55 C56 1.394 . S
C56 C55 1.394 . S
C56 C57 1.378 . S
C56 H78 0.931 . S
C57 C52 1.377 . S
C57 C56 1.378 . S
C57 H79 0.931 . S
C58 O68 1.259 . S
C58 O69 1.270 . S
C59 O70 1.251 . S
C59 O71 1.235 1_565 S
O60 C40 1.257 . S
O60 Eu41 2.473 . S
O61 C40 1.260 . S
O61 Eu41 2.480 . S
O62 Eu41 2.430 . S
O62 C48 1.259 . S
O63 Eu41 2.670 . S
O63 C48 1.270 . S
O63 Eu51 2.355 . S
O64 Eu41 2.394 . S
O64 C49 1.251 . S
O65 C49 1.251 . S
O65 Eu51 2.374 . S
O66 C50 1.257 . S
O66 Eu51 2.473 1_565 S
O67 C50 1.260 . S
O67 Eu51 2.480 1_565 S
O68 Eu51 2.430 . S
O68 C58 1.259 . S
O69 Eu41 2.355 . S
O69 Eu51 2.670 . S
O69 C58 1.270 . S
O70 Eu51 2.394 1_565 S
O70 C59 1.251 . S
O71 Eu41 2.387 . S
O71 C59 1.235 1_545 S
H72 C43 0.931 . S
H73 C44 0.931 . S
H74 C46 0.931 . S
H75 C47 0.931 . S
H76 C53 0.931 . S
H77 C54 0.931 . S
H78 C56 0.931 . S
H79 C57 0.931 . S
C80 Eu81 2.835 . S
C80 C82 1.500 . S
C80 O100 1.257 . S
C80 O101 1.260 . S
Eu81 C80 2.835 . S
Eu81 O100 2.473 . S
Eu81 O101 2.480 . S
Eu81 O102 2.430 . S
Eu81 O103 2.670 . S
Eu81 O104 2.394 . S
Eu81 O109 2.355 . S
Eu81 O111 2.374 . S
C82 C80 1.500 . S
C82 C83 1.377 . S
C82 C87 1.377 . S
C83 C82 1.377 . S
C83 C84 1.395 . S
C83 H112 0.931 . S
C84 C83 1.395 . S
C84 C85 1.383 . S
C84 H113 0.931 . S
C85 C84 1.383 . S
C85 C86 1.394 . S
C86 C85 1.394 . S
C86 C87 1.378 . S
C86 H114 0.931 . S
C87 C82 1.377 . S
C87 C86 1.378 . S
C87 H115 0.931 . S
C88 O102 1.259 . S
C88 O103 1.270 . S
C89 O104 1.251 . S
C89 O105 1.251 . S
C90 Eu91 2.835 . S
C90 C92 1.500 . S
C90 O106 1.257 . S
C90 O107 1.260 . S
Eu91 C90 2.835 . S
Eu91 O103 2.355 . S
Eu91 O105 2.374 . S
Eu91 O106 2.473 . S
Eu91 O107 2.480 . S
Eu91 O108 2.430 . S
Eu91 O109 2.670 . S
Eu91 O110 2.394 . S
C92 C90 1.500 . S
C92 C93 1.377 . S
C92 C97 1.377 . S
C93 C92 1.377 . S
C93 C94 1.395 . S
C93 H116 0.931 . S
C94 C93 1.395 . S
C94 C95 1.383 . S
C94 H117 0.931 . S
C95 C94 1.383 . S
C95 C96 1.394 . S
C96 C95 1.394 . S
C96 C97 1.378 . S
C96 H118 0.931 . S
C97 C92 1.377 . S
C97 C96 1.378 . S
C97 H119 0.931 . S
C98 O108 1.259 . S
C98 O109 1.270 . S
C99 O110 1.251 . S
C99 O111 1.251 . S
O100 C80 1.257 . S
O100 Eu81 2.473 . S
O101 C80 1.260 . S
O101 Eu81 2.480 . S
O102 Eu81 2.430 . S
O102 C88 1.259 . S
O103 Eu81 2.670 . S
O103 C88 1.270 . S
O103 Eu91 2.355 . S
O104 Eu81 2.394 . S
O104 C89 1.251 . S
O105 C89 1.251 . S
O105 Eu91 2.374 . S
O106 C90 1.257 . S
O106 Eu91 2.473 . S
O107 C90 1.260 . S
O107 Eu91 2.480 . S
O108 Eu91 2.430 . S
O108 C98 1.259 . S
O109 Eu81 2.355 . S
O109 Eu91 2.670 . S
O109 C98 1.270 . S
O110 Eu91 2.394 . S
O110 C99 1.251 . S
O111 Eu81 2.374 . S
O111 C99 1.251 . S
H112 C83 0.931 . S
H113 C84 0.931 . S
H114 C86 0.931 . S
H115 C87 0.931 . S
H116 C93 0.931 . S
H117 C94 0.931 . S
H118 C96 0.931 . S
H119 C97 0.931 . S
H120 C125 0.930 . S
H121 C128 0.930 . S
H122 C130 0.930 . S
H123 C124 1.016 . S
C124 H123 1.016 . S
C124 N131 1.286 . S
C125 H120 0.930 . S
C125 C126 1.397 . S
C125 C127 1.361 . S
C126 C125 1.397 . S
C126 C130 1.390 . S
C127 C125 1.361 . S
C127 C128 1.393 . S
C127 N131 1.413 . S
C128 H121 0.930 . S
C128 C127 1.393 . S
C128 C129 1.399 . S
C129 C128 1.399 . S
C129 C130 1.381 . S
C130 H122 0.930 . S
C130 C126 1.390 . S
C130 C129 1.381 . S
N131 C124 1.286 . S
N131 C127 1.413 . S
H132 C137 0.930 . S
H133 C140 0.930 . S
H134 C142 0.930 . S
H135 C136 1.016 . S
C136 H135 1.016 . S
C136 N143 1.286 . S
C137 H132 0.930 . S
C137 C138 1.397 . S
C137 C139 1.361 . S
C138 C137 1.397 . S
C138 C142 1.390 . S
C139 C137 1.361 . S
C139 C140 1.393 . S
C139 N143 1.413 . S
C140 H133 0.930 . S
C140 C139 1.393 . S
C140 C141 1.399 . S
C141 C140 1.399 . S
C141 C142 1.381 . S
C142 H134 0.930 . S
C142 C138 1.390 . S
C142 C141 1.381 . S
N143 C136 1.286 . S
N143 C139 1.413 . S
H144 C149 0.930 . S
H145 C152 0.930 . S
H146 C154 0.930 . S
H147 C148 1.016 . S
C148 H147 1.016 . S
C148 N155 1.286 . S
C149 H144 0.930 . S
C149 C150 1.397 . S
C149 C151 1.361 1_655 S
C150 C149 1.397 . S
C150 C154 1.390 . S
C151 C149 1.361 1_455 S
C151 C152 1.393 . S
C151 N155 1.413 . S
C152 H145 0.930 . S
C152 C151 1.393 . S
C152 C153 1.381 1_455 S
C153 C152 1.381 1_655 S
C153 C154 1.400 . S
C154 H146 0.930 . S
C154 C150 1.390 . S
C154 C153 1.400 . S
N155 C148 1.286 . S
N155 C151 1.413 . S
H156 C161 0.930 . S
H157 C164 0.930 1_655 S
H158 C166 0.930 . S
H159 C160 1.016 . S
C160 H159 1.016 . S
C160 N167 1.286 . S
C161 H156 0.930 . S
C161 C162 1.397 . S
C161 C163 1.361 . S
C162 C161 1.397 . S
C162 C166 1.390 . S
C163 C161 1.361 . S
C163 C164 1.393 . S
C163 N167 1.413 1_455 S
C164 H157 0.930 1_455 S
C164 C163 1.393 . S
C164 C165 1.399 . S
C165 C164 1.399 . S
C165 C166 1.381 . S
C166 H158 0.930 . S
C166 C162 1.390 . S
C166 C165 1.381 . S
N167 C160 1.286 . S
N167 C163 1.413 1_655 S
H168 C173 0.930 . S
H169 C176 0.930 . S
H170 C178 0.930 . S
H171 C172 1.016 . S
C172 H171 1.016 . S
C172 N179 1.286 . S
C173 H168 0.930 . S
C173 C174 1.397 . S
C173 C175 1.371 . S
C174 C173 1.397 . S
C174 C178 1.390 . S
C175 C173 1.371 . S
C175 C176 1.393 1_545 S
C175 N179 1.403 1_545 S
C176 H169 0.930 . S
C176 C175 1.393 1_565 S
C176 C177 1.399 1_565 S
C177 C176 1.399 1_545 S
C177 C178 1.381 . S
C178 H170 0.930 . S
C178 C174 1.390 . S
C178 C177 1.381 . S
N179 C172 1.286 . S
N179 C175 1.403 1_565 S
H180 C185 0.930 . S
H181 C188 0.930 . S
H182 C190 0.930 . S
H183 C184 1.016 . S
C184 H183 1.016 . S
C184 N191 1.286 . S
C185 H180 0.930 . S
C185 C186 1.397 . S
C185 C187 1.361 . S
C186 C185 1.397 . S
C186 C190 1.390 . S
C187 C185 1.361 . S
C187 C188 1.393 . S
C187 N191 1.413 . S
C188 H181 0.930 . S
C188 C187 1.393 . S
C188 C189 1.399 . S
C189 C188 1.399 . S
C189 C190 1.381 . S
C190 H182 0.930 . S
C190 C186 1.390 . S
C190 C189 1.381 . S
N191 C184 1.286 . S
N191 C187 1.413 . S
C192 C193 1.391 . S
C192 C194 1.394 . S
C192 H208 0.931 . S
C193 C192 1.391 . S
C193 C197 1.376 . S
C194 C192 1.394 . S
C194 C195 1.369 . S
C194 C198 1.531 . S
C195 C194 1.369 . S
C195 C196 1.410 . S
C195 C203 1.503 . S
C196 C195 1.410 . S
C196 C197 1.392 . S
C196 C199 1.511 . S
C197 C193 1.376 . S
C197 C196 1.392 . S
C197 H209 0.929 . S
C198 C194 1.531 . S
C198 H210 0.960 . S
C198 H211 0.962 . S
C198 H212 0.960 . S
C199 C196 1.511 . S
C199 H213 0.961 . S
C199 H214 0.961 . S
C199 H215 0.961 . S
C200 C201 1.370 . S
C200 C202 1.363 . S
C200 H216 0.931 . S
C201 C200 1.370 . S
C201 C205 1.408 . S
C202 C200 1.363 . S
C202 C203 1.370 . S
C202 C206 1.524 . S
C203 C195 1.503 . S
C203 C202 1.370 . S
C203 C204 1.403 . S
C204 C203 1.403 . S
C204 C205 1.404 . S
C204 C207 1.539 . S
C205 C201 1.408 . S
C205 C204 1.404 . S
C205 H217 0.930 . S
C206 C202 1.524 . S
C206 H218 0.956 . S
C206 H219 0.961 . S
C206 H220 0.961 . S
C207 C204 1.539 . S
C207 H221 0.958 . S
C207 H222 0.961 . S
C207 H223 0.960 . S
H208 C192 0.931 . S
H209 C197 0.929 . S
H210 C198 0.960 . S
H211 C198 0.962 . S
H212 C198 0.960 . S
H213 C199 0.961 . S
H214 C199 0.961 . S
H215 C199 0.961 . S
H216 C200 0.931 . S
H217 C205 0.930 . S
H218 C206 0.956 . S
H219 C206 0.961 . S
H220 C206 0.961 . S
H221 C207 0.958 . S
H222 C207 0.961 . S
H223 C207 0.960 . S
C224 C225 1.391 . S
C224 C226 1.394 . S
C224 H240 0.931 . S
C225 C224 1.391 . S
C225 C229 1.376 . S
C226 C224 1.394 . S
C226 C227 1.369 . S
C226 C230 1.531 . S
C227 C226 1.369 . S
C227 C228 1.410 . S
C227 C235 1.503 . S
C228 C227 1.410 . S
C228 C229 1.392 . S
C228 C231 1.511 . S
C229 C225 1.376 . S
C229 C228 1.392 . S
C229 H241 0.929 . S
C230 C226 1.531 . S
C230 H242 0.960 . S
C230 H243 0.962 . S
C230 H244 0.960 . S
C231 C228 1.511 . S
C231 H245 0.961 . S
C231 H246 0.961 . S
C231 H247 0.961 . S
C232 C233 1.370 . S
C232 C234 1.363 . S
C232 H248 0.931 . S
C233 C232 1.370 . S
C233 C237 1.408 . S
C234 C232 1.363 . S
C234 C235 1.370 . S
C234 C238 1.524 . S
C235 C227 1.503 . S
C235 C234 1.370 . S
C235 C236 1.403 . S
C236 C235 1.403 . S
C236 C237 1.404 . S
C236 C239 1.539 . S
C237 C233 1.408 . S
C237 C236 1.404 . S
C237 H249 0.930 . S
C238 C234 1.524 . S
C238 H250 0.956 . S
C238 H251 0.961 . S
C238 H252 0.961 . S
C239 C236 1.539 . S
C239 H253 0.958 . S
C239 H254 0.961 . S
C239 H255 0.960 . S
H240 C224 0.931 . S
H241 C229 0.929 . S
H242 C230 0.960 . S
H243 C230 0.962 . S
H244 C230 0.960 . S
H245 C231 0.961 . S
H246 C231 0.961 . S
H247 C231 0.961 . S
H248 C232 0.931 . S
H249 C237 0.930 . S
H250 C238 0.956 . S
H251 C238 0.961 . S
H252 C238 0.961 . S
H253 C239 0.958 . S
H254 C239 0.961 . S
H255 C239 0.960 . S
C256 C257 1.391 . S
C256 C258 1.394 . S
C256 H272 0.931 . S
C257 C256 1.391 . S
C257 C261 1.376 . S
C258 C256 1.394 . S
C258 C259 1.369 . S
C258 C262 1.531 . S
C259 C258 1.369 . S
C259 C260 1.410 . S
C259 C267 1.503 . S
C260 C259 1.410 . S
C260 C261 1.392 . S
C260 C263 1.511 . S
C261 C257 1.376 . S
C261 C260 1.392 . S
C261 H273 0.929 . S
C262 C258 1.531 . S
C262 H274 0.960 . S
C262 H275 0.962 . S
C262 H276 0.960 . S
C263 C260 1.511 . S
C263 H277 0.961 . S
C263 H278 0.961 . S
C263 H279 0.961 . S
C264 C265 1.370 . S
C264 C266 1.363 . S
C264 H280 0.931 . S
C265 C264 1.370 . S
C265 C269 1.408 . S
C266 C264 1.363 . S
C266 C267 1.370 . S
C266 C270 1.524 . S
C267 C259 1.503 . S
C267 C266 1.370 . S
C267 C268 1.403 . S
C268 C267 1.403 . S
C268 C269 1.404 . S
C268 C271 1.539 . S
C269 C265 1.408 . S
C269 C268 1.404 . S
C269 H281 0.930 . S
C270 C266 1.524 . S
C270 H282 0.956 . S
C270 H283 0.961 . S
C270 H284 0.961 . S
C271 C268 1.539 . S
C271 H285 0.958 . S
C271 H286 0.961 . S
C271 H287 0.960 . S
H272 C256 0.931 . S
H273 C261 0.929 . S
H274 C262 0.960 . S
H275 C262 0.962 . S
H276 C262 0.960 . S
H277 C263 0.961 . S
H278 C263 0.961 . S
H279 C263 0.961 . S
H280 C264 0.931 . S
H281 C269 0.930 . S
H282 C270 0.956 . S
H283 C270 0.961 . S
H284 C270 0.961 . S
H285 C271 0.958 . S
H286 C271 0.961 . S
H287 C271 0.960 . S
C288 C289 1.391 . S
C288 C290 1.394 . S
C288 H304 0.931 . S
C289 C288 1.391 . S
C289 C293 1.376 . S
C290 C288 1.394 . S
C290 C291 1.369 . S
C290 C294 1.531 . S
C291 C290 1.369 . S
C291 C292 1.410 . S
C291 C299 1.503 . S
C292 C291 1.410 . S
C292 C293 1.392 . S
C292 C295 1.511 . S
C293 C289 1.376 . S
C293 C292 1.392 . S
C293 H305 0.929 . S
C294 C290 1.531 . S
C294 H306 0.960 . S
C294 H307 0.962 . S
C294 H308 0.960 . S
C295 C292 1.511 . S
C295 H309 0.961 . S
C295 H310 0.961 . S
C295 H311 0.961 . S
C296 C297 1.370 . S
C296 C298 1.363 . S
C296 H312 0.931 . S
C297 C296 1.370 . S
C297 C301 1.408 . S
C298 C296 1.363 . S
C298 C299 1.370 . S
C298 C302 1.524 . S
C299 C291 1.503 . S
C299 C298 1.370 . S
C299 C300 1.403 . S
C300 C299 1.403 . S
C300 C301 1.404 . S
C300 C303 1.539 . S
C301 C297 1.408 . S
C301 C300 1.404 . S
C301 H313 0.930 . S
C302 C298 1.524 . S
C302 H314 0.956 . S
C302 H315 0.961 . S
C302 H316 0.961 . S
C303 C300 1.539 . S
C303 H317 0.958 . S
C303 H318 0.961 . S
C303 H319 0.960 . S
H304 C288 0.931 . S
H305 C293 0.929 . S
H306 C294 0.960 . S
H307 C294 0.962 . S
H308 C294 0.960 . S
H309 C295 0.961 . S
H310 C295 0.961 . S
H311 C295 0.961 . S
H312 C296 0.931 . S
H313 C301 0.930 . S
H314 C302 0.956 . S
H315 C302 0.961 . S
H316 C302 0.961 . S
H317 C303 0.958 . S
H318 C303 0.961 . S
H319 C303 0.960 . S
C320 C321 1.391 . S
C320 C322 1.394 . S
C320 H336 0.931 . S
C321 C320 1.391 . S
C321 C325 1.376 . S
C322 C320 1.394 . S
C322 C323 1.369 . S
C322 C326 1.531 . S
C323 C322 1.369 . S
C323 C324 1.410 . S
C323 C331 1.503 . S
C324 C323 1.410 . S
C324 C325 1.392 . S
C324 C327 1.511 . S
C325 C321 1.376 . S
C325 C324 1.392 . S
C325 H337 0.929 . S
C326 C322 1.531 . S
C326 H338 0.960 . S
C326 H339 0.962 . S
C326 H340 0.960 . S
C327 C324 1.511 . S
C327 H341 0.961 . S
C327 H342 0.961 . S
C327 H343 0.961 . S
C328 C329 1.370 . S
C328 C330 1.363 . S
C328 H344 0.931 . S
C329 C328 1.370 . S
C329 C333 1.408 . S
C330 C328 1.363 . S
C330 C331 1.370 . S
C330 C334 1.524 . S
C331 C323 1.503 . S
C331 C330 1.370 . S
C331 C332 1.403 . S
C332 C331 1.403 . S
C332 C333 1.404 . S
C332 C335 1.539 . S
C333 C329 1.408 . S
C333 C332 1.404 . S
C333 H345 0.930 . S
C334 C330 1.524 . S
C334 H346 0.956 . S
C334 H347 0.961 . S
C334 H348 0.961 . S
C335 C332 1.539 . S
C335 H349 0.958 . S
C335 H350 0.961 . S
C335 H351 0.960 . S
H336 C320 0.931 . S
H337 C325 0.929 . S
H338 C326 0.960 . S
H339 C326 0.962 . S
H340 C326 0.960 . S
H341 C327 0.961 . S
H342 C327 0.961 . S
H343 C327 0.961 . S
H344 C328 0.931 . S
H345 C333 0.930 . S
H346 C334 0.956 . S
H347 C334 0.961 . S
H348 C334 0.961 . S
H349 C335 0.958 . S
H350 C335 0.961 . S
H351 C335 0.960 . S
C352 C353 1.391 . S
C352 C354 1.394 . S
C352 H368 0.931 . S
C353 C352 1.391 . S
C353 C357 1.376 . S
C354 C352 1.394 . S
C354 C355 1.369 . S
C354 C358 1.531 . S
C355 C354 1.369 . S
C355 C356 1.410 . S
C355 C363 1.503 . S
C356 C355 1.410 . S
C356 C357 1.392 . S
C356 C359 1.511 . S
C357 C353 1.376 . S
C357 C356 1.392 . S
C357 H369 0.929 . S
C358 C354 1.531 . S
C358 H370 0.960 . S
C358 H371 0.962 . S
C358 H372 0.960 . S
C359 C356 1.511 . S
C359 H373 0.961 . S
C359 H374 0.961 . S
C359 H375 0.961 . S
C360 C361 1.370 . S
C360 C362 1.363 . S
C360 H376 0.931 . S
C361 C360 1.370 . S
C361 C365 1.408 . S
C362 C360 1.363 . S
C362 C363 1.370 . S
C362 C366 1.524 . S
C363 C355 1.503 . S
C363 C362 1.370 . S
C363 C364 1.403 . S
C364 C363 1.403 . S
C364 C365 1.404 . S
C364 C367 1.539 . S
C365 C361 1.408 . S
C365 C364 1.404 . S
C365 H377 0.930 . S
C366 C362 1.524 . S
C366 H378 0.956 . S
C366 H379 0.961 . S
C366 H380 0.961 . S
C367 C364 1.539 . S
C367 H381 0.958 . S
C367 H382 0.961 . S
C367 H383 0.960 . S
H368 C352 0.931 . S
H369 C357 0.929 . S
H370 C358 0.960 . S
H371 C358 0.962 . S
H372 C358 0.960 . S
H373 C359 0.961 . S
H374 C359 0.961 . S
H375 C359 0.961 . S
H376 C360 0.931 . S
H377 C365 0.930 . S
H378 C366 0.956 . S
H379 C366 0.961 . S
H380 C366 0.961 . S
H381 C367 0.958 . S
H382 C367 0.961 . S
H383 C367 0.960 . S
C384 C385 1.391 . S
C384 C386 1.394 . S
C384 H400 0.931 . S
C385 C384 1.391 . S
C385 C389 1.376 . S
C386 C384 1.394 . S
C386 C387 1.369 . S
C386 C390 1.531 . S
C387 C386 1.369 . S
C387 C388 1.410 . S
C387 C395 1.503 . S
C388 C387 1.410 . S
C388 C389 1.392 . S
C388 C391 1.511 . S
C389 C385 1.376 . S
C389 C388 1.392 . S
C389 H401 0.929 . S
C390 C386 1.531 . S
C390 H402 0.960 . S
C390 H403 0.962 . S
C390 H404 0.960 . S
C391 C388 1.511 . S
C391 H405 0.961 . S
C391 H406 0.961 . S
C391 H407 0.961 . S
C392 C393 1.370 . S
C392 C394 1.363 . S
C392 H408 0.931 . S
C393 C392 1.370 . S
C393 C397 1.408 . S
C394 C392 1.363 . S
C394 C395 1.370 . S
C394 C398 1.524 . S
C395 C387 1.503 . S
C395 C394 1.370 . S
C395 C396 1.403 . S
C396 C395 1.403 . S
C396 C397 1.404 . S
C396 C399 1.539 . S
C397 C393 1.408 . S
C397 C396 1.404 . S
C397 H409 0.930 . S
C398 C394 1.524 . S
C398 H410 0.956 . S
C398 H411 0.961 . S
C398 H412 0.961 . S
C399 C396 1.539 . S
C399 H413 0.958 . S
C399 H414 0.961 . S
C399 H415 0.960 . S
H400 C384 0.931 . S
H401 C389 0.929 . S
H402 C390 0.960 . S
H403 C390 0.962 . S
H404 C390 0.960 . S
H405 C391 0.961 . S
H406 C391 0.961 . S
H407 C391 0.961 . S
H408 C392 0.931 . S
H409 C397 0.930 . S
H410 C398 0.956 . S
H411 C398 0.961 . S
H412 C398 0.961 . S
H413 C399 0.958 . S
H414 C399 0.961 . S
H415 C399 0.960 . S
C416 C417 1.391 . S
C416 C418 1.394 . S
C416 H432 0.931 . S
C417 C416 1.391 . S
C417 C421 1.376 . S
C418 C416 1.394 . S
C418 C419 1.369 . S
C418 C422 1.531 . S
C419 C418 1.369 . S
C419 C420 1.410 . S
C419 C427 1.503 . S
C420 C419 1.410 . S
C420 C421 1.392 . S
C420 C423 1.511 . S
C421 C417 1.376 . S
C421 C420 1.392 . S
C421 H433 0.929 . S
C422 C418 1.531 . S
C422 H434 0.960 . S
C422 H435 0.962 . S
C422 H436 0.960 . S
C423 C420 1.511 . S
C423 H437 0.961 . S
C423 H438 0.961 . S
C423 H439 0.961 . S
C424 C425 1.370 . S
C424 C426 1.363 . S
C424 H440 0.931 . S
C425 C424 1.370 . S
C425 C429 1.408 . S
C426 C424 1.363 . S
C426 C427 1.370 . S
C426 C430 1.524 . S
C427 C419 1.503 . S
C427 C426 1.370 . S
C427 C428 1.403 . S
C428 C427 1.403 . S
C428 C429 1.404 . S
C428 C431 1.539 . S
C429 C425 1.408 . S
C429 C428 1.404 . S
C429 H441 0.930 . S
C430 C426 1.524 . S
C430 H442 0.956 . S
C430 H443 0.961 . S
C430 H444 0.961 . S
C431 C428 1.539 . S
C431 H445 0.958 . S
C431 H446 0.961 . S
C431 H447 0.960 . S
H432 C416 0.931 . S
H433 C421 0.929 . S
H434 C422 0.960 . S
H435 C422 0.962 . S
H436 C422 0.960 . S
H437 C423 0.961 . S
H438 C423 0.961 . S
H439 C423 0.961 . S
H440 C424 0.931 . S
H441 C429 0.930 . S
H442 C430 0.956 . S
H443 C430 0.961 . S
H444 C430 0.961 . S
H445 C431 0.958 . S
H446 C431 0.961 . S
H447 C431 0.960 . S
C448 C449 1.391 . S
C448 C450 1.394 . S
C448 H464 0.931 . S
C449 C448 1.391 . S
C449 C453 1.376 . S
C450 C448 1.394 . S
C450 C451 1.369 . S
C450 C454 1.531 . S
C451 C450 1.369 . S
C451 C452 1.410 . S
C451 C459 1.503 . S
C452 C451 1.410 . S
C452 C453 1.392 . S
C452 C455 1.511 . S
C453 C449 1.376 . S
C453 C452 1.392 . S
C453 H465 0.929 . S
C454 C450 1.531 . S
C454 H466 0.960 . S
C454 H467 0.962 . S
C454 H468 0.960 . S
C455 C452 1.511 . S
C455 H469 0.961 . S
C455 H470 0.961 . S
C455 H471 0.961 . S
C456 C457 1.370 . S
C456 C458 1.363 1_545 S
C456 H472 0.931 . S
C457 C456 1.370 . S
C457 C461 1.408 1_545 S
C458 C456 1.363 1_565 S
C458 C459 1.370 . S
C458 C462 1.524 . S
C459 C451 1.503 . S
C459 C458 1.370 . S
C459 C460 1.403 . S
C460 C459 1.403 . S
C460 C461 1.404 . S
C460 C463 1.539 . S
C461 C457 1.408 1_565 S
C461 C460 1.404 . S
C461 H473 0.930 . S
C462 C458 1.524 . S
C462 H474 0.956 . S
C462 H475 0.961 . S
C462 H476 0.961 . S
C463 C460 1.539 . S
C463 H477 0.958 . S
C463 H478 0.961 . S
C463 H479 0.960 . S
H464 C448 0.931 . S
H465 C453 0.929 . S
H466 C454 0.960 . S
H467 C454 0.962 . S
H468 C454 0.960 . S
H469 C455 0.961 . S
H470 C455 0.961 . S
H471 C455 0.961 . S
H472 C456 0.931 . S
H473 C461 0.930 . S
H474 C462 0.956 . S
H475 C462 0.961 . S
H476 C462 0.961 . S
H477 C463 0.958 . S
H478 C463 0.961 . S
H479 C463 0.960 . S
C480 C481 1.391 . S
C480 C482 1.394 . S
C480 H496 0.931 . S
C481 C480 1.391 . S
C481 C485 1.376 . S
C482 C480 1.394 . S
C482 C483 1.369 . S
C482 C486 1.531 . S
C483 C482 1.369 . S
C483 C484 1.410 . S
C483 C491 1.503 . S
C484 C483 1.410 . S
C484 C485 1.392 . S
C484 C487 1.511 . S
C485 C481 1.376 . S
C485 C484 1.392 . S
C485 H497 0.929 . S
C486 C482 1.531 . S
C486 H498 0.960 . S
C486 H499 0.962 . S
C486 H500 0.960 . S
C487 C484 1.511 . S
C487 H501 0.961 . S
C487 H502 0.961 . S
C487 H503 0.961 . S
C488 C489 1.370 . S
C488 C490 1.363 . S
C488 H504 0.931 . S
C489 C488 1.370 . S
C489 C493 1.408 . S
C490 C488 1.363 . S
C490 C491 1.370 . S
C490 C494 1.524 . S
C491 C483 1.503 . S
C491 C490 1.370 . S
C491 C492 1.403 . S
C492 C491 1.403 . S
C492 C493 1.404 . S
C492 C495 1.539 . S
C493 C489 1.408 . S
C493 C492 1.404 . S
C493 H505 0.930 . S
C494 C490 1.524 . S
C494 H506 0.956 . S
C494 H507 0.961 . S
C494 H508 0.961 . S
C495 C492 1.539 . S
C495 H509 0.958 . S
C495 H510 0.961 . S
C495 H511 0.960 . S
H496 C480 0.931 . S
H497 C485 0.929 . S
H498 C486 0.960 . S
H499 C486 0.962 . S
H500 C486 0.960 . S
H501 C487 0.961 . S
H502 C487 0.961 . S
H503 C487 0.961 . S
H504 C488 0.931 . S
H505 C493 0.930 . S
H506 C494 0.956 . S
H507 C494 0.961 . S
H508 C494 0.961 . S
H509 C495 0.958 . S
H510 C495 0.961 . S
H511 C495 0.960 . S
C512 C513 1.391 . S
C512 C514 1.394 . S
C512 H528 0.931 . S
C513 C512 1.391 . S
C513 C517 1.376 . S
C514 C512 1.394 . S
C514 C515 1.369 . S
C514 C518 1.531 . S
C515 C514 1.369 . S
C515 C516 1.410 . S
C515 C523 1.503 . S
C516 C515 1.410 . S
C516 C517 1.392 . S
C516 C519 1.511 . S
C517 C513 1.376 . S
C517 C516 1.392 . S
C517 H529 0.929 . S
C518 C514 1.531 . S
C518 H530 0.960 . S
C518 H531 0.962 . S
C518 H532 0.960 . S
C519 C516 1.511 . S
C519 H533 0.961 . S
C519 H534 0.961 . S
C519 H535 0.961 . S
C520 C521 1.370 . S
C520 C522 1.363 . S
C520 H536 0.931 . S
C521 C520 1.370 . S
C521 C525 1.408 . S
C522 C520 1.363 . S
C522 C523 1.370 . S
C522 C526 1.524 . S
C523 C515 1.503 . S
C523 C522 1.370 . S
C523 C524 1.403 . S
C524 C523 1.403 . S
C524 C525 1.404 . S
C524 C527 1.539 . S
C525 C521 1.408 . S
C525 C524 1.404 . S
C525 H537 0.930 . S
C526 C522 1.524 . S
C526 H538 0.956 . S
C526 H539 0.961 . S
C526 H540 0.961 . S
C527 C524 1.539 . S
C527 H541 0.958 . S
C527 H542 0.961 . S
C527 H543 0.960 . S
H528 C512 0.931 . S
H529 C517 0.929 . S
H530 C518 0.960 . S
H531 C518 0.962 . S
H532 C518 0.960 . S
H533 C519 0.961 . S
H534 C519 0.961 . S
H535 C519 0.961 . S
H536 C520 0.931 . S
H537 C525 0.930 . S
H538 C526 0.956 . S
H539 C526 0.961 . S
H540 C526 0.961 . S
H541 C527 0.958 . S
H542 C527 0.961 . S
H543 C527 0.960 . S
C544 C545 1.391 . S
C544 C546 1.394 . S
C544 H560 0.931 . S
C545 C544 1.391 . S
C545 C549 1.376 . S
C546 C544 1.394 . S
C546 C547 1.369 . S
C546 C550 1.531 . S
C547 C546 1.369 . S
C547 C548 1.410 . S
C547 C555 1.503 . S
C548 C547 1.410 . S
C548 C549 1.392 . S
C548 C551 1.511 . S
C549 C545 1.376 . S
C549 C548 1.392 . S
C549 H561 0.929 . S
C550 C546 1.531 . S
C550 H562 0.960 . S
C550 H563 0.962 . S
C550 H564 0.960 . S
C551 C548 1.511 . S
C551 H565 0.961 . S
C551 H566 0.961 . S
C551 H567 0.961 . S
C552 C553 1.370 . S
C552 C554 1.363 . S
C552 H568 0.931 . S
C553 C552 1.370 . S
C553 C557 1.408 . S
C554 C552 1.363 . S
C554 C555 1.370 . S
C554 C558 1.524 . S
C555 C547 1.503 . S
C555 C554 1.370 . S
C555 C556 1.403 . S
C556 C555 1.403 . S
C556 C557 1.404 . S
C556 C559 1.539 . S
C557 C553 1.408 . S
C557 C556 1.404 . S
C557 H569 0.930 . S
C558 C554 1.524 . S
C558 H570 0.956 . S
C558 H571 0.961 . S
C558 H572 0.961 . S
C559 C556 1.539 . S
C559 H573 0.958 . S
C559 H574 0.961 . S
C559 H575 0.960 . S
H560 C544 0.931 . S
H561 C549 0.929 . S
H562 C550 0.960 . S
H563 C550 0.962 . S
H564 C550 0.960 . S
H565 C551 0.961 . S
H566 C551 0.961 . S
H567 C551 0.961 . S
H568 C552 0.931 . S
H569 C557 0.930 . S
H570 C558 0.956 . S
H571 C558 0.961 . S
H572 C558 0.961 . S
H573 C559 0.958 . S
H574 C559 0.961 . S
H575 C559 0.960 . S
C576 C577 1.391 1_655 S
C576 C578 1.394 . S
C576 H592 0.931 . S
C577 C576 1.391 1_455 S
C577 C581 1.376 . S
C578 C576 1.394 . S
C578 C579 1.369 1_655 S
C578 C582 1.531 . S
C579 C578 1.369 1_455 S
C579 C580 1.410 . S
C579 C587 1.503 . S
C580 C579 1.410 . S
C580 C581 1.392 . S
C580 C583 1.511 . S
C581 C577 1.376 . S
C581 C580 1.392 . S
C581 H593 0.929 . S
C582 C578 1.531 . S
C582 H594 0.960 . S
C582 H595 0.962 . S
C582 H596 0.960 . S
C583 C580 1.511 . S
C583 H597 0.961 . S
C583 H598 0.961 . S
C583 H599 0.961 . S
C584 C585 1.370 1_655 S
C584 C586 1.363 . S
C584 H600 0.931 . S
C585 C584 1.370 1_455 S
C585 C589 1.408 . S
C586 C584 1.363 . S
C586 C587 1.370 1_656 S
C586 C590 1.524 1_556 S
C587 C579 1.503 . S
C587 C586 1.370 1_454 S
C587 C588 1.403 1_554 S
C588 C587 1.403 1_556 S
C588 C589 1.404 . S
C588 C591 1.539 . S
C589 C585 1.408 . S
C589 C588 1.404 . S
C589 H601 0.930 . S
C590 C586 1.524 1_554 S
C590 H602 0.956 . S
C590 H603 0.961 1_655 S
C590 H604 0.961 . S
C591 C588 1.539 . S
C591 H605 0.958 . S
C591 H606 0.961 . S
C591 H607 0.960 1_556 S
H592 C576 0.931 . S
H593 C581 0.929 . S
H594 C582 0.960 . S
H595 C582 0.962 . S
H596 C582 0.960 . S
H597 C583 0.961 . S
H598 C583 0.961 . S
H599 C583 0.961 . S
H600 C584 0.931 . S
H601 C589 0.930 . S
H602 C590 0.956 . S
H603 C590 0.961 1_455 S
H604 C590 0.961 . S
H605 C591 0.958 . S
H606 C591 0.961 . S
H607 C591 0.960 1_554 S
C608 C609 1.391 . S
C608 C610 1.394 . S
C608 H624 0.931 . S
C609 C608 1.391 . S
C609 C613 1.376 . S
C610 C608 1.394 . S
C610 C611 1.369 . S
C610 C614 1.531 . S
C611 C610 1.369 . S
C611 C612 1.410 . S
C611 C619 1.503 . S
C612 C611 1.410 . S
C612 C613 1.392 . S
C612 C615 1.511 . S
C613 C609 1.376 . S
C613 C612 1.392 . S
C613 H625 0.929 . S
C614 C610 1.531 . S
C614 H626 0.960 . S
C614 H627 0.962 . S
C614 H628 0.960 . S
C615 C612 1.511 . S
C615 H629 0.961 . S
C615 H630 0.961 . S
C615 H631 0.961 . S
C616 C617 1.370 . S
C616 C618 1.363 . S
C616 H632 0.931 . S
C617 C616 1.370 . S
C617 C621 1.408 . S
C618 C616 1.363 . S
C618 C619 1.370 . S
C618 C622 1.524 . S
C619 C611 1.503 . S
C619 C618 1.370 . S
C619 C620 1.403 . S
C620 C619 1.403 . S
C620 C621 1.404 . S
C620 C623 1.539 1_545 S
C621 C617 1.408 . S
C621 C620 1.404 . S
C621 H633 0.909 1_545 S
C622 C618 1.524 . S
C622 H634 0.956 . S
C622 H635 0.961 . S
C622 H636 0.961 . S
C623 C620 1.539 1_565 S
C623 H637 0.958 . S
C623 H638 0.961 . S
C623 H639 0.960 . S
H624 C608 0.931 . S
H625 C613 0.929 . S
H626 C614 0.960 . S
H627 C614 0.962 . S
H628 C614 0.960 . S
H629 C615 0.961 . S
H630 C615 0.961 . S
H631 C615 0.961 . S
H632 C616 0.931 . S
H633 C621 0.909 1_565 S
H634 C622 0.956 . S
H635 C622 0.961 . S
H636 C622 0.961 . S
H637 C623 0.958 . S
H638 C623 0.961 . S
H639 C623 0.960 . S
C640 C641 1.391 . S
C640 C642 1.394 . S
C640 H656 0.931 . S
C641 C640 1.391 . S
C641 C645 1.376 . S
C642 C640 1.394 . S
C642 C643 1.369 . S
C642 C646 1.531 . S
C643 C642 1.369 . S
C643 C644 1.410 . S
C643 C651 1.503 . S
C644 C643 1.410 . S
C644 C645 1.392 . S
C644 C647 1.511 . S
C645 C641 1.376 . S
C645 C644 1.392 . S
C645 H657 0.929 . S
C646 C642 1.531 . S
C646 H658 0.960 . S
C646 H659 0.962 . S
C646 H660 0.960 . S
C647 C644 1.511 . S
C647 H661 0.961 . S
C647 H662 0.961 . S
C647 H663 0.961 . S
C648 C649 1.370 . S
C648 C650 1.363 . S
C648 H664 0.931 . S
C649 C648 1.370 . S
C649 C653 1.408 . S
C650 C648 1.363 . S
C650 C651 1.370 . S
C650 C654 1.524 . S
C651 C643 1.503 . S
C651 C650 1.370 . S
C651 C652 1.403 . S
C652 C651 1.403 . S
C652 C653 1.404 . S
C652 C655 1.539 . S
C653 C649 1.408 . S
C653 C652 1.404 . S
C653 H665 0.930 . S
C654 C650 1.524 . S
C654 H666 0.956 . S
C654 H667 0.961 . S
C654 H668 0.961 . S
C655 C652 1.539 . S
C655 H669 0.958 . S
C655 H670 0.961 . S
C655 H671 0.960 . S
H656 C640 0.931 . S
H657 C645 0.929 . S
H658 C646 0.960 . S
H659 C646 0.962 . S
H660 C646 0.960 . S
H661 C647 0.961 . S
H662 C647 0.961 . S
H663 C647 0.961 . S
H664 C648 0.931 . S
H665 C653 0.930 . S
H666 C654 0.956 . S
H667 C654 0.961 . S
H668 C654 0.961 . S
H669 C655 0.958 . S
H670 C655 0.961 . S
H671 C655 0.960 . S
C672 C673 1.391 . S
C672 C674 1.394 . S
C672 H688 0.931 . S
C673 C672 1.391 . S
C673 C677 1.376 . S
C674 C672 1.394 . S
C674 C675 1.369 . S
C674 C678 1.531 . S
C675 C674 1.369 . S
C675 C676 1.410 . S
C675 C683 1.503 . S
C676 C675 1.410 . S
C676 C677 1.392 . S
C676 C679 1.511 1_545 S
C677 C673 1.376 . S
C677 C676 1.392 . S
C677 H689 0.929 1_545 S
C678 C674 1.531 . S
C678 H690 0.960 . S
C678 H691 0.962 . S
C678 H692 0.960 . S
C679 C676 1.511 1_565 S
C679 H693 0.961 . S
C679 H694 0.961 . S
C679 H695 0.936 1_565 S
C680 C681 1.384 . S
C680 C682 1.368 . S
C680 H696 0.913 1_545 S
C681 C680 1.384 . S
C681 C685 1.408 . S
C682 C680 1.368 . S
C682 C683 1.370 . S
C682 C686 1.524 1_545 S
C683 C675 1.503 . S
C683 C682 1.370 . S
C683 C684 1.403 . S
C684 C683 1.403 . S
C684 C685 1.404 . S
C684 C687 1.539 . S
C685 C681 1.408 . S
C685 C684 1.404 . S
C685 H697 0.930 . S
C686 C682 1.524 1_565 S
C686 H698 0.956 . S
C686 H699 0.961 . S
C686 H700 0.961 . S
C687 C684 1.539 . S
C687 H701 0.958 . S
C687 H702 0.961 . S
C687 H703 0.960 . S
H688 C672 0.931 . S
H689 C677 0.929 1_565 S
H690 C678 0.960 . S
H691 C678 0.962 . S
H692 C678 0.960 . S
H693 C679 0.961 . S
H694 C679 0.961 . S
H695 C679 0.936 1_545 S
H696 C680 0.913 1_565 S
H697 C685 0.930 . S
H698 C686 0.956 . S
H699 C686 0.961 . S
H700 C686 0.961 . S
H701 C687 0.958 . S
H702 C687 0.961 . S
H703 C687 0.960 . S
C704 C705 1.391 . S
C704 C706 1.394 . S
C704 H720 0.931 . S
C705 C704 1.391 . S
C705 C709 1.376 . S
C706 C704 1.394 . S
C706 C707 1.369 . S
C706 C710 1.531 . S
C707 C706 1.369 . S
C707 C708 1.410 . S
C707 C715 1.493 1_556 S
C708 C707 1.410 . S
C708 C709 1.392 . S
C708 C711 1.511 . S
C709 C705 1.376 . S
C709 C708 1.392 . S
C709 H721 0.929 . S
C710 C706 1.531 . S
C710 H722 0.960 . S
C710 H723 0.962 . S
C710 H724 0.960 . S
C711 C708 1.511 . S
C711 H725 0.961 . S
C711 H726 0.961 . S
C711 H727 0.961 . S
C712 C713 1.370 . S
C712 C714 1.363 . S
C712 H728 0.931 . S
C713 C712 1.370 . S
C713 C717 1.408 . S
C714 C712 1.363 . S
C714 C715 1.377 . S
C714 C718 1.524 . S
C715 C707 1.493 1_554 S
C715 C714 1.377 . S
C715 C716 1.407 . S
C716 C715 1.407 . S
C716 C717 1.404 . S
C716 C719 1.539 1_554 S
C717 C713 1.408 . S
C717 C716 1.404 . S
C717 H729 0.930 . S
C718 C714 1.524 . S
C718 H730 0.956 1_554 S
C718 H731 0.961 1_554 S
C718 H732 0.961 . S
C719 C716 1.539 1_556 S
C719 H733 0.958 . S
C719 H734 0.961 1_556 S
C719 H735 0.960 . S
H720 C704 0.931 . S
H721 C709 0.929 . S
H722 C710 0.960 . S
H723 C710 0.962 . S
H724 C710 0.960 . S
H725 C711 0.961 . S
H726 C711 0.961 . S
H727 C711 0.961 . S
H728 C712 0.931 . S
H729 C717 0.930 . S
H730 C718 0.956 1_556 S
H731 C718 0.961 1_556 S
H732 C718 0.961 . S
H733 C719 0.958 . S
H734 C719 0.961 1_554 S
H735 C719 0.960 . S
C736 C737 1.391 . S
C736 C738 1.394 . S
C736 H752 0.931 . S
C737 C736 1.391 . S
C737 C741 1.376 . S
C738 C736 1.394 . S
C738 C739 1.369 . S
C738 C742 1.531 . S
C739 C738 1.369 . S
C739 C740 1.410 . S
C739 C747 1.503 . S
C740 C739 1.410 . S
C740 C741 1.392 . S
C740 C743 1.511 1_455 S
C741 C737 1.376 . S
C741 C740 1.392 . S
C741 H753 0.929 1_455 S
C742 C738 1.531 . S
C742 H754 0.960 . S
C742 H755 0.962 . S
C742 H756 0.960 . S
C743 C740 1.511 1_655 S
C743 H757 0.961 . S
C743 H758 0.961 . S
C743 H759 0.961 . S
C744 C745 1.370 . S
C744 C746 1.363 . S
C744 H760 0.931 . S
C745 C744 1.370 . S
C745 C749 1.408 . S
C746 C744 1.363 . S
C746 C747 1.370 . S
C746 C750 1.524 . S
C747 C739 1.503 . S
C747 C746 1.370 . S
C747 C748 1.403 . S
C748 C747 1.403 . S
C748 C749 1.404 . S
C748 C751 1.539 1_455 S
C749 C745 1.408 . S
C749 C748 1.404 . S
C749 H761 0.930 . S
C750 C746 1.524 . S
C750 H762 0.956 . S
C750 H763 0.961 . S
C750 H764 0.961 . S
C751 C748 1.539 1_655 S
C751 H765 0.958 1_655 S
C751 H766 0.961 . S
C751 H767 0.960 . S
H752 C736 0.931 . S
H753 C741 0.929 1_655 S
H754 C742 0.960 . S
H755 C742 0.962 . S
H756 C742 0.960 . S
H757 C743 0.961 . S
H758 C743 0.961 . S
H759 C743 0.961 . S
H760 C744 0.931 . S
H761 C749 0.930 . S
H762 C750 0.956 . S
H763 C750 0.961 . S
H764 C750 0.961 . S
H765 C751 0.958 1_455 S
H766 C751 0.961 . S
H767 C751 0.960 . S
C193 C19 3.228 . S
C201 C186 3.250 . S
C225 C49 3.129 . S
C233 C160 3.052 . S
C257 C99 3.047 . S
C265 C172 2.986 . S
C289 C9 2.836 . S
C297 C184 2.742 . S
C329 C162 2.885 . S
C321 C59 2.902 . S
C361 C174 2.949 . S
C353 C89 2.979 . S
C385 C55 0.582 . S
C393 C136 0.530 . S
C417 C85 0.628 . S
C425 C150 0.503 . S
C449 C15 0.225 . S
C457 C126 0.211 . S
C489 C138 0.243 . S
C481 C45 0.492 . S
C521 C148 0.345 . S
C513 C95 0.243 . S
C545 C5 0.402 . S
C553 C124 0.341 . S
C585 C153 1.240 1_455 S
C577 C18 1.186 . S
C609 C58 1.153 . S
C617 C129 1.209 . S
C641 C98 1.217 . S
C649 C141 1.259 . S
C681 C177 1.735 . S
C673 C48 1.667 . S
C713 C189 1.824 . S
C705 C88 1.733 . S
C737 C8 1.702 . S
C745 C165 1.796 . S
