# Generated by pormake.
# Topology nom, (4,4)-cn, num edge types: 1
# Building blocks:
#     Node 0, Type 0, BuildingBlock: MUDLON_clean_linker_0, # of connection points: 4
#     Node 1, Type 0, BuildingBlock: MUDLON_clean_linker_0, # of connection points: 4
#     Node 2, Type 0, BuildingBlock: MUDLON_clean_linker_0, # of connection points: 4
#     Node 3, Type 0, BuildingBlock: MUDLON_clean_linker_0, # of connection points: 4
#     Node 4, Type 0, BuildingBlock: MUDLON_clean_linker_0, # of connection points: 4
#     Node 5, Type 0, BuildingBlock: MUDLON_clean_linker_0, # of connection points: 4
#     Node 6, Type 1, BuildingBlock: CEKHIL_clean_sbu_0, # of connection points: 4
#     Node 7, Type 1, BuildingBlock: CEKHIL_clean_sbu_0, # of connection points: 4
#     Node 8, Type 1, BuildingBlock: CEKHIL_clean_sbu_0, # of connection points: 4
#     Node 9, Type 1, BuildingBlock: CEKHIL_clean_sbu_0, # of connection points: 4
#     Node 10, Type 1, BuildingBlock: CEKHIL_clean_sbu_0, # of connection points: 4
#     Node 11, Type 1, BuildingBlock: CEKHIL_clean_sbu_0, # of connection points: 4
#     Edge 12, Type (0, 1), BuildingBlock: XUDNAN_clean_linker_2, # of connection points: 2
#     Edge 13, Type (0, 1), BuildingBlock: XUDNAN_clean_linker_2, # of connection points: 2
#     Edge 14, Type (0, 1), BuildingBlock: XUDNAN_clean_linker_2, # of connection points: 2
#     Edge 15, Type (0, 1), BuildingBlock: XUDNAN_clean_linker_2, # of connection points: 2
#     Edge 16, Type (0, 1), BuildingBlock: XUDNAN_clean_linker_2, # of connection points: 2
#     Edge 17, Type (0, 1), BuildingBlock: XUDNAN_clean_linker_2, # of connection points: 2
#     Edge 18, Type (0, 1), BuildingBlock: XUDNAN_clean_linker_2, # of connection points: 2
#     Edge 19, Type (0, 1), BuildingBlock: XUDNAN_clean_linker_2, # of connection points: 2
#     Edge 20, Type (0, 1), BuildingBlock: XUDNAN_clean_linker_2, # of connection points: 2
#     Edge 21, Type (0, 1), BuildingBlock: XUDNAN_clean_linker_2, # of connection points: 2
#     Edge 22, Type (0, 1), BuildingBlock: XUDNAN_clean_linker_2, # of connection points: 2
#     Edge 23, Type (0, 1), BuildingBlock: XUDNAN_clean_linker_2, # of connection points: 2
#     Edge 24, Type (0, 1), BuildingBlock: XUDNAN_clean_linker_2, # of connection points: 2
#     Edge 25, Type (0, 1), BuildingBlock: XUDNAN_clean_linker_2, # of connection points: 2
#     Edge 26, Type (0, 1), BuildingBlock: XUDNAN_clean_linker_2, # of connection points: 2
#     Edge 27, Type (0, 1), BuildingBlock: XUDNAN_clean_linker_2, # of connection points: 2
#     Edge 28, Type (0, 1), BuildingBlock: XUDNAN_clean_linker_2, # of connection points: 2
#     Edge 29, Type (0, 1), BuildingBlock: XUDNAN_clean_linker_2, # of connection points: 2
#     Edge 30, Type (0, 1), BuildingBlock: XUDNAN_clean_linker_2, # of connection points: 2
#     Edge 31, Type (0, 1), BuildingBlock: XUDNAN_clean_linker_2, # of connection points: 2
#     Edge 32, Type (0, 1), BuildingBlock: XUDNAN_clean_linker_2, # of connection points: 2
#     Edge 33, Type (0, 1), BuildingBlock: XUDNAN_clean_linker_2, # of connection points: 2
#     Edge 34, Type (0, 1), BuildingBlock: XUDNAN_clean_linker_2, # of connection points: 2
#     Edge 35, Type (0, 1), BuildingBlock: XUDNAN_clean_linker_2, # of connection points: 2
# Relax obj value: 0.008
# Max RMSD: 0.105
# Mean RMSD: 0.066
data_MOF--net-nom--node1-CEKHIL_clean_sbu_0--node2-MUDLON_clean_linker_0--edge1-XUDNAN_clean_linker_2
_symmetry_space_group_name_H-M    P1
_symmetry_Int_Tables_number       1
_symmetry_cell_setting            triclinic
loop_
_symmetry_equiv_pos_as_xyz
'x, y, z'
_cell_length_a     60.86641
_cell_length_b     61.169141
_cell_length_c     60.786213
_cell_angle_alpha  90.329128
_cell_angle_beta   89.845888
_cell_angle_gamma 121.52202
loop_
_atom_site_label
_atom_site_type_symbol
_atom_site_fract_x
_atom_site_fract_y
_atom_site_fract_z
_atom_type_partial_charge
H0 H 0.14326 0.55653 0.32903 0.0
N1 N 0.1009 0.55744 0.33738 0.0
H2 H 0.18091 0.58731 0.30835 0.0
H3 H 0.10483 0.59656 0.3118 0.0
H4 H 0.14111 0.62573 0.28906 0.0
H5 H 0.12406 0.60323 0.35943 0.0
H6 H 0.14676 0.61231 0.39443 0.0
H7 H 0.09716 0.52301 0.36613 0.0
H8 H 0.11887 0.53162 0.40177 0.0
H9 H 0.06707 0.51981 0.31149 0.0
H10 H 0.07684 0.58246 0.35183 0.0
H11 H 0.02417 0.51016 0.30059 0.0
H12 H 0.03394 0.5729 0.34107 0.0
H13 H 0.91952 0.4753 0.27617 0.0
H14 H 0.90128 0.4532 0.24139 0.0
H15 H 0.89548 0.51702 0.21934 0.0
H16 H 0.91352 0.53899 0.2546 0.0
H17 H 0.89484 0.53782 0.29816 0.0
H18 H 0.85271 0.51348 0.31616 0.0
H19 H 0.86776 0.45366 0.3316 0.0
H20 H 0.90962 0.47795 0.31347 0.0
H21 H 0.96646 0.52432 0.26478 0.0
H22 H 0.00737 0.53205 0.27792 0.0
H23 H 0.98686 0.53947 0.3443 0.0
N24 N 0.92688 0.52163 0.28914 0.0
H25 H 0.94542 0.53147 0.33133 0.0
C26 C 0.12107 0.57396 0.32209 0.0
C27 C 0.14266 0.57154 0.32018 0.0
C28 C 0.16421 0.58918 0.30809 0.0
C29 C 0.16449 0.60941 0.29684 0.0
C30 C 0.14222 0.61104 0.29789 0.0
C31 C 0.12101 0.5939 0.31069 0.0
C32 C 0.10901 0.56238 0.36011 0.0
C33 C 0.1223 0.58742 0.36885 0.0
C34 C 0.13531 0.59257 0.38894 0.0
C35 C 0.13508 0.57276 0.40085 0.0
C36 C 0.12007 0.54746 0.39282 0.0
C37 C 0.10729 0.5424 0.37262 0.0
C38 C 0.07513 0.55164 0.33256 0.0
C39 C 0.05983 0.53132 0.31814 0.0
C40 C 0.03542 0.52595 0.31185 0.0
C41 C 0.02565 0.54079 0.31993 0.0
C42 C 0.04078 0.56092 0.33475 0.0
C43 C 0.06537 0.56643 0.34091 0.0
C44 C 0.91817 0.50903 0.26793 0.0
C45 C 0.91445 0.48463 0.26387 0.0
C46 C 0.90412 0.47207 0.2439 0.0
C47 C 0.89703 0.48342 0.22756 0.0
C48 C 0.90062 0.50773 0.23165 0.0
C49 C 0.91114 0.5204 0.25164 0.0
C50 C 0.90535 0.50975 0.30429 0.0
C51 C 0.88933 0.51982 0.30603 0.0
C52 C 0.86527 0.50587 0.31631 0.0
C53 C 0.85673 0.48146 0.325 0.0
C54 C 0.87359 0.47221 0.32468 0.0
C55 C 0.89762 0.48615 0.31441 0.0
C56 C 0.9512 0.52507 0.29711 0.0
C57 C 0.96992 0.52658 0.28232 0.0
C58 C 0.99371 0.53129 0.28982 0.0
C59 C 1.00016 0.53574 0.31223 0.0
C60 C 0.98233 0.53574 0.32695 0.0
C61 C 0.95834 0.53076 0.31949 0.0
H62 H 0.48659 0.88981 0.46558 0.0
N63 N 0.47883 0.92486 0.44792 0.0
H64 H 0.45667 0.85321 0.48833 0.0
H65 H 0.43311 0.91588 0.4649 0.0
H66 H 0.4028 0.8791 0.48681 0.0
H67 H 0.43294 0.90596 0.42588 0.0
H68 H 0.42131 0.88235 0.39143 0.0
H69 H 0.51079 0.9227 0.41937 0.0
H70 H 0.49949 0.89967 0.38416 0.0
H71 H 0.51587 0.95724 0.47491 0.0
H72 H 0.4556 0.95056 0.43296 0.0
H73 H 0.52555 0.99962 0.48717 0.0
H74 H 0.46519 0.99272 0.44507 0.0
H75 H 0.55051 0.10118 0.52349 0.0
H76 H 0.56412 0.11999 0.56009 0.0
H77 H 0.49448 0.12216 0.56642 0.0
H78 H 0.48053 0.10211 0.53024 0.0
H79 H 0.49066 0.12313 0.48791 0.0
H80 H 0.51618 0.1666 0.4733 0.0
H81 H 0.5833 0.15971 0.47149 0.0
H82 H 0.55758 0.11627 0.4863 0.0
H83 H 0.50619 0.05391 0.52461 0.0
H84 H 0.50155 0.01492 0.50992 0.0
H85 H 0.49963 0.03949 0.44398 0.0
N86 N 0.50785 0.09345 0.50122 0.0
H87 H 0.50466 0.07904 0.45851 0.0
C88 C 0.46221 0.90559 0.46359 0.0
C89 C 0.46853 0.88777 0.4706 0.0
C90 C 0.45127 0.86674 0.48335 0.0
C91 C 0.42719 0.86305 0.48924 0.0
C92 C 0.42127 0.88145 0.48282 0.0
C93 C 0.4386 0.90254 0.47018 0.0
C94 C 0.47288 0.91612 0.42537 0.0
C95 C 0.44783 0.90531 0.41673 0.0
C96 C 0.44115 0.89175 0.39686 0.0
C97 C 0.45935 0.88874 0.38511 0.0
C98 C 0.48484 0.90113 0.39301 0.0
C99 C 0.49146 0.9146 0.41297 0.0
C100 C 0.48518 0.95065 0.45295 0.0
C101 C 0.50496 0.96505 0.46814 0.0
C102 C 0.51035 0.98914 0.47522 0.0
C103 C 0.4961 0.99947 0.46711 0.0
C104 C 0.4767 0.98538 0.45143 0.0
C105 C 0.47115 0.96114 0.4445 0.0
C106 C 0.51429 0.10001 0.52418 0.0
C107 C 0.53789 0.10512 0.533 0.0
C108 C 0.54579 0.11619 0.55388 0.0
C109 C 0.53061 0.12301 0.5662 0.0
C110 C 0.50657 0.11692 0.55765 0.0
C111 C 0.49852 0.10546 0.53693 0.0
C112 C 0.52214 0.11651 0.48828 0.0
C113 C 0.5107 0.13079 0.48379 0.0
C114 C 0.52535 0.15563 0.47546 0.0
C115 C 0.55186 0.16674 0.47148 0.0
C116 C 0.56303 0.15186 0.47478 0.0
C117 C 0.54832 0.12696 0.48309 0.0
C118 C 0.50762 0.07094 0.49277 0.0
C119 C 0.50589 0.05184 0.50693 0.0
C120 C 0.50296 0.02914 0.49851 0.0
C121 C 0.50065 0.02429 0.47577 0.0
C122 C 0.50159 0.04278 0.46159 0.0
C123 C 0.50483 0.06564 0.46996 0.0
H124 H 0.48522 0.60523 0.66352 0.0
N125 N 0.4701 0.55697 0.67178 0.0
H126 H 0.45946 0.62094 0.64701 0.0
H127 H 0.42602 0.52767 0.64707 0.0
H128 H 0.40025 0.54332 0.63054 0.0
H129 H 0.42149 0.5271 0.68854 0.0
H130 H 0.40743 0.53102 0.72509 0.0
H131 H 0.50017 0.58264 0.70577 0.0
H132 H 0.4866 0.58561 0.743 0.0
H133 H 0.51708 0.56823 0.66103 0.0
H134 H 0.43896 0.50483 0.6673 0.0
H135 H 0.53118 0.5387 0.65132 0.0
H136 H 0.45216 0.47527 0.65572 0.0
H137 H 0.57165 0.45421 0.6153 0.0
H138 H 0.59043 0.45595 0.57924 0.0
H139 H 0.51472 0.41906 0.54996 0.0
H140 H 0.49582 0.4164 0.58634 0.0
H141 H 0.49365 0.38078 0.63203 0.0
H142 H 0.50536 0.35643 0.65614 0.0
H143 H 0.57325 0.42701 0.67704 0.0
H144 H 0.56082 0.45133 0.65339 0.0
H145 H 0.54573 0.48243 0.61473 0.0
H146 H 0.53306 0.51258 0.62537 0.0
H147 H 0.47235 0.45435 0.666 0.0
N148 N 0.52008 0.43093 0.62487 0.0
H149 H 0.48378 0.42367 0.65362 0.0
C150 C 0.45769 0.56535 0.65672 0.0
C151 C 0.46713 0.59168 0.65563 0.0
C152 C 0.45232 0.60059 0.64635 0.0
C153 C 0.42773 0.58328 0.63777 0.0
C154 C 0.41918 0.55705 0.63699 0.0
C155 C 0.43398 0.5481 0.64649 0.0
C156 C 0.46192 0.55494 0.69434 0.0
C157 C 0.43585 0.53967 0.7004 0.0
C158 C 0.42785 0.54184 0.72146 0.0
C159 C 0.44578 0.559 0.73703 0.0
C160 C 0.4721 0.57277 0.73132 0.0
C161 C 0.48 0.57086 0.71016 0.0
C162 C 0.47697 0.5389 0.66439 0.0
C163 C 0.50288 0.54792 0.65975 0.0
C164 C 0.51084 0.53092 0.65407 0.0
C165 C 0.49291 0.50435 0.65255 0.0
C166 C 0.46677 0.49543 0.65702 0.0
C167 C 0.45896 0.51244 0.66321 0.0
C168 C 0.53213 0.43461 0.60359 0.0
C169 C 0.55901 0.44634 0.60123 0.0
C170 C 0.56978 0.44745 0.5806 0.0
C171 C 0.554 0.43754 0.5619 0.0
C172 C 0.52732 0.42694 0.56413 0.0
C173 C 0.51651 0.42535 0.58482 0.0
C174 C 0.52647 0.4177 0.64077 0.0
C175 C 0.51081 0.39097 0.64211 0.0
C176 C 0.51749 0.37715 0.65588 0.0
C177 C 0.54026 0.38985 0.66837 0.0
C178 C 0.55569 0.41677 0.66745 0.0
C179 C 0.54867 0.43064 0.65396 0.0
C180 C 0.51551 0.45044 0.63317 0.0
C181 C 0.52966 0.47602 0.62589 0.0
C182 C 0.52246 0.49348 0.63222 0.0
C183 C 0.50136 0.48606 0.64644 0.0
C184 C 0.48813 0.46078 0.6545 0.0
C185 C 0.49492 0.44321 0.64773 0.0
H186 H 0.13199 0.58694 0.82239 0.0
N187 N 0.10531 0.55036 0.79278 0.0
H188 H 0.16868 0.59323 0.84442 0.0
H189 H 0.12248 0.51699 0.79582 0.0
H190 H 0.15816 0.52266 0.81819 0.0
H191 H 0.10753 0.52025 0.76034 0.0
H192 H 0.13399 0.53646 0.72696 0.0
H193 H 0.12443 0.59638 0.77559 0.0
H194 H 0.15043 0.61262 0.74217 0.0
H195 H 0.06955 0.56149 0.80145 0.0
H196 H 0.08008 0.49768 0.79223 0.0
H197 H 0.02423 0.53189 0.81043 0.0
H198 H 0.03578 0.46818 0.80288 0.0
H199 H 0.90284 0.45361 0.85098 0.0
H200 H 0.88354 0.45292 0.88636 0.0
H201 H 0.90969 0.40485 0.91273 0.0
H202 H 0.92783 0.40469 0.87678 0.0
H203 H 0.88493 0.37658 0.8368 0.0
H204 H 0.84641 0.35901 0.81351 0.0
H205 H 0.87628 0.4334 0.78419 0.0
H206 H 0.91436 0.45121 0.80817 0.0
H207 H 0.95437 0.47627 0.85106 0.0
H208 H 0.99761 0.50603 0.83811 0.0
H209 H 0.9928 0.44753 0.79448 0.0
N210 N 0.92367 0.42494 0.83956 0.0
H211 H 0.95012 0.41713 0.80896 0.0
C212 C 0.12397 0.55123 0.80787 0.0
C213 C 0.1373 0.57259 0.82181 0.0
C214 C 0.15831 0.57625 0.83419 0.0
C215 C 0.16612 0.55835 0.83304 0.0
C216 C 0.15226 0.53652 0.81964 0.0
C217 C 0.13159 0.53314 0.80696 0.0
C218 C 0.11433 0.5573 0.77055 0.0
C219 C 0.11626 0.54027 0.75617 0.0
C220 C 0.13132 0.54953 0.73708 0.0
C221 C 0.14463 0.57586 0.73227 0.0
C222 C 0.14072 0.5923 0.7457 0.0
C223 C 0.12572 0.58306 0.76465 0.0
C224 C 0.0784 0.53199 0.79655 0.0
C225 C 0.06207 0.54107 0.80148 0.0
C226 C 0.03621 0.52407 0.80687 0.0
C227 C 0.02614 0.49747 0.80779 0.0
C228 C 0.04251 0.48841 0.80219 0.0
C229 C 0.06823 0.50543 0.79636 0.0
C230 C 0.91652 0.42889 0.86122 0.0
C231 C 0.90467 0.44319 0.86446 0.0
C232 C 0.89377 0.44289 0.88481 0.0
C233 C 0.89471 0.42852 0.9024 0.0
C234 C 0.90804 0.41561 0.89943 0.0
C235 C 0.91872 0.41573 0.87901 0.0
C236 C 0.90265 0.41501 0.82402 0.0
C237 C 0.88326 0.38902 0.82521 0.0
C238 C 0.86129 0.37909 0.81207 0.0
C239 C 0.85856 0.39494 0.79718 0.0
C240 C 0.87815 0.42087 0.79554 0.0
C241 C 0.89991 0.43097 0.8091 0.0
C242 C 0.94886 0.44404 0.83124 0.0
C243 C 0.96248 0.46961 0.83882 0.0
C244 C 0.98736 0.48691 0.83111 0.0
C245 C 0.99907 0.47935 0.81523 0.0
C246 C 0.98493 0.45404 0.80711 0.0
C247 C 0.96034 0.43662 0.8152 0.0
H248 H 0.55944 0.14991 0.94785 0.0
N249 N 0.55453 0.104 0.94771 0.0
H250 H 0.58915 0.18751 0.96941 0.0
H251 H 0.58192 0.10448 0.98464 0.0
H252 H 0.60982 0.1412 0.00725 0.0
H253 H 0.60451 0.12362 0.93492 0.0
H254 H 0.62284 0.14122 0.89901 0.0
H255 H 0.52912 0.10255 0.91151 0.0
H256 H 0.54744 0.12031 0.87522 0.0
H257 H 0.50776 0.06729 0.96069 0.0
H258 H 0.58408 0.08199 0.94844 0.0
H259 H 0.49346 0.02325 0.97131 0.0
H260 H 0.57043 0.03872 0.95973 0.0
H261 H 0.45877 0.91138 0.01725 0.0
H262 H 0.44499 0.89481 0.05431 0.0
H263 H 0.52173 0.91055 0.06819 0.0
H264 H 0.53561 0.92928 0.03182 0.0
H265 H 0.52209 0.89576 0.99437 0.0
H266 H 0.49994 0.85427 0.97522 0.0
H267 H 0.44103 0.86852 0.95385 0.0
H268 H 0.46283 0.90978 0.97387 0.0
H269 H 0.48569 0.95755 0.01325 0.0
H270 H 0.49685 0.99911 0.99958 0.0
H271 H 0.54617 0.99507 0.95053 0.0
N272 N 0.50615 0.92837 0.99933 0.0
H273 H 0.53583 0.95365 0.9651 0.0
C274 C 0.56865 0.12425 0.96388 0.0
C275 C 0.57028 0.14784 0.96091 0.0
C276 C 0.58725 0.16939 0.97344 0.0
C277 C 0.60257 0.1678 0.98989 0.0
C278 C 0.59927 0.14362 0.99415 0.0
C279 C 0.58286 0.12224 0.98118 0.0
C280 C 0.56526 0.11137 0.92583 0.0
C281 C 0.59174 0.12206 0.92184 0.0
C282 C 0.60224 0.13228 0.90127 0.0
C283 C 0.58661 0.13221 0.88424 0.0
C284 C 0.56003 0.12088 0.88807 0.0
C285 C 0.54949 0.1105 0.90866 0.0
C286 C 0.54691 0.07808 0.95375 0.0
C287 C 0.52144 0.06104 0.96035 0.0
C288 C 0.51337 0.0359 0.96655 0.0
C289 C 0.53074 0.02722 0.96644 0.0
C290 C 0.55628 0.04436 0.95963 0.0
C291 C 0.56423 0.06936 0.95322 0.0
C292 C 0.49844 0.92218 0.02201 0.0
C293 C 0.47279 0.91212 0.02864 0.0
C294 C 0.46484 0.90212 0.04977 0.0
C295 C 0.48206 0.90089 0.06446 0.0
C296 C 0.50788 0.91152 0.05778 0.0
C297 C 0.51595 0.92223 0.0369 0.0
C298 C 0.49434 0.90596 0.9853 0.0
C299 C 0.50457 0.89007 0.98533 0.0
C300 C 0.49182 0.86635 0.97461 0.0
C301 C 0.46877 0.85826 0.96325 0.0
C302 C 0.45881 0.87445 0.96255 0.0
C303 C 0.47131 0.89802 0.97379 0.0
C304 C 0.50996 0.95204 0.99028 0.0
C305 C 0.49873 0.96516 0.99946 0.0
C306 C 0.50508 0.98921 0.99147 0.0
C307 C 0.5226 1.00077 0.97397 0.0
C308 C 0.53305 0.98718 0.96432 0.0
C309 C 0.52693 0.96329 0.97248 0.0
H310 H 0.57765 0.45544 0.15983 0.0
N311 N 0.59749 0.5041 0.17604 0.0
H312 H 0.60055 0.44076 0.13681 0.0
H313 H 0.64243 0.533 0.15614 0.0
H314 H 0.66571 0.51855 0.13349 0.0
H315 H 0.63247 0.51301 0.20631 0.0
H316 H 0.62747 0.48696 0.23825 0.0
H317 H 0.55142 0.46449 0.19208 0.0
H318 H 0.54577 0.43943 0.22478 0.0
H319 H 0.55254 0.47485 0.15285 0.0
H320 H 0.60195 0.54918 0.18223 0.0
H321 H 0.52252 0.48774 0.14153 0.0
H322 H 0.57264 0.56278 0.17017 0.0
H323 H 0.42317 0.52945 0.11306 0.0
H324 H 0.41146 0.53691 0.07678 0.0
H325 H 0.49219 0.58665 0.06098 0.0
H326 H 0.50361 0.57965 0.09769 0.0
H327 H 0.50606 0.60432 0.12936 0.0
H328 H 0.49946 0.63889 0.14108 0.0
H329 H 0.42716 0.58326 0.17095 0.0
H330 H 0.43328 0.54861 0.1583 0.0
H331 H 0.48416 0.52453 0.10746 0.0
H332 H 0.51587 0.51364 0.11718 0.0
H333 H 0.53165 0.5565 0.17779 0.0
N334 N 0.46973 0.55295 0.13116 0.0
H335 H 0.50091 0.56839 0.16776 0.0
C336 C 0.60838 0.49545 0.15957 0.0
C337 C 0.59658 0.46941 0.15365 0.0
C338 C 0.60983 0.46098 0.14072 0.0
C339 C 0.63505 0.47843 0.13342 0.0
C340 C 0.64622 0.5046 0.13857 0.0
C341 C 0.63299 0.51296 0.1515 0.0
C342 C 0.59246 0.49095 0.19679 0.0
C343 C 0.61342 0.49721 0.21052 0.0
C344 C 0.61045 0.48228 0.22888 0.0
C345 C 0.5862 0.46083 0.23418 0.0
C346 C 0.56487 0.45539 0.22101 0.0
C347 C 0.568 0.47004 0.20236 0.0
C348 C 0.57948 0.51107 0.16857 0.0
C349 C 0.55704 0.49403 0.15675 0.0
C350 C 0.53995 0.50156 0.15009 0.0
C351 C 0.54505 0.52638 0.1549 0.0
C352 C 0.56775 0.54341 0.16648 0.0
C353 C 0.58465 0.53576 0.17328 0.0
C354 C 0.46415 0.55382 0.10814 0.0
C355 C 0.43832 0.54146 0.10155 0.0
C356 C 0.4317 0.54579 0.08075 0.0
C357 C 0.45087 0.56254 0.06589 0.0
C358 C 0.47689 0.57402 0.07211 0.0
C359 C 0.48348 0.56981 0.09304 0.0
C360 C 0.46985 0.57379 0.14266 0.0
C361 C 0.48901 0.59957 0.13874 0.0
C362 C 0.48528 0.6193 0.14547 0.0
C363 C 0.46273 0.61362 0.15674 0.0
C364 C 0.44476 0.58809 0.16238 0.0
C365 C 0.44823 0.56834 0.15523 0.0
C366 C 0.4908 0.54885 0.13599 0.0
C367 C 0.49502 0.53253 0.12249 0.0
C368 C 0.51294 0.52578 0.1283 0.0
C369 C 0.52665 0.53436 0.14821 0.0
C370 C 0.52211 0.55013 0.162 0.0
C371 C 0.50437 0.55707 0.15611 0.0
Co372 Co 0.63975 0.378 0.39692 0.0
O373 O 0.65927 0.3713 0.37606 0.0
O374 O 0.67279 0.40914 0.39137 0.0
C375 C 0.62837 0.34295 0.41749 0.0
O376 O 0.62532 0.39183 0.4198 0.0
Co377 Co 0.58107 0.33943 0.40275 0.0
O378 O 0.58505 0.36059 0.429 0.0
C379 C 0.60029 0.37251 0.36347 0.0
C380 C 0.6775 0.3951 0.37833 0.0
C381 C 0.60492 0.38284 0.43176 0.0
O382 O 0.62286 0.38586 0.37218 0.0
O383 O 0.58187 0.35201 0.37212 0.0
O384 O 0.65053 0.36394 0.42045 0.0
O385 O 0.61469 0.34338 0.40151 0.0
Co386 Co 0.28884 0.65232 0.56565 0.0
O387 O 0.31448 0.65988 0.58759 0.0
O388 O 0.29625 0.62497 0.56672 0.0
C389 C 0.30982 0.692 0.55088 0.0
O390 O 0.26215 0.63863 0.54078 0.0
Co391 Co 0.25958 0.68146 0.56583 0.0
O392 O 0.2456 0.66384 0.53733 0.0
C393 C 0.25049 0.6444 0.60064 0.0
C394 C 0.31247 0.63834 0.58233 0.0
C395 C 0.24785 0.64528 0.53077 0.0
O396 O 0.26134 0.63506 0.58896 0.0
O397 O 0.25031 0.66453 0.5954 0.0
O398 O 0.31559 0.67519 0.54478 0.0
O399 O 0.29298 0.6848 0.5664 0.0
Co400 Co 0.64239 0.27678 0.72662 0.0
O401 O 0.63887 0.30169 0.71042 0.0
O402 O 0.61149 0.27611 0.73581 0.0
C403 C 0.6846 0.30302 0.73437 0.0
O404 O 0.64036 0.24962 0.74737 0.0
Co405 Co 0.67901 0.25928 0.70986 0.0
O406 O 0.67186 0.24218 0.73889 0.0
C407 C 0.62906 0.24006 0.68793 0.0
C408 C 0.61799 0.29436 0.7216 0.0
C409 C 0.65344 0.23893 0.75124 0.0
O410 O 0.6223 0.24996 0.70328 0.0
O411 O 0.65171 0.24366 0.68649 0.0
O412 O 0.66725 0.30353 0.7465 0.0
O413 O 0.67608 0.28845 0.71719 0.0
Co414 Co 0.38045 0.63944 0.90308 0.0
O415 O 0.35633 0.64028 0.88295 0.0
O416 O 0.34689 0.60905 0.90646 0.0
C417 C 0.39796 0.68056 0.91437 0.0
O418 O 0.39803 0.63097 0.92699 0.0
Co419 Co 0.43914 0.67295 0.90069 0.0
O420 O 0.44044 0.65878 0.92968 0.0
C421 C 0.41103 0.63006 0.8691 0.0
C422 C 0.33911 0.61836 0.89132 0.0
C423 C 0.41979 0.63917 0.9365 0.0
O424 O 0.3901 0.62194 0.88013 0.0
O425 O 0.43199 0.65113 0.87361 0.0
O426 O 0.37682 0.66238 0.92323 0.0
O427 O 0.40759 0.67366 0.89879 0.0
Co428 Co 0.7491 0.37738 0.06902 0.0
O429 O 0.7257 0.37929 0.08965 0.0
O430 O 0.75044 0.40919 0.06556 0.0
C431 C 0.72146 0.33678 0.0572 0.0
O432 O 0.7743 0.38325 0.04437 0.0
Co433 Co 0.76791 0.33916 0.07102 0.0
O434 O 0.78219 0.35148 0.04119 0.0
C435 C 0.79131 0.38477 0.10048 0.0
C436 C 0.733 0.40141 0.08078 0.0
C437 C 0.78456 0.37222 0.03432 0.0
O438 O 0.77818 0.39334 0.09136 0.0
O439 O 0.78863 0.36313 0.09551 0.0
O440 O 0.72002 0.35573 0.0494 0.0
O441 O 0.73805 0.34259 0.07275 0.0
Co442 Co 0.37659 0.74094 0.21833 0.0
O443 O 0.37421 0.71939 0.19401 0.0
O444 O 0.40457 0.73478 0.21973 0.0
C445 C 0.33489 0.71795 0.22871 0.0
O446 O 0.38539 0.76301 0.24588 0.0
Co447 Co 0.34712 0.76983 0.21822 0.0
O448 O 0.36169 0.78135 0.24823 0.0
C449 C 0.3915 0.78636 0.18892 0.0
C450 C 0.39481 0.72107 0.20202 0.0
C451 C 0.37854 0.77707 0.25595 0.0
O452 O 0.3978 0.77238 0.19966 0.0
O453 O 0.3704 0.78578 0.19207 0.0
O454 O 0.35082 0.71103 0.23478 0.0
O455 O 0.34394 0.73675 0.21498 0.0
H456 H 0.20286 0.60413 0.27734 0.0
H457 H 0.18112 0.66049 0.28986 0.0
H458 H 0.2207 0.69327 0.27161 0.0
H459 H 0.2688 0.64651 0.29161 0.0
H460 H 0.28077 0.63348 0.27152 0.0
H461 H 0.24912 0.61345 0.28309 0.0
H462 H 0.22937 0.60277 0.24393 0.0
H463 H 0.26097 0.62279 0.23223 0.0
H464 H 0.23554 0.62851 0.22567 0.0
H465 H 0.26316 0.72043 0.25215 0.0
H466 H 0.30688 0.74043 0.23613 0.0
H467 H 0.3035 0.66805 0.24115 0.0
C468 C 0.20625 0.62331 0.27651 0.0
C469 C 0.18823 0.62926 0.285 0.0
C470 C 0.19382 0.65482 0.283 0.0
C471 C 0.21652 0.67381 0.2728 0.0
C472 C 0.23384 0.66724 0.26499 0.0
C473 C 0.22914 0.64269 0.26699 0.0
C474 C 0.25177 0.64106 0.25877 0.0
C475 C 0.2633 0.63317 0.27736 0.0
C476 C 0.24393 0.62269 0.23897 0.0
C477 C 0.27001 0.66861 0.25195 0.0
C478 C 0.25909 0.68329 0.25526 0.0
C479 C 0.27197 0.70916 0.24962 0.0
C480 C 0.29674 0.72034 0.24051 0.0
C481 C 0.30854 0.70581 0.23764 0.0
C482 C 0.29498 0.67964 0.24345 0.0
H483 H 0.54032 0.19355 0.44235 0.0
H484 H 0.59967 0.20234 0.4874 0.0
H485 H 0.62531 0.24868 0.47933 0.0
H486 H 0.58291 0.23904 0.40208 0.0
H487 H 0.56183 0.25075 0.39627 0.0
H488 H 0.54855 0.21825 0.40537 0.0
H489 H 0.52562 0.22641 0.43754 0.0
H490 H 0.53904 0.25902 0.42865 0.0
H491 H 0.54435 0.25256 0.45639 0.0
H492 H 0.64408 0.29442 0.4669 0.0
H493 H 0.65563 0.33542 0.44921 0.0
H494 H 0.58363 0.29654 0.41286 0.0
C495 C 0.55869 0.20521 0.45055 0.0
C496 C 0.568 0.19427 0.46546 0.0
C497 C 0.5923 0.21019 0.47564 0.0
C498 C 0.60691 0.23658 0.47133 0.0
C499 C 0.59697 0.24678 0.45679 0.0
C500 C 0.5735 0.23156 0.44644 0.0
C501 C 0.56723 0.24719 0.4314 0.0
C502 C 0.56501 0.23828 0.40736 0.0
C503 C 0.5426 0.24623 0.43895 0.0
C504 C 0.59084 0.2736 0.43488 0.0
C505 C 0.60773 0.27302 0.44966 0.0
C506 C 0.631 0.29511 0.4553 0.0
C507 C 0.63736 0.3183 0.44524 0.0
C508 C 0.62053 0.31915 0.4297 0.0
C509 C 0.59686 0.29652 0.42473 0.0
H510 H 0.39873 0.57543 0.60013 0.0
H511 H 0.41621 0.61112 0.66477 0.0
H512 H 0.3868 0.62665 0.658 0.0
H513 H 0.39637 0.62629 0.5728 0.0
H514 H 0.37031 0.60536 0.55459 0.0
H515 H 0.39184 0.5958 0.56469 0.0
H516 H 0.35293 0.55398 0.58005 0.0
H517 H 0.33128 0.56345 0.57005 0.0
H518 H 0.33088 0.55584 0.59871 0.0
H519 H 0.35749 0.63978 0.64437 0.0
H520 H 0.32976 0.65084 0.62406 0.0
H521 H 0.32987 0.60691 0.56776 0.0
C522 C 0.39617 0.5864 0.61283 0.0
C523 C 0.40987 0.59228 0.63292 0.0
C524 C 0.4062 0.60677 0.64915 0.0
C525 C 0.3894 0.61551 0.64553 0.0
C526 C 0.37639 0.60968 0.62554 0.0
C527 C 0.37955 0.59557 0.60937 0.0
C528 C 0.36391 0.59314 0.58902 0.0
C529 C 0.38167 0.6059 0.5691 0.0
C530 C 0.34353 0.56491 0.58418 0.0
C531 C 0.35149 0.608 0.59641 0.0
C532 C 0.35907 0.61731 0.61756 0.0
C533 C 0.35128 0.63252 0.62785 0.0
C534 C 0.33558 0.63875 0.61614 0.0
C535 C 0.32762 0.62968 0.59439 0.0
C536 C 0.33539 0.61379 0.58448 0.0
H537 H 0.80901 0.37314 0.81151 0.0
H538 H 0.85546 0.39252 0.75245 0.0
H539 H 0.81577 0.37161 0.72971 0.0
H540 H 0.75791 0.31208 0.79458 0.0
H541 H 0.73276 0.31527 0.80693 0.0
H542 H 0.76474 0.33231 0.81843 0.0
H543 H 0.76633 0.37528 0.81453 0.0
H544 H 0.73426 0.35834 0.80315 0.0
H545 H 0.7603 0.3843 0.78808 0.0
H546 H 0.77109 0.34535 0.71395 0.0
H547 H 0.72447 0.31962 0.70566 0.0
H548 H 0.70711 0.32024 0.77483 0.0
C549 C 0.81071 0.3731 0.79376 0.0
C550 C 0.83508 0.38424 0.78358 0.0
C551 C 0.83683 0.38409 0.7604 0.0
C552 C 0.81446 0.37222 0.74743 0.0
C553 C 0.79062 0.36107 0.75798 0.0
C554 C 0.78861 0.36181 0.78059 0.0
C555 C 0.76071 0.34865 0.7878 0.0
C556 C 0.75362 0.32572 0.80282 0.0
C557 C 0.75507 0.36779 0.79905 0.0
C558 C 0.74728 0.33991 0.76575 0.0
C559 C 0.7649 0.34709 0.74878 0.0
C560 C 0.75713 0.33996 0.72705 0.0
C561 C 0.73065 0.32528 0.72252 0.0
C562 C 0.71232 0.31824 0.73959 0.0
C563 C 0.72077 0.32574 0.76145 0.0
H564 H 0.44991 0.81122 0.98204 0.0
H565 H 0.45822 0.84856 0.91956 0.0
H566 H 0.43986 0.8067 0.90039 0.0
H567 H 0.46611 0.76646 0.96409 0.0
H568 H 0.44251 0.7403 0.98069 0.0
H569 H 0.45529 0.77289 0.9896 0.0
H570 H 0.40909 0.76468 0.99216 0.0
H571 H 0.39612 0.73198 0.98341 0.0
H572 H 0.38817 0.75232 0.96851 0.0
H573 H 0.42532 0.76203 0.88794 0.0
H574 H 0.41007 0.71612 0.883 0.0
H575 H 0.40706 0.70647 0.95375 0.0
C576 C 0.44751 0.81041 0.96435 0.0
C577 C 0.45544 0.83296 0.95215 0.0
C578 C 0.45208 0.83138 0.92909 0.0
C579 C 0.44178 0.80776 0.91812 0.0
C580 C 0.43452 0.7859 0.93056 0.0
C581 C 0.43673 0.78689 0.95321 0.0
C582 C 0.42734 0.76051 0.96265 0.0
C583 C 0.44912 0.76002 0.97498 0.0
C584 C 0.40377 0.75186 0.97756 0.0
C585 C 0.42002 0.7446 0.94173 0.0
C586 C 0.42461 0.75974 0.92341 0.0
C587 C 0.4212 0.7499 0.90215 0.0
C588 C 0.41269 0.72388 0.89951 0.0
C589 C 0.40721 0.70788 0.918 0.0
C590 C 0.41074 0.7183 0.93939 0.0
H591 H 0.63739 0.43539 0.14163 0.0
H592 H 0.66756 0.50126 0.09843 0.0
H593 H 0.69595 0.48874 0.08085 0.0
H594 H 0.69598 0.43732 0.14984 0.0
H595 H 0.68175 0.40304 0.14939 0.0
H596 H 0.66296 0.41644 0.15826 0.0
H597 H 0.62825 0.38943 0.12892 0.0
H598 H 0.64679 0.3757 0.12012 0.0
H599 H 0.63761 0.39147 0.10048 0.0
H600 H 0.72238 0.47056 0.06916 0.0
H601 H 0.74341 0.44612 0.06206 0.0
H602 H 0.69548 0.3909 0.11191 0.0
C603 C 0.6496 0.44693 0.1282 0.0
C604 C 0.65031 0.46943 0.12149 0.0
C605 C 0.66692 0.48418 0.10408 0.0
C606 C 0.68305 0.47717 0.09393 0.0
C607 C 0.68227 0.45524 0.10125 0.0
C608 C 0.6658 0.44014 0.1178 0.0
C609 C 0.66899 0.41762 0.12261 0.0
C610 C 0.67796 0.41868 0.14644 0.0
C611 C 0.64392 0.39204 0.11774 0.0
C612 C 0.69 0.42258 0.1063 0.0
C613 C 0.69736 0.44444 0.09422 0.0
C614 C 0.71668 0.45331 0.0784 0.0
C615 C 0.72857 0.4393 0.07456 0.0
C616 C 0.7211 0.41655 0.0864 0.0
C617 C 0.70162 0.4082 0.10259 0.0
H618 H 0.4164 0.81365 0.48373 0.0
H619 H 0.39419 0.85931 0.52192 0.0
H620 H 0.36055 0.82014 0.54037 0.0
H621 H 0.35326 0.7585 0.47635 0.0
H622 H 0.36333 0.73573 0.47945 0.0
H623 H 0.38553 0.76726 0.46886 0.0
H624 H 0.41835 0.77471 0.49945 0.0
H625 H 0.39637 0.74311 0.51 0.0
H626 H 0.4084 0.77068 0.52785 0.0
H627 H 0.32907 0.7763 0.55426 0.0
H628 H 0.3037 0.73082 0.56491 0.0
H629 H 0.34741 0.71357 0.51894 0.0
C630 C 0.40472 0.81552 0.49618 0.0
C631 C 0.40789 0.83963 0.50126 0.0
C632 C 0.39187 0.84106 0.51744 0.0
C633 C 0.37276 0.81893 0.52808 0.0
C634 C 0.36998 0.79551 0.52247 0.0
C635 C 0.38566 0.79365 0.50707 0.0
C636 C 0.37894 0.76616 0.50441 0.0
C637 C 0.36971 0.75634 0.48087 0.0
C638 C 0.40188 0.76352 0.51082 0.0
C639 C 0.35707 0.75286 0.52079 0.0
C640 C 0.35211 0.77016 0.53086 0.0
C641 C 0.3328 0.76257 0.54655 0.0
C642 C 0.31845 0.73666 0.55242 0.0
C643 C 0.3236 0.71866 0.54276 0.0
C644 C 0.343 0.72688 0.52656 0.0
H645 H 0.58689 0.39342 0.6671 0.0
H646 H 0.51161 0.35155 0.69782 0.0
H647 H 0.52399 0.32375 0.71667 0.0
H648 H 0.59144 0.33946 0.65594 0.0
H649 H 0.6256 0.35539 0.66101 0.0
H650 H 0.61179 0.37356 0.65185 0.0
H651 H 0.63106 0.40364 0.68574 0.0
H652 H 0.6451 0.38565 0.69494 0.0
H653 H 0.62417 0.3901 0.71297 0.0
H654 H 0.54418 0.29922 0.73078 0.0
H655 H 0.57003 0.27941 0.7381 0.0
H656 H 0.63127 0.33665 0.6969 0.0
C657 C 0.57326 0.37878 0.6782 0.0
C658 C 0.54841 0.37476 0.68125 0.0
C659 C 0.53078 0.35494 0.69538 0.0
C660 C 0.53767 0.33913 0.70617 0.0
C661 C 0.5622 0.3433 0.70252 0.0
C662 C 0.57971 0.36264 0.68885 0.0
C663 C 0.60416 0.36206 0.68648 0.0
C664 C 0.60848 0.35733 0.66239 0.0
C665 C 0.6275 0.38683 0.69558 0.0
C666 C 0.59762 0.33925 0.70077 0.0
C667 C 0.57346 0.32881 0.71008 0.0
C668 C 0.56318 0.30731 0.72364 0.0
C669 C 0.57796 0.29618 0.7277 0.0
C670 C 0.60261 0.30643 0.71804 0.0
C671 C 0.61248 0.32831 0.70451 0.0
H672 H 0.21397 0.60199 0.83262 0.0
H673 H 0.17112 0.52501 0.85919 0.0
H674 H 0.2108 0.53205 0.87713 0.0
H675 H 0.27127 0.60164 0.82041 0.0
H676 H 0.29288 0.63489 0.82752 0.0
H677 H 0.26094 0.62425 0.81763 0.0
H678 H 0.25183 0.64263 0.85262 0.0
H679 H 0.2838 0.65347 0.86257 0.0
H680 H 0.25617 0.63278 0.87934 0.0
H681 H 0.25505 0.54747 0.89198 0.0
H682 H 0.301 0.56985 0.90237 0.0
H683 H 0.31539 0.63638 0.86505 0.0
C684 C 0.21292 0.58678 0.84249 0.0
C685 C 0.18952 0.56303 0.84474 0.0
C686 C 0.18891 0.54333 0.85733 0.0
C687 C 0.2113 0.54718 0.86757 0.0
C688 C 0.23414 0.57074 0.86487 0.0
C689 C 0.23514 0.59019 0.85259 0.0
C690 C 0.26229 0.61338 0.85167 0.0
C691 C 0.27244 0.61885 0.82789 0.0
C692 C 0.26359 0.63695 0.86218 0.0
C693 C 0.2764 0.60399 0.86545 0.0
C694 C 0.25978 0.57938 0.87296 0.0
C695 C 0.26825 0.56672 0.88618 0.0
C696 C 0.29439 0.57959 0.89198 0.0
C697 C 0.31178 0.60482 0.88446 0.0
C698 C 0.3026 0.61706 0.87094 0.0
H699 H 0.60305 0.21242 0.00054 0.0
H700 H 0.64947 0.1775 0.00491 0.0
H701 H 0.68373 0.21623 0.02311 0.0
H702 H 0.65626 0.27517 0.98638 0.0
H703 H 0.64418 0.29208 0.00161 0.0
H704 H 0.62205 0.26079 0.99029 0.0
H705 H 0.60235 0.24456 0.02893 0.0
H706 H 0.62439 0.27581 0.04038 0.0
H707 H 0.62309 0.24789 0.05148 0.0
H708 H 0.71288 0.25812 0.04128 0.0
H709 H 0.73638 0.30195 0.0564 0.0
H710 H 0.67392 0.31237 0.03691 0.0
C711 C 0.6204 0.21282 0.00516 0.0
C712 C 0.62305 0.19136 0.00149 0.0
C713 C 0.64625 0.19304 0.00808 0.0
C714 C 0.6661 0.21517 0.01827 0.0
C715 C 0.66283 0.23583 0.02148 0.0
C716 C 0.64073 0.23503 0.01496 0.0
C717 C 0.64271 0.26044 0.01962 0.0
C718 C 0.64122 0.27285 0.99819 0.0
C719 C 0.6219 0.25696 0.03608 0.0
C720 C 0.66941 0.27557 0.02975 0.0
C721 C 0.68046 0.2608 0.03088 0.0
C722 C 0.70455 0.26998 0.04032 0.0
C723 C 0.71775 0.29493 0.0489 0.0
C724 C 0.70711 0.31067 0.04763 0.0
C725 C 0.68266 0.30088 0.03779 0.0
H726 H 0.45029 0.62833 0.19533 0.0
H727 H 0.45974 0.64312 0.12524 0.0
H728 H 0.44443 0.67324 0.12929 0.0
H729 H 0.39346 0.62981 0.20221 0.0
H730 H 0.4024 0.64617 0.22839 0.0
H731 H 0.41505 0.62653 0.22022 0.0
H732 H 0.46163 0.66503 0.22571 0.0
H733 H 0.44913 0.68477 0.23407 0.0
H734 H 0.47183 0.69474 0.21169 0.0
H735 H 0.42347 0.69768 0.14028 0.0
H736 H 0.40364 0.71963 0.15838 0.0
H737 H 0.41181 0.69266 0.22182 0.0
C738 C 0.44946 0.63826 0.18096 0.0
C739 C 0.45626 0.6336 0.15999 0.0
C740 C 0.45489 0.64675 0.14146 0.0
C741 C 0.44609 0.66374 0.14359 0.0
C742 C 0.4392 0.66771 0.16443 0.0
C743 C 0.44128 0.65577 0.18288 0.0
C744 C 0.43271 0.66354 0.20337 0.0
C745 C 0.40953 0.64012 0.21417 0.0
C746 C 0.45517 0.67788 0.21967 0.0
C747 C 0.42505 0.68131 0.19349 0.0
C748 C 0.42863 0.68316 0.17095 0.0
C749 C 0.42107 0.69682 0.15796 0.0
C750 C 0.40974 0.70909 0.16831 0.0
C751 C 0.40666 0.70806 0.19141 0.0
C752 C 0.41453 0.69413 0.20415 0.0
H753 H 0.82675 0.49384 0.35026 0.0
H754 H 0.82477 0.43093 0.31491 0.0
H755 H 0.77889 0.40287 0.32421 0.0
H756 H 0.78383 0.45526 0.3944 0.0
H757 H 0.76823 0.47342 0.39633 0.0
H758 H 0.80117 0.48874 0.38714 0.0
H759 H 0.78902 0.50298 0.35147 0.0
H760 H 0.75599 0.48754 0.36048 0.0
H761 H 0.76355 0.47921 0.33423 0.0
H762 H 0.73342 0.38193 0.336 0.0
H763 H 0.69099 0.36799 0.352 0.0
H764 H 0.72134 0.44378 0.38051 0.0
C765 C 0.81664 0.47414 0.34454 0.0
C766 C 0.82946 0.46453 0.332 0.0
C767 C 0.81556 0.43861 0.32489 0.0
C768 C 0.78941 0.42256 0.32991 0.0
C769 C 0.77733 0.43263 0.34213 0.0
C770 C 0.79043 0.45771 0.34955 0.0
C771 C 0.7727 0.46344 0.36264 0.0
C772 C 0.78204 0.47063 0.38654 0.0
C773 C 0.77017 0.48454 0.35154 0.0
C774 C 0.74762 0.43765 0.36132 0.0
C775 C 0.75083 0.4203 0.34926 0.0
C776 C 0.73065 0.39529 0.34555 0.0
C777 C 0.70657 0.38759 0.35469 0.0
C778 C 0.70278 0.40476 0.36755 0.0
C779 C 0.7236 0.43023 0.37073 0.0
H780 H 0.14688 0.60927 0.43314 0.0
H781 H 0.16231 0.55033 0.41294 0.0
H782 H 0.19202 0.5616 0.44427 0.0
H783 H 0.21175 0.65561 0.44832 0.0
H784 H 0.20271 0.66797 0.47132 0.0
H785 H 0.18143 0.65422 0.44805 0.0
H786 H 0.14458 0.62242 0.47381 0.0
H787 H 0.16573 0.63614 0.49717 0.0
H788 H 0.14978 0.60219 0.49178 0.0
H789 H 0.22142 0.58039 0.47747 0.0
H790 H 0.24741 0.60488 0.50985 0.0
H791 H 0.21368 0.65227 0.50714 0.0
C792 C 0.15647 0.59869 0.43523 0.0
C793 C 0.15194 0.57871 0.42056 0.0
C794 C 0.16487 0.56531 0.42415 0.0
C795 C 0.18202 0.57172 0.44183 0.0
C796 C 0.18621 0.59167 0.45579 0.0
C797 C 0.17377 0.60493 0.45269 0.0
C798 C 0.18212 0.62602 0.46968 0.0
C799 C 0.19529 0.65252 0.45868 0.0
C800 C 0.15918 0.6214 0.48396 0.0
C801 C 0.2012 0.62257 0.4828 0.0
C802 C 0.20331 0.60266 0.4746 0.0
C803 C 0.21988 0.59601 0.48406 0.0
C804 C 0.23459 0.61005 0.50245 0.0
C805 C 0.23269 0.63055 0.51114 0.0
C806 C 0.21573 0.63677 0.50101 0.0
H807 H 0.5806 0.16034 0.57619 0.0
H808 H 0.50325 0.11997 0.60356 0.0
H809 H 0.51957 0.14705 0.63692 0.0
H810 H 0.61298 0.16494 0.62719 0.0
H811 H 0.64043 0.19611 0.62084 0.0
H812 H 0.6223 0.174 0.59896 0.0
H813 H 0.61524 0.20832 0.58125 0.0
H814 H 0.63308 0.23042 0.60322 0.0
H815 H 0.60069 0.22237 0.59724 0.0
H816 H 0.54445 0.17961 0.66705 0.0
H817 H 0.57652 0.21184 0.69292 0.0
H818 H 0.63758 0.22839 0.64651 0.0
C819 C 0.56704 0.15676 0.58928 0.0
C820 C 0.54054 0.13797 0.58707 0.0
C821 C 0.52355 0.13449 0.60459 0.0
C822 C 0.53265 0.14972 0.62367 0.0
C823 C 0.55883 0.16821 0.62512 0.0
C824 C 0.57581 0.17151 0.6085 0.0
C825 C 0.60315 0.19219 0.61429 0.0
C826 C 0.62074 0.18114 0.6154 0.0
C827 C 0.61364 0.21465 0.59803 0.0
C828 C 0.59893 0.19997 0.63683 0.0
C829 C 0.57321 0.18619 0.6427 0.0
C830 C 0.56467 0.19041 0.66267 0.0
C831 C 0.58299 0.20884 0.6772 0.0
C832 C 0.60954 0.22252 0.67177 0.0
C833 C 0.61745 0.21811 0.65121 0.0
H834 H 0.46602 0.60486 0.75923 0.0
H835 H 0.40524 0.52458 0.76327 0.0
H836 H 0.38909 0.53393 0.79716 0.0
H837 H 0.47866 0.61416 0.81792 0.0
H838 H 0.4853 0.64653 0.81736 0.0
H839 H 0.4918 0.63327 0.79347 0.0
H840 H 0.46305 0.64377 0.76994 0.0
H841 H 0.45625 0.65683 0.79379 0.0
H842 H 0.43014 0.63151 0.77813 0.0
H843 H 0.37861 0.55281 0.83013 0.0
H844 H 0.37677 0.57889 0.86056 0.0
H845 H 0.44602 0.64585 0.83551 0.0
C846 C 0.44964 0.58902 0.76738 0.0
C847 C 0.43696 0.56393 0.75841 0.0
C848 C 0.41514 0.54405 0.76952 0.0
C849 C 0.40587 0.54914 0.78888 0.0
C850 C 0.41874 0.57415 0.79707 0.0
C851 C 0.44033 0.59368 0.78678 0.0
C852 C 0.45084 0.61889 0.7989 0.0
C853 C 0.47827 0.62879 0.80742 0.0
C854 C 0.45 0.63893 0.78432 0.0
C855 C 0.43172 0.61058 0.8176 0.0
C856 C 0.41321 0.58476 0.81623 0.0
C857 C 0.39315 0.573 0.83145 0.0
C858 C 0.39219 0.58799 0.84862 0.0
C859 C 0.41133 0.61439 0.85053 0.0
C860 C 0.43123 0.62569 0.83469 0.0
H861 H 0.86771 0.38535 0.92786 0.0
H862 H 0.88879 0.46492 0.92393 0.0
H863 H 0.86227 0.45888 0.95676 0.0
H864 H 0.80314 0.3592 0.94504 0.0
H865 H 0.8031 0.33635 0.96366 0.0
H866 H 0.82394 0.34692 0.93998 0.0
H867 H 0.86363 0.36141 0.9651 0.0
H868 H 0.84289 0.35064 0.98885 0.0
H869 H 0.86972 0.38326 0.98755 0.0
H870 H 0.83214 0.44365 0.98923 0.0
H871 H 0.80311 0.42138 0.02046 0.0
H872 H 0.80343 0.35231 0.00415 0.0
C873 C 0.86723 0.40171 0.93408 0.0
C874 C 0.88039 0.42563 0.92318 0.0
C875 C 0.87864 0.4463 0.93172 0.0
C876 C 0.86371 0.4431 0.95044 0.0
C877 C 0.85077 0.41917 0.96055 0.0
C878 C 0.85262 0.39893 0.95281 0.0
C879 C 0.8369 0.3752 0.96673 0.0
C880 C 0.8155 0.35312 0.95303 0.0
C881 C 0.85433 0.36716 0.97771 0.0
C882 C 0.8258 0.38522 0.98348 0.0
C883 C 0.83391 0.41058 0.97954 0.0
C884 C 0.82579 0.42385 0.99255 0.0
C885 C 0.80919 0.41095 0.01022 0.0
C886 C 0.801 0.38507 0.01485 0.0
C887 C 0.80942 0.37211 0.00116 0.0
H888 H 0.43371 0.85964 0.07468 0.0
H889 H 0.50931 0.91068 0.10339 0.0
H890 H 0.49503 0.88557 0.13755 0.0
H891 H 0.39847 0.85468 0.12446 0.0
H892 H 0.37378 0.82177 0.11908 0.0
H893 H 0.39048 0.84312 0.09653 0.0
H894 H 0.40327 0.81149 0.08164 0.0
H895 H 0.38691 0.79019 0.1043 0.0
H896 H 0.42045 0.80182 0.09926 0.0
H897 H 0.47304 0.8531 0.16806 0.0
H898 H 0.44306 0.81985 0.19431 0.0
H899 H 0.38082 0.79412 0.14725 0.0
C900 C 0.44729 0.86608 0.08816 0.0
C901 C 0.47288 0.88717 0.08594 0.0
C902 C 0.48985 0.89425 0.10419 0.0
C903 C 0.48188 0.88019 0.12381 0.0
C904 C 0.45668 0.85938 0.1252 0.0
C905 C 0.43949 0.85272 0.10803 0.0
C906 C 0.41313 0.83025 0.114 0.0
C907 C 0.39277 0.83792 0.1135 0.0
C908 C 0.4055 0.80707 0.0989 0.0
C909 C 0.4182 0.82525 0.13723 0.0
C910 C 0.44357 0.84192 0.14326 0.0
C911 C 0.45306 0.84018 0.16362 0.0
C912 C 0.436 0.82121 0.17834 0.0
C913 C 0.40974 0.80473 0.17275 0.0
C914 C 0.4008 0.80675 0.15194 0.0
H915 H 0.61298 0.47334 0.2736 0.0
H916 H 0.554 0.40839 0.23603 0.0
H917 H 0.55079 0.37927 0.26526 0.0
H918 H 0.64538 0.44166 0.29154 0.0
H919 H 0.65345 0.45683 0.31825 0.0
H920 H 0.64992 0.47305 0.29514 0.0
H921 H 0.61574 0.47776 0.31656 0.0
H922 H 0.61923 0.46165 0.33977 0.0
H923 H 0.58791 0.44962 0.32771 0.0
H924 H 0.55402 0.35699 0.29828 0.0
H925 H 0.56435 0.3429 0.33259 0.0
H926 H 0.62373 0.42169 0.34737 0.0
C927 C 0.59944 0.45301 0.27136 0.0
C928 C 0.58355 0.44337 0.25243 0.0
C929 C 0.56593 0.41654 0.25052 0.0
C930 C 0.56412 0.39972 0.26697 0.0
C931 C 0.58026 0.40989 0.28518 0.0
C932 C 0.59767 0.43587 0.28745 0.0
C933 C 0.61345 0.44171 0.30831 0.0
C934 C 0.64226 0.45404 0.30298 0.0
C935 C 0.60879 0.45869 0.32402 0.0
C936 C 0.60216 0.4149 0.31739 0.0
C937 C 0.58289 0.39688 0.30386 0.0
C938 C 0.56914 0.37089 0.30897 0.0
C939 C 0.57513 0.3631 0.32851 0.0
C940 C 0.59493 0.38118 0.34259 0.0
C941 C 0.60872 0.4074 0.33681 0.0
H942 H 0.42475 0.88138 0.35235 0.0
H943 H 0.47476 0.8551 0.37475 0.0
H944 H 0.45921 0.82347 0.34451 0.0
H945 H 0.37121 0.81918 0.33821 0.0
H946 H 0.36221 0.83016 0.31438 0.0
H947 H 0.37806 0.85162 0.33723 0.0
H948 H 0.41383 0.88436 0.31118 0.0
H949 H 0.39798 0.86309 0.28823 0.0
H950 H 0.43122 0.87421 0.29415 0.0
H951 H 0.43755 0.79397 0.31237 0.0
H952 H 0.41256 0.76988 0.27964 0.0
H953 H 0.37561 0.8144 0.27889 0.0
C954 C 0.43246 0.86899 0.35093 0.0
C955 C 0.45117 0.87095 0.36591 0.0
C956 C 0.46085 0.85444 0.36327 0.0
C957 C 0.45194 0.83619 0.34626 0.0
C958 C 0.43326 0.83457 0.33203 0.0
C959 C 0.42369 0.85058 0.33411 0.0
C960 C 0.40353 0.84472 0.31672 0.0
C961 C 0.37719 0.83589 0.32727 0.0
C962 C 0.41217 0.86798 0.30168 0.0
C963 C 0.40328 0.82293 0.30453 0.0
C964 C 0.42054 0.81735 0.31364 0.0
C965 C 0.42396 0.79816 0.30508 0.0
C966 C 0.40962 0.78455 0.28648 0.0
C967 C 0.39203 0.79015 0.27664 0.0
C968 C 0.38872 0.80946 0.28604 0.0
H969 H 0.58394 0.4176 0.5525 0.0
H970 H 0.54777 0.45513 0.5226 0.0
H971 H 0.56284 0.45056 0.48596 0.0
H972 H 0.63994 0.44228 0.51402 0.0
H973 H 0.63869 0.41219 0.51397 0.0
H974 H 0.62886 0.42223 0.53808 0.0
H975 H 0.58452 0.37967 0.53726 0.0
H976 H 0.59419 0.36952 0.51323 0.0
H977 H 0.56521 0.3707 0.51261 0.0
H978 H 0.57813 0.43828 0.45247 0.0
H979 H 0.58956 0.41633 0.42442 0.0
H980 H 0.61398 0.38497 0.47585 0.0
C981 C 0.57987 0.42549 0.53827 0.0
C982 C 0.56503 0.43703 0.5403 0.0
C983 C 0.55927 0.44638 0.52131 0.0
C984 C 0.56788 0.444 0.5005 0.0
C985 C 0.58212 0.43212 0.49898 0.0
C986 C 0.588 0.42292 0.51736 0.0
C987 C 0.601 0.40836 0.51102 0.0
C988 C 0.62877 0.42209 0.51979 0.0
C989 C 0.58528 0.38041 0.51899 0.0
C990 C 0.60062 0.40994 0.48617 0.0
C991 C 0.59026 0.42431 0.47958 0.0
C992 C 0.58664 0.42736 0.45742 0.0
C993 C 0.59323 0.41493 0.44163 0.0
C994 C 0.60304 0.39952 0.44812 0.0
C995 C 0.60709 0.39724 0.47059 0.0
H996 H 0.14157 0.56081 0.68881 0.0
H997 H 0.19359 0.61584 0.7373 0.0
H998 H 0.22774 0.63598 0.70932 0.0
H999 H 0.1913 0.5552 0.65797 0.0
H1000 H 0.17679 0.55319 0.63164 0.0
H1001 H 0.15693 0.54111 0.6559 0.0
H1002 H 0.13865 0.57022 0.64819 0.0
H1003 H 0.15834 0.58227 0.62391 0.0
H1004 H 0.16057 0.60425 0.64493 0.0
H1005 H 0.25488 0.65248 0.67632 0.0
H1006 H 0.27333 0.6656 0.63906 0.0
H1007 H 0.20477 0.60045 0.61103 0.0
C1008 C 0.1603 0.57685 0.69351 0.0
C1009 C 0.16495 0.5869 0.71516 0.0
C1010 C 0.18956 0.60808 0.72073 0.0
C1011 C 0.20915 0.61949 0.70502 0.0
C1012 C 0.20392 0.60945 0.68378 0.0
C1013 C 0.18016 0.58866 0.6779 0.0
C1014 C 0.17927 0.58299 0.65345 0.0
C1015 C 0.17587 0.55655 0.64951 0.0
C1016 C 0.15795 0.58507 0.64195 0.0
C1017 C 0.20591 0.60439 0.64648 0.0
C1018 C 0.21988 0.6191 0.6644 0.0
C1019 C 0.24436 0.6409 0.66219 0.0
C1020 C 0.25468 0.64819 0.64105 0.0
C1021 C 0.24058 0.63373 0.62248 0.0
C1022 C 0.21607 0.61135 0.62516 0.0
H1023 H 0.5765 0.16381 0.8599 0.0
H1024 H 0.62356 0.12962 0.86063 0.0
H1025 H 0.64541 0.15305 0.82675 0.0
H1026 H 0.56879 0.16245 0.80021 0.0
H1027 H 0.57054 0.19278 0.79963 0.0
H1028 H 0.55799 0.17265 0.82356 0.0
H1029 H 0.59154 0.21018 0.84793 0.0
H1030 H 0.60433 0.23036 0.82408 0.0
H1031 H 0.62533 0.22544 0.84142 0.0
H1032 H 0.66319 0.18114 0.79379 0.0
H1033 H 0.67498 0.21102 0.76289 0.0
H1034 H 0.61604 0.2269 0.78291 0.0
C1035 C 0.59109 0.1609 0.85272 0.0
C1036 C 0.59833 0.14487 0.86295 0.0
C1037 C 0.61787 0.14199 0.85323 0.0
C1038 C 0.63032 0.15514 0.83394 0.0
C1039 C 0.623 0.17108 0.8245 0.0
C1040 C 0.60375 0.17392 0.83345 0.0
C1041 C 0.59997 0.19266 0.82019 0.0
C1042 C 0.5727 0.17934 0.81031 0.0
C1043 C 0.60564 0.21605 0.83425 0.0
C1044 C 0.62021 0.19999 0.80247 0.0
C1045 C 0.63324 0.18729 0.80532 0.0
C1046 C 0.65304 0.19111 0.79131 0.0
C1047 C 0.65963 0.20823 0.77379 0.0
C1048 C 0.64645 0.2214 0.77033 0.0
C1049 C 0.62649 0.21716 0.78499 0.0
H1050 H 0.47421 0.60935 0.04486 0.0
H1051 H 0.41072 0.53037 0.03859 0.0
H1052 H 0.3961 0.54177 0.00522 0.0
H1053 H 0.44092 0.6392 0.02714 0.0
H1054 H 0.46753 0.66423 0.01183 0.0
H1055 H 0.47358 0.65 0.03508 0.0
H1056 H 0.501 0.6384 0.01063 0.0
H1057 H 0.49526 0.65283 0.98733 0.0
H1058 H 0.48724 0.62001 0.98578 0.0
H1059 H 0.38673 0.56197 0.97408 0.0
H1060 H 0.38527 0.58883 0.94485 0.0
H1061 H 0.45639 0.65438 0.96945 0.0
C1062 C 0.45753 0.59428 0.03626 0.0
C1063 C 0.44353 0.56894 0.04456 0.0
C1064 C 0.42153 0.55001 0.0329 0.0
C1065 C 0.41313 0.55625 0.01383 0.0
C1066 C 0.42708 0.58146 0.0064 0.0
C1067 C 0.44901 0.60012 0.01703 0.0
C1068 C 0.46043 0.62577 0.00551 0.0
C1069 C 0.46062 0.64599 0.02081 0.0
C1070 C 0.4876 0.63478 0.99679 0.0
C1071 C 0.44134 0.61862 0.98684 0.0
C1072 C 0.42216 0.593 0.98784 0.0
C1073 C 0.40177 0.582 0.97298 0.0
C1074 C 0.40106 0.59751 0.9565 0.0
C1075 C 0.42076 0.62373 0.95478 0.0
C1076 C 0.44118 0.63437 0.97021 0.0
H1077 H 0.8553 0.47808 0.20472 0.0
H1078 H 0.91373 0.4577 0.20263 0.0
H1079 H 0.89421 0.43259 0.1688 0.0
H1080 H 0.80325 0.41804 0.18712 0.0
H1081 H 0.78807 0.4308 0.17052 0.0
H1082 H 0.80752 0.44879 0.19379 0.0
H1083 H 0.83582 0.48764 0.16858 0.0
H1084 H 0.81639 0.46976 0.14522 0.0
H1085 H 0.85077 0.48344 0.14461 0.0
H1086 H 0.86736 0.40761 0.13719 0.0
H1087 H 0.83467 0.38411 0.10866 0.0
H1088 H 0.79335 0.42083 0.12974 0.0
C1089 C 0.86424 0.46872 0.19689 0.0
C1090 C 0.88603 0.4698 0.20637 0.0
C1091 C 0.89689 0.4569 0.19584 0.0
C1092 C 0.88604 0.44273 0.17653 0.0
C1093 C 0.8644 0.44173 0.16783 0.0
C1094 C 0.85362 0.45442 0.17752 0.0
C1095 C 0.82964 0.44916 0.16513 0.0
C1096 C 0.80571 0.43591 0.18003 0.0
C1097 C 0.83339 0.47398 0.1553 0.0
C1098 C 0.82844 0.43114 0.14723 0.0
C1099 C 0.84881 0.42731 0.14915 0.0
C1100 C 0.85145 0.41062 0.13536 0.0
C1101 C 0.83267 0.39726 0.11926 0.0
C1102 C 0.81144 0.40062 0.11694 0.0
C1103 C 0.80952 0.41811 0.13095 0.0
loop_
_geom_bond_atom_site_label_1
_geom_bond_atom_site_label_2
_geom_bond_distance
_geom_bond_site_symmetry_2
_ccdc_geom_bond_type
H0 C27 0.929 . S
N1 C26 1.433 . S
N1 C32 1.435 . S
N1 C38 1.423 . S
H2 C28 0.930 . S
H3 C31 0.931 . S
H4 C30 0.929 . S
H5 C33 0.930 . S
H6 C34 0.932 . S
H7 C37 0.929 . S
H8 C36 0.931 . S
H9 C39 0.929 . S
H10 C43 0.932 . S
H11 C40 0.931 . S
H12 C42 0.929 . S
H13 C45 0.929 . S
H14 C46 0.930 . S
H15 C48 0.929 . S
H16 C49 0.931 . S
H17 C51 0.930 . S
H18 C52 0.932 . S
H19 C54 0.931 . S
H20 C55 0.929 . S
H21 C57 0.929 . S
H22 C58 0.931 . S
H23 C60 0.929 . S
N24 C44 1.433 . S
N24 C50 1.435 . S
N24 C56 1.423 . S
H25 C61 0.932 . S
C26 N1 1.433 . S
C26 C27 1.363 . S
C26 C31 1.370 . S
C27 H0 0.929 . S
C27 C26 1.363 . S
C27 C28 1.385 . S
C28 H2 0.930 . S
C28 C27 1.385 . S
C28 C29 1.357 . S
C29 C28 1.357 . S
C29 C30 1.406 . S
C30 H4 0.929 . S
C30 C29 1.406 . S
C30 C31 1.391 . S
C31 H3 0.931 . S
C31 C26 1.370 . S
C31 C30 1.391 . S
C32 N1 1.435 . S
C32 C33 1.358 . S
C32 C37 1.371 . S
C33 H5 0.930 . S
C33 C32 1.358 . S
C33 C34 1.405 . S
C34 H6 0.932 . S
C34 C33 1.405 . S
C34 C35 1.383 . S
C35 C34 1.383 . S
C35 C36 1.393 . S
C36 H8 0.931 . S
C36 C35 1.393 . S
C36 C37 1.382 . S
C37 H7 0.929 . S
C37 C32 1.371 . S
C37 C36 1.382 . S
C38 N1 1.423 . S
C38 C39 1.362 . S
C38 C43 1.388 . S
C39 H9 0.929 . S
C39 C38 1.362 . S
C39 C40 1.376 . S
C40 H11 0.931 . S
C40 C39 1.376 . S
C40 C41 1.396 . S
C41 C40 1.396 . S
C41 C42 1.348 . S
C41 C59 1.472 1_455 S
C42 H12 0.929 . S
C42 C41 1.348 . S
C42 C43 1.443 . S
C43 H10 0.932 . S
C43 C38 1.388 . S
C43 C42 1.443 . S
C44 N24 1.433 . S
C44 C45 1.363 . S
C44 C49 1.370 . S
C45 H13 0.929 . S
C45 C44 1.363 . S
C45 C46 1.385 . S
C46 H14 0.930 . S
C46 C45 1.385 . S
C46 C47 1.357 . S
C47 C46 1.357 . S
C47 C48 1.406 . S
C48 H15 0.929 . S
C48 C47 1.406 . S
C48 C49 1.391 . S
C49 H16 0.931 . S
C49 C44 1.370 . S
C49 C48 1.391 . S
C50 N24 1.435 . S
C50 C51 1.358 . S
C50 C55 1.371 . S
C51 H17 0.930 . S
C51 C50 1.358 . S
C51 C52 1.405 . S
C52 H18 0.932 . S
C52 C51 1.405 . S
C52 C53 1.383 . S
C53 C52 1.383 . S
C53 C54 1.393 . S
C54 H19 0.931 . S
C54 C53 1.393 . S
C54 C55 1.382 . S
C55 H20 0.929 . S
C55 C50 1.371 . S
C55 C54 1.382 . S
C56 N24 1.423 . S
C56 C57 1.362 . S
C56 C61 1.388 . S
C57 H21 0.929 . S
C57 C56 1.362 . S
C57 C58 1.376 . S
C58 H22 0.931 . S
C58 C57 1.376 . S
C58 C59 1.396 . S
C59 C41 1.472 1_655 S
C59 C58 1.396 . S
C59 C60 1.348 . S
C60 H23 0.929 . S
C60 C59 1.348 . S
C60 C61 1.443 . S
C61 H25 0.932 . S
C61 C56 1.388 . S
C61 C60 1.443 . S
H62 C89 0.929 . S
N63 C88 1.433 . S
N63 C94 1.435 . S
N63 C100 1.423 . S
H64 C90 0.930 . S
H65 C93 0.931 . S
H66 C92 0.929 . S
H67 C95 0.930 . S
H68 C96 0.932 . S
H69 C99 0.929 . S
H70 C98 0.931 . S
H71 C101 0.929 . S
H72 C105 0.932 . S
H73 C102 0.931 . S
H74 C104 0.929 1_545 S
H75 C107 0.929 . S
H76 C108 0.930 . S
H77 C110 0.929 . S
H78 C111 0.931 . S
H79 C113 0.930 . S
H80 C114 0.932 . S
H81 C116 0.931 . S
H82 C117 0.929 . S
H83 C119 0.929 . S
H84 C120 0.931 . S
H85 C122 0.929 . S
N86 C106 1.433 . S
N86 C112 1.435 . S
N86 C118 1.423 . S
H87 C123 0.932 . S
C88 N63 1.433 . S
C88 C89 1.363 . S
C88 C93 1.370 . S
C89 H62 0.929 . S
C89 C88 1.363 . S
C89 C90 1.385 . S
C90 H64 0.930 . S
C90 C89 1.385 . S
C90 C91 1.357 . S
C91 C90 1.357 . S
C91 C92 1.406 . S
C92 H66 0.929 . S
C92 C91 1.406 . S
C92 C93 1.391 . S
C93 H65 0.931 . S
C93 C88 1.370 . S
C93 C92 1.391 . S
C94 N63 1.435 . S
C94 C95 1.358 . S
C94 C99 1.371 . S
C95 H67 0.930 . S
C95 C94 1.358 . S
C95 C96 1.405 . S
C96 H68 0.932 . S
C96 C95 1.405 . S
C96 C97 1.383 . S
C97 C96 1.383 . S
C97 C98 1.393 . S
C98 H70 0.931 . S
C98 C97 1.393 . S
C98 C99 1.382 . S
C99 H69 0.929 . S
C99 C94 1.371 . S
C99 C98 1.382 . S
C100 N63 1.423 . S
C100 C101 1.362 . S
C100 C105 1.388 . S
C101 H71 0.929 . S
C101 C100 1.362 . S
C101 C102 1.376 . S
C102 H73 0.931 . S
C102 C101 1.376 . S
C102 C103 1.396 1_565 S
C103 C102 1.396 1_545 S
C103 C104 1.348 1_545 S
C103 C121 1.472 . S
C104 H74 0.929 1_565 S
C104 C103 1.348 1_565 S
C104 C105 1.443 . S
C105 H72 0.932 . S
C105 C100 1.388 . S
C105 C104 1.443 . S
C106 N86 1.433 . S
C106 C107 1.363 . S
C106 C111 1.370 . S
C107 H75 0.929 . S
C107 C106 1.363 . S
C107 C108 1.385 . S
C108 H76 0.930 . S
C108 C107 1.385 . S
C108 C109 1.357 . S
C109 C108 1.357 . S
C109 C110 1.406 . S
C110 H77 0.929 . S
C110 C109 1.406 . S
C110 C111 1.391 . S
C111 H78 0.931 . S
C111 C106 1.370 . S
C111 C110 1.391 . S
C112 N86 1.435 . S
C112 C113 1.358 . S
C112 C117 1.371 . S
C113 H79 0.930 . S
C113 C112 1.358 . S
C113 C114 1.405 . S
C114 H80 0.932 . S
C114 C113 1.405 . S
C114 C115 1.383 . S
C115 C114 1.383 . S
C115 C116 1.393 . S
C116 H81 0.931 . S
C116 C115 1.393 . S
C116 C117 1.382 . S
C117 H82 0.929 . S
C117 C112 1.371 . S
C117 C116 1.382 . S
C118 N86 1.423 . S
C118 C119 1.362 . S
C118 C123 1.388 . S
C119 H83 0.929 . S
C119 C118 1.362 . S
C119 C120 1.376 . S
C120 H84 0.931 . S
C120 C119 1.376 . S
C120 C121 1.396 . S
C121 C103 1.472 . S
C121 C120 1.396 . S
C121 C122 1.348 . S
C122 H85 0.929 . S
C122 C121 1.348 . S
C122 C123 1.443 . S
C123 H87 0.932 . S
C123 C118 1.388 . S
C123 C122 1.443 . S
H124 C151 0.929 . S
N125 C150 1.433 . S
N125 C156 1.435 . S
N125 C162 1.423 . S
H126 C152 0.930 . S
H127 C155 0.931 . S
H128 C154 0.929 . S
H129 C157 0.930 . S
H130 C158 0.932 . S
H131 C161 0.929 . S
H132 C160 0.931 . S
H133 C163 0.929 . S
H134 C167 0.932 . S
H135 C164 0.931 . S
H136 C166 0.929 . S
H137 C169 0.929 . S
H138 C170 0.930 . S
H139 C172 0.929 . S
H140 C173 0.931 . S
H141 C175 0.930 . S
H142 C176 0.932 . S
H143 C178 0.931 . S
H144 C179 0.929 . S
H145 C181 0.929 . S
H146 C182 0.931 . S
H147 C184 0.929 . S
N148 C168 1.433 . S
N148 C174 1.435 . S
N148 C180 1.423 . S
H149 C185 0.932 . S
C150 N125 1.433 . S
C150 C151 1.363 . S
C150 C155 1.370 . S
C151 H124 0.929 . S
C151 C150 1.363 . S
C151 C152 1.385 . S
C152 H126 0.930 . S
C152 C151 1.385 . S
C152 C153 1.357 . S
C153 C152 1.357 . S
C153 C154 1.406 . S
C154 H128 0.929 . S
C154 C153 1.406 . S
C154 C155 1.391 . S
C155 H127 0.931 . S
C155 C150 1.370 . S
C155 C154 1.391 . S
C156 N125 1.435 . S
C156 C157 1.358 . S
C156 C161 1.371 . S
C157 H129 0.930 . S
C157 C156 1.358 . S
C157 C158 1.405 . S
C158 H130 0.932 . S
C158 C157 1.405 . S
C158 C159 1.383 . S
C159 C158 1.383 . S
C159 C160 1.393 . S
C160 H132 0.931 . S
C160 C159 1.393 . S
C160 C161 1.382 . S
C161 H131 0.929 . S
C161 C156 1.371 . S
C161 C160 1.382 . S
C162 N125 1.423 . S
C162 C163 1.362 . S
C162 C167 1.388 . S
C163 H133 0.929 . S
C163 C162 1.362 . S
C163 C164 1.376 . S
C164 H135 0.931 . S
C164 C163 1.376 . S
C164 C165 1.396 . S
C165 C164 1.396 . S
C165 C166 1.348 . S
C165 C183 1.472 . S
C166 H136 0.929 . S
C166 C165 1.348 . S
C166 C167 1.443 . S
C167 H134 0.932 . S
C167 C162 1.388 . S
C167 C166 1.443 . S
C168 N148 1.433 . S
C168 C169 1.363 . S
C168 C173 1.370 . S
C169 H137 0.929 . S
C169 C168 1.363 . S
C169 C170 1.385 . S
C170 H138 0.930 . S
C170 C169 1.385 . S
C170 C171 1.357 . S
C171 C170 1.357 . S
C171 C172 1.406 . S
C172 H139 0.929 . S
C172 C171 1.406 . S
C172 C173 1.391 . S
C173 H140 0.931 . S
C173 C168 1.370 . S
C173 C172 1.391 . S
C174 N148 1.435 . S
C174 C175 1.358 . S
C174 C179 1.371 . S
C175 H141 0.930 . S
C175 C174 1.358 . S
C175 C176 1.405 . S
C176 H142 0.932 . S
C176 C175 1.405 . S
C176 C177 1.383 . S
C177 C176 1.383 . S
C177 C178 1.393 . S
C178 H143 0.931 . S
C178 C177 1.393 . S
C178 C179 1.382 . S
C179 H144 0.929 . S
C179 C174 1.371 . S
C179 C178 1.382 . S
C180 N148 1.423 . S
C180 C181 1.362 . S
C180 C185 1.388 . S
C181 H145 0.929 . S
C181 C180 1.362 . S
C181 C182 1.376 . S
C182 H146 0.931 . S
C182 C181 1.376 . S
C182 C183 1.396 . S
C183 C165 1.472 . S
C183 C182 1.396 . S
C183 C184 1.348 . S
C184 H147 0.929 . S
C184 C183 1.348 . S
C184 C185 1.443 . S
C185 H149 0.932 . S
C185 C180 1.388 . S
C185 C184 1.443 . S
H186 C213 0.929 . S
N187 C212 1.433 . S
N187 C218 1.435 . S
N187 C224 1.423 . S
H188 C214 0.930 . S
H189 C217 0.931 . S
H190 C216 0.929 . S
H191 C219 0.930 . S
H192 C220 0.932 . S
H193 C223 0.929 . S
H194 C222 0.931 . S
H195 C225 0.929 . S
H196 C229 0.932 . S
H197 C226 0.931 . S
H198 C228 0.929 . S
H199 C231 0.929 . S
H200 C232 0.930 . S
H201 C234 0.929 . S
H202 C235 0.931 . S
H203 C237 0.930 . S
H204 C238 0.932 . S
H205 C240 0.931 . S
H206 C241 0.929 . S
H207 C243 0.929 . S
H208 C244 0.931 . S
H209 C246 0.929 . S
N210 C230 1.433 . S
N210 C236 1.435 . S
N210 C242 1.423 . S
H211 C247 0.932 . S
C212 N187 1.433 . S
C212 C213 1.363 . S
C212 C217 1.370 . S
C213 H186 0.929 . S
C213 C212 1.363 . S
C213 C214 1.385 . S
C214 H188 0.930 . S
C214 C213 1.385 . S
C214 C215 1.357 . S
C215 C214 1.357 . S
C215 C216 1.406 . S
C216 H190 0.929 . S
C216 C215 1.406 . S
C216 C217 1.391 . S
C217 H189 0.931 . S
C217 C212 1.370 . S
C217 C216 1.391 . S
C218 N187 1.435 . S
C218 C219 1.358 . S
C218 C223 1.371 . S
C219 H191 0.930 . S
C219 C218 1.358 . S
C219 C220 1.405 . S
C220 H192 0.932 . S
C220 C219 1.405 . S
C220 C221 1.383 . S
C221 C220 1.383 . S
C221 C222 1.393 . S
C222 H194 0.931 . S
C222 C221 1.393 . S
C222 C223 1.382 . S
C223 H193 0.929 . S
C223 C218 1.371 . S
C223 C222 1.382 . S
C224 N187 1.423 . S
C224 C225 1.362 . S
C224 C229 1.388 . S
C225 H195 0.929 . S
C225 C224 1.362 . S
C225 C226 1.376 . S
C226 H197 0.931 . S
C226 C225 1.376 . S
C226 C227 1.396 . S
C227 C226 1.396 . S
C227 C228 1.348 . S
C227 C245 1.472 1_455 S
C228 H198 0.929 . S
C228 C227 1.348 . S
C228 C229 1.443 . S
C229 H196 0.932 . S
C229 C224 1.388 . S
C229 C228 1.443 . S
C230 N210 1.433 . S
C230 C231 1.363 . S
C230 C235 1.370 . S
C231 H199 0.929 . S
C231 C230 1.363 . S
C231 C232 1.385 . S
C232 H200 0.930 . S
C232 C231 1.385 . S
C232 C233 1.357 . S
C233 C232 1.357 . S
C233 C234 1.406 . S
C234 H201 0.929 . S
C234 C233 1.406 . S
C234 C235 1.391 . S
C235 H202 0.931 . S
C235 C230 1.370 . S
C235 C234 1.391 . S
C236 N210 1.435 . S
C236 C237 1.358 . S
C236 C241 1.371 . S
C237 H203 0.930 . S
C237 C236 1.358 . S
C237 C238 1.405 . S
C238 H204 0.932 . S
C238 C237 1.405 . S
C238 C239 1.383 . S
C239 C238 1.383 . S
C239 C240 1.393 . S
C240 H205 0.931 . S
C240 C239 1.393 . S
C240 C241 1.382 . S
C241 H206 0.929 . S
C241 C236 1.371 . S
C241 C240 1.382 . S
C242 N210 1.423 . S
C242 C243 1.362 . S
C242 C247 1.388 . S
C243 H207 0.929 . S
C243 C242 1.362 . S
C243 C244 1.376 . S
C244 H208 0.931 . S
C244 C243 1.376 . S
C244 C245 1.396 . S
C245 C227 1.472 1_655 S
C245 C244 1.396 . S
C245 C246 1.348 . S
C246 H209 0.929 . S
C246 C245 1.348 . S
C246 C247 1.443 . S
C247 H211 0.932 . S
C247 C242 1.388 . S
C247 C246 1.443 . S
H248 C275 0.929 . S
N249 C274 1.433 . S
N249 C280 1.435 . S
N249 C286 1.423 . S
H250 C276 0.930 . S
H251 C279 0.931 . S
H252 C278 0.929 . S
H253 C281 0.930 . S
H254 C282 0.932 . S
H255 C285 0.929 . S
H256 C284 0.931 . S
H257 C287 0.929 . S
H258 C291 0.932 . S
H259 C288 0.931 . S
H260 C290 0.929 . S
H261 C293 0.929 . S
H262 C294 0.930 . S
H263 C296 0.929 . S
H264 C297 0.931 . S
H265 C299 0.930 1_554 S
H266 C300 0.932 . S
H267 C302 0.931 . S
H268 C303 0.929 . S
H269 C305 0.929 . S
H270 C306 0.931 1_554 S
H271 C308 0.929 . S
N272 C292 1.433 . S
N272 C298 1.435 1_554 S
N272 C304 1.423 1_554 S
H273 C309 0.932 . S
C274 N249 1.433 . S
C274 C275 1.363 . S
C274 C279 1.370 . S
C275 H248 0.929 . S
C275 C274 1.363 . S
C275 C276 1.385 . S
C276 H250 0.930 . S
C276 C275 1.385 . S
C276 C277 1.357 1_556 S
C277 C276 1.357 1_554 S
C277 C278 1.406 . S
C278 H252 0.929 . S
C278 C277 1.406 . S
C278 C279 1.391 1_554 S
C279 H251 0.931 . S
C279 C274 1.370 . S
C279 C278 1.391 1_556 S
C280 N249 1.435 . S
C280 C281 1.358 . S
C280 C285 1.371 . S
C281 H253 0.930 . S
C281 C280 1.358 . S
C281 C282 1.405 . S
C282 H254 0.932 . S
C282 C281 1.405 . S
C282 C283 1.383 . S
C283 C282 1.383 . S
C283 C284 1.393 . S
C284 H256 0.931 . S
C284 C283 1.393 . S
C284 C285 1.382 . S
C285 H255 0.929 . S
C285 C280 1.371 . S
C285 C284 1.382 . S
C286 N249 1.423 . S
C286 C287 1.362 . S
C286 C291 1.388 . S
C287 H257 0.929 . S
C287 C286 1.362 . S
C287 C288 1.376 . S
C288 H259 0.931 . S
C288 C287 1.376 . S
C288 C289 1.396 . S
C289 C288 1.396 . S
C289 C290 1.348 . S
C289 C307 1.472 1_545 S
C290 H260 0.929 . S
C290 C289 1.348 . S
C290 C291 1.443 . S
C291 H258 0.932 . S
C291 C286 1.388 . S
C291 C290 1.443 . S
C292 N272 1.433 . S
C292 C293 1.363 . S
C292 C297 1.370 . S
C293 H261 0.929 . S
C293 C292 1.363 . S
C293 C294 1.385 . S
C294 H262 0.930 . S
C294 C293 1.385 . S
C294 C295 1.357 . S
C295 C294 1.357 . S
C295 C296 1.406 . S
C296 H263 0.929 . S
C296 C295 1.406 . S
C296 C297 1.391 . S
C297 H264 0.931 . S
C297 C292 1.370 . S
C297 C296 1.391 . S
C298 N272 1.435 1_556 S
C298 C299 1.358 . S
C298 C303 1.371 . S
C299 H265 0.930 1_556 S
C299 C298 1.358 . S
C299 C300 1.405 . S
C300 H266 0.932 . S
C300 C299 1.405 . S
C300 C301 1.383 . S
C301 C300 1.383 . S
C301 C302 1.393 . S
C302 H267 0.931 . S
C302 C301 1.393 . S
C302 C303 1.382 . S
C303 H268 0.929 . S
C303 C298 1.371 . S
C303 C302 1.382 . S
C304 N272 1.423 1_556 S
C304 C305 1.362 1_556 S
C304 C309 1.388 . S
C305 H269 0.929 . S
C305 C304 1.362 1_554 S
C305 C306 1.376 1_554 S
C306 H270 0.931 1_556 S
C306 C305 1.376 1_556 S
C306 C307 1.396 . S
C307 C289 1.472 1_565 S
C307 C306 1.396 . S
C307 C308 1.348 . S
C308 H271 0.929 . S
C308 C307 1.348 . S
C308 C309 1.443 . S
C309 H273 0.932 . S
C309 C304 1.388 . S
C309 C308 1.443 . S
H310 C337 0.929 . S
N311 C336 1.433 . S
N311 C342 1.435 . S
N311 C348 1.423 . S
H312 C338 0.930 . S
H313 C341 0.931 . S
H314 C340 0.929 . S
H315 C343 0.930 . S
H316 C344 0.932 . S
H317 C347 0.929 . S
H318 C346 0.931 . S
H319 C349 0.929 . S
H320 C353 0.932 . S
H321 C350 0.931 . S
H322 C352 0.929 . S
H323 C355 0.929 . S
H324 C356 0.930 . S
H325 C358 0.929 . S
H326 C359 0.931 . S
H327 C361 0.930 . S
H328 C362 0.932 . S
H329 C364 0.931 . S
H330 C365 0.929 . S
H331 C367 0.929 . S
H332 C368 0.931 . S
H333 C370 0.929 . S
N334 C354 1.433 . S
N334 C360 1.435 . S
N334 C366 1.423 . S
H335 C371 0.932 . S
C336 N311 1.433 . S
C336 C337 1.363 . S
C336 C341 1.370 . S
C337 H310 0.929 . S
C337 C336 1.363 . S
C337 C338 1.385 . S
C338 H312 0.930 . S
C338 C337 1.385 . S
C338 C339 1.357 . S
C339 C338 1.357 . S
C339 C340 1.406 . S
C340 H314 0.929 . S
C340 C339 1.406 . S
C340 C341 1.391 . S
C341 H313 0.931 . S
C341 C336 1.370 . S
C341 C340 1.391 . S
C342 N311 1.435 . S
C342 C343 1.358 . S
C342 C347 1.371 . S
C343 H315 0.930 . S
C343 C342 1.358 . S
C343 C344 1.405 . S
C344 H316 0.932 . S
C344 C343 1.405 . S
C344 C345 1.383 . S
C345 C344 1.383 . S
C345 C346 1.393 . S
C346 H318 0.931 . S
C346 C345 1.393 . S
C346 C347 1.382 . S
C347 H317 0.929 . S
C347 C342 1.371 . S
C347 C346 1.382 . S
C348 N311 1.423 . S
C348 C349 1.362 . S
C348 C353 1.388 . S
C349 H319 0.929 . S
C349 C348 1.362 . S
C349 C350 1.376 . S
C350 H321 0.931 . S
C350 C349 1.376 . S
C350 C351 1.396 . S
C351 C350 1.396 . S
C351 C352 1.348 . S
C351 C369 1.472 . S
C352 H322 0.929 . S
C352 C351 1.348 . S
C352 C353 1.443 . S
C353 H320 0.932 . S
C353 C348 1.388 . S
C353 C352 1.443 . S
C354 N334 1.433 . S
C354 C355 1.363 . S
C354 C359 1.370 . S
C355 H323 0.929 . S
C355 C354 1.363 . S
C355 C356 1.385 . S
C356 H324 0.930 . S
C356 C355 1.385 . S
C356 C357 1.357 . S
C357 C356 1.357 . S
C357 C358 1.406 . S
C358 H325 0.929 . S
C358 C357 1.406 . S
C358 C359 1.391 . S
C359 H326 0.931 . S
C359 C354 1.370 . S
C359 C358 1.391 . S
C360 N334 1.435 . S
C360 C361 1.358 . S
C360 C365 1.371 . S
C361 H327 0.930 . S
C361 C360 1.358 . S
C361 C362 1.405 . S
C362 H328 0.932 . S
C362 C361 1.405 . S
C362 C363 1.383 . S
C363 C362 1.383 . S
C363 C364 1.393 . S
C364 H329 0.931 . S
C364 C363 1.393 . S
C364 C365 1.382 . S
C365 H330 0.929 . S
C365 C360 1.371 . S
C365 C364 1.382 . S
C366 N334 1.423 . S
C366 C367 1.362 . S
C366 C371 1.388 . S
C367 H331 0.929 . S
C367 C366 1.362 . S
C367 C368 1.376 . S
C368 H332 0.931 . S
C368 C367 1.376 . S
C368 C369 1.396 . S
C369 C351 1.472 . S
C369 C368 1.396 . S
C369 C370 1.348 . S
C370 H333 0.929 . S
C370 C369 1.348 . S
C370 C371 1.443 . S
C371 H335 0.932 . S
C371 C366 1.388 . S
C371 C370 1.443 . S
Co372 O373 2.216 . S
Co372 O374 2.091 . S
Co372 O376 2.004 . S
Co372 O382 2.021 . S
Co372 O384 2.137 . S
Co372 O385 2.244 . S
O373 Co372 2.216 . S
O373 C380 1.247 . S
O374 Co372 2.091 . S
O374 C380 1.261 . S
C375 O384 1.247 . S
C375 O385 1.272 . S
O376 Co372 2.004 . S
O376 C381 1.259 . S
Co377 O378 2.061 . S
Co377 O383 2.052 . S
Co377 O385 2.135 . S
O378 Co377 2.061 . S
O378 C381 1.235 . S
C379 O382 1.238 . S
C379 O383 1.241 . S
C380 O373 1.247 . S
C380 O374 1.261 . S
C381 O376 1.259 . S
C381 O378 1.235 . S
O382 Co372 2.021 . S
O382 C379 1.238 . S
O383 Co377 2.052 . S
O383 C379 1.241 . S
O384 Co372 2.137 . S
O384 C375 1.247 . S
O385 Co372 2.244 . S
O385 C375 1.272 . S
O385 Co377 2.135 . S
Co386 O387 2.216 . S
Co386 O388 2.091 . S
Co386 O390 2.004 . S
Co386 O396 2.021 . S
Co386 O398 2.137 . S
Co386 O399 2.244 . S
O387 Co386 2.216 . S
O387 C394 1.247 . S
O388 Co386 2.091 . S
O388 C394 1.261 . S
C389 O398 1.247 . S
C389 O399 1.272 . S
O390 Co386 2.004 . S
O390 C395 1.259 . S
Co391 O392 2.061 . S
Co391 O397 2.052 . S
Co391 O399 2.135 . S
O392 Co391 2.061 . S
O392 C395 1.235 . S
C393 O396 1.238 . S
C393 O397 1.241 . S
C394 O387 1.247 . S
C394 O388 1.261 . S
C395 O390 1.259 . S
C395 O392 1.235 . S
O396 Co386 2.021 . S
O396 C393 1.238 . S
O397 Co391 2.052 . S
O397 C393 1.241 . S
O398 Co386 2.137 . S
O398 C389 1.247 . S
O399 Co386 2.244 . S
O399 C389 1.272 . S
O399 Co391 2.135 . S
Co400 O401 2.216 . S
Co400 O402 2.091 . S
Co400 O404 2.004 . S
Co400 O410 2.021 . S
Co400 O412 2.137 . S
Co400 O413 2.244 . S
O401 Co400 2.216 . S
O401 C408 1.247 . S
O402 Co400 2.091 . S
O402 C408 1.261 . S
C403 O412 1.247 . S
C403 O413 1.272 . S
O404 Co400 2.004 . S
O404 C409 1.259 . S
Co405 O406 2.061 . S
Co405 O411 2.052 . S
Co405 O413 2.135 . S
O406 Co405 2.061 . S
O406 C409 1.235 . S
C407 O410 1.238 . S
C407 O411 1.241 . S
C408 O401 1.247 . S
C408 O402 1.261 . S
C409 O404 1.259 . S
C409 O406 1.235 . S
O410 Co400 2.021 . S
O410 C407 1.238 . S
O411 Co405 2.052 . S
O411 C407 1.241 . S
O412 Co400 2.137 . S
O412 C403 1.247 . S
O413 Co400 2.244 . S
O413 C403 1.272 . S
O413 Co405 2.135 . S
Co414 O415 2.216 . S
Co414 O416 2.091 . S
Co414 O418 2.004 . S
Co414 O424 2.021 . S
Co414 O426 2.137 . S
Co414 O427 2.244 . S
O415 Co414 2.216 . S
O415 C422 1.247 . S
O416 Co414 2.091 . S
O416 C422 1.261 . S
C417 O426 1.247 . S
C417 O427 1.272 . S
O418 Co414 2.004 . S
O418 C423 1.259 . S
Co419 O420 2.061 . S
Co419 O425 2.052 . S
Co419 O427 2.135 . S
O420 Co419 2.061 . S
O420 C423 1.235 . S
C421 O424 1.238 . S
C421 O425 1.241 . S
C422 O415 1.247 . S
C422 O416 1.261 . S
C423 O418 1.259 . S
C423 O420 1.235 . S
O424 Co414 2.021 . S
O424 C421 1.238 . S
O425 Co419 2.052 . S
O425 C421 1.241 . S
O426 Co414 2.137 . S
O426 C417 1.247 . S
O427 Co414 2.244 . S
O427 C417 1.272 . S
O427 Co419 2.135 . S
Co428 O429 2.216 . S
Co428 O430 2.091 . S
Co428 O432 2.004 . S
Co428 O438 2.021 . S
Co428 O440 2.137 . S
Co428 O441 2.244 . S
O429 Co428 2.216 . S
O429 C436 1.247 . S
O430 Co428 2.091 . S
O430 C436 1.261 . S
C431 O440 1.247 . S
C431 O441 1.272 . S
O432 Co428 2.004 . S
O432 C437 1.259 . S
Co433 O434 2.061 . S
Co433 O439 2.052 . S
Co433 O441 2.135 . S
O434 Co433 2.061 . S
O434 C437 1.235 . S
C435 O438 1.238 . S
C435 O439 1.241 . S
C436 O429 1.247 . S
C436 O430 1.261 . S
C437 O432 1.259 . S
C437 O434 1.235 . S
O438 Co428 2.021 . S
O438 C435 1.238 . S
O439 Co433 2.052 . S
O439 C435 1.241 . S
O440 Co428 2.137 . S
O440 C431 1.247 . S
O441 Co428 2.244 . S
O441 C431 1.272 . S
O441 Co433 2.135 . S
Co442 O443 2.216 . S
Co442 O444 2.091 . S
Co442 O446 2.004 . S
Co442 O452 2.021 . S
Co442 O454 2.137 . S
Co442 O455 2.244 . S
O443 Co442 2.216 . S
O443 C450 1.247 . S
O444 Co442 2.091 . S
O444 C450 1.261 . S
C445 O454 1.247 . S
C445 O455 1.272 . S
O446 Co442 2.004 . S
O446 C451 1.259 . S
Co447 O448 2.061 . S
Co447 O453 2.052 . S
Co447 O455 2.135 . S
O448 Co447 2.061 . S
O448 C451 1.235 . S
C449 O452 1.238 . S
C449 O453 1.241 . S
C450 O443 1.247 . S
C450 O444 1.261 . S
C451 O446 1.259 . S
C451 O448 1.235 . S
O452 Co442 2.021 . S
O452 C449 1.238 . S
O453 Co447 2.052 . S
O453 C449 1.241 . S
O454 Co442 2.137 . S
O454 C445 1.247 . S
O455 Co442 2.244 . S
O455 C445 1.272 . S
O455 Co447 2.135 . S
H456 C468 0.930 . S
H457 C470 0.930 . S
H458 C471 0.930 . S
H459 C475 0.959 . S
H460 C475 0.959 . S
H461 C475 0.961 . S
H462 C476 0.960 . S
H463 C476 0.961 . S
H464 C476 0.959 . S
H465 C479 0.929 . S
H466 C480 0.931 . S
H467 C482 0.930 . S
C468 H456 0.930 . S
C468 C469 1.399 . S
C468 C473 1.399 . S
C469 C468 1.399 . S
C469 C470 1.376 . S
C470 H457 0.930 . S
C470 C469 1.376 . S
C470 C471 1.388 . S
C471 H458 0.930 . S
C471 C470 1.388 . S
C471 C472 1.390 . S
C472 C471 1.390 . S
C472 C473 1.394 . S
C472 C478 1.465 . S
C473 C468 1.399 . S
C473 C472 1.394 . S
C473 C474 1.516 . S
C474 C473 1.516 . S
C474 C475 1.502 . S
C474 C476 1.561 . S
C474 C477 1.526 . S
C475 H459 0.959 . S
C475 H460 0.959 . S
C475 H461 0.961 . S
C475 C474 1.502 . S
C476 H462 0.960 . S
C476 H463 0.961 . S
C476 H464 0.959 . S
C476 C474 1.561 . S
C477 C474 1.526 . S
C477 C478 1.396 . S
C477 C482 1.390 . S
C478 C472 1.465 . S
C478 C477 1.396 . S
C478 C479 1.399 . S
C479 H465 0.929 . S
C479 C478 1.399 . S
C479 C480 1.385 . S
C480 H466 0.931 . S
C480 C479 1.385 . S
C480 C481 1.389 . S
C481 C480 1.389 . S
C481 C482 1.387 . S
C482 H467 0.930 . S
C482 C477 1.390 . S
C482 C481 1.387 . S
H483 C495 0.930 . S
H484 C497 0.930 . S
H485 C498 0.930 . S
H486 C502 0.959 . S
H487 C502 0.959 . S
H488 C502 0.961 . S
H489 C503 0.960 . S
H490 C503 0.961 . S
H491 C503 0.959 . S
H492 C506 0.929 . S
H493 C507 0.931 . S
H494 C509 0.930 . S
C495 H483 0.930 . S
C495 C496 1.399 . S
C495 C500 1.399 . S
C496 C495 1.399 . S
C496 C497 1.376 . S
C497 H484 0.930 . S
C497 C496 1.376 . S
C497 C498 1.388 . S
C498 H485 0.930 . S
C498 C497 1.388 . S
C498 C499 1.390 . S
C499 C498 1.390 . S
C499 C500 1.394 . S
C499 C505 1.465 . S
C500 C495 1.399 . S
C500 C499 1.394 . S
C500 C501 1.516 . S
C501 C500 1.516 . S
C501 C502 1.502 . S
C501 C503 1.561 . S
C501 C504 1.526 . S
C502 H486 0.959 . S
C502 H487 0.959 . S
C502 H488 0.961 . S
C502 C501 1.502 . S
C503 H489 0.960 . S
C503 H490 0.961 . S
C503 H491 0.959 . S
C503 C501 1.561 . S
C504 C501 1.526 . S
C504 C505 1.396 . S
C504 C509 1.390 . S
C505 C499 1.465 . S
C505 C504 1.396 . S
C505 C506 1.399 . S
C506 H492 0.929 . S
C506 C505 1.399 . S
C506 C507 1.385 . S
C507 H493 0.931 . S
C507 C506 1.385 . S
C507 C508 1.389 . S
C508 C507 1.389 . S
C508 C509 1.387 . S
C509 H494 0.930 . S
C509 C504 1.390 . S
C509 C508 1.387 . S
H510 C522 0.930 . S
H511 C524 0.930 . S
H512 C525 0.930 . S
H513 C529 0.959 . S
H514 C529 0.959 . S
H515 C529 0.961 . S
H516 C530 0.960 . S
H517 C530 0.961 . S
H518 C530 0.959 . S
H519 C533 0.929 . S
H520 C534 0.931 . S
H521 C536 0.930 . S
C522 H510 0.930 . S
C522 C523 1.399 . S
C522 C527 1.399 . S
C523 C522 1.399 . S
C523 C524 1.376 . S
C524 H511 0.930 . S
C524 C523 1.376 . S
C524 C525 1.388 . S
C525 H512 0.930 . S
C525 C524 1.388 . S
C525 C526 1.390 . S
C526 C525 1.390 . S
C526 C527 1.394 . S
C526 C532 1.465 . S
C527 C522 1.399 . S
C527 C526 1.394 . S
C527 C528 1.516 . S
C528 C527 1.516 . S
C528 C529 1.502 . S
C528 C530 1.561 . S
C528 C531 1.526 . S
C529 H513 0.959 . S
C529 H514 0.959 . S
C529 H515 0.961 . S
C529 C528 1.502 . S
C530 H516 0.960 . S
C530 H517 0.961 . S
C530 H518 0.959 . S
C530 C528 1.561 . S
C531 C528 1.526 . S
C531 C532 1.396 . S
C531 C536 1.390 . S
C532 C526 1.465 . S
C532 C531 1.396 . S
C532 C533 1.399 . S
C533 H519 0.929 . S
C533 C532 1.399 . S
C533 C534 1.385 . S
C534 H520 0.931 . S
C534 C533 1.385 . S
C534 C535 1.389 . S
C535 C534 1.389 . S
C535 C536 1.387 . S
C536 H521 0.930 . S
C536 C531 1.390 . S
C536 C535 1.387 . S
H537 C549 0.930 . S
H538 C551 0.930 . S
H539 C552 0.930 . S
H540 C556 0.959 . S
H541 C556 0.959 . S
H542 C556 0.961 . S
H543 C557 0.960 . S
H544 C557 0.961 . S
H545 C557 0.959 . S
H546 C560 0.929 . S
H547 C561 0.931 . S
H548 C563 0.930 . S
C549 H537 0.930 . S
C549 C550 1.399 . S
C549 C554 1.399 . S
C550 C549 1.399 . S
C550 C551 1.376 . S
C551 H538 0.930 . S
C551 C550 1.376 . S
C551 C552 1.388 . S
C552 H539 0.930 . S
C552 C551 1.388 . S
C552 C553 1.390 . S
C553 C552 1.390 . S
C553 C554 1.394 . S
C553 C559 1.465 . S
C554 C549 1.399 . S
C554 C553 1.394 . S
C554 C555 1.516 . S
C555 C554 1.516 . S
C555 C556 1.502 . S
C555 C557 1.561 . S
C555 C558 1.526 . S
C556 H540 0.959 . S
C556 H541 0.959 . S
C556 H542 0.961 . S
C556 C555 1.502 . S
C557 H543 0.960 . S
C557 H544 0.961 . S
C557 H545 0.959 . S
C557 C555 1.561 . S
C558 C555 1.526 . S
C558 C559 1.396 . S
C558 C563 1.390 . S
C559 C553 1.465 . S
C559 C558 1.396 . S
C559 C560 1.399 . S
C560 H546 0.929 . S
C560 C559 1.399 . S
C560 C561 1.385 . S
C561 H547 0.931 . S
C561 C560 1.385 . S
C561 C562 1.389 . S
C562 C561 1.389 . S
C562 C563 1.387 . S
C563 H548 0.930 . S
C563 C558 1.390 . S
C563 C562 1.387 . S
H564 C576 0.930 . S
H565 C578 0.930 . S
H566 C579 0.930 . S
H567 C583 0.959 . S
H568 C583 0.959 . S
H569 C583 0.961 . S
H570 C584 0.960 . S
H571 C584 0.961 . S
H572 C584 0.959 . S
H573 C587 0.929 . S
H574 C588 0.931 . S
H575 C590 0.930 . S
C576 H564 0.930 . S
C576 C577 1.399 . S
C576 C581 1.399 . S
C577 C576 1.399 . S
C577 C578 1.376 . S
C578 H565 0.930 . S
C578 C577 1.376 . S
C578 C579 1.388 . S
C579 H566 0.930 . S
C579 C578 1.388 . S
C579 C580 1.390 . S
C580 C579 1.390 . S
C580 C581 1.394 . S
C580 C586 1.465 . S
C581 C576 1.399 . S
C581 C580 1.394 . S
C581 C582 1.516 . S
C582 C581 1.516 . S
C582 C583 1.502 . S
C582 C584 1.561 . S
C582 C585 1.526 . S
C583 H567 0.959 . S
C583 H568 0.959 . S
C583 H569 0.961 . S
C583 C582 1.502 . S
C584 H570 0.960 . S
C584 H571 0.961 . S
C584 H572 0.959 . S
C584 C582 1.561 . S
C585 C582 1.526 . S
C585 C586 1.396 . S
C585 C590 1.390 . S
C586 C580 1.465 . S
C586 C585 1.396 . S
C586 C587 1.399 . S
C587 H573 0.929 . S
C587 C586 1.399 . S
C587 C588 1.385 . S
C588 H574 0.931 . S
C588 C587 1.385 . S
C588 C589 1.389 . S
C589 C588 1.389 . S
C589 C590 1.387 . S
C590 H575 0.930 . S
C590 C585 1.390 . S
C590 C589 1.387 . S
H591 C603 0.930 . S
H592 C605 0.930 . S
H593 C606 0.930 . S
H594 C610 0.959 . S
H595 C610 0.959 . S
H596 C610 0.961 . S
H597 C611 0.960 . S
H598 C611 0.961 . S
H599 C611 0.959 . S
H600 C614 0.929 . S
H601 C615 0.931 . S
H602 C617 0.930 . S
C603 H591 0.930 . S
C603 C604 1.399 . S
C603 C608 1.399 . S
C604 C603 1.399 . S
C604 C605 1.376 . S
C605 H592 0.930 . S
C605 C604 1.376 . S
C605 C606 1.388 . S
C606 H593 0.930 . S
C606 C605 1.388 . S
C606 C607 1.390 . S
C607 C606 1.390 . S
C607 C608 1.394 . S
C607 C613 1.465 . S
C608 C603 1.399 . S
C608 C607 1.394 . S
C608 C609 1.516 . S
C609 C608 1.516 . S
C609 C610 1.502 . S
C609 C611 1.561 . S
C609 C612 1.526 . S
C610 H594 0.959 . S
C610 H595 0.959 . S
C610 H596 0.961 . S
C610 C609 1.502 . S
C611 H597 0.960 . S
C611 H598 0.961 . S
C611 H599 0.959 . S
C611 C609 1.561 . S
C612 C609 1.526 . S
C612 C613 1.396 . S
C612 C617 1.390 . S
C613 C607 1.465 . S
C613 C612 1.396 . S
C613 C614 1.399 . S
C614 H600 0.929 . S
C614 C613 1.399 . S
C614 C615 1.385 . S
C615 H601 0.931 . S
C615 C614 1.385 . S
C615 C616 1.389 . S
C616 C615 1.389 . S
C616 C617 1.387 . S
C617 H602 0.930 . S
C617 C612 1.390 . S
C617 C616 1.387 . S
H618 C630 0.930 . S
H619 C632 0.930 . S
H620 C633 0.930 . S
H621 C637 0.959 . S
H622 C637 0.959 . S
H623 C637 0.961 . S
H624 C638 0.960 . S
H625 C638 0.961 . S
H626 C638 0.959 . S
H627 C641 0.929 . S
H628 C642 0.931 . S
H629 C644 0.930 . S
C630 H618 0.930 . S
C630 C631 1.399 . S
C630 C635 1.399 . S
C631 C630 1.399 . S
C631 C632 1.376 . S
C632 H619 0.930 . S
C632 C631 1.376 . S
C632 C633 1.388 . S
C633 H620 0.930 . S
C633 C632 1.388 . S
C633 C634 1.390 . S
C634 C633 1.390 . S
C634 C635 1.394 . S
C634 C640 1.465 . S
C635 C630 1.399 . S
C635 C634 1.394 . S
C635 C636 1.516 . S
C636 C635 1.516 . S
C636 C637 1.502 . S
C636 C638 1.561 . S
C636 C639 1.526 . S
C637 H621 0.959 . S
C637 H622 0.959 . S
C637 H623 0.961 . S
C637 C636 1.502 . S
C638 H624 0.960 . S
C638 H625 0.961 . S
C638 H626 0.959 . S
C638 C636 1.561 . S
C639 C636 1.526 . S
C639 C640 1.396 . S
C639 C644 1.390 . S
C640 C634 1.465 . S
C640 C639 1.396 . S
C640 C641 1.399 . S
C641 H627 0.929 . S
C641 C640 1.399 . S
C641 C642 1.385 . S
C642 H628 0.931 . S
C642 C641 1.385 . S
C642 C643 1.389 . S
C643 C642 1.389 . S
C643 C644 1.387 . S
C644 H629 0.930 . S
C644 C639 1.390 . S
C644 C643 1.387 . S
H645 C657 0.930 . S
H646 C659 0.930 . S
H647 C660 0.930 . S
H648 C664 0.959 . S
H649 C664 0.959 . S
H650 C664 0.961 . S
H651 C665 0.960 . S
H652 C665 0.961 . S
H653 C665 0.959 . S
H654 C668 0.929 . S
H655 C669 0.931 . S
H656 C671 0.930 . S
C657 H645 0.930 . S
C657 C658 1.399 . S
C657 C662 1.399 . S
C658 C657 1.399 . S
C658 C659 1.376 . S
C659 H646 0.930 . S
C659 C658 1.376 . S
C659 C660 1.388 . S
C660 H647 0.930 . S
C660 C659 1.388 . S
C660 C661 1.390 . S
C661 C660 1.390 . S
C661 C662 1.394 . S
C661 C667 1.465 . S
C662 C657 1.399 . S
C662 C661 1.394 . S
C662 C663 1.516 . S
C663 C662 1.516 . S
C663 C664 1.502 . S
C663 C665 1.561 . S
C663 C666 1.526 . S
C664 H648 0.959 . S
C664 H649 0.959 . S
C664 H650 0.961 . S
C664 C663 1.502 . S
C665 H651 0.960 . S
C665 H652 0.961 . S
C665 H653 0.959 . S
C665 C663 1.561 . S
C666 C663 1.526 . S
C666 C667 1.396 . S
C666 C671 1.390 . S
C667 C661 1.465 . S
C667 C666 1.396 . S
C667 C668 1.399 . S
C668 H654 0.929 . S
C668 C667 1.399 . S
C668 C669 1.385 . S
C669 H655 0.931 . S
C669 C668 1.385 . S
C669 C670 1.389 . S
C670 C669 1.389 . S
C670 C671 1.387 . S
C671 H656 0.930 . S
C671 C666 1.390 . S
C671 C670 1.387 . S
H672 C684 0.930 . S
H673 C686 0.930 . S
H674 C687 0.930 . S
H675 C691 0.959 . S
H676 C691 0.959 . S
H677 C691 0.961 . S
H678 C692 0.960 . S
H679 C692 0.961 . S
H680 C692 0.959 . S
H681 C695 0.929 . S
H682 C696 0.931 . S
H683 C698 0.930 . S
C684 H672 0.930 . S
C684 C685 1.399 . S
C684 C689 1.399 . S
C685 C684 1.399 . S
C685 C686 1.376 . S
C686 H673 0.930 . S
C686 C685 1.376 . S
C686 C687 1.388 . S
C687 H674 0.930 . S
C687 C686 1.388 . S
C687 C688 1.390 . S
C688 C687 1.390 . S
C688 C689 1.394 . S
C688 C694 1.465 . S
C689 C684 1.399 . S
C689 C688 1.394 . S
C689 C690 1.516 . S
C690 C689 1.516 . S
C690 C691 1.502 . S
C690 C692 1.561 . S
C690 C693 1.526 . S
C691 H675 0.959 . S
C691 H676 0.959 . S
C691 H677 0.961 . S
C691 C690 1.502 . S
C692 H678 0.960 . S
C692 H679 0.961 . S
C692 H680 0.959 . S
C692 C690 1.561 . S
C693 C690 1.526 . S
C693 C694 1.396 . S
C693 C698 1.390 . S
C694 C688 1.465 . S
C694 C693 1.396 . S
C694 C695 1.399 . S
C695 H681 0.929 . S
C695 C694 1.399 . S
C695 C696 1.385 . S
C696 H682 0.931 . S
C696 C695 1.385 . S
C696 C697 1.389 . S
C697 C696 1.389 . S
C697 C698 1.387 . S
C698 H683 0.930 . S
C698 C693 1.390 . S
C698 C697 1.387 . S
H699 C711 0.930 . S
H700 C713 0.930 . S
H701 C714 0.930 . S
H702 C718 0.950 1_556 S
H703 C718 0.959 . S
H704 C718 0.961 . S
H705 C719 0.960 . S
H706 C719 0.961 . S
H707 C719 0.959 . S
H708 C722 0.929 . S
H709 C723 0.931 . S
H710 C725 0.930 . S
C711 H699 0.930 . S
C711 C712 1.399 . S
C711 C716 1.399 . S
C712 C711 1.399 . S
C712 C713 1.376 . S
C713 H700 0.930 . S
C713 C712 1.376 . S
C713 C714 1.388 . S
C714 H701 0.930 . S
C714 C713 1.388 . S
C714 C715 1.390 . S
C715 C714 1.390 . S
C715 C716 1.394 . S
C715 C721 1.465 . S
C716 C711 1.399 . S
C716 C715 1.394 . S
C716 C717 1.516 . S
C717 C716 1.516 . S
C717 C718 1.502 . S
C717 C719 1.561 . S
C717 C720 1.526 . S
C718 H702 0.950 1_554 S
C718 H703 0.959 . S
C718 H704 0.961 . S
C718 C717 1.502 . S
C719 H705 0.960 . S
C719 H706 0.961 . S
C719 H707 0.959 . S
C719 C717 1.561 . S
C720 C717 1.526 . S
C720 C721 1.396 . S
C720 C725 1.390 . S
C721 C715 1.465 . S
C721 C720 1.396 . S
C721 C722 1.399 . S
C722 H708 0.929 . S
C722 C721 1.399 . S
C722 C723 1.385 . S
C723 H709 0.931 . S
C723 C722 1.385 . S
C723 C724 1.389 . S
C724 C723 1.389 . S
C724 C725 1.387 . S
C725 H710 0.930 . S
C725 C720 1.390 . S
C725 C724 1.387 . S
H726 C738 0.930 . S
H727 C740 0.930 . S
H728 C741 0.930 . S
H729 C745 0.959 . S
H730 C745 0.959 . S
H731 C745 0.961 . S
H732 C746 0.960 . S
H733 C746 0.961 . S
H734 C746 0.959 . S
H735 C749 0.929 . S
H736 C750 0.931 . S
H737 C752 0.930 . S
C738 H726 0.930 . S
C738 C739 1.399 . S
C738 C743 1.399 . S
C739 C738 1.399 . S
C739 C740 1.376 . S
C740 H727 0.930 . S
C740 C739 1.376 . S
C740 C741 1.388 . S
C741 H728 0.930 . S
C741 C740 1.388 . S
C741 C742 1.390 . S
C742 C741 1.390 . S
C742 C743 1.394 . S
C742 C748 1.465 . S
C743 C738 1.399 . S
C743 C742 1.394 . S
C743 C744 1.516 . S
C744 C743 1.516 . S
C744 C745 1.502 . S
C744 C746 1.561 . S
C744 C747 1.526 . S
C745 H729 0.959 . S
C745 H730 0.959 . S
C745 H731 0.961 . S
C745 C744 1.502 . S
C746 H732 0.960 . S
C746 H733 0.961 . S
C746 H734 0.959 . S
C746 C744 1.561 . S
C747 C744 1.526 . S
C747 C748 1.396 . S
C747 C752 1.390 . S
C748 C742 1.465 . S
C748 C747 1.396 . S
C748 C749 1.399 . S
C749 H735 0.929 . S
C749 C748 1.399 . S
C749 C750 1.385 . S
C750 H736 0.931 . S
C750 C749 1.385 . S
C750 C751 1.389 . S
C751 C750 1.389 . S
C751 C752 1.387 . S
C752 H737 0.930 . S
C752 C747 1.390 . S
C752 C751 1.387 . S
H753 C765 0.930 . S
H754 C767 0.930 . S
H755 C768 0.930 . S
H756 C772 0.959 . S
H757 C772 0.959 . S
H758 C772 0.961 . S
H759 C773 0.960 . S
H760 C773 0.961 . S
H761 C773 0.959 . S
H762 C776 0.929 . S
H763 C777 0.931 . S
H764 C779 0.930 . S
C765 H753 0.930 . S
C765 C766 1.399 . S
C765 C770 1.399 . S
C766 C765 1.399 . S
C766 C767 1.376 . S
C767 H754 0.930 . S
C767 C766 1.376 . S
C767 C768 1.388 . S
C768 H755 0.930 . S
C768 C767 1.388 . S
C768 C769 1.390 . S
C769 C768 1.390 . S
C769 C770 1.394 . S
C769 C775 1.465 . S
C770 C765 1.399 . S
C770 C769 1.394 . S
C770 C771 1.516 . S
C771 C770 1.516 . S
C771 C772 1.502 . S
C771 C773 1.561 . S
C771 C774 1.526 . S
C772 H756 0.959 . S
C772 H757 0.959 . S
C772 H758 0.961 . S
C772 C771 1.502 . S
C773 H759 0.960 . S
C773 H760 0.961 . S
C773 H761 0.959 . S
C773 C771 1.561 . S
C774 C771 1.526 . S
C774 C775 1.396 . S
C774 C779 1.390 . S
C775 C769 1.465 . S
C775 C774 1.396 . S
C775 C776 1.399 . S
C776 H762 0.929 . S
C776 C775 1.399 . S
C776 C777 1.385 . S
C777 H763 0.931 . S
C777 C776 1.385 . S
C777 C778 1.389 . S
C778 C777 1.389 . S
C778 C779 1.387 . S
C779 H764 0.930 . S
C779 C774 1.390 . S
C779 C778 1.387 . S
H780 C792 0.930 . S
H781 C794 0.930 . S
H782 C795 0.930 . S
H783 C799 0.959 . S
H784 C799 0.959 . S
H785 C799 0.961 . S
H786 C800 0.960 . S
H787 C800 0.961 . S
H788 C800 0.959 . S
H789 C803 0.929 . S
H790 C804 0.931 . S
H791 C806 0.930 . S
C792 H780 0.930 . S
C792 C793 1.399 . S
C792 C797 1.399 . S
C793 C792 1.399 . S
C793 C794 1.376 . S
C794 H781 0.930 . S
C794 C793 1.376 . S
C794 C795 1.388 . S
C795 H782 0.930 . S
C795 C794 1.388 . S
C795 C796 1.390 . S
C796 C795 1.390 . S
C796 C797 1.394 . S
C796 C802 1.465 . S
C797 C792 1.399 . S
C797 C796 1.394 . S
C797 C798 1.516 . S
C798 C797 1.516 . S
C798 C799 1.502 . S
C798 C800 1.561 . S
C798 C801 1.526 . S
C799 H783 0.959 . S
C799 H784 0.959 . S
C799 H785 0.961 . S
C799 C798 1.502 . S
C800 H786 0.960 . S
C800 H787 0.961 . S
C800 H788 0.959 . S
C800 C798 1.561 . S
C801 C798 1.526 . S
C801 C802 1.396 . S
C801 C806 1.390 . S
C802 C796 1.465 . S
C802 C801 1.396 . S
C802 C803 1.399 . S
C803 H789 0.929 . S
C803 C802 1.399 . S
C803 C804 1.385 . S
C804 H790 0.931 . S
C804 C803 1.385 . S
C804 C805 1.389 . S
C805 C804 1.389 . S
C805 C806 1.387 . S
C806 H791 0.930 . S
C806 C801 1.390 . S
C806 C805 1.387 . S
H807 C819 0.930 . S
H808 C821 0.930 . S
H809 C822 0.930 . S
H810 C826 0.959 . S
H811 C826 0.959 . S
H812 C826 0.961 . S
H813 C827 0.960 . S
H814 C827 0.961 . S
H815 C827 0.959 . S
H816 C830 0.929 . S
H817 C831 0.931 . S
H818 C833 0.930 . S
C819 H807 0.930 . S
C819 C820 1.399 . S
C819 C824 1.399 . S
C820 C819 1.399 . S
C820 C821 1.376 . S
C821 H808 0.930 . S
C821 C820 1.376 . S
C821 C822 1.388 . S
C822 H809 0.930 . S
C822 C821 1.388 . S
C822 C823 1.390 . S
C823 C822 1.390 . S
C823 C824 1.394 . S
C823 C829 1.465 . S
C824 C819 1.399 . S
C824 C823 1.394 . S
C824 C825 1.516 . S
C825 C824 1.516 . S
C825 C826 1.502 . S
C825 C827 1.561 . S
C825 C828 1.526 . S
C826 H810 0.959 . S
C826 H811 0.959 . S
C826 H812 0.961 . S
C826 C825 1.502 . S
C827 H813 0.960 . S
C827 H814 0.961 . S
C827 H815 0.959 . S
C827 C825 1.561 . S
C828 C825 1.526 . S
C828 C829 1.396 . S
C828 C833 1.390 . S
C829 C823 1.465 . S
C829 C828 1.396 . S
C829 C830 1.399 . S
C830 H816 0.929 . S
C830 C829 1.399 . S
C830 C831 1.385 . S
C831 H817 0.931 . S
C831 C830 1.385 . S
C831 C832 1.389 . S
C832 C831 1.389 . S
C832 C833 1.387 . S
C833 H818 0.930 . S
C833 C828 1.390 . S
C833 C832 1.387 . S
H834 C846 0.930 . S
H835 C848 0.930 . S
H836 C849 0.930 . S
H837 C853 0.959 . S
H838 C853 0.959 . S
H839 C853 0.961 . S
H840 C854 0.960 . S
H841 C854 0.961 . S
H842 C854 0.959 . S
H843 C857 0.929 . S
H844 C858 0.931 . S
H845 C860 0.930 . S
C846 H834 0.930 . S
C846 C847 1.399 . S
C846 C851 1.399 . S
C847 C846 1.399 . S
C847 C848 1.376 . S
C848 H835 0.930 . S
C848 C847 1.376 . S
C848 C849 1.388 . S
C849 H836 0.930 . S
C849 C848 1.388 . S
C849 C850 1.390 . S
C850 C849 1.390 . S
C850 C851 1.394 . S
C850 C856 1.465 . S
C851 C846 1.399 . S
C851 C850 1.394 . S
C851 C852 1.516 . S
C852 C851 1.516 . S
C852 C853 1.502 . S
C852 C854 1.561 . S
C852 C855 1.526 . S
C853 H837 0.959 . S
C853 H838 0.959 . S
C853 H839 0.961 . S
C853 C852 1.502 . S
C854 H840 0.960 . S
C854 H841 0.961 . S
C854 H842 0.959 . S
C854 C852 1.561 . S
C855 C852 1.526 . S
C855 C856 1.396 . S
C855 C860 1.390 . S
C856 C850 1.465 . S
C856 C855 1.396 . S
C856 C857 1.399 . S
C857 H843 0.929 . S
C857 C856 1.399 . S
C857 C858 1.385 . S
C858 H844 0.931 . S
C858 C857 1.385 . S
C858 C859 1.389 . S
C859 C858 1.389 . S
C859 C860 1.387 . S
C860 H845 0.930 . S
C860 C855 1.390 . S
C860 C859 1.387 . S
H861 C873 0.930 . S
H862 C875 0.930 . S
H863 C876 0.930 . S
H864 C880 0.959 . S
H865 C880 0.959 . S
H866 C880 0.961 . S
H867 C881 0.960 . S
H868 C881 0.961 1_554 S
H869 C881 0.959 . S
H870 C884 0.929 . S
H871 C885 0.942 . S
H872 C887 0.935 . S
C873 H861 0.930 . S
C873 C874 1.399 . S
C873 C878 1.399 . S
C874 C873 1.399 . S
C874 C875 1.376 . S
C875 H862 0.930 . S
C875 C874 1.376 . S
C875 C876 1.388 . S
C876 H863 0.930 . S
C876 C875 1.388 . S
C876 C877 1.390 . S
C877 C876 1.390 . S
C877 C878 1.394 . S
C877 C883 1.465 . S
C878 C873 1.399 . S
C878 C877 1.394 . S
C878 C879 1.516 . S
C879 C878 1.516 . S
C879 C880 1.502 . S
C879 C881 1.561 . S
C879 C882 1.526 . S
C880 H864 0.959 . S
C880 H865 0.959 . S
C880 H866 0.961 . S
C880 C879 1.502 . S
C881 H867 0.960 . S
C881 H868 0.961 1_556 S
C881 H869 0.959 . S
C881 C879 1.561 . S
C882 C879 1.526 . S
C882 C883 1.396 . S
C882 C887 1.382 1_556 S
C883 C877 1.465 . S
C883 C882 1.396 . S
C883 C884 1.399 . S
C884 H870 0.929 . S
C884 C883 1.399 . S
C884 C885 1.385 . S
C885 H871 0.942 . S
C885 C884 1.385 . S
C885 C886 1.389 1_556 S
C886 C885 1.389 1_554 S
C886 C887 1.389 . S
C887 H872 0.935 . S
C887 C882 1.382 1_554 S
C887 C886 1.389 . S
H888 C900 0.930 . S
H889 C902 0.930 . S
H890 C903 0.930 . S
H891 C907 0.959 . S
H892 C907 0.959 . S
H893 C907 0.961 . S
H894 C908 0.960 . S
H895 C908 0.961 . S
H896 C908 0.959 . S
H897 C911 0.929 . S
H898 C912 0.931 . S
H899 C914 0.930 . S
C900 H888 0.930 . S
C900 C901 1.399 . S
C900 C905 1.399 . S
C901 C900 1.399 . S
C901 C902 1.376 . S
C902 H889 0.930 . S
C902 C901 1.376 . S
C902 C903 1.388 . S
C903 H890 0.930 . S
C903 C902 1.388 . S
C903 C904 1.390 . S
C904 C903 1.390 . S
C904 C905 1.394 . S
C904 C910 1.465 . S
C905 C900 1.399 . S
C905 C904 1.394 . S
C905 C906 1.516 . S
C906 C905 1.516 . S
C906 C907 1.502 . S
C906 C908 1.561 . S
C906 C909 1.526 . S
C907 H891 0.959 . S
C907 H892 0.959 . S
C907 H893 0.961 . S
C907 C906 1.502 . S
C908 H894 0.960 . S
C908 H895 0.961 . S
C908 H896 0.959 . S
C908 C906 1.561 . S
C909 C906 1.526 . S
C909 C910 1.396 . S
C909 C914 1.390 . S
C910 C904 1.465 . S
C910 C909 1.396 . S
C910 C911 1.399 . S
C911 H897 0.929 . S
C911 C910 1.399 . S
C911 C912 1.385 . S
C912 H898 0.931 . S
C912 C911 1.385 . S
C912 C913 1.389 . S
C913 C912 1.389 . S
C913 C914 1.387 . S
C914 H899 0.930 . S
C914 C909 1.390 . S
C914 C913 1.387 . S
H915 C927 0.930 . S
H916 C929 0.930 . S
H917 C930 0.930 . S
H918 C934 0.959 . S
H919 C934 0.959 . S
H920 C934 0.961 . S
H921 C935 0.960 . S
H922 C935 0.961 . S
H923 C935 0.959 . S
H924 C938 0.929 . S
H925 C939 0.931 . S
H926 C941 0.930 . S
C927 H915 0.930 . S
C927 C928 1.399 . S
C927 C932 1.399 . S
C928 C927 1.399 . S
C928 C929 1.376 . S
C929 H916 0.930 . S
C929 C928 1.376 . S
C929 C930 1.388 . S
C930 H917 0.930 . S
C930 C929 1.388 . S
C930 C931 1.390 . S
C931 C930 1.390 . S
C931 C932 1.394 . S
C931 C937 1.465 . S
C932 C927 1.399 . S
C932 C931 1.394 . S
C932 C933 1.516 . S
C933 C932 1.516 . S
C933 C934 1.502 . S
C933 C935 1.561 . S
C933 C936 1.526 . S
C934 H918 0.959 . S
C934 H919 0.959 . S
C934 H920 0.961 . S
C934 C933 1.502 . S
C935 H921 0.960 . S
C935 H922 0.961 . S
C935 H923 0.959 . S
C935 C933 1.561 . S
C936 C933 1.526 . S
C936 C937 1.396 . S
C936 C941 1.390 . S
C937 C931 1.465 . S
C937 C936 1.396 . S
C937 C938 1.399 . S
C938 H924 0.929 . S
C938 C937 1.399 . S
C938 C939 1.385 . S
C939 H925 0.931 . S
C939 C938 1.385 . S
C939 C940 1.389 . S
C940 C939 1.389 . S
C940 C941 1.387 . S
C941 H926 0.930 . S
C941 C936 1.390 . S
C941 C940 1.387 . S
H942 C954 0.930 . S
H943 C956 0.930 . S
H944 C957 0.930 . S
H945 C961 0.959 . S
H946 C961 0.959 . S
H947 C961 0.961 . S
H948 C962 0.960 . S
H949 C962 0.961 . S
H950 C962 0.959 . S
H951 C965 0.929 . S
H952 C966 0.931 . S
H953 C968 0.930 . S
C954 H942 0.930 . S
C954 C955 1.399 . S
C954 C959 1.399 . S
C955 C954 1.399 . S
C955 C956 1.376 . S
C956 H943 0.930 . S
C956 C955 1.376 . S
C956 C957 1.388 . S
C957 H944 0.930 . S
C957 C956 1.388 . S
C957 C958 1.390 . S
C958 C957 1.390 . S
C958 C959 1.394 . S
C958 C964 1.465 . S
C959 C954 1.399 . S
C959 C958 1.394 . S
C959 C960 1.516 . S
C960 C959 1.516 . S
C960 C961 1.502 . S
C960 C962 1.561 . S
C960 C963 1.526 . S
C961 H945 0.959 . S
C961 H946 0.959 . S
C961 H947 0.961 . S
C961 C960 1.502 . S
C962 H948 0.960 . S
C962 H949 0.961 . S
C962 H950 0.959 . S
C962 C960 1.561 . S
C963 C960 1.526 . S
C963 C964 1.396 . S
C963 C968 1.390 . S
C964 C958 1.465 . S
C964 C963 1.396 . S
C964 C965 1.399 . S
C965 H951 0.929 . S
C965 C964 1.399 . S
C965 C966 1.385 . S
C966 H952 0.931 . S
C966 C965 1.385 . S
C966 C967 1.389 . S
C967 C966 1.389 . S
C967 C968 1.387 . S
C968 H953 0.930 . S
C968 C963 1.390 . S
C968 C967 1.387 . S
H969 C981 0.930 . S
H970 C983 0.930 . S
H971 C984 0.930 . S
H972 C988 0.959 . S
H973 C988 0.959 . S
H974 C988 0.961 . S
H975 C989 0.960 . S
H976 C989 0.961 . S
H977 C989 0.959 . S
H978 C992 0.929 . S
H979 C993 0.931 . S
H980 C995 0.930 . S
C981 H969 0.930 . S
C981 C982 1.399 . S
C981 C986 1.399 . S
C982 C981 1.399 . S
C982 C983 1.376 . S
C983 H970 0.930 . S
C983 C982 1.376 . S
C983 C984 1.388 . S
C984 H971 0.930 . S
C984 C983 1.388 . S
C984 C985 1.390 . S
C985 C984 1.390 . S
C985 C986 1.394 . S
C985 C991 1.465 . S
C986 C981 1.399 . S
C986 C985 1.394 . S
C986 C987 1.516 . S
C987 C986 1.516 . S
C987 C988 1.502 . S
C987 C989 1.561 . S
C987 C990 1.526 . S
C988 H972 0.959 . S
C988 H973 0.959 . S
C988 H974 0.961 . S
C988 C987 1.502 . S
C989 H975 0.960 . S
C989 H976 0.961 . S
C989 H977 0.959 . S
C989 C987 1.561 . S
C990 C987 1.526 . S
C990 C991 1.396 . S
C990 C995 1.390 . S
C991 C985 1.465 . S
C991 C990 1.396 . S
C991 C992 1.399 . S
C992 H978 0.929 . S
C992 C991 1.399 . S
C992 C993 1.385 . S
C993 H979 0.931 . S
C993 C992 1.385 . S
C993 C994 1.389 . S
C994 C993 1.389 . S
C994 C995 1.387 . S
C995 H980 0.930 . S
C995 C990 1.390 . S
C995 C994 1.387 . S
H996 C1008 0.930 . S
H997 C1010 0.930 . S
H998 C1011 0.930 . S
H999 C1015 0.959 . S
H1000 C1015 0.959 . S
H1001 C1015 0.961 . S
H1002 C1016 0.960 . S
H1003 C1016 0.961 . S
H1004 C1016 0.959 . S
H1005 C1019 0.929 . S
H1006 C1020 0.931 . S
H1007 C1022 0.930 . S
C1008 H996 0.930 . S
C1008 C1009 1.399 . S
C1008 C1013 1.399 . S
C1009 C1008 1.399 . S
C1009 C1010 1.376 . S
C1010 H997 0.930 . S
C1010 C1009 1.376 . S
C1010 C1011 1.388 . S
C1011 H998 0.930 . S
C1011 C1010 1.388 . S
C1011 C1012 1.390 . S
C1012 C1011 1.390 . S
C1012 C1013 1.394 . S
C1012 C1018 1.465 . S
C1013 C1008 1.399 . S
C1013 C1012 1.394 . S
C1013 C1014 1.516 . S
C1014 C1013 1.516 . S
C1014 C1015 1.502 . S
C1014 C1016 1.561 . S
C1014 C1017 1.526 . S
C1015 H999 0.959 . S
C1015 H1000 0.959 . S
C1015 H1001 0.961 . S
C1015 C1014 1.502 . S
C1016 H1002 0.960 . S
C1016 H1003 0.961 . S
C1016 H1004 0.959 . S
C1016 C1014 1.561 . S
C1017 C1014 1.526 . S
C1017 C1018 1.396 . S
C1017 C1022 1.390 . S
C1018 C1012 1.465 . S
C1018 C1017 1.396 . S
C1018 C1019 1.399 . S
C1019 H1005 0.929 . S
C1019 C1018 1.399 . S
C1019 C1020 1.385 . S
C1020 H1006 0.931 . S
C1020 C1019 1.385 . S
C1020 C1021 1.389 . S
C1021 C1020 1.389 . S
C1021 C1022 1.387 . S
C1022 H1007 0.930 . S
C1022 C1017 1.390 . S
C1022 C1021 1.387 . S
H1023 C1035 0.930 . S
H1024 C1037 0.930 . S
H1025 C1038 0.930 . S
H1026 C1042 0.959 . S
H1027 C1042 0.959 . S
H1028 C1042 0.961 . S
H1029 C1043 0.960 . S
H1030 C1043 0.961 . S
H1031 C1043 0.959 . S
H1032 C1046 0.929 . S
H1033 C1047 0.931 . S
H1034 C1049 0.930 . S
C1035 H1023 0.930 . S
C1035 C1036 1.399 . S
C1035 C1040 1.399 . S
C1036 C1035 1.399 . S
C1036 C1037 1.376 . S
C1037 H1024 0.930 . S
C1037 C1036 1.376 . S
C1037 C1038 1.388 . S
C1038 H1025 0.930 . S
C1038 C1037 1.388 . S
C1038 C1039 1.390 . S
C1039 C1038 1.390 . S
C1039 C1040 1.394 . S
C1039 C1045 1.465 . S
C1040 C1035 1.399 . S
C1040 C1039 1.394 . S
C1040 C1041 1.516 . S
C1041 C1040 1.516 . S
C1041 C1042 1.502 . S
C1041 C1043 1.561 . S
C1041 C1044 1.526 . S
C1042 H1026 0.959 . S
C1042 H1027 0.959 . S
C1042 H1028 0.961 . S
C1042 C1041 1.502 . S
C1043 H1029 0.960 . S
C1043 H1030 0.961 . S
C1043 H1031 0.959 . S
C1043 C1041 1.561 . S
C1044 C1041 1.526 . S
C1044 C1045 1.396 . S
C1044 C1049 1.390 . S
C1045 C1039 1.465 . S
C1045 C1044 1.396 . S
C1045 C1046 1.399 . S
C1046 H1032 0.929 . S
C1046 C1045 1.399 . S
C1046 C1047 1.385 . S
C1047 H1033 0.931 . S
C1047 C1046 1.385 . S
C1047 C1048 1.389 . S
C1048 C1047 1.389 . S
C1048 C1049 1.387 . S
C1049 H1034 0.930 . S
C1049 C1044 1.390 . S
C1049 C1048 1.387 . S
H1050 C1062 0.930 . S
H1051 C1064 0.930 . S
H1052 C1065 0.930 . S
H1053 C1069 0.959 . S
H1054 C1069 0.959 . S
H1055 C1069 0.961 . S
H1056 C1070 0.960 . S
H1057 C1070 0.961 . S
H1058 C1070 0.958 . S
H1059 C1073 0.929 . S
H1060 C1074 0.931 . S
H1061 C1076 0.930 . S
C1062 H1050 0.930 . S
C1062 C1063 1.399 . S
C1062 C1067 1.399 . S
C1063 C1062 1.399 . S
C1063 C1064 1.376 . S
C1064 H1051 0.930 . S
C1064 C1063 1.376 . S
C1064 C1065 1.388 1_554 S
C1065 H1052 0.930 . S
C1065 C1064 1.388 1_556 S
C1065 C1066 1.390 . S
C1066 C1065 1.390 . S
C1066 C1067 1.394 1_556 S
C1066 C1072 1.465 . S
C1067 C1062 1.399 . S
C1067 C1066 1.394 1_554 S
C1067 C1068 1.516 . S
C1068 C1067 1.516 . S
C1068 C1069 1.502 . S
C1068 C1070 1.561 . S
C1068 C1071 1.526 1_554 S
C1069 H1053 0.959 . S
C1069 H1054 0.959 . S
C1069 H1055 0.961 . S
C1069 C1068 1.502 . S
C1070 H1056 0.960 . S
C1070 H1057 0.961 . S
C1070 H1058 0.958 . S
C1070 C1068 1.561 . S
C1071 C1068 1.526 1_556 S
C1071 C1072 1.396 . S
C1071 C1076 1.390 . S
C1072 C1066 1.465 . S
C1072 C1071 1.396 . S
C1072 C1073 1.399 . S
C1073 H1059 0.929 . S
C1073 C1072 1.399 . S
C1073 C1074 1.385 . S
C1074 H1060 0.931 . S
C1074 C1073 1.385 . S
C1074 C1075 1.389 . S
C1075 C1074 1.389 . S
C1075 C1076 1.387 . S
C1076 H1061 0.930 . S
C1076 C1071 1.390 . S
C1076 C1075 1.387 . S
H1077 C1089 0.930 . S
H1078 C1091 0.930 . S
H1079 C1092 0.930 . S
H1080 C1096 0.959 . S
H1081 C1096 0.959 . S
H1082 C1096 0.961 . S
H1083 C1097 0.960 . S
H1084 C1097 0.961 . S
H1085 C1097 0.959 . S
H1086 C1100 0.929 . S
H1087 C1101 0.931 . S
H1088 C1103 0.930 . S
C1089 H1077 0.930 . S
C1089 C1090 1.399 . S
C1089 C1094 1.399 . S
C1090 C1089 1.399 . S
C1090 C1091 1.376 . S
C1091 H1078 0.930 . S
C1091 C1090 1.376 . S
C1091 C1092 1.388 . S
C1092 H1079 0.930 . S
C1092 C1091 1.388 . S
C1092 C1093 1.390 . S
C1093 C1092 1.390 . S
C1093 C1094 1.394 . S
C1093 C1099 1.465 . S
C1094 C1089 1.399 . S
C1094 C1093 1.394 . S
C1094 C1095 1.516 . S
C1095 C1094 1.516 . S
C1095 C1096 1.502 . S
C1095 C1097 1.561 . S
C1095 C1098 1.526 . S
C1096 H1080 0.959 . S
C1096 H1081 0.959 . S
C1096 H1082 0.961 . S
C1096 C1095 1.502 . S
C1097 H1083 0.960 . S
C1097 H1084 0.961 . S
C1097 H1085 0.959 . S
C1097 C1095 1.561 . S
C1098 C1095 1.526 . S
C1098 C1099 1.396 . S
C1098 C1103 1.390 . S
C1099 C1093 1.465 . S
C1099 C1098 1.396 . S
C1099 C1100 1.399 . S
C1100 H1086 0.929 . S
C1100 C1099 1.399 . S
C1100 C1101 1.385 . S
C1101 H1087 0.931 . S
C1101 C1100 1.385 . S
C1101 C1102 1.389 . S
C1102 C1101 1.389 . S
C1102 C1103 1.387 . S
C1103 H1088 0.930 . S
C1103 C1098 1.390 . S
C1103 C1102 1.387 . S
C481 C445 1.685 . S
C469 C29 1.560 . S
C496 C115 1.524 . S
C508 C375 1.549 . S
C523 C153 1.570 . S
C535 C394 1.713 . S
C550 C239 1.565 . S
C562 C403 1.565 . S
C589 C417 1.607 . S
C577 C301 1.610 . S
C604 C339 1.873 . S
C616 C436 1.946 . S
C631 C91 1.589 . S
C643 C389 1.667 . S
C658 C177 1.573 . S
C670 C408 1.571 . S
C685 C215 1.624 . S
C697 C422 1.674 . S
C724 C431 1.921 . S
C712 C277 1.820 . S
C751 C450 1.628 . S
C739 C363 1.564 . S
C778 C380 1.570 . S
C766 C53 1.535 . S
C793 C35 1.557 . S
C805 C395 1.563 . S
C820 C109 1.440 . S
C832 C407 1.483 . S
C859 C421 1.464 . S
C847 C159 1.436 . S
C874 C233 1.586 . S
C886 C437 1.716 . S
C913 C449 1.506 . S
C901 C295 1.463 . S
C940 C379 1.370 . S
C928 C345 1.382 . S
C967 C451 1.470 . S
C955 C97 1.427 . S
C982 C171 1.463 . S
C994 C381 1.507 . S
C1021 C393 1.545 . S
C1009 C221 1.537 . S
C1036 C283 1.417 . S
C1048 C409 1.387 . S
C1063 C357 1.480 . S
C1075 C423 1.536 . S
C1090 C47 1.587 . S
C1102 C435 1.680 . S
