# Generated by pormake.
# Topology dag, (6,3)-cn, num edge types: 1
# Building blocks:
#     Node 0, Type 0, BuildingBlock: OJICUG_clean_sbu_0, # of connection points: 6
#     Node 1, Type 0, BuildingBlock: OJICUG_clean_sbu_0, # of connection points: 6
#     Node 2, Type 0, BuildingBlock: OJICUG_clean_sbu_0, # of connection points: 6
#     Node 3, Type 0, BuildingBlock: OJICUG_clean_sbu_0, # of connection points: 6
#     Node 4, Type 1, BuildingBlock: ESEHIV_clean_linker_0, # of connection points: 3
#     Node 5, Type 1, BuildingBlock: ESEHIV_clean_linker_0, # of connection points: 3
#     Node 6, Type 1, BuildingBlock: ESEHIV_clean_linker_0, # of connection points: 3
#     Node 7, Type 1, BuildingBlock: ESEHIV_clean_linker_0, # of connection points: 3
#     Node 8, Type 1, BuildingBlock: ESEHIV_clean_linker_0, # of connection points: 3
#     Node 9, Type 1, BuildingBlock: ESEHIV_clean_linker_0, # of connection points: 3
#     Node 10, Type 1, BuildingBlock: ESEHIV_clean_linker_0, # of connection points: 3
#     Node 11, Type 1, BuildingBlock: ESEHIV_clean_linker_0, # of connection points: 3
#     Edge 12, Type (0, 1), BuildingBlock: EYOCIG_clean_linker_4, # of connection points: 2
#     Edge 13, Type (0, 1), BuildingBlock: EYOCIG_clean_linker_4, # of connection points: 2
#     Edge 14, Type (0, 1), BuildingBlock: EYOCIG_clean_linker_4, # of connection points: 2
#     Edge 15, Type (0, 1), BuildingBlock: EYOCIG_clean_linker_4, # of connection points: 2
#     Edge 16, Type (0, 1), BuildingBlock: EYOCIG_clean_linker_4, # of connection points: 2
#     Edge 17, Type (0, 1), BuildingBlock: EYOCIG_clean_linker_4, # of connection points: 2
#     Edge 18, Type (0, 1), BuildingBlock: EYOCIG_clean_linker_4, # of connection points: 2
#     Edge 19, Type (0, 1), BuildingBlock: EYOCIG_clean_linker_4, # of connection points: 2
#     Edge 20, Type (0, 1), BuildingBlock: EYOCIG_clean_linker_4, # of connection points: 2
#     Edge 21, Type (0, 1), BuildingBlock: EYOCIG_clean_linker_4, # of connection points: 2
#     Edge 22, Type (0, 1), BuildingBlock: EYOCIG_clean_linker_4, # of connection points: 2
#     Edge 23, Type (0, 1), BuildingBlock: EYOCIG_clean_linker_4, # of connection points: 2
#     Edge 24, Type (0, 1), BuildingBlock: EYOCIG_clean_linker_4, # of connection points: 2
#     Edge 25, Type (0, 1), BuildingBlock: EYOCIG_clean_linker_4, # of connection points: 2
#     Edge 26, Type (0, 1), BuildingBlock: EYOCIG_clean_linker_4, # of connection points: 2
#     Edge 27, Type (0, 1), BuildingBlock: EYOCIG_clean_linker_4, # of connection points: 2
#     Edge 28, Type (0, 1), BuildingBlock: EYOCIG_clean_linker_4, # of connection points: 2
#     Edge 29, Type (0, 1), BuildingBlock: EYOCIG_clean_linker_4, # of connection points: 2
#     Edge 30, Type (0, 1), BuildingBlock: EYOCIG_clean_linker_4, # of connection points: 2
#     Edge 31, Type (0, 1), BuildingBlock: EYOCIG_clean_linker_4, # of connection points: 2
#     Edge 32, Type (0, 1), BuildingBlock: EYOCIG_clean_linker_4, # of connection points: 2
#     Edge 33, Type (0, 1), BuildingBlock: EYOCIG_clean_linker_4, # of connection points: 2
#     Edge 34, Type (0, 1), BuildingBlock: EYOCIG_clean_linker_4, # of connection points: 2
#     Edge 35, Type (0, 1), BuildingBlock: EYOCIG_clean_linker_4, # of connection points: 2
# Relax obj value: 0.253
# Max RMSD: 0.198
# Mean RMSD: 0.164
data_MOF--net-dag--node1-OJICUG_clean_sbu_0--node2-ESEHIV_clean_linker_0--edge1-EYOCIG_clean_linker_4
_symmetry_space_group_name_H-M    P1
_symmetry_Int_Tables_number       1
_symmetry_cell_setting            triclinic
loop_
_symmetry_equiv_pos_as_xyz
'x, y, z'
_cell_length_a     27.136893
_cell_length_b     28.420847
_cell_length_c     27.821405
_cell_angle_alpha  94.475436
_cell_angle_beta   90.089277
_cell_angle_gamma 90.017516
loop_
_atom_site_label
_atom_site_type_symbol
_atom_site_fract_x
_atom_site_fract_y
_atom_site_fract_z
_atom_type_partial_charge
Sc0 Sc 0.09614 0.86225 0.02461 0.0
Sc1 Sc 0.12559 0.74101 0.02171 0.0
Sc2 Sc 0.21051 0.82715 0.06975 0.0
O3 O 0.14413 0.81009 0.0385 0.0
C4 C 0.19929 0.90805 -0.00233 0.0
C5 C 0.08592 0.79111 0.93052 0.0
C6 C 0.23965 0.74221 -0.00654 0.0
C7 C 0.023 0.78375 0.05952 0.0
C8 C 0.1379 0.89922 0.12773 0.0
C9 C 0.17667 0.73825 0.12474 0.0
O10 O 0.1526 0.90536 -0.00468 0.0
O11 O 0.10067 0.75461 0.95004 0.0
O12 O 0.25011 0.77927 0.01991 0.0
O13 O 0.03382 0.82603 0.05223 0.0
O14 O 0.17838 0.87688 0.12351 0.0
O15 O 0.14766 0.72112 0.092 0.0
O16 O 0.1048 0.8975 0.09538 0.0
O17 O 0.05193 0.74918 0.05038 0.0
O18 O 0.20246 0.77504 0.12116 0.0
O19 O 0.08234 0.83172 0.95273 0.0
O20 O 0.22556 0.88194 0.02236 0.0
O21 O 0.19693 0.72392 -0.00923 0.0
Sc22 Sc 0.71158 0.64591 0.45782 0.0
Sc23 Sc 0.62526 0.73138 0.50403 0.0
Sc24 Sc 0.59699 0.60992 0.50146 0.0
O25 O 0.64466 0.66244 0.48797 0.0
C26 C 0.64027 0.57307 0.399 0.0
C27 C 0.67783 0.73428 0.40195 0.0
C28 C 0.52381 0.6874 0.4645 0.0
C29 C 0.73873 0.73113 0.53469 0.0
C30 C 0.70016 0.56522 0.53011 0.0
C31 C 0.58435 0.68158 0.59479 0.0
O32 O 0.68047 0.59587 0.40362 0.0
O33 O 0.64838 0.75131 0.4342 0.0
O34 O 0.53478 0.64535 0.47256 0.0
O35 O 0.75 0.69425 0.50835 0.0
O36 O 0.65344 0.56759 0.53194 0.0
O37 O 0.59899 0.71803 0.57517 0.0
O38 O 0.72647 0.59134 0.50552 0.0
O39 O 0.69584 0.74904 0.5365 0.0
O40 O 0.58181 0.6407 0.57296 0.0
O41 O 0.7038 0.69771 0.40606 0.0
O42 O 0.60692 0.57445 0.43099 0.0
O43 O 0.55232 0.72231 0.47376 0.0
Sc44 Sc 0.85593 0.23153 0.00548 0.0
Sc45 Sc 0.7704 0.14567 0.95803 0.0
Sc46 Sc 0.88512 0.11028 0.00215 0.0
O47 O 0.8371 0.16254 0.98873 0.0
C48 C 0.95802 0.18855 0.96662 0.0
C49 C 0.80392 0.23471 0.90303 0.0
C50 C 0.84249 0.07387 0.89914 0.0
C51 C 0.74218 0.23038 0.03483 0.0
C52 C 0.89621 0.18128 0.09626 0.0
C53 C 0.78229 0.06468 0.03003 0.0
O54 O 0.92934 0.22324 0.9762 0.0
O55 O 0.77796 0.19804 0.90679 0.0
O56 O 0.87571 0.07523 0.93136 0.0
O57 O 0.7849 0.24866 0.03698 0.0
O58 O 0.89968 0.14069 0.07397 0.0
O59 O 0.75581 0.09065 0.00536 0.0
O60 O 0.88129 0.21779 0.07689 0.0
O61 O 0.73136 0.19334 0.0085 0.0
O62 O 0.82898 0.06737 0.03202 0.0
O63 O 0.83336 0.25159 0.93548 0.0
O64 O 0.94714 0.14631 0.97392 0.0
O65 O 0.80208 0.09629 0.90369 0.0
Sc66 Sc 0.38444 0.3626 0.52528 0.0
Sc67 Sc 0.27006 0.3271 0.56985 0.0
Sc68 Sc 0.35569 0.24125 0.523 0.0
O69 O 0.33665 0.31028 0.53914 0.0
C70 C 0.39624 0.29085 0.43193 0.0
C71 C 0.28133 0.40787 0.49744 0.0
C72 C 0.24181 0.24175 0.49352 0.0
C73 C 0.34228 0.39956 0.62812 0.0
C74 C 0.45753 0.28494 0.56192 0.0
C75 C 0.30375 0.23848 0.62541 0.0
O76 O 0.39909 0.3317 0.45376 0.0
O77 O 0.25509 0.38191 0.52231 0.0
O78 O 0.28469 0.22378 0.49129 0.0
O79 O 0.37525 0.39818 0.59577 0.0
O80 O 0.42891 0.25008 0.55277 0.0
O81 O 0.27791 0.27517 0.6215 0.0
O82 O 0.44662 0.32699 0.55388 0.0
O83 O 0.30197 0.37689 0.62386 0.0
O84 O 0.333 0.22141 0.59299 0.0
O85 O 0.328 0.40516 0.49514 0.0
O86 O 0.38149 0.25445 0.4516 0.0
O87 O 0.23092 0.27885 0.51972 0.0
H88 H 0.00732 0.06862 0.2385 0.0
H89 H 0.12116 0.06998 0.34597 0.0
H90 H 0.02484 0.18978 0.33972 0.0
C91 C 0.02449 0.08529 0.27076 0.0
C92 C 0.00998 0.13076 0.28811 0.0
C93 C 0.06444 0.06331 0.2916 0.0
C94 C 0.08871 0.08603 0.33132 0.0
C95 C 0.07433 0.13156 0.3489 0.0
C96 C 0.03431 0.15365 0.32785 0.0
H97 H 0.47248 0.56945 0.73754 0.0
H98 H 0.35984 0.57081 0.84587 0.0
H99 H 0.45497 0.69127 0.83782 0.0
C100 C 0.4555 0.58626 0.76977 0.0
C101 C 0.46975 0.63199 0.78658 0.0
C102 C 0.41602 0.56413 0.79114 0.0
C103 C 0.39198 0.58699 0.83083 0.0
C104 C 0.40615 0.63275 0.8479 0.0
C105 C 0.44568 0.655 0.82632 0.0
H106 H 0.80179 0.86223 0.0867 0.0
H107 H 0.78045 0.75697 0.18726 0.0
H108 H 0.67883 0.87324 0.18427 0.0
C109 C 0.77918 0.84709 0.11373 0.0
C110 C 0.73733 0.8713 0.13163 0.0
C111 C 0.79459 0.80581 0.13351 0.0
C112 C 0.76709 0.78764 0.17028 0.0
C113 C 0.72535 0.81193 0.18867 0.0
C114 C 0.7097 0.85327 0.1686 0.0
H115 H 0.67986 0.36451 0.58844 0.0
H116 H 0.69952 0.26084 0.691 0.0
H117 H 0.80463 0.37384 0.68429 0.0
C118 C 0.7024 0.34932 0.61556 0.0
C119 C 0.74521 0.37266 0.63247 0.0
C120 C 0.68609 0.30892 0.63637 0.0
C121 C 0.71351 0.29079 0.67327 0.0
C122 C 0.75629 0.31412 0.69058 0.0
C123 C 0.7729 0.35454 0.66944 0.0
H124 H 0.5094 0.40437 0.28958 0.0
H125 H 0.622 0.40171 0.18113 0.0
H126 H 0.52604 0.28199 0.1899 0.0
C127 C 0.5262 0.38733 0.25737 0.0
C128 C 0.5116 0.34163 0.24078 0.0
C129 C 0.5659 0.40904 0.23588 0.0
C130 C 0.58971 0.38587 0.19624 0.0
C131 C 0.57525 0.34012 0.17949 0.0
C132 C 0.53553 0.31827 0.20117 0.0
H133 H 0.18023 0.10968 0.94062 0.0
H134 H 0.19975 0.21317 0.8379 0.0
H135 H 0.30419 0.09958 0.84417 0.0
C136 C 0.20267 0.12474 0.9134 0.0
C137 C 0.24518 0.10113 0.89628 0.0
C138 C 0.18644 0.16521 0.89264 0.0
C139 C 0.21369 0.18316 0.8556 0.0
C140 C 0.2562 0.15959 0.8381 0.0
C141 C 0.2727 0.11908 0.85917 0.0
H142 H 0.30136 0.60957 0.43951 0.0
H143 H 0.28067 0.71341 0.33731 0.0
H144 H 0.17657 0.59952 0.34373 0.0
C145 C 0.27862 0.6247 0.41251 0.0
C146 C 0.23598 0.60107 0.39559 0.0
C147 C 0.2946 0.66524 0.39174 0.0
C148 C 0.26692 0.68334 0.35501 0.0
C149 C 0.22434 0.6597 0.33762 0.0
C150 C 0.20811 0.61907 0.35865 0.0
H151 H 0.97434 0.90574 0.78831 0.0
H152 H 0.95599 0.78325 0.68898 0.0
H153 H 0.85899 0.90245 0.68226 0.0
C154 C 0.95684 0.8886 0.75646 0.0
C155 C 0.91648 0.91012 0.73578 0.0
C156 C 0.9713 0.84295 0.73959 0.0
C157 C 0.94652 0.81947 0.70047 0.0
C158 C 0.9061 0.8411 0.67964 0.0
C159 C 0.89175 0.88676 0.69672 0.0
C160 C 0.11682 0.95403 0.20581 0.0
C161 C 0.12872 0.92842 0.1712 0.0
C162 C 0.10034 -0.01168 0.24159 0.0
C163 C 0.08592 0.02225 0.26624 0.0
C164 C 0.55278 0.68314 0.68423 0.0
C165 C 0.56807 0.68632 0.64396 0.0
C166 C 0.52878 0.67217 0.7269 0.0
C167 C 0.50211 0.65753 0.75696 0.0
C168 C 0.74233 -0.00347 0.07626 0.0
C169 C 0.75867 0.02819 0.05458 0.0
C170 C 0.73013 0.95541 0.09908 0.0
C171 C 0.72871 0.91802 0.11674 0.0
C172 C 0.54714 0.27521 0.59616 0.0
C173 C 0.50575 0.27666 0.58063 0.0
C174 C 0.59634 0.28031 0.61208 0.0
C175 C 0.63746 0.2912 0.62494 0.0
C176 C 0.61962 0.51842 0.32067 0.0
C177 C 0.6315 0.54402 0.35532 0.0
C178 C 0.60275 0.48417 0.28501 0.0
C179 C 0.58791 0.45016 0.26069 0.0
C180 C 0.04774 0.19897 0.9331 0.0
C181 C 0.0063 0.19724 0.94834 0.0
C182 C 0.09693 0.19403 0.91724 0.0
C183 C 0.13795 0.18309 0.90421 0.0
C184 C 0.24076 0.47637 0.45201 0.0
C185 C 0.25744 0.44457 0.47332 0.0
C186 C 0.22827 0.51751 0.42929 0.0
C187 C 0.22689 0.55468 0.41118 0.0
C188 C 0.05582 0.79088 0.84065 0.0
C189 C 0.07059 0.7868 0.88099 0.0
C190 C 0.03169 0.80281 0.79831 0.0
C191 C 0.00436 0.81769 0.76887 0.0
C192 C 0.86356 0.01972 0.82064 0.0
C193 C 0.85152 0.04508 0.85538 0.0
C194 C 0.88036 0.98544 0.78505 0.0
C195 C 0.89496 0.9513 0.76084 0.0
C196 C 0.42805 0.28979 0.34264 0.0
C197 C 0.41256 0.28612 0.38276 0.0
C198 C 0.45233 0.30142 0.30034 0.0
C199 C 0.47914 0.31633 0.27055 0.0
C200 C 0.24016 0.97655 0.95258 0.0
C201 C 0.22322 0.94478 0.9737 0.0
C202 C 0.25297 0.01763 0.92996 0.0
C203 C 0.25439 0.05476 0.91181 0.0
C204 C 0.43404 0.69771 0.43081 0.0
C205 C 0.47548 0.69576 0.4461 0.0
C206 C 0.38465 0.69336 0.41531 0.0
C207 C 0.34336 0.68284 0.4027 0.0
C208 C 0.36366 0.45409 0.70636 0.0
C209 C 0.35155 0.42857 0.67172 0.0
C210 C 0.38029 0.48849 0.74199 0.0
C211 C 0.39462 0.52271 0.7663 0.0
C212 C 0.93303 0.77247 0.09225 0.0
C213 C 0.97457 0.77482 0.07736 0.0
C214 C 0.88378 0.77671 0.10813 0.0
C215 C 0.84286 0.7875 0.1216 0.0
C216 C 0.74092 0.49709 0.57587 0.0
C217 C 0.72409 0.52872 0.55444 0.0
C218 C 0.75348 0.45605 0.59867 0.0
C219 C 0.75469 0.41893 0.61686 0.0
C220 C 0.92636 0.1821 0.18622 0.0
C221 C 0.91165 0.18562 0.14576 0.0
C222 C 0.95019 0.17095 0.22898 0.0
C223 C 0.97716 0.15634 0.25888 0.0
C224 C 0.18202 0.70183 0.20887 0.0
C225 C 0.17821 0.71703 0.1698 0.0
C226 C 0.19036 0.68598 0.25497 0.0
C227 C 0.20373 0.6721 0.29266 0.0
C228 C 0.80893 0.77211 0.58884 0.0
C229 C 0.77669 0.7536 0.56422 0.0
C230 C 0.84567 0.79423 0.61862 0.0
C231 C 0.87432 0.81416 0.6464 0.0
C232 C 0.67148 0.27114 0.08817 0.0
C233 C 0.70388 0.25266 0.06388 0.0
C234 C 0.63482 0.29329 0.11786 0.0
C235 C 0.60658 0.3132 0.14594 0.0
C236 C 0.29817 0.20198 0.70946 0.0
C237 C 0.30201 0.2173 0.67048 0.0
C238 C 0.28988 0.18599 0.75548 0.0
C239 C 0.27663 0.17207 0.79315 0.0
C240 C 0.68334 0.77012 0.31757 0.0
C241 C 0.67946 0.75516 0.35672 0.0
C242 C 0.69175 0.78567 0.27139 0.0
C243 C 0.70521 0.79941 0.23372 0.0
C244 C 0.79839 0.27141 0.81908 0.0
C245 C 0.80221 0.25598 0.85802 0.0
C246 C 0.79016 0.28752 0.7731 0.0
C247 C 0.77688 0.30156 0.73546 0.0
C248 C 0.17087 0.20017 0.44074 0.0
C249 C 0.20342 0.21898 0.46475 0.0
C250 C 0.13414 0.17784 0.41106 0.0
C251 C 0.10587 0.15806 0.38276 0.0
C252 C 0.31041 0.70109 0.94039 0.0
C253 C 0.27824 0.72 0.9647 0.0
C254 C 0.34675 0.6788 0.91035 0.0
C255 C 0.37485 0.65918 0.8819 0.0
loop_
_geom_bond_atom_site_label_1
_geom_bond_atom_site_label_2
_geom_bond_distance
_geom_bond_site_symmetry_2
_ccdc_geom_bond_type
Sc0 O3 2.025 . S
Sc0 O10 2.105 . S
Sc0 O13 2.105 . S
Sc0 O16 2.105 . S
Sc0 O19 2.105 1_554 S
Sc1 O3 2.025 . S
Sc1 O11 2.105 1_554 S
Sc1 O15 2.105 . S
Sc1 O17 2.105 . S
Sc1 O21 2.105 1_554 S
Sc2 O3 2.025 . S
Sc2 O12 2.105 . S
Sc2 O14 2.105 . S
Sc2 O18 2.105 . S
Sc2 O20 2.105 . S
O3 Sc0 2.025 . S
O3 Sc1 2.025 . S
O3 Sc2 2.025 . S
C4 O10 1.268 . S
C4 O20 1.268 . S
C5 O11 1.268 . S
C5 O19 1.268 . S
C6 O12 1.268 1_556 S
C6 O21 1.268 . S
C7 O13 1.268 . S
C7 O17 1.268 . S
C8 O14 1.268 . S
C8 O16 1.268 . S
C9 O15 1.268 . S
C9 O18 1.268 . S
O10 Sc0 2.105 . S
O10 C4 1.268 . S
O11 Sc1 2.105 1_556 S
O11 C5 1.268 . S
O12 Sc2 2.105 . S
O12 C6 1.268 1_554 S
O13 Sc0 2.105 . S
O13 C7 1.268 . S
O14 Sc2 2.105 . S
O14 C8 1.268 . S
O15 Sc1 2.105 . S
O15 C9 1.268 . S
O16 Sc0 2.105 . S
O16 C8 1.268 . S
O17 Sc1 2.105 . S
O17 C7 1.268 . S
O18 Sc2 2.105 . S
O18 C9 1.268 . S
O19 Sc0 2.105 1_556 S
O19 C5 1.268 . S
O20 Sc2 2.105 . S
O20 C4 1.268 . S
O21 Sc1 2.105 1_556 S
O21 C6 1.268 . S
Sc22 O25 2.025 . S
Sc22 O32 2.105 . S
Sc22 O35 2.105 . S
Sc22 O38 2.105 . S
Sc22 O41 2.105 . S
Sc23 O25 2.025 . S
Sc23 O33 2.105 . S
Sc23 O37 2.105 . S
Sc23 O39 2.105 . S
Sc23 O43 2.105 . S
Sc24 O25 2.025 . S
Sc24 O34 2.105 . S
Sc24 O36 2.105 . S
Sc24 O40 2.105 . S
Sc24 O42 2.105 . S
O25 Sc22 2.025 . S
O25 Sc23 2.025 . S
O25 Sc24 2.025 . S
C26 O32 1.268 . S
C26 O42 1.268 . S
C27 O33 1.268 . S
C27 O41 1.268 . S
C28 O34 1.268 . S
C28 O43 1.268 . S
C29 O35 1.268 . S
C29 O39 1.268 . S
C30 O36 1.268 . S
C30 O38 1.268 . S
C31 O37 1.268 . S
C31 O40 1.268 . S
O32 Sc22 2.105 . S
O32 C26 1.268 . S
O33 Sc23 2.105 . S
O33 C27 1.268 . S
O34 Sc24 2.105 . S
O34 C28 1.268 . S
O35 Sc22 2.105 . S
O35 C29 1.268 . S
O36 Sc24 2.105 . S
O36 C30 1.268 . S
O37 Sc23 2.105 . S
O37 C31 1.268 . S
O38 Sc22 2.105 . S
O38 C30 1.268 . S
O39 Sc23 2.105 . S
O39 C29 1.268 . S
O40 Sc24 2.105 . S
O40 C31 1.268 . S
O41 Sc22 2.105 . S
O41 C27 1.268 . S
O42 Sc24 2.105 . S
O42 C26 1.268 . S
O43 Sc23 2.105 . S
O43 C28 1.268 . S
Sc44 O47 2.026 . S
Sc44 O54 2.105 1_554 S
Sc44 O57 2.105 . S
Sc44 O60 2.105 . S
Sc44 O63 2.105 1_554 S
Sc45 O47 2.023 1_556 S
Sc45 O55 2.105 . S
Sc45 O59 2.105 1_556 S
Sc45 O61 2.105 1_556 S
Sc45 O65 2.105 . S
Sc46 O47 2.027 . S
Sc46 O56 2.105 1_554 S
Sc46 O58 2.105 . S
Sc46 O62 2.105 . S
Sc46 O64 2.105 1_554 S
O47 Sc44 2.026 . S
O47 Sc45 2.023 1_554 S
O47 Sc46 2.027 . S
C48 O54 1.268 . S
C48 O64 1.268 . S
C49 O55 1.268 . S
C49 O63 1.268 . S
C50 O56 1.268 . S
C50 O65 1.268 . S
C51 O57 1.268 . S
C51 O61 1.268 . S
C52 O58 1.268 . S
C52 O60 1.268 . S
C53 O59 1.268 . S
C53 O62 1.268 . S
O54 Sc44 2.105 1_556 S
O54 C48 1.268 . S
O55 Sc45 2.105 . S
O55 C49 1.268 . S
O56 Sc46 2.105 1_556 S
O56 C50 1.268 . S
O57 Sc44 2.105 . S
O57 C51 1.268 . S
O58 Sc46 2.105 . S
O58 C52 1.268 . S
O59 Sc45 2.105 1_554 S
O59 C53 1.268 . S
O60 Sc44 2.105 . S
O60 C52 1.268 . S
O61 Sc45 2.105 1_554 S
O61 C51 1.268 . S
O62 Sc46 2.105 . S
O62 C53 1.268 . S
O63 Sc44 2.105 1_556 S
O63 C49 1.268 . S
O64 Sc46 2.105 1_556 S
O64 C48 1.268 . S
O65 Sc45 2.105 . S
O65 C50 1.268 . S
Sc66 O69 2.025 . S
Sc66 O76 2.105 . S
Sc66 O79 2.105 . S
Sc66 O82 2.105 . S
Sc66 O85 2.105 . S
Sc67 O69 2.025 . S
Sc67 O77 2.105 . S
Sc67 O81 2.105 . S
Sc67 O83 2.105 . S
Sc67 O87 2.105 . S
Sc68 O69 2.025 . S
Sc68 O78 2.105 . S
Sc68 O80 2.105 . S
Sc68 O84 2.105 . S
Sc68 O86 2.105 . S
O69 Sc66 2.025 . S
O69 Sc67 2.025 . S
O69 Sc68 2.025 . S
C70 O76 1.268 . S
C70 O86 1.268 . S
C71 O77 1.268 . S
C71 O85 1.268 . S
C72 O78 1.268 . S
C72 O87 1.268 . S
C73 O79 1.268 . S
C73 O83 1.268 . S
C74 O80 1.268 . S
C74 O82 1.268 . S
C75 O81 1.268 . S
C75 O84 1.268 . S
O76 Sc66 2.105 . S
O76 C70 1.268 . S
O77 Sc67 2.105 . S
O77 C71 1.268 . S
O78 Sc68 2.105 . S
O78 C72 1.268 . S
O79 Sc66 2.105 . S
O79 C73 1.268 . S
O80 Sc68 2.105 . S
O80 C74 1.268 . S
O81 Sc67 2.105 . S
O81 C75 1.268 . S
O82 Sc66 2.105 . S
O82 C74 1.268 . S
O83 Sc67 2.105 . S
O83 C73 1.268 . S
O84 Sc68 2.105 . S
O84 C75 1.268 . S
O85 Sc66 2.105 . S
O85 C71 1.268 . S
O86 Sc68 2.105 . S
O86 C70 1.268 . S
O87 Sc67 2.105 . S
O87 C72 1.268 . S
H88 C91 0.931 . S
H89 C94 0.928 . S
H90 C96 0.930 . S
C91 H88 0.931 . S
C91 C92 1.413 . S
C91 C93 1.360 . S
C92 C91 1.413 . S
C92 C96 1.429 . S
C93 C91 1.360 . S
C93 C94 1.372 . S
C94 H89 0.928 . S
C94 C93 1.372 . S
C94 C95 1.404 . S
C95 C94 1.404 . S
C95 C96 1.391 . S
C96 H90 0.930 . S
C96 C92 1.429 . S
C96 C95 1.391 . S
H97 C100 0.931 . S
H98 C103 0.928 . S
H99 C105 0.930 . S
C100 H97 0.931 . S
C100 C101 1.413 . S
C100 C102 1.360 . S
C101 C100 1.413 . S
C101 C105 1.429 . S
C102 C100 1.360 . S
C102 C103 1.372 . S
C103 H98 0.928 . S
C103 C102 1.372 . S
C103 C104 1.404 . S
C104 C103 1.404 . S
C104 C105 1.391 . S
C105 H99 0.930 . S
C105 C101 1.429 . S
C105 C104 1.391 . S
H106 C109 0.931 . S
H107 C112 0.928 . S
H108 C114 0.930 . S
C109 H106 0.931 . S
C109 C110 1.413 . S
C109 C111 1.360 . S
C110 C109 1.413 . S
C110 C114 1.429 . S
C111 C109 1.360 . S
C111 C112 1.372 . S
C112 H107 0.928 . S
C112 C111 1.372 . S
C112 C113 1.404 . S
C113 C112 1.404 . S
C113 C114 1.391 . S
C114 H108 0.930 . S
C114 C110 1.429 . S
C114 C113 1.391 . S
H115 C118 0.931 . S
H116 C121 0.928 . S
H117 C123 0.930 . S
C118 H115 0.931 . S
C118 C119 1.413 . S
C118 C120 1.360 . S
C119 C118 1.413 . S
C119 C123 1.429 . S
C120 C118 1.360 . S
C120 C121 1.372 . S
C121 H116 0.928 . S
C121 C120 1.372 . S
C121 C122 1.404 . S
C122 C121 1.404 . S
C122 C123 1.391 . S
C123 H117 0.930 . S
C123 C119 1.429 . S
C123 C122 1.391 . S
H124 C127 0.931 . S
H125 C130 0.928 . S
H126 C132 0.930 . S
C127 H124 0.931 . S
C127 C128 1.413 . S
C127 C129 1.360 . S
C128 C127 1.413 . S
C128 C132 1.429 . S
C129 C127 1.360 . S
C129 C130 1.372 . S
C130 H125 0.928 . S
C130 C129 1.372 . S
C130 C131 1.404 . S
C131 C130 1.404 . S
C131 C132 1.391 . S
C132 H126 0.930 . S
C132 C128 1.429 . S
C132 C131 1.391 . S
H133 C136 0.931 . S
H134 C139 0.928 . S
H135 C141 0.930 . S
C136 H133 0.931 . S
C136 C137 1.413 . S
C136 C138 1.360 . S
C137 C136 1.413 . S
C137 C141 1.429 . S
C138 C136 1.360 . S
C138 C139 1.372 . S
C139 H134 0.928 . S
C139 C138 1.372 . S
C139 C140 1.404 . S
C140 C139 1.404 . S
C140 C141 1.391 . S
C141 H135 0.930 . S
C141 C137 1.429 . S
C141 C140 1.391 . S
H142 C145 0.931 . S
H143 C148 0.928 . S
H144 C150 0.930 . S
C145 H142 0.931 . S
C145 C146 1.413 . S
C145 C147 1.360 . S
C146 C145 1.413 . S
C146 C150 1.429 . S
C147 C145 1.360 . S
C147 C148 1.372 . S
C148 H143 0.928 . S
C148 C147 1.372 . S
C148 C149 1.404 . S
C149 C148 1.404 . S
C149 C150 1.391 . S
C150 H144 0.930 . S
C150 C146 1.429 . S
C150 C149 1.391 . S
H151 C154 0.931 . S
H152 C157 0.928 . S
H153 C159 0.930 . S
C154 H151 0.931 . S
C154 C155 1.413 . S
C154 C156 1.360 . S
C155 C154 1.413 . S
C155 C159 1.429 . S
C156 C154 1.360 . S
C156 C157 1.372 . S
C157 H152 0.928 . S
C157 C156 1.372 . S
C157 C158 1.404 . S
C158 C157 1.404 . S
C158 C159 1.391 . S
C159 H153 0.930 . S
C159 C155 1.429 . S
C159 C158 1.391 . S
C160 C161 1.170 . S
C160 C162 1.380 1_565 S
C161 C160 1.170 . S
C162 C160 1.380 1_545 S
C162 C163 1.170 . S
C163 C162 1.170 . S
C164 C165 1.170 . S
C164 C166 1.380 . S
C165 C164 1.170 . S
C166 C164 1.380 . S
C166 C167 1.170 . S
C167 C166 1.170 . S
C168 C169 1.170 . S
C168 C170 1.380 1_545 S
C169 C168 1.170 . S
C170 C168 1.380 1_565 S
C170 C171 1.170 . S
C171 C170 1.170 . S
C172 C173 1.170 . S
C172 C174 1.380 . S
C173 C172 1.170 . S
C174 C172 1.380 . S
C174 C175 1.170 . S
C175 C174 1.170 . S
C176 C177 1.170 . S
C176 C178 1.380 . S
C177 C176 1.170 . S
C178 C176 1.380 . S
C178 C179 1.170 . S
C179 C178 1.170 . S
C180 C181 1.170 . S
C180 C182 1.380 . S
C181 C180 1.170 . S
C182 C180 1.380 . S
C182 C183 1.170 . S
C183 C182 1.170 . S
C184 C185 1.170 . S
C184 C186 1.380 . S
C185 C184 1.170 . S
C186 C184 1.380 . S
C186 C187 1.170 . S
C187 C186 1.170 . S
C188 C189 1.170 . S
C188 C190 1.380 . S
C189 C188 1.170 . S
C190 C188 1.380 . S
C190 C191 1.170 . S
C191 C190 1.170 . S
C192 C193 1.170 . S
C192 C194 1.380 1_545 S
C193 C192 1.170 . S
C194 C192 1.380 1_565 S
C194 C195 1.170 . S
C195 C194 1.170 . S
C196 C197 1.170 . S
C196 C198 1.380 . S
C197 C196 1.170 . S
C198 C196 1.380 . S
C198 C199 1.170 . S
C199 C198 1.170 . S
C200 C201 1.170 . S
C200 C202 1.380 1_565 S
C201 C200 1.170 . S
C202 C200 1.380 1_545 S
C202 C203 1.170 . S
C203 C202 1.170 . S
C204 C205 1.170 . S
C204 C206 1.380 . S
C205 C204 1.170 . S
C206 C204 1.380 . S
C206 C207 1.170 . S
C207 C206 1.170 . S
C208 C209 1.170 . S
C208 C210 1.380 . S
C209 C208 1.170 . S
C210 C208 1.380 . S
C210 C211 1.170 . S
C211 C210 1.170 . S
C212 C213 1.170 . S
C212 C214 1.380 . S
C213 C212 1.170 . S
C214 C212 1.380 . S
C214 C215 1.170 . S
C215 C214 1.170 . S
C216 C217 1.170 . S
C216 C218 1.380 . S
C217 C216 1.170 . S
C218 C216 1.380 . S
C218 C219 1.170 . S
C219 C218 1.170 . S
C220 C221 1.170 . S
C220 C222 1.380 . S
C221 C220 1.170 . S
C222 C220 1.380 . S
C222 C223 1.170 . S
C223 C222 1.170 . S
C224 C225 1.170 . S
C224 C226 1.380 . S
C225 C224 1.170 . S
C226 C224 1.380 . S
C226 C227 1.170 . S
C227 C226 1.170 . S
C228 C229 1.170 . S
C228 C230 1.380 . S
C229 C228 1.170 . S
C230 C228 1.380 . S
C230 C231 1.170 . S
C231 C230 1.170 . S
C232 C233 1.170 . S
C232 C234 1.380 . S
C233 C232 1.170 . S
C234 C232 1.380 . S
C234 C235 1.170 . S
C235 C234 1.170 . S
C236 C237 1.170 . S
C236 C238 1.380 . S
C237 C236 1.170 . S
C238 C236 1.380 . S
C238 C239 1.170 . S
C239 C238 1.170 . S
C240 C241 1.170 . S
C240 C242 1.380 . S
C241 C240 1.170 . S
C242 C240 1.380 . S
C242 C243 1.170 . S
C243 C242 1.170 . S
C244 C245 1.170 . S
C244 C246 1.380 . S
C245 C244 1.170 . S
C246 C244 1.380 . S
C246 C247 1.170 . S
C247 C246 1.170 . S
C248 C249 1.170 . S
C248 C250 1.380 . S
C249 C248 1.170 . S
C250 C248 1.380 . S
C250 C251 1.170 . S
C251 C250 1.170 . S
C252 C253 1.170 . S
C252 C254 1.380 . S
C253 C252 1.170 . S
C254 C252 1.380 . S
C254 C255 1.170 . S
C255 C254 1.170 . S
C161 C8 1.426 . S
C163 C93 1.419 . S
C165 C31 1.324 . S
C167 C101 1.313 . S
C169 C53 1.466 . S
C171 C110 1.425 . S
C175 C120 1.405 . S
C173 C74 1.393 . S
C179 C129 1.428 . S
C177 C26 1.430 . S
C181 C48 1.372 1_455 S
C183 C138 1.415 . S
C185 C71 1.442 . S
C187 C146 1.456 . S
C189 C5 1.361 . S
C191 C156 1.354 1_455 S
C193 C50 1.451 . S
C195 C155 1.443 . S
C199 C128 1.312 . S
C197 C70 1.333 . S
C203 C137 1.451 . S
C201 C4 1.455 1_556 S
C205 C28 1.385 . S
C207 C147 1.414 . S
C211 C102 1.433 . S
C209 C73 1.429 . S
C213 C7 1.396 1_655 S
C215 C111 1.436 . S
C219 C119 1.452 . S
C217 C30 1.463 . S
C223 C92 1.351 1_655 S
C221 C52 1.345 . S
C227 C149 1.425 . S
C225 C9 1.470 . S
C231 C158 1.335 . S
C229 C29 1.366 . S
C233 C51 1.363 . S
C235 C131 1.350 . S
C239 C140 1.406 . S
C237 C75 1.473 . S
C243 C113 1.431 . S
C241 C27 1.472 . S
C245 C49 1.471 . S
C247 C122 1.403 . S
C251 C95 1.358 . S
C249 C72 1.344 . S
C255 C104 1.357 . S
C253 C6 1.343 . S
