# Generated by pormake.
# Topology pth, (4,4)-cn, num edge types: 1
# Building blocks:
#     Node 0, Type 0, BuildingBlock: QUQFOY_clean_sbu_3, # of connection points: 4
#     Node 1, Type 0, BuildingBlock: QUQFOY_clean_sbu_3, # of connection points: 4
#     Node 2, Type 0, BuildingBlock: QUQFOY_clean_sbu_3, # of connection points: 4
#     Node 3, Type 1, BuildingBlock: NAWXER_clean_linker_0, # of connection points: 4
#     Node 4, Type 1, BuildingBlock: NAWXER_clean_linker_0, # of connection points: 4
#     Node 5, Type 1, BuildingBlock: NAWXER_clean_linker_0, # of connection points: 4
#     Edge 6, Type (0, 1), BuildingBlock: FUNLAD_clean_linker_0, # of connection points: 2
#     Edge 7, Type (0, 1), BuildingBlock: FUNLAD_clean_linker_0, # of connection points: 2
#     Edge 8, Type (0, 1), BuildingBlock: FUNLAD_clean_linker_0, # of connection points: 2
#     Edge 9, Type (0, 1), BuildingBlock: FUNLAD_clean_linker_0, # of connection points: 2
#     Edge 10, Type (0, 1), BuildingBlock: FUNLAD_clean_linker_0, # of connection points: 2
#     Edge 11, Type (0, 1), BuildingBlock: FUNLAD_clean_linker_0, # of connection points: 2
#     Edge 12, Type (0, 1), BuildingBlock: FUNLAD_clean_linker_0, # of connection points: 2
#     Edge 13, Type (0, 1), BuildingBlock: FUNLAD_clean_linker_0, # of connection points: 2
#     Edge 14, Type (0, 1), BuildingBlock: FUNLAD_clean_linker_0, # of connection points: 2
#     Edge 15, Type (0, 1), BuildingBlock: FUNLAD_clean_linker_0, # of connection points: 2
#     Edge 16, Type (0, 1), BuildingBlock: FUNLAD_clean_linker_0, # of connection points: 2
#     Edge 17, Type (0, 1), BuildingBlock: FUNLAD_clean_linker_0, # of connection points: 2
# Relax obj value: 0.008
# Max RMSD: 0.058
# Mean RMSD: 0.041
data_MOF--net-pth--node1-QUQFOY_clean_sbu_3--node2-NAWXER_clean_linker_0--edge1-FUNLAD_clean_linker_0
_symmetry_space_group_name_H-M    P1
_symmetry_Int_Tables_number       1
_symmetry_cell_setting            triclinic
loop_
_symmetry_equiv_pos_as_xyz
'x, y, z'
_cell_length_a     33.275304
_cell_length_b     33.040697
_cell_length_c     76.910859
_cell_angle_alpha  90.016475
_cell_angle_beta   90.749637
_cell_angle_gamma 120.79576
loop_
_atom_site_label
_atom_site_type_symbol
_atom_site_fract_x
_atom_site_fract_y
_atom_site_fract_z
_atom_type_partial_charge
C0 C -0.00685 0.12052 0.07394 0.0
O1 O 0.96628 0.11386 0.06101 0.0
Cd2 Cd 0.96064 0.06629 0.03644 0.0
O3 O 0.01686 0.10013 0.07461 0.0
Cd4 Cd 0.02842 0.04307 0.05774 0.0
C5 C 0.07673 0.12068 0.02502 0.0
O6 O 0.94783 0.99273 0.04731 0.0
O7 O -0.0003 0.98135 0.03546 0.0
O8 O 0.024 0.00831 0.08587 0.0
C9 C 0.95694 0.9686 0.03701 0.0
O10 O 0.0351 0.11065 0.02147 0.0
C11 C 0.05988 0.00466 0.08419 0.0
O12 O 0.08539 0.10319 0.0383 0.0
O13 O 0.08215 0.01958 0.07008 0.0
C14 C 0.13029 0.09273 0.40585 0.0
O15 O 0.14972 0.12054 0.39323 0.0
Cd16 Cd 0.10671 0.12809 0.36945 0.0
O17 O 0.08585 0.0694 0.407 0.0
Cd18 Cd 0.01565 0.06003 0.39143 0.0
C19 C 0.04045 0.01041 0.35798 0.0
O20 O 0.04752 0.14039 0.38105 0.0
O21 O 0.98214 0.08763 0.36928 0.0
O22 O 0.98621 0.0668 0.41934 0.0
C23 C 0.01363 0.13073 0.37074 0.0
O24 O 0.07275 0.05219 0.35443 0.0
C25 C 0.94651 0.02938 0.41779 0.0
O26 O 0.01525 0.00226 0.37136 0.0
O27 O 0.93898 0.00523 0.40397 0.0
C28 C 0.95369 0.08287 0.69763 0.0
O29 O 0.95973 0.10973 0.71046 0.0
Cd30 Cd 0.00726 0.11871 0.73561 0.0
O31 O 0.97507 0.06008 0.69709 0.0
Cd32 Cd 0.03316 0.05093 0.71453 0.0
C33 C 0.95656 0.00195 0.74737 0.0
O34 O 0.08033 0.1316 0.72564 0.0
O35 O 0.09304 0.07992 0.73746 0.0
O36 O 0.07266 0.05682 0.68749 0.0
C37 C 0.10377 0.12259 0.73644 0.0
O38 O 0.96577 0.04363 0.75075 0.0
C39 C 0.07467 0.0198 0.68963 0.0
O40 O 0.97373 0.99344 0.7341 0.0
O41 O 0.05639 -0.00367 0.70333 0.0
C42 C 0.97363 0.40232 0.25235 0.0
C43 C 0.00654 0.41194 0.26576 0.0
C44 C 0.97905 0.4381 0.24116 0.0
C45 C 0.01765 0.484 0.24314 0.0
C46 C 0.0447 0.45811 0.26783 0.0
C47 C 0.05003 0.49379 0.25669 0.0
C48 C 0.02387 0.52268 0.23171 0.0
C49 C 0.03614 0.41962 0.19652 0.0
C50 C 0.00218 0.40129 0.18309 0.0
C51 C 0.04252 0.45771 0.20665 0.0
C52 C 0.01485 0.4779 0.20356 0.0
C53 C 0.97453 0.42159 0.1801 0.0
C54 C 0.98102 0.45966 0.19017 0.0
C55 C 0.02259 0.51982 0.21337 0.0
C56 C 0.09967 0.7218 0.19314 0.0
C57 C 0.07338 0.71532 0.17784 0.0
C58 C 0.08794 0.68403 0.20426 0.0
C59 C 0.04933 0.63916 0.20042 0.0
C60 C 0.03511 0.67023 0.17393 0.0
C61 C 0.02338 0.63252 0.18507 0.0
C62 C 0.03755 0.59846 0.21174 0.0
C63 C 0.00941 0.69397 0.24396 0.0
C64 C 0.03691 0.71185 0.25918 0.0
C65 C 0.00959 0.65819 0.23436 0.0
C66 C 0.03779 0.64 0.23965 0.0
C67 C 0.06483 0.69334 0.26453 0.0
C68 C 0.06507 0.65761 0.25489 0.0
C69 C 0.03633 0.6004 0.23007 0.0
H70 H 0.94392 0.36708 0.2504 0.0
H71 H 0.95295 0.42997 0.23107 0.0
H72 H 0.07019 0.46684 0.27823 0.0
H73 H 0.07972 0.5291 0.25859 0.0
H74 H 0.05791 0.40465 0.19915 0.0
H75 H 0.0696 0.47189 0.21666 0.0
H76 H 0.94868 0.40888 0.16966 0.0
H77 H 0.95968 0.47509 0.18744 0.0
H78 H 0.12983 0.75589 0.19636 0.0
H79 H 0.10954 0.68977 0.21572 0.0
H80 H 0.0138 0.66417 0.16236 0.0
H81 H -0.00628 0.59815 0.18175 0.0
H82 H 0.98684 0.70683 0.23968 0.0
H83 H 0.98689 0.64408 0.223 0.0
H84 H 0.08673 0.70667 0.27611 0.0
H85 H 0.08673 0.64379 0.25932 0.0
N86 N 0.03041 0.56277 0.23933 0.0
N87 N 0.02978 0.55793 0.20412 0.0
C88 C 0.63345 -0.00039 0.52247 0.0
C89 C 0.61877 0.96322 0.51009 0.0
C90 C 0.60089 0.00238 0.53291 0.0
C91 C 0.55309 0.96825 0.53143 0.0
C92 C 0.57079 0.92968 0.50837 0.0
C93 C 0.53827 0.93228 0.51892 0.0
C94 C 0.51809 0.97093 0.54227 0.0
C95 C 0.61467 0.95259 0.57883 0.0
C96 C 0.63941 0.99115 0.59027 0.0
C97 C 0.57622 0.94723 0.56921 0.0
C98 C 0.56212 0.98051 0.57078 0.0
C99 C 0.6244 0.02369 0.59207 0.0
C100 C 0.58607 0.01828 0.58249 0.0
C101 C 0.52229 0.97654 0.56055 0.0
C102 C 0.3356 0.95361 0.57909 0.0
C103 C 0.35027 0.98759 0.59244 0.0
C104 C 0.36841 0.95025 0.56899 0.0
C105 C 0.41656 0.98119 0.57191 0.0
C106 C 0.3985 0.01752 0.59565 0.0
C107 C 0.43126 0.01421 0.58554 0.0
C108 C 0.45184 0.97888 0.56108 0.0
C109 C 0.37673 0.02645 0.52569 0.0
C110 C 0.35226 -0.00398 0.51168 0.0
C111 C 0.40788 0.01969 0.53582 0.0
C112 C 0.41453 0.98175 0.53238 0.0
C113 C 0.3595 0.9585 0.50806 0.0
C114 C 0.39048 0.95154 0.5183 0.0
C115 C 0.4488 0.9755 0.54273 0.0
H116 H 0.67005 0.02656 0.52383 0.0
H117 H 0.61306 0.03148 0.54202 0.0
H118 H 0.55844 0.90116 0.49899 0.0
H119 H 0.50151 0.9059 0.51741 0.0
H120 H 0.62539 0.92694 0.57716 0.0
H121 H 0.55763 0.91722 0.56052 0.0
H122 H 0.64205 0.05319 0.60103 0.0
H123 H 0.57549 0.0441 0.58405 0.0
H124 H 0.29874 0.93012 0.57623 0.0
H125 H 0.35613 0.92358 0.55887 0.0
H126 H 0.41099 0.04346 0.60605 0.0
H127 H 0.4682 0.03803 0.58819 0.0
H128 H 0.37271 0.05628 0.52856 0.0
H129 H 0.42739 0.04468 0.54616 0.0
H130 H 0.34103 0.9344 0.49737 0.0
H131 H 0.39554 0.92245 0.51526 0.0
N132 N 0.48155 0.97076 0.53407 0.0
N133 N 0.48889 0.98007 0.56922 0.0
C134 C 0.39105 0.41488 0.85361 0.0
C135 C 0.37219 0.4318 0.84107 0.0
C136 C 0.42509 0.44575 0.86553 0.0
C137 C 0.44062 0.49406 0.86523 0.0
C138 C 0.38735 0.4801 0.841 0.0
C139 C 0.42143 0.51092 0.85289 0.0
C140 C 0.47978 0.52783 0.87657 0.0
C141 C 0.36227 0.44034 0.913 0.0
C142 C 0.37205 0.4156 0.92561 0.0
C143 C 0.39789 0.47423 0.90271 0.0
C144 C 0.44393 0.48361 0.90462 0.0
C145 C 0.41819 0.4251 0.9275 0.0
C146 C 0.45377 0.45891 0.91717 0.0
C147 C 0.48259 0.52149 0.89461 0.0
C148 C 0.65205 0.70443 0.91734 0.0
C149 C 0.67128 0.68727 0.92959 0.0
C150 C 0.61539 0.6734 0.9063 0.0
C151 C 0.59797 0.6247 0.90705 0.0
C152 C 0.65331 0.63849 0.93052 0.0
C153 C 0.61693 0.60752 0.91937 0.0
C154 C 0.55826 0.59114 0.89583 0.0
C155 C 0.67445 0.68215 0.85912 0.0
C156 C 0.66345 0.70801 0.84747 0.0
C157 C 0.63955 0.64637 0.86912 0.0
C158 C 0.59312 0.6362 0.86779 0.0
C159 C 0.6168 0.6972 0.84602 0.0
C160 C 0.58203 0.66156 0.85602 0.0
C161 C 0.55529 0.59753 0.87779 0.0
H162 H 0.38075 0.37803 0.85383 0.0
H163 H 0.44034 0.43207 0.87459 0.0
H164 H 0.37311 0.49418 0.83167 0.0
H165 H 0.43312 0.54812 0.85236 0.0
H166 H 0.32706 0.43367 0.91112 0.0
H167 H 0.38953 0.49375 0.89351 0.0
H168 H 0.42708 0.40725 0.93727 0.0
H169 H 0.48914 0.46602 0.91906 0.0
H170 H 0.66461 0.74178 0.91657 0.0
H171 H 0.60024 0.68748 0.89738 0.0
H172 H 0.66761 0.6243 0.93977 0.0
H173 H 0.60372 0.57006 0.92032 0.0
H174 H 0.71006 0.68972 0.86059 0.0
H175 H 0.64878 0.62641 0.87775 0.0
H176 H 0.60698 0.71581 0.83693 0.0
H177 H 0.54633 0.65384 0.85459 0.0
N178 N 0.51609 0.56572 0.86892 0.0
N179 N 0.52187 0.55326 0.90349 0.0
C180 C 0.97091 0.17473 0.08793 0.0
C181 C -0.00293 0.15221 0.08834 0.0
C182 C 0.97504 0.20505 0.10141 0.0
C183 C 0.00526 0.2133 0.1157 0.0
C184 C 0.03162 0.19106 0.11604 0.0
C185 C 0.02744 0.16067 0.10257 0.0
C186 C 0.01191 0.24659 0.12998 0.0
C187 C 0.9793 0.25735 0.13424 0.0
C188 C 0.98642 0.2926 0.14781 0.0
C189 C 0.94699 0.29169 0.15458 0.0
C190 C 0.95204 0.32613 0.16641 0.0
C191 C -0.00326 0.36251 0.17167 0.0
H192 H 0.06262 0.33164 0.14805 0.0
C193 C 0.03626 0.36304 0.16516 0.0
C194 C 0.03123 0.32864 0.1533 0.0
H195 H 0.07118 0.39111 0.16872 0.0
H196 H 0.94749 0.16933 0.07711 0.0
H197 H 0.95529 0.22271 0.10033 0.0
H198 H 0.05551 0.19714 0.12678 0.0
H199 H 0.04826 0.14405 0.10329 0.0
H200 H 0.04427 0.26143 0.1375 0.0
H201 H 0.94528 0.23897 0.12776 0.0
H202 H 0.91208 0.26451 0.15055 0.0
H203 H 0.92089 0.32451 0.17132 0.0
C204 C 0.86517 0.9766 0.42876 0.0
C205 C 0.91028 0.01607 0.43113 0.0
C206 C 0.83021 0.96626 0.44087 0.0
C207 C 0.83968 -0.00456 0.45557 0.0
C208 C 0.88527 0.03374 0.45822 0.0
C209 C 0.92011 0.04408 0.44613 0.0
C210 C 0.80333 0.98783 0.46837 0.0
C211 C 0.75703 0.96414 0.46472 0.0
C212 C 0.72137 0.9616 0.4769 0.0
C213 C 0.67803 0.95217 0.47006 0.0
C214 C 0.64443 0.95195 0.48085 0.0
C215 C 0.6534 0.96102 0.49876 0.0
H216 H 0.76165 0.97441 0.50092 0.0
C217 C 0.6961 0.96892 0.50572 0.0
C218 C 0.7296 0.9689 0.49496 0.0
H219 H 0.70353 0.97492 0.51955 0.0
H220 H 0.85666 0.95406 0.41741 0.0
H221 H 0.79602 0.93544 0.43863 0.0
H222 H 0.89377 0.05654 0.46949 0.0
H223 H 0.95458 0.07457 0.44842 0.0
H224 H 0.81585 0.00609 0.48076 0.0
H225 H 0.74477 0.94928 0.45181 0.0
H226 H 0.6705 0.94604 0.45625 0.0
H227 H 0.61193 0.94592 0.47508 0.0
C228 C 0.91309 0.9737 0.7752 0.0
C229 C 0.92529 0.96326 0.75909 0.0
C230 C 0.88285 0.93769 0.78623 0.0
C231 C 0.86335 0.89016 0.7813 0.0
C232 C 0.87652 0.87969 0.7654 0.0
C233 C 0.90715 0.91583 0.75439 0.0
C234 C 0.82974 0.85085 0.79247 0.0
C235 C 0.80312 0.8559 0.80436 0.0
C236 C 0.76824 0.81716 0.8154 0.0
C237 C 0.73416 0.82327 0.82354 0.0
C238 C 0.70052 0.7881 0.83403 0.0
C239 C 0.70021 0.74589 0.83671 0.0
H240 H 0.79495 0.76954 0.81279 0.0
C241 C 0.73482 0.73999 0.82886 0.0
C242 C 0.7686 0.77527 0.81836 0.0
H243 H 0.73545 0.7078 0.83062 0.0
H244 H 0.92711 0.00985 0.77938 0.0
H245 H 0.8754 0.94752 0.79866 0.0
H246 H 0.86252 0.84342 0.76137 0.0
H247 H 0.91607 0.90659 0.74211 0.0
H248 H 0.82518 0.81638 0.79006 0.0
H249 H 0.80496 0.88954 0.80555 0.0
H250 H 0.73334 0.85536 0.82171 0.0
H251 H 0.67489 0.79415 0.84015 0.0
C252 C 0.10636 0.96856 0.0945 0.0
C253 C 0.0733 0.98195 0.09777 0.0
C254 C 0.11529 0.94293 0.10686 0.0
C255 C 0.09131 0.93037 0.12273 0.0
C256 C 0.06023 0.94602 0.12629 0.0
C257 C 0.05104 0.97121 0.11392 0.0
C258 C 0.0962 0.89969 0.13564 0.0
C259 C 0.10631 0.86646 0.13121 0.0
C260 C 0.10207 0.8298 0.14351 0.0
C261 C 0.0917 0.78594 0.13678 0.0
C262 C 0.08327 0.74908 0.1479 0.0
C263 C 0.08541 0.75541 0.16603 0.0
H264 H 0.11584 0.87059 0.16735 0.0
C265 C 0.09796 0.79997 0.17278 0.0
C266 C 0.10637 0.83685 0.16165 0.0
H267 H 0.10003 0.80603 0.18669 0.0
H268 H 0.12438 0.97674 0.08223 0.0
H269 H 0.14063 0.93277 0.10389 0.0
H270 H 0.04166 0.93729 0.13847 0.0
H271 H 0.02574 0.98146 0.11691 0.0
H272 H 0.08556 0.90088 0.14882 0.0
H273 H 0.11266 0.86244 0.11768 0.0
H274 H 0.08876 0.77969 0.12286 0.0
H275 H 0.07472 0.71548 0.14228 0.0
C276 C 0.13844 0.05317 0.43239 0.0
C277 C 0.15937 0.08528 0.41873 0.0
C278 C 0.16557 0.04353 0.44377 0.0
C279 C 0.21436 0.06606 0.44178 0.0
C280 C 0.23525 0.09856 0.42828 0.0
C281 C 0.20817 0.10826 0.41693 0.0
C282 C 0.24428 0.05477 0.45282 0.0
C283 C 0.23251 0.03604 0.46882 0.0
C284 C 0.26293 0.02475 0.47952 0.0
C285 C 0.26082 0.02597 0.49771 0.0
C286 C 0.28951 0.01627 0.50816 0.0
C287 C 0.32044 0.00444 0.50062 0.0
H288 H 0.29464 0.00905 0.458 0.0
C289 C 0.32158 0.00186 0.48241 0.0
C290 C 0.29313 0.01187 0.47196 0.0
H291 H 0.34512 0.99294 0.47622 0.0
H292 H 0.1009 0.03458 0.43409 0.0
H293 H 0.14785 0.01731 0.45369 0.0
H294 H 0.27269 0.11625 0.42638 0.0
H295 H 0.22549 0.13311 0.40654 0.0
H296 H 0.27819 0.06392 0.44773 0.0
H297 H 0.20085 0.03103 0.47474 0.0
H298 H 0.2374 0.03514 0.50387 0.0
H299 H 0.28737 0.01786 0.52217 0.0
C300 C 0.1435 0.20386 0.74938 0.0
C301 C 0.13699 0.15837 0.74899 0.0
C302 C 0.17277 0.23669 0.76196 0.0
C303 C 0.19646 0.22474 0.77435 0.0
C304 C 0.19012 0.17936 0.77383 0.0
C305 C 0.16087 0.14658 0.76127 0.0
C306 C 0.22648 0.25761 0.78843 0.0
C307 C 0.24623 0.30475 0.78769 0.0
C308 C 0.2771 0.33693 0.80174 0.0
C309 C 0.31148 0.38312 0.79749 0.0
C310 C 0.34199 0.41402 0.81026 0.0
C311 C 0.3384 0.39954 0.82766 0.0
H312 H 0.24542 0.28803 0.82313 0.0
C313 C 0.30307 0.35371 0.83201 0.0
C314 C 0.27263 0.32276 0.81922 0.0
H315 H 0.29873 0.34184 0.84535 0.0
H316 H 0.12522 0.21384 0.74018 0.0
H317 H 0.17556 0.27077 0.76217 0.0
H318 H 0.2077 0.16907 0.78324 0.0
H319 H 0.15652 0.11177 0.76135 0.0
H320 H 0.23427 0.24222 0.79949 0.0
H321 H 0.24232 0.32085 0.77599 0.0
H322 H 0.31544 0.39506 0.78416 0.0
H323 H 0.3691 0.44892 0.80642 0.0
C324 C 0.91009 0.04436 0.66988 0.0
C325 C 0.92075 0.07723 0.68338 0.0
C326 C 0.87771 0.03791 0.65679 0.0
C327 C 0.85522 0.0642 0.65695 0.0
C328 C 0.86682 0.09785 0.67018 0.0
C329 C 0.89897 0.10414 0.6833 0.0
C330 C 0.82002 0.05815 0.64353 0.0
C331 C 0.79356 0.01792 0.63442 0.0
C332 C 0.75584 0.01143 0.62212 0.0
C333 C 0.71704 0.96603 0.61936 0.0
C334 C 0.6796 0.95912 0.60871 0.0
C335 C 0.68043 -0.00246 0.60051 0.0
H336 H 0.78772 0.08477 0.61448 0.0
C337 C 0.72024 0.04266 0.60264 0.0
C338 C 0.75759 0.04955 0.61327 0.0
H339 H 0.72248 0.07278 0.59611 0.0
H340 H 0.92652 0.02331 0.66946 0.0
H341 H 0.87084 0.01269 0.64652 0.0
H342 H 0.85038 0.11891 0.67054 0.0
H343 H 0.90654 0.12998 0.69342 0.0
H344 H 0.81336 0.08691 0.64209 0.0
H345 H 0.79684 0.98744 0.63703 0.0
H346 H 0.71504 0.93598 0.62586 0.0
H347 H 0.6494 0.92394 0.60736 0.0
C348 C 0.93206 0.90936 0.01288 0.0
C349 C 0.9201 0.93034 0.02616 0.0
C350 C 0.89743 0.87455 0.00213 0.0
C351 C 0.85006 0.85998 0.00448 0.0
C352 C 0.83803 0.87989 0.01809 0.0
C353 C 0.8727 0.915 0.02875 0.0
C354 C 0.81243 0.82381 0.99309 0.0
C355 C 0.81905 0.818 0.97625 0.0
C356 C 0.78093 0.78363 0.96456 0.0
C357 C 0.78306 0.79326 0.94671 0.0
C358 C 0.74747 0.76203 0.93535 0.0
C359 C 0.70939 0.72012 0.94159 0.0
H360 H 0.74101 0.73209 0.98437 0.0
C361 C 0.70777 0.70991 0.95939 0.0
C362 C 0.74315 0.74133 0.97078 0.0
H363 H 0.67878 0.67788 0.96456 0.0
H364 H 0.96827 0.92014 0.01066 0.0
H365 H 0.90787 0.85891 0.99212 0.0
H366 H 0.80174 0.8689 0.02028 0.0
H367 H 0.86237 0.93027 0.03895 0.0
H368 H 0.77757 0.80382 -0.00155 0.0
H369 H 0.85276 0.84138 0.97044 0.0
H370 H 0.81205 0.82535 0.94157 0.0
H371 H 0.74994 0.77048 0.92166 0.0
C372 C 0.06259 0.97995 0.33227 0.0
C373 C 0.03371 0.97098 0.34669 0.0
C374 C 0.05817 0.94302 0.32201 0.0
C375 C 0.02435 0.89606 0.3258 0.0
C376 C -0.00463 0.88706 0.34017 0.0
C377 C -0.00018 0.92409 0.35047 0.0
C378 C 0.02027 0.85572 0.31569 0.0
C379 C 0.03504 0.85954 0.2992 0.0
C380 C 0.03387 0.82028 0.28932 0.0
C381 C 0.03545 0.82251 0.27109 0.0
C382 C 0.03624 0.7873 0.26131 0.0
C383 C 0.03591 0.7492 0.26957 0.0
H384 H 0.034 0.77981 0.31162 0.0
C385 C 0.03464 0.74706 0.28782 0.0
C386 C 0.03376 0.78223 0.2976 0.0
H387 H 0.03408 0.718 0.29456 0.0
H388 H 0.08937 0.01558 0.32905 0.0
H389 H 0.08234 0.95158 0.31146 0.0
H390 H 0.96932 0.85121 0.34349 0.0
H391 H 0.97712 0.91589 0.36152 0.0
H392 H 0.00357 0.82165 0.32199 0.0
H393 H 0.04751 0.89248 0.29234 0.0
H394 H 0.03619 0.8517 0.26437 0.0
H395 H 0.03788 0.79033 0.24728 0.0
C396 C 0.1165 0.03158 0.66165 0.0
C397 C 0.09921 0.00625 0.67712 0.0
C398 C 0.14284 0.02146 0.65038 0.0
C399 C 0.15302 0.98609 0.65447 0.0
C400 C 0.134 0.95942 0.66956 0.0
C401 C 0.10745 0.96944 0.68081 0.0
C402 C 0.18354 0.97641 0.64339 0.0
C403 C 0.21703 0.00947 0.63325 0.0
C404 C 0.25016 0.00211 0.62282 0.0
C405 C 0.2912 0.04196 0.61704 0.0
C406 C 0.32355 0.0372 0.60722 0.0
C407 C 0.31557 0.99235 0.60285 0.0
H408 H 0.21004 0.92541 0.62199 0.0
C409 C 0.27418 0.95234 0.6084 0.0
C410 C 0.24172 0.9571 0.61824 0.0
H411 H 0.26703 0.91727 0.60529 0.0
H412 H 0.11015 0.05969 0.65829 0.0
H413 H 0.15508 0.04152 0.63853 0.0
H414 H 0.14073 0.93155 0.67291 0.0
H415 H 0.09436 0.9491 0.69259 0.0
H416 H 0.18037 0.94221 0.64468 0.0
H417 H 0.22258 0.04484 0.63329 0.0
H418 H 0.29845 0.07707 0.62018 0.0
H419 H 0.35461 0.06876 0.60288 0.0
C420 C 0.10542 0.17197 -0.00126 0.0
C421 C 0.11518 0.15323 0.01352 0.0
C422 C 0.14132 0.20295 0.98788 0.0
C423 C 0.18804 0.21634 0.99161 0.0
C424 C 0.19774 0.19692 0.00616 0.0
C425 C 0.16175 0.16585 0.01706 0.0
C426 C 0.22709 0.24943 0.98033 0.0
C427 C 0.22537 0.2825 0.97063 0.0
C428 C 0.26388 0.31604 0.95928 0.0
C429 C 0.26617 0.35831 0.95474 0.0
C430 C 0.3012 0.39053 0.94385 0.0
C431 C 0.33458 0.38102 0.93708 0.0
H432 H 0.29556 0.27338 0.95511 0.0
C433 C 0.33203 0.33846 0.94146 0.0
C434 C 0.29702 0.30623 0.95241 0.0
H435 H 0.35667 0.32967 0.9362 0.0
H436 H 0.06991 0.16261 -0.00454 0.0
H437 H 0.13207 0.21567 0.97644 0.0
H438 H 0.23335 0.2062 0.00922 0.0
H439 H 0.17049 0.15186 0.02828 0.0
H440 H 0.25887 0.24783 0.98076 0.0
H441 H 0.1953 0.28692 0.97159 0.0
H442 H 0.24097 0.36666 0.95976 0.0
H443 H 0.30247 0.42323 0.94093 0.0
C444 C 0.97886 0.15418 0.34654 0.0
C445 C 0.01379 0.16692 0.3594 0.0
C446 C 0.98034 0.1879 0.33518 0.0
C447 C 0.01662 0.23533 0.33656 0.0
C448 C 0.05119 0.248 0.34956 0.0
C449 C 0.04979 0.21425 0.36087 0.0
C450 C 0.02125 0.27215 0.32424 0.0
C451 C 0.98621 0.26792 0.31392 0.0
C452 C -0.00778 0.30482 0.30139 0.0
C453 C 0.95291 0.30724 0.29617 0.0
C454 C 0.95734 0.34166 0.28448 0.0
C455 C 0.00122 0.37424 0.27769 0.0
H456 H 0.06674 0.33478 0.29728 0.0
C457 C 0.04035 0.37104 0.28255 0.0
C458 C 0.03592 0.33664 0.2942 0.0
H459 H 0.07442 0.39491 0.27721 0.0
H460 H 0.95083 0.1179 0.345 0.0
H461 H 0.95366 0.17613 0.3251 0.0
H462 H 0.07971 0.28415 0.35088 0.0
H463 H 0.07726 0.22518 0.37063 0.0
H464 H 0.05491 0.30472 0.3241 0.0
H465 H 0.95128 0.23747 0.31508 0.0
H466 H 0.91874 0.28285 0.30134 0.0
H467 H 0.92656 0.34335 0.28105 0.0
loop_
_geom_bond_atom_site_label_1
_geom_bond_atom_site_label_2
_geom_bond_distance
_geom_bond_site_symmetry_2
_ccdc_geom_bond_type
C0 O1 1.315 . S
C0 O3 1.160 . S
O1 C0 1.315 . S
O1 Cd2 2.226 1_455 S
Cd2 O1 2.226 1_655 S
Cd2 O6 2.273 . S
Cd2 O10 2.277 1_655 S
O3 C0 1.160 . S
O3 Cd4 2.203 . S
Cd4 O3 2.203 . S
Cd4 O6 2.411 1_455 S
Cd4 O7 2.333 1_545 S
Cd4 O8 2.352 1_545 S
Cd4 O12 2.277 . S
Cd4 O13 2.356 1_545 S
C5 O10 1.209 . S
C5 O12 1.226 . S
O6 Cd2 2.273 . S
O6 Cd4 2.411 1_655 S
O6 C9 1.320 1_545 S
O7 Cd4 2.333 1_565 S
O7 C9 1.214 1_455 S
O8 Cd4 2.352 1_565 S
O8 C11 1.258 . S
C9 O6 1.320 1_565 S
C9 O7 1.214 1_655 S
O10 Cd2 2.277 1_455 S
O10 C5 1.209 . S
C11 O8 1.258 . S
C11 O13 1.282 . S
O12 Cd4 2.277 . S
O12 C5 1.226 . S
O13 Cd4 2.356 1_565 S
O13 C11 1.282 . S
C14 O15 1.306 . S
C14 O17 1.160 . S
O15 C14 1.306 . S
O15 Cd16 2.228 . S
Cd16 O15 2.228 . S
Cd16 O20 2.273 . S
Cd16 O24 2.277 . S
O17 C14 1.160 . S
O17 Cd18 2.203 . S
Cd18 O17 2.203 . S
Cd18 O20 2.411 . S
Cd18 O21 2.333 1_455 S
Cd18 O22 2.352 1_455 S
Cd18 O26 2.277 1_445 S
Cd18 O27 2.359 1_445 S
C19 O24 1.209 1_565 S
C19 O26 1.226 1_455 S
O20 Cd16 2.273 . S
O20 Cd18 2.411 . S
O20 C23 1.320 . S
O21 Cd18 2.333 1_655 S
O21 C23 1.214 1_655 S
O22 Cd18 2.352 1_655 S
O22 C25 1.258 . S
C23 O20 1.320 . S
C23 O21 1.214 1_455 S
O24 Cd16 2.277 . S
O24 C19 1.209 1_545 S
C25 O22 1.258 . S
C25 O27 1.268 1_545 S
O26 Cd18 2.277 1_665 S
O26 C19 1.226 1_655 S
O27 Cd18 2.359 1_665 S
O27 C25 1.268 1_565 S
C28 O29 1.306 . S
C28 O31 1.160 . S
O29 C28 1.306 . S
O29 Cd30 2.228 . S
Cd30 O29 2.228 . S
Cd30 O34 2.273 1_655 S
Cd30 O38 2.277 . S
O31 C28 1.160 . S
O31 Cd32 2.203 1_655 S
Cd32 O31 2.203 1_455 S
Cd32 O34 2.411 . S
Cd32 O35 2.333 . S
Cd32 O36 2.352 . S
Cd32 O40 2.277 1_445 S
Cd32 O41 2.356 . S
C33 O38 1.209 1_565 S
C33 O40 1.226 . S
O34 Cd30 2.273 1_455 S
O34 Cd32 2.411 . S
O34 C37 1.320 . S
O35 Cd32 2.333 . S
O35 C37 1.214 . S
O36 Cd32 2.352 . S
O36 C39 1.258 . S
C37 O34 1.320 . S
C37 O35 1.214 . S
O38 Cd30 2.277 . S
O38 C33 1.209 1_545 S
C39 O36 1.258 . S
C39 O41 1.282 . S
O40 Cd32 2.277 1_665 S
O40 C33 1.226 . S
O41 Cd32 2.356 . S
O41 C39 1.282 . S
C42 C43 1.384 . S
C42 C44 1.384 . S
C42 H70 0.931 1_455 S
C43 C42 1.384 . S
C43 C46 1.382 . S
C44 C42 1.384 . S
C44 C45 1.381 . S
C44 H71 0.930 1_455 S
C45 C44 1.381 . S
C45 C47 1.381 . S
C45 C48 1.487 . S
C46 C43 1.382 . S
C46 C47 1.387 . S
C46 H72 0.930 . S
C47 C45 1.381 . S
C47 C46 1.387 . S
C47 H73 0.931 . S
C48 C45 1.487 . S
C48 C55 1.399 . S
C48 N86 1.343 . S
C49 C50 1.384 . S
C49 C51 1.384 . S
C49 H74 0.931 . S
C50 C49 1.384 . S
C50 C53 1.382 . S
C51 C49 1.384 . S
C51 C52 1.381 . S
C51 H75 0.930 . S
C52 C51 1.381 . S
C52 C54 1.381 . S
C52 C55 1.487 . S
C53 C50 1.382 . S
C53 C54 1.387 . S
C53 H76 0.930 1_455 S
C54 C52 1.381 . S
C54 C53 1.387 . S
C54 H77 0.931 1_455 S
C55 C48 1.399 . S
C55 C52 1.487 . S
C55 N87 1.343 . S
C56 C57 1.384 . S
C56 C58 1.384 . S
C56 H78 0.931 . S
C57 C56 1.384 . S
C57 C60 1.382 . S
C58 C56 1.384 . S
C58 C59 1.381 . S
C58 H79 0.930 . S
C59 C58 1.381 . S
C59 C61 1.381 . S
C59 C62 1.487 . S
C60 C57 1.382 . S
C60 C61 1.387 . S
C60 H80 0.930 1_455 S
C61 C59 1.381 . S
C61 C60 1.387 . S
C61 H81 0.931 1_455 S
C62 C59 1.487 . S
C62 C69 1.399 . S
C62 N87 1.343 . S
C63 C64 1.384 . S
C63 C65 1.384 . S
C63 H82 0.931 1_455 S
C64 C63 1.384 . S
C64 C67 1.382 . S
C65 C63 1.384 . S
C65 C66 1.381 . S
C65 H83 0.930 1_455 S
C66 C65 1.381 . S
C66 C68 1.381 . S
C66 C69 1.487 . S
C67 C64 1.382 . S
C67 C68 1.387 . S
C67 H84 0.930 . S
C68 C66 1.381 . S
C68 C67 1.387 . S
C68 H85 0.931 . S
C69 C62 1.399 . S
C69 C66 1.487 . S
C69 N86 1.343 . S
H70 C42 0.931 1_655 S
H71 C44 0.930 1_655 S
H72 C46 0.930 . S
H73 C47 0.931 . S
H74 C49 0.931 . S
H75 C51 0.930 . S
H76 C53 0.930 1_655 S
H77 C54 0.931 1_655 S
H78 C56 0.931 . S
H79 C58 0.930 . S
H80 C60 0.930 1_655 S
H81 C61 0.931 1_655 S
H82 C63 0.931 1_655 S
H83 C65 0.930 1_655 S
H84 C67 0.930 . S
H85 C68 0.931 . S
N86 C48 1.343 . S
N86 C69 1.343 . S
N87 C55 1.343 . S
N87 C62 1.343 . S
C88 C89 1.384 . S
C88 C90 1.384 . S
C88 H116 0.931 . S
C89 C88 1.384 . S
C89 C92 1.382 . S
C90 C88 1.384 . S
C90 C91 1.381 . S
C90 H117 0.930 . S
C91 C90 1.381 . S
C91 C93 1.381 . S
C91 C94 1.487 . S
C92 C89 1.382 . S
C92 C93 1.387 . S
C92 H118 0.930 1_545 S
C93 C91 1.381 . S
C93 C92 1.387 . S
C93 H119 0.931 1_545 S
C94 C91 1.487 . S
C94 C101 1.399 . S
C94 N132 1.343 . S
C95 C96 1.384 . S
C95 C97 1.384 . S
C95 H120 0.931 1_545 S
C96 C95 1.384 . S
C96 C99 1.382 . S
C97 C95 1.384 . S
C97 C98 1.381 . S
C97 H121 0.930 1_545 S
C98 C97 1.381 . S
C98 C100 1.381 . S
C98 C101 1.487 . S
C99 C96 1.382 . S
C99 C100 1.387 . S
C99 H122 0.930 . S
C100 C98 1.381 . S
C100 C99 1.387 . S
C100 H123 0.931 . S
C101 C94 1.399 . S
C101 C98 1.487 . S
C101 N133 1.343 . S
C102 C103 1.384 . S
C102 C104 1.384 . S
C102 H124 0.931 1_545 S
C103 C102 1.384 . S
C103 C106 1.382 . S
C104 C102 1.384 . S
C104 C105 1.381 . S
C104 H125 0.930 1_545 S
C105 C104 1.381 . S
C105 C107 1.381 . S
C105 C108 1.487 . S
C106 C103 1.382 . S
C106 C107 1.387 . S
C106 H126 0.930 . S
C107 C105 1.381 . S
C107 C106 1.387 . S
C107 H127 0.931 . S
C108 C105 1.487 . S
C108 C115 1.399 . S
C108 N133 1.343 . S
C109 C110 1.384 . S
C109 C111 1.384 . S
C109 H128 0.931 . S
C110 C109 1.384 . S
C110 C113 1.382 . S
C111 C109 1.384 . S
C111 C112 1.381 . S
C111 H129 0.930 . S
C112 C111 1.381 . S
C112 C114 1.381 . S
C112 C115 1.487 . S
C113 C110 1.382 . S
C113 C114 1.387 . S
C113 H130 0.930 1_545 S
C114 C112 1.381 . S
C114 C113 1.387 . S
C114 H131 0.931 1_545 S
C115 C108 1.399 . S
C115 C112 1.487 . S
C115 N132 1.343 . S
H116 C88 0.931 . S
H117 C90 0.930 . S
H118 C92 0.930 1_565 S
H119 C93 0.931 1_565 S
H120 C95 0.931 1_565 S
H121 C97 0.930 1_565 S
H122 C99 0.930 . S
H123 C100 0.931 . S
H124 C102 0.931 1_565 S
H125 C104 0.930 1_565 S
H126 C106 0.930 . S
H127 C107 0.931 . S
H128 C109 0.931 . S
H129 C111 0.930 . S
H130 C113 0.930 1_565 S
H131 C114 0.931 1_565 S
N132 C94 1.343 . S
N132 C115 1.343 . S
N133 C101 1.343 . S
N133 C108 1.343 . S
C134 C135 1.384 . S
C134 C136 1.384 . S
C134 H162 0.931 . S
C135 C134 1.384 . S
C135 C138 1.382 . S
C136 C134 1.384 . S
C136 C137 1.381 . S
C136 H163 0.930 . S
C137 C136 1.381 . S
C137 C139 1.381 . S
C137 C140 1.487 . S
C138 C135 1.382 . S
C138 C139 1.387 . S
C138 H164 0.930 . S
C139 C137 1.381 . S
C139 C138 1.387 . S
C139 H165 0.931 . S
C140 C137 1.487 . S
C140 C147 1.399 . S
C140 N178 1.343 . S
C141 C142 1.384 . S
C141 C143 1.384 . S
C141 H166 0.931 . S
C142 C141 1.384 . S
C142 C145 1.382 . S
C143 C141 1.384 . S
C143 C144 1.381 . S
C143 H167 0.930 . S
C144 C143 1.381 . S
C144 C146 1.381 . S
C144 C147 1.487 . S
C145 C142 1.382 . S
C145 C146 1.387 . S
C145 H168 0.930 . S
C146 C144 1.381 . S
C146 C145 1.387 . S
C146 H169 0.931 . S
C147 C140 1.399 . S
C147 C144 1.487 . S
C147 N179 1.343 . S
C148 C149 1.384 . S
C148 C150 1.384 . S
C148 H170 0.931 . S
C149 C148 1.384 . S
C149 C152 1.382 . S
C150 C148 1.384 . S
C150 C151 1.381 . S
C150 H171 0.930 . S
C151 C150 1.381 . S
C151 C153 1.381 . S
C151 C154 1.487 . S
C152 C149 1.382 . S
C152 C153 1.387 . S
C152 H172 0.930 . S
C153 C151 1.381 . S
C153 C152 1.387 . S
C153 H173 0.931 . S
C154 C151 1.487 . S
C154 C161 1.399 . S
C154 N179 1.343 . S
C155 C156 1.384 . S
C155 C157 1.384 . S
C155 H174 0.931 . S
C156 C155 1.384 . S
C156 C159 1.382 . S
C157 C155 1.384 . S
C157 C158 1.381 . S
C157 H175 0.930 . S
C158 C157 1.381 . S
C158 C160 1.381 . S
C158 C161 1.487 . S
C159 C156 1.382 . S
C159 C160 1.387 . S
C159 H176 0.930 . S
C160 C158 1.381 . S
C160 C159 1.387 . S
C160 H177 0.931 . S
C161 C154 1.399 . S
C161 C158 1.487 . S
C161 N178 1.343 . S
H162 C134 0.931 . S
H163 C136 0.930 . S
H164 C138 0.930 . S
H165 C139 0.931 . S
H166 C141 0.931 . S
H167 C143 0.930 . S
H168 C145 0.930 . S
H169 C146 0.931 . S
H170 C148 0.931 . S
H171 C150 0.930 . S
H172 C152 0.930 . S
H173 C153 0.931 . S
H174 C155 0.931 . S
H175 C157 0.930 . S
H176 C159 0.930 . S
H177 C160 0.931 . S
N178 C140 1.343 . S
N178 C161 1.343 . S
N179 C147 1.343 . S
N179 C154 1.343 . S
C180 C181 1.396 . S
C180 C182 1.380 . S
C180 H196 0.944 1_455 S
C181 C180 1.396 . S
C181 C185 1.383 . S
C182 C180 1.380 . S
C182 C183 1.402 . S
C182 H197 0.951 1_455 S
C183 C182 1.402 . S
C183 C184 1.375 . S
C183 C186 1.481 . S
C184 C183 1.375 . S
C184 C185 1.367 . S
C184 H198 0.951 . S
C185 C181 1.383 . S
C185 C184 1.367 . S
C185 H199 0.950 . S
C186 C183 1.481 . S
C186 C187 1.297 . S
C186 H200 0.950 . S
C187 C186 1.297 . S
C187 C188 1.479 . S
C187 H201 0.950 . S
C188 C187 1.479 . S
C188 C189 1.375 . S
C188 C194 1.404 . S
C189 C188 1.375 . S
C189 C190 1.369 . S
C189 H202 0.950 1_455 S
C190 C189 1.369 . S
C190 C191 1.392 . S
C190 H203 0.951 1_455 S
C191 C190 1.392 . S
C191 C193 1.384 . S
H192 C194 0.949 . S
C193 C191 1.384 . S
C193 C194 1.385 . S
C193 H195 0.950 . S
C194 C188 1.404 . S
C194 H192 0.949 . S
C194 C193 1.385 . S
H195 C193 0.950 . S
H196 C180 0.944 1_655 S
H197 C182 0.951 1_655 S
H198 C184 0.951 . S
H199 C185 0.950 . S
H200 C186 0.950 . S
H201 C187 0.950 . S
H202 C189 0.950 1_655 S
H203 C190 0.951 1_655 S
C204 C205 1.386 . S
C204 C206 1.383 . S
C204 H220 0.953 . S
C205 C204 1.386 . S
C205 C209 1.383 . S
C206 C204 1.383 . S
C206 C207 1.402 . S
C206 H221 0.949 . S
C207 C206 1.402 . S
C207 C208 1.375 . S
C207 C210 1.481 . S
C208 C207 1.375 . S
C208 C209 1.367 . S
C208 H222 0.951 . S
C209 C205 1.383 . S
C209 C208 1.367 . S
C209 H223 0.950 . S
C210 C207 1.481 . S
C210 C211 1.297 . S
C210 H224 0.950 . S
C211 C210 1.297 . S
C211 C212 1.479 . S
C211 H225 0.950 1_545 S
C212 C211 1.479 . S
C212 C213 1.375 . S
C212 C218 1.404 . S
C213 C212 1.375 . S
C213 C214 1.369 . S
C213 H226 0.950 1_545 S
C214 C213 1.369 . S
C214 C215 1.392 . S
C214 H227 0.951 . S
C215 C214 1.392 . S
C215 C217 1.384 . S
H216 C218 0.949 . S
C217 C215 1.384 . S
C217 C218 1.385 . S
C217 H219 0.950 . S
C218 C212 1.404 . S
C218 H216 0.949 . S
C218 C217 1.385 . S
H219 C217 0.950 . S
H220 C204 0.953 . S
H221 C206 0.949 . S
H222 C208 0.951 . S
H223 C209 0.950 . S
H224 C210 0.950 . S
H225 C211 0.950 1_565 S
H226 C213 0.950 1_565 S
H227 C214 0.951 . S
C228 C229 1.386 . S
C228 C230 1.383 . S
C228 H244 0.951 . S
C229 C228 1.386 . S
C229 C233 1.383 . S
C230 C228 1.383 . S
C230 C231 1.402 . S
C230 H245 0.951 . S
C231 C230 1.402 . S
C231 C232 1.375 . S
C231 C234 1.481 . S
C232 C231 1.375 . S
C232 C233 1.367 . S
C232 H246 0.951 . S
C233 C229 1.383 . S
C233 C232 1.367 . S
C233 H247 0.950 . S
C234 C231 1.481 . S
C234 C235 1.297 . S
C234 H248 0.950 . S
C235 C234 1.297 . S
C235 C236 1.479 . S
C235 H249 0.950 . S
C236 C235 1.479 . S
C236 C237 1.375 . S
C236 C242 1.404 . S
C237 C236 1.375 . S
C237 C238 1.369 . S
C237 H250 0.950 . S
C238 C237 1.369 . S
C238 C239 1.392 . S
C238 H251 0.951 . S
C239 C238 1.392 . S
C239 C241 1.384 . S
H240 C242 0.949 . S
C241 C239 1.384 . S
C241 C242 1.385 . S
C241 H243 0.950 . S
C242 C236 1.404 . S
C242 H240 0.949 . S
C242 C241 1.385 . S
H243 C241 0.950 . S
H244 C228 0.951 . S
H245 C230 0.951 . S
H246 C232 0.951 . S
H247 C233 0.950 . S
H248 C234 0.950 . S
H249 C235 0.950 . S
H250 C237 0.950 . S
H251 C238 0.951 . S
C252 C253 1.386 . S
C252 C254 1.383 . S
C252 H268 0.951 . S
C253 C252 1.386 . S
C253 C257 1.383 . S
C254 C252 1.383 . S
C254 C255 1.402 . S
C254 H269 0.951 . S
C255 C254 1.402 . S
C255 C256 1.375 . S
C255 C258 1.481 . S
C256 C255 1.375 . S
C256 C257 1.367 . S
C256 H270 0.951 . S
C257 C253 1.383 . S
C257 C256 1.367 . S
C257 H271 0.950 . S
C258 C255 1.481 . S
C258 C259 1.297 . S
C258 H272 0.950 . S
C259 C258 1.297 . S
C259 C260 1.479 . S
C259 H273 0.950 . S
C260 C259 1.479 . S
C260 C261 1.375 . S
C260 C266 1.404 . S
C261 C260 1.375 . S
C261 C262 1.369 . S
C261 H274 0.950 . S
C262 C261 1.369 . S
C262 C263 1.392 . S
C262 H275 0.951 . S
C263 C262 1.392 . S
C263 C265 1.384 . S
H264 C266 0.949 . S
C265 C263 1.384 . S
C265 C266 1.385 . S
C265 H267 0.950 . S
C266 C260 1.404 . S
C266 H264 0.949 . S
C266 C265 1.385 . S
H267 C265 0.950 . S
H268 C252 0.951 . S
H269 C254 0.951 . S
H270 C256 0.951 . S
H271 C257 0.950 . S
H272 C258 0.950 . S
H273 C259 0.950 . S
H274 C261 0.950 . S
H275 C262 0.951 . S
C276 C277 1.386 . S
C276 C278 1.383 . S
C276 H292 0.951 . S
C277 C276 1.386 . S
C277 C281 1.383 . S
C278 C276 1.383 . S
C278 C279 1.402 . S
C278 H293 0.951 . S
C279 C278 1.402 . S
C279 C280 1.375 . S
C279 C282 1.481 . S
C280 C279 1.375 . S
C280 C281 1.367 . S
C280 H294 0.951 . S
C281 C277 1.383 . S
C281 C280 1.367 . S
C281 H295 0.950 . S
C282 C279 1.481 . S
C282 C283 1.297 . S
C282 H296 0.950 . S
C283 C282 1.297 . S
C283 C284 1.479 . S
C283 H297 0.953 . S
C284 C283 1.479 . S
C284 C285 1.375 . S
C284 C290 1.404 . S
C285 C284 1.375 . S
C285 C286 1.369 . S
C285 H298 0.950 1_545 S
C286 C285 1.369 . S
C286 C287 1.392 . S
C286 H299 0.951 . S
C287 C286 1.392 . S
C287 C289 1.384 . S
H288 C290 0.949 . S
C289 C287 1.384 . S
C289 C290 1.385 . S
C289 H291 0.950 . S
C290 C284 1.404 . S
C290 H288 0.949 . S
C290 C289 1.385 . S
H291 C289 0.950 . S
H292 C276 0.951 . S
H293 C278 0.951 . S
H294 C280 0.951 . S
H295 C281 0.950 . S
H296 C282 0.950 . S
H297 C283 0.953 . S
H298 C285 0.950 1_565 S
H299 C286 0.951 . S
C300 C301 1.386 . S
C300 C302 1.383 . S
C300 H316 0.951 . S
C301 C300 1.386 . S
C301 C305 1.383 . S
C302 C300 1.383 . S
C302 C303 1.402 . S
C302 H317 0.951 . S
C303 C302 1.402 . S
C303 C304 1.375 . S
C303 C306 1.481 . S
C304 C303 1.375 . S
C304 C305 1.367 . S
C304 H318 0.951 . S
C305 C301 1.383 . S
C305 C304 1.367 . S
C305 H319 0.950 . S
C306 C303 1.481 . S
C306 C307 1.297 . S
C306 H320 0.950 . S
C307 C306 1.297 . S
C307 C308 1.479 . S
C307 H321 0.950 . S
C308 C307 1.479 . S
C308 C309 1.375 . S
C308 C314 1.404 . S
C309 C308 1.375 . S
C309 C310 1.369 . S
C309 H322 0.950 . S
C310 C309 1.369 . S
C310 C311 1.392 . S
C310 H323 0.951 . S
C311 C310 1.392 . S
C311 C313 1.384 . S
H312 C314 0.949 . S
C313 C311 1.384 . S
C313 C314 1.385 . S
C313 H315 0.950 . S
C314 C308 1.404 . S
C314 H312 0.949 . S
C314 C313 1.385 . S
H315 C313 0.950 . S
H316 C300 0.951 . S
H317 C302 0.951 . S
H318 C304 0.951 . S
H319 C305 0.950 . S
H320 C306 0.950 . S
H321 C307 0.950 . S
H322 C309 0.950 . S
H323 C310 0.951 . S
C324 C325 1.386 . S
C324 C326 1.383 . S
C324 H340 0.951 1_545 S
C325 C324 1.386 . S
C325 C329 1.383 . S
C326 C324 1.383 . S
C326 C327 1.402 . S
C326 H341 0.951 . S
C327 C326 1.402 . S
C327 C328 1.375 . S
C327 C330 1.481 . S
C328 C327 1.375 . S
C328 C329 1.367 . S
C328 H342 0.951 . S
C329 C325 1.383 . S
C329 C328 1.367 . S
C329 H343 0.950 . S
C330 C327 1.481 . S
C330 C331 1.297 . S
C330 H344 0.950 . S
C331 C330 1.297 . S
C331 C332 1.479 . S
C331 H345 0.950 . S
C332 C331 1.479 . S
C332 C333 1.375 . S
C332 C338 1.404 . S
C333 C332 1.375 . S
C333 C334 1.369 . S
C333 H346 0.950 1_545 S
C334 C333 1.369 . S
C334 C335 1.392 . S
C334 H347 0.951 1_545 S
C335 C334 1.392 . S
C335 C337 1.384 . S
H336 C338 0.949 . S
C337 C335 1.384 . S
C337 C338 1.385 . S
C337 H339 0.950 . S
C338 C332 1.404 . S
C338 H336 0.949 . S
C338 C337 1.385 . S
H339 C337 0.950 . S
H340 C324 0.951 1_565 S
H341 C326 0.951 . S
H342 C328 0.951 . S
H343 C329 0.950 . S
H344 C330 0.950 . S
H345 C331 0.950 . S
H346 C333 0.950 1_565 S
H347 C334 0.951 1_565 S
C348 C349 1.386 . S
C348 C350 1.360 1_554 S
C348 H364 0.951 . S
C349 C348 1.386 . S
C349 C353 1.383 . S
C350 C348 1.360 1_556 S
C350 C351 1.383 1_556 S
C350 H365 0.993 . S
C351 C350 1.383 1_554 S
C351 C352 1.375 . S
C351 C354 1.481 1_554 S
C352 C351 1.375 . S
C352 C353 1.367 . S
C352 H366 0.951 . S
C353 C349 1.383 . S
C353 C352 1.367 . S
C353 H367 0.950 . S
C354 C351 1.481 1_556 S
C354 C355 1.297 . S
C354 H368 0.950 1_556 S
C355 C354 1.297 . S
C355 C356 1.479 . S
C355 H369 0.950 . S
C356 C355 1.479 . S
C356 C357 1.375 . S
C356 C362 1.404 . S
C357 C356 1.375 . S
C357 C358 1.369 . S
C357 H370 0.950 . S
C358 C357 1.369 . S
C358 C359 1.392 . S
C358 H371 0.951 . S
C359 C358 1.392 . S
C359 C361 1.384 . S
H360 C362 0.949 . S
C361 C359 1.384 . S
C361 C362 1.385 . S
C361 H363 0.950 . S
C362 C356 1.404 . S
C362 H360 0.949 . S
C362 C361 1.385 . S
H363 C361 0.950 . S
H364 C348 0.951 . S
H365 C350 0.993 . S
H366 C352 0.951 . S
H367 C353 0.950 . S
H368 C354 0.950 1_554 S
H369 C355 0.950 . S
H370 C357 0.950 . S
H371 C358 0.951 . S
C372 C373 1.386 . S
C372 C374 1.383 . S
C372 H388 0.951 . S
C373 C372 1.386 . S
C373 C377 1.383 . S
C374 C372 1.383 . S
C374 C375 1.402 . S
C374 H389 0.951 . S
C375 C374 1.402 . S
C375 C376 1.375 . S
C375 C378 1.481 . S
C376 C375 1.375 . S
C376 C377 1.367 . S
C376 H390 0.951 . S
C377 C373 1.383 . S
C377 C376 1.367 . S
C377 H391 0.950 . S
C378 C375 1.481 . S
C378 C379 1.297 . S
C378 H392 0.950 . S
C379 C378 1.297 . S
C379 C380 1.479 . S
C379 H393 0.950 . S
C380 C379 1.479 . S
C380 C381 1.375 . S
C380 C386 1.404 . S
C381 C380 1.375 . S
C381 C382 1.369 . S
C381 H394 0.950 . S
C382 C381 1.369 . S
C382 C383 1.392 . S
C382 H395 0.951 . S
C383 C382 1.392 . S
C383 C385 1.384 . S
H384 C386 0.949 . S
C385 C383 1.384 . S
C385 C386 1.385 . S
C385 H387 0.950 . S
C386 C380 1.404 . S
C386 H384 0.949 . S
C386 C385 1.385 . S
H387 C385 0.950 . S
H388 C372 0.951 . S
H389 C374 0.951 . S
H390 C376 0.951 . S
H391 C377 0.950 . S
H392 C378 0.950 . S
H393 C379 0.950 . S
H394 C381 0.950 . S
H395 C382 0.951 . S
C396 C397 1.386 . S
C396 C398 1.383 . S
C396 H412 0.951 . S
C397 C396 1.386 . S
C397 C401 1.411 . S
C398 C396 1.383 . S
C398 C399 1.402 . S
C398 H413 0.951 . S
C399 C398 1.402 . S
C399 C400 1.375 1_545 S
C399 C402 1.481 . S
C400 C399 1.375 1_565 S
C400 C401 1.353 1_565 S
C400 H414 0.951 . S
C401 C397 1.411 . S
C401 C400 1.353 1_545 S
C401 H415 0.935 1_545 S
C402 C399 1.481 . S
C402 C403 1.297 . S
C402 H416 0.948 . S
C403 C402 1.297 . S
C403 C404 1.479 . S
C403 H417 0.950 . S
C404 C403 1.479 . S
C404 C405 1.375 . S
C404 C410 1.404 . S
C405 C404 1.375 . S
C405 C406 1.369 . S
C405 H418 0.950 . S
C406 C405 1.369 . S
C406 C407 1.392 . S
C406 H419 0.951 . S
C407 C406 1.392 . S
C407 C409 1.384 . S
H408 C410 0.949 1_565 S
C409 C407 1.384 . S
C409 C410 1.385 . S
C409 H411 0.950 1_545 S
C410 C404 1.404 . S
C410 H408 0.949 1_545 S
C410 C409 1.385 . S
H411 C409 0.950 1_565 S
H412 C396 0.951 . S
H413 C398 0.951 . S
H414 C400 0.951 . S
H415 C401 0.935 1_565 S
H416 C402 0.948 . S
H417 C403 0.950 . S
H418 C405 0.950 . S
H419 C406 0.951 . S
C420 C421 1.386 . S
C420 C422 1.383 . S
C420 H436 0.951 . S
C421 C420 1.386 . S
C421 C425 1.383 . S
C422 C420 1.383 . S
C422 C423 1.402 . S
C422 H437 0.951 . S
C423 C422 1.402 . S
C423 C424 1.375 . S
C423 C426 1.481 1_554 S
C424 C423 1.375 . S
C424 C425 1.367 . S
C424 H438 0.951 . S
C425 C421 1.383 . S
C425 C424 1.367 . S
C425 H439 0.950 . S
C426 C423 1.481 1_556 S
C426 C427 1.297 . S
C426 H440 0.950 . S
C427 C426 1.297 . S
C427 C428 1.479 . S
C427 H441 0.950 . S
C428 C427 1.479 . S
C428 C429 1.375 . S
C428 C434 1.404 . S
C429 C428 1.375 . S
C429 C430 1.369 . S
C429 H442 0.950 . S
C430 C429 1.369 . S
C430 C431 1.392 . S
C430 H443 0.951 . S
C431 C430 1.392 . S
C431 C433 1.384 . S
H432 C434 0.949 . S
C433 C431 1.384 . S
C433 C434 1.385 . S
C433 H435 0.950 . S
C434 C428 1.404 . S
C434 H432 0.949 . S
C434 C433 1.385 . S
H435 C433 0.950 . S
H436 C420 0.951 . S
H437 C422 0.951 . S
H438 C424 0.951 . S
H439 C425 0.950 . S
H440 C426 0.950 . S
H441 C427 0.950 . S
H442 C429 0.950 . S
H443 C430 0.951 . S
C444 C445 1.376 1_655 S
C444 C446 1.388 1_655 S
C444 H460 0.956 . S
C445 C444 1.376 1_455 S
C445 C449 1.383 . S
C446 C444 1.388 1_455 S
C446 C447 1.402 . S
C446 H461 0.951 1_455 S
C447 C446 1.402 . S
C447 C448 1.375 . S
C447 C450 1.481 . S
C448 C447 1.375 . S
C448 C449 1.367 . S
C448 H462 0.951 . S
C449 C445 1.383 . S
C449 C448 1.367 . S
C449 H463 0.950 . S
C450 C447 1.481 . S
C450 C451 1.297 . S
C450 H464 0.950 . S
C451 C450 1.297 . S
C451 C452 1.479 . S
C451 H465 0.950 1_455 S
C452 C451 1.479 . S
C452 C453 1.375 1_455 S
C452 C458 1.404 . S
C453 C452 1.375 1_655 S
C453 C454 1.363 . S
C453 H466 0.950 . S
C454 C453 1.363 . S
C454 C455 1.384 1_655 S
C454 H467 0.965 . S
C455 C454 1.384 1_455 S
C455 C457 1.384 . S
H456 C458 0.949 . S
C457 C455 1.384 . S
C457 C458 1.385 . S
C457 H459 0.950 . S
C458 C452 1.404 . S
C458 H456 0.949 . S
C458 C457 1.385 . S
H459 C457 0.950 . S
H460 C444 0.956 . S
H461 C446 0.951 1_655 S
H462 C448 0.951 . S
H463 C449 0.950 . S
H464 C450 0.950 . S
H465 C451 0.950 1_655 S
H466 C453 0.950 . S
H467 C454 0.965 . S
C191 C50 1.436 . S
C181 C0 1.442 . S
C205 C25 1.489 . S
C215 C89 1.471 . S
C229 C33 1.510 . S
C239 C156 1.506 . S
C253 C11 1.438 . S
C263 C57 1.436 . S
C287 C110 1.471 . S
C277 C14 1.464 . S
C301 C37 1.514 . S
C311 C135 1.504 . S
C335 C96 1.472 . S
C325 C28 1.471 . S
C349 C9 1.499 . S
C359 C149 1.492 . S
C383 C64 1.533 . S
C373 C19 1.534 . S
C407 C103 1.477 . S
C397 C39 1.478 . S
C431 C142 1.504 . S
C421 C5 1.510 . S
C445 C23 1.546 . S
C455 C43 1.550 . S
