# Generated by pormake.
# Topology rtl, (3,6)-cn, num edge types: 1
# Building blocks:
#     Node 0, Type 0, BuildingBlock: QEWDON_clean_linker_0, # of connection points: 3
#     Node 1, Type 0, BuildingBlock: QEWDON_clean_linker_0, # of connection points: 3
#     Node 2, Type 0, BuildingBlock: QEWDON_clean_linker_0, # of connection points: 3
#     Node 3, Type 0, BuildingBlock: QEWDON_clean_linker_0, # of connection points: 3
#     Node 4, Type 1, BuildingBlock: LEVNOQ01_clean_sbu_1, # of connection points: 6
#     Node 5, Type 1, BuildingBlock: LEVNOQ01_clean_sbu_1, # of connection points: 6
#     Edge 6, Type (0, 1), BuildingBlock: FUNLAD_clean_linker_0, # of connection points: 2
#     Edge 7, Type (0, 1), BuildingBlock: FUNLAD_clean_linker_0, # of connection points: 2
#     Edge 8, Type (0, 1), BuildingBlock: FUNLAD_clean_linker_0, # of connection points: 2
#     Edge 9, Type (0, 1), BuildingBlock: FUNLAD_clean_linker_0, # of connection points: 2
#     Edge 10, Type (0, 1), BuildingBlock: FUNLAD_clean_linker_0, # of connection points: 2
#     Edge 11, Type (0, 1), BuildingBlock: FUNLAD_clean_linker_0, # of connection points: 2
#     Edge 12, Type (0, 1), BuildingBlock: FUNLAD_clean_linker_0, # of connection points: 2
#     Edge 13, Type (0, 1), BuildingBlock: FUNLAD_clean_linker_0, # of connection points: 2
#     Edge 14, Type (0, 1), BuildingBlock: FUNLAD_clean_linker_0, # of connection points: 2
#     Edge 15, Type (0, 1), BuildingBlock: FUNLAD_clean_linker_0, # of connection points: 2
#     Edge 16, Type (0, 1), BuildingBlock: FUNLAD_clean_linker_0, # of connection points: 2
#     Edge 17, Type (0, 1), BuildingBlock: FUNLAD_clean_linker_0, # of connection points: 2
# Relax obj value: 0.039
# Max RMSD: 0.178
# Mean RMSD: 0.138
data_MOF--net-rtl--node1-LEVNOQ01_clean_sbu_1--node2-QEWDON_clean_linker_0--edge1-FUNLAD_clean_linker_0
_symmetry_space_group_name_H-M    P1
_symmetry_Int_Tables_number       1
_symmetry_cell_setting            triclinic
loop_
_symmetry_equiv_pos_as_xyz
'x, y, z'
_cell_length_a     43.649829
_cell_length_b     43.478915
_cell_length_c     25.477938
_cell_angle_alpha  91.405665
_cell_angle_beta   99.748396
_cell_angle_gamma 90.318243
loop_
_atom_site_label
_atom_site_type_symbol
_atom_site_fract_x
_atom_site_fract_y
_atom_site_fract_z
_atom_type_partial_charge
H0 H 0.23208 0.86202 0.17028 0.0
C1 C 0.21815 0.8638 0.13099 0.0
C2 C 0.18749 0.87441 0.12558 0.0
C3 C 0.2316 0.85711 0.08591 0.0
H4 H 0.14607 0.88444 0.07041 0.0
C5 C 0.17007 0.87733 0.07423 0.0
C6 C 0.18331 0.87138 0.02824 0.0
C7 C 0.21435 0.8612 0.03483 0.0
C8 C 0.26495 0.84954 0.09264 0.0
H9 H 0.2257 0.85757 1.00057 0.0
C10 C 0.27505 0.81888 0.09698 0.0
C11 C 0.30712 0.81219 0.10543 0.0
C12 C 0.28688 0.8735 0.09659 0.0
H13 H 0.27944 0.89722 0.09354 0.0
C14 C 0.31857 0.86706 0.10482 0.0
H15 H 0.25802 0.80044 0.09449 0.0
C16 C 0.32867 0.83668 0.10926 0.0
H17 H 0.35341 0.83236 0.11478 0.0
H18 H 0.33538 0.88567 0.10768 0.0
H19 H 0.71586 0.72331 0.52722 0.0
C20 C 0.70184 0.7139 0.55435 0.0
C21 C 0.6716 0.7026 0.53472 0.0
C22 C 0.71472 0.71152 0.60856 0.0
H23 H 0.63108 0.68073 0.55588 0.0
C24 C 0.65415 0.68983 0.57063 0.0
C25 C 0.66666 0.68724 0.62492 0.0
C26 C 0.6969 0.69837 0.64347 0.0
C27 C 0.74797 0.71912 0.62811 0.0
H28 H 0.7072 0.6957 0.68489 0.0
C29 C 0.76063 0.7484 0.62135 0.0
C30 C 0.79216 0.75519 0.6421 0.0
C31 C 0.7672 0.69656 0.65466 0.0
H32 H 0.7581 0.67381 0.65988 0.0
C33 C 0.79839 0.70292 0.67419 0.0
H34 H 0.74578 0.76599 0.60149 0.0
C35 C 0.81081 0.73192 0.66804 0.0
H36 H 0.83526 0.73596 0.6831 0.0
H37 H 0.81304 0.68525 0.69415 0.0
H38 H 0.77853 0.19923 0.0613 0.0
C39 C 0.78948 0.19377 0.02713 0.0
C40 C 0.82084 0.18475 0.0345 0.0
C41 C 0.77196 0.19498 0.97551 0.0
H42 H 0.85799 0.16912 0.99465 0.0
C43 C 0.83428 0.17728 0.98943 0.0
C44 C 0.81707 0.17849 0.93775 0.0
C45 C 0.78581 0.18722 0.93116 0.0
C46 C 0.7384 0.20176 0.96723 0.0
H47 H 0.77214 0.18801 0.8915 0.0
C48 C 0.72766 0.23212 0.97013 0.0
C49 C 0.69554 0.23841 0.95777 0.0
C50 C 0.717 0.17762 0.95262 0.0
H51 H 0.72494 0.15416 0.94974 0.0
C52 C 0.68528 0.18358 0.94098 0.0
H53 H 0.74432 0.25068 0.98145 0.0
C54 C 0.67458 0.21368 0.9432 0.0
H55 H 0.64987 0.21758 0.9324 0.0
H56 H 0.66892 0.16483 0.92942 0.0
H57 H 0.33916 0.28732 0.56527 0.0
C58 C 0.34254 0.30292 0.53415 0.0
C59 C 0.35648 0.33202 0.54757 0.0
C60 C 0.33507 0.293 0.48054 0.0
H61 H 0.37258 0.37378 0.51637 0.0
C62 C 0.36172 0.35144 0.50644 0.0
C63 C 0.3543 0.34182 0.45274 0.0
C64 C 0.34086 0.31258 0.44028 0.0
C65 C 0.32504 0.26089 0.46597 0.0
H66 H 0.33539 0.30465 0.39904 0.0
C67 C 0.29565 0.24972 0.47279 0.0
C68 C 0.28592 0.21957 0.45508 0.0
C69 C 0.34483 0.24171 0.44221 0.0
H70 H 0.36747 0.24995 0.43646 0.0
C71 C 0.33556 0.21187 0.42534 0.0
H72 H 0.28039 0.26457 0.49113 0.0
C73 C 0.30634 0.20089 0.4314 0.0
H74 H 0.2995 0.17791 0.41644 0.0
H75 H 0.35095 0.19731 0.40682 0.0
O76 O 0.99344 0.08038 0.63831 0.0
Mg77 Mg 0.03225 0.06003 0.61527 0.0
O78 O 0.96496 0.04849 0.58144 0.0
Mg79 Mg 0.99822 0.0242 0.52874 0.0
O80 O 0.03789 0.06331 0.53717 0.0
O81 O 0.06328 0.09235 0.60559 0.0
O82 O 0.03269 1.00037 0.47563 0.0
O83 O 0.97313 0.05586 0.46108 0.0
Mg84 Mg 0.97165 0.9879 0.44678 0.0
O85 O 0.95694 0.98649 0.51973 0.0
O86 O 0.00828 0.95974 0.43629 0.0
O87 O 0.96019 0.0238 0.3931 0.0
O88 O 0.93334 0.96217 0.4445 0.0
C89 C 0.04322 0.99589 0.64015 0.0
C90 C 0.9672 0.06944 0.6179 0.0
C91 C 0.0583 0.0848 0.55558 0.0
C92 C 0.033 0.97521 0.44854 0.0
C93 C 0.96162 0.05091 0.4122 0.0
C94 C 0.93529 0.96794 0.49478 0.0
O95 O 0.05313 0.02243 0.65589 0.0
O96 O 0.02279 0.99231 0.59806 0.0
O97 O 0.56909 0.54181 0.15653 0.0
Mg98 Mg 0.55085 0.49984 0.12531 0.0
O99 O 0.52842 0.56312 0.10871 0.0
Mg100 Mg 0.5038 0.52545 0.04476 0.0
O101 O 0.54647 0.49121 0.0448 0.0
O102 O 0.58466 0.47293 0.10661 0.0
O103 O 0.47959 0.48771 0.98021 0.0
O104 O 0.52632 0.55255 0.98195 0.0
Mg105 Mg 0.45517 0.5484 0.96504 0.0
O106 O 0.46164 0.56006 0.04476 0.0
O107 O 0.43514 0.50598 0.94023 0.0
O108 O 0.48732 0.56778 0.92185 0.0
O109 O 0.423 0.57773 0.98315 0.0
C110 C 0.48974 0.48042 0.14585 0.0
C111 C 0.55293 0.56527 0.14417 0.0
C112 C 0.57121 0.47434 0.05761 0.0
C113 C 0.45366 0.48384 0.94865 0.0
C114 C 0.51626 0.56635 0.93883 0.0
C115 C 0.43706 0.5771 0.03188 0.0
O116 O 0.51842 0.47625 0.16168 0.0
O117 O 0.48052 0.49791 0.10685 0.0
C118 C 0.2503 0.17656 0.47198 0.0
C119 C 0.25441 0.20752 0.45951 0.0
C120 C 0.22067 0.16458 0.47338 0.0
C121 C 0.19427 0.18327 0.46237 0.0
C122 C 0.1984 0.21435 0.45101 0.0
C123 C 0.22807 0.22632 0.4493 0.0
C124 C 0.16263 0.17181 0.46703 0.0
C125 C 0.15409 0.14179 0.46219 0.0
C126 C 0.12486 0.12953 0.47736 0.0
C127 C 0.115 0.09922 0.46186 0.0
C128 C 0.09106 0.0851 0.48342 0.0
C129 C 0.07697 0.10098 0.52141 0.0
H130 H 0.11586 0.16902 0.52664 0.0
C131 C 0.08537 0.13183 0.53414 0.0
C132 C 0.10895 0.14596 0.51252 0.0
H133 H 0.07487 0.14461 0.56346 0.0
H134 H 0.2701 0.16156 0.48132 0.0
H135 H 0.21874 0.14088 0.4845 0.0
H136 H 0.17855 0.22943 0.44317 0.0
H137 H 0.23027 0.25016 0.43906 0.0
H138 H 0.14604 0.18896 0.47538 0.0
H139 H 0.1697 0.12513 0.44872 0.0
H140 H 0.12685 0.08591 0.43503 0.0
H141 H 0.08526 0.06119 0.47348 0.0
C142 C 0.30388 0.75696 0.0732 0.0
C143 C 0.31839 0.77988 0.10879 0.0
C144 C 0.31615 0.72731 0.07319 0.0
C145 C 0.34324 0.7197 0.10866 0.0
C146 C 0.35705 0.74234 0.14585 0.0
C147 C 0.3448 0.77205 0.14573 0.0
C148 C 0.35642 0.68831 0.10366 0.0
C149 C 0.38479 0.67914 0.12798 0.0
C150 C 0.39859 0.64921 0.11436 0.0
C151 C 0.37998 0.62395 0.09254 0.0
C152 C 0.39324 0.59875 0.07021 0.0
C153 C 0.4254 0.59775 0.07056 0.0
H154 H 0.44611 0.66556 0.13692 0.0
C155 C 0.44447 0.62116 0.09765 0.0
C156 C 0.43112 0.64673 0.11944 0.0
H157 H 0.46931 0.62103 0.09787 0.0
H158 H 0.28366 0.76219 0.04399 0.0
H159 H 0.30479 0.71044 0.04422 0.0
H160 H 0.37739 0.73755 0.17491 0.0
H161 H 0.35617 0.78903 0.17445 0.0
H162 H 0.34271 0.67279 0.07478 0.0
H163 H 0.39979 0.69497 0.15423 0.0
H164 H 0.35502 0.62407 0.09034 0.0
H165 H 0.3781 0.58082 0.04969 0.0
C166 C 0.79942 0.80211 0.58895 0.0
C167 C 0.80618 0.7861 0.63673 0.0
C168 C 0.81532 0.82946 0.58228 0.0
C169 C 0.83829 0.8415 0.62344 0.0
C170 C 0.84428 0.826 0.67165 0.0
C171 C 0.82827 0.79885 0.67844 0.0
C172 C 0.85846 0.86821 0.61563 0.0
C173 C 0.84936 0.89049 0.58069 0.0
C174 C 0.87079 0.91392 0.56441 0.0
C175 C 0.86203 0.92713 0.51453 0.0
C176 C 0.88261 0.94601 0.49359 0.0
C177 C 0.91236 0.95273 0.52238 0.0
H178 H 0.90721 0.91328 0.63432 0.0
C179 C 0.9205 0.94159 0.5741 0.0
C180 C 0.89992 0.92216 0.59495 0.0
H181 H 0.94328 0.94652 0.59717 0.0
H182 H 0.78289 0.79279 0.55577 0.0
H183 H 0.81058 0.84017 0.54391 0.0
H184 H 0.86183 0.83464 0.70397 0.0
H185 H 0.83367 0.78751 0.71622 0.0
H186 H 0.88193 0.86852 0.63801 0.0
H187 H 0.8256 0.89006 0.55937 0.0
H188 H 0.8397 0.92161 0.49032 0.0
H189 H 0.87554 0.95458 0.45382 0.0
C190 C 0.65531 0.27661 0.97632 0.0
C191 C 0.68361 0.27051 0.95874 0.0
C192 C 0.64335 0.30638 0.97554 0.0
C193 C 0.65942 0.33097 0.95723 0.0
C194 C 0.68795 0.32507 0.94059 0.0
C195 C 0.69983 0.29518 0.94094 0.0
C196 C 0.64838 0.36326 0.95971 0.0
C197 C 0.61819 0.37065 0.95776 0.0
C198 C 0.60717 0.40175 0.97192 0.0
C199 C 0.57504 0.40771 0.9625 0.0
C200 C 0.56312 0.43367 0.98561 0.0
C201 C 0.58317 0.45398 0.01876 0.0
H202 H 0.65211 0.42028 0.01048 0.0
C203 C 0.61538 0.4495 0.02451 0.0
C204 C 0.62731 0.42377 0.00137 0.0
H205 H 0.63131 0.46473 0.05037 0.0
H206 H 0.64253 0.25841 0.9916 0.0
H207 H 0.62197 0.31012 0.99083 0.0
H208 H 0.70107 0.34363 0.92705 0.0
H209 H 0.7215 0.29138 0.92658 0.0
H210 H 0.66601 0.38125 0.96419 0.0
H211 H 0.60061 0.35266 0.94822 0.0
H212 H 0.5589 0.39121 0.94015 0.0
H213 H 0.5382 0.43621 0.98174 0.0
C214 C 0.15781 0.91196 0.17353 0.0
C215 C 0.17424 0.88424 0.17335 0.0
C216 C 0.14532 0.92145 0.21824 0.0
C217 C 0.14901 0.90342 0.26398 0.0
C218 C 0.16543 0.87572 0.26376 0.0
C219 C 0.17814 0.86634 0.21914 0.0
C220 C 0.13369 0.91144 0.31041 0.0
C221 C 0.12574 0.94036 0.32278 0.0
C222 C 0.10549 0.94777 0.36292 0.0
C223 C 0.10463 0.97816 0.38292 0.0
C224 C 0.08246 0.9869 0.41425 0.0
C225 C 0.06045 0.96544 0.42546 0.0
H226 H 0.08369 0.90253 0.36158 0.0
C227 C 0.06235 0.93474 0.40776 0.0
C228 C 0.0845 0.92599 0.37688 0.0
H229 H 0.0457 0.91764 0.41575 0.0
H230 H 0.15465 0.92641 0.13904 0.0
H231 H 0.13206 0.94246 0.21606 0.0
H232 H 0.16825 0.86115 0.29812 0.0
H233 H 0.19051 0.84477 0.22009 0.0
H234 H 0.1286 0.89257 0.33479 0.0
H235 H 0.13356 0.9595 0.30166 0.0
H236 H 0.12037 0.99548 0.37259 0.0
H237 H 0.0814 0.01076 0.42688 0.0
C238 C 0.64974 0.68156 0.71424 0.0
C239 C 0.64895 0.671 0.66133 0.0
C240 C 0.63292 0.6662 0.74805 0.0
C241 C 0.61493 0.63993 0.7296 0.0
C242 C 0.61427 0.62938 0.67694 0.0
C243 C 0.63123 0.64451 0.64339 0.0
C244 C 0.59492 0.62408 0.76253 0.0
C245 C 0.6002 0.62436 0.81625 0.0
C246 C 0.57866 0.60917 0.84731 0.0
C247 C 0.59019 0.59734 0.89758 0.0
C248 C 0.57014 0.58311 0.9274 0.0
C249 C 0.53806 0.58092 0.9078 0.0
H250 H 0.53657 0.61699 0.7904 0.0
C251 C 0.52656 0.59326 0.85786 0.0
C252 C 0.54654 0.60723 0.82808 0.0
H253 H 0.50198 0.59225 0.84159 0.0
H254 H 0.66283 0.70209 0.72921 0.0
H255 H 0.63336 0.67552 0.78795 0.0
H256 H 0.60056 0.60925 0.66162 0.0
H257 H 0.63059 0.63523 0.60338 0.0
H258 H 0.5754 0.61074 0.74113 0.0
H259 H 0.62128 0.63497 0.83813 0.0
H260 H 0.61479 0.59885 0.91359 0.0
H261 H 0.57973 0.57403 0.96586 0.0
C262 C 0.82688 0.16532 0.12814 0.0
C263 C 0.83948 0.18064 0.08856 0.0
C264 C 0.84612 0.15616 0.17485 0.0
C265 C 0.87835 0.16215 0.18278 0.0
C266 C 0.89047 0.17917 0.14482 0.0
C267 C 0.87127 0.18856 0.09858 0.0
C268 C 0.90044 0.14735 0.2255 0.0
C269 C 0.89317 0.13844 0.27218 0.0
C270 C 0.91403 0.11847 0.30882 0.0
C271 C 0.91503 0.12121 0.36417 0.0
C272 C 0.93221 0.10041 0.39855 0.0
C273 C 0.94784 0.07596 0.37787 0.0
H274 H 0.92998 0.09144 0.24607 0.0
C275 C 0.94731 0.07364 0.32264 0.0
C276 C 0.9308 0.09473 0.28855 0.0
H277 H 0.95902 0.05493 0.30557 0.0
H278 H 0.80258 0.15861 0.12153 0.0
H279 H 0.836 0.14262 0.20277 0.0
H280 H 0.91517 0.18416 0.1499 0.0
H281 H 0.88165 0.20086 0.06942 0.0
H282 H 0.92364 0.14276 0.21722 0.0
H283 H 0.87124 0.1453 0.28346 0.0
H284 H 0.90207 0.13911 0.38073 0.0
H285 H 0.93193 0.10252 0.44092 0.0
C286 C 0.3964 0.35645 0.61934 0.0
C287 C 0.36735 0.34173 0.60423 0.0
C288 C 0.40606 0.36747 0.67157 0.0
C289 C 0.38698 0.36384 0.7104 0.0
C290 C 0.35827 0.34841 0.69558 0.0
C291 C 0.34863 0.33731 0.64322 0.0
C292 C 0.39471 0.3785 0.76472 0.0
C293 C 0.42352 0.38829 0.78723 0.0
C294 C 0.43031 0.40871 0.836 0.0
C295 C 0.46147 0.41407 0.85999 0.0
C296 C 0.46921 0.437 0.89985 0.0
C297 C 0.44593 0.45516 0.9163 0.0
H298 H 0.38271 0.42303 0.83772 0.0
C299 C 0.41471 0.44855 0.89473 0.0
C300 C 0.40695 0.42572 0.85511 0.0
H301 H 0.39619 0.46216 0.90658 0.0
H302 H 0.41163 0.35983 0.5905 0.0
H303 H 0.42797 0.3798 0.68044 0.0
H304 H 0.34291 0.3455 0.72437 0.0
H305 H 0.32607 0.3262 0.63287 0.0
H306 H 0.37545 0.38197 0.78601 0.0
H307 H 0.44314 0.38229 0.76808 0.0
H308 H 0.48004 0.40151 0.84607 0.0
H309 H 0.49347 0.44187 0.91498 0.0
C310 C 0.62743 0.70457 0.45681 0.0
C311 C 0.65928 0.70047 0.47634 0.0
C312 C 0.61489 0.69714 0.40365 0.0
C313 C 0.634 0.68548 0.36866 0.0
C314 C 0.66614 0.68363 0.38721 0.0
C315 C 0.67862 0.69085 0.44035 0.0
C316 C 0.62159 0.67289 0.31412 0.0
C317 C 0.59217 0.66233 0.2985 0.0
C318 C 0.58264 0.64169 0.25066 0.0
C319 C 0.55085 0.63762 0.22945 0.0
C320 C 0.5409 0.61431 0.19104 0.0
C321 C 0.56261 0.59432 0.17402 0.0
H322 H 0.62889 0.62432 0.2464 0.0
C323 C 0.59439 0.59952 0.19291 0.0
C324 C 0.60432 0.62282 0.23063 0.0
H325 H 0.61166 0.58442 0.18053 0.0
H326 H 0.61195 0.71269 0.48309 0.0
H327 H 0.59021 0.70004 0.39068 0.0
H328 H 0.68154 0.67497 0.3612 0.0
H329 H 0.70318 0.68715 0.45381 0.0
H330 H 0.63844 0.6693 0.28782 0.0
H331 H 0.57485 0.6664 0.32373 0.0
H332 H 0.53358 0.65161 0.24436 0.0
H333 H 0.51623 0.61061 0.17757 0.0
C334 C 0.81662 0.15024 0.84999 0.0
C335 C 0.83191 0.16973 0.89121 0.0
C336 C 0.83173 0.14045 0.80823 0.0
C337 C 0.86248 0.15002 0.807 0.0
C338 C 0.87721 0.1703 0.84739 0.0
C339 C 0.8622 0.17997 0.88895 0.0
C340 C 0.8805 0.13972 0.76518 0.0
C341 C 0.87287 0.11577 0.73051 0.0
C342 C 0.89408 0.10486 0.69394 0.0
C343 C 0.89364 0.07364 0.67771 0.0
C344 C 0.91623 0.06207 0.64948 0.0
C345 C 0.93966 0.08161 0.63751 0.0
H346 H 0.91608 0.1492 0.68612 0.0
C347 C 0.93869 0.11313 0.65017 0.0
C348 C 0.9159 0.12473 0.67724 0.0
H349 H 0.95617 0.12877 0.64031 0.0
H350 H 0.79326 0.14191 0.85071 0.0
H351 H 0.8192 0.12542 0.77741 0.0
H352 H 0.90073 0.17839 0.84735 0.0
H353 H 0.87442 0.1954 0.9196 0.0
H354 H 0.90259 0.15144 0.76588 0.0
H355 H 0.8522 0.10209 0.732 0.0
H356 H 0.87675 0.0579 0.68915 0.0
H357 H 0.9165 0.03766 0.63996 0.0
C358 C 0.37751 0.34764 0.37002 0.0
C359 C 0.36312 0.36113 0.41008 0.0
C360 C 0.38791 0.36567 0.33185 0.0
C361 C 0.384 0.39786 0.33236 0.0
C362 C 0.36912 0.41126 0.372 0.0
C363 C 0.35881 0.39315 0.41042 0.0
C364 C 0.39725 0.41837 0.29536 0.0
C365 C 0.4088 0.40801 0.25244 0.0
C366 C 0.4279 0.42738 0.22307 0.0
C367 C 0.4541 0.41408 0.20704 0.0
C368 C 0.47388 0.43153 0.18179 0.0
C369 C 0.46737 0.46246 0.17035 0.0
H370 H 0.40058 0.46896 0.22232 0.0
C371 C 0.44042 0.47563 0.1842 0.0
C372 C 0.42098 0.4583 0.21115 0.0
H373 H 0.43495 0.49945 0.17563 0.0
H374 H 0.38184 0.32314 0.36927 0.0
H375 H 0.39996 0.35404 0.30358 0.0
H376 H 0.36591 0.43593 0.37383 0.0
H377 H 0.34766 0.40424 0.44062 0.0
H378 H 0.39931 0.44276 0.30588 0.0
H379 H 0.40729 0.38381 0.24114 0.0
H380 H 0.45981 0.39028 0.21546 0.0
H381 H 0.49436 0.42076 0.17106 0.0
C382 C 0.14339 0.90148 0.96685 0.0
C383 C 0.16537 0.87763 0.97396 0.0
C384 C 0.12748 0.90829 0.91617 0.0
C385 C 0.1335 0.89189 0.8709 0.0
C386 C 0.15533 0.86813 0.87754 0.0
C387 C 0.17072 0.86074 0.92847 0.0
C388 C 0.11982 0.90164 0.81646 0.0
C389 C 0.09073 0.91269 0.80436 0.0
C390 C 0.07929 0.92915 0.75439 0.0
C391 C 0.04723 0.92973 0.73417 0.0
C392 C 0.03542 0.94953 0.69305 0.0
C393 C 0.05547 0.96966 0.67268 0.0
H394 H 0.12415 0.94862 0.74639 0.0
C395 C 0.08759 0.96809 0.69116 0.0
C396 C 0.09944 0.94787 0.73117 0.0
H397 H 0.10346 0.98365 0.67639 0.0
H398 H 0.13911 0.9158 1.00012 0.0
H399 H 0.11154 0.92742 0.91231 0.0
H400 H 0.16059 0.85533 0.8432 0.0
H401 H 0.18698 0.8419 0.93193 0.0
H402 H 0.13454 0.9006 0.78609 0.0
H403 H 0.07515 0.91102 0.83325 0.0
H404 H 0.03118 0.91577 0.75171 0.0
H405 H 0.01051 0.9507 0.67999 0.0
loop_
_geom_bond_atom_site_label_1
_geom_bond_atom_site_label_2
_geom_bond_distance
_geom_bond_site_symmetry_2
_ccdc_geom_bond_type
H0 C1 0.949 . S
C1 H0 0.949 . S
C1 C2 1.395 . S
C1 C3 1.391 . S
C2 C1 1.395 . S
C2 C5 1.390 . S
C3 C1 1.391 . S
C3 C7 1.387 . S
C3 C8 1.491 . S
H4 C5 0.950 . S
C5 C2 1.390 . S
C5 H4 0.950 . S
C5 C6 1.378 . S
C6 C5 1.378 . S
C6 C7 1.409 . S
C7 C3 1.387 . S
C7 C6 1.409 . S
C7 H9 0.951 1_554 S
C8 C3 1.491 . S
C8 C10 1.382 . S
C8 C12 1.404 . S
H9 C7 0.951 1_556 S
C10 C8 1.382 . S
C10 C11 1.390 . S
C10 H15 0.949 . S
C11 C10 1.390 . S
C11 C16 1.399 . S
C12 C8 1.404 . S
C12 H13 0.950 . S
C12 C14 1.375 . S
H13 C12 0.950 . S
C14 C12 1.375 . S
C14 C16 1.382 . S
C14 H18 0.939 1_554 S
H15 C10 0.949 . S
C16 C11 1.399 . S
C16 C14 1.382 . S
C16 H17 0.952 . S
H17 C16 0.952 . S
H18 C14 0.939 1_556 S
H19 C20 0.949 . S
C20 H19 0.949 . S
C20 C21 1.395 . S
C20 C22 1.391 . S
C21 C20 1.395 . S
C21 C24 1.390 . S
C22 C20 1.391 . S
C22 C26 1.387 . S
C22 C27 1.491 . S
H23 C24 0.950 . S
C24 C21 1.390 . S
C24 H23 0.950 . S
C24 C25 1.378 . S
C25 C24 1.378 . S
C25 C26 1.409 . S
C26 C22 1.387 . S
C26 C25 1.409 . S
C26 H28 0.951 . S
C27 C22 1.491 . S
C27 C29 1.382 . S
C27 C31 1.404 . S
H28 C26 0.951 . S
C29 C27 1.382 . S
C29 C30 1.390 . S
C29 H34 0.949 . S
C30 C29 1.390 . S
C30 C35 1.399 . S
C31 C27 1.404 . S
C31 H32 0.950 . S
C31 C33 1.375 . S
H32 C31 0.950 . S
C33 C31 1.375 . S
C33 C35 1.382 . S
C33 H37 0.950 . S
H34 C29 0.949 . S
C35 C30 1.399 . S
C35 C33 1.382 . S
C35 H36 0.952 . S
H36 C35 0.952 . S
H37 C33 0.950 . S
H38 C39 0.949 . S
C39 H38 0.949 . S
C39 C40 1.395 . S
C39 C41 1.391 1_554 S
C40 C39 1.395 . S
C40 C43 1.395 . S
C41 C39 1.391 1_556 S
C41 C45 1.387 . S
C41 C46 1.491 . S
H42 C43 0.950 . S
C43 C40 1.395 . S
C43 H42 0.950 . S
C43 C44 1.372 1_554 S
C44 C43 1.372 1_556 S
C44 C45 1.409 . S
C45 C41 1.387 . S
C45 C44 1.409 . S
C45 H47 0.951 . S
C46 C41 1.491 . S
C46 C48 1.392 . S
C46 C50 1.404 . S
H47 C45 0.951 . S
C48 C46 1.392 . S
C48 C49 1.391 . S
C48 H53 0.938 1_556 S
C49 C48 1.391 . S
C49 C54 1.399 . S
C50 C46 1.404 . S
C50 H51 0.950 . S
C50 C52 1.375 . S
H51 C50 0.950 . S
C52 C50 1.375 . S
C52 C54 1.382 . S
C52 H56 0.950 . S
H53 C48 0.938 1_554 S
C54 C49 1.399 . S
C54 C52 1.382 . S
C54 H55 0.952 . S
H55 C54 0.952 . S
H56 C52 0.950 . S
H57 C58 0.949 . S
C58 H57 0.949 . S
C58 C59 1.395 . S
C58 C60 1.391 . S
C59 C58 1.395 . S
C59 C62 1.390 . S
C60 C58 1.391 . S
C60 C64 1.387 . S
C60 C65 1.491 . S
H61 C62 0.950 . S
C62 C59 1.390 . S
C62 H61 0.950 . S
C62 C63 1.378 . S
C63 C62 1.378 . S
C63 C64 1.409 . S
C64 C60 1.387 . S
C64 C63 1.409 . S
C64 H66 0.951 . S
C65 C60 1.491 . S
C65 C67 1.382 . S
C65 C69 1.404 . S
H66 C64 0.951 . S
C67 C65 1.382 . S
C67 C68 1.390 . S
C67 H72 0.949 . S
C68 C67 1.390 . S
C68 C73 1.399 . S
C69 C65 1.404 . S
C69 H70 0.950 . S
C69 C71 1.375 . S
H70 C69 0.950 . S
C71 C69 1.375 . S
C71 C73 1.382 . S
C71 H75 0.950 . S
H72 C67 0.949 . S
C73 C68 1.399 . S
C73 C71 1.382 . S
C73 H74 0.952 . S
H74 C73 0.952 . S
H75 C71 0.950 . S
O76 Mg77 1.990 . S
O76 C90 1.253 1_455 S
Mg77 O76 1.990 . S
Mg77 O80 2.180 . S
Mg77 O81 2.117 . S
Mg77 O95 2.030 . S
O78 Mg79 2.072 1_655 S
O78 C90 1.260 . S
Mg79 O78 2.072 1_455 S
Mg79 O80 2.099 . S
Mg79 O82 2.079 1_545 S
Mg79 O83 2.072 1_455 S
Mg79 O85 2.099 1_445 S
Mg79 O96 2.079 1_545 S
O80 Mg77 2.180 . S
O80 Mg79 2.099 . S
O80 C91 1.279 . S
O81 Mg77 2.117 . S
O81 C91 1.250 . S
O82 Mg79 2.079 1_565 S
O82 C92 1.264 . S
O83 Mg79 2.072 1_655 S
O83 C93 1.260 . S
Mg84 O85 2.180 . S
Mg84 O86 2.030 1_655 S
Mg84 O87 1.990 1_565 S
Mg84 O88 2.117 . S
O85 Mg79 2.099 1_665 S
O85 Mg84 2.180 . S
O85 C94 1.279 . S
O86 Mg84 2.030 1_455 S
O86 C92 1.248 . S
O87 Mg84 1.990 1_545 S
O87 C93 1.253 . S
O88 Mg84 2.117 . S
O88 C94 1.250 . S
C89 O95 1.248 1_565 S
C89 O96 1.264 . S
C90 O76 1.253 1_655 S
C90 O78 1.260 . S
C91 O80 1.279 . S
C91 O81 1.250 . S
C92 O82 1.264 . S
C92 O86 1.248 . S
C93 O83 1.260 . S
C93 O87 1.253 . S
C94 O85 1.279 . S
C94 O88 1.250 . S
O95 Mg77 2.030 . S
O95 C89 1.248 1_545 S
O96 Mg79 2.079 1_565 S
O96 C89 1.264 . S
O97 Mg98 1.990 . S
O97 C111 1.253 . S
Mg98 O97 1.990 . S
Mg98 O101 2.180 . S
Mg98 O102 2.117 . S
Mg98 O116 2.030 . S
O99 Mg100 2.072 . S
O99 C111 1.260 . S
Mg100 O99 2.072 . S
Mg100 O101 2.099 . S
Mg100 O103 2.079 1_554 S
Mg100 O104 2.072 1_554 S
Mg100 O106 2.099 . S
Mg100 O117 2.079 . S
O101 Mg98 2.180 . S
O101 Mg100 2.099 . S
O101 C112 1.279 . S
O102 Mg98 2.117 . S
O102 C112 1.250 . S
O103 Mg100 2.079 1_556 S
O103 C113 1.264 . S
O104 Mg100 2.072 1_556 S
O104 C114 1.260 . S
Mg105 O106 2.180 1_556 S
Mg105 O107 2.030 . S
Mg105 O108 1.990 . S
Mg105 O109 2.117 . S
O106 Mg100 2.099 . S
O106 Mg105 2.180 1_554 S
O106 C115 1.279 . S
O107 Mg105 2.030 . S
O107 C113 1.248 . S
O108 Mg105 1.990 . S
O108 C114 1.253 . S
O109 Mg105 2.117 . S
O109 C115 1.250 1_556 S
C110 O116 1.248 . S
C110 O117 1.264 . S
C111 O97 1.253 . S
C111 O99 1.260 . S
C112 O101 1.279 . S
C112 O102 1.250 . S
C113 O103 1.264 . S
C113 O107 1.248 . S
C114 O104 1.260 . S
C114 O108 1.253 . S
C115 O106 1.279 . S
C115 O109 1.250 1_554 S
O116 Mg98 2.030 . S
O116 C110 1.248 . S
O117 Mg100 2.079 . S
O117 C110 1.264 . S
C118 C119 1.386 . S
C118 C120 1.383 . S
C118 H134 0.951 . S
C119 C118 1.386 . S
C119 C123 1.383 . S
C120 C118 1.383 . S
C120 C121 1.402 . S
C120 H135 0.951 . S
C121 C120 1.402 . S
C121 C122 1.375 . S
C121 C124 1.481 . S
C122 C121 1.375 . S
C122 C123 1.367 . S
C122 H136 0.951 . S
C123 C119 1.383 . S
C123 C122 1.367 . S
C123 H137 0.950 . S
C124 C121 1.481 . S
C124 C125 1.297 . S
C124 H138 0.950 . S
C125 C124 1.297 . S
C125 C126 1.479 . S
C125 H139 0.950 . S
C126 C125 1.479 . S
C126 C127 1.375 . S
C126 C132 1.404 . S
C127 C126 1.375 . S
C127 C128 1.369 . S
C127 H140 0.950 . S
C128 C127 1.369 . S
C128 C129 1.392 . S
C128 H141 0.951 . S
C129 C128 1.392 . S
C129 C131 1.384 . S
H130 C132 0.949 . S
C131 C129 1.384 . S
C131 C132 1.385 . S
C131 H133 0.950 . S
C132 C126 1.404 . S
C132 H130 0.949 . S
C132 C131 1.385 . S
H133 C131 0.950 . S
H134 C118 0.951 . S
H135 C120 0.951 . S
H136 C122 0.951 . S
H137 C123 0.950 . S
H138 C124 0.950 . S
H139 C125 0.950 . S
H140 C127 0.950 . S
H141 C128 0.951 . S
C142 C143 1.386 . S
C142 C144 1.383 . S
C142 H158 0.951 . S
C143 C142 1.386 . S
C143 C147 1.383 . S
C144 C142 1.383 . S
C144 C145 1.402 . S
C144 H159 0.951 . S
C145 C144 1.402 . S
C145 C146 1.375 . S
C145 C148 1.481 . S
C146 C145 1.375 . S
C146 C147 1.367 . S
C146 H160 0.951 . S
C147 C143 1.383 . S
C147 C146 1.367 . S
C147 H161 0.950 . S
C148 C145 1.481 . S
C148 C149 1.297 . S
C148 H162 0.950 . S
C149 C148 1.297 . S
C149 C150 1.479 . S
C149 H163 0.950 . S
C150 C149 1.479 . S
C150 C151 1.375 . S
C150 C156 1.404 . S
C151 C150 1.375 . S
C151 C152 1.369 . S
C151 H164 0.950 . S
C152 C151 1.369 . S
C152 C153 1.392 . S
C152 H165 0.951 . S
C153 C152 1.392 . S
C153 C155 1.384 . S
H154 C156 0.949 . S
C155 C153 1.384 . S
C155 C156 1.385 . S
C155 H157 0.950 . S
C156 C150 1.404 . S
C156 H154 0.949 . S
C156 C155 1.385 . S
H157 C155 0.950 . S
H158 C142 0.951 . S
H159 C144 0.951 . S
H160 C146 0.951 . S
H161 C147 0.950 . S
H162 C148 0.950 . S
H163 C149 0.950 . S
H164 C151 0.950 . S
H165 C152 0.951 . S
C166 C167 1.386 . S
C166 C168 1.383 . S
C166 H182 0.951 . S
C167 C166 1.386 . S
C167 C171 1.383 . S
C168 C166 1.383 . S
C168 C169 1.402 . S
C168 H183 0.951 . S
C169 C168 1.402 . S
C169 C170 1.375 . S
C169 C172 1.481 . S
C170 C169 1.375 . S
C170 C171 1.367 . S
C170 H184 0.951 . S
C171 C167 1.383 . S
C171 C170 1.367 . S
C171 H185 0.950 . S
C172 C169 1.481 . S
C172 C173 1.297 . S
C172 H186 0.950 . S
C173 C172 1.297 . S
C173 C174 1.479 . S
C173 H187 0.950 . S
C174 C173 1.479 . S
C174 C175 1.375 . S
C174 C180 1.404 . S
C175 C174 1.375 . S
C175 C176 1.369 . S
C175 H188 0.950 . S
C176 C175 1.369 . S
C176 C177 1.392 . S
C176 H189 0.951 . S
C177 C176 1.392 . S
C177 C179 1.384 . S
H178 C180 0.949 . S
C179 C177 1.384 . S
C179 C180 1.385 . S
C179 H181 0.950 . S
C180 C174 1.404 . S
C180 H178 0.949 . S
C180 C179 1.385 . S
H181 C179 0.950 . S
H182 C166 0.951 . S
H183 C168 0.951 . S
H184 C170 0.951 . S
H185 C171 0.950 . S
H186 C172 0.950 . S
H187 C173 0.950 . S
H188 C175 0.950 . S
H189 C176 0.951 . S
C190 C191 1.386 . S
C190 C192 1.383 . S
C190 H206 0.951 . S
C191 C190 1.386 . S
C191 C195 1.383 1_554 S
C192 C190 1.383 . S
C192 C193 1.402 . S
C192 H207 0.951 . S
C193 C192 1.402 . S
C193 C194 1.381 . S
C193 C196 1.481 . S
C194 C193 1.381 . S
C194 C195 1.365 1_554 S
C194 H208 0.947 1_554 S
C195 C191 1.383 1_556 S
C195 C194 1.365 1_556 S
C195 H209 0.950 . S
C196 C193 1.481 . S
C196 C197 1.297 . S
C196 H210 0.950 . S
C197 C196 1.297 . S
C197 C198 1.479 . S
C197 H211 0.950 . S
C198 C197 1.479 . S
C198 C199 1.375 . S
C198 C204 1.404 . S
C199 C198 1.375 . S
C199 C200 1.369 . S
C199 H212 0.950 . S
C200 C199 1.369 . S
C200 C201 1.392 . S
C200 H213 0.951 . S
C201 C200 1.392 . S
C201 C203 1.384 . S
H202 C204 0.949 . S
C203 C201 1.384 . S
C203 C204 1.385 . S
C203 H205 0.950 . S
C204 C198 1.404 . S
C204 H202 0.949 . S
C204 C203 1.385 . S
H205 C203 0.950 . S
H206 C190 0.951 . S
H207 C192 0.951 . S
H208 C194 0.947 1_556 S
H209 C195 0.950 . S
H210 C196 0.950 . S
H211 C197 0.950 . S
H212 C199 0.950 . S
H213 C200 0.951 . S
C214 C215 1.386 . S
C214 C216 1.383 . S
C214 H230 0.951 . S
C215 C214 1.386 . S
C215 C219 1.383 . S
C216 C214 1.383 . S
C216 C217 1.402 . S
C216 H231 0.951 . S
C217 C216 1.402 . S
C217 C218 1.375 . S
C217 C220 1.481 . S
C218 C217 1.375 . S
C218 C219 1.367 . S
C218 H232 0.951 . S
C219 C215 1.383 . S
C219 C218 1.367 . S
C219 H233 0.950 . S
C220 C217 1.481 . S
C220 C221 1.297 . S
C220 H234 0.950 . S
C221 C220 1.297 . S
C221 C222 1.479 . S
C221 H235 0.950 . S
C222 C221 1.479 . S
C222 C223 1.375 . S
C222 C228 1.404 . S
C223 C222 1.375 . S
C223 C224 1.369 . S
C223 H236 0.950 . S
C224 C223 1.369 . S
C224 C225 1.392 . S
C224 H237 0.951 . S
C225 C224 1.392 . S
C225 C227 1.384 . S
H226 C228 0.949 . S
C227 C225 1.384 . S
C227 C228 1.385 . S
C227 H229 0.950 . S
C228 C222 1.404 . S
C228 H226 0.949 . S
C228 C227 1.385 . S
H229 C227 0.950 . S
H230 C214 0.951 . S
H231 C216 0.951 . S
H232 C218 0.951 . S
H233 C219 0.950 . S
H234 C220 0.950 . S
H235 C221 0.950 . S
H236 C223 0.950 . S
H237 C224 0.951 . S
C238 C239 1.386 . S
C238 C240 1.383 . S
C238 H254 0.951 . S
C239 C238 1.386 . S
C239 C243 1.383 . S
C240 C238 1.383 . S
C240 C241 1.402 . S
C240 H255 0.951 . S
C241 C240 1.402 . S
C241 C242 1.375 . S
C241 C244 1.481 . S
C242 C241 1.375 . S
C242 C243 1.367 . S
C242 H256 0.951 . S
C243 C239 1.383 . S
C243 C242 1.367 . S
C243 H257 0.950 . S
C244 C241 1.481 . S
C244 C245 1.297 . S
C244 H258 0.950 . S
C245 C244 1.297 . S
C245 C246 1.479 . S
C245 H259 0.950 . S
C246 C245 1.479 . S
C246 C247 1.375 . S
C246 C252 1.404 . S
C247 C246 1.375 . S
C247 C248 1.369 . S
C247 H260 0.950 . S
C248 C247 1.369 . S
C248 C249 1.392 . S
C248 H261 0.951 . S
C249 C248 1.392 . S
C249 C251 1.384 . S
H250 C252 0.949 . S
C251 C249 1.384 . S
C251 C252 1.385 . S
C251 H253 0.950 . S
C252 C246 1.404 . S
C252 H250 0.949 . S
C252 C251 1.385 . S
H253 C251 0.950 . S
H254 C238 0.951 . S
H255 C240 0.951 . S
H256 C242 0.951 . S
H257 C243 0.950 . S
H258 C244 0.950 . S
H259 C245 0.950 . S
H260 C247 0.950 . S
H261 C248 0.951 . S
C262 C263 1.386 . S
C262 C264 1.383 . S
C262 H278 0.951 . S
C263 C262 1.386 . S
C263 C267 1.383 . S
C264 C262 1.383 . S
C264 C265 1.402 . S
C264 H279 0.951 . S
C265 C264 1.402 . S
C265 C266 1.375 . S
C265 C268 1.481 . S
C266 C265 1.375 . S
C266 C267 1.367 . S
C266 H280 0.951 . S
C267 C263 1.383 . S
C267 C266 1.367 . S
C267 H281 0.950 . S
C268 C265 1.481 . S
C268 C269 1.297 . S
C268 H282 0.950 . S
C269 C268 1.297 . S
C269 C270 1.479 . S
C269 H283 0.950 . S
C270 C269 1.479 . S
C270 C271 1.375 . S
C270 C276 1.404 . S
C271 C270 1.375 . S
C271 C272 1.369 . S
C271 H284 0.950 . S
C272 C271 1.369 . S
C272 C273 1.392 . S
C272 H285 0.951 . S
C273 C272 1.392 . S
C273 C275 1.384 . S
H274 C276 0.949 . S
C275 C273 1.384 . S
C275 C276 1.385 . S
C275 H277 0.950 . S
C276 C270 1.404 . S
C276 H274 0.949 . S
C276 C275 1.385 . S
H277 C275 0.950 . S
H278 C262 0.951 . S
H279 C264 0.951 . S
H280 C266 0.951 . S
H281 C267 0.950 . S
H282 C268 0.950 . S
H283 C269 0.950 . S
H284 C271 0.950 . S
H285 C272 0.951 . S
C286 C287 1.386 . S
C286 C288 1.383 . S
C286 H302 0.951 . S
C287 C286 1.386 . S
C287 C291 1.383 . S
C288 C286 1.383 . S
C288 C289 1.402 . S
C288 H303 0.951 . S
C289 C288 1.402 . S
C289 C290 1.375 . S
C289 C292 1.481 . S
C290 C289 1.375 . S
C290 C291 1.367 . S
C290 H304 0.951 . S
C291 C287 1.383 . S
C291 C290 1.367 . S
C291 H305 0.950 . S
C292 C289 1.481 . S
C292 C293 1.297 . S
C292 H306 0.950 . S
C293 C292 1.297 . S
C293 C294 1.479 . S
C293 H307 0.950 . S
C294 C293 1.479 . S
C294 C295 1.375 . S
C294 C300 1.404 . S
C295 C294 1.375 . S
C295 C296 1.369 . S
C295 H308 0.950 . S
C296 C295 1.369 . S
C296 C297 1.392 . S
C296 H309 0.951 . S
C297 C296 1.392 . S
C297 C299 1.384 . S
H298 C300 0.949 . S
C299 C297 1.384 . S
C299 C300 1.385 . S
C299 H301 0.950 . S
C300 C294 1.404 . S
C300 H298 0.949 . S
C300 C299 1.385 . S
H301 C299 0.950 . S
H302 C286 0.951 . S
H303 C288 0.951 . S
H304 C290 0.951 . S
H305 C291 0.950 . S
H306 C292 0.950 . S
H307 C293 0.950 . S
H308 C295 0.950 . S
H309 C296 0.951 . S
C310 C311 1.386 . S
C310 C312 1.383 . S
C310 H326 0.951 . S
C311 C310 1.386 . S
C311 C315 1.383 . S
C312 C310 1.383 . S
C312 C313 1.402 . S
C312 H327 0.951 . S
C313 C312 1.402 . S
C313 C314 1.375 . S
C313 C316 1.481 . S
C314 C313 1.375 . S
C314 C315 1.367 . S
C314 H328 0.951 . S
C315 C311 1.383 . S
C315 C314 1.367 . S
C315 H329 0.950 . S
C316 C313 1.481 . S
C316 C317 1.297 . S
C316 H330 0.950 . S
C317 C316 1.297 . S
C317 C318 1.479 . S
C317 H331 0.950 . S
C318 C317 1.479 . S
C318 C319 1.375 . S
C318 C324 1.404 . S
C319 C318 1.375 . S
C319 C320 1.369 . S
C319 H332 0.950 . S
C320 C319 1.369 . S
C320 C321 1.392 . S
C320 H333 0.951 . S
C321 C320 1.392 . S
C321 C323 1.384 . S
H322 C324 0.949 . S
C323 C321 1.384 . S
C323 C324 1.385 . S
C323 H325 0.950 . S
C324 C318 1.404 . S
C324 H322 0.949 . S
C324 C323 1.385 . S
H325 C323 0.950 . S
H326 C310 0.951 . S
H327 C312 0.951 . S
H328 C314 0.951 . S
H329 C315 0.950 . S
H330 C316 0.950 . S
H331 C317 0.950 . S
H332 C319 0.950 . S
H333 C320 0.951 . S
C334 C335 1.386 . S
C334 C336 1.383 . S
C334 H350 0.951 . S
C335 C334 1.386 . S
C335 C339 1.383 . S
C336 C334 1.383 . S
C336 C337 1.402 . S
C336 H351 0.951 . S
C337 C336 1.402 . S
C337 C338 1.375 . S
C337 C340 1.481 . S
C338 C337 1.375 . S
C338 C339 1.367 . S
C338 H352 0.951 . S
C339 C335 1.383 . S
C339 C338 1.367 . S
C339 H353 0.950 . S
C340 C337 1.481 . S
C340 C341 1.297 . S
C340 H354 0.950 . S
C341 C340 1.297 . S
C341 C342 1.479 . S
C341 H355 0.950 . S
C342 C341 1.479 . S
C342 C343 1.375 . S
C342 C348 1.404 . S
C343 C342 1.375 . S
C343 C344 1.369 . S
C343 H356 0.950 . S
C344 C343 1.369 . S
C344 C345 1.392 . S
C344 H357 0.951 . S
C345 C344 1.392 . S
C345 C347 1.384 . S
H346 C348 0.949 . S
C347 C345 1.384 . S
C347 C348 1.385 . S
C347 H349 0.950 . S
C348 C342 1.404 . S
C348 H346 0.949 . S
C348 C347 1.385 . S
H349 C347 0.950 . S
H350 C334 0.951 . S
H351 C336 0.951 . S
H352 C338 0.951 . S
H353 C339 0.950 . S
H354 C340 0.950 . S
H355 C341 0.950 . S
H356 C343 0.950 . S
H357 C344 0.951 . S
C358 C359 1.386 . S
C358 C360 1.383 . S
C358 H374 0.951 . S
C359 C358 1.386 . S
C359 C363 1.383 . S
C360 C358 1.383 . S
C360 C361 1.402 . S
C360 H375 0.951 . S
C361 C360 1.402 . S
C361 C362 1.375 . S
C361 C364 1.481 . S
C362 C361 1.375 . S
C362 C363 1.367 . S
C362 H376 0.951 . S
C363 C359 1.383 . S
C363 C362 1.367 . S
C363 H377 0.950 . S
C364 C361 1.481 . S
C364 C365 1.297 . S
C364 H378 0.950 . S
C365 C364 1.297 . S
C365 C366 1.479 . S
C365 H379 0.950 . S
C366 C365 1.479 . S
C366 C367 1.375 . S
C366 C372 1.404 . S
C367 C366 1.375 . S
C367 C368 1.369 . S
C367 H380 0.950 . S
C368 C367 1.369 . S
C368 C369 1.392 . S
C368 H381 0.951 . S
C369 C368 1.392 . S
C369 C371 1.384 . S
H370 C372 0.949 . S
C371 C369 1.384 . S
C371 C372 1.385 . S
C371 H373 0.950 . S
C372 C366 1.404 . S
C372 H370 0.949 . S
C372 C371 1.385 . S
H373 C371 0.950 . S
H374 C358 0.951 . S
H375 C360 0.951 . S
H376 C362 0.951 . S
H377 C363 0.950 . S
H378 C364 0.950 . S
H379 C365 0.950 . S
H380 C367 0.950 . S
H381 C368 0.951 . S
C382 C383 1.386 . S
C382 C384 1.383 . S
C382 H398 0.951 1_556 S
C383 C382 1.386 . S
C383 C387 1.383 . S
C384 C382 1.383 . S
C384 C385 1.402 . S
C384 H399 0.951 . S
C385 C384 1.402 . S
C385 C386 1.375 . S
C385 C388 1.481 . S
C386 C385 1.375 . S
C386 C387 1.367 . S
C386 H400 0.951 . S
C387 C383 1.383 . S
C387 C386 1.367 . S
C387 H401 0.950 . S
C388 C385 1.481 . S
C388 C389 1.297 . S
C388 H402 0.950 . S
C389 C388 1.297 . S
C389 C390 1.479 . S
C389 H403 0.950 . S
C390 C389 1.479 . S
C390 C391 1.375 . S
C390 C396 1.404 . S
C391 C390 1.375 . S
C391 C392 1.369 . S
C391 H404 0.950 . S
C392 C391 1.369 . S
C392 C393 1.392 . S
C392 H405 0.951 . S
C393 C392 1.392 . S
C393 C395 1.384 . S
H394 C396 0.949 . S
C395 C393 1.384 . S
C395 C396 1.385 . S
C395 H397 0.950 . S
C396 C390 1.404 . S
C396 H394 0.949 . S
C396 C395 1.385 . S
H397 C395 0.950 . S
H398 C382 0.951 1_554 S
H399 C384 0.951 . S
H400 C386 0.951 . S
H401 C387 0.950 . S
H402 C388 0.950 . S
H403 C389 0.950 . S
H404 C391 0.950 . S
H405 C392 0.951 . S
C129 C91 1.215 . S
C119 C68 1.414 . S
C143 C11 1.331 . S
C153 C115 1.259 . S
C167 C30 1.547 . S
C177 C94 1.458 . S
C191 C49 1.572 1_554 S
C201 C112 1.347 . S
C225 C92 1.517 . S
C215 C2 1.568 . S
C249 C114 1.552 . S
C239 C25 1.674 . S
C263 C40 1.622 . S
C273 C93 1.574 . S
C287 C59 1.567 . S
C297 C113 1.468 . S
C321 C111 1.502 . S
C311 C21 1.542 . S
C345 C90 1.490 . S
C335 C44 1.574 . S
C369 C110 1.472 . S
C359 C63 1.491 . S
C383 C6 1.488 1_556 S
C393 C89 1.381 . S
