# Generated by pormake.
# Topology nom, (4,4)-cn, num edge types: 1
# Building blocks:
#     Node 0, Type 0, BuildingBlock: NAHDIM_clean_linker_0, # of connection points: 4
#     Node 1, Type 0, BuildingBlock: NAHDIM_clean_linker_0, # of connection points: 4
#     Node 2, Type 0, BuildingBlock: NAHDIM_clean_linker_0, # of connection points: 4
#     Node 3, Type 0, BuildingBlock: NAHDIM_clean_linker_0, # of connection points: 4
#     Node 4, Type 0, BuildingBlock: NAHDIM_clean_linker_0, # of connection points: 4
#     Node 5, Type 0, BuildingBlock: NAHDIM_clean_linker_0, # of connection points: 4
#     Node 6, Type 1, BuildingBlock: CEKHIL_clean_sbu_0, # of connection points: 4
#     Node 7, Type 1, BuildingBlock: CEKHIL_clean_sbu_0, # of connection points: 4
#     Node 8, Type 1, BuildingBlock: CEKHIL_clean_sbu_0, # of connection points: 4
#     Node 9, Type 1, BuildingBlock: CEKHIL_clean_sbu_0, # of connection points: 4
#     Node 10, Type 1, BuildingBlock: CEKHIL_clean_sbu_0, # of connection points: 4
#     Node 11, Type 1, BuildingBlock: CEKHIL_clean_sbu_0, # of connection points: 4
#     Edge 12, Type (0, 1), BuildingBlock: XIVTED_clean_linker_0, # of connection points: 2
#     Edge 13, Type (0, 1), BuildingBlock: XIVTED_clean_linker_0, # of connection points: 2
#     Edge 14, Type (0, 1), BuildingBlock: XIVTED_clean_linker_0, # of connection points: 2
#     Edge 15, Type (0, 1), BuildingBlock: XIVTED_clean_linker_0, # of connection points: 2
#     Edge 16, Type (0, 1), BuildingBlock: XIVTED_clean_linker_0, # of connection points: 2
#     Edge 17, Type (0, 1), BuildingBlock: XIVTED_clean_linker_0, # of connection points: 2
#     Edge 18, Type (0, 1), BuildingBlock: XIVTED_clean_linker_0, # of connection points: 2
#     Edge 19, Type (0, 1), BuildingBlock: XIVTED_clean_linker_0, # of connection points: 2
#     Edge 20, Type (0, 1), BuildingBlock: XIVTED_clean_linker_0, # of connection points: 2
#     Edge 21, Type (0, 1), BuildingBlock: XIVTED_clean_linker_0, # of connection points: 2
#     Edge 22, Type (0, 1), BuildingBlock: XIVTED_clean_linker_0, # of connection points: 2
#     Edge 23, Type (0, 1), BuildingBlock: XIVTED_clean_linker_0, # of connection points: 2
#     Edge 24, Type (0, 1), BuildingBlock: XIVTED_clean_linker_0, # of connection points: 2
#     Edge 25, Type (0, 1), BuildingBlock: XIVTED_clean_linker_0, # of connection points: 2
#     Edge 26, Type (0, 1), BuildingBlock: XIVTED_clean_linker_0, # of connection points: 2
#     Edge 27, Type (0, 1), BuildingBlock: XIVTED_clean_linker_0, # of connection points: 2
#     Edge 28, Type (0, 1), BuildingBlock: XIVTED_clean_linker_0, # of connection points: 2
#     Edge 29, Type (0, 1), BuildingBlock: XIVTED_clean_linker_0, # of connection points: 2
#     Edge 30, Type (0, 1), BuildingBlock: XIVTED_clean_linker_0, # of connection points: 2
#     Edge 31, Type (0, 1), BuildingBlock: XIVTED_clean_linker_0, # of connection points: 2
#     Edge 32, Type (0, 1), BuildingBlock: XIVTED_clean_linker_0, # of connection points: 2
#     Edge 33, Type (0, 1), BuildingBlock: XIVTED_clean_linker_0, # of connection points: 2
#     Edge 34, Type (0, 1), BuildingBlock: XIVTED_clean_linker_0, # of connection points: 2
#     Edge 35, Type (0, 1), BuildingBlock: XIVTED_clean_linker_0, # of connection points: 2
# Relax obj value: 0.044
# Max RMSD: 0.128
# Mean RMSD: 0.097
data_MOF--net-nom--node1-CEKHIL_clean_sbu_0--node2-NAHDIM_clean_linker_0--edge1-XIVTED_clean_linker_0
_symmetry_space_group_name_H-M    P1
_symmetry_Int_Tables_number       1
_symmetry_cell_setting            triclinic
loop_
_symmetry_equiv_pos_as_xyz
'x, y, z'
_cell_length_a     58.655536
_cell_length_b     57.958568
_cell_length_c     70.405773
_cell_angle_alpha  90.098531
_cell_angle_beta   90.096575
_cell_angle_gamma 121.1517
loop_
_atom_site_label
_atom_site_type_symbol
_atom_site_fract_x
_atom_site_fract_y
_atom_site_fract_z
_atom_type_partial_charge
C0 C 0.15251 0.64109 0.25076 0.0
C1 C 0.16669 0.62629 0.25699 0.0
C2 C 0.13581 0.5979 0.28096 0.0
C3 C 0.12789 0.57084 0.27845 0.0
C4 C 0.1019 0.55028 0.28304 0.0
C5 C 0.08349 0.55721 0.28985 0.0
C6 C 0.09172 0.58472 0.29252 0.0
C7 C 0.11806 0.6047 0.28847 0.0
C8 C 0.094 0.52126 0.28029 0.0
C9 C 0.07258 0.59319 0.29904 0.0
C10 C 0.97701 0.50073 0.18389 0.0
C11 C 0.95114 0.48748 0.19538 0.0
C12 C 0.96637 0.48177 0.22666 0.0
C13 C 0.97625 0.5082 0.23333 0.0
C14 C 0.99029 0.51695 0.25053 0.0
C15 C 0.9952 0.4992 0.26107 0.0
C16 C 0.98542 0.47265 0.2544 0.0
C17 C 0.97076 0.46418 0.23741 0.0
C18 C -3e-05 0.54525 0.25742 0.0
C19 C 0.99077 0.45337 0.26508 0.0
C20 C 0.88085 0.45951 0.35425 0.0
C21 C 0.89906 0.48733 0.35264 0.0
C22 C 0.92655 0.49757 0.35253 0.0
C23 C 0.93606 0.47966 0.35423 0.0
C24 C 0.91787 0.45182 0.3569 0.0
C25 C 0.89041 0.44211 0.35702 0.0
C26 C 0.94547 0.52751 0.35014 0.0
C27 C 0.92744 0.4323 0.35896 0.0
C28 C 0.12329 0.56778 0.41347 0.0
C29 C 0.1038 0.55178 0.4295 0.0
C30 C 0.0622 0.54182 0.41408 0.0
C31 C 0.04954 0.55538 0.40809 0.0
C32 C 0.03151 0.54566 0.39281 0.0
C33 C 0.02549 0.52133 0.38374 0.0
C34 C 0.03689 0.50658 0.39058 0.0
C35 C 0.05534 0.5171 0.40556 0.0
C36 C 0.01958 0.56182 0.38598 0.0
C37 C 0.03013 0.48004 0.38171 0.0
C38 C 0.0552 0.53606 0.29299 0.0
C39 C 0.03885 0.52525 0.27701 0.0
C40 C 0.01124 0.50877 0.27877 0.0
C41 C -0.00057 0.50319 0.29696 0.0
C42 C 0.97162 0.4885 0.29921 0.0
C43 C 0.96024 0.48403 0.31716 0.0
C44 C 0.97625 0.4937 0.33357 0.0
C45 C 0.96489 0.4901 0.35183 0.0
C46 C 0.98128 0.49892 0.36792 0.0
C47 C 0.009 0.51234 0.36622 0.0
C48 C 0.02079 0.51754 0.348 0.0
C49 C 0.04864 0.53251 0.3457 0.0
C50 C 0.05999 0.53824 0.32771 0.0
C51 C 0.04395 0.52911 0.31133 0.0
C52 C 0.01591 0.51313 0.31331 0.0
C53 C 0.00431 0.50788 0.33165 0.0
C54 C 0.83848 0.44608 0.32149 0.0
C55 C 0.84104 0.45753 0.34154 0.0
O56 O 0.16037 0.6177 0.27563 0.0
O57 O 0.08104 0.55334 0.42793 0.0
O58 O 0.85407 0.4488 0.35329 0.0
O59 O 0.95264 0.47238 0.21005 0.0
H60 H 0.16011 0.60843 0.24759 0.0
H61 H 0.13058 0.62711 0.25085 0.0
H62 H 0.15766 0.65826 0.26048 0.0
H63 H 0.15828 0.64886 0.23606 0.0
H64 H 0.14202 0.56592 0.27274 0.0
H65 H 0.12464 0.62581 0.29038 0.0
H66 H 0.08059 0.5128 0.26778 0.0
H67 H 0.11155 0.51914 0.2779 0.0
H68 H 0.08291 0.50911 0.29288 0.0
H69 H 0.08091 0.61517 0.2972 0.0
H70 H 0.05352 0.58209 0.29104 0.0
H71 H 0.06807 0.58836 0.31431 0.0
H72 H 0.94783 0.50335 0.20116 0.0
H73 H 0.97577 0.51249 0.17191 0.0
H74 H 0.99408 0.51473 0.19306 0.0
H75 H 0.98088 0.4852 0.17814 0.0
H76 H 0.97312 0.52223 0.22536 0.0
H77 H 0.96309 0.44385 0.23219 0.0
H78 H 0.02203 0.55748 0.25646 0.0
H79 H 0.99161 0.55532 0.24893 0.0
H80 H 0.99449 0.54497 0.27255 0.0
H81 H 0.98352 0.43413 0.25726 0.0
H82 H 0.01248 0.46283 0.26772 0.0
H83 H 0.98076 0.44879 0.2791 0.0
H84 H 0.85234 0.47982 0.34034 0.0
H85 H 0.8921 0.50127 0.35158 0.0
H86 H 0.87622 0.42073 0.35862 0.0
H87 H 0.95619 0.53138 0.33645 0.0
H88 H 0.93503 0.53895 0.35031 0.0
H89 H 0.96061 0.53531 0.36167 0.0
H90 H 0.91084 0.41139 0.36171 0.0
H91 H 0.93783 0.43236 0.34577 0.0
H92 H 0.94204 0.4388 0.3708 0.0
H93 H 0.09851 0.53044 0.42861 0.0
H94 H 0.14182 0.56714 0.41494 0.0
H95 H 0.11418 0.55892 0.39947 0.0
H96 H 0.12849 0.58914 0.41376 0.0
H97 H 0.05467 0.57423 0.41495 0.0
H98 H 0.06419 0.50583 0.41048 0.0
H99 H 0.02367 0.56629 0.37061 0.0
H100 H 0.99763 0.54982 0.38779 0.0
H101 H 0.02752 0.58113 0.39385 0.0
H102 H 0.03741 0.46915 0.3904 0.0
H103 H 0.00824 0.46691 0.37982 0.0
H104 H 0.03939 0.48374 0.36744 0.0
H105 H 0.04762 0.53062 0.26295 0.0
H106 H 0.95832 0.48067 0.28709 0.0
H107 H 0.93871 0.47285 0.318 0.0
H108 H 0.9724 0.49589 0.38189 0.0
H109 H 0.06201 0.54036 0.35777 0.0
H110 H 0.08151 0.55005 0.32676 0.0
H111 H 0.82718 0.45214 0.31215 0.0
H112 H 0.85859 0.45407 0.31529 0.0
H113 H 0.82816 0.42372 0.32178 0.0
C114 C 0.37863 0.8843 0.55875 0.0
C115 C 0.39033 0.86799 0.55068 0.0
C116 C 0.41815 0.89839 0.5263 0.0
C117 C 0.44409 0.90354 0.5282 0.0
C118 C 0.46598 0.92888 0.52347 0.0
C119 C 0.46156 0.94943 0.51715 0.0
C120 C 0.43518 0.94401 0.51509 0.0
C121 C 0.41375 0.91824 0.51928 0.0
C122 C 0.49376 0.93379 0.52552 0.0
C123 C 0.42953 0.96556 0.50901 0.0
C124 C 0.53116 0.04384 0.62259 0.0
C125 C 0.54055 0.0714 0.61364 0.0
C126 C 0.54663 0.06311 0.58049 0.0
C127 C 0.52289 0.05938 0.57267 0.0
C128 C 0.5133 0.04622 0.55517 0.0
C129 C 0.52768 0.03651 0.54532 0.0
C130 C 0.55202 0.04098 0.55285 0.0
C131 C 0.56136 0.0546 0.57025 0.0
C132 C 0.48759 0.04238 0.54731 0.0
C133 C 0.5678 0.03082 0.54273 0.0
C134 C 0.598 0.15141 0.45286 0.0
C135 C 0.5712 0.14171 0.45719 0.0
C136 C 0.55226 0.11406 0.45621 0.0
C137 C 0.56054 0.09577 0.4514 0.0
C138 C 0.58727 0.10568 0.44602 0.0
C139 C 0.60559 0.13353 0.44652 0.0
C140 C 0.52364 0.10435 0.4611 0.0
C141 C 0.59675 0.08682 0.44062 0.0
C142 C 0.43448 0.90609 0.39476 0.0
C143 C 0.45773 0.92224 0.3811 0.0
C144 C 0.4766 0.9679 0.39313 0.0
C145 C 0.46584 0.98316 0.39941 0.0
C146 C 0.47781 0.0018 0.41433 0.0
C147 C 0.5014 0.00555 0.4228 0.0
C148 C 0.51334 0.9915 0.41559 0.0
C149 C 0.50077 0.97276 0.40083 0.0
C150 C 0.46474 0.01668 0.42156 0.0
C151 C 0.53896 0.99568 0.42388 0.0
C152 C 0.48437 0.97704 0.51377 0.0
C153 C 0.49688 0.99327 0.52963 0.0
C154 C 0.51643 0.02045 0.52768 0.0
C155 C 0.52363 0.03198 0.50938 0.0
C156 C 0.54254 0.05946 0.50689 0.0
C157 C 0.54893 0.0707 0.48884 0.0
C158 C 0.53647 0.05496 0.47255 0.0
C159 C 0.5421 0.06643 0.45417 0.0
C160 C 0.53013 0.05003 0.43824 0.0
C161 C 0.51238 0.0223 0.44019 0.0
C162 C 0.50575 0.01066 0.4585 0.0
C163 C 0.48729 0.98299 0.46101 0.0
C164 C 0.48055 0.97183 0.47908 0.0
C165 C 0.492 0.9879 0.49534 0.0
C166 C 0.51132 0.0156 0.49315 0.0
C167 C 0.5179 0.02707 0.47472 0.0
C168 C 0.64603 0.21481 0.47445 0.0
C169 C 0.6172 0.19516 0.46846 0.0
O170 O 0.39713 0.87454 0.5318 0.0
O171 O 0.46313 0.94849 0.37981 0.0
O172 O 0.61709 0.17778 0.45487 0.0
O173 O 0.55595 0.07485 0.59774 0.0
H174 H 0.40845 0.87282 0.55902 0.0
H175 H 0.39374 0.90619 0.55832 0.0
H176 H 0.36095 0.88047 0.55034 0.0
H177 H 0.37267 0.87888 0.57381 0.0
H178 H 0.4471 0.88778 0.53352 0.0
H179 H 0.39345 0.91377 0.51789 0.0
H180 H 0.50376 0.94732 0.53785 0.0
H181 H 0.49367 0.91478 0.52778 0.0
H182 H 0.50571 0.94399 0.51267 0.0
H183 H 0.40831 0.95924 0.51111 0.0
H184 H 0.4422 0.98449 0.5171 0.0
H185 H 0.43429 0.97004 0.49372 0.0
H186 H 0.52268 0.07226 0.6097 0.0
H187 H 0.51926 0.04115 0.63556 0.0
H188 H 0.51837 0.02754 0.61239 0.0
H189 H 0.54844 0.04184 0.62643 0.0
H190 H 0.51185 0.06692 0.57997 0.0
H191 H 0.57984 0.05789 0.57627 0.0
H192 H 0.47204 0.02062 0.54752 0.0
H193 H 0.48029 0.05359 0.55561 0.0
H194 H 0.49033 0.04918 0.5323 0.0
H195 H 0.58599 0.03529 0.55073 0.0
H196 H 0.55519 0.00868 0.54057 0.0
H197 H 0.57378 0.04026 0.52849 0.0
H198 H 0.60631 0.18359 0.48136 0.0
H199 H 0.56505 0.15561 0.4615 0.0
H200 H 0.62627 0.14138 0.44287 0.0
H201 H 0.51951 0.09629 0.47579 0.0
H202 H 0.51935 0.12089 0.46034 0.0
H203 H 0.50984 0.08784 0.45138 0.0
H204 H 0.61844 0.09774 0.43753 0.0
H205 H 0.5925 0.07229 0.4523 0.0
H206 H 0.58576 0.07502 0.42784 0.0
H207 H 0.47533 0.92202 0.38675 0.0
H208 H 0.42967 0.88489 0.39564 0.0
H209 H 0.43993 0.91507 0.40922 0.0
H210 H 0.41649 0.90624 0.38996 0.0
H211 H 0.4474 0.97957 0.39312 0.0
H212 H 0.50986 0.96194 0.39538 0.0
H213 H 0.45885 0.01123 0.43662 0.0
H214 H 0.47913 0.03875 0.42106 0.0
H215 H 0.44678 0.012 0.41316 0.0
H216 H 0.54719 0.98548 0.4154 0.0
H217 H 0.55409 0.01755 0.42472 0.0
H218 H 0.53529 0.98757 0.43856 0.0
H219 H 0.49075 0.98481 0.54375 0.0
H220 H 0.55251 0.07261 0.5189 0.0
H221 H 0.56371 0.09198 0.48786 0.0
H222 H 0.53482 0.0589 0.42417 0.0
H223 H 0.4776 0.96966 0.44904 0.0
H224 H 0.46613 0.95045 0.48016 0.0
H225 H 0.64685 0.22845 0.48589 0.0
H226 H 0.65511 0.20342 0.47997 0.0
H227 H 0.65795 0.22713 0.46215 0.0
C228 C 0.51536 0.37498 0.72393 0.0
C229 C 0.54445 0.38822 0.7174 0.0
C230 C 0.54337 0.41808 0.6942 0.0
C231 C 0.56217 0.44468 0.69918 0.0
C232 C 0.55756 0.46563 0.69509 0.0
C233 C 0.5333 0.4595 0.68629 0.0
C234 C 0.51437 0.43248 0.68118 0.0
C235 C 0.52004 0.4122 0.68479 0.0
C236 C 0.57834 0.49417 0.70048 0.0
C237 C 0.48775 0.42472 0.6725 0.0
C238 C 0.44911 0.53261 0.7913 0.0
C239 C 0.45221 0.51699 0.77599 0.0
C240 C 0.48322 0.52468 0.75014 0.0
C241 C 0.46546 0.50134 0.73984 0.0
C242 C 0.47323 0.4952 0.72264 0.0
C243 C 0.49924 0.5127 0.71564 0.0
C244 C 0.51706 0.5363 0.72589 0.0
C245 C 0.50876 0.54198 0.74302 0.0
C246 C 0.45376 0.46989 0.712 0.0
C247 C 0.54492 0.55535 0.71881 0.0
C248 C 0.43647 0.56227 0.62164 0.0
C249 C 0.42711 0.53456 0.62179 0.0
C250 C 0.44491 0.52527 0.62211 0.0
C251 C 0.47266 0.5441 0.62199 0.0
C252 C 0.48216 0.57197 0.62061 0.0
C253 C 0.46385 0.58071 0.62033 0.0
C254 C 0.43402 0.49532 0.62317 0.0
C255 C 0.51161 0.59245 0.62018 0.0
C256 C 0.58165 0.47023 0.56015 0.0
C257 C 0.57221 0.48144 0.54423 0.0
C258 C 0.53963 0.48721 0.56234 0.0
C259 C 0.51283 0.47373 0.56756 0.0
C260 C 0.50419 0.48253 0.58301 0.0
C261 C 0.52285 0.50588 0.59318 0.0
C262 C 0.54977 0.52052 0.5873 0.0
C263 C 0.55796 0.51092 0.57205 0.0
C264 C 0.47524 0.46652 0.58868 0.0
C265 C 0.57005 0.54595 0.59746 0.0
C266 C 0.52668 0.48077 0.68367 0.0
C267 C 0.51862 0.48897 0.69966 0.0
C268 C 0.50817 0.50573 0.69801 0.0
C269 C 0.50516 0.51425 0.67988 0.0
C270 C 0.49312 0.52966 0.6776 0.0
C271 C 0.48885 0.53656 0.65959 0.0
C272 C 0.49698 0.52881 0.6432 0.0
C273 C 0.49137 0.53439 0.62481 0.0
C274 C 0.5007 0.52747 0.60883 0.0
C275 C 0.51458 0.51393 0.61068 0.0
C276 C 0.51902 0.50677 0.62894 0.0
C277 C 0.5314 0.49165 0.6313 0.0
C278 C 0.53449 0.48362 0.64925 0.0
C279 C 0.52533 0.49039 0.66552 0.0
C280 C 0.51391 0.50663 0.66358 0.0
C281 C 0.51031 0.51441 0.64524 0.0
C282 C 0.40613 0.57301 0.65462 0.0
C283 C 0.39753 0.56155 0.6345 0.0
O284 O 0.54703 0.39765 0.69898 0.0
O285 O 0.54686 0.47642 0.5481 0.0
O286 O 0.41969 0.57182 0.62281 0.0
O287 O 0.47662 0.53122 0.76693 0.0
H288 H 0.55725 0.40542 0.72705 0.0
H289 H 0.50905 0.39004 0.72412 0.0
H290 H 0.50201 0.35824 0.71418 0.0
H291 H 0.513 0.36694 0.73857 0.0
H292 H 0.58031 0.44893 0.70635 0.0
H293 H 0.50572 0.39143 0.68107 0.0
H294 H 0.57132 0.50048 0.71296 0.0
H295 H 0.59771 0.49616 0.70417 0.0
H296 H 0.58147 0.50815 0.68864 0.0
H297 H 0.47363 0.40257 0.6727 0.0
H298 H 0.47855 0.43462 0.68019 0.0
H299 H 0.49062 0.4315 0.65751 0.0
H300 H 0.44587 0.49574 0.77947 0.0
H301 H 0.44654 0.52093 0.80477 0.0
H302 H 0.46979 0.54962 0.79515 0.0
H303 H 0.41709 0.53932 0.78042 0.0
H304 H 0.44561 0.48779 0.74518 0.0
H305 H 0.52227 0.55996 0.75104 0.0
H306 H 0.45129 0.47501 0.69724 0.0
H307 H 0.46171 0.4562 0.71113 0.0
H308 H 0.4339 0.45895 0.71891 0.0
H309 H 0.55627 0.57304 0.72833 0.0
H310 H 0.55588 0.5445 0.71762 0.0
H311 H 0.54404 0.56262 0.7044 0.0
H312 H 0.38743 0.5393 0.63567 0.0
H313 H 0.40596 0.52001 0.62163 0.0
H314 H 0.47087 0.60206 0.61982 0.0
H315 H 0.43952 0.49041 0.63703 0.0
H316 H 0.41199 0.48327 0.62168 0.0
H317 H 0.44294 0.48917 0.61184 0.0
H318 H 0.51581 0.61331 0.61819 0.0
H319 H 0.52089 0.59157 0.63371 0.0
H320 H 0.52114 0.58757 0.6085 0.0
H321 H 0.5863 0.50353 0.54289 0.0
H322 H 0.60163 0.47355 0.55677 0.0
H323 H 0.58326 0.48056 0.5738 0.0
H324 H 0.5674 0.44828 0.562 0.0
H325 H 0.49878 0.45568 0.55982 0.0
H326 H 0.5787 0.52196 0.56796 0.0
H327 H 0.47341 0.46183 0.60409 0.0
H328 H 0.46598 0.47875 0.58602 0.0
H329 H 0.46391 0.44734 0.58059 0.0
H330 H 0.58908 0.55711 0.5895 0.0
H331 H 0.56207 0.55945 0.59967 0.0
H332 H 0.5743 0.5407 0.61165 0.0
H333 H 0.51961 0.48144 0.71356 0.0
H334 H 0.48634 0.53605 0.68969 0.0
H335 H 0.47903 0.54801 0.65867 0.0
H336 H 0.49624 0.53176 0.59477 0.0
H337 H 0.53842 0.4854 0.61928 0.0
H338 H 0.5439 0.47177 0.65021 0.0
H339 H 0.41753 0.5954 0.65448 0.0
H340 H 0.38843 0.56579 0.66391 0.0
H341 H 0.41907 0.56615 0.66079 0.0
C342 C 0.1729 0.58055 0.90065 0.0
C343 C 0.1753 0.57142 0.88066 0.0
C344 C 0.12889 0.53908 0.87147 0.0
C345 C 0.12123 0.55824 0.86891 0.0
C346 C 0.09505 0.55023 0.86374 0.0
C347 C 0.07612 0.52255 0.86107 0.0
C348 C 0.08374 0.50323 0.86345 0.0
C349 C 0.11008 0.5118 0.86859 0.0
C350 C 0.08749 0.5713 0.8613 0.0
C351 C 0.06396 0.47353 0.86075 0.0
C352 C 0.90743 0.47071 0.95616 0.0
C353 C 0.9253 0.48616 0.94031 0.0
C354 C 0.94889 0.47868 0.91457 0.0
C355 C 0.95143 0.45913 0.90487 0.0
C356 C 0.97002 0.4662 0.89024 0.0
C357 C 0.98625 0.49361 0.88504 0.0
C358 C 0.98416 0.51364 0.89503 0.0
C359 C 0.96552 0.50599 0.90978 0.0
C360 C 0.97193 0.44429 0.8801 0.0
C361 C 0.00122 0.54301 0.8898 0.0
C362 C 0.8833 0.46249 0.79 0.0
C363 C 0.88924 0.4421 0.79227 0.0
C364 C 0.91568 0.44819 0.79188 0.0
C365 C 0.93647 0.47521 0.78924 0.0
C366 C 0.93033 0.49534 0.7853 0.0
C367 C 0.90366 0.4886 0.78555 0.0
C368 C 0.92151 0.42608 0.79545 0.0
C369 C 0.95203 0.52423 0.782 0.0
C370 C 0.05623 0.4509 0.70241 0.0
C371 C 0.07375 0.48004 0.70937 0.0
C372 C 0.04818 0.49183 0.73095 0.0
C373 C 0.04261 0.47293 0.74534 0.0
C374 C 0.02943 0.47299 0.76198 0.0
C375 C 0.02305 0.49331 0.76464 0.0
C376 C 0.02993 0.51314 0.75047 0.0
C377 C 0.04183 0.5117 0.73365 0.0
C378 C 0.02164 0.45081 0.77634 0.0
C379 C 0.02416 0.53553 0.75278 0.0
C380 C 0.04812 0.5138 0.8565 0.0
C381 C 0.03087 0.5091 0.87165 0.0
C382 C 0.00423 0.50089 0.86845 0.0
C383 C 0.99451 0.49767 0.84967 0.0
C384 C 0.96807 0.49045 0.84599 0.0
C385 C 0.95832 0.48617 0.82754 0.0
C386 C 0.97451 0.48853 0.81204 0.0
C387 C 0.96437 0.48303 0.7933 0.0
C388 C 0.98063 0.48466 0.7783 0.0
C389 C 0.00732 0.49262 0.78137 0.0
C390 C 0.01814 0.49924 0.79996 0.0
C391 C 0.04515 0.50854 0.80354 0.0
C392 C 0.05517 0.51369 0.82202 0.0
C393 C 0.03854 0.50976 0.8376 0.0
C394 C 0.01155 0.50146 0.83422 0.0
C395 C 0.00142 0.49649 0.81538 0.0
C396 C 0.8327 0.45756 0.81899 0.0
C397 C 0.84116 0.44133 0.80683 0.0
O398 O 0.15389 0.54582 0.87687 0.0
O399 O 0.05822 0.49088 0.71385 0.0
O400 O 0.85837 0.45779 0.79275 0.0
O401 O 0.93002 0.47017 0.92828 0.0
H402 H 0.17587 0.58595 0.8701 0.0
H403 H 0.1548 0.58198 0.90173 0.0
H404 H 0.17153 0.56602 0.91153 0.0
H405 H 0.19048 0.60077 0.90384 0.0
H406 H 0.13536 0.57947 0.87106 0.0
H407 H 0.1161 0.49716 0.87055 0.0
H408 H 0.07216 0.56801 0.87195 0.0
H409 H 0.10481 0.59213 0.86301 0.0
H410 H 0.07863 0.56936 0.84701 0.0
H411 H 0.073 0.46103 0.86324 0.0
H412 H 0.047 0.46696 0.87066 0.0
H413 H 0.05581 0.46977 0.84608 0.0
H414 H 0.92088 0.50042 0.93294 0.0
H415 H 0.93374 0.48673 0.98182 0.0
H416 H 0.88928 0.47245 0.95408 0.0
H417 H 0.89677 0.44864 0.95216 0.0
H418 H 0.93859 0.43815 0.90876 0.0
H419 H 0.96381 0.52133 0.9173 0.0
H420 H 0.96426 0.44214 0.86537 0.0
H421 H 0.99304 0.44974 0.87918 0.0
H422 H 0.96026 0.42448 0.88731 0.0
H423 H 0.99692 0.55614 0.89872 0.0
H424 H 0.02258 0.54963 0.89143 0.0
H425 H 0.99787 0.54579 0.87466 0.0
H426 H 0.85146 0.43474 0.81682 0.0
H427 H 0.87332 0.42159 0.79486 0.0
H428 H 0.89874 0.50404 0.7834 0.0
H429 H 0.93033 0.42871 0.80983 0.0
H430 H 0.90326 0.40573 0.79458 0.0
H431 H 0.93627 0.42731 0.78501 0.0
H432 H 0.94392 0.53714 0.77797 0.0
H433 H 0.96414 0.53254 0.79513 0.0
H434 H 0.96552 0.52519 0.77058 0.0
H435 H 0.08534 0.48046 0.72206 0.0
H436 H 0.06885 0.4425 0.69848 0.0
H437 H 0.04233 0.43805 0.71372 0.0
H438 H 0.04425 0.44989 0.68985 0.0
H439 H 0.04751 0.45749 0.74338 0.0
H440 H 0.04626 0.52619 0.72242 0.0
H441 H 0.03543 0.45885 0.78865 0.0
H442 H 0.00112 0.44311 0.78164 0.0
H443 H 0.02266 0.43365 0.77029 0.0
H444 H 0.03639 0.55259 0.74302 0.0
H445 H 0.00286 0.52761 0.74946 0.0
H446 H 0.02796 0.54325 0.7676 0.0
H447 H 0.03818 0.51149 0.88612 0.0
H448 H 0.95457 0.48797 0.85735 0.0
H449 H 0.93777 0.48059 0.82565 0.0
H450 H 0.9724 0.47968 0.76404 0.0
H451 H 0.05878 0.51174 0.7921 0.0
H452 H 0.07603 0.52048 0.82398 0.0
H453 H 0.81785 0.44436 0.82977 0.0
H454 H 0.85035 0.47392 0.82653 0.0
H455 H 0.82404 0.46698 0.81012 0.0
C456 C 0.50488 0.87184 0.91178 0.0
C457 C 0.48101 0.85776 0.92533 0.0
C458 C 0.49361 0.8932 0.94826 0.0
C459 C 0.47268 0.89807 0.94952 0.0
C460 C 0.4777 0.92386 0.95412 0.0
C461 C 0.50429 0.94515 0.95711 0.0
C462 C 0.52547 0.94016 0.95569 0.0
C463 C 0.51973 0.91399 0.95169 0.0
C464 C 0.45464 0.92838 0.95572 0.0
C465 C 0.55415 0.96246 0.95814 0.0
C466 C 0.49998 0.04297 0.85082 0.0
C467 C 0.52427 0.05939 0.86365 0.0
C468 C 0.51727 0.05496 0.89775 0.0
C469 C 0.54002 0.05472 0.90356 0.0
C470 C 0.54023 0.0426 0.92074 0.0
C471 C 0.51716 0.03042 0.93226 0.0
C472 C 0.4946 0.03168 0.92679 0.0
C473 C 0.49512 0.04435 0.90968 0.0
C474 C 0.56488 0.04223 0.92636 0.0
C475 C 0.46968 0.01888 0.93872 0.0
C476 C 0.55898 0.14059 0.02869 0.0
C477 C 0.5786 0.13618 0.02129 0.0
C478 C 0.57462 0.11015 0.02074 0.0
C479 C 0.55008 0.08804 0.02707 0.0
C480 C 0.53086 0.09268 0.0354 0.0
C481 C 0.53584 0.11907 0.03641 0.0
C482 C 0.59622 0.1062 0.01274 0.0
C483 C 0.50462 0.06969 0.0425 0.0
C484 C 0.54911 0.91115 0.08126 0.0
C485 C 0.53137 0.92271 0.08556 0.0
C486 C 0.54509 0.96858 0.07717 0.0
C487 C 0.56804 0.98976 0.06899 0.0
C488 C 0.5664 0.00704 0.05585 0.0
C489 C 0.5412 0.0034 0.05133 0.0
C490 C 0.51818 0.9834 0.06089 0.0
C491 C 0.52033 0.96594 0.07356 0.0
C492 C 0.5914 0.0283 0.04609 0.0
C493 C 0.49116 0.97967 0.05707 0.0
C494 C 0.51002 0.9727 0.96144 0.0
C495 C 0.50998 0.98832 0.94638 0.0
C496 C 0.51611 0.01478 0.94926 0.0
C497 C 0.52222 0.02602 0.96773 0.0
C498 C 0.52806 0.05241 0.9712 0.0
C499 C 0.53436 0.06336 0.9894 0.0
C500 C 0.53586 0.04864 0.00477 0.0
C501 C 0.54343 0.06005 0.02318 0.0
C502 C 0.54476 0.04486 0.0381 0.0
C503 C 0.53859 0.01836 0.03517 0.0
C504 C 0.53085 0.00659 0.01687 0.0
C505 C 0.5244 0.97995 0.01342 0.0
C506 C 0.51694 0.9686 0.9954 0.0
C507 C 0.51641 0.98367 0.97998 0.0
C508 C 0.52265 0.01048 0.98312 0.0
C509 C 0.52971 0.02189 0.00162 0.0
C510 C 0.55788 0.19846 0.01171 0.0
C511 C 0.57343 0.1841 0.01411 0.0
O512 O 0.48895 0.86856 0.94338 0.0
O513 O 0.54718 0.95039 0.08797 0.0
O514 O 0.56166 0.16526 0.0285 0.0
O515 O 0.51606 0.06494 0.88061 0.0
H516 H 0.46496 0.86104 0.92013 0.0
H517 H 0.51255 0.89382 0.91136 0.0
H518 H 0.52118 0.86878 0.91659 0.0
H519 H 0.49903 0.86401 0.89707 0.0
H520 H 0.45248 0.88164 0.94698 0.0
H521 H 0.53567 0.90979 0.95062 0.0
H522 H 0.45561 0.94158 0.94396 0.0
H523 H 0.43508 0.9092 0.95503 0.0
H524 H 0.45595 0.93881 0.96929 0.0
H525 H 0.56825 0.95612 0.95363 0.0
H526 H 0.55826 0.98046 0.9498 0.0
H527 H 0.55805 0.96851 0.97331 0.0
H528 H 0.53307 0.04659 0.86609 0.0
H529 H 0.50612 0.03841 0.83707 0.0
H530 H 0.48577 0.02359 0.85783 0.0
H531 H 0.48958 0.0541 0.84804 0.0
H532 H 0.55751 0.06382 0.89459 0.0
H533 H 0.4778 0.04501 0.90514 0.0
H534 H 0.56064 0.02122 0.92567 0.0
H535 H 0.58204 0.05501 0.91694 0.0
H536 H 0.57053 0.04936 0.94124 0.0
H537 H 0.45373 0.0214 0.9324 0.0
H538 H 0.46204 0.99701 0.94035 0.0
H539 H 0.47437 0.02799 0.95314 0.0
H540 H 0.57194 0.17372 0.0004 0.0
H541 H 0.59696 0.153 0.01585 0.0
H542 H 0.52107 0.12286 0.04242 0.0
H543 H 0.591 0.09858 0.99794 0.0
H544 H 0.61582 0.12536 0.01252 0.0
H545 H 0.59811 0.09108 0.02115 0.0
H546 H 0.49136 0.07663 0.04789 0.0
H547 H 0.49417 0.05487 0.03088 0.0
H548 H 0.50826 0.05908 0.05414 0.0
H549 H 0.51817 0.91779 0.07289 0.0
H550 H 0.53683 0.88885 0.07985 0.0
H551 H 0.55977 0.91955 0.06766 0.0
H552 H 0.56421 0.91646 0.09262 0.0
H553 H 0.58709 0.9918 0.07214 0.0
H554 H 0.50268 0.94995 0.08041 0.0
H555 H 0.58939 0.02485 0.0305 0.0
H556 H 0.59427 0.04852 0.04879 0.0
H557 H 0.60941 0.02833 0.05105 0.0
H558 H 0.47632 0.96678 0.06796 0.0
H559 H 0.4925 -0.0005 0.05671 0.0
H560 H 0.48386 0.96997 0.04298 0.0
H561 H 0.50553 0.97989 0.93214 0.0
H562 H 0.52772 0.06485 0.95989 0.0
H563 H 0.53834 0.08366 0.99118 0.0
H564 H 0.55079 0.05381 0.05213 0.0
H565 H 0.52499 0.96747 0.02459 0.0
H566 H 0.51194 0.94792 0.99369 0.0
H567 H 0.55894 0.20952 0.02491 0.0
H568 H 0.56598 0.21294 -0.00029 0.0
H569 H 0.53664 0.18345 0.00859 0.0
C570 C 0.59504 0.43352 0.07414 0.0
C571 C 0.60532 0.43906 0.09469 0.0
C572 C 0.59272 0.47117 0.10602 0.0
C573 C 0.56517 0.45244 0.10741 0.0
C574 C 0.54744 0.4607 0.11282 0.0
C575 C 0.55735 0.48821 0.1168 0.0
C576 C 0.58503 0.50708 0.11551 0.0
C577 C 0.60233 0.49823 0.11025 0.0
C578 C 0.51806 0.44004 0.11417 0.0
C579 C 0.5963 0.53665 0.1195 0.0
C580 C 0.45777 0.5734 0.0352 0.0
C581 C 0.46039 0.56479 0.0544 0.0
C582 C 0.47146 0.53266 0.06687 0.0
C583 C 0.49801 0.55109 0.07203 0.0
C584 C 0.51102 0.54429 0.08563 0.0
C585 C 0.49733 0.51842 0.09401 0.0
C586 C 0.47129 0.49916 0.08781 0.0
C587 C 0.45871 0.50653 0.0742 0.0
C588 C 0.53908 0.56505 0.09156 0.0
C589 C 0.4564 0.47121 0.09617 0.0
C590 C 0.45201 0.57664 0.19716 0.0
C591 C 0.47741 0.59172 0.18915 0.0
C592 C 0.49285 0.58001 0.18586 0.0
C593 C 0.48221 0.55242 0.1902 0.0
C594 C 0.45672 0.53738 0.19867 0.0
C595 C 0.44215 0.54991 0.20238 0.0
C596 C 0.52039 0.5971 0.1776 0.0
C597 C 0.44469 0.50803 0.20368 0.0
C598 C 0.60647 0.54033 0.27945 0.0
C599 C 0.59279 0.51262 0.26978 0.0
C600 C 0.55865 0.50897 0.2474 0.0
C601 C 0.5753 0.52967 0.23483 0.0
C602 C 0.5648 0.53429 0.21829 0.0
C603 C 0.53742 0.51709 0.21392 0.0
C604 C 0.52097 0.49553 0.22623 0.0
C605 C 0.53174 0.49218 0.243 0.0
C606 C 0.58282 0.55794 0.20579 0.0
C607 C 0.49185 0.47632 0.22197 0.0
C608 C 0.53874 0.49742 0.12175 0.0
C609 C 0.52596 0.5023 0.10687 0.0
C610 C 0.50936 0.51246 0.11039 0.0
C611 C 0.50549 0.51823 0.12923 0.0
C612 C 0.48922 0.52887 0.13322 0.0
C613 C 0.48626 0.53537 0.1517 0.0
C614 C 0.49961 0.53169 0.1669 0.0
C615 C 0.49759 0.53927 0.18564 0.0
C616 C 0.51053 0.53463 0.20048 0.0
C617 C 0.52545 0.52245 0.1972 0.0
C618 C 0.5281 0.51515 0.17851 0.0
C619 C 0.54301 0.50295 0.17465 0.0
C620 C 0.54642 0.49696 0.15609 0.0
C621 C 0.53463 0.50249 0.14073 0.0
C622 C 0.51838 0.51346 0.14442 0.0
C623 C 0.51534 0.52008 0.1633 0.0
C624 C 0.40087 0.58446 0.18199 0.0
C625 C 0.43085 0.60048 0.18589 0.0
O626 O 0.61066 0.46424 0.10052 0.0
O627 O 0.56717 0.50508 0.26432 0.0
O628 O 0.4366 0.58746 0.19989 0.0
O629 O 0.45757 0.53951 0.0551 0.0
H630 H 0.58994 0.42325 0.10405 0.0
H631 H 0.57597 0.43311 0.07303 0.0
H632 H 0.60967 0.44943 0.06448 0.0
H633 H 0.59145 0.41363 0.06932 0.0
H634 H 0.55718 0.43137 0.10422 0.0
H635 H 0.62355 0.51254 0.10919 0.0
H636 H 0.50712 0.44417 0.10311 0.0
H637 H 0.51373 0.41912 0.11221 0.0
H638 H 0.51032 0.44156 0.12821 0.0
H639 H 0.61799 0.549 0.11651 0.0
H640 H 0.58581 0.54428 0.11076 0.0
H641 H 0.59302 0.53944 0.13464 0.0
H642 H 0.47611 0.58047 0.06378 0.0
H643 H 0.47775 0.59204 0.0323 0.0
H644 H 0.46062 0.56037 0.02466 0.0
H645 H 0.41978 0.5737 0.03678 0.0
H646 H 0.50853 0.57088 0.0656 0.0
H647 H 0.43843 0.49226 0.0698 0.0
H648 H 0.53932 0.57017 0.1068 0.0
H649 H 0.55221 0.55663 0.08995 0.0
H650 H 0.54743 0.58386 0.0831 0.0
H651 H 0.43718 0.4579 0.08877 0.0
H652 H 0.46883 0.46189 0.09539 0.0
H653 H 0.4523 0.47251 0.11141 0.0
H654 H 0.44094 0.60107 0.17232 0.0
H655 H 0.48516 0.61267 0.18558 0.0
H656 H 0.42258 0.53862 0.20879 0.0
H657 H 0.52017 0.59141 0.16252 0.0
H658 H 0.52742 0.61894 0.1782 0.0
H659 H 0.53486 0.5936 0.18531 0.0
H660 H 0.42309 0.4981 0.20688 0.0
H661 H 0.44745 0.49691 0.19192 0.0
H662 H 0.45496 0.50651 0.21642 0.0
H663 H 0.60458 0.51336 0.25716 0.0
H664 H 0.627 0.54628 0.28386 0.0
H665 H 0.60785 0.55589 0.26959 0.0
H666 H 0.5951 0.53995 0.29218 0.0
H667 H 0.59621 0.54277 0.23812 0.0
H668 H 0.51911 0.47628 0.25284 0.0
H669 H 0.58591 0.55049 0.19209 0.0
H670 H 0.57346 0.56997 0.20261 0.0
H671 H 0.6026 0.57137 0.21244 0.0
H672 H 0.48351 0.45758 0.23053 0.0
H673 H 0.48056 0.48631 0.22543 0.0
H674 H 0.48872 0.47078 0.20668 0.0
H675 H 0.52933 0.49856 0.09233 0.0
H676 H 0.4787 0.53249 0.12209 0.0
H677 H 0.47352 0.54353 0.15387 0.0
H678 H 0.50883 0.54043 0.21483 0.0
H679 H 0.55254 0.49826 0.18591 0.0
H680 H 0.55847 0.488 0.15392 0.0
H681 H 0.39571 0.59419 0.17055 0.0
H682 H 0.39469 0.56371 0.17731 0.0
H683 H 0.38959 0.58313 0.19503 0.0
Co684 Co 0.61503 0.37773 0.4007 0.0
O685 O 0.63726 0.37019 0.38519 0.0
O686 O 0.6508 0.40891 0.40007 0.0
C687 C 0.59674 0.33883 0.41685 0.0
O688 O 0.59847 0.39238 0.41882 0.0
Co689 Co 0.55439 0.34351 0.39827 0.0
O690 O 0.55513 0.3615 0.42241 0.0
C691 C 0.58345 0.38367 0.36861 0.0
C692 C 0.65654 0.39431 0.38933 0.0
C693 C 0.57604 0.38337 0.42735 0.0
O694 O 0.60509 0.39149 0.37791 0.0
O695 O 0.56089 0.36378 0.3738 0.0
O696 O 0.61955 0.3594 0.42188 0.0
O697 O 0.58632 0.34151 0.40138 0.0
Co698 Co 0.24026 0.62876 0.58255 0.0
O699 O 0.26749 0.63388 0.6001 0.0
O700 O 0.24794 0.60023 0.5794 0.0
C701 C 0.26172 0.67196 0.5731 0.0
O702 O 0.21261 0.61794 0.5615 0.0
Co703 Co 0.20973 0.65855 0.58755 0.0
O704 O 0.19797 0.64688 0.56108 0.0
C705 C 0.19562 0.61105 0.61128 0.0
C706 C 0.26584 0.61262 0.5926 0.0
C707 C 0.19953 0.62768 0.55367 0.0
O708 O 0.21196 0.60688 0.60192 0.0
O709 O 0.19296 0.63135 0.60843 0.0
O710 O 0.26717 0.65496 0.56549 0.0
O711 O 0.24475 0.66287 0.58688 0.0
Co712 Co 0.63611 0.24678 0.74579 0.0
O713 O 0.63499 0.27091 0.72756 0.0
O714 O 0.60127 0.24243 0.74576 0.0
C715 C 0.67481 0.27817 0.7591 0.0
O716 O 0.62941 0.21992 0.76675 0.0
Co717 Co 0.67963 0.2326 0.74626 0.0
O718 O 0.66405 0.21415 0.77067 0.0
C719 C 0.63745 0.20824 0.71714 0.0
C720 C 0.61074 0.26168 0.73327 0.0
C721 C 0.64134 0.20985 0.77571 0.0
O722 O 0.62519 0.21833 0.72564 0.0
O723 O 0.66048 0.21313 0.72231 0.0
O724 O 0.6524 0.27574 0.76412 0.0
O725 O 0.6736 0.26261 0.74538 0.0
Co726 Co 0.39808 0.61792 0.90408 0.0
O727 O 0.37543 0.6203 0.88544 0.0
O728 O 0.36229 0.58727 0.90631 0.0
C729 C 0.41692 0.66121 0.91334 0.0
O730 O 0.41464 0.60896 0.9261 0.0
Co731 Co 0.45929 0.65196 0.90248 0.0
O732 O 0.45759 0.64137 0.92946 0.0
C733 C 0.42929 0.60729 0.87519 0.0
C734 C 0.35614 0.5982 0.89266 0.0
C735 C 0.43654 0.62071 0.93562 0.0
O736 O 0.40805 0.5985 0.8852 0.0
O737 O 0.45104 0.62935 0.87892 0.0
O738 O 0.3943 0.64287 0.92049 0.0
O739 O 0.4269 0.6531 0.90048 0.0
Co740 Co 0.77225 0.38141 0.06793 0.0
O741 O 0.74449 0.37625 0.08498 0.0
O742 O 0.77147 0.41435 0.06994 0.0
C743 C 0.74631 0.3428 0.05172 0.0
O744 O 0.80234 0.39431 0.04878 0.0
Co745 Co 0.79256 0.34212 0.06636 0.0
O746 O 0.81286 0.36271 0.04373 0.0
C747 C 0.80992 0.38158 0.09769 0.0
C748 C 0.75123 0.40087 0.08119 0.0
C749 C 0.81551 0.38546 0.03998 0.0
O750 O 0.79817 0.39258 0.08967 0.0
O751 O 0.8084 0.36009 0.09137 0.0
O752 O 0.74649 0.36468 0.04749 0.0
O753 O 0.76073 0.34442 0.06617 0.0
Co754 Co 0.40487 0.78316 0.22935 0.0
O755 O 0.40477 0.75751 0.2121 0.0
O756 O 0.43555 0.77967 0.2342 0.0
C757 C 0.36169 0.75707 0.23742 0.0
O758 O 0.41079 0.81033 0.25012 0.0
Co759 Co 0.36948 0.80721 0.22155 0.0
O760 O 0.38001 0.82222 0.24755 0.0
C761 C 0.41737 0.8242 0.19836 0.0
C762 C 0.42627 0.76187 0.22058 0.0
C763 C 0.39922 0.82263 0.25634 0.0
O764 O 0.42513 0.81263 0.21012 0.0
O765 O 0.39467 0.82228 0.19953 0.0
O766 O 0.37976 0.75423 0.24588 0.0
O767 O 0.36993 0.77413 0.22359 0.0
H768 H 0.19575 0.63876 0.22444 0.0
H769 H 0.33899 0.72868 0.26992 0.0
H770 H 0.205 0.65698 0.28443 0.0
H771 H 0.31972 0.74483 0.21423 0.0
H772 H 0.29137 0.6965 0.2754 0.0
H773 H 0.24333 0.67152 0.22007 0.0
C774 C 0.20789 0.6494 0.2367 0.0
C775 C 0.19647 0.64483 0.25482 0.0
C776 C 0.29767 0.70728 0.26206 0.0
C777 C 0.25067 0.68221 0.24994 0.0
C778 C 0.32471 0.72555 0.25893 0.0
C779 C 0.33317 0.7394 0.24163 0.0
C780 C 0.27922 0.70241 0.24759 0.0
C781 C 0.31397 0.73466 0.22781 0.0
C782 C 0.23488 0.66816 0.23418 0.0
C783 C 0.21299 0.65948 0.27024 0.0
N784 N 0.28788 0.71628 0.23099 0.0
N785 N 0.23935 0.67738 0.26747 0.0
H786 H 0.59688 0.22029 0.48905 0.0
H787 H 0.57323 0.28967 0.39939 0.0
H788 H 0.60998 0.20581 0.43108 0.0
H789 H 0.60071 0.3286 0.45387 0.0
H790 H 0.5698 0.24879 0.4126 0.0
H791 H 0.58214 0.25042 0.4775 0.0
C792 C 0.59611 0.22304 0.47389 0.0
C793 C 0.60468 0.21058 0.46103 0.0
C794 C 0.5759 0.26609 0.42174 0.0
C795 C 0.58771 0.24465 0.44779 0.0
C796 C 0.57763 0.28926 0.41429 0.0
C797 C 0.58754 0.31247 0.42558 0.0
C798 C 0.5837 0.26619 0.44062 0.0
C799 C 0.59324 0.31109 0.44472 0.0
C800 C 0.58773 0.24015 0.46735 0.0
C801 C 0.6035 0.21491 0.44152 0.0
N802 N 0.59147 0.28838 0.45164 0.0
N803 N 0.59528 0.2317 0.43549 0.0
H804 H 0.34501 0.52712 0.62462 0.0
H805 H 0.31285 0.64307 0.61102 0.0
H806 H 0.40557 0.61163 0.62599 0.0
H807 H 0.26255 0.56402 0.58656 0.0
H808 H 0.34523 0.63056 0.61968 0.0
H809 H 0.31283 0.53892 0.61322 0.0
C810 C 0.35154 0.54815 0.62244 0.0
C811 C 0.37792 0.56848 0.62644 0.0
C812 C 0.32715 0.61595 0.61239 0.0
C813 C 0.34123 0.58203 0.61362 0.0
C814 C 0.30854 0.62297 0.60756 0.0
C815 C 0.28492 0.60447 0.59813 0.0
C816 C 0.32198 0.59005 0.60807 0.0
C817 C 0.28053 0.57884 0.59383 0.0
C818 C 0.3332 0.55483 0.61591 0.0
C819 C 0.38536 0.59538 0.6233 0.0
N820 N 0.29885 0.57226 0.59898 0.0
N821 N 0.36704 0.60139 0.61726 0.0
H822 H 0.8019 0.43909 0.78377 0.0
H823 H 0.72385 0.28286 0.76057 0.0
H824 H 0.8273 0.38821 0.80902 0.0
H825 H 0.68348 0.32583 0.77255 0.0
H826 H 0.76608 0.3228 0.77107 0.0
H827 H 0.76212 0.3988 0.77147 0.0
C828 C 0.79908 0.41946 0.78676 0.0
C829 C 0.81746 0.41689 0.79796 0.0
C830 C 0.74786 0.32327 0.77137 0.0
C831 C 0.7727 0.37103 0.78333 0.0
C832 C 0.72392 0.30064 0.76542 0.0
C833 C 0.70025 0.30109 0.76587 0.0
C834 C 0.74802 0.34654 0.77718 0.0
C835 C 0.70126 0.32457 0.77218 0.0
C836 C 0.7765 0.39657 0.77969 0.0
C837 C 0.81331 0.391 0.80077 0.0
N838 N 0.72481 0.34647 0.77741 0.0
N839 N 0.7913 0.36897 0.79352 0.0
H840 H 0.4801 0.8247 0.9548 0.0
H841 H 0.44848 0.70244 0.88976 0.0
H842 H 0.45662 0.82202 0.89623 0.0
H843 H 0.40994 0.6856 0.94442 0.0
H844 H 0.46299 0.75001 0.89375 0.0
H845 H 0.46407 0.77644 0.95307 0.0
C846 C 0.47157 0.8141 0.94159 0.0
C847 C 0.47 0.82762 0.92549 0.0
C848 C 0.45151 0.73587 0.9049 0.0
C849 C 0.45241 0.77276 0.9235 0.0
C850 C 0.44342 0.70883 0.90274 0.0
C851 C 0.42795 0.69014 0.91679 0.0
C852 C 0.4447 0.74438 0.92142 0.0
C853 C 0.42177 0.69947 0.93326 0.0
C854 C 0.46242 0.78657 0.94069 0.0
C855 C 0.45859 0.81255 0.90886 0.0
N856 N 0.43035 0.72612 0.93522 0.0
N857 N 0.45065 0.78603 0.90818 0.0
H858 H 0.65579 0.47498 0.08111 0.0
H859 H 0.71138 0.37872 0.10727 0.0
H860 H 0.61142 0.39971 0.11121 0.0
H861 H 0.75231 0.44667 0.06949 0.0
H862 H 0.67859 0.39151 0.11371 0.0
H863 H 0.69475 0.46973 0.08108 0.0
C864 C 0.6544 0.45755 0.08792 0.0
C865 C 0.63037 0.43774 0.09618 0.0
C866 C 0.69487 0.40384 0.10416 0.0
C867 C 0.67466 0.43158 0.09617 0.0
C868 C 0.71369 0.3966 0.10052 0.0
C869 C 0.73442 0.41147 0.08764 0.0
C870 C 0.69663 0.42604 0.09476 0.0
C871 C 0.73654 0.43457 0.07945 0.0
C872 C 0.67657 0.45455 0.08788 0.0
C873 C 0.62954 0.41548 0.10473 0.0
N874 N 0.71764 0.44098 0.08296 0.0
N875 N 0.6513 0.41297 0.10443 0.0
H876 H 0.35813 0.83045 0.52303 0.0
H877 H 0.27016 0.71389 0.59556 0.0
H878 H 0.37634 0.83794 0.58301 0.0
H879 H 0.28895 0.69544 0.54046 0.0
H880 H 0.30078 0.76194 0.58944 0.0
H881 H 0.32506 0.78267 0.52773 0.0
C882 C 0.35536 0.82209 0.53716 0.0
C883 C 0.37035 0.83816 0.55268 0.0
C884 C 0.29796 0.74731 0.57866 0.0
C885 C 0.33187 0.78394 0.55808 0.0
C886 C 0.28039 0.72 0.58205 0.0
C887 C 0.27723 0.70081 0.56851 0.0
C888 C 0.31192 0.75539 0.56146 0.0
C889 C 0.29105 0.70972 0.55128 0.0
C890 C 0.33642 0.79488 0.53978 0.0
C891 C 0.36537 0.82621 0.57069 0.0
N892 N 0.30783 0.7365 0.54819 0.0
N893 N 0.3464 0.79984 0.57294 0.0
H894 H 0.5562 0.36985 0.74935 0.0
H895 H 0.61769 0.29229 0.70184 0.0
H896 H 0.55233 0.36003 0.68839 0.0
H897 H 0.57236 0.2635 0.75365 0.0
H898 H 0.59937 0.32154 0.6968 0.0
H899 H 0.56872 0.33566 0.75199 0.0
C900 C 0.55814 0.36061 0.73655 0.0
C901 C 0.55345 0.36803 0.71867 0.0
C902 C 0.59318 0.30845 0.70908 0.0
C903 C 0.56789 0.32919 0.72156 0.0
C904 C 0.60354 0.29179 0.71195 0.0
C905 C 0.59645 0.27549 0.72816 0.0
C906 C 0.57635 0.30931 0.72283 0.0
C907 C 0.57818 0.27565 0.7409 0.0
C908 C 0.56508 0.34105 0.73806 0.0
C909 C 0.55607 0.35529 0.70248 0.0
N910 N 0.56913 0.29273 0.73816 0.0
N911 N 0.56344 0.33669 0.7043 0.0
H912 H 0.22025 0.60585 0.86043 0.0
H913 H 0.31055 0.55632 0.90816 0.0
H914 H 0.18857 0.53691 0.89751 0.0
H915 H 0.33822 0.61769 0.86493 0.0
H916 H 0.26493 0.54573 0.90245 0.0
H917 H 0.26282 0.60786 0.86006 0.0
C918 C 0.22221 0.59095 0.86834 0.0
C919 C 0.2009 0.57123 0.87905 0.0
C920 C 0.28095 0.56123 0.89402 0.0
C921 C 0.24973 0.57359 0.87893 0.0
C922 C 0.30698 0.56723 0.89724 0.0
C923 C 0.32824 0.58815 0.88718 0.0
C924 C 0.27626 0.57642 0.88075 0.0
C925 C 0.32247 0.6016 0.87317 0.0
C926 C 0.24651 0.59207 0.86812 0.0
C927 C 0.20457 0.55247 0.8891 0.0
N928 N 0.2971 0.59573 0.87055 0.0
N929 N 0.22862 0.55427 0.88896 0.0
H930 H 0.61179 0.21802 0.98924 0.0
H931 H 0.72652 0.29278 0.0671 0.0
H932 H 0.60071 0.19698 0.04867 0.0
H933 H 0.71944 0.33347 0.01821 0.0
H934 H 0.68677 0.25096 0.05652 0.0
H935 H 0.65756 0.25431 0.99625 0.0
C936 C 0.61915 0.22079 0.00369 0.0
C937 C 0.60244 0.20445 0.01835 0.0
C938 C 0.69424 0.26898 0.04798 0.0
C939 C 0.65461 0.24555 0.0264 0.0
C940 C 0.71698 0.29276 0.05391 0.0
C941 C 0.72602 0.31663 0.0436 0.0
C942 C 0.68083 0.26906 0.03149 0.0
C943 C 0.7129 0.31552 0.02665 0.0
C944 C 0.64515 0.24144 0.00766 0.0
C945 C 0.61286 0.20895 0.03688 0.0
N946 N 0.69082 0.29212 0.02115 0.0
N947 N 0.6383 0.22909 0.04037 0.0
H948 H 0.44819 0.64455 0.16316 0.0
H949 H 0.44698 0.74028 0.24469 0.0
H950 H 0.43165 0.62058 0.22188 0.0
H951 H 0.42988 0.74447 0.18566 0.0
H952 H 0.45557 0.70404 0.23679 0.0
H953 H 0.45558 0.68885 0.17179 0.0
C954 C 0.44672 0.64887 0.17794 0.0
C955 C 0.43952 0.62897 0.19183 0.0
C956 C 0.45052 0.71337 0.22555 0.0
C957 C 0.44762 0.67942 0.20177 0.0
C958 C 0.44588 0.73414 0.23001 0.0
C959 C 0.43762 0.74515 0.21578 0.0
C960 C 0.4473 0.70407 0.20672 0.0
C961 C 0.43607 0.73632 0.19702 0.0
C962 C 0.45084 0.67406 0.18283 0.0
C963 C 0.43745 0.63544 0.21075 0.0
N964 N 0.44072 0.7162 0.19304 0.0
N965 N 0.44134 0.6601 0.21517 0.0
H966 H 0.81951 0.48874 0.34997 0.0
H967 H 0.67508 0.36439 0.37347 0.0
H968 H 0.80102 0.4064 0.35145 0.0
H969 H 0.69997 0.44593 0.38986 0.0
H970 H 0.72017 0.37988 0.36261 0.0
H971 H 0.77494 0.47391 0.36215 0.0
C972 C 0.80607 0.46755 0.35292 0.0
C973 C 0.8139 0.44873 0.34965 0.0
C974 C 0.71582 0.3944 0.36861 0.0
C975 C 0.76291 0.43165 0.36339 0.0
C976 C 0.69004 0.38562 0.37473 0.0
C977 C 0.68379 0.40395 0.38256 0.0
C978 C 0.73548 0.4218 0.37009 0.0
C979 C 0.704 0.43116 0.38393 0.0
C980 C 0.78069 0.45913 0.35989 0.0
C981 C 0.79571 0.42151 0.35369 0.0
N982 N 0.72898 0.43932 0.37765 0.0
N983 N 0.771 0.41377 0.36024 0.0
H984 H 0.10899 0.59539 0.4495 0.0
H985 H 0.19642 0.58571 0.53319 0.0
H986 H 0.12996 0.53427 0.45204 0.0
H987 H 0.1702 0.64299 0.53264 0.0
H988 H 0.17287 0.56705 0.50321 0.0
H989 H 0.13199 0.61363 0.47977 0.0
C990 C 0.11819 0.58564 0.45657 0.0
C991 C 0.11701 0.56287 0.44852 0.0
C992 C 0.17226 0.58368 0.50968 0.0
C993 C 0.1439 0.58397 0.48291 0.0
C994 C 0.18573 0.59438 0.5268 0.0
C995 C 0.18534 0.61599 0.53551 0.0
C996 C 0.15833 0.59469 0.50114 0.0
C997 C 0.17111 0.62635 0.52651 0.0
C998 C 0.13141 0.5961 0.47379 0.0
C999 C 0.12995 0.55151 0.45798 0.0
N1000 N 0.15822 0.61562 0.50984 0.0
N1001 N 0.14281 0.56213 0.47468 0.0
H1002 H 0.59265 0.09226 0.62531 0.0
H1003 H 0.58815 0.19186 0.70221 0.0
H1004 H 0.52428 0.09996 0.63491 0.0
H1005 H 0.65577 0.18196 0.69512 0.0
H1006 H 0.56552 0.15997 0.67637 0.0
H1007 H 0.61714 0.12673 0.64969 0.0
C1008 C 0.58293 0.10144 0.63243 0.0
C1009 C 0.55656 0.09359 0.6279 0.0
C1010 C 0.58533 0.1648 0.68043 0.0
C1011 C 0.58422 0.13265 0.65594 0.0
C1012 C 0.59832 0.18306 0.69521 0.0
C1013 C 0.62393 0.18958 0.70097 0.0
C1014 C 0.59796 0.15288 0.67126 0.0
C1015 C 0.63603 0.17751 0.69125 0.0
C1016 C 0.59685 0.12101 0.64637 0.0
C1017 C 0.54469 0.1057 0.63779 0.0
N1018 N 0.62291 0.1597 0.67691 0.0
N1019 N 0.5586 0.12462 0.65132 0.0
H1020 H 0.46516 0.57001 0.75577 0.0
H1021 H 0.392 0.55499 0.86526 0.0
H1022 H 0.39384 0.4802 0.78591 0.0
H1023 H 0.46448 0.62524 0.84575 0.0
H1024 H 0.39071 0.53148 0.83584 0.0
H1025 H 0.46079 0.59516 0.78991 0.0
C1026 C 0.45026 0.5586 0.76643 0.0
C1027 C 0.43278 0.52123 0.76828 0.0
C1028 C 0.40687 0.55201 0.83813 0.0
C1029 C 0.42677 0.55266 0.80649 0.0
C1030 C 0.40764 0.56543 0.85486 0.0
C1031 C 0.42845 0.5921 0.85803 0.0
C1032 C 0.42679 0.56556 0.82445 0.0
C1033 C 0.44817 0.60465 0.84403 0.0
C1034 C 0.44849 0.57358 0.78797 0.0
C1035 C 0.40525 0.502 0.78544 0.0
N1036 N 0.44674 0.59132 0.82781 0.0
N1037 N 0.40706 0.52004 0.80379 0.0
H1038 H 0.929 0.53136 0.96464 0.0
H1039 H 0.84874 0.37511 0.01916 0.0
H1040 H 0.95268 0.45749 0.95786 0.0
H1041 H 0.82903 0.43642 0.02884 0.0
H1042 H 0.88414 0.40573 0.99771 0.0
H1043 H 0.88944 0.49564 0.99176 0.0
C1044 C 0.92781 0.51298 0.96926 0.0
C1045 C 0.94276 0.49644 0.95572 0.0
C1046 C 0.87203 0.41244 0.00451 0.0
C1047 C 0.89814 0.45749 0.98895 0.0
C1048 C 0.85171 0.39493 0.01673 0.0
C1049 C 0.83584 0.40316 0.0259 0.0
C1050 C 0.87653 0.43835 0.00144 0.0
C1051 C 0.84073 0.42916 0.02212 0.0
C1052 C 0.90241 0.49004 0.98496 0.0
C1053 C 0.94247 0.46622 0.96486 0.0
N1054 N 0.86071 0.44588 0.01019 0.0
N1055 N 0.91807 0.44874 0.9795 0.0
H1056 H 0.47688 0.8946 0.08839 0.0
H1057 H 0.4708 0.84286 0.194 0.0
H1058 H 0.5476 0.92204 0.12243 0.0
H1059 H 0.40438 0.84181 0.1665 0.0
H1060 H 0.49912 0.86851 0.16712 0.0
H1061 H 0.44961 0.87191 0.11623 0.0
C1062 C 0.48666 0.89585 0.10175 0.0
C1063 C 0.51453 0.90987 0.10304 0.0
C1064 C 0.47837 0.86275 0.16708 0.0
C1065 C 0.48348 0.8838 0.13493 0.0
C1066 C 0.46217 0.84803 0.18236 0.0
C1067 C 0.43515 0.84017 0.18254 0.0
C1068 C 0.46736 0.86926 0.15177 0.0
C1069 C 0.42509 0.8475 0.16706 0.0
C1070 C 0.4711 0.88294 0.11763 0.0
C1071 C 0.52617 0.91107 0.12076 0.0
N1072 N 0.44114 0.86144 0.15228 0.0
N1073 N 0.51058 0.89795 0.13599 0.0
H1074 H 0.55472 0.48476 0.29704 0.0
H1075 H 0.62713 0.41813 0.34743 0.0
H1076 H 0.62741 0.49414 0.27451 0.0
H1077 H 0.5425 0.38596 0.35192 0.0
H1078 H 0.62935 0.44809 0.32207 0.0
H1079 H 0.55183 0.45112 0.31919 0.0
C1080 C 0.56994 0.4795 0.29662 0.0
C1081 C 0.59099 0.49174 0.28356 0.0
C1082 C 0.61028 0.43425 0.32849 0.0
C1083 C 0.58813 0.45369 0.30928 0.0
C1084 C 0.60898 0.41721 0.34298 0.0
C1085 C 0.5846 0.39964 0.3519 0.0
C1086 C 0.58714 0.43407 0.32316 0.0
C1087 C 0.56171 0.39915 0.34547 0.0
C1088 C 0.56826 0.46028 0.30926 0.0
C1089 C 0.61063 0.48479 0.28412 0.0
N1090 N 0.56361 0.41638 0.33166 0.0
N1091 N 0.60878 0.46623 0.29683 0.0
H1092 H 0.47359 0.8894 0.36537 0.0
H1093 H 0.38376 0.85571 0.27197 0.0
H1094 H 0.42546 0.92405 0.35328 0.0
H1095 H 0.4362 0.82527 0.28178 0.0
H1096 H 0.39896 0.88089 0.30165 0.0
H1097 H 0.46038 0.86588 0.33479 0.0
C1098 C 0.46048 0.89229 0.35614 0.0
C1099 C 0.45097 0.90906 0.3617 0.0
C1100 C 0.40719 0.86875 0.29732 0.0
C1101 C 0.43537 0.88186 0.32684 0.0
C1102 C 0.39847 0.85427 0.28035 0.0
C1103 C 0.40865 0.83823 0.27432 0.0
C1104 C 0.42618 0.86716 0.30848 0.0
C1105 C 0.42779 0.83736 0.28581 0.0
C1106 C 0.45288 0.87881 0.33873 0.0
C1107 C 0.43357 0.91165 0.3494 0.0
N1108 N 0.43586 0.85155 0.30236 0.0
N1109 N 0.42633 0.89819 0.33256 0.0
H1110 H 0.6121 0.49902 0.51786 0.0
H1111 H 0.53271 0.37066 0.44954 0.0
H1112 H 0.53241 0.43312 0.52897 0.0
H1113 H 0.61585 0.43122 0.44237 0.0
H1114 H 0.53109 0.39529 0.47712 0.0
H1115 H 0.61278 0.47631 0.4887 0.0
C1116 C 0.59462 0.47995 0.51398 0.0
C1117 C 0.57196 0.46826 0.5256 0.0
C1118 C 0.54968 0.40321 0.46949 0.0
C1119 C 0.57268 0.44193 0.49246 0.0
C1120 C 0.55063 0.38918 0.45369 0.0
C1121 C 0.5745 0.39878 0.44361 0.0
C1122 C 0.57274 0.42709 0.47528 0.0
C1123 C 0.59702 0.42297 0.4497 0.0
C1124 C 0.59504 0.46694 0.49741 0.0
C1125 C 0.55007 0.44314 0.52022 0.0
N1126 N 0.59559 0.43624 0.46515 0.0
N1127 N 0.55096 0.43087 0.50401 0.0
H1128 H 0.12764 0.49885 0.70561 0.0
H1129 H 0.14803 0.60195 0.62434 0.0
H1130 H 0.06256 0.49959 0.67758 0.0
H1131 H 0.20348 0.57453 0.63069 0.0
H1132 H 0.11884 0.56848 0.64746 0.0
H1133 H 0.15812 0.52974 0.68116 0.0
C1134 C 0.11981 0.50544 0.69429 0.0
C1135 C 0.0927 0.49719 0.69382 0.0
C1136 C 0.13737 0.56973 0.64377 0.0
C1137 C 0.12717 0.53232 0.66614 0.0
C1138 C 0.15414 0.58896 0.63066 0.0
C1139 C 0.17822 0.59102 0.62557 0.0
C1140 C 0.14485 0.55267 0.65212 0.0
C1141 C 0.185 0.57349 0.63417 0.0
C1142 C 0.13712 0.52294 0.68039 0.0
C1143 C 0.08341 0.50591 0.67869 0.0
N1144 N 0.16844 0.5551 0.64718 0.0
N1145 N 0.10066 0.52327 0.66563 0.0
H1146 H 0.52136 0.10456 0.85638 0.0
H1147 H 0.6549 0.17703 0.79439 0.0
H1148 H 0.57264 0.0725 0.84845 0.0
H1149 H 0.59546 0.19977 0.79333 0.0
H1150 H 0.62883 0.14315 0.81843 0.0
H1151 H 0.55216 0.14403 0.83749 0.0
C1152 C 0.5393 0.10605 0.85086 0.0
C1153 C 0.54448 0.08526 0.85394 0.0
C1154 C 0.62161 0.15571 0.81303 0.0
C1155 C 0.57966 0.13016 0.83226 0.0
C1156 C 0.63653 0.17513 0.79933 0.0
C1157 C 0.62725 0.19113 0.79164 0.0
C1158 C 0.59729 0.15231 0.81917 0.0
C1159 C 0.60329 0.18773 0.79868 0.0
C1160 C 0.55681 0.12849 0.84004 0.0
C1161 C 0.56793 0.08809 0.84641 0.0
N1162 N 0.58909 0.16862 0.81195 0.0
N1163 N 0.58459 0.11005 0.83585 0.0
H1164 H 0.45886 0.61459 0.06431 0.0
H1165 H 0.40415 0.56952 0.9491 0.0
H1166 H 0.40644 0.51665 0.03935 0.0
H1167 H 0.46965 0.64793 0.96545 0.0
H1168 H 0.40345 0.55333 0.98137 0.0
H1169 H 0.45893 0.6302 0.02535 0.0
C1170 C 0.44778 0.59982 0.05335 0.0
C1171 C 0.4361 0.56342 0.05589 0.0
C1172 C 0.41808 0.57399 0.9778 0.0
C1173 C 0.43487 0.58351 0.01125 0.0
C1174 C 0.41845 0.58327 0.95945 0.0
C1175 C 0.43699 0.61012 0.9546 0.0
C1176 C 0.43596 0.59186 0.99143 0.0
C1177 C 0.45512 0.62706 0.96854 0.0
C1178 C 0.44927 0.60913 0.02916 0.0
C1179 C 0.41495 0.53811 0.03754 0.0
N1180 N 0.45393 0.61772 0.98643 0.0
N1181 N 0.41882 0.55137 0.01654 0.0
H1182 H 0.9329 0.43517 0.18355 0.0
H1183 H 0.82197 0.4296 0.11407 0.0
H1184 H 0.91733 0.49982 0.17747 0.0
H1185 H 0.83833 0.36521 0.1189 0.0
H1186 H 0.85439 0.45401 0.13919 0.0
H1187 H 0.89622 0.40779 0.16153 0.0
C1188 C 0.92152 0.44344 0.17774 0.0
C1189 C 0.92778 0.46959 0.18261 0.0
C1190 C 0.85076 0.43446 0.13484 0.0
C1191 C 0.8862 0.43867 0.15717 0.0
C1192 C 0.83217 0.42044 0.12051 0.0
C1193 C 0.82752 0.39536 0.1142 0.0
C1194 C 0.86487 0.42338 0.14296 0.0
C1195 C 0.84136 0.38455 0.12317 0.0
C1196 C 0.90066 0.42788 0.16515 0.0
C1197 C 0.91284 0.47959 0.17434 0.0
N1198 N 0.85952 0.3987 0.137 0.0
N1199 N 0.89277 0.46414 0.16203 0.0
loop_
_geom_bond_atom_site_label_1
_geom_bond_atom_site_label_2
_geom_bond_distance
_geom_bond_site_symmetry_2
_ccdc_geom_bond_type
C0 C1 1.560 . S
C0 H61 0.959 . S
C0 H62 0.959 . S
C0 H63 0.960 . S
C1 C0 1.560 . S
C1 O56 1.426 . S
C1 H60 0.980 . S
C2 C3 1.407 . S
C2 C7 1.418 . S
C2 O56 1.334 . S
C3 C2 1.407 . S
C3 C4 1.360 . S
C3 H64 0.929 . S
C4 C3 1.360 . S
C4 C5 1.401 . S
C4 C8 1.527 . S
C5 C4 1.401 . S
C5 C6 1.405 . S
C5 C38 1.587 . S
C6 C5 1.405 . S
C6 C7 1.332 . S
C6 C9 1.496 . S
C7 C2 1.418 . S
C7 C6 1.332 . S
C7 H65 0.929 . S
C8 C4 1.527 . S
C8 H66 0.959 . S
C8 H67 0.961 . S
C8 H68 0.961 . S
C9 C6 1.496 . S
C9 H69 0.960 . S
C9 H70 0.960 . S
C9 H71 0.961 . S
C10 C11 1.517 . S
C10 H73 0.961 . S
C10 H74 0.960 . S
C10 H75 0.959 . S
C11 C10 1.517 . S
C11 O59 1.468 . S
C11 H72 0.980 . S
C12 C13 1.349 . S
C12 C17 1.367 . S
C12 O59 1.408 . S
C13 C12 1.349 . S
C13 C14 1.407 . S
C13 H76 0.930 . S
C14 C13 1.407 . S
C14 C15 1.449 . S
C14 C18 1.526 . S
C15 C14 1.449 . S
C15 C16 1.384 . S
C15 C40 1.553 1_655 S
C16 C15 1.384 . S
C16 C17 1.364 . S
C16 C19 1.450 . S
C17 C12 1.367 . S
C17 C16 1.364 . S
C17 H77 0.931 . S
C18 C14 1.526 . S
C18 H78 0.928 1_655 S
C18 H79 0.959 1_655 S
C18 H80 1.003 . S
C19 C16 1.450 . S
C19 H81 0.960 . S
C19 H82 0.960 1_655 S
C19 H83 0.960 . S
C20 C21 1.309 . S
C20 C25 1.304 . S
C20 O58 1.435 . S
C21 C20 1.309 . S
C21 C22 1.476 . S
C21 H85 0.930 . S
C22 C21 1.476 . S
C22 C23 1.400 . S
C22 C26 1.567 . S
C23 C22 1.400 . S
C23 C24 1.373 . S
C23 C45 1.432 . S
C24 C23 1.373 . S
C24 C25 1.339 . S
C24 C27 1.530 . S
C25 C20 1.304 . S
C25 C24 1.339 . S
C25 H86 0.930 . S
C26 C22 1.567 . S
C26 H87 0.961 . S
C26 H88 0.960 . S
C26 H89 0.958 . S
C27 C24 1.530 . S
C27 H90 0.961 . S
C27 H91 0.960 . S
C27 H92 0.960 . S
C28 C29 1.530 . S
C28 H94 0.961 . S
C28 H95 0.961 . S
C28 H96 0.959 . S
C29 C28 1.530 . S
C29 O57 1.412 . S
C29 H93 0.980 . S
C30 C31 1.288 . S
C30 C35 1.377 . S
C30 O57 1.393 . S
C31 C30 1.288 . S
C31 C32 1.369 . S
C31 H97 0.932 . S
C32 C31 1.369 . S
C32 C33 1.398 . S
C32 C36 1.527 . S
C33 C32 1.398 . S
C33 C34 1.380 . S
C33 C47 1.497 . S
C34 C33 1.380 . S
C34 C35 1.383 . S
C34 C37 1.603 . S
C35 C30 1.377 . S
C35 C34 1.383 . S
C35 H98 0.929 . S
C36 C32 1.527 . S
C36 H99 0.961 . S
C36 H100 0.959 . S
C36 H101 0.959 . S
C37 C34 1.603 . S
C37 H102 0.960 . S
C37 H103 0.962 . S
C37 H104 0.961 . S
C38 C5 1.587 . S
C38 C39 1.360 . S
C38 C51 1.412 . S
C39 C38 1.360 . S
C39 C40 1.365 . S
C39 H105 0.929 . S
C40 C15 1.553 1_455 S
C40 C39 1.365 . S
C40 C41 1.404 . S
C41 C40 1.404 . S
C41 C42 1.395 1_455 S
C41 C52 1.451 . S
C42 C41 1.395 1_655 S
C42 C43 1.322 . S
C42 H106 0.930 . S
C43 C42 1.322 . S
C43 C44 1.459 . S
C43 H107 0.929 . S
C44 C43 1.459 . S
C44 C45 1.445 . S
C44 C53 1.395 1_655 S
C45 C23 1.432 . S
C45 C44 1.445 . S
C45 C46 1.370 . S
C46 C45 1.370 . S
C46 C47 1.438 1_655 S
C46 H108 0.930 . S
C47 C33 1.497 . S
C47 C46 1.438 1_455 S
C47 C48 1.360 . S
C48 C47 1.360 . S
C48 C49 1.401 . S
C48 C53 1.446 . S
C49 C48 1.401 . S
C49 C50 1.347 . S
C49 H109 0.929 . S
C50 C49 1.347 . S
C50 C51 1.455 . S
C50 H110 0.930 . S
C51 C38 1.412 . S
C51 C50 1.455 . S
C51 C52 1.331 . S
C52 C41 1.451 . S
C52 C51 1.331 . S
C52 C53 1.497 . S
C53 C44 1.395 1_455 S
C53 C48 1.446 . S
C53 C52 1.497 . S
C54 C55 1.582 . S
C54 H111 0.962 . S
C54 H112 0.959 . S
C54 H113 0.958 . S
C55 C54 1.582 . S
C55 O58 1.458 . S
C55 H84 0.980 . S
O56 C1 1.426 . S
O56 C2 1.334 . S
O57 C29 1.412 . S
O57 C30 1.393 . S
O58 C20 1.435 . S
O58 C55 1.458 . S
O59 C11 1.468 . S
O59 C12 1.408 . S
H60 C1 0.980 . S
H61 C0 0.959 . S
H62 C0 0.959 . S
H63 C0 0.960 . S
H64 C3 0.929 . S
H65 C7 0.929 . S
H66 C8 0.959 . S
H67 C8 0.961 . S
H68 C8 0.961 . S
H69 C9 0.960 . S
H70 C9 0.960 . S
H71 C9 0.961 . S
H72 C11 0.980 . S
H73 C10 0.961 . S
H74 C10 0.960 . S
H75 C10 0.959 . S
H76 C13 0.930 . S
H77 C17 0.931 . S
H78 C18 0.928 1_455 S
H79 C18 0.959 1_455 S
H80 C18 1.003 . S
H81 C19 0.960 . S
H82 C19 0.960 1_455 S
H83 C19 0.960 . S
H84 C55 0.980 . S
H85 C21 0.930 . S
H86 C25 0.930 . S
H87 C26 0.961 . S
H88 C26 0.960 . S
H89 C26 0.958 . S
H90 C27 0.961 . S
H91 C27 0.960 . S
H92 C27 0.960 . S
H93 C29 0.980 . S
H94 C28 0.961 . S
H95 C28 0.961 . S
H96 C28 0.959 . S
H97 C31 0.932 . S
H98 C35 0.929 . S
H99 C36 0.961 . S
H100 C36 0.959 . S
H101 C36 0.959 . S
H102 C37 0.960 . S
H103 C37 0.962 . S
H104 C37 0.961 . S
H105 C39 0.929 . S
H106 C42 0.930 . S
H107 C43 0.929 . S
H108 C46 0.930 . S
H109 C49 0.929 . S
H110 C50 0.930 . S
H111 C54 0.962 . S
H112 C54 0.959 . S
H113 C54 0.958 . S
C114 C115 1.560 . S
C114 H175 0.959 . S
C114 H176 0.959 . S
C114 H177 0.960 . S
C115 C114 1.560 . S
C115 O170 1.426 . S
C115 H174 0.980 . S
C116 C117 1.407 . S
C116 C121 1.418 . S
C116 O170 1.334 . S
C117 C116 1.407 . S
C117 C118 1.360 . S
C117 H178 0.929 . S
C118 C117 1.360 . S
C118 C119 1.401 . S
C118 C122 1.527 . S
C119 C118 1.401 . S
C119 C120 1.405 . S
C119 C152 1.587 . S
C120 C119 1.405 . S
C120 C121 1.332 . S
C120 C123 1.496 . S
C121 C116 1.418 . S
C121 C120 1.332 . S
C121 H179 0.929 . S
C122 C118 1.527 . S
C122 H180 0.959 . S
C122 H181 0.961 . S
C122 H182 0.961 . S
C123 C120 1.496 . S
C123 H183 0.960 . S
C123 H184 0.960 . S
C123 H185 0.961 . S
C124 C125 1.517 . S
C124 H187 0.961 . S
C124 H188 0.960 . S
C124 H189 0.959 . S
C125 C124 1.517 . S
C125 O173 1.468 . S
C125 H186 0.980 . S
C126 C127 1.349 . S
C126 C131 1.367 . S
C126 O173 1.408 . S
C127 C126 1.349 . S
C127 C128 1.407 . S
C127 H190 0.930 . S
C128 C127 1.407 . S
C128 C129 1.449 . S
C128 C132 1.535 . S
C129 C128 1.449 . S
C129 C130 1.384 . S
C129 C154 1.553 . S
C130 C129 1.384 . S
C130 C131 1.364 . S
C130 C133 1.450 . S
C131 C126 1.367 . S
C131 C130 1.364 . S
C131 H191 0.931 . S
C132 C128 1.535 . S
C132 H192 0.959 . S
C132 H193 0.961 . S
C132 H194 0.959 . S
C133 C130 1.450 . S
C133 H195 0.960 . S
C133 H196 0.960 . S
C133 H197 0.960 . S
C134 C135 1.309 . S
C134 C139 1.304 . S
C134 O172 1.435 . S
C135 C134 1.309 . S
C135 C136 1.476 . S
C135 H199 0.930 . S
C136 C135 1.476 . S
C136 C137 1.400 . S
C136 C140 1.567 . S
C137 C136 1.400 . S
C137 C138 1.373 . S
C137 C159 1.432 . S
C138 C137 1.373 . S
C138 C139 1.339 . S
C138 C141 1.530 . S
C139 C134 1.304 . S
C139 C138 1.339 . S
C139 H200 0.930 . S
C140 C136 1.567 . S
C140 H201 0.961 . S
C140 H202 0.960 . S
C140 H203 0.958 . S
C141 C138 1.530 . S
C141 H204 0.961 . S
C141 H205 0.960 . S
C141 H206 0.960 . S
C142 C143 1.530 . S
C142 H208 0.961 . S
C142 H209 0.961 . S
C142 H210 0.959 . S
C143 C142 1.530 . S
C143 O171 1.412 . S
C143 H207 0.980 . S
C144 C145 1.288 . S
C144 C149 1.377 . S
C144 O171 1.393 . S
C145 C144 1.288 . S
C145 C146 1.369 . S
C145 H211 0.932 . S
C146 C145 1.369 . S
C146 C147 1.398 . S
C146 C150 1.527 1_565 S
C147 C146 1.398 . S
C147 C148 1.380 . S
C147 C161 1.497 1_565 S
C148 C147 1.380 . S
C148 C149 1.383 . S
C148 C151 1.603 . S
C149 C144 1.377 . S
C149 C148 1.383 . S
C149 H212 0.929 . S
C150 C146 1.527 1_545 S
C150 H213 0.961 . S
C150 H214 0.959 . S
C150 H215 0.959 1_545 S
C151 C148 1.603 . S
C151 H216 0.960 . S
C151 H217 0.962 . S
C151 H218 0.961 . S
C152 C119 1.587 . S
C152 C153 1.360 . S
C152 C165 1.412 . S
C153 C152 1.360 . S
C153 C154 1.365 1_565 S
C153 H219 0.929 . S
C154 C129 1.553 . S
C154 C153 1.365 1_545 S
C154 C155 1.404 . S
C155 C154 1.404 . S
C155 C156 1.395 . S
C155 C166 1.451 . S
C156 C155 1.395 . S
C156 C157 1.322 . S
C156 H220 0.930 . S
C157 C156 1.322 . S
C157 C158 1.459 . S
C157 H221 0.929 . S
C158 C157 1.459 . S
C158 C159 1.445 . S
C158 C167 1.395 . S
C159 C137 1.432 . S
C159 C158 1.445 . S
C159 C160 1.370 . S
C160 C159 1.370 . S
C160 C161 1.438 . S
C160 H222 0.930 . S
C161 C147 1.497 1_545 S
C161 C160 1.438 . S
C161 C162 1.360 1_545 S
C162 C161 1.360 1_565 S
C162 C163 1.400 . S
C162 C167 1.446 1_565 S
C163 C162 1.400 . S
C163 C164 1.347 . S
C163 H223 0.929 . S
C164 C163 1.347 . S
C164 C165 1.455 . S
C164 H224 0.930 . S
C165 C152 1.412 . S
C165 C164 1.455 . S
C165 C166 1.331 1_565 S
C166 C155 1.451 . S
C166 C165 1.331 1_545 S
C166 C167 1.497 . S
C167 C158 1.395 . S
C167 C162 1.446 1_545 S
C167 C166 1.497 . S
C168 C169 1.582 . S
C168 H225 0.962 . S
C168 H226 0.959 . S
C168 H227 0.958 . S
C169 C168 1.582 . S
C169 O172 1.458 . S
C169 H198 0.980 . S
O170 C115 1.426 . S
O170 C116 1.334 . S
O171 C143 1.412 . S
O171 C144 1.393 . S
O172 C134 1.435 . S
O172 C169 1.458 . S
O173 C125 1.468 . S
O173 C126 1.408 . S
H174 C115 0.980 . S
H175 C114 0.959 . S
H176 C114 0.959 . S
H177 C114 0.960 . S
H178 C117 0.929 . S
H179 C121 0.929 . S
H180 C122 0.959 . S
H181 C122 0.961 . S
H182 C122 0.961 . S
H183 C123 0.960 . S
H184 C123 0.960 . S
H185 C123 0.961 . S
H186 C125 0.980 . S
H187 C124 0.961 . S
H188 C124 0.960 . S
H189 C124 0.959 . S
H190 C127 0.930 . S
H191 C131 0.931 . S
H192 C132 0.959 . S
H193 C132 0.961 . S
H194 C132 0.959 . S
H195 C133 0.960 . S
H196 C133 0.960 . S
H197 C133 0.960 . S
H198 C169 0.980 . S
H199 C135 0.930 . S
H200 C139 0.930 . S
H201 C140 0.961 . S
H202 C140 0.960 . S
H203 C140 0.958 . S
H204 C141 0.961 . S
H205 C141 0.960 . S
H206 C141 0.960 . S
H207 C143 0.980 . S
H208 C142 0.961 . S
H209 C142 0.961 . S
H210 C142 0.959 . S
H211 C145 0.932 . S
H212 C149 0.929 . S
H213 C150 0.961 . S
H214 C150 0.959 . S
H215 C150 0.959 1_565 S
H216 C151 0.960 . S
H217 C151 0.962 . S
H218 C151 0.961 . S
H219 C153 0.929 . S
H220 C156 0.930 . S
H221 C157 0.929 . S
H222 C160 0.930 . S
H223 C163 0.929 . S
H224 C164 0.930 . S
H225 C168 0.962 . S
H226 C168 0.959 . S
H227 C168 0.958 . S
C228 C229 1.560 . S
C228 H289 0.959 . S
C228 H290 0.959 . S
C228 H291 0.960 . S
C229 C228 1.560 . S
C229 O284 1.426 . S
C229 H288 0.980 . S
C230 C231 1.407 . S
C230 C235 1.418 . S
C230 O284 1.334 . S
C231 C230 1.407 . S
C231 C232 1.360 . S
C231 H292 0.929 . S
C232 C231 1.360 . S
C232 C233 1.401 . S
C232 C236 1.527 . S
C233 C232 1.401 . S
C233 C234 1.405 . S
C233 C266 1.587 . S
C234 C233 1.405 . S
C234 C235 1.332 . S
C234 C237 1.496 . S
C235 C230 1.418 . S
C235 C234 1.332 . S
C235 H293 0.929 . S
C236 C232 1.527 . S
C236 H294 0.959 . S
C236 H295 0.961 . S
C236 H296 0.961 . S
C237 C234 1.496 . S
C237 H297 0.960 . S
C237 H298 0.960 . S
C237 H299 0.961 . S
C238 C239 1.517 . S
C238 H301 0.961 . S
C238 H302 0.960 . S
C238 H303 0.959 . S
C239 C238 1.517 . S
C239 O287 1.468 . S
C239 H300 0.980 . S
C240 C241 1.349 . S
C240 C245 1.367 . S
C240 O287 1.408 . S
C241 C240 1.349 . S
C241 C242 1.407 . S
C241 H304 0.930 . S
C242 C241 1.407 . S
C242 C243 1.449 . S
C242 C246 1.535 . S
C243 C242 1.449 . S
C243 C244 1.384 . S
C243 C268 1.553 . S
C244 C243 1.384 . S
C244 C245 1.364 . S
C244 C247 1.450 . S
C245 C240 1.367 . S
C245 C244 1.364 . S
C245 H305 0.931 . S
C246 C242 1.535 . S
C246 H306 0.959 . S
C246 H307 0.961 . S
C246 H308 0.959 . S
C247 C244 1.450 . S
C247 H309 0.960 . S
C247 H310 0.960 . S
C247 H311 0.960 . S
C248 C249 1.309 . S
C248 C253 1.304 . S
C248 O286 1.435 . S
C249 C248 1.309 . S
C249 C250 1.476 . S
C249 H313 0.930 . S
C250 C249 1.476 . S
C250 C251 1.400 . S
C250 C254 1.567 . S
C251 C250 1.400 . S
C251 C252 1.373 . S
C251 C273 1.432 . S
C252 C251 1.373 . S
C252 C253 1.339 . S
C252 C255 1.530 . S
C253 C248 1.304 . S
C253 C252 1.339 . S
C253 H314 0.930 . S
C254 C250 1.567 . S
C254 H315 0.961 . S
C254 H316 0.960 . S
C254 H317 0.958 . S
C255 C252 1.530 . S
C255 H318 0.961 . S
C255 H319 0.960 . S
C255 H320 0.960 . S
C256 C257 1.530 . S
C256 H322 0.961 . S
C256 H323 0.961 . S
C256 H324 0.959 . S
C257 C256 1.530 . S
C257 O285 1.412 . S
C257 H321 0.980 . S
C258 C259 1.288 . S
C258 C263 1.377 . S
C258 O285 1.393 . S
C259 C258 1.288 . S
C259 C260 1.369 . S
C259 H325 0.932 . S
C260 C259 1.369 . S
C260 C261 1.398 . S
C260 C264 1.527 . S
C261 C260 1.398 . S
C261 C262 1.380 . S
C261 C275 1.497 . S
C262 C261 1.380 . S
C262 C263 1.383 . S
C262 C265 1.603 . S
C263 C258 1.377 . S
C263 C262 1.383 . S
C263 H326 0.929 . S
C264 C260 1.527 . S
C264 H327 0.961 . S
C264 H328 0.959 . S
C264 H329 0.959 . S
C265 C262 1.603 . S
C265 H330 0.960 . S
C265 H331 0.962 . S
C265 H332 0.961 . S
C266 C233 1.587 . S
C266 C267 1.360 . S
C266 C279 1.412 . S
C267 C266 1.360 . S
C267 C268 1.365 . S
C267 H333 0.929 . S
C268 C243 1.553 . S
C268 C267 1.365 . S
C268 C269 1.404 . S
C269 C268 1.404 . S
C269 C270 1.395 . S
C269 C280 1.451 . S
C270 C269 1.395 . S
C270 C271 1.322 . S
C270 H334 0.930 . S
C271 C270 1.322 . S
C271 C272 1.459 . S
C271 H335 0.929 . S
C272 C271 1.459 . S
C272 C273 1.445 . S
C272 C281 1.395 . S
C273 C251 1.432 . S
C273 C272 1.445 . S
C273 C274 1.370 . S
C274 C273 1.370 . S
C274 C275 1.438 . S
C274 H336 0.930 . S
C275 C261 1.497 . S
C275 C274 1.438 . S
C275 C276 1.360 . S
C276 C275 1.360 . S
C276 C277 1.401 . S
C276 C281 1.446 . S
C277 C276 1.401 . S
C277 C278 1.347 . S
C277 H337 0.929 . S
C278 C277 1.347 . S
C278 C279 1.455 . S
C278 H338 0.930 . S
C279 C266 1.412 . S
C279 C278 1.455 . S
C279 C280 1.331 . S
C280 C269 1.451 . S
C280 C279 1.331 . S
C280 C281 1.497 . S
C281 C272 1.395 . S
C281 C276 1.446 . S
C281 C280 1.497 . S
C282 C283 1.582 . S
C282 H339 0.962 . S
C282 H340 0.959 . S
C282 H341 0.958 . S
C283 C282 1.582 . S
C283 O286 1.458 . S
C283 H312 0.980 . S
O284 C229 1.426 . S
O284 C230 1.334 . S
O285 C257 1.412 . S
O285 C258 1.393 . S
O286 C248 1.435 . S
O286 C283 1.458 . S
O287 C239 1.468 . S
O287 C240 1.408 . S
H288 C229 0.980 . S
H289 C228 0.959 . S
H290 C228 0.959 . S
H291 C228 0.960 . S
H292 C231 0.929 . S
H293 C235 0.929 . S
H294 C236 0.959 . S
H295 C236 0.961 . S
H296 C236 0.961 . S
H297 C237 0.960 . S
H298 C237 0.960 . S
H299 C237 0.961 . S
H300 C239 0.980 . S
H301 C238 0.961 . S
H302 C238 0.960 . S
H303 C238 0.959 . S
H304 C241 0.930 . S
H305 C245 0.931 . S
H306 C246 0.959 . S
H307 C246 0.961 . S
H308 C246 0.959 . S
H309 C247 0.960 . S
H310 C247 0.960 . S
H311 C247 0.960 . S
H312 C283 0.980 . S
H313 C249 0.930 . S
H314 C253 0.930 . S
H315 C254 0.961 . S
H316 C254 0.960 . S
H317 C254 0.958 . S
H318 C255 0.961 . S
H319 C255 0.960 . S
H320 C255 0.960 . S
H321 C257 0.980 . S
H322 C256 0.961 . S
H323 C256 0.961 . S
H324 C256 0.959 . S
H325 C259 0.932 . S
H326 C263 0.929 . S
H327 C264 0.961 . S
H328 C264 0.959 . S
H329 C264 0.959 . S
H330 C265 0.960 . S
H331 C265 0.962 . S
H332 C265 0.961 . S
H333 C267 0.929 . S
H334 C270 0.930 . S
H335 C271 0.929 . S
H336 C274 0.930 . S
H337 C277 0.929 . S
H338 C278 0.930 . S
H339 C282 0.962 . S
H340 C282 0.959 . S
H341 C282 0.958 . S
C342 C343 1.560 . S
C342 H403 0.959 . S
C342 H404 0.959 . S
C342 H405 0.960 . S
C343 C342 1.560 . S
C343 O398 1.426 . S
C343 H402 0.980 . S
C344 C345 1.407 . S
C344 C349 1.418 . S
C344 O398 1.334 . S
C345 C344 1.407 . S
C345 C346 1.360 . S
C345 H406 0.929 . S
C346 C345 1.360 . S
C346 C347 1.401 . S
C346 C350 1.527 . S
C347 C346 1.401 . S
C347 C348 1.405 . S
C347 C380 1.587 . S
C348 C347 1.405 . S
C348 C349 1.332 . S
C348 C351 1.496 . S
C349 C344 1.418 . S
C349 C348 1.332 . S
C349 H407 0.929 . S
C350 C346 1.527 . S
C350 H408 0.959 . S
C350 H409 0.961 . S
C350 H410 0.961 . S
C351 C348 1.496 . S
C351 H411 0.960 . S
C351 H412 0.960 . S
C351 H413 0.961 . S
C352 C353 1.517 . S
C352 H415 0.961 . S
C352 H416 0.960 . S
C352 H417 0.959 . S
C353 C352 1.517 . S
C353 O401 1.468 . S
C353 H414 0.980 . S
C354 C355 1.349 . S
C354 C359 1.367 . S
C354 O401 1.408 . S
C355 C354 1.349 . S
C355 C356 1.407 . S
C355 H418 0.930 . S
C356 C355 1.407 . S
C356 C357 1.449 . S
C356 C360 1.535 . S
C357 C356 1.449 . S
C357 C358 1.384 . S
C357 C382 1.553 1_655 S
C358 C357 1.384 . S
C358 C359 1.364 . S
C358 C361 1.450 . S
C359 C354 1.367 . S
C359 C358 1.364 . S
C359 H419 0.931 . S
C360 C356 1.535 . S
C360 H420 0.959 1_655 S
C360 H421 0.961 1_655 S
C360 H422 0.959 . S
C361 C358 1.450 . S
C361 H423 0.960 . S
C361 H424 0.960 1_655 S
C361 H425 0.960 . S
C362 C363 1.309 . S
C362 C367 1.304 . S
C362 O400 1.435 . S
C363 C362 1.309 . S
C363 C364 1.476 . S
C363 H427 0.930 . S
C364 C363 1.476 . S
C364 C365 1.400 . S
C364 C368 1.567 . S
C365 C364 1.400 . S
C365 C366 1.373 . S
C365 C387 1.432 . S
C366 C365 1.373 . S
C366 C367 1.339 . S
C366 C369 1.530 . S
C367 C362 1.304 . S
C367 C366 1.339 . S
C367 H428 0.930 . S
C368 C364 1.567 . S
C368 H429 0.961 . S
C368 H430 0.960 . S
C368 H431 0.958 . S
C369 C366 1.530 . S
C369 H432 0.961 . S
C369 H433 0.960 . S
C369 H434 0.960 . S
C370 C371 1.530 . S
C370 H436 0.961 . S
C370 H437 0.961 . S
C370 H438 0.959 . S
C371 C370 1.530 . S
C371 O399 1.412 . S
C371 H435 0.980 . S
C372 C373 1.288 . S
C372 C377 1.377 . S
C372 O399 1.393 . S
C373 C372 1.288 . S
C373 C374 1.369 . S
C373 H439 0.932 . S
C374 C373 1.369 . S
C374 C375 1.398 . S
C374 C378 1.527 . S
C375 C374 1.398 . S
C375 C376 1.380 . S
C375 C389 1.497 . S
C376 C375 1.380 . S
C376 C377 1.383 . S
C376 C379 1.603 . S
C377 C372 1.377 . S
C377 C376 1.383 . S
C377 H440 0.929 . S
C378 C374 1.527 . S
C378 H441 0.961 . S
C378 H442 0.959 1_455 S
C378 H443 0.959 . S
C379 C376 1.603 . S
C379 H444 0.960 . S
C379 H445 0.962 . S
C379 H446 0.961 . S
C380 C347 1.587 . S
C380 C381 1.360 . S
C380 C393 1.412 . S
C381 C380 1.360 . S
C381 C382 1.365 . S
C381 H447 0.929 . S
C382 C357 1.553 1_455 S
C382 C381 1.365 . S
C382 C383 1.404 . S
C383 C382 1.404 . S
C383 C384 1.395 1_455 S
C383 C394 1.451 . S
C384 C383 1.395 1_655 S
C384 C385 1.322 . S
C384 H448 0.930 . S
C385 C384 1.322 . S
C385 C386 1.459 . S
C385 H449 0.929 . S
C386 C385 1.459 . S
C386 C387 1.445 . S
C386 C395 1.395 1_655 S
C387 C365 1.432 . S
C387 C386 1.445 . S
C387 C388 1.370 . S
C388 C387 1.370 . S
C388 C389 1.438 1_655 S
C388 H450 0.930 . S
C389 C375 1.497 . S
C389 C388 1.438 1_455 S
C389 C390 1.360 . S
C390 C389 1.360 . S
C390 C391 1.401 . S
C390 C395 1.446 . S
C391 C390 1.401 . S
C391 C392 1.347 . S
C391 H451 0.929 . S
C392 C391 1.347 . S
C392 C393 1.455 . S
C392 H452 0.930 . S
C393 C380 1.412 . S
C393 C392 1.455 . S
C393 C394 1.331 . S
C394 C383 1.451 . S
C394 C393 1.331 . S
C394 C395 1.497 . S
C395 C386 1.395 1_455 S
C395 C390 1.446 . S
C395 C394 1.497 . S
C396 C397 1.582 . S
C396 H453 0.962 . S
C396 H454 0.959 . S
C396 H455 0.958 . S
C397 C396 1.582 . S
C397 O400 1.458 . S
C397 H426 0.980 . S
O398 C343 1.426 . S
O398 C344 1.334 . S
O399 C371 1.412 . S
O399 C372 1.393 . S
O400 C362 1.435 . S
O400 C397 1.458 . S
O401 C353 1.468 . S
O401 C354 1.408 . S
H402 C343 0.980 . S
H403 C342 0.959 . S
H404 C342 0.959 . S
H405 C342 0.960 . S
H406 C345 0.929 . S
H407 C349 0.929 . S
H408 C350 0.959 . S
H409 C350 0.961 . S
H410 C350 0.961 . S
H411 C351 0.960 . S
H412 C351 0.960 . S
H413 C351 0.961 . S
H414 C353 0.980 . S
H415 C352 0.961 . S
H416 C352 0.960 . S
H417 C352 0.959 . S
H418 C355 0.930 . S
H419 C359 0.931 . S
H420 C360 0.959 1_455 S
H421 C360 0.961 1_455 S
H422 C360 0.959 . S
H423 C361 0.960 . S
H424 C361 0.960 1_455 S
H425 C361 0.960 . S
H426 C397 0.980 . S
H427 C363 0.930 . S
H428 C367 0.930 . S
H429 C368 0.961 . S
H430 C368 0.960 . S
H431 C368 0.958 . S
H432 C369 0.961 . S
H433 C369 0.960 . S
H434 C369 0.960 . S
H435 C371 0.980 . S
H436 C370 0.961 . S
H437 C370 0.961 . S
H438 C370 0.959 . S
H439 C373 0.932 . S
H440 C377 0.929 . S
H441 C378 0.961 . S
H442 C378 0.959 1_655 S
H443 C378 0.959 . S
H444 C379 0.960 . S
H445 C379 0.962 . S
H446 C379 0.961 . S
H447 C381 0.929 . S
H448 C384 0.930 . S
H449 C385 0.929 . S
H450 C388 0.930 . S
H451 C391 0.929 . S
H452 C392 0.930 . S
H453 C396 0.962 . S
H454 C396 0.959 . S
H455 C396 0.958 . S
C456 C457 1.560 . S
C456 H517 0.959 . S
C456 H518 0.959 . S
C456 H519 0.960 . S
C457 C456 1.560 . S
C457 O512 1.426 . S
C457 H516 0.980 . S
C458 C459 1.407 . S
C458 C463 1.418 . S
C458 O512 1.334 . S
C459 C458 1.407 . S
C459 C460 1.360 . S
C459 H520 0.929 . S
C460 C459 1.360 . S
C460 C461 1.401 . S
C460 C464 1.527 . S
C461 C460 1.401 . S
C461 C462 1.405 . S
C461 C494 1.587 . S
C462 C461 1.405 . S
C462 C463 1.332 . S
C462 C465 1.496 . S
C463 C458 1.418 . S
C463 C462 1.332 . S
C463 H521 0.929 . S
C464 C460 1.527 . S
C464 H522 0.959 . S
C464 H523 0.961 . S
C464 H524 0.961 . S
C465 C462 1.496 . S
C465 H525 0.960 . S
C465 H526 0.960 . S
C465 H527 0.961 . S
C466 C467 1.517 . S
C466 H529 0.961 . S
C466 H530 0.960 . S
C466 H531 0.959 . S
C467 C466 1.517 . S
C467 O515 1.468 . S
C467 H528 0.980 . S
C468 C469 1.349 . S
C468 C473 1.367 . S
C468 O515 1.408 . S
C469 C468 1.349 . S
C469 C470 1.407 . S
C469 H532 0.930 . S
C470 C469 1.407 . S
C470 C471 1.449 . S
C470 C474 1.535 . S
C471 C470 1.449 . S
C471 C472 1.384 . S
C471 C496 1.553 . S
C472 C471 1.384 . S
C472 C473 1.364 . S
C472 C475 1.450 . S
C473 C468 1.367 . S
C473 C472 1.364 . S
C473 H533 0.931 . S
C474 C470 1.535 . S
C474 H534 0.959 . S
C474 H535 0.961 . S
C474 H536 0.959 . S
C475 C472 1.450 . S
C475 H537 0.960 . S
C475 H538 0.960 . S
C475 H539 0.960 . S
C476 C477 1.309 . S
C476 C481 1.304 . S
C476 O514 1.435 . S
C477 C476 1.309 . S
C477 C478 1.476 . S
C477 H541 0.930 . S
C478 C477 1.476 . S
C478 C479 1.400 . S
C478 C482 1.567 . S
C479 C478 1.400 . S
C479 C480 1.373 . S
C479 C501 1.432 . S
C480 C479 1.373 . S
C480 C481 1.339 . S
C480 C483 1.530 . S
C481 C476 1.304 . S
C481 C480 1.339 . S
C481 H542 0.930 . S
C482 C478 1.567 . S
C482 H543 0.961 . S
C482 H544 0.960 . S
C482 H545 0.958 . S
C483 C480 1.530 . S
C483 H546 0.961 . S
C483 H547 0.960 . S
C483 H548 0.960 . S
C484 C485 1.530 . S
C484 H550 0.961 . S
C484 H551 0.961 . S
C484 H552 0.959 . S
C485 C484 1.530 . S
C485 O513 1.412 . S
C485 H549 0.980 . S
C486 C487 1.288 . S
C486 C491 1.377 . S
C486 O513 1.393 . S
C487 C486 1.288 . S
C487 C488 1.369 . S
C487 H553 0.932 . S
C488 C487 1.369 . S
C488 C489 1.398 . S
C488 C492 1.527 1_565 S
C489 C488 1.398 . S
C489 C490 1.380 . S
C489 C503 1.497 1_565 S
C490 C489 1.380 . S
C490 C491 1.383 . S
C490 C493 1.603 . S
C491 C486 1.377 . S
C491 C490 1.383 . S
C491 H554 0.929 . S
C492 C488 1.527 1_545 S
C492 H555 0.963 . S
C492 H556 0.959 . S
C492 H557 0.959 1_545 S
C493 C490 1.603 . S
C493 H558 0.960 . S
C493 H559 0.962 . S
C493 H560 0.961 . S
C494 C461 1.587 . S
C494 C495 1.360 . S
C494 C507 1.412 . S
C495 C494 1.360 . S
C495 C496 1.365 1_565 S
C495 H561 0.929 . S
C496 C471 1.553 . S
C496 C495 1.365 1_545 S
C496 C497 1.404 . S
C497 C496 1.404 . S
C497 C498 1.395 . S
C497 C508 1.441 1_545 S
C498 C497 1.395 . S
C498 C499 1.322 . S
C498 H562 0.930 . S
C499 C498 1.322 . S
C499 C500 1.459 . S
C499 H563 0.929 . S
C500 C499 1.459 . S
C500 C501 1.445 1_556 S
C500 C509 1.395 . S
C501 C479 1.432 . S
C501 C500 1.445 1_554 S
C501 C502 1.370 . S
C502 C501 1.370 . S
C502 C503 1.438 . S
C502 H564 0.930 . S
C503 C489 1.497 1_545 S
C503 C502 1.438 . S
C503 C504 1.360 1_545 S
C504 C503 1.360 1_565 S
C504 C505 1.401 . S
C504 C509 1.446 1_564 S
C505 C504 1.401 . S
C505 C506 1.347 1_554 S
C505 H565 0.929 . S
C506 C505 1.347 1_556 S
C506 C507 1.455 . S
C506 H566 0.930 . S
C507 C494 1.412 . S
C507 C506 1.455 . S
C507 C508 1.345 . S
C508 C497 1.441 1_565 S
C508 C507 1.345 . S
C508 C509 1.492 1_565 S
C509 C500 1.395 . S
C509 C504 1.446 1_546 S
C509 C508 1.492 1_545 S
C510 C511 1.582 . S
C510 H567 0.962 . S
C510 H568 0.959 . S
C510 H569 0.958 . S
C511 C510 1.582 . S
C511 O514 1.458 . S
C511 H540 0.980 . S
O512 C457 1.426 . S
O512 C458 1.334 . S
O513 C485 1.412 . S
O513 C486 1.393 . S
O514 C476 1.435 . S
O514 C511 1.458 . S
O515 C467 1.468 . S
O515 C468 1.408 . S
H516 C457 0.980 . S
H517 C456 0.959 . S
H518 C456 0.959 . S
H519 C456 0.960 . S
H520 C459 0.929 . S
H521 C463 0.929 . S
H522 C464 0.959 . S
H523 C464 0.961 . S
H524 C464 0.961 . S
H525 C465 0.960 . S
H526 C465 0.960 . S
H527 C465 0.961 . S
H528 C467 0.980 . S
H529 C466 0.961 . S
H530 C466 0.960 . S
H531 C466 0.959 . S
H532 C469 0.930 . S
H533 C473 0.931 . S
H534 C474 0.959 . S
H535 C474 0.961 . S
H536 C474 0.959 . S
H537 C475 0.960 . S
H538 C475 0.960 . S
H539 C475 0.960 . S
H540 C511 0.980 . S
H541 C477 0.930 . S
H542 C481 0.930 . S
H543 C482 0.961 . S
H544 C482 0.960 . S
H545 C482 0.958 . S
H546 C483 0.961 . S
H547 C483 0.960 . S
H548 C483 0.960 . S
H549 C485 0.980 . S
H550 C484 0.961 . S
H551 C484 0.961 . S
H552 C484 0.959 . S
H553 C487 0.932 . S
H554 C491 0.929 . S
H555 C492 0.963 . S
H556 C492 0.959 . S
H557 C492 0.959 1_565 S
H558 C493 0.960 . S
H559 C493 0.962 . S
H560 C493 0.961 . S
H561 C495 0.929 . S
H562 C498 0.930 . S
H563 C499 0.929 . S
H564 C502 0.930 . S
H565 C505 0.929 . S
H566 C506 0.930 . S
H567 C510 0.962 . S
H568 C510 0.959 . S
H569 C510 0.958 . S
C570 C571 1.560 . S
C570 H631 0.959 . S
C570 H632 0.959 . S
C570 H633 0.960 . S
C571 C570 1.560 . S
C571 O626 1.426 . S
C571 H630 0.980 . S
C572 C573 1.407 . S
C572 C577 1.418 . S
C572 O626 1.334 . S
C573 C572 1.407 . S
C573 C574 1.360 . S
C573 H634 0.929 . S
C574 C573 1.360 . S
C574 C575 1.401 . S
C574 C578 1.527 . S
C575 C574 1.401 . S
C575 C576 1.405 . S
C575 C608 1.587 . S
C576 C575 1.405 . S
C576 C577 1.332 . S
C576 C579 1.496 . S
C577 C572 1.418 . S
C577 C576 1.332 . S
C577 H635 0.929 . S
C578 C574 1.527 . S
C578 H636 0.959 . S
C578 H637 0.961 . S
C578 H638 0.961 . S
C579 C576 1.496 . S
C579 H639 0.960 . S
C579 H640 0.960 . S
C579 H641 0.961 . S
C580 C581 1.517 . S
C580 H643 0.961 . S
C580 H644 0.960 . S
C580 H645 0.959 . S
C581 C580 1.517 . S
C581 O629 1.468 . S
C581 H642 0.980 . S
C582 C583 1.349 . S
C582 C587 1.367 . S
C582 O629 1.408 . S
C583 C582 1.349 . S
C583 C584 1.407 . S
C583 H646 0.930 . S
C584 C583 1.407 . S
C584 C585 1.449 . S
C584 C588 1.535 . S
C585 C584 1.449 . S
C585 C586 1.384 . S
C585 C610 1.553 . S
C586 C585 1.384 . S
C586 C587 1.364 . S
C586 C589 1.450 . S
C587 C582 1.367 . S
C587 C586 1.364 . S
C587 H647 0.931 . S
C588 C584 1.535 . S
C588 H648 0.959 . S
C588 H649 0.961 . S
C588 H650 0.959 . S
C589 C586 1.450 . S
C589 H651 0.960 . S
C589 H652 0.960 . S
C589 H653 0.960 . S
C590 C591 1.309 . S
C590 C595 1.304 . S
C590 O628 1.435 . S
C591 C590 1.309 . S
C591 C592 1.476 . S
C591 H655 0.930 . S
C592 C591 1.476 . S
C592 C593 1.400 . S
C592 C596 1.567 . S
C593 C592 1.400 . S
C593 C594 1.373 . S
C593 C615 1.432 . S
C594 C593 1.373 . S
C594 C595 1.339 . S
C594 C597 1.530 . S
C595 C590 1.304 . S
C595 C594 1.339 . S
C595 H656 0.930 . S
C596 C592 1.567 . S
C596 H657 0.961 . S
C596 H658 0.960 . S
C596 H659 0.958 . S
C597 C594 1.530 . S
C597 H660 0.961 . S
C597 H661 0.960 . S
C597 H662 0.960 . S
C598 C599 1.530 . S
C598 H664 0.961 . S
C598 H665 0.961 . S
C598 H666 0.959 . S
C599 C598 1.530 . S
C599 O627 1.412 . S
C599 H663 0.980 . S
C600 C601 1.288 . S
C600 C605 1.377 . S
C600 O627 1.393 . S
C601 C600 1.288 . S
C601 C602 1.369 . S
C601 H667 0.932 . S
C602 C601 1.369 . S
C602 C603 1.398 . S
C602 C606 1.527 . S
C603 C602 1.398 . S
C603 C604 1.380 . S
C603 C617 1.497 . S
C604 C603 1.380 . S
C604 C605 1.383 . S
C604 C607 1.603 . S
C605 C600 1.377 . S
C605 C604 1.383 . S
C605 H668 0.929 . S
C606 C602 1.527 . S
C606 H669 0.961 . S
C606 H670 0.959 . S
C606 H671 0.959 . S
C607 C604 1.603 . S
C607 H672 0.960 . S
C607 H673 0.962 . S
C607 H674 0.961 . S
C608 C575 1.587 . S
C608 C609 1.360 . S
C608 C621 1.412 . S
C609 C608 1.360 . S
C609 C610 1.365 . S
C609 H675 0.929 . S
C610 C585 1.553 . S
C610 C609 1.365 . S
C610 C611 1.404 . S
C611 C610 1.404 . S
C611 C612 1.395 . S
C611 C622 1.451 . S
C612 C611 1.395 . S
C612 C613 1.322 . S
C612 H676 0.930 . S
C613 C612 1.322 . S
C613 C614 1.459 . S
C613 H677 0.929 . S
C614 C613 1.459 . S
C614 C615 1.445 . S
C614 C623 1.395 . S
C615 C593 1.432 . S
C615 C614 1.445 . S
C615 C616 1.370 . S
C616 C615 1.370 . S
C616 C617 1.438 . S
C616 H678 0.930 . S
C617 C603 1.497 . S
C617 C616 1.438 . S
C617 C618 1.360 . S
C618 C617 1.360 . S
C618 C619 1.401 . S
C618 C623 1.446 . S
C619 C618 1.401 . S
C619 C620 1.347 . S
C619 H679 0.929 . S
C620 C619 1.347 . S
C620 C621 1.455 . S
C620 H680 0.930 . S
C621 C608 1.412 . S
C621 C620 1.455 . S
C621 C622 1.331 . S
C622 C611 1.451 . S
C622 C621 1.331 . S
C622 C623 1.497 . S
C623 C614 1.395 . S
C623 C618 1.446 . S
C623 C622 1.497 . S
C624 C625 1.582 . S
C624 H681 0.962 . S
C624 H682 0.959 . S
C624 H683 0.958 . S
C625 C624 1.582 . S
C625 O628 1.458 . S
C625 H654 0.980 . S
O626 C571 1.426 . S
O626 C572 1.334 . S
O627 C599 1.412 . S
O627 C600 1.393 . S
O628 C590 1.435 . S
O628 C625 1.458 . S
O629 C581 1.468 . S
O629 C582 1.408 . S
H630 C571 0.980 . S
H631 C570 0.959 . S
H632 C570 0.959 . S
H633 C570 0.960 . S
H634 C573 0.929 . S
H635 C577 0.929 . S
H636 C578 0.959 . S
H637 C578 0.961 . S
H638 C578 0.961 . S
H639 C579 0.960 . S
H640 C579 0.960 . S
H641 C579 0.961 . S
H642 C581 0.980 . S
H643 C580 0.961 . S
H644 C580 0.960 . S
H645 C580 0.959 . S
H646 C583 0.930 . S
H647 C587 0.931 . S
H648 C588 0.959 . S
H649 C588 0.961 . S
H650 C588 0.959 . S
H651 C589 0.960 . S
H652 C589 0.960 . S
H653 C589 0.960 . S
H654 C625 0.980 . S
H655 C591 0.930 . S
H656 C595 0.930 . S
H657 C596 0.961 . S
H658 C596 0.960 . S
H659 C596 0.958 . S
H660 C597 0.961 . S
H661 C597 0.960 . S
H662 C597 0.960 . S
H663 C599 0.980 . S
H664 C598 0.961 . S
H665 C598 0.961 . S
H666 C598 0.959 . S
H667 C601 0.932 . S
H668 C605 0.929 . S
H669 C606 0.961 . S
H670 C606 0.959 . S
H671 C606 0.959 . S
H672 C607 0.960 . S
H673 C607 0.962 . S
H674 C607 0.961 . S
H675 C609 0.929 . S
H676 C612 0.930 . S
H677 C613 0.929 . S
H678 C616 0.930 . S
H679 C619 0.929 . S
H680 C620 0.930 . S
H681 C624 0.962 . S
H682 C624 0.959 . S
H683 C624 0.958 . S
Co684 O685 2.216 . S
Co684 O686 2.091 . S
Co684 O688 2.004 . S
Co684 O694 2.021 . S
Co684 O696 2.137 . S
Co684 O697 2.244 . S
O685 Co684 2.216 . S
O685 C692 1.247 . S
O686 Co684 2.091 . S
O686 C692 1.261 . S
C687 O696 1.247 . S
C687 O697 1.272 . S
O688 Co684 2.004 . S
O688 C693 1.259 . S
Co689 O690 2.061 . S
Co689 O695 2.052 . S
Co689 O697 2.135 . S
O690 Co689 2.061 . S
O690 C693 1.235 . S
C691 O694 1.238 . S
C691 O695 1.241 . S
C692 O685 1.247 . S
C692 O686 1.261 . S
C693 O688 1.259 . S
C693 O690 1.235 . S
O694 Co684 2.021 . S
O694 C691 1.238 . S
O695 Co689 2.052 . S
O695 C691 1.241 . S
O696 Co684 2.137 . S
O696 C687 1.247 . S
O697 Co684 2.244 . S
O697 C687 1.272 . S
O697 Co689 2.135 . S
Co698 O699 2.216 . S
Co698 O700 2.091 . S
Co698 O702 2.004 . S
Co698 O708 2.021 . S
Co698 O710 2.137 . S
Co698 O711 2.244 . S
O699 Co698 2.216 . S
O699 C706 1.247 . S
O700 Co698 2.091 . S
O700 C706 1.261 . S
C701 O710 1.247 . S
C701 O711 1.272 . S
O702 Co698 2.004 . S
O702 C707 1.259 . S
Co703 O704 2.061 . S
Co703 O709 2.052 . S
Co703 O711 2.135 . S
O704 Co703 2.061 . S
O704 C707 1.235 . S
C705 O708 1.238 . S
C705 O709 1.241 . S
C706 O699 1.247 . S
C706 O700 1.261 . S
C707 O702 1.259 . S
C707 O704 1.235 . S
O708 Co698 2.021 . S
O708 C705 1.238 . S
O709 Co703 2.052 . S
O709 C705 1.241 . S
O710 Co698 2.137 . S
O710 C701 1.247 . S
O711 Co698 2.244 . S
O711 C701 1.272 . S
O711 Co703 2.135 . S
Co712 O713 2.216 . S
Co712 O714 2.091 . S
Co712 O716 2.004 . S
Co712 O722 2.021 . S
Co712 O724 2.137 . S
Co712 O725 2.244 . S
O713 Co712 2.216 . S
O713 C720 1.247 . S
O714 Co712 2.091 . S
O714 C720 1.261 . S
C715 O724 1.247 . S
C715 O725 1.272 . S
O716 Co712 2.004 . S
O716 C721 1.259 . S
Co717 O718 2.061 . S
Co717 O723 2.052 . S
Co717 O725 2.135 . S
O718 Co717 2.061 . S
O718 C721 1.235 . S
C719 O722 1.238 . S
C719 O723 1.241 . S
C720 O713 1.247 . S
C720 O714 1.261 . S
C721 O716 1.259 . S
C721 O718 1.235 . S
O722 Co712 2.021 . S
O722 C719 1.238 . S
O723 Co717 2.052 . S
O723 C719 1.241 . S
O724 Co712 2.137 . S
O724 C715 1.247 . S
O725 Co712 2.244 . S
O725 C715 1.272 . S
O725 Co717 2.135 . S
Co726 O727 2.216 . S
Co726 O728 2.091 . S
Co726 O730 2.004 . S
Co726 O736 2.021 . S
Co726 O738 2.137 . S
Co726 O739 2.244 . S
O727 Co726 2.216 . S
O727 C734 1.247 . S
O728 Co726 2.091 . S
O728 C734 1.261 . S
C729 O738 1.247 . S
C729 O739 1.272 . S
O730 Co726 2.004 . S
O730 C735 1.259 . S
Co731 O732 2.061 . S
Co731 O737 2.052 . S
Co731 O739 2.135 . S
O732 Co731 2.061 . S
O732 C735 1.235 . S
C733 O736 1.238 . S
C733 O737 1.241 . S
C734 O727 1.247 . S
C734 O728 1.261 . S
C735 O730 1.259 . S
C735 O732 1.235 . S
O736 Co726 2.021 . S
O736 C733 1.238 . S
O737 Co731 2.052 . S
O737 C733 1.241 . S
O738 Co726 2.137 . S
O738 C729 1.247 . S
O739 Co726 2.244 . S
O739 C729 1.272 . S
O739 Co731 2.135 . S
Co740 O741 2.216 . S
Co740 O742 2.091 . S
Co740 O744 2.004 . S
Co740 O750 2.021 . S
Co740 O752 2.137 . S
Co740 O753 2.244 . S
O741 Co740 2.216 . S
O741 C748 1.247 . S
O742 Co740 2.091 . S
O742 C748 1.261 . S
C743 O752 1.247 . S
C743 O753 1.272 . S
O744 Co740 2.004 . S
O744 C749 1.259 . S
Co745 O746 2.061 . S
Co745 O751 2.052 . S
Co745 O753 2.135 . S
O746 Co745 2.061 . S
O746 C749 1.235 . S
C747 O750 1.238 . S
C747 O751 1.241 . S
C748 O741 1.247 . S
C748 O742 1.261 . S
C749 O744 1.259 . S
C749 O746 1.235 . S
O750 Co740 2.021 . S
O750 C747 1.238 . S
O751 Co745 2.052 . S
O751 C747 1.241 . S
O752 Co740 2.137 . S
O752 C743 1.247 . S
O753 Co740 2.244 . S
O753 C743 1.272 . S
O753 Co745 2.135 . S
Co754 O755 2.216 . S
Co754 O756 2.091 . S
Co754 O758 2.004 . S
Co754 O764 2.021 . S
Co754 O766 2.137 . S
Co754 O767 2.244 . S
O755 Co754 2.216 . S
O755 C762 1.247 . S
O756 Co754 2.091 . S
O756 C762 1.261 . S
C757 O766 1.247 . S
C757 O767 1.272 . S
O758 Co754 2.004 . S
O758 C763 1.259 . S
Co759 O760 2.061 . S
Co759 O765 2.052 . S
Co759 O767 2.135 . S
O760 Co759 2.061 . S
O760 C763 1.235 . S
C761 O764 1.238 . S
C761 O765 1.241 . S
C762 O755 1.247 . S
C762 O756 1.261 . S
C763 O758 1.259 . S
C763 O760 1.235 . S
O764 Co754 2.021 . S
O764 C761 1.238 . S
O765 Co759 2.052 . S
O765 C761 1.241 . S
O766 Co754 2.137 . S
O766 C757 1.247 . S
O767 Co754 2.244 . S
O767 C757 1.272 . S
O767 Co759 2.135 . S
H768 C774 0.930 . S
H769 C778 0.930 . S
H770 C783 0.929 . S
H771 C781 0.929 . S
H772 C776 0.929 . S
H773 C782 0.929 . S
C774 H768 0.930 . S
C774 C775 1.367 . S
C774 C782 1.378 . S
C775 C774 1.367 . S
C775 C783 1.433 . S
C776 H772 0.929 . S
C776 C778 1.378 . S
C776 C780 1.350 . S
C777 C780 1.463 . S
C777 C782 1.350 . S
C777 N785 1.427 . S
C778 H769 0.930 . S
C778 C776 1.378 . S
C778 C779 1.367 . S
C779 C778 1.367 . S
C779 C781 1.433 . S
C780 C776 1.350 . S
C780 C777 1.463 . S
C780 N784 1.427 . S
C781 H771 0.929 . S
C781 C779 1.433 . S
C781 N784 1.384 . S
C782 H773 0.929 . S
C782 C774 1.378 . S
C782 C777 1.350 . S
C783 H770 0.929 . S
C783 C775 1.433 . S
C783 N785 1.384 . S
N784 C780 1.427 . S
N784 C781 1.384 . S
N785 C777 1.427 . S
N785 C783 1.384 . S
H786 C792 0.930 . S
H787 C796 0.930 . S
H788 C801 0.929 . S
H789 C799 0.929 . S
H790 C794 0.929 . S
H791 C800 0.929 . S
C792 H786 0.930 . S
C792 C793 1.367 . S
C792 C800 1.378 . S
C793 C792 1.367 . S
C793 C801 1.433 . S
C794 H790 0.929 . S
C794 C796 1.378 . S
C794 C798 1.350 . S
C795 C798 1.463 . S
C795 C800 1.350 . S
C795 N803 1.427 . S
C796 H787 0.930 . S
C796 C794 1.378 . S
C796 C797 1.367 . S
C797 C796 1.367 . S
C797 C799 1.433 . S
C798 C794 1.350 . S
C798 C795 1.463 . S
C798 N802 1.427 . S
C799 H789 0.929 . S
C799 C797 1.433 . S
C799 N802 1.384 . S
C800 H791 0.929 . S
C800 C792 1.378 . S
C800 C795 1.350 . S
C801 H788 0.929 . S
C801 C793 1.433 . S
C801 N803 1.384 . S
N802 C798 1.427 . S
N802 C799 1.384 . S
N803 C795 1.427 . S
N803 C801 1.384 . S
H804 C810 0.930 . S
H805 C814 0.930 . S
H806 C819 0.929 . S
H807 C817 0.929 . S
H808 C812 0.929 . S
H809 C818 0.929 . S
C810 H804 0.930 . S
C810 C811 1.367 . S
C810 C818 1.378 . S
C811 C810 1.367 . S
C811 C819 1.433 . S
C812 H808 0.929 . S
C812 C814 1.378 . S
C812 C816 1.350 . S
C813 C816 1.463 . S
C813 C818 1.350 . S
C813 N821 1.427 . S
C814 H805 0.930 . S
C814 C812 1.378 . S
C814 C815 1.367 . S
C815 C814 1.367 . S
C815 C817 1.433 . S
C816 C812 1.350 . S
C816 C813 1.463 . S
C816 N820 1.427 . S
C817 H807 0.929 . S
C817 C815 1.433 . S
C817 N820 1.384 . S
C818 H809 0.929 . S
C818 C810 1.378 . S
C818 C813 1.350 . S
C819 H806 0.929 . S
C819 C811 1.433 . S
C819 N821 1.384 . S
N820 C816 1.427 . S
N820 C817 1.384 . S
N821 C813 1.427 . S
N821 C819 1.384 . S
H822 C828 0.930 . S
H823 C832 0.930 . S
H824 C837 0.929 . S
H825 C835 0.929 . S
H826 C830 0.929 . S
H827 C836 0.929 . S
C828 H822 0.930 . S
C828 C829 1.367 . S
C828 C836 1.378 . S
C829 C828 1.367 . S
C829 C837 1.433 . S
C830 H826 0.929 . S
C830 C832 1.378 . S
C830 C834 1.350 . S
C831 C834 1.463 . S
C831 C836 1.350 . S
C831 N839 1.427 . S
C832 H823 0.930 . S
C832 C830 1.378 . S
C832 C833 1.367 . S
C833 C832 1.367 . S
C833 C835 1.433 . S
C834 C830 1.350 . S
C834 C831 1.463 . S
C834 N838 1.427 . S
C835 H825 0.929 . S
C835 C833 1.433 . S
C835 N838 1.384 . S
C836 H827 0.929 . S
C836 C828 1.378 . S
C836 C831 1.350 . S
C837 H824 0.929 . S
C837 C829 1.433 . S
C837 N839 1.384 . S
N838 C834 1.427 . S
N838 C835 1.384 . S
N839 C831 1.427 . S
N839 C837 1.384 . S
H840 C846 0.930 . S
H841 C850 0.930 . S
H842 C855 0.929 . S
H843 C853 0.929 . S
H844 C848 0.929 . S
H845 C854 0.929 . S
C846 H840 0.930 . S
C846 C847 1.367 . S
C846 C854 1.378 . S
C847 C846 1.367 . S
C847 C855 1.433 . S
C848 H844 0.929 . S
C848 C850 1.378 . S
C848 C852 1.350 . S
C849 C852 1.463 . S
C849 C854 1.350 . S
C849 N857 1.427 . S
C850 H841 0.930 . S
C850 C848 1.378 . S
C850 C851 1.367 . S
C851 C850 1.367 . S
C851 C853 1.433 . S
C852 C848 1.350 . S
C852 C849 1.463 . S
C852 N856 1.427 . S
C853 H843 0.929 . S
C853 C851 1.433 . S
C853 N856 1.384 . S
C854 H845 0.929 . S
C854 C846 1.378 . S
C854 C849 1.350 . S
C855 H842 0.929 . S
C855 C847 1.433 . S
C855 N857 1.384 . S
N856 C852 1.427 . S
N856 C853 1.384 . S
N857 C849 1.427 . S
N857 C855 1.384 . S
H858 C864 0.930 . S
H859 C868 0.930 . S
H860 C873 0.929 . S
H861 C871 0.929 . S
H862 C866 0.929 . S
H863 C872 0.929 . S
C864 H858 0.930 . S
C864 C865 1.367 . S
C864 C872 1.378 . S
C865 C864 1.367 . S
C865 C873 1.433 . S
C866 H862 0.929 . S
C866 C868 1.378 . S
C866 C870 1.350 . S
C867 C870 1.463 . S
C867 C872 1.350 . S
C867 N875 1.427 . S
C868 H859 0.930 . S
C868 C866 1.378 . S
C868 C869 1.367 . S
C869 C868 1.367 . S
C869 C871 1.433 . S
C870 C866 1.350 . S
C870 C867 1.463 . S
C870 N874 1.427 . S
C871 H861 0.929 . S
C871 C869 1.433 . S
C871 N874 1.384 . S
C872 H863 0.929 . S
C872 C864 1.378 . S
C872 C867 1.350 . S
C873 H860 0.929 . S
C873 C865 1.433 . S
C873 N875 1.384 . S
N874 C870 1.427 . S
N874 C871 1.384 . S
N875 C867 1.427 . S
N875 C873 1.384 . S
H876 C882 0.930 . S
H877 C886 0.930 . S
H878 C891 0.929 . S
H879 C889 0.929 . S
H880 C884 0.929 . S
H881 C890 0.929 . S
C882 H876 0.930 . S
C882 C883 1.367 . S
C882 C890 1.378 . S
C883 C882 1.367 . S
C883 C891 1.433 . S
C884 H880 0.929 . S
C884 C886 1.378 . S
C884 C888 1.350 . S
C885 C888 1.463 . S
C885 C890 1.350 . S
C885 N893 1.427 . S
C886 H877 0.930 . S
C886 C884 1.378 . S
C886 C887 1.367 . S
C887 C886 1.367 . S
C887 C889 1.433 . S
C888 C884 1.350 . S
C888 C885 1.463 . S
C888 N892 1.427 . S
C889 H879 0.929 . S
C889 C887 1.433 . S
C889 N892 1.384 . S
C890 H881 0.929 . S
C890 C882 1.378 . S
C890 C885 1.350 . S
C891 H878 0.929 . S
C891 C883 1.433 . S
C891 N893 1.384 . S
N892 C888 1.427 . S
N892 C889 1.384 . S
N893 C885 1.427 . S
N893 C891 1.384 . S
H894 C900 0.930 . S
H895 C904 0.930 . S
H896 C909 0.929 . S
H897 C907 0.929 . S
H898 C902 0.929 . S
H899 C908 0.929 . S
C900 H894 0.930 . S
C900 C901 1.367 . S
C900 C908 1.378 . S
C901 C900 1.367 . S
C901 C909 1.433 . S
C902 H898 0.929 . S
C902 C904 1.378 . S
C902 C906 1.350 . S
C903 C906 1.463 . S
C903 C908 1.350 . S
C903 N911 1.427 . S
C904 H895 0.930 . S
C904 C902 1.378 . S
C904 C905 1.367 . S
C905 C904 1.367 . S
C905 C907 1.433 . S
C906 C902 1.350 . S
C906 C903 1.463 . S
C906 N910 1.427 . S
C907 H897 0.929 . S
C907 C905 1.433 . S
C907 N910 1.384 . S
C908 H899 0.929 . S
C908 C900 1.378 . S
C908 C903 1.350 . S
C909 H896 0.929 . S
C909 C901 1.433 . S
C909 N911 1.384 . S
N910 C906 1.427 . S
N910 C907 1.384 . S
N911 C903 1.427 . S
N911 C909 1.384 . S
H912 C918 0.930 . S
H913 C922 0.930 . S
H914 C927 0.929 . S
H915 C925 0.929 . S
H916 C920 0.929 . S
H917 C926 0.929 . S
C918 H912 0.930 . S
C918 C919 1.367 . S
C918 C926 1.378 . S
C919 C918 1.367 . S
C919 C927 1.433 . S
C920 H916 0.929 . S
C920 C922 1.378 . S
C920 C924 1.350 . S
C921 C924 1.463 . S
C921 C926 1.350 . S
C921 N929 1.427 . S
C922 H913 0.930 . S
C922 C920 1.378 . S
C922 C923 1.367 . S
C923 C922 1.367 . S
C923 C925 1.433 . S
C924 C920 1.350 . S
C924 C921 1.463 . S
C924 N928 1.427 . S
C925 H915 0.929 . S
C925 C923 1.433 . S
C925 N928 1.384 . S
C926 H917 0.929 . S
C926 C918 1.378 . S
C926 C921 1.350 . S
C927 H914 0.929 . S
C927 C919 1.433 . S
C927 N929 1.384 . S
N928 C924 1.427 . S
N928 C925 1.384 . S
N929 C921 1.427 . S
N929 C927 1.384 . S
H930 C936 0.930 . S
H931 C940 0.930 . S
H932 C945 0.929 . S
H933 C943 0.929 . S
H934 C938 0.929 . S
H935 C944 0.929 . S
C936 H930 0.930 . S
C936 C937 1.367 . S
C936 C944 1.378 . S
C937 C936 1.367 . S
C937 C945 1.433 . S
C938 H934 0.929 . S
C938 C940 1.378 . S
C938 C942 1.350 . S
C939 C942 1.463 . S
C939 C944 1.350 . S
C939 N947 1.427 . S
C940 H931 0.930 . S
C940 C938 1.378 . S
C940 C941 1.367 . S
C941 C940 1.367 . S
C941 C943 1.433 . S
C942 C938 1.350 . S
C942 C939 1.463 . S
C942 N946 1.427 . S
C943 H933 0.929 . S
C943 C941 1.433 . S
C943 N946 1.384 . S
C944 H935 0.929 . S
C944 C936 1.378 . S
C944 C939 1.350 . S
C945 H932 0.929 . S
C945 C937 1.433 . S
C945 N947 1.384 . S
N946 C942 1.427 . S
N946 C943 1.384 . S
N947 C939 1.427 . S
N947 C945 1.384 . S
H948 C954 0.930 . S
H949 C958 0.930 . S
H950 C963 0.929 . S
H951 C961 0.929 . S
H952 C956 0.929 . S
H953 C962 0.929 . S
C954 H948 0.930 . S
C954 C955 1.367 . S
C954 C962 1.378 . S
C955 C954 1.367 . S
C955 C963 1.433 . S
C956 H952 0.929 . S
C956 C958 1.378 . S
C956 C960 1.350 . S
C957 C960 1.463 . S
C957 C962 1.350 . S
C957 N965 1.427 . S
C958 H949 0.930 . S
C958 C956 1.378 . S
C958 C959 1.367 . S
C959 C958 1.367 . S
C959 C961 1.433 . S
C960 C956 1.350 . S
C960 C957 1.463 . S
C960 N964 1.427 . S
C961 H951 0.929 . S
C961 C959 1.433 . S
C961 N964 1.384 . S
C962 H953 0.929 . S
C962 C954 1.378 . S
C962 C957 1.350 . S
C963 H950 0.929 . S
C963 C955 1.433 . S
C963 N965 1.384 . S
N964 C960 1.427 . S
N964 C961 1.384 . S
N965 C957 1.427 . S
N965 C963 1.384 . S
H966 C972 0.930 . S
H967 C976 0.930 . S
H968 C981 0.929 . S
H969 C979 0.929 . S
H970 C974 0.929 . S
H971 C980 0.929 . S
C972 H966 0.930 . S
C972 C973 1.367 . S
C972 C980 1.378 . S
C973 C972 1.367 . S
C973 C981 1.433 . S
C974 H970 0.929 . S
C974 C976 1.378 . S
C974 C978 1.350 . S
C975 C978 1.463 . S
C975 C980 1.350 . S
C975 N983 1.427 . S
C976 H967 0.930 . S
C976 C974 1.378 . S
C976 C977 1.367 . S
C977 C976 1.367 . S
C977 C979 1.433 . S
C978 C974 1.350 . S
C978 C975 1.463 . S
C978 N982 1.427 . S
C979 H969 0.929 . S
C979 C977 1.433 . S
C979 N982 1.384 . S
C980 H971 0.929 . S
C980 C972 1.378 . S
C980 C975 1.350 . S
C981 H968 0.929 . S
C981 C973 1.433 . S
C981 N983 1.384 . S
N982 C978 1.427 . S
N982 C979 1.384 . S
N983 C975 1.427 . S
N983 C981 1.384 . S
H984 C990 0.930 . S
H985 C994 0.930 . S
H986 C999 0.929 . S
H987 C997 0.929 . S
H988 C992 0.929 . S
H989 C998 0.929 . S
C990 H984 0.930 . S
C990 C991 1.367 . S
C990 C998 1.378 . S
C991 C990 1.367 . S
C991 C999 1.433 . S
C992 H988 0.929 . S
C992 C994 1.378 . S
C992 C996 1.350 . S
C993 C996 1.463 . S
C993 C998 1.350 . S
C993 N1001 1.427 . S
C994 H985 0.930 . S
C994 C992 1.378 . S
C994 C995 1.367 . S
C995 C994 1.367 . S
C995 C997 1.433 . S
C996 C992 1.350 . S
C996 C993 1.463 . S
C996 N1000 1.427 . S
C997 H987 0.929 . S
C997 C995 1.433 . S
C997 N1000 1.384 . S
C998 H989 0.929 . S
C998 C990 1.378 . S
C998 C993 1.350 . S
C999 H986 0.929 . S
C999 C991 1.433 . S
C999 N1001 1.384 . S
N1000 C996 1.427 . S
N1000 C997 1.384 . S
N1001 C993 1.427 . S
N1001 C999 1.384 . S
H1002 C1008 0.930 . S
H1003 C1012 0.930 . S
H1004 C1017 0.929 . S
H1005 C1015 0.929 . S
H1006 C1010 0.929 . S
H1007 C1016 0.929 . S
C1008 H1002 0.930 . S
C1008 C1009 1.367 . S
C1008 C1016 1.378 . S
C1009 C1008 1.367 . S
C1009 C1017 1.433 . S
C1010 H1006 0.929 . S
C1010 C1012 1.378 . S
C1010 C1014 1.350 . S
C1011 C1014 1.463 . S
C1011 C1016 1.350 . S
C1011 N1019 1.427 . S
C1012 H1003 0.930 . S
C1012 C1010 1.378 . S
C1012 C1013 1.367 . S
C1013 C1012 1.367 . S
C1013 C1015 1.433 . S
C1014 C1010 1.350 . S
C1014 C1011 1.463 . S
C1014 N1018 1.427 . S
C1015 H1005 0.929 . S
C1015 C1013 1.433 . S
C1015 N1018 1.384 . S
C1016 H1007 0.929 . S
C1016 C1008 1.378 . S
C1016 C1011 1.350 . S
C1017 H1004 0.929 . S
C1017 C1009 1.433 . S
C1017 N1019 1.384 . S
N1018 C1014 1.427 . S
N1018 C1015 1.384 . S
N1019 C1011 1.427 . S
N1019 C1017 1.384 . S
H1020 C1026 0.930 . S
H1021 C1030 0.930 . S
H1022 C1035 0.929 . S
H1023 C1033 0.929 . S
H1024 C1028 0.929 . S
H1025 C1034 0.929 . S
C1026 H1020 0.930 . S
C1026 C1027 1.367 . S
C1026 C1034 1.378 . S
C1027 C1026 1.367 . S
C1027 C1035 1.433 . S
C1028 H1024 0.929 . S
C1028 C1030 1.378 . S
C1028 C1032 1.350 . S
C1029 C1032 1.463 . S
C1029 C1034 1.350 . S
C1029 N1037 1.427 . S
C1030 H1021 0.930 . S
C1030 C1028 1.378 . S
C1030 C1031 1.367 . S
C1031 C1030 1.367 . S
C1031 C1033 1.433 . S
C1032 C1028 1.350 . S
C1032 C1029 1.463 . S
C1032 N1036 1.427 . S
C1033 H1023 0.929 . S
C1033 C1031 1.433 . S
C1033 N1036 1.384 . S
C1034 H1025 0.929 . S
C1034 C1026 1.378 . S
C1034 C1029 1.350 . S
C1035 H1022 0.929 . S
C1035 C1027 1.433 . S
C1035 N1037 1.384 . S
N1036 C1032 1.427 . S
N1036 C1033 1.384 . S
N1037 C1029 1.427 . S
N1037 C1035 1.384 . S
H1038 C1044 0.930 . S
H1039 C1048 0.930 . S
H1040 C1053 0.929 . S
H1041 C1051 0.929 . S
H1042 C1046 0.929 . S
H1043 C1052 0.929 . S
C1044 H1038 0.930 . S
C1044 C1045 1.367 . S
C1044 C1052 1.378 . S
C1045 C1044 1.367 . S
C1045 C1053 1.433 . S
C1046 H1042 0.929 . S
C1046 C1048 1.378 1_556 S
C1046 C1050 1.350 . S
C1047 C1050 1.463 . S
C1047 C1052 1.350 . S
C1047 N1055 1.427 . S
C1048 H1039 0.930 . S
C1048 C1046 1.378 1_554 S
C1048 C1049 1.367 . S
C1049 C1048 1.367 . S
C1049 C1051 1.433 . S
C1050 C1046 1.350 . S
C1050 C1047 1.463 . S
C1050 N1054 1.427 1_556 S
C1051 H1041 0.929 . S
C1051 C1049 1.433 . S
C1051 N1054 1.384 . S
C1052 H1043 0.929 . S
C1052 C1044 1.378 . S
C1052 C1047 1.350 . S
C1053 H1040 0.929 . S
C1053 C1045 1.433 . S
C1053 N1055 1.384 . S
N1054 C1050 1.427 1_554 S
N1054 C1051 1.384 . S
N1055 C1047 1.427 . S
N1055 C1053 1.384 . S
H1056 C1062 0.930 . S
H1057 C1066 0.930 . S
H1058 C1071 0.929 . S
H1059 C1069 0.929 . S
H1060 C1064 0.929 . S
H1061 C1070 0.929 . S
C1062 H1056 0.930 . S
C1062 C1063 1.367 . S
C1062 C1070 1.378 . S
C1063 C1062 1.367 . S
C1063 C1071 1.433 . S
C1064 H1060 0.929 . S
C1064 C1066 1.378 . S
C1064 C1068 1.350 . S
C1065 C1068 1.463 . S
C1065 C1070 1.350 . S
C1065 N1073 1.427 . S
C1066 H1057 0.930 . S
C1066 C1064 1.378 . S
C1066 C1067 1.367 . S
C1067 C1066 1.367 . S
C1067 C1069 1.433 . S
C1068 C1064 1.350 . S
C1068 C1065 1.463 . S
C1068 N1072 1.427 . S
C1069 H1059 0.929 . S
C1069 C1067 1.433 . S
C1069 N1072 1.384 . S
C1070 H1061 0.929 . S
C1070 C1062 1.378 . S
C1070 C1065 1.350 . S
C1071 H1058 0.929 . S
C1071 C1063 1.433 . S
C1071 N1073 1.384 . S
N1072 C1068 1.427 . S
N1072 C1069 1.384 . S
N1073 C1065 1.427 . S
N1073 C1071 1.384 . S
H1074 C1080 0.930 . S
H1075 C1084 0.930 . S
H1076 C1089 0.929 . S
H1077 C1087 0.929 . S
H1078 C1082 0.929 . S
H1079 C1088 0.929 . S
C1080 H1074 0.930 . S
C1080 C1081 1.367 . S
C1080 C1088 1.378 . S
C1081 C1080 1.367 . S
C1081 C1089 1.433 . S
C1082 H1078 0.929 . S
C1082 C1084 1.378 . S
C1082 C1086 1.350 . S
C1083 C1086 1.463 . S
C1083 C1088 1.350 . S
C1083 N1091 1.427 . S
C1084 H1075 0.930 . S
C1084 C1082 1.378 . S
C1084 C1085 1.367 . S
C1085 C1084 1.367 . S
C1085 C1087 1.433 . S
C1086 C1082 1.350 . S
C1086 C1083 1.463 . S
C1086 N1090 1.427 . S
C1087 H1077 0.929 . S
C1087 C1085 1.433 . S
C1087 N1090 1.384 . S
C1088 H1079 0.929 . S
C1088 C1080 1.378 . S
C1088 C1083 1.350 . S
C1089 H1076 0.929 . S
C1089 C1081 1.433 . S
C1089 N1091 1.384 . S
N1090 C1086 1.427 . S
N1090 C1087 1.384 . S
N1091 C1083 1.427 . S
N1091 C1089 1.384 . S
H1092 C1098 0.930 . S
H1093 C1102 0.930 . S
H1094 C1107 0.929 . S
H1095 C1105 0.929 . S
H1096 C1100 0.929 . S
H1097 C1106 0.929 . S
C1098 H1092 0.930 . S
C1098 C1099 1.367 . S
C1098 C1106 1.378 . S
C1099 C1098 1.367 . S
C1099 C1107 1.433 . S
C1100 H1096 0.929 . S
C1100 C1102 1.378 . S
C1100 C1104 1.350 . S
C1101 C1104 1.463 . S
C1101 C1106 1.350 . S
C1101 N1109 1.427 . S
C1102 H1093 0.930 . S
C1102 C1100 1.378 . S
C1102 C1103 1.367 . S
C1103 C1102 1.367 . S
C1103 C1105 1.433 . S
C1104 C1100 1.350 . S
C1104 C1101 1.463 . S
C1104 N1108 1.427 . S
C1105 H1095 0.929 . S
C1105 C1103 1.433 . S
C1105 N1108 1.384 . S
C1106 H1097 0.929 . S
C1106 C1098 1.378 . S
C1106 C1101 1.350 . S
C1107 H1094 0.929 . S
C1107 C1099 1.433 . S
C1107 N1109 1.384 . S
N1108 C1104 1.427 . S
N1108 C1105 1.384 . S
N1109 C1101 1.427 . S
N1109 C1107 1.384 . S
H1110 C1116 0.930 . S
H1111 C1120 0.930 . S
H1112 C1125 0.929 . S
H1113 C1123 0.929 . S
H1114 C1118 0.929 . S
H1115 C1124 0.929 . S
C1116 H1110 0.930 . S
C1116 C1117 1.367 . S
C1116 C1124 1.378 . S
C1117 C1116 1.367 . S
C1117 C1125 1.433 . S
C1118 H1114 0.929 . S
C1118 C1120 1.378 . S
C1118 C1122 1.350 . S
C1119 C1122 1.463 . S
C1119 C1124 1.350 . S
C1119 N1127 1.427 . S
C1120 H1111 0.930 . S
C1120 C1118 1.378 . S
C1120 C1121 1.367 . S
C1121 C1120 1.367 . S
C1121 C1123 1.433 . S
C1122 C1118 1.350 . S
C1122 C1119 1.463 . S
C1122 N1126 1.427 . S
C1123 H1113 0.929 . S
C1123 C1121 1.433 . S
C1123 N1126 1.384 . S
C1124 H1115 0.929 . S
C1124 C1116 1.378 . S
C1124 C1119 1.350 . S
C1125 H1112 0.929 . S
C1125 C1117 1.433 . S
C1125 N1127 1.384 . S
N1126 C1122 1.427 . S
N1126 C1123 1.384 . S
N1127 C1119 1.427 . S
N1127 C1125 1.384 . S
H1128 C1134 0.930 . S
H1129 C1138 0.930 . S
H1130 C1143 0.929 . S
H1131 C1141 0.929 . S
H1132 C1136 0.929 . S
H1133 C1142 0.929 . S
C1134 H1128 0.930 . S
C1134 C1135 1.367 . S
C1134 C1142 1.378 . S
C1135 C1134 1.367 . S
C1135 C1143 1.433 . S
C1136 H1132 0.929 . S
C1136 C1138 1.378 . S
C1136 C1140 1.350 . S
C1137 C1140 1.463 . S
C1137 C1142 1.350 . S
C1137 N1145 1.427 . S
C1138 H1129 0.930 . S
C1138 C1136 1.378 . S
C1138 C1139 1.367 . S
C1139 C1138 1.367 . S
C1139 C1141 1.433 . S
C1140 C1136 1.350 . S
C1140 C1137 1.463 . S
C1140 N1144 1.427 . S
C1141 H1131 0.929 . S
C1141 C1139 1.433 . S
C1141 N1144 1.384 . S
C1142 H1133 0.929 . S
C1142 C1134 1.378 . S
C1142 C1137 1.350 . S
C1143 H1130 0.929 . S
C1143 C1135 1.433 . S
C1143 N1145 1.384 . S
N1144 C1140 1.427 . S
N1144 C1141 1.384 . S
N1145 C1137 1.427 . S
N1145 C1143 1.384 . S
H1146 C1152 0.930 . S
H1147 C1156 0.930 . S
H1148 C1161 0.929 . S
H1149 C1159 0.929 . S
H1150 C1154 0.929 . S
H1151 C1160 0.929 . S
C1152 H1146 0.930 . S
C1152 C1153 1.367 . S
C1152 C1160 1.378 . S
C1153 C1152 1.367 . S
C1153 C1161 1.433 . S
C1154 H1150 0.929 . S
C1154 C1156 1.378 . S
C1154 C1158 1.350 . S
C1155 C1158 1.463 . S
C1155 C1160 1.350 . S
C1155 N1163 1.427 . S
C1156 H1147 0.930 . S
C1156 C1154 1.378 . S
C1156 C1157 1.367 . S
C1157 C1156 1.367 . S
C1157 C1159 1.433 . S
C1158 C1154 1.350 . S
C1158 C1155 1.463 . S
C1158 N1162 1.427 . S
C1159 H1149 0.929 . S
C1159 C1157 1.433 . S
C1159 N1162 1.384 . S
C1160 H1151 0.929 . S
C1160 C1152 1.378 . S
C1160 C1155 1.350 . S
C1161 H1148 0.929 . S
C1161 C1153 1.433 . S
C1161 N1163 1.384 . S
N1162 C1158 1.427 . S
N1162 C1159 1.384 . S
N1163 C1155 1.427 . S
N1163 C1161 1.384 . S
H1164 C1170 0.930 . S
H1165 C1174 0.930 . S
H1166 C1179 0.929 . S
H1167 C1177 0.929 . S
H1168 C1172 0.929 . S
H1169 C1178 0.929 . S
C1170 H1164 0.930 . S
C1170 C1171 1.367 . S
C1170 C1178 1.378 . S
C1171 C1170 1.367 . S
C1171 C1179 1.433 . S
C1172 H1168 0.929 . S
C1172 C1174 1.378 . S
C1172 C1176 1.350 . S
C1173 C1176 1.463 1_554 S
C1173 C1178 1.350 . S
C1173 N1181 1.427 . S
C1174 H1165 0.930 . S
C1174 C1172 1.378 . S
C1174 C1175 1.367 . S
C1175 C1174 1.367 . S
C1175 C1177 1.433 . S
C1176 C1172 1.350 . S
C1176 C1173 1.463 1_556 S
C1176 N1180 1.427 . S
C1177 H1167 0.929 . S
C1177 C1175 1.433 . S
C1177 N1180 1.384 . S
C1178 H1169 0.929 . S
C1178 C1170 1.378 . S
C1178 C1173 1.350 . S
C1179 H1166 0.929 . S
C1179 C1171 1.433 . S
C1179 N1181 1.384 . S
N1180 C1176 1.427 . S
N1180 C1177 1.384 . S
N1181 C1173 1.427 . S
N1181 C1179 1.384 . S
H1182 C1188 0.930 . S
H1183 C1192 0.930 . S
H1184 C1197 0.929 . S
H1185 C1195 0.929 . S
H1186 C1190 0.929 . S
H1187 C1196 0.929 . S
C1188 H1182 0.930 . S
C1188 C1189 1.367 . S
C1188 C1196 1.378 . S
C1189 C1188 1.367 . S
C1189 C1197 1.433 . S
C1190 H1186 0.929 . S
C1190 C1192 1.378 . S
C1190 C1194 1.350 . S
C1191 C1194 1.463 . S
C1191 C1196 1.350 . S
C1191 N1199 1.427 . S
C1192 H1183 0.930 . S
C1192 C1190 1.378 . S
C1192 C1193 1.367 . S
C1193 C1192 1.367 . S
C1193 C1195 1.433 . S
C1194 C1190 1.350 . S
C1194 C1191 1.463 . S
C1194 N1198 1.427 . S
C1195 H1185 0.929 . S
C1195 C1193 1.433 . S
C1195 N1198 1.384 . S
C1196 H1187 0.929 . S
C1196 C1188 1.378 . S
C1196 C1191 1.350 . S
C1197 H1184 0.929 . S
C1197 C1189 1.433 . S
C1197 N1199 1.384 . S
N1198 C1194 1.427 . S
N1198 C1195 1.384 . S
N1199 C1191 1.427 . S
N1199 C1197 1.384 . S
C779 C757 1.680 . S
C775 C1 1.267 . S
C793 C169 1.509 . S
C797 C687 1.808 . S
C811 C283 1.519 . S
C815 C706 1.804 . S
C829 C397 1.360 . S
C833 C715 1.670 . S
C851 C729 1.514 . S
C847 C457 1.167 . S
C865 C571 1.195 . S
C869 C748 1.594 . S
C883 C115 1.268 . S
C887 C701 1.652 . S
C901 C229 1.155 . S
C905 C720 1.556 . S
C919 C343 1.153 . S
C923 C734 1.534 . S
C941 C743 1.607 . S
C937 C511 1.293 . S
C959 C762 1.789 . S
C955 C625 1.493 . S
C977 C692 1.792 . S
C973 C55 1.505 . S
C991 C29 1.157 . S
C995 C707 1.441 . S
C1009 C125 0.940 . S
C1013 C719 1.511 . S
C1031 C733 1.465 . S
C1027 C239 0.910 . S
C1045 C353 0.893 . S
C1049 C749 1.455 . S
C1067 C761 1.354 . S
C1063 C485 1.092 . S
C1085 C691 1.433 . S
C1081 C599 1.157 . S
C1103 C763 1.447 . S
C1099 C143 1.156 . S
C1117 C257 1.151 . S
C1121 C693 1.468 . S
C1139 C705 1.370 . S
C1135 C371 1.083 . S
C1153 C467 0.919 . S
C1157 C721 1.460 . S
C1171 C581 0.959 . S
C1175 C735 1.492 . S
C1189 C11 0.962 . S
C1193 C747 1.527 . S
