# Generated by pormake.
# Topology rtl, (3,6)-cn, num edge types: 1
# Building blocks:
#     Node 0, Type 0, BuildingBlock: VETTIZ_charged_linker_0, # of connection points: 3
#     Node 1, Type 0, BuildingBlock: VETTIZ_charged_linker_0, # of connection points: 3
#     Node 2, Type 0, BuildingBlock: VETTIZ_charged_linker_0, # of connection points: 3
#     Node 3, Type 0, BuildingBlock: VETTIZ_charged_linker_0, # of connection points: 3
#     Node 4, Type 1, BuildingBlock: LEVNOQ01_clean_sbu_1, # of connection points: 6
#     Node 5, Type 1, BuildingBlock: LEVNOQ01_clean_sbu_1, # of connection points: 6
#     Edge 6, Type (0, 1), BuildingBlock: FUNLAD_clean_linker_1, # of connection points: 2
#     Edge 7, Type (0, 1), BuildingBlock: FUNLAD_clean_linker_1, # of connection points: 2
#     Edge 8, Type (0, 1), BuildingBlock: FUNLAD_clean_linker_1, # of connection points: 2
#     Edge 9, Type (0, 1), BuildingBlock: FUNLAD_clean_linker_1, # of connection points: 2
#     Edge 10, Type (0, 1), BuildingBlock: FUNLAD_clean_linker_1, # of connection points: 2
#     Edge 11, Type (0, 1), BuildingBlock: FUNLAD_clean_linker_1, # of connection points: 2
#     Edge 12, Type (0, 1), BuildingBlock: FUNLAD_clean_linker_1, # of connection points: 2
#     Edge 13, Type (0, 1), BuildingBlock: FUNLAD_clean_linker_1, # of connection points: 2
#     Edge 14, Type (0, 1), BuildingBlock: FUNLAD_clean_linker_1, # of connection points: 2
#     Edge 15, Type (0, 1), BuildingBlock: FUNLAD_clean_linker_1, # of connection points: 2
#     Edge 16, Type (0, 1), BuildingBlock: FUNLAD_clean_linker_1, # of connection points: 2
#     Edge 17, Type (0, 1), BuildingBlock: FUNLAD_clean_linker_1, # of connection points: 2
# Relax obj value: 0.027
# Max RMSD: 0.061
# Mean RMSD: 0.048
data_MOF--net-rtl--node1-LEVNOQ01_clean_sbu_1--node2-VETTIZ_charged_linker_0--edge1-FUNLAD_clean_linker_1
_symmetry_space_group_name_H-M    P1
_symmetry_Int_Tables_number       1
_symmetry_cell_setting            triclinic
loop_
_symmetry_equiv_pos_as_xyz
'x, y, z'
_cell_length_a     38.267255
_cell_length_b     43.657038
_cell_length_c     30.840809
_cell_angle_alpha  89.836962
_cell_angle_beta   97.523426
_cell_angle_gamma 90.013669
loop_
_atom_site_label
_atom_site_type_symbol
_atom_site_fract_x
_atom_site_fract_y
_atom_site_fract_z
_atom_type_partial_charge
C0 C 0.23615 0.91869 0.93861 0.0
C1 C 0.20948 0.94124 0.9328 0.0
C2 C 0.20026 0.95663 0.96966 0.0
C3 C 0.24106 0.92551 0.01742 0.0
C4 C 0.25156 0.91118 0.98133 0.0
C5 C 0.27867 0.88656 0.99452 0.0
H6 H 0.35646 0.79392 0.15694 0.0
C7 C 0.259 0.91063 0.0572 0.0
C8 C 0.28129 0.8877 0.04428 0.0
H9 H 0.37018 0.79109 0.02032 0.0
H10 H 0.33487 0.83704 0.00656 0.0
H11 H 0.36921 0.86814 0.16438 0.0
H12 H 0.27899 0.80888 0.14708 0.0
H13 H 0.2682 0.83824 0.18155 0.0
H14 H 0.30539 0.81383 0.19909 0.0
H15 H 0.35565 0.84586 0.2082 0.0
H16 H 0.33876 0.88398 0.19581 0.0
C17 C 0.31361 0.89618 0.97826 0.0
C18 C 0.26385 0.85567 0.97577 0.0
C19 C 0.22272 0.9385 0.20523 0.0
C20 C 0.23177 0.92617 0.24753 0.0
C21 C 0.25753 0.90303 0.2539 0.0
C22 C 0.27363 0.89189 0.21894 0.0
C23 C 0.26366 0.90375 0.17675 0.0
C24 C 0.23904 0.92697 0.17051 0.0
C25 C 0.23104 0.93605 0.12311 0.0
C26 C 0.25496 0.91437 0.10205 0.0
C27 C 0.2737 0.89546 0.13364 0.0
C28 C 0.24219 0.96994 0.11869 0.0
C29 C 0.19141 0.92956 0.10813 0.0
C30 C 0.35226 0.80349 0.1242 0.0
C31 C 0.36604 0.78901 0.08986 0.0
C32 C 0.36012 0.80207 0.04755 0.0
C33 C 0.33932 0.82857 0.03952 0.0
C34 C 0.32453 0.84218 0.07418 0.0
C35 C 0.33228 0.83013 0.11588 0.0
C36 C 0.31598 0.84801 0.14934 0.0
C37 C 0.29602 0.87221 0.12091 0.0
C38 C 0.30052 0.86862 0.07666 0.0
C39 C 0.34624 0.86215 0.18148 0.0
C40 C 0.29098 0.8263 0.1708 0.0
H41 H 0.20727 0.96145 0.0383 0.0
H42 H 0.24374 0.90623 0.91105 0.0
H43 H 0.23579 0.85301 0.98101 0.0
H44 H 0.27771 0.83566 0.99158 0.0
H45 H 0.26513 0.85435 0.94004 0.0
H46 H 0.31803 0.92125 0.98237 0.0
H47 H 0.31325 0.89079 0.94302 0.0
H48 H 0.33688 0.88531 0.99707 0.0
H49 H 0.2024 0.9557 0.19851 0.0
H50 H 0.26478 0.89306 0.28604 0.0
H51 H 0.29253 0.87385 0.22606 0.0
H52 H 0.26591 0.97538 0.1423 0.0
H53 H 0.22083 0.98579 0.12532 0.0
H54 H 0.25 0.97527 0.08624 0.0
H55 H 0.18221 0.90934 0.12555 0.0
H56 H 0.18568 0.92357 0.07319 0.0
H57 H 0.1748 0.94938 0.11494 0.0
H58 H 0.1801 0.97422 0.96597 0.0
C59 C 0.21603 0.94912 0.01172 0.0
C60 C 0.71441 0.61997 0.72225 0.0
C61 C 0.68825 0.59713 0.7217 0.0
C62 C 0.67711 0.58143 0.68271 0.0
C63 C 0.71578 0.61208 0.64451 0.0
C64 C 0.7277 0.62717 0.68295 0.0
C65 C 0.75417 0.65176 0.67572 0.0
H66 H 0.83424 0.73731 0.53235 0.0
C67 C 0.73227 0.62611 0.6088 0.0
C68 C 0.7548 0.6495 0.62644 0.0
H69 H 0.84851 0.74251 0.67333 0.0
H70 H 0.80832 0.70013 0.67713 0.0
H71 H 0.83982 0.6622 0.5314 0.0
H72 H 0.75068 0.72353 0.5173 0.0
H73 H 0.74232 0.69409 0.47849 0.0
H74 H 0.77911 0.71944 0.47574 0.0
H75 H 0.82822 0.68508 0.4832 0.0
H76 H 0.80834 0.64814 0.48952 0.0
C77 C 0.79008 0.64276 0.70177 0.0
C78 C 0.73959 0.68294 0.68905 0.0
C79 C 0.69342 0.58957 0.45458 0.0
C80 C 0.70057 0.59924 0.41328 0.0
C81 C 0.72572 0.62271 0.41077 0.0
C82 C 0.74232 0.63692 0.44888 0.0
C83 C 0.73377 0.62763 0.4899 0.0
C84 C 0.70999 0.60403 0.49207 0.0
C85 C 0.70326 0.59735 0.5379 0.0
C86 C 0.72717 0.62064 0.56317 0.0
C87 C 0.74489 0.6385 0.53512 0.0
C88 C 0.71535 0.564 0.54931 0.0
C89 C 0.66366 0.60384 0.54071 0.0
C90 C 0.8283 0.72937 0.56389 0.0
C91 C 0.84366 0.74354 0.60271 0.0
C92 C 0.8365 0.73204 0.6432 0.0
C93 C 0.81327 0.70743 0.64528 0.0
C94 C 0.79765 0.69364 0.60639 0.0
C95 C 0.80582 0.70417 0.56655 0.0
C96 C 0.78838 0.68532 0.52889 0.0
C97 C 0.76771 0.66242 0.55264 0.0
C98 C 0.773 0.6676 0.59809 0.0
C99 C 0.81752 0.66942 0.50666 0.0
C100 C 0.76393 0.70654 0.49813 0.0
H101 H 0.68099 0.57562 0.61594 0.0
H102 H 0.72323 0.63263 0.7518 0.0
H103 H 0.71081 0.68463 0.6778 0.0
H104 H 0.75145 0.70271 0.67413 0.0
H105 H 0.74357 0.68573 0.72515 0.0
H106 H 0.79378 0.61747 0.70194 0.0
H107 H 0.79187 0.65037 0.73633 0.0
H108 H 0.81277 0.65192 0.68713 0.0
H109 H 0.67431 0.57162 0.45772 0.0
H110 H 0.73266 0.6303 0.37962 0.0
H111 H 0.76083 0.65486 0.44491 0.0
H112 H 0.73783 0.55735 0.5318 0.0
H113 H 0.6937 0.5474 0.53997 0.0
H114 H 0.72541 0.5609 0.58434 0.0
H115 H 0.65311 0.62191 0.51702 0.0
H116 H 0.65887 0.61295 0.5728 0.0
H117 H 0.64737 0.58299 0.53331 0.0
H118 H 0.6572 0.56368 0.68178 0.0
C119 C 0.69094 0.58848 0.6444 0.0
C120 C 0.78607 0.11548 0.15329 0.0
C121 C 0.81352 0.09431 0.16319 0.0
C122 C 0.82735 0.0792 0.12885 0.0
C123 C 0.78859 0.1084 0.07571 0.0
C124 C 0.77439 0.12252 0.10944 0.0
C125 C 0.74792 0.14677 0.09317 0.0
H126 H 0.67962 0.23927 0.9278 0.0
C127 C 0.7725 0.12235 0.0342 0.0
C128 C 0.74876 0.14496 0.04411 0.0
H129 H 0.6614 0.24187 0.06289 0.0
H130 H 0.69394 0.19461 0.07742 0.0
H131 H 0.75756 0.21985 0.93961 0.0
H132 H 0.6655 0.16188 0.92109 0.0
H133 H 0.69649 0.14718 0.88936 0.0
H134 H 0.67857 0.18504 0.87779 0.0
H135 H 0.72932 0.21772 0.88838 0.0
H136 H 0.76481 0.19097 0.90218 0.0
C137 C 0.76189 0.17786 0.1125 0.0
C138 C 0.71159 0.13719 0.10578 0.0
C139 C 0.81192 0.08722 0.89179 0.0
C140 C 0.80374 0.09666 0.84812 0.0
C141 C 0.77877 0.12031 0.83804 0.0
C142 C 0.76288 0.1346 0.87122 0.0
C143 C 0.77197 0.12522 0.9149 0.0
C144 C 0.79596 0.10174 0.92442 0.0
C145 C 0.80292 0.09489 0.9725 0.0
C146 C 0.77836 0.11751 0.99027 0.0
C147 C 0.76058 0.1355 0.95655 0.0
C148 C 0.84225 0.10214 0.98828 0.0
C149 C 0.792 0.06127 0.97982 0.0
C150 C 0.68244 0.22929 0.96027 0.0
C151 C 0.66849 0.24409 0.99443 0.0
C152 C 0.6721 0.23061 0.03625 0.0
C153 C 0.69118 0.20338 0.04462 0.0
C154 C 0.70678 0.18961 0.01076 0.0
C155 C 0.70097 0.20178 0.96898 0.0
C156 C 0.718 0.18297 0.93671 0.0
C157 C 0.73721 0.15896 0.9666 0.0
C158 C 0.73071 0.16314 0.01001 0.0
C159 C 0.74368 0.2038 0.9152 0.0
C160 C 0.68832 0.16858 0.90416 0.0
H161 H 0.82669 0.07395 0.06058 0.0
H162 H 0.7749 0.12722 0.17917 0.0
H163 H 0.70848 0.11185 0.105 0.0
H164 H 0.68934 0.14589 0.08254 0.0
H165 H 0.70843 0.14497 0.13931 0.0
H166 H 0.79095 0.1795 0.11289 0.0
H167 H 0.75618 0.18053 0.14669 0.0
H168 H 0.75119 0.19782 0.09326 0.0
H169 H 0.83098 0.06915 0.90059 0.0
H170 H 0.77119 0.12776 0.80467 0.0
H171 H 0.74439 0.15262 0.86162 0.0
H172 H 0.852 0.12109 0.96884 0.0
H173 H 0.85922 0.08186 0.98495 0.0
H174 H 0.84682 0.11037 0.02239 0.0
H175 H 0.76802 0.05508 0.95709 0.0
H176 H 0.7848 0.05713 0.01286 0.0
H177 H 0.81328 0.04511 0.9739 0.0
H178 H 0.84775 0.06202 0.1357 0.0
C179 C 0.81492 0.08604 0.0852 0.0
C180 C 0.25829 0.4156 0.35065 0.0
C181 C 0.2837 0.43848 0.34741 0.0
C182 C 0.29681 0.45511 0.3853 0.0
C183 C 0.26171 0.42433 0.42891 0.0
C184 C 0.24782 0.40883 0.39154 0.0
C185 C 0.22253 0.38403 0.40112 0.0
H186 H 0.14284 0.30517 0.5507 0.0
C187 C 0.24658 0.41093 0.46643 0.0
C188 C 0.22336 0.38741 0.45025 0.0
H189 H 0.13671 0.28739 0.41235 0.0
H190 H 0.1731 0.33196 0.40344 0.0
H191 H 0.22565 0.31674 0.56252 0.0
H192 H 0.13575 0.37634 0.54713 0.0
H193 H 0.16817 0.39617 0.58161 0.0
H194 H 0.15222 0.35976 0.59904 0.0
H195 H 0.1976 0.32244 0.60409 0.0
H196 H 0.23511 0.34666 0.60003 0.0
C197 C 0.23764 0.3528 0.38863 0.0
C198 C 0.18574 0.39169 0.37633 0.0
C199 C 0.28916 0.44563 0.62245 0.0
C200 C 0.27937 0.43668 0.66314 0.0
C201 C 0.25127 0.41611 0.66422 0.0
C202 C 0.23426 0.40321 0.62578 0.0
C203 C 0.24509 0.41125 0.58549 0.0
C204 C 0.27132 0.43284 0.58398 0.0
C205 C 0.27762 0.4396 0.53761 0.0
C206 C 0.25226 0.41722 0.51208 0.0
C207 C 0.23353 0.40069 0.54054 0.0
C208 C 0.31661 0.43221 0.53342 0.0
C209 C 0.26691 0.47329 0.5271 0.0
C210 C 0.14917 0.31112 0.51848 0.0
C211 C 0.13733 0.29294 0.48229 0.0
C212 C 0.14615 0.30102 0.44079 0.0
C213 C 0.16726 0.3268 0.43578 0.0
C214 C 0.18031 0.34411 0.47284 0.0
C215 C 0.17107 0.33609 0.51324 0.0
C216 C 0.18883 0.35563 0.54948 0.0
C217 C 0.20997 0.3771 0.52427 0.0
C218 C 0.20495 0.37036 0.47941 0.0
C219 C 0.21295 0.3345 0.58105 0.0
C220 C 0.15996 0.3728 0.57082 0.0
H221 H 0.2973 0.46131 0.45351 0.0
H222 H 0.24755 0.40258 0.32212 0.0
H223 H 0.18019 0.41664 0.37818 0.0
H224 H 0.1641 0.38019 0.3904 0.0
H225 H 0.18416 0.38549 0.34122 0.0
H226 H 0.26697 0.3529 0.39421 0.0
H227 H 0.22943 0.34747 0.35358 0.0
H228 H 0.23003 0.33364 0.40886 0.0
H229 H 0.31003 0.46215 0.62059 0.0
H230 H 0.24316 0.40923 0.69519 0.0
H231 H 0.21371 0.38705 0.62912 0.0
H232 H 0.32529 0.4112 0.55232 0.0
H233 H 0.33419 0.45127 0.54628 0.0
H234 H 0.32116 0.4273 0.49956 0.0
H235 H 0.2438 0.4799 0.54348 0.0
H236 H 0.25834 0.47728 0.49193 0.0
H237 H 0.28879 0.48923 0.53855 0.0
H238 H 0.31543 0.47361 0.38378 0.0
C239 C 0.28599 0.44813 0.4259 0.0
O240 O 0.98932 0.04489 0.64354 0.0
Mg241 Mg 0.03756 0.05389 0.62126 0.0
O242 O 0.96626 0.02102 0.58374 0.0
Mg243 Mg 0.01288 0.01015 0.54375 0.0
O244 O 0.04165 0.05631 0.55526 0.0
O245 O 0.03778 0.09744 0.59611 0.0
O246 O 0.05813 0.9987 0.50114 0.0
O247 O 0.97989 0.03426 0.48405 0.0
Mg248 Mg 0.98856 0.96297 0.46801 0.0
O249 O 0.9838 0.96365 0.5328 0.0
O250 O 0.04142 0.95974 0.45733 0.0
O251 O 0.95835 -0.00119 0.43633 0.0
O252 O 0.96367 0.9253 0.48858 0.0
C253 C 0.07197 0.99519 0.63577 0.0
C254 C 0.96338 0.03222 0.62114 0.0
C255 C 0.03833 0.08572 0.5579 0.0
C256 C 0.06461 0.97891 0.47276 0.0
C257 C 0.96089 0.02648 0.44869 0.0
C258 C 0.96749 0.9376 0.52689 0.0
O259 O 0.07646 0.0232 0.64581 0.0
O260 O 0.04901 0.98657 0.60394 0.0
O261 O 0.53643 0.50076 0.1467 0.0
Mg262 Mg 0.51393 0.46483 0.10709 0.0
O263 O 0.53655 0.53244 0.0912 0.0
Mg264 Mg 0.49678 0.51013 0.03635 0.0
O265 O 0.51901 0.46084 0.04121 0.0
O266 O 0.55385 0.43654 0.09351 0.0
O267 O 0.45713 0.4878 0.97921 0.0
O268 O 0.53853 0.51909 0.98931 0.0
Mg269 Mg 0.46601 0.55582 0.96267 0.0
O270 O 0.47444 0.55874 0.02897 0.0
O271 O 0.42641 0.52435 0.94204 0.0
O272 O 0.51462 0.55109 0.93775 0.0
O273 O 0.45178 0.59704 0.98627 0.0
C274 C 0.44321 0.48076 0.10749 0.0
C275 C 0.54516 0.52607 0.13145 0.0
C276 C 0.54565 0.443 0.05266 0.0
C277 C 0.4321 0.49624 0.95001 0.0
C278 C 0.54026 0.53464 0.95459 0.0
C279 C 0.46181 0.58624 0.02486 0.0
O280 O 0.46107 0.45638 0.11479 0.0
O281 O 0.4543 0.50248 0.08492 0.0
H282 H 0.09669 0.26656 0.51092 0.0
C283 C 0.11684 0.26514 0.48918 0.0
H284 H 0.14671 0.23548 0.45427 0.0
H285 H 0.09218 0.13587 0.59008 0.0
H286 H 0.14136 0.15533 0.63959 0.0
H287 H 0.1754 0.19994 0.61931 0.0
H288 H 0.1605 0.22511 0.54893 0.0
C289 C 0.12539 0.23774 0.4741 0.0
C290 C 0.10649 0.20975 0.48539 0.0
C291 C 0.11593 0.19515 0.52635 0.0
C292 C 0.09615 0.16962 0.53816 0.0
C293 C 0.10599 0.15553 0.57944 0.0
C294 C 0.13429 0.16643 0.60822 0.0
C295 C 0.15347 0.19151 0.59677 0.0
C296 C 0.14458 0.20576 0.55632 0.0
H297 H 0.06465 0.09699 0.50006 0.0
C298 C 0.04798 0.10601 0.52298 0.0
H299 H 0.02639 0.14505 0.54921 0.0
H300 H 0.08291 0.23178 0.40381 0.0
H301 H 0.0333 0.21251 0.35429 0.0
H302 H 0.99873 0.16826 0.37487 0.0
H303 H 0.01367 0.14299 0.4454 0.0
C304 C 0.04274 0.13636 0.52568 0.0
C305 C 0.0668 0.15896 0.50917 0.0
C306 C 0.0582 0.17288 0.46766 0.0
C307 C 0.07816 0.19831 0.45572 0.0
C308 C 0.06864 0.21232 0.41443 0.0
C309 C 0.04024 0.20149 0.38572 0.0
C310 C 0.02077 0.17658 0.39735 0.0
C311 C 0.02952 0.16234 0.43785 0.0
H312 H 0.36936 0.74243 0.11778 0.0
C313 C 0.38226 0.75844 0.09792 0.0
H314 H 0.42342 0.76472 0.0596 0.0
H315 H 0.45616 0.62598 0.14894 0.0
H316 H 0.47989 0.65362 0.21454 0.0
H317 H 0.47511 0.70992 0.21796 0.0
H318 H 0.44662 0.73901 0.15559 0.0
C319 C 0.41023 0.74905 0.07957 0.0
C320 C 0.4175 0.71572 0.077 0.0
C321 C 0.43411 0.69917 0.11368 0.0
C322 C 0.4373 0.66673 0.11153 0.0
C323 C 0.45369 0.65067 0.14864 0.0
C324 C 0.46723 0.66624 0.18652 0.0
C325 C 0.46447 0.69796 0.18846 0.0
C326 C 0.44802 0.71436 0.15259 0.0
H327 H 0.4836 0.61978 0.07264 0.0
C328 C 0.46008 0.60635 0.06237 0.0
H329 H 0.40515 0.60407 0.05675 0.0
H330 H 0.38723 0.741 -0.00035 0.0
H331 H 0.36447 0.71386 0.93387 0.0
H332 H 0.36773 0.65753 0.93067 0.0
H333 H 0.39393 0.62826 0.99295 0.0
C334 C 0.42844 0.61742 0.06858 0.0
C335 C 0.42372 0.65104 0.07279 0.0
C336 C 0.40726 0.66773 0.03601 0.0
C337 C 0.40488 0.70012 0.03791 0.0
C338 C 0.38933 0.71633 0.00034 0.0
C339 C 0.37621 0.70104 0.96218 0.0
C340 C 0.3781 0.66937 0.96038 0.0
C341 C 0.39338 0.65282 0.99663 0.0
H342 H 0.89377 0.76816 0.62198 0.0
C343 C 0.86824 0.76958 0.60192 0.0
H344 H 0.8332 0.79764 0.56069 0.0
H345 H 0.93309 0.90999 0.64283 0.0
H346 H 0.89247 0.90964 0.69707 0.0
H347 H 0.8481 0.86868 0.69767 0.0
H348 H 0.84407 0.82772 0.64398 0.0
C349 C 0.85915 0.79537 0.57946 0.0
C350 C 0.8848 0.8209 0.5783 0.0
C351 C 0.8867 0.84476 0.60963 0.0
C352 C 0.91193 0.86872 0.6088 0.0
C353 C 0.91384 0.89175 0.64123 0.0
C354 C 0.89084 0.89169 0.67273 0.0
C355 C 0.86587 0.8686 0.6731 0.0
C356 C 0.86382 0.84526 0.64214 0.0
H357 H 0.92343 0.92935 0.56324 0.0
C358 C 0.95043 0.92246 0.5611 0.0
H359 H 0.98772 0.88733 0.56932 0.0
H360 H 0.88661 0.7794 0.51243 0.0
H361 H 0.92461 0.781 0.45552 0.0
H362 H 0.96737 0.82296 0.4525 0.0
H363 H 0.97254 0.8633 0.50617 0.0
C364 C 0.961 0.89407 0.57347 0.0
C365 C 0.9348 0.86899 0.57609 0.0
C366 C 0.93221 0.84537 0.54409 0.0
C367 C 0.90728 0.82133 0.54536 0.0
C368 C 0.90512 0.79818 0.51299 0.0
C369 C 0.92672 0.79883 0.48005 0.0
C370 C 0.9508 0.82242 0.47838 0.0
C371 C 0.95358 0.84546 0.50977 0.0
H372 H 0.67198 0.29398 0.98625 0.0
C373 C 0.65369 0.27512 0.98813 0.0
H374 H 0.60167 0.26155 0.99247 0.0
H375 H 0.56226 0.37941 0.09178 0.0
H376 H 0.5524 0.3388 0.14184 0.0
H377 H 0.56787 0.28543 0.12664 0.0
H378 H 0.59273 0.27257 0.06095 0.0
C379 C 0.61943 0.28069 0.98972 0.0
C380 C 0.6067 0.31244 0.99601 0.0
C381 C 0.59216 0.31945 0.03481 0.0
C382 C 0.58412 0.35028 0.04421 0.0
C383 C 0.56949 0.3566 0.08316 0.0
C384 C 0.56357 0.3334 0.11229 0.0
C385 C 0.57221 0.30339 0.10367 0.0
C386 C 0.5864 0.29635 0.06558 0.0
H387 H 0.53931 0.4155 0.99213 0.0
C388 C 0.55795 0.42211 0.02019 0.0
H389 H 0.60616 0.41309 0.05871 0.0
H390 H 0.62717 0.3062 0.91471 0.0
H391 H 0.63719 0.34731 0.86456 0.0
H392 H 0.62653 0.40119 0.88303 0.0
H393 H 0.60525 0.41425 0.95176 0.0
C394 C 0.5881 0.40637 0.03012 0.0
C395 C 0.59127 0.37419 0.01539 0.0
C396 C 0.60392 0.3671 0.97546 0.0
C397 C 0.61111 0.33608 0.9654 0.0
C398 C 0.62263 0.32945 0.92468 0.0
C399 C 0.62818 0.35281 0.89546 0.0
C400 C 0.6221 0.38315 0.90585 0.0
C401 C 0.61 0.39036 0.94533 0.0
H402 H 0.21424 0.91834 0.31202 0.0
C403 C 0.21303 0.93457 0.28501 0.0
H404 H 0.19204 0.97727 0.26124 0.0
H405 H 0.05826 0.9608 0.36054 0.0
H406 H 0.03228 0.95725 0.28478 0.0
H407 H 0.06967 0.95672 0.22543 0.0
H408 H 0.13326 0.96003 0.24153 0.0
C409 C 0.19402 0.96028 0.28716 0.0
C410 C 0.17171 0.96416 0.32282 0.0
C411 C 0.13457 0.96246 0.31274 0.0
C412 C 0.11311 0.96212 0.347 0.0
C413 C 0.07599 0.96048 0.33595 0.0
C414 C 0.06066 0.95858 0.29253 0.0
C415 C 0.0817 0.95833 0.25913 0.0
C416 C 0.11821 0.96026 0.26888 0.0
H417 H 0.11203 0.00221 0.45435 0.0
C418 C 0.09748 0.98077 0.45244 0.0
H419 H 0.09088 0.93698 0.42411 0.0
H420 H 0.24144 0.97288 0.35268 0.0
H421 H 0.26774 0.97577 0.42865 0.0
H422 H 0.23083 0.97221 0.48836 0.0
H423 H 0.16736 0.96619 0.47251 0.0
C424 C 0.10601 0.95814 0.42619 0.0
C425 C 0.12883 0.96311 0.39132 0.0
C426 C 0.16586 0.96621 0.40134 0.0
C427 C 0.18728 0.96722 0.36695 0.0
C428 C 0.22412 0.97106 0.37764 0.0
C429 C 0.2395 0.97291 0.42105 0.0
C430 C 0.2187 0.97099 0.45467 0.0
C431 C 0.18229 0.96762 0.44514 0.0
H432 H 0.64279 0.5816 0.75224 0.0
C433 C 0.6698 0.58981 0.75954 0.0
H434 H 0.71191 0.59657 0.81069 0.0
H435 H 0.58062 0.60319 0.92532 0.0
H436 H 0.59823 0.65661 0.92714 0.0
H437 H 0.64647 0.6743 0.88741 0.0
H438 H 0.67747 0.63849 0.8456 0.0
C439 C 0.68482 0.58936 0.8013 0.0
C440 C 0.66359 0.57748 0.83476 0.0
C441 C 0.64691 0.59835 0.86036 0.0
C442 C 0.61906 0.58817 0.88304 0.0
C443 C 0.60184 0.60973 0.90719 0.0
C444 C 0.61174 0.64045 0.9086 0.0
C445 C 0.6389 0.6504 0.88623 0.0
C446 C 0.6564 0.62969 0.86232 0.0
H447 H 0.59747 0.52685 0.95401 0.0
C448 C 0.57344 0.53533 0.93509 0.0
H449 H 0.55068 0.55748 0.8773 0.0
H450 H 0.69422 0.53087 0.79439 0.0
H451 H 0.67604 0.47742 0.79144 0.0
H452 H 0.62681 0.45988 0.8296 0.0
H453 H 0.59551 0.49565 0.87102 0.0
C454 C 0.57461 0.5486 0.896 0.0
C455 C 0.60819 0.55713 0.88019 0.0
C456 C 0.62662 0.53574 0.8573 0.0
C457 C 0.65463 0.54592 0.83484 0.0
C458 C 0.67236 0.52432 0.81143 0.0
C459 C 0.66229 0.49362 0.80966 0.0
C460 C 0.63459 0.48374 0.83118 0.0
C461 C 0.61685 0.50447 0.85481 0.0
H462 H 0.8091 0.0887 0.23364 0.0
C463 C 0.82734 0.08818 0.20941 0.0
H464 H 0.88074 0.08357 0.19915 0.0
H465 H 0.91517 0.10611 0.40886 0.0
H466 H 0.91635 0.15934 0.38616 0.0
H467 H 0.89834 0.17411 0.30919 0.0
H468 H 0.87878 0.13568 0.25447 0.0
C469 C 0.86168 0.08288 0.22231 0.0
C470 C 0.8743 0.07405 0.26807 0.0
C471 C 0.88611 0.09666 0.29944 0.0
C472 C 0.89741 0.08801 0.34356 0.0
C473 C 0.90761 0.11123 0.3746 0.0
C474 C 0.90809 0.14192 0.36207 0.0
C475 C 0.89789 0.15025 0.31874 0.0
C476 C 0.88677 0.128 0.28768 0.0
H477 H 0.96153 0.06559 0.404 0.0
C478 C 0.94433 0.04984 0.41848 0.0
H479 H 0.89429 0.03017 0.41626 0.0
H480 H 0.85433 0.02523 0.21503 0.0
H481 H 0.85657 0.97167 0.23597 0.0
H482 H 0.87864 0.9561 0.31152 0.0
H483 H 0.89821 0.99378 0.36645 0.0
C484 C 0.91055 0.04644 0.40113 0.0
C485 C 0.89788 0.05659 0.35568 0.0
C486 C 0.88686 0.03392 0.32375 0.0
C487 C 0.87479 0.04274 0.28001 0.0
C488 C 0.8638 0.01977 0.24877 0.0
C489 C 0.86502 0.9889 0.26029 0.0
C490 C 0.87738 0.98015 0.30281 0.0
C491 C 0.88833 0.0022 0.3342 0.0
H492 H 0.28261 0.44956 0.73263 0.0
C493 C 0.29787 0.44764 0.70535 0.0
H494 H 0.34928 0.44823 0.68706 0.0
H495 H 0.40906 0.52795 0.85326 0.0
H496 H 0.41358 0.56411 0.79462 0.0
H497 H 0.38899 0.55191 0.71866 0.0
H498 H 0.36021 0.50314 0.70093 0.0
C499 C 0.33303 0.45077 0.71319 0.0
C500 C 0.35053 0.45699 0.75836 0.0
C501 C 0.36724 0.4855 0.76808 0.0
C502 C 0.38057 0.49281 0.81202 0.0
C503 C 0.39757 0.52142 0.82071 0.0
C504 C 0.40054 0.54237 0.78727 0.0
C505 C 0.38677 0.53547 0.74451 0.0
C506 C 0.37031 0.5074 0.7348 0.0
H507 H 0.42837 0.45351 0.91117 0.0
C508 C 0.41412 0.47398 0.91852 0.0
H509 H 0.37126 0.50334 0.90017 0.0
H510 H 0.32677 0.39784 0.74964 0.0
H511 H 0.32242 0.36146 0.80827 0.0
H512 H 0.3423 0.37529 0.88507 0.0
H513 H 0.36705 0.42558 0.90363 0.0
C514 C 0.38479 0.48257 0.89231 0.0
C515 C 0.37654 0.47182 0.84634 0.0
C516 C 0.36177 0.44256 0.83631 0.0
C517 C 0.34926 0.43494 0.79212 0.0
C518 C 0.33553 0.40522 0.78274 0.0
C519 C 0.33312 0.38404 0.81606 0.0
C520 C 0.34438 0.39182 0.8593 0.0
C521 C 0.35855 0.42072 0.86952 0.0
H522 H 0.66453 0.5647 0.37957 0.0
C523 C 0.68002 0.58498 0.37426 0.0
H524 H 0.6897 0.61812 0.32668 0.0
H525 H 0.6263 0.5153 0.18504 0.0
H526 H 0.68711 0.49887 0.19189 0.0
H527 H 0.73179 0.52161 0.24743 0.0
H528 H 0.71567 0.56108 0.29659 0.0
C529 C 0.67624 0.59726 0.33393 0.0
C530 C 0.64976 0.58448 0.29915 0.0
C531 C 0.65985 0.56234 0.26972 0.0
C532 C 0.63414 0.54949 0.23741 0.0
C533 C 0.6447 0.52638 0.20965 0.0
C534 C 0.67959 0.51659 0.21334 0.0
C535 C 0.70473 0.52939 0.24463 0.0
C536 C 0.69514 0.55203 0.27258 0.0
H537 H 0.58209 0.56499 0.14627 0.0
C538 C 0.56722 0.54725 0.16054 0.0
H539 H 0.55532 0.52612 0.21865 0.0
H540 H 0.62158 0.62572 0.35168 0.0
H541 H 0.56006 0.6402 0.34761 0.0
H542 H 0.5155 0.61834 0.29105 0.0
H543 H 0.53226 0.58161 0.23837 0.0
C544 C 0.5711 0.54309 0.20418 0.0
C545 C 0.59846 0.55909 0.23441 0.0
C546 C 0.58834 0.58101 0.26419 0.0
C547 C 0.61404 0.59375 0.2966 0.0
C548 C 0.60315 0.61529 0.3264 0.0
C549 C 0.56792 0.62384 0.32439 0.0
C550 C 0.54283 0.61151 0.29258 0.0
C551 C 0.55278 0.59041 0.26264 0.0
H552 H 0.83606 0.0601 0.82397 0.0
C553 C 0.82228 0.08141 0.81467 0.0
H554 H 0.81496 0.11592 0.76588 0.0
H555 H 0.96109 0.08389 0.70174 0.0
H556 H 0.97466 0.13209 0.73857 0.0
H557 H 0.93164 0.15699 0.77998 0.0
H558 H 0.87466 0.1338 0.78449 0.0
C559 C 0.82589 0.09362 0.77547 0.0
C560 C 0.85044 0.07941 0.74775 0.0
C561 C 0.88339 0.09355 0.74491 0.0
C562 C 0.90837 0.07895 0.72168 0.0
C563 C 0.94122 0.09359 0.71952 0.0
C564 C 0.94937 0.12139 0.74041 0.0
C565 C 0.92513 0.13542 0.76366 0.0
C566 C 0.89248 0.12183 0.76593 0.0
H567 H 0.9054 0.03789 0.6156 0.0
C568 C 0.92913 0.0333 0.6381 0.0
H569 H 0.95281 0.02948 0.70332 0.0
H570 H 0.78864 0.04745 0.74399 0.0
H571 H 0.77601 0.99788 0.70991 0.0
H572 H 0.82032 0.97157 0.67198 0.0
H573 H 0.87745 0.99486 0.66743 0.0
C574 C 0.92861 0.03414 0.6816 0.0
C575 C 0.90045 0.05013 0.70153 0.0
C576 C 0.86733 0.0362 0.70373 0.0
C577 C 0.84211 0.05102 0.72656 0.0
C578 C 0.80902 0.03684 0.72793 0.0
C579 C 0.80139 0.00847 0.70835 0.0
C580 C 0.82633 0.99369 0.68691 0.0
C581 C 0.85896 0.0073 0.68447 0.0
H582 H 0.27974 0.43686 0.27496 0.0
C583 C 0.29639 0.44408 0.30446 0.0
H584 H 0.3471 0.46038 0.32971 0.0
H585 H 0.41846 0.41511 0.16852 0.0
H586 H 0.43102 0.37164 0.21637 0.0
H587 H 0.40299 0.36629 0.28357 0.0
H588 H 0.36226 0.4048 0.3033 0.0
C589 C 0.32867 0.45524 0.30084 0.0
C590 C 0.34231 0.4572 0.25789 0.0
C591 C 0.36534 0.43416 0.24617 0.0
C592 C 0.38084 0.43693 0.20689 0.0
C593 C 0.40491 0.41401 0.19711 0.0
C594 C 0.41264 0.38888 0.22453 0.0
C595 C 0.39692 0.38591 0.26239 0.0
C596 C 0.37361 0.40822 0.27332 0.0
H597 H 0.41655 0.50652 0.15471 0.0
C598 C 0.41434 0.48651 0.13364 0.0
H599 H 0.38887 0.44501 0.11699 0.0
H600 H 0.29983 0.50555 0.27143 0.0
H601 H 0.28679 0.54948 0.22365 0.0
H602 H 0.31219 0.55383 0.15437 0.0
H603 H 0.3507 0.51419 0.13231 0.0
C604 C 0.39028 0.46485 0.13839 0.0
C605 C 0.37294 0.46263 0.17893 0.0
C606 C 0.34957 0.48561 0.19051 0.0
C607 C 0.33442 0.48292 0.2302 0.0
C608 C 0.31181 0.5064 0.24155 0.0
C609 C 0.3041 0.53172 0.21442 0.0
C610 C 0.31844 0.53417 0.17542 0.0
C611 C 0.34071 0.51135 0.16328 0.0
H612 H 0.16253 0.95822 0.89089 0.0
C613 C 0.18843 0.94813 0.88997 0.0
H614 H 0.22493 0.93419 0.84786 0.0
H615 H 0.09942 0.91463 0.69227 0.0
H616 H 0.12502 0.86384 0.70081 0.0
H617 H 0.17416 0.85298 0.75891 0.0
H618 H 0.1977 0.89276 0.8092 0.0
C619 C 0.19928 0.94403 0.85065 0.0
C620 C 0.17526 0.9522 0.81003 0.0
C621 C 0.16266 0.92899 0.77986 0.0
C622 C 0.13487 0.93546 0.74557 0.0
C623 C 0.12131 0.91133 0.71779 0.0
C624 C 0.13557 0.88197 0.72257 0.0
C625 C 0.16319 0.87584 0.75536 0.0
C626 C 0.17648 0.8989 0.78399 0.0
H627 H 0.1157 0.96258 0.65164 0.0
C628 C 0.09309 0.97294 0.6638 0.0
H629 H 0.0678 0.98434 0.7178 0.0
H630 H 0.19888 0.00348 0.85581 0.0
H631 H 0.17443 0.05466 0.84659 0.0
H632 H 0.12541 0.06582 0.78853 0.0
H633 H 0.10095 0.02616 0.73917 0.0
C634 C 0.0902 0.97272 0.70679 0.0
C635 C 0.12049 0.96541 0.74077 0.0
C636 C 0.13458 0.98908 0.76948 0.0
C637 C 0.16231 0.98257 0.80361 0.0
C638 C 0.17674 0.00688 0.83063 0.0
C639 C 0.16325 0.03646 0.82537 0.0
C640 C 0.13571 0.04275 0.79265 0.0
C641 C 0.12171 0.01957 0.76467 0.0
loop_
_geom_bond_atom_site_label_1
_geom_bond_atom_site_label_2
_geom_bond_distance
_geom_bond_site_symmetry_2
_ccdc_geom_bond_type
C0 C1 1.391 . S
C0 C4 1.391 . S
C0 H42 0.948 . S
C1 C0 1.391 . S
C1 C2 1.391 . S
C2 C1 1.391 . S
C2 H58 0.947 . S
C2 C59 1.392 1_556 S
C3 C4 1.391 1_554 S
C3 C7 1.397 . S
C3 C59 1.419 . S
C4 C0 1.391 . S
C4 C3 1.391 1_556 S
C4 C5 1.399 . S
C5 C4 1.399 . S
C5 C8 1.396 1_556 S
C5 C17 1.453 . S
C5 C18 1.684 . S
H6 C30 0.948 . S
C7 C3 1.397 . S
C7 C8 1.394 . S
C7 C26 1.723 . S
C8 C5 1.396 1_554 S
C8 C7 1.394 . S
C8 C38 1.723 . S
H9 C32 0.947 . S
H10 C33 0.948 . S
H11 C39 0.982 . S
H12 C40 0.979 . S
H13 C40 0.980 . S
H14 C40 0.983 . S
H15 C39 0.979 . S
H16 C39 0.977 . S
C17 C5 1.453 . S
C17 H46 0.982 . S
C17 H47 0.979 . S
C17 H48 0.977 . S
C18 C5 1.684 . S
C18 H43 0.979 . S
C18 H44 0.980 . S
C18 H45 0.983 . S
C19 C20 1.391 . S
C19 C24 1.391 . S
C19 H49 0.948 . S
C20 C19 1.391 . S
C20 C21 1.391 . S
C21 C20 1.391 . S
C21 C22 1.392 . S
C21 H50 0.947 . S
C22 C21 1.392 . S
C22 C23 1.419 . S
C22 H51 0.948 . S
C23 C22 1.419 . S
C23 C24 1.391 . S
C23 C27 1.397 . S
C24 C19 1.391 . S
C24 C23 1.391 . S
C24 C25 1.399 . S
C25 C24 1.399 . S
C25 C26 1.396 . S
C25 C28 1.453 . S
C25 C29 1.684 . S
C26 C7 1.723 . S
C26 C25 1.396 . S
C26 C27 1.394 . S
C27 C23 1.397 . S
C27 C26 1.394 . S
C27 C37 1.723 . S
C28 C25 1.453 . S
C28 H52 0.982 . S
C28 H53 0.979 . S
C28 H54 0.977 . S
C29 C25 1.684 . S
C29 H55 0.979 . S
C29 H56 0.980 . S
C29 H57 0.983 . S
C30 H6 0.948 . S
C30 C31 1.391 . S
C30 C35 1.391 . S
C31 C30 1.391 . S
C31 C32 1.391 . S
C32 H9 0.947 . S
C32 C31 1.391 . S
C32 C33 1.392 . S
C33 H10 0.948 . S
C33 C32 1.392 . S
C33 C34 1.419 . S
C34 C33 1.419 . S
C34 C35 1.391 . S
C34 C38 1.397 . S
C35 C30 1.391 . S
C35 C34 1.391 . S
C35 C36 1.399 . S
C36 C35 1.399 . S
C36 C37 1.396 . S
C36 C39 1.453 . S
C36 C40 1.684 . S
C37 C27 1.723 . S
C37 C36 1.396 . S
C37 C38 1.394 . S
C38 C8 1.723 . S
C38 C34 1.397 . S
C38 C37 1.394 . S
C39 H11 0.982 . S
C39 H15 0.979 . S
C39 H16 0.977 . S
C39 C36 1.453 . S
C40 H12 0.979 . S
C40 H13 0.980 . S
C40 H14 0.983 . S
C40 C36 1.684 . S
H41 C59 0.948 . S
H42 C0 0.948 . S
H43 C18 0.979 . S
H44 C18 0.980 . S
H45 C18 0.983 . S
H46 C17 0.982 . S
H47 C17 0.979 . S
H48 C17 0.977 . S
H49 C19 0.948 . S
H50 C21 0.947 . S
H51 C22 0.948 . S
H52 C28 0.982 . S
H53 C28 0.979 . S
H54 C28 0.977 . S
H55 C29 0.979 . S
H56 C29 0.980 . S
H57 C29 0.983 . S
H58 C2 0.947 . S
C59 C2 1.392 1_554 S
C59 C3 1.419 . S
C59 H41 0.948 . S
C60 C61 1.391 . S
C60 C64 1.391 . S
C60 H102 0.948 . S
C61 C60 1.391 . S
C61 C62 1.391 . S
C62 C61 1.391 . S
C62 H118 0.947 . S
C62 C119 1.392 . S
C63 C64 1.391 . S
C63 C67 1.397 . S
C63 C119 1.419 . S
C64 C60 1.391 . S
C64 C63 1.391 . S
C64 C65 1.399 . S
C65 C64 1.399 . S
C65 C68 1.396 . S
C65 C77 1.453 . S
C65 C78 1.684 . S
H66 C90 0.948 . S
C67 C63 1.397 . S
C67 C68 1.394 . S
C67 C86 1.723 . S
C68 C65 1.396 . S
C68 C67 1.394 . S
C68 C98 1.723 . S
H69 C92 0.947 . S
H70 C93 0.948 . S
H71 C99 0.982 . S
H72 C100 0.979 . S
H73 C100 0.980 . S
H74 C100 0.983 . S
H75 C99 0.979 . S
H76 C99 0.977 . S
C77 C65 1.453 . S
C77 H106 0.982 . S
C77 H107 0.979 . S
C77 H108 0.977 . S
C78 C65 1.684 . S
C78 H103 0.979 . S
C78 H104 0.980 . S
C78 H105 0.983 . S
C79 C80 1.391 . S
C79 C84 1.391 . S
C79 H109 0.948 . S
C80 C79 1.391 . S
C80 C81 1.391 . S
C81 C80 1.391 . S
C81 C82 1.392 . S
C81 H110 0.947 . S
C82 C81 1.392 . S
C82 C83 1.419 . S
C82 H111 0.948 . S
C83 C82 1.419 . S
C83 C84 1.391 . S
C83 C87 1.397 . S
C84 C79 1.391 . S
C84 C83 1.391 . S
C84 C85 1.399 . S
C85 C84 1.399 . S
C85 C86 1.396 . S
C85 C88 1.453 . S
C85 C89 1.684 . S
C86 C67 1.723 . S
C86 C85 1.396 . S
C86 C87 1.394 . S
C87 C83 1.397 . S
C87 C86 1.394 . S
C87 C97 1.723 . S
C88 C85 1.453 . S
C88 H112 0.982 . S
C88 H113 0.979 . S
C88 H114 0.977 . S
C89 C85 1.684 . S
C89 H115 0.979 . S
C89 H116 0.980 . S
C89 H117 0.983 . S
C90 H66 0.948 . S
C90 C91 1.391 . S
C90 C95 1.391 . S
C91 C90 1.391 . S
C91 C92 1.391 . S
C92 H69 0.947 . S
C92 C91 1.391 . S
C92 C93 1.392 . S
C93 H70 0.948 . S
C93 C92 1.392 . S
C93 C94 1.419 . S
C94 C93 1.419 . S
C94 C95 1.391 . S
C94 C98 1.397 . S
C95 C90 1.391 . S
C95 C94 1.391 . S
C95 C96 1.399 . S
C96 C95 1.399 . S
C96 C97 1.396 . S
C96 C99 1.453 . S
C96 C100 1.684 . S
C97 C87 1.723 . S
C97 C96 1.396 . S
C97 C98 1.394 . S
C98 C68 1.723 . S
C98 C94 1.397 . S
C98 C97 1.394 . S
C99 H71 0.982 . S
C99 H75 0.979 . S
C99 H76 0.977 . S
C99 C96 1.453 . S
C100 H72 0.979 . S
C100 H73 0.980 . S
C100 H74 0.983 . S
C100 C96 1.684 . S
H101 C119 0.948 . S
H102 C60 0.948 . S
H103 C78 0.979 . S
H104 C78 0.980 . S
H105 C78 0.983 . S
H106 C77 0.982 . S
H107 C77 0.979 . S
H108 C77 0.977 . S
H109 C79 0.948 . S
H110 C81 0.947 . S
H111 C82 0.948 . S
H112 C88 0.982 . S
H113 C88 0.979 . S
H114 C88 0.977 . S
H115 C89 0.979 . S
H116 C89 0.980 . S
H117 C89 0.983 . S
H118 C62 0.947 . S
C119 C62 1.392 . S
C119 C63 1.419 . S
C119 H101 0.948 . S
C120 C121 1.391 . S
C120 C124 1.391 . S
C120 H162 0.948 . S
C121 C120 1.391 . S
C121 C122 1.391 . S
C122 C121 1.391 . S
C122 H178 0.947 . S
C122 C179 1.392 . S
C123 C124 1.391 . S
C123 C127 1.397 . S
C123 C179 1.419 . S
C124 C120 1.391 . S
C124 C123 1.391 . S
C124 C125 1.399 . S
C125 C124 1.399 . S
C125 C128 1.396 . S
C125 C137 1.453 . S
C125 C138 1.684 . S
H126 C150 0.948 . S
C127 C123 1.397 . S
C127 C128 1.394 . S
C127 C146 1.723 1_554 S
C128 C125 1.396 . S
C128 C127 1.394 . S
C128 C158 1.723 . S
H129 C152 0.947 . S
H130 C153 0.948 . S
H131 C159 0.982 . S
H132 C160 0.979 . S
H133 C160 0.980 . S
H134 C160 0.983 . S
H135 C159 0.979 . S
H136 C159 0.977 . S
C137 C125 1.453 . S
C137 H166 0.982 . S
C137 H167 0.979 . S
C137 H168 0.977 . S
C138 C125 1.684 . S
C138 H163 0.979 . S
C138 H164 0.980 . S
C138 H165 0.983 . S
C139 C140 1.391 . S
C139 C144 1.391 . S
C139 H169 0.948 . S
C140 C139 1.391 . S
C140 C141 1.391 . S
C141 C140 1.391 . S
C141 C142 1.392 . S
C141 H170 0.947 . S
C142 C141 1.392 . S
C142 C143 1.419 . S
C142 H171 0.948 . S
C143 C142 1.419 . S
C143 C144 1.391 . S
C143 C147 1.397 . S
C144 C139 1.391 . S
C144 C143 1.391 . S
C144 C145 1.399 . S
C145 C144 1.399 . S
C145 C146 1.396 . S
C145 C148 1.453 . S
C145 C149 1.684 . S
C146 C127 1.723 1_556 S
C146 C145 1.396 . S
C146 C147 1.394 . S
C147 C143 1.397 . S
C147 C146 1.394 . S
C147 C157 1.723 . S
C148 C145 1.453 . S
C148 H172 0.982 . S
C148 H173 0.979 . S
C148 H174 0.977 1_556 S
C149 C145 1.684 . S
C149 H175 0.979 . S
C149 H176 0.980 1_556 S
C149 H177 0.983 . S
C150 H126 0.948 . S
C150 C151 1.371 1_556 S
C150 C155 1.391 . S
C151 C150 1.371 1_554 S
C151 C152 1.412 . S
C152 H129 0.947 . S
C152 C151 1.412 . S
C152 C153 1.392 . S
C153 H130 0.948 . S
C153 C152 1.392 . S
C153 C154 1.419 . S
C154 C153 1.419 . S
C154 C155 1.391 1_554 S
C154 C158 1.397 . S
C155 C150 1.391 . S
C155 C154 1.391 1_556 S
C155 C156 1.399 . S
C156 C155 1.399 . S
C156 C157 1.396 . S
C156 C159 1.453 . S
C156 C160 1.684 . S
C157 C147 1.723 . S
C157 C156 1.396 . S
C157 C158 1.394 1_556 S
C158 C128 1.723 . S
C158 C154 1.397 . S
C158 C157 1.394 1_554 S
C159 H131 0.982 . S
C159 H135 0.979 . S
C159 H136 0.977 . S
C159 C156 1.453 . S
C160 H132 0.979 . S
C160 H133 0.980 . S
C160 H134 0.983 . S
C160 C156 1.684 . S
H161 C179 0.948 . S
H162 C120 0.948 . S
H163 C138 0.979 . S
H164 C138 0.980 . S
H165 C138 0.983 . S
H166 C137 0.982 . S
H167 C137 0.979 . S
H168 C137 0.977 . S
H169 C139 0.948 . S
H170 C141 0.947 . S
H171 C142 0.948 . S
H172 C148 0.982 . S
H173 C148 0.979 . S
H174 C148 0.977 1_554 S
H175 C149 0.979 . S
H176 C149 0.980 1_554 S
H177 C149 0.983 . S
H178 C122 0.947 . S
C179 C122 1.392 . S
C179 C123 1.419 . S
C179 H161 0.948 . S
C180 C181 1.391 . S
C180 C184 1.391 . S
C180 H222 0.948 . S
C181 C180 1.391 . S
C181 C182 1.391 . S
C182 C181 1.391 . S
C182 H238 0.947 . S
C182 C239 1.392 . S
C183 C184 1.391 . S
C183 C187 1.397 . S
C183 C239 1.419 . S
C184 C180 1.391 . S
C184 C183 1.391 . S
C184 C185 1.399 . S
C185 C184 1.399 . S
C185 C188 1.396 . S
C185 C197 1.453 . S
C185 C198 1.684 . S
H186 C210 0.948 . S
C187 C183 1.397 . S
C187 C188 1.394 . S
C187 C206 1.723 . S
C188 C185 1.396 . S
C188 C187 1.394 . S
C188 C218 1.723 . S
H189 C212 0.947 . S
H190 C213 0.948 . S
H191 C219 0.982 . S
H192 C220 0.979 . S
H193 C220 0.980 . S
H194 C220 0.983 . S
H195 C219 0.979 . S
H196 C219 0.977 . S
C197 C185 1.453 . S
C197 H226 0.982 . S
C197 H227 0.979 . S
C197 H228 0.977 . S
C198 C185 1.684 . S
C198 H223 0.979 . S
C198 H224 0.980 . S
C198 H225 0.983 . S
C199 C200 1.391 . S
C199 C204 1.391 . S
C199 H229 0.948 . S
C200 C199 1.391 . S
C200 C201 1.391 . S
C201 C200 1.391 . S
C201 C202 1.392 . S
C201 H230 0.947 . S
C202 C201 1.392 . S
C202 C203 1.419 . S
C202 H231 0.948 . S
C203 C202 1.419 . S
C203 C204 1.391 . S
C203 C207 1.397 . S
C204 C199 1.391 . S
C204 C203 1.391 . S
C204 C205 1.399 . S
C205 C204 1.399 . S
C205 C206 1.396 . S
C205 C208 1.453 . S
C205 C209 1.684 . S
C206 C187 1.723 . S
C206 C205 1.396 . S
C206 C207 1.394 . S
C207 C203 1.397 . S
C207 C206 1.394 . S
C207 C217 1.723 . S
C208 C205 1.453 . S
C208 H232 0.982 . S
C208 H233 0.979 . S
C208 H234 0.977 . S
C209 C205 1.684 . S
C209 H235 0.979 . S
C209 H236 0.980 . S
C209 H237 0.983 . S
C210 H186 0.948 . S
C210 C211 1.391 . S
C210 C215 1.391 . S
C211 C210 1.391 . S
C211 C212 1.391 . S
C212 H189 0.947 . S
C212 C211 1.391 . S
C212 C213 1.392 . S
C213 H190 0.948 . S
C213 C212 1.392 . S
C213 C214 1.419 . S
C214 C213 1.419 . S
C214 C215 1.391 . S
C214 C218 1.397 . S
C215 C210 1.391 . S
C215 C214 1.391 . S
C215 C216 1.399 . S
C216 C215 1.399 . S
C216 C217 1.396 . S
C216 C219 1.453 . S
C216 C220 1.684 . S
C217 C207 1.723 . S
C217 C216 1.396 . S
C217 C218 1.394 . S
C218 C188 1.723 . S
C218 C214 1.397 . S
C218 C217 1.394 . S
C219 H191 0.982 . S
C219 H195 0.979 . S
C219 H196 0.977 . S
C219 C216 1.453 . S
C220 H192 0.979 . S
C220 H193 0.980 . S
C220 H194 0.983 . S
C220 C216 1.684 . S
H221 C239 0.948 . S
H222 C180 0.948 . S
H223 C198 0.979 . S
H224 C198 0.980 . S
H225 C198 0.983 . S
H226 C197 0.982 . S
H227 C197 0.979 . S
H228 C197 0.977 . S
H229 C199 0.948 . S
H230 C201 0.947 . S
H231 C202 0.948 . S
H232 C208 0.982 . S
H233 C208 0.979 . S
H234 C208 0.977 . S
H235 C209 0.979 . S
H236 C209 0.980 . S
H237 C209 0.983 . S
H238 C182 0.947 . S
C239 C182 1.392 . S
C239 C183 1.419 . S
C239 H221 0.948 . S
O240 Mg241 1.990 1_655 S
O240 C254 1.253 . S
Mg241 O240 1.990 1_455 S
Mg241 O244 2.180 . S
Mg241 O245 2.117 . S
Mg241 O259 2.030 . S
O242 Mg243 2.072 1_655 S
O242 C254 1.260 . S
Mg243 O242 2.072 1_455 S
Mg243 O244 2.099 . S
Mg243 O246 2.079 1_545 S
Mg243 O247 2.072 1_455 S
Mg243 O249 2.099 1_445 S
Mg243 O260 2.079 1_545 S
O244 Mg241 2.180 . S
O244 Mg243 2.099 . S
O244 C255 1.279 . S
O245 Mg241 2.117 . S
O245 C255 1.250 . S
O246 Mg243 2.079 1_565 S
O246 C256 1.264 . S
O247 Mg243 2.072 1_655 S
O247 C257 1.260 . S
Mg248 O249 2.180 . S
Mg248 O250 2.030 1_655 S
Mg248 O251 1.990 1_565 S
Mg248 O252 2.117 . S
O249 Mg243 2.099 1_665 S
O249 Mg248 2.180 . S
O249 C258 1.279 . S
O250 Mg248 2.030 1_455 S
O250 C256 1.248 . S
O251 Mg248 1.990 1_545 S
O251 C257 1.253 . S
O252 Mg248 2.117 . S
O252 C258 1.250 . S
C253 O259 1.248 1_565 S
C253 O260 1.264 . S
C254 O240 1.253 . S
C254 O242 1.260 . S
C255 O244 1.279 . S
C255 O245 1.250 . S
C256 O246 1.264 . S
C256 O250 1.248 . S
C257 O247 1.260 . S
C257 O251 1.253 . S
C258 O249 1.279 . S
C258 O252 1.250 . S
O259 Mg241 2.030 . S
O259 C253 1.248 1_545 S
O260 Mg243 2.079 1_565 S
O260 C253 1.264 . S
O261 Mg262 1.990 . S
O261 C275 1.253 . S
Mg262 O261 1.990 . S
Mg262 O265 2.180 . S
Mg262 O266 2.117 . S
Mg262 O280 2.030 . S
O263 Mg264 2.072 . S
O263 C275 1.260 . S
Mg264 O263 2.072 . S
Mg264 O265 2.099 . S
Mg264 O267 2.079 1_554 S
Mg264 O268 2.072 1_554 S
Mg264 O270 2.099 . S
Mg264 O281 2.079 . S
O265 Mg262 2.180 . S
O265 Mg264 2.099 . S
O265 C276 1.279 . S
O266 Mg262 2.117 . S
O266 C276 1.250 . S
O267 Mg264 2.079 1_556 S
O267 C277 1.264 . S
O268 Mg264 2.072 1_556 S
O268 C278 1.260 . S
Mg269 O270 2.180 1_556 S
Mg269 O271 2.030 . S
Mg269 O272 1.990 . S
Mg269 O273 2.117 1_556 S
O270 Mg264 2.099 . S
O270 Mg269 2.180 1_554 S
O270 C279 1.279 . S
O271 Mg269 2.030 . S
O271 C277 1.248 . S
O272 Mg269 1.990 . S
O272 C278 1.253 . S
O273 Mg269 2.117 1_554 S
O273 C279 1.250 . S
C274 O280 1.248 . S
C274 O281 1.264 . S
C275 O261 1.253 . S
C275 O263 1.260 . S
C276 O265 1.279 . S
C276 O266 1.250 . S
C277 O267 1.264 . S
C277 O271 1.248 . S
C278 O268 1.260 . S
C278 O272 1.253 . S
C279 O270 1.279 . S
C279 O273 1.250 . S
O280 Mg262 2.030 . S
O280 C274 1.248 . S
O281 Mg264 2.079 . S
O281 C274 1.264 . S
H282 C283 0.951 . S
C283 H282 0.951 . S
C283 C289 1.265 . S
H284 C289 0.950 . S
H285 C293 0.949 . S
H286 C294 0.950 . S
H287 C295 0.951 . S
H288 C296 0.951 . S
C289 C283 1.265 . S
C289 H284 0.950 . S
C289 C290 1.478 . S
C290 C289 1.478 . S
C290 C291 1.397 . S
C290 C307 1.394 . S
C291 C290 1.397 . S
C291 C292 1.438 . S
C291 C296 1.429 . S
C292 C291 1.438 . S
C292 C293 1.428 . S
C292 C305 1.394 . S
C293 H285 0.949 . S
C293 C292 1.428 . S
C293 C294 1.345 . S
C294 H286 0.950 . S
C294 C293 1.345 . S
C294 C295 1.424 . S
C295 H287 0.951 . S
C295 C294 1.424 . S
C295 C296 1.347 . S
C296 H288 0.951 . S
C296 C291 1.429 . S
C296 C295 1.347 . S
H297 C298 0.951 . S
C298 H297 0.951 . S
C298 C304 1.265 . S
H299 C304 0.950 . S
H300 C308 0.949 . S
H301 C309 0.950 . S
H302 C310 0.951 . S
H303 C311 0.951 . S
C304 C298 1.265 . S
C304 H299 0.950 . S
C304 C305 1.478 . S
C305 C292 1.394 . S
C305 C304 1.478 . S
C305 C306 1.397 . S
C306 C305 1.397 . S
C306 C307 1.438 . S
C306 C311 1.429 . S
C307 C290 1.394 . S
C307 C306 1.438 . S
C307 C308 1.428 . S
C308 H300 0.949 . S
C308 C307 1.428 . S
C308 C309 1.345 . S
C309 H301 0.950 . S
C309 C308 1.345 . S
C309 C310 1.424 . S
C310 H302 0.951 . S
C310 C309 1.424 . S
C310 C311 1.347 . S
C311 H303 0.951 . S
C311 C306 1.429 . S
C311 C310 1.347 . S
H312 C313 0.951 . S
C313 H312 0.951 . S
C313 C319 1.265 . S
H314 C319 0.950 . S
H315 C323 0.949 . S
H316 C324 0.950 . S
H317 C325 0.951 . S
H318 C326 0.951 . S
C319 C313 1.265 . S
C319 H314 0.950 . S
C319 C320 1.478 . S
C320 C319 1.478 . S
C320 C321 1.397 . S
C320 C337 1.394 . S
C321 C320 1.397 . S
C321 C322 1.438 . S
C321 C326 1.429 . S
C322 C321 1.438 . S
C322 C323 1.428 . S
C322 C335 1.394 . S
C323 H315 0.949 . S
C323 C322 1.428 . S
C323 C324 1.345 . S
C324 H316 0.950 . S
C324 C323 1.345 . S
C324 C325 1.424 . S
C325 H317 0.951 . S
C325 C324 1.424 . S
C325 C326 1.347 . S
C326 H318 0.951 . S
C326 C321 1.429 . S
C326 C325 1.347 . S
H327 C328 0.951 . S
C328 H327 0.951 . S
C328 C334 1.265 . S
H329 C334 0.950 . S
H330 C338 0.949 . S
H331 C339 0.950 . S
H332 C340 0.951 . S
H333 C341 0.951 . S
C334 C328 1.265 . S
C334 H329 0.950 . S
C334 C335 1.478 . S
C335 C322 1.394 . S
C335 C334 1.478 . S
C335 C336 1.397 . S
C336 C335 1.397 . S
C336 C337 1.438 . S
C336 C341 1.429 1_554 S
C337 C320 1.394 . S
C337 C336 1.438 . S
C337 C338 1.428 . S
C338 H330 0.949 . S
C338 C337 1.428 . S
C338 C339 1.345 1_554 S
C339 H331 0.950 . S
C339 C338 1.345 1_556 S
C339 C340 1.424 . S
C340 H332 0.951 . S
C340 C339 1.424 . S
C340 C341 1.347 . S
C341 H333 0.951 . S
C341 C336 1.429 1_556 S
C341 C340 1.347 . S
H342 C343 0.951 . S
C343 H342 0.951 . S
C343 C349 1.265 . S
H344 C349 0.950 . S
H345 C353 0.949 . S
H346 C354 0.950 . S
H347 C355 0.951 . S
H348 C356 0.951 . S
C349 C343 1.265 . S
C349 H344 0.950 . S
C349 C350 1.478 . S
C350 C349 1.478 . S
C350 C351 1.397 . S
C350 C367 1.394 . S
C351 C350 1.397 . S
C351 C352 1.438 . S
C351 C356 1.429 . S
C352 C351 1.438 . S
C352 C353 1.428 . S
C352 C365 1.394 . S
C353 H345 0.949 . S
C353 C352 1.428 . S
C353 C354 1.345 . S
C354 H346 0.950 . S
C354 C353 1.345 . S
C354 C355 1.424 . S
C355 H347 0.951 . S
C355 C354 1.424 . S
C355 C356 1.347 . S
C356 H348 0.951 . S
C356 C351 1.429 . S
C356 C355 1.347 . S
H357 C358 0.951 . S
C358 H357 0.951 . S
C358 C364 1.265 . S
H359 C364 0.950 . S
H360 C368 0.949 . S
H361 C369 0.950 . S
H362 C370 0.951 . S
H363 C371 0.951 . S
C364 C358 1.265 . S
C364 H359 0.950 . S
C364 C365 1.478 . S
C365 C352 1.394 . S
C365 C364 1.478 . S
C365 C366 1.397 . S
C366 C365 1.397 . S
C366 C367 1.438 . S
C366 C371 1.429 . S
C367 C350 1.394 . S
C367 C366 1.438 . S
C367 C368 1.428 . S
C368 H360 0.949 . S
C368 C367 1.428 . S
C368 C369 1.345 . S
C369 H361 0.950 . S
C369 C368 1.345 . S
C369 C370 1.424 . S
C370 H362 0.951 . S
C370 C369 1.424 . S
C370 C371 1.347 . S
C371 H363 0.951 . S
C371 C366 1.429 . S
C371 C370 1.347 . S
H372 C373 0.950 . S
C373 H372 0.950 . S
C373 C379 1.265 . S
H374 C379 0.949 . S
H375 C383 0.949 . S
H376 C384 0.950 . S
H377 C385 0.951 . S
H378 C386 0.951 . S
C379 C373 1.265 . S
C379 H374 0.949 . S
C379 C380 1.478 1_556 S
C380 C379 1.478 1_554 S
C380 C381 1.397 . S
C380 C397 1.394 1_554 S
C381 C380 1.397 . S
C381 C382 1.438 . S
C381 C386 1.429 . S
C382 C381 1.438 . S
C382 C383 1.428 . S
C382 C395 1.394 . S
C383 H375 0.949 . S
C383 C382 1.428 . S
C383 C384 1.345 . S
C384 H376 0.950 . S
C384 C383 1.345 . S
C384 C385 1.424 . S
C385 H377 0.951 . S
C385 C384 1.424 . S
C385 C386 1.347 . S
C386 H378 0.951 . S
C386 C381 1.429 . S
C386 C385 1.347 . S
H387 C388 0.951 . S
C388 H387 0.951 . S
C388 C394 1.265 . S
H389 C394 0.950 . S
H390 C398 0.949 . S
H391 C399 0.950 . S
H392 C400 0.951 . S
H393 C401 0.951 . S
C394 C388 1.265 . S
C394 H389 0.950 . S
C394 C395 1.478 . S
C395 C382 1.394 . S
C395 C394 1.478 . S
C395 C396 1.397 1_554 S
C396 C395 1.397 1_556 S
C396 C397 1.438 . S
C396 C401 1.429 . S
C397 C380 1.394 1_556 S
C397 C396 1.438 . S
C397 C398 1.428 . S
C398 H390 0.949 . S
C398 C397 1.428 . S
C398 C399 1.345 . S
C399 H391 0.950 . S
C399 C398 1.345 . S
C399 C400 1.424 . S
C400 H392 0.951 . S
C400 C399 1.424 . S
C400 C401 1.347 . S
C401 H393 0.951 . S
C401 C396 1.429 . S
C401 C400 1.347 . S
H402 C403 0.951 . S
C403 H402 0.951 . S
C403 C409 1.265 . S
H404 C409 0.950 . S
H405 C413 0.949 . S
H406 C414 0.950 . S
H407 C415 0.951 . S
H408 C416 0.951 . S
C409 C403 1.265 . S
C409 H404 0.950 . S
C409 C410 1.478 . S
C410 C409 1.478 . S
C410 C411 1.397 . S
C410 C427 1.394 . S
C411 C410 1.397 . S
C411 C412 1.438 . S
C411 C416 1.429 . S
C412 C411 1.438 . S
C412 C413 1.428 . S
C412 C425 1.394 . S
C413 H405 0.949 . S
C413 C412 1.428 . S
C413 C414 1.345 . S
C414 H406 0.950 . S
C414 C413 1.345 . S
C414 C415 1.424 . S
C415 H407 0.951 . S
C415 C414 1.424 . S
C415 C416 1.347 . S
C416 H408 0.951 . S
C416 C411 1.429 . S
C416 C415 1.347 . S
H417 C418 0.951 1_545 S
C418 H417 0.951 1_565 S
C418 C424 1.265 . S
H419 C424 0.950 . S
H420 C428 0.949 . S
H421 C429 0.950 . S
H422 C430 0.951 . S
H423 C431 0.951 . S
C424 C418 1.265 . S
C424 H419 0.950 . S
C424 C425 1.478 . S
C425 C412 1.394 . S
C425 C424 1.478 . S
C425 C426 1.397 . S
C426 C425 1.397 . S
C426 C427 1.438 . S
C426 C431 1.429 . S
C427 C410 1.394 . S
C427 C426 1.438 . S
C427 C428 1.428 . S
C428 H420 0.949 . S
C428 C427 1.428 . S
C428 C429 1.345 . S
C429 H421 0.950 . S
C429 C428 1.345 . S
C429 C430 1.424 . S
C430 H422 0.951 . S
C430 C429 1.424 . S
C430 C431 1.347 . S
C431 H423 0.951 . S
C431 C426 1.429 . S
C431 C430 1.347 . S
H432 C433 0.951 . S
C433 H432 0.951 . S
C433 C439 1.265 . S
H434 C439 0.950 . S
H435 C443 0.949 . S
H436 C444 0.950 . S
H437 C445 0.951 . S
H438 C446 0.951 . S
C439 C433 1.265 . S
C439 H434 0.950 . S
C439 C440 1.478 . S
C440 C439 1.478 . S
C440 C441 1.397 . S
C440 C457 1.394 . S
C441 C440 1.397 . S
C441 C442 1.438 . S
C441 C446 1.429 . S
C442 C441 1.438 . S
C442 C443 1.428 . S
C442 C455 1.394 . S
C443 H435 0.949 . S
C443 C442 1.428 . S
C443 C444 1.345 . S
C444 H436 0.950 . S
C444 C443 1.345 . S
C444 C445 1.424 . S
C445 H437 0.951 . S
C445 C444 1.424 . S
C445 C446 1.347 . S
C446 H438 0.951 . S
C446 C441 1.429 . S
C446 C445 1.347 . S
H447 C448 0.951 . S
C448 H447 0.951 . S
C448 C454 1.265 . S
H449 C454 0.950 . S
H450 C458 0.949 . S
H451 C459 0.950 . S
H452 C460 0.951 . S
H453 C461 0.951 . S
C454 C448 1.265 . S
C454 H449 0.950 . S
C454 C455 1.478 . S
C455 C442 1.394 . S
C455 C454 1.478 . S
C455 C456 1.397 . S
C456 C455 1.397 . S
C456 C457 1.438 . S
C456 C461 1.429 . S
C457 C440 1.394 . S
C457 C456 1.438 . S
C457 C458 1.428 . S
C458 H450 0.949 . S
C458 C457 1.428 . S
C458 C459 1.345 . S
C459 H451 0.950 . S
C459 C458 1.345 . S
C459 C460 1.424 . S
C460 H452 0.951 . S
C460 C459 1.424 . S
C460 C461 1.347 . S
C461 H453 0.951 . S
C461 C456 1.429 . S
C461 C460 1.347 . S
H462 C463 0.951 . S
C463 H462 0.951 . S
C463 C469 1.265 . S
H464 C469 0.950 . S
H465 C473 0.949 . S
H466 C474 0.950 . S
H467 C475 0.951 . S
H468 C476 0.951 . S
C469 C463 1.265 . S
C469 H464 0.950 . S
C469 C470 1.478 . S
C470 C469 1.478 . S
C470 C471 1.397 . S
C470 C487 1.394 . S
C471 C470 1.397 . S
C471 C472 1.438 . S
C471 C476 1.429 . S
C472 C471 1.438 . S
C472 C473 1.428 . S
C472 C485 1.394 . S
C473 H465 0.949 . S
C473 C472 1.428 . S
C473 C474 1.345 . S
C474 H466 0.950 . S
C474 C473 1.345 . S
C474 C475 1.424 . S
C475 H467 0.951 . S
C475 C474 1.424 . S
C475 C476 1.347 . S
C476 H468 0.951 . S
C476 C471 1.429 . S
C476 C475 1.347 . S
H477 C478 0.951 . S
C478 H477 0.951 . S
C478 C484 1.265 . S
H479 C484 0.950 . S
H480 C488 0.949 . S
H481 C489 0.950 . S
H482 C490 0.951 . S
H483 C491 0.951 1_565 S
C484 C478 1.265 . S
C484 H479 0.950 . S
C484 C485 1.478 . S
C485 C472 1.394 . S
C485 C484 1.478 . S
C485 C486 1.397 . S
C486 C485 1.397 . S
C486 C487 1.438 . S
C486 C491 1.428 . S
C487 C470 1.394 . S
C487 C486 1.438 . S
C487 C488 1.428 . S
C488 H480 0.949 . S
C488 C487 1.428 . S
C488 C489 1.345 1_545 S
C489 H481 0.950 . S
C489 C488 1.345 1_565 S
C489 C490 1.424 . S
C490 H482 0.951 . S
C490 C489 1.424 . S
C490 C491 1.348 1_565 S
C491 H483 0.951 1_545 S
C491 C486 1.428 . S
C491 C490 1.348 1_545 S
H492 C493 0.951 . S
C493 H492 0.951 . S
C493 C499 1.265 . S
H494 C499 0.950 . S
H495 C503 0.949 . S
H496 C504 0.950 . S
H497 C505 0.951 . S
H498 C506 0.951 . S
C499 C493 1.265 . S
C499 H494 0.950 . S
C499 C500 1.478 . S
C500 C499 1.478 . S
C500 C501 1.397 . S
C500 C517 1.394 . S
C501 C500 1.397 . S
C501 C502 1.438 . S
C501 C506 1.429 . S
C502 C501 1.438 . S
C502 C503 1.428 . S
C502 C515 1.394 . S
C503 H495 0.949 . S
C503 C502 1.428 . S
C503 C504 1.345 . S
C504 H496 0.950 . S
C504 C503 1.345 . S
C504 C505 1.424 . S
C505 H497 0.951 . S
C505 C504 1.424 . S
C505 C506 1.347 . S
C506 H498 0.951 . S
C506 C501 1.429 . S
C506 C505 1.347 . S
H507 C508 0.951 . S
C508 H507 0.951 . S
C508 C514 1.265 . S
H509 C514 0.950 . S
H510 C518 0.949 . S
H511 C519 0.950 . S
H512 C520 0.951 . S
H513 C521 0.951 . S
C514 C508 1.265 . S
C514 H509 0.950 . S
C514 C515 1.478 . S
C515 C502 1.394 . S
C515 C514 1.478 . S
C515 C516 1.397 . S
C516 C515 1.397 . S
C516 C517 1.438 . S
C516 C521 1.429 . S
C517 C500 1.394 . S
C517 C516 1.438 . S
C517 C518 1.428 . S
C518 H510 0.949 . S
C518 C517 1.428 . S
C518 C519 1.345 . S
C519 H511 0.950 . S
C519 C518 1.345 . S
C519 C520 1.424 . S
C520 H512 0.951 . S
C520 C519 1.424 . S
C520 C521 1.347 . S
C521 H513 0.951 . S
C521 C516 1.429 . S
C521 C520 1.347 . S
H522 C523 0.951 . S
C523 H522 0.951 . S
C523 C529 1.265 . S
H524 C529 0.950 . S
H525 C533 0.949 . S
H526 C534 0.950 . S
H527 C535 0.951 . S
H528 C536 0.951 . S
C529 C523 1.265 . S
C529 H524 0.950 . S
C529 C530 1.478 . S
C530 C529 1.478 . S
C530 C531 1.397 . S
C530 C547 1.394 . S
C531 C530 1.397 . S
C531 C532 1.438 . S
C531 C536 1.429 . S
C532 C531 1.438 . S
C532 C533 1.428 . S
C532 C545 1.394 . S
C533 H525 0.949 . S
C533 C532 1.428 . S
C533 C534 1.345 . S
C534 H526 0.950 . S
C534 C533 1.345 . S
C534 C535 1.424 . S
C535 H527 0.951 . S
C535 C534 1.424 . S
C535 C536 1.347 . S
C536 H528 0.951 . S
C536 C531 1.429 . S
C536 C535 1.347 . S
H537 C538 0.951 . S
C538 H537 0.951 . S
C538 C544 1.265 . S
H539 C544 0.950 . S
H540 C548 0.949 . S
H541 C549 0.950 . S
H542 C550 0.951 . S
H543 C551 0.951 . S
C544 C538 1.265 . S
C544 H539 0.950 . S
C544 C545 1.478 . S
C545 C532 1.394 . S
C545 C544 1.478 . S
C545 C546 1.397 . S
C546 C545 1.397 . S
C546 C547 1.438 . S
C546 C551 1.429 . S
C547 C530 1.394 . S
C547 C546 1.438 . S
C547 C548 1.428 . S
C548 H540 0.949 . S
C548 C547 1.428 . S
C548 C549 1.345 . S
C549 H541 0.950 . S
C549 C548 1.345 . S
C549 C550 1.424 . S
C550 H542 0.951 . S
C550 C549 1.424 . S
C550 C551 1.347 . S
C551 H543 0.951 . S
C551 C546 1.429 . S
C551 C550 1.347 . S
H552 C553 0.951 . S
C553 H552 0.951 . S
C553 C559 1.265 . S
H554 C559 0.950 . S
H555 C563 0.949 . S
H556 C564 0.950 . S
H557 C565 0.951 . S
H558 C566 0.951 . S
C559 C553 1.265 . S
C559 H554 0.950 . S
C559 C560 1.478 . S
C560 C559 1.478 . S
C560 C561 1.397 . S
C560 C577 1.394 . S
C561 C560 1.397 . S
C561 C562 1.438 . S
C561 C566 1.429 . S
C562 C561 1.438 . S
C562 C563 1.428 . S
C562 C575 1.394 . S
C563 H555 0.949 . S
C563 C562 1.428 . S
C563 C564 1.345 . S
C564 H556 0.950 . S
C564 C563 1.345 . S
C564 C565 1.424 . S
C565 H557 0.951 . S
C565 C564 1.424 . S
C565 C566 1.347 . S
C566 H558 0.951 . S
C566 C561 1.429 . S
C566 C565 1.347 . S
H567 C568 0.951 . S
C568 H567 0.951 . S
C568 C574 1.265 . S
H569 C574 0.950 . S
H570 C578 0.949 . S
H571 C579 0.957 . S
H572 C580 0.951 . S
H573 C581 0.951 1_565 S
C574 C568 1.265 . S
C574 H569 0.950 . S
C574 C575 1.478 . S
C575 C562 1.394 . S
C575 C574 1.478 . S
C575 C576 1.397 . S
C576 C575 1.397 . S
C576 C577 1.438 . S
C576 C581 1.429 . S
C577 C560 1.394 . S
C577 C576 1.438 . S
C577 C578 1.428 . S
C578 H570 0.949 . S
C578 C577 1.428 . S
C578 C579 1.345 . S
C579 H571 0.957 . S
C579 C578 1.345 . S
C579 C580 1.424 1_545 S
C580 H572 0.951 . S
C580 C579 1.424 1_565 S
C580 C581 1.347 1_565 S
C581 H573 0.951 1_545 S
C581 C576 1.429 . S
C581 C580 1.347 1_545 S
H582 C583 0.951 . S
C583 H582 0.951 . S
C583 C589 1.265 . S
H584 C589 0.950 . S
H585 C593 0.949 . S
H586 C594 0.950 . S
H587 C595 0.951 . S
H588 C596 0.951 . S
C589 C583 1.265 . S
C589 H584 0.950 . S
C589 C590 1.478 . S
C590 C589 1.478 . S
C590 C591 1.397 . S
C590 C607 1.394 . S
C591 C590 1.397 . S
C591 C592 1.438 . S
C591 C596 1.429 . S
C592 C591 1.438 . S
C592 C593 1.428 . S
C592 C605 1.394 . S
C593 H585 0.949 . S
C593 C592 1.428 . S
C593 C594 1.345 . S
C594 H586 0.950 . S
C594 C593 1.345 . S
C594 C595 1.424 . S
C595 H587 0.951 . S
C595 C594 1.424 . S
C595 C596 1.347 . S
C596 H588 0.951 . S
C596 C591 1.429 . S
C596 C595 1.347 . S
H597 C598 0.951 . S
C598 H597 0.951 . S
C598 C604 1.265 . S
H599 C604 0.950 . S
H600 C608 0.949 . S
H601 C609 0.950 . S
H602 C610 0.951 . S
H603 C611 0.951 . S
C604 C598 1.265 . S
C604 H599 0.950 . S
C604 C605 1.478 . S
C605 C592 1.394 . S
C605 C604 1.478 . S
C605 C606 1.397 . S
C606 C605 1.397 . S
C606 C607 1.438 . S
C606 C611 1.429 . S
C607 C590 1.394 . S
C607 C606 1.438 . S
C607 C608 1.428 . S
C608 H600 0.949 . S
C608 C607 1.428 . S
C608 C609 1.345 . S
C609 H601 0.950 . S
C609 C608 1.345 . S
C609 C610 1.424 . S
C610 H602 0.951 . S
C610 C609 1.424 . S
C610 C611 1.347 . S
C611 H603 0.951 . S
C611 C606 1.429 . S
C611 C610 1.347 . S
H612 C613 0.951 . S
C613 H612 0.951 . S
C613 C619 1.265 . S
H614 C619 0.950 . S
H615 C623 0.949 . S
H616 C624 0.950 . S
H617 C625 0.951 . S
H618 C626 0.951 . S
C619 C613 1.265 . S
C619 H614 0.950 . S
C619 C620 1.478 . S
C620 C619 1.478 . S
C620 C621 1.397 . S
C620 C637 1.394 . S
C621 C620 1.397 . S
C621 C622 1.438 . S
C621 C626 1.429 . S
C622 C621 1.438 . S
C622 C623 1.428 . S
C622 C635 1.394 . S
C623 H615 0.949 . S
C623 C622 1.428 . S
C623 C624 1.345 . S
C624 H616 0.950 . S
C624 C623 1.345 . S
C624 C625 1.424 . S
C625 H617 0.951 . S
C625 C624 1.424 . S
C625 C626 1.347 . S
C626 H618 0.951 . S
C626 C621 1.429 . S
C626 C625 1.347 . S
H627 C628 0.951 . S
C628 H627 0.951 . S
C628 C634 1.265 . S
H629 C634 0.950 . S
H630 C638 0.949 . S
H631 C639 0.950 . S
H632 C640 0.951 . S
H633 C641 0.951 . S
C634 C628 1.265 . S
C634 H629 0.950 . S
C634 C635 1.478 . S
C635 C622 1.394 . S
C635 C634 1.478 . S
C635 C636 1.397 . S
C636 C635 1.397 . S
C636 C637 1.438 . S
C636 C641 1.429 1_565 S
C637 C620 1.394 . S
C637 C636 1.438 . S
C637 C638 1.428 1_565 S
C638 H630 0.949 . S
C638 C637 1.428 1_545 S
C638 C639 1.345 . S
C639 H631 0.950 . S
C639 C638 1.345 . S
C639 C640 1.424 . S
C640 H632 0.951 . S
C640 C639 1.424 . S
C640 C641 1.347 . S
C641 H633 0.951 . S
C641 C636 1.429 1_545 S
C641 C640 1.347 . S
C298 C255 1.366 . S
C283 C211 1.549 . S
C313 C31 1.400 . S
C328 C279 1.337 . S
C343 C91 1.658 . S
C358 C258 1.460 . S
C373 C151 1.628 1_556 S
C388 C276 1.456 . S
C418 C256 1.606 . S
C403 C20 1.546 . S
C448 C278 1.581 . S
C433 C61 1.479 . S
C463 C121 1.591 . S
C478 C257 1.540 . S
C493 C200 1.586 . S
C508 C277 1.522 . S
C538 C275 1.529 . S
C523 C80 1.555 . S
C568 C254 1.550 . S
C553 C140 1.628 . S
C598 C274 1.579 . S
C583 C181 1.621 . S
C613 C1 1.484 . S
C628 C253 1.539 . S
