# Generated by pormake.
# Topology tsx, (6,3)-cn, num edge types: 1
# Building blocks:
#     Node 0, Type 0, BuildingBlock: LEVNOQ01_clean_sbu_1, # of connection points: 6
#     Node 1, Type 0, BuildingBlock: LEVNOQ01_clean_sbu_1, # of connection points: 6
#     Node 2, Type 1, BuildingBlock: MIDCAF_clean_linker_0, # of connection points: 3
#     Node 3, Type 1, BuildingBlock: MIDCAF_clean_linker_0, # of connection points: 3
#     Node 4, Type 1, BuildingBlock: MIDCAF_clean_linker_0, # of connection points: 3
#     Node 5, Type 1, BuildingBlock: MIDCAF_clean_linker_0, # of connection points: 3
#     Edge 6, Type (0, 1), BuildingBlock: XUDNAN_clean_linker_2, # of connection points: 2
#     Edge 7, Type (0, 1), BuildingBlock: XUDNAN_clean_linker_2, # of connection points: 2
#     Edge 8, Type (0, 1), BuildingBlock: XUDNAN_clean_linker_2, # of connection points: 2
#     Edge 9, Type (0, 1), BuildingBlock: XUDNAN_clean_linker_2, # of connection points: 2
#     Edge 10, Type (0, 1), BuildingBlock: XUDNAN_clean_linker_2, # of connection points: 2
#     Edge 11, Type (0, 1), BuildingBlock: XUDNAN_clean_linker_2, # of connection points: 2
#     Edge 12, Type (0, 1), BuildingBlock: XUDNAN_clean_linker_2, # of connection points: 2
#     Edge 13, Type (0, 1), BuildingBlock: XUDNAN_clean_linker_2, # of connection points: 2
#     Edge 14, Type (0, 1), BuildingBlock: XUDNAN_clean_linker_2, # of connection points: 2
#     Edge 15, Type (0, 1), BuildingBlock: XUDNAN_clean_linker_2, # of connection points: 2
#     Edge 16, Type (0, 1), BuildingBlock: XUDNAN_clean_linker_2, # of connection points: 2
#     Edge 17, Type (0, 1), BuildingBlock: XUDNAN_clean_linker_2, # of connection points: 2
# Relax obj value: 0.132
# Max RMSD: 0.159
# Mean RMSD: 0.121
data_MOF--net-tsx--node1-LEVNOQ01_clean_sbu_1--node2-MIDCAF_clean_linker_0--edge1-XUDNAN_clean_linker_2
_symmetry_space_group_name_H-M    P1
_symmetry_Int_Tables_number       1
_symmetry_cell_setting            triclinic
loop_
_symmetry_equiv_pos_as_xyz
'x, y, z'
_cell_length_a     22.107815
_cell_length_b     27.380057
_cell_length_c     45.030415
_cell_angle_alpha  97.281367
_cell_angle_beta   90.882109
_cell_angle_gamma 91.351916
loop_
_atom_site_label
_atom_site_type_symbol
_atom_site_fract_x
_atom_site_fract_y
_atom_site_fract_z
_atom_type_partial_charge
O0 O 0.14824 0.02397 0.07039 0.0
Mg1 Mg 0.19207 0.03049 0.02944 0.0
O2 O 0.05445 0.01542 0.05123 0.0
Mg3 Mg 0.06267 0.01561 -6e-05 0.0
O4 O 0.14054 0.07345 0.00591 0.0
O5 O 0.23352 0.09601 0.02297 0.0
O6 O 0.07522 0.01937 0.94833 0.0
O7 O 1.00223 0.08596 0.00498 0.0
Mg8 Mg 0.94816 -0.00269 0.96563 0.0
O9 O 0.98489 0.95429 -0.00539 0.0
O10 O 0.99027 -0.00601 0.92425 0.0
O11 O 0.91357 0.06437 0.98361 0.0
O12 O 0.89522 0.93871 0.97035 0.0
C13 C 0.17759 0.9328 -0.00229 0.0
C14 C 0.0916 0.01832 0.07342 0.0
C15 C 0.18449 0.10597 0.00931 0.0
C16 C 0.04479 0.00872 0.92394 0.0
C17 C 0.94813 0.09627 -0.00166 0.0
C18 C 0.93668 0.92628 0.98822 0.0
O19 O 0.21902 0.96486 0.00496 0.0
O20 O 0.12235 0.9451 -0.00308 0.0
O21 O 0.62654 0.55342 0.57724 0.0
Mg22 Mg 0.68309 0.54927 0.53945 0.0
O23 O 0.54663 0.5176 0.55203 0.0
Mg24 Mg 0.56098 0.5157 0.50062 0.0
O25 O 0.63599 0.57508 0.50632 0.0
O26 O 0.72132 0.61167 0.52483 0.0
O27 O 0.57821 0.51222 0.44936 0.0
O28 O 0.50319 0.58859 0.50247 0.0
Mg29 Mg 0.45307 0.51151 0.47573 0.0
O30 O 0.48359 0.45208 0.49501 0.0
O31 O 0.48765 0.53232 0.43531 0.0
O32 O 0.40852 0.56494 0.50396 0.0
O33 O 0.39943 0.45138 0.46622 0.0
C34 C 0.67992 0.44218 0.51175 0.0
C35 C 0.5737 0.53397 0.57671 0.0
C36 C 0.67446 0.61166 0.50742 0.0
C37 C 0.54256 0.52479 0.42938 0.0
C38 C 0.44816 0.59892 0.50775 0.0
C39 C 0.4341 0.42981 0.4835 0.0
O40 O 0.71172 0.47791 0.52491 0.0
O41 O 0.62633 0.44829 0.5018 0.0
C42 C 0.90514 0.13206 0.43939 0.0
C43 C 0.8959 0.1361 0.47041 0.0
C44 C 0.92628 0.10342 0.48704 0.0
C45 C 0.96452 0.06781 0.47287 0.0
H46 H 0.07935 0.93528 0.48003 0.0
H47 H 0.15019 0.88369 0.50319 0.0
H48 H 0.269 0.88691 0.42796 0.0
H49 H 0.19654 0.93556 0.40426 0.0
H50 H 0.1254 0.94558 0.3384 0.0
H51 H 0.12345 0.95152 0.2844 0.0
H52 H 0.948 0.01722 0.29252 0.0
H53 H 0.94938 0.01132 0.34577 0.0
H54 H 0.94726 0.09438 0.40133 0.0
H55 H 0.8851 0.15747 0.42577 0.0
H56 H 0.92047 0.10503 0.51096 0.0
H57 H 0.98804 0.04374 0.48613 0.0
N58 N 0.05039 -0.00091 0.44053 0.0
N59 N 0.08341 0.95953 0.39422 0.0
N60 N 0.00663 0.01682 0.39559 0.0
C61 C 0.08724 0.9664 0.42471 0.0
C62 C 0.04242 0.98428 0.37958 0.0
C63 C 0.01023 0.02488 0.42584 0.0
C64 C 0.13209 0.93886 0.44019 0.0
C65 C 0.12081 0.925 0.46861 0.0
C66 C 0.16171 0.89567 0.48194 0.0
C67 C 0.21536 0.88046 0.46738 0.0
C68 C 0.22753 0.89645 0.43953 0.0
C69 C 0.18612 0.92471 0.42597 0.0
C70 C 0.03823 0.9791 0.34649 0.0
C71 C 0.08594 0.96032 0.32849 0.0
C72 C 0.08483 0.96361 0.29765 0.0
C73 C 0.03608 0.98574 0.28458 0.0
C74 C 0.98662 0.00091 0.30221 0.0
C75 C 0.98759 -0.00245 0.33275 0.0
C76 C 0.97184 0.06313 0.44176 0.0
C77 C 0.94182 0.09591 0.42529 0.0
C78 C 0.81192 0.94064 0.56319 0.0
C79 C 0.81075 0.92888 0.5319 0.0
C80 C 0.8538 0.95148 0.51507 0.0
C81 C 0.89718 0.98501 0.52933 0.0
H82 H 0.07328 0.07413 0.51986 0.0
H83 H 0.1568 0.12221 0.50092 0.0
H84 H 0.15079 0.22746 0.58059 0.0
H85 H 0.06756 0.18103 0.59898 0.0
H86 H 0.07923 0.1189 0.65685 0.0
H87 H 0.09983 0.11899 0.70975 0.0
H88 H 0.94986 0.01634 0.71474 0.0
H89 H 0.93039 0.01478 0.66115 0.0
H90 H 0.85485 0.98143 0.60156 0.0
H91 H 0.7803 0.92305 0.57688 0.0
H92 H 0.85417 0.94297 0.49092 0.0
H93 H 0.93021 0.00112 0.51587 0.0
N94 N 0.98198 0.05941 0.56095 0.0
N95 N 0.0287 0.09339 0.60627 0.0
N96 N 0.95202 0.03357 0.60663 0.0
C97 C 0.02335 0.09132 0.57613 0.0
C98 C 0.99376 0.0647 0.62174 0.0
C99 C 0.9455 0.03071 0.57631 0.0
C100 C 0.06438 0.12349 0.56105 0.0
C101 C 0.08863 0.10834 0.53277 0.0
C102 C 0.1366 0.13554 0.52208 0.0
C103 C 0.16086 0.17778 0.53973 0.0
C104 C 0.13368 0.19447 0.56689 0.0
C105 C 0.08593 0.16784 0.57735 0.0
C106 C 0.00328 0.06655 0.65456 0.0
C107 C 0.05034 0.09634 0.66911 0.0
C108 C 0.06199 0.09672 0.69965 0.0
C109 C 0.02668 0.06763 0.71663 0.0
C110 C 0.9787 0.03858 0.70227 0.0
C111 C 0.96723 0.03794 0.67155 0.0
C112 C 0.89872 -0.0036 0.56067 0.0
C113 C 0.85529 0.97385 0.57737 0.0
C114 C 0.41407 0.63876 0.94369 0.0
C115 C 0.38828 0.63159 0.97116 0.0
C116 C 0.40862 0.59273 0.98615 0.0
C117 C 0.45189 0.56043 0.97303 0.0
H118 H 0.58597 0.44345 0.98382 0.0
H119 H 0.65775 0.39214 0.00707 0.0
H120 H 0.772 0.39048 0.92994 0.0
H121 H 0.69974 0.43933 0.90643 0.0
H122 H 0.58911 0.41783 0.84107 0.0
H123 H 0.58168 0.41258 0.7862 0.0
H124 H 0.50092 0.55552 0.79447 0.0
H125 H 0.50774 0.56086 0.84861 0.0
H126 H 0.4743 0.61289 0.90914 0.0
H127 H 0.4016 0.6695 0.93213 0.0
H128 H 0.39009 0.58656 0.00753 0.0
H129 H 0.46581 0.52993 0.98437 0.0
N130 N 0.55369 0.50329 0.94334 0.0
N131 N 0.59013 0.46702 0.89696 0.0
N132 N 0.51445 0.52523 0.89836 0.0
C133 C 0.5918 0.47186 0.92748 0.0
C134 C 0.5512 0.49357 0.88229 0.0
C135 C 0.51514 0.53036 0.92867 0.0
C136 C 0.6366 0.44439 0.94302 0.0
C137 C 0.62665 0.43218 0.972 0.0
C138 C 0.66793 0.40316 0.98539 0.0
C139 C 0.72009 0.38651 0.97014 0.0
C140 C 0.73144 0.40145 0.94196 0.0
C141 C 0.68998 0.42951 0.92845 0.0
C142 C 0.54901 0.48973 0.8492 0.0
C143 C 0.56997 0.44811 0.83109 0.0
C144 C 0.56535 0.44492 0.79979 0.0
C145 C 0.54082 0.48372 0.78623 0.0
C146 C 0.5204 0.52527 0.80436 0.0
C147 C 0.52413 0.52815 0.83542 0.0
C148 C 0.47483 0.56643 0.94477 0.0
C149 C 0.45633 0.60649 0.93061 0.0
C150 C 0.30233 0.47015 0.05886 0.0
C151 C 0.32034 0.43943 0.03325 0.0
C152 C 0.37769 0.44775 0.0214 0.0
C153 C 0.41724 0.4841 0.03584 0.0
H154 H 0.59264 0.5705 0.03432 0.0
H155 H 0.67904 0.61188 0.01495 0.0
H156 H 0.64241 0.74363 0.07547 0.0
H157 H 0.56031 0.69967 0.0967 0.0
H158 H 0.5433 0.64429 0.16938 0.0
H159 H 0.56961 0.63285 0.22108 0.0
H160 H 0.48842 0.48674 0.20705 0.0
H161 H 0.46093 0.49823 0.15573 0.0
H162 H 0.32792 0.52789 0.09376 0.0
H163 H 0.2581 0.4654 0.06827 0.0
H164 H 0.3935 0.42435 0.00203 0.0
H165 H 0.46239 0.48791 0.0273 0.0
N166 N 0.48401 0.57378 0.0657 0.0
N167 N 0.5281 0.60528 0.11223 0.0
N168 N 0.4481 0.54724 0.10995 0.0
C169 C 0.52515 0.60411 0.082 0.0
C170 C 0.49017 0.57647 0.12634 0.0
C171 C 0.44437 0.54621 0.07974 0.0
C172 C 0.57057 0.63193 0.06709 0.0
C173 C 0.60325 0.60843 0.04323 0.0
C174 C 0.65273 0.63251 0.03205 0.0
C175 C 0.66927 0.68133 0.04381 0.0
C176 C 0.63345 0.70557 0.06652 0.0
C177 C 0.58553 0.68076 0.07844 0.0
C178 C 0.50003 0.57218 0.15847 0.0
C179 C 0.53041 0.60998 0.17746 0.0
C180 C 0.54548 0.60349 0.20698 0.0
C181 C 0.53165 0.55872 0.21778 0.0
C182 C 0.50017 0.52138 0.19907 0.0
C183 C 0.48396 0.52821 0.16981 0.0
C184 C 0.40026 0.51257 0.06237 0.0
C185 C 0.34214 0.50598 0.07345 0.0
H186 H 0.16948 0.18295 0.05053 0.0
H187 H 0.19064 0.14252 0.95541 0.0
H188 H 0.21113 0.23031 0.94943 0.0
H189 H 0.10863 0.3118 0.0486 0.0
H190 H 0.15263 0.33424 0.08177 0.0
H191 H 0.1228 0.27183 0.07668 0.0
H192 H 0.231 0.2403 0.08395 0.0
H193 H 0.26127 0.30219 0.08841 0.0
H194 H 0.29041 0.25711 0.0599 0.0
H195 H 0.25066 0.31892 0.95616 0.0
H196 H 0.30123 0.39902 0.97429 0.0
H197 H 0.25755 0.37828 0.0655 0.0
C198 C 0.17501 0.1932 0.02824 0.0
C199 C 0.17683 0.15681 0.00329 0.0
C200 C 0.18722 0.17048 0.97457 0.0
C201 C 0.19918 0.22015 0.97108 0.0
C202 C 0.20029 0.25518 -0.00343 0.0
C203 C 0.18748 0.24221 0.02458 0.0
C204 C 0.20097 0.28424 0.0491 0.0
C205 C 0.14277 0.30156 0.06496 0.0
C206 C 0.24874 0.2701 0.07162 0.0
C207 C 0.22577 0.3224 0.0308 0.0
C208 C 0.22425 0.30555 0.00052 0.0
C209 C 0.25068 0.33286 0.97975 0.0
C210 C 0.27977 0.37812 0.99027 0.0
C211 C 0.28275 0.39533 0.02132 0.0
C212 C 0.25433 0.36722 0.04157 0.0
H213 H 0.17517 0.85159 0.95443 0.0
H214 H 0.21536 0.90047 0.04806 0.0
H215 H 0.25585 0.81922 0.05418 0.0
H216 H 0.14146 0.71574 0.96437 0.0
H217 H 0.17711 0.69481 0.92949 0.0
H218 H 0.13793 0.75226 0.9338 0.0
H219 H 0.23482 0.79751 0.91867 0.0
H220 H 0.27405 0.74047 0.91438 0.0
H221 H 0.30457 0.7923 0.93922 0.0
H222 H 0.3108 0.74143 0.04806 0.0
H223 H 0.37578 0.67235 0.02969 0.0
H224 H 0.29647 0.66979 0.94074 0.0
C225 C 0.19046 0.8442 0.97634 0.0
C226 C 0.19214 0.88169 0.00084 0.0
C227 C 0.21382 0.87175 0.02911 0.0
C228 C 0.23644 0.82569 0.03286 0.0
C229 C 0.23656 0.78971 0.00812 0.0
C230 C 0.21343 0.79805 0.98045 0.0
C231 C 0.22615 0.75528 0.95679 0.0
C232 C 0.16714 0.72791 0.94545 0.0
C233 C 0.26205 0.77245 0.93076 0.0
C234 C 0.26398 0.72394 0.97498 0.0
C235 C 0.26812 0.74372 0.00471 0.0
C236 C 0.30658 0.72463 0.02502 0.0
C237 C 0.34329 0.68529 0.01442 0.0
C238 C 0.34144 0.66585 0.98377 0.0
C239 C 0.29919 0.68412 0.96427 0.0
H240 H 0.90541 0.90223 0.0431 0.0
H241 H 0.94562 0.84148 0.95237 0.0
H242 H 0.89303 0.76381 0.95962 0.0
H243 H 0.90894 0.77419 0.07527 0.0
H244 H 0.8485 0.79352 0.10012 0.0
H245 H 0.90467 0.83788 0.09105 0.0
H246 H 0.81875 0.89096 0.07384 0.0
H247 H 0.76252 0.84621 0.08162 0.0
H248 H 0.76651 0.86464 0.04465 0.0
H249 H 0.81046 0.70753 0.97034 0.0
H250 H 0.72102 0.66606 0.98787 0.0
H251 H 0.74205 0.75553 0.07464 0.0
C252 C 0.90676 0.87116 0.02567 0.0
C253 C 0.93041 0.87704 -0.00258 0.0
C254 C 0.9289 0.83688 0.97437 0.0
C255 C 0.89878 0.79276 0.97824 0.0
C256 C 0.87165 0.78913 0.00558 0.0
C257 C 0.87751 0.82632 0.02945 0.0
C258 C 0.83816 0.81502 0.05517 0.0
C259 C 0.87742 0.80452 0.08199 0.0
C260 C 0.79388 0.85668 0.06431 0.0
C261 C 0.80518 0.7686 0.04085 0.0
C262 C 0.82562 0.75404 0.01239 0.0
C263 C 0.79608 0.71685 0.99318 0.0
C264 C 0.74501 0.69332 0.00348 0.0
C265 C 0.72411 0.70638 0.03301 0.0
C266 C 0.75574 0.74425 0.05191 0.0
H267 H 0.9063 0.14275 0.95437 0.0
H268 H 0.94273 0.16334 0.04991 0.0
H269 H 0.89221 0.24446 0.05392 0.0
H270 H 0.9256 0.27197 0.94164 0.0
H271 H 0.86555 0.26554 0.91378 0.0
H272 H 0.9108 0.21343 0.91922 0.0
H273 H 0.81309 0.16309 0.92781 0.0
H274 H 0.76765 0.21515 0.92294 0.0
H275 H 0.76212 0.18659 0.95676 0.0
H276 H 0.82637 0.32016 0.0465 0.0
H277 H 0.76027 0.38292 0.02852 0.0
H278 H 0.76868 0.30677 0.93822 0.0
C279 C 0.90473 0.16484 0.97608 0.0
C280 C 0.92804 0.14735 0.00182 0.0
C281 C 0.92535 0.17677 0.02992 0.0
C282 C 0.8966 0.22258 0.03233 0.0
C283 C 0.87199 0.23805 0.00635 0.0
C284 C 0.87689 0.21003 0.97874 0.0
C285 C 0.84448 0.2322 0.95424 0.0
C286 C 0.88929 0.24666 0.93085 0.0
C287 C 0.79384 0.19719 0.9396 0.0
C288 C 0.81913 0.27689 0.97223 0.0
C289 C 0.83533 0.28026 0.00222 0.0
C290 C 0.81426 0.31804 0.02298 0.0
C291 C 0.77642 0.35328 0.01264 0.0
C292 C 0.76014 0.35027 0.98185 0.0
C293 C 0.78169 0.31121 0.96171 0.0
H294 H 0.74919 0.65642 0.47204 0.0
H295 H 0.57788 0.67049 0.51672 0.0
H296 H 0.58302 0.76023 0.51581 0.0
H297 H 0.8224 0.74043 0.51007 0.0
H298 H 0.86545 0.76766 0.4824 0.0
H299 H 0.83783 0.70542 0.47439 0.0
H300 H 0.78127 0.72528 0.42687 0.0
H301 H 0.81048 0.78783 0.43411 0.0
H302 H 0.73018 0.77591 0.42937 0.0
H303 H 0.62386 0.84545 0.52698 0.0
H304 H 0.68991 0.9182 0.54295 0.0
H305 H 0.83507 0.85103 0.4901 0.0
C306 C 0.7108 0.67827 0.47948 0.0
C307 C 0.66272 0.65677 0.49391 0.0
C308 C 0.61409 0.68611 0.50469 0.0
C309 C 0.61703 0.73735 0.50449 0.0
C310 C 0.66809 0.75828 0.49263 0.0
C311 C 0.71307 0.72938 0.47908 0.0
C312 C 0.76771 0.76067 0.47257 0.0
C313 C 0.82671 0.74247 0.48569 0.0
C314 C 0.77269 0.76253 0.43872 0.0
C315 C 0.7502 0.81026 0.48844 0.0
C316 C 0.69163 0.80865 0.4988 0.0
C317 C 0.66877 0.8477 0.51795 0.0
C318 C 0.70683 0.88872 0.52717 0.0
C319 C 0.76743 0.89035 0.51753 0.0
C320 C 0.78842 0.85134 0.49708 0.0
H321 H 0.67096 0.35935 0.46876 0.0
H322 H 0.74467 0.4133 0.55704 0.0
H323 H 0.7965 0.33552 0.55886 0.0
H324 H 0.65477 0.22589 0.4822 0.0
H325 H 0.6775 0.2037 0.44473 0.0
H326 H 0.63767 0.26061 0.4518 0.0
H327 H 0.72442 0.30604 0.42754 0.0
H328 H 0.76449 0.24944 0.42053 0.0
H329 H 0.80083 0.30276 0.44162 0.0
H330 H 0.85312 0.25925 0.54865 0.0
H331 H 0.90919 0.18732 0.52706 0.0
H332 H 0.79534 0.17707 0.44672 0.0
C333 C 0.69673 0.35404 0.48869 0.0
C334 C 0.70411 0.39246 0.51266 0.0
C335 C 0.73899 0.38459 0.53824 0.0
C336 C 0.76829 0.34034 0.53965 0.0
C337 C 0.76216 0.30381 0.51537 0.0
C338 C 0.72687 0.3097 0.49045 0.0
C339 C 0.7327 0.26584 0.46651 0.0
C340 C 0.67203 0.23732 0.46099 0.0
C341 C 0.75707 0.28201 0.43734 0.0
C342 C 0.77871 0.23603 0.48143 0.0
C343 C 0.79442 0.25836 0.50974 0.0
C344 C 0.84016 0.24054 0.52678 0.0
C345 C 0.87165 0.19927 0.51431 0.0
C346 C 0.85717 0.17594 0.48505 0.0
C347 C 0.80857 0.19403 0.46895 0.0
H348 H 0.34307 0.37042 0.45694 0.0
H349 H 0.47521 0.3818 0.52991 0.0
H350 H 0.42634 0.30948 0.54851 0.0
H351 H 0.22038 0.34756 0.49842 0.0
H352 H 0.18175 0.30543 0.46994 0.0
H353 H 0.23344 0.35157 0.45937 0.0
H354 H 0.29513 0.28415 0.42859 0.0
H355 H 0.24313 0.23762 0.43879 0.0
H356 H 0.32304 0.2335 0.44635 0.0
H357 H 0.35352 0.24495 0.56329 0.0
H358 H 0.26513 0.19227 0.57243 0.0
H359 H 0.18062 0.22319 0.48966 0.0
C360 C 0.36295 0.35698 0.47638 0.0
C361 C 0.41317 0.3817 0.49192 0.0
C362 C 0.43724 0.36315 0.51744 0.0
C363 C 0.40966 0.32214 0.52817 0.0
C364 C 0.35866 0.29987 0.51289 0.0
C365 C 0.33604 0.31638 0.48731 0.0
C366 C 0.27746 0.28954 0.47658 0.0
C367 C 0.22521 0.32568 0.47607 0.0
C368 C 0.28517 0.2594 0.44575 0.0
C369 C 0.26918 0.25636 0.50071 0.0
C370 C 0.31688 0.26248 0.52127 0.0
C371 C 0.31674 0.2391 0.54699 0.0
C372 C 0.26636 0.20941 0.55203 0.0
C373 C 0.21672 0.20333 0.53151 0.0
C374 C 0.21875 0.22629 0.50524 0.0
H375 H 0.42529 0.64752 0.46097 0.0
H376 H 0.42094 0.66169 0.55768 0.0
H377 H 0.36896 0.74137 0.55848 0.0
H378 H 0.44111 0.781 0.45243 0.0
H379 H 0.39118 0.77381 0.42006 0.0
H380 H 0.43761 0.72357 0.4279 0.0
H381 H 0.34186 0.66701 0.42692 0.0
H382 H 0.29501 0.71701 0.41951 0.0
H383 H 0.28032 0.68511 0.4514 0.0
H384 H 0.30822 0.81516 0.54775 0.0
H385 H 0.24353 0.87541 0.52701 0.0
H386 H 0.28138 0.80687 0.43706 0.0
C387 C 0.41532 0.66852 0.4823 0.0
C388 C 0.42816 0.64976 0.50932 0.0
C389 C 0.41249 0.67657 0.53688 0.0
C390 C 0.38295 0.72161 0.53747 0.0
C391 C 0.36925 0.73868 0.51025 0.0
C392 C 0.38519 0.71289 0.48318 0.0
C393 C 0.35945 0.73563 0.45699 0.0
C394 C 0.41038 0.75465 0.43824 0.0
C395 C 0.31661 0.69902 0.43759 0.0
C396 C 0.32528 0.77765 0.47343 0.0
C397 C 0.33217 0.77943 0.5041 0.0
C398 C 0.30289 0.81425 0.52375 0.0
C399 C 0.26565 0.84803 0.51172 0.0
C400 C 0.25715 0.8463 0.4803 0.0
C401 C 0.28778 0.81045 0.46112 0.0
H402 H 0.08764 0.94324 0.10768 0.0
H403 H 0.04932 0.09761 0.1075 0.0
H404 H 0.02749 0.105 0.16161 0.0
H405 H 0.96946 0.92006 0.16361 0.0
H406 H 0.01631 0.87753 0.18029 0.0
H407 H 0.02253 0.88347 0.14103 0.0
H408 H 0.13743 0.90223 0.14889 0.0
H409 H 0.13147 0.89734 0.18821 0.0
H410 H 0.16297 0.95275 0.17617 0.0
H411 H 0.01935 0.09766 0.2156 0.0
H412 H 0.0181 0.07511 0.26686 0.0
H413 H 0.06063 0.92468 0.2328 0.0
C414 C 0.07291 0.97807 0.11904 0.0
C415 C 0.06891 0.01977 0.10378 0.0
C416 C 0.05119 0.06525 0.11904 0.0
C417 C 0.03905 0.06975 0.14966 0.0
C418 C 0.0444 0.0282 0.16438 0.0
C419 C 0.0599 0.983 0.14958 0.0
C420 C 0.06428 0.94469 0.17102 0.0
C421 C 0.01523 0.90403 0.16354 0.0
C422 C 0.12783 0.92301 0.17107 0.0
C423 C 0.05169 0.97605 0.20038 0.0
C424 C 0.0396 0.02392 0.19586 0.0
C425 C 0.02774 0.06016 0.21941 0.0
C426 C 0.02712 0.047 0.24839 0.0
C427 C 0.03863 -0.00188 0.25361 0.0
C428 C 0.05165 0.96227 0.22932 0.0
H429 H 0.03699 0.95224 0.86994 0.0
H430 H 0.09902 0.09497 0.91373 0.0
H431 H 0.10859 0.12488 0.86434 0.0
H432 H 0.13544 0.95427 0.80098 0.0
H433 H 0.0768 0.92214 0.77741 0.0
H434 H 0.08593 0.91028 0.81568 0.0
H435 H 0.97338 0.93088 0.82464 0.0
H436 H 0.9643 0.94443 0.78683 0.0
H437 H 0.94669 -0.0098 0.81768 0.0
H438 H 0.09137 0.14313 0.81142 0.0
H439 H 0.06454 0.14517 0.75824 0.0
H440 H 0.02064 -0.01155 0.74856 0.0
C441 C 0.05529 -0.01097 0.86893 0.0
C442 C 0.06815 0.02119 0.89539 0.0
C443 C 0.09043 0.06953 0.89355 0.0
C444 C 0.09545 0.0869 0.86564 0.0
C445 C 0.07956 0.05491 0.83992 0.0
C446 C 0.06187 0.00646 0.84126 0.0
C447 C 0.04388 0.98043 0.81061 0.0
C448 C 0.08816 0.93935 0.80058 0.0
C449 C 0.97817 0.96034 0.80993 0.0
C450 C 0.05054 0.02253 0.79208 0.0
C451 C 0.07155 0.0651 0.8093 0.0
C452 C 0.07679 0.10963 0.79752 0.0
C453 C 0.06141 0.11038 0.76724 0.0
C454 C 0.04113 0.06684 0.74897 0.0
C455 C 0.03575 0.02246 0.76179 0.0
H456 H 0.59278 0.58714 0.63147 0.0
H457 H 0.50042 0.45602 0.58681 0.0
H458 H 0.47838 0.42906 0.63605 0.0
H459 H 0.665 0.53295 0.68602 0.0
H460 H 0.657 0.58276 0.71584 0.0
H461 H 0.6582 0.59525 0.6776 0.0
H462 H 0.55457 0.63743 0.68356 0.0
H463 H 0.55372 0.62629 0.72214 0.0
H464 H 0.49124 0.60482 0.69734 0.0
H465 H 0.48034 0.41104 0.69027 0.0
H466 H 0.49242 0.40993 0.7451 0.0
H467 H 0.5808 0.55411 0.75328 0.0
C468 C 0.5663 0.5535 0.63209 0.0
C469 C 0.54813 0.52373 0.60543 0.0
C470 C 0.51403 0.47971 0.60704 0.0
C471 C 0.50174 0.46392 0.63489 0.0
C472 C 0.52285 0.49313 0.66079 0.0
C473 C 0.55299 0.53766 0.65959 0.0
C474 C 0.57315 0.56139 0.6904 0.0
C475 C 0.64244 0.56847 0.69257 0.0
C476 C 0.54125 0.61038 0.69886 0.0
C477 C 0.55136 0.52265 0.7091 0.0
C478 C 0.52257 0.48341 0.69174 0.0
C479 C 0.50177 0.44203 0.70412 0.0
C480 C 0.50931 0.44145 0.73515 0.0
C481 C 0.53699 0.48212 0.75328 0.0
C482 C 0.55861 0.52288 0.73994 0.0
H483 H 0.51345 0.59508 0.39467 0.0
H484 H 0.61531 0.46191 0.39499 0.0
H485 H 0.63307 0.46047 0.34064 0.0
H486 H 0.43768 0.56548 0.32885 0.0
H487 H 0.44206 0.6253 0.31616 0.0
H488 H 0.44555 0.6203 0.35555 0.0
H489 H 0.54797 0.66878 0.36071 0.0
H490 H 0.5444 0.67477 0.32131 0.0
H491 H 0.60959 0.6482 0.33691 0.0
H492 H 0.6231 0.46576 0.28522 0.0
H493 H 0.59665 0.48251 0.2339 0.0
H494 H 0.50731 0.61545 0.27038 0.0
C495 C 0.54098 0.56646 0.38339 0.0
C496 C 0.56311 0.52858 0.39877 0.0
C497 C 0.59863 0.49149 0.38351 0.0
C498 C 0.60874 0.49036 0.35269 0.0
C499 C 0.58446 0.52744 0.33787 0.0
C500 C 0.55274 0.56558 0.35292 0.0
C501 C 0.52877 0.59957 0.33169 0.0
C502 C 0.45942 0.6028 0.33315 0.0
C503 C 0.55953 0.65087 0.33804 0.0
C504 C 0.54848 0.5729 0.30208 0.0
C505 C 0.58103 0.5316 0.30609 0.0
C506 C 0.59909 0.49867 0.28186 0.0
C507 C 0.58353 0.50823 0.25286 0.0
C508 C 0.55057 0.55047 0.24837 0.0
C509 C 0.53365 0.58348 0.27329 0.0
loop_
_geom_bond_atom_site_label_1
_geom_bond_atom_site_label_2
_geom_bond_distance
_geom_bond_site_symmetry_2
_ccdc_geom_bond_type
O0 Mg1 1.990 . S
O0 C14 1.253 . S
Mg1 O0 1.990 . S
Mg1 O4 2.180 . S
Mg1 O5 2.117 . S
Mg1 O19 2.030 1_545 S
O2 Mg3 2.072 . S
O2 C14 1.260 . S
Mg3 O2 2.072 . S
Mg3 O4 2.099 . S
Mg3 O6 2.079 1_554 S
Mg3 O7 2.072 . S
Mg3 O9 2.099 1_444 S
Mg3 O20 2.079 1_544 S
O4 Mg1 2.180 . S
O4 Mg3 2.099 . S
O4 C15 1.279 . S
O5 Mg1 2.117 . S
O5 C15 1.250 . S
O6 Mg3 2.079 1_556 S
O6 C16 1.264 . S
O7 Mg3 2.072 . S
O7 C17 1.260 1_455 S
Mg8 O9 2.180 1_545 S
Mg8 O10 2.030 . S
Mg8 O11 1.990 . S
Mg8 O12 2.117 1_545 S
O9 Mg3 2.099 1_666 S
O9 Mg8 2.180 1_565 S
O9 C18 1.279 1_556 S
O10 Mg8 2.030 . S
O10 C16 1.248 1_655 S
O11 Mg8 1.990 . S
O11 C17 1.253 1_556 S
O12 Mg8 2.117 1_565 S
O12 C18 1.250 1_556 S
C13 O19 1.248 . S
C13 O20 1.264 1_554 S
C14 O0 1.253 . S
C14 O2 1.260 . S
C15 O4 1.279 . S
C15 O5 1.250 . S
C16 O6 1.264 . S
C16 O10 1.248 1_455 S
C17 O7 1.260 1_655 S
C17 O11 1.253 1_554 S
C18 O9 1.279 1_554 S
C18 O12 1.250 1_554 S
O19 Mg1 2.030 1_565 S
O19 C13 1.248 . S
O20 Mg3 2.079 1_566 S
O20 C13 1.264 1_556 S
O21 Mg22 1.990 . S
O21 C35 1.253 . S
Mg22 O21 1.990 . S
Mg22 O25 2.180 . S
Mg22 O26 2.117 . S
Mg22 O40 2.030 . S
O23 Mg24 2.072 . S
O23 C35 1.260 . S
Mg24 O23 2.072 . S
Mg24 O25 2.099 . S
Mg24 O27 2.079 . S
Mg24 O28 2.072 . S
Mg24 O30 2.099 . S
Mg24 O41 2.079 . S
O25 Mg22 2.180 . S
O25 Mg24 2.099 . S
O25 C36 1.279 . S
O26 Mg22 2.117 . S
O26 C36 1.250 . S
O27 Mg24 2.079 . S
O27 C37 1.264 . S
O28 Mg24 2.072 . S
O28 C38 1.260 . S
Mg29 O30 2.180 . S
Mg29 O31 2.030 . S
Mg29 O32 1.990 . S
Mg29 O33 2.117 . S
O30 Mg24 2.099 . S
O30 Mg29 2.180 . S
O30 C39 1.279 . S
O31 Mg29 2.030 . S
O31 C37 1.248 . S
O32 Mg29 1.990 . S
O32 C38 1.253 . S
O33 Mg29 2.117 . S
O33 C39 1.250 . S
C34 O40 1.248 . S
C34 O41 1.264 . S
C35 O21 1.253 . S
C35 O23 1.260 . S
C36 O25 1.279 . S
C36 O26 1.250 . S
C37 O27 1.264 . S
C37 O31 1.248 . S
C38 O28 1.260 . S
C38 O32 1.253 . S
C39 O30 1.279 . S
C39 O33 1.250 . S
O40 Mg22 2.030 . S
O40 C34 1.248 . S
O41 Mg24 2.079 . S
O41 C34 1.264 . S
C42 C43 1.384 . S
C42 H55 0.947 . S
C42 C77 1.382 . S
C43 C42 1.384 . S
C43 C44 1.378 . S
C44 C43 1.378 . S
C44 C45 1.378 . S
C44 H56 0.952 . S
C45 C44 1.378 . S
C45 H57 0.950 1_655 S
C45 C76 1.383 . S
H46 C65 0.947 . S
H47 C66 0.946 . S
H48 C68 0.953 . S
H49 C69 0.945 . S
H50 C71 0.952 . S
H51 C72 0.949 . S
H52 C74 0.950 . S
H53 C75 0.948 . S
H54 C77 0.951 . S
H55 C42 0.947 . S
H56 C44 0.952 . S
H57 C45 0.950 1_455 S
N58 C61 1.382 1_545 S
N58 C63 1.363 . S
N59 C61 1.371 . S
N59 C62 1.372 1_565 S
N60 C62 1.361 . S
N60 C63 1.377 . S
C61 N58 1.382 1_565 S
C61 N59 1.371 . S
C61 C64 1.480 . S
C62 N59 1.372 1_545 S
C62 N60 1.361 . S
C62 C70 1.457 . S
C63 N58 1.363 . S
C63 N60 1.377 . S
C63 C76 1.479 1_455 S
C64 C61 1.480 . S
C64 C65 1.383 . S
C64 C69 1.385 . S
C65 H46 0.947 . S
C65 C64 1.383 . S
C65 C66 1.388 . S
C66 H47 0.946 . S
C66 C65 1.388 . S
C66 C67 1.384 . S
C67 C66 1.384 . S
C67 C68 1.377 . S
C68 H48 0.953 . S
C68 C67 1.377 . S
C68 C69 1.369 . S
C69 H49 0.945 . S
C69 C64 1.385 . S
C69 C68 1.369 . S
C70 C62 1.457 . S
C70 C71 1.372 1_545 S
C70 C75 1.364 . S
C71 H50 0.952 . S
C71 C70 1.372 1_565 S
C71 C72 1.389 . S
C72 H51 0.949 . S
C72 C71 1.389 . S
C72 C73 1.387 . S
C73 C72 1.387 . S
C73 C74 1.372 1_565 S
C74 H52 0.950 . S
C74 C73 1.372 1_545 S
C74 C75 1.379 . S
C75 H53 0.948 . S
C75 C70 1.364 . S
C75 C74 1.379 . S
C76 C45 1.383 . S
C76 C63 1.479 1_655 S
C76 C77 1.398 . S
C77 C42 1.382 . S
C77 H54 0.951 . S
C77 C76 1.398 . S
C78 C79 1.384 . S
C78 H91 0.947 . S
C78 C113 1.382 . S
C79 C78 1.384 . S
C79 C80 1.378 . S
C80 C79 1.378 . S
C80 C81 1.378 . S
C80 H92 0.952 . S
C81 C80 1.378 . S
C81 H93 0.950 1_565 S
C81 C112 1.383 1_565 S
H82 C101 0.947 . S
H83 C102 0.946 . S
H84 C104 0.953 . S
H85 C105 0.945 . S
H86 C107 0.952 . S
H87 C108 0.949 . S
H88 C110 0.950 . S
H89 C111 0.948 . S
H90 C113 0.951 . S
H91 C78 0.947 . S
H92 C80 0.952 . S
H93 C81 0.950 1_545 S
N94 C97 1.382 . S
N94 C99 1.363 1_455 S
N95 C97 1.371 . S
N95 C98 1.372 . S
N96 C98 1.361 1_655 S
N96 C99 1.377 . S
C97 N94 1.382 . S
C97 N95 1.371 . S
C97 C100 1.480 . S
C98 N95 1.372 . S
C98 N96 1.361 1_455 S
C98 C106 1.457 . S
C99 N94 1.363 1_655 S
C99 N96 1.377 . S
C99 C112 1.479 . S
C100 C97 1.480 . S
C100 C101 1.383 . S
C100 C105 1.385 . S
C101 H82 0.947 . S
C101 C100 1.383 . S
C101 C102 1.388 . S
C102 H83 0.946 . S
C102 C101 1.388 . S
C102 C103 1.384 . S
C103 C102 1.384 . S
C103 C104 1.377 . S
C104 H84 0.953 . S
C104 C103 1.377 . S
C104 C105 1.369 . S
C105 H85 0.945 . S
C105 C100 1.385 . S
C105 C104 1.369 . S
C106 C98 1.457 . S
C106 C107 1.372 . S
C106 C111 1.364 1_455 S
C107 H86 0.952 . S
C107 C106 1.372 . S
C107 C108 1.389 . S
C108 H87 0.949 . S
C108 C107 1.389 . S
C108 C109 1.387 . S
C109 C108 1.387 . S
C109 C110 1.372 1_455 S
C110 H88 0.950 . S
C110 C109 1.372 1_655 S
C110 C111 1.379 . S
C111 H89 0.948 . S
C111 C106 1.364 1_655 S
C111 C110 1.379 . S
C112 C81 1.383 1_545 S
C112 C99 1.479 . S
C112 C113 1.398 1_545 S
C113 C78 1.382 . S
C113 H90 0.951 . S
C113 C112 1.398 1_565 S
C114 C115 1.384 . S
C114 H127 0.947 . S
C114 C149 1.382 . S
C115 C114 1.384 . S
C115 C116 1.385 . S
C116 C115 1.385 . S
C116 C117 1.383 . S
C116 H128 0.941 1_556 S
C117 C116 1.383 . S
C117 H129 0.950 . S
C117 C148 1.383 . S
H118 C137 0.947 . S
H119 C138 0.946 1_554 S
H120 C140 0.953 . S
H121 C141 0.945 . S
H122 C143 0.952 . S
H123 C144 0.949 . S
H124 C146 0.950 . S
H125 C147 0.948 . S
H126 C149 0.951 . S
H127 C114 0.947 . S
H128 C116 0.941 1_554 S
H129 C117 0.950 . S
N130 C133 1.382 . S
N130 C135 1.363 . S
N131 C133 1.371 . S
N131 C134 1.372 . S
N132 C134 1.361 . S
N132 C135 1.377 . S
C133 N130 1.382 . S
C133 N131 1.371 . S
C133 C136 1.480 . S
C134 N131 1.372 . S
C134 N132 1.361 . S
C134 C142 1.457 . S
C135 N130 1.363 . S
C135 N132 1.377 . S
C135 C148 1.479 . S
C136 C133 1.480 . S
C136 C137 1.383 . S
C136 C141 1.385 . S
C137 H118 0.947 . S
C137 C136 1.383 . S
C137 C138 1.388 . S
C138 H119 0.946 1_556 S
C138 C137 1.388 . S
C138 C139 1.384 . S
C139 C138 1.384 . S
C139 C140 1.377 . S
C140 H120 0.953 . S
C140 C139 1.377 . S
C140 C141 1.369 . S
C141 H121 0.945 . S
C141 C136 1.385 . S
C141 C140 1.369 . S
C142 C134 1.457 . S
C142 C143 1.372 . S
C142 C147 1.364 . S
C143 H122 0.952 . S
C143 C142 1.372 . S
C143 C144 1.389 . S
C144 H123 0.949 . S
C144 C143 1.389 . S
C144 C145 1.387 . S
C145 C144 1.387 . S
C145 C146 1.372 . S
C146 H124 0.950 . S
C146 C145 1.372 . S
C146 C147 1.379 . S
C147 H125 0.948 . S
C147 C142 1.364 . S
C147 C146 1.379 . S
C148 C117 1.383 . S
C148 C135 1.479 . S
C148 C149 1.398 . S
C149 C114 1.382 . S
C149 H126 0.951 . S
C149 C148 1.398 . S
C150 C151 1.384 . S
C150 H163 0.947 . S
C150 C185 1.382 . S
C151 C150 1.384 . S
C151 C152 1.378 . S
C152 C151 1.378 . S
C152 C153 1.378 . S
C152 H164 0.952 1_554 S
C153 C152 1.378 . S
C153 H165 0.950 . S
C153 C184 1.383 . S
H154 C173 0.947 . S
H155 C174 0.946 . S
H156 C176 0.953 . S
H157 C177 0.945 . S
H158 C179 0.952 . S
H159 C180 0.949 . S
H160 C182 0.950 . S
H161 C183 0.948 . S
H162 C185 0.951 . S
H163 C150 0.947 . S
H164 C152 0.952 1_556 S
H165 C153 0.950 . S
N166 C169 1.382 . S
N166 C171 1.363 . S
N167 C169 1.371 . S
N167 C170 1.372 . S
N168 C170 1.361 . S
N168 C171 1.377 . S
C169 N166 1.382 . S
C169 N167 1.371 . S
C169 C172 1.480 . S
C170 N167 1.372 . S
C170 N168 1.361 . S
C170 C178 1.457 . S
C171 N166 1.363 . S
C171 N168 1.377 . S
C171 C184 1.479 . S
C172 C169 1.480 . S
C172 C173 1.383 . S
C172 C177 1.385 . S
C173 H154 0.947 . S
C173 C172 1.383 . S
C173 C174 1.388 . S
C174 H155 0.946 . S
C174 C173 1.388 . S
C174 C175 1.384 . S
C175 C174 1.384 . S
C175 C176 1.377 . S
C176 H156 0.953 . S
C176 C175 1.377 . S
C176 C177 1.369 . S
C177 H157 0.945 . S
C177 C172 1.385 . S
C177 C176 1.369 . S
C178 C170 1.457 . S
C178 C179 1.372 . S
C178 C183 1.364 . S
C179 H158 0.952 . S
C179 C178 1.372 . S
C179 C180 1.389 . S
C180 H159 0.949 . S
C180 C179 1.389 . S
C180 C181 1.387 . S
C181 C180 1.387 . S
C181 C182 1.372 . S
C182 H160 0.950 . S
C182 C181 1.372 . S
C182 C183 1.379 . S
C183 H161 0.948 . S
C183 C178 1.364 . S
C183 C182 1.379 . S
C184 C153 1.383 . S
C184 C171 1.479 . S
C184 C185 1.398 . S
C185 C150 1.382 . S
C185 H162 0.951 . S
C185 C184 1.398 . S
H186 C198 0.930 . S
H187 C200 0.930 . S
H188 C201 0.930 . S
H189 C205 0.959 . S
H190 C205 0.959 . S
H191 C205 0.961 . S
H192 C206 0.960 . S
H193 C206 0.961 . S
H194 C206 0.959 . S
H195 C209 0.929 . S
H196 C210 0.931 . S
H197 C212 0.930 . S
C198 H186 0.930 . S
C198 C199 1.399 . S
C198 C203 1.399 . S
C199 C198 1.399 . S
C199 C200 1.376 1_554 S
C200 H187 0.930 . S
C200 C199 1.376 1_556 S
C200 C201 1.388 . S
C201 H188 0.930 . S
C201 C200 1.388 . S
C201 C202 1.390 1_556 S
C202 C201 1.390 1_554 S
C202 C203 1.394 . S
C202 C208 1.465 . S
C203 C198 1.399 . S
C203 C202 1.394 . S
C203 C204 1.516 . S
C204 C203 1.516 . S
C204 C205 1.502 . S
C204 C206 1.561 . S
C204 C207 1.526 . S
C205 H189 0.959 . S
C205 H190 0.959 . S
C205 H191 0.961 . S
C205 C204 1.502 . S
C206 H192 0.960 . S
C206 H193 0.961 . S
C206 H194 0.959 . S
C206 C204 1.561 . S
C207 C204 1.526 . S
C207 C208 1.396 . S
C207 C212 1.390 . S
C208 C202 1.465 . S
C208 C207 1.396 . S
C208 C209 1.399 1_554 S
C209 H195 0.929 . S
C209 C208 1.399 1_556 S
C209 C210 1.385 . S
C210 H196 0.931 . S
C210 C209 1.385 . S
C210 C211 1.389 1_556 S
C211 C210 1.389 1_554 S
C211 C212 1.387 . S
C212 H197 0.930 . S
C212 C207 1.390 . S
C212 C211 1.387 . S
H213 C225 0.930 . S
H214 C227 0.930 . S
H215 C228 0.930 . S
H216 C232 0.959 . S
H217 C232 0.959 . S
H218 C232 0.961 . S
H219 C233 0.960 . S
H220 C233 0.961 . S
H221 C233 0.959 . S
H222 C236 0.929 . S
H223 C237 0.931 . S
H224 C239 0.930 . S
C225 H213 0.930 . S
C225 C226 1.399 1_556 S
C225 C230 1.399 . S
C226 C225 1.399 1_554 S
C226 C227 1.376 . S
C227 H214 0.930 . S
C227 C226 1.376 . S
C227 C228 1.388 . S
C228 H215 0.930 . S
C228 C227 1.388 . S
C228 C229 1.390 . S
C229 C228 1.390 . S
C229 C230 1.394 1_554 S
C229 C235 1.465 . S
C230 C225 1.399 . S
C230 C229 1.394 1_556 S
C230 C231 1.516 . S
C231 C230 1.516 . S
C231 C232 1.502 . S
C231 C233 1.561 . S
C231 C234 1.526 . S
C232 H216 0.959 . S
C232 H217 0.959 . S
C232 H218 0.961 . S
C232 C231 1.502 . S
C233 H219 0.960 . S
C233 H220 0.961 . S
C233 H221 0.959 . S
C233 C231 1.561 . S
C234 C231 1.526 . S
C234 C235 1.396 1_556 S
C234 C239 1.390 . S
C235 C229 1.465 . S
C235 C234 1.396 1_554 S
C235 C236 1.399 . S
C236 H222 0.929 . S
C236 C235 1.399 . S
C236 C237 1.385 . S
C237 H223 0.931 . S
C237 C236 1.385 . S
C237 C238 1.389 1_554 S
C238 C237 1.389 1_556 S
C238 C239 1.387 . S
C239 H224 0.930 . S
C239 C234 1.390 . S
C239 C238 1.387 . S
H240 C252 0.930 . S
H241 C254 0.930 . S
H242 C255 0.930 . S
H243 C259 0.959 . S
H244 C259 0.959 . S
H245 C259 0.961 . S
H246 C260 0.960 . S
H247 C260 0.961 . S
H248 C260 0.959 . S
H249 C263 0.929 . S
H250 C264 0.931 1_556 S
H251 C266 0.930 . S
C252 H240 0.930 . S
C252 C253 1.399 . S
C252 C257 1.399 . S
C253 C252 1.399 . S
C253 C254 1.376 1_554 S
C254 H241 0.930 . S
C254 C253 1.376 1_556 S
C254 C255 1.388 . S
C255 H242 0.930 . S
C255 C254 1.388 . S
C255 C256 1.390 1_556 S
C256 C255 1.390 1_554 S
C256 C257 1.394 . S
C256 C262 1.465 . S
C257 C252 1.399 . S
C257 C256 1.394 . S
C257 C258 1.516 . S
C258 C257 1.516 . S
C258 C259 1.502 . S
C258 C260 1.561 . S
C258 C261 1.526 . S
C259 H243 0.959 . S
C259 H244 0.959 . S
C259 H245 0.961 . S
C259 C258 1.502 . S
C260 H246 0.960 . S
C260 H247 0.961 . S
C260 H248 0.959 . S
C260 C258 1.561 . S
C261 C258 1.526 . S
C261 C262 1.396 . S
C261 C266 1.390 . S
C262 C256 1.465 . S
C262 C261 1.396 . S
C262 C263 1.399 1_554 S
C263 H249 0.929 . S
C263 C262 1.399 1_556 S
C263 C264 1.385 1_556 S
C264 H250 0.931 1_554 S
C264 C263 1.385 1_554 S
C264 C265 1.389 . S
C265 C264 1.389 . S
C265 C266 1.387 . S
C266 H251 0.930 . S
C266 C261 1.390 . S
C266 C265 1.387 . S
H267 C279 0.930 . S
H268 C281 0.930 . S
H269 C282 0.930 . S
H270 C286 0.959 . S
H271 C286 0.959 . S
H272 C286 0.961 . S
H273 C287 0.960 . S
H274 C287 0.961 . S
H275 C287 0.959 . S
H276 C290 0.929 . S
H277 C291 0.931 . S
H278 C293 0.930 . S
C279 H267 0.930 . S
C279 C280 1.399 1_556 S
C279 C284 1.399 . S
C280 C279 1.399 1_554 S
C280 C281 1.376 . S
C281 H268 0.930 . S
C281 C280 1.376 . S
C281 C282 1.388 . S
C282 H269 0.930 . S
C282 C281 1.388 . S
C282 C283 1.390 . S
C283 C282 1.390 . S
C283 C284 1.394 1_554 S
C283 C289 1.465 . S
C284 C279 1.399 . S
C284 C283 1.394 1_556 S
C284 C285 1.516 . S
C285 C284 1.516 . S
C285 C286 1.502 . S
C285 C287 1.561 . S
C285 C288 1.526 . S
C286 H270 0.959 . S
C286 H271 0.959 . S
C286 H272 0.961 . S
C286 C285 1.502 . S
C287 H273 0.960 . S
C287 H274 0.961 . S
C287 H275 0.959 . S
C287 C285 1.561 . S
C288 C285 1.526 . S
C288 C289 1.396 1_556 S
C288 C293 1.390 . S
C289 C283 1.465 . S
C289 C288 1.396 1_554 S
C289 C290 1.399 . S
C290 H276 0.929 . S
C290 C289 1.399 . S
C290 C291 1.385 . S
C291 H277 0.931 . S
C291 C290 1.385 . S
C291 C292 1.389 1_554 S
C292 C291 1.389 1_556 S
C292 C293 1.387 . S
C293 H278 0.930 . S
C293 C288 1.390 . S
C293 C292 1.387 . S
H294 C306 0.930 . S
H295 C308 0.930 . S
H296 C309 0.930 . S
H297 C313 0.959 . S
H298 C313 0.959 . S
H299 C313 0.961 . S
H300 C314 0.960 . S
H301 C314 0.961 . S
H302 C314 0.959 . S
H303 C317 0.929 . S
H304 C318 0.931 . S
H305 C320 0.930 . S
C306 H294 0.930 . S
C306 C307 1.399 . S
C306 C311 1.399 . S
C307 C306 1.399 . S
C307 C308 1.376 . S
C308 H295 0.930 . S
C308 C307 1.376 . S
C308 C309 1.388 . S
C309 H296 0.930 . S
C309 C308 1.388 . S
C309 C310 1.390 . S
C310 C309 1.390 . S
C310 C311 1.394 . S
C310 C316 1.465 . S
C311 C306 1.399 . S
C311 C310 1.394 . S
C311 C312 1.516 . S
C312 C311 1.516 . S
C312 C313 1.502 . S
C312 C314 1.561 . S
C312 C315 1.526 . S
C313 H297 0.959 . S
C313 H298 0.959 . S
C313 H299 0.961 . S
C313 C312 1.502 . S
C314 H300 0.960 . S
C314 H301 0.961 . S
C314 H302 0.959 . S
C314 C312 1.561 . S
C315 C312 1.526 . S
C315 C316 1.396 . S
C315 C320 1.390 . S
C316 C310 1.465 . S
C316 C315 1.396 . S
C316 C317 1.399 . S
C317 H303 0.929 . S
C317 C316 1.399 . S
C317 C318 1.385 . S
C318 H304 0.931 . S
C318 C317 1.385 . S
C318 C319 1.389 . S
C319 C318 1.389 . S
C319 C320 1.387 . S
C320 H305 0.930 . S
C320 C315 1.390 . S
C320 C319 1.387 . S
H321 C333 0.930 . S
H322 C335 0.930 . S
H323 C336 0.930 . S
H324 C340 0.959 . S
H325 C340 0.959 . S
H326 C340 0.961 . S
H327 C341 0.960 . S
H328 C341 0.961 . S
H329 C341 0.959 . S
H330 C344 0.929 . S
H331 C345 0.931 . S
H332 C347 0.930 . S
C333 H321 0.930 . S
C333 C334 1.399 . S
C333 C338 1.399 . S
C334 C333 1.399 . S
C334 C335 1.376 . S
C335 H322 0.930 . S
C335 C334 1.376 . S
C335 C336 1.388 . S
C336 H323 0.930 . S
C336 C335 1.388 . S
C336 C337 1.390 . S
C337 C336 1.390 . S
C337 C338 1.394 . S
C337 C343 1.465 . S
C338 C333 1.399 . S
C338 C337 1.394 . S
C338 C339 1.516 . S
C339 C338 1.516 . S
C339 C340 1.502 . S
C339 C341 1.561 . S
C339 C342 1.526 . S
C340 H324 0.959 . S
C340 H325 0.959 . S
C340 H326 0.961 . S
C340 C339 1.502 . S
C341 H327 0.960 . S
C341 H328 0.961 . S
C341 H329 0.959 . S
C341 C339 1.561 . S
C342 C339 1.526 . S
C342 C343 1.396 . S
C342 C347 1.390 . S
C343 C337 1.465 . S
C343 C342 1.396 . S
C343 C344 1.399 . S
C344 H330 0.929 . S
C344 C343 1.399 . S
C344 C345 1.385 . S
C345 H331 0.931 . S
C345 C344 1.385 . S
C345 C346 1.389 . S
C346 C345 1.389 . S
C346 C347 1.387 . S
C347 H332 0.930 . S
C347 C342 1.390 . S
C347 C346 1.387 . S
H348 C360 0.930 . S
H349 C362 0.930 . S
H350 C363 0.930 . S
H351 C367 0.959 . S
H352 C367 0.959 . S
H353 C367 0.961 . S
H354 C368 0.960 . S
H355 C368 0.961 . S
H356 C368 0.959 . S
H357 C371 0.929 . S
H358 C372 0.931 . S
H359 C374 0.930 . S
C360 H348 0.930 . S
C360 C361 1.399 . S
C360 C365 1.399 . S
C361 C360 1.399 . S
C361 C362 1.376 . S
C362 H349 0.930 . S
C362 C361 1.376 . S
C362 C363 1.388 . S
C363 H350 0.930 . S
C363 C362 1.388 . S
C363 C364 1.390 . S
C364 C363 1.390 . S
C364 C365 1.394 . S
C364 C370 1.465 . S
C365 C360 1.399 . S
C365 C364 1.394 . S
C365 C366 1.516 . S
C366 C365 1.516 . S
C366 C367 1.502 . S
C366 C368 1.561 . S
C366 C369 1.526 . S
C367 H351 0.959 . S
C367 H352 0.959 . S
C367 H353 0.961 . S
C367 C366 1.502 . S
C368 H354 0.960 . S
C368 H355 0.961 . S
C368 H356 0.959 . S
C368 C366 1.561 . S
C369 C366 1.526 . S
C369 C370 1.396 . S
C369 C374 1.390 . S
C370 C364 1.465 . S
C370 C369 1.396 . S
C370 C371 1.399 . S
C371 H357 0.929 . S
C371 C370 1.399 . S
C371 C372 1.385 . S
C372 H358 0.931 . S
C372 C371 1.385 . S
C372 C373 1.389 . S
C373 C372 1.389 . S
C373 C374 1.387 . S
C374 H359 0.930 . S
C374 C369 1.390 . S
C374 C373 1.387 . S
H375 C387 0.930 . S
H376 C389 0.930 . S
H377 C390 0.930 . S
H378 C394 0.959 . S
H379 C394 0.959 . S
H380 C394 0.961 . S
H381 C395 0.960 . S
H382 C395 0.961 . S
H383 C395 0.959 . S
H384 C398 0.929 . S
H385 C399 0.931 . S
H386 C401 0.930 . S
C387 H375 0.930 . S
C387 C388 1.399 . S
C387 C392 1.399 . S
C388 C387 1.399 . S
C388 C389 1.376 . S
C389 H376 0.930 . S
C389 C388 1.376 . S
C389 C390 1.388 . S
C390 H377 0.930 . S
C390 C389 1.388 . S
C390 C391 1.390 . S
C391 C390 1.390 . S
C391 C392 1.394 . S
C391 C397 1.465 . S
C392 C387 1.399 . S
C392 C391 1.394 . S
C392 C393 1.516 . S
C393 C392 1.516 . S
C393 C394 1.502 . S
C393 C395 1.561 . S
C393 C396 1.526 . S
C394 H378 0.959 . S
C394 H379 0.959 . S
C394 H380 0.961 . S
C394 C393 1.502 . S
C395 H381 0.960 . S
C395 H382 0.961 . S
C395 H383 0.959 . S
C395 C393 1.561 . S
C396 C393 1.526 . S
C396 C397 1.396 . S
C396 C401 1.390 . S
C397 C391 1.465 . S
C397 C396 1.396 . S
C397 C398 1.399 . S
C398 H384 0.929 . S
C398 C397 1.399 . S
C398 C399 1.385 . S
C399 H385 0.931 . S
C399 C398 1.385 . S
C399 C400 1.389 . S
C400 C399 1.389 . S
C400 C401 1.387 . S
C401 H386 0.930 . S
C401 C396 1.390 . S
C401 C400 1.387 . S
H402 C414 0.930 . S
H403 C416 0.930 . S
H404 C417 0.930 . S
H405 C421 0.959 . S
H406 C421 0.959 . S
H407 C421 0.961 . S
H408 C422 0.960 . S
H409 C422 0.961 . S
H410 C422 0.959 . S
H411 C425 0.929 . S
H412 C426 0.931 . S
H413 C428 0.930 . S
C414 H402 0.930 . S
C414 C415 1.399 1_565 S
C414 C419 1.399 . S
C415 C414 1.399 1_545 S
C415 C416 1.376 . S
C416 H403 0.930 . S
C416 C415 1.376 . S
C416 C417 1.388 . S
C417 H404 0.930 . S
C417 C416 1.388 . S
C417 C418 1.390 . S
C418 C417 1.390 . S
C418 C419 1.394 1_545 S
C418 C424 1.465 . S
C419 C414 1.399 . S
C419 C418 1.394 1_565 S
C419 C420 1.516 . S
C420 C419 1.516 . S
C420 C421 1.502 1_455 S
C420 C422 1.561 . S
C420 C423 1.526 . S
C421 H405 0.959 . S
C421 H406 0.959 . S
C421 H407 0.961 . S
C421 C420 1.502 1_655 S
C422 H408 0.960 . S
C422 H409 0.961 . S
C422 H410 0.959 . S
C422 C420 1.561 . S
C423 C420 1.526 . S
C423 C424 1.396 1_565 S
C423 C428 1.390 . S
C424 C418 1.465 . S
C424 C423 1.396 1_545 S
C424 C425 1.399 . S
C425 H411 0.929 . S
C425 C424 1.399 . S
C425 C426 1.385 . S
C426 H412 0.931 . S
C426 C425 1.385 . S
C426 C427 1.389 . S
C427 C426 1.389 . S
C427 C428 1.387 1_545 S
C428 H413 0.930 . S
C428 C423 1.390 . S
C428 C427 1.387 1_565 S
H429 C441 0.930 1_565 S
H430 C443 0.930 . S
H431 C444 0.930 1_655 S
H432 C448 0.959 1_545 S
H433 C448 0.959 . S
H434 C448 0.961 . S
H435 C449 0.960 . S
H436 C449 0.961 . S
H437 C449 0.959 . S
H438 C452 0.929 . S
H439 C453 0.931 . S
H440 C455 0.930 . S
C441 H429 0.930 1_545 S
C441 C442 1.399 . S
C441 C446 1.399 . S
C442 C441 1.399 . S
C442 C443 1.376 . S
C443 H430 0.930 . S
C443 C442 1.376 . S
C443 C444 1.388 . S
C444 H431 0.930 1_455 S
C444 C443 1.388 . S
C444 C445 1.390 . S
C445 C444 1.390 . S
C445 C446 1.394 . S
C445 C451 1.465 . S
C446 C441 1.399 . S
C446 C445 1.394 . S
C446 C447 1.516 . S
C447 C446 1.516 . S
C447 C448 1.502 1_545 S
C447 C449 1.561 1_445 S
C447 C450 1.526 . S
C448 H432 0.959 1_565 S
C448 H433 0.959 . S
C448 H434 0.961 . S
C448 C447 1.502 1_565 S
C449 H435 0.960 . S
C449 H436 0.961 . S
C449 H437 0.959 . S
C449 C447 1.561 1_665 S
C450 C447 1.526 . S
C450 C451 1.396 . S
C450 C455 1.390 . S
C451 C445 1.465 . S
C451 C450 1.396 . S
C451 C452 1.399 1_455 S
C452 H438 0.929 . S
C452 C451 1.399 1_655 S
C452 C453 1.385 . S
C453 H439 0.931 . S
C453 C452 1.385 . S
C453 C454 1.389 1_655 S
C454 C453 1.389 1_455 S
C454 C455 1.387 . S
C455 H440 0.930 . S
C455 C450 1.390 . S
C455 C454 1.387 . S
H456 C468 0.930 . S
H457 C470 0.930 . S
H458 C471 0.930 . S
H459 C475 0.959 . S
H460 C475 0.959 . S
H461 C475 0.961 . S
H462 C476 0.960 . S
H463 C476 0.961 . S
H464 C476 0.959 . S
H465 C479 0.929 . S
H466 C480 0.931 . S
H467 C482 0.930 . S
C468 H456 0.930 . S
C468 C469 1.399 . S
C468 C473 1.399 . S
C469 C468 1.399 . S
C469 C470 1.376 . S
C470 H457 0.930 . S
C470 C469 1.376 . S
C470 C471 1.388 . S
C471 H458 0.930 . S
C471 C470 1.388 . S
C471 C472 1.390 . S
C472 C471 1.390 . S
C472 C473 1.394 . S
C472 C478 1.465 . S
C473 C468 1.399 . S
C473 C472 1.394 . S
C473 C474 1.516 . S
C474 C473 1.516 . S
C474 C475 1.502 . S
C474 C476 1.561 . S
C474 C477 1.526 . S
C475 H459 0.959 . S
C475 H460 0.959 . S
C475 H461 0.961 . S
C475 C474 1.502 . S
C476 H462 0.960 . S
C476 H463 0.961 . S
C476 H464 0.959 . S
C476 C474 1.561 . S
C477 C474 1.526 . S
C477 C478 1.396 . S
C477 C482 1.390 . S
C478 C472 1.465 . S
C478 C477 1.396 . S
C478 C479 1.399 . S
C479 H465 0.929 . S
C479 C478 1.399 . S
C479 C480 1.385 . S
C480 H466 0.931 . S
C480 C479 1.385 . S
C480 C481 1.389 . S
C481 C480 1.389 . S
C481 C482 1.387 . S
C482 H467 0.930 . S
C482 C477 1.390 . S
C482 C481 1.387 . S
H483 C495 0.930 . S
H484 C497 0.930 . S
H485 C498 0.930 . S
H486 C502 0.959 . S
H487 C502 0.959 . S
H488 C502 0.961 . S
H489 C503 0.960 . S
H490 C503 0.961 . S
H491 C503 0.959 . S
H492 C506 0.929 . S
H493 C507 0.931 . S
H494 C509 0.930 . S
C495 H483 0.930 . S
C495 C496 1.399 . S
C495 C500 1.399 . S
C496 C495 1.399 . S
C496 C497 1.376 . S
C497 H484 0.930 . S
C497 C496 1.376 . S
C497 C498 1.388 . S
C498 H485 0.930 . S
C498 C497 1.388 . S
C498 C499 1.390 . S
C499 C498 1.390 . S
C499 C500 1.394 . S
C499 C505 1.465 . S
C500 C495 1.399 . S
C500 C499 1.394 . S
C500 C501 1.516 . S
C501 C500 1.516 . S
C501 C502 1.502 . S
C501 C503 1.561 . S
C501 C504 1.526 . S
C502 H486 0.959 . S
C502 H487 0.959 . S
C502 H488 0.961 . S
C502 C501 1.502 . S
C503 H489 0.960 . S
C503 H490 0.961 . S
C503 H491 0.959 . S
C503 C501 1.561 . S
C504 C501 1.526 . S
C504 C505 1.396 . S
C504 C509 1.390 . S
C505 C499 1.465 . S
C505 C504 1.396 . S
C505 C506 1.399 . S
C506 H492 0.929 . S
C506 C505 1.399 . S
C506 C507 1.385 . S
C507 H493 0.931 . S
C507 C506 1.385 . S
C507 C508 1.389 . S
C508 C507 1.389 . S
C508 C509 1.387 . S
C509 H494 0.930 . S
C509 C504 1.390 . S
C509 C508 1.387 . S
C211 C151 1.489 . S
C199 C15 1.363 . S
C226 C13 1.497 . S
C238 C115 1.529 . S
C253 C18 1.216 . S
C265 C175 1.494 . S
C280 C17 1.339 . S
C292 C139 1.396 . S
C307 C36 1.325 . S
C319 C79 1.445 . S
C334 C34 1.497 . S
C346 C43 1.527 . S
C373 C103 1.417 . S
C361 C39 1.365 . S
C400 C67 1.399 . S
C388 C38 1.326 . S
C415 C14 1.472 . S
C427 C73 1.530 1_545 S
C442 C16 1.348 . S
C454 C109 1.438 . S
C481 C145 1.563 . S
C469 C35 1.542 . S
C496 C37 1.406 . S
C508 C181 1.387 . S
