# Generated by pormake.
# Topology eea, (3,6)-cn, num edge types: 1
# Building blocks:
#     Node 0, Type 0, BuildingBlock: QEWDON_clean_linker_0, # of connection points: 3
#     Node 1, Type 0, BuildingBlock: QEWDON_clean_linker_0, # of connection points: 3
#     Node 2, Type 0, BuildingBlock: QEWDON_clean_linker_0, # of connection points: 3
#     Node 3, Type 0, BuildingBlock: QEWDON_clean_linker_0, # of connection points: 3
#     Node 4, Type 0, BuildingBlock: QEWDON_clean_linker_0, # of connection points: 3
#     Node 5, Type 0, BuildingBlock: QEWDON_clean_linker_0, # of connection points: 3
#     Node 6, Type 0, BuildingBlock: QEWDON_clean_linker_0, # of connection points: 3
#     Node 7, Type 0, BuildingBlock: QEWDON_clean_linker_0, # of connection points: 3
#     Node 8, Type 0, BuildingBlock: QEWDON_clean_linker_0, # of connection points: 3
#     Node 9, Type 0, BuildingBlock: QEWDON_clean_linker_0, # of connection points: 3
#     Node 10, Type 0, BuildingBlock: QEWDON_clean_linker_0, # of connection points: 3
#     Node 11, Type 0, BuildingBlock: QEWDON_clean_linker_0, # of connection points: 3
#     Node 12, Type 0, BuildingBlock: QEWDON_clean_linker_0, # of connection points: 3
#     Node 13, Type 0, BuildingBlock: QEWDON_clean_linker_0, # of connection points: 3
#     Node 14, Type 0, BuildingBlock: QEWDON_clean_linker_0, # of connection points: 3
#     Node 15, Type 0, BuildingBlock: QEWDON_clean_linker_0, # of connection points: 3
#     Node 16, Type 0, BuildingBlock: QEWDON_clean_linker_0, # of connection points: 3
#     Node 17, Type 0, BuildingBlock: QEWDON_clean_linker_0, # of connection points: 3
#     Node 18, Type 1, BuildingBlock: HISSIN_clean_sbu_0, # of connection points: 6
#     Node 19, Type 1, BuildingBlock: HISSIN_clean_sbu_0, # of connection points: 6
#     Node 20, Type 1, BuildingBlock: HISSIN_clean_sbu_0, # of connection points: 6
#     Node 21, Type 1, BuildingBlock: HISSIN_clean_sbu_0, # of connection points: 6
#     Node 22, Type 1, BuildingBlock: HISSIN_clean_sbu_0, # of connection points: 6
#     Node 23, Type 1, BuildingBlock: HISSIN_clean_sbu_0, # of connection points: 6
#     Node 24, Type 1, BuildingBlock: HISSIN_clean_sbu_0, # of connection points: 6
#     Node 25, Type 1, BuildingBlock: HISSIN_clean_sbu_0, # of connection points: 6
#     Node 26, Type 1, BuildingBlock: HISSIN_clean_sbu_0, # of connection points: 6
#     Edge 27, Type (0, 1), BuildingBlock: KIFKEQ_clean_linker_1, # of connection points: 2
#     Edge 28, Type (0, 1), BuildingBlock: KIFKEQ_clean_linker_1, # of connection points: 2
#     Edge 29, Type (0, 1), BuildingBlock: KIFKEQ_clean_linker_1, # of connection points: 2
#     Edge 30, Type (0, 1), BuildingBlock: KIFKEQ_clean_linker_1, # of connection points: 2
#     Edge 31, Type (0, 1), BuildingBlock: KIFKEQ_clean_linker_1, # of connection points: 2
#     Edge 32, Type (0, 1), BuildingBlock: KIFKEQ_clean_linker_1, # of connection points: 2
#     Edge 33, Type (0, 1), BuildingBlock: KIFKEQ_clean_linker_1, # of connection points: 2
#     Edge 34, Type (0, 1), BuildingBlock: KIFKEQ_clean_linker_1, # of connection points: 2
#     Edge 35, Type (0, 1), BuildingBlock: KIFKEQ_clean_linker_1, # of connection points: 2
#     Edge 36, Type (0, 1), BuildingBlock: KIFKEQ_clean_linker_1, # of connection points: 2
#     Edge 37, Type (0, 1), BuildingBlock: KIFKEQ_clean_linker_1, # of connection points: 2
#     Edge 38, Type (0, 1), BuildingBlock: KIFKEQ_clean_linker_1, # of connection points: 2
#     Edge 39, Type (0, 1), BuildingBlock: KIFKEQ_clean_linker_1, # of connection points: 2
#     Edge 40, Type (0, 1), BuildingBlock: KIFKEQ_clean_linker_1, # of connection points: 2
#     Edge 41, Type (0, 1), BuildingBlock: KIFKEQ_clean_linker_1, # of connection points: 2
#     Edge 42, Type (0, 1), BuildingBlock: KIFKEQ_clean_linker_1, # of connection points: 2
#     Edge 43, Type (0, 1), BuildingBlock: KIFKEQ_clean_linker_1, # of connection points: 2
#     Edge 44, Type (0, 1), BuildingBlock: KIFKEQ_clean_linker_1, # of connection points: 2
#     Edge 45, Type (0, 1), BuildingBlock: KIFKEQ_clean_linker_1, # of connection points: 2
#     Edge 46, Type (0, 1), BuildingBlock: KIFKEQ_clean_linker_1, # of connection points: 2
#     Edge 47, Type (0, 1), BuildingBlock: KIFKEQ_clean_linker_1, # of connection points: 2
#     Edge 48, Type (0, 1), BuildingBlock: KIFKEQ_clean_linker_1, # of connection points: 2
#     Edge 49, Type (0, 1), BuildingBlock: KIFKEQ_clean_linker_1, # of connection points: 2
#     Edge 50, Type (0, 1), BuildingBlock: KIFKEQ_clean_linker_1, # of connection points: 2
#     Edge 51, Type (0, 1), BuildingBlock: KIFKEQ_clean_linker_1, # of connection points: 2
#     Edge 52, Type (0, 1), BuildingBlock: KIFKEQ_clean_linker_1, # of connection points: 2
#     Edge 53, Type (0, 1), BuildingBlock: KIFKEQ_clean_linker_1, # of connection points: 2
#     Edge 54, Type (0, 1), BuildingBlock: KIFKEQ_clean_linker_1, # of connection points: 2
#     Edge 55, Type (0, 1), BuildingBlock: KIFKEQ_clean_linker_1, # of connection points: 2
#     Edge 56, Type (0, 1), BuildingBlock: KIFKEQ_clean_linker_1, # of connection points: 2
#     Edge 57, Type (0, 1), BuildingBlock: KIFKEQ_clean_linker_1, # of connection points: 2
#     Edge 58, Type (0, 1), BuildingBlock: KIFKEQ_clean_linker_1, # of connection points: 2
#     Edge 59, Type (0, 1), BuildingBlock: KIFKEQ_clean_linker_1, # of connection points: 2
#     Edge 60, Type (0, 1), BuildingBlock: KIFKEQ_clean_linker_1, # of connection points: 2
#     Edge 61, Type (0, 1), BuildingBlock: KIFKEQ_clean_linker_1, # of connection points: 2
#     Edge 62, Type (0, 1), BuildingBlock: KIFKEQ_clean_linker_1, # of connection points: 2
#     Edge 63, Type (0, 1), BuildingBlock: KIFKEQ_clean_linker_1, # of connection points: 2
#     Edge 64, Type (0, 1), BuildingBlock: KIFKEQ_clean_linker_1, # of connection points: 2
#     Edge 65, Type (0, 1), BuildingBlock: KIFKEQ_clean_linker_1, # of connection points: 2
#     Edge 66, Type (0, 1), BuildingBlock: KIFKEQ_clean_linker_1, # of connection points: 2
#     Edge 67, Type (0, 1), BuildingBlock: KIFKEQ_clean_linker_1, # of connection points: 2
#     Edge 68, Type (0, 1), BuildingBlock: KIFKEQ_clean_linker_1, # of connection points: 2
#     Edge 69, Type (0, 1), BuildingBlock: KIFKEQ_clean_linker_1, # of connection points: 2
#     Edge 70, Type (0, 1), BuildingBlock: KIFKEQ_clean_linker_1, # of connection points: 2
#     Edge 71, Type (0, 1), BuildingBlock: KIFKEQ_clean_linker_1, # of connection points: 2
#     Edge 72, Type (0, 1), BuildingBlock: KIFKEQ_clean_linker_1, # of connection points: 2
#     Edge 73, Type (0, 1), BuildingBlock: KIFKEQ_clean_linker_1, # of connection points: 2
#     Edge 74, Type (0, 1), BuildingBlock: KIFKEQ_clean_linker_1, # of connection points: 2
#     Edge 75, Type (0, 1), BuildingBlock: KIFKEQ_clean_linker_1, # of connection points: 2
#     Edge 76, Type (0, 1), BuildingBlock: KIFKEQ_clean_linker_1, # of connection points: 2
#     Edge 77, Type (0, 1), BuildingBlock: KIFKEQ_clean_linker_1, # of connection points: 2
#     Edge 78, Type (0, 1), BuildingBlock: KIFKEQ_clean_linker_1, # of connection points: 2
#     Edge 79, Type (0, 1), BuildingBlock: KIFKEQ_clean_linker_1, # of connection points: 2
#     Edge 80, Type (0, 1), BuildingBlock: KIFKEQ_clean_linker_1, # of connection points: 2
# Relax obj value: 0.087
# Max RMSD: 0.261
# Mean RMSD: 0.180
data_MOF--net-eea--node1-HISSIN_clean_sbu_0--node2-QEWDON_clean_linker_0--edge1-KIFKEQ_clean_linker_1
_symmetry_space_group_name_H-M    P1
_symmetry_Int_Tables_number       1
_symmetry_cell_setting            triclinic
loop_
_symmetry_equiv_pos_as_xyz
'x, y, z'
_cell_length_a     59.487087
_cell_length_b     59.896604
_cell_length_c     67.240628
_cell_angle_alpha  93.143654
_cell_angle_beta   93.708615
_cell_angle_gamma 119.84925
loop_
_atom_site_label
_atom_site_type_symbol
_atom_site_fract_x
_atom_site_fract_y
_atom_site_fract_z
_atom_type_partial_charge
H0 H 0.19499 0.11524 0.43247 0.0
C1 C 0.19658 0.10018 0.4241 0.0
C2 C 0.21542 0.09388 0.43082 0.0
C3 C 0.17938 0.08671 0.40682 0.0
H4 H 0.23108 0.06872 0.4252 0.0
C5 C 0.2172 0.0743 0.41977 0.0
C6 C 0.20013 0.06079 0.40243 0.0
C7 C 0.18131 0.06716 0.39607 0.0
C8 C 0.15916 0.09278 0.39991 0.0
H9 H 0.16823 0.05707 0.38256 0.0
C10 C 0.16614 0.11813 0.39623 0.0
C11 C 0.14719 0.12379 0.38854 0.0
C12 C 0.13298 0.07303 0.39614 0.0
H13 H 0.12723 0.05333 0.39889 0.0
C14 C 0.11401 0.0786 0.38885 0.0
H15 H 0.18647 0.1332 0.39864 0.0
C16 C 0.12102 0.1038 0.38501 0.0
H17 H 0.10594 0.10767 0.3794 0.0
H18 H 0.09383 0.06333 0.38608 0.0
H19 H 0.90479 0.10562 0.43812 0.0
C20 C 0.91892 0.12179 0.4309 0.0
C21 C 0.92726 0.14726 0.43888 0.0
C22 C 0.92982 0.117 0.41443 0.0
H23 H 0.95315 0.18775 0.43584 0.0
C24 C 0.94672 0.16805 0.42998 0.0
C25 C 0.95784 0.16364 0.41345 0.0
C26 C 0.94906 0.13806 0.4057 0.0
C27 C 0.92255 0.09008 0.40722 0.0
H28 H 0.95775 0.13449 0.39313 0.0
C29 C 0.89635 0.06983 0.4051 0.0
C30 C 0.88986 0.04429 0.39885 0.0
C31 C 0.94211 0.08442 0.40289 0.0
H32 H 0.96245 0.09943 0.40469 0.0
C33 C 0.93574 0.05921 0.39657 0.0
H34 H 0.88108 0.0739 0.40841 0.0
C35 C 0.90985 0.03927 0.39458 0.0
H36 H 0.90542 0.01989 0.38949 0.0
H37 H 0.95096 0.0551 0.39329 0.0
H38 H 0.91984 0.79276 0.44493 0.0
C39 C 0.90281 0.79261 0.43797 0.0
C40 C 0.87837 0.77767 0.44516 0.0
C41 C 0.9055 0.80822 0.42237 0.0
H42 H 0.83788 0.76735 0.44209 0.0
C43 C 0.85661 0.77839 0.43639 0.0
C44 C 0.8589 0.79385 0.4208 0.0
C45 C 0.88337 0.80844 0.41378 0.0
C46 C 0.93163 0.82685 0.41651 0.0
H47 H 0.88551 0.82094 0.4021 0.0
C48 C 0.94903 0.81901 0.40997 0.0
C49 C 0.97276 0.83724 0.4031 0.0
C50 C 0.93881 0.85307 0.41691 0.0
H51 H 0.92602 0.85966 0.42211 0.0
C52 C 0.96245 0.8711 0.41064 0.0
H53 H 0.9437 0.79884 0.40946 0.0
C54 C 0.97921 0.86327 0.40365 0.0
H55 H 0.99741 0.87767 0.39871 0.0
H56 H 0.96772 0.89123 0.41103 0.0
H57 H 0.11802 0.21334 0.59271 0.0
C58 C 0.10297 0.21491 0.59984 0.0
C59 C 0.09354 0.23055 0.59228 0.0
C60 C 0.09241 0.20051 0.61604 0.0
H61 H 0.06558 0.24326 0.59529 0.0
C62 C 0.07333 0.23174 0.60128 0.0
C63 C 0.06257 0.21763 0.61761 0.0
C64 C 0.07262 0.2025 0.62504 0.0
C65 C 0.09974 0.18119 0.6223 0.0
H66 H 0.06422 0.19133 0.63743 0.0
C67 C 0.12588 0.18652 0.62416 0.0
C68 C 0.13179 0.1674 0.62978 0.0
C69 C 0.07983 0.15656 0.62601 0.0
H70 H 0.05957 0.15151 0.62422 0.0
C71 C 0.08561 0.13789 0.63179 0.0
H72 H 0.14145 0.2053 0.62122 0.0
C73 C 0.11127 0.14323 0.63375 0.0
H74 H 0.11506 0.12835 0.6386 0.0
H75 H 0.07007 0.11911 0.63473 0.0
H76 H 0.81137 0.91762 0.61134 0.0
C77 C 0.80973 0.90109 0.61837 0.0
C78 C 0.79248 0.87587 0.60931 0.0
C79 C 0.82535 0.90516 0.63628 0.0
H80 H 0.77884 0.83534 0.61117 0.0
C81 C 0.79102 0.85472 0.61856 0.0
C82 C 0.80614 0.8585 0.63673 0.0
C83 C 0.82294 0.88382 0.64556 0.0
C84 C 0.84507 0.93164 0.64503 0.0
H85 H 0.83432 0.88706 0.65977 0.0
C86 C 0.8387 0.95125 0.64703 0.0
C87 C 0.85734 0.97617 0.65582 0.0
C88 C 0.87044 0.9373 0.65165 0.0
H89 H 0.87595 0.92261 0.65004 0.0
C90 C 0.88904 0.96203 0.6602 0.0
H91 H 0.81905 0.9469 0.64231 0.0
C92 C 0.88258 0.98137 0.66234 0.0
H93 H 0.89742 0.0005 0.66889 0.0
H94 H 0.90855 0.96623 0.66518 0.0
H95 H 0.08529 0.87146 0.59426 0.0
C96 C 0.10192 0.88766 0.60306 0.0
C97 C 0.127 0.89708 0.59703 0.0
C98 C 0.09809 0.89989 0.61985 0.0
H99 H 0.16731 0.9267 0.60269 0.0
C100 C 0.14828 0.91877 0.60806 0.0
C101 C 0.14489 0.93136 0.62491 0.0
C102 C 0.11962 0.92147 0.63079 0.0
C103 C 0.07136 0.89227 0.62458 0.0
H104 H 0.11645 0.93077 0.64372 0.0
C105 C 0.05359 0.86683 0.62857 0.0
C106 C 0.02806 0.86008 0.63243 0.0
C107 C 0.06343 0.91079 0.62465 0.0
H108 H 0.07674 0.93041 0.62154 0.0
C109 C 0.03814 0.90407 0.62832 0.0
H110 H 0.05957 0.85244 0.62867 0.0
C111 C 0.02052 0.87888 0.63212 0.0
H112 H 1.00104 0.87416 0.63514 0.0
H113 H 0.03218 0.91845 0.62823 0.0
H114 H 0.86244 0.45191 0.77222 0.0
C115 C 0.86366 0.43625 0.76448 0.0
C116 C 0.88277 0.43041 0.77141 0.0
C117 C 0.84573 0.42153 0.74782 0.0
H118 H 0.89791 0.40461 0.76716 0.0
C119 C 0.88391 0.40984 0.76137 0.0
C120 C 0.86612 0.39501 0.74468 0.0
C121 C 0.84725 0.40116 0.73794 0.0
C122 C 0.82496 0.42684 0.74073 0.0
H123 H 0.83371 0.39015 0.72483 0.0
C124 C 0.83103 0.45192 0.73678 0.0
C125 C 0.81158 0.45629 0.72819 0.0
C126 C 0.79906 0.40639 0.73678 0.0
H127 H 0.7939 0.38694 0.73986 0.0
C128 C 0.77962 0.41084 0.72869 0.0
H129 H 0.85102 0.46774 0.73945 0.0
C130 C 0.78585 0.43561 0.72422 0.0
H131 H 0.77059 0.43865 0.71766 0.0
H132 H 0.75974 0.39499 0.72565 0.0
H133 H 0.56064 0.43593 0.76547 0.0
C134 C 0.57528 0.45279 0.7592 0.0
C135 C 0.58476 0.47757 0.7692 0.0
C136 C 0.58504 0.44962 0.74143 0.0
H137 H 0.61222 0.51839 0.76913 0.0
C138 C 0.6043 0.49929 0.76126 0.0
C139 C 0.61415 0.49647 0.74344 0.0
C140 C 0.60411 0.47167 0.73349 0.0
C141 C 0.57665 0.42335 0.73169 0.0
H142 H 0.61182 0.46949 0.71981 0.0
C143 C 0.55027 0.40341 0.72968 0.0
C144 C 0.54277 0.37906 0.71971 0.0
C145 C 0.59533 0.41815 0.72422 0.0
H146 H 0.61581 0.43277 0.726 0.0
C147 C 0.5879 0.39397 0.71453 0.0
H148 H 0.53554 0.40701 0.73522 0.0
C149 C 0.56179 0.37459 0.71215 0.0
H150 H 0.55643 0.35593 0.70452 0.0
H151 H 0.60245 0.39024 0.70883 0.0
H152 H 0.58507 0.12486 0.77874 0.0
C153 C 0.56805 0.12384 0.77086 0.0
C154 C 0.54391 0.11145 0.77891 0.0
C155 C 0.57071 0.13684 0.75359 0.0
H156 H 0.50407 0.10279 0.77575 0.0
C157 C 0.52235 0.11172 0.76919 0.0
C158 C 0.52437 0.12405 0.75161 0.0
C159 C 0.54868 0.13622 0.74386 0.0
C160 C 0.59688 0.15489 0.74747 0.0
H161 H 0.55087 0.146 0.73043 0.0
C162 C 0.6143 0.14677 0.7415 0.0
C163 C 0.63806 0.16467 0.73441 0.0
C164 C 0.60403 0.18104 0.74708 0.0
H165 H 0.59118 0.18781 0.75179 0.0
C166 C 0.62767 0.19873 0.74063 0.0
H167 H 0.609 0.12665 0.74161 0.0
C168 C 0.64447 0.19064 0.73422 0.0
H169 H 0.66268 0.20479 0.72913 0.0
H170 H 0.6329 0.2188 0.74043 0.0
H171 H 0.78866 0.54705 0.92782 0.0
C172 C 0.77338 0.54807 0.93503 0.0
C173 C 0.76285 0.56277 0.92741 0.0
C174 C 0.76303 0.53305 0.95095 0.0
H175 H 0.7339 0.5741 0.93084 0.0
C176 C 0.74194 0.56259 0.93633 0.0
C177 C 0.73133 0.54778 0.95237 0.0
C178 C 0.74219 0.53325 0.95963 0.0
C179 C 0.7718 0.51478 0.95693 0.0
H180 H 0.73381 0.52128 0.97165 0.0
C181 C 0.79852 0.52255 0.96047 0.0
C182 C 0.80611 0.50434 0.965 0.0
C183 C 0.753 0.48878 0.95823 0.0
H184 H 0.7324 0.48216 0.95533 0.0
C185 C 0.76049 0.47083 0.96273 0.0
H186 H 0.81327 0.54252 0.95958 0.0
C187 C 0.78681 0.47848 0.96601 0.0
H188 H 0.79214 0.46418 0.96959 0.0
H189 H 0.74581 0.45085 0.96359 0.0
H190 H 0.48072 0.2507 0.94146 0.0
C191 C 0.47738 0.23328 0.94797 0.0
C192 C 0.45965 0.20892 0.93776 0.0
C193 C 0.49196 0.2353 0.96596 0.0
H194 H 0.44238 0.16762 0.93842 0.0
C195 C 0.45626 0.18651 0.94601 0.0
C196 C 0.47064 0.18825 0.964 0.0
C197 C 0.48833 0.21271 0.97391 0.0
C198 C 0.51179 0.26096 0.97612 0.0
H199 H 0.49977 0.21421 0.98767 0.0
C200 C 0.50592 0.28084 0.97897 0.0
C201 C 0.52458 0.30508 0.98889 0.0
C202 C 0.53666 0.2656 0.98317 0.0
H203 H 0.54181 0.25072 0.98095 0.0
C204 C 0.55528 0.28963 0.99292 0.0
H205 H 0.4866 0.27719 0.97394 0.0
C206 C 0.54934 0.30927 0.9958 0.0
H207 H 0.56425 0.32786 1.0032 0.0
H208 H 0.57443 0.29307 0.99821 0.0
H209 H 0.75938 0.21015 0.931 0.0
C210 C 0.77587 0.22681 0.9395 0.0
C211 C 0.80111 0.23642 0.93354 0.0
C212 C 0.77169 0.23953 0.9558 0.0
H213 H 0.84147 0.26668 0.93956 0.0
C214 C 0.82216 0.2585 0.94449 0.0
C215 C 0.81815 0.27149 0.96065 0.0
C216 C 0.79289 0.26177 0.96625 0.0
C217 C 0.74501 0.23199 0.96054 0.0
H218 H 0.78955 0.27193 0.97853 0.0
C219 C 0.72866 0.20803 0.96775 0.0
C220 C 0.70429 0.20254 0.97385 0.0
C221 C 0.73648 0.24991 0.95883 0.0
H222 H 0.74876 0.26841 0.95329 0.0
C223 C 0.71216 0.24425 0.96432 0.0
H224 H 0.73529 0.19427 0.96936 0.0
C225 C 0.69622 0.22084 0.97187 0.0
H226 H 0.67742 0.21695 0.97608 0.0
H227 H 0.70573 0.25817 0.96289 0.0
H228 H 0.5406 0.78865 0.10018 0.0
C229 C 0.54182 0.77303 0.09238 0.0
C230 C 0.55977 0.76607 0.10007 0.0
C231 C 0.52482 0.75928 0.07503 0.0
H232 H 0.57366 0.73915 0.09654 0.0
C233 C 0.56072 0.74535 0.09012 0.0
C234 C 0.5438 0.73141 0.07282 0.0
C235 C 0.52617 0.73876 0.06525 0.0
C236 C 0.50449 0.76515 0.06772 0.0
H237 H 0.51324 0.72833 0.05175 0.0
C238 C 0.5107 0.79073 0.06543 0.0
C239 C 0.49123 0.79609 0.05849 0.0
C240 C 0.47858 0.74497 0.06303 0.0
H241 H 0.47324 0.72512 0.06484 0.0
C242 C 0.45922 0.75022 0.05621 0.0
H243 H 0.53063 0.8064 0.06902 0.0
C244 C 0.46544 0.7756 0.05396 0.0
H245 H 0.45013 0.77919 0.04842 0.0
H246 H 0.43932 0.73456 0.05265 0.0
H247 H 0.2402 0.76925 0.10565 0.0
C248 C 0.25446 0.78516 0.09829 0.0
C249 C 0.26248 0.81077 0.10563 0.0
C250 C 0.26568 0.77992 0.08227 0.0
H251 H 0.28914 0.85111 0.10266 0.0
C252 C 0.28241 0.83134 0.09683 0.0
C253 C 0.29405 0.82649 0.08083 0.0
C254 C 0.28502 0.80072 0.07341 0.0
C255 C 0.25853 0.75285 0.07556 0.0
H256 H 0.29323 0.7968 0.06067 0.0
C257 C 0.23252 0.73226 0.07441 0.0
C258 C 0.22621 0.70669 0.06839 0.0
C259 C 0.27808 0.74745 0.07064 0.0
H260 H 0.29832 0.76263 0.07181 0.0
C261 C 0.27189 0.72229 0.06445 0.0
H262 H 0.21727 0.7361 0.07824 0.0
C263 C 0.24622 0.70208 0.06326 0.0
H264 H 0.24201 0.68281 0.0581 0.0
H265 H 0.2871 0.71843 0.06058 0.0
H266 H 0.25375 0.45283 0.10831 0.0
C267 C 0.23655 0.45188 0.10083 0.0
C268 C 0.21197 0.43603 0.10746 0.0
C269 C 0.23918 0.46753 0.08526 0.0
H270 H 0.1711 0.42379 0.10334 0.0
C271 C 0.18994 0.43569 0.09808 0.0
C272 C 0.19214 0.45148 0.08273 0.0
C273 C 0.21682 0.46699 0.07624 0.0
C274 C 0.26545 0.4871 0.08015 0.0
H275 H 0.21896 0.47971 0.06476 0.0
C276 C 0.28479 0.48076 0.0761 0.0
C277 C 0.30958 0.50015 0.07166 0.0
C278 C 0.2713 0.51288 0.07968 0.0
H279 H 0.25707 0.51843 0.08302 0.0
C280 C 0.29564 0.53193 0.07523 0.0
H281 H 0.28063 0.46101 0.07646 0.0
C282 C 0.31462 0.52568 0.07126 0.0
H283 H 0.33332 0.54088 0.06769 0.0
H284 H 0.29984 0.55168 0.07492 0.0
H285 H 0.45243 0.88305 0.26077 0.0
C286 C 0.43686 0.88345 0.26799 0.0
C287 C 0.42694 0.89915 0.26138 0.0
C288 C 0.42533 0.8666 0.28274 0.0
H289 H 0.39797 0.91039 0.26554 0.0
C290 C 0.40585 0.89847 0.27038 0.0
C291 C 0.394 0.88161 0.28499 0.0
C292 C 0.40392 0.86588 0.29111 0.0
C293 C 0.43344 0.84752 0.28779 0.0
H294 H 0.39462 0.85273 0.30229 0.0
C295 C 0.45994 0.85469 0.29198 0.0
C296 C 0.4668 0.83586 0.29632 0.0
C297 C 0.41412 0.82145 0.28804 0.0
H298 H 0.39369 0.81526 0.28457 0.0
C299 C 0.42083 0.80294 0.2924 0.0
H300 H 0.47507 0.87468 0.2918 0.0
C301 C 0.44689 0.81002 0.29651 0.0
H302 H 0.45149 0.79522 0.30005 0.0
H303 H 0.40573 0.78295 0.29256 0.0
H304 H 0.14814 0.58978 0.28302 0.0
C305 C 0.14633 0.57237 0.28857 0.0
C306 C 0.13262 0.54874 0.27631 0.0
C307 C 0.15856 0.57378 0.30761 0.0
H308 H 0.12107 0.50821 0.27394 0.0
C309 C 0.13135 0.52647 0.28329 0.0
C310 C 0.14363 0.52765 0.30214 0.0
C311 C 0.15666 0.55118 0.3143 0.0
C312 C 0.17367 0.59865 0.32061 0.0
H313 H 0.16526 0.55179 0.32918 0.0
C314 C 0.16496 0.61659 0.32184 0.0
C315 C 0.17851 0.63922 0.33513 0.0
C316 C 0.19664 0.60422 0.33244 0.0
H317 H 0.20436 0.59124 0.33148 0.0
C318 C 0.21002 0.62667 0.34567 0.0
H319 H 0.14733 0.61275 0.31294 0.0
C320 C 0.20092 0.64402 0.34715 0.0
H321 H 0.21166 0.66148 0.35739 0.0
H322 H 0.22756 0.63065 0.35475 0.0
H323 H 0.42702 0.54297 0.2656 0.0
C324 C 0.44378 0.55986 0.27362 0.0
C325 C 0.46853 0.56943 0.26676 0.0
C326 C 0.4404 0.57286 0.29019 0.0
H327 H 0.50866 0.60016 0.27094 0.0
C328 C 0.4899 0.59202 0.27681 0.0
C329 C 0.48687 0.60531 0.29333 0.0
C330 C 0.4621 0.59529 0.30008 0.0
C331 C 0.41393 0.5654 0.2957 0.0
H332 H 0.45947 0.60533 0.31282 0.0
C333 C 0.39593 0.53991 0.29956 0.0
C334 C 0.3709 0.53369 0.30454 0.0
C335 C 0.4066 0.58438 0.29694 0.0
H336 H 0.41994 0.60402 0.29388 0.0
C337 C 0.38192 0.57824 0.30185 0.0
H338 H 0.40132 0.52509 0.29865 0.0
C339 C 0.36417 0.55312 0.3056 0.0
H340 H 0.34515 0.54887 0.30952 0.0
H341 H 0.37651 0.59303 0.30272 0.0
Eu342 Eu 0.49645 0.99545 0.99839 0.0
Eu343 Eu 0.50976 0.01878 0.04676 0.0
C344 C 0.48929 0.04303 0.0141 0.0
C345 C 0.4951 0.99505 0.94139 0.0
C346 C 0.49087 0.01586 0.93888 0.0
C347 C 0.51242 0.00051 0.90903 0.0
C348 C 0.49722 0.02877 0.92153 0.0
C349 C 0.5059 0.98752 0.92631 0.0
C350 C 0.50819 0.02135 0.90635 0.0
C351 C 0.48934 0.98159 0.95984 0.0
O352 O 0.46621 0.99199 0.04085 0.0
O353 O 0.4635 0.96534 0.01371 0.0
C354 C 0.45355 0.97002 0.02924 0.0
O355 O 0.51558 0.97556 0.01363 0.0
O356 O 0.50046 0.03427 0.0732 0.0
O357 O 0.53321 0.02782 0.0755 0.0
O358 O 0.50613 0.97968 0.04568 0.0
C359 C 0.51295 0.96856 0.0319 0.0
O360 O 0.53286 0.03434 1.00078 0.0
O361 O 0.54843 0.03825 0.03365 0.0
O362 O 0.50593 0.04833 0.02992 0.0
O363 O 0.50952 0.98529 0.97151 0.0
O364 O 0.47148 0.98193 0.96997 0.0
O365 O 0.47905 0.02101 1.00271 0.0
C366 C 0.50893 0.0199 0.10329 0.0
C367 C 0.49612 0.9928 0.10225 0.0
C368 C 0.5045 0.02147 0.13898 0.0
C369 C 0.48767 0.98012 0.11947 0.0
C370 C 0.51301 0.03412 0.12175 0.0
C371 C 0.49173 0.99427 0.1381 0.0
C372 C 0.51804 0.03337 0.08523 0.0
C373 C 0.552 0.04485 0.01528 0.0
H374 H 0.48274 0.02224 0.95034 0.0
H375 H 0.52122 0.99445 0.89793 0.0
H376 H 0.49329 0.04443 0.91997 0.0
H377 H 0.50958 0.97169 0.92799 0.0
H378 H 0.49276 0.98144 0.08812 0.0
H379 H 0.50763 0.03301 0.15294 0.0
H380 H 0.47825 0.95921 0.1182 0.0
H381 H 0.52275 0.05505 0.12283 0.0
Eu382 Eu 0.0182 0.49851 0.99958 0.0
Eu383 Eu 1.0016 0.49596 0.04564 0.0
C384 C 0.9687 0.44821 1.01156 0.0
C385 C 0.01738 0.49767 0.94303 0.0
C386 C 0.99175 0.493 0.94086 0.0
C387 C 0.01734 0.49518 0.90693 0.0
C388 C 0.97891 0.48933 0.92178 0.0
C389 C 0.03016 0.4989 0.92602 0.0
C390 C 0.99151 0.49018 0.90459 0.0
C391 C 0.03078 0.50096 0.96296 0.0
O392 O 0.03896 0.49488 0.04778 0.0
O393 O 0.03562 0.4775 0.01579 0.0
C394 C 0.04584 0.48303 0.0346 0.0
O395 O 0.05257 0.5313 0.01834 0.0
O396 O 0.99277 0.47614 0.07278 0.0
O397 O 0.99089 0.51121 0.07127 0.0
O398 O 0.03171 0.53789 0.04348 0.0
C399 C 0.05219 0.54579 0.03349 0.0
O400 O 0.99263 0.51662 1.0001 0.0
O401 O 0.97045 0.4988 0.02703 0.0
O402 O 0.9789 0.45501 0.03035 0.0
O403 O 0.03496 0.52105 0.97468 0.0
O404 O 0.0223 0.48012 0.97226 0.0
O405 O 0.97779 0.46435 0.99787 0.0
C406 C 0.00529 0.50385 0.10242 0.0
C407 C 0.03162 0.5233 0.10433 0.0
C408 C 0.00824 0.50091 0.13824 0.0
C409 C 0.04621 0.53148 0.12311 0.0
C410 C 0.99366 0.49283 0.11947 0.0
C411 C 0.03476 0.52019 0.14028 0.0
C412 C 0.99022 0.49397 0.08264 0.0
C413 C 0.97289 0.51058 1.01071 0.0
H414 H 0.98161 0.49193 0.95392 0.0
H415 H 0.02765 0.49625 0.89399 0.0
H416 H 0.95893 0.4852 0.92048 0.0
H417 H 0.05 0.50259 0.92749 0.0
H418 H 0.04096 0.53193 0.09126 0.0
H419 H 0.99889 0.49149 0.15106 0.0
H420 H 0.06647 0.54657 0.12416 0.0
H421 H 0.9734 0.47762 0.11821 0.0
Eu422 Eu 0.52729 0.51205 0.04093 0.0
Eu423 Eu 0.50715 0.51204 0.99366 0.0
C424 C 0.52823 0.56194 0.02483 0.0
C425 C 0.53262 0.51736 0.09793 0.0
C426 C 0.51106 0.52094 0.09814 0.0
C427 C 0.5378 0.52222 0.13432 0.0
C428 C 0.50271 0.52483 0.11631 0.0
C429 C 0.54601 0.51816 0.11611 0.0
C430 C 0.5159 0.52542 0.13468 0.0
C431 C 0.54057 0.51182 0.07884 0.0
O432 O 0.55113 0.53074 0.9958 0.0
O433 O 0.55868 0.51304 0.02311 0.0
C434 C 0.56606 0.52454 1.00668 0.0
O435 O 0.5052 0.47067 0.02723 0.0
O436 O 0.51076 0.53275 0.96723 0.0
O437 O 0.48176 0.49202 0.96606 0.0
O438 O 0.51271 0.47773 0.99467 0.0
C439 C 0.50688 0.46263 1.00915 0.0
O440 O 0.48923 0.51136 0.04199 0.0
O441 O 0.47052 0.4947 1.00972 0.0
O442 O 0.51007 0.54694 1.01041 0.0
O443 O 0.5227 0.49153 0.0675 0.0
O444 O 0.55332 0.5314 0.06856 0.0
O445 O 0.54126 0.55355 0.03552 0.0
C446 C 0.50209 0.50732 0.93666 0.0
C447 C 0.51127 0.4899 0.93434 0.0
C448 C 0.51037 0.51768 0.90249 0.0
C449 C 0.51978 0.48627 0.91616 0.0
C450 C 0.5017 0.52115 0.92063 0.0
C451 C 0.51952 0.50018 0.89999 0.0
C452 C 0.49373 0.51194 0.95586 0.0
C453 C 0.46871 0.50024 0.02859 0.0
H454 H 0.50051 0.52041 0.08423 0.0
H455 H 0.54874 0.52302 0.14811 0.0
H456 H 0.48561 0.52689 0.11593 0.0
H457 H 0.56275 0.51548 0.11623 0.0
H458 H 0.51194 0.47915 0.94658 0.0
H459 H 0.5103 0.52907 0.89055 0.0
H460 H 0.52636 0.4724 0.91474 0.0
H461 H 0.49494 0.53488 0.92221 0.0
Eu462 Eu 0.16013 0.32648 0.3284 0.0
Eu463 Eu 0.1765 0.34966 0.37695 0.0
C464 C 0.15753 0.37646 0.34548 0.0
C465 C 0.15673 0.32475 0.27141 0.0
C466 C 0.17735 0.35035 0.27201 0.0
C467 C 0.15015 0.32325 0.23517 0.0
C468 C 0.18451 0.36222 0.2543 0.0
C469 C 0.1431 0.31137 0.25289 0.0
C470 C 0.1711 0.3488 0.23559 0.0
C471 C 0.14993 0.31165 0.28988 0.0
O472 O 0.13261 0.32512 0.37177 0.0
O473 O 0.12748 0.29748 0.34456 0.0
C474 C 0.1187 0.30308 0.36042 0.0
O475 O 0.17923 0.30592 0.34239 0.0
O476 O 0.16904 0.36565 0.40414 0.0
O477 O 0.20035 0.35699 0.40522 0.0
O478 O 0.17106 0.30981 0.37484 0.0
C479 C 0.17692 0.29851 0.36052 0.0
O480 O 0.19801 0.36384 0.32986 0.0
O481 O 0.21453 0.3689 0.36275 0.0
O482 O 0.17404 0.38048 0.36107 0.0
O483 O 0.16926 0.31278 0.3011 0.0
O484 O 0.13433 0.31552 0.30046 0.0
O485 O 0.14594 0.35462 0.33375 0.0
C486 C 0.17684 0.34964 0.43364 0.0
C487 C 0.16895 0.32329 0.43375 0.0
C488 C 0.16655 0.35027 0.46806 0.0
C489 C 0.1602 0.31062 0.45094 0.0
C490 C 0.17549 0.36298 0.45091 0.0
C491 C 0.15888 0.32395 0.46834 0.0
C492 C 0.18612 0.36325 0.41559 0.0
C493 C 0.21753 0.37456 0.34408 0.0
H494 H 0.18812 0.36104 0.28617 0.0
H495 H 0.13902 0.31244 0.22115 0.0
H496 H 0.20091 0.38175 0.25528 0.0
H497 H 0.12708 0.29163 0.25212 0.0
H498 H 0.16951 0.31248 0.42053 0.0
H499 H 0.166 0.36118 0.48123 0.0
H500 H 0.15411 0.29027 0.45051 0.0
H501 H 0.18139 0.38328 0.45113 0.0
Eu502 Eu 0.68423 0.83731 0.33316 0.0
Eu503 Eu 0.66478 0.83179 0.37841 0.0
C504 C 0.63569 0.7841 0.34423 0.0
C505 C 0.68484 0.83501 0.27657 0.0
C506 C 0.6585 0.82799 0.27341 0.0
C507 C 0.68589 0.82989 0.24066 0.0
C508 C 0.646 0.82222 0.25396 0.0
C509 C 0.69843 0.83581 0.26013 0.0
C510 C 0.65959 0.82321 0.23737 0.0
C511 C 0.6984 0.84221 0.2969 0.0
O512 O 0.69107 0.81448 0.37787 0.0
O513 O 0.71539 0.83555 0.35277 0.0
C514 C 0.71196 0.82223 0.36831 0.0
O515 O 0.704 0.8776 0.34918 0.0
O516 O 0.64815 0.80897 0.40321 0.0
O517 O 0.65927 0.84952 0.40554 0.0
O518 O 0.70474 0.86714 0.38123 0.0
C519 C 0.71392 0.88392 0.36799 0.0
O520 O 0.64549 0.83549 0.32938 0.0
O521 O 0.64435 0.8496 0.36149 0.0
O522 O 0.63281 0.79702 0.3593 0.0
O523 O 0.69637 0.8598 0.30762 0.0
O524 O 0.69553 0.82323 0.30711 0.0
O525 O 0.65654 0.79462 0.33456 0.0
C526 C 0.6651 0.83281 0.43515 0.0
C527 C 0.66143 0.84705 0.45056 0.0
C528 C 0.69477 0.82752 0.4584 0.0
C529 C 0.67446 0.85168 0.46971 0.0
C530 C 0.68196 0.82314 0.43919 0.0
C531 C 0.69124 0.84193 0.47383 0.0
C532 C 0.65178 0.82885 0.41493 0.0
C533 C 0.63588 0.84482 0.34229 0.0
H534 H 0.64768 0.82715 0.28598 0.0
H535 H 0.69691 0.83099 0.22817 0.0
H536 H 0.62563 0.81678 0.25191 0.0
H537 H 0.71879 0.84126 0.26234 0.0
H538 H 0.64857 0.85474 0.44773 0.0
H539 H 0.70784 0.82006 0.46109 0.0
H540 H 0.67124 0.86268 0.48136 0.0
H541 H 0.6854 0.81235 0.4275 0.0
Eu542 Eu 0.19111 0.85456 0.36912 0.0
Eu543 Eu 0.16692 0.84497 0.32124 0.0
C544 C 0.19287 0.89934 0.34628 0.0
C545 C 0.19875 0.86383 0.42686 0.0
C546 C 0.21242 0.88517 0.44128 0.0
C547 C 0.16651 0.84219 0.45008 0.0
C548 C 0.20325 0.88516 0.45987 0.0
C549 C 0.17564 0.84231 0.43135 0.0
C550 C 0.18021 0.86366 0.4646 0.0
C551 C 0.2087 0.86513 0.40717 0.0
O552 O 0.20995 0.85929 0.32066 0.0
O553 O 0.22254 0.85394 0.35245 0.0
C554 C 0.2269 0.8584 0.33373 0.0
O555 O 0.16797 0.81144 0.36151 0.0
O556 O 0.16763 0.86272 0.29367 0.0
O557 O 0.14196 0.82147 0.29425 0.0
O558 O 0.16915 0.80966 0.32735 0.0
C559 C 0.16565 0.79883 0.34418 0.0
O560 O 0.15121 0.85031 0.36978 0.0
O561 O 0.13136 0.83054 0.33817 0.0
O562 O 0.17152 0.88203 0.33541 0.0
O563 O 0.20258 0.84346 0.39677 0.0
O564 O 0.20755 0.88176 0.39606 0.0
O565 O 0.20797 0.89228 0.35552 0.0
C566 C 0.16163 0.83621 0.26452 0.0
C567 C 0.17735 0.82486 0.26456 0.0
C568 C 0.16712 0.84264 0.22942 0.0
C569 C 0.18784 0.82235 0.2471 0.0
C570 C 0.15653 0.84499 0.24685 0.0
C571 C 0.18303 0.83138 0.22932 0.0
C572 C 0.15206 0.84067 0.28312 0.0
C573 C 0.13026 0.8377 0.3568 0.0
H574 H 0.23014 0.90207 0.43805 0.0
H575 H 0.14882 0.82521 0.45321 0.0
H576 H 0.21405 0.90229 0.4704 0.0
H577 H 0.16461 0.82566 0.42039 0.0
H578 H 0.18175 0.81821 0.27814 0.0
H579 H 0.16333 0.85021 0.21615 0.0
H580 H 0.19968 0.81328 0.24756 0.0
H581 H 0.14474 0.85414 0.24664 0.0
Eu582 Eu 0.81989 0.65815 0.66167 0.0
Eu583 Eu 0.83827 0.6793 0.71082 0.0
C584 C 0.81933 0.70846 0.68058 0.0
C585 C 0.81905 0.65839 0.60495 0.0
C586 C 0.84148 0.68299 0.60646 0.0
C587 C 0.81417 0.65933 0.56888 0.0
C588 C 0.85026 0.69565 0.58926 0.0
C589 C 0.8055 0.64667 0.58607 0.0
C590 C 0.83668 0.68402 0.57021 0.0
C591 C 0.80939 0.64506 0.62297 0.0
O592 O 0.79767 0.64549 0.70949 0.0
O593 O 0.78208 0.63973 0.67606 0.0
C594 C 0.77852 0.63533 0.69493 0.0
O595 O 0.81725 0.62474 0.6768 0.0
O596 O 0.83216 0.69381 0.73926 0.0
O597 O 0.86475 0.68737 0.73783 0.0
O598 O 0.84728 0.64736 0.70398 0.0
C599 C 0.83273 0.62592 0.69211 0.0
O600 O 0.86387 0.68192 0.66607 0.0
O601 O 0.87054 0.70835 0.69453 0.0
O602 O 0.82089 0.70254 0.69896 0.0
O603 O 0.8258 0.64143 0.63422 0.0
O604 O 0.79649 0.65286 0.63353 0.0
O605 O 0.82316 0.69698 0.6651 0.0
C606 C 0.84416 0.67972 0.76795 0.0
C607 C 0.83799 0.65388 0.76849 0.0
C608 C 0.83441 0.68059 0.80247 0.0
C609 C 0.83015 0.64152 0.78596 0.0
C610 C 0.84243 0.69297 0.78509 0.0
C611 C 0.82802 0.65466 0.8031 0.0
C612 C 0.85096 0.69277 0.74942 0.0
C613 C 0.87837 0.70346 0.67786 0.0
H614 H 0.85215 0.69243 0.62094 0.0
H615 H 0.80291 0.64992 0.55458 0.0
H616 H 0.86781 0.71447 0.59091 0.0
H617 H 0.78803 0.62777 0.58463 0.0
H618 H 0.83886 0.64314 0.75535 0.0
H619 H 0.83327 0.69136 0.81546 0.0
H620 H 0.82511 0.62146 0.78587 0.0
H621 H 0.84698 0.71287 0.78496 0.0
Eu622 Eu 0.34466 0.15976 0.66224 0.0
Eu623 Eu 0.32793 0.15762 0.70852 0.0
C624 C 0.29668 0.10746 0.6754 0.0
C625 C 0.34418 0.15949 0.60548 0.0
C626 C 0.31836 0.15421 0.60283 0.0
C627 C 0.34484 0.15633 0.56945 0.0
C628 C 0.3058 0.14995 0.58355 0.0
C629 C 0.35739 0.16065 0.58873 0.0
C630 C 0.31887 0.1508 0.56664 0.0
C631 C 0.35741 0.16349 0.6256 0.0
O632 O 0.36416 0.15437 0.71148 0.0
O633 O 0.36654 0.14316 0.67866 0.0
C634 C 0.37389 0.14589 0.69796 0.0
O635 O 0.37853 0.19281 0.68099 0.0
O636 O 0.31876 0.13943 0.73632 0.0
O637 O 0.31768 0.17472 0.73331 0.0
O638 O 0.35655 0.19968 0.70493 0.0
C639 C 0.37723 0.20786 0.69515 0.0
O640 O 0.31763 0.17633 0.66295 0.0
O641 O 0.29498 0.1559 0.68883 0.0
O642 O 0.30392 0.11629 0.69444 0.0
O643 O 0.35987 0.18286 0.63731 0.0
O644 O 0.35026 0.14275 0.63484 0.0
O645 O 0.30724 0.12184 0.66087 0.0
C646 C 0.33159 0.16847 0.76511 0.0
C647 C 0.35847 0.18605 0.76674 0.0
C648 C 0.33396 0.1676 0.80118 0.0
C649 C 0.37308 0.19417 0.7855 0.0
C650 C 0.31937 0.15954 0.78242 0.0
C651 C 0.36106 0.18471 0.80292 0.0
C652 C 0.31654 0.15793 0.74539 0.0
C653 C 0.29696 0.16801 0.67279 0.0
H654 H 0.30788 0.15318 0.61568 0.0
H655 H 0.35552 0.15742 0.55674 0.0
H656 H 0.28569 0.14542 0.58187 0.0
H657 H 0.37737 0.16477 0.59057 0.0
H658 H 0.36822 0.19304 0.75346 0.0
H659 H 0.32414 0.15965 0.81423 0.0
H660 H 0.39385 0.2076 0.78633 0.0
H661 H 0.29865 0.14579 0.78136 0.0
Eu662 Eu 0.85772 0.18148 0.70564 0.0
Eu663 Eu 0.83887 0.18232 0.65831 0.0
C664 C 0.85813 0.23132 0.69016 0.0
C665 C 0.86331 0.18605 0.76291 0.0
C666 C 0.84127 0.18874 0.76392 0.0
C667 C 0.87078 0.19213 0.79926 0.0
C668 C 0.83389 0.19288 0.7825 0.0
C669 C 0.87806 0.18788 0.78067 0.0
C670 C 0.84851 0.19453 0.80042 0.0
C671 C 0.87054 0.18043 0.7435 0.0
O672 O 0.88286 0.20165 0.66121 0.0
O673 O 0.88961 0.1829 0.68808 0.0
C674 C 0.89751 0.19505 0.67197 0.0
O675 O 0.83559 0.14035 0.69152 0.0
O676 O 0.84289 0.20342 0.63207 0.0
O677 O 0.81446 0.1625 0.63026 0.0
O678 O 0.84459 0.14807 0.65932 0.0
C679 C 0.83794 0.1326 0.67356 0.0
O680 O 0.81939 0.18051 0.70627 0.0
O681 O 0.8018 0.16394 0.67379 0.0
O682 O 0.8406 0.21656 0.67528 0.0
O683 O 0.85218 0.16056 0.73208 0.0
O684 O 0.88375 0.20007 0.73339 0.0
O685 O 0.87122 0.22301 0.70083 0.0
C686 C 0.83601 0.17855 0.60161 0.0
C687 C 0.85092 0.16634 0.60122 0.0
C688 C 0.84054 0.18449 0.56634 0.0
C689 C 0.86049 0.16312 0.58347 0.0
C690 C 0.83089 0.18759 0.58409 0.0
C691 C 0.8555 0.17223 0.56579 0.0
C692 C 0.8265 0.18268 0.62035 0.0
C693 C 0.79924 0.16924 0.69252 0.0
H694 H 0.82968 0.18746 0.75034 0.0
H695 H 0.88232 0.19304 0.81274 0.0
H696 H 0.81686 0.19498 0.78284 0.0
H697 H 0.89506 0.18574 0.78018 0.0
H698 H 0.85521 0.15936 0.61465 0.0
H699 H 0.83665 0.19211 0.55315 0.0
H700 H 0.87162 0.15329 0.58358 0.0
H701 H 0.81962 0.19729 0.58418 0.0
H702 H 0.33785 0.82762 0.06934 0.0
H703 H 0.30129 0.87432 0.0733 0.0
H704 H 0.37434 0.86217 0.05524 0.0
H705 H 0.3383 0.90925 0.05944 0.0
H706 H 0.42494 0.97428 0.05796 0.0
H707 H 0.38541 0.93994 0.06934 0.0
H708 H 0.38492 0.885 0.0247 0.0
H709 H 0.42467 0.91931 0.01338 0.0
C710 C 0.33739 0.84513 0.06698 0.0
C711 C 0.31641 0.84801 0.07234 0.0
C712 C 0.35839 0.86498 0.05888 0.0
C713 C 0.35917 0.8884 0.05606 0.0
C714 C 0.33836 0.89148 0.06155 0.0
C715 C 0.31719 0.87149 0.06955 0.0
C716 C 0.41631 0.95494 0.05041 0.0
C717 C 0.42811 0.94957 0.03478 0.0
C718 C 0.39353 0.93527 0.05689 0.0
C719 C 0.38208 0.90971 0.04801 0.0
C720 C 0.39345 0.90445 0.03202 0.0
C721 C 0.41615 0.92417 0.02544 0.0
H722 H 0.15385 0.45122 0.10356 0.0
H723 H 0.17849 0.45708 0.04407 0.0
H724 H 0.11766 0.45643 0.09139 0.0
H725 H 0.14302 0.464 0.03211 0.0
H726 H 0.06275 0.45453 0.01339 0.0
H727 H 0.09684 0.44507 0.02445 0.0
H728 H 0.11027 0.48942 0.08128 0.0
H729 H 0.07588 0.49807 0.07054 0.0
C730 C 0.15148 0.45338 0.08781 0.0
C731 C 0.16921 0.4536 0.07483 0.0
C732 C 0.13086 0.45684 0.08087 0.0
C733 C 0.12744 0.46096 0.06077 0.0
C734 C 0.14485 0.46071 0.04765 0.0
C735 C 0.16543 0.45705 0.05458 0.0
C736 C 0.07292 0.46214 0.02828 0.0
C737 C 0.0664 0.47693 0.04109 0.0
C738 C 0.09261 0.45685 0.03459 0.0
C739 C 0.10633 0.46633 0.05384 0.0
C740 C 0.09983 0.48126 0.06653 0.0
C741 C 0.08012 0.48638 0.0603 0.0
H742 H 0.50085 0.68522 0.05877 0.0
H743 H 0.58502 0.72426 0.06645 0.0
H744 H 0.49914 0.64587 0.04533 0.0
H745 H 0.58323 0.6845 0.05315 0.0
H746 H 0.56308 0.5984 0.0544 0.0
H747 H 0.56845 0.64073 0.0642 0.0
H748 H 0.51018 0.62792 0.0162 0.0
H749 H 0.50449 0.58552 1.00652 0.0
C750 C 0.51902 0.68556 0.05725 0.0
C751 C 0.54308 0.70793 0.0636 0.0
C752 C 0.51803 0.66296 0.04957 0.0
C753 C 0.54105 0.66213 0.04814 0.0
C754 C 0.56516 0.68453 0.05426 0.0
C755 C 0.56617 0.70725 0.06188 0.0
C756 C 0.55157 0.60469 0.04582 0.0
C757 C 0.53317 0.58846 0.0298 0.0
C758 C 0.55478 0.62901 0.05137 0.0
C759 C 0.53961 0.63754 0.04104 0.0
C760 C 0.52187 0.62169 0.02461 0.0
C761 C 0.5187 0.59743 0.01904 0.0
H762 H 0.81768 0.31642 0.96764 0.0
H763 H 0.86753 0.28355 0.97493 0.0
H764 H 0.85382 0.35876 0.98136 0.0
H765 H 0.90383 0.32612 0.98881 0.0
H766 H 0.9529 0.40433 0.03084 0.0
H767 H 0.91619 0.36078 0.01984 0.0
H768 H 0.89724 0.38952 0.96767 0.0
H769 H 0.93385 0.4327 0.97837 0.0
C770 C 0.83628 0.31819 0.97246 0.0
C771 C 0.8398 0.29669 0.97027 0.0
C772 C 0.85699 0.34244 0.98017 0.0
C773 C 0.8816 0.34569 0.98609 0.0
C774 C 0.88499 0.32408 0.98446 0.0
C775 C 0.86433 0.29982 0.97643 0.0
C776 C 0.94083 0.40131 0.01706 0.0
C777 C 0.94628 0.42193 1.00547 0.0
C778 C 0.91996 0.37641 1.01074 0.0
C779 C 0.90388 0.37185 0.99295 0.0
C780 C 0.90919 0.39254 0.98152 0.0
C781 C 0.93025 0.41723 0.98762 0.0
H782 H 0.68732 0.54263 0.93201 0.0
H783 H 0.72233 0.54917 0.99187 0.0
H784 H 0.64838 0.53803 0.94552 0.0
H785 H 0.68357 0.5451 1.00552 0.0
H786 H 0.59928 0.50853 0.02146 0.0
H787 H 0.63931 0.51503 1.0087 0.0
H788 H 0.63065 0.55952 0.96345 0.0
H789 H 0.59022 0.55228 0.97581 0.0
C790 C 0.68688 0.54351 0.94811 0.0
C791 C 0.70803 0.5463 0.96083 0.0
C792 C 0.66449 0.5409 0.9559 0.0
C793 C 0.66263 0.54117 0.97669 0.0
C794 C 0.68398 0.54432 0.98943 0.0
C795 C 0.7063 0.54676 0.98161 0.0
C796 C 0.60597 0.51982 1.00886 0.0
C797 C 0.59139 0.52982 0.99968 0.0
C798 C 0.62909 0.52368 1.00156 0.0
C799 C 0.63839 0.53777 0.98494 0.0
C800 C 0.62399 0.54815 0.97602 0.0
C801 C 0.60081 0.54416 0.98323 0.0
H802 H 0.46773 0.17619 1.00279 0.0
H803 H 0.46946 0.14745 0.94289 0.0
H804 H 0.46885 0.1395 0.01595 0.0
H805 H 0.4707 0.11097 0.95599 0.0
H806 H 0.45468 0.03831 0.98309 0.0
H807 H 0.44624 0.07163 0.97188 0.0
H808 H 0.50107 0.12583 0.02021 0.0
H809 H 0.50913 0.09235 0.03175 0.0
C810 C 0.46823 0.16196 0.99244 0.0
C811 C 0.4686 0.16472 0.97182 0.0
C812 C 0.46891 0.141 0.99997 0.0
C813 C 0.46999 0.1224 0.98703 0.0
C814 C 0.46949 0.12475 0.96634 0.0
C815 C 0.46878 0.14566 0.95882 0.0
C816 C 0.46477 0.05725 0.99147 0.0
C817 C 0.48273 0.06272 1.00826 0.0
C818 C 0.46 0.07638 0.98497 0.0
C819 C 0.47311 0.10141 0.99506 0.0
C820 C 0.49043 0.10665 1.01223 0.0
C821 C 0.49518 0.08749 0.01877 0.0
H822 H 0.6894 0.15292 0.95933 0.0
H823 H 0.67976 0.19695 1.00759 0.0
H824 H 0.65586 0.11274 0.97093 0.0
H825 H 0.64608 0.15709 0.01895 0.0
H826 H 0.59419 0.07983 0.0415 0.0
H827 H 0.63493 0.11632 0.03321 0.0
H828 H 0.60843 0.09351 0.97021 0.0
H829 H 0.56815 0.05716 0.97839 0.0
C830 C 0.68047 0.15397 0.97262 0.0
C831 C 0.68696 0.17805 0.98241 0.0
C832 C 0.66112 0.13101 0.97918 0.0
C833 C 0.6481 0.13171 0.99577 0.0
C834 C 0.65579 0.15578 1.00623 0.0
C835 C 0.67493 0.17866 0.9996 0.0
C836 C 0.59724 0.08243 0.0259 0.0
C837 C 0.57778 0.06569 1.01064 0.0
C838 C 0.62053 0.10338 0.02114 0.0
C839 C 0.62494 0.10788 1.00103 0.0
C840 C 0.60588 0.09049 0.98583 0.0
C841 C 0.58261 0.06974 0.99056 0.0
H842 H 0.83161 0.48372 0.94605 0.0
H843 H 0.84276 0.54054 0.99375 0.0
H844 H 0.87469 0.48995 0.95631 0.0
H845 H 0.88598 0.54669 1.00425 0.0
H846 H 0.96095 0.51875 0.97267 0.0
H847 H 0.92327 0.52213 0.96019 0.0
H848 H 0.89915 0.51653 0.01976 0.0
H849 H 0.93656 0.51295 0.03221 0.0
C850 C 0.84358 0.49796 0.95849 0.0
C851 C 0.83391 0.51168 0.9691 0.0
C852 C 0.86827 0.50158 0.96433 0.0
C853 C 0.88372 0.51872 0.98116 0.0
C854 C 0.87446 0.53323 0.9913 0.0
C855 C 0.84987 0.5299 0.98522 0.0
C856 C 0.94783 0.51863 0.98316 0.0
C857 C 0.95173 0.51547 1.00344 0.0
C858 C 0.92618 0.52045 0.97599 0.0
C859 C 0.90821 0.5196 0.98898 0.0
C860 C 0.91275 0.51753 1.0094 0.0
C861 C 0.93412 0.51529 0.0165 0.0
H862 H 0.537 0.33845 0.02248 0.0
H863 H 0.498 0.31899 0.96233 0.0
H864 H 0.52919 0.37454 0.02693 0.0
H865 H 0.4892 0.35448 0.9671 0.0
H866 H 0.51361 0.44133 0.9747 0.0
H867 H 0.51469 0.40136 0.96985 0.0
H868 H 0.49542 0.38552 0.03029 0.0
H869 H 0.49493 0.42587 0.03535 0.0
C870 C 0.52664 0.34181 1.01024 0.0
C871 C 0.51833 0.32602 0.99199 0.0
C872 C 0.52184 0.36227 1.01289 0.0
C873 C 0.50856 0.36738 0.99736 0.0
C874 C 0.4997 0.3512 0.97927 0.0
C875 C 0.50453 0.33072 0.97662 0.0
C876 C 0.5093 0.4292 0.9869 0.0
C877 C 0.50444 0.43693 1.00549 0.0
C878 C 0.50978 0.40619 0.98407 0.0
C879 C 0.50533 0.39036 0.99974 0.0
C880 C 0.49937 0.39754 0.01804 0.0
C881 C 0.49895 0.42059 0.0209 0.0
H882 H 0.20978 0.65824 0.07959 0.0
H883 H 0.18081 0.7051 0.05435 0.0
H884 H 0.16639 0.62026 0.07293 0.0
H885 H 0.137 0.6669 0.04831 0.0
H886 H 0.05807 0.58802 0.05688 0.0
H887 H 0.09908 0.62856 0.06791 0.0
H888 H 0.14159 0.59914 0.03673 0.0
H889 H 0.10119 0.5593 0.0255 0.0
C890 C 0.19413 0.66051 0.07277 0.0
C891 C 0.19894 0.68464 0.0671 0.0
C892 C 0.16926 0.63878 0.06911 0.0
C893 C 0.14849 0.64068 0.05995 0.0
C894 C 0.15273 0.66502 0.05547 0.0
C895 C 0.17779 0.68684 0.05895 0.0
C896 C 0.07621 0.59033 0.05237 0.0
C897 C 0.07638 0.57052 0.04025 0.0
C898 C 0.09957 0.61348 0.05863 0.0
C899 C 0.12341 0.6168 0.05325 0.0
C900 C 0.12349 0.59696 0.04122 0.0
C901 C 0.10028 0.5742 0.03469 0.0
H902 H 0.30748 0.46295 0.04442 0.0
H903 H 0.35968 0.52571 0.08871 0.0
H904 H 0.34436 0.45897 0.03415 0.0
H905 H 0.3963 0.52223 0.07838 0.0
H906 H 0.45608 0.50063 0.06685 0.0
H907 H 0.41614 0.49597 0.07808 0.0
H908 H 0.38331 0.48385 0.01658 0.0
H909 H 0.42343 0.48803 1.00526 0.0
C910 C 0.32673 0.47554 0.05219 0.0
C911 C 0.3307 0.49465 0.06736 0.0
C912 C 0.3479 0.4735 0.04617 0.0
C913 C 0.37341 0.49034 0.05536 0.0
C914 C 0.37701 0.50869 0.07108 0.0
C915 C 0.356 0.51081 0.07697 0.0
C916 C 0.44037 0.49684 0.05565 0.0
C917 C 0.44322 0.49508 0.03511 0.0
C918 C 0.41739 0.49421 0.06212 0.0
C919 C 0.39652 0.48987 0.04828 0.0
C920 C 0.39888 0.48701 0.0277 0.0
C921 C 0.42196 0.48954 0.02119 0.0
H922 H 0.53162 0.83257 0.04031 0.0
H923 H 0.46511 0.82005 0.07069 0.0
H924 H 0.54075 0.87628 0.03476 0.0
H925 H 0.47393 0.86335 0.06491 0.0
H926 H 0.5092 0.94929 0.06812 0.0
H927 H 0.50719 0.90912 0.07549 0.0
H928 H 0.51896 0.89568 0.01429 0.0
H929 H 0.5212 0.93617 1.0068 0.0
C930 C 0.51912 0.83926 0.04594 0.0
C931 C 0.49763 0.82295 0.05589 0.0
C932 C 0.52422 0.86414 0.04263 0.0
C933 C 0.50808 0.87321 0.04944 0.0
C934 C 0.48689 0.85701 0.0597 0.0
C935 C 0.48168 0.83214 0.06284 0.0
C936 C 0.51167 0.93799 0.05622 0.0
C937 C 0.51506 0.94583 0.03677 0.0
C938 C 0.51041 0.91491 0.06047 0.0
C939 C 0.51259 0.89913 0.04541 0.0
C940 C 0.51733 0.90753 0.02621 0.0
C941 C 0.51851 0.93067 0.02192 0.0
H942 H 1.00035 0.20595 0.43372 0.0
H943 H 0.96488 0.17067 0.37388 0.0
H944 H 0.0377 0.24013 0.41998 0.0
H945 H 1.00217 0.20508 0.36003 0.0
H946 H 0.08731 0.25243 0.34501 0.0
H947 H 0.0474 0.21972 0.35721 0.0
H948 H 0.05211 0.27716 0.40171 0.0
H949 H 0.09229 0.30963 0.3899 0.0
C950 C 1.00031 0.20576 0.4176 0.0
C951 C 0.97963 0.18556 0.40491 0.0
C952 C 0.02176 0.22539 0.40969 0.0
C953 C 0.02305 0.22541 0.38886 0.0
C954 C 1.00207 0.20548 0.37615 0.0
C955 C 0.98065 0.18579 0.38408 0.0
C956 C 0.0797 0.25814 0.35727 0.0
C957 C 0.09313 0.28366 0.36651 0.0
C958 C 0.05672 0.23939 0.36423 0.0
C959 C 0.04655 0.24571 0.38056 0.0
C960 C 0.05959 0.27144 0.38937 0.0
C961 C 0.0826 0.29013 0.38248 0.0
H962 H 0.84288 0.79388 0.38161 0.0
H963 H 0.82368 0.7993 0.44183 0.0
H964 H 0.8067 0.79915 0.36863 0.0
H965 H 0.78784 0.80502 0.42898 0.0
H966 H 0.71144 0.79311 0.39867 0.0
H967 H 0.74571 0.78456 0.41076 0.0
H968 H 0.79401 0.83088 0.36698 0.0
H969 H 0.75953 0.83872 0.35453 0.0
C970 C 0.83098 0.79629 0.39208 0.0
C971 C 0.83618 0.7961 0.41275 0.0
C972 C 0.81025 0.7994 0.38466 0.0
C973 C 0.79425 0.80261 0.39772 0.0
C974 C 0.79936 0.80217 0.41839 0.0
C975 C 0.81999 0.79891 0.42579 0.0
C976 C 0.72932 0.80136 0.39155 0.0
C977 C 0.73261 0.81657 0.37557 0.0
C978 C 0.7491 0.7966 0.39858 0.0
C979 C 0.77277 0.80701 0.3899 0.0
C980 C 0.77596 0.82213 0.37386 0.0
C981 C 0.75616 0.82678 0.36678 0.0
H982 H 0.159 0.01374 0.38788 0.0
H983 H 0.2431 0.0587 0.39262 0.0
H984 H 0.15997 0.97731 0.37115 0.0
H985 H 0.2441 0.02201 0.37575 0.0
H986 H 0.23095 0.93789 0.37281 0.0
H987 H 0.23463 0.97905 0.38387 0.0
H988 H 0.17007 0.96235 0.34047 0.0
H989 H 0.16595 0.92085 0.32969 0.0
C990 C 0.1777 0.01598 0.38502 0.0
C991 C 0.20098 0.03909 0.39153 0.0
C992 C 0.17826 0.99512 0.37537 0.0
C993 C 0.20211 0.99684 0.37201 0.0
C994 C 0.22543 0.02006 0.37827 0.0
C995 C 0.22487 0.04101 0.38796 0.0
C996 C 0.21781 0.94317 0.36538 0.0
C997 C 0.19789 0.92594 0.35059 0.0
C998 C 0.22002 0.96684 0.37166 0.0
C999 C 0.20241 0.97377 0.36322 0.0
C1000 C 0.18358 0.95727 0.34753 0.0
C1001 C 0.18131 0.93357 0.34129 0.0
H1002 H 0.53855 0.61976 0.30106 0.0
H1003 H 0.48545 0.64892 0.30551 0.0
H1004 H 0.57496 0.66241 0.31396 0.0
H1005 H 0.52167 0.69124 0.31858 0.0
H1006 H 0.58874 0.75699 0.35922 0.0
H1007 H 0.55345 0.71333 0.34808 0.0
H1008 H 0.59899 0.7065 0.30317 0.0
H1009 H 0.63456 0.75018 0.31446 0.0
C1010 C 0.53462 0.63522 0.3048 0.0
C1011 C 0.509 0.63081 0.30232 0.0
C1012 C 0.55549 0.65966 0.31217 0.0
C1013 C 0.55122 0.68023 0.31732 0.0
C1014 C 0.5256 0.67573 0.31507 0.0
C1015 C 0.50478 0.65138 0.30763 0.0
C1016 C 0.59134 0.74621 0.34702 0.0
C1017 C 0.61452 0.7572 0.33771 0.0
C1018 C 0.57102 0.72118 0.34057 0.0
C1019 C 0.57335 0.70644 0.32469 0.0
C1020 C 0.59667 0.71724 0.31558 0.0
C1021 C 0.617 0.74235 0.32198 0.0
H1022 H 0.34667 0.83779 0.283 0.0
H1023 H 0.38702 0.91898 0.30408 0.0
H1024 H 0.30643 0.83279 0.29484 0.0
H1025 H 0.34682 0.91379 0.31652 0.0
H1026 H 0.27413 0.8774 0.35605 0.0
H1027 H 0.31512 0.88401 0.34443 0.0
H1028 H 0.27669 0.85441 0.2845 0.0
H1029 H 0.23597 0.84851 0.29587 0.0
C1030 C 0.34693 0.8545 0.29032 0.0
C1031 C 0.36992 0.87876 0.29267 0.0
C1032 C 0.32393 0.85166 0.29701 0.0
C1033 C 0.32356 0.87289 0.3066 0.0
C1034 C 0.34664 0.89711 0.30924 0.0
C1035 C 0.36954 0.90009 0.30209 0.0
C1036 C 0.27446 0.87238 0.34039 0.0
C1037 C 0.25181 0.86246 0.32688 0.0
C1038 C 0.29792 0.87628 0.33375 0.0
C1039 C 0.29902 0.8697 0.31359 0.0
C1040 C 0.27634 0.85959 0.30013 0.0
C1041 C 0.25309 0.8563 0.30664 0.0
H1042 H 0.18514 0.52602 0.31977 0.0
H1043 H 0.10313 0.47757 0.29975 0.0
H1044 H 0.18639 0.48885 0.33124 0.0
H1045 H 0.10435 0.44011 0.31135 0.0
H1046 H 0.1282 0.37701 0.31266 0.0
H1047 H 0.12324 0.41298 0.30286 0.0
H1048 H 0.17049 0.4593 0.35703 0.0
H1049 H 0.17594 0.42356 0.36668 0.0
C1050 C 0.16729 0.50744 0.31805 0.0
C1051 C 0.14399 0.50472 0.30898 0.0
C1052 C 0.16799 0.48614 0.32466 0.0
C1053 C 0.14542 0.46159 0.32237 0.0
C1054 C 0.1221 0.45878 0.31319 0.0
C1055 C 0.1214 0.48016 0.30654 0.0
C1056 C 0.13736 0.39478 0.32259 0.0
C1057 C 0.15267 0.39748 0.34038 0.0
C1058 C 0.13439 0.41535 0.317 0.0
C1059 C 0.14663 0.43903 0.3291 0.0
C1060 C 0.16118 0.44142 0.34722 0.0
C1061 C 0.16421 0.42089 0.3528 0.0
H1062 H 0.32135 0.50458 0.28697 0.0
H1063 H 0.37587 0.50368 0.33197 0.0
H1064 H 0.28669 0.4642 0.29675 0.0
H1065 H 0.34095 0.46273 0.34183 0.0
H1066 H 0.26018 0.41212 0.36883 0.0
H1067 H 0.29977 0.44836 0.35857 0.0
H1068 H 0.27229 0.41836 0.29659 0.0
H1069 H 0.23299 0.38268 0.30669 0.0
C1070 C 0.32597 0.49542 0.29876 0.0
C1071 C 0.35127 0.50721 0.30869 0.0
C1072 C 0.30614 0.47221 0.30434 0.0
C1073 C 0.31101 0.46019 0.3201 0.0
C1074 C 0.33654 0.4716 0.32973 0.0
C1075 C 0.35656 0.49484 0.32395 0.0
C1076 C 0.26282 0.4131 0.35305 0.0
C1077 C 0.24317 0.39473 0.33859 0.0
C1078 C 0.28554 0.4338 0.34717 0.0
C1079 C 0.28902 0.43646 0.32673 0.0
C1080 C 0.27001 0.41723 0.31243 0.0
C1081 C 0.24743 0.39671 0.31826 0.0
H1082 H 0.49033 0.81114 0.28034 0.0
H1083 H 0.50531 0.8748 0.32288 0.0
H1084 H 0.53281 0.81681 0.29105 0.0
H1085 H 0.54853 0.88103 0.33344 0.0
H1086 H 0.60495 0.8564 0.36441 0.0
H1087 H 0.5664 0.85827 0.35213 0.0
H1088 H 0.57891 0.84415 0.29127 0.0
H1089 H 0.61691 0.84171 0.30348 0.0
C1090 C 0.50295 0.82666 0.2918 0.0
C1091 C 0.49439 0.84242 0.30084 0.0
C1092 C 0.52746 0.83006 0.29787 0.0
C1093 C 0.54419 0.84934 0.31319 0.0
C1094 C 0.53604 0.8658 0.32176 0.0
C1095 C 0.51143 0.86246 0.31556 0.0
C1096 C 0.59963 0.85395 0.3484 0.0
C1097 C 0.61393 0.84859 0.33498 0.0
C1098 C 0.57758 0.85518 0.34134 0.0
C1099 C 0.56932 0.85112 0.32069 0.0
C1100 C 0.58433 0.84687 0.30728 0.0
C1101 C 0.60625 0.84556 0.31432 0.0
H1102 H 0.17459 0.66573 0.30506 0.0
H1103 H 0.16386 0.65608 0.36744 0.0
H1104 H 0.16678 0.70196 0.30761 0.0
H1105 H 0.15424 0.69123 0.36994 0.0
H1106 H 0.17873 0.77723 0.37404 0.0
H1107 H 0.17709 0.73587 0.37176 0.0
H1108 H 0.13932 0.71848 0.3112 0.0
H1109 H 0.14261 0.76075 0.3132 0.0
C1110 C 0.16981 0.67103 0.31918 0.0
C1111 C 0.16998 0.65845 0.33609 0.0
C1112 C 0.16514 0.69167 0.32068 0.0
C1113 C 0.16004 0.6998 0.33906 0.0
C1114 C 0.15875 0.68603 0.35568 0.0
C1115 C 0.16401 0.66577 0.35426 0.0
C1116 C 0.16977 0.76439 0.36035 0.0
C1117 C 0.16105 0.77226 0.34373 0.0
C1118 C 0.16864 0.74052 0.35905 0.0
C1119 C 0.15826 0.72374 0.34121 0.0
C1120 C 0.14809 0.7311 0.32499 0.0
C1121 C 0.14977 0.75524 0.32616 0.0
H1122 H 0.87112 0.99654 0.41193 0.0
H1123 H 0.84666 0.04316 0.38062 0.0
H1124 H 0.82704 0.95959 0.40568 0.0
H1125 H 0.80217 0.00615 0.37468 0.0
H1126 H 0.73929 0.9236 0.34471 0.0
H1127 H 0.78029 0.96398 0.35387 0.0
H1128 H 0.78243 0.9431 0.41413 0.0
H1129 H 0.74165 0.9026 0.40498 0.0
C1130 C 0.85622 0.99892 0.40384 0.0
C1131 C 0.86239 0.02269 0.39663 0.0
C1132 C 0.83089 0.97782 0.40043 0.0
C1133 C 0.81108 0.9799 0.38965 0.0
C1134 C 0.81706 0.00388 0.38288 0.0
C1135 C 0.84245 0.02511 0.38643 0.0
C1136 C 0.74832 0.92773 0.35998 0.0
C1137 C 0.73726 0.9097 0.37405 0.0
C1138 C 0.77177 0.95097 0.36526 0.0
C1139 C 0.78473 0.95668 0.38469 0.0
C1140 C 0.77313 0.93911 0.39896 0.0
C1141 C 0.74966 0.91593 0.39371 0.0
H1142 H 0.99648 0.81314 0.42116 0.0
H1143 H 0.99126 0.84603 0.3668 0.0
H1144 H 0.03261 0.80877 0.40964 0.0
H1145 H 0.02719 0.84193 0.35534 0.0
H1146 H 0.08333 0.81843 0.33375 0.0
H1147 H 0.04241 0.81274 0.34425 0.0
H1148 H 0.07841 0.83976 0.4051 0.0
H1149 H 0.11918 0.84517 0.39473 0.0
C1150 C 1.00266 0.81884 0.40656 0.0
C1151 C 0.99111 0.82994 0.39488 0.0
C1152 C 0.02351 0.81662 0.40004 0.0
C1153 C 0.03298 0.82517 0.3816 0.0
C1154 C 0.02035 0.83492 0.36951 0.0
C1155 C 0.99979 0.83737 0.3761 0.0
C1156 C 0.08249 0.82293 0.34941 0.0
C1157 C 0.10473 0.83249 0.36332 0.0
C1158 C 0.059 0.81974 0.35542 0.0
C1159 C 0.05706 0.82586 0.37553 0.0
C1160 C 0.07904 0.83456 0.38955 0.0
C1161 C 0.10255 0.83789 0.38353 0.0
H1162 H 0.1816 0.16935 0.41084 0.0
H1163 H 0.13017 0.13834 0.35571 0.0
H1164 H 0.19361 0.21308 0.40341 0.0
H1165 H 0.14137 0.18196 0.34869 0.0
H1166 H 0.18042 0.26446 0.33369 0.0
H1167 H 0.17683 0.22313 0.34009 0.0
H1168 H 0.1716 0.23805 0.40273 0.0
H1169 H 0.17572 0.27937 0.39652 0.0
C1170 C 0.17298 0.17189 0.39709 0.0
C1171 C 0.15481 0.1504 0.38392 0.0
C1172 C 0.17971 0.19691 0.39291 0.0
C1173 C 0.16841 0.20096 0.37549 0.0
C1174 C 0.15065 0.1795 0.36212 0.0
C1175 C 0.14392 0.15449 0.36629 0.0
C1176 C 0.17894 0.2591 0.34888 0.0
C1177 C 0.17812 0.27511 0.36455 0.0
C1178 C 0.17671 0.23536 0.35251 0.0
C1179 C 0.17371 0.22725 0.37188 0.0
C1180 C 0.17411 0.24382 0.38768 0.0
C1181 C 0.17631 0.26747 0.38406 0.0
H1182 H 0.61845 0.51125 0.7054 0.0
H1183 H 0.66015 0.53199 0.76448 0.0
H1184 H 0.65627 0.5466 0.69273 0.0
H1185 H 0.69831 0.5664 0.75187 0.0
H1186 H 0.75869 0.63811 0.72952 0.0
H1187 H 0.71737 0.6068 0.74046 0.0
H1188 H 0.69823 0.55943 0.68417 0.0
H1189 H 0.73919 0.59183 0.67286 0.0
C1190 C 0.63575 0.52345 0.71566 0.0
C1191 C 0.63633 0.51902 0.73594 0.0
C1192 C 0.65753 0.5436 0.70839 0.0
C1193 C 0.68056 0.55954 0.7212 0.0
C1194 C 0.68088 0.55509 0.74156 0.0
C1195 C 0.659 0.53525 0.74885 0.0
C1196 C 0.74546 0.62114 0.71939 0.0
C1197 C 0.75218 0.61733 0.70038 0.0
C1198 C 0.72181 0.603 0.72573 0.0
C1199 C 0.70445 0.58017 0.71342 0.0
C1200 C 0.71086 0.57682 0.69406 0.0
C1201 C 0.73439 0.59533 0.68755 0.0
H1202 H 0.47177 0.08807 0.74956 0.0
H1203 H 0.52498 0.16392 0.73237 0.0
H1204 H 0.435 0.09228 0.73634 0.0
H1205 H 0.48811 0.16707 0.71809 0.0
H1206 H 0.4125 0.14754 0.67688 0.0
H1207 H 0.44855 0.14123 0.68892 0.0
H1208 H 0.41855 0.12546 0.74635 0.0
H1209 H 0.3829 0.13241 0.73457 0.0
C1210 C 0.47579 0.10562 0.74299 0.0
C1211 C 0.50166 0.12566 0.7422 0.0
C1212 C 0.45462 0.10789 0.73529 0.0
C1213 C 0.45871 0.12996 0.72616 0.0
C1214 C 0.4844 0.1497 0.72485 0.0
C1215 C 0.50557 0.14773 0.73294 0.0
C1216 C 0.41349 0.14255 0.69203 0.0
C1217 C 0.39482 0.14048 0.70477 0.0
C1218 C 0.43418 0.13907 0.69893 0.0
C1219 C 0.43631 0.13283 0.71856 0.0
C1220 C 0.4173 0.1301 0.73112 0.0
C1221 C 0.39696 0.13418 0.72439 0.0
H1222 H 0.90844 0.39074 0.73624 0.0
H1223 H 0.82423 0.34769 0.73133 0.0
H1224 H 0.9084 0.35256 0.7213 0.0
H1225 H 0.82425 0.3099 0.7162 0.0
H1226 H 0.83167 0.25354 0.67387 0.0
H1227 H 0.8353 0.29461 0.68536 0.0
H1228 H 0.89651 0.30872 0.73114 0.0
H1229 H 0.89316 0.26778 0.71958 0.0
C1230 C 0.88995 0.37317 0.73198 0.0
C1231 C 0.86634 0.37228 0.73493 0.0
C1232 C 0.88994 0.35137 0.72339 0.0
C1233 C 0.86632 0.32833 0.71749 0.0
C1234 C 0.84274 0.32754 0.72024 0.0
C1235 C 0.84275 0.34922 0.7289 0.0
C1236 C 0.84611 0.2655 0.68625 0.0
C1237 C 0.86198 0.25727 0.69592 0.0
C1238 C 0.84809 0.28896 0.69287 0.0
C1239 C 0.86604 0.30474 0.70924 0.0
C1240 C 0.88262 0.29703 0.7184 0.0
C1241 C 0.88058 0.2735 0.71184 0.0
H1242 H 0.19643 0.94452 0.63146 0.0
H1243 H 0.14467 0.97426 0.64171 0.0
H1244 H 0.2336 0.98631 0.64492 0.0
H1245 H 0.18182 0.01536 0.65618 0.0
H1246 H 0.25653 0.07757 0.69702 0.0
H1247 H 0.21983 0.03381 0.68678 0.0
H1248 H 0.25212 0.03271 0.63135 0.0
H1249 H 0.2884 0.07652 0.64128 0.0
C1250 C 0.19285 0.95979 0.63665 0.0
C1251 C 0.16736 0.95586 0.63526 0.0
C1252 C 0.21418 0.98366 0.64449 0.0
C1253 C 0.21053 0.004 0.65155 0.0
C1254 C 0.18511 0.99988 0.65101 0.0
C1255 C 0.1638 0.97619 0.6428 0.0
C1256 C 0.25587 0.06789 0.68273 0.0
C1257 C 0.2753 0.08048 0.66993 0.0
C1258 C 0.23485 0.04295 0.67686 0.0
C1259 C 0.23324 0.02993 0.65832 0.0
C1260 C 0.25302 0.04226 0.64578 0.0
C1261 C 0.27368 0.06736 0.65143 0.0
H1262 H 0.05408 0.22018 0.65717 0.0
H1263 H 0.01884 0.21329 0.59732 0.0
H1264 H 0.01545 0.21638 0.67087 0.0
H1265 H 0.98007 0.20904 0.6109 0.0
H1266 H 0.92177 0.22301 0.64124 0.0
H1267 H 0.96225 0.23045 0.6289 0.0
H1268 H 0.97114 0.18605 0.6741 0.0
H1269 H 0.93097 0.17928 0.68684 0.0
C1270 C 0.03806 0.21782 0.64692 0.0
C1271 C 0.03967 0.2171 0.62612 0.0
C1272 C 0.0158 0.21552 0.65478 0.0
C1273 C 0.99439 0.21228 0.64207 0.0
C1274 C 0.99621 0.21194 0.62126 0.0
C1275 C 0.01853 0.21439 0.61342 0.0
C1276 C 0.93241 0.21495 0.64868 0.0
C1277 C 0.92298 0.20053 0.6651 0.0
C1278 C 0.95563 0.21907 0.64147 0.0
C1279 C 0.97012 0.20878 0.65036 0.0
C1280 C 0.96084 0.19463 0.66697 0.0
C1281 C 0.93765 0.19062 0.67426 0.0
H1282 H 0.84699 0.85648 0.65609 0.0
H1283 H 0.76407 0.80982 0.63818 0.0
H1284 H 0.84659 0.81968 0.66994 0.0
H1285 H 0.76421 0.77258 0.65124 0.0
H1286 H 0.79457 0.71231 0.64686 0.0
H1287 H 0.78827 0.74819 0.63897 0.0
H1288 H 0.82515 0.78754 0.69762 0.0
H1289 H 0.83111 0.75121 0.70575 0.0
C1290 C 0.82856 0.83857 0.6554 0.0
C1291 C 0.80553 0.83621 0.64598 0.0
C1292 C 0.82841 0.81748 0.66333 0.0
C1293 C 0.80537 0.79343 0.6617 0.0
C1294 C 0.78223 0.791 0.65262 0.0
C1295 C 0.78225 0.81225 0.64499 0.0
C1296 C 0.80105 0.72847 0.65817 0.0
C1297 C 0.81352 0.72915 0.67686 0.0
C1298 C 0.79723 0.74885 0.65371 0.0
C1299 C 0.80623 0.77052 0.6677 0.0
C1300 C 0.81808 0.77096 0.68661 0.0
C1301 C 0.82142 0.75024 0.69126 0.0
H1302 H 0.97964 0.82756 0.6135 0.0
H1303 H 0.03337 0.83398 0.66276 0.0
H1304 H 0.94572 0.78719 0.62432 0.0
H1305 H 0.99923 0.79356 0.67384 0.0
H1306 H 0.8958 0.70552 0.64094 0.0
H1307 H 0.93428 0.74094 0.62915 0.0
H1308 H 0.9561 0.78233 0.68815 0.0
H1309 H 0.91745 0.74705 0.7 0.0
C1310 C 0.98426 0.82002 0.62646 0.0
C1311 C 0.00907 0.83378 0.63729 0.0
C1312 C 0.96491 0.7969 0.63262 0.0
C1313 C 0.9698 0.78726 0.64997 0.0
C1314 C 0.9949 0.80062 0.66047 0.0
C1315 C 0.01445 0.82357 0.65407 0.0
C1316 C 0.90893 0.72199 0.65151 0.0
C1317 C 0.90338 0.7235 0.67141 0.0
C1318 C 0.93095 0.74231 0.6447 0.0
C1319 C 0.94815 0.76443 0.6577 0.0
C1320 C 0.94331 0.76543 0.67783 0.0
C1321 C 0.92107 0.74527 0.68457 0.0
H1322 H 0.17689 0.2105 0.64757 0.0
H1323 H 0.14826 0.1343 0.61734 0.0
H1324 H 0.21933 0.21377 0.65641 0.0
H1325 H 0.19002 0.13734 0.62681 0.0
H1326 H 0.247 0.14138 0.68217 0.0
H1327 H 0.20964 0.14474 0.66934 0.0
H1328 H 0.25842 0.20508 0.63387 0.0
H1329 H 0.29621 0.20142 0.64638 0.0
C1330 C 0.17977 0.19474 0.64242 0.0
C1331 C 0.15897 0.17195 0.63205 0.0
C1332 C 0.20401 0.19661 0.64754 0.0
C1333 C 0.20774 0.17568 0.64243 0.0
C1334 C 0.18754 0.15364 0.63104 0.0
C1335 C 0.16359 0.1519 0.62574 0.0
C1336 C 0.24996 0.15552 0.67174 0.0
C1337 C 0.27467 0.17114 0.66532 0.0
C1338 C 0.22851 0.15738 0.66438 0.0
C1339 C 0.23123 0.17521 0.6507 0.0
C1340 C 0.25593 0.19129 0.64451 0.0
C1341 C 0.27745 0.18909 0.65161 0.0
H1342 H 0.82996 0.98844 0.62866 0.0
H1343 H 0.86938 0.01027 0.68872 0.0
H1344 H 0.82055 0.02372 0.63249 0.0
H1345 H 0.86071 0.04586 0.69233 0.0
H1346 H 0.82477 0.09557 0.69958 0.0
H1347 H 0.82537 0.05528 0.69489 0.0
H1348 H 0.84648 0.0713 0.63488 0.0
H1349 H 0.84545 0.11139 0.63937 0.0
C1350 C 0.83641 0.00065 0.64272 0.0
C1351 C 0.85055 0.99674 0.65835 0.0
C1352 C 0.83121 0.02093 0.64485 0.0
C1353 C 0.83991 0.03756 0.66269 0.0
C1354 C 0.85348 0.03321 0.67848 0.0
C1355 C 0.85874 0.01303 0.67632 0.0
C1356 C 0.82921 0.09037 0.68529 0.0
C1357 C 0.83534 0.10684 0.66992 0.0
C1358 C 0.82966 0.06733 0.68265 0.0
C1359 C 0.83624 0.06028 0.6646 0.0
C1360 C 0.84115 0.07612 0.6489 0.0
C1361 C 0.8407 0.09917 0.65153 0.0
H1362 H 0.51003 0.35553 0.74819 0.0
H1363 H 0.51392 0.35494 0.68437 0.0
H1364 H 0.46768 0.31523 0.7429 0.0
H1365 H 0.47152 0.31546 0.67894 0.0
H1366 H 0.42282 0.22885 0.67834 0.0
H1367 H 0.45997 0.272 0.68487 0.0
H1368 H 0.42088 0.29125 0.72883 0.0
H1369 H 0.38319 0.24717 0.72249 0.0
C1370 C 0.50142 0.34713 0.73304 0.0
C1371 C 0.51522 0.35803 0.71668 0.0
C1372 C 0.47721 0.32412 0.72999 0.0
C1373 C 0.46647 0.31183 0.71051 0.0
C1374 C 0.47954 0.32402 0.69416 0.0
C1375 C 0.50372 0.34671 0.69722 0.0
C1376 C 0.4219 0.24214 0.68939 0.0
C1377 C 0.39983 0.23449 0.69978 0.0
C1378 C 0.44325 0.26709 0.69303 0.0
C1379 C 0.44327 0.2853 0.70711 0.0
C1380 C 0.42143 0.27767 0.71784 0.0
C1381 C 0.39985 0.25247 0.71417 0.0
H1382 H 0.66251 0.14207 0.75379 0.0
H1383 H 0.65637 0.17184 0.69802 0.0
H1384 H 0.69949 0.13851 0.74326 0.0
H1385 H 0.69324 0.16875 0.68759 0.0
H1386 H 0.75292 0.14901 0.66838 0.0
H1387 H 0.71102 0.14189 0.67775 0.0
H1388 H 0.7447 0.16954 0.73909 0.0
H1389 H 0.78632 0.17623 0.72985 0.0
C1390 C 0.66865 0.14721 0.73909 0.0
C1391 C 0.65659 0.15723 0.72673 0.0
C1392 C 0.69002 0.1455 0.73313 0.0
C1393 C 0.69961 0.15358 0.71462 0.0
C1394 C 0.6864 0.16212 0.70184 0.0
C1395 C 0.66526 0.16398 0.70784 0.0
C1396 C 0.75136 0.15336 0.6839 0.0
C1397 C 0.77318 0.1634 0.69829 0.0
C1398 C 0.7273 0.14935 0.68928 0.0
C1399 C 0.72437 0.15518 0.7092 0.0
C1400 C 0.74601 0.16447 0.72367 0.0
C1401 C 0.77005 0.16855 0.7183 0.0
H1402 H 0.83469 0.50187 0.75217 0.0
H1403 H 0.80335 0.46857 0.69136 0.0
H1404 H 0.84202 0.54381 0.74307 0.0
H1405 H 0.81186 0.51052 0.68184 0.0
H1406 H 0.79651 0.57676 0.67754 0.0
H1407 H 0.79374 0.53689 0.68617 0.0
H1408 H 0.86559 0.58042 0.72537 0.0
H1409 H 0.86767 0.62067 0.71732 0.0
C1410 C 0.8298 0.50375 0.73679 0.0
C1411 C 0.81814 0.48211 0.72249 0.0
C1412 C 0.83414 0.52774 0.73151 0.0
C1413 C 0.82725 0.53055 0.71175 0.0
C1414 C 0.81673 0.50898 0.69731 0.0
C1415 C 0.81197 0.48498 0.70268 0.0
C1416 C 0.81188 0.57792 0.68787 0.0
C1417 C 0.83238 0.60191 0.69668 0.0
C1418 C 0.81038 0.55496 0.69275 0.0
C1419 C 0.82957 0.55532 0.70635 0.0
C1420 C 0.85031 0.57938 0.71501 0.0
C1421 C 0.85162 0.60246 0.71031 0.0
H1422 H 0.39904 0.90577 0.23051 0.0
H1423 H 0.47769 0.92692 0.25237 0.0
H1424 H 0.41494 0.92952 0.2016 0.0
H1425 H 0.4935 0.94967 0.2228 0.0
H1426 H 0.5161 0.00892 0.1766 0.0
H1427 H 0.50072 0.98714 0.20659 0.0
H1428 H 0.43184 0.92641 0.1711 0.0
H1429 H 0.44655 0.9488 0.14136 0.0
C1430 C 0.41979 0.91566 0.22927 0.0
C1431 C 0.43706 0.91449 0.24395 0.0
C1432 C 0.42888 0.92898 0.21245 0.0
C1433 C 0.45552 0.94144 0.20969 0.0
C1434 C 0.47288 0.94053 0.22446 0.0
C1435 C 0.46377 0.92723 0.24135 0.0
C1436 C 0.49751 0.99108 0.17521 0.0
C1437 C 0.48258 0.98072 0.15647 0.0
C1438 C 0.48884 0.97839 0.19242 0.0
C1439 C 0.46498 0.95497 0.19137 0.0
C1440 C 0.45013 0.94457 0.1726 0.0
C1441 C 0.45877 0.95727 0.15543 0.0
H1442 H 0.10425 0.57154 0.26509 0.0
H1443 H 0.13258 0.5226 0.24168 0.0
H1444 H 0.08232 0.56763 0.232 0.0
H1445 H 0.10979 0.51774 0.20899 0.0
H1446 H 0.08495 0.53055 0.14826 0.0
H1447 H 0.11016 0.54058 0.18074 0.0
H1448 H 0.04522 0.53527 0.20981 0.0
H1449 H 0.02044 0.52654 0.17722 0.0
C1450 C 0.1059 0.56006 0.25287 0.0
C1451 C 0.12003 0.54725 0.25606 0.0
C1452 C 0.09311 0.55759 0.23397 0.0
C1453 C 0.09421 0.5423 0.21783 0.0
C1454 C 0.10875 0.5299 0.22098 0.0
C1455 C 0.12154 0.5324 0.23983 0.0
C1456 C 0.0762 0.53203 0.16153 0.0
C1457 C 0.0506 0.52765 0.16009 0.0
C1458 C 0.09056 0.53745 0.1802 0.0
C1459 C 0.07966 0.53853 0.19792 0.0
C1460 C 0.05431 0.5348 0.19648 0.0
C1461 C 0.03997 0.52946 0.17779 0.0
H1462 H 0.50698 0.55841 0.26018 0.0
H1463 H 0.43853 0.55499 0.23069 0.0
H1464 H 0.51659 0.54551 0.2282 0.0
H1465 H 0.44789 0.54167 0.1987 0.0
H1466 H 0.4963 0.55713 0.14426 0.0
H1467 H 0.48209 0.56391 0.17605 0.0
H1468 H 0.50109 0.5098 0.20115 0.0
H1469 H 0.51488 0.50255 0.16922 0.0
C1470 C 0.49377 0.5545 0.24689 0.0
C1471 C 0.47205 0.55778 0.24794 0.0
C1472 C 0.49919 0.54698 0.22859 0.0
C1473 C 0.48311 0.54276 0.21087 0.0
C1474 C 0.46082 0.54508 0.21205 0.0
C1475 C 0.45529 0.5524 0.2304 0.0
C1476 C 0.4971 0.54633 0.15642 0.0
C1477 C 0.50685 0.52932 0.1541 0.0
C1478 C 0.48892 0.55023 0.17468 0.0
C1479 C 0.49042 0.53737 0.19115 0.0
C1480 C 0.49996 0.52022 0.18883 0.0
C1481 C 0.50798 0.51617 0.17052 0.0
H1482 H 0.87013 0.44259 0.80713 0.0
H1483 H 0.93521 0.44931 0.77753 0.0
H1484 H 0.898 0.46024 0.83877 0.0
H1485 H 0.96326 0.46733 0.80911 0.0
H1486 H 0.99161 0.46033 0.87252 0.0
H1487 H 0.96701 0.44978 0.83974 0.0
H1488 H 0.93481 0.49745 0.8579 0.0
H1489 H 0.95941 0.50788 0.89089 0.0
C1490 C 0.89056 0.44843 0.80731 0.0
C1491 C 0.90046 0.44439 0.78992 0.0
C1492 C 0.90655 0.45856 0.82544 0.0
C1493 C 0.93281 0.46494 0.82652 0.0
C1494 C 0.94299 0.4621 0.80887 0.0
C1495 C 0.92697 0.45187 0.79079 0.0
C1496 C 0.97961 0.46889 0.86943 0.0
C1497 C 0.97745 0.48492 0.88431 0.0
C1498 C 0.96553 0.46289 0.85061 0.0
C1499 C 0.94898 0.47282 0.84616 0.0
C1500 C 0.94714 0.48923 0.86093 0.0
C1501 C 0.96121 0.49519 0.87981 0.0
H1502 H 0.57721 0.44951 0.80137 0.0
H1503 H 0.57022 0.51279 0.78023 0.0
H1504 H 0.56115 0.45472 0.83283 0.0
H1505 H 0.55451 0.51826 0.81183 0.0
H1506 H 0.49962 0.49941 0.86178 0.0
H1507 H 0.51543 0.4942 0.83028 0.0
H1508 H 0.5762 0.48713 0.86279 0.0
H1509 H 0.56087 0.49294 0.89435 0.0
C1510 C 0.57212 0.46445 0.80342 0.0
C1511 C 0.5749 0.4807 0.78831 0.0
C1512 C 0.56317 0.4676 0.8215 0.0
C1513 C 0.55658 0.48691 0.82482 0.0
C1514 C 0.55922 0.50307 0.80966 0.0
C1515 C 0.56841 0.50008 0.79164 0.0
C1516 C 0.51655 0.49706 0.86227 0.0
C1517 C 0.52894 0.49663 0.88069 0.0
C1518 C 0.52556 0.49401 0.84419 0.0
C1519 C 0.54705 0.49023 0.84404 0.0
C1520 C 0.55938 0.48965 0.8624 0.0
C1521 C 0.55051 0.49291 0.88049 0.0
H1522 H 0.52184 0.11848 0.81124 0.0
H1523 H 0.55995 0.07776 0.79024 0.0
H1524 H 0.51471 0.0973 0.84203 0.0
H1525 H 0.55303 0.0566 0.82131 0.0
H1526 H 0.50415 0.00109 0.86762 0.0
H1527 H 0.51521 0.02375 0.83756 0.0
H1528 H 0.53878 0.09577 0.87281 0.0
H1529 H 0.52836 0.07335 0.90299 0.0
C1530 C 0.52875 0.10501 0.81324 0.0
C1531 C 0.54126 0.09963 0.79821 0.0
C1532 C 0.52487 0.09303 0.83098 0.0
C1533 C 0.53323 0.07518 0.83416 0.0
C1534 C 0.54612 0.07007 0.81926 0.0
C1535 C 0.55028 0.08232 0.80154 0.0
C1536 C 0.51207 0.02183 0.8691 0.0
C1537 C 0.51522 0.03527 0.88788 0.0
C1538 C 0.5184 0.03482 0.85179 0.0
C1539 C 0.52785 0.06158 0.85274 0.0
C1540 C 0.53122 0.07509 0.87149 0.0
C1541 C 0.5251 0.06215 0.88882 0.0
H1542 H 0.10354 0.21253 0.55756 0.0
H1543 H 0.10656 0.28033 0.58628 0.0
H1544 H 0.1192 0.23496 0.52792 0.0
H1545 H 0.12275 0.30307 0.55679 0.0
H1546 H 0.12568 0.32731 0.49322 0.0
H1547 H 0.11023 0.30504 0.523 0.0
H1548 H 0.15606 0.2681 0.51501 0.0
H1549 H 0.17103 0.29001 0.48502 0.0
C1550 C 0.1079 0.23238 0.55766 0.0
C1551 C 0.10383 0.24463 0.57435 0.0
C1552 C 0.11694 0.24531 0.54063 0.0
C1553 C 0.12233 0.27094 0.53983 0.0
C1554 C 0.11841 0.28323 0.55662 0.0
C1555 C 0.1092 0.27022 0.57361 0.0
C1556 C 0.13258 0.31455 0.4979 0.0
C1557 C 0.14958 0.31045 0.48667 0.0
C1558 C 0.12376 0.30179 0.51504 0.0
C1559 C 0.13184 0.28468 0.52155 0.0
C1560 C 0.14898 0.28072 0.51034 0.0
C1561 C 0.15764 0.29334 0.49312 0.0
H1562 H 0.74218 0.83751 0.59725 0.0
H1563 H 0.80728 0.90427 0.57703 0.0
H1564 H 0.71724 0.82932 0.56475 0.0
H1565 H 0.78198 0.89642 0.54482 0.0
H1566 H 0.71783 0.88789 0.49741 0.0
H1567 H 0.74156 0.89645 0.5306 0.0
H1568 H 0.72023 0.81607 0.52904 0.0
H1569 H 0.69634 0.80747 0.49592 0.0
C1570 C 0.75122 0.85041 0.5859 0.0
C1571 C 0.77681 0.87154 0.58981 0.0
C1572 C 0.73689 0.84574 0.56731 0.0
C1573 C 0.74768 0.86222 0.55228 0.0
C1574 C 0.77305 0.88357 0.55623 0.0
C1575 C 0.7875 0.8881 0.57474 0.0
C1576 C 0.71807 0.87204 0.50424 0.0
C1577 C 0.70526 0.84702 0.4941 0.0
C1578 C 0.7318 0.87697 0.52314 0.0
C1579 C 0.73274 0.85693 0.53238 0.0
C1580 C 0.71966 0.83185 0.52234 0.0
C1581 C 0.70619 0.82697 0.50334 0.0
H1582 H 0.10146 0.88886 0.55982 0.0
H1583 H 0.16224 0.88137 0.59173 0.0
H1584 H 0.11268 0.87736 0.52812 0.0
H1585 H 0.17286 0.86869 0.56018 0.0
H1586 H 0.20898 0.88435 0.50113 0.0
H1587 H 0.19399 0.88889 0.53293 0.0
H1588 H 0.11425 0.84676 0.50561 0.0
H1589 H 0.12952 0.84386 0.47332 0.0
C1590 C 0.11676 0.88403 0.56005 0.0
C1591 C 0.13108 0.88612 0.57819 0.0
C1592 C 0.12321 0.87736 0.54187 0.0
C1593 C 0.14394 0.87234 0.54144 0.0
C1594 C 0.15725 0.87306 0.55979 0.0
C1595 C 0.15105 0.8801 0.57791 0.0
C1596 C 0.18825 0.87622 0.5018 0.0
C1597 C 0.17054 0.86405 0.4845 0.0
C1598 C 0.17955 0.87843 0.52021 0.0
C1599 C 0.15282 0.86821 0.52199 0.0
C1600 C 0.135 0.85523 0.50483 0.0
C1601 C 0.14375 0.85324 0.48631 0.0
H1602 H 0.61157 0.7831 0.10896 0.0
H1603 H 0.54446 0.77703 0.1349 0.0
H1604 H 0.63711 0.79951 0.14168 0.0
H1605 H 0.56972 0.79293 0.16767 0.0
H1606 H 0.62743 0.83972 0.2218 0.0
H1607 H 0.60492 0.82919 0.18804 0.0
H1608 H 0.63905 0.78233 0.17271 0.0
H1609 H 0.66182 0.79324 0.20633 0.0
C1610 C 0.60235 0.78541 0.12167 0.0
C1611 C 0.57603 0.77874 0.1194 0.0
C1612 C 0.61691 0.79468 0.14042 0.0
C1613 C 0.60541 0.79731 0.15736 0.0
C1614 C 0.57931 0.79146 0.15492 0.0
C1615 C 0.56481 0.78234 0.13614 0.0
C1616 C 0.63005 0.82713 0.2112 0.0
C1617 C 0.64633 0.81724 0.21672 0.0
C1618 C 0.61715 0.82109 0.19186 0.0
C1619 C 0.62015 0.80491 0.17763 0.0
C1620 C 0.63665 0.79524 0.18315 0.0
C1621 C 0.64966 0.8014 0.20244 0.0
H1622 H 0.2113 0.78494 0.11298 0.0
H1623 H 0.28695 0.84764 0.13786 0.0
H1624 H 0.19251 0.79043 0.14261 0.0
H1625 H 0.26784 0.85412 0.16704 0.0
H1626 H 0.23181 0.83811 0.22638 0.0
H1627 H 0.25065 0.83394 0.19634 0.0
H1628 H 0.18048 0.81767 0.16013 0.0
H1629 H 0.16104 0.82029 0.19027 0.0
C1630 C 0.22392 0.80003 0.12472 0.0
C1631 C 0.25071 0.81572 0.12304 0.0
C1632 C 0.21305 0.8034 0.14164 0.0
C1633 C 0.22862 0.82269 0.15732 0.0
C1634 C 0.2553 0.83881 0.15542 0.0
C1635 C 0.26622 0.83534 0.13852 0.0
C1636 C 0.22023 0.8333 0.21205 0.0
C1637 C 0.1948 0.8294 0.21084 0.0
C1638 C 0.23122 0.83131 0.19474 0.0
C1639 C 0.21715 0.82551 0.17573 0.0
C1640 C 0.19181 0.82185 0.17451 0.0
C1641 C 0.18076 0.82369 0.19182 0.0
H1642 H 0.17521 0.38617 0.11222 0.0
H1643 H 0.24197 0.45391 0.14362 0.0
H1644 H 0.16689 0.36494 0.14308 0.0
H1645 H 0.23396 0.43251 0.17445 0.0
H1646 H 0.18814 0.39946 0.22908 0.0
H1647 H 0.2005 0.41967 0.19809 0.0
H1648 H 0.18395 0.34681 0.16788 0.0
H1649 H 0.172 0.32661 0.19894 0.0
C1650 C 0.18833 0.39638 0.12567 0.0
C1651 C 0.20922 0.42175 0.12546 0.0
C1652 C 0.18365 0.38416 0.14334 0.0
C1653 C 0.19964 0.39708 0.1613 0.0
C1654 C 0.22108 0.42213 0.16094 0.0
C1655 C 0.22587 0.43428 0.14321 0.0
C1656 C 0.18747 0.38777 0.21594 0.0
C1657 C 0.17896 0.3613 0.21662 0.0
C1658 C 0.19458 0.3994 0.19813 0.0
C1659 C 0.19324 0.38489 0.18047 0.0
C1660 C 0.1849 0.35849 0.18114 0.0
C1661 C 0.17794 0.34688 0.19897 0.0
H1662 H 0.81343 0.58957 0.91797 0.0
H1663 H 0.73476 0.56825 0.89589 0.0
H1664 H 0.8292 0.61147 0.88805 0.0
H1665 H 0.75068 0.59062 0.86628 0.0
H1666 H 0.79288 0.65642 0.82653 0.0
H1667 H 0.77771 0.63497 0.85673 0.0
H1668 H 0.82635 0.60081 0.85128 0.0
H1669 H 0.84189 0.62266 0.82119 0.0
C1670 C 0.79946 0.58945 0.90675 0.0
C1671 C 0.77277 0.57711 0.90948 0.0
C1672 C 0.80853 0.60204 0.88959 0.0
C1673 C 0.79122 0.60282 0.87476 0.0
C1674 C 0.76461 0.59071 0.87753 0.0
C1675 C 0.75549 0.57795 0.89461 0.0
C1676 C 0.8005 0.64449 0.83185 0.0
C1677 C 0.81867 0.64132 0.82146 0.0
C1678 C 0.79161 0.632 0.84906 0.0
C1679 C 0.8008 0.61616 0.85644 0.0
C1680 C 0.81905 0.61306 0.8461 0.0
C1681 C 0.82777 0.62537 0.82876 0.0
H1682 H 0.43621 0.23644 0.92638 0.0
H1683 H 0.45167 0.17677 0.90441 0.0
H1684 H 0.4137 0.23303 0.89363 0.0
H1685 H 0.42844 0.17269 0.8721 0.0
H1686 H 0.40852 0.18845 0.81083 0.0
H1687 H 0.43327 0.19655 0.84327 0.0
H1688 H 0.37359 0.20269 0.87229 0.0
H1689 H 0.34928 0.19567 0.83968 0.0
C1690 C 0.43481 0.22262 0.91457 0.0
C1691 C 0.44564 0.20681 0.91802 0.0
C1692 C 0.42173 0.2205 0.89588 0.0
C1693 C 0.41933 0.20263 0.88024 0.0
C1694 C 0.43023 0.1869 0.88372 0.0
C1695 C 0.44324 0.18899 0.90235 0.0
C1696 C 0.40089 0.19204 0.82407 0.0
C1697 C 0.37687 0.19136 0.82264 0.0
C1698 C 0.41493 0.19635 0.8427 0.0
C1699 C 0.40528 0.2 0.86038 0.0
C1700 C 0.38163 0.20008 0.85895 0.0
C1701 C 0.36757 0.19578 0.84028 0.0
H1702 H 0.84023 0.22612 0.92732 0.0
H1703 H 0.77226 0.22281 0.89701 0.0
H1704 H 0.85066 0.21383 0.89552 0.0
H1705 H 0.78283 0.21092 0.86516 0.0
H1706 H 0.79928 0.17199 0.81233 0.0
H1707 H 0.78638 0.17886 0.8448 0.0
H1708 H 0.86693 0.23359 0.86572 0.0
H1709 H 0.87978 0.22647 0.83339 0.0
C1710 C 0.82742 0.22259 0.91387 0.0
C1711 C 0.80545 0.2255 0.9147 0.0
C1712 C 0.83347 0.21569 0.8956 0.0
C1713 C 0.81779 0.21167 0.87767 0.0
C1714 C 0.79523 0.21358 0.87865 0.0
C1715 C 0.78911 0.22036 0.89694 0.0
C1716 C 0.81421 0.18558 0.82384 0.0
C1717 C 0.84058 0.19868 0.82024 0.0
C1718 C 0.80681 0.18952 0.84248 0.0
C1719 C 0.82559 0.20672 0.85797 0.0
C1720 C 0.85196 0.21978 0.85433 0.0
C1721 C 0.85935 0.21577 0.83574 0.0
H1722 H 0.26763 0.11189 0.43862 0.0
H1723 H 0.20082 0.10371 0.46642 0.0
H1724 H 0.29407 0.12846 0.47097 0.0
H1725 H 0.22711 0.12001 0.49876 0.0
H1726 H 0.28656 0.16777 0.55199 0.0
H1727 H 0.26304 0.15726 0.51857 0.0
H1728 H 0.29668 0.11044 0.50176 0.0
H1729 H 0.32023 0.12106 0.53502 0.0
C1730 C 0.25864 0.11374 0.45165 0.0
C1731 C 0.23213 0.1064 0.45001 0.0
C1732 C 0.27375 0.12316 0.47017 0.0
C1733 C 0.26265 0.12536 0.48749 0.0
C1734 C 0.23636 0.11886 0.4857 0.0
C1735 C 0.22127 0.10952 0.46716 0.0
C1736 C 0.28887 0.15521 0.54114 0.0
C1737 C 0.30523 0.14523 0.54614 0.0
C1738 C 0.27542 0.1492 0.522 0.0
C1739 C 0.278 0.13304 0.50748 0.0
C1740 C 0.29462 0.12334 0.51245 0.0
C1741 C 0.30809 0.12939 0.53154 0.0
H1742 H 0.87668 0.12131 0.44799 0.0
H1743 H 0.95337 0.18378 0.47101 0.0
H1744 H 0.85955 0.12738 0.47847 0.0
H1745 H 0.93597 0.19077 0.50101 0.0
H1746 H 0.90321 0.17697 0.56146 0.0
H1747 H 0.92001 0.17103 0.53079 0.0
H1748 H 0.84903 0.1559 0.49648 0.0
H1749 H 0.83165 0.16045 0.52729 0.0
C1750 C 0.88988 0.13642 0.45951 0.0
C1751 C 0.91645 0.15199 0.45701 0.0
C1752 C 0.87998 0.14012 0.47692 0.0
C1753 C 0.89635 0.15956 0.49228 0.0
C1754 C 0.92283 0.17538 0.48964 0.0
C1755 C 0.93276 0.17161 0.47227 0.0
C1756 C 0.89102 0.17206 0.54742 0.0
C1757 C 0.86599 0.1691 0.54693 0.0
C1758 C 0.90083 0.16901 0.52975 0.0
C1759 C 0.88594 0.16304 0.51108 0.0
C1760 C 0.86096 0.1602 0.51058 0.0
C1761 C 0.8511 0.16315 0.52826 0.0
H1762 H 0.90964 0.79334 0.48078 0.0
H1763 H 0.84016 0.72833 0.44948 0.0
H1764 H 0.90197 0.77048 0.51091 0.0
H1765 H 0.83219 0.70572 0.47961 0.0
H1766 H 0.8362 0.66323 0.53258 0.0
H1767 H 0.84858 0.68512 0.50226 0.0
H1768 H 0.87008 0.75771 0.53577 0.0
H1769 H 0.85738 0.73584 0.56605 0.0
C1770 C 0.89296 0.77401 0.48024 0.0
C1771 C 0.87548 0.76268 0.46274 0.0
C1772 C 0.88839 0.76103 0.49757 0.0
C1773 C 0.86636 0.73631 0.49775 0.0
C1774 C 0.84945 0.72462 0.48 0.0
C1775 C 0.85391 0.73766 0.46275 0.0
C1776 C 0.84342 0.68384 0.53351 0.0
C1777 C 0.84559 0.69767 0.55184 0.0
C1778 C 0.8506 0.6964 0.5161 0.0
C1779 C 0.86029 0.72318 0.51653 0.0
C1780 C 0.86305 0.73714 0.53493 0.0
C1781 C 0.85575 0.72455 0.55233 0.0
loop_
_geom_bond_atom_site_label_1
_geom_bond_atom_site_label_2
_geom_bond_distance
_geom_bond_site_symmetry_2
_ccdc_geom_bond_type
H0 C1 0.949 . S
C1 H0 0.949 . S
C1 C2 1.395 . S
C1 C3 1.391 . S
C2 C1 1.395 . S
C2 C5 1.390 . S
C3 C1 1.391 . S
C3 C7 1.387 . S
C3 C8 1.491 . S
H4 C5 0.950 . S
C5 C2 1.390 . S
C5 H4 0.950 . S
C5 C6 1.378 . S
C6 C5 1.378 . S
C6 C7 1.409 . S
C7 C3 1.387 . S
C7 C6 1.409 . S
C7 H9 0.951 . S
C8 C3 1.491 . S
C8 C10 1.382 . S
C8 C12 1.404 . S
H9 C7 0.951 . S
C10 C8 1.382 . S
C10 C11 1.390 . S
C10 H15 0.949 . S
C11 C10 1.390 . S
C11 C16 1.399 . S
C12 C8 1.404 . S
C12 H13 0.950 . S
C12 C14 1.375 . S
H13 C12 0.950 . S
C14 C12 1.375 . S
C14 C16 1.382 . S
C14 H18 0.950 . S
H15 C10 0.949 . S
C16 C11 1.399 . S
C16 C14 1.382 . S
C16 H17 0.952 . S
H17 C16 0.952 . S
H18 C14 0.950 . S
H19 C20 0.949 . S
C20 H19 0.949 . S
C20 C21 1.395 . S
C20 C22 1.391 . S
C21 C20 1.395 . S
C21 C24 1.390 . S
C22 C20 1.391 . S
C22 C26 1.387 . S
C22 C27 1.491 . S
H23 C24 0.950 . S
C24 C21 1.390 . S
C24 H23 0.950 . S
C24 C25 1.378 . S
C25 C24 1.378 . S
C25 C26 1.409 . S
C26 C22 1.387 . S
C26 C25 1.409 . S
C26 H28 0.951 . S
C27 C22 1.491 . S
C27 C29 1.382 . S
C27 C31 1.404 . S
H28 C26 0.951 . S
C29 C27 1.382 . S
C29 C30 1.390 . S
C29 H34 0.949 . S
C30 C29 1.390 . S
C30 C35 1.399 . S
C31 C27 1.404 . S
C31 H32 0.950 . S
C31 C33 1.375 . S
H32 C31 0.950 . S
C33 C31 1.375 . S
C33 C35 1.382 . S
C33 H37 0.950 . S
H34 C29 0.949 . S
C35 C30 1.399 . S
C35 C33 1.382 . S
C35 H36 0.952 . S
H36 C35 0.952 . S
H37 C33 0.950 . S
H38 C39 0.949 . S
C39 H38 0.949 . S
C39 C40 1.395 . S
C39 C41 1.391 . S
C40 C39 1.395 . S
C40 C43 1.390 . S
C41 C39 1.391 . S
C41 C45 1.387 . S
C41 C46 1.491 . S
H42 C43 0.950 . S
C43 C40 1.390 . S
C43 H42 0.950 . S
C43 C44 1.378 . S
C44 C43 1.378 . S
C44 C45 1.409 . S
C45 C41 1.387 . S
C45 C44 1.409 . S
C45 H47 0.951 . S
C46 C41 1.491 . S
C46 C48 1.382 . S
C46 C50 1.404 . S
H47 C45 0.951 . S
C48 C46 1.382 . S
C48 C49 1.390 . S
C48 H53 0.949 . S
C49 C48 1.390 . S
C49 C54 1.399 . S
C50 C46 1.404 . S
C50 H51 0.950 . S
C50 C52 1.375 . S
H51 C50 0.950 . S
C52 C50 1.375 . S
C52 C54 1.382 . S
C52 H56 0.950 . S
H53 C48 0.949 . S
C54 C49 1.399 . S
C54 C52 1.382 . S
C54 H55 0.952 1_655 S
H55 C54 0.952 1_455 S
H56 C52 0.950 . S
H57 C58 0.949 . S
C58 H57 0.949 . S
C58 C59 1.395 . S
C58 C60 1.391 . S
C59 C58 1.395 . S
C59 C62 1.390 . S
C60 C58 1.391 . S
C60 C64 1.387 . S
C60 C65 1.491 . S
H61 C62 0.950 . S
C62 C59 1.390 . S
C62 H61 0.950 . S
C62 C63 1.378 . S
C63 C62 1.378 . S
C63 C64 1.409 . S
C64 C60 1.387 . S
C64 C63 1.409 . S
C64 H66 0.951 . S
C65 C60 1.491 . S
C65 C67 1.382 . S
C65 C69 1.404 . S
H66 C64 0.951 . S
C67 C65 1.382 . S
C67 C68 1.390 . S
C67 H72 0.949 . S
C68 C67 1.390 . S
C68 C73 1.399 . S
C69 C65 1.404 . S
C69 H70 0.950 . S
C69 C71 1.375 . S
H70 C69 0.950 . S
C71 C69 1.375 . S
C71 C73 1.382 . S
C71 H75 0.950 . S
H72 C67 0.949 . S
C73 C68 1.399 . S
C73 C71 1.382 . S
C73 H74 0.952 . S
H74 C73 0.952 . S
H75 C71 0.950 . S
H76 C77 0.949 . S
C77 H76 0.949 . S
C77 C78 1.395 . S
C77 C79 1.391 . S
C78 C77 1.395 . S
C78 C81 1.390 . S
C79 C77 1.391 . S
C79 C83 1.387 . S
C79 C84 1.491 . S
H80 C81 0.950 . S
C81 C78 1.390 . S
C81 H80 0.950 . S
C81 C82 1.378 . S
C82 C81 1.378 . S
C82 C83 1.409 . S
C83 C79 1.387 . S
C83 C82 1.409 . S
C83 H85 0.951 . S
C84 C79 1.491 . S
C84 C86 1.382 . S
C84 C88 1.404 . S
H85 C83 0.951 . S
C86 C84 1.382 . S
C86 C87 1.390 . S
C86 H91 0.949 . S
C87 C86 1.390 . S
C87 C92 1.399 . S
C88 C84 1.404 . S
C88 H89 0.950 . S
C88 C90 1.375 . S
H89 C88 0.950 . S
C90 C88 1.375 . S
C90 C92 1.382 . S
C90 H94 0.950 . S
H91 C86 0.949 . S
C92 C87 1.399 . S
C92 C90 1.382 . S
C92 H93 0.952 . S
H93 C92 0.952 . S
H94 C90 0.950 . S
H95 C96 0.949 . S
C96 H95 0.949 . S
C96 C97 1.395 . S
C96 C98 1.391 . S
C97 C96 1.395 . S
C97 C100 1.390 . S
C98 C96 1.391 . S
C98 C102 1.387 . S
C98 C103 1.491 . S
H99 C100 0.950 . S
C100 C97 1.390 . S
C100 H99 0.950 . S
C100 C101 1.378 . S
C101 C100 1.378 . S
C101 C102 1.409 . S
C102 C98 1.387 . S
C102 C101 1.409 . S
C102 H104 0.951 . S
C103 C98 1.491 . S
C103 C105 1.382 . S
C103 C107 1.404 . S
H104 C102 0.951 . S
C105 C103 1.382 . S
C105 C106 1.390 . S
C105 H110 0.949 . S
C106 C105 1.390 . S
C106 C111 1.399 . S
C107 C103 1.404 . S
C107 H108 0.950 . S
C107 C109 1.375 . S
H108 C107 0.950 . S
C109 C107 1.375 . S
C109 C111 1.382 . S
C109 H113 0.950 . S
H110 C105 0.949 . S
C111 C106 1.399 . S
C111 C109 1.382 . S
C111 H112 0.952 . S
H112 C111 0.952 . S
H113 C109 0.950 . S
H114 C115 0.949 . S
C115 H114 0.949 . S
C115 C116 1.395 . S
C115 C117 1.391 . S
C116 C115 1.395 . S
C116 C119 1.390 . S
C117 C115 1.391 . S
C117 C121 1.387 . S
C117 C122 1.491 . S
H118 C119 0.950 . S
C119 C116 1.390 . S
C119 H118 0.950 . S
C119 C120 1.378 . S
C120 C119 1.378 . S
C120 C121 1.409 . S
C121 C117 1.387 . S
C121 C120 1.409 . S
C121 H123 0.951 . S
C122 C117 1.491 . S
C122 C124 1.382 . S
C122 C126 1.404 . S
H123 C121 0.951 . S
C124 C122 1.382 . S
C124 C125 1.390 . S
C124 H129 0.949 . S
C125 C124 1.390 . S
C125 C130 1.399 . S
C126 C122 1.404 . S
C126 H127 0.950 . S
C126 C128 1.375 . S
H127 C126 0.950 . S
C128 C126 1.375 . S
C128 C130 1.382 . S
C128 H132 0.950 . S
H129 C124 0.949 . S
C130 C125 1.399 . S
C130 C128 1.382 . S
C130 H131 0.952 . S
H131 C130 0.952 . S
H132 C128 0.950 . S
H133 C134 0.949 . S
C134 H133 0.949 . S
C134 C135 1.395 . S
C134 C136 1.391 . S
C135 C134 1.395 . S
C135 C138 1.390 . S
C136 C134 1.391 . S
C136 C140 1.387 . S
C136 C141 1.491 . S
H137 C138 0.950 . S
C138 C135 1.390 . S
C138 H137 0.950 . S
C138 C139 1.378 . S
C139 C138 1.378 . S
C139 C140 1.409 . S
C140 C136 1.387 . S
C140 C139 1.409 . S
C140 H142 0.951 . S
C141 C136 1.491 . S
C141 C143 1.382 . S
C141 C145 1.404 . S
H142 C140 0.951 . S
C143 C141 1.382 . S
C143 C144 1.390 . S
C143 H148 0.949 . S
C144 C143 1.390 . S
C144 C149 1.399 . S
C145 C141 1.404 . S
C145 H146 0.950 . S
C145 C147 1.375 . S
H146 C145 0.950 . S
C147 C145 1.375 . S
C147 C149 1.382 . S
C147 H151 0.950 . S
H148 C143 0.949 . S
C149 C144 1.399 . S
C149 C147 1.382 . S
C149 H150 0.952 . S
H150 C149 0.952 . S
H151 C147 0.950 . S
H152 C153 0.949 . S
C153 H152 0.949 . S
C153 C154 1.395 . S
C153 C155 1.391 . S
C154 C153 1.395 . S
C154 C157 1.390 . S
C155 C153 1.391 . S
C155 C159 1.387 . S
C155 C160 1.491 . S
H156 C157 0.950 . S
C157 C154 1.390 . S
C157 H156 0.950 . S
C157 C158 1.378 . S
C158 C157 1.378 . S
C158 C159 1.409 . S
C159 C155 1.387 . S
C159 C158 1.409 . S
C159 H161 0.951 . S
C160 C155 1.491 . S
C160 C162 1.382 . S
C160 C164 1.404 . S
H161 C159 0.951 . S
C162 C160 1.382 . S
C162 C163 1.390 . S
C162 H167 0.949 . S
C163 C162 1.390 . S
C163 C168 1.399 . S
C164 C160 1.404 . S
C164 H165 0.950 . S
C164 C166 1.375 . S
H165 C164 0.950 . S
C166 C164 1.375 . S
C166 C168 1.382 . S
C166 H170 0.950 . S
H167 C162 0.949 . S
C168 C163 1.399 . S
C168 C166 1.382 . S
C168 H169 0.952 . S
H169 C168 0.952 . S
H170 C166 0.950 . S
H171 C172 0.949 . S
C172 H171 0.949 . S
C172 C173 1.395 . S
C172 C174 1.391 . S
C173 C172 1.395 . S
C173 C176 1.390 . S
C174 C172 1.391 . S
C174 C178 1.387 . S
C174 C179 1.491 . S
H175 C176 0.950 . S
C176 C173 1.390 . S
C176 H175 0.950 . S
C176 C177 1.378 . S
C177 C176 1.378 . S
C177 C178 1.409 . S
C178 C174 1.387 . S
C178 C177 1.409 . S
C178 H180 0.951 . S
C179 C174 1.491 . S
C179 C181 1.382 . S
C179 C183 1.404 . S
H180 C178 0.951 . S
C181 C179 1.382 . S
C181 C182 1.390 . S
C181 H186 0.949 . S
C182 C181 1.390 . S
C182 C187 1.399 . S
C183 C179 1.404 . S
C183 H184 0.950 . S
C183 C185 1.375 . S
H184 C183 0.950 . S
C185 C183 1.375 . S
C185 C187 1.382 . S
C185 H189 0.950 . S
H186 C181 0.949 . S
C187 C182 1.399 . S
C187 C185 1.382 . S
C187 H188 0.952 . S
H188 C187 0.952 . S
H189 C185 0.950 . S
H190 C191 0.949 . S
C191 H190 0.949 . S
C191 C192 1.395 . S
C191 C193 1.391 . S
C192 C191 1.395 . S
C192 C195 1.390 . S
C193 C191 1.391 . S
C193 C197 1.387 . S
C193 C198 1.491 . S
H194 C195 0.950 . S
C195 C192 1.390 . S
C195 H194 0.950 . S
C195 C196 1.378 . S
C196 C195 1.378 . S
C196 C197 1.409 . S
C197 C193 1.387 . S
C197 C196 1.409 . S
C197 H199 0.951 1_556 S
C198 C193 1.491 . S
C198 C200 1.382 . S
C198 C202 1.404 1_556 S
H199 C197 0.951 1_554 S
C200 C198 1.382 . S
C200 C201 1.390 1_556 S
C200 H205 0.949 . S
C201 C200 1.390 1_554 S
C201 C206 1.399 . S
C202 C198 1.404 1_554 S
C202 H203 0.950 . S
C202 C204 1.375 . S
H203 C202 0.950 . S
C204 C202 1.375 . S
C204 C206 1.382 . S
C204 H208 0.950 . S
H205 C200 0.949 . S
C206 C201 1.399 . S
C206 C204 1.382 . S
C206 H207 0.952 . S
H207 C206 0.952 . S
H208 C204 0.950 . S
H209 C210 0.949 . S
C210 H209 0.949 . S
C210 C211 1.395 . S
C210 C212 1.391 . S
C211 C210 1.395 . S
C211 C214 1.390 . S
C212 C210 1.391 . S
C212 C216 1.387 . S
C212 C217 1.491 . S
H213 C214 0.950 . S
C214 C211 1.390 . S
C214 H213 0.950 . S
C214 C215 1.378 . S
C215 C214 1.378 . S
C215 C216 1.409 . S
C216 C212 1.387 . S
C216 C215 1.409 . S
C216 H218 0.951 . S
C217 C212 1.491 . S
C217 C219 1.382 . S
C217 C221 1.404 . S
H218 C216 0.951 . S
C219 C217 1.382 . S
C219 C220 1.390 . S
C219 H224 0.949 . S
C220 C219 1.390 . S
C220 C225 1.399 . S
C221 C217 1.404 . S
C221 H222 0.950 . S
C221 C223 1.375 . S
H222 C221 0.950 . S
C223 C221 1.375 . S
C223 C225 1.382 . S
C223 H227 0.950 . S
H224 C219 0.949 . S
C225 C220 1.399 . S
C225 C223 1.382 . S
C225 H226 0.952 . S
H226 C225 0.952 . S
H227 C223 0.950 . S
H228 C229 0.949 . S
C229 H228 0.949 . S
C229 C230 1.395 . S
C229 C231 1.391 . S
C230 C229 1.395 . S
C230 C233 1.390 . S
C231 C229 1.391 . S
C231 C235 1.387 . S
C231 C236 1.491 . S
H232 C233 0.950 . S
C233 C230 1.390 . S
C233 H232 0.950 . S
C233 C234 1.378 . S
C234 C233 1.378 . S
C234 C235 1.409 . S
C235 C231 1.387 . S
C235 C234 1.409 . S
C235 H237 0.951 . S
C236 C231 1.491 . S
C236 C238 1.382 . S
C236 C240 1.404 . S
H237 C235 0.951 . S
C238 C236 1.382 . S
C238 C239 1.390 . S
C238 H243 0.949 . S
C239 C238 1.390 . S
C239 C244 1.399 . S
C240 C236 1.404 . S
C240 H241 0.950 . S
C240 C242 1.398 . S
H241 C240 0.950 . S
C242 C240 1.398 . S
C242 C244 1.385 . S
C242 H246 0.926 1_554 S
H243 C238 0.949 . S
C244 C239 1.399 . S
C244 C242 1.385 . S
C244 H245 0.952 1_554 S
H245 C244 0.952 1_556 S
H246 C242 0.926 1_556 S
H247 C248 0.949 . S
C248 H247 0.949 . S
C248 C249 1.395 . S
C248 C250 1.391 . S
C249 C248 1.395 . S
C249 C252 1.390 . S
C250 C248 1.391 . S
C250 C254 1.387 . S
C250 C255 1.491 . S
H251 C252 0.950 . S
C252 C249 1.390 . S
C252 H251 0.950 . S
C252 C253 1.378 . S
C253 C252 1.378 . S
C253 C254 1.409 . S
C254 C250 1.387 . S
C254 C253 1.409 . S
C254 H256 0.951 . S
C255 C250 1.491 . S
C255 C257 1.382 . S
C255 C259 1.404 . S
H256 C254 0.951 . S
C257 C255 1.382 . S
C257 C258 1.390 . S
C257 H262 0.949 . S
C258 C257 1.390 . S
C258 C263 1.399 . S
C259 C255 1.404 . S
C259 H260 0.950 . S
C259 C261 1.375 . S
H260 C259 0.950 . S
C261 C259 1.375 . S
C261 C263 1.382 . S
C261 H265 0.950 . S
H262 C257 0.949 . S
C263 C258 1.399 . S
C263 C261 1.382 . S
C263 H264 0.952 . S
H264 C263 0.952 . S
H265 C261 0.950 . S
H266 C267 0.949 . S
C267 H266 0.949 . S
C267 C268 1.395 . S
C267 C269 1.391 . S
C268 C267 1.395 . S
C268 C271 1.390 . S
C269 C267 1.391 . S
C269 C273 1.387 . S
C269 C274 1.491 . S
H270 C271 0.950 . S
C271 C268 1.390 . S
C271 H270 0.950 . S
C271 C272 1.378 . S
C272 C271 1.378 . S
C272 C273 1.409 . S
C273 C269 1.387 . S
C273 C272 1.409 . S
C273 H275 0.951 . S
C274 C269 1.491 . S
C274 C276 1.382 . S
C274 C278 1.404 . S
H275 C273 0.951 . S
C276 C274 1.382 . S
C276 C277 1.390 . S
C276 H281 0.949 . S
C277 C276 1.390 . S
C277 C282 1.399 . S
C278 C274 1.404 . S
C278 H279 0.950 . S
C278 C280 1.375 . S
H279 C278 0.950 . S
C280 C278 1.375 . S
C280 C282 1.382 . S
C280 H284 0.950 . S
H281 C276 0.949 . S
C282 C277 1.399 . S
C282 C280 1.382 . S
C282 H283 0.952 . S
H283 C282 0.952 . S
H284 C280 0.950 . S
H285 C286 0.949 . S
C286 H285 0.949 . S
C286 C287 1.395 . S
C286 C288 1.391 . S
C287 C286 1.395 . S
C287 C290 1.390 . S
C288 C286 1.391 . S
C288 C292 1.387 . S
C288 C293 1.491 . S
H289 C290 0.950 . S
C290 C287 1.390 . S
C290 H289 0.950 . S
C290 C291 1.378 . S
C291 C290 1.378 . S
C291 C292 1.409 . S
C292 C288 1.387 . S
C292 C291 1.409 . S
C292 H294 0.951 . S
C293 C288 1.491 . S
C293 C295 1.382 . S
C293 C297 1.404 . S
H294 C292 0.951 . S
C295 C293 1.382 . S
C295 C296 1.390 . S
C295 H300 0.949 . S
C296 C295 1.390 . S
C296 C301 1.399 . S
C297 C293 1.404 . S
C297 H298 0.950 . S
C297 C299 1.375 . S
H298 C297 0.950 . S
C299 C297 1.375 . S
C299 C301 1.382 . S
C299 H303 0.950 . S
H300 C295 0.949 . S
C301 C296 1.399 . S
C301 C299 1.382 . S
C301 H302 0.952 . S
H302 C301 0.952 . S
H303 C299 0.950 . S
H304 C305 0.949 . S
C305 H304 0.949 . S
C305 C306 1.395 . S
C305 C307 1.391 . S
C306 C305 1.395 . S
C306 C309 1.390 . S
C307 C305 1.391 . S
C307 C311 1.387 . S
C307 C312 1.491 . S
H308 C309 0.950 . S
C309 C306 1.390 . S
C309 H308 0.950 . S
C309 C310 1.378 . S
C310 C309 1.378 . S
C310 C311 1.409 . S
C311 C307 1.387 . S
C311 C310 1.409 . S
C311 H313 0.951 . S
C312 C307 1.491 . S
C312 C314 1.382 . S
C312 C316 1.404 . S
H313 C311 0.951 . S
C314 C312 1.382 . S
C314 C315 1.390 . S
C314 H319 0.949 . S
C315 C314 1.390 . S
C315 C320 1.399 . S
C316 C312 1.404 . S
C316 H317 0.950 . S
C316 C318 1.375 . S
H317 C316 0.950 . S
C318 C316 1.375 . S
C318 C320 1.382 . S
C318 H322 0.950 . S
H319 C314 0.949 . S
C320 C315 1.399 . S
C320 C318 1.382 . S
C320 H321 0.952 . S
H321 C320 0.952 . S
H322 C318 0.950 . S
H323 C324 0.949 . S
C324 H323 0.949 . S
C324 C325 1.395 . S
C324 C326 1.391 . S
C325 C324 1.395 . S
C325 C328 1.390 . S
C326 C324 1.391 . S
C326 C330 1.387 . S
C326 C331 1.491 . S
H327 C328 0.950 . S
C328 C325 1.390 . S
C328 H327 0.950 . S
C328 C329 1.378 . S
C329 C328 1.378 . S
C329 C330 1.409 . S
C330 C326 1.387 . S
C330 C329 1.409 . S
C330 H332 0.951 . S
C331 C326 1.491 . S
C331 C333 1.382 . S
C331 C335 1.404 . S
H332 C330 0.951 . S
C333 C331 1.382 . S
C333 C334 1.390 . S
C333 H338 0.949 . S
C334 C333 1.390 . S
C334 C339 1.399 . S
C335 C331 1.404 . S
C335 H336 0.950 . S
C335 C337 1.375 . S
H336 C335 0.950 . S
C337 C335 1.375 . S
C337 C339 1.382 . S
C337 H341 0.950 . S
H338 C333 0.949 . S
C339 C334 1.399 . S
C339 C337 1.382 . S
C339 H340 0.952 . S
H340 C339 0.952 . S
H341 C337 0.950 . S
Eu342 C351 2.828 1_565 S
Eu342 O353 2.392 . S
Eu342 O355 2.418 . S
Eu342 O360 2.373 1_565 S
Eu342 O363 2.488 . S
Eu342 O364 2.471 1_565 S
Eu342 O365 2.349 1_565 S
Eu343 O352 2.373 1_545 S
Eu343 O356 2.488 . S
Eu343 O357 2.471 1_545 S
Eu343 O358 2.349 1_545 S
Eu343 O361 2.392 . S
Eu343 O362 2.418 . S
Eu343 C372 2.828 1_545 S
C344 O362 1.244 . S
C344 O365 1.265 1_554 S
C345 C346 1.379 . S
C345 C349 1.373 . S
C345 C351 1.505 . S
C346 C345 1.379 . S
C346 C348 1.369 . S
C346 H374 0.930 . S
C347 C349 1.383 . S
C347 C350 1.382 . S
C347 H375 0.930 . S
C348 C346 1.369 . S
C348 C350 1.392 . S
C348 H376 0.930 . S
C349 C345 1.373 . S
C349 C347 1.383 . S
C349 H377 0.931 1_545 S
C350 C347 1.382 . S
C350 C348 1.392 . S
C351 Eu342 2.828 1_545 S
C351 C345 1.505 . S
C351 O363 1.249 1_545 S
C351 O364 1.244 . S
O352 Eu343 2.373 1_565 S
O352 C354 1.258 . S
O353 Eu342 2.392 . S
O353 C354 1.242 1_556 S
C354 O352 1.258 . S
C354 O353 1.242 1_554 S
O355 Eu342 2.418 . S
O355 C359 1.201 1_556 S
O356 Eu343 2.488 . S
O356 C372 1.249 1_545 S
O357 Eu343 2.471 1_565 S
O357 C372 1.244 . S
O358 Eu343 2.349 1_565 S
O358 C359 1.288 . S
C359 O355 1.201 1_554 S
C359 O358 1.288 . S
O360 Eu342 2.373 1_545 S
O360 C373 1.258 . S
O361 Eu343 2.392 . S
O361 C373 1.242 1_554 S
O362 Eu343 2.418 . S
O362 C344 1.244 . S
O363 Eu342 2.488 . S
O363 C351 1.249 1_565 S
O364 Eu342 2.471 1_545 S
O364 C351 1.244 . S
O365 Eu342 2.349 1_545 S
O365 C344 1.265 1_556 S
C366 C367 1.379 . S
C366 C370 1.373 1_565 S
C366 C372 1.505 . S
C367 C366 1.379 . S
C367 C369 1.369 . S
C367 H378 0.930 . S
C368 C370 1.383 1_565 S
C368 C371 1.382 . S
C368 H379 0.930 1_565 S
C369 C367 1.369 . S
C369 C371 1.392 . S
C369 H380 0.930 . S
C370 C366 1.373 1_545 S
C370 C368 1.383 1_545 S
C370 H381 0.931 . S
C371 C368 1.382 . S
C371 C369 1.392 . S
C372 Eu343 2.828 1_565 S
C372 O356 1.249 1_565 S
C372 O357 1.244 . S
C372 C366 1.505 . S
C373 O360 1.258 . S
C373 O361 1.242 1_556 S
H374 C346 0.930 . S
H375 C347 0.930 . S
H376 C348 0.930 . S
H377 C349 0.931 1_565 S
H378 C367 0.930 . S
H379 C368 0.930 1_545 S
H380 C369 0.930 . S
H381 C370 0.931 . S
Eu382 C391 2.828 1_455 S
Eu382 O393 2.392 1_556 S
Eu382 O395 2.418 . S
Eu382 O400 2.373 1_455 S
Eu382 O403 2.488 . S
Eu382 O404 2.471 1_455 S
Eu382 O405 2.349 1_455 S
Eu383 O392 2.373 1_655 S
Eu383 O396 2.488 . S
Eu383 O397 2.471 1_655 S
Eu383 O398 2.349 1_655 S
Eu383 O401 2.392 . S
Eu383 O402 2.418 . S
Eu383 C412 2.828 1_655 S
C384 O402 1.244 . S
C384 O405 1.265 1_554 S
C385 C386 1.379 . S
C385 C389 1.373 . S
C385 C391 1.505 . S
C386 C385 1.379 . S
C386 C388 1.369 . S
C386 H414 0.930 . S
C387 C389 1.383 . S
C387 C390 1.382 . S
C387 H415 0.930 . S
C388 C386 1.369 . S
C388 C390 1.392 . S
C388 H416 0.930 . S
C389 C385 1.373 . S
C389 C387 1.383 . S
C389 H417 0.931 1_655 S
C390 C387 1.382 . S
C390 C388 1.392 . S
C391 Eu382 2.828 1_655 S
C391 C385 1.505 . S
C391 O403 1.249 1_655 S
C391 O404 1.244 . S
O392 Eu383 2.373 1_455 S
O392 C394 1.258 . S
O393 Eu382 2.392 1_554 S
O393 C394 1.242 . S
C394 O392 1.258 . S
C394 O393 1.242 . S
O395 Eu382 2.418 . S
O395 C399 1.244 1_556 S
O396 Eu383 2.488 . S
O396 C412 1.249 1_655 S
O397 Eu383 2.471 1_455 S
O397 C412 1.244 . S
O398 Eu383 2.349 1_455 S
O398 C399 1.265 . S
C399 O395 1.244 1_554 S
C399 O398 1.265 . S
O400 Eu382 2.373 1_655 S
O400 C413 1.258 . S
O401 Eu383 2.392 . S
O401 C413 1.242 1_554 S
O402 Eu383 2.418 . S
O402 C384 1.244 . S
O403 Eu382 2.488 . S
O403 C391 1.249 1_455 S
O404 Eu382 2.471 1_655 S
O404 C391 1.244 . S
O405 Eu382 2.349 1_655 S
O405 C384 1.265 1_556 S
C406 C407 1.379 . S
C406 C410 1.373 . S
C406 C412 1.505 . S
C407 C406 1.379 . S
C407 C409 1.369 . S
C407 H418 0.930 . S
C408 C410 1.383 . S
C408 C411 1.382 . S
C408 H419 0.930 . S
C409 C407 1.369 . S
C409 C411 1.392 . S
C409 H420 0.930 . S
C410 C406 1.373 . S
C410 C408 1.383 . S
C410 H421 0.931 1_455 S
C411 C408 1.382 . S
C411 C409 1.392 . S
C412 Eu383 2.828 1_455 S
C412 O396 1.249 1_455 S
C412 O397 1.244 . S
C412 C406 1.505 . S
C413 O400 1.258 . S
C413 O401 1.242 1_556 S
H414 C386 0.930 . S
H415 C387 0.930 . S
H416 C388 0.930 . S
H417 C389 0.931 1_455 S
H418 C407 0.930 . S
H419 C408 0.930 . S
H420 C409 0.930 . S
H421 C410 0.931 1_655 S
Eu422 C431 2.828 . S
Eu422 O433 2.392 . S
Eu422 O435 2.418 . S
Eu422 O440 2.373 . S
Eu422 O443 2.488 . S
Eu422 O444 2.471 . S
Eu422 O445 2.349 . S
Eu423 O432 2.373 . S
Eu423 O436 2.488 . S
Eu423 O437 2.471 . S
Eu423 O438 2.349 1_556 S
Eu423 O441 2.392 1_556 S
Eu423 O442 2.418 . S
Eu423 C452 2.828 . S
C424 O442 1.244 1_554 S
C424 O445 1.265 . S
C425 C426 1.379 . S
C425 C429 1.373 . S
C425 C431 1.505 . S
C426 C425 1.379 . S
C426 C428 1.369 . S
C426 H454 0.930 . S
C427 C429 1.383 . S
C427 C430 1.382 . S
C427 H455 0.930 . S
C428 C426 1.369 . S
C428 C430 1.392 . S
C428 H456 0.930 . S
C429 C425 1.373 . S
C429 C427 1.383 . S
C429 H457 0.931 . S
C430 C427 1.382 . S
C430 C428 1.392 . S
C431 Eu422 2.828 . S
C431 C425 1.505 . S
C431 O443 1.249 . S
C431 O444 1.244 . S
O432 Eu423 2.373 . S
O432 C434 1.258 . S
O433 Eu422 2.392 . S
O433 C434 1.242 1_554 S
C434 O432 1.258 . S
C434 O433 1.242 1_556 S
O435 Eu422 2.418 . S
O435 C439 1.244 . S
O436 Eu423 2.488 . S
O436 C452 1.249 . S
O437 Eu423 2.471 . S
O437 C452 1.244 . S
O438 Eu423 2.349 1_554 S
O438 C439 1.265 . S
C439 O435 1.244 . S
C439 O438 1.265 . S
O440 Eu422 2.373 . S
O440 C453 1.258 . S
O441 Eu423 2.392 1_554 S
O441 C453 1.242 . S
O442 Eu423 2.418 . S
O442 C424 1.244 1_556 S
O443 Eu422 2.488 . S
O443 C431 1.249 . S
O444 Eu422 2.471 . S
O444 C431 1.244 . S
O445 Eu422 2.349 . S
O445 C424 1.265 . S
C446 C447 1.379 . S
C446 C450 1.373 . S
C446 C452 1.505 . S
C447 C446 1.379 . S
C447 C449 1.369 . S
C447 H458 0.930 . S
C448 C450 1.383 . S
C448 C451 1.382 . S
C448 H459 0.930 . S
C449 C447 1.369 . S
C449 C451 1.392 . S
C449 H460 0.930 . S
C450 C446 1.373 . S
C450 C448 1.383 . S
C450 H461 0.931 . S
C451 C448 1.382 . S
C451 C449 1.392 . S
C452 Eu423 2.828 . S
C452 O436 1.249 . S
C452 O437 1.244 . S
C452 C446 1.505 . S
C453 O440 1.258 . S
C453 O441 1.242 . S
H454 C426 0.930 . S
H455 C427 0.930 . S
H456 C428 0.930 . S
H457 C429 0.931 . S
H458 C447 0.930 . S
H459 C448 0.930 . S
H460 C449 0.930 . S
H461 C450 0.931 . S
Eu462 C471 2.828 . S
Eu462 O473 2.392 . S
Eu462 O475 2.418 . S
Eu462 O480 2.373 . S
Eu462 O483 2.488 . S
Eu462 O484 2.471 . S
Eu462 O485 2.349 . S
Eu463 O472 2.373 . S
Eu463 O476 2.488 . S
Eu463 O477 2.471 . S
Eu463 O478 2.349 . S
Eu463 O481 2.392 . S
Eu463 O482 2.418 . S
Eu463 C492 2.828 . S
C464 O482 1.244 . S
C464 O485 1.265 . S
C465 C466 1.379 . S
C465 C469 1.373 . S
C465 C471 1.505 . S
C466 C465 1.379 . S
C466 C468 1.369 . S
C466 H494 0.930 . S
C467 C469 1.383 . S
C467 C470 1.382 . S
C467 H495 0.930 . S
C468 C466 1.369 . S
C468 C470 1.392 . S
C468 H496 0.930 . S
C469 C465 1.373 . S
C469 C467 1.383 . S
C469 H497 0.931 . S
C470 C467 1.382 . S
C470 C468 1.392 . S
C471 Eu462 2.828 . S
C471 C465 1.505 . S
C471 O483 1.249 . S
C471 O484 1.244 . S
O472 Eu463 2.373 . S
O472 C474 1.258 . S
O473 Eu462 2.392 . S
O473 C474 1.242 . S
C474 O472 1.258 . S
C474 O473 1.242 . S
O475 Eu462 2.418 . S
O475 C479 1.244 . S
O476 Eu463 2.488 . S
O476 C492 1.249 . S
O477 Eu463 2.471 . S
O477 C492 1.244 . S
O478 Eu463 2.349 . S
O478 C479 1.265 . S
C479 O475 1.244 . S
C479 O478 1.265 . S
O480 Eu462 2.373 . S
O480 C493 1.258 . S
O481 Eu463 2.392 . S
O481 C493 1.242 . S
O482 Eu463 2.418 . S
O482 C464 1.244 . S
O483 Eu462 2.488 . S
O483 C471 1.249 . S
O484 Eu462 2.471 . S
O484 C471 1.244 . S
O485 Eu462 2.349 . S
O485 C464 1.265 . S
C486 C487 1.379 . S
C486 C490 1.373 . S
C486 C492 1.505 . S
C487 C486 1.379 . S
C487 C489 1.369 . S
C487 H498 0.930 . S
C488 C490 1.383 . S
C488 C491 1.382 . S
C488 H499 0.930 . S
C489 C487 1.369 . S
C489 C491 1.392 . S
C489 H500 0.930 . S
C490 C486 1.373 . S
C490 C488 1.383 . S
C490 H501 0.931 . S
C491 C488 1.382 . S
C491 C489 1.392 . S
C492 Eu463 2.828 . S
C492 O476 1.249 . S
C492 O477 1.244 . S
C492 C486 1.505 . S
C493 O480 1.258 . S
C493 O481 1.242 . S
H494 C466 0.930 . S
H495 C467 0.930 . S
H496 C468 0.930 . S
H497 C469 0.931 . S
H498 C487 0.930 . S
H499 C488 0.930 . S
H500 C489 0.930 . S
H501 C490 0.931 . S
Eu502 C511 2.828 . S
Eu502 O513 2.392 . S
Eu502 O515 2.418 . S
Eu502 O520 2.373 . S
Eu502 O523 2.488 . S
Eu502 O524 2.471 . S
Eu502 O525 2.349 . S
Eu503 O512 2.373 . S
Eu503 O516 2.488 . S
Eu503 O517 2.471 . S
Eu503 O518 2.349 . S
Eu503 O521 2.392 . S
Eu503 O522 2.418 . S
Eu503 C532 2.828 . S
C504 O522 1.244 . S
C504 O525 1.265 . S
C505 C506 1.379 . S
C505 C509 1.373 . S
C505 C511 1.505 . S
C506 C505 1.379 . S
C506 C508 1.369 . S
C506 H534 0.930 . S
C507 C509 1.383 . S
C507 C510 1.382 . S
C507 H535 0.930 . S
C508 C506 1.369 . S
C508 C510 1.392 . S
C508 H536 0.930 . S
C509 C505 1.373 . S
C509 C507 1.383 . S
C509 H537 0.931 . S
C510 C507 1.382 . S
C510 C508 1.392 . S
C511 Eu502 2.828 . S
C511 C505 1.505 . S
C511 O523 1.249 . S
C511 O524 1.244 . S
O512 Eu503 2.373 . S
O512 C514 1.258 . S
O513 Eu502 2.392 . S
O513 C514 1.242 . S
C514 O512 1.258 . S
C514 O513 1.242 . S
O515 Eu502 2.418 . S
O515 C519 1.244 . S
O516 Eu503 2.488 . S
O516 C532 1.249 . S
O517 Eu503 2.471 . S
O517 C532 1.244 . S
O518 Eu503 2.349 . S
O518 C519 1.265 . S
C519 O515 1.244 . S
C519 O518 1.265 . S
O520 Eu502 2.373 . S
O520 C533 1.258 . S
O521 Eu503 2.392 . S
O521 C533 1.242 . S
O522 Eu503 2.418 . S
O522 C504 1.244 . S
O523 Eu502 2.488 . S
O523 C511 1.249 . S
O524 Eu502 2.471 . S
O524 C511 1.244 . S
O525 Eu502 2.349 . S
O525 C504 1.265 . S
C526 C527 1.379 . S
C526 C530 1.373 . S
C526 C532 1.505 . S
C527 C526 1.379 . S
C527 C529 1.369 . S
C527 H538 0.930 . S
C528 C530 1.383 . S
C528 C531 1.382 . S
C528 H539 0.930 . S
C529 C527 1.369 . S
C529 C531 1.392 . S
C529 H540 0.930 . S
C530 C526 1.373 . S
C530 C528 1.383 . S
C530 H541 0.931 . S
C531 C528 1.382 . S
C531 C529 1.392 . S
C532 Eu503 2.828 . S
C532 O516 1.249 . S
C532 O517 1.244 . S
C532 C526 1.505 . S
C533 O520 1.258 . S
C533 O521 1.242 . S
H534 C506 0.930 . S
H535 C507 0.930 . S
H536 C508 0.930 . S
H537 C509 0.931 . S
H538 C527 0.930 . S
H539 C528 0.930 . S
H540 C529 0.930 . S
H541 C530 0.931 . S
Eu542 C551 2.828 . S
Eu542 O553 2.392 . S
Eu542 O555 2.418 . S
Eu542 O560 2.373 . S
Eu542 O563 2.488 . S
Eu542 O564 2.471 . S
Eu542 O565 2.349 . S
Eu543 O552 2.373 . S
Eu543 O556 2.488 . S
Eu543 O557 2.471 . S
Eu543 O558 2.349 . S
Eu543 O561 2.392 . S
Eu543 O562 2.418 . S
Eu543 C572 2.828 . S
C544 O562 1.244 . S
C544 O565 1.265 . S
C545 C546 1.379 . S
C545 C549 1.373 . S
C545 C551 1.505 . S
C546 C545 1.379 . S
C546 C548 1.369 . S
C546 H574 0.930 . S
C547 C549 1.383 . S
C547 C550 1.382 . S
C547 H575 0.930 . S
C548 C546 1.369 . S
C548 C550 1.392 . S
C548 H576 0.930 . S
C549 C545 1.373 . S
C549 C547 1.383 . S
C549 H577 0.931 . S
C550 C547 1.382 . S
C550 C548 1.392 . S
C551 Eu542 2.828 . S
C551 C545 1.505 . S
C551 O563 1.249 . S
C551 O564 1.244 . S
O552 Eu543 2.373 . S
O552 C554 1.258 . S
O553 Eu542 2.392 . S
O553 C554 1.242 . S
C554 O552 1.258 . S
C554 O553 1.242 . S
O555 Eu542 2.418 . S
O555 C559 1.244 . S
O556 Eu543 2.488 . S
O556 C572 1.249 . S
O557 Eu543 2.471 . S
O557 C572 1.244 . S
O558 Eu543 2.349 . S
O558 C559 1.265 . S
C559 O555 1.244 . S
C559 O558 1.265 . S
O560 Eu542 2.373 . S
O560 C573 1.258 . S
O561 Eu543 2.392 . S
O561 C573 1.242 . S
O562 Eu543 2.418 . S
O562 C544 1.244 . S
O563 Eu542 2.488 . S
O563 C551 1.249 . S
O564 Eu542 2.471 . S
O564 C551 1.244 . S
O565 Eu542 2.349 . S
O565 C544 1.265 . S
C566 C567 1.379 . S
C566 C570 1.373 . S
C566 C572 1.505 . S
C567 C566 1.379 . S
C567 C569 1.369 . S
C567 H578 0.930 . S
C568 C570 1.383 . S
C568 C571 1.382 . S
C568 H579 0.930 . S
C569 C567 1.369 . S
C569 C571 1.392 . S
C569 H580 0.930 . S
C570 C566 1.373 . S
C570 C568 1.383 . S
C570 H581 0.931 . S
C571 C568 1.382 . S
C571 C569 1.392 . S
C572 Eu543 2.828 . S
C572 O556 1.249 . S
C572 O557 1.244 . S
C572 C566 1.505 . S
C573 O560 1.258 . S
C573 O561 1.242 . S
H574 C546 0.930 . S
H575 C547 0.930 . S
H576 C548 0.930 . S
H577 C549 0.931 . S
H578 C567 0.930 . S
H579 C568 0.930 . S
H580 C569 0.930 . S
H581 C570 0.931 . S
Eu582 C591 2.828 . S
Eu582 O593 2.392 . S
Eu582 O595 2.418 . S
Eu582 O600 2.373 . S
Eu582 O603 2.488 . S
Eu582 O604 2.471 . S
Eu582 O605 2.349 . S
Eu583 O592 2.373 . S
Eu583 O596 2.488 . S
Eu583 O597 2.471 . S
Eu583 O598 2.349 . S
Eu583 O601 2.392 . S
Eu583 O602 2.418 . S
Eu583 C612 2.828 . S
C584 O602 1.244 . S
C584 O605 1.265 . S
C585 C586 1.379 . S
C585 C589 1.373 . S
C585 C591 1.505 . S
C586 C585 1.379 . S
C586 C588 1.369 . S
C586 H614 0.930 . S
C587 C589 1.383 . S
C587 C590 1.382 . S
C587 H615 0.930 . S
C588 C586 1.369 . S
C588 C590 1.392 . S
C588 H616 0.930 . S
C589 C585 1.373 . S
C589 C587 1.383 . S
C589 H617 0.931 . S
C590 C587 1.382 . S
C590 C588 1.392 . S
C591 Eu582 2.828 . S
C591 C585 1.505 . S
C591 O603 1.249 . S
C591 O604 1.244 . S
O592 Eu583 2.373 . S
O592 C594 1.258 . S
O593 Eu582 2.392 . S
O593 C594 1.242 . S
C594 O592 1.258 . S
C594 O593 1.242 . S
O595 Eu582 2.418 . S
O595 C599 1.244 . S
O596 Eu583 2.488 . S
O596 C612 1.249 . S
O597 Eu583 2.471 . S
O597 C612 1.244 . S
O598 Eu583 2.349 . S
O598 C599 1.265 . S
C599 O595 1.244 . S
C599 O598 1.265 . S
O600 Eu582 2.373 . S
O600 C613 1.258 . S
O601 Eu583 2.392 . S
O601 C613 1.242 . S
O602 Eu583 2.418 . S
O602 C584 1.244 . S
O603 Eu582 2.488 . S
O603 C591 1.249 . S
O604 Eu582 2.471 . S
O604 C591 1.244 . S
O605 Eu582 2.349 . S
O605 C584 1.265 . S
C606 C607 1.379 . S
C606 C610 1.373 . S
C606 C612 1.505 . S
C607 C606 1.379 . S
C607 C609 1.369 . S
C607 H618 0.930 . S
C608 C610 1.383 . S
C608 C611 1.382 . S
C608 H619 0.930 . S
C609 C607 1.369 . S
C609 C611 1.392 . S
C609 H620 0.930 . S
C610 C606 1.373 . S
C610 C608 1.383 . S
C610 H621 0.931 . S
C611 C608 1.382 . S
C611 C609 1.392 . S
C612 Eu583 2.828 . S
C612 O596 1.249 . S
C612 O597 1.244 . S
C612 C606 1.505 . S
C613 O600 1.258 . S
C613 O601 1.242 . S
H614 C586 0.930 . S
H615 C587 0.930 . S
H616 C588 0.930 . S
H617 C589 0.931 . S
H618 C607 0.930 . S
H619 C608 0.930 . S
H620 C609 0.930 . S
H621 C610 0.931 . S
Eu622 C631 2.828 . S
Eu622 O633 2.392 . S
Eu622 O635 2.418 . S
Eu622 O640 2.373 . S
Eu622 O643 2.488 . S
Eu622 O644 2.471 . S
Eu622 O645 2.349 . S
Eu623 O632 2.373 . S
Eu623 O636 2.488 . S
Eu623 O637 2.471 . S
Eu623 O638 2.349 . S
Eu623 O641 2.392 . S
Eu623 O642 2.418 . S
Eu623 C652 2.828 . S
C624 O642 1.244 . S
C624 O645 1.265 . S
C625 C626 1.379 . S
C625 C629 1.373 . S
C625 C631 1.505 . S
C626 C625 1.379 . S
C626 C628 1.369 . S
C626 H654 0.930 . S
C627 C629 1.383 . S
C627 C630 1.382 . S
C627 H655 0.930 . S
C628 C626 1.369 . S
C628 C630 1.392 . S
C628 H656 0.930 . S
C629 C625 1.373 . S
C629 C627 1.383 . S
C629 H657 0.931 . S
C630 C627 1.382 . S
C630 C628 1.392 . S
C631 Eu622 2.828 . S
C631 C625 1.505 . S
C631 O643 1.249 . S
C631 O644 1.244 . S
O632 Eu623 2.373 . S
O632 C634 1.258 . S
O633 Eu622 2.392 . S
O633 C634 1.242 . S
C634 O632 1.258 . S
C634 O633 1.242 . S
O635 Eu622 2.418 . S
O635 C639 1.244 . S
O636 Eu623 2.488 . S
O636 C652 1.249 . S
O637 Eu623 2.471 . S
O637 C652 1.244 . S
O638 Eu623 2.349 . S
O638 C639 1.265 . S
C639 O635 1.244 . S
C639 O638 1.265 . S
O640 Eu622 2.373 . S
O640 C653 1.258 . S
O641 Eu623 2.392 . S
O641 C653 1.242 . S
O642 Eu623 2.418 . S
O642 C624 1.244 . S
O643 Eu622 2.488 . S
O643 C631 1.249 . S
O644 Eu622 2.471 . S
O644 C631 1.244 . S
O645 Eu622 2.349 . S
O645 C624 1.265 . S
C646 C647 1.379 . S
C646 C650 1.373 . S
C646 C652 1.505 . S
C647 C646 1.379 . S
C647 C649 1.369 . S
C647 H658 0.930 . S
C648 C650 1.383 . S
C648 C651 1.382 . S
C648 H659 0.930 . S
C649 C647 1.369 . S
C649 C651 1.392 . S
C649 H660 0.930 . S
C650 C646 1.373 . S
C650 C648 1.383 . S
C650 H661 0.931 . S
C651 C648 1.382 . S
C651 C649 1.392 . S
C652 Eu623 2.828 . S
C652 O636 1.249 . S
C652 O637 1.244 . S
C652 C646 1.505 . S
C653 O640 1.258 . S
C653 O641 1.242 . S
H654 C626 0.930 . S
H655 C627 0.930 . S
H656 C628 0.930 . S
H657 C629 0.931 . S
H658 C647 0.930 . S
H659 C648 0.930 . S
H660 C649 0.930 . S
H661 C650 0.931 . S
Eu662 C671 2.828 . S
Eu662 O673 2.392 . S
Eu662 O675 2.418 . S
Eu662 O680 2.373 . S
Eu662 O683 2.488 . S
Eu662 O684 2.471 . S
Eu662 O685 2.349 . S
Eu663 O672 2.373 . S
Eu663 O676 2.488 . S
Eu663 O677 2.471 . S
Eu663 O678 2.349 . S
Eu663 O681 2.392 . S
Eu663 O682 2.418 . S
Eu663 C692 2.828 . S
C664 O682 1.244 . S
C664 O685 1.265 . S
C665 C666 1.379 . S
C665 C669 1.373 . S
C665 C671 1.505 . S
C666 C665 1.379 . S
C666 C668 1.369 . S
C666 H694 0.930 . S
C667 C669 1.383 . S
C667 C670 1.382 . S
C667 H695 0.930 . S
C668 C666 1.369 . S
C668 C670 1.392 . S
C668 H696 0.930 . S
C669 C665 1.373 . S
C669 C667 1.383 . S
C669 H697 0.931 . S
C670 C667 1.382 . S
C670 C668 1.392 . S
C671 Eu662 2.828 . S
C671 C665 1.505 . S
C671 O683 1.249 . S
C671 O684 1.244 . S
O672 Eu663 2.373 . S
O672 C674 1.258 . S
O673 Eu662 2.392 . S
O673 C674 1.242 . S
C674 O672 1.258 . S
C674 O673 1.242 . S
O675 Eu662 2.418 . S
O675 C679 1.244 . S
O676 Eu663 2.488 . S
O676 C692 1.249 . S
O677 Eu663 2.471 . S
O677 C692 1.244 . S
O678 Eu663 2.349 . S
O678 C679 1.265 . S
C679 O675 1.244 . S
C679 O678 1.265 . S
O680 Eu662 2.373 . S
O680 C693 1.258 . S
O681 Eu663 2.392 . S
O681 C693 1.242 . S
O682 Eu663 2.418 . S
O682 C664 1.244 . S
O683 Eu662 2.488 . S
O683 C671 1.249 . S
O684 Eu662 2.471 . S
O684 C671 1.244 . S
O685 Eu662 2.349 . S
O685 C664 1.265 . S
C686 C687 1.379 . S
C686 C690 1.373 . S
C686 C692 1.505 . S
C687 C686 1.379 . S
C687 C689 1.369 . S
C687 H698 0.930 . S
C688 C690 1.383 . S
C688 C691 1.382 . S
C688 H699 0.930 . S
C689 C687 1.369 . S
C689 C691 1.392 . S
C689 H700 0.930 . S
C690 C686 1.373 . S
C690 C688 1.383 . S
C690 H701 0.931 . S
C691 C688 1.382 . S
C691 C689 1.392 . S
C692 Eu663 2.828 . S
C692 O676 1.249 . S
C692 O677 1.244 . S
C692 C686 1.505 . S
C693 O680 1.258 . S
C693 O681 1.242 . S
H694 C666 0.930 . S
H695 C667 0.930 . S
H696 C668 0.930 . S
H697 C669 0.931 . S
H698 C687 0.930 . S
H699 C688 0.930 . S
H700 C689 0.930 . S
H701 C690 0.931 . S
H702 C710 0.950 . S
H703 C715 0.950 . S
H704 C712 0.950 . S
H705 C714 0.950 . S
H706 C716 0.950 . S
H707 C718 0.950 . S
H708 C720 0.950 . S
H709 C721 0.950 . S
C710 H702 0.950 . S
C710 C711 1.386 . S
C710 C712 1.391 . S
C711 C710 1.386 . S
C711 C715 1.393 . S
C712 H704 0.950 . S
C712 C710 1.391 . S
C712 C713 1.400 . S
C713 C712 1.400 . S
C713 C714 1.398 . S
C713 C719 1.491 . S
C714 H705 0.950 . S
C714 C713 1.398 . S
C714 C715 1.391 . S
C715 H703 0.950 . S
C715 C711 1.393 . S
C715 C714 1.391 . S
C716 H706 0.950 . S
C716 C717 1.386 . S
C716 C718 1.391 . S
C717 C716 1.386 . S
C717 C721 1.393 . S
C718 H707 0.950 . S
C718 C716 1.391 . S
C718 C719 1.400 . S
C719 C713 1.491 . S
C719 C718 1.400 . S
C719 C720 1.398 . S
C720 H708 0.950 . S
C720 C719 1.398 . S
C720 C721 1.391 . S
C721 H709 0.950 . S
C721 C717 1.393 . S
C721 C720 1.391 . S
H722 C730 0.950 . S
H723 C735 0.950 . S
H724 C732 0.950 . S
H725 C734 0.950 . S
H726 C736 0.950 . S
H727 C738 0.950 . S
H728 C740 0.950 . S
H729 C741 0.950 . S
C730 H722 0.950 . S
C730 C731 1.386 . S
C730 C732 1.391 . S
C731 C730 1.386 . S
C731 C735 1.393 . S
C732 H724 0.950 . S
C732 C730 1.391 . S
C732 C733 1.400 . S
C733 C732 1.400 . S
C733 C734 1.398 . S
C733 C739 1.491 . S
C734 H725 0.950 . S
C734 C733 1.398 . S
C734 C735 1.391 . S
C735 H723 0.950 . S
C735 C731 1.393 . S
C735 C734 1.391 . S
C736 H726 0.950 . S
C736 C737 1.386 . S
C736 C738 1.391 . S
C737 C736 1.386 . S
C737 C741 1.393 . S
C738 H727 0.950 . S
C738 C736 1.391 . S
C738 C739 1.400 . S
C739 C733 1.491 . S
C739 C738 1.400 . S
C739 C740 1.398 . S
C740 H728 0.950 . S
C740 C739 1.398 . S
C740 C741 1.391 . S
C741 H729 0.950 . S
C741 C737 1.393 . S
C741 C740 1.391 . S
H742 C750 0.950 . S
H743 C755 0.950 . S
H744 C752 0.950 . S
H745 C754 0.950 . S
H746 C756 0.950 . S
H747 C758 0.950 . S
H748 C760 0.950 . S
H749 C761 0.950 . S
C750 H742 0.950 . S
C750 C751 1.386 . S
C750 C752 1.391 . S
C751 C750 1.386 . S
C751 C755 1.393 . S
C752 H744 0.950 . S
C752 C750 1.391 . S
C752 C753 1.400 . S
C753 C752 1.400 . S
C753 C754 1.398 . S
C753 C759 1.491 . S
C754 H745 0.950 . S
C754 C753 1.398 . S
C754 C755 1.391 . S
C755 H743 0.950 . S
C755 C751 1.393 . S
C755 C754 1.391 . S
C756 H746 0.950 . S
C756 C757 1.386 . S
C756 C758 1.391 . S
C757 C756 1.386 . S
C757 C761 1.393 . S
C758 H747 0.950 . S
C758 C756 1.391 . S
C758 C759 1.400 . S
C759 C753 1.491 . S
C759 C758 1.400 . S
C759 C760 1.398 . S
C760 H748 0.950 . S
C760 C759 1.398 . S
C760 C761 1.391 . S
C761 H749 0.950 . S
C761 C757 1.393 . S
C761 C760 1.391 . S
H762 C770 0.950 . S
H763 C775 0.950 . S
H764 C772 0.950 . S
H765 C774 0.950 . S
H766 C776 0.950 1_554 S
H767 C778 0.950 . S
H768 C780 0.950 . S
H769 C781 0.950 . S
C770 H762 0.950 . S
C770 C771 1.386 . S
C770 C772 1.391 . S
C771 C770 1.386 . S
C771 C775 1.393 . S
C772 H764 0.950 . S
C772 C770 1.391 . S
C772 C773 1.400 . S
C773 C772 1.400 . S
C773 C774 1.398 . S
C773 C779 1.491 . S
C774 H765 0.950 . S
C774 C773 1.398 . S
C774 C775 1.391 . S
C775 H763 0.950 . S
C775 C771 1.393 . S
C775 C774 1.391 . S
C776 H766 0.950 1_556 S
C776 C777 1.386 . S
C776 C778 1.391 . S
C777 C776 1.386 . S
C777 C781 1.393 . S
C778 H767 0.950 . S
C778 C776 1.391 . S
C778 C779 1.400 . S
C779 C773 1.491 . S
C779 C778 1.400 . S
C779 C780 1.398 . S
C780 H768 0.950 . S
C780 C779 1.398 . S
C780 C781 1.391 . S
C781 H769 0.950 . S
C781 C777 1.393 . S
C781 C780 1.391 . S
H782 C790 0.950 . S
H783 C795 0.950 . S
H784 C792 0.950 . S
H785 C794 0.950 . S
H786 C796 0.950 . S
H787 C798 0.950 1_554 S
H788 C800 0.950 . S
H789 C801 0.950 . S
C790 H782 0.950 . S
C790 C791 1.386 . S
C790 C792 1.391 . S
C791 C790 1.386 . S
C791 C795 1.393 . S
C792 H784 0.950 . S
C792 C790 1.391 . S
C792 C793 1.400 . S
C793 C792 1.400 . S
C793 C794 1.398 . S
C793 C799 1.491 . S
C794 H785 0.950 . S
C794 C793 1.398 . S
C794 C795 1.391 . S
C795 H783 0.950 . S
C795 C791 1.393 . S
C795 C794 1.391 . S
C796 H786 0.950 . S
C796 C797 1.386 1_554 S
C796 C798 1.391 1_554 S
C797 C796 1.386 1_556 S
C797 C801 1.393 . S
C798 H787 0.950 1_556 S
C798 C796 1.391 1_556 S
C798 C799 1.400 . S
C799 C793 1.491 . S
C799 C798 1.400 . S
C799 C800 1.398 . S
C800 H788 0.950 . S
C800 C799 1.398 . S
C800 C801 1.391 . S
C801 H789 0.950 . S
C801 C797 1.393 . S
C801 C800 1.391 . S
H802 C810 0.950 . S
H803 C815 0.950 . S
H804 C812 0.950 . S
H805 C814 0.950 . S
H806 C816 0.950 . S
H807 C818 0.950 . S
H808 C820 0.950 . S
H809 C821 0.950 . S
C810 H802 0.950 . S
C810 C811 1.386 1_554 S
C810 C812 1.391 . S
C811 C810 1.386 1_556 S
C811 C815 1.393 . S
C812 H804 0.950 . S
C812 C810 1.391 . S
C812 C813 1.400 1_554 S
C813 C812 1.400 1_556 S
C813 C814 1.398 . S
C813 C819 1.491 . S
C814 H805 0.950 . S
C814 C813 1.398 . S
C814 C815 1.391 . S
C815 H803 0.950 . S
C815 C811 1.393 . S
C815 C814 1.391 . S
C816 H806 0.950 . S
C816 C817 1.389 . S
C816 C818 1.391 . S
C817 C816 1.389 . S
C817 C821 1.390 1_556 S
C818 H807 0.950 . S
C818 C816 1.391 . S
C818 C819 1.400 . S
C819 C813 1.491 . S
C819 C818 1.400 . S
C819 C820 1.398 1_556 S
C820 H808 0.950 . S
C820 C819 1.398 1_554 S
C820 C821 1.391 . S
C821 H809 0.950 . S
C821 C817 1.390 1_554 S
C821 C820 1.391 . S
H822 C830 0.950 . S
H823 C835 0.950 . S
H824 C832 0.950 . S
H825 C834 0.950 . S
H826 C836 0.950 . S
H827 C838 0.950 . S
H828 C840 0.950 . S
H829 C841 0.950 . S
C830 H822 0.950 . S
C830 C831 1.386 . S
C830 C832 1.391 . S
C831 C830 1.386 . S
C831 C835 1.393 . S
C832 H824 0.950 . S
C832 C830 1.391 . S
C832 C833 1.400 . S
C833 C832 1.400 . S
C833 C834 1.398 . S
C833 C839 1.491 . S
C834 H825 0.950 . S
C834 C833 1.398 . S
C834 C835 1.391 . S
C835 H823 0.950 . S
C835 C831 1.393 . S
C835 C834 1.391 . S
C836 H826 0.950 . S
C836 C837 1.386 . S
C836 C838 1.391 . S
C837 C836 1.386 . S
C837 C841 1.393 . S
C838 H827 0.950 . S
C838 C836 1.391 . S
C838 C839 1.400 . S
C839 C833 1.491 . S
C839 C838 1.400 . S
C839 C840 1.398 . S
C840 H828 0.950 . S
C840 C839 1.398 . S
C840 C841 1.391 . S
C841 H829 0.950 . S
C841 C837 1.393 . S
C841 C840 1.391 . S
H842 C850 0.950 . S
H843 C855 0.950 . S
H844 C852 0.950 . S
H845 C854 0.950 . S
H846 C856 0.950 . S
H847 C858 0.950 . S
H848 C860 0.950 . S
H849 C861 0.950 . S
C850 H842 0.950 . S
C850 C851 1.386 . S
C850 C852 1.391 . S
C851 C850 1.386 . S
C851 C855 1.393 . S
C852 H844 0.950 . S
C852 C850 1.391 . S
C852 C853 1.400 . S
C853 C852 1.400 . S
C853 C854 1.398 . S
C853 C859 1.491 . S
C854 H845 0.950 . S
C854 C853 1.398 . S
C854 C855 1.391 . S
C855 H843 0.950 . S
C855 C851 1.393 . S
C855 C854 1.391 . S
C856 H846 0.950 . S
C856 C857 1.386 . S
C856 C858 1.391 . S
C857 C856 1.386 . S
C857 C861 1.393 . S
C858 H847 0.950 . S
C858 C856 1.391 . S
C858 C859 1.400 . S
C859 C853 1.491 . S
C859 C858 1.400 . S
C859 C860 1.398 . S
C860 H848 0.950 . S
C860 C859 1.398 . S
C860 C861 1.391 . S
C861 H849 0.950 . S
C861 C857 1.393 . S
C861 C860 1.391 . S
H862 C870 0.950 . S
H863 C875 0.950 . S
H864 C872 0.950 . S
H865 C874 0.950 . S
H866 C876 0.950 . S
H867 C878 0.950 . S
H868 C880 0.950 . S
H869 C881 0.950 . S
C870 H862 0.950 . S
C870 C871 1.386 . S
C870 C872 1.391 . S
C871 C870 1.386 . S
C871 C875 1.393 1_554 S
C872 H864 0.950 . S
C872 C870 1.391 . S
C872 C873 1.400 . S
C873 C872 1.400 . S
C873 C874 1.398 1_554 S
C873 C879 1.491 . S
C874 H865 0.950 . S
C874 C873 1.398 1_556 S
C874 C875 1.391 . S
C875 H863 0.950 . S
C875 C871 1.393 1_556 S
C875 C874 1.391 . S
C876 H866 0.950 . S
C876 C877 1.386 1_556 S
C876 C878 1.391 . S
C877 C876 1.386 1_554 S
C877 C881 1.393 . S
C878 H867 0.950 . S
C878 C876 1.391 . S
C878 C879 1.400 1_556 S
C879 C873 1.491 . S
C879 C878 1.400 1_554 S
C879 C880 1.398 . S
C880 H868 0.950 . S
C880 C879 1.398 . S
C880 C881 1.391 . S
C881 H869 0.950 . S
C881 C877 1.393 . S
C881 C880 1.391 . S
H882 C890 0.950 . S
H883 C895 0.950 . S
H884 C892 0.950 . S
H885 C894 0.950 . S
H886 C896 0.950 . S
H887 C898 0.950 . S
H888 C900 0.950 . S
H889 C901 0.950 . S
C890 H882 0.950 . S
C890 C891 1.386 . S
C890 C892 1.391 . S
C891 C890 1.386 . S
C891 C895 1.393 . S
C892 H884 0.950 . S
C892 C890 1.391 . S
C892 C893 1.400 . S
C893 C892 1.400 . S
C893 C894 1.398 . S
C893 C899 1.491 . S
C894 H885 0.950 . S
C894 C893 1.398 . S
C894 C895 1.391 . S
C895 H883 0.950 . S
C895 C891 1.393 . S
C895 C894 1.391 . S
C896 H886 0.950 . S
C896 C897 1.386 . S
C896 C898 1.391 . S
C897 C896 1.386 . S
C897 C901 1.393 . S
C898 H887 0.950 . S
C898 C896 1.391 . S
C898 C899 1.400 . S
C899 C893 1.491 . S
C899 C898 1.400 . S
C899 C900 1.398 . S
C900 H888 0.950 . S
C900 C899 1.398 . S
C900 C901 1.391 . S
C901 H889 0.950 . S
C901 C897 1.393 . S
C901 C900 1.391 . S
H902 C910 0.950 . S
H903 C915 0.950 . S
H904 C912 0.950 . S
H905 C914 0.950 . S
H906 C916 0.950 . S
H907 C918 0.950 . S
H908 C920 0.950 . S
H909 C921 0.950 . S
C910 H902 0.950 . S
C910 C911 1.386 . S
C910 C912 1.391 . S
C911 C910 1.386 . S
C911 C915 1.393 . S
C912 H904 0.950 . S
C912 C910 1.391 . S
C912 C913 1.400 . S
C913 C912 1.400 . S
C913 C914 1.398 . S
C913 C919 1.491 . S
C914 H905 0.950 . S
C914 C913 1.398 . S
C914 C915 1.391 . S
C915 H903 0.950 . S
C915 C911 1.393 . S
C915 C914 1.391 . S
C916 H906 0.950 . S
C916 C917 1.386 . S
C916 C918 1.391 . S
C917 C916 1.386 . S
C917 C921 1.393 . S
C918 H907 0.950 . S
C918 C916 1.391 . S
C918 C919 1.400 . S
C919 C913 1.491 . S
C919 C918 1.400 . S
C919 C920 1.398 . S
C920 H908 0.950 . S
C920 C919 1.398 . S
C920 C921 1.391 . S
C921 H909 0.950 . S
C921 C917 1.393 . S
C921 C920 1.391 . S
H922 C930 0.950 . S
H923 C935 0.950 . S
H924 C932 0.950 . S
H925 C934 0.950 . S
H926 C936 0.950 . S
H927 C938 0.950 . S
H928 C940 0.950 . S
H929 C941 0.950 . S
C930 H922 0.950 . S
C930 C931 1.386 1_556 S
C930 C932 1.391 . S
C931 C930 1.386 1_554 S
C931 C935 1.393 . S
C932 H924 0.950 . S
C932 C930 1.391 . S
C932 C933 1.400 1_556 S
C933 C932 1.400 1_554 S
C933 C934 1.398 . S
C933 C939 1.491 . S
C934 H925 0.950 . S
C934 C933 1.398 . S
C934 C935 1.391 . S
C935 H923 0.950 . S
C935 C931 1.393 . S
C935 C934 1.391 . S
C936 H926 0.950 . S
C936 C937 1.386 . S
C936 C938 1.391 . S
C937 C936 1.386 . S
C937 C941 1.393 1_554 S
C938 H927 0.950 . S
C938 C936 1.391 . S
C938 C939 1.400 . S
C939 C933 1.491 . S
C939 C938 1.400 . S
C939 C940 1.398 1_554 S
C940 H928 0.950 . S
C940 C939 1.398 1_556 S
C940 C941 1.391 . S
C941 H929 0.950 . S
C941 C937 1.393 1_556 S
C941 C940 1.391 . S
H942 C950 0.950 . S
H943 C955 0.950 . S
H944 C952 0.950 . S
H945 C954 0.950 . S
H946 C956 0.950 . S
H947 C958 0.950 1_655 S
H948 C960 0.950 . S
H949 C961 0.950 . S
C950 H942 0.950 . S
C950 C951 1.386 . S
C950 C952 1.391 . S
C951 C950 1.386 . S
C951 C955 1.393 . S
C952 H944 0.950 . S
C952 C950 1.391 . S
C952 C953 1.400 . S
C953 C952 1.400 . S
C953 C954 1.398 . S
C953 C959 1.491 1_655 S
C954 H945 0.950 . S
C954 C953 1.398 . S
C954 C955 1.391 . S
C955 H943 0.950 . S
C955 C951 1.393 . S
C955 C954 1.391 . S
C956 H946 0.950 . S
C956 C957 1.386 . S
C956 C958 1.391 . S
C957 C956 1.386 . S
C957 C961 1.393 . S
C958 H947 0.950 1_455 S
C958 C956 1.391 . S
C958 C959 1.400 . S
C959 C953 1.491 1_455 S
C959 C958 1.400 . S
C959 C960 1.398 . S
C960 H948 0.950 . S
C960 C959 1.398 . S
C960 C961 1.391 . S
C961 H949 0.950 . S
C961 C957 1.393 . S
C961 C960 1.391 . S
H962 C970 0.950 . S
H963 C975 0.950 . S
H964 C972 0.950 . S
H965 C974 0.950 . S
H966 C976 0.950 . S
H967 C978 0.950 . S
H968 C980 0.950 . S
H969 C981 0.950 . S
C970 H962 0.950 . S
C970 C971 1.386 . S
C970 C972 1.391 . S
C971 C970 1.386 . S
C971 C975 1.393 . S
C972 H964 0.950 . S
C972 C970 1.391 . S
C972 C973 1.400 . S
C973 C972 1.400 . S
C973 C974 1.398 . S
C973 C979 1.491 . S
C974 H965 0.950 . S
C974 C973 1.398 . S
C974 C975 1.391 . S
C975 H963 0.950 . S
C975 C971 1.393 . S
C975 C974 1.391 . S
C976 H966 0.950 . S
C976 C977 1.386 . S
C976 C978 1.391 . S
C977 C976 1.386 . S
C977 C981 1.393 . S
C978 H967 0.950 . S
C978 C976 1.391 . S
C978 C979 1.400 . S
C979 C973 1.491 . S
C979 C978 1.400 . S
C979 C980 1.398 . S
C980 H968 0.950 . S
C980 C979 1.398 . S
C980 C981 1.391 . S
C981 H969 0.950 . S
C981 C977 1.393 . S
C981 C980 1.391 . S
H982 C990 0.950 . S
H983 C995 0.950 . S
H984 C992 0.950 . S
H985 C994 0.950 . S
H986 C996 0.950 . S
H987 C998 0.950 . S
H988 C1000 0.950 . S
H989 C1001 0.950 . S
C990 H982 0.950 . S
C990 C991 1.386 . S
C990 C992 1.391 . S
C991 C990 1.386 . S
C991 C995 1.393 . S
C992 H984 0.950 . S
C992 C990 1.391 . S
C992 C993 1.400 . S
C993 C992 1.400 . S
C993 C994 1.398 . S
C993 C999 1.491 . S
C994 H985 0.950 . S
C994 C993 1.398 . S
C994 C995 1.391 . S
C995 H983 0.950 . S
C995 C991 1.393 . S
C995 C994 1.391 . S
C996 H986 0.950 . S
C996 C997 1.386 . S
C996 C998 1.391 1_565 S
C997 C996 1.386 . S
C997 C1001 1.393 . S
C998 H987 0.950 . S
C998 C996 1.391 1_545 S
C998 C999 1.400 . S
C999 C993 1.491 . S
C999 C998 1.400 . S
C999 C1000 1.398 1_545 S
C1000 H988 0.950 . S
C1000 C999 1.398 1_565 S
C1000 C1001 1.391 . S
C1001 H989 0.950 . S
C1001 C997 1.393 . S
C1001 C1000 1.391 . S
H1002 C1010 0.950 . S
H1003 C1015 0.950 . S
H1004 C1012 0.950 . S
H1005 C1014 0.950 . S
H1006 C1016 0.950 . S
H1007 C1018 0.950 . S
H1008 C1020 0.950 . S
H1009 C1021 0.950 . S
C1010 H1002 0.950 . S
C1010 C1011 1.386 . S
C1010 C1012 1.391 . S
C1011 C1010 1.386 . S
C1011 C1015 1.393 . S
C1012 H1004 0.950 . S
C1012 C1010 1.391 . S
C1012 C1013 1.400 . S
C1013 C1012 1.400 . S
C1013 C1014 1.398 . S
C1013 C1019 1.491 . S
C1014 H1005 0.950 . S
C1014 C1013 1.398 . S
C1014 C1015 1.391 . S
C1015 H1003 0.950 . S
C1015 C1011 1.393 . S
C1015 C1014 1.391 . S
C1016 H1006 0.950 . S
C1016 C1017 1.386 . S
C1016 C1018 1.391 . S
C1017 C1016 1.386 . S
C1017 C1021 1.393 . S
C1018 H1007 0.950 . S
C1018 C1016 1.391 . S
C1018 C1019 1.400 . S
C1019 C1013 1.491 . S
C1019 C1018 1.400 . S
C1019 C1020 1.398 . S
C1020 H1008 0.950 . S
C1020 C1019 1.398 . S
C1020 C1021 1.391 . S
C1021 H1009 0.950 . S
C1021 C1017 1.393 . S
C1021 C1020 1.391 . S
H1022 C1030 0.950 . S
H1023 C1035 0.950 . S
H1024 C1032 0.950 . S
H1025 C1034 0.950 . S
H1026 C1036 0.950 . S
H1027 C1038 0.950 . S
H1028 C1040 0.950 . S
H1029 C1041 0.950 . S
C1030 H1022 0.950 . S
C1030 C1031 1.386 . S
C1030 C1032 1.391 . S
C1031 C1030 1.386 . S
C1031 C1035 1.393 . S
C1032 H1024 0.950 . S
C1032 C1030 1.391 . S
C1032 C1033 1.400 . S
C1033 C1032 1.400 . S
C1033 C1034 1.398 . S
C1033 C1039 1.491 . S
C1034 H1025 0.950 . S
C1034 C1033 1.398 . S
C1034 C1035 1.391 . S
C1035 H1023 0.950 . S
C1035 C1031 1.393 . S
C1035 C1034 1.391 . S
C1036 H1026 0.950 . S
C1036 C1037 1.386 . S
C1036 C1038 1.391 . S
C1037 C1036 1.386 . S
C1037 C1041 1.393 . S
C1038 H1027 0.950 . S
C1038 C1036 1.391 . S
C1038 C1039 1.400 . S
C1039 C1033 1.491 . S
C1039 C1038 1.400 . S
C1039 C1040 1.398 . S
C1040 H1028 0.950 . S
C1040 C1039 1.398 . S
C1040 C1041 1.391 . S
C1041 H1029 0.950 . S
C1041 C1037 1.393 . S
C1041 C1040 1.391 . S
H1042 C1050 0.950 . S
H1043 C1055 0.950 . S
H1044 C1052 0.950 . S
H1045 C1054 0.950 . S
H1046 C1056 0.950 . S
H1047 C1058 0.950 . S
H1048 C1060 0.950 . S
H1049 C1061 0.950 . S
C1050 H1042 0.950 . S
C1050 C1051 1.386 . S
C1050 C1052 1.391 . S
C1051 C1050 1.386 . S
C1051 C1055 1.393 . S
C1052 H1044 0.950 . S
C1052 C1050 1.391 . S
C1052 C1053 1.400 . S
C1053 C1052 1.400 . S
C1053 C1054 1.398 . S
C1053 C1059 1.491 . S
C1054 H1045 0.950 . S
C1054 C1053 1.398 . S
C1054 C1055 1.391 . S
C1055 H1043 0.950 . S
C1055 C1051 1.393 . S
C1055 C1054 1.391 . S
C1056 H1046 0.950 . S
C1056 C1057 1.386 . S
C1056 C1058 1.391 . S
C1057 C1056 1.386 . S
C1057 C1061 1.393 . S
C1058 H1047 0.950 . S
C1058 C1056 1.391 . S
C1058 C1059 1.400 . S
C1059 C1053 1.491 . S
C1059 C1058 1.400 . S
C1059 C1060 1.398 . S
C1060 H1048 0.950 . S
C1060 C1059 1.398 . S
C1060 C1061 1.391 . S
C1061 H1049 0.950 . S
C1061 C1057 1.393 . S
C1061 C1060 1.391 . S
H1062 C1070 0.950 . S
H1063 C1075 0.950 . S
H1064 C1072 0.950 . S
H1065 C1074 0.950 . S
H1066 C1076 0.950 . S
H1067 C1078 0.950 . S
H1068 C1080 0.950 . S
H1069 C1081 0.950 . S
C1070 H1062 0.950 . S
C1070 C1071 1.386 . S
C1070 C1072 1.391 . S
C1071 C1070 1.386 . S
C1071 C1075 1.393 . S
C1072 H1064 0.950 . S
C1072 C1070 1.391 . S
C1072 C1073 1.400 . S
C1073 C1072 1.400 . S
C1073 C1074 1.398 . S
C1073 C1079 1.491 . S
C1074 H1065 0.950 . S
C1074 C1073 1.398 . S
C1074 C1075 1.391 . S
C1075 H1063 0.950 . S
C1075 C1071 1.393 . S
C1075 C1074 1.391 . S
C1076 H1066 0.950 . S
C1076 C1077 1.386 . S
C1076 C1078 1.391 . S
C1077 C1076 1.386 . S
C1077 C1081 1.393 . S
C1078 H1067 0.950 . S
C1078 C1076 1.391 . S
C1078 C1079 1.400 . S
C1079 C1073 1.491 . S
C1079 C1078 1.400 . S
C1079 C1080 1.398 . S
C1080 H1068 0.950 . S
C1080 C1079 1.398 . S
C1080 C1081 1.391 . S
C1081 H1069 0.950 . S
C1081 C1077 1.393 . S
C1081 C1080 1.391 . S
H1082 C1090 0.950 . S
H1083 C1095 0.950 . S
H1084 C1092 0.950 . S
H1085 C1094 0.950 . S
H1086 C1096 0.950 . S
H1087 C1098 0.950 . S
H1088 C1100 0.950 . S
H1089 C1101 0.950 . S
C1090 H1082 0.950 . S
C1090 C1091 1.386 . S
C1090 C1092 1.391 . S
C1091 C1090 1.386 . S
C1091 C1095 1.393 . S
C1092 H1084 0.950 . S
C1092 C1090 1.391 . S
C1092 C1093 1.400 . S
C1093 C1092 1.400 . S
C1093 C1094 1.398 . S
C1093 C1099 1.491 . S
C1094 H1085 0.950 . S
C1094 C1093 1.398 . S
C1094 C1095 1.391 . S
C1095 H1083 0.950 . S
C1095 C1091 1.393 . S
C1095 C1094 1.391 . S
C1096 H1086 0.950 . S
C1096 C1097 1.386 . S
C1096 C1098 1.391 . S
C1097 C1096 1.386 . S
C1097 C1101 1.393 . S
C1098 H1087 0.950 . S
C1098 C1096 1.391 . S
C1098 C1099 1.400 . S
C1099 C1093 1.491 . S
C1099 C1098 1.400 . S
C1099 C1100 1.398 . S
C1100 H1088 0.950 . S
C1100 C1099 1.398 . S
C1100 C1101 1.391 . S
C1101 H1089 0.950 . S
C1101 C1097 1.393 . S
C1101 C1100 1.391 . S
H1102 C1110 0.950 . S
H1103 C1115 0.950 . S
H1104 C1112 0.950 . S
H1105 C1114 0.950 . S
H1106 C1116 0.950 . S
H1107 C1118 0.950 . S
H1108 C1120 0.950 . S
H1109 C1121 0.950 . S
C1110 H1102 0.950 . S
C1110 C1111 1.386 . S
C1110 C1112 1.391 . S
C1111 C1110 1.386 . S
C1111 C1115 1.393 . S
C1112 H1104 0.950 . S
C1112 C1110 1.391 . S
C1112 C1113 1.400 . S
C1113 C1112 1.400 . S
C1113 C1114 1.398 . S
C1113 C1119 1.491 . S
C1114 H1105 0.950 . S
C1114 C1113 1.398 . S
C1114 C1115 1.391 . S
C1115 H1103 0.950 . S
C1115 C1111 1.393 . S
C1115 C1114 1.391 . S
C1116 H1106 0.950 . S
C1116 C1117 1.386 . S
C1116 C1118 1.391 . S
C1117 C1116 1.386 . S
C1117 C1121 1.393 . S
C1118 H1107 0.950 . S
C1118 C1116 1.391 . S
C1118 C1119 1.400 . S
C1119 C1113 1.491 . S
C1119 C1118 1.400 . S
C1119 C1120 1.398 . S
C1120 H1108 0.950 . S
C1120 C1119 1.398 . S
C1120 C1121 1.391 . S
C1121 H1109 0.950 . S
C1121 C1117 1.393 . S
C1121 C1120 1.391 . S
H1122 C1130 0.950 1_545 S
H1123 C1135 0.950 1_545 S
H1124 C1132 0.950 . S
H1125 C1134 0.950 . S
H1126 C1136 0.950 . S
H1127 C1138 0.950 . S
H1128 C1140 0.950 . S
H1129 C1141 0.950 . S
C1130 H1122 0.950 1_565 S
C1130 C1131 1.386 1_565 S
C1130 C1132 1.391 . S
C1131 C1130 1.386 1_545 S
C1131 C1135 1.393 1_545 S
C1132 H1124 0.950 . S
C1132 C1130 1.391 . S
C1132 C1133 1.400 . S
C1133 C1132 1.400 . S
C1133 C1134 1.398 . S
C1133 C1139 1.491 . S
C1134 H1125 0.950 . S
C1134 C1133 1.398 . S
C1134 C1135 1.391 . S
C1135 H1123 0.950 1_565 S
C1135 C1131 1.393 1_565 S
C1135 C1134 1.391 . S
C1136 H1126 0.950 . S
C1136 C1137 1.386 . S
C1136 C1138 1.391 . S
C1137 C1136 1.386 . S
C1137 C1141 1.393 . S
C1138 H1127 0.950 . S
C1138 C1136 1.391 . S
C1138 C1139 1.400 . S
C1139 C1133 1.491 . S
C1139 C1138 1.400 . S
C1139 C1140 1.398 . S
C1140 H1128 0.950 . S
C1140 C1139 1.398 . S
C1140 C1141 1.391 . S
C1141 H1129 0.950 . S
C1141 C1137 1.393 . S
C1141 C1140 1.391 . S
H1142 C1150 0.950 . S
H1143 C1155 0.950 . S
H1144 C1152 0.950 . S
H1145 C1154 0.950 . S
H1146 C1156 0.950 . S
H1147 C1158 0.950 . S
H1148 C1160 0.950 . S
H1149 C1161 0.950 . S
C1150 H1142 0.950 . S
C1150 C1151 1.386 . S
C1150 C1152 1.391 . S
C1151 C1150 1.386 . S
C1151 C1155 1.393 . S
C1152 H1144 0.950 . S
C1152 C1150 1.391 . S
C1152 C1153 1.400 . S
C1153 C1152 1.400 . S
C1153 C1154 1.398 . S
C1153 C1159 1.491 . S
C1154 H1145 0.950 . S
C1154 C1153 1.398 . S
C1154 C1155 1.391 . S
C1155 H1143 0.950 . S
C1155 C1151 1.393 . S
C1155 C1154 1.391 . S
C1156 H1146 0.950 . S
C1156 C1157 1.386 . S
C1156 C1158 1.391 . S
C1157 C1156 1.386 . S
C1157 C1161 1.393 . S
C1158 H1147 0.950 . S
C1158 C1156 1.391 . S
C1158 C1159 1.400 . S
C1159 C1153 1.491 . S
C1159 C1158 1.400 . S
C1159 C1160 1.398 . S
C1160 H1148 0.950 . S
C1160 C1159 1.398 . S
C1160 C1161 1.391 . S
C1161 H1149 0.950 . S
C1161 C1157 1.393 . S
C1161 C1160 1.391 . S
H1162 C1170 0.950 . S
H1163 C1175 0.950 . S
H1164 C1172 0.950 . S
H1165 C1174 0.950 . S
H1166 C1176 0.950 . S
H1167 C1178 0.950 . S
H1168 C1180 0.950 . S
H1169 C1181 0.950 . S
C1170 H1162 0.950 . S
C1170 C1171 1.386 . S
C1170 C1172 1.391 . S
C1171 C1170 1.386 . S
C1171 C1175 1.393 . S
C1172 H1164 0.950 . S
C1172 C1170 1.391 . S
C1172 C1173 1.400 . S
C1173 C1172 1.400 . S
C1173 C1174 1.398 . S
C1173 C1179 1.491 . S
C1174 H1165 0.950 . S
C1174 C1173 1.398 . S
C1174 C1175 1.391 . S
C1175 H1163 0.950 . S
C1175 C1171 1.393 . S
C1175 C1174 1.391 . S
C1176 H1166 0.950 . S
C1176 C1177 1.386 . S
C1176 C1178 1.391 . S
C1177 C1176 1.386 . S
C1177 C1181 1.393 . S
C1178 H1167 0.950 . S
C1178 C1176 1.391 . S
C1178 C1179 1.400 . S
C1179 C1173 1.491 . S
C1179 C1178 1.400 . S
C1179 C1180 1.398 . S
C1180 H1168 0.950 . S
C1180 C1179 1.398 . S
C1180 C1181 1.391 . S
C1181 H1169 0.950 . S
C1181 C1177 1.393 . S
C1181 C1180 1.391 . S
H1182 C1190 0.950 . S
H1183 C1195 0.950 . S
H1184 C1192 0.950 . S
H1185 C1194 0.950 . S
H1186 C1196 0.950 . S
H1187 C1198 0.950 . S
H1188 C1200 0.950 . S
H1189 C1201 0.950 . S
C1190 H1182 0.950 . S
C1190 C1191 1.386 . S
C1190 C1192 1.391 . S
C1191 C1190 1.386 . S
C1191 C1195 1.393 . S
C1192 H1184 0.950 . S
C1192 C1190 1.391 . S
C1192 C1193 1.400 . S
C1193 C1192 1.400 . S
C1193 C1194 1.398 . S
C1193 C1199 1.491 . S
C1194 H1185 0.950 . S
C1194 C1193 1.398 . S
C1194 C1195 1.391 . S
C1195 H1183 0.950 . S
C1195 C1191 1.393 . S
C1195 C1194 1.391 . S
C1196 H1186 0.950 . S
C1196 C1197 1.386 . S
C1196 C1198 1.391 . S
C1197 C1196 1.386 . S
C1197 C1201 1.393 . S
C1198 H1187 0.950 . S
C1198 C1196 1.391 . S
C1198 C1199 1.400 . S
C1199 C1193 1.491 . S
C1199 C1198 1.400 . S
C1199 C1200 1.398 . S
C1200 H1188 0.950 . S
C1200 C1199 1.398 . S
C1200 C1201 1.391 . S
C1201 H1189 0.950 . S
C1201 C1197 1.393 . S
C1201 C1200 1.391 . S
H1202 C1210 0.950 . S
H1203 C1215 0.950 . S
H1204 C1212 0.950 . S
H1205 C1214 0.950 . S
H1206 C1216 0.950 . S
H1207 C1218 0.950 . S
H1208 C1220 0.950 . S
H1209 C1221 0.950 . S
C1210 H1202 0.950 . S
C1210 C1211 1.386 . S
C1210 C1212 1.391 . S
C1211 C1210 1.386 . S
C1211 C1215 1.393 . S
C1212 H1204 0.950 . S
C1212 C1210 1.391 . S
C1212 C1213 1.400 . S
C1213 C1212 1.400 . S
C1213 C1214 1.398 . S
C1213 C1219 1.491 . S
C1214 H1205 0.950 . S
C1214 C1213 1.398 . S
C1214 C1215 1.391 . S
C1215 H1203 0.950 . S
C1215 C1211 1.393 . S
C1215 C1214 1.391 . S
C1216 H1206 0.950 . S
C1216 C1217 1.386 . S
C1216 C1218 1.391 . S
C1217 C1216 1.386 . S
C1217 C1221 1.393 . S
C1218 H1207 0.950 . S
C1218 C1216 1.391 . S
C1218 C1219 1.400 . S
C1219 C1213 1.491 . S
C1219 C1218 1.400 . S
C1219 C1220 1.398 . S
C1220 H1208 0.950 . S
C1220 C1219 1.398 . S
C1220 C1221 1.391 . S
C1221 H1209 0.950 . S
C1221 C1217 1.393 . S
C1221 C1220 1.391 . S
H1222 C1230 0.950 . S
H1223 C1235 0.950 . S
H1224 C1232 0.950 . S
H1225 C1234 0.950 . S
H1226 C1236 0.950 . S
H1227 C1238 0.950 . S
H1228 C1240 0.950 . S
H1229 C1241 0.950 . S
C1230 H1222 0.950 . S
C1230 C1231 1.386 . S
C1230 C1232 1.391 . S
C1231 C1230 1.386 . S
C1231 C1235 1.393 . S
C1232 H1224 0.950 . S
C1232 C1230 1.391 . S
C1232 C1233 1.400 . S
C1233 C1232 1.400 . S
C1233 C1234 1.398 . S
C1233 C1239 1.491 . S
C1234 H1225 0.950 . S
C1234 C1233 1.398 . S
C1234 C1235 1.391 . S
C1235 H1223 0.950 . S
C1235 C1231 1.393 . S
C1235 C1234 1.391 . S
C1236 H1226 0.950 . S
C1236 C1237 1.386 . S
C1236 C1238 1.391 . S
C1237 C1236 1.386 . S
C1237 C1241 1.393 . S
C1238 H1227 0.950 . S
C1238 C1236 1.391 . S
C1238 C1239 1.400 . S
C1239 C1233 1.491 . S
C1239 C1238 1.400 . S
C1239 C1240 1.398 . S
C1240 H1228 0.950 . S
C1240 C1239 1.398 . S
C1240 C1241 1.391 . S
C1241 H1229 0.950 . S
C1241 C1237 1.393 . S
C1241 C1240 1.391 . S
H1242 C1250 0.950 . S
H1243 C1255 0.950 . S
H1244 C1252 0.950 . S
H1245 C1254 0.950 . S
H1246 C1256 0.950 . S
H1247 C1258 0.950 . S
H1248 C1260 0.950 1_565 S
H1249 C1261 0.950 . S
C1250 H1242 0.950 . S
C1250 C1251 1.386 . S
C1250 C1252 1.391 . S
C1251 C1250 1.386 . S
C1251 C1255 1.393 . S
C1252 H1244 0.950 . S
C1252 C1250 1.391 . S
C1252 C1253 1.400 . S
C1253 C1252 1.400 . S
C1253 C1254 1.398 . S
C1253 C1259 1.491 1_565 S
C1254 H1245 0.950 . S
C1254 C1253 1.398 . S
C1254 C1255 1.391 . S
C1255 H1243 0.950 . S
C1255 C1251 1.393 . S
C1255 C1254 1.391 . S
C1256 H1246 0.950 . S
C1256 C1257 1.386 . S
C1256 C1258 1.391 . S
C1257 C1256 1.386 . S
C1257 C1261 1.393 . S
C1258 H1247 0.950 . S
C1258 C1256 1.391 . S
C1258 C1259 1.400 . S
C1259 C1253 1.491 1_545 S
C1259 C1258 1.400 . S
C1259 C1260 1.398 . S
C1260 H1248 0.950 1_545 S
C1260 C1259 1.398 . S
C1260 C1261 1.391 . S
C1261 H1249 0.950 . S
C1261 C1257 1.393 . S
C1261 C1260 1.391 . S
H1262 C1270 0.950 . S
H1263 C1275 0.950 . S
H1264 C1272 0.950 . S
H1265 C1274 0.950 1_655 S
H1266 C1276 0.950 . S
H1267 C1278 0.950 . S
H1268 C1280 0.950 1_455 S
H1269 C1281 0.950 . S
C1270 H1262 0.950 . S
C1270 C1271 1.386 . S
C1270 C1272 1.391 . S
C1271 C1270 1.386 . S
C1271 C1275 1.393 . S
C1272 H1264 0.950 . S
C1272 C1270 1.391 . S
C1272 C1273 1.400 . S
C1273 C1272 1.400 . S
C1273 C1274 1.398 . S
C1273 C1279 1.491 1_455 S
C1274 H1265 0.950 1_455 S
C1274 C1273 1.398 . S
C1274 C1275 1.391 . S
C1275 H1263 0.950 . S
C1275 C1271 1.393 . S
C1275 C1274 1.391 . S
C1276 H1266 0.950 . S
C1276 C1277 1.386 . S
C1276 C1278 1.391 . S
C1277 C1276 1.386 . S
C1277 C1281 1.393 . S
C1278 H1267 0.950 . S
C1278 C1276 1.391 . S
C1278 C1279 1.400 . S
C1279 C1273 1.491 1_655 S
C1279 C1278 1.400 . S
C1279 C1280 1.398 . S
C1280 H1268 0.950 1_655 S
C1280 C1279 1.398 . S
C1280 C1281 1.391 . S
C1281 H1269 0.950 . S
C1281 C1277 1.393 . S
C1281 C1280 1.391 . S
H1282 C1290 0.950 . S
H1283 C1295 0.950 . S
H1284 C1292 0.950 . S
H1285 C1294 0.950 . S
H1286 C1296 0.950 . S
H1287 C1298 0.950 . S
H1288 C1300 0.950 . S
H1289 C1301 0.950 . S
C1290 H1282 0.950 . S
C1290 C1291 1.386 . S
C1290 C1292 1.391 . S
C1291 C1290 1.386 . S
C1291 C1295 1.393 . S
C1292 H1284 0.950 . S
C1292 C1290 1.391 . S
C1292 C1293 1.400 . S
C1293 C1292 1.400 . S
C1293 C1294 1.398 . S
C1293 C1299 1.491 . S
C1294 H1285 0.950 . S
C1294 C1293 1.398 . S
C1294 C1295 1.391 . S
C1295 H1283 0.950 . S
C1295 C1291 1.393 . S
C1295 C1294 1.391 . S
C1296 H1286 0.950 . S
C1296 C1297 1.386 . S
C1296 C1298 1.391 . S
C1297 C1296 1.386 . S
C1297 C1301 1.393 . S
C1298 H1287 0.950 . S
C1298 C1296 1.391 . S
C1298 C1299 1.400 . S
C1299 C1293 1.491 . S
C1299 C1298 1.400 . S
C1299 C1300 1.398 . S
C1300 H1288 0.950 . S
C1300 C1299 1.398 . S
C1300 C1301 1.391 . S
C1301 H1289 0.950 . S
C1301 C1297 1.393 . S
C1301 C1300 1.391 . S
H1302 C1310 0.950 1_455 S
H1303 C1315 0.950 1_455 S
H1304 C1312 0.950 . S
H1305 C1314 0.950 . S
H1306 C1316 0.950 . S
H1307 C1318 0.950 . S
H1308 C1320 0.950 . S
H1309 C1321 0.950 . S
C1310 H1302 0.950 1_655 S
C1310 C1311 1.386 1_655 S
C1310 C1312 1.391 . S
C1311 C1310 1.386 1_455 S
C1311 C1315 1.393 1_455 S
C1312 H1304 0.950 . S
C1312 C1310 1.391 . S
C1312 C1313 1.400 . S
C1313 C1312 1.400 . S
C1313 C1314 1.398 . S
C1313 C1319 1.491 . S
C1314 H1305 0.950 . S
C1314 C1313 1.398 . S
C1314 C1315 1.391 . S
C1315 H1303 0.950 1_655 S
C1315 C1311 1.393 1_655 S
C1315 C1314 1.391 . S
C1316 H1306 0.950 . S
C1316 C1317 1.386 . S
C1316 C1318 1.391 . S
C1317 C1316 1.386 . S
C1317 C1321 1.393 . S
C1318 H1307 0.950 . S
C1318 C1316 1.391 . S
C1318 C1319 1.400 . S
C1319 C1313 1.491 . S
C1319 C1318 1.400 . S
C1319 C1320 1.398 . S
C1320 H1308 0.950 . S
C1320 C1319 1.398 . S
C1320 C1321 1.391 . S
C1321 H1309 0.950 . S
C1321 C1317 1.393 . S
C1321 C1320 1.391 . S
H1322 C1330 0.950 . S
H1323 C1335 0.950 . S
H1324 C1332 0.950 . S
H1325 C1334 0.950 . S
H1326 C1336 0.950 . S
H1327 C1338 0.950 . S
H1328 C1340 0.950 . S
H1329 C1341 0.950 . S
C1330 H1322 0.950 . S
C1330 C1331 1.386 . S
C1330 C1332 1.391 . S
C1331 C1330 1.386 . S
C1331 C1335 1.393 . S
C1332 H1324 0.950 . S
C1332 C1330 1.391 . S
C1332 C1333 1.400 . S
C1333 C1332 1.400 . S
C1333 C1334 1.398 . S
C1333 C1339 1.491 . S
C1334 H1325 0.950 . S
C1334 C1333 1.398 . S
C1334 C1335 1.391 . S
C1335 H1323 0.950 . S
C1335 C1331 1.393 . S
C1335 C1334 1.391 . S
C1336 H1326 0.950 . S
C1336 C1337 1.386 . S
C1336 C1338 1.391 . S
C1337 C1336 1.386 . S
C1337 C1341 1.393 . S
C1338 H1327 0.950 . S
C1338 C1336 1.391 . S
C1338 C1339 1.400 . S
C1339 C1333 1.491 . S
C1339 C1338 1.400 . S
C1339 C1340 1.398 . S
C1340 H1328 0.950 . S
C1340 C1339 1.398 . S
C1340 C1341 1.391 . S
C1341 H1329 0.950 . S
C1341 C1337 1.393 . S
C1341 C1340 1.391 . S
H1342 C1350 0.950 1_565 S
H1343 C1355 0.941 1_565 S
H1344 C1352 0.950 . S
H1345 C1354 0.950 . S
H1346 C1356 0.950 . S
H1347 C1358 0.950 . S
H1348 C1360 0.950 . S
H1349 C1361 0.950 . S
C1350 H1342 0.950 1_545 S
C1350 C1351 1.386 1_545 S
C1350 C1352 1.391 . S
C1351 C1350 1.386 1_565 S
C1351 C1355 1.393 1_565 S
C1352 H1344 0.950 . S
C1352 C1350 1.391 . S
C1352 C1353 1.400 . S
C1353 C1352 1.400 . S
C1353 C1354 1.398 . S
C1353 C1359 1.491 . S
C1354 H1345 0.950 . S
C1354 C1353 1.398 . S
C1354 C1355 1.391 . S
C1355 H1343 0.941 1_545 S
C1355 C1351 1.393 1_545 S
C1355 C1354 1.391 . S
C1356 H1346 0.950 . S
C1356 C1357 1.386 . S
C1356 C1358 1.391 . S
C1357 C1356 1.386 . S
C1357 C1361 1.393 . S
C1358 H1347 0.950 . S
C1358 C1356 1.391 . S
C1358 C1359 1.400 . S
C1359 C1353 1.491 . S
C1359 C1358 1.400 . S
C1359 C1360 1.398 . S
C1360 H1348 0.950 . S
C1360 C1359 1.398 . S
C1360 C1361 1.391 . S
C1361 H1349 0.950 . S
C1361 C1357 1.393 . S
C1361 C1360 1.391 . S
H1362 C1370 0.950 . S
H1363 C1375 0.950 . S
H1364 C1372 0.950 . S
H1365 C1374 0.950 . S
H1366 C1376 0.950 . S
H1367 C1378 0.950 . S
H1368 C1380 0.950 . S
H1369 C1381 0.950 . S
C1370 H1362 0.950 . S
C1370 C1371 1.386 . S
C1370 C1372 1.391 . S
C1371 C1370 1.386 . S
C1371 C1375 1.393 . S
C1372 H1364 0.950 . S
C1372 C1370 1.391 . S
C1372 C1373 1.400 . S
C1373 C1372 1.400 . S
C1373 C1374 1.398 . S
C1373 C1379 1.491 . S
C1374 H1365 0.950 . S
C1374 C1373 1.398 . S
C1374 C1375 1.391 . S
C1375 H1363 0.950 . S
C1375 C1371 1.393 . S
C1375 C1374 1.391 . S
C1376 H1366 0.950 . S
C1376 C1377 1.386 . S
C1376 C1378 1.391 . S
C1377 C1376 1.386 . S
C1377 C1381 1.393 . S
C1378 H1367 0.950 . S
C1378 C1376 1.391 . S
C1378 C1379 1.400 . S
C1379 C1373 1.491 . S
C1379 C1378 1.400 . S
C1379 C1380 1.398 . S
C1380 H1368 0.950 . S
C1380 C1379 1.398 . S
C1380 C1381 1.391 . S
C1381 H1369 0.950 . S
C1381 C1377 1.393 . S
C1381 C1380 1.391 . S
H1382 C1390 0.950 . S
H1383 C1395 0.950 . S
H1384 C1392 0.950 . S
H1385 C1394 0.950 . S
H1386 C1396 0.950 . S
H1387 C1398 0.950 . S
H1388 C1400 0.950 . S
H1389 C1401 0.950 . S
C1390 H1382 0.950 . S
C1390 C1391 1.386 . S
C1390 C1392 1.391 . S
C1391 C1390 1.386 . S
C1391 C1395 1.393 . S
C1392 H1384 0.950 . S
C1392 C1390 1.391 . S
C1392 C1393 1.400 . S
C1393 C1392 1.400 . S
C1393 C1394 1.398 . S
C1393 C1399 1.491 . S
C1394 H1385 0.950 . S
C1394 C1393 1.398 . S
C1394 C1395 1.391 . S
C1395 H1383 0.950 . S
C1395 C1391 1.393 . S
C1395 C1394 1.391 . S
C1396 H1386 0.950 . S
C1396 C1397 1.386 . S
C1396 C1398 1.391 . S
C1397 C1396 1.386 . S
C1397 C1401 1.393 . S
C1398 H1387 0.950 . S
C1398 C1396 1.391 . S
C1398 C1399 1.400 . S
C1399 C1393 1.491 . S
C1399 C1398 1.400 . S
C1399 C1400 1.398 . S
C1400 H1388 0.950 . S
C1400 C1399 1.398 . S
C1400 C1401 1.391 . S
C1401 H1389 0.950 . S
C1401 C1397 1.393 . S
C1401 C1400 1.391 . S
H1402 C1410 0.950 . S
H1403 C1415 0.950 . S
H1404 C1412 0.950 . S
H1405 C1414 0.950 . S
H1406 C1416 0.950 . S
H1407 C1418 0.950 . S
H1408 C1420 0.950 . S
H1409 C1421 0.950 . S
C1410 H1402 0.950 . S
C1410 C1411 1.386 . S
C1410 C1412 1.391 . S
C1411 C1410 1.386 . S
C1411 C1415 1.393 . S
C1412 H1404 0.950 . S
C1412 C1410 1.391 . S
C1412 C1413 1.400 . S
C1413 C1412 1.400 . S
C1413 C1414 1.398 . S
C1413 C1419 1.491 . S
C1414 H1405 0.950 . S
C1414 C1413 1.398 . S
C1414 C1415 1.391 . S
C1415 H1403 0.950 . S
C1415 C1411 1.393 . S
C1415 C1414 1.391 . S
C1416 H1406 0.950 . S
C1416 C1417 1.386 . S
C1416 C1418 1.391 . S
C1417 C1416 1.386 . S
C1417 C1421 1.393 . S
C1418 H1407 0.950 . S
C1418 C1416 1.391 . S
C1418 C1419 1.400 . S
C1419 C1413 1.491 . S
C1419 C1418 1.400 . S
C1419 C1420 1.398 . S
C1420 H1408 0.950 . S
C1420 C1419 1.398 . S
C1420 C1421 1.391 . S
C1421 H1409 0.950 . S
C1421 C1417 1.393 . S
C1421 C1420 1.391 . S
H1422 C1430 0.950 . S
H1423 C1435 0.950 . S
H1424 C1432 0.950 . S
H1425 C1434 0.950 . S
H1426 C1436 0.950 . S
H1427 C1438 0.950 . S
H1428 C1440 0.950 . S
H1429 C1441 0.950 . S
C1430 H1422 0.950 . S
C1430 C1431 1.386 . S
C1430 C1432 1.391 . S
C1431 C1430 1.386 . S
C1431 C1435 1.393 . S
C1432 H1424 0.950 . S
C1432 C1430 1.391 . S
C1432 C1433 1.400 . S
C1433 C1432 1.400 . S
C1433 C1434 1.398 . S
C1433 C1439 1.491 . S
C1434 H1425 0.950 . S
C1434 C1433 1.398 . S
C1434 C1435 1.391 . S
C1435 H1423 0.950 . S
C1435 C1431 1.393 . S
C1435 C1434 1.391 . S
C1436 H1426 0.950 . S
C1436 C1437 1.386 . S
C1436 C1438 1.391 . S
C1437 C1436 1.386 . S
C1437 C1441 1.393 . S
C1438 H1427 0.950 . S
C1438 C1436 1.391 . S
C1438 C1439 1.400 . S
C1439 C1433 1.491 . S
C1439 C1438 1.400 . S
C1439 C1440 1.398 . S
C1440 H1428 0.950 . S
C1440 C1439 1.398 . S
C1440 C1441 1.391 . S
C1441 H1429 0.950 . S
C1441 C1437 1.393 . S
C1441 C1440 1.391 . S
H1442 C1450 0.950 . S
H1443 C1455 0.950 . S
H1444 C1452 0.950 . S
H1445 C1454 0.950 . S
H1446 C1456 0.950 . S
H1447 C1458 0.950 . S
H1448 C1460 0.950 . S
H1449 C1461 0.950 . S
C1450 H1442 0.950 . S
C1450 C1451 1.386 . S
C1450 C1452 1.391 . S
C1451 C1450 1.386 . S
C1451 C1455 1.393 . S
C1452 H1444 0.950 . S
C1452 C1450 1.391 . S
C1452 C1453 1.400 . S
C1453 C1452 1.400 . S
C1453 C1454 1.398 . S
C1453 C1459 1.491 . S
C1454 H1445 0.950 . S
C1454 C1453 1.398 . S
C1454 C1455 1.391 . S
C1455 H1443 0.950 . S
C1455 C1451 1.393 . S
C1455 C1454 1.391 . S
C1456 H1446 0.950 . S
C1456 C1457 1.386 . S
C1456 C1458 1.391 . S
C1457 C1456 1.386 . S
C1457 C1461 1.393 . S
C1458 H1447 0.950 . S
C1458 C1456 1.391 . S
C1458 C1459 1.400 . S
C1459 C1453 1.491 . S
C1459 C1458 1.400 . S
C1459 C1460 1.398 . S
C1460 H1448 0.950 . S
C1460 C1459 1.398 . S
C1460 C1461 1.391 . S
C1461 H1449 0.950 . S
C1461 C1457 1.393 . S
C1461 C1460 1.391 . S
H1462 C1470 0.950 . S
H1463 C1475 0.950 . S
H1464 C1472 0.950 . S
H1465 C1474 0.950 . S
H1466 C1476 0.950 . S
H1467 C1478 0.950 . S
H1468 C1480 0.950 . S
H1469 C1481 0.950 . S
C1470 H1462 0.950 . S
C1470 C1471 1.386 . S
C1470 C1472 1.391 . S
C1471 C1470 1.386 . S
C1471 C1475 1.393 . S
C1472 H1464 0.950 . S
C1472 C1470 1.391 . S
C1472 C1473 1.400 . S
C1473 C1472 1.400 . S
C1473 C1474 1.398 . S
C1473 C1479 1.491 . S
C1474 H1465 0.950 . S
C1474 C1473 1.398 . S
C1474 C1475 1.391 . S
C1475 H1463 0.950 . S
C1475 C1471 1.393 . S
C1475 C1474 1.391 . S
C1476 H1466 0.950 . S
C1476 C1477 1.386 . S
C1476 C1478 1.391 . S
C1477 C1476 1.386 . S
C1477 C1481 1.393 . S
C1478 H1467 0.950 . S
C1478 C1476 1.391 . S
C1478 C1479 1.400 . S
C1479 C1473 1.491 . S
C1479 C1478 1.400 . S
C1479 C1480 1.398 . S
C1480 H1468 0.950 . S
C1480 C1479 1.398 . S
C1480 C1481 1.391 . S
C1481 H1469 0.950 . S
C1481 C1477 1.393 . S
C1481 C1480 1.391 . S
H1482 C1490 0.950 . S
H1483 C1495 0.950 . S
H1484 C1492 0.950 . S
H1485 C1494 0.950 . S
H1486 C1496 0.950 . S
H1487 C1498 0.950 . S
H1488 C1500 0.950 . S
H1489 C1501 0.950 . S
C1490 H1482 0.950 . S
C1490 C1491 1.386 . S
C1490 C1492 1.391 . S
C1491 C1490 1.386 . S
C1491 C1495 1.393 . S
C1492 H1484 0.950 . S
C1492 C1490 1.391 . S
C1492 C1493 1.400 . S
C1493 C1492 1.400 . S
C1493 C1494 1.398 . S
C1493 C1499 1.491 . S
C1494 H1485 0.950 . S
C1494 C1493 1.398 . S
C1494 C1495 1.391 . S
C1495 H1483 0.950 . S
C1495 C1491 1.393 . S
C1495 C1494 1.391 . S
C1496 H1486 0.950 . S
C1496 C1497 1.386 . S
C1496 C1498 1.391 . S
C1497 C1496 1.386 . S
C1497 C1501 1.393 . S
C1498 H1487 0.950 . S
C1498 C1496 1.391 . S
C1498 C1499 1.400 . S
C1499 C1493 1.491 . S
C1499 C1498 1.400 . S
C1499 C1500 1.398 . S
C1500 H1488 0.950 . S
C1500 C1499 1.398 . S
C1500 C1501 1.391 . S
C1501 H1489 0.950 . S
C1501 C1497 1.393 . S
C1501 C1500 1.391 . S
H1502 C1510 0.950 . S
H1503 C1515 0.950 . S
H1504 C1512 0.950 . S
H1505 C1514 0.950 . S
H1506 C1516 0.950 . S
H1507 C1518 0.950 . S
H1508 C1520 0.950 . S
H1509 C1521 0.950 . S
C1510 H1502 0.950 . S
C1510 C1511 1.386 . S
C1510 C1512 1.391 . S
C1511 C1510 1.386 . S
C1511 C1515 1.393 . S
C1512 H1504 0.950 . S
C1512 C1510 1.391 . S
C1512 C1513 1.400 . S
C1513 C1512 1.400 . S
C1513 C1514 1.398 . S
C1513 C1519 1.491 . S
C1514 H1505 0.950 . S
C1514 C1513 1.398 . S
C1514 C1515 1.391 . S
C1515 H1503 0.950 . S
C1515 C1511 1.393 . S
C1515 C1514 1.391 . S
C1516 H1506 0.950 . S
C1516 C1517 1.386 . S
C1516 C1518 1.391 . S
C1517 C1516 1.386 . S
C1517 C1521 1.393 . S
C1518 H1507 0.950 . S
C1518 C1516 1.391 . S
C1518 C1519 1.400 . S
C1519 C1513 1.491 . S
C1519 C1518 1.400 . S
C1519 C1520 1.398 . S
C1520 H1508 0.950 . S
C1520 C1519 1.398 . S
C1520 C1521 1.391 . S
C1521 H1509 0.950 . S
C1521 C1517 1.393 . S
C1521 C1520 1.391 . S
H1522 C1530 0.950 . S
H1523 C1535 0.950 . S
H1524 C1532 0.950 . S
H1525 C1534 0.950 . S
H1526 C1536 0.950 . S
H1527 C1538 0.950 . S
H1528 C1540 0.950 . S
H1529 C1541 0.950 . S
C1530 H1522 0.950 . S
C1530 C1531 1.386 . S
C1530 C1532 1.391 . S
C1531 C1530 1.386 . S
C1531 C1535 1.393 . S
C1532 H1524 0.950 . S
C1532 C1530 1.391 . S
C1532 C1533 1.400 . S
C1533 C1532 1.400 . S
C1533 C1534 1.398 . S
C1533 C1539 1.491 . S
C1534 H1525 0.950 . S
C1534 C1533 1.398 . S
C1534 C1535 1.391 . S
C1535 H1523 0.950 . S
C1535 C1531 1.393 . S
C1535 C1534 1.391 . S
C1536 H1526 0.950 . S
C1536 C1537 1.386 . S
C1536 C1538 1.391 . S
C1537 C1536 1.386 . S
C1537 C1541 1.393 . S
C1538 H1527 0.950 . S
C1538 C1536 1.391 . S
C1538 C1539 1.400 . S
C1539 C1533 1.491 . S
C1539 C1538 1.400 . S
C1539 C1540 1.398 . S
C1540 H1528 0.950 . S
C1540 C1539 1.398 . S
C1540 C1541 1.391 . S
C1541 H1529 0.950 . S
C1541 C1537 1.393 . S
C1541 C1540 1.391 . S
H1542 C1550 0.950 . S
H1543 C1555 0.950 . S
H1544 C1552 0.950 . S
H1545 C1554 0.950 . S
H1546 C1556 0.950 . S
H1547 C1558 0.950 . S
H1548 C1560 0.950 . S
H1549 C1561 0.950 . S
C1550 H1542 0.950 . S
C1550 C1551 1.386 . S
C1550 C1552 1.391 . S
C1551 C1550 1.386 . S
C1551 C1555 1.393 . S
C1552 H1544 0.950 . S
C1552 C1550 1.391 . S
C1552 C1553 1.400 . S
C1553 C1552 1.400 . S
C1553 C1554 1.398 . S
C1553 C1559 1.491 . S
C1554 H1545 0.950 . S
C1554 C1553 1.398 . S
C1554 C1555 1.391 . S
C1555 H1543 0.950 . S
C1555 C1551 1.393 . S
C1555 C1554 1.391 . S
C1556 H1546 0.950 . S
C1556 C1557 1.386 . S
C1556 C1558 1.391 . S
C1557 C1556 1.386 . S
C1557 C1561 1.393 . S
C1558 H1547 0.950 . S
C1558 C1556 1.391 . S
C1558 C1559 1.400 . S
C1559 C1553 1.491 . S
C1559 C1558 1.400 . S
C1559 C1560 1.398 . S
C1560 H1548 0.950 . S
C1560 C1559 1.398 . S
C1560 C1561 1.391 . S
C1561 H1549 0.950 . S
C1561 C1557 1.393 . S
C1561 C1560 1.391 . S
H1562 C1570 0.950 . S
H1563 C1575 0.950 . S
H1564 C1572 0.950 . S
H1565 C1574 0.950 . S
H1566 C1576 0.950 . S
H1567 C1578 0.950 . S
H1568 C1580 0.950 . S
H1569 C1581 0.950 . S
C1570 H1562 0.950 . S
C1570 C1571 1.386 . S
C1570 C1572 1.391 . S
C1571 C1570 1.386 . S
C1571 C1575 1.393 . S
C1572 H1564 0.950 . S
C1572 C1570 1.391 . S
C1572 C1573 1.400 . S
C1573 C1572 1.400 . S
C1573 C1574 1.398 . S
C1573 C1579 1.491 . S
C1574 H1565 0.950 . S
C1574 C1573 1.398 . S
C1574 C1575 1.391 . S
C1575 H1563 0.950 . S
C1575 C1571 1.393 . S
C1575 C1574 1.391 . S
C1576 H1566 0.950 . S
C1576 C1577 1.386 . S
C1576 C1578 1.391 . S
C1577 C1576 1.386 . S
C1577 C1581 1.393 . S
C1578 H1567 0.950 . S
C1578 C1576 1.391 . S
C1578 C1579 1.400 . S
C1579 C1573 1.491 . S
C1579 C1578 1.400 . S
C1579 C1580 1.398 . S
C1580 H1568 0.950 . S
C1580 C1579 1.398 . S
C1580 C1581 1.391 . S
C1581 H1569 0.950 . S
C1581 C1577 1.393 . S
C1581 C1580 1.391 . S
H1582 C1590 0.950 . S
H1583 C1595 0.950 . S
H1584 C1592 0.950 . S
H1585 C1594 0.950 . S
H1586 C1596 0.950 . S
H1587 C1598 0.950 . S
H1588 C1600 0.950 . S
H1589 C1601 0.950 . S
C1590 H1582 0.950 . S
C1590 C1591 1.386 . S
C1590 C1592 1.391 . S
C1591 C1590 1.386 . S
C1591 C1595 1.393 . S
C1592 H1584 0.950 . S
C1592 C1590 1.391 . S
C1592 C1593 1.400 . S
C1593 C1592 1.400 . S
C1593 C1594 1.398 . S
C1593 C1599 1.491 . S
C1594 H1585 0.950 . S
C1594 C1593 1.398 . S
C1594 C1595 1.391 . S
C1595 H1583 0.950 . S
C1595 C1591 1.393 . S
C1595 C1594 1.391 . S
C1596 H1586 0.950 . S
C1596 C1597 1.386 . S
C1596 C1598 1.391 . S
C1597 C1596 1.386 . S
C1597 C1601 1.393 . S
C1598 H1587 0.950 . S
C1598 C1596 1.391 . S
C1598 C1599 1.400 . S
C1599 C1593 1.491 . S
C1599 C1598 1.400 . S
C1599 C1600 1.398 . S
C1600 H1588 0.950 . S
C1600 C1599 1.398 . S
C1600 C1601 1.391 . S
C1601 H1589 0.950 . S
C1601 C1597 1.393 . S
C1601 C1600 1.391 . S
H1602 C1610 0.950 . S
H1603 C1615 0.950 . S
H1604 C1612 0.950 . S
H1605 C1614 0.950 . S
H1606 C1616 0.950 . S
H1607 C1618 0.950 . S
H1608 C1620 0.950 . S
H1609 C1621 0.950 . S
C1610 H1602 0.950 . S
C1610 C1611 1.386 . S
C1610 C1612 1.391 . S
C1611 C1610 1.386 . S
C1611 C1615 1.393 . S
C1612 H1604 0.950 . S
C1612 C1610 1.391 . S
C1612 C1613 1.400 . S
C1613 C1612 1.400 . S
C1613 C1614 1.398 . S
C1613 C1619 1.491 . S
C1614 H1605 0.950 . S
C1614 C1613 1.398 . S
C1614 C1615 1.391 . S
C1615 H1603 0.950 . S
C1615 C1611 1.393 . S
C1615 C1614 1.391 . S
C1616 H1606 0.950 . S
C1616 C1617 1.386 . S
C1616 C1618 1.391 . S
C1617 C1616 1.386 . S
C1617 C1621 1.393 . S
C1618 H1607 0.950 . S
C1618 C1616 1.391 . S
C1618 C1619 1.400 . S
C1619 C1613 1.491 . S
C1619 C1618 1.400 . S
C1619 C1620 1.398 . S
C1620 H1608 0.950 . S
C1620 C1619 1.398 . S
C1620 C1621 1.391 . S
C1621 H1609 0.950 . S
C1621 C1617 1.393 . S
C1621 C1620 1.391 . S
H1622 C1630 0.950 . S
H1623 C1635 0.950 . S
H1624 C1632 0.950 . S
H1625 C1634 0.950 . S
H1626 C1636 0.950 . S
H1627 C1638 0.950 . S
H1628 C1640 0.950 . S
H1629 C1641 0.950 . S
C1630 H1622 0.950 . S
C1630 C1631 1.386 . S
C1630 C1632 1.391 . S
C1631 C1630 1.386 . S
C1631 C1635 1.393 . S
C1632 H1624 0.950 . S
C1632 C1630 1.391 . S
C1632 C1633 1.400 . S
C1633 C1632 1.400 . S
C1633 C1634 1.398 . S
C1633 C1639 1.491 . S
C1634 H1625 0.950 . S
C1634 C1633 1.398 . S
C1634 C1635 1.391 . S
C1635 H1623 0.950 . S
C1635 C1631 1.393 . S
C1635 C1634 1.391 . S
C1636 H1626 0.950 . S
C1636 C1637 1.386 . S
C1636 C1638 1.391 . S
C1637 C1636 1.386 . S
C1637 C1641 1.393 . S
C1638 H1627 0.950 . S
C1638 C1636 1.391 . S
C1638 C1639 1.400 . S
C1639 C1633 1.491 . S
C1639 C1638 1.400 . S
C1639 C1640 1.398 . S
C1640 H1628 0.950 . S
C1640 C1639 1.398 . S
C1640 C1641 1.391 . S
C1641 H1629 0.950 . S
C1641 C1637 1.393 . S
C1641 C1640 1.391 . S
H1642 C1650 0.950 . S
H1643 C1655 0.950 . S
H1644 C1652 0.950 . S
H1645 C1654 0.950 . S
H1646 C1656 0.950 . S
H1647 C1658 0.950 . S
H1648 C1660 0.950 . S
H1649 C1661 0.950 . S
C1650 H1642 0.950 . S
C1650 C1651 1.386 . S
C1650 C1652 1.391 . S
C1651 C1650 1.386 . S
C1651 C1655 1.393 . S
C1652 H1644 0.950 . S
C1652 C1650 1.391 . S
C1652 C1653 1.400 . S
C1653 C1652 1.400 . S
C1653 C1654 1.398 . S
C1653 C1659 1.491 . S
C1654 H1645 0.950 . S
C1654 C1653 1.398 . S
C1654 C1655 1.391 . S
C1655 H1643 0.950 . S
C1655 C1651 1.393 . S
C1655 C1654 1.391 . S
C1656 H1646 0.950 . S
C1656 C1657 1.386 . S
C1656 C1658 1.391 . S
C1657 C1656 1.386 . S
C1657 C1661 1.393 . S
C1658 H1647 0.950 . S
C1658 C1656 1.391 . S
C1658 C1659 1.400 . S
C1659 C1653 1.491 . S
C1659 C1658 1.400 . S
C1659 C1660 1.398 . S
C1660 H1648 0.950 . S
C1660 C1659 1.398 . S
C1660 C1661 1.391 . S
C1661 H1649 0.950 . S
C1661 C1657 1.393 . S
C1661 C1660 1.391 . S
H1662 C1670 0.950 . S
H1663 C1675 0.950 . S
H1664 C1672 0.950 . S
H1665 C1674 0.950 . S
H1666 C1676 0.950 . S
H1667 C1678 0.950 . S
H1668 C1680 0.950 . S
H1669 C1681 0.950 . S
C1670 H1662 0.950 . S
C1670 C1671 1.386 . S
C1670 C1672 1.391 . S
C1671 C1670 1.386 . S
C1671 C1675 1.393 . S
C1672 H1664 0.950 . S
C1672 C1670 1.391 . S
C1672 C1673 1.400 . S
C1673 C1672 1.400 . S
C1673 C1674 1.398 . S
C1673 C1679 1.491 . S
C1674 H1665 0.950 . S
C1674 C1673 1.398 . S
C1674 C1675 1.391 . S
C1675 H1663 0.950 . S
C1675 C1671 1.393 . S
C1675 C1674 1.391 . S
C1676 H1666 0.950 . S
C1676 C1677 1.386 . S
C1676 C1678 1.391 . S
C1677 C1676 1.386 . S
C1677 C1681 1.393 . S
C1678 H1667 0.950 . S
C1678 C1676 1.391 . S
C1678 C1679 1.400 . S
C1679 C1673 1.491 . S
C1679 C1678 1.400 . S
C1679 C1680 1.398 . S
C1680 H1668 0.950 . S
C1680 C1679 1.398 . S
C1680 C1681 1.391 . S
C1681 H1669 0.950 . S
C1681 C1677 1.393 . S
C1681 C1680 1.391 . S
H1682 C1690 0.950 . S
H1683 C1695 0.950 . S
H1684 C1692 0.950 . S
H1685 C1694 0.950 . S
H1686 C1696 0.950 . S
H1687 C1698 0.950 . S
H1688 C1700 0.950 . S
H1689 C1701 0.950 . S
C1690 H1682 0.950 . S
C1690 C1691 1.386 . S
C1690 C1692 1.391 . S
C1691 C1690 1.386 . S
C1691 C1695 1.393 . S
C1692 H1684 0.950 . S
C1692 C1690 1.391 . S
C1692 C1693 1.400 . S
C1693 C1692 1.400 . S
C1693 C1694 1.398 . S
C1693 C1699 1.491 . S
C1694 H1685 0.950 . S
C1694 C1693 1.398 . S
C1694 C1695 1.391 . S
C1695 H1683 0.950 . S
C1695 C1691 1.393 . S
C1695 C1694 1.391 . S
C1696 H1686 0.950 . S
C1696 C1697 1.386 . S
C1696 C1698 1.391 . S
C1697 C1696 1.386 . S
C1697 C1701 1.393 . S
C1698 H1687 0.950 . S
C1698 C1696 1.391 . S
C1698 C1699 1.400 . S
C1699 C1693 1.491 . S
C1699 C1698 1.400 . S
C1699 C1700 1.398 . S
C1700 H1688 0.950 . S
C1700 C1699 1.398 . S
C1700 C1701 1.391 . S
C1701 H1689 0.950 . S
C1701 C1697 1.393 . S
C1701 C1700 1.391 . S
H1702 C1710 0.950 . S
H1703 C1715 0.950 . S
H1704 C1712 0.950 . S
H1705 C1714 0.950 . S
H1706 C1716 0.950 . S
H1707 C1718 0.950 . S
H1708 C1720 0.950 . S
H1709 C1721 0.950 . S
C1710 H1702 0.950 . S
C1710 C1711 1.386 . S
C1710 C1712 1.391 . S
C1711 C1710 1.386 . S
C1711 C1715 1.393 . S
C1712 H1704 0.950 . S
C1712 C1710 1.391 . S
C1712 C1713 1.400 . S
C1713 C1712 1.400 . S
C1713 C1714 1.398 . S
C1713 C1719 1.491 . S
C1714 H1705 0.950 . S
C1714 C1713 1.398 . S
C1714 C1715 1.391 . S
C1715 H1703 0.950 . S
C1715 C1711 1.393 . S
C1715 C1714 1.391 . S
C1716 H1706 0.950 . S
C1716 C1717 1.386 . S
C1716 C1718 1.391 . S
C1717 C1716 1.386 . S
C1717 C1721 1.393 . S
C1718 H1707 0.950 . S
C1718 C1716 1.391 . S
C1718 C1719 1.400 . S
C1719 C1713 1.491 . S
C1719 C1718 1.400 . S
C1719 C1720 1.398 . S
C1720 H1708 0.950 . S
C1720 C1719 1.398 . S
C1720 C1721 1.391 . S
C1721 H1709 0.950 . S
C1721 C1717 1.393 . S
C1721 C1720 1.391 . S
H1722 C1730 0.950 . S
H1723 C1735 0.950 . S
H1724 C1732 0.950 . S
H1725 C1734 0.950 . S
H1726 C1736 0.950 . S
H1727 C1738 0.950 . S
H1728 C1740 0.950 . S
H1729 C1741 0.950 . S
C1730 H1722 0.950 . S
C1730 C1731 1.386 . S
C1730 C1732 1.391 . S
C1731 C1730 1.386 . S
C1731 C1735 1.393 . S
C1732 H1724 0.950 . S
C1732 C1730 1.391 . S
C1732 C1733 1.400 . S
C1733 C1732 1.400 . S
C1733 C1734 1.398 . S
C1733 C1739 1.491 . S
C1734 H1725 0.950 . S
C1734 C1733 1.398 . S
C1734 C1735 1.391 . S
C1735 H1723 0.950 . S
C1735 C1731 1.393 . S
C1735 C1734 1.391 . S
C1736 H1726 0.950 . S
C1736 C1737 1.386 . S
C1736 C1738 1.391 . S
C1737 C1736 1.386 . S
C1737 C1741 1.393 . S
C1738 H1727 0.950 . S
C1738 C1736 1.391 . S
C1738 C1739 1.400 . S
C1739 C1733 1.491 . S
C1739 C1738 1.400 . S
C1739 C1740 1.398 . S
C1740 H1728 0.950 . S
C1740 C1739 1.398 . S
C1740 C1741 1.391 . S
C1741 H1729 0.950 . S
C1741 C1737 1.393 . S
C1741 C1740 1.391 . S
H1742 C1750 0.950 . S
H1743 C1755 0.950 . S
H1744 C1752 0.950 . S
H1745 C1754 0.950 . S
H1746 C1756 0.950 . S
H1747 C1758 0.950 . S
H1748 C1760 0.950 . S
H1749 C1761 0.950 . S
C1750 H1742 0.950 . S
C1750 C1751 1.386 . S
C1750 C1752 1.391 . S
C1751 C1750 1.386 . S
C1751 C1755 1.393 . S
C1752 H1744 0.950 . S
C1752 C1750 1.391 . S
C1752 C1753 1.400 . S
C1753 C1752 1.400 . S
C1753 C1754 1.398 . S
C1753 C1759 1.491 . S
C1754 H1745 0.950 . S
C1754 C1753 1.398 . S
C1754 C1755 1.391 . S
C1755 H1743 0.950 . S
C1755 C1751 1.393 . S
C1755 C1754 1.391 . S
C1756 H1746 0.950 . S
C1756 C1757 1.386 . S
C1756 C1758 1.391 . S
C1757 C1756 1.386 . S
C1757 C1761 1.393 . S
C1758 H1747 0.950 . S
C1758 C1756 1.391 . S
C1758 C1759 1.400 . S
C1759 C1753 1.491 . S
C1759 C1758 1.400 . S
C1759 C1760 1.398 . S
C1760 H1748 0.950 . S
C1760 C1759 1.398 . S
C1760 C1761 1.391 . S
C1761 H1749 0.950 . S
C1761 C1757 1.393 . S
C1761 C1760 1.391 . S
H1762 C1770 0.950 . S
H1763 C1775 0.950 . S
H1764 C1772 0.950 . S
H1765 C1774 0.950 . S
H1766 C1776 0.950 . S
H1767 C1778 0.950 . S
H1768 C1780 0.950 . S
H1769 C1781 0.950 . S
C1770 H1762 0.950 . S
C1770 C1771 1.386 . S
C1770 C1772 1.391 . S
C1771 C1770 1.386 . S
C1771 C1775 1.393 . S
C1772 H1764 0.950 . S
C1772 C1770 1.391 . S
C1772 C1773 1.400 . S
C1773 C1772 1.400 . S
C1773 C1774 1.398 . S
C1773 C1779 1.491 . S
C1774 H1765 0.950 . S
C1774 C1773 1.398 . S
C1774 C1775 1.391 . S
C1775 H1763 0.950 . S
C1775 C1771 1.393 . S
C1775 C1774 1.391 . S
C1776 H1766 0.950 . S
C1776 C1777 1.386 . S
C1776 C1778 1.391 . S
C1777 C1776 1.386 . S
C1777 C1781 1.393 . S
C1778 H1767 0.950 . S
C1778 C1776 1.391 . S
C1778 C1779 1.400 . S
C1779 C1773 1.491 . S
C1779 C1778 1.400 . S
C1779 C1780 1.398 . S
C1780 H1768 0.950 . S
C1780 C1779 1.398 . S
C1780 C1781 1.391 . S
C1781 H1769 0.950 . S
C1781 C1777 1.393 . S
C1781 C1780 1.391 . S
C711 C253 1.734 . S
C717 C354 1.741 . S
C731 C272 1.850 . S
C737 C394 1.847 . S
C751 C234 1.624 . S
C757 C424 1.604 . S
C771 C215 1.487 . S
C777 C384 1.463 1_556 S
C797 C434 1.561 . S
C791 C177 1.562 . S
C811 C196 1.395 . S
C817 C344 1.377 1_556 S
C837 C373 1.705 . S
C831 C220 1.549 . S
C857 C413 1.658 . S
C851 C182 1.567 . S
C871 C201 1.620 . S
C877 C439 1.747 . S
C891 C258 1.445 . S
C897 C399 1.528 . S
C911 C277 1.323 . S
C917 C453 1.455 . S
C937 C359 1.544 . S
C931 C239 1.380 . S
C957 C474 1.744 . S
C951 C25 1.728 . S
C971 C44 1.847 . S
C977 C514 1.838 . S
C991 C6 1.623 . S
C997 C544 1.603 . S
C1011 C329 1.474 . S
C1017 C504 1.455 . S
C1031 C291 1.564 . S
C1037 C554 1.559 . S
C1051 C310 1.401 . S
C1057 C464 1.388 . S
C1071 C334 1.554 . S
C1077 C493 1.713 . S
C1091 C296 1.571 . S
C1097 C533 1.661 . S
C1117 C559 1.744 . S
C1111 C315 1.642 . S
C1131 C30 1.459 . S
C1137 C519 1.539 . S
C1157 C573 1.458 . S
C1151 C49 1.337 1_455 S
C1171 C11 1.414 . S
C1177 C479 1.528 . S
C1197 C594 1.739 . S
C1191 C139 1.729 . S
C1211 C158 1.845 . S
C1217 C634 1.841 . S
C1237 C664 1.593 . S
C1231 C120 1.605 . S
C1257 C624 1.446 . S
C1251 C101 1.472 . S
C1277 C674 1.553 . S
C1271 C63 1.563 . S
C1291 C82 1.401 . S
C1297 C584 1.388 . S
C1311 C106 1.546 . S
C1317 C613 1.704 . S
C1331 C68 1.554 . S
C1337 C653 1.667 . S
C1357 C679 1.735 . S
C1351 C87 1.646 . S
C1371 C144 1.458 . S
C1377 C639 1.542 . S
C1391 C163 1.337 . S
C1397 C693 1.458 . S
C1411 C125 1.410 . S
C1417 C599 1.544 . S
C1431 C287 1.577 . S
C1437 C371 1.550 . S
C1457 C411 2.054 . S
C1451 C306 2.089 . S
C1471 C325 1.637 . S
C1477 C430 1.662 . S
C1491 C116 1.849 . S
C1497 C390 1.871 . S
C1511 C135 1.800 . S
C1517 C451 1.778 . S
C1537 C350 1.339 . S
C1531 C154 1.307 . S
C1551 C59 1.577 . S
C1557 C491 1.546 . S
C1571 C78 2.094 . S
C1577 C531 2.060 . S
C1591 C97 1.623 . S
C1597 C550 1.656 . S
C1611 C230 1.864 . S
C1617 C510 1.875 . S
C1637 C571 1.788 . S
C1631 C249 1.809 . S
C1651 C268 1.320 . S
C1657 C470 1.336 . S
C1671 C173 1.587 . S
C1677 C611 1.558 . S
C1691 C192 2.087 . S
C1697 C651 2.051 . S
C1717 C670 1.665 . S
C1711 C211 1.640 . S
C1731 C2 1.864 . S
C1737 C630 1.874 . S
C1751 C21 1.811 . S
C1757 C691 1.791 . S
C1771 C40 1.313 . S
C1777 C590 1.342 . S
