# Generated by pormake.
# Topology dag, (6,3)-cn, num edge types: 1
# Building blocks:
#     Node 0, Type 0, BuildingBlock: MIDCAF_clean_sbu_0, # of connection points: 6
#     Node 1, Type 0, BuildingBlock: MIDCAF_clean_sbu_0, # of connection points: 6
#     Node 2, Type 0, BuildingBlock: MIDCAF_clean_sbu_0, # of connection points: 6
#     Node 3, Type 0, BuildingBlock: MIDCAF_clean_sbu_0, # of connection points: 6
#     Node 4, Type 1, BuildingBlock: BETDAH_clean_linker_0, # of connection points: 3
#     Node 5, Type 1, BuildingBlock: BETDAH_clean_linker_0, # of connection points: 3
#     Node 6, Type 1, BuildingBlock: BETDAH_clean_linker_0, # of connection points: 3
#     Node 7, Type 1, BuildingBlock: BETDAH_clean_linker_0, # of connection points: 3
#     Node 8, Type 1, BuildingBlock: BETDAH_clean_linker_0, # of connection points: 3
#     Node 9, Type 1, BuildingBlock: BETDAH_clean_linker_0, # of connection points: 3
#     Node 10, Type 1, BuildingBlock: BETDAH_clean_linker_0, # of connection points: 3
#     Node 11, Type 1, BuildingBlock: BETDAH_clean_linker_0, # of connection points: 3
#     Edge 12, Type (0, 1), BuildingBlock: EYOCIG_clean_linker_4, # of connection points: 2
#     Edge 13, Type (0, 1), BuildingBlock: EYOCIG_clean_linker_4, # of connection points: 2
#     Edge 14, Type (0, 1), BuildingBlock: EYOCIG_clean_linker_4, # of connection points: 2
#     Edge 15, Type (0, 1), BuildingBlock: EYOCIG_clean_linker_4, # of connection points: 2
#     Edge 16, Type (0, 1), BuildingBlock: EYOCIG_clean_linker_4, # of connection points: 2
#     Edge 17, Type (0, 1), BuildingBlock: EYOCIG_clean_linker_4, # of connection points: 2
#     Edge 18, Type (0, 1), BuildingBlock: EYOCIG_clean_linker_4, # of connection points: 2
#     Edge 19, Type (0, 1), BuildingBlock: EYOCIG_clean_linker_4, # of connection points: 2
#     Edge 20, Type (0, 1), BuildingBlock: EYOCIG_clean_linker_4, # of connection points: 2
#     Edge 21, Type (0, 1), BuildingBlock: EYOCIG_clean_linker_4, # of connection points: 2
#     Edge 22, Type (0, 1), BuildingBlock: EYOCIG_clean_linker_4, # of connection points: 2
#     Edge 23, Type (0, 1), BuildingBlock: EYOCIG_clean_linker_4, # of connection points: 2
#     Edge 24, Type (0, 1), BuildingBlock: EYOCIG_clean_linker_4, # of connection points: 2
#     Edge 25, Type (0, 1), BuildingBlock: EYOCIG_clean_linker_4, # of connection points: 2
#     Edge 26, Type (0, 1), BuildingBlock: EYOCIG_clean_linker_4, # of connection points: 2
#     Edge 27, Type (0, 1), BuildingBlock: EYOCIG_clean_linker_4, # of connection points: 2
#     Edge 28, Type (0, 1), BuildingBlock: EYOCIG_clean_linker_4, # of connection points: 2
#     Edge 29, Type (0, 1), BuildingBlock: EYOCIG_clean_linker_4, # of connection points: 2
#     Edge 30, Type (0, 1), BuildingBlock: EYOCIG_clean_linker_4, # of connection points: 2
#     Edge 31, Type (0, 1), BuildingBlock: EYOCIG_clean_linker_4, # of connection points: 2
#     Edge 32, Type (0, 1), BuildingBlock: EYOCIG_clean_linker_4, # of connection points: 2
#     Edge 33, Type (0, 1), BuildingBlock: EYOCIG_clean_linker_4, # of connection points: 2
#     Edge 34, Type (0, 1), BuildingBlock: EYOCIG_clean_linker_4, # of connection points: 2
#     Edge 35, Type (0, 1), BuildingBlock: EYOCIG_clean_linker_4, # of connection points: 2
# Relax obj value: 0.131
# Max RMSD: 0.142
# Mean RMSD: 0.114
data_MOF--net-dag--node1-MIDCAF_clean_sbu_0--node2-BETDAH_clean_linker_0--edge1-EYOCIG_clean_linker_4
_symmetry_space_group_name_H-M    P1
_symmetry_Int_Tables_number       1
_symmetry_cell_setting            triclinic
loop_
_symmetry_equiv_pos_as_xyz
'x, y, z'
_cell_length_a     32.023973
_cell_length_b     34.284638
_cell_length_c     24.098474
_cell_angle_alpha  92.889765
_cell_angle_beta   90.322849
_cell_angle_gamma 90.173773
loop_
_atom_site_label
_atom_site_type_symbol
_atom_site_fract_x
_atom_site_fract_y
_atom_site_fract_z
_atom_type_partial_charge
Zn0 Zn 0.10734 0.82775 0.18634 0.0
Zn1 Zn 0.1223 0.84193 0.96251 0.0
Zn2 Zn 0.11523 0.83327 0.07456 0.0
C3 C 0.1322 0.91509 1.01632 0.0
C4 C 0.04457 0.80692 0.9843 0.0
O5 O 0.15997 0.78941 0.09981 0.0
O6 O 0.14544 0.78224 0.18864 0.0
C7 C 0.1396 0.90158 0.16723 0.0
O8 O 0.12986 0.89445 0.05932 0.0
O9 O 0.12759 0.8998 0.96795 0.0
O10 O 0.06779 0.81614 0.94489 0.0
O11 O 0.05594 0.8134 0.03529 0.0
O12 O 0.13159 0.88006 0.20676 0.0
O13 O 0.13293 0.88965 0.11643 0.0
O14 O 0.04961 0.81734 0.09289 0.0
O15 O 0.04562 0.82015 0.18489 0.0
C16 C 0.02833 0.81516 0.13789 0.0
O17 O 0.1657 0.79523 0.04318 0.0
O18 O 0.17383 0.81002 0.95522 0.0
C19 C 0.1662 0.77279 0.14572 0.0
C20 C 0.1851 0.79148 0.99663 0.0
Zn21 Zn 0.60494 0.62244 0.40609 0.0
Zn22 Zn 0.62287 0.60213 0.6244 0.0
Zn23 Zn 0.61478 0.61371 0.51475 0.0
C24 C 0.62465 0.52894 0.5681 0.0
C25 C 0.54665 0.64066 0.6054 0.0
O26 O 0.65944 0.65875 0.4913 0.0
O27 O 0.63907 0.67078 0.40576 0.0
C28 C 0.64384 0.55069 0.42037 0.0
O29 O 0.62548 0.55065 0.526 0.0
O30 O 0.62162 0.54387 0.61685 0.0
O31 O 0.57075 0.63126 0.64408 0.0
O32 O 0.55631 0.63345 0.55414 0.0
O33 O 0.63471 0.57352 0.38277 0.0
O34 O 0.63474 0.55919 0.47149 0.0
O35 O 0.54843 0.62881 0.49718 0.0
O36 O 0.54277 0.62492 0.40536 0.0
C37 C 0.52611 0.62956 0.45253 0.0
O38 O 0.66583 0.65114 0.54781 0.0
O39 O 0.67687 0.63088 0.63267 0.0
C40 C 0.66251 0.67818 0.44724 0.0
C41 C 0.6869 0.65204 0.59349 0.0
Zn42 Zn 0.86991 0.12408 0.89813 0.0
Zn43 Zn 0.84267 0.1229 0.11938 0.0
Zn44 Zn 0.85523 0.12516 1.00822 0.0
C45 C 0.9279 0.13398 0.10214 0.0
C46 C 0.81366 0.05297 0.06891 0.0
O47 O 0.81009 0.16517 0.97286 0.0
O48 O 0.81867 0.154 0.88217 0.0
C49 C 0.93954 0.15636 0.95331 0.0
O50 O 0.91516 0.13733 0.05183 0.0
O51 O 0.90294 0.12498 0.13978 0.0
O52 O 0.81253 0.07197 0.11508 0.0
O53 O 0.83084 0.06736 0.02636 0.0
O54 O 0.92432 0.15209 0.905 0.0
O55 O 0.91942 0.14517 0.99577 0.0
O56 O 0.84464 0.06562 0.97166 0.0
O57 O 0.86805 0.06635 0.88528 0.0
C58 C 0.85304 0.048 0.92464 0.0
O59 O 0.81035 0.17107 0.03044 0.0
O60 O 0.81049 0.1724 0.12262 0.0
C61 C 0.79908 0.17012 0.92231 0.0
C62 C 0.7992 0.18662 0.07767 0.0
Zn63 Zn 0.38892 0.35156 0.65837 0.0
Zn64 Zn 0.3465 0.33622 0.46722 0.0
Zn65 Zn 0.35969 0.33897 0.57008 0.0
C66 C 0.43346 0.34499 0.4909 0.0
C67 C 0.29798 0.39702 0.51756 0.0
O68 O 0.33514 0.29168 0.61795 0.0
O69 O 0.33784 0.32855 0.69561 0.0
C70 C 0.41873 0.28201 0.61393 0.0
O71 O 0.42066 0.34885 0.54063 0.0
O72 O 0.40808 0.33867 0.45109 0.0
O73 O 0.31057 0.38445 0.47039 0.0
O74 O 0.3117 0.38226 0.56185 0.0
O75 O 0.4336 0.31337 0.63608 0.0
O76 O 0.38098 0.28137 0.59506 0.0
O77 O 0.33506 0.39188 0.6146 0.0
O78 O 0.39317 0.40954 0.65871 0.0
C79 C 0.35665 0.41755 0.64296 0.0
O80 O 0.33391 0.27968 0.55859 0.0
O81 O 0.3191 0.28367 0.46906 0.0
C82 C 0.32295 0.29928 0.66818 0.0
C83 C 0.31854 0.26481 0.51277 0.0
H84 H 0.11951 0.07578 0.18115 0.0
H85 H 0.19598 0.0917 0.32806 0.0
H86 H 0.10127 0.17607 0.29188 0.0
C87 C 0.12921 0.09359 0.21755 0.0
C88 C 0.10796 0.12805 0.23147 0.0
C89 C 0.16079 0.08041 0.25216 0.0
C90 C 0.17244 0.10263 0.30041 0.0
C91 C 0.1509 0.13753 0.31471 0.0
C92 C 0.11873 0.14994 0.28 0.0
N93 N 0.15794 0.15929 0.36555 0.0
C94 C 0.19345 0.15755 0.39874 0.0
H95 H 0.37517 0.61026 0.67723 0.0
H96 H 0.392 0.68904 0.82036 0.0
H97 H 0.32202 0.58266 0.83359 0.0
C98 C 0.36771 0.61894 0.72 0.0
C99 C 0.34472 0.59372 0.75174 0.0
C100 C 0.38483 0.65326 0.74441 0.0
C101 C 0.37715 0.66347 0.80055 0.0
C102 C 0.35406 0.63799 0.83266 0.0
C103 C 0.33796 0.60315 0.80811 0.0
N104 N 0.35217 0.64412 0.89101 0.0
C105 C 0.32883 0.67412 0.91559 0.0
H106 H 0.83735 0.87095 0.10742 0.0
H107 H 0.80885 0.79936 0.24385 0.0
H108 H 0.722 0.88744 0.19509 0.0
C109 C 0.81556 0.86172 0.13861 0.0
C110 C 0.77796 0.88161 0.14635 0.0
C111 C 0.82668 0.83194 0.17327 0.0
C112 C 0.79958 0.8216 0.21592 0.0
C113 C 0.76134 0.8416 0.22352 0.0
C114 C 0.7506 0.87112 0.18798 0.0
N115 N 0.73387 0.83491 0.26805 0.0
C116 C 0.74039 0.80867 0.30922 0.0
H117 H 0.56644 0.32198 0.58371 0.0
H118 H 0.6291 0.24497 0.69281 0.0
H119 H 0.68647 0.35371 0.65285 0.0
C120 C 0.59351 0.31491 0.60854 0.0
C121 C 0.62659 0.3416 0.61458 0.0
C122 C 0.59455 0.27979 0.63619 0.0
C123 C 0.62871 0.27164 0.67052 0.0
C124 C 0.66203 0.29851 0.67635 0.0
C125 C 0.661 0.3329 0.64755 0.0
N126 N 0.6969 0.2926 0.71132 0.0
C127 C 0.6969 0.26908 0.7565 0.0
H128 H 0.63837 0.38981 0.41006 0.0
H129 H 0.69385 0.36668 0.24967 0.0
H130 H 0.58886 0.29852 0.3007 0.0
C131 C 0.64098 0.37154 0.37205 0.0
C132 C 0.61182 0.34206 0.36093 0.0
C133 C 0.67033 0.38065 0.33204 0.0
C134 C 0.67233 0.35841 0.2816 0.0
C135 C 0.64286 0.32828 0.27048 0.0
C136 C 0.61273 0.32037 0.31034 0.0
N137 N 0.6394 0.30844 0.21769 0.0
C138 C 0.67242 0.30244 0.18142 0.0
H139 H 0.10511 0.11562 0.99433 0.0
H140 H 0.16767 0.19578 0.89088 0.0
H141 H 0.22739 0.08831 0.9322 0.0
C142 C 0.13275 0.12403 0.97181 0.0
C143 C 0.16652 0.09862 0.96741 0.0
C144 C 0.13326 0.1591 0.94464 0.0
C145 C 0.168 0.16908 0.9131 0.0
C146 C 0.20233 0.14339 0.90888 0.0
C147 C 0.2015 0.10852 0.93672 0.0
N148 N 0.23742 0.15051 0.8753 0.0
C149 C 0.23904 0.17883 0.8363 0.0
H150 H 0.32668 0.57108 0.48462 0.0
H151 H 0.31054 0.64276 0.3446 0.0
H152 H 0.21436 0.56141 0.38682 0.0
C153 C 0.30718 0.58144 0.45147 0.0
C154 C 0.2682 0.56414 0.44065 0.0
C155 C 0.32241 0.61004 0.4173 0.0
C156 C 0.29815 0.62162 0.37216 0.0
C157 C 0.25878 0.60404 0.3614 0.0
C158 C 0.24391 0.57588 0.39637 0.0
N159 N 0.23425 0.61149 0.31402 0.0
C160 C 0.2433 0.63876 0.27527 0.0
H161 H 0.88261 0.84549 0.90877 0.0
H162 H 0.88401 0.76167 0.76955 0.0
H163 H 0.82762 0.87442 0.7535 0.0
C164 C 0.87299 0.83669 0.86666 0.0
C165 C 0.85208 0.86324 0.83467 0.0
C166 C 0.88469 0.80017 0.84349 0.0
C167 C 0.87359 0.7893 0.78834 0.0
C168 C 0.85267 0.81627 0.75584 0.0
C169 C 0.84229 0.85321 0.77916 0.0
N170 N 0.84621 0.80879 0.69814 0.0
C171 C 0.82617 0.7755 0.67641 0.0
C172 C 0.16999 0.97098 0.19699 0.0
C173 C 0.15631 0.9398 0.18018 0.0
C174 C 0.17854 0.0085 0.22098 0.0
C175 C 0.17526 0.04122 0.24095 0.0
C176 C 0.47721 0.67165 0.64367 0.0
C177 C 0.50747 0.6582 0.62038 0.0
C178 C 0.44346 0.67805 0.68021 0.0
C179 C 0.41735 0.6718 0.7144 0.0
C180 C 0.78271 -0.0177 0.07185 0.0
C181 C 0.79745 0.01404 0.06563 0.0
C182 C 0.77222 0.94579 0.09184 0.0
C183 C 0.77171 0.91699 0.11822 0.0
C184 C 0.48136 0.23655 0.61287 0.0
C185 C 0.44671 0.2496 0.60817 0.0
C186 C 0.52475 0.23969 0.62291 0.0
C187 C 0.55847 0.25445 0.6324 0.0
C188 C 0.68276 0.48652 0.38633 0.0
C189 C 0.66514 0.51519 0.40494 0.0
C190 C 0.69425 0.4506 0.36014 0.0
C191 C 0.68977 0.41825 0.33936 0.0
C192 C 0.01596 0.18437 0.95878 0.0
C193 C 0.98101 0.17153 0.95956 0.0
C194 C 0.05919 0.18922 0.95204 0.0
C195 C 0.09523 0.18105 0.94447 0.0
C196 C 0.25902 0.46368 0.51408 0.0
C197 C 0.27592 0.43316 0.5215 0.0
C198 C 0.25215 0.50082 0.49395 0.0
C199 C 0.25703 0.52951 0.4681 0.0
C200 C 0.97395 0.77715 0.94659 0.0
C201 C 0.00469 0.78991 0.97026 0.0
C202 C 0.9403 0.77156 0.90902 0.0
C203 C 0.91483 0.77872 0.87405 0.0
C204 C 0.84152 0.97304 0.90157 0.0
C205 C 0.84564 0.00695 0.91594 0.0
C206 C 0.84119 0.93439 0.87895 0.0
C207 C 0.84561 0.90227 0.85736 0.0
C208 C 0.51168 0.3418 0.46069 0.0
C209 C 0.47706 0.34396 0.47935 0.0
C210 C 0.54856 0.33878 0.42967 0.0
C211 C 0.57691 0.33939 0.39738 0.0
C212 C 0.14959 -0.01001 1.01969 0.0
C213 C 0.14178 0.95583 1.02243 0.0
C214 C 0.15794 0.02878 1.00689 0.0
C215 C 0.16267 0.0604 0.98847 0.0
C216 C 0.44391 0.63474 0.44964 0.0
C217 C 0.48135 0.63274 0.45518 0.0
C218 C 0.40067 0.63155 0.43758 0.0
C219 C 0.3649 0.62342 0.4256 0.0
C220 C 0.33068 0.48701 0.67749 0.0
C221 C 0.33927 0.45473 0.65937 0.0
C222 C 0.32868 0.52446 0.704 0.0
C223 C 0.33491 0.55546 0.72827 0.0
C224 C 0.9467 0.80603 0.14261 0.0
C225 C 0.9838 0.80982 0.13601 0.0
C226 C 0.90375 0.80787 0.15581 0.0
C227 C 0.86819 0.81611 0.16773 0.0
C228 C 0.62592 0.452 0.56277 0.0
C229 C 0.62563 0.48709 0.56059 0.0
C230 C 0.62491 0.412 0.57437 0.0
C231 C 0.62401 0.37956 0.59157 0.0
C232 C 0.00522 0.14306 0.13754 0.0
C233 C 0.97101 0.13972 0.11676 0.0
C234 C 0.04254 0.14274 0.16887 0.0
C235 C 0.07197 0.1378 0.19903 0.0
C236 C 0.2227 0.71447 0.17209 0.0
C237 C 0.19727 0.74327 0.14993 0.0
C238 C 0.23763 0.69013 0.20033 0.0
C239 C 0.24536 0.66229 0.24003 0.0
C240 C 0.75045 0.69926 0.61504 0.0
C241 C 0.72125 0.67852 0.60204 0.0
C242 C 0.7777 0.721 0.63218 0.0
C243 C 0.80585 0.74887 0.65588 0.0
C244 C 0.75166 0.24774 0.09482 0.0
C245 C 0.77311 0.22034 0.08079 0.0
C246 C 0.72885 0.27169 0.11639 0.0
C247 C 0.69962 0.29222 0.1498 0.0
C248 C 0.27246 0.24876 0.72855 0.0
C249 C 0.2972 0.27235 0.69574 0.0
C250 C 0.2562 0.22789 0.76075 0.0
C251 C 0.24391 0.2022 0.80133 0.0
C252 C 0.71804 0.73658 0.41812 0.0
C253 C 0.69389 0.70758 0.44228 0.0
C254 C 0.73243 0.76011 0.38803 0.0
C255 C 0.74077 0.78641 0.34631 0.0
C256 C 0.73472 0.21446 0.87869 0.0
C257 C 0.76439 0.19431 0.90954 0.0
C258 C 0.71559 0.23096 0.84378 0.0
C259 C 0.70165 0.25062 0.79724 0.0
C260 C 0.27755 0.20009 0.4916 0.0
C261 C 0.29763 0.22772 0.50972 0.0
C262 C 0.25416 0.17814 0.46598 0.0
C263 C 0.22281 0.16229 0.42994 0.0
C264 C 0.24923 0.74523 0.97825 0.0
C265 C 0.21985 0.76561 0.99035 0.0
C266 C 0.27707 0.7244 0.96159 0.0
C267 C 0.30655 0.69842 0.93753 0.0
loop_
_geom_bond_atom_site_label_1
_geom_bond_atom_site_label_2
_geom_bond_distance
_geom_bond_site_symmetry_2
_ccdc_geom_bond_type
Zn0 O6 1.920 . S
Zn0 O12 1.898 . S
Zn0 O15 1.905 . S
Zn1 O9 1.905 . S
Zn1 O10 1.898 . S
Zn1 O18 1.920 . S
Zn2 O5 2.080 . S
Zn2 O8 2.114 1_554 S
Zn2 O11 2.120 1_554 S
Zn2 O13 2.120 . S
Zn2 O14 2.114 . S
Zn2 O17 2.089 . S
C3 O8 1.166 . S
C3 O9 1.182 . S
C4 O10 1.167 . S
C4 O11 1.299 . S
O5 Zn2 2.080 . S
O5 C19 1.305 . S
O6 Zn0 1.920 . S
O6 C19 1.234 . S
C7 O12 1.167 . S
C7 O13 1.299 . S
O8 Zn2 2.114 1_556 S
O8 C3 1.166 . S
O9 Zn1 1.905 . S
O9 C3 1.182 . S
O10 Zn1 1.898 . S
O10 C4 1.167 . S
O11 Zn2 2.120 1_556 S
O11 C4 1.299 . S
O12 Zn0 1.898 . S
O12 C7 1.167 . S
O13 Zn2 2.120 . S
O13 C7 1.299 . S
O14 Zn2 2.114 . S
O14 C16 1.166 . S
O15 Zn0 1.905 . S
O15 C16 1.182 . S
C16 O14 1.166 . S
C16 O15 1.182 . S
O17 Zn2 2.089 . S
O17 C20 1.290 1_554 S
O18 Zn1 1.920 . S
O18 C20 1.234 . S
C19 O5 1.305 . S
C19 O6 1.234 . S
C20 O17 1.290 1_556 S
C20 O18 1.234 . S
Zn21 O27 1.920 . S
Zn21 O33 1.898 . S
Zn21 O36 1.905 . S
Zn22 O30 1.905 . S
Zn22 O31 1.898 . S
Zn22 O39 1.920 . S
Zn23 O26 2.080 . S
Zn23 O29 2.114 . S
Zn23 O32 2.120 . S
Zn23 O34 2.120 . S
Zn23 O35 2.114 . S
Zn23 O38 2.080 . S
C24 O29 1.166 . S
C24 O30 1.182 . S
C25 O31 1.167 . S
C25 O32 1.299 . S
O26 Zn23 2.080 . S
O26 C40 1.305 . S
O27 Zn21 1.920 . S
O27 C40 1.234 . S
C28 O33 1.167 . S
C28 O34 1.299 . S
O29 Zn23 2.114 . S
O29 C24 1.166 . S
O30 Zn22 1.905 . S
O30 C24 1.182 . S
O31 Zn22 1.898 . S
O31 C25 1.167 . S
O32 Zn23 2.120 . S
O32 C25 1.299 . S
O33 Zn21 1.898 . S
O33 C28 1.167 . S
O34 Zn23 2.120 . S
O34 C28 1.299 . S
O35 Zn23 2.114 . S
O35 C37 1.166 . S
O36 Zn21 1.905 . S
O36 C37 1.182 . S
C37 O35 1.166 . S
C37 O36 1.182 . S
O38 Zn23 2.080 . S
O38 C41 1.305 . S
O39 Zn22 1.920 . S
O39 C41 1.234 . S
C40 O26 1.305 . S
C40 O27 1.234 . S
C41 O38 1.305 . S
C41 O39 1.234 . S
Zn42 O48 1.920 . S
Zn42 O54 1.898 . S
Zn42 O57 1.905 . S
Zn43 O51 1.905 . S
Zn43 O52 1.898 . S
Zn43 O60 1.920 . S
Zn44 O47 2.072 1_554 S
Zn44 O50 2.122 . S
Zn44 O53 2.126 . S
Zn44 O55 2.114 1_554 S
Zn44 O56 2.107 1_554 S
Zn44 O59 2.087 . S
C45 O50 1.166 . S
C45 O51 1.182 . S
C46 O52 1.167 . S
C46 O53 1.299 . S
O47 Zn44 2.072 1_556 S
O47 C61 1.305 . S
O48 Zn42 1.920 . S
O48 C61 1.234 . S
C49 O54 1.167 . S
C49 O55 1.299 . S
O50 Zn44 2.122 . S
O50 C45 1.166 . S
O51 Zn43 1.905 . S
O51 C45 1.182 . S
O52 Zn43 1.898 . S
O52 C46 1.167 . S
O53 Zn44 2.126 . S
O53 C46 1.299 . S
O54 Zn42 1.898 . S
O54 C49 1.167 . S
O55 Zn44 2.114 1_556 S
O55 C49 1.299 . S
O56 Zn44 2.107 1_556 S
O56 C58 1.166 . S
O57 Zn42 1.905 . S
O57 C58 1.182 . S
C58 O56 1.166 . S
C58 O57 1.182 . S
O59 Zn44 2.087 . S
O59 C62 1.305 . S
O60 Zn43 1.920 . S
O60 C62 1.234 . S
C61 O47 1.305 . S
C61 O48 1.234 . S
C62 O59 1.305 . S
C62 O60 1.234 . S
Zn63 O69 1.920 . S
Zn63 O75 1.898 . S
Zn63 O78 1.905 . S
Zn64 O72 1.905 . S
Zn64 O73 1.898 . S
Zn64 O81 1.920 . S
Zn65 O68 2.080 . S
Zn65 O71 2.114 . S
Zn65 O74 2.120 . S
Zn65 O76 2.120 . S
Zn65 O77 2.114 . S
Zn65 O80 2.080 . S
C66 O71 1.166 . S
C66 O72 1.182 . S
C67 O73 1.167 . S
C67 O74 1.299 . S
O68 Zn65 2.080 . S
O68 C82 1.305 . S
O69 Zn63 1.920 . S
O69 C82 1.234 . S
C70 O75 1.167 . S
C70 O76 1.299 . S
O71 Zn65 2.114 . S
O71 C66 1.166 . S
O72 Zn64 1.905 . S
O72 C66 1.182 . S
O73 Zn64 1.898 . S
O73 C67 1.167 . S
O74 Zn65 2.120 . S
O74 C67 1.299 . S
O75 Zn63 1.898 . S
O75 C70 1.167 . S
O76 Zn65 2.120 . S
O76 C70 1.299 . S
O77 Zn65 2.114 . S
O77 C79 1.166 . S
O78 Zn63 1.905 . S
O78 C79 1.182 . S
C79 O77 1.166 . S
C79 O78 1.182 . S
O80 Zn65 2.080 . S
O80 C83 1.305 . S
O81 Zn64 1.920 . S
O81 C83 1.234 . S
C82 O68 1.305 . S
C82 O69 1.234 . S
C83 O80 1.305 . S
C83 O81 1.234 . S
H84 C87 0.929 . S
H85 C90 0.929 . S
H86 C92 0.930 . S
C87 H84 0.929 . S
C87 C88 1.398 . S
C87 C89 1.396 . S
C88 C87 1.398 . S
C88 C92 1.407 . S
C89 C87 1.396 . S
C89 C90 1.394 . S
C90 H85 0.929 . S
C90 C89 1.394 . S
C90 C91 1.382 . S
C91 C90 1.382 . S
C91 C92 1.392 . S
C91 N93 1.420 . S
C92 H86 0.930 . S
C92 C88 1.407 . S
C92 C91 1.392 . S
N93 C91 1.420 . S
N93 C94 1.244 . S
C94 N93 1.244 . S
H95 C98 0.929 . S
H96 C101 0.929 . S
H97 C103 0.930 . S
C98 H95 0.929 . S
C98 C99 1.398 . S
C98 C100 1.396 . S
C99 C98 1.398 . S
C99 C103 1.407 . S
C100 C98 1.396 . S
C100 C101 1.394 . S
C101 H96 0.929 . S
C101 C100 1.394 . S
C101 C102 1.382 . S
C102 C101 1.382 . S
C102 C103 1.392 . S
C102 N104 1.420 . S
C103 H97 0.930 . S
C103 C99 1.407 . S
C103 C102 1.392 . S
N104 C102 1.420 . S
N104 C105 1.244 . S
C105 N104 1.244 . S
H106 C109 0.929 . S
H107 C112 0.929 . S
H108 C114 0.930 . S
C109 H106 0.929 . S
C109 C110 1.398 . S
C109 C111 1.396 . S
C110 C109 1.398 . S
C110 C114 1.407 . S
C111 C109 1.396 . S
C111 C112 1.394 . S
C112 H107 0.929 . S
C112 C111 1.394 . S
C112 C113 1.382 . S
C113 C112 1.382 . S
C113 C114 1.392 . S
C113 N115 1.420 . S
C114 H108 0.930 . S
C114 C110 1.407 . S
C114 C113 1.392 . S
N115 C113 1.420 . S
N115 C116 1.244 . S
C116 N115 1.244 . S
H117 C120 0.929 . S
H118 C123 0.929 . S
H119 C125 0.930 . S
C120 H117 0.929 . S
C120 C121 1.398 . S
C120 C122 1.396 . S
C121 C120 1.398 . S
C121 C125 1.407 . S
C122 C120 1.396 . S
C122 C123 1.394 . S
C123 H118 0.929 . S
C123 C122 1.394 . S
C123 C124 1.382 . S
C124 C123 1.382 . S
C124 C125 1.392 . S
C124 N126 1.420 . S
C125 H119 0.930 . S
C125 C121 1.407 . S
C125 C124 1.392 . S
N126 C124 1.420 . S
N126 C127 1.244 . S
C127 N126 1.244 . S
H128 C131 0.929 . S
H129 C134 0.929 . S
H130 C136 0.930 . S
C131 H128 0.929 . S
C131 C132 1.398 . S
C131 C133 1.396 . S
C132 C131 1.398 . S
C132 C136 1.407 . S
C133 C131 1.396 . S
C133 C134 1.394 . S
C134 H129 0.929 . S
C134 C133 1.394 . S
C134 C135 1.382 . S
C135 C134 1.382 . S
C135 C136 1.392 . S
C135 N137 1.420 . S
C136 H130 0.930 . S
C136 C132 1.407 . S
C136 C135 1.392 . S
N137 C135 1.420 . S
N137 C138 1.244 . S
C138 N137 1.244 . S
H139 C142 0.929 . S
H140 C145 0.929 . S
H141 C147 0.930 . S
C142 H139 0.929 . S
C142 C143 1.398 . S
C142 C144 1.396 . S
C143 C142 1.398 . S
C143 C147 1.407 . S
C144 C142 1.396 . S
C144 C145 1.394 . S
C145 H140 0.929 . S
C145 C144 1.394 . S
C145 C146 1.382 . S
C146 C145 1.382 . S
C146 C147 1.392 . S
C146 N148 1.420 . S
C147 H141 0.930 . S
C147 C143 1.407 . S
C147 C146 1.392 . S
N148 C146 1.420 . S
N148 C149 1.244 . S
C149 N148 1.244 . S
H150 C153 0.929 . S
H151 C156 0.929 . S
H152 C158 0.930 . S
C153 H150 0.929 . S
C153 C154 1.398 . S
C153 C155 1.396 . S
C154 C153 1.398 . S
C154 C158 1.407 . S
C155 C153 1.396 . S
C155 C156 1.394 . S
C156 H151 0.929 . S
C156 C155 1.394 . S
C156 C157 1.382 . S
C157 C156 1.382 . S
C157 C158 1.392 . S
C157 N159 1.420 . S
C158 H152 0.930 . S
C158 C154 1.407 . S
C158 C157 1.392 . S
N159 C157 1.420 . S
N159 C160 1.244 . S
C160 N159 1.244 . S
H161 C164 0.929 . S
H162 C167 0.929 . S
H163 C169 0.930 . S
C164 H161 0.929 . S
C164 C165 1.398 . S
C164 C166 1.396 . S
C165 C164 1.398 . S
C165 C169 1.407 . S
C166 C164 1.396 . S
C166 C167 1.394 . S
C167 H162 0.929 . S
C167 C166 1.394 . S
C167 C168 1.382 . S
C168 C167 1.382 . S
C168 C169 1.392 . S
C168 N170 1.420 . S
C169 H163 0.930 . S
C169 C165 1.407 . S
C169 C168 1.392 . S
N170 C168 1.420 . S
N170 C171 1.244 . S
C171 N170 1.244 . S
C172 C173 1.170 . S
C172 C174 1.380 1_565 S
C173 C172 1.170 . S
C174 C172 1.380 1_545 S
C174 C175 1.170 . S
C175 C174 1.170 . S
C176 C177 1.170 . S
C176 C178 1.380 . S
C177 C176 1.170 . S
C178 C176 1.380 . S
C178 C179 1.170 . S
C179 C178 1.170 . S
C180 C181 1.170 . S
C180 C182 1.380 1_545 S
C181 C180 1.170 . S
C182 C180 1.380 1_565 S
C182 C183 1.170 . S
C183 C182 1.170 . S
C184 C185 1.170 . S
C184 C186 1.380 . S
C185 C184 1.170 . S
C186 C184 1.380 . S
C186 C187 1.170 . S
C187 C186 1.170 . S
C188 C189 1.170 . S
C188 C190 1.380 . S
C189 C188 1.170 . S
C190 C188 1.380 . S
C190 C191 1.170 . S
C191 C190 1.170 . S
C192 C193 1.170 1_455 S
C192 C194 1.380 . S
C193 C192 1.170 1_655 S
C194 C192 1.380 . S
C194 C195 1.170 . S
C195 C194 1.170 . S
C196 C197 1.170 . S
C196 C198 1.380 . S
C197 C196 1.170 . S
C198 C196 1.380 . S
C198 C199 1.170 . S
C199 C198 1.170 . S
C200 C201 1.170 . S
C200 C202 1.380 1_455 S
C201 C200 1.170 . S
C202 C200 1.380 1_655 S
C202 C203 1.170 . S
C203 C202 1.170 . S
C204 C205 1.170 1_565 S
C204 C206 1.380 . S
C205 C204 1.170 1_545 S
C206 C204 1.380 . S
C206 C207 1.170 . S
C207 C206 1.170 . S
C208 C209 1.170 . S
C208 C210 1.380 . S
C209 C208 1.170 . S
C210 C208 1.380 . S
C210 C211 1.170 . S
C211 C210 1.170 . S
C212 C213 1.170 1_545 S
C212 C214 1.380 . S
C213 C212 1.170 1_565 S
C214 C212 1.380 . S
C214 C215 1.170 . S
C215 C214 1.170 . S
C216 C217 1.170 . S
C216 C218 1.380 . S
C217 C216 1.170 . S
C218 C216 1.380 . S
C218 C219 1.170 . S
C219 C218 1.170 . S
C220 C221 1.170 . S
C220 C222 1.380 . S
C221 C220 1.170 . S
C222 C220 1.380 . S
C222 C223 1.170 . S
C223 C222 1.170 . S
C224 C225 1.170 . S
C224 C226 1.380 . S
C225 C224 1.170 . S
C226 C224 1.380 . S
C226 C227 1.170 . S
C227 C226 1.170 . S
C228 C229 1.170 . S
C228 C230 1.380 . S
C229 C228 1.170 . S
C230 C228 1.380 . S
C230 C231 1.170 . S
C231 C230 1.170 . S
C232 C233 1.170 1_455 S
C232 C234 1.380 . S
C233 C232 1.170 1_655 S
C234 C232 1.380 . S
C234 C235 1.170 . S
C235 C234 1.170 . S
C236 C237 1.170 . S
C236 C238 1.380 . S
C237 C236 1.170 . S
C238 C236 1.380 . S
C238 C239 1.170 . S
C239 C238 1.170 . S
C240 C241 1.170 . S
C240 C242 1.380 . S
C241 C240 1.170 . S
C242 C240 1.380 . S
C242 C243 1.170 . S
C243 C242 1.170 . S
C244 C245 1.170 . S
C244 C246 1.380 . S
C245 C244 1.170 . S
C246 C244 1.380 . S
C246 C247 1.170 . S
C247 C246 1.170 . S
C248 C249 1.170 . S
C248 C250 1.380 . S
C249 C248 1.170 . S
C250 C248 1.380 . S
C250 C251 1.170 . S
C251 C250 1.170 . S
C252 C253 1.170 . S
C252 C254 1.380 . S
C253 C252 1.170 . S
C254 C252 1.380 . S
C254 C255 1.170 . S
C255 C254 1.170 . S
C256 C257 1.170 . S
C256 C258 1.380 . S
C257 C256 1.170 . S
C258 C256 1.380 . S
C258 C259 1.170 . S
C259 C258 1.170 . S
C260 C261 1.170 . S
C260 C262 1.380 . S
C261 C260 1.170 . S
C262 C260 1.380 . S
C262 C263 1.170 . S
C263 C262 1.170 . S
C264 C265 1.170 . S
C264 C266 1.380 . S
C265 C264 1.170 . S
C266 C264 1.380 . S
C266 C267 1.170 . S
C267 C266 1.170 . S
C173 C7 0.984 . S
C175 C89 0.986 . S
C177 C25 1.019 . S
C179 C100 1.042 . S
C181 C46 0.978 . S
C183 C110 1.036 . S
C187 C122 0.945 . S
C185 C70 0.935 . S
C191 C133 0.935 . S
C189 C28 0.897 . S
C193 C49 0.932 . S
C195 C144 0.946 . S
C197 C67 0.948 . S
C199 C154 0.990 . S
C201 C4 0.973 . S
C203 C166 1.048 . S
C205 C58 1.494 . S
C207 C165 1.633 . S
C211 C132 1.522 . S
C209 C66 1.475 . S
C215 C143 1.618 . S
C213 C3 1.603 . S
C217 C37 1.674 . S
C219 C155 1.700 . S
C223 C99 1.612 . S
C221 C79 1.536 . S
C225 C16 1.656 1_655 S
C227 C111 1.706 . S
C231 C121 1.617 . S
C229 C24 1.603 . S
C235 C88 1.521 . S
C233 C45 1.476 . S
C239 C160 1.491 . S
C237 C19 1.354 . S
C243 C171 1.491 . S
C241 C41 1.378 . S
C245 C62 1.285 . S
C247 C138 1.397 . S
C251 C149 1.364 . S
C249 C82 1.230 . S
C255 C116 1.469 . S
C253 C40 1.308 . S
C257 C61 1.257 . S
C259 C127 1.363 . S
C263 C94 1.391 . S
C261 C83 1.251 . S
C267 C105 1.490 . S
C265 C20 1.373 . S
