# Generated by pormake.
# Topology pth, (4,4)-cn, num edge types: 1
# Building blocks:
#     Node 0, Type 0, BuildingBlock: CEKHIL_clean_sbu_0, # of connection points: 4
#     Node 1, Type 0, BuildingBlock: CEKHIL_clean_sbu_0, # of connection points: 4
#     Node 2, Type 0, BuildingBlock: CEKHIL_clean_sbu_0, # of connection points: 4
#     Node 3, Type 1, BuildingBlock: AZAVOO_clean_linker_0, # of connection points: 4
#     Node 4, Type 1, BuildingBlock: AZAVOO_clean_linker_0, # of connection points: 4
#     Node 5, Type 1, BuildingBlock: AZAVOO_clean_linker_0, # of connection points: 4
#     Edge 6, Type (0, 1), BuildingBlock: AJUNOK_clean_linker_0, # of connection points: 2
#     Edge 7, Type (0, 1), BuildingBlock: AJUNOK_clean_linker_0, # of connection points: 2
#     Edge 8, Type (0, 1), BuildingBlock: AJUNOK_clean_linker_0, # of connection points: 2
#     Edge 9, Type (0, 1), BuildingBlock: AJUNOK_clean_linker_0, # of connection points: 2
#     Edge 10, Type (0, 1), BuildingBlock: AJUNOK_clean_linker_0, # of connection points: 2
#     Edge 11, Type (0, 1), BuildingBlock: AJUNOK_clean_linker_0, # of connection points: 2
#     Edge 12, Type (0, 1), BuildingBlock: AJUNOK_clean_linker_0, # of connection points: 2
#     Edge 13, Type (0, 1), BuildingBlock: AJUNOK_clean_linker_0, # of connection points: 2
#     Edge 14, Type (0, 1), BuildingBlock: AJUNOK_clean_linker_0, # of connection points: 2
#     Edge 15, Type (0, 1), BuildingBlock: AJUNOK_clean_linker_0, # of connection points: 2
#     Edge 16, Type (0, 1), BuildingBlock: AJUNOK_clean_linker_0, # of connection points: 2
#     Edge 17, Type (0, 1), BuildingBlock: AJUNOK_clean_linker_0, # of connection points: 2
# Relax obj value: 0.122
# Max RMSD: 0.225
# Mean RMSD: 0.145
data_MOF--net-pth--node1-CEKHIL_clean_sbu_0--node2-AZAVOO_clean_linker_0--edge1-AJUNOK_clean_linker_0
_symmetry_space_group_name_H-M    P1
_symmetry_Int_Tables_number       1
_symmetry_cell_setting            triclinic
loop_
_symmetry_equiv_pos_as_xyz
'x, y, z'
_cell_length_a     20.126952
_cell_length_b     20.470141
_cell_length_c     55.492852
_cell_angle_alpha  93.730462
_cell_angle_beta   88.508987
_cell_angle_gamma 120.36378
loop_
_atom_site_label
_atom_site_type_symbol
_atom_site_fract_x
_atom_site_fract_y
_atom_site_fract_z
_atom_type_partial_charge
Co0 Co 0.12377 0.08551 0.0992 0.0
O1 O 0.06126 0.9983 0.11718 0.0
O2 O 0.16588 0.01849 0.09724 0.0
C3 C 0.12866 0.16815 0.12908 0.0
O4 O 0.20384 0.17038 0.07926 0.0
Co5 Co 0.06357 0.19 0.08583 0.0
O6 O 0.17218 0.26062 0.07767 0.0
C7 C 0.01471 0.04663 0.05669 0.0
C8 C 0.11021 0.97649 0.11159 0.0
C9 C 0.21894 0.23658 0.07366 0.0
O10 O 0.05863 0.0336 0.0695 0.0
O11 O 0.00586 0.10402 0.06098 0.0
O12 O 0.17621 0.1429 0.12873 0.0
O13 O 0.07701 0.13984 0.11209 0.0
Co14 Co 0.08638 0.09992 0.41334 0.0
O15 O 0.03105 0.12448 0.39113 0.0
O16 O 0.13792 0.20858 0.41043 0.0
C17 C 0.08408 0.00392 0.38984 0.0
O18 O 0.16125 0.09696 0.43661 0.0
Co19 Co 0.01228 0.94099 0.4348 0.0
O20 O 0.11958 0.97605 0.44475 0.0
C21 C 0.97224 0.05421 0.45471 0.0
C22 C 0.0847 0.19494 0.3948 0.0
C23 C 0.17051 0.04628 0.44603 0.0
O24 O 0.0235 0.10577 0.44164 0.0
O25 O 0.95524 0.98478 0.45297 0.0
O26 O 0.13482 0.07402 0.38619 0.0
O27 O 0.03295 0.99492 0.40581 0.0
Co28 Co 0.10297 0.108 0.75171 0.0
O29 O 0.17838 0.15175 0.72691 0.0
O30 O 0.16529 0.05996 0.74895 0.0
C31 C 0.00343 0.09637 0.72991 0.0
O32 O 0.02985 0.04716 0.77845 0.0
Co33 Co 0.02488 0.19494 0.77353 0.0
O34 O 0.96262 0.10276 0.79166 0.0
C35 C 0.1881 0.2521 0.78336 0.0
C36 C 0.2024 0.10627 0.73208 0.0
C37 C 0.97786 0.04948 0.79198 0.0
O38 O 0.17833 0.187 0.77593 0.0
O39 O 0.13594 0.26978 0.78159 0.0
O40 O 0.02338 0.04497 0.72747 0.0
O41 O 0.04762 0.15485 0.7439 0.0
H42 H 0.07132 0.41456 0.103 0.0
H43 H 0.16167 0.04626 0.30431 0.0
H44 H 0.00385 0.39254 0.24621 0.0
H45 H 0.00265 0.2909 0.21999 0.0
H46 H 0.24824 0.43053 0.21033 0.0
H47 H 0.24928 0.52985 0.23737 0.0
H48 H 0.00434 0.47499 0.20244 0.0
H49 H 0.00918 0.4352 0.1602 0.0
H50 H 0.25521 0.59013 0.16016 0.0
H51 H 0.24903 0.63109 0.20223 0.0
H52 H -5e-05 0.60745 0.20541 0.0
H53 H 0.99737 0.67514 0.17098 0.0
H54 H 0.23149 0.85198 0.18729 0.0
H55 H 0.23462 0.78195 0.22103 0.0
H56 H 0.99161 0.68913 0.2576 0.0
H57 H 0.98405 0.80202 0.27039 0.0
H58 H 0.22754 0.9234 0.28739 0.0
H59 H 0.23418 0.81026 0.27447 0.0
H60 H 0.98369 0.60608 0.30106 0.0
H61 H 0.97794 0.69195 0.33238 0.0
H62 H 0.22368 0.79929 0.34348 0.0
H63 H 0.22906 0.71404 0.31134 0.0
H64 H 0.9941 0.47497 0.30242 0.0
H65 H 0.98585 0.39252 0.33396 0.0
H66 H 0.22315 0.45612 0.32146 0.0
H67 H 0.23133 0.53942 0.29029 0.0
O68 O 0.07055 0.43205 0.11956 0.0
O69 O 0.1975 0.50934 0.12093 0.0
O70 O 0.03933 0.93824 0.28818 0.0
O71 O 0.16359 0.00185 0.29821 0.0
C72 C 0.12287 0.53784 0.24995 0.0
C73 C 0.12293 0.58051 0.23085 0.0
C74 C 0.11941 0.64687 0.23583 0.0
C75 C 0.11609 0.67104 0.2599 0.0
C76 C 0.11369 0.62734 0.27908 0.0
C77 C 0.1171 0.56041 0.27419 0.0
C78 C 0.12658 0.46853 0.24353 0.0
C79 C 0.05787 0.39935 0.23947 0.0
C80 C 0.05709 0.34217 0.22407 0.0
C81 C 0.12489 0.35418 0.21237 0.0
C82 C 0.19499 0.41983 0.21891 0.0
C83 C 0.19585 0.47644 0.23454 0.0
C84 C 0.12639 0.55551 0.20535 0.0
C85 C 0.05917 0.50017 0.19325 0.0
C86 C 0.06216 0.47752 0.16915 0.0
C87 C 0.1327 0.50891 0.15686 0.0
C88 C 0.2 0.56453 0.16912 0.0
C89 C 0.19671 0.58798 0.19312 0.0
C90 C 0.11748 0.68988 0.21563 0.0
C91 C 0.05087 0.66045 0.20136 0.0
C92 C 0.04952 0.6991 0.18174 0.0
C93 C 0.11463 0.76826 0.17619 0.0
C94 C 0.18121 0.79777 0.19067 0.0
C95 C 0.18272 0.75861 0.21016 0.0
C96 C 0.11336 0.74169 0.26519 0.0
C97 C 0.04337 0.74054 0.26378 0.0
C98 C 0.03919 0.80493 0.27121 0.0
C99 C 0.10514 0.8716 0.28009 0.0
C100 C 0.17563 0.87298 0.28076 0.0
C101 C 0.17969 0.80858 0.27332 0.0
C102 C 0.1067 0.65371 0.30399 0.0
C103 C 0.03562 0.64528 0.31115 0.0
C104 C 0.03258 0.69485 0.32903 0.0
C105 C 0.10053 0.75279 0.34031 0.0
C106 C 0.17056 0.75556 0.33493 0.0
C107 C 0.17357 0.70609 0.3169 0.0
C108 C 0.11344 0.51357 0.29413 0.0
C109 C 0.0446 0.47193 0.30675 0.0
C110 C 0.03987 0.42463 0.32466 0.0
C111 C 0.10407 0.4184 0.33038 0.0
C112 C 0.17319 0.46089 0.31785 0.0
C113 C 0.1778 0.50801 0.2999 0.0
C114 C 0.13586 0.48367 0.13138 0.0
C115 C 0.10042 0.9391 0.28899 0.0
H116 H 0.70001 0.05541 0.4374 0.0
H117 H 0.21147 0.19445 0.63193 0.0
H118 H 0.69322 0.0057 0.57995 0.0
H119 H 0.77925 0.99318 0.55056 0.0
H120 H 0.88808 0.23221 0.5389 0.0
H121 H 0.80634 0.24528 0.56986 0.0
H122 H 0.58226 0.00548 0.53598 0.0
H123 H 0.61669 0.00337 0.49343 0.0
H124 H 0.74537 0.24862 0.49743 0.0
H125 H 0.70837 0.2498 0.53978 0.0
H126 H 0.42238 1.00008 0.55734 0.0
H127 H 0.33707 0.98966 0.52496 0.0
H128 H 0.4868 0.2273 0.51289 0.0
H129 H 0.56947 0.23808 0.54646 0.0
H130 H 0.38746 0.9978 0.60351 0.0
H131 H 0.27065 1.00023 0.61528 0.0
H132 H 0.39987 0.24544 0.61825 0.0
H133 H 0.51657 0.24207 0.60691 0.0
H134 H 0.47074 0.98735 0.63698 0.0
H135 H 0.38919 0.98684 0.67045 0.0
H136 H 0.54397 0.2269 0.68517 0.0
H137 H 0.6223 0.22772 0.65057 0.0
H138 H 0.61604 0.99494 0.63412 0.0
H139 H 0.69622 0.98624 0.66496 0.0
H140 H 0.86972 0.22002 0.65631 0.0
H141 H 0.78911 0.22855 0.62573 0.0
O142 O 0.68479 0.05762 0.45397 0.0
O143 O 0.74973 0.18375 0.45692 0.0
O144 O 0.19543 0.06631 0.62852 0.0
O145 O 0.25676 0.19184 0.62723 0.0
C146 C 0.67188 0.12654 0.58479 0.0
C147 C 0.62384 0.12828 0.56692 0.0
C148 C 0.55398 0.12424 0.57343 0.0
C149 C 0.53157 0.11846 0.59777 0.0
C150 C 0.5778 0.11393 0.61566 0.0
C151 C 0.64821 0.11787 0.60921 0.0
C152 C 0.74244 0.12607 0.57663 0.0
C153 C 0.73857 0.05612 0.57208 0.0
C154 C 0.78647 0.04881 0.5548 0.0
C155 C 0.83716 0.11088 0.54136 0.0
C156 C 0.84862 0.18298 0.54856 0.0
C157 C 0.80223 0.19065 0.56639 0.0
C158 C 0.64348 0.12774 0.54094 0.0
C159 C 0.61754 0.05862 0.52756 0.0
C160 C 0.63753 0.05763 0.5033 0.0
C161 C 0.6847 0.12582 0.49211 0.0
C162 C 0.70942 0.19507 0.50553 0.0
C163 C 0.68844 0.19596 0.5297 0.0
C164 C 0.50141 0.11995 0.55438 0.0
C165 C 0.43592 0.05015 0.54799 0.0
C166 C 0.3879 0.04417 0.5293 0.0
C167 C 0.40512 0.10771 0.51639 0.0
C168 C 0.47119 0.17769 0.52278 0.0
C169 C 0.51869 0.18385 0.54179 0.0
C170 C 0.46039 0.11976 0.60457 0.0
C171 C 0.39038 0.05193 0.60681 0.0
C172 C 0.32381 0.05351 0.61351 0.0
C173 C 0.32597 0.12309 0.61776 0.0
C174 C 0.3962 0.19093 0.61514 0.0
C175 C 0.4629 0.18922 0.60867 0.0
C176 C 0.55147 0.10784 0.64107 0.0
C177 C 0.48872 0.03922 0.64805 0.0
C178 C 0.442 0.03908 0.66716 0.0
C179 C 0.45846 0.10746 0.67979 0.0
C180 C 0.52817 0.17388 0.6751 0.0
C181 C 0.57387 0.17427 0.65563 0.0
C182 C 0.69657 0.11255 0.62782 0.0
C183 C 0.67116 0.04436 0.63902 0.0
C184 C 0.71701 0.03935 0.65651 0.0
C185 C 0.78864 0.10272 0.66323 0.0
C186 C 0.81408 0.17075 0.65183 0.0
C187 C 0.76844 0.17558 0.63427 0.0
C188 C 0.70841 0.12447 0.46662 0.0
C189 C 0.25535 0.12505 0.62484 0.0
H190 H 0.7106 0.73274 0.08074 0.0
H191 H 0.24408 0.1341 0.86796 0.0
H192 H 0.67977 0.77735 0.94591 0.0
H193 H 0.76865 0.88017 0.97393 0.0
H194 H 0.92973 0.79964 0.96544 0.0
H195 H 0.83843 0.69457 0.93824 0.0
H196 H 0.58861 0.66475 0.98207 0.0
H197 H 0.6235 0.69949 0.02483 0.0
H198 H 0.78377 0.61756 0.01712 0.0
H199 H 0.74842 0.58338 0.97431 0.0
H200 H 0.44562 0.52157 0.95926 0.0
H201 H 0.36831 0.45124 0.99319 0.0
H202 H 0.52282 0.3666 0.00332 0.0
H203 H 0.5994 0.43627 0.96877 0.0
H204 H 0.4105 0.49308 0.91262 0.0
H205 H 0.29598 0.3781 0.89664 0.0
H206 H 0.42594 0.26219 0.89084 0.0
H207 H 0.54012 0.37783 0.90679 0.0
H208 H 0.50269 0.60688 0.88102 0.0
H209 H 0.41356 0.53781 0.84768 0.0
H210 H 0.53108 0.41297 0.83097 0.0
H211 H 0.61897 0.48127 0.86513 0.0
H212 H 0.62735 0.73101 0.88692 0.0
H213 H 0.70241 0.82796 0.85832 0.0
H214 H 0.88024 0.769 0.8591 0.0
H215 H 0.80332 0.67013 0.88723 0.0
O216 O 0.69768 0.71856 0.06381 0.0
O217 O 0.77131 0.6663 0.05973 0.0
O218 O 0.22323 0.24132 0.87882 0.0
O219 O 0.2878 0.17954 0.87505 0.0
C220 C 0.68845 0.65344 0.93167 0.0
C221 C 0.64488 0.60131 0.94924 0.0
C222 C 0.57778 0.53261 0.94247 0.0
C223 C 0.55458 0.51549 0.91807 0.0
C224 C 0.59802 0.56759 0.90041 0.0
C225 C 0.66531 0.63677 0.90716 0.0
C226 C 0.75271 0.72859 0.94015 0.0
C227 C 0.73561 0.7838 0.94933 0.0
C228 C 0.78627 0.84218 0.96547 0.0
C229 C 0.85505 0.84646 0.97246 0.0
C230 C 0.87594 0.79617 0.96098 0.0
C231 C 0.82469 0.73712 0.94507 0.0
C232 C 0.66607 0.62166 0.9752 0.0
C233 C 0.63119 0.65436 0.9897 0.0
C234 C 0.65132 0.67422 0.01408 0.0
C235 C 0.70639 0.66125 0.0244 0.0
C236 C 0.74101 0.62813 0.00975 0.0
C237 C 0.72105 0.60862 0.98533 0.0
C238 C 0.52754 0.48334 0.96144 0.0
C239 C 0.46208 0.48687 0.96854 0.0
C240 C 0.41879 0.44768 0.98813 0.0
C241 C 0.44063 0.40483 1.00118 0.0
C242 C 0.50509 0.39959 0.99364 0.0
C243 C 0.54854 0.43897 0.97394 0.0
C244 C 0.48334 0.44352 0.91088 0.0
C245 C 0.41375 0.44245 0.90818 0.0
C246 C 0.34858 0.37683 0.89895 0.0
C247 C 0.3519 0.31099 0.89236 0.0
C248 C 0.42142 0.31189 0.89569 0.0
C249 C 0.48659 0.37765 0.90492 0.0
C250 C 0.56777 0.54967 0.87535 0.0
C251 C 0.51203 0.56779 0.86934 0.0
C252 C 0.46073 0.52778 0.85027 0.0
C253 C 0.46507 0.46965 0.83667 0.0
C254 C 0.52603 0.45707 0.84124 0.0
C255 C 0.57703 0.49682 0.86048 0.0
C256 C 0.70956 0.69312 0.889 0.0
C257 C 0.68194 0.73822 0.88065 0.0
C258 C 0.72532 0.79414 0.86454 0.0
C259 C 0.79775 0.80679 0.85672 0.0
C260 C 0.82462 0.76045 0.86477 0.0
C261 C 0.78097 0.70425 0.88086 0.0
C262 C 0.72731 0.68208 0.05035 0.0
C263 C 0.28358 0.24199 0.88173 0.0
C264 C 0.18 0.23867 0.1689 0.0
C265 C 0.12705 0.2169 0.14973 0.0
C266 C 0.17769 0.28129 0.18936 0.0
C267 C 0.12217 0.30362 0.19151 0.0
H268 H 0.22354 0.22236 0.16824 0.0
H269 H 0.21974 0.29684 0.20362 0.0
S270 S 0.97176 0.26328 0.14609 0.0
N271 N 0.01819 0.22206 0.13404 0.0
N272 N 0.0141 0.30251 0.1724 0.0
C273 C 0.06897 0.28247 0.17244 0.0
C274 C 0.07148 0.23923 0.15156 0.0
C275 C 0.97925 0.13791 0.49065 0.0
C276 C 0.93495 0.0754 0.47446 0.0
C277 C 0.94749 0.14949 0.51225 0.0
C278 C 0.87039 0.09894 0.51833 0.0
H279 H 0.03976 0.17587 0.4872 0.0
H280 H 0.98418 0.19696 0.52459 0.0
S281 S 0.72794 0.93289 0.48002 0.0
N282 N 0.80896 0.96673 0.46472 0.0
N283 N 0.74866 0.9889 0.50482 0.0
C284 C 0.82472 0.03863 0.50152 0.0
C285 C 0.85713 0.02681 0.47972 0.0
C286 C 0.92301 0.91534 0.80418 0.0
C287 C 0.9343 0.98871 0.80902 0.0
C288 C 0.87946 0.85686 0.81975 0.0
C289 C 0.84584 0.86965 0.84076 0.0
H290 H 0.94663 0.90252 0.78801 0.0
H291 H 0.87083 0.80088 0.81506 0.0
S292 S 0.86654 0.05369 0.86334 0.0
N293 N 0.91333 0.07201 0.83752 0.0
N294 N 0.83286 0.96274 0.8667 0.0
C295 C 0.85901 0.94329 0.84622 0.0
C296 C 0.90283 0.00257 0.8304 0.0
C297 C 0.04556 0.87276 0.13976 0.0
C298 C 0.10746 0.91351 0.12416 0.0
C299 C 0.04718 0.8236 0.15575 0.0
C300 C 0.11056 0.81271 0.15676 0.0
H301 H 0.99672 0.88146 0.14051 0.0
H302 H -7e-05 0.79685 0.16825 0.0
S303 S 0.28176 0.89601 0.11715 0.0
N304 N 0.23032 0.93323 0.10891 0.0
N305 N 0.23256 0.83927 0.13878 0.0
C306 C 0.17049 0.84885 0.14014 0.0
C307 C 0.16897 0.89934 0.12381 0.0
C308 C 0.2688 0.0215 0.4627 0.0
C309 C 0.23903 0.07017 0.46126 0.0
C310 C 0.32532 0.03629 0.4798 0.0
C311 C 0.3534 0.09969 0.49639 0.0
H312 H 0.24672 0.97041 0.45093 0.0
H313 H 0.34564 0.99649 0.48048 0.0
S314 S 0.29522 0.24557 0.49977 0.0
N315 N 0.24377 0.186 0.47715 0.0
N316 N 0.34847 0.21266 0.50986 0.0
C317 C 0.32626 0.15047 0.49454 0.0
C318 C 0.26938 0.13593 0.47684 0.0
C319 C 0.29996 0.2842 0.81004 0.0
C320 C 0.26192 0.30826 0.79518 0.0
C321 C 0.36738 0.33683 0.82264 0.0
C322 C 0.39998 0.41544 0.82055 0.0
H323 H 0.27592 0.22442 0.81268 0.0
H324 H 0.39238 0.31573 0.83484 0.0
S325 S 0.32822 0.50673 0.78123 0.0
N326 N 0.2649 0.4152 0.77745 0.0
N327 N 0.39305 0.51404 0.80054 0.0
C328 C 0.36449 0.4399 0.80479 0.0
C329 C 0.29517 0.38636 0.79225 0.0
C330 C 0.90763 0.03822 0.6958 0.0
C331 C 0.94224 0.09405 0.71484 0.0
C332 C 0.85622 0.04003 0.67958 0.0
C333 C 0.8377 0.09784 0.68176 0.0
H334 H 0.92213 0.99407 0.6929 0.0
H335 H 0.83287 0.99735 0.66474 0.0
S336 S 0.9047 0.25189 0.7301 0.0
N337 N 0.94867 0.20508 0.73606 0.0
N338 N 0.85207 0.20797 0.70564 0.0
C339 C 0.86905 0.15191 0.70131 0.0
C340 C 0.92119 0.15008 0.71784 0.0
C341 C 0.95182 0.02037 0.01608 0.0
C342 C 0.97482 0.99456 0.03536 0.0
C343 C 0.91522 0.97296 0.99552 0.0
C344 C 0.89989 0.89775 0.99342 0.0
H345 H 0.96269 0.07797 0.01675 0.0
H346 H 0.89859 0.99533 0.98115 0.0
S347 S 0.94453 0.801 0.03933 0.0
N348 N 0.97786 0.88806 0.05124 0.0
N349 N 0.90764 0.79857 0.01286 0.0
C350 C 0.92221 0.87102 0.0126 0.0
C351 C 0.95995 0.91944 0.03349 0.0
C352 C 0.14644 0.95181 0.36116 0.0
C353 C 0.08882 0.93894 0.37824 0.0
C354 C 0.15157 0.89143 0.34969 0.0
C355 C 0.09943 0.81575 0.35489 0.0
H356 H 0.18732 0.0089 0.35629 0.0
H357 H 0.19529 0.90408 0.33607 0.0
S358 S 0.94067 0.75114 0.39918 0.0
N359 N 0.97954 0.84416 0.40021 0.0
N360 N 0.99111 0.73144 0.37917 0.0
C361 C 0.04284 0.80212 0.37236 0.0
C362 C 0.03706 0.86345 0.38389 0.0
C363 C 0.29169 0.05508 0.72351 0.0
C364 C 0.26988 0.10895 0.71952 0.0
C365 C 0.35413 0.05598 0.7112 0.0
C366 C 0.39765 0.11131 0.69465 0.0
H367 H 0.25967 0.01117 0.73597 0.0
H368 H 0.36808 0.01269 0.71452 0.0
S369 S 0.36493 0.26562 0.67784 0.0
N370 N 0.29803 0.21999 0.69797 0.0
N371 N 0.41384 0.2209 0.6748 0.0
C372 C 0.37697 0.16601 0.69076 0.0
C373 C 0.31354 0.16502 0.70318 0.0
C374 C 0.31297 0.24623 0.04169 0.0
C375 C 0.28709 0.28243 0.05869 0.0
C376 C 0.36591 0.2869 0.02378 0.0
C377 C 0.3949 0.36509 0.02235 0.0
H378 H 0.28859 0.18533 0.04122 0.0
H379 H 0.38094 0.2562 0.01019 0.0
S380 S 0.35721 0.48877 0.06542 0.0
N381 N 0.30257 0.40263 0.07492 0.0
N382 N 0.40278 0.47901 0.04152 0.0
C383 C 0.37429 0.40286 0.04041 0.0
C384 C 0.32026 0.36155 0.05852 0.0
C385 C 0.03163 0.23542 0.36223 0.0
C386 C 0.08778 0.25511 0.38027 0.0
C387 C 0.03638 0.28894 0.34666 0.0
C388 C 0.09763 0.36446 0.34836 0.0
H389 H 0.98432 0.17761 0.35968 0.0
H390 H 0.9929 0.27036 0.33266 0.0
S391 S 0.25586 0.44757 0.39375 0.0
N392 N 0.20419 0.35733 0.39982 0.0
N393 N 0.21268 0.45773 0.37058 0.0
C394 C 0.1528 0.38573 0.36678 0.0
C395 C 0.14791 0.33123 0.38272 0.0
loop_
_geom_bond_atom_site_label_1
_geom_bond_atom_site_label_2
_geom_bond_distance
_geom_bond_site_symmetry_2
_ccdc_geom_bond_type
Co0 O1 2.216 . S
Co0 O2 2.091 . S
Co0 O4 2.004 . S
Co0 O10 2.021 . S
Co0 O12 2.137 . S
Co0 O13 2.244 . S
O1 Co0 2.216 . S
O1 C8 1.247 1_545 S
O2 Co0 2.091 . S
O2 C8 1.261 1_545 S
C3 O12 1.247 . S
C3 O13 1.272 . S
O4 Co0 2.004 . S
O4 C9 1.259 . S
Co5 O6 2.061 . S
Co5 O11 2.052 1_455 S
Co5 O13 2.135 . S
O6 Co5 2.061 . S
O6 C9 1.235 . S
C7 O10 1.238 . S
C7 O11 1.239 1_455 S
C8 O1 1.247 1_565 S
C8 O2 1.261 1_565 S
C9 O4 1.259 . S
C9 O6 1.235 . S
O10 Co0 2.021 . S
O10 C7 1.238 . S
O11 Co5 2.052 1_655 S
O11 C7 1.239 1_655 S
O12 Co0 2.137 . S
O12 C3 1.247 . S
O13 Co0 2.244 . S
O13 C3 1.272 . S
O13 Co5 2.135 . S
Co14 O15 2.216 . S
Co14 O16 2.091 . S
Co14 O18 2.004 . S
Co14 O24 2.021 . S
Co14 O26 2.137 . S
Co14 O27 2.244 1_545 S
O15 Co14 2.216 . S
O15 C22 1.247 . S
O16 Co14 2.091 . S
O16 C22 1.261 . S
C17 O26 1.247 1_565 S
C17 O27 1.272 . S
O18 Co14 2.004 . S
O18 C23 1.259 . S
Co19 O20 2.061 1_565 S
Co19 O25 2.052 1_455 S
Co19 O27 2.135 . S
O20 Co19 2.061 1_545 S
O20 C23 1.235 . S
C21 O24 1.238 . S
C21 O25 1.241 1_445 S
C22 O15 1.247 . S
C22 O16 1.261 . S
C23 O18 1.259 . S
C23 O20 1.235 . S
O24 Co14 2.021 . S
O24 C21 1.238 . S
O25 Co19 2.052 1_655 S
O25 C21 1.241 1_665 S
O26 Co14 2.137 . S
O26 C17 1.247 1_545 S
O27 Co14 2.244 1_565 S
O27 C17 1.272 . S
O27 Co19 2.135 . S
Co28 O29 2.216 . S
Co28 O30 2.091 . S
Co28 O32 2.004 . S
Co28 O38 2.021 . S
Co28 O40 2.137 . S
Co28 O41 2.244 . S
O29 Co28 2.216 . S
O29 C36 1.247 . S
O30 Co28 2.091 . S
O30 C36 1.261 . S
C31 O40 1.247 . S
C31 O41 1.272 . S
O32 Co28 2.004 . S
O32 C37 1.259 . S
Co33 O34 2.061 . S
Co33 O39 2.052 . S
Co33 O41 2.135 . S
O34 Co33 2.061 . S
O34 C37 1.235 . S
C35 O38 1.238 . S
C35 O39 1.241 . S
C36 O29 1.247 . S
C36 O30 1.261 . S
C37 O32 1.259 . S
C37 O34 1.235 . S
O38 Co28 2.021 . S
O38 C35 1.238 . S
O39 Co33 2.052 . S
O39 C35 1.241 . S
O40 Co28 2.137 . S
O40 C31 1.247 . S
O41 Co28 2.244 . S
O41 C31 1.272 . S
O41 Co33 2.135 . S
H42 O68 0.856 . S
H43 O71 0.854 . S
H44 C79 0.930 1_655 S
H45 C80 0.930 . S
H46 C82 0.930 . S
H47 C83 0.930 . S
H48 C85 0.931 1_655 S
H49 C86 0.930 . S
H50 C88 0.930 . S
H51 C89 0.929 . S
H52 C91 0.930 1_655 S
H53 C92 0.931 . S
H54 C94 0.930 . S
H55 C95 0.929 . S
H56 C97 0.931 1_655 S
H57 C98 0.930 1_655 S
H58 C100 0.930 . S
H59 C101 0.932 . S
H60 C103 0.927 1_655 S
H61 C104 0.929 . S
H62 C106 0.931 . S
H63 C107 0.930 . S
H64 C109 0.929 1_655 S
H65 C110 0.931 1_655 S
H66 C112 0.930 . S
H67 C113 0.929 . S
O68 H42 0.856 . S
O68 C114 1.300 . S
O69 C114 1.209 . S
O70 C115 1.199 . S
O71 H43 0.854 . S
O71 C115 1.297 1_545 S
C72 C73 1.404 . S
C72 C77 1.397 . S
C72 C78 1.492 . S
C73 C72 1.404 . S
C73 C74 1.396 . S
C73 C84 1.492 . S
C74 C73 1.396 . S
C74 C75 1.397 . S
C74 C90 1.509 . S
C75 C74 1.397 . S
C75 C76 1.412 . S
C75 C96 1.485 . S
C76 C75 1.412 . S
C76 C77 1.388 . S
C76 C102 1.490 . S
C77 C72 1.397 . S
C77 C76 1.388 . S
C77 C108 1.519 . S
C78 C72 1.492 . S
C78 C79 1.363 . S
C78 C83 1.390 . S
C79 H44 0.930 1_455 S
C79 C78 1.363 . S
C79 C80 1.372 1_455 S
C80 H45 0.930 . S
C80 C79 1.372 1_655 S
C80 C81 1.383 1_655 S
C81 C80 1.383 1_455 S
C81 C82 1.395 . S
C82 H46 0.930 . S
C82 C81 1.395 . S
C82 C83 1.362 . S
C83 H47 0.930 . S
C83 C78 1.390 . S
C83 C82 1.362 . S
C84 C73 1.492 . S
C84 C85 1.377 . S
C84 C89 1.397 . S
C85 H48 0.931 1_455 S
C85 C84 1.377 . S
C85 C86 1.376 . S
C86 H49 0.930 . S
C86 C85 1.376 . S
C86 C87 1.376 . S
C87 C86 1.376 . S
C87 C88 1.378 . S
C87 C114 1.486 . S
C88 H50 0.930 . S
C88 C87 1.378 . S
C88 C89 1.376 . S
C89 H51 0.929 . S
C89 C84 1.397 . S
C89 C88 1.376 . S
C90 C74 1.509 . S
C90 C91 1.391 . S
C90 C95 1.386 . S
C91 H52 0.930 1_455 S
C91 C90 1.391 . S
C91 C92 1.375 . S
C92 H53 0.931 . S
C92 C91 1.375 . S
C92 C93 1.375 . S
C93 C92 1.375 . S
C93 C94 1.361 . S
C94 H54 0.930 . S
C94 C93 1.361 . S
C94 C95 1.399 . S
C95 H55 0.929 . S
C95 C90 1.386 . S
C95 C94 1.399 . S
C96 C75 1.485 . S
C96 C97 1.394 . S
C96 C101 1.360 . S
C97 H56 0.931 1_455 S
C97 C96 1.394 . S
C97 C98 1.372 . S
C98 H57 0.930 1_455 S
C98 C97 1.372 . S
C98 C99 1.397 . S
C99 C98 1.397 . S
C99 C100 1.390 . S
C99 C115 1.476 . S
C100 H58 0.930 . S
C100 C99 1.390 . S
C100 C101 1.366 . S
C101 H59 0.932 . S
C101 C96 1.360 . S
C101 C100 1.366 . S
C102 C76 1.490 . S
C102 C103 1.386 . S
C102 C107 1.386 . S
C103 H60 0.927 1_455 S
C103 C102 1.386 . S
C103 C104 1.379 1_455 S
C104 H61 0.929 . S
C104 C103 1.379 1_655 S
C104 C105 1.371 1_655 S
C105 C104 1.371 1_455 S
C105 C106 1.380 . S
C106 H62 0.931 . S
C106 C105 1.380 . S
C106 C107 1.387 . S
C107 H63 0.930 . S
C107 C102 1.386 . S
C107 C106 1.387 . S
C108 C77 1.519 . S
C108 C109 1.377 . S
C108 C113 1.361 . S
C109 H64 0.929 1_455 S
C109 C108 1.377 . S
C109 C110 1.386 . S
C110 H65 0.931 1_455 S
C110 C109 1.386 . S
C110 C111 1.363 . S
C111 C110 1.363 . S
C111 C112 1.385 . S
C112 H66 0.930 . S
C112 C111 1.385 . S
C112 C113 1.396 . S
C113 H67 0.929 . S
C113 C108 1.361 . S
C113 C112 1.396 . S
C114 O68 1.300 . S
C114 O69 1.209 . S
C114 C87 1.486 . S
C115 O70 1.199 . S
C115 O71 1.297 1_565 S
C115 C99 1.476 . S
H116 O142 0.856 . S
H117 O145 0.854 . S
H118 C153 0.930 1_565 S
H119 C154 0.930 1_565 S
H120 C156 0.930 . S
H121 C157 0.930 . S
H122 C159 0.931 . S
H123 C160 0.930 . S
H124 C162 0.930 . S
H125 C163 0.929 . S
H126 C165 0.930 . S
H127 C166 0.931 . S
H128 C168 0.930 . S
H129 C169 0.929 . S
H130 C171 0.931 . S
H131 C172 0.930 . S
H132 C174 0.930 . S
H133 C175 0.932 . S
H134 C177 0.930 . S
H135 C178 0.929 1_565 S
H136 C180 0.931 . S
H137 C181 0.930 . S
H138 C183 0.929 . S
H139 C184 0.931 . S
H140 C186 0.930 . S
H141 C187 0.929 . S
O142 H116 0.856 . S
O142 C188 1.300 . S
O143 C188 1.209 . S
O144 C189 1.199 . S
O145 H117 0.854 . S
O145 C189 1.297 . S
C146 C147 1.404 . S
C146 C151 1.397 . S
C146 C152 1.492 . S
C147 C146 1.404 . S
C147 C148 1.396 . S
C147 C158 1.492 . S
C148 C147 1.396 . S
C148 C149 1.397 . S
C148 C164 1.509 . S
C149 C148 1.397 . S
C149 C150 1.412 . S
C149 C170 1.485 . S
C150 C149 1.412 . S
C150 C151 1.388 . S
C150 C176 1.490 . S
C151 C146 1.397 . S
C151 C150 1.388 . S
C151 C182 1.519 . S
C152 C146 1.492 . S
C152 C153 1.363 . S
C152 C157 1.390 . S
C153 H118 0.930 1_545 S
C153 C152 1.363 . S
C153 C154 1.372 . S
C154 H119 0.930 1_545 S
C154 C153 1.372 . S
C154 C155 1.383 . S
C155 C154 1.383 . S
C155 C156 1.395 . S
C156 H120 0.930 . S
C156 C155 1.395 . S
C156 C157 1.362 . S
C157 H121 0.930 . S
C157 C152 1.390 . S
C157 C156 1.362 . S
C158 C147 1.492 . S
C158 C159 1.377 . S
C158 C163 1.397 . S
C159 H122 0.931 . S
C159 C158 1.377 . S
C159 C160 1.376 . S
C160 H123 0.930 . S
C160 C159 1.376 . S
C160 C161 1.376 . S
C161 C160 1.376 . S
C161 C162 1.378 . S
C161 C188 1.486 . S
C162 H124 0.930 . S
C162 C161 1.378 . S
C162 C163 1.376 . S
C163 H125 0.929 . S
C163 C158 1.397 . S
C163 C162 1.376 . S
C164 C148 1.509 . S
C164 C165 1.391 . S
C164 C169 1.386 . S
C165 H126 0.930 . S
C165 C164 1.391 . S
C165 C166 1.375 . S
C166 H127 0.931 . S
C166 C165 1.375 . S
C166 C167 1.375 . S
C167 C166 1.375 . S
C167 C168 1.361 . S
C168 H128 0.930 . S
C168 C167 1.361 . S
C168 C169 1.399 . S
C169 H129 0.929 . S
C169 C164 1.386 . S
C169 C168 1.399 . S
C170 C149 1.485 . S
C170 C171 1.394 . S
C170 C175 1.360 . S
C171 H130 0.931 . S
C171 C170 1.394 . S
C171 C172 1.372 . S
C172 H131 0.930 . S
C172 C171 1.372 . S
C172 C173 1.397 . S
C173 C172 1.397 . S
C173 C174 1.390 . S
C173 C189 1.476 . S
C174 H132 0.930 . S
C174 C173 1.390 . S
C174 C175 1.366 . S
C175 H133 0.932 . S
C175 C170 1.360 . S
C175 C174 1.366 . S
C176 C150 1.490 . S
C176 C177 1.380 . S
C176 C181 1.386 . S
C177 H134 0.930 . S
C177 C176 1.380 . S
C177 C178 1.381 . S
C178 H135 0.929 1_545 S
C178 C177 1.381 . S
C178 C179 1.371 . S
C179 C178 1.371 . S
C179 C180 1.380 . S
C180 H136 0.931 . S
C180 C179 1.380 . S
C180 C181 1.387 . S
C181 H137 0.930 . S
C181 C176 1.386 . S
C181 C180 1.387 . S
C182 C151 1.519 . S
C182 C183 1.377 . S
C182 C187 1.361 . S
C183 H138 0.929 . S
C183 C182 1.377 . S
C183 C184 1.386 . S
C184 H139 0.931 . S
C184 C183 1.386 . S
C184 C185 1.363 . S
C185 C184 1.363 . S
C185 C186 1.385 . S
C186 H140 0.930 . S
C186 C185 1.385 . S
C186 C187 1.396 . S
C187 H141 0.929 . S
C187 C182 1.361 . S
C187 C186 1.396 . S
C188 O142 1.300 . S
C188 O143 1.209 . S
C188 C161 1.486 . S
C189 O144 1.199 . S
C189 O145 1.297 . S
C189 C173 1.476 . S
H190 O216 0.856 . S
H191 O219 0.854 . S
H192 C227 0.930 . S
H193 C228 0.930 . S
H194 C230 0.930 . S
H195 C231 0.930 . S
H196 C233 0.939 . S
H197 C234 0.930 . S
H198 C236 0.930 . S
H199 C237 0.929 . S
H200 C239 0.930 . S
H201 C240 0.931 1_554 S
H202 C242 0.930 . S
H203 C243 0.929 . S
H204 C245 0.931 . S
H205 C246 0.930 . S
H206 C248 0.930 . S
H207 C249 0.932 . S
H208 C251 0.930 . S
H209 C252 0.929 . S
H210 C254 0.931 . S
H211 C255 0.930 . S
H212 C257 0.929 . S
H213 C258 0.931 . S
H214 C260 0.930 . S
H215 C261 0.929 . S
O216 H190 0.856 . S
O216 C262 1.300 . S
O217 C262 1.209 . S
O218 C263 1.199 . S
O219 H191 0.854 . S
O219 C263 1.297 . S
C220 C221 1.404 . S
C220 C225 1.397 . S
C220 C226 1.492 . S
C221 C220 1.404 . S
C221 C222 1.396 . S
C221 C232 1.492 . S
C222 C221 1.396 . S
C222 C223 1.397 . S
C222 C238 1.509 . S
C223 C222 1.397 . S
C223 C224 1.412 . S
C223 C244 1.485 . S
C224 C223 1.412 . S
C224 C225 1.388 . S
C224 C250 1.490 . S
C225 C220 1.397 . S
C225 C224 1.388 . S
C225 C256 1.519 . S
C226 C220 1.492 . S
C226 C227 1.363 . S
C226 C231 1.390 . S
C227 H192 0.930 . S
C227 C226 1.363 . S
C227 C228 1.372 . S
C228 H193 0.930 . S
C228 C227 1.372 . S
C228 C229 1.383 . S
C229 C228 1.383 . S
C229 C230 1.395 . S
C230 H194 0.930 . S
C230 C229 1.395 . S
C230 C231 1.362 . S
C231 H195 0.930 . S
C231 C226 1.390 . S
C231 C230 1.362 . S
C232 C221 1.492 . S
C232 C233 1.377 1_556 S
C232 C237 1.397 . S
C233 H196 0.939 . S
C233 C232 1.377 1_554 S
C233 C234 1.376 . S
C234 H197 0.930 . S
C234 C233 1.376 . S
C234 C235 1.376 . S
C235 C234 1.376 . S
C235 C236 1.378 . S
C235 C262 1.486 . S
C236 H198 0.930 . S
C236 C235 1.378 . S
C236 C237 1.376 1_554 S
C237 H199 0.929 . S
C237 C232 1.397 . S
C237 C236 1.376 1_556 S
C238 C222 1.509 . S
C238 C239 1.391 . S
C238 C243 1.386 . S
C239 H200 0.930 . S
C239 C238 1.391 . S
C239 C240 1.375 . S
C240 H201 0.931 1_556 S
C240 C239 1.375 . S
C240 C241 1.375 1_556 S
C241 C240 1.375 1_554 S
C241 C242 1.361 . S
C242 H202 0.930 . S
C242 C241 1.361 . S
C242 C243 1.399 1_554 S
C243 H203 0.929 . S
C243 C238 1.386 . S
C243 C242 1.399 1_556 S
C244 C223 1.485 . S
C244 C245 1.394 . S
C244 C249 1.360 . S
C245 H204 0.931 . S
C245 C244 1.394 . S
C245 C246 1.372 . S
C246 H205 0.930 . S
C246 C245 1.372 . S
C246 C247 1.397 . S
C247 C246 1.397 . S
C247 C248 1.390 . S
C247 C263 1.476 . S
C248 H206 0.930 . S
C248 C247 1.390 . S
C248 C249 1.366 . S
C249 H207 0.932 . S
C249 C244 1.360 . S
C249 C248 1.366 . S
C250 C224 1.490 . S
C250 C251 1.380 . S
C250 C255 1.386 . S
C251 H208 0.930 . S
C251 C250 1.380 . S
C251 C252 1.381 . S
C252 H209 0.929 . S
C252 C251 1.381 . S
C252 C253 1.371 . S
C253 C252 1.371 . S
C253 C254 1.380 . S
C254 H210 0.931 . S
C254 C253 1.380 . S
C254 C255 1.387 . S
C255 H211 0.930 . S
C255 C250 1.386 . S
C255 C254 1.387 . S
C256 C225 1.519 . S
C256 C257 1.377 . S
C256 C261 1.361 . S
C257 H212 0.929 . S
C257 C256 1.377 . S
C257 C258 1.386 . S
C258 H213 0.931 . S
C258 C257 1.386 . S
C258 C259 1.363 . S
C259 C258 1.363 . S
C259 C260 1.385 . S
C260 H214 0.930 . S
C260 C259 1.385 . S
C260 C261 1.396 . S
C261 H215 0.929 . S
C261 C256 1.361 . S
C261 C260 1.396 . S
C262 O216 1.300 . S
C262 O217 1.209 . S
C262 C235 1.486 . S
C263 O218 1.199 . S
C263 O219 1.297 . S
C263 C247 1.476 . S
C264 C265 1.369 . S
C264 C266 1.419 . S
C264 H268 0.930 . S
C265 C264 1.369 . S
C265 C274 1.429 . S
C266 C264 1.419 . S
C266 C267 1.363 . S
C266 H269 0.929 . S
C267 C266 1.363 . S
C267 C273 1.428 . S
H268 C264 0.930 . S
H269 C266 0.929 . S
S270 N271 1.613 . S
S270 N272 1.610 . S
N271 S270 1.613 . S
N271 C274 1.350 . S
N272 S270 1.610 . S
N272 C273 1.351 . S
C273 C267 1.428 . S
C273 N272 1.351 . S
C273 C274 1.434 . S
C274 C265 1.429 . S
C274 N271 1.350 . S
C274 C273 1.434 . S
C275 C276 1.369 1_455 S
C275 C277 1.419 1_455 S
C275 H279 0.930 . S
C276 C275 1.369 1_655 S
C276 C285 1.429 . S
C277 C275 1.419 1_655 S
C277 C278 1.363 . S
C277 H280 0.929 1_655 S
C278 C277 1.363 . S
C278 C284 1.428 . S
H279 C275 0.930 . S
H280 C277 0.929 1_455 S
S281 N282 1.613 . S
S281 N283 1.610 . S
N282 S281 1.613 . S
N282 C285 1.350 1_565 S
N283 S281 1.610 . S
N283 C284 1.351 1_565 S
C284 C278 1.428 . S
C284 N283 1.351 1_545 S
C284 C285 1.434 . S
C285 C276 1.429 . S
C285 N282 1.350 1_545 S
C285 C284 1.434 . S
C286 C287 1.369 . S
C286 C288 1.419 . S
C286 H290 0.930 . S
C287 C286 1.369 . S
C287 C296 1.429 . S
C288 C286 1.419 . S
C288 C289 1.363 . S
C288 H291 0.929 . S
C289 C288 1.363 . S
C289 C295 1.428 . S
H290 C286 0.930 . S
H291 C288 0.929 . S
S292 N293 1.613 . S
S292 N294 1.610 1_545 S
N293 S292 1.613 . S
N293 C296 1.350 1_545 S
N294 S292 1.610 1_565 S
N294 C295 1.351 . S
C295 C289 1.428 . S
C295 N294 1.351 . S
C295 C296 1.434 . S
C296 C287 1.429 . S
C296 N293 1.350 1_565 S
C296 C295 1.434 . S
C297 C298 1.369 . S
C297 C299 1.419 . S
C297 H301 0.930 . S
C298 C297 1.369 . S
C298 C307 1.429 . S
C299 C297 1.419 . S
C299 C300 1.363 . S
C299 H302 0.929 . S
C300 C299 1.363 . S
C300 C306 1.428 . S
H301 C297 0.930 . S
H302 C299 0.929 . S
S303 N304 1.613 . S
S303 N305 1.610 . S
N304 S303 1.613 . S
N304 C307 1.350 . S
N305 S303 1.610 . S
N305 C306 1.351 . S
C306 C300 1.428 . S
C306 N305 1.351 . S
C306 C307 1.434 . S
C307 C298 1.429 . S
C307 N304 1.350 . S
C307 C306 1.434 . S
C308 C309 1.369 . S
C308 C310 1.419 . S
C308 H312 0.930 . S
C309 C308 1.369 . S
C309 C318 1.429 . S
C310 C308 1.419 . S
C310 C311 1.363 . S
C310 H313 0.929 . S
C311 C310 1.363 . S
C311 C317 1.428 . S
H312 C308 0.930 . S
H313 C310 0.929 . S
S314 N315 1.613 . S
S314 N316 1.610 . S
N315 S314 1.613 . S
N315 C318 1.350 . S
N316 S314 1.610 . S
N316 C317 1.351 . S
C317 C311 1.428 . S
C317 N316 1.351 . S
C317 C318 1.434 . S
C318 C309 1.429 . S
C318 N315 1.350 . S
C318 C317 1.434 . S
C319 C320 1.369 . S
C319 C321 1.419 . S
C319 H323 0.930 . S
C320 C319 1.369 . S
C320 C329 1.429 . S
C321 C319 1.419 . S
C321 C322 1.363 . S
C321 H324 0.929 . S
C322 C321 1.363 . S
C322 C328 1.428 . S
H323 C319 0.930 . S
H324 C321 0.929 . S
S325 N326 1.613 . S
S325 N327 1.610 . S
N326 S325 1.613 . S
N326 C329 1.350 . S
N327 S325 1.610 . S
N327 C328 1.351 . S
C328 C322 1.428 . S
C328 N327 1.351 . S
C328 C329 1.434 . S
C329 C320 1.429 . S
C329 N326 1.350 . S
C329 C328 1.434 . S
C330 C331 1.369 1_455 S
C330 C332 1.419 1_455 S
C330 H334 0.930 . S
C331 C330 1.369 1_655 S
C331 C340 1.429 . S
C332 C330 1.419 1_655 S
C332 C333 1.363 . S
C332 H335 0.929 . S
C333 C332 1.363 . S
C333 C339 1.428 . S
H334 C330 0.930 . S
H335 C332 0.929 . S
S336 N337 1.613 . S
S336 N338 1.610 . S
N337 S336 1.613 . S
N337 C340 1.350 . S
N338 S336 1.610 . S
N338 C339 1.351 . S
C339 C333 1.428 . S
C339 N338 1.351 . S
C339 C340 1.434 . S
C340 C331 1.429 . S
C340 N337 1.350 . S
C340 C339 1.434 . S
C341 C342 1.369 1_545 S
C341 C343 1.419 1_554 S
C341 H345 0.930 1_655 S
C342 C341 1.369 1_565 S
C342 C351 1.429 . S
C343 C341 1.419 1_556 S
C343 C344 1.364 1_545 S
C343 H346 0.928 . S
C344 C343 1.364 1_565 S
C344 C350 1.428 1_556 S
H345 C341 0.930 1_455 S
H346 C343 0.928 . S
S347 N348 1.613 . S
S347 N349 1.610 . S
N348 S347 1.613 . S
N348 C351 1.350 . S
N349 S347 1.610 . S
N349 C350 1.351 . S
C350 C344 1.428 1_554 S
C350 N349 1.351 . S
C350 C351 1.434 . S
C351 C342 1.429 . S
C351 N348 1.350 . S
C351 C350 1.434 . S
C352 C353 1.369 . S
C352 C354 1.419 . S
C352 H356 0.930 . S
C353 C352 1.369 . S
C353 C362 1.429 . S
C354 C352 1.419 . S
C354 C355 1.363 . S
C354 H357 0.929 . S
C355 C354 1.363 . S
C355 C361 1.428 . S
H356 C352 0.930 . S
H357 C354 0.929 . S
S358 N359 1.613 1_655 S
S358 N360 1.610 . S
N359 S358 1.613 1_455 S
N359 C362 1.350 . S
N360 S358 1.610 . S
N360 C361 1.351 1_655 S
C361 C355 1.428 . S
C361 N360 1.351 1_455 S
C361 C362 1.434 . S
C362 C353 1.429 . S
C362 N359 1.350 . S
C362 C361 1.434 . S
C363 C364 1.369 . S
C363 C365 1.419 . S
C363 H367 0.930 . S
C364 C363 1.369 . S
C364 C373 1.429 . S
C365 C363 1.419 . S
C365 C366 1.363 . S
C365 H368 0.929 . S
C366 C365 1.363 . S
C366 C372 1.428 . S
H367 C363 0.930 . S
H368 C365 0.929 . S
S369 N370 1.613 . S
S369 N371 1.610 . S
N370 S369 1.613 . S
N370 C373 1.350 . S
N371 S369 1.610 . S
N371 C372 1.351 . S
C372 C366 1.428 . S
C372 N371 1.351 . S
C372 C373 1.434 . S
C373 C364 1.429 . S
C373 N370 1.350 . S
C373 C372 1.434 . S
C374 C375 1.369 . S
C374 C376 1.419 . S
C374 H378 0.930 . S
C375 C374 1.369 . S
C375 C384 1.429 . S
C376 C374 1.419 . S
C376 C377 1.363 . S
C376 H379 0.929 1_554 S
C377 C376 1.363 . S
C377 C383 1.428 . S
H378 C374 0.930 . S
H379 C376 0.929 1_556 S
S380 N381 1.613 . S
S380 N382 1.610 . S
N381 S380 1.613 . S
N381 C384 1.350 . S
N382 S380 1.610 . S
N382 C383 1.351 . S
C383 C377 1.428 . S
C383 N382 1.351 . S
C383 C384 1.434 . S
C384 C375 1.429 . S
C384 N381 1.350 . S
C384 C383 1.434 . S
C385 C386 1.369 . S
C385 C387 1.419 . S
C385 H389 0.930 . S
C386 C385 1.369 . S
C386 C395 1.429 . S
C387 C385 1.419 . S
C387 C388 1.363 . S
C387 H390 0.929 . S
C388 C387 1.363 . S
C388 C394 1.428 . S
H389 C385 0.930 . S
H390 C387 0.929 . S
S391 N392 1.613 . S
S391 N393 1.610 . S
N392 S391 1.613 . S
N392 C395 1.350 . S
N393 S391 1.610 . S
N393 C394 1.351 . S
C394 C388 1.428 . S
C394 N393 1.351 . S
C394 C395 1.434 . S
C395 C386 1.429 . S
C395 N392 1.350 . S
C395 C394 1.434 . S
C267 C81 1.514 . S
C265 C3 1.658 . S
C276 C21 1.568 1_655 S
C278 C155 1.495 . S
C287 C37 2.028 1_665 S
C289 C259 2.051 . S
C298 C8 0.959 . S
C300 C93 0.959 . S
C311 C167 0.959 . S
C309 C23 0.967 . S
C320 C35 1.752 . S
C322 C253 1.588 . S
C333 C185 2.047 . S
C331 C31 2.053 1_655 S
C342 C7 1.595 1_665 S
C344 C229 1.520 . S
C355 C105 1.597 . S
C353 C17 1.796 . S
C366 C179 1.495 . S
C364 C36 1.679 . S
C377 C241 0.950 . S
C375 C9 0.940 . S
C386 C22 2.075 . S
C388 C111 2.074 . S
