# Generated by pormake.
# Topology zzz, (3,6)-cn, num edge types: 1
# Building blocks:
#     Node 0, Type 0, BuildingBlock: QEWDON_clean_linker_0, # of connection points: 3
#     Node 1, Type 0, BuildingBlock: QEWDON_clean_linker_0, # of connection points: 3
#     Node 2, Type 0, BuildingBlock: QEWDON_clean_linker_0, # of connection points: 3
#     Node 3, Type 0, BuildingBlock: QEWDON_clean_linker_0, # of connection points: 3
#     Node 4, Type 0, BuildingBlock: QEWDON_clean_linker_0, # of connection points: 3
#     Node 5, Type 0, BuildingBlock: QEWDON_clean_linker_0, # of connection points: 3
#     Node 6, Type 0, BuildingBlock: QEWDON_clean_linker_0, # of connection points: 3
#     Node 7, Type 0, BuildingBlock: QEWDON_clean_linker_0, # of connection points: 3
#     Node 8, Type 1, BuildingBlock: KUMBOL_clean_sbu_1, # of connection points: 6
#     Node 9, Type 1, BuildingBlock: KUMBOL_clean_sbu_1, # of connection points: 6
#     Node 10, Type 1, BuildingBlock: KUMBOL_clean_sbu_1, # of connection points: 6
#     Node 11, Type 1, BuildingBlock: KUMBOL_clean_sbu_1, # of connection points: 6
#     Edge 12, Type (0, 1), BuildingBlock: EZIPEK_clean_linker_0, # of connection points: 2
#     Edge 13, Type (0, 1), BuildingBlock: EZIPEK_clean_linker_0, # of connection points: 2
#     Edge 14, Type (0, 1), BuildingBlock: EZIPEK_clean_linker_0, # of connection points: 2
#     Edge 15, Type (0, 1), BuildingBlock: EZIPEK_clean_linker_0, # of connection points: 2
#     Edge 16, Type (0, 1), BuildingBlock: EZIPEK_clean_linker_0, # of connection points: 2
#     Edge 17, Type (0, 1), BuildingBlock: EZIPEK_clean_linker_0, # of connection points: 2
#     Edge 18, Type (0, 1), BuildingBlock: EZIPEK_clean_linker_0, # of connection points: 2
#     Edge 19, Type (0, 1), BuildingBlock: EZIPEK_clean_linker_0, # of connection points: 2
#     Edge 20, Type (0, 1), BuildingBlock: EZIPEK_clean_linker_0, # of connection points: 2
#     Edge 21, Type (0, 1), BuildingBlock: EZIPEK_clean_linker_0, # of connection points: 2
#     Edge 22, Type (0, 1), BuildingBlock: EZIPEK_clean_linker_0, # of connection points: 2
#     Edge 23, Type (0, 1), BuildingBlock: EZIPEK_clean_linker_0, # of connection points: 2
#     Edge 24, Type (0, 1), BuildingBlock: EZIPEK_clean_linker_0, # of connection points: 2
#     Edge 25, Type (0, 1), BuildingBlock: EZIPEK_clean_linker_0, # of connection points: 2
#     Edge 26, Type (0, 1), BuildingBlock: EZIPEK_clean_linker_0, # of connection points: 2
#     Edge 27, Type (0, 1), BuildingBlock: EZIPEK_clean_linker_0, # of connection points: 2
#     Edge 28, Type (0, 1), BuildingBlock: EZIPEK_clean_linker_0, # of connection points: 2
#     Edge 29, Type (0, 1), BuildingBlock: EZIPEK_clean_linker_0, # of connection points: 2
#     Edge 30, Type (0, 1), BuildingBlock: EZIPEK_clean_linker_0, # of connection points: 2
#     Edge 31, Type (0, 1), BuildingBlock: EZIPEK_clean_linker_0, # of connection points: 2
#     Edge 32, Type (0, 1), BuildingBlock: EZIPEK_clean_linker_0, # of connection points: 2
#     Edge 33, Type (0, 1), BuildingBlock: EZIPEK_clean_linker_0, # of connection points: 2
#     Edge 34, Type (0, 1), BuildingBlock: EZIPEK_clean_linker_0, # of connection points: 2
#     Edge 35, Type (0, 1), BuildingBlock: EZIPEK_clean_linker_0, # of connection points: 2
# Relax obj value: 0.161
# Max RMSD: 0.113
# Mean RMSD: 0.044
data_MOF--net-zzz--node1-KUMBOL_clean_sbu_1--node2-QEWDON_clean_linker_0--edge1-EZIPEK_clean_linker_0
_symmetry_space_group_name_H-M    P1
_symmetry_Int_Tables_number       1
_symmetry_cell_setting            triclinic
loop_
_symmetry_equiv_pos_as_xyz
'x, y, z'
_cell_length_a     40.100619
_cell_length_b     40.335954
_cell_length_c     11.480723
_cell_angle_alpha  89.700678
_cell_angle_beta   90.420596
_cell_angle_gamma 90.359316
loop_
_atom_site_label
_atom_site_type_symbol
_atom_site_fract_x
_atom_site_fract_y
_atom_site_fract_z
_atom_type_partial_charge
H0 H 0.76219 0.49308 0.17541 0.0
C1 C 0.78116 0.49965 0.23863 0.0
C2 C 0.81338 0.48982 0.21498 0.0
C3 C 0.77327 0.51623 0.3412 0.0
H4 H 0.8641 0.48673 0.27209 0.0
C5 C 0.83925 0.4949 0.29482 0.0
C6 C 0.83333 0.50789 0.40582 0.0
C7 C 0.79976 0.51928 0.42831 0.0
C8 C 0.73678 0.52726 0.35378 0.0
H9 H 0.79458 0.52997 0.51231 0.0
C10 C 0.7139 0.53017 0.2555 0.0
C11 C 0.67914 0.53622 0.2701 0.0
C12 C 0.72353 0.53279 0.46481 0.0
H13 H 0.73891 0.53068 0.54216 0.0
C14 C 0.68973 0.54002 0.47892 0.0
H15 H 0.72249 0.52764 0.16711 0.0
C16 C 0.66789 0.54136 0.38346 0.0
H17 H 0.64176 0.54585 0.39792 0.0
H18 H 0.68019 0.54371 0.56568 0.0
H19 H 0.98783 0.74945 0.15282 0.0
C20 C 0.99409 0.76704 0.21914 0.0
C21 C 0.98992 0.80053 0.19367 0.0
C22 C 1.00588 0.75574 0.32738 0.0
H23 H 0.99019 0.84992 0.27119 0.0
C24 C 0.99376 0.82376 0.28581 0.0
C25 C 1.00302 0.81486 0.39922 0.0
C26 C 1.0098 0.7802 0.4195 0.0
C27 C 1.01235 0.71824 0.33865 0.0
H28 H 1.01813 0.77272 0.50536 0.0
C29 C 1.0163 0.69646 0.23914 0.0
C30 C 1.01788 0.6612 0.25141 0.0
C31 C 1.01284 0.70323 0.44921 0.0
H32 H 1.01018 0.71774 0.52742 0.0
C33 C 1.01577 0.66889 0.46142 0.0
H34 H 1.01818 0.70633 0.15179 0.0
C35 C 1.01713 0.64819 0.36435 0.0
H36 H 1.0178 0.62167 0.3769 0.0
H37 H 1.01644 0.65816 0.54766 0.0
H38 H 0.81014 0.083 0.3063 0.0
C39 C 0.79073 0.07159 0.35831 0.0
C40 C 0.76209 0.09008 0.38304 0.0
C41 C 0.79156 0.0372 0.37861 0.0
H42 H 0.715 0.09034 0.47282 0.0
C43 C 0.73681 0.07583 0.45196 0.0
C44 C 0.73576 0.04194 0.47694 0.0
C45 C 0.76322 0.02228 0.4373 0.0
C46 C 0.81628 1.01754 0.30556 0.0
H47 H 0.76194 0.99561 0.44754 0.0
C48 C 0.85143 0.02555 0.29194 0.0
C49 C 0.87119 1.01101 0.20015 0.0
C50 C 0.80233 0.99413 0.22951 0.0
H51 H 0.77613 0.98762 0.23443 0.0
C52 C 0.82081 0.98089 0.13921 0.0
H53 H 0.86306 0.04249 0.35285 0.0
C54 C 0.85405 0.98985 0.12309 0.0
H55 H 0.86636 0.97959 0.0492 0.0
H56 H 0.80892 0.96395 0.07874 0.0
H57 H 0.56488 0.79803 0.14682 0.0
C58 C 0.56008 0.78165 0.22014 0.0
C59 C 0.54937 0.74975 0.19679 0.0
C60 C 0.56484 0.79277 0.33365 0.0
H61 H 0.53974 0.70103 0.26454 0.0
C62 C 0.54674 0.72622 0.28717 0.0
C63 C 0.55258 0.73413 0.40499 0.0
C64 C 0.56171 0.7685 0.42801 0.0
C65 C 0.57701 0.82876 0.34163 0.0
H66 H 0.56613 0.77625 0.51691 0.0
C67 C 0.56537 0.85464 0.26284 0.0
C68 C 0.58341 0.88523 0.2472 0.0
C69 C 0.60572 0.83545 0.40763 0.0
H70 H 0.61576 0.81682 0.46618 0.0
C71 C 0.62366 0.86493 0.39123 0.0
H72 H 0.54327 0.85039 0.21011 0.0
C73 C 0.61311 0.889 0.31085 0.0
H74 H 0.62813 0.91121 0.29978 0.0
H75 H 0.64647 0.869 0.44025 0.0
H76 H 0.28756 0.49871 0.27252 0.0
C77 C 0.2713 0.49815 0.19654 0.0
C78 C 0.23814 0.507 0.21212 0.0
C79 C 0.2851 0.49946 0.08495 0.0
H80 H 0.18967 0.51272 0.13423 0.0
C81 C 0.21567 0.50696 0.11851 0.0
C82 C 0.22651 0.50331 1.00423 0.0
C83 C 0.26206 0.50131 0.98671 0.0
C84 C 0.32064 0.5131 0.08401 0.0
H85 H 0.27174 0.50322 0.89916 0.0
C86 C 0.34693 0.50184 0.16244 0.0
C87 C 0.37245 0.52428 0.20568 0.0
C88 C 0.32361 0.54509 0.03722 0.0
H89 H 0.30499 0.55463 0.9772 0.0
C90 C 0.34667 0.56736 0.08281 0.0
H91 H 0.34652 0.47623 0.19032 0.0
C92 C 0.36865 0.5578 0.17088 0.0
H93 H 0.3839 0.57721 0.20885 0.0
H94 H 0.34631 0.59296 0.054 0.0
H95 H 0.03156 0.26461 0.28686 0.0
C96 C 0.03421 0.24859 0.2118 0.0
C97 C 0.02415 0.21579 0.22425 0.0
C98 C 0.03744 0.2626 0.10111 0.0
H99 H 1.01868 0.168 0.14543 0.0
C100 C 0.02619 0.19361 0.13159 0.0
C101 C 0.03321 0.20474 0.01875 0.0
C102 C 0.03708 0.24017 1.00233 0.0
C103 C 0.02841 0.29926 0.09775 0.0
H104 H 0.0381 0.25018 0.91478 0.0
C105 C 0.0412 0.32296 0.18164 0.0
C106 C 0.02268 0.35203 0.21299 0.0
C107 C 0.99876 0.30728 0.03899 0.0
H108 H 0.98795 0.29028 0.97622 0.0
C109 C 0.9802 0.33486 0.07112 0.0
H110 H 0.0645 0.31785 0.2262 0.0
C111 C 0.99108 0.35578 0.16036 0.0
H112 H 0.97544 0.37651 0.18363 0.0
H113 H 0.95644 0.33949 0.02889 0.0
H114 H 0.27311 0.09745 0.33512 0.0
C115 C 0.29184 0.09335 0.26971 0.0
C116 C 0.32492 0.10295 0.29305 0.0
C117 C 0.28377 0.07298 0.17516 0.0
H118 H 0.37508 0.1047 0.22408 0.0
C119 C 0.34947 0.09748 0.20738 0.0
C120 C 0.34301 0.08001 0.1042 0.0
C121 C 0.30963 0.0669 0.09021 0.0
C122 C 0.25309 0.0507 0.19221 0.0
H123 H 0.30409 0.05105 0.01668 0.0
C124 C 0.22097 0.06159 0.23606 0.0
C125 C 0.19722 0.03838 0.28612 0.0
C126 C 0.25942 1.01659 0.19281 0.0
H127 H 0.28302 1.00713 0.16239 0.0
C128 C 0.23744 0.99434 0.24449 0.0
H129 H 0.21497 0.08768 0.23167 0.0
C130 C 0.20788 1.00509 0.29402 0.0
H131 H 0.19258 0.98649 0.33662 0.0
H132 H 0.2439 0.96834 0.24948 0.0
H133 H 0.53821 0.28602 0.32527 0.0
C134 C 0.53192 0.30158 0.25093 0.0
C135 C 0.54083 0.33491 0.25533 0.0
C136 C 0.52169 0.28696 0.1466 0.0
H137 H 0.54187 0.3821 0.16927 0.0
C138 C 0.53461 0.35622 0.16151 0.0
C139 C 0.52389 0.34421 0.05358 0.0
C140 C 0.51838 0.30865 0.04499 0.0
C141 C 0.52543 0.24915 0.14582 0.0
H142 H 0.51289 0.29795 0.96071 0.0
C143 C 0.51331 0.22746 0.23819 0.0
C144 C 0.52714 0.19482 0.25878 0.0
C145 C 0.54983 0.23646 0.07205 0.0
H146 H 0.56035 0.25182 1.00367 0.0
C147 C 0.56369 0.2053 0.09237 0.0
H148 H 0.4942 0.23655 0.29573 0.0
C149 C 0.55313 0.18536 0.18489 0.0
H150 H 0.56554 0.16204 0.19911 0.0
H151 H 0.58369 0.19679 0.03737 0.0
C152 C 0.11639 0.0518 0.8776 0.0
C153 C 0.10208 0.07613 0.06376 0.0
C154 C 0.09425 0.05509 0.96922 0.0
C155 C 0.13234 0.09375 0.06495 0.0
C156 C 0.14717 0.06911 0.88002 0.0
C157 C 0.15482 0.09025 0.97338 0.0
N158 N 0.10839 0.0311 0.78806 0.0
C159 C 0.13189 0.02408 0.70594 0.0
C160 C 0.1698 0.06412 0.78991 0.0
C161 C 0.16233 0.04107 0.70357 0.0
Gd162 Gd 0.98416 0.02621 0.57037 0.0
Gd163 Gd 0.05696 1.00212 0.80528 0.0
N164 N 0.06508 0.03769 0.96619 0.0
C165 C 0.07941 0.07866 0.15517 0.0
C166 C 0.04335 0.03956 0.05698 0.0
C167 C 0.04996 0.06019 0.15187 0.0
H168 H 1.02065 0.02549 0.05632 0.0
H169 H 0.03235 0.06171 0.22264 0.0
H170 H 0.04586 0.98751 0.42916 0.0
H171 H 0.12785 1.00457 0.64352 0.0
H172 H 0.06675 0.96846 0.24732 0.0
H173 H 0.08452 0.09456 0.22902 0.0
H174 H 0.13876 0.1099 0.13697 0.0
H175 H 0.91147 0.98981 0.65331 0.0
H176 H 0.1936 0.07699 0.78856 0.0
H177 H 0.18034 0.0358 0.63647 0.0
H178 H 0.96283 0.91796 0.04505 0.0
H179 H 0.17829 0.10369 0.97635 0.0
H180 H 0.85827 0.93489 0.39027 0.0
H181 H 0.86464 0.95779 0.58546 0.0
N182 N 0.93469 0.99839 0.49179 0.0
C183 C 0.93316 0.99351 0.3754 0.0
C184 C 0.90997 0.98536 0.56057 0.0
C185 C 0.87766 0.95304 0.40703 0.0
C186 C 0.88242 0.96575 0.52037 0.0
C187 C 0.90034 0.96079 0.32187 0.0
H188 H 0.89368 0.91127 0.16573 0.0
N189 N 0.99999 1.00553 0.37665 0.0
C190 C 0.97528 0.99781 0.30074 0.0
C191 C 1.0209 0.96641 0.15929 0.0
C192 C 0.98761 0.96892 0.1721 0.0
C193 C 0.03024 0.99134 0.3566 0.0
C194 C 0.04125 0.9766 0.25135 0.0
O195 O 0.03918 0.05591 0.81855 0.0
O196 O 1.00994 0.07234 0.65212 0.0
O197 O 0.9627 0.06361 0.45482 0.0
O198 O 0.93669 0.04747 0.61047 0.0
O199 O 1.00521 0.99306 0.88561 0.0
O200 O 0.96889 0.02422 0.77166 0.0
O201 O 0.99092 0.96947 0.57925 0.0
O202 O 0.0334 0.95689 0.71182 0.0
O203 O 0.06991 0.97305 0.95755 0.0
O204 O 0.09903 0.96829 0.80257 0.0
O205 O 0.03776 0.04611 0.51887 0.0
O206 O 0.06847 1.00688 0.6128 0.0
C207 C 0.02497 0.07903 0.75332 0.0
C208 C 0.97741 1.01057 0.87514 0.0
C209 C 0.92742 0.10199 0.55372 0.0
C210 C 0.93669 0.16128 0.5431 0.0
C211 C 0.89235 0.13964 0.66335 0.0
C212 C 0.90053 0.10743 0.62944 0.0
C213 C 0.91048 0.16669 0.62052 0.0
C214 C 0.94526 0.12909 0.51101 0.0
C215 C 0.93702 0.06803 0.52301 0.0
C216 C 0.95599 0.93369 0.11633 0.0
C217 C 0.91086 0.93085 0.19007 0.0
H218 H 0.0305 0.95184 0.08969 0.0
C219 C 1.01136 0.94787 0.63044 0.0
C220 C 0.06769 0.03291 0.54286 0.0
C221 C 0.09543 0.92143 0.92348 0.0
C222 C 0.0675 0.86815 0.9504 0.0
C223 C 0.12758 0.8728 0.97571 0.0
C224 C 0.12608 0.90663 0.95012 0.0
C225 C 0.0984 0.85374 0.97818 0.0
C226 C 0.06644 0.90186 0.91818 0.0
C227 C 0.09409 0.95751 0.90745 0.0
H228 H 0.87183 0.1436 0.72231 0.0
H229 H 0.88616 0.08676 0.66349 0.0
H230 H 0.90369 0.19163 0.64503 0.0
H231 H 0.96567 0.12539 0.45101 0.0
H232 H 0.15126 0.86157 0.99778 0.0
H233 H 0.14874 0.92138 0.95334 0.0
H234 H 0.09983 0.82803 1.00538 0.0
H235 H 0.04269 0.91332 0.89792 0.0
C236 C 0.54396 0.93331 0.73705 0.0
C237 C 0.5113 0.90934 0.89376 0.0
C238 C 0.51908 0.93629 0.81925 0.0
C239 C 0.52937 0.87975 0.88597 0.0
C240 C 0.56174 0.90328 0.72771 0.0
C241 C 0.5546 0.87677 0.80334 0.0
N242 N 0.55021 0.95923 0.66395 0.0
C243 C 0.57057 0.95472 0.57041 0.0
C244 C 0.58622 0.90077 0.64235 0.0
C245 C 0.59054 0.92672 0.56329 0.0
Gd246 Gd 0.55938 0.08126 0.88487 0.0
Gd247 Gd 0.51982 1.00849 0.69662 0.0
N248 N 0.50249 0.96548 0.82661 0.0
C249 C 0.48558 0.91284 0.97419 0.0
C250 C 0.4767 0.96849 0.90357 0.0
C251 C 0.4681 0.94252 0.97869 0.0
H252 H 0.46481 0.99195 0.91425 0.0
H253 H 0.44844 0.94571 0.04169 0.0
H254 H 0.64028 0.06654 0.94396 0.0
H255 H 0.57257 0.97343 0.50347 0.0
H256 H 0.69586 0.08628 0.87556 0.0
H257 H 0.4791 0.89282 0.0333 0.0
H258 H 0.52397 0.859 0.9433 0.0
H259 H 0.51534 0.15104 0.91904 0.0
H260 H 0.60129 0.8787 0.63519 0.0
H261 H 0.60933 0.92553 0.49711 0.0
H262 H 0.67066 0.184 0.65479 0.0
H263 H 0.56825 0.85374 0.79789 0.0
H264 H 0.5643 0.22996 0.73688 0.0
H265 H 0.51671 0.20942 0.85309 0.0
N266 N 0.55928 0.1378 0.82997 0.0
C267 C 0.58708 0.14943 0.77635 0.0
C268 C 0.53503 0.15934 0.86295 0.0
C269 C 0.56315 0.20407 0.76226 0.0
C270 C 0.53629 0.1926 0.82812 0.0
C271 C 0.58933 0.1826 0.73742 0.0
H272 H 0.62076 0.21917 0.65215 0.0
N273 N 0.61359 0.10124 0.84176 0.0
C274 C 0.61532 0.13013 0.78115 0.0
C275 C 0.67528 0.1257 0.77141 0.0
C276 C 0.64619 0.14296 0.74277 0.0
C277 C 0.64213 0.08743 0.88537 0.0
C278 C 0.67334 0.09853 0.84691 0.0
O279 O 0.52854 1.00708 0.89214 0.0
O280 O 0.57839 0.02873 0.93089 0.0
O281 O 0.57111 0.11785 0.01592 0.0
O282 O 0.55674 0.0687 0.07075 0.0
O283 O 0.47866 0.04243 0.76316 0.0
O284 O 0.5017 0.07163 0.91733 0.0
O285 O 0.52351 0.09952 0.73982 0.0
O286 O 0.52932 0.05916 0.60219 0.0
O287 O 0.47435 0.98395 0.64089 0.0
O288 O 0.50939 1.00063 0.51231 0.0
O289 O 0.59732 0.05861 0.7582 0.0
O290 O 0.57585 1.01385 0.65769 0.0
C291 C 0.55805 1.00314 0.93896 0.0
C292 C 0.47488 0.05919 0.86074 0.0
C293 C 0.59315 0.09978 0.19648 0.0
C294 C 0.64787 0.11631 0.27235 0.0
C295 C 0.60524 0.09579 0.40348 0.0
C296 C 0.5843 0.08963 0.30869 0.0
C297 C 0.6372 0.10821 0.38537 0.0
C298 C 0.62485 0.1143 0.17908 0.0
C299 C 0.56764 0.09774 0.10302 0.0
C300 C 0.64734 0.17407 0.68746 0.0
C301 C 0.61891 0.19408 0.68578 0.0
H302 H 0.69948 0.13461 0.7433 0.0
C303 C 0.52114 0.09015 0.62935 0.0
C304 C 0.60089 0.03402 0.68367 0.0
C305 C 0.45244 1.00212 0.46279 0.0
C306 C 0.40712 0.04139 0.44056 0.0
C307 C 0.41778 1.00092 0.28923 0.0
C308 C 0.44416 0.98815 0.35488 0.0
C309 C 0.3992 0.02727 0.33202 0.0
C310 C 0.43388 0.02887 0.5054 0.0
C311 C 0.47999 0.98815 0.53092 0.0
H312 H 0.59737 0.08918 0.49059 0.0
H313 H 0.56117 0.07681 0.32286 0.0
H314 H 0.65403 0.11022 0.45929 0.0
H315 H 0.63226 0.1225 0.09312 0.0
H316 H 0.41145 0.99008 0.20586 0.0
H317 H 0.4579 0.96719 0.32195 0.0
H318 H 0.37834 0.03637 0.28116 0.0
H319 H 0.44001 0.03989 0.58841 0.0
C320 C 0.4304 0.50049 0.86318 0.0
C321 C 0.44151 0.46965 0.04163 0.0
C322 C 0.45154 0.49272 0.95562 0.0
C323 C 0.41017 0.45419 0.0326 0.0
C324 C 0.39857 0.48541 0.85547 0.0
C325 C 0.3888 0.46199 0.93968 0.0
N326 N 0.44034 0.52367 0.7837 0.0
C327 C 0.41836 0.53452 0.7001 0.0
C328 C 0.37706 0.49493 0.76513 0.0
C329 C 0.38686 0.51988 0.68803 0.0
Gd330 Gd 0.56739 0.52795 0.61643 0.0
Gd331 Gd 0.49347 0.54812 0.81722 0.0
N332 N 0.48192 0.50786 0.96183 0.0
C333 C 0.46311 0.46306 0.13507 0.0
C334 C 0.50237 0.50259 0.05594 0.0
C335 C 0.49361 0.47974 0.1425 0.0
H336 H 0.52596 0.51531 0.06189 0.0
H337 H 0.51033 0.4751 0.21508 0.0
H338 H 0.52572 0.5218 0.35366 0.0
H339 H 0.42446 0.5553 0.64446 0.0
H340 H 0.5164 0.55715 0.18266 0.0
H341 H 0.45627 0.44552 0.20274 0.0
H342 H 0.40206 0.43645 0.09783 0.0
H343 H 0.63027 0.5646 0.76215 0.0
H344 H 0.35245 0.48394 0.75641 0.0
H345 H 0.36991 0.52832 0.62049 0.0
H346 H 0.59593 0.64454 0.21998 0.0
H347 H 0.36446 0.45023 0.93498 0.0
H348 H 0.66655 0.64595 0.5575 0.0
H349 H 0.66995 0.61102 0.73481 0.0
N350 N 0.60437 0.57348 0.60267 0.0
C351 C 0.6031 0.5914 0.50203 0.0
C352 C 0.62857 0.57977 0.68457 0.0
C353 C 0.64922 0.62549 0.5687 0.0
C354 C 0.65115 0.60592 0.6691 0.0
C355 C 0.62501 0.61843 0.48379 0.0
H356 H 0.63838 0.65868 0.36711 0.0
N357 N 0.55954 0.5557 0.4357 0.0
C358 C 0.57948 0.58285 0.418 0.0
C359 C 0.55337 0.59283 0.23088 0.0
C360 C 0.5769 0.60199 0.31489 0.0
C361 C 0.53887 0.54507 0.34815 0.0
C362 C 0.53443 0.56427 0.24762 0.0
O363 O 0.50927 0.49299 0.82938 0.0
O364 O 0.54715 0.4783 0.68903 0.0
O365 O 0.59212 0.49813 0.48408 0.0
O366 O 0.61787 0.51178 0.642 0.0
O367 O 0.54556 0.55614 0.90365 0.0
O368 O 0.57985 0.51986 0.80851 0.0
O369 O 0.56096 0.58238 0.68052 0.0
O370 O 0.50557 0.59008 0.68203 0.0
O371 O 0.49644 0.58424 0.95507 0.0
O372 O 0.44873 0.57306 0.87476 0.0
O373 O 0.51501 0.50967 0.54825 0.0
O374 O 0.48326 0.55053 0.6229 0.0
C375 C 0.52769 0.47029 0.77791 0.0
C376 C 0.5733 0.53826 0.89976 0.0
C377 C 0.6335 0.46155 0.56399 0.0
C378 C 0.63068 0.40193 0.54226 0.0
C379 C 0.67609 0.42644 0.65203 0.0
C380 C 0.66317 0.45794 0.6291 0.0
C381 C 0.65981 0.39831 0.60905 0.0
C382 C 0.61751 0.43341 0.52052 0.0
C383 C 0.61905 0.49464 0.54752 0.0
C384 C 0.59785 0.62959 0.29834 0.0
C385 C 0.62205 0.6376 0.38201 0.0
H386 H 0.55005 0.6072 0.15181 0.0
C387 C 0.53562 0.60233 0.6592 0.0
C388 C 0.48609 0.52573 0.55019 0.0
C389 C 0.45588 0.62584 0.95402 0.0
C390 C 0.4776 0.68129 0.93447 0.0
C391 C 0.43148 0.66964 0.06668 0.0
C392 C 0.43318 0.63623 0.03805 0.0
C393 C 0.45442 0.6919 0.01882 0.0
C394 C 0.47474 0.64907 0.89213 0.0
C395 C 0.4647 0.59105 0.94958 0.0
H396 H 0.69877 0.42386 0.70289 0.0
H397 H 0.67608 0.47948 0.66353 0.0
H398 H 0.67007 0.37396 0.62585 0.0
H399 H 0.5948 0.43578 0.46932 0.0
H400 H 0.41439 0.67778 0.13308 0.0
H401 H 0.41804 0.6184 0.08514 0.0
H402 H 0.45525 0.71679 0.0536 0.0
H403 H 0.48994 0.64105 0.82049 0.0
C404 C 0.07304 0.41916 0.91996 0.0
C405 C 0.10856 0.44494 0.06645 0.0
C406 C 0.08144 0.44648 0.98739 0.0
C407 C 0.12662 0.41545 0.07843 0.0
C408 C 0.0899 0.38885 0.93765 0.0
C409 C 0.11707 0.38736 0.01527 0.0
N410 N 0.04636 0.42122 0.84612 0.0
C411 C 0.03471 0.39332 0.79143 0.0
C412 C 0.07799 0.36048 0.88135 0.0
C413 C 0.04988 0.36261 0.80987 0.0
Gd414 Gd 0.03263 0.54608 0.60778 0.0
Gd415 Gd 1.021 0.47406 0.82773 0.0
N416 N 0.06227 0.47425 0.97846 0.0
C417 C 0.11638 0.47289 0.13296 0.0
C418 C 0.06785 0.50011 0.05312 0.0
C419 C 0.0959 0.50059 0.12623 0.0
H420 H 0.05113 0.52064 0.05677 0.0
H421 H 0.10084 0.52182 0.18122 0.0
H422 H 0.9991 0.49069 0.41005 0.0
H423 H 1.01396 0.39462 0.73193 0.0
H424 H 0.96148 0.49219 0.24222 0.0
H425 H 0.13738 0.47287 0.19293 0.0
H426 H 0.14749 0.41386 0.13866 0.0
H427 H 1.01098 0.61146 0.77782 0.0
H428 H 0.08986 0.33667 0.89447 0.0
H429 H 0.04025 0.3407 0.7669 0.0
H430 H 0.90727 0.59678 0.27499 0.0
H431 H 0.13047 0.3644 0.02874 0.0
H432 H 0.9286 0.66014 0.61789 0.0
H433 H 0.96876 0.65486 0.78101 0.0
N434 N 0.99227 0.58835 0.62412 0.0
C435 C 0.97051 0.59106 0.53288 0.0
C436 C 0.99203 0.61131 0.71145 0.0
C437 C 0.94627 0.63993 0.61872 0.0
C438 C 0.96867 0.63686 0.71142 0.0
C439 C 0.94718 0.61714 0.52746 0.0
H440 H 0.90757 0.6397 0.42577 0.0
N441 N 0.99138 0.54046 0.45949 0.0
C442 C 0.9705 0.56681 0.44717 0.0
C443 C 0.94485 0.54168 0.27745 0.0
C444 C 0.94694 0.5682 0.35501 0.0
C445 C 0.98695 0.51338 0.39038 0.0
C446 C 0.96437 0.51378 0.29711 0.0
O447 O 0.07534 0.49125 0.81925 0.0
O448 O 0.08407 0.53358 0.68799 0.0
O449 O 0.06123 0.55942 0.4531 0.0
O450 O 0.04753 0.5967 0.57659 0.0
O451 O 1.01088 0.52623 0.90211 0.0
O452 O 0.044 0.56136 0.79509 0.0
O453 O 0.9803 0.53386 0.67353 0.0
O454 O 0.98369 0.47868 0.67522 0.0
O455 O 0.97369 0.48259 0.91527 0.0
O456 O 0.99666 0.43447 0.92164 0.0
O457 O 0.04771 0.4947 0.53009 0.0
O458 O 0.02756 0.4522 0.64713 0.0
C459 C 0.09542 0.51253 0.76761 0.0
C460 C 0.02601 0.55531 0.88863 0.0
C461 C 0.1013 0.60083 0.50435 0.0
C462 C 0.16006 0.58761 0.49318 0.0
C463 C 0.14213 0.63259 0.61617 0.0
C464 C 0.10917 0.62694 0.58121 0.0
C465 C 0.16747 0.61232 0.57514 0.0
C466 C 0.12713 0.58251 0.45603 0.0
C467 C 0.06649 0.58961 0.48982 0.0
C468 C 0.92514 0.59516 0.34604 0.0
C469 C 0.92523 0.61954 0.43212 0.0
H470 H 0.92702 0.54176 0.20605 0.0
C471 C 0.9653 0.50526 0.65714 0.0
C472 C 0.04167 0.46246 0.54966 0.0
C473 C 0.93964 0.43588 0.87926 0.0
C474 C 0.87966 0.4294 0.87113 0.0
C475 C 0.91307 0.4055 0.72005 0.0
C476 C 0.9417 0.41837 0.77372 0.0
C477 C 0.88185 0.41119 0.76824 0.0
C478 C 0.90851 0.44118 0.92743 0.0
C479 C 0.96936 0.45092 0.93388 0.0
H480 H 0.14788 0.65203 0.67788 0.0
H481 H 0.08972 0.64196 0.61863 0.0
H482 H 0.19284 0.61621 0.60536 0.0
H483 H 0.12159 0.56288 0.39448 0.0
H484 H 0.91505 0.39199 0.63923 0.0
H485 H 0.96514 0.41548 0.73047 0.0
H486 H 0.85957 0.40215 0.72463 0.0
H487 H 0.90652 0.45545 1.00699 0.0
C488 C 0.13673 1.01983 0.30644 0.0
C489 C 0.16088 0.04491 0.32857 0.0
C490 C 0.11666 0.06908 0.45586 0.0
C491 C 0.0982 0.03844 0.45984 0.0
N492 N 0.10702 0.97963 0.41705 0.0
N493 N 0.17234 0.09382 0.44368 0.0
C494 C 0.11247 1.01225 0.39247 0.0
C495 C 0.15033 0.07011 0.40784 0.0
N496 N 0.13842 1.00128 0.20782 0.0
N497 N 0.10268 0.09704 0.499 0.0
H498 H 0.197 0.09448 0.41617 0.0
H499 H 0.16669 0.11075 0.50885 0.0
H500 H 0.07814 0.09728 0.52849 0.0
H501 H 0.11414 0.12025 0.49278 0.0
H502 H 0.121 0.9827 0.18915 0.0
H503 H 0.15524 1.00694 0.14143 0.0
H504 H 0.11913 0.96086 0.37178 0.0
H505 H 0.0943 0.97123 0.48955 0.0
C506 C 0.50973 0.1353 0.32271 0.0
C507 C 0.51663 0.16911 0.35398 0.0
C508 C 0.50761 0.15081 0.55862 0.0
C509 C 0.51325 0.11679 0.53172 0.0
N510 N 0.50193 0.07723 0.37999 0.0
N511 N 0.51958 0.2084 0.51158 0.0
C512 C 0.50925 0.10911 0.41057 0.0
C513 C 0.51466 0.17668 0.47481 0.0
N514 N 0.50147 0.12873 0.20934 0.0
N515 N 0.49025 0.1582 0.65621 0.0
H516 H 0.52774 0.22739 0.457 0.0
H517 H 0.51754 0.21527 0.59836 0.0
H518 H 0.48004 0.13964 0.70862 0.0
H519 H 0.48155 0.18197 0.67335 0.0
H520 H 0.49454 0.1056 0.17764 0.0
H521 H 0.49902 0.14745 0.14685 0.0
H522 H 0.50171 0.06833 0.29518 0.0
H523 H 0.49459 0.0596 0.44084 0.0
C524 C 0.40552 0.49378 0.38218 0.0
C525 C 0.40353 0.5164 0.28468 0.0
C526 C 0.45094 0.54525 0.37305 0.0
C527 C 0.45838 0.52034 0.45607 0.0
N528 N 0.44298 0.46533 0.51934 0.0
N529 N 0.43992 0.55179 0.17 0.0
C530 C 0.43603 0.49241 0.45297 0.0
C531 C 0.43206 0.53721 0.27299 0.0
N532 N 0.37835 0.47573 0.41472 0.0
N533 N 0.45503 0.57772 0.39797 0.0
H534 H 0.42792 0.54539 0.09232 0.0
H535 H 0.46005 0.56817 0.16447 0.0
H536 H 0.45853 0.58552 0.48336 0.0
H537 H 0.44767 0.59613 0.33891 0.0
H538 H 0.37823 0.46096 0.48951 0.0
H539 H 0.35504 0.47884 0.3762 0.0
H540 H 0.42849 0.44379 0.51688 0.0
H541 H 0.46533 0.46367 0.56576 0.0
C542 C 0.0347 0.41383 0.25669 0.0
C543 C 0.03501 0.38002 0.29515 0.0
C544 C 0.05405 0.40204 0.48664 0.0
C545 C 0.04672 0.43552 0.45447 0.0
N546 N 0.04434 0.47117 0.28296 0.0
N547 N 0.04328 0.34326 0.45892 0.0
C548 C 0.04116 0.44082 0.33322 0.0
C549 C 0.0447 0.37449 0.41317 0.0
N550 N 0.02899 0.42164 0.1436 0.0
N551 N 0.07378 0.39668 0.58139 0.0
H552 H 0.03545 0.32275 0.41096 0.0
H553 H 0.04706 0.33842 0.5473 0.0
H554 H 0.08256 0.41619 0.6322 0.0
H555 H 0.08435 0.37368 0.6001 0.0
H556 H 0.02644 0.40397 0.0784 0.0
H557 H 0.02644 0.40397 0.0784 0.0
H558 H 0.05332 0.49218 0.32547 0.0
H559 H 0.05332 0.49218 0.32547 0.0
C560 C 0.9319 0.98403 0.1721 0.0
C561 C 0.90973 1.01438 0.18296 0.0
C562 C 0.94894 0.04416 0.04832 0.0
C563 C 0.95471 1.01425 0.98737 0.0
N564 N 0.92155 0.96653 0.95856 0.0
N565 N 0.90811 0.07437 0.16168 0.0
C566 C 0.93681 0.98723 0.03709 0.0
C567 C 0.92253 0.04503 0.13395 0.0
N568 N 0.95173 0.94968 0.29122 0.0
N569 N 0.96736 0.07159 0.02332 0.0
H570 H 0.88996 0.07617 0.22562 0.0
H571 H 0.91389 0.09652 0.11896 0.0
H572 H 0.98642 0.07081 0.96236 0.0
H573 H 0.96554 0.09353 0.07043 0.0
H574 H 0.95434 0.94019 0.37754 0.0
H575 H 0.95434 0.94019 0.37754 0.0
H576 H 0.92427 0.96994 0.86881 0.0
H577 H 0.90551 0.94722 0.98123 0.0
C578 C 0.55141 0.93907 0.19705 0.0
C579 C 0.57366 0.91351 0.16236 0.0
C580 C 0.58809 0.94805 0.9879 0.0
C581 C 0.56493 0.97313 0.02002 0.0
N582 N 0.52287 0.99116 0.1535 0.0
N583 N 0.61022 0.89219 0.01662 0.0
C584 C 0.54608 0.96805 0.12407 0.0
C585 C 0.59127 0.91785 0.05569 0.0
N586 N 0.53613 0.9361 0.30261 0.0
N587 N 0.60695 0.95293 0.89076 0.0
H588 H 0.61253 0.86989 0.0623 0.0
H589 H 0.62148 0.8916 0.93537 0.0
H590 H 0.60262 0.97233 0.8326 0.0
H591 H 0.6273 0.93848 0.86858 0.0
H592 H 0.52253 0.9548 0.34155 0.0
H593 H 0.53837 0.91502 0.35505 0.0
H594 H 0.50579 0.98819 0.22028 0.0
H595 H 0.51967 1.01332 0.10784 0.0
C596 C 0.63378 0.50707 0.14657 0.0
C597 C 0.65329 0.53595 0.17044 0.0
C598 C 0.61791 0.5674 0.02932 0.0
C599 C 0.59891 0.53832 1.00143 0.0
N600 N 0.58812 0.48056 0.03911 0.0
N601 N 0.66182 0.5935 0.15023 0.0
C602 C 0.60682 0.5082 0.06204 0.0
C603 C 0.64459 0.5661 0.1148 0.0
N604 N 0.64061 0.4787 0.20792 0.0
N605 N 0.61086 0.59609 0.97136 0.0
H606 H 0.65714 0.61769 0.12287 0.0
H607 H 0.65714 0.61769 0.12287 0.0
H608 H 0.59036 0.59796 0.9162 0.0
H609 H 0.62527 0.61757 0.97409 0.0
H610 H 0.62664 0.45697 0.20416 0.0
H611 H 0.66049 0.47696 0.26674 0.0
H612 H 0.59275 0.45705 0.0725 0.0
H613 H 0.56732 0.48105 0.98446 0.0
C614 C 0.99106 0.62409 0.09466 0.0
C615 C 1.02043 0.63663 0.14988 0.0
C616 C 0.05339 0.59566 0.03704 0.0
C617 C 0.02386 0.58214 0.98448 0.0
N618 N 0.96372 0.58072 0.98155 0.0
N619 N 0.07928 0.63099 0.18485 0.0
C620 C 0.99249 0.59558 0.01908 0.0
C621 C 0.05149 0.62148 0.12348 0.0
N622 N 0.96152 0.63986 0.11338 0.0
N623 N 0.08362 0.58333 1.00585 0.0
H624 H 0.07935 0.65079 0.24294 0.0
H625 H 0.10179 0.61832 0.18383 0.0
H626 H 0.08596 0.56212 0.95555 0.0
H627 H 0.10635 0.59441 0.02708 0.0
H628 H 0.93969 0.63491 0.06696 0.0
H629 H 0.95938 0.65994 0.16965 0.0
H630 H 0.94021 0.58626 1.01353 0.0
H631 H 0.96345 0.5608 0.92464 0.0
C632 C 1.01168 0.20133 0.43169 0.0
C633 C 1.00036 0.20867 0.31776 0.0
C634 C 0.94262 0.19824 0.37319 0.0
C635 C 0.95431 0.18847 0.48415 0.0
N636 N 0.99585 0.19302 0.63301 0.0
N637 N 0.95476 0.22645 0.19262 0.0
C638 C 0.98767 0.19437 0.51804 0.0
C639 C 0.96565 0.21127 0.29252 0.0
N640 N 0.04504 0.19986 0.45589 0.0
N641 N 0.91003 0.1929 0.34269 0.0
H642 H 0.9708 0.23684 0.1314 0.0
H643 H 0.92978 0.23165 0.17577 0.0
H644 H 0.89224 0.18481 0.40244 0.0
H645 H 0.90105 0.19509 0.25766 0.0
H646 H 0.05464 0.19141 0.53512 0.0
H647 H 0.06319 0.20527 0.3938 0.0
H648 H 1.01939 0.19888 0.66612 0.0
H649 H 0.97721 0.18974 0.69477 0.0
C650 C 0.36762 0.1237 0.43097 0.0
C651 C 0.33557 0.10975 0.41665 0.0
C652 C 0.35273 0.06015 0.51802 0.0
C653 C 0.38577 0.06818 0.48566 0.0
N654 N 0.42659 0.11143 0.45982 0.0
N655 N 0.29686 0.08199 0.54301 0.0
C656 C 0.39406 0.10176 0.46127 0.0
C657 C 0.3277 0.08388 0.49501 0.0
N658 N 0.3727 0.15575 0.3979 0.0
N659 N 0.34538 0.02968 0.56293 0.0
H660 H 0.27938 0.10068 0.52844 0.0
H661 H 0.29028 0.06404 0.60445 0.0
H662 H 0.36408 1.01258 0.58265 0.0
H663 H 0.32103 0.02156 0.5775 0.0
H664 H 0.39567 0.16784 0.40255 0.0
H665 H 0.3527 0.1702 0.36901 0.0
H666 H 0.4347 0.13508 0.43645 0.0
H667 H 0.44523 0.09534 0.48777 0.0
C668 C 0.55742 0.35187 0.45804 0.0
C669 C 0.56601 0.3451 0.34175 0.0
C670 C 0.62302 0.36453 0.37389 0.0
C671 C 0.61373 0.37357 0.48779 0.0
N672 N 0.57774 0.36565 0.65105 0.0
N673 N 0.6073 0.33366 0.19992 0.0
C674 C 0.5827 0.36356 0.53425 0.0
C675 C 0.59936 0.34767 0.30377 0.0
N676 N 0.52511 0.34869 0.49345 0.0
N677 N 0.65324 0.37426 0.33083 0.0
H678 H 0.63137 0.33231 0.16669 0.0
H679 H 0.63137 0.33231 0.16669 0.0
H680 H 0.67154 0.38549 0.38252 0.0
H681 H 0.65961 0.37273 0.24332 0.0
H682 H 0.51675 0.35661 0.57429 0.0
H683 H 0.50621 0.33983 0.43873 0.0
H684 H 0.55665 0.35625 0.69232 0.0
H685 H 0.59679 0.37362 0.70666 0.0
C686 C 0.23494 0.55944 0.32238 0.0
C687 C 0.22809 0.52488 0.31772 0.0
C688 C 0.18427 0.53132 0.46119 0.0
C689 C 0.18641 0.5663 0.44554 0.0
N690 N 0.21119 0.6136 0.34793 0.0
N691 N 0.1981 0.47703 0.3858 0.0
C692 C 0.21147 0.58049 0.37456 0.0
C693 C 0.20371 0.51045 0.39025 0.0
N694 N 0.26322 0.5724 0.27405 0.0
N695 N 0.16318 0.51827 0.54219 0.0
H696 H 0.2134 0.46121 0.33858 0.0
H697 H 0.17784 0.46521 0.42458 0.0
H698 H 0.14794 0.53312 0.5925 0.0
H699 H 0.16244 0.49327 0.56488 0.0
H700 H 0.27063 0.59699 0.28514 0.0
H701 H 0.28135 0.5581 0.23494 0.0
H702 H 0.22644 0.62426 0.28475 0.0
H703 H 0.19359 0.63008 0.37968 0.0
C704 C 1.00489 0.79704 0.98075 0.0
C705 C 0.98525 0.8118 0.06852 0.0
C706 C 1.01047 0.86366 0.04043 0.0
C707 C 0.03598 0.8494 0.97177 0.0
N708 N 0.051 0.80447 0.8443 0.0
N709 N 0.95317 0.86032 0.09832 0.0
C710 C 0.03108 0.8165 0.92989 0.0
C711 C 0.98087 0.84575 0.05583 0.0
N712 N 0.9965 0.76629 0.94157 0.0
N713 N 1.01661 0.88895 0.11501 0.0
H714 H 0.93231 0.84658 0.12435 0.0
H715 H 0.93231 0.84658 0.12435 0.0
H716 H 0.04052 0.89811 0.13217 0.0
H717 H 0.04052 0.89811 0.13217 0.0
H718 H 1.00946 0.75364 0.87764 0.0
H719 H 0.9746 0.75462 0.96923 0.0
H720 H 0.0498 0.78026 0.81373 0.0
H721 H 0.06842 0.81947 0.8017 0.0
C722 C 0.73892 0.10571 0.1972 0.0
C723 C 0.75164 0.11766 0.30372 0.0
C724 C 0.69977 0.14814 0.327 0.0
C725 C 0.68389 0.12402 0.25476 0.0
N726 N 0.69106 0.07845 0.11835 0.0
N727 N 0.7493 0.16073 0.44436 0.0
C728 C 0.70413 0.10316 0.18532 0.0
C729 C 0.73417 0.14387 0.35604 0.0
N730 N 0.759 0.09143 0.11733 0.0
N731 N 0.68158 0.17352 0.37136 0.0
H732 H 0.77426 0.15626 0.46576 0.0
H733 H 0.73724 0.17789 0.49651 0.0
H734 H 0.65643 0.1766 0.34982 0.0
H735 H 0.69188 0.19254 0.42119 0.0
H736 H 0.78497 0.09219 0.12366 0.0
H737 H 0.78497 0.09219 0.12366 0.0
H738 H 0.70614 0.0624 0.07119 0.0
H739 H 0.66599 0.07194 0.11846 0.0
C740 C 0.55765 0.71084 0.0349 0.0
C741 C 0.54222 0.73979 0.07519 0.0
C742 C 0.50333 0.73581 0.91229 0.0
C743 C 0.50838 0.70137 0.91431 0.0
N744 N 0.54812 0.65724 0.95171 0.0
N745 N 0.50105 0.78301 0.0398 0.0
C746 C 0.53892 0.68949 0.96242 0.0
C747 C 0.51616 0.7543 1.0073 0.0
N748 N 0.58922 0.70328 0.07093 0.0
N749 N 0.48198 0.74897 0.83214 0.0
H750 H 0.50789 0.79656 0.11297 0.0
H751 H 0.47992 0.79222 0.99772 0.0
H752 H 0.47097 0.73402 0.76825 0.0
H753 H 0.47794 0.77438 0.82379 0.0
H754 H 0.60273 0.68357 0.03726 0.0
H755 H 0.60283 0.71903 0.1257 0.0
H756 H 0.56655 0.64659 1.00374 0.0
H757 H 0.538 0.64131 0.89028 0.0
C758 C 0.82515 0.48923 1.00185 0.0
C759 C 0.81959 0.47158 0.10721 0.0
C760 C 0.83693 0.41998 0.01838 0.0
C761 C 0.84765 0.43849 0.92139 0.0
N762 N 0.84213 0.48631 0.79894 0.0
N763 N 0.81255 0.41859 0.20656 0.0
C764 C 0.83769 0.47168 0.9052 0.0
C765 C 0.82229 0.43657 0.11189 0.0
N766 N 0.82062 0.52278 0.99729 0.0
N767 N 0.8428 0.38675 0.02435 0.0
H768 H 0.80125 0.42882 0.27959 0.0
H769 H 0.80125 0.42882 0.27959 0.0
H770 H 0.85345 0.37393 0.95528 0.0
H771 H 0.83626 0.37236 0.09661 0.0
H772 H 0.82719 0.53759 0.92653 0.0
H773 H 0.8112 0.53625 0.0669 0.0
H774 H 0.83424 0.51012 0.77758 0.0
H775 H 0.85157 0.47303 0.72887 0.0
C776 C 0.06039 0.1611 0.88731 0.0
C777 C 0.03115 0.17799 0.92334 0.0
C778 C 0.9972 0.1321 0.83454 0.0
C779 C 0.0266 0.11498 0.79987 0.0
N780 N 0.08588 0.11762 0.77231 0.0
N781 N 0.97147 0.18125 0.91971 0.0
C782 C 0.05803 0.13092 0.82035 0.0
C783 C 0.99952 0.1638 0.89313 0.0
N784 N 0.09074 0.17299 0.92287 0.0
N785 N 0.96689 0.11743 0.815 0.0
H786 H 0.97261 0.20474 0.95702 0.0
H787 H 0.94734 0.17434 0.89646 0.0
H788 H 0.96424 0.09485 0.77235 0.0
H789 H 0.94441 0.12612 0.84673 0.0
H790 H 0.11288 0.15988 0.91504 0.0
H791 H 0.09351 0.19548 0.9665 0.0
H792 H 0.10899 0.1295 0.77061 0.0
H793 H 0.0852 0.09556 0.72579 0.0
C794 C 0.38392 0.04319 0.98269 0.0
C795 C 0.37341 0.07481 0.0222 0.0
C796 C 0.42825 0.09699 0.95026 0.0
C797 C 0.43832 0.06543 0.90635 0.0
N798 N 0.41301 1.01446 0.83152 0.0
N799 N 0.38271 0.13361 1.00313 0.0
C800 C 0.41246 0.04029 0.9074 0.0
C801 C 0.39489 0.10217 0.99405 0.0
N802 N 0.36784 1.01522 0.01964 0.0
N803 N 0.44994 0.12295 0.94513 0.0
H804 H 0.35813 0.13833 0.02692 0.0
H805 H 0.3955 0.15461 0.9743 0.0
H806 H 0.47137 0.12189 0.8957 0.0
H807 H 0.44664 0.145 0.99039 0.0
H808 H 0.37655 0.99153 1.00094 0.0
H809 H 0.34835 1.01559 0.07901 0.0
H810 H 0.39325 0.99765 0.82373 0.0
H811 H 0.43067 1.01195 0.76701 0.0
C812 C 0.49448 0.38773 0.92225 0.0
C813 C 0.52405 0.37045 0.95412 0.0
C814 C 0.55682 0.41663 0.86001 0.0
C815 C 0.52695 0.43412 0.82821 0.0
N816 N 0.46743 0.42993 0.80348 0.0
N817 N 0.58334 0.36634 0.93815 0.0
C818 C 0.49591 0.41768 0.85225 0.0
C819 C 0.55513 0.38438 0.91725 0.0
N820 N 0.4647 0.37637 0.96389 0.0
N821 N 0.58708 0.43122 0.83923 0.0
H822 H 0.58245 0.34252 0.97387 0.0
H823 H 0.60725 0.37324 0.91311 0.0
H824 H 0.58989 0.45413 0.79874 0.0
H825 H 0.60981 0.42192 0.86793 0.0
H826 H 0.44266 0.38982 0.95859 0.0
H827 H 0.46252 0.3541 1.01 0.0
H828 H 0.44458 0.41754 0.80502 0.0
H829 H 0.46733 0.45129 0.75259 0.0
C830 C 0.18026 0.47709 0.87879 0.0
C831 C 0.19895 0.50578 0.91053 0.0
C832 C 0.15223 0.54039 0.83205 0.0
C833 C 0.13287 0.51142 0.80399 0.0
N834 N 0.13535 0.45311 0.76291 0.0
N835 N 0.20584 0.56457 0.89247 0.0
C836 C 0.14904 0.48007 0.81668 0.0
C837 C 0.18583 0.53733 0.87844 0.0
N838 N 0.192 0.44666 0.91096 0.0
N839 N 0.13839 0.571 0.81821 0.0
H840 H 0.22999 0.56287 0.92637 0.0
H841 H 0.20001 0.58811 0.86132 0.0
H842 H 0.11506 0.57483 0.78084 0.0
H843 H 0.14909 0.59275 0.84975 0.0
H844 H 0.17815 0.42486 0.90332 0.0
H845 H 0.21528 0.44349 0.95053 0.0
H846 H 0.14673 0.43002 0.75939 0.0
H847 H 0.11439 0.45512 0.70946 0.0
C848 C 0.03669 0.85829 0.51989 0.0
C849 C 1.00533 0.84404 0.48791 0.0
C850 C 0.9784 0.89413 0.57611 0.0
C851 C 1.00972 0.91073 0.59133 0.0
N852 N 0.06958 0.90719 0.56912 0.0
N853 N 0.94569 0.85015 0.48415 0.0
C854 C 0.03907 0.8921 0.56276 0.0
C855 C 0.97612 0.86255 0.51655 0.0
N856 N 0.06465 0.83947 0.5088 0.0
N857 N 0.9506 0.90784 0.62371 0.0
H858 H 0.94263 0.82634 0.4504 0.0
H859 H 0.92385 0.86398 0.48524 0.0
H860 H 0.95144 0.92959 0.67239 0.0
H861 H 0.92746 0.89602 0.62607 0.0
H862 H 0.08782 0.84614 0.54314 0.0
H863 H 0.06404 0.81558 0.47475 0.0
H864 H 0.09117 0.89726 0.53409 0.0
H865 H 0.07331 0.93083 0.60191 0.0
C866 C 0.69808 0.02815 0.65215 0.0
C867 C 0.70275 0.02913 0.52967 0.0
C868 C 0.64062 0.02605 0.50538 0.0
C869 C 0.63585 0.02868 0.6287 0.0
N870 N 0.66127 1.0175 0.81536 0.0
N871 N 0.67973 0.02789 0.34032 0.0
C872 C 0.66503 0.02548 0.70068 0.0
C873 C 0.674 0.02678 0.45702 0.0
N874 N 0.72538 0.03128 0.72312 0.0
N875 N 0.61334 0.02297 0.43431 0.0
H876 H 0.66133 0.02863 0.2759 0.0
H877 H 0.66133 0.02863 0.2759 0.0
H878 H 0.58912 0.0269 0.46271 0.0
H879 H 0.61419 1.01593 0.34745 0.0
H880 H 0.72397 0.03493 0.81265 0.0
H881 H 0.74964 0.03175 0.69079 0.0
H882 H 0.68096 1.01091 0.87024 0.0
H883 H 0.63798 1.01488 0.85358 0.0
C884 C 0.51853 0.6841 0.48027 0.0
C885 C 0.54717 0.7049 0.49412 0.0
C886 C 0.56727 0.66114 0.6355 0.0
C887 C 0.5408 0.63831 0.60487 0.0
N888 N 0.504 0.62742 0.44548 0.0
N889 N 0.60228 0.70841 0.57794 0.0
C890 C 0.51943 0.64988 0.51448 0.0
C891 C 0.57244 0.69216 0.57086 0.0
N892 N 0.49046 0.69635 0.42854 0.0
N893 N 0.58784 0.65355 0.72609 0.0
H894 H 0.60699 0.73044 0.53306 0.0
H895 H 0.62304 0.69866 0.62076 0.0
H896 H 0.58572 0.63132 0.77084 0.0
H897 H 0.60504 0.67021 0.76148 0.0
H898 H 0.46871 0.68217 0.42015 0.0
H899 H 0.48823 0.72131 0.40536 0.0
H900 H 0.49136 0.63437 0.36948 0.0
H901 H 0.50969 0.60238 0.45356 0.0
C902 C 0.87684 0.53471 0.54964 0.0
C903 C 0.86323 0.50644 0.49237 0.0
C904 C 0.91635 0.47706 0.53893 0.0
C905 C 0.92909 0.50425 0.60602 0.0
N906 N 0.91272 0.55441 0.70555 0.0
N907 N 0.86683 0.44705 0.47589 0.0
C908 C 0.9067 0.53172 0.6203 0.0
C909 C 0.88199 0.47651 0.5018 0.0
N910 N 0.86219 0.56485 0.53459 0.0
N911 N 0.93691 0.45243 0.50234 0.0
H912 H 0.84151 0.44544 0.4548 0.0
H913 H 0.87835 0.42422 0.48902 0.0
H914 H 0.96246 0.45212 0.51682 0.0
H915 H 0.92901 0.43412 0.44441 0.0
H916 H 0.87274 0.58677 0.56589 0.0
H917 H 0.84113 0.56829 0.48242 0.0
H918 H 0.89617 0.57336 0.72526 0.0
H919 H 0.93166 0.55151 0.76682 0.0
loop_
_geom_bond_atom_site_label_1
_geom_bond_atom_site_label_2
_geom_bond_distance
_geom_bond_site_symmetry_2
_ccdc_geom_bond_type
H0 C1 0.949 . S
C1 H0 0.949 . S
C1 C2 1.395 . S
C1 C3 1.391 . S
C2 C1 1.395 . S
C2 C5 1.390 . S
C3 C1 1.391 . S
C3 C7 1.387 . S
C3 C8 1.491 . S
H4 C5 0.950 . S
C5 C2 1.390 . S
C5 H4 0.950 . S
C5 C6 1.378 . S
C6 C5 1.378 . S
C6 C7 1.409 . S
C7 C3 1.387 . S
C7 C6 1.409 . S
C7 H9 0.951 . S
C8 C3 1.491 . S
C8 C10 1.382 . S
C8 C12 1.404 . S
H9 C7 0.951 . S
C10 C8 1.382 . S
C10 C11 1.390 . S
C10 H15 0.949 . S
C11 C10 1.390 . S
C11 C16 1.399 . S
C12 C8 1.404 . S
C12 H13 0.950 . S
C12 C14 1.375 . S
H13 C12 0.950 . S
C14 C12 1.375 . S
C14 C16 1.382 . S
C14 H18 0.950 . S
H15 C10 0.949 . S
C16 C11 1.399 . S
C16 C14 1.382 . S
C16 H17 0.952 . S
H17 C16 0.952 . S
H18 C14 0.950 . S
H19 C20 0.949 . S
C20 H19 0.949 . S
C20 C21 1.395 . S
C20 C22 1.391 . S
C21 C20 1.395 . S
C21 C24 1.390 . S
C22 C20 1.391 . S
C22 C26 1.387 . S
C22 C27 1.491 . S
H23 C24 0.950 . S
C24 C21 1.390 . S
C24 H23 0.950 . S
C24 C25 1.378 . S
C25 C24 1.378 . S
C25 C26 1.409 . S
C26 C22 1.387 . S
C26 C25 1.409 . S
C26 H28 0.951 . S
C27 C22 1.491 . S
C27 C29 1.382 . S
C27 C31 1.404 . S
H28 C26 0.951 . S
C29 C27 1.382 . S
C29 C30 1.390 . S
C29 H34 0.949 . S
C30 C29 1.390 . S
C30 C35 1.399 . S
C31 C27 1.404 . S
C31 H32 0.950 . S
C31 C33 1.375 . S
H32 C31 0.950 . S
C33 C31 1.375 . S
C33 C35 1.382 . S
C33 H37 0.950 . S
H34 C29 0.949 . S
C35 C30 1.399 . S
C35 C33 1.382 . S
C35 H36 0.952 . S
H36 C35 0.952 . S
H37 C33 0.950 . S
H38 C39 0.949 . S
C39 H38 0.949 . S
C39 C40 1.395 . S
C39 C41 1.391 . S
C40 C39 1.395 . S
C40 C43 1.390 . S
C41 C39 1.391 . S
C41 C45 1.387 . S
C41 C46 1.491 . S
H42 C43 0.950 . S
C43 C40 1.390 . S
C43 H42 0.950 . S
C43 C44 1.378 . S
C44 C43 1.378 . S
C44 C45 1.409 . S
C45 C41 1.387 . S
C45 C44 1.409 . S
C45 H47 0.951 . S
C46 C41 1.491 . S
C46 C48 1.382 . S
C46 C50 1.404 . S
H47 C45 0.951 . S
C48 C46 1.382 . S
C48 C49 1.390 . S
C48 H53 0.949 . S
C49 C48 1.390 . S
C49 C54 1.399 . S
C50 C46 1.404 . S
C50 H51 0.950 . S
C50 C52 1.375 . S
H51 C50 0.950 . S
C52 C50 1.375 . S
C52 C54 1.382 . S
C52 H56 0.950 . S
H53 C48 0.949 . S
C54 C49 1.399 . S
C54 C52 1.382 . S
C54 H55 0.952 . S
H55 C54 0.952 . S
H56 C52 0.950 . S
H57 C58 0.949 . S
C58 H57 0.949 . S
C58 C59 1.395 . S
C58 C60 1.391 . S
C59 C58 1.395 . S
C59 C62 1.390 . S
C60 C58 1.391 . S
C60 C64 1.387 . S
C60 C65 1.491 . S
H61 C62 0.950 . S
C62 C59 1.390 . S
C62 H61 0.950 . S
C62 C63 1.378 . S
C63 C62 1.378 . S
C63 C64 1.409 . S
C64 C60 1.387 . S
C64 C63 1.409 . S
C64 H66 0.951 . S
C65 C60 1.491 . S
C65 C67 1.382 . S
C65 C69 1.404 . S
H66 C64 0.951 . S
C67 C65 1.382 . S
C67 C68 1.390 . S
C67 H72 0.949 . S
C68 C67 1.390 . S
C68 C73 1.399 . S
C69 C65 1.404 . S
C69 H70 0.950 . S
C69 C71 1.375 . S
H70 C69 0.950 . S
C71 C69 1.375 . S
C71 C73 1.382 . S
C71 H75 0.950 . S
H72 C67 0.949 . S
C73 C68 1.399 . S
C73 C71 1.382 . S
C73 H74 0.952 . S
H74 C73 0.952 . S
H75 C71 0.950 . S
H76 C77 0.949 . S
C77 H76 0.949 . S
C77 C78 1.395 . S
C77 C79 1.393 . S
C78 C77 1.395 . S
C78 C81 1.390 1_554 S
C79 C77 1.393 . S
C79 C83 1.385 1_554 S
C79 C84 1.491 . S
H80 C81 0.950 . S
C81 C78 1.390 1_556 S
C81 H80 0.950 . S
C81 C82 1.378 . S
C82 C81 1.378 . S
C82 C83 1.409 . S
C83 C79 1.385 1_556 S
C83 C82 1.409 . S
C83 H85 0.951 . S
C84 C79 1.491 . S
C84 C86 1.382 . S
C84 C88 1.404 1_554 S
H85 C83 0.951 . S
C86 C84 1.382 . S
C86 C87 1.390 . S
C86 H91 0.949 . S
C87 C86 1.390 . S
C87 C92 1.399 . S
C88 C84 1.404 1_556 S
C88 H89 0.950 . S
C88 C90 1.375 . S
H89 C88 0.950 . S
C90 C88 1.375 . S
C90 C92 1.382 1_556 S
C90 H94 0.950 . S
H91 C86 0.949 . S
C92 C87 1.399 . S
C92 C90 1.382 1_554 S
C92 H93 0.952 . S
H93 C92 0.952 . S
H94 C90 0.950 . S
H95 C96 0.949 . S
C96 H95 0.949 . S
C96 C97 1.395 . S
C96 C98 1.391 . S
C97 C96 1.395 . S
C97 C100 1.390 1_554 S
C98 C96 1.391 . S
C98 C102 1.387 1_554 S
C98 C103 1.491 . S
H99 C100 0.950 . S
C100 C97 1.390 1_556 S
C100 H99 0.950 . S
C100 C101 1.378 . S
C101 C100 1.378 . S
C101 C102 1.409 . S
C102 C98 1.387 1_556 S
C102 C101 1.409 . S
C102 H104 0.951 . S
C103 C98 1.491 . S
C103 C105 1.382 . S
C103 C107 1.404 1_454 S
H104 C102 0.951 . S
C105 C103 1.382 . S
C105 C106 1.390 . S
C105 H110 0.949 . S
C106 C105 1.390 . S
C106 C111 1.399 . S
C107 C103 1.404 1_656 S
C107 H108 0.950 . S
C107 C109 1.375 . S
H108 C107 0.950 . S
C109 C107 1.375 . S
C109 C111 1.382 1_656 S
C109 H113 0.950 . S
H110 C105 0.949 . S
C111 C106 1.399 . S
C111 C109 1.382 1_454 S
C111 H112 0.952 1_455 S
H112 C111 0.952 1_655 S
H113 C109 0.950 . S
H114 C115 0.949 . S
C115 H114 0.949 . S
C115 C116 1.395 . S
C115 C117 1.391 . S
C116 C115 1.395 . S
C116 C119 1.390 1_554 S
C117 C115 1.391 . S
C117 C121 1.387 1_554 S
C117 C122 1.491 . S
H118 C119 0.950 . S
C119 C116 1.390 1_556 S
C119 H118 0.950 . S
C119 C120 1.378 . S
C120 C119 1.378 . S
C120 C121 1.409 . S
C121 C117 1.387 1_556 S
C121 C120 1.409 . S
C121 H123 0.951 . S
C122 C117 1.491 . S
C122 C124 1.382 . S
C122 C126 1.404 1_544 S
H123 C121 0.951 . S
C124 C122 1.382 . S
C124 C125 1.390 . S
C124 H129 0.949 . S
C125 C124 1.390 . S
C125 C130 1.399 . S
C126 C122 1.404 1_566 S
C126 H127 0.950 . S
C126 C128 1.375 . S
H127 C126 0.950 . S
C128 C126 1.375 . S
C128 C130 1.382 1_566 S
C128 H132 0.950 . S
H129 C124 0.949 . S
C130 C125 1.399 . S
C130 C128 1.382 1_544 S
C130 H131 0.952 1_545 S
H131 C130 0.952 1_565 S
H132 C128 0.950 . S
H133 C134 0.949 . S
C134 H133 0.949 . S
C134 C135 1.395 . S
C134 C136 1.391 1_554 S
C135 C134 1.395 . S
C135 C138 1.390 1_554 S
C136 C134 1.391 1_556 S
C136 C140 1.387 . S
C136 C141 1.491 1_556 S
H137 C138 0.950 . S
C138 C135 1.390 1_556 S
C138 H137 0.950 . S
C138 C139 1.378 . S
C139 C138 1.378 . S
C139 C140 1.409 . S
C140 C136 1.387 . S
C140 C139 1.409 . S
C140 H142 0.951 . S
C141 C136 1.491 1_554 S
C141 C143 1.382 . S
C141 C145 1.404 1_554 S
H142 C140 0.951 . S
C143 C141 1.382 . S
C143 C144 1.390 . S
C143 H148 0.949 . S
C144 C143 1.390 . S
C144 C149 1.399 . S
C145 C141 1.404 1_556 S
C145 H146 0.950 . S
C145 C147 1.375 . S
H146 C145 0.950 . S
C147 C145 1.375 . S
C147 C149 1.382 1_556 S
C147 H151 0.950 . S
H148 C143 0.949 . S
C149 C144 1.399 . S
C149 C147 1.382 1_554 S
C149 H150 0.952 . S
H150 C149 0.952 . S
H151 C147 0.950 . S
C152 C154 1.422 . S
C152 C156 1.415 . S
C152 N158 1.369 1_554 S
C153 C154 1.421 . S
C153 C155 1.417 . S
C153 C165 1.422 . S
C154 C152 1.422 . S
C154 C153 1.421 . S
C154 N164 1.359 . S
C155 C153 1.417 . S
C155 C157 1.329 . S
C155 H174 0.930 . S
C156 C152 1.415 . S
C156 C157 1.437 . S
C156 C160 1.413 1_554 S
C157 C155 1.329 . S
C157 C156 1.437 . S
C157 H179 0.929 . S
N158 C152 1.369 1_556 S
N158 C159 1.338 . S
N158 Gd163 2.622 1_545 S
C159 N158 1.338 . S
C159 C161 1.378 . S
C159 H171 0.929 1_545 S
C160 C156 1.413 1_556 S
C160 C161 1.348 . S
C160 H176 0.931 1_556 S
C161 C159 1.378 . S
C161 C160 1.348 . S
C161 H177 0.930 . S
Gd162 N182 2.622 . S
Gd162 N189 2.570 . S
Gd162 O196 2.353 1_655 S
Gd162 O197 2.466 1_655 S
Gd162 O198 2.427 . S
Gd162 O200 2.388 . S
Gd162 O201 2.386 1_545 S
Gd162 O205 2.307 1_655 S
Gd162 C215 2.805 . S
Gd163 N158 2.622 1_565 S
Gd163 N164 2.570 1_566 S
Gd163 O195 2.386 1_565 S
Gd163 O199 2.307 1_465 S
Gd163 O202 2.353 . S
Gd163 O203 2.468 . S
Gd163 O204 2.427 . S
Gd163 O206 2.388 . S
Gd163 C227 2.805 . S
N164 C154 1.359 . S
N164 Gd163 2.570 1_544 S
N164 C166 1.343 . S
C165 C153 1.422 . S
C165 C167 1.321 . S
C165 H173 0.931 . S
C166 N164 1.343 . S
C166 C167 1.390 . S
C166 H168 0.931 1_455 S
C167 C165 1.321 . S
C167 C166 1.390 . S
C167 H169 0.930 1_455 S
H168 C166 0.931 1_655 S
H169 C167 0.930 1_655 S
H170 C193 0.931 . S
H171 C159 0.929 1_565 S
H172 C194 0.930 . S
H173 C165 0.931 . S
H174 C155 0.930 . S
H175 C184 0.929 . S
H176 C160 0.931 1_554 S
H177 C161 0.930 . S
H178 C216 0.930 . S
H179 C157 0.929 . S
H180 C185 0.931 . S
H181 C186 0.930 . S
N182 Gd162 2.622 . S
N182 C183 1.369 1_545 S
N182 C184 1.338 . S
C183 N182 1.369 1_565 S
C183 C187 1.415 . S
C183 C190 1.422 . S
C184 H175 0.929 . S
C184 N182 1.338 . S
C184 C186 1.378 . S
C185 H180 0.931 . S
C185 C186 1.348 1_565 S
C185 C187 1.413 . S
C186 H181 0.930 . S
C186 C184 1.378 . S
C186 C185 1.348 1_545 S
C187 C183 1.415 . S
C187 C185 1.413 . S
C187 C217 1.437 . S
H188 C217 0.929 . S
N189 Gd162 2.570 . S
N189 C190 1.359 1_545 S
N189 C193 1.343 1_655 S
C190 C183 1.422 . S
C190 N189 1.359 1_565 S
C190 C192 1.421 . S
C191 C192 1.422 . S
C191 C194 1.321 1_655 S
C191 H218 0.931 . S
C192 C190 1.421 . S
C192 C191 1.422 . S
C192 C216 1.417 . S
C193 H170 0.931 . S
C193 N189 1.343 1_455 S
C193 C194 1.390 1_545 S
C194 H172 0.930 . S
C194 C191 1.321 1_455 S
C194 C193 1.390 1_565 S
O195 Gd163 2.386 1_545 S
O195 C207 1.265 . S
O196 Gd162 2.353 1_455 S
O196 C207 1.242 . S
O197 Gd162 2.466 1_455 S
O197 C215 1.258 1_455 S
O198 Gd162 2.427 . S
O198 C215 1.252 . S
O199 Gd163 2.307 1_645 S
O199 C208 1.261 . S
O200 Gd162 2.388 . S
O200 C208 1.252 . S
O201 Gd162 2.386 1_565 S
O201 C219 1.265 . S
O202 Gd163 2.353 . S
O202 C219 1.242 1_455 S
O203 Gd163 2.468 . S
O203 C227 1.263 . S
O204 Gd163 2.427 . S
O204 C227 1.252 . S
O205 Gd162 2.307 1_455 S
O205 C220 1.261 . S
O206 Gd163 2.388 . S
O206 C220 1.252 1_565 S
C207 O195 1.265 . S
C207 O196 1.242 . S
C208 O199 1.261 . S
C208 O200 1.252 . S
C209 C212 1.394 . S
C209 C214 1.370 . S
C209 C215 1.500 . S
C210 C213 1.383 . S
C210 C214 1.395 . S
C211 C212 1.396 . S
C211 C213 1.365 . S
C211 H228 0.929 . S
C212 C209 1.394 . S
C212 C211 1.396 . S
C212 H229 0.930 . S
C213 C210 1.383 . S
C213 C211 1.365 . S
C213 H230 0.931 . S
C214 C209 1.370 . S
C214 C210 1.395 . S
C214 H231 0.930 1_655 S
C215 Gd162 2.805 . S
C215 O197 1.258 1_655 S
C215 O198 1.252 . S
C215 C209 1.500 . S
C216 H178 0.930 . S
C216 C192 1.417 . S
C216 C217 1.329 . S
C217 C187 1.437 . S
C217 H188 0.929 . S
C217 C216 1.329 . S
H218 C191 0.931 . S
C219 O201 1.265 . S
C219 O202 1.242 1_655 S
C220 O205 1.261 . S
C220 O206 1.252 1_545 S
C221 C224 1.394 . S
C221 C226 1.370 . S
C221 C227 1.500 1_554 S
C222 C225 1.383 . S
C222 C226 1.395 . S
C223 C224 1.396 . S
C223 C225 1.365 . S
C223 H232 0.929 . S
C224 C221 1.394 . S
C224 C223 1.396 . S
C224 H233 0.930 1_554 S
C225 C222 1.383 . S
C225 C223 1.365 . S
C225 H234 0.931 . S
C226 C221 1.370 . S
C226 C222 1.395 . S
C226 H235 0.930 . S
C227 Gd163 2.805 . S
C227 O203 1.263 . S
C227 O204 1.252 . S
C227 C221 1.500 1_556 S
H228 C211 0.929 . S
H229 C212 0.930 . S
H230 C213 0.931 . S
H231 C214 0.930 1_455 S
H232 C223 0.929 . S
H233 C224 0.930 1_556 S
H234 C225 0.931 . S
H235 C226 0.930 . S
C236 C238 1.422 . S
C236 C240 1.415 . S
C236 N242 1.369 . S
C237 C238 1.421 . S
C237 C239 1.417 . S
C237 C249 1.422 . S
C238 C236 1.422 . S
C238 C237 1.421 . S
C238 N248 1.359 . S
C239 C237 1.417 . S
C239 C241 1.329 . S
C239 H258 0.930 . S
C240 C236 1.415 . S
C240 C241 1.437 . S
C240 C244 1.413 . S
C241 C239 1.329 . S
C241 C240 1.437 . S
C241 H263 0.929 . S
N242 C236 1.369 . S
N242 C243 1.338 . S
N242 Gd247 2.622 . S
C243 N242 1.338 . S
C243 C245 1.378 . S
C243 H255 0.929 . S
C244 C240 1.413 . S
C244 C245 1.348 . S
C244 H260 0.931 . S
C245 C243 1.378 . S
C245 C244 1.348 . S
C245 H261 0.930 . S
Gd246 N266 2.622 . S
Gd246 N273 2.570 . S
Gd246 O280 2.353 1_545 S
Gd246 O281 2.468 . S
Gd246 O282 2.427 1_556 S
Gd246 O284 2.388 . S
Gd246 O285 2.386 . S
Gd246 O289 2.307 . S
Gd246 C299 2.805 1_556 S
Gd247 N242 2.622 . S
Gd247 N248 2.570 . S
Gd247 O279 2.386 . S
Gd247 O283 2.296 1_565 S
Gd247 O286 2.353 1_565 S
Gd247 O287 2.468 . S
Gd247 O288 2.427 . S
Gd247 O290 2.388 . S
Gd247 C311 2.805 . S
N248 C238 1.359 . S
N248 Gd247 2.570 . S
N248 C250 1.343 . S
C249 C237 1.422 . S
C249 C251 1.321 . S
C249 H257 0.931 . S
C250 N248 1.343 . S
C250 C251 1.390 . S
C250 H252 0.931 . S
C251 C249 1.321 . S
C251 C250 1.390 . S
C251 H253 0.930 . S
H252 C250 0.931 . S
H253 C251 0.930 . S
H254 C277 0.931 . S
H255 C243 0.929 . S
H256 C278 0.930 . S
H257 C249 0.931 . S
H258 C239 0.930 . S
H259 C268 0.929 . S
H260 C244 0.931 . S
H261 C245 0.930 . S
H262 C300 0.930 . S
H263 C241 0.929 . S
H264 C269 0.931 . S
H265 C270 0.930 . S
N266 Gd246 2.622 . S
N266 C267 1.369 . S
N266 C268 1.338 1_556 S
C267 N266 1.369 . S
C267 C271 1.415 . S
C267 C274 1.422 . S
C268 H259 0.929 . S
C268 N266 1.338 1_554 S
C268 C270 1.378 . S
C269 H264 0.931 . S
C269 C270 1.348 . S
C269 C271 1.413 1_554 S
C270 H265 0.930 . S
C270 C268 1.378 . S
C270 C269 1.348 . S
C271 C267 1.415 . S
C271 C269 1.413 1_556 S
C271 C301 1.437 . S
H272 C301 0.929 . S
N273 Gd246 2.570 . S
N273 C274 1.359 . S
N273 C277 1.343 . S
C274 C267 1.422 . S
C274 N273 1.359 . S
C274 C276 1.421 . S
C275 C276 1.422 . S
C275 C278 1.321 . S
C275 H302 0.931 . S
C276 C274 1.421 . S
C276 C275 1.422 . S
C276 C300 1.417 . S
C277 H254 0.931 . S
C277 N273 1.343 . S
C277 C278 1.390 . S
C278 H256 0.930 . S
C278 C275 1.321 . S
C278 C277 1.390 . S
O279 Gd247 2.386 . S
O279 C291 1.265 . S
O280 Gd246 2.353 1_565 S
O280 C291 1.242 . S
O281 Gd246 2.468 . S
O281 C299 1.263 1_556 S
O282 Gd246 2.427 1_554 S
O282 C299 1.252 . S
O283 Gd247 2.296 1_545 S
O283 C292 1.278 . S
O284 Gd246 2.388 . S
O284 C292 1.252 . S
O285 Gd246 2.386 . S
O285 C303 1.265 . S
O286 Gd247 2.353 1_545 S
O286 C303 1.242 . S
O287 Gd247 2.468 . S
O287 C311 1.263 . S
O288 Gd247 2.427 . S
O288 C311 1.252 . S
O289 Gd246 2.307 . S
O289 C304 1.261 1_545 S
O290 Gd247 2.388 . S
O290 C304 1.252 . S
C291 O279 1.265 . S
C291 O280 1.242 . S
C292 O283 1.278 . S
C292 O284 1.252 . S
C293 C296 1.394 . S
C293 C298 1.370 . S
C293 C299 1.500 . S
C294 C297 1.383 . S
C294 C298 1.395 . S
C295 C296 1.396 . S
C295 C297 1.365 . S
C295 H312 0.929 . S
C296 C293 1.394 . S
C296 C295 1.396 . S
C296 H313 0.930 . S
C297 C294 1.383 . S
C297 C295 1.365 . S
C297 H314 0.931 . S
C298 C293 1.370 . S
C298 C294 1.395 . S
C298 H315 0.930 . S
C299 Gd246 2.805 1_554 S
C299 O281 1.263 1_554 S
C299 O282 1.252 . S
C299 C293 1.500 . S
C300 H262 0.930 . S
C300 C276 1.417 . S
C300 C301 1.329 . S
C301 C271 1.437 . S
C301 H272 0.929 . S
C301 C300 1.329 . S
H302 C275 0.931 . S
C303 O285 1.265 . S
C303 O286 1.242 . S
C304 O289 1.261 1_565 S
C304 O290 1.252 . S
C305 C308 1.394 . S
C305 C310 1.380 . S
C305 C311 1.500 . S
C306 C309 1.380 1_545 S
C306 C310 1.394 1_545 S
C307 C308 1.396 . S
C307 C309 1.365 . S
C307 H316 0.929 . S
C308 C305 1.394 . S
C308 C307 1.396 . S
C308 H317 0.930 . S
C309 C306 1.380 1_565 S
C309 C307 1.365 . S
C309 H318 0.931 . S
C310 C305 1.380 . S
C310 C306 1.394 1_565 S
C310 H319 0.923 1_565 S
C311 Gd247 2.805 . S
C311 O287 1.263 . S
C311 O288 1.252 . S
C311 C305 1.500 . S
H312 C295 0.929 . S
H313 C296 0.930 . S
H314 C297 0.931 . S
H315 C298 0.930 . S
H316 C307 0.929 . S
H317 C308 0.930 . S
H318 C309 0.931 . S
H319 C310 0.923 1_545 S
C320 C322 1.422 . S
C320 C324 1.415 . S
C320 N326 1.369 1_554 S
C321 C322 1.421 . S
C321 C323 1.417 . S
C321 C333 1.422 . S
C322 C320 1.422 . S
C322 C321 1.421 . S
C322 N332 1.359 . S
C323 C321 1.417 . S
C323 C325 1.329 . S
C323 H342 0.930 . S
C324 C320 1.415 . S
C324 C325 1.437 . S
C324 C328 1.413 1_554 S
C325 C323 1.329 . S
C325 C324 1.437 . S
C325 H347 0.929 . S
N326 C320 1.369 1_556 S
N326 C327 1.338 . S
N326 Gd331 2.622 . S
C327 N326 1.338 . S
C327 C329 1.378 . S
C327 H339 0.929 . S
C328 C324 1.413 1_556 S
C328 C329 1.348 . S
C328 H344 0.931 1_556 S
C329 C327 1.378 . S
C329 C328 1.348 . S
C329 H345 0.930 . S
Gd330 N350 2.622 . S
Gd330 N357 2.570 . S
Gd330 O364 2.353 . S
Gd330 O365 2.468 . S
Gd330 O366 2.427 . S
Gd330 O368 2.388 . S
Gd330 O369 2.386 . S
Gd330 O373 2.307 . S
Gd330 C383 2.805 . S
Gd331 N326 2.622 . S
Gd331 N332 2.570 1_556 S
Gd331 O363 2.386 . S
Gd331 O367 2.307 . S
Gd331 O370 2.353 . S
Gd331 O371 2.468 . S
Gd331 O372 2.427 . S
Gd331 O374 2.388 . S
Gd331 C395 2.805 . S
N332 C322 1.359 . S
N332 Gd331 2.570 1_554 S
N332 C334 1.343 . S
C333 C321 1.422 . S
C333 C335 1.321 . S
C333 H341 0.931 . S
C334 N332 1.343 . S
C334 C335 1.390 . S
C334 H336 0.931 . S
C335 C333 1.321 . S
C335 C334 1.390 . S
C335 H337 0.930 . S
H336 C334 0.931 . S
H337 C335 0.930 . S
H338 C361 0.931 . S
H339 C327 0.929 . S
H340 C362 0.930 . S
H341 C333 0.931 . S
H342 C323 0.930 . S
H343 C352 0.929 . S
H344 C328 0.931 1_554 S
H345 C329 0.930 . S
H346 C384 0.930 . S
H347 C325 0.929 . S
H348 C353 0.931 . S
H349 C354 0.930 . S
N350 Gd330 2.622 . S
N350 C351 1.369 . S
N350 C352 1.338 . S
C351 N350 1.369 . S
C351 C355 1.415 . S
C351 C358 1.422 . S
C352 H343 0.929 . S
C352 N350 1.338 . S
C352 C354 1.378 . S
C353 H348 0.931 . S
C353 C354 1.348 . S
C353 C355 1.413 . S
C354 H349 0.930 . S
C354 C352 1.378 . S
C354 C353 1.348 . S
C355 C351 1.415 . S
C355 C353 1.413 . S
C355 C385 1.437 . S
H356 C385 0.929 . S
N357 Gd330 2.570 . S
N357 C358 1.359 . S
N357 C361 1.343 . S
C358 C351 1.422 . S
C358 N357 1.359 . S
C358 C360 1.421 . S
C359 C360 1.422 . S
C359 C362 1.321 . S
C359 H386 0.931 . S
C360 C358 1.421 . S
C360 C359 1.422 . S
C360 C384 1.417 . S
C361 H338 0.931 . S
C361 N357 1.343 . S
C361 C362 1.390 . S
C362 H340 0.930 . S
C362 C359 1.321 . S
C362 C361 1.390 . S
O363 Gd331 2.386 . S
O363 C375 1.265 . S
O364 Gd330 2.353 . S
O364 C375 1.242 . S
O365 Gd330 2.468 . S
O365 C383 1.263 . S
O366 Gd330 2.427 . S
O366 C383 1.252 . S
O367 Gd331 2.307 . S
O367 C376 1.261 . S
O368 Gd330 2.388 . S
O368 C376 1.252 . S
O369 Gd330 2.386 . S
O369 C387 1.265 . S
O370 Gd331 2.353 . S
O370 C387 1.242 . S
O371 Gd331 2.468 . S
O371 C395 1.263 . S
O372 Gd331 2.427 . S
O372 C395 1.252 . S
O373 Gd330 2.307 . S
O373 C388 1.261 . S
O374 Gd331 2.388 . S
O374 C388 1.252 . S
C375 O363 1.265 . S
C375 O364 1.242 . S
C376 O367 1.261 . S
C376 O368 1.252 . S
C377 C380 1.394 . S
C377 C382 1.370 . S
C377 C383 1.500 . S
C378 C381 1.383 . S
C378 C382 1.395 . S
C379 C380 1.396 . S
C379 C381 1.365 . S
C379 H396 0.929 . S
C380 C377 1.394 . S
C380 C379 1.396 . S
C380 H397 0.930 . S
C381 C378 1.383 . S
C381 C379 1.365 . S
C381 H398 0.931 . S
C382 C377 1.370 . S
C382 C378 1.395 . S
C382 H399 0.930 . S
C383 Gd330 2.805 . S
C383 O365 1.263 . S
C383 O366 1.252 . S
C383 C377 1.500 . S
C384 H346 0.930 . S
C384 C360 1.417 . S
C384 C385 1.329 . S
C385 C355 1.437 . S
C385 H356 0.929 . S
C385 C384 1.329 . S
H386 C359 0.931 . S
C387 O369 1.265 . S
C387 O370 1.242 . S
C388 O373 1.261 . S
C388 O374 1.252 . S
C389 C392 1.394 . S
C389 C394 1.370 . S
C389 C395 1.500 1_554 S
C390 C393 1.383 . S
C390 C394 1.395 . S
C391 C392 1.396 . S
C391 C393 1.365 . S
C391 H400 0.929 . S
C392 C389 1.394 . S
C392 C391 1.396 . S
C392 H401 0.930 1_554 S
C393 C390 1.383 . S
C393 C391 1.365 . S
C393 H402 0.931 . S
C394 C389 1.370 . S
C394 C390 1.395 . S
C394 H403 0.930 . S
C395 Gd331 2.805 . S
C395 O371 1.263 . S
C395 O372 1.252 . S
C395 C389 1.500 1_556 S
H396 C379 0.929 . S
H397 C380 0.930 . S
H398 C381 0.931 . S
H399 C382 0.930 . S
H400 C391 0.929 . S
H401 C392 0.930 1_556 S
H402 C393 0.931 . S
H403 C394 0.930 . S
C404 C406 1.422 . S
C404 C408 1.415 . S
C404 N410 1.369 1_554 S
C405 C406 1.421 . S
C405 C407 1.417 . S
C405 C417 1.422 . S
C406 C404 1.422 . S
C406 C405 1.421 . S
C406 N416 1.359 . S
C407 C405 1.417 . S
C407 C409 1.329 . S
C407 H426 0.930 . S
C408 C404 1.415 . S
C408 C409 1.437 . S
C408 C412 1.413 1_554 S
C409 C407 1.329 . S
C409 C408 1.437 . S
C409 H431 0.929 . S
N410 C404 1.369 1_556 S
N410 C411 1.338 . S
N410 Gd415 2.622 1_455 S
C411 N410 1.338 . S
C411 C413 1.378 . S
C411 H423 0.929 1_455 S
C412 C408 1.413 1_556 S
C412 C413 1.348 . S
C412 H428 0.931 1_556 S
C413 C411 1.378 . S
C413 C412 1.348 . S
C413 H429 0.930 . S
Gd414 N434 2.622 . S
Gd414 N441 2.570 . S
Gd414 O448 2.353 . S
Gd414 O449 2.468 . S
Gd414 O450 2.427 . S
Gd414 O452 2.388 . S
Gd414 O453 2.386 1_455 S
Gd414 O457 2.307 . S
Gd414 C467 2.805 . S
Gd415 N410 2.622 1_655 S
Gd415 N416 2.570 1_656 S
Gd415 O447 2.386 1_655 S
Gd415 O451 2.307 1_655 S
Gd415 O454 2.353 . S
Gd415 O455 2.468 . S
Gd415 O456 2.427 . S
Gd415 O458 2.388 . S
Gd415 C479 2.805 . S
N416 C406 1.359 . S
N416 Gd415 2.570 1_454 S
N416 C418 1.343 . S
C417 C405 1.422 . S
C417 C419 1.321 . S
C417 H425 0.931 . S
C418 N416 1.343 . S
C418 C419 1.390 . S
C418 H420 0.931 . S
C419 C417 1.321 . S
C419 C418 1.390 . S
C419 H421 0.930 . S
H420 C418 0.931 . S
H421 C419 0.930 . S
H422 C445 0.931 . S
H423 C411 0.929 1_655 S
H424 C446 0.930 . S
H425 C417 0.931 . S
H426 C407 0.930 . S
H427 C436 0.929 . S
H428 C412 0.931 1_554 S
H429 C413 0.930 . S
H430 C468 0.930 . S
H431 C409 0.929 . S
H432 C437 0.931 . S
H433 C438 0.930 . S
N434 Gd414 2.622 . S
N434 C435 1.369 1_455 S
N434 C436 1.338 . S
C435 N434 1.369 1_655 S
C435 C439 1.415 . S
C435 C442 1.422 . S
C436 H427 0.929 . S
C436 N434 1.338 . S
C436 C438 1.378 . S
C437 H432 0.931 . S
C437 C438 1.348 1_655 S
C437 C439 1.413 . S
C438 H433 0.930 . S
C438 C436 1.378 . S
C438 C437 1.348 1_455 S
C439 C435 1.415 . S
C439 C437 1.413 . S
C439 C469 1.437 . S
H440 C469 0.929 . S
N441 Gd414 2.570 . S
N441 C442 1.359 1_455 S
N441 C445 1.343 . S
C442 C435 1.422 . S
C442 N441 1.359 1_655 S
C442 C444 1.421 . S
C443 C444 1.422 . S
C443 C446 1.321 . S
C443 H470 0.931 . S
C444 C442 1.421 . S
C444 C443 1.422 . S
C444 C468 1.417 . S
C445 H422 0.931 . S
C445 N441 1.343 . S
C445 C446 1.390 1_455 S
C446 H424 0.930 . S
C446 C443 1.321 . S
C446 C445 1.390 1_655 S
O447 Gd415 2.386 1_455 S
O447 C459 1.265 . S
O448 Gd414 2.353 . S
O448 C459 1.242 . S
O449 Gd414 2.468 . S
O449 C467 1.263 . S
O450 Gd414 2.427 . S
O450 C467 1.252 . S
O451 Gd415 2.307 1_455 S
O451 C460 1.261 . S
O452 Gd414 2.388 . S
O452 C460 1.252 . S
O453 Gd414 2.386 1_655 S
O453 C471 1.265 . S
O454 Gd415 2.353 . S
O454 C471 1.242 . S
O455 Gd415 2.468 . S
O455 C479 1.263 . S
O456 Gd415 2.427 . S
O456 C479 1.252 . S
O457 Gd414 2.307 . S
O457 C472 1.261 . S
O458 Gd415 2.388 . S
O458 C472 1.252 1_655 S
C459 O447 1.265 . S
C459 O448 1.242 . S
C460 O451 1.261 . S
C460 O452 1.252 . S
C461 C464 1.394 . S
C461 C466 1.370 . S
C461 C467 1.500 . S
C462 C465 1.383 . S
C462 C466 1.395 . S
C463 C464 1.396 . S
C463 C465 1.365 . S
C463 H480 0.929 . S
C464 C461 1.394 . S
C464 C463 1.396 . S
C464 H481 0.930 . S
C465 C462 1.383 . S
C465 C463 1.365 . S
C465 H482 0.931 . S
C466 C461 1.370 . S
C466 C462 1.395 . S
C466 H483 0.930 . S
C467 Gd414 2.805 . S
C467 O449 1.263 . S
C467 O450 1.252 . S
C467 C461 1.500 . S
C468 H430 0.930 . S
C468 C444 1.417 . S
C468 C469 1.329 . S
C469 C439 1.437 . S
C469 H440 0.929 . S
C469 C468 1.329 . S
H470 C443 0.931 . S
C471 O453 1.265 . S
C471 O454 1.242 . S
C472 O457 1.261 . S
C472 O458 1.252 1_455 S
C473 C476 1.394 . S
C473 C478 1.370 . S
C473 C479 1.500 1_554 S
C474 C477 1.383 . S
C474 C478 1.395 . S
C475 C476 1.396 . S
C475 C477 1.365 . S
C475 H484 0.929 . S
C476 C473 1.394 . S
C476 C475 1.396 . S
C476 H485 0.930 1_554 S
C477 C474 1.383 . S
C477 C475 1.365 . S
C477 H486 0.931 . S
C478 C473 1.370 . S
C478 C474 1.395 . S
C478 H487 0.930 . S
C479 Gd415 2.805 . S
C479 O455 1.263 . S
C479 O456 1.252 . S
C479 C473 1.500 1_556 S
H480 C463 0.929 . S
H481 C464 0.930 . S
H482 C465 0.931 . S
H483 C466 0.930 . S
H484 C475 0.929 . S
H485 C476 0.930 1_556 S
H486 C477 0.931 . S
H487 C478 0.930 . S
C488 C489 1.363 . S
C488 C494 1.379 . S
C488 N496 1.356 . S
C489 C488 1.363 . S
C489 C495 1.363 . S
C490 C491 1.363 . S
C490 C495 1.379 . S
C490 N497 1.356 . S
C491 C490 1.363 . S
C491 C494 1.363 . S
N492 C494 1.356 . S
N492 H504 0.984 . S
N492 H505 0.985 . S
N493 C495 1.356 . S
N493 H498 0.984 . S
N493 H499 0.985 . S
C494 C488 1.379 . S
C494 C491 1.363 . S
C494 N492 1.356 . S
C495 C489 1.363 . S
C495 C490 1.379 . S
C495 N493 1.356 . S
N496 C488 1.356 . S
N496 H502 0.984 . S
N496 H503 0.984 . S
N497 C490 1.356 . S
N497 H500 0.984 . S
N497 H501 0.985 . S
H498 N493 0.984 . S
H499 N493 0.985 . S
H500 N497 0.984 . S
H501 N497 0.985 . S
H502 N496 0.984 . S
H503 N496 0.984 . S
H504 N492 0.984 . S
H505 N492 0.985 . S
C506 C507 1.363 . S
C506 C512 1.379 . S
C506 N514 1.356 . S
C507 C506 1.363 . S
C507 C513 1.363 . S
C508 C509 1.363 . S
C508 C513 1.379 . S
C508 N515 1.356 . S
C509 C508 1.363 . S
C509 C512 1.363 . S
N510 C512 1.356 . S
N510 H522 0.984 . S
N510 H523 0.985 . S
N511 C513 1.356 . S
N511 H516 0.984 . S
N511 H517 0.985 . S
C512 C506 1.379 . S
C512 C509 1.363 . S
C512 N510 1.356 . S
C513 C507 1.363 . S
C513 C508 1.379 . S
C513 N511 1.356 . S
N514 C506 1.356 . S
N514 H520 0.984 . S
N514 H521 0.984 . S
N515 C508 1.356 . S
N515 H518 0.984 . S
N515 H519 0.985 . S
H516 N511 0.984 . S
H517 N511 0.985 . S
H518 N515 0.984 . S
H519 N515 0.985 . S
H520 N514 0.984 . S
H521 N514 0.984 . S
H522 N510 0.984 . S
H523 N510 0.985 . S
C524 C525 1.363 . S
C524 C530 1.379 . S
C524 N532 1.356 . S
C525 C524 1.363 . S
C525 C531 1.363 . S
C526 C527 1.363 . S
C526 C531 1.379 . S
C526 N533 1.356 . S
C527 C526 1.363 . S
C527 C530 1.363 . S
N528 C530 1.356 . S
N528 H540 0.984 . S
N528 H541 0.985 . S
N529 C531 1.356 . S
N529 H534 0.984 . S
N529 H535 0.985 . S
C530 C524 1.379 . S
C530 C527 1.363 . S
C530 N528 1.356 . S
C531 C525 1.363 . S
C531 C526 1.379 . S
C531 N529 1.356 . S
N532 C524 1.356 . S
N532 H538 0.984 . S
N532 H539 0.984 . S
N533 C526 1.356 . S
N533 H536 0.984 . S
N533 H537 0.985 . S
H534 N529 0.984 . S
H535 N529 0.985 . S
H536 N533 0.984 . S
H537 N533 0.985 . S
H538 N532 0.984 . S
H539 N532 0.984 . S
H540 N528 0.984 . S
H541 N528 0.985 . S
C542 C543 1.363 . S
C542 C548 1.379 . S
C542 N550 1.356 . S
C543 C542 1.363 . S
C543 C549 1.363 . S
C544 C545 1.363 . S
C544 C549 1.379 . S
C544 N551 1.356 . S
C545 C544 1.363 . S
C545 C548 1.363 . S
N546 C548 1.356 . S
N546 H558 0.984 . S
N546 H559 0.985 . S
N547 C549 1.356 . S
N547 H552 0.984 . S
N547 H553 0.985 . S
C548 C542 1.379 . S
C548 C545 1.363 . S
C548 N546 1.356 . S
C549 C543 1.363 . S
C549 C544 1.379 . S
C549 N547 1.356 . S
N550 C542 1.356 . S
N550 H556 0.984 . S
N550 H557 0.984 . S
N551 C544 1.356 . S
N551 H554 0.984 . S
N551 H555 0.985 . S
H552 N547 0.984 . S
H553 N547 0.985 . S
H554 N551 0.984 . S
H555 N551 0.985 . S
H556 N550 0.984 . S
H557 N550 0.984 . S
H558 N546 0.984 . S
H559 N546 0.985 . S
C560 C561 1.363 . S
C560 C566 1.379 . S
C560 N568 1.356 . S
C561 C560 1.363 . S
C561 C567 1.363 1_565 S
C562 C563 1.363 1_544 S
C562 C567 1.379 . S
C562 N569 1.356 1_554 S
C563 C562 1.363 1_566 S
C563 C566 1.363 1_556 S
N564 C566 1.356 . S
N564 H576 0.984 . S
N564 H577 0.985 1_554 S
N565 C567 1.356 . S
N565 H570 0.984 . S
N565 H571 0.985 . S
C566 C560 1.379 . S
C566 C563 1.363 1_554 S
C566 N564 1.356 . S
C567 C561 1.363 1_545 S
C567 C562 1.379 . S
C567 N565 1.356 . S
N568 C560 1.356 . S
N568 H574 0.984 . S
N568 H575 0.984 . S
N569 C562 1.356 1_556 S
N569 H572 0.984 . S
N569 H573 0.985 . S
H570 N565 0.984 . S
H571 N565 0.985 . S
H572 N569 0.984 . S
H573 N569 0.985 . S
H574 N568 0.984 . S
H575 N568 0.984 . S
H576 N564 0.984 . S
H577 N564 0.985 1_556 S
C578 C579 1.363 . S
C578 C584 1.379 . S
C578 N586 1.356 . S
C579 C578 1.363 . S
C579 C585 1.363 . S
C580 C581 1.363 . S
C580 C585 1.379 1_556 S
C580 N587 1.356 . S
C581 C580 1.363 . S
C581 C584 1.363 1_556 S
N582 C584 1.356 . S
N582 H594 0.984 . S
N582 H595 0.985 1_554 S
N583 C585 1.356 . S
N583 H588 0.984 . S
N583 H589 0.985 . S
C584 C578 1.379 . S
C584 C581 1.363 1_554 S
C584 N582 1.356 . S
C585 C579 1.363 . S
C585 C580 1.379 1_554 S
C585 N583 1.356 . S
N586 C578 1.356 . S
N586 H592 0.984 . S
N586 H593 0.984 . S
N587 C580 1.356 . S
N587 H590 0.984 . S
N587 H591 0.985 . S
H588 N583 0.984 . S
H589 N583 0.985 . S
H590 N587 0.984 . S
H591 N587 0.985 . S
H592 N586 0.984 . S
H593 N586 0.984 . S
H594 N582 0.984 . S
H595 N582 0.985 1_556 S
C596 C597 1.363 . S
C596 C602 1.379 . S
C596 N604 1.356 . S
C597 C596 1.363 . S
C597 C603 1.363 . S
C598 C599 1.363 1_554 S
C598 C603 1.379 . S
C598 N605 1.356 . S
C599 C598 1.363 1_556 S
C599 C602 1.363 1_556 S
N600 C602 1.356 1_556 S
N600 H612 0.984 . S
N600 H613 0.985 . S
N601 C603 1.356 . S
N601 H606 0.984 . S
N601 H607 0.985 . S
C602 C596 1.379 . S
C602 C599 1.363 1_554 S
C602 N600 1.356 1_554 S
C603 C597 1.363 . S
C603 C598 1.379 . S
C603 N601 1.356 . S
N604 C596 1.356 . S
N604 H610 0.984 . S
N604 H611 0.984 . S
N605 C598 1.356 . S
N605 H608 0.984 1_554 S
N605 H609 0.985 . S
H606 N601 0.984 . S
H607 N601 0.985 . S
H608 N605 0.984 1_556 S
H609 N605 0.985 . S
H610 N604 0.984 . S
H611 N604 0.984 . S
H612 N600 0.984 . S
H613 N600 0.985 . S
C614 C615 1.363 . S
C614 C620 1.379 1_554 S
C614 N622 1.356 . S
C615 C614 1.363 . S
C615 C621 1.363 1_655 S
C616 C617 1.363 1_454 S
C616 C621 1.379 . S
C616 N623 1.356 . S
C617 C616 1.363 1_656 S
C617 C620 1.363 . S
N618 C620 1.356 . S
N618 H630 0.984 . S
N618 H631 0.985 . S
N619 C621 1.356 . S
N619 H624 0.984 . S
N619 H625 0.985 . S
C620 C614 1.379 1_556 S
C620 C617 1.363 . S
C620 N618 1.356 . S
C621 C615 1.363 1_455 S
C621 C616 1.379 . S
C621 N619 1.356 . S
N622 C614 1.356 . S
N622 H628 0.984 . S
N622 H629 0.984 . S
N623 C616 1.356 . S
N623 H626 0.984 1_554 S
N623 H627 0.985 . S
H624 N619 0.984 . S
H625 N619 0.985 . S
H626 N623 0.984 1_556 S
H627 N623 0.985 . S
H628 N622 0.984 . S
H629 N622 0.984 . S
H630 N618 0.984 . S
H631 N618 0.985 . S
C632 C633 1.363 . S
C632 C638 1.379 . S
C632 N640 1.356 . S
C633 C632 1.363 . S
C633 C639 1.363 . S
C634 C635 1.363 1_655 S
C634 C639 1.379 1_655 S
C634 N641 1.356 . S
C635 C634 1.363 1_455 S
C635 C638 1.363 . S
N636 C638 1.356 . S
N636 H648 0.984 . S
N636 H649 0.985 . S
N637 C639 1.356 1_655 S
N637 H642 0.984 1_655 S
N637 H643 0.985 . S
C638 C632 1.379 . S
C638 C635 1.363 . S
C638 N636 1.356 . S
C639 C633 1.363 . S
C639 C634 1.379 1_455 S
C639 N637 1.356 1_455 S
N640 C632 1.356 . S
N640 H646 0.984 . S
N640 H647 0.984 . S
N641 C634 1.356 . S
N641 H644 0.984 . S
N641 H645 0.985 . S
H642 N637 0.984 1_455 S
H643 N637 0.985 . S
H644 N641 0.984 . S
H645 N641 0.985 . S
H646 N640 0.984 . S
H647 N640 0.984 . S
H648 N636 0.984 . S
H649 N636 0.985 . S
C650 C651 1.363 . S
C650 C656 1.379 . S
C650 N658 1.356 . S
C651 C650 1.363 . S
C651 C657 1.363 . S
C652 C653 1.363 1_565 S
C652 C657 1.379 1_565 S
C652 N659 1.356 . S
C653 C652 1.363 1_545 S
C653 C656 1.363 . S
N654 C656 1.356 . S
N654 H666 0.984 . S
N654 H667 0.985 . S
N655 C657 1.356 1_565 S
N655 H660 0.984 1_565 S
N655 H661 0.985 . S
C656 C650 1.379 . S
C656 C653 1.363 . S
C656 N654 1.356 . S
C657 C651 1.363 . S
C657 C652 1.379 1_545 S
C657 N655 1.356 1_545 S
N658 C650 1.356 . S
N658 H664 0.984 . S
N658 H665 0.984 . S
N659 C652 1.356 . S
N659 H662 0.984 . S
N659 H663 0.985 . S
H660 N655 0.984 1_545 S
H661 N655 0.985 . S
H662 N659 0.984 . S
H663 N659 0.985 . S
H664 N658 0.984 . S
H665 N658 0.984 . S
H666 N654 0.984 . S
H667 N654 0.985 . S
C668 C669 1.363 . S
C668 C674 1.379 . S
C668 N676 1.356 . S
C669 C668 1.363 . S
C669 C675 1.363 . S
C670 C671 1.363 . S
C670 C675 1.379 . S
C670 N677 1.356 . S
C671 C670 1.363 . S
C671 C674 1.363 . S
N672 C674 1.356 . S
N672 H684 0.984 . S
N672 H685 0.985 . S
N673 C675 1.356 1_556 S
N673 H678 0.984 . S
N673 H679 0.985 . S
C674 C668 1.379 . S
C674 C671 1.363 . S
C674 N672 1.356 . S
C675 C669 1.363 . S
C675 C670 1.379 . S
C675 N673 1.356 1_554 S
N676 C668 1.356 . S
N676 H682 0.984 . S
N676 H683 0.984 . S
N677 C670 1.356 . S
N677 H680 0.984 . S
N677 H681 0.985 . S
H678 N673 0.984 . S
H679 N673 0.985 . S
H680 N677 0.984 . S
H681 N677 0.985 . S
H682 N676 0.984 . S
H683 N676 0.984 . S
H684 N672 0.984 . S
H685 N672 0.985 . S
C686 C687 1.363 . S
C686 C692 1.379 . S
C686 N694 1.356 . S
C687 C686 1.363 . S
C687 C693 1.363 . S
C688 C689 1.363 . S
C688 C693 1.379 . S
C688 N695 1.356 . S
C689 C688 1.363 . S
C689 C692 1.363 . S
N690 C692 1.356 . S
N690 H702 0.984 . S
N690 H703 0.985 . S
N691 C693 1.356 . S
N691 H696 0.984 . S
N691 H697 0.985 . S
C692 C686 1.379 . S
C692 C689 1.363 . S
C692 N690 1.356 . S
C693 C687 1.363 . S
C693 C688 1.379 . S
C693 N691 1.356 . S
N694 C686 1.356 . S
N694 H700 0.984 . S
N694 H701 0.984 . S
N695 C688 1.356 . S
N695 H698 0.984 . S
N695 H699 0.985 . S
H696 N691 0.984 . S
H697 N691 0.985 . S
H698 N695 0.984 . S
H699 N695 0.985 . S
H700 N694 0.984 . S
H701 N694 0.984 . S
H702 N690 0.984 . S
H703 N690 0.985 . S
C704 C705 1.363 . S
C704 C710 1.379 1_655 S
C704 N712 1.356 . S
C705 C704 1.363 . S
C705 C711 1.363 . S
C706 C707 1.363 . S
C706 C711 1.379 1_455 S
C706 N713 1.356 . S
C707 C706 1.363 . S
C707 C710 1.363 . S
N708 C710 1.356 . S
N708 H720 0.984 1_554 S
N708 H721 0.985 . S
N709 C711 1.356 . S
N709 H714 0.984 . S
N709 H715 0.985 . S
C710 C704 1.379 1_455 S
C710 C707 1.363 . S
C710 N708 1.356 . S
C711 C705 1.363 . S
C711 C706 1.379 1_655 S
C711 N709 1.356 . S
N712 C704 1.356 . S
N712 H718 0.984 . S
N712 H719 0.984 . S
N713 C706 1.356 . S
N713 H716 0.984 . S
N713 H717 0.985 . S
H714 N709 0.984 . S
H715 N709 0.985 . S
H716 N713 0.984 . S
H717 N713 0.985 . S
H718 N712 0.984 . S
H719 N712 0.984 . S
H720 N708 0.984 1_556 S
H721 N708 0.985 . S
C722 C723 1.363 . S
C722 C728 1.379 1_565 S
C722 N730 1.356 . S
C723 C722 1.363 . S
C723 C729 1.363 . S
C724 C725 1.363 . S
C724 C729 1.379 1_545 S
C724 N731 1.356 . S
C725 C724 1.363 . S
C725 C728 1.363 . S
N726 C728 1.356 . S
N726 H738 0.984 . S
N726 H739 0.985 . S
N727 C729 1.356 . S
N727 H732 0.984 . S
N727 H733 0.985 . S
C728 C722 1.379 1_545 S
C728 C725 1.363 . S
C728 N726 1.356 . S
C729 C723 1.363 . S
C729 C724 1.379 1_565 S
C729 N727 1.356 . S
N730 C722 1.356 . S
N730 H736 0.984 . S
N730 H737 0.984 . S
N731 C724 1.356 . S
N731 H734 0.984 . S
N731 H735 0.985 1_554 S
H732 N727 0.984 . S
H733 N727 0.985 . S
H734 N731 0.984 . S
H735 N731 0.985 1_556 S
H736 N730 0.984 . S
H737 N730 0.984 . S
H738 N726 0.984 . S
H739 N726 0.985 . S
C740 C741 1.363 . S
C740 C746 1.379 . S
C740 N748 1.356 . S
C741 C740 1.363 . S
C741 C747 1.363 . S
C742 C743 1.363 . S
C742 C747 1.379 . S
C742 N749 1.356 . S
C743 C742 1.363 . S
C743 C746 1.363 . S
N744 C746 1.356 . S
N744 H756 0.984 . S
N744 H757 0.985 . S
N745 C747 1.356 . S
N745 H750 0.984 . S
N745 H751 0.985 . S
C746 C740 1.379 . S
C746 C743 1.363 . S
C746 N744 1.356 . S
C747 C741 1.363 . S
C747 C742 1.379 . S
C747 N745 1.356 . S
N748 C740 1.356 . S
N748 H754 0.984 . S
N748 H755 0.984 . S
N749 C742 1.356 . S
N749 H752 0.984 . S
N749 H753 0.985 . S
H750 N745 0.984 . S
H751 N745 0.985 . S
H752 N749 0.984 . S
H753 N749 0.985 . S
H754 N748 0.984 . S
H755 N748 0.984 . S
H756 N744 0.984 . S
H757 N744 0.985 . S
C758 C759 1.363 . S
C758 C764 1.379 . S
C758 N766 1.356 . S
C759 C758 1.363 . S
C759 C765 1.363 . S
C760 C761 1.363 . S
C760 C765 1.379 . S
C760 N767 1.356 . S
C761 C760 1.363 . S
C761 C764 1.363 . S
N762 C764 1.356 . S
N762 H774 0.984 1_554 S
N762 H775 0.985 . S
N763 C765 1.356 . S
N763 H768 0.984 . S
N763 H769 0.985 . S
C764 C758 1.379 . S
C764 C761 1.363 . S
C764 N762 1.356 . S
C765 C759 1.363 . S
C765 C760 1.379 . S
C765 N763 1.356 . S
N766 C758 1.356 . S
N766 H772 0.984 . S
N766 H773 0.984 . S
N767 C760 1.356 . S
N767 H770 0.984 . S
N767 H771 0.985 . S
H768 N763 0.984 . S
H769 N763 0.985 . S
H770 N767 0.984 . S
H771 N767 0.985 . S
H772 N766 0.984 . S
H773 N766 0.984 . S
H774 N762 0.984 1_556 S
H775 N762 0.985 . S
C776 C777 1.363 . S
C776 C782 1.379 . S
C776 N784 1.356 . S
C777 C776 1.363 . S
C777 C783 1.363 . S
C778 C779 1.363 . S
C778 C783 1.379 . S
C778 N785 1.356 1_455 S
C779 C778 1.363 . S
C779 C782 1.363 . S
N780 C782 1.356 . S
N780 H792 0.984 1_556 S
N780 H793 0.985 . S
N781 C783 1.356 . S
N781 H786 0.984 . S
N781 H787 0.985 1_455 S
C782 C776 1.379 . S
C782 C779 1.363 . S
C782 N780 1.356 . S
C783 C777 1.363 . S
C783 C778 1.379 . S
C783 N781 1.356 . S
N784 C776 1.356 . S
N784 H790 0.984 1_556 S
N784 H791 0.984 . S
N785 C778 1.356 1_655 S
N785 H788 0.982 1_655 S
N785 H789 0.985 . S
H786 N781 0.984 . S
H787 N781 0.985 1_655 S
H788 N785 0.982 1_455 S
H789 N785 0.985 . S
H790 N784 0.984 1_554 S
H791 N784 0.984 . S
H792 N780 0.984 1_554 S
H793 N780 0.985 . S
C794 C795 1.363 . S
C794 C800 1.379 . S
C794 N802 1.356 . S
C795 C794 1.363 . S
C795 C801 1.363 . S
C796 C797 1.363 . S
C796 C801 1.379 . S
C796 N803 1.356 . S
C797 C796 1.363 . S
C797 C800 1.363 . S
N798 C800 1.356 . S
N798 H810 0.984 . S
N798 H811 0.985 . S
N799 C801 1.356 1_554 S
N799 H804 0.984 1_554 S
N799 H805 0.985 . S
C800 C794 1.379 . S
C800 C797 1.363 . S
C800 N798 1.356 . S
C801 C795 1.363 . S
C801 C796 1.379 . S
C801 N799 1.356 1_556 S
N802 C794 1.356 . S
N802 H808 0.984 . S
N802 H809 0.984 . S
N803 C796 1.356 . S
N803 H806 0.984 . S
N803 H807 0.985 1_556 S
H804 N799 0.984 1_556 S
H805 N799 0.985 . S
H806 N803 0.984 . S
H807 N803 0.985 1_554 S
H808 N802 0.984 . S
H809 N802 0.984 . S
H810 N798 0.984 . S
H811 N798 0.985 . S
C812 C813 1.363 . S
C812 C818 1.379 . S
C812 N820 1.356 . S
C813 C812 1.363 . S
C813 C819 1.363 . S
C814 C815 1.363 . S
C814 C819 1.379 . S
C814 N821 1.356 . S
C815 C814 1.363 . S
C815 C818 1.363 . S
N816 C818 1.356 . S
N816 H828 0.984 1_556 S
N816 H829 0.985 . S
N817 C819 1.356 . S
N817 H822 0.984 . S
N817 H823 0.985 . S
C818 C812 1.379 . S
C818 C815 1.363 . S
C818 N816 1.356 . S
C819 C813 1.363 . S
C819 C814 1.379 . S
C819 N817 1.356 . S
N820 C812 1.356 . S
N820 H826 0.984 1_556 S
N820 H827 0.984 . S
N821 C814 1.356 . S
N821 H824 0.984 . S
N821 H825 0.985 . S
H822 N817 0.984 . S
H823 N817 0.985 . S
H824 N821 0.984 . S
H825 N821 0.985 . S
H826 N820 0.984 1_554 S
H827 N820 0.984 . S
H828 N816 0.984 1_554 S
H829 N816 0.985 . S
C830 C831 1.363 . S
C830 C836 1.379 . S
C830 N838 1.356 . S
C831 C830 1.363 . S
C831 C837 1.363 . S
C832 C833 1.363 . S
C832 C837 1.379 . S
C832 N839 1.356 . S
C833 C832 1.363 . S
C833 C836 1.363 . S
N834 C836 1.356 . S
N834 H846 0.984 1_556 S
N834 H847 0.985 . S
N835 C837 1.356 . S
N835 H840 0.984 . S
N835 H841 0.985 . S
C836 C830 1.379 . S
C836 C833 1.363 . S
C836 N834 1.356 . S
C837 C831 1.363 . S
C837 C832 1.379 . S
C837 N835 1.356 . S
N838 C830 1.356 . S
N838 H844 0.984 1_556 S
N838 H845 0.984 . S
N839 C832 1.356 . S
N839 H842 0.984 . S
N839 H843 0.985 . S
H840 N835 0.984 . S
H841 N835 0.985 . S
H842 N839 0.984 . S
H843 N839 0.985 . S
H844 N838 0.984 1_554 S
H845 N838 0.984 . S
H846 N834 0.984 1_554 S
H847 N834 0.985 . S
C848 C849 1.363 1_455 S
C848 C854 1.379 . S
C848 N856 1.356 . S
C849 C848 1.363 1_655 S
C849 C855 1.363 . S
C850 C851 1.363 . S
C850 C855 1.379 . S
C850 N857 1.356 . S
C851 C850 1.363 . S
C851 C854 1.363 1_655 S
N852 C854 1.356 . S
N852 H864 0.984 . S
N852 H865 0.985 . S
N853 C855 1.356 . S
N853 H858 0.984 . S
N853 H859 0.985 . S
C854 C848 1.379 . S
C854 C851 1.363 1_455 S
C854 N852 1.356 . S
C855 C849 1.363 . S
C855 C850 1.379 . S
C855 N853 1.356 . S
N856 C848 1.356 . S
N856 H862 0.984 . S
N856 H863 0.984 . S
N857 C850 1.356 . S
N857 H860 0.984 . S
N857 H861 0.985 . S
H858 N853 0.984 . S
H859 N853 0.985 . S
H860 N857 0.984 . S
H861 N857 0.985 . S
H862 N856 0.984 . S
H863 N856 0.984 . S
H864 N852 0.984 . S
H865 N852 0.985 . S
C866 C867 1.363 . S
C866 C872 1.379 . S
C866 N874 1.360 . S
C867 C866 1.363 . S
C867 C873 1.363 . S
C868 C869 1.363 . S
C868 C873 1.379 . S
C868 N875 1.356 . S
C869 C868 1.363 . S
C869 C872 1.363 . S
N870 C872 1.356 1_545 S
N870 H882 0.984 . S
N870 H883 0.985 . S
N871 C873 1.356 . S
N871 H876 0.984 . S
N871 H877 0.985 . S
C872 C866 1.379 . S
C872 C869 1.363 . S
C872 N870 1.356 1_565 S
C873 C867 1.363 . S
C873 C868 1.379 . S
C873 N871 1.356 . S
N874 C866 1.360 . S
N874 H880 0.978 1_565 S
N874 H881 0.989 . S
N875 C868 1.356 . S
N875 H878 0.984 . S
N875 H879 0.985 . S
H876 N871 0.984 . S
H877 N871 0.985 . S
H878 N875 0.984 . S
H879 N875 0.985 . S
H880 N874 0.978 1_545 S
H881 N874 0.989 . S
H882 N870 0.984 . S
H883 N870 0.985 . S
C884 C885 1.363 . S
C884 C890 1.379 . S
C884 N892 1.356 . S
C885 C884 1.363 . S
C885 C891 1.363 . S
C886 C887 1.363 . S
C886 C891 1.379 . S
C886 N893 1.356 . S
C887 C886 1.363 . S
C887 C890 1.363 . S
N888 C890 1.356 . S
N888 H900 0.984 . S
N888 H901 0.985 . S
N889 C891 1.356 . S
N889 H894 0.984 . S
N889 H895 0.985 . S
C890 C884 1.379 . S
C890 C887 1.363 . S
C890 N888 1.356 . S
C891 C885 1.363 . S
C891 C886 1.379 . S
C891 N889 1.356 . S
N892 C884 1.356 . S
N892 H898 0.984 . S
N892 H899 0.984 . S
N893 C886 1.356 . S
N893 H896 0.984 . S
N893 H897 0.985 . S
H894 N889 0.984 . S
H895 N889 0.985 . S
H896 N893 0.984 . S
H897 N893 0.985 . S
H898 N892 0.984 . S
H899 N892 0.984 . S
H900 N888 0.984 . S
H901 N888 0.985 . S
C902 C903 1.363 . S
C902 C908 1.379 . S
C902 N910 1.356 . S
C903 C902 1.363 . S
C903 C909 1.363 . S
C904 C905 1.363 . S
C904 C909 1.379 . S
C904 N911 1.356 . S
C905 C904 1.363 . S
C905 C908 1.363 . S
N906 C908 1.356 . S
N906 H918 0.984 . S
N906 H919 0.985 . S
N907 C909 1.356 . S
N907 H912 0.984 . S
N907 H913 0.985 . S
C908 C902 1.379 . S
C908 C905 1.363 . S
C908 N906 1.356 . S
C909 C903 1.363 . S
C909 C904 1.379 . S
C909 N907 1.356 . S
N910 C902 1.356 . S
N910 H916 0.984 . S
N910 H917 0.984 . S
N911 C904 1.356 . S
N911 H914 0.984 . S
N911 H915 0.985 . S
H912 N907 0.984 . S
H913 N907 0.985 . S
H914 N911 0.984 . S
H915 N911 0.985 . S
H916 N910 0.984 . S
H917 N910 0.984 . S
H918 N906 0.984 . S
H919 N906 0.985 . S
C489 C125 2.105 . S
C491 C220 2.155 . S
C509 C303 2.159 . S
C507 C144 2.109 . S
C527 C388 2.154 . S
C525 C87 2.109 . S
C545 C472 2.141 . S
C543 C106 2.094 . S
C563 C208 2.155 1_565 S
C561 C49 2.164 . S
C579 C68 2.168 . S
C581 C291 2.159 . S
C597 C11 2.164 . S
C599 C376 2.154 . S
C615 C30 2.150 . S
C617 C460 2.141 1_655 S
C635 C210 0.795 1_455 S
C633 C97 0.792 . S
C653 C306 0.788 . S
C651 C116 0.780 . S
C671 C378 0.801 . S
C669 C135 0.797 . S
C687 C78 0.779 . S
C689 C462 0.781 . S
C705 C21 0.793 . S
C707 C222 0.795 . S
C725 C294 0.784 . S
C723 C40 0.781 . S
C743 C390 0.801 . S
C741 C59 0.797 . S
C759 C2 0.779 . S
C761 C474 0.781 . S
C777 C101 2.032 . S
C779 C207 2.263 . S
C795 C120 2.038 . S
C797 C292 2.321 . S
C815 C375 2.282 . S
C813 C139 2.047 . S
C833 C459 2.284 . S
C831 C82 2.052 . S
C849 C25 2.034 . S
C851 C219 2.263 . S
C869 C304 2.321 . S
C867 C44 2.041 . S
C887 C387 2.282 . S
C885 C63 2.049 . S
C903 C6 2.054 . S
C905 C471 2.284 . S
