# Generated by pormake.
# Topology dag, (6,3)-cn, num edge types: 1
# Building blocks:
#     Node 0, Type 0, BuildingBlock: IZENUY_clean_sbu_0, # of connection points: 6
#     Node 1, Type 0, BuildingBlock: IZENUY_clean_sbu_0, # of connection points: 6
#     Node 2, Type 0, BuildingBlock: IZENUY_clean_sbu_0, # of connection points: 6
#     Node 3, Type 0, BuildingBlock: IZENUY_clean_sbu_0, # of connection points: 6
#     Node 4, Type 1, BuildingBlock: KAKCAD_clean_linker_0, # of connection points: 3
#     Node 5, Type 1, BuildingBlock: KAKCAD_clean_linker_0, # of connection points: 3
#     Node 6, Type 1, BuildingBlock: KAKCAD_clean_linker_0, # of connection points: 3
#     Node 7, Type 1, BuildingBlock: KAKCAD_clean_linker_0, # of connection points: 3
#     Node 8, Type 1, BuildingBlock: KAKCAD_clean_linker_0, # of connection points: 3
#     Node 9, Type 1, BuildingBlock: KAKCAD_clean_linker_0, # of connection points: 3
#     Node 10, Type 1, BuildingBlock: KAKCAD_clean_linker_0, # of connection points: 3
#     Node 11, Type 1, BuildingBlock: KAKCAD_clean_linker_0, # of connection points: 3
#     Edge 12, Type (0, 1), BuildingBlock: EZIPEK_clean_linker_0, # of connection points: 2
#     Edge 13, Type (0, 1), BuildingBlock: EZIPEK_clean_linker_0, # of connection points: 2
#     Edge 14, Type (0, 1), BuildingBlock: EZIPEK_clean_linker_0, # of connection points: 2
#     Edge 15, Type (0, 1), BuildingBlock: EZIPEK_clean_linker_0, # of connection points: 2
#     Edge 16, Type (0, 1), BuildingBlock: EZIPEK_clean_linker_0, # of connection points: 2
#     Edge 17, Type (0, 1), BuildingBlock: EZIPEK_clean_linker_0, # of connection points: 2
#     Edge 18, Type (0, 1), BuildingBlock: EZIPEK_clean_linker_0, # of connection points: 2
#     Edge 19, Type (0, 1), BuildingBlock: EZIPEK_clean_linker_0, # of connection points: 2
#     Edge 20, Type (0, 1), BuildingBlock: EZIPEK_clean_linker_0, # of connection points: 2
#     Edge 21, Type (0, 1), BuildingBlock: EZIPEK_clean_linker_0, # of connection points: 2
#     Edge 22, Type (0, 1), BuildingBlock: EZIPEK_clean_linker_0, # of connection points: 2
#     Edge 23, Type (0, 1), BuildingBlock: EZIPEK_clean_linker_0, # of connection points: 2
#     Edge 24, Type (0, 1), BuildingBlock: EZIPEK_clean_linker_0, # of connection points: 2
#     Edge 25, Type (0, 1), BuildingBlock: EZIPEK_clean_linker_0, # of connection points: 2
#     Edge 26, Type (0, 1), BuildingBlock: EZIPEK_clean_linker_0, # of connection points: 2
#     Edge 27, Type (0, 1), BuildingBlock: EZIPEK_clean_linker_0, # of connection points: 2
#     Edge 28, Type (0, 1), BuildingBlock: EZIPEK_clean_linker_0, # of connection points: 2
#     Edge 29, Type (0, 1), BuildingBlock: EZIPEK_clean_linker_0, # of connection points: 2
#     Edge 30, Type (0, 1), BuildingBlock: EZIPEK_clean_linker_0, # of connection points: 2
#     Edge 31, Type (0, 1), BuildingBlock: EZIPEK_clean_linker_0, # of connection points: 2
#     Edge 32, Type (0, 1), BuildingBlock: EZIPEK_clean_linker_0, # of connection points: 2
#     Edge 33, Type (0, 1), BuildingBlock: EZIPEK_clean_linker_0, # of connection points: 2
#     Edge 34, Type (0, 1), BuildingBlock: EZIPEK_clean_linker_0, # of connection points: 2
#     Edge 35, Type (0, 1), BuildingBlock: EZIPEK_clean_linker_0, # of connection points: 2
# Relax obj value: 0.253
# Max RMSD: 0.194
# Mean RMSD: 0.160
data_MOF--net-dag--node1-IZENUY_clean_sbu_0--node2-KAKCAD_clean_linker_0--edge1-EZIPEK_clean_linker_0
_symmetry_space_group_name_H-M    P1
_symmetry_Int_Tables_number       1
_symmetry_cell_setting            triclinic
loop_
_symmetry_equiv_pos_as_xyz
'x, y, z'
_cell_length_a     36.661481
_cell_length_b     38.246466
_cell_length_c     32.348891
_cell_angle_alpha  95.108782
_cell_angle_beta   90.250892
_cell_angle_gamma 89.983205
loop_
_atom_site_label
_atom_site_type_symbol
_atom_site_fract_x
_atom_site_fract_y
_atom_site_fract_z
_atom_type_partial_charge
Fe0 Fe 0.20497 0.83504 0.09264 0.0
Fe1 Fe 0.13065 0.86477 0.07097 0.0
O2 O 0.16109 0.82869 0.07 0.0
Fe3 Fe 0.14782 0.78668 0.04695 0.0
O4 O 0.17288 0.76237 0.0849 0.0
O5 O 0.19556 0.80352 0.12979 0.0
O6 O 0.19051 0.8692 0.13274 0.0
C7 C 0.15965 0.87492 0.14913 0.0
C8 C 0.21902 0.78694 0.02241 0.0
O9 O 0.13128 0.87025 0.12714 0.0
C10 C 0.11823 0.83456 0.99249 0.0
O11 O 0.21677 0.86713 0.05651 0.0
O12 O 0.16643 0.89786 0.06715 0.0
O13 O 0.18609 0.78452 0.01135 0.0
O14 O 0.22792 0.80174 0.05745 0.0
C15 C 0.08391 0.80779 0.08492 0.0
O16 O 0.12783 0.86164 0.01496 0.0
O17 O 0.12044 0.80421 0.00541 0.0
C18 C 0.1983 0.89449 0.05253 0.0
O19 O 0.08926 0.83847 0.07472 0.0
O20 O 0.10835 0.78471 0.08035 0.0
C21 C 0.18608 0.77209 0.12047 0.0
Fe22 Fe 0.71174 0.66218 0.48484 0.0
Fe23 Fe 0.65026 0.71095 0.52093 0.0
O24 O 0.66719 0.66821 0.50579 0.0
Fe25 Fe 0.63946 0.63105 0.51132 0.0
O26 O 0.67744 0.60173 0.52114 0.0
O27 O 0.72569 0.63587 0.52632 0.0
O28 O 0.73165 0.70012 0.51559 0.0
C29 C 0.7209 0.71799 0.54798 0.0
C30 C 0.66896 0.61315 0.43535 0.0
O31 O 0.6876 0.72027 0.55717 0.0
C32 C 0.58895 0.68055 0.48544 0.0
O33 O 0.70101 0.68811 0.44232 0.0
O34 O 0.67394 0.73182 0.47937 0.0
O35 O 0.64037 0.61898 0.45616 0.0
O36 O 0.69984 0.62311 0.44968 0.0
C37 C 0.62429 0.66947 0.58392 0.0
O38 O 0.61151 0.70532 0.48586 0.0
O39 O 0.59616 0.65307 0.50263 0.0
C40 C 0.68876 0.71903 0.44599 0.0
O41 O 0.62348 0.69717 0.56499 0.0
O42 O 0.63665 0.6411 0.5668 0.0
C43 C 0.70917 0.6086 0.53492 0.0
Fe44 Fe 0.84674 0.23055 0.03283 0.0
Fe45 Fe 0.86845 0.15271 0.02461 0.0
O46 O 0.83641 0.18601 0.01652 0.0
Fe47 Fe 0.79396 0.17487 0.992 0.0
O48 O 0.80387 0.20192 0.9505 0.0
O49 O 0.82122 0.24858 0.99044 0.0
O50 O 0.88648 0.23026 -0.00051 0.0
C51 C 0.91217 0.20843 9e-05 0.0
C52 C 0.77521 0.22804 0.05548 0.0
O53 O 0.90846 0.17996 0.01681 0.0
C54 C 0.80075 0.12223 0.0431 0.0
O55 O 0.87462 0.22085 0.07804 0.0
O56 O 0.86875 0.16387 0.08002 0.0
O57 O 0.76823 0.21042 0.02126 0.0
O58 O 0.80768 0.23377 0.06721 0.0
C59 C 0.84394 0.12876 0.94756 0.0
O60 O 0.83411 0.11958 0.03379 0.0
O61 O 0.78139 0.14684 0.03181 0.0
C62 C 0.87657 0.1936 0.09749 0.0
O63 O 0.87074 0.13886 0.96985 0.0
O64 O 0.81171 0.1372 0.95831 0.0
C65 C 0.81149 0.23411 0.9554 0.0
Fe66 Fe 0.36818 0.34479 0.55268 0.0
Fe67 Fe 0.29613 0.32548 0.59342 0.0
O68 O 0.33697 0.31265 0.56677 0.0
Fe69 Fe 0.34648 0.26737 0.55399 0.0
O70 O 0.38795 0.26981 0.58497 0.0
O71 O 0.40878 0.31809 0.56085 0.0
O72 O 0.37382 0.36311 0.60571 0.0
C73 C 0.34847 0.37435 0.62938 0.0
C74 C 0.37274 0.29884 0.48352 0.0
O75 O 0.31578 0.36475 0.6225 0.0
C76 C 0.27378 0.26896 0.53586 0.0
O77 O 0.33313 0.37698 0.54236 0.0
O78 O 0.28077 0.35087 0.55193 0.0
O79 O 0.37181 0.2734 0.50598 0.0
O80 O 0.36505 0.32942 0.49832 0.0
C81 C 0.31547 0.26882 0.63414 0.0
O82 O 0.26887 0.28854 0.56912 0.0
O83 O 0.30551 0.26233 0.52235 0.0
C84 C 0.29914 0.37423 0.53649 0.0
O85 O 0.30864 0.30121 0.63687 0.0
O86 O 0.32336 0.25243 0.59963 0.0
C87 C 0.41342 0.29131 0.58071 0.0
C88 C 0.97789 0.18827 0.26751 0.0
C89 C 0.95047 0.16702 0.24826 0.0
C90 C 0.00257 0.17434 0.29465 0.0
C91 C -0.00017 0.13903 0.30355 0.0
C92 C 0.96993 0.11903 0.28738 0.0
C93 C 0.94563 0.13284 0.25967 0.0
C94 C 0.03041 0.12211 0.32483 0.0
C95 C 0.0513 0.14133 0.35569 0.0
C96 C 0.08379 0.1274 0.37042 0.0
C97 C 0.0943 0.09332 0.35597 0.0
C98 C 0.07397 0.07367 0.32544 0.0
C99 C 0.04192 0.08804 0.31021 0.0
C100 C 0.08852 0.03966 0.30695 0.0
C101 C 0.12539 0.03686 0.29604 0.0
C102 C 0.06602 0.01024 0.29912 0.0
C103 C 0.08068 0.97809 0.28303 0.0
C104 C 0.11864 0.97396 0.27583 0.0
C105 C 0.10917 0.14946 0.39715 0.0
C106 C 0.09698 0.16962 0.43286 0.0
C107 C 0.14629 0.15037 0.3865 0.0
C108 C 0.17086 0.17056 0.41131 0.0
C109 C 0.15883 0.19021 0.44722 0.0
C110 C 0.12177 0.18975 0.45795 0.0
C111 C 0.13995 0.00492 0.27991 0.0
H112 H 0.98204 0.2147 0.25885 0.0
H113 H 0.02529 0.19056 0.30601 0.0
H114 H 0.96642 0.09207 0.29437 0.0
H115 H 0.92447 0.11614 0.24514 0.0
H116 H 0.04341 0.16782 0.36673 0.0
H117 H 0.02744 0.07355 0.28492 0.0
H118 H 0.11919 0.0824 0.36773 0.0
H119 H 0.14301 0.0597 0.29925 0.0
H120 H 0.03708 0.012 0.30558 0.0
H121 H 0.06151 0.9571 0.27554 0.0
H122 H 0.06852 0.16932 0.44167 0.0
H123 H 0.15631 0.13559 0.35873 0.0
H124 H 0.16791 0.00544 0.26979 0.0
H125 H 0.11217 0.20487 0.48569 0.0
H126 H 0.19936 0.17081 0.40258 0.0
C127 C 0.3586 0.51485 0.76148 0.0
C128 C 0.38317 0.48683 0.75536 0.0
C129 C 0.369 0.5458 0.78467 0.0
C130 C 0.40429 0.54928 0.80179 0.0
C131 C 0.42806 0.52031 0.79764 0.0
C132 C 0.41751 0.48922 0.77467 0.0
C133 C 0.41748 0.5843 0.81903 0.0
C134 C 0.39498 0.60658 0.84446 0.0
C135 C 0.40453 0.64194 0.85478 0.0
C136 C 0.43792 0.65442 0.84061 0.0
C137 C 0.46112 0.63228 0.81571 0.0
C138 C 0.45068 0.59721 0.80534 0.0
C139 C 0.49351 0.64644 0.79532 0.0
C140 C 0.49115 0.67848 0.77712 0.0
C141 C 0.52487 0.62558 0.78827 0.0
C142 C 0.55107 0.6344 0.75979 0.0
C143 C 0.54653 0.66444 0.7385 0.0
C144 C 0.37849 0.66624 0.87785 0.0
C145 C 0.34068 0.66257 0.87081 0.0
C146 C 0.39099 0.6934 0.9067 0.0
C147 C 0.36624 0.7158 0.92851 0.0
C148 C 0.32862 0.71098 0.9224 0.0
C149 C 0.31601 0.68449 0.8932 0.0
C150 C 0.51762 0.68749 0.74901 0.0
H151 H 0.3321 0.51344 0.74645 0.0
H152 H 0.35023 0.56776 0.78688 0.0
H153 H 0.45532 0.52222 0.8107 0.0
H154 H 0.43682 0.46781 0.76996 0.0
H155 H 0.36954 0.59641 0.8554 0.0
H156 H 0.46711 0.5806 0.78384 0.0
H157 H 0.44523 0.68176 0.84748 0.0
H158 H 0.46732 0.69509 0.78161 0.0
H159 H 0.52786 0.60115 0.8025 0.0
H160 H 0.57327 0.61635 0.75192 0.0
H161 H 0.33 0.64275 0.84797 0.0
H162 H 0.41983 0.69687 0.91318 0.0
H163 H 0.51365 0.71063 0.73249 0.0
H164 H 0.28701 0.68059 0.88807 0.0
H165 H 0.3763 0.7361 0.95121 0.0
C166 C 0.90743 0.79198 0.13796 0.0
C167 C 0.93828 0.81375 0.1417 0.0
C168 C 0.87336 0.80512 0.15109 0.0
C169 C 0.86985 0.84023 0.16766 0.0
C170 C 0.90114 0.86143 0.17252 0.0
C171 C 0.93506 0.84827 0.15968 0.0
C172 C 0.83371 0.85543 0.17881 0.0
C173 C 0.80941 0.83806 0.20326 0.0
C174 C 0.77648 0.85407 0.21659 0.0
C175 C 0.76746 0.88736 0.2044 0.0
C176 C 0.79136 0.90472 0.17935 0.0
C177 C 0.82425 0.88847 0.16657 0.0
C178 C 0.78291 0.94005 0.16665 0.0
C179 C 0.74892 0.9473 0.14899 0.0
C180 C 0.81027 0.96588 0.16887 0.0
C181 C 0.80477 0.99731 0.15115 0.0
C182 C 0.77181 0.00353 0.13106 0.0
C183 C 0.75376 0.83728 0.24673 0.0
C184 C 0.74433 0.80166 0.23958 0.0
C185 C 0.74543 0.85563 0.28508 0.0
C186 C 0.73029 0.83798 0.31684 0.0
C187 C 0.72284 0.80198 0.31033 0.0
C188 C 0.72868 0.78415 0.27115 0.0
C189 C 0.74338 0.97897 0.13123 0.0
H190 H 0.90962 0.76529 0.1239 0.0
H191 H 0.84962 0.7883 0.147 0.0
H192 H 0.8993 0.88838 0.18584 0.0
H193 H 0.95869 0.86533 0.16271 0.0
H194 H 0.81706 0.81294 0.21383 0.0
H195 H 0.84262 0.90159 0.14678 0.0
H196 H 0.74235 0.90001 0.21517 0.0
H197 H 0.72743 0.9278 0.14691 0.0
H198 H 0.83646 0.96121 0.18302 0.0
H199 H 0.82685 0.01617 0.15147 0.0
H200 H 0.75049 0.78707 0.21018 0.0
H201 H 0.7528 0.88302 0.29138 0.0
H202 H 0.71775 0.98355 0.11583 0.0
H203 H 0.72318 0.75627 0.26586 0.0
H204 H 0.72608 0.85195 0.34707 0.0
C205 C 0.58038 0.28894 0.66077 0.0
C206 C 0.56535 0.29231 0.62148 0.0
C207 C 0.61626 0.29933 0.66942 0.0
C208 C 0.63797 0.3129 0.63871 0.0
C209 C 0.62352 0.31363 0.5984 0.0
C210 C 0.58739 0.30357 0.58992 0.0
C211 C 0.67349 0.32997 0.65051 0.0
C212 C 0.69529 0.31696 0.68132 0.0
C213 C 0.72389 0.33702 0.70024 0.0
C214 C 0.73272 0.36939 0.68527 0.0
C215 C 0.71247 0.38207 0.65269 0.0
C216 C 0.683 0.36205 0.63549 0.0
C217 C 0.71992 0.41747 0.63883 0.0
C218 C 0.69074 0.4394 0.62951 0.0
C219 C 0.75586 0.4297 0.63471 0.0
C220 C 0.76235 0.46281 0.62078 0.0
C221 C 0.73299 0.48391 0.61029 0.0
C222 C 0.74159 0.32552 0.73825 0.0
C223 C 0.72049 0.30899 0.76713 0.0
C224 C 0.77896 0.33122 0.74655 0.0
C225 C 0.79485 0.32002 0.78259 0.0
C226 C 0.77369 0.30249 0.81037 0.0
C227 C 0.73644 0.29728 0.80243 0.0
C228 C 0.69724 0.47209 0.61516 0.0
H229 H 0.56359 0.28043 0.68548 0.0
H230 H 0.62605 0.29883 0.70098 0.0
H231 H 0.63962 0.3233 0.57385 0.0
H232 H 0.57609 0.30621 0.55936 0.0
H233 H 0.68889 0.29158 0.69186 0.0
H234 H 0.66642 0.37226 0.61155 0.0
H235 H 0.75389 0.38563 0.70049 0.0
H236 H 0.66273 0.43148 0.63354 0.0
H237 H 0.77893 0.41348 0.64159 0.0
H238 H 0.79014 0.47175 0.61759 0.0
H239 H 0.69141 0.30525 0.76275 0.0
H240 H 0.79599 0.34386 0.72502 0.0
H241 H 0.67424 0.48827 0.6078 0.0
H242 H 0.7196 0.28421 0.8238 0.0
H243 H 0.82365 0.3245 0.78851 0.0
C244 C 0.62055 0.50529 0.26815 0.0
C245 C 0.61489 0.51467 0.31051 0.0
C246 C 0.60224 0.47635 0.24824 0.0
C247 C 0.57863 0.45598 0.27069 0.0
C248 C 0.57189 0.46682 0.3127 0.0
C249 C 0.58965 0.49594 0.33224 0.0
C250 C 0.56515 0.42106 0.25284 0.0
C251 C 0.58821 0.39892 0.22796 0.0
C252 C 0.57965 0.36335 0.21851 0.0
C253 C 0.54759 0.34962 0.2344 0.0
C254 C 0.52416 0.37138 0.25965 0.0
C255 C 0.53219 0.40743 0.26644 0.0
C256 C 0.49514 0.35604 0.28467 0.0
C257 C 0.47408 0.32698 0.26893 0.0
C258 C 0.49042 0.36917 0.32638 0.0
C259 C 0.46584 0.35361 0.35171 0.0
C260 C 0.44557 0.32428 0.33634 0.0
C261 C 0.60652 0.34018 0.1957 0.0
C262 C 0.6434 0.3416 0.20787 0.0
C263 C 0.59607 0.31789 0.16081 0.0
C264 C 0.62239 0.29839 0.13754 0.0
C265 C 0.6593 0.30072 0.14925 0.0
C266 C 0.66955 0.32202 0.18486 0.0
C267 C 0.44945 0.31112 0.29467 0.0
H268 H 0.64004 0.51954 0.25099 0.0
H269 H 0.60769 0.46913 0.21573 0.0
H270 H 0.55468 0.45163 0.33149 0.0
H271 H 0.58516 0.50278 0.36506 0.0
H272 H 0.61404 0.40874 0.2177 0.0
H273 H 0.51378 0.42455 0.28486 0.0
H274 H 0.5425 0.32165 0.22965 0.0
H275 H 0.477 0.31622 0.23701 0.0
H276 H 0.50681 0.39071 0.34023 0.0
H277 H 0.46349 0.3638 0.38395 0.0
H278 H 0.65206 0.35818 0.23504 0.0
H279 H 0.56782 0.31642 0.15086 0.0
H280 H 0.43414 0.28825 0.28248 0.0
H281 H 0.6979 0.32388 0.19441 0.0
H282 H 0.61414 0.28194 0.1101 0.0
C283 C 0.08049 0.21847 0.92482 0.0
C284 C 0.06403 0.21319 0.96274 0.0
C285 C 0.11669 0.20853 0.91764 0.0
C286 C 0.13724 0.19358 0.94853 0.0
C287 C 0.1214 0.19121 0.98774 0.0
C288 C 0.08499 0.20076 0.9947 0.0
C289 C 0.17287 0.17648 0.93778 0.0
C290 C 0.19614 0.19042 0.90921 0.0
C291 C 0.22516 0.1706 0.89097 0.0
C292 C 0.233 0.13753 0.90496 0.0
C293 C 0.21101 0.12387 0.93523 0.0
C294 C 0.18108 0.14354 0.95133 0.0
C295 C 0.21687 0.08788 0.94785 0.0
C296 C 0.1869 0.06523 0.95031 0.0
C297 C 0.25165 0.07639 0.95932 0.0
C298 C 0.25596 0.04346 0.97469 0.0
C299 C 0.22552 0.02173 0.9787 0.0
C300 C 0.24394 0.183 0.85418 0.0
C301 C 0.22376 0.20086 0.82545 0.0
C302 C 0.28123 0.17646 0.84645 0.0
C303 C 0.29778 0.18769 0.81089 0.0
C304 C 0.27739 0.20607 0.78301 0.0
C305 C 0.24037 0.21259 0.79069 0.0
C306 C 0.19119 0.03258 0.96565 0.0
H307 H 0.06457 0.22801 0.89985 0.0
H308 H 0.12764 0.2104 0.88689 0.0
H309 H 0.13661 0.1805 0.01247 0.0
H310 H 0.07264 0.19675 0.02427 0.0
H311 H 0.19051 0.21634 0.89971 0.0
H312 H 0.16317 0.13231 0.97318 0.0
H313 H 0.25464 0.12148 0.89063 0.0
H314 H 0.15992 0.07296 0.94081 0.0
H315 H 0.27519 0.0933 0.95769 0.0
H316 H 0.28272 0.0353 0.98439 0.0
H317 H 0.19475 0.20533 0.82921 0.0
H318 H 0.29761 0.16283 0.86784 0.0
H319 H 0.1675 0.01596 0.96809 0.0
H320 H 0.22407 0.2263 0.76923 0.0
H321 H 0.32638 0.18215 0.80516 0.0
C322 C 0.4153 0.68787 0.41774 0.0
C323 C 0.4448 0.66457 0.41859 0.0
C324 C 0.38099 0.67554 0.404 0.0
C325 C 0.37585 0.63976 0.39101 0.0
C326 C 0.4059 0.61689 0.39068 0.0
C327 C 0.44003 0.6292 0.40438 0.0
C328 C 0.33915 0.62581 0.37912 0.0
C329 C 0.31607 0.64356 0.3534 0.0
C330 C 0.28181 0.62954 0.34109 0.0
C331 C 0.27053 0.59753 0.3552 0.0
C332 C 0.29342 0.57959 0.38105 0.0
C333 C 0.32744 0.59403 0.393 0.0
C334 C 0.28256 0.54576 0.39624 0.0
C335 C 0.2492 0.54232 0.41678 0.0
C336 C 0.30767 0.51791 0.39442 0.0
C337 C 0.30089 0.48836 0.41542 0.0
C338 C 0.26892 0.48612 0.43854 0.0
C339 C 0.2593 0.64754 0.31132 0.0
C340 C 0.2551 0.6842 0.3164 0.0
C341 C 0.24507 0.62873 0.27551 0.0
C342 C 0.22905 0.64654 0.24415 0.0
C343 C 0.22682 0.68328 0.24844 0.0
C344 C 0.23896 0.70193 0.28519 0.0
C345 C 0.2424 0.51258 0.43792 0.0
H346 H 0.41867 0.71529 0.42863 0.0
H347 H 0.3583 0.69372 0.40473 0.0
H348 H 0.40296 0.58935 0.38011 0.0
H349 H 0.46265 0.61096 0.40466 0.0
H350 H 0.32541 0.66763 0.34157 0.0
H351 H 0.34474 0.58062 0.41382 0.0
H352 H 0.24429 0.58642 0.34572 0.0
H353 H 0.22948 0.56349 0.41866 0.0
H354 H 0.33335 0.51974 0.3783 0.0
H355 H 0.32152 0.46806 0.41546 0.0
H356 H 0.26549 0.69926 0.34389 0.0
H357 H 0.24822 0.60051 0.27067 0.0
H358 H 0.21757 0.51113 0.45569 0.0
H359 H 0.23749 0.73033 0.28883 0.0
H360 H 0.22002 0.63186 0.21576 0.0
C361 C 0.04624 0.87544 0.81394 0.0
C362 C 0.03849 0.84902 0.83999 0.0
C363 C 0.02054 0.88419 0.78453 0.0
C364 C 0.98698 0.86638 0.78056 0.0
C365 C 0.98073 0.83796 0.80433 0.0
C366 C 0.00626 0.82947 0.83402 0.0
C367 C 0.9566 0.88064 0.75681 0.0
C368 C 0.93416 0.85842 0.73089 0.0
C369 C 0.90259 0.87152 0.71281 0.0
C370 C 0.89405 0.90738 0.7205 0.0
C371 C 0.91537 0.92966 0.74767 0.0
C372 C 0.94705 0.91613 0.76492 0.0
C373 C 0.90185 0.96512 0.76331 0.0
C374 C 0.8646 0.97015 0.77268 0.0
C375 C 0.92645 0.9926 0.77469 0.0
C376 C 0.91476 0.02272 0.79859 0.0
C377 C 0.87821 0.02606 0.81083 0.0
C378 C 0.8768 0.8474 0.68892 0.0
C379 C 0.88959 0.81952 0.66144 0.0
C380 C 0.83891 0.85184 0.69414 0.0
C381 C 0.81443 0.82951 0.67177 0.0
C382 C 0.82732 0.80206 0.6442 0.0
C383 C 0.86499 0.79693 0.63934 0.0
C384 C 0.85288 0.00047 0.79608 0.0
H385 H 0.0709 0.89093 0.81846 0.0
H386 H 0.026 0.90612 0.76646 0.0
H387 H 0.95497 0.82404 0.80222 0.0
H388 H -0.0002 0.80922 0.85421 0.0
H389 H 0.94053 0.83068 0.72627 0.0
H390 H 0.96287 0.93246 0.78748 0.0
H391 H 0.86999 0.91777 0.70637 0.0
H392 H 0.84484 0.94955 0.76493 0.0
H393 H 0.95515 0.98995 0.76724 0.0
H394 H 0.93462 0.04232 0.80982 0.0
H395 H 0.91854 0.81549 0.65655 0.0
H396 H 0.82807 0.87242 0.7158 0.0
H397 H 0.82461 0.0026 0.80562 0.0
H398 H 0.87524 0.77586 0.61792 0.0
H399 H 0.78539 0.83366 0.67588 0.0
C400 C 0.18273 0.91415 0.21277 0.0
C401 C 0.156 0.89102 0.19301 0.0
C402 C 0.114 0.90849 0.25018 0.0
C403 C 0.13513 0.93914 0.25891 0.0
N404 N 0.19808 0.94941 0.27634 0.0
N405 N 0.10161 0.85714 0.2031 0.0
C406 C 0.17247 0.936 0.2486 0.0
C407 C 0.12328 0.88519 0.21513 0.0
N408 N 0.21745 0.91596 0.19814 0.0
N409 N 0.08934 0.89919 0.27868 0.0
H410 H 0.11068 0.83681 0.18212 0.0
H411 H 0.07521 0.85418 0.21405 0.0
H412 H 0.08703 0.91343 0.30764 0.0
H413 H 0.07498 0.87561 0.27599 0.0
H414 H 0.23494 0.93669 0.2076 0.0
H415 H 0.22951 0.89666 0.17811 0.0
H416 H 0.22598 0.945 0.27263 0.0
H417 H 0.19063 0.96114 0.30549 0.0
C418 C 0.61873 0.68725 0.66049 0.0
C419 C 0.60469 0.66863 0.62383 0.0
C420 C 0.55127 0.65067 0.66212 0.0
C421 C 0.56652 0.66713 0.69924 0.0
N422 N 0.61563 0.69821 0.7357 0.0
N423 N 0.56035 0.62793 0.59108 0.0
C424 C 0.60051 0.68473 0.69899 0.0
C425 C 0.57178 0.64901 0.62503 0.0
N426 N 0.64949 0.7072 0.65843 0.0
N427 N 0.51666 0.63718 0.66208 0.0
H428 H 0.57309 0.62664 0.56243 0.0
H429 H 0.53965 0.60939 0.59198 0.0
H430 H 0.50111 0.63595 0.6888 0.0
H431 H 0.50204 0.62959 0.6351 0.0
H432 H 0.65911 0.72438 0.68278 0.0
H433 H 0.66471 0.70792 0.6314 0.0
H434 H 0.64201 0.70818 0.7386 0.0
H435 H 0.60236 0.69757 0.7641 0.0
C436 C 0.78018 0.06023 0.04124 0.0
C437 C 0.78385 0.09352 0.06375 0.0
C438 C 0.76628 0.06828 0.12767 0.0
C439 C 0.76928 0.03434 0.10656 0.0
N440 N 0.78083 0.9972 0.04358 0.0
N441 N 0.78162 0.13001 0.12839 0.0
C442 C 0.77605 0.03003 0.06323 0.0
C443 C 0.77656 0.09796 0.10691 0.0
N444 N 0.78064 0.05763 -0.00116 0.0
N445 N 0.7539 0.07189 0.16759 0.0
H446 H 0.78889 0.15231 0.114 0.0
H447 H 0.78082 0.13413 0.16062 0.0
H448 H 0.74628 0.05039 0.18333 0.0
H449 H 0.74807 0.09603 0.18367 0.0
H450 H 0.77487 0.03454 0.98043 0.0
H451 H 0.78325 0.07948 0.98199 0.0
H452 H 0.79044 0.99265 0.01334 0.0
H453 H 0.77752 0.97425 0.0583 0.0
C454 C 0.46399 0.31174 0.62769 0.0
C455 C 0.4501 0.28559 0.59819 0.0
C456 C 0.51081 0.25871 0.59177 0.0
C457 C 0.52544 0.28868 0.61511 0.0
N458 N 0.51641 0.34582 0.65208 0.0
N459 N 0.45913 0.23255 0.55325 0.0
C460 C 0.50214 0.31567 0.63254 0.0
C461 C 0.47307 0.25821 0.58094 0.0
N462 N 0.44046 0.33213 0.65195 0.0
N463 N 0.53295 0.23075 0.58051 0.0
H464 H 0.43139 0.2304 0.54633 0.0
H465 H 0.47511 0.21438 0.53564 0.0
H466 H 0.56071 0.23063 0.58777 0.0
H467 H 0.52349 0.20677 0.56687 0.0
H468 H 0.44886 0.34985 0.67647 0.0
H469 H 0.41238 0.32791 0.65079 0.0
H470 H 0.50065 0.36781 0.66119 0.0
H471 H 0.54433 0.35018 0.65603 0.0
C472 C 0.67446 0.55346 0.39716 0.0
C473 C 0.66594 0.58958 0.39681 0.0
C474 C 0.63061 0.57767 0.33282 0.0
C475 C 0.6378 0.5414 0.33422 0.0
N476 N 0.67588 0.49614 0.3586 0.0
N477 N 0.64743 0.63721 0.35783 0.0
C478 C 0.66315 0.52984 0.36328 0.0
C479 C 0.64787 0.60206 0.36228 0.0
N480 N 0.69106 0.54138 0.43098 0.0
N481 N 0.60578 0.5886 0.30513 0.0
H482 H 0.66059 0.65533 0.37887 0.0
H483 H 0.63728 0.64785 0.33157 0.0
H484 H 0.59306 0.57143 0.2827 0.0
H485 H 0.59627 0.61432 0.30599 0.0
H486 H 0.69398 0.51484 0.43517 0.0
H487 H 0.69996 0.55799 0.4562 0.0
H488 H 0.69674 0.48697 0.37674 0.0
H489 H 0.66801 0.47837 0.3338 0.0
C490 C 0.96296 0.19257 0.95181 0.0
C491 C 0.94854 0.21632 0.98358 0.0
C492 C 0.00859 0.24418 0.99327 0.0
C493 C 0.02391 0.21621 0.96727 0.0
N494 N 0.01617 0.16136 0.92475 0.0
N495 N 0.95705 0.26534 0.03512 0.0
C496 C 0.00121 0.18992 0.9469 0.0
C497 C 0.97103 0.24278 0.00405 0.0
N498 N 0.93987 0.17292 0.92593 0.0
N499 N 0.02995 0.27206 0.00732 0.0
H500 H 0.92954 0.26582 0.04308 0.0
H501 H 0.97302 0.28222 0.05467 0.0
H502 H 0.05757 0.27358 3e-05 0.0
H503 H 0.01977 0.29487 0.02312 0.0
H504 H 0.94857 0.15725 0.89983 0.0
H505 H 0.91163 0.17563 0.92788 0.0
H506 H 0.00095 0.13958 0.91335 0.0
H507 H 0.04417 0.15786 0.92073 0.0
C508 C 0.28128 0.43664 0.53402 0.0
C509 C 0.28063 0.40185 0.51506 0.0
C510 C 0.2583 0.42319 0.45039 0.0
C511 C 0.26607 0.45795 0.46697 0.0
N512 N 0.28581 0.49845 0.5243 0.0
N513 N 0.2673 0.36089 0.45604 0.0
C514 C 0.2771 0.46499 0.50901 0.0
C515 C 0.26802 0.39469 0.47367 0.0
N516 N 0.28577 0.44238 0.57603 0.0
N517 N 0.24202 0.41771 0.4123 0.0
H518 H 0.27352 0.33951 0.47265 0.0
H519 H 0.2622 0.35403 0.4247 0.0
H520 H 0.23481 0.43836 0.39486 0.0
H521 H 0.23287 0.39332 0.39958 0.0
H522 H 0.28341 0.46698 0.59239 0.0
H523 H 0.28816 0.42187 0.59506 0.0
H524 H 0.29851 0.50448 0.5529 0.0
H525 H 0.2825 0.52017 0.50735 0.0
C526 C 0.06728 0.86068 0.95296 0.0
C527 C 0.09889 0.83904 0.95282 0.0
C528 C 0.09026 0.82262 0.87821 0.0
C529 C 0.06044 0.84618 0.87812 0.0
N530 N 0.02455 0.89258 0.91331 0.0
N531 N 0.14435 0.80445 0.91408 0.0
C532 C 0.0503 0.86679 0.91484 0.0
C533 C 0.11145 0.82129 0.91507 0.0
N534 N 0.05199 0.87387 0.98956 0.0
N535 N 0.09791 0.80115 0.84328 0.0
H536 H 0.16086 0.80356 0.94024 0.0
H537 H 0.15679 0.79409 0.88682 0.0
H538 H 0.0836 0.80232 0.81548 0.0
H539 H 0.11664 0.78064 0.84261 0.0
H540 H 0.02641 0.88576 0.9915 0.0
H541 H 0.06282 0.8701 0.01853 0.0
H542 H 0.01954 0.91141 0.93792 0.0
H543 H 0.0102 0.89717 0.88642 0.0
C544 C 0.84392 0.11007 0.87077 0.0
C545 C 0.8503 0.10188 0.91223 0.0
C546 C 0.87115 0.0429 0.88657 0.0
C547 C 0.868 0.05231 0.8453 0.0
N548 N 0.85477 0.09508 0.79717 0.0
N549 N 0.87268 0.06132 0.95984 0.0
C550 C 0.85521 0.08597 0.83709 0.0
C551 C 0.86464 0.06852 0.92016 0.0
N552 N 0.82686 0.14074 0.86361 0.0
N553 N 0.87955 0.00904 0.8937 0.0
H554 H 0.86564 0.07768 0.98589 0.0
H555 H 0.8882 0.03989 0.96708 0.0
H556 H 0.88634 0.98969 0.87025 0.0
H557 H 0.87725 -0.00079 0.92256 0.0
H558 H 0.81813 0.14686 0.83446 0.0
H559 H 0.81901 0.15929 0.88736 0.0
H560 H 0.84967 0.12039 0.78919 0.0
H561 H 0.86195 0.07764 0.77186 0.0
C562 C 0.42548 0.28479 0.43485 0.0
C563 C 0.38832 0.29452 0.44105 0.0
C564 C 0.38568 0.31494 0.37138 0.0
C565 C 0.42306 0.30642 0.36611 0.0
N566 N 0.47465 0.27276 0.3857 0.0
N567 N 0.33044 0.30775 0.41091 0.0
C568 C 0.44143 0.28737 0.39538 0.0
C569 C 0.36751 0.30587 0.4077 0.0
N570 N 0.44652 0.27608 0.46731 0.0
N571 N 0.36818 0.33325 0.34283 0.0
H572 H 0.31673 0.30005 0.43682 0.0
H573 H 0.31335 0.3133 0.38654 0.0
H574 H 0.38053 0.33915 0.3153 0.0
H575 H 0.34222 0.34392 0.34736 0.0
H576 H 0.47471 0.27292 0.4656 0.0
H577 H 0.43641 0.2748 0.49703 0.0
H578 H 0.48808 0.25593 0.4043 0.0
H579 H 0.48692 0.27468 0.35692 0.0
C580 C 0.22557 0.95457 0.0588 0.0
C581 C 0.21432 0.92453 0.03314 0.0
C582 C 0.2237 0.9562 0.97148 0.0
C583 C 0.22841 0.98773 0.99741 0.0
N584 N 0.23229 0.01787 0.06608 0.0
N585 N 0.19947 0.89711 0.96514 0.0
C586 C 0.22957 0.98714 0.04123 0.0
C587 C 0.21309 0.92521 0.98938 0.0
N588 N 0.23225 0.95185 0.09996 0.0
N589 N 0.22912 0.95613 0.92972 0.0
H590 H 0.19087 0.87421 0.97732 0.0
H591 H 0.19405 0.89746 0.93355 0.0
H592 H 0.23696 0.9786 0.91592 0.0
H593 H 0.22933 0.93334 0.90953 0.0
H594 H 0.24355 0.97196 0.11979 0.0
H595 H 0.22964 0.92818 0.11336 0.0
H596 H 0.22878 0.0196 0.09812 0.0
H597 H 0.23582 0.0422 0.05444 0.0
C598 C 0.52181 0.68635 0.49566 0.0
C599 C 0.55192 0.68439 0.46822 0.0
C600 C 0.51019 0.68022 0.40864 0.0
C601 C 0.48067 0.67629 0.43597 0.0
N602 N 0.45796 0.67332 0.5055 0.0
N603 N 0.57558 0.67707 0.39859 0.0
C604 C 0.48624 0.6792 0.47958 0.0
C605 C 0.54637 0.68125 0.42463 0.0
N606 N 0.52732 0.69539 0.53705 0.0
N607 N 0.50349 0.68291 0.36745 0.0
H608 H 0.60241 0.67769 0.40934 0.0
H609 H 0.57324 0.67058 0.36675 0.0
H610 H 0.47718 0.68209 0.35495 0.0
H611 H 0.52348 0.68908 0.34652 0.0
H612 H 0.50625 0.70033 0.55825 0.0
H613 H 0.55307 0.7013 0.54955 0.0
H614 H 0.46127 0.67075 0.53707 0.0
H615 H 0.43132 0.66861 0.49504 0.0
C616 C 0.37236 0.43483 0.65066 0.0
C617 C 0.35669 0.40309 0.66211 0.0
C618 C 0.35627 0.42717 0.73517 0.0
C619 C 0.37482 0.45736 0.72385 0.0
N620 N 0.40567 0.48802 0.6721 0.0
N621 N 0.338 0.36702 0.71575 0.0
C622 C 0.38447 0.46054 0.68198 0.0
C623 C 0.34964 0.39874 0.70454 0.0
N624 N 0.37392 0.44139 0.60985 0.0
N625 N 0.34448 0.42599 0.77505 0.0
H626 H 0.33254 0.34581 0.69423 0.0
H627 H 0.33637 0.36082 0.74638 0.0
H628 H 0.35001 0.44585 0.79848 0.0
H629 H 0.32722 0.40658 0.78436 0.0
H630 H 0.38075 0.46574 0.60003 0.0
H631 H 0.36492 0.42374 0.5857 0.0
H632 H 0.41746 0.48931 0.64304 0.0
H633 H 0.41403 0.5083 0.69375 0.0
C634 C 0.03815 0.78952 0.13702 0.0
C635 C 0.04633 0.79814 0.09629 0.0
C636 C 0.98174 0.808 0.08228 0.0
C637 C 0.9738 0.80204 0.1239 0.0
N638 N 0.99139 0.77855 0.18753 0.0
N639 N 0.02548 0.80201 0.02626 0.0
C640 C 0.0011 0.78967 0.15011 0.0
C641 C 0.01786 0.80299 0.06763 0.0
N642 N 0.06582 0.78288 0.16359 0.0
N643 N 0.95516 0.82012 0.05743 0.0
H644 H 0.05158 0.79671 0.01473 0.0
H645 H 0.00561 0.80256 0.00322 0.0
H646 H 0.92797 0.82286 0.06654 0.0
H647 H 0.96039 0.82931 0.02869 0.0
H648 H 0.06231 0.7801 0.19502 0.0
H649 H 0.093 0.78166 0.15444 0.0
H650 H 0.00926 0.76666 0.20704 0.0
H651 H 0.96439 0.77875 0.19766 0.0
C652 C 0.74696 0.55463 0.53628 0.0
C653 C 0.72747 0.58213 0.55839 0.0
C654 C 0.727 0.54908 0.61975 0.0
C655 C 0.73857 0.51887 0.59468 0.0
N656 N 0.75965 0.49226 0.52855 0.0
N657 N 0.7004 0.60724 0.6219 0.0
C658 C 0.74947 0.52158 0.55301 0.0
C659 C 0.71853 0.58012 0.60068 0.0
N660 N 0.76255 0.56009 0.49915 0.0
N661 N 0.72389 0.54775 0.66166 0.0
H662 H 0.6955 0.63092 0.60926 0.0
H663 H 0.68897 0.60579 0.6511 0.0
H664 H 0.73028 0.52522 0.67622 0.0
H665 H 0.71838 0.56959 0.68223 0.0
H666 H 0.7797 0.54202 0.48301 0.0
H667 H 0.76091 0.58421 0.48649 0.0
H668 H 0.76354 0.49195 0.49665 0.0
H669 H 0.76199 0.46759 0.53962 0.0
C670 C 0.9339 0.19155 0.13865 0.0
C671 C 0.89542 0.19472 0.13812 0.0
C672 C 0.89367 0.18663 0.21251 0.0
C673 C 0.93138 0.17822 0.21111 0.0
N674 N 0.98625 0.16682 0.17084 0.0
N675 N 0.83794 0.19553 0.17371 0.0
C676 C 0.9513 0.17937 0.17373 0.0
C677 C 0.87505 0.19254 0.17496 0.0
N678 N 0.95392 0.20033 0.10564 0.0
N679 N 0.87598 0.18947 0.24976 0.0
H680 H 0.82401 0.20225 0.14735 0.0
H681 H 0.82092 0.19014 0.19802 0.0
H682 H 0.88901 0.18516 0.2776 0.0
H683 H 0.84934 0.19853 0.25362 0.0
H684 H 0.98229 0.20186 0.10591 0.0
H685 H 0.94204 0.21 0.07979 0.0
H686 H 0.00042 0.16328 0.14294 0.0
H687 H 4e-05 0.15664 0.19533 0.0
C688 C 0.16988 0.72441 0.16652 0.0
C689 C 0.19681 0.74541 0.14908 0.0
C690 C 0.24394 0.7188 0.19048 0.0
C691 C 0.21627 0.70272 0.2126 0.0
N692 N 0.15265 0.69195 0.22455 0.0
N693 N 0.26019 0.76271 0.14469 0.0
C694 C 0.17915 0.70576 0.20123 0.0
C695 C 0.23407 0.74259 0.16111 0.0
N696 N 0.13564 0.7218 0.14977 0.0
N697 N 0.27974 0.71039 0.1966 0.0
H698 H 0.25544 0.77768 0.11994 0.0
H699 H 0.28649 0.76572 0.1568 0.0
H700 H 0.28809 0.69293 0.21777 0.0
H701 H 0.30094 0.71804 0.17809 0.0
H702 H 0.11606 0.70428 0.15867 0.0
H703 H 0.12777 0.73455 0.12412 0.0
H704 H 0.12494 0.6969 0.22092 0.0
H705 H 0.15852 0.67767 0.24978 0.0
C706 C 0.75969 0.72901 0.61182 0.0
C707 C 0.74776 0.73962 0.57309 0.0
C708 C 0.79104 0.78868 0.57914 0.0
C709 C 0.80099 0.77963 0.61921 0.0
N710 N 0.79271 0.7439 0.67619 0.0
N711 N 0.74728 0.78256 0.52278 0.0
C712 C 0.78468 0.75054 0.63632 0.0
C713 C 0.76223 0.77022 0.55743 0.0
N714 N 0.74804 0.69774 0.62445 0.0
N715 N 0.80942 0.81476 0.56168 0.0
H716 H 0.72581 0.77008 0.50636 0.0
H717 H 0.75382 0.80672 0.51227 0.0
H718 H 0.8297 0.82993 0.57723 0.0
H719 H 0.80656 0.81974 0.53071 0.0
H720 H 0.75857 0.68649 0.65009 0.0
H721 H 0.72943 0.68165 0.6074 0.0
H722 H 0.77869 0.72573 0.69223 0.0
H723 H 0.81211 0.75817 0.69437 0.0
C724 C 0.74244 0.28372 0.08073 0.0
C725 C 0.74505 0.24649 0.07905 0.0
C726 C 0.69199 0.24504 0.12507 0.0
C727 C 0.68776 0.28171 0.12378 0.0
N728 N 0.70414 0.33511 0.09417 0.0
N729 N 0.71877 0.1912 0.09454 0.0
C730 C 0.71165 0.30082 0.09984 0.0
C731 C 0.71864 0.22699 0.09954 0.0
N732 N 0.76945 0.30293 0.06452 0.0
N733 N 0.67158 0.22765 0.15202 0.0
H734 H 0.73864 0.17694 0.07776 0.0
H735 H 0.69776 0.17569 0.10447 0.0
H736 H 0.65162 0.23992 0.17107 0.0
H737 H 0.67643 0.20177 0.15809 0.0
H738 H 0.77117 0.33016 0.06952 0.0
H739 H 0.7917 0.2918 0.04841 0.0
H740 H 0.7181 0.34934 0.07325 0.0
H741 H 0.68169 0.34849 0.10748 0.0
C742 C 0.32961 0.25903 0.70811 0.0
C743 C 0.30983 0.2492 0.67109 0.0
C744 C 0.27914 0.20321 0.70575 0.0
C745 C 0.29342 0.21758 0.74435 0.0
N746 N 0.32995 0.26181 0.78313 0.0
N747 N 0.26112 0.21519 0.6366 0.0
C748 C 0.31839 0.24601 0.74583 0.0
C749 C 0.28363 0.22183 0.67016 0.0
N750 N 0.35956 0.28015 0.70701 0.0
N751 N 0.26107 0.17185 0.70326 0.0
H752 H 0.26173 0.22974 0.61094 0.0
H753 H 0.23922 0.19781 0.63615 0.0
H754 H 0.25776 0.15737 0.72886 0.0
H755 H 0.25289 0.15861 0.67519 0.0
H756 H 0.37696 0.28563 0.73231 0.0
H757 H 0.36895 0.28935 0.67959 0.0
H758 H 0.34481 0.28512 0.78592 0.0
H759 H 0.32236 0.25317 0.81152 0.0
C760 C 0.73411 0.74775 0.40216 0.0
C761 C 0.69711 0.74223 0.41283 0.0
C762 C 0.67712 0.77979 0.35922 0.0
C763 C 0.71373 0.78198 0.34596 0.0
N764 N 0.77709 0.76581 0.35164 0.0
N765 N 0.63298 0.75038 0.39945 0.0
C766 C 0.74222 0.7653 0.36652 0.0
C767 C 0.66846 0.7578 0.39103 0.0
N768 N 0.76163 0.73776 0.42724 0.0
N769 N 0.65073 0.79904 0.34165 0.0
H770 H 0.62553 0.7353 0.42318 0.0
H771 H 0.61099 0.75714 0.38131 0.0
H772 H 0.65593 0.81434 0.3172 0.0
H773 H 0.62428 0.80187 0.35305 0.0
H774 H 0.7888 0.7449 0.42398 0.0
H775 H 0.75713 0.72518 0.45393 0.0
H776 H 0.79799 0.75014 0.36169 0.0
H777 H 0.78484 0.78014 0.32716 0.0
C778 C 0.78107 0.28372 0.92239 0.0
C779 C 0.80626 0.25546 0.91991 0.0
C780 C 0.81352 0.26015 0.84544 0.0
C781 C 0.78958 0.28943 0.84835 0.0
N782 N 0.75921 0.33513 0.89133 0.0
N783 N 0.85423 0.22371 0.88213 0.0
C784 C 0.77638 0.30331 0.88755 0.0
C785 C 0.82503 0.24592 0.88235 0.0
N786 N 0.75969 0.29033 0.9567 0.0
N787 N 0.8236 0.24459 0.80754 0.0
H788 H 0.86373 0.21335 0.90892 0.0
H789 H 0.87102 0.21836 0.85644 0.0
H790 H 0.81553 0.25385 0.77958 0.0
H791 H 0.83753 0.22078 0.80383 0.0
H792 H 0.73839 0.30843 0.95831 0.0
H793 H 0.76066 0.27525 0.98193 0.0
H794 H 0.75186 0.34795 0.91985 0.0
H795 H 0.75577 0.35028 0.86629 0.0
C796 C 0.24177 0.21176 0.51498 0.0
C797 C 0.24244 0.24907 0.51616 0.0
C798 C 0.18725 0.2478 0.47278 0.0
C799 C 0.18569 0.21089 0.47352 0.0
N800 N 0.20604 0.15846 0.50265 0.0
N801 N 0.2108 0.30283 0.50414 0.0
C802 C 0.21136 0.19308 0.49685 0.0
C803 C 0.21352 0.26718 0.49773 0.0
N804 N 0.27021 0.19395 0.53081 0.0
N805 N 0.16476 0.26424 0.44677 0.0
H806 H 0.22949 0.3182 0.52166 0.0
H807 H 0.18818 0.31691 0.49527 0.0
H808 H 0.14492 0.25105 0.42819 0.0
H809 H 0.16774 0.29045 0.441 0.0
H810 H 0.27339 0.16685 0.52578 0.0
H811 H 0.2919 0.20617 0.54712 0.0
H812 H 0.2215 0.14491 0.52308 0.0
H813 H 0.18387 0.14405 0.49001 0.0
C814 C 0.26497 0.73828 0.01142 0.0
C815 C 0.24735 0.76788 0.99659 0.0
C816 C 0.28286 0.7599 0.93225 0.0
C817 C 0.30204 0.73193 0.94854 0.0
N818 N 0.31543 0.69736 0.00563 0.0
N819 N 0.24273 0.81001 0.94574 0.0
C820 C 0.29447 0.72217 0.98885 0.0
C821 C 0.2571 0.7795 0.95766 0.0
N822 N 0.25209 0.72412 0.0458 0.0
N823 N 0.28901 0.76741 0.89233 0.0
H824 H 0.22376 0.82476 0.96363 0.0
H825 H 0.25142 0.82209 0.91993 0.0
H826 H 0.30911 0.75492 0.87365 0.0
H827 H 0.27293 0.78453 0.87683 0.0
H828 H 0.26093 0.70029 0.05549 0.0
H829 H 0.22994 0.73436 0.06257 0.0
H830 H 0.31448 0.69262 0.03681 0.0
H831 H 0.33579 0.68309 0.98928 0.0
loop_
_geom_bond_atom_site_label_1
_geom_bond_atom_site_label_2
_geom_bond_distance
_geom_bond_site_symmetry_2
_ccdc_geom_bond_type
Fe0 O2 1.918 . S
Fe0 O5 1.997 . S
Fe0 O6 2.002 . S
Fe0 O11 1.976 . S
Fe0 O14 1.996 . S
Fe1 O2 1.918 . S
Fe1 O9 1.997 . S
Fe1 O12 1.996 . S
Fe1 O16 1.977 . S
Fe1 O19 2.002 . S
O2 Fe0 1.918 . S
O2 Fe1 1.918 . S
O2 Fe3 1.918 . S
Fe3 O2 1.918 . S
Fe3 O4 2.002 . S
Fe3 O13 1.976 . S
Fe3 O17 1.996 1_554 S
Fe3 O20 1.997 . S
O4 Fe3 2.002 . S
O4 C21 1.295 . S
O5 Fe0 1.997 . S
O5 C21 1.235 . S
O6 Fe0 2.002 . S
O6 C7 1.295 . S
C7 O6 1.295 . S
C7 O9 1.235 . S
C8 O13 1.287 . S
C8 O14 1.255 . S
O9 Fe1 1.997 . S
O9 C7 1.235 . S
C10 O16 1.286 1_556 S
C10 O17 1.255 . S
O11 Fe0 1.976 . S
O11 C18 1.287 . S
O12 Fe1 1.996 . S
O12 C18 1.255 . S
O13 Fe3 1.976 . S
O13 C8 1.287 . S
O14 Fe0 1.996 . S
O14 C8 1.255 . S
C15 O19 1.295 . S
C15 O20 1.235 . S
O16 Fe1 1.977 . S
O16 C10 1.286 1_554 S
O17 Fe3 1.996 1_556 S
O17 C10 1.255 . S
C18 O11 1.287 . S
C18 O12 1.255 . S
O19 Fe1 2.002 . S
O19 C15 1.295 . S
O20 Fe3 1.997 . S
O20 C15 1.235 . S
C21 O4 1.295 . S
C21 O5 1.235 . S
Fe22 O24 1.918 . S
Fe22 O27 1.997 . S
Fe22 O28 2.002 . S
Fe22 O33 1.976 . S
Fe22 O36 1.996 . S
Fe23 O24 1.918 . S
Fe23 O31 1.997 . S
Fe23 O34 1.996 . S
Fe23 O38 1.976 . S
Fe23 O41 2.002 . S
O24 Fe22 1.918 . S
O24 Fe23 1.918 . S
O24 Fe25 1.918 . S
Fe25 O24 1.918 . S
Fe25 O26 2.002 . S
Fe25 O35 1.976 . S
Fe25 O39 1.996 . S
Fe25 O42 1.997 . S
O26 Fe25 2.002 . S
O26 C43 1.295 . S
O27 Fe22 1.997 . S
O27 C43 1.235 . S
O28 Fe22 2.002 . S
O28 C29 1.295 . S
C29 O28 1.295 . S
C29 O31 1.235 . S
C30 O35 1.287 . S
C30 O36 1.255 . S
O31 Fe23 1.997 . S
O31 C29 1.235 . S
C32 O38 1.287 . S
C32 O39 1.255 . S
O33 Fe22 1.976 . S
O33 C40 1.287 . S
O34 Fe23 1.996 . S
O34 C40 1.255 . S
O35 Fe25 1.976 . S
O35 C30 1.287 . S
O36 Fe22 1.996 . S
O36 C30 1.255 . S
C37 O41 1.295 . S
C37 O42 1.235 . S
O38 Fe23 1.976 . S
O38 C32 1.287 . S
O39 Fe25 1.996 . S
O39 C32 1.255 . S
C40 O33 1.287 . S
C40 O34 1.255 . S
O41 Fe23 2.002 . S
O41 C37 1.295 . S
O42 Fe25 1.997 . S
O42 C37 1.235 . S
C43 O26 1.295 . S
C43 O27 1.235 . S
Fe44 O46 1.918 . S
Fe44 O49 1.997 1_554 S
Fe44 O50 2.002 . S
Fe44 O55 1.976 . S
Fe44 O58 1.996 . S
Fe45 O46 1.918 . S
Fe45 O53 1.992 1_554 S
Fe45 O56 1.996 . S
Fe45 O60 1.976 . S
Fe45 O63 2.002 1_554 S
O46 Fe44 1.918 . S
O46 Fe45 1.918 . S
O46 Fe47 1.918 1_554 S
Fe47 O46 1.918 1_556 S
Fe47 O48 2.002 . S
Fe47 O57 1.976 1_556 S
Fe47 O61 1.996 1_556 S
Fe47 O64 1.997 . S
O48 Fe47 2.002 . S
O48 C65 1.295 . S
O49 Fe44 1.997 1_556 S
O49 C65 1.235 . S
O50 Fe44 2.002 . S
O50 C51 1.295 1_554 S
C51 O50 1.295 1_556 S
C51 O53 1.239 . S
C52 O57 1.287 . S
C52 O58 1.255 . S
O53 Fe45 1.992 1_556 S
O53 C51 1.239 . S
C54 O60 1.287 . S
C54 O61 1.255 . S
O55 Fe44 1.976 . S
O55 C62 1.287 . S
O56 Fe45 1.996 . S
O56 C62 1.255 . S
O57 Fe47 1.976 1_554 S
O57 C52 1.287 . S
O58 Fe44 1.996 . S
O58 C52 1.255 . S
C59 O63 1.295 . S
C59 O64 1.235 . S
O60 Fe45 1.976 . S
O60 C54 1.287 . S
O61 Fe47 1.996 1_554 S
O61 C54 1.255 . S
C62 O55 1.287 . S
C62 O56 1.255 . S
O63 Fe45 2.002 1_556 S
O63 C59 1.295 . S
O64 Fe47 1.997 . S
O64 C59 1.235 . S
C65 O48 1.295 . S
C65 O49 1.235 . S
Fe66 O68 1.918 . S
Fe66 O71 1.997 . S
Fe66 O72 2.002 . S
Fe66 O77 1.976 . S
Fe66 O80 1.996 . S
Fe67 O68 1.918 . S
Fe67 O75 1.997 . S
Fe67 O78 1.996 . S
Fe67 O82 1.976 . S
Fe67 O85 2.002 . S
O68 Fe66 1.918 . S
O68 Fe67 1.918 . S
O68 Fe69 1.918 . S
Fe69 O68 1.918 . S
Fe69 O70 2.002 . S
Fe69 O79 1.976 . S
Fe69 O83 1.996 . S
Fe69 O86 1.997 . S
O70 Fe69 2.002 . S
O70 C87 1.295 . S
O71 Fe66 1.997 . S
O71 C87 1.235 . S
O72 Fe66 2.002 . S
O72 C73 1.295 . S
C73 O72 1.295 . S
C73 O75 1.235 . S
C74 O79 1.287 . S
C74 O80 1.255 . S
O75 Fe67 1.997 . S
O75 C73 1.235 . S
C76 O82 1.287 . S
C76 O83 1.255 . S
O77 Fe66 1.976 . S
O77 C84 1.287 . S
O78 Fe67 1.996 . S
O78 C84 1.255 . S
O79 Fe69 1.976 . S
O79 C74 1.287 . S
O80 Fe66 1.996 . S
O80 C74 1.255 . S
C81 O85 1.295 . S
C81 O86 1.235 . S
O82 Fe67 1.976 . S
O82 C76 1.287 . S
O83 Fe69 1.996 . S
O83 C76 1.255 . S
C84 O77 1.287 . S
C84 O78 1.255 . S
O85 Fe67 2.002 . S
O85 C81 1.295 . S
O86 Fe69 1.997 . S
O86 C81 1.235 . S
C87 O70 1.295 . S
C87 O71 1.235 . S
C88 C89 1.386 . S
C88 C90 1.397 1_655 S
C88 H112 0.931 . S
C89 C88 1.386 . S
C89 C93 1.397 . S
C90 C88 1.397 1_455 S
C90 C91 1.384 . S
C90 H113 0.930 . S
C91 C90 1.384 . S
C91 C92 1.377 1_455 S
C91 C94 1.481 . S
C92 C91 1.377 1_655 S
C92 C93 1.389 . S
C92 H114 0.929 . S
C93 C89 1.397 . S
C93 C92 1.389 . S
C93 H115 0.931 . S
C94 C91 1.481 . S
C94 C95 1.387 . S
C94 C99 1.390 . S
C95 C94 1.387 . S
C95 C96 1.401 . S
C95 H116 0.930 . S
C96 C95 1.401 . S
C96 C97 1.376 . S
C96 C105 1.511 . S
C97 C96 1.376 . S
C97 C98 1.392 . S
C97 H118 0.931 . S
C98 C97 1.392 . S
C98 C99 1.361 . S
C98 C100 1.500 . S
C99 C94 1.390 . S
C99 C98 1.361 . S
C99 H117 0.931 . S
C100 C98 1.500 . S
C100 C101 1.371 . S
C100 C102 1.365 . S
C101 C100 1.371 . S
C101 C111 1.386 . S
C101 H119 0.931 . S
C102 C100 1.365 . S
C102 C103 1.409 . S
C102 H120 0.929 . S
C103 C102 1.409 . S
C103 C104 1.380 1_545 S
C103 H121 0.930 1_545 S
C104 C103 1.380 1_565 S
C104 C111 1.357 1_565 S
C105 C96 1.511 . S
C105 C106 1.341 . S
C105 C107 1.371 . S
C106 C105 1.341 . S
C106 C110 1.394 . S
C106 H122 0.930 . S
C107 C105 1.371 . S
C107 C108 1.392 . S
C107 H123 0.931 . S
C108 C107 1.392 . S
C108 C109 1.331 . S
C108 H126 0.932 . S
C109 C108 1.331 . S
C109 C110 1.336 . S
C110 C106 1.394 . S
C110 C109 1.336 . S
C110 H125 0.929 . S
C111 C101 1.386 . S
C111 C104 1.357 1_545 S
C111 H124 0.928 . S
H112 C88 0.931 . S
H113 C90 0.930 . S
H114 C92 0.929 . S
H115 C93 0.931 . S
H116 C95 0.930 . S
H117 C99 0.931 . S
H118 C97 0.931 . S
H119 C101 0.931 . S
H120 C102 0.929 . S
H121 C103 0.930 1_565 S
H122 C106 0.930 . S
H123 C107 0.931 . S
H124 C111 0.928 . S
H125 C110 0.929 . S
H126 C108 0.932 . S
C127 C128 1.386 . S
C127 C129 1.397 . S
C127 H151 0.931 . S
C128 C127 1.386 . S
C128 C132 1.397 . S
C129 C127 1.397 . S
C129 C130 1.384 . S
C129 H152 0.930 . S
C130 C129 1.384 . S
C130 C131 1.377 . S
C130 C133 1.481 . S
C131 C130 1.377 . S
C131 C132 1.389 . S
C131 H153 0.929 . S
C132 C128 1.397 . S
C132 C131 1.389 . S
C132 H154 0.931 . S
C133 C130 1.481 . S
C133 C134 1.387 . S
C133 C138 1.390 . S
C134 C133 1.387 . S
C134 C135 1.401 . S
C134 H155 0.930 . S
C135 C134 1.401 . S
C135 C136 1.376 . S
C135 C144 1.511 . S
C136 C135 1.376 . S
C136 C137 1.392 . S
C136 H157 0.931 . S
C137 C136 1.392 . S
C137 C138 1.361 . S
C137 C139 1.500 . S
C138 C133 1.390 . S
C138 C137 1.361 . S
C138 H156 0.931 . S
C139 C137 1.500 . S
C139 C140 1.371 . S
C139 C141 1.365 . S
C140 C139 1.371 . S
C140 C150 1.386 . S
C140 H158 0.931 . S
C141 C139 1.365 . S
C141 C142 1.409 . S
C141 H159 0.929 . S
C142 C141 1.409 . S
C142 C143 1.380 . S
C142 H160 0.930 . S
C143 C142 1.380 . S
C143 C150 1.357 . S
C144 C135 1.511 . S
C144 C145 1.341 . S
C144 C146 1.371 . S
C145 C144 1.341 . S
C145 C149 1.394 . S
C145 H161 0.930 . S
C146 C144 1.371 . S
C146 C147 1.392 . S
C146 H162 0.931 . S
C147 C146 1.392 . S
C147 C148 1.331 . S
C147 H165 0.932 . S
C148 C147 1.331 . S
C148 C149 1.336 . S
C149 C145 1.394 . S
C149 C148 1.336 . S
C149 H164 0.929 . S
C150 C140 1.386 . S
C150 C143 1.357 . S
C150 H163 0.928 . S
H151 C127 0.931 . S
H152 C129 0.930 . S
H153 C131 0.929 . S
H154 C132 0.931 . S
H155 C134 0.930 . S
H156 C138 0.931 . S
H157 C136 0.931 . S
H158 C140 0.931 . S
H159 C141 0.929 . S
H160 C142 0.930 . S
H161 C145 0.930 . S
H162 C146 0.931 . S
H163 C150 0.928 . S
H164 C149 0.929 . S
H165 C147 0.932 . S
C166 C167 1.386 . S
C166 C168 1.397 . S
C166 H190 0.931 . S
C167 C166 1.386 . S
C167 C171 1.397 . S
C168 C166 1.397 . S
C168 C169 1.384 . S
C168 H191 0.930 . S
C169 C168 1.384 . S
C169 C170 1.377 . S
C169 C172 1.481 . S
C170 C169 1.377 . S
C170 C171 1.389 . S
C170 H192 0.929 . S
C171 C167 1.397 . S
C171 C170 1.389 . S
C171 H193 0.931 . S
C172 C169 1.481 . S
C172 C173 1.387 . S
C172 C177 1.390 . S
C173 C172 1.387 . S
C173 C174 1.401 . S
C173 H194 0.930 . S
C174 C173 1.401 . S
C174 C175 1.376 . S
C174 C183 1.511 . S
C175 C174 1.376 . S
C175 C176 1.392 . S
C175 H196 0.931 . S
C176 C175 1.392 . S
C176 C177 1.361 . S
C176 C178 1.500 . S
C177 C172 1.390 . S
C177 C176 1.361 . S
C177 H195 0.931 . S
C178 C176 1.500 . S
C178 C179 1.371 . S
C178 C180 1.365 . S
C179 C178 1.371 . S
C179 C189 1.386 . S
C179 H197 0.931 . S
C180 C178 1.365 . S
C180 C181 1.409 . S
C180 H198 0.929 . S
C181 C180 1.409 . S
C181 C182 1.380 . S
C181 H199 0.930 . S
C182 C181 1.380 . S
C182 C189 1.357 . S
C183 C174 1.511 . S
C183 C184 1.341 . S
C183 C185 1.371 . S
C184 C183 1.341 . S
C184 C188 1.394 . S
C184 H200 0.930 . S
C185 C183 1.371 . S
C185 C186 1.392 . S
C185 H201 0.931 . S
C186 C185 1.392 . S
C186 C187 1.331 . S
C186 H204 0.932 . S
C187 C186 1.331 . S
C187 C188 1.336 . S
C188 C184 1.394 . S
C188 C187 1.336 . S
C188 H203 0.929 . S
C189 C179 1.386 . S
C189 C182 1.357 . S
C189 H202 0.928 . S
H190 C166 0.931 . S
H191 C168 0.930 . S
H192 C170 0.929 . S
H193 C171 0.931 . S
H194 C173 0.930 . S
H195 C177 0.931 . S
H196 C175 0.931 . S
H197 C179 0.931 . S
H198 C180 0.929 . S
H199 C181 0.930 . S
H200 C184 0.930 . S
H201 C185 0.931 . S
H202 C189 0.928 . S
H203 C188 0.929 . S
H204 C186 0.932 . S
C205 C206 1.386 . S
C205 C207 1.397 . S
C205 H229 0.931 . S
C206 C205 1.386 . S
C206 C210 1.397 . S
C207 C205 1.397 . S
C207 C208 1.384 . S
C207 H230 0.930 . S
C208 C207 1.384 . S
C208 C209 1.377 . S
C208 C211 1.481 . S
C209 C208 1.377 . S
C209 C210 1.389 . S
C209 H231 0.929 . S
C210 C206 1.397 . S
C210 C209 1.389 . S
C210 H232 0.931 . S
C211 C208 1.481 . S
C211 C212 1.387 . S
C211 C216 1.390 . S
C212 C211 1.387 . S
C212 C213 1.401 . S
C212 H233 0.930 . S
C213 C212 1.401 . S
C213 C214 1.376 . S
C213 C222 1.511 . S
C214 C213 1.376 . S
C214 C215 1.392 . S
C214 H235 0.931 . S
C215 C214 1.392 . S
C215 C216 1.361 . S
C215 C217 1.500 . S
C216 C211 1.390 . S
C216 C215 1.361 . S
C216 H234 0.931 . S
C217 C215 1.500 . S
C217 C218 1.371 . S
C217 C219 1.365 . S
C218 C217 1.371 . S
C218 C228 1.386 . S
C218 H236 0.931 . S
C219 C217 1.365 . S
C219 C220 1.409 . S
C219 H237 0.929 . S
C220 C219 1.409 . S
C220 C221 1.380 . S
C220 H238 0.930 . S
C221 C220 1.380 . S
C221 C228 1.357 . S
C222 C213 1.511 . S
C222 C223 1.341 . S
C222 C224 1.371 . S
C223 C222 1.341 . S
C223 C227 1.394 . S
C223 H239 0.930 . S
C224 C222 1.371 . S
C224 C225 1.392 . S
C224 H240 0.931 . S
C225 C224 1.392 . S
C225 C226 1.331 . S
C225 H243 0.932 . S
C226 C225 1.331 . S
C226 C227 1.336 . S
C227 C223 1.394 . S
C227 C226 1.336 . S
C227 H242 0.929 . S
C228 C218 1.386 . S
C228 C221 1.357 . S
C228 H241 0.928 . S
H229 C205 0.931 . S
H230 C207 0.930 . S
H231 C209 0.929 . S
H232 C210 0.931 . S
H233 C212 0.930 . S
H234 C216 0.931 . S
H235 C214 0.931 . S
H236 C218 0.931 . S
H237 C219 0.929 . S
H238 C220 0.930 . S
H239 C223 0.930 . S
H240 C224 0.931 . S
H241 C228 0.928 . S
H242 C227 0.929 . S
H243 C225 0.932 . S
C244 C245 1.386 . S
C244 C246 1.397 . S
C244 H268 0.931 . S
C245 C244 1.386 . S
C245 C249 1.397 . S
C246 C244 1.397 . S
C246 C247 1.384 . S
C246 H269 0.930 . S
C247 C246 1.384 . S
C247 C248 1.377 . S
C247 C250 1.481 . S
C248 C247 1.377 . S
C248 C249 1.389 . S
C248 H270 0.929 . S
C249 C245 1.397 . S
C249 C248 1.389 . S
C249 H271 0.931 . S
C250 C247 1.481 . S
C250 C251 1.387 . S
C250 C255 1.390 . S
C251 C250 1.387 . S
C251 C252 1.401 . S
C251 H272 0.930 . S
C252 C251 1.401 . S
C252 C253 1.376 . S
C252 C261 1.511 . S
C253 C252 1.376 . S
C253 C254 1.392 . S
C253 H274 0.931 . S
C254 C253 1.392 . S
C254 C255 1.361 . S
C254 C256 1.500 . S
C255 C250 1.390 . S
C255 C254 1.361 . S
C255 H273 0.931 . S
C256 C254 1.500 . S
C256 C257 1.371 . S
C256 C258 1.365 . S
C257 C256 1.371 . S
C257 C267 1.386 . S
C257 H275 0.931 . S
C258 C256 1.365 . S
C258 C259 1.409 . S
C258 H276 0.929 . S
C259 C258 1.409 . S
C259 C260 1.380 . S
C259 H277 0.930 . S
C260 C259 1.380 . S
C260 C267 1.357 . S
C261 C252 1.511 . S
C261 C262 1.341 . S
C261 C263 1.371 . S
C262 C261 1.341 . S
C262 C266 1.394 . S
C262 H278 0.930 . S
C263 C261 1.371 . S
C263 C264 1.392 . S
C263 H279 0.931 . S
C264 C263 1.392 . S
C264 C265 1.331 . S
C264 H282 0.932 . S
C265 C264 1.331 . S
C265 C266 1.336 . S
C266 C262 1.394 . S
C266 C265 1.336 . S
C266 H281 0.929 . S
C267 C257 1.386 . S
C267 C260 1.357 . S
C267 H280 0.928 . S
H268 C244 0.931 . S
H269 C246 0.930 . S
H270 C248 0.929 . S
H271 C249 0.931 . S
H272 C251 0.930 . S
H273 C255 0.931 . S
H274 C253 0.931 . S
H275 C257 0.931 . S
H276 C258 0.929 . S
H277 C259 0.930 . S
H278 C262 0.930 . S
H279 C263 0.931 . S
H280 C267 0.928 . S
H281 C266 0.929 . S
H282 C264 0.932 . S
C283 C284 1.386 . S
C283 C285 1.397 . S
C283 H307 0.931 . S
C284 C283 1.386 . S
C284 C288 1.397 1_556 S
C285 C283 1.397 . S
C285 C286 1.384 . S
C285 H308 0.930 . S
C286 C285 1.384 . S
C286 C287 1.377 . S
C286 C289 1.481 . S
C287 C286 1.377 . S
C287 C288 1.389 1_556 S
C287 H309 0.929 1_556 S
C288 C284 1.397 1_554 S
C288 C287 1.389 1_554 S
C288 H310 0.931 . S
C289 C286 1.481 . S
C289 C290 1.387 . S
C289 C294 1.390 . S
C290 C289 1.387 . S
C290 C291 1.401 . S
C290 H311 0.930 . S
C291 C290 1.401 . S
C291 C292 1.376 . S
C291 C300 1.511 . S
C292 C291 1.376 . S
C292 C293 1.392 . S
C292 H313 0.931 . S
C293 C292 1.392 . S
C293 C294 1.361 . S
C293 C295 1.500 . S
C294 C289 1.390 . S
C294 C293 1.361 . S
C294 H312 0.931 . S
C295 C293 1.500 . S
C295 C296 1.371 . S
C295 C297 1.365 . S
C296 C295 1.371 . S
C296 C306 1.386 . S
C296 H314 0.931 . S
C297 C295 1.365 . S
C297 C298 1.409 1_556 S
C297 H315 0.929 1_556 S
C298 C297 1.409 1_554 S
C298 C299 1.380 1_554 S
C298 H316 0.930 . S
C299 C298 1.380 1_556 S
C299 C306 1.357 . S
C300 C291 1.511 . S
C300 C301 1.341 . S
C300 C302 1.371 . S
C301 C300 1.341 . S
C301 C305 1.394 . S
C301 H317 0.930 . S
C302 C300 1.371 . S
C302 C303 1.392 . S
C302 H318 0.931 . S
C303 C302 1.392 . S
C303 C304 1.331 . S
C303 H321 0.932 . S
C304 C303 1.331 . S
C304 C305 1.336 . S
C305 C301 1.394 . S
C305 C304 1.336 . S
C305 H320 0.929 . S
C306 C296 1.386 . S
C306 C299 1.357 . S
C306 H319 0.928 . S
H307 C283 0.931 . S
H308 C285 0.930 . S
H309 C287 0.929 1_554 S
H310 C288 0.931 . S
H311 C290 0.930 . S
H312 C294 0.931 . S
H313 C292 0.931 . S
H314 C296 0.931 . S
H315 C297 0.929 1_554 S
H316 C298 0.930 . S
H317 C301 0.930 . S
H318 C302 0.931 . S
H319 C306 0.928 . S
H320 C305 0.929 . S
H321 C303 0.932 . S
C322 C323 1.386 . S
C322 C324 1.397 . S
C322 H346 0.931 . S
C323 C322 1.386 . S
C323 C327 1.397 . S
C324 C322 1.397 . S
C324 C325 1.384 . S
C324 H347 0.930 . S
C325 C324 1.384 . S
C325 C326 1.377 . S
C325 C328 1.481 . S
C326 C325 1.377 . S
C326 C327 1.389 . S
C326 H348 0.929 . S
C327 C323 1.397 . S
C327 C326 1.389 . S
C327 H349 0.931 . S
C328 C325 1.481 . S
C328 C329 1.387 . S
C328 C333 1.390 . S
C329 C328 1.387 . S
C329 C330 1.401 . S
C329 H350 0.930 . S
C330 C329 1.401 . S
C330 C331 1.376 . S
C330 C339 1.511 . S
C331 C330 1.376 . S
C331 C332 1.392 . S
C331 H352 0.931 . S
C332 C331 1.392 . S
C332 C333 1.361 . S
C332 C334 1.500 . S
C333 C328 1.390 . S
C333 C332 1.361 . S
C333 H351 0.931 . S
C334 C332 1.500 . S
C334 C335 1.371 . S
C334 C336 1.365 . S
C335 C334 1.371 . S
C335 C345 1.386 . S
C335 H353 0.931 . S
C336 C334 1.365 . S
C336 C337 1.409 . S
C336 H354 0.929 . S
C337 C336 1.409 . S
C337 C338 1.380 . S
C337 H355 0.930 . S
C338 C337 1.380 . S
C338 C345 1.357 . S
C339 C330 1.511 . S
C339 C340 1.341 . S
C339 C341 1.371 . S
C340 C339 1.341 . S
C340 C344 1.394 . S
C340 H356 0.930 . S
C341 C339 1.371 . S
C341 C342 1.392 . S
C341 H357 0.931 . S
C342 C341 1.392 . S
C342 C343 1.331 . S
C342 H360 0.932 . S
C343 C342 1.331 . S
C343 C344 1.336 . S
C344 C340 1.394 . S
C344 C343 1.336 . S
C344 H359 0.929 . S
C345 C335 1.386 . S
C345 C338 1.357 . S
C345 H358 0.928 . S
H346 C322 0.931 . S
H347 C324 0.930 . S
H348 C326 0.929 . S
H349 C327 0.931 . S
H350 C329 0.930 . S
H351 C333 0.931 . S
H352 C331 0.931 . S
H353 C335 0.931 . S
H354 C336 0.929 . S
H355 C337 0.930 . S
H356 C340 0.930 . S
H357 C341 0.931 . S
H358 C345 0.928 . S
H359 C344 0.929 . S
H360 C342 0.932 . S
C361 C362 1.386 . S
C361 C363 1.397 . S
C361 H385 0.931 . S
C362 C361 1.386 . S
C362 C366 1.397 . S
C363 C361 1.397 . S
C363 C364 1.384 1_455 S
C363 H386 0.930 . S
C364 C363 1.384 1_655 S
C364 C365 1.377 . S
C364 C367 1.481 . S
C365 C364 1.377 . S
C365 C366 1.389 1_655 S
C365 H387 0.929 . S
C366 C362 1.397 . S
C366 C365 1.389 1_455 S
C366 H388 0.931 . S
C367 C364 1.481 . S
C367 C368 1.387 . S
C367 C372 1.390 . S
C368 C367 1.387 . S
C368 C369 1.401 . S
C368 H389 0.930 . S
C369 C368 1.401 . S
C369 C370 1.376 . S
C369 C378 1.511 . S
C370 C369 1.376 . S
C370 C371 1.392 . S
C370 H391 0.931 . S
C371 C370 1.392 . S
C371 C372 1.361 . S
C371 C373 1.500 . S
C372 C367 1.390 . S
C372 C371 1.361 . S
C372 H390 0.931 . S
C373 C371 1.500 . S
C373 C374 1.371 . S
C373 C375 1.365 . S
C374 C373 1.371 . S
C374 C384 1.386 . S
C374 H392 0.931 . S
C375 C373 1.365 . S
C375 C376 1.409 . S
C375 H393 0.929 . S
C376 C375 1.409 . S
C376 C377 1.380 1_565 S
C376 H394 0.930 . S
C377 C376 1.380 1_545 S
C377 C384 1.357 1_545 S
C378 C369 1.511 . S
C378 C379 1.341 . S
C378 C380 1.371 . S
C379 C378 1.341 . S
C379 C383 1.394 . S
C379 H395 0.930 . S
C380 C378 1.371 . S
C380 C381 1.392 . S
C380 H396 0.931 . S
C381 C380 1.392 . S
C381 C382 1.331 . S
C381 H399 0.932 . S
C382 C381 1.331 . S
C382 C383 1.336 . S
C383 C379 1.394 . S
C383 C382 1.336 . S
C383 H398 0.929 . S
C384 C374 1.386 . S
C384 C377 1.357 1_565 S
C384 H397 0.928 1_565 S
H385 C361 0.931 . S
H386 C363 0.930 . S
H387 C365 0.929 . S
H388 C366 0.931 . S
H389 C368 0.930 . S
H390 C372 0.931 . S
H391 C370 0.931 . S
H392 C374 0.931 . S
H393 C375 0.929 . S
H394 C376 0.930 . S
H395 C379 0.930 . S
H396 C380 0.931 . S
H397 C384 0.928 1_545 S
H398 C383 0.929 . S
H399 C381 0.932 . S
C400 C401 1.363 . S
C400 C406 1.379 . S
C400 N408 1.356 . S
C401 C400 1.363 . S
C401 C407 1.363 . S
C402 C403 1.363 . S
C402 C407 1.379 . S
C402 N409 1.356 . S
C403 C402 1.363 . S
C403 C406 1.363 . S
N404 C406 1.356 . S
N404 H416 0.984 . S
N404 H417 0.985 . S
N405 C407 1.356 . S
N405 H410 0.984 . S
N405 H411 0.985 . S
C406 C400 1.379 . S
C406 C403 1.363 . S
C406 N404 1.356 . S
C407 C401 1.363 . S
C407 C402 1.379 . S
C407 N405 1.356 . S
N408 C400 1.356 . S
N408 H414 0.984 . S
N408 H415 0.984 . S
N409 C402 1.356 . S
N409 H412 0.984 . S
N409 H413 0.985 . S
H410 N405 0.984 . S
H411 N405 0.985 . S
H412 N409 0.984 . S
H413 N409 0.985 . S
H414 N408 0.984 . S
H415 N408 0.984 . S
H416 N404 0.984 . S
H417 N404 0.985 . S
C418 C419 1.363 . S
C418 C424 1.379 . S
C418 N426 1.356 . S
C419 C418 1.363 . S
C419 C425 1.363 . S
C420 C421 1.363 . S
C420 C425 1.379 . S
C420 N427 1.356 . S
C421 C420 1.363 . S
C421 C424 1.363 . S
N422 C424 1.356 . S
N422 H434 0.984 . S
N422 H435 0.985 . S
N423 C425 1.356 . S
N423 H428 0.984 . S
N423 H429 0.985 . S
C424 C418 1.379 . S
C424 C421 1.363 . S
C424 N422 1.356 . S
C425 C419 1.363 . S
C425 C420 1.379 . S
C425 N423 1.356 . S
N426 C418 1.356 . S
N426 H432 0.984 . S
N426 H433 0.984 . S
N427 C420 1.356 . S
N427 H430 0.984 . S
N427 H431 0.985 . S
H428 N423 0.984 . S
H429 N423 0.985 . S
H430 N427 0.984 . S
H431 N427 0.985 . S
H432 N426 0.984 . S
H433 N426 0.984 . S
H434 N422 0.984 . S
H435 N422 0.985 . S
C436 C437 1.363 . S
C436 C442 1.379 . S
C436 N444 1.374 . S
C437 C436 1.363 . S
C437 C443 1.363 . S
C438 C439 1.363 1_545 S
C438 C443 1.379 . S
C438 N445 1.356 . S
C439 C438 1.363 1_565 S
C439 C442 1.363 1_565 S
N440 C442 1.356 1_565 S
N440 H452 0.984 1_554 S
N440 H453 0.985 . S
N441 C443 1.356 . S
N441 H446 0.984 . S
N441 H447 0.985 . S
C442 C436 1.379 . S
C442 C439 1.363 1_545 S
C442 N440 1.356 1_545 S
C443 C437 1.363 . S
C443 C438 1.379 . S
C443 N441 1.356 . S
N444 C436 1.374 . S
N444 H450 0.965 1_554 S
N444 H451 0.986 . S
N445 C438 1.356 . S
N445 H448 0.984 1_545 S
N445 H449 0.985 . S
H446 N441 0.984 . S
H447 N441 0.985 . S
H448 N445 0.984 1_565 S
H449 N445 0.985 . S
H450 N444 0.965 1_556 S
H451 N444 0.986 . S
H452 N440 0.984 1_556 S
H453 N440 0.985 . S
C454 C455 1.363 . S
C454 C460 1.379 . S
C454 N462 1.356 . S
C455 C454 1.363 . S
C455 C461 1.363 . S
C456 C457 1.363 . S
C456 C461 1.379 . S
C456 N463 1.356 . S
C457 C456 1.363 . S
C457 C460 1.363 . S
N458 C460 1.356 . S
N458 H470 0.984 . S
N458 H471 0.985 . S
N459 C461 1.356 . S
N459 H464 0.984 . S
N459 H465 0.985 . S
C460 C454 1.379 . S
C460 C457 1.363 . S
C460 N458 1.356 . S
C461 C455 1.363 . S
C461 C456 1.379 . S
C461 N459 1.356 . S
N462 C454 1.356 . S
N462 H468 0.984 . S
N462 H469 0.984 . S
N463 C456 1.356 . S
N463 H466 0.984 . S
N463 H467 0.985 . S
H464 N459 0.984 . S
H465 N459 0.985 . S
H466 N463 0.984 . S
H467 N463 0.985 . S
H468 N462 0.984 . S
H469 N462 0.984 . S
H470 N458 0.984 . S
H471 N458 0.985 . S
C472 C473 1.363 . S
C472 C478 1.379 . S
C472 N480 1.356 . S
C473 C472 1.363 . S
C473 C479 1.363 . S
C474 C475 1.363 . S
C474 C479 1.379 . S
C474 N481 1.356 . S
C475 C474 1.363 . S
C475 C478 1.363 . S
N476 C478 1.356 . S
N476 H488 0.984 . S
N476 H489 0.985 . S
N477 C479 1.356 . S
N477 H482 0.984 . S
N477 H483 0.985 . S
C478 C472 1.379 . S
C478 C475 1.363 . S
C478 N476 1.356 . S
C479 C473 1.363 . S
C479 C474 1.379 . S
C479 N477 1.356 . S
N480 C472 1.356 . S
N480 H486 0.984 . S
N480 H487 0.984 . S
N481 C474 1.356 . S
N481 H484 0.984 . S
N481 H485 0.985 . S
H482 N477 0.984 . S
H483 N477 0.985 . S
H484 N481 0.984 . S
H485 N481 0.985 . S
H486 N480 0.984 . S
H487 N480 0.984 . S
H488 N476 0.984 . S
H489 N476 0.985 . S
C490 C491 1.363 . S
C490 C496 1.379 1_655 S
C490 N498 1.356 . S
C491 C490 1.363 . S
C491 C497 1.363 1_556 S
C492 C493 1.363 1_554 S
C492 C497 1.379 1_455 S
C492 N499 1.356 . S
C493 C492 1.363 1_556 S
C493 C496 1.363 . S
N494 C496 1.356 . S
N494 H506 0.984 . S
N494 H507 0.985 . S
N495 C497 1.356 . S
N495 H500 0.984 . S
N495 H501 0.985 . S
C496 C490 1.379 1_455 S
C496 C493 1.363 . S
C496 N494 1.356 . S
C497 C491 1.363 1_554 S
C497 C492 1.379 1_655 S
C497 N495 1.356 . S
N498 C490 1.356 . S
N498 H504 0.984 . S
N498 H505 0.984 . S
N499 C492 1.356 . S
N499 H502 0.984 . S
N499 H503 0.985 . S
H500 N495 0.984 . S
H501 N495 0.985 . S
H502 N499 0.984 . S
H503 N499 0.985 . S
H504 N498 0.984 . S
H505 N498 0.984 . S
H506 N494 0.984 . S
H507 N494 0.985 . S
C508 C509 1.363 . S
C508 C514 1.379 . S
C508 N516 1.356 . S
C509 C508 1.363 . S
C509 C515 1.363 . S
C510 C511 1.363 . S
C510 C515 1.379 . S
C510 N517 1.356 . S
C511 C510 1.363 . S
C511 C514 1.363 . S
N512 C514 1.356 . S
N512 H524 0.984 . S
N512 H525 0.985 . S
N513 C515 1.356 . S
N513 H518 0.984 . S
N513 H519 0.985 . S
C514 C508 1.379 . S
C514 C511 1.363 . S
C514 N512 1.356 . S
C515 C509 1.363 . S
C515 C510 1.379 . S
C515 N513 1.356 . S
N516 C508 1.356 . S
N516 H522 0.984 . S
N516 H523 0.984 . S
N517 C510 1.356 . S
N517 H520 0.984 . S
N517 H521 0.985 . S
H518 N513 0.984 . S
H519 N513 0.985 . S
H520 N517 0.984 . S
H521 N517 0.985 . S
H522 N516 0.984 . S
H523 N516 0.984 . S
H524 N512 0.984 . S
H525 N512 0.985 . S
C526 C527 1.363 . S
C526 C532 1.379 . S
C526 N534 1.356 . S
C527 C526 1.363 . S
C527 C533 1.363 . S
C528 C529 1.363 . S
C528 C533 1.379 . S
C528 N535 1.356 . S
C529 C528 1.363 . S
C529 C532 1.363 . S
N530 C532 1.356 . S
N530 H542 0.984 . S
N530 H543 0.985 . S
N531 C533 1.356 . S
N531 H536 0.984 . S
N531 H537 0.985 . S
C532 C526 1.379 . S
C532 C529 1.363 . S
C532 N530 1.356 . S
C533 C527 1.363 . S
C533 C528 1.379 . S
C533 N531 1.356 . S
N534 C526 1.356 . S
N534 H540 0.984 . S
N534 H541 0.984 . S
N535 C528 1.356 . S
N535 H538 0.984 . S
N535 H539 0.985 . S
H536 N531 0.984 . S
H537 N531 0.985 . S
H538 N535 0.984 . S
H539 N535 0.985 . S
H540 N534 0.984 . S
H541 N534 0.984 . S
H542 N530 0.984 . S
H543 N530 0.985 . S
C544 C545 1.363 . S
C544 C550 1.379 . S
C544 N552 1.356 . S
C545 C544 1.363 . S
C545 C551 1.363 . S
C546 C547 1.363 . S
C546 C551 1.379 . S
C546 N553 1.356 1_545 S
C547 C546 1.363 . S
C547 C550 1.363 . S
N548 C550 1.356 . S
N548 H560 0.984 . S
N548 H561 0.985 . S
N549 C551 1.356 . S
N549 H554 0.984 . S
N549 H555 0.985 . S
C550 C544 1.379 . S
C550 C547 1.363 . S
C550 N548 1.356 . S
C551 C545 1.363 . S
C551 C546 1.379 . S
C551 N549 1.356 . S
N552 C544 1.356 . S
N552 H558 0.984 . S
N552 H559 0.984 . S
N553 C546 1.356 1_565 S
N553 H556 0.984 . S
N553 H557 0.985 . S
H554 N549 0.984 . S
H555 N549 0.985 . S
H556 N553 0.984 . S
H557 N553 0.985 . S
H558 N552 0.984 . S
H559 N552 0.984 . S
H560 N548 0.984 . S
H561 N548 0.985 . S
C562 C563 1.363 . S
C562 C568 1.379 . S
C562 N570 1.356 . S
C563 C562 1.363 . S
C563 C569 1.363 . S
C564 C565 1.363 . S
C564 C569 1.379 . S
C564 N571 1.356 . S
C565 C564 1.363 . S
C565 C568 1.363 . S
N566 C568 1.356 . S
N566 H578 0.984 . S
N566 H579 0.985 . S
N567 C569 1.356 . S
N567 H572 0.984 . S
N567 H573 0.985 . S
C568 C562 1.379 . S
C568 C565 1.363 . S
C568 N566 1.356 . S
C569 C563 1.363 . S
C569 C564 1.379 . S
C569 N567 1.356 . S
N570 C562 1.356 . S
N570 H576 0.984 . S
N570 H577 0.984 . S
N571 C564 1.356 . S
N571 H574 0.984 . S
N571 H575 0.985 . S
H572 N567 0.984 . S
H573 N567 0.985 . S
H574 N571 0.984 . S
H575 N571 0.985 . S
H576 N570 0.984 . S
H577 N570 0.984 . S
H578 N566 0.984 . S
H579 N566 0.985 . S
C580 C581 1.363 . S
C580 C586 1.379 1_565 S
C580 N588 1.356 . S
C581 C580 1.363 . S
C581 C587 1.363 1_554 S
C582 C583 1.358 1_566 S
C582 C587 1.379 . S
C582 N589 1.356 . S
C583 C582 1.358 1_544 S
C583 C586 1.372 . S
N584 C586 1.356 . S
N584 H596 0.984 . S
N584 H597 0.985 . S
N585 C587 1.356 . S
N585 H590 0.984 . S
N585 H591 0.985 . S
C586 C580 1.379 1_545 S
C586 C583 1.372 . S
C586 N584 1.356 . S
C587 C581 1.363 1_556 S
C587 C582 1.379 . S
C587 N585 1.356 . S
N588 C580 1.356 . S
N588 H594 0.984 . S
N588 H595 0.984 . S
N589 C582 1.356 . S
N589 H592 0.984 . S
N589 H593 0.985 . S
H590 N585 0.984 . S
H591 N585 0.985 . S
H592 N589 0.984 . S
H593 N589 0.985 . S
H594 N588 0.984 . S
H595 N588 0.984 . S
H596 N584 0.984 . S
H597 N584 0.985 . S
C598 C599 1.363 . S
C598 C604 1.379 . S
C598 N606 1.356 . S
C599 C598 1.363 . S
C599 C605 1.363 . S
C600 C601 1.363 . S
C600 C605 1.379 . S
C600 N607 1.356 . S
C601 C600 1.363 . S
C601 C604 1.363 . S
N602 C604 1.356 . S
N602 H614 0.984 . S
N602 H615 0.985 . S
N603 C605 1.356 . S
N603 H608 0.984 . S
N603 H609 0.985 . S
C604 C598 1.379 . S
C604 C601 1.363 . S
C604 N602 1.356 . S
C605 C599 1.363 . S
C605 C600 1.379 . S
C605 N603 1.356 . S
N606 C598 1.356 . S
N606 H612 0.984 . S
N606 H613 0.984 . S
N607 C600 1.356 . S
N607 H610 0.984 . S
N607 H611 0.985 . S
H608 N603 0.984 . S
H609 N603 0.985 . S
H610 N607 0.984 . S
H611 N607 0.985 . S
H612 N606 0.984 . S
H613 N606 0.984 . S
H614 N602 0.984 . S
H615 N602 0.985 . S
C616 C617 1.363 . S
C616 C622 1.379 . S
C616 N624 1.356 . S
C617 C616 1.363 . S
C617 C623 1.363 . S
C618 C619 1.363 . S
C618 C623 1.379 . S
C618 N625 1.356 . S
C619 C618 1.363 . S
C619 C622 1.363 . S
N620 C622 1.356 . S
N620 H632 0.984 . S
N620 H633 0.985 . S
N621 C623 1.356 . S
N621 H626 0.984 . S
N621 H627 0.985 . S
C622 C616 1.379 . S
C622 C619 1.363 . S
C622 N620 1.356 . S
C623 C617 1.363 . S
C623 C618 1.379 . S
C623 N621 1.356 . S
N624 C616 1.356 . S
N624 H630 0.984 . S
N624 H631 0.984 . S
N625 C618 1.356 . S
N625 H628 0.984 . S
N625 H629 0.985 . S
H626 N621 0.984 . S
H627 N621 0.985 . S
H628 N625 0.984 . S
H629 N625 0.985 . S
H630 N624 0.984 . S
H631 N624 0.984 . S
H632 N620 0.984 . S
H633 N620 0.985 . S
C634 C635 1.363 . S
C634 C640 1.379 1_455 S
C634 N642 1.356 . S
C635 C634 1.363 . S
C635 C641 1.363 . S
C636 C637 1.363 . S
C636 C641 1.379 1_655 S
C636 N643 1.356 . S
C637 C636 1.363 . S
C637 C640 1.363 . S
N638 C640 1.356 . S
N638 H650 0.984 . S
N638 H651 0.985 . S
N639 C641 1.356 . S
N639 H644 0.984 . S
N639 H645 0.985 . S
C640 C634 1.379 1_655 S
C640 C637 1.363 . S
C640 N638 1.356 . S
C641 C635 1.363 . S
C641 C636 1.379 1_455 S
C641 N639 1.356 . S
N642 C634 1.356 . S
N642 H648 0.984 . S
N642 H649 0.984 . S
N643 C636 1.356 . S
N643 H646 0.984 . S
N643 H647 0.985 . S
H644 N639 0.984 . S
H645 N639 0.985 . S
H646 N643 0.984 . S
H647 N643 0.985 . S
H648 N642 0.984 . S
H649 N642 0.984 . S
H650 N638 0.984 . S
H651 N638 0.985 . S
C652 C653 1.363 . S
C652 C658 1.379 . S
C652 N660 1.356 . S
C653 C652 1.363 . S
C653 C659 1.363 . S
C654 C655 1.363 . S
C654 C659 1.379 . S
C654 N661 1.356 . S
C655 C654 1.363 . S
C655 C658 1.363 . S
N656 C658 1.356 . S
N656 H668 0.984 . S
N656 H669 0.985 . S
N657 C659 1.356 . S
N657 H662 0.984 . S
N657 H663 0.985 . S
C658 C652 1.379 . S
C658 C655 1.363 . S
C658 N656 1.356 . S
C659 C653 1.363 . S
C659 C654 1.379 . S
C659 N657 1.356 . S
N660 C652 1.356 . S
N660 H666 0.984 . S
N660 H667 0.984 . S
N661 C654 1.356 . S
N661 H664 0.984 . S
N661 H665 0.985 . S
H662 N657 0.984 . S
H663 N657 0.985 . S
H664 N661 0.984 . S
H665 N661 0.985 . S
H666 N660 0.984 . S
H667 N660 0.984 . S
H668 N656 0.984 . S
H669 N656 0.985 . S
C670 C671 1.363 . S
C670 C676 1.379 . S
C670 N678 1.356 . S
C671 C670 1.363 . S
C671 C677 1.363 . S
C672 C673 1.363 . S
C672 C677 1.379 . S
C672 N679 1.356 . S
C673 C672 1.363 . S
C673 C676 1.363 . S
N674 C676 1.356 . S
N674 H686 0.984 . S
N674 H687 0.985 . S
N675 C677 1.356 . S
N675 H680 0.984 . S
N675 H681 0.985 . S
C676 C670 1.379 . S
C676 C673 1.363 . S
C676 N674 1.356 . S
C677 C671 1.363 . S
C677 C672 1.379 . S
C677 N675 1.356 . S
N678 C670 1.356 . S
N678 H684 0.984 . S
N678 H685 0.984 . S
N679 C672 1.356 . S
N679 H682 0.984 . S
N679 H683 0.985 . S
H680 N675 0.984 . S
H681 N675 0.985 . S
H682 N679 0.984 . S
H683 N679 0.985 . S
H684 N678 0.984 . S
H685 N678 0.984 . S
H686 N674 0.984 . S
H687 N674 0.985 . S
C688 C689 1.363 . S
C688 C694 1.379 . S
C688 N696 1.356 . S
C689 C688 1.363 . S
C689 C695 1.363 . S
C690 C691 1.363 . S
C690 C695 1.379 . S
C690 N697 1.356 . S
C691 C690 1.363 . S
C691 C694 1.363 . S
N692 C694 1.356 . S
N692 H704 0.984 . S
N692 H705 0.985 . S
N693 C695 1.356 . S
N693 H698 0.984 . S
N693 H699 0.985 . S
C694 C688 1.379 . S
C694 C691 1.363 . S
C694 N692 1.356 . S
C695 C689 1.363 . S
C695 C690 1.379 . S
C695 N693 1.356 . S
N696 C688 1.356 . S
N696 H702 0.984 . S
N696 H703 0.984 . S
N697 C690 1.356 . S
N697 H700 0.984 . S
N697 H701 0.985 . S
H698 N693 0.984 . S
H699 N693 0.985 . S
H700 N697 0.984 . S
H701 N697 0.985 . S
H702 N696 0.984 . S
H703 N696 0.984 . S
H704 N692 0.984 . S
H705 N692 0.985 . S
C706 C707 1.363 . S
C706 C712 1.379 . S
C706 N714 1.356 . S
C707 C706 1.363 . S
C707 C713 1.363 . S
C708 C709 1.363 . S
C708 C713 1.379 . S
C708 N715 1.356 . S
C709 C708 1.363 . S
C709 C712 1.363 . S
N710 C712 1.356 . S
N710 H722 0.984 . S
N710 H723 0.985 . S
N711 C713 1.356 . S
N711 H716 0.984 . S
N711 H717 0.985 . S
C712 C706 1.379 . S
C712 C709 1.363 . S
C712 N710 1.356 . S
C713 C707 1.363 . S
C713 C708 1.379 . S
C713 N711 1.356 . S
N714 C706 1.356 . S
N714 H720 0.984 . S
N714 H721 0.984 . S
N715 C708 1.356 . S
N715 H718 0.984 . S
N715 H719 0.985 . S
H716 N711 0.984 . S
H717 N711 0.985 . S
H718 N715 0.984 . S
H719 N715 0.985 . S
H720 N714 0.984 . S
H721 N714 0.984 . S
H722 N710 0.984 . S
H723 N710 0.985 . S
C724 C725 1.363 . S
C724 C730 1.379 . S
C724 N732 1.356 . S
C725 C724 1.363 . S
C725 C731 1.363 . S
C726 C727 1.363 . S
C726 C731 1.379 . S
C726 N733 1.356 . S
C727 C726 1.363 . S
C727 C730 1.363 . S
N728 C730 1.356 . S
N728 H740 0.984 . S
N728 H741 0.985 . S
N729 C731 1.356 . S
N729 H734 0.984 . S
N729 H735 0.985 . S
C730 C724 1.379 . S
C730 C727 1.363 . S
C730 N728 1.356 . S
C731 C725 1.363 . S
C731 C726 1.379 . S
C731 N729 1.356 . S
N732 C724 1.356 . S
N732 H738 0.984 . S
N732 H739 0.984 . S
N733 C726 1.356 . S
N733 H736 0.984 . S
N733 H737 0.985 . S
H734 N729 0.984 . S
H735 N729 0.985 . S
H736 N733 0.984 . S
H737 N733 0.985 . S
H738 N732 0.984 . S
H739 N732 0.984 . S
H740 N728 0.984 . S
H741 N728 0.985 . S
C742 C743 1.363 . S
C742 C748 1.379 . S
C742 N750 1.356 . S
C743 C742 1.363 . S
C743 C749 1.363 . S
C744 C745 1.363 . S
C744 C749 1.379 . S
C744 N751 1.356 . S
C745 C744 1.363 . S
C745 C748 1.363 . S
N746 C748 1.356 . S
N746 H758 0.984 . S
N746 H759 0.985 . S
N747 C749 1.356 . S
N747 H752 0.984 . S
N747 H753 0.985 . S
C748 C742 1.379 . S
C748 C745 1.363 . S
C748 N746 1.356 . S
C749 C743 1.363 . S
C749 C744 1.379 . S
C749 N747 1.356 . S
N750 C742 1.356 . S
N750 H756 0.984 . S
N750 H757 0.984 . S
N751 C744 1.356 . S
N751 H754 0.984 . S
N751 H755 0.985 . S
H752 N747 0.984 . S
H753 N747 0.985 . S
H754 N751 0.984 . S
H755 N751 0.985 . S
H756 N750 0.984 . S
H757 N750 0.984 . S
H758 N746 0.984 . S
H759 N746 0.985 . S
C760 C761 1.363 . S
C760 C766 1.379 . S
C760 N768 1.356 . S
C761 C760 1.363 . S
C761 C767 1.363 . S
C762 C763 1.363 . S
C762 C767 1.379 . S
C762 N769 1.356 . S
C763 C762 1.363 . S
C763 C766 1.363 . S
N764 C766 1.356 . S
N764 H776 0.984 . S
N764 H777 0.985 . S
N765 C767 1.356 . S
N765 H770 0.984 . S
N765 H771 0.985 . S
C766 C760 1.379 . S
C766 C763 1.363 . S
C766 N764 1.356 . S
C767 C761 1.363 . S
C767 C762 1.379 . S
C767 N765 1.356 . S
N768 C760 1.356 . S
N768 H774 0.984 . S
N768 H775 0.984 . S
N769 C762 1.356 . S
N769 H772 0.984 . S
N769 H773 0.985 . S
H770 N765 0.984 . S
H771 N765 0.985 . S
H772 N769 0.984 . S
H773 N769 0.985 . S
H774 N768 0.984 . S
H775 N768 0.984 . S
H776 N764 0.984 . S
H777 N764 0.985 . S
C778 C779 1.363 . S
C778 C784 1.379 . S
C778 N786 1.356 . S
C779 C778 1.363 . S
C779 C785 1.363 . S
C780 C781 1.363 . S
C780 C785 1.379 . S
C780 N787 1.356 . S
C781 C780 1.363 . S
C781 C784 1.363 . S
N782 C784 1.356 . S
N782 H794 0.984 . S
N782 H795 0.985 . S
N783 C785 1.356 . S
N783 H788 0.984 . S
N783 H789 0.985 . S
C784 C778 1.379 . S
C784 C781 1.363 . S
C784 N782 1.356 . S
C785 C779 1.363 . S
C785 C780 1.379 . S
C785 N783 1.356 . S
N786 C778 1.356 . S
N786 H792 0.984 . S
N786 H793 0.984 . S
N787 C780 1.356 . S
N787 H790 0.984 . S
N787 H791 0.985 . S
H788 N783 0.984 . S
H789 N783 0.985 . S
H790 N787 0.984 . S
H791 N787 0.985 . S
H792 N786 0.984 . S
H793 N786 0.984 . S
H794 N782 0.984 . S
H795 N782 0.985 . S
C796 C797 1.363 . S
C796 C802 1.379 . S
C796 N804 1.356 . S
C797 C796 1.363 . S
C797 C803 1.363 . S
C798 C799 1.363 . S
C798 C803 1.379 . S
C798 N805 1.356 . S
C799 C798 1.363 . S
C799 C802 1.363 . S
N800 C802 1.356 . S
N800 H812 0.984 . S
N800 H813 0.985 . S
N801 C803 1.356 . S
N801 H806 0.984 . S
N801 H807 0.985 . S
C802 C796 1.379 . S
C802 C799 1.363 . S
C802 N800 1.356 . S
C803 C797 1.363 . S
C803 C798 1.379 . S
C803 N801 1.356 . S
N804 C796 1.356 . S
N804 H810 0.984 . S
N804 H811 0.984 . S
N805 C798 1.356 . S
N805 H808 0.984 . S
N805 H809 0.985 . S
H806 N801 0.984 . S
H807 N801 0.985 . S
H808 N805 0.984 . S
H809 N805 0.985 . S
H810 N804 0.984 . S
H811 N804 0.984 . S
H812 N800 0.984 . S
H813 N800 0.985 . S
C814 C815 1.363 . S
C814 C820 1.379 . S
C814 N822 1.356 . S
C815 C814 1.363 . S
C815 C821 1.363 1_554 S
C816 C817 1.363 . S
C816 C821 1.379 . S
C816 N823 1.356 . S
C817 C816 1.363 . S
C817 C820 1.363 1_556 S
N818 C820 1.356 . S
N818 H830 0.984 . S
N818 H831 0.985 . S
N819 C821 1.356 . S
N819 H824 0.984 . S
N819 H825 0.985 . S
C820 C814 1.379 . S
C820 C817 1.363 1_554 S
C820 N818 1.356 . S
C821 C815 1.363 1_556 S
C821 C816 1.379 . S
C821 N819 1.356 . S
N822 C814 1.356 . S
N822 H828 0.984 . S
N822 H829 0.984 . S
N823 C816 1.356 . S
N823 H826 0.984 . S
N823 H827 0.985 . S
H824 N819 0.984 . S
H825 N819 0.985 . S
H826 N823 0.984 . S
H827 N823 0.985 . S
H828 N822 0.984 . S
H829 N822 0.984 . S
H830 N818 0.984 . S
H831 N818 0.985 . S
C401 C7 1.741 . S
C403 C104 1.617 . S
C419 C37 1.777 . S
C421 C143 1.585 . S
C437 C54 1.918 . S
C439 C182 1.722 . S
C457 C206 1.568 . S
C455 C87 1.612 . S
C475 C245 1.581 . S
C473 C30 1.687 . S
C491 C51 1.643 . S
C493 C284 1.593 . S
C509 C84 1.970 . S
C511 C338 1.764 . S
C527 C10 1.725 . S
C529 C362 1.551 . S
C545 C59 1.744 . S
C547 C377 1.621 . S
C565 C260 1.544 . S
C563 C74 1.735 . S
C583 C299 1.762 1_554 S
C581 C18 1.968 . S
C599 C32 1.628 . S
C601 C323 1.563 . S
C619 C128 1.620 . S
C617 C73 1.746 . S
C635 C15 1.628 . S
C637 C167 1.586 . S
C655 C221 1.793 . S
C653 C43 1.976 . S
C673 C89 1.547 . S
C671 C62 1.731 . S
C691 C343 1.658 . S
C689 C21 1.752 . S
C709 C382 1.449 . S
C707 C29 1.473 . S
C725 C52 1.459 . S
C727 C265 1.414 . S
C745 C304 1.617 . S
C743 C81 1.728 . S
C763 C187 1.628 . S
C761 C40 1.690 . S
C779 C65 1.711 . S
C781 C226 1.602 . S
C799 C109 1.402 . S
C797 C76 1.469 . S
C817 C148 1.437 . S
C815 C8 1.496 . S
