# Generated by pormake.
# Topology tsx, (6,3)-cn, num edge types: 1
# Building blocks:
#     Node 0, Type 0, BuildingBlock: JUFBIX_clean_sbu_0, # of connection points: 6
#     Node 1, Type 0, BuildingBlock: JUFBIX_clean_sbu_0, # of connection points: 6
#     Node 2, Type 1, BuildingBlock: CUQRIR_clean_linker_1, # of connection points: 3
#     Node 3, Type 1, BuildingBlock: CUQRIR_clean_linker_1, # of connection points: 3
#     Node 4, Type 1, BuildingBlock: CUQRIR_clean_linker_1, # of connection points: 3
#     Node 5, Type 1, BuildingBlock: CUQRIR_clean_linker_1, # of connection points: 3
#     Edge 6, Type (0, 1), BuildingBlock: XUDNAN_clean_linker_2, # of connection points: 2
#     Edge 7, Type (0, 1), BuildingBlock: XUDNAN_clean_linker_2, # of connection points: 2
#     Edge 8, Type (0, 1), BuildingBlock: XUDNAN_clean_linker_2, # of connection points: 2
#     Edge 9, Type (0, 1), BuildingBlock: XUDNAN_clean_linker_2, # of connection points: 2
#     Edge 10, Type (0, 1), BuildingBlock: XUDNAN_clean_linker_2, # of connection points: 2
#     Edge 11, Type (0, 1), BuildingBlock: XUDNAN_clean_linker_2, # of connection points: 2
#     Edge 12, Type (0, 1), BuildingBlock: XUDNAN_clean_linker_2, # of connection points: 2
#     Edge 13, Type (0, 1), BuildingBlock: XUDNAN_clean_linker_2, # of connection points: 2
#     Edge 14, Type (0, 1), BuildingBlock: XUDNAN_clean_linker_2, # of connection points: 2
#     Edge 15, Type (0, 1), BuildingBlock: XUDNAN_clean_linker_2, # of connection points: 2
#     Edge 16, Type (0, 1), BuildingBlock: XUDNAN_clean_linker_2, # of connection points: 2
#     Edge 17, Type (0, 1), BuildingBlock: XUDNAN_clean_linker_2, # of connection points: 2
# Relax obj value: 0.138
# Max RMSD: 0.160
# Mean RMSD: 0.147
data_MOF--net-tsx--node1-JUFBIX_clean_sbu_0--node2-CUQRIR_clean_linker_1--edge1-XUDNAN_clean_linker_2
_symmetry_space_group_name_H-M    P1
_symmetry_Int_Tables_number       1
_symmetry_cell_setting            triclinic
loop_
_symmetry_equiv_pos_as_xyz
'x, y, z'
_cell_length_a     18.5474
_cell_length_b     21.685914
_cell_length_c     31.539533
_cell_angle_alpha  81.104083
_cell_angle_beta   91.10227
_cell_angle_gamma 100.23543
loop_
_atom_site_label
_atom_site_type_symbol
_atom_site_fract_x
_atom_site_fract_y
_atom_site_fract_z
_atom_type_partial_charge
Co0 Co 0.12005 0.06433 -0.0026 0.0
C1 C 0.07696 0.10563 0.91456 0.0
Co2 Co 0.04962 0.13832 -0.00654 0.0
C3 C 0.17678 0.95284 0.97994 0.0
C4 C 0.24159 1.00392 0.02438 0.0
N5 N 0.18058 1.00376 0.0004 0.0
N6 N 0.23336 0.92156 -0.00987 0.0
C7 C 0.27397 0.95375 0.01818 0.0
H8 H 0.13409 0.93979 0.95744 0.0
H9 H 0.26153 0.03863 0.04501 0.0
C10 C 0.09497 0.09733 0.07575 0.0
N11 N 0.99085 0.20137 -0.00831 0.0
C12 C 0.92403 0.20684 0.97458 0.0
C13 C 1.0106 0.25408 0.00997 0.0
N14 N 0.90218 0.26124 0.98127 0.0
C15 C 0.95692 0.29064 0.0036 0.0
C16 C 0.97162 1.01348 0.00631 0.0
O17 O 0.12487 0.0602 0.05743 0.0
O18 O 0.05879 0.13554 0.05393 0.0
O19 O 0.96462 0.07172 0.00204 0.0
O20 O 0.03535 0.9999 0.00415 0.0
O21 O 0.04243 0.14047 0.93268 0.0
H22 H 0.06084 0.26506 0.02743 0.0
H23 H 0.89236 0.17183 0.95741 0.0
O24 O 0.11444 0.06929 0.93729 0.0
O25 O 0.20451 0.12941 -0.00862 0.0
O26 O 0.13618 0.20281 0.98592 0.0
C27 C 0.19954 0.18765 -0.0124 0.0
H28 H 0.32326 0.94158 0.03362 0.0
H29 H 0.95756 0.33493 0.01552 0.0
Co30 Co 0.5403 0.47891 0.49437 0.0
C31 C 0.49544 0.54873 0.41963 0.0
Co32 Co 0.45213 0.53253 0.50378 0.0
C33 C 0.61975 0.37414 0.49628 0.0
C34 C 0.67017 0.45877 0.45564 0.0
N35 N 0.61381 0.43547 0.48334 0.0
N36 N 0.67686 0.35846 0.47708 0.0
C37 C 0.70861 0.41139 0.45148 0.0
H38 H 0.58117 0.34098 0.51775 0.0
H39 H 0.68106 0.50665 0.43838 0.0
C40 C 0.49961 0.4639 0.57807 0.0
N41 N 0.37808 0.57704 0.5128 0.0
C42 C 0.37128 0.63597 0.49364 0.0
C43 C 0.31577 0.55539 0.53585 0.0
N44 N 0.30682 0.65162 0.50326 0.0
C45 C 0.27178 0.60099 0.52992 0.0
C46 C 0.39933 0.40853 0.49114 0.0
O47 O 0.54372 0.44892 0.55283 0.0
O48 O 0.45466 0.50002 0.5635 0.0
O49 O 0.38077 0.46072 0.49598 0.0
O50 O 0.46708 0.40606 0.488 0.0
O51 O 0.4509 0.56415 0.44436 0.0
H52 H 0.30219 0.50866 0.55463 0.0
H53 H 0.41151 0.66571 0.47145 0.0
O54 O 0.53713 0.51046 0.43497 0.0
O55 O 0.61228 0.55139 0.50254 0.0
O56 O 0.52448 0.60387 0.5121 0.0
C57 C 0.59247 0.60168 0.51061 0.0
H58 H 0.75553 0.41506 0.43074 0.0
H59 H 0.21789 0.5969 0.54379 0.0
C60 C 0.96801 0.99109 0.4282 0.0
N61 N 0.02954 0.99036 0.40558 0.0
N62 N 0.94751 0.04865 0.4195 0.0
C63 C 0.92032 0.93358 0.45233 0.0
C64 C 0.99746 0.08244 0.39025 0.0
N65 N 0.0464 0.04679 0.38121 0.0
C66 C 0.99798 0.15019 0.36975 0.0
H67 H 0.89723 0.90169 0.42925 0.0
H68 H 0.87378 0.94649 0.46829 0.0
H69 H 0.95193 0.90676 0.4762 0.0
H70 H 0.96334 0.17457 0.38731 0.0
H71 H 0.9787 0.15096 0.33617 0.0
H72 H 0.05418 0.17795 0.3691 0.0
C73 C 0.05457 0.95639 0.56939 0.0
N74 N 0.08468 1.00205 0.59243 0.0
N75 N 1.00355 0.91185 0.59265 0.0
C76 C 0.07236 0.95766 0.52322 0.0
C77 C 1.00486 0.93215 0.63121 0.0
N78 N 0.05361 0.98655 0.63101 0.0
C79 C 0.95067 0.90411 0.66688 0.0
H80 H 0.04185 0.99095 0.50343 0.0
H81 H 0.05789 0.90951 0.51434 0.0
H82 H 0.13167 0.97568 0.51709 0.0
H83 H 0.97669 0.90787 0.69857 0.0
H84 H 0.92827 0.85366 0.66493 0.0
H85 H 0.9048 0.93108 0.6641 0.0
C86 C 0.48141 0.54276 0.92563 0.0
N87 N 0.50344 0.49868 0.90513 0.0
N88 N 0.43244 0.57249 0.90187 0.0
C89 C 0.5076 0.55729 0.96844 0.0
C90 C 0.42694 0.54634 0.86545 0.0
N91 N 0.46942 0.50102 0.86759 0.0
C92 C 0.38774 0.5714 0.82594 0.0
H93 H 0.46215 0.56643 -0.01244 0.0
H94 H 0.55034 0.60055 0.96391 0.0
H95 H 0.53159 0.51757 0.98506 0.0
H96 H 0.38017 0.62085 0.82661 0.0
H97 H 0.3329 0.54146 0.82456 0.0
H98 H 0.41881 0.57046 0.79641 0.0
C99 C 0.61257 0.56988 0.06818 0.0
N100 N 0.61963 0.61882 0.09106 0.0
N101 N 0.55703 0.52244 0.08433 0.0
C102 C 0.66009 0.56918 0.03032 0.0
C103 C 0.53184 0.54423 0.11805 0.0
N104 N 0.56874 0.60266 0.12168 0.0
C105 C 0.47312 0.50699 0.14895 0.0
H106 H 0.66066 0.61298 0.00682 0.0
H107 H 0.64275 0.52692 0.01461 0.0
H108 H 0.7171 0.56884 0.04141 0.0
H109 H 0.46348 0.45576 0.14631 0.0
H110 H 0.42144 0.52553 0.14188 0.0
H111 H 0.48844 0.51277 0.18248 0.0
H112 H 0.20743 0.31122 7e-05 0.0
H113 H 0.34298 0.17184 0.98583 0.0
H114 H 0.45248 0.2456 0.0042 0.0
H115 H 0.3465 0.45357 0.95946 0.0
H116 H 0.31924 0.4991 -0.00238 0.0
H117 H 0.25266 0.43956 0.97755 0.0
H118 H 0.21901 0.38393 0.05496 0.0
H119 H 0.28467 0.44295 0.0759 0.0
H120 H 0.29008 0.36016 0.09028 0.0
H121 H 0.54631 0.33165 0.03182 0.0
H122 H 0.61385 0.42282 0.06398 0.0
H123 H 0.41531 0.50208 0.06203 0.0
C124 C 0.26037 0.29684 -0.00048 0.0
C125 C 0.26645 0.23579 -0.00882 0.0
C126 C 0.33681 0.21849 -0.00819 0.0
C127 C 0.39946 0.26009 0.00226 0.0
C128 C 0.39113 0.31905 0.01189 0.0
C129 C 0.32334 0.33762 0.01011 0.0
C130 C 0.32788 0.4014 0.02481 0.0
C131 C 0.31056 0.45137 -0.01233 0.0
C132 C 0.27743 0.39678 0.0638 0.0
C133 C 0.40784 0.41446 0.03696 0.0
C134 C 0.44415 0.3673 0.02852 0.0
C135 C 0.51845 0.36917 0.03806 0.0
C136 C 0.55641 0.42083 0.05635 0.0
C137 C 0.51969 0.46928 0.06527 0.0
C138 C 0.44443 0.46535 0.05572 0.0
H139 H 0.36662 0.88735 0.98356 0.0
H140 H 0.13458 0.82861 0.96165 0.0
H141 H 0.16051 0.73163 0.93732 0.0
H142 H 0.43192 0.83253 0.89279 0.0
H143 H 0.51004 0.80688 0.92029 0.0
H144 H 0.47292 0.87112 0.9363 0.0
H145 H 0.45753 0.8111 0.01421 0.0
H146 H 0.49425 0.74654 -0.00168 0.0
H147 H 0.40556 0.73163 0.02398 0.0
H148 H 0.21191 0.63942 0.91721 0.0
H149 H 0.28566 0.56232 0.89897 0.0
H150 H 0.484 0.68324 0.9318 0.0
C151 C 0.32103 0.85395 0.97404 0.0
C152 C 0.24835 0.86566 0.97474 0.0
C153 C 0.19067 0.82111 0.96107 0.0
C154 C 0.20486 0.76564 0.9475 0.0
C155 C 0.27706 0.75544 0.94763 0.0
C156 C 0.33425 0.79855 0.96034 0.0
C157 C 0.40712 0.77709 0.95672 0.0
C158 C 0.4585 0.82474 0.9246 0.0
C159 C 0.4432 0.76593 0.00094 0.0
C160 C 0.38207 0.71521 0.93977 0.0
C161 C 0.30679 0.70329 0.93512 0.0
C162 C 0.27088 0.64857 0.92046 0.0
C163 C 0.31305 0.60527 0.91001 0.0
C164 C 0.39027 0.61709 0.91383 0.0
C165 C 0.42502 0.67276 0.92902 0.0
H166 H 0.97104 0.88514 0.02429 0.0
H167 H 0.82637 0.02378 0.01136 0.0
H168 H 0.7207 0.93748 0.03136 0.0
H169 H 0.84576 0.76072 0.98242 0.0
H170 H 0.8742 0.69795 0.01966 0.0
H171 H 0.93786 0.77034 0.00289 0.0
H172 H 0.95988 0.78506 0.08234 0.0
H173 H 0.89618 0.71285 0.09939 0.0
H174 H 0.88288 0.78584 0.11617 0.0
H175 H 0.63072 0.83559 0.05433 0.0
H176 H 0.56393 0.72633 0.07733 0.0
H177 H 0.76735 0.65466 0.07727 0.0
C178 C 0.91709 0.8975 0.02526 0.0
C179 C 0.90717 0.96153 0.01604 0.0
C180 C 0.83554 0.97529 0.01811 0.0
C181 C 0.77514 0.92652 0.0295 0.0
C182 C 0.78707 0.86409 0.03881 0.0
C183 C 0.85629 0.84947 0.03671 0.0
C184 C 0.85462 0.7787 0.04904 0.0
C185 C 0.87959 0.75027 0.01125 0.0
C186 C 0.90115 0.76482 0.08912 0.0
C187 C 0.77366 0.75567 0.05862 0.0
C188 C 0.73561 0.80569 0.05242 0.0
C189 C 0.66014 0.79625 0.05931 0.0
C190 C 0.62271 0.73421 0.07261 0.0
C191 C 0.66044 0.68228 0.07893 0.0
C192 C 0.73702 0.69336 0.07205 0.0
H193 H 0.88197 0.38414 0.96557 0.0
H194 H 0.76822 0.19058 0.96904 0.0
H195 H 0.65173 0.23015 0.95267 0.0
H196 H 0.74073 0.44482 0.01521 0.0
H197 H 0.76212 0.52045 0.98077 0.0
H198 H 0.83212 0.4732 -0.00624 0.0
H199 H 0.85365 0.48127 0.91124 0.0
H200 H 0.77998 0.52527 0.89999 0.0
H201 H 0.77834 0.45299 0.87818 0.0
H202 H 0.54692 0.29244 0.93548 0.0
H203 H 0.46518 0.37148 0.91668 0.0
H204 H 0.64702 0.52347 0.92723 0.0
C205 C 0.83261 0.34981 0.96323 0.0
C206 C 0.83454 0.28394 0.96899 0.0
C207 C 0.76857 0.24112 0.96452 0.0
C208 C 0.70198 0.26324 0.95554 0.0
C209 C 0.70208 0.32843 0.95088 0.0
C210 C 0.76596 0.37105 0.95426 0.0
C211 C 0.75214 0.4388 0.94694 0.0
C212 C 0.77293 0.47113 -0.0134 0.0
C213 C 0.79349 0.4768 0.9067 0.0
C214 C 0.67003 0.42791 0.9399 0.0
C215 C 0.64219 0.3639 0.94185 0.0
C216 C 0.56829 0.34249 0.93419 0.0
C217 C 0.52221 0.3875 0.92369 0.0
C218 C 0.54973 0.45315 0.9212 0.0
C219 C 0.62443 0.47342 0.93 0.0
H220 H 0.72917 0.60129 0.54602 0.0
H221 H 0.57905 0.72632 0.49558 0.0
H222 H 0.66939 0.81883 0.51033 0.0
H223 H 0.79558 0.69338 0.63286 0.0
H224 H 0.8869 0.67629 0.63053 0.0
H225 H 0.80956 0.6202 0.61667 0.0
H226 H 0.86971 0.62197 0.54396 0.0
H227 H 0.94643 0.67952 0.55624 0.0
H228 H 0.89359 0.69553 0.50809 0.0
H229 H 0.77361 0.89714 0.53238 0.0
H230 H 0.88808 0.9575 0.55771 0.0
H231 H 0.97342 0.78376 0.59296 0.0
C232 C 0.71567 0.64824 0.53785 0.0
C233 C 0.64748 0.65681 0.51913 0.0
C234 C 0.63104 0.71876 0.50977 0.0
C235 C 0.68196 0.77154 0.51809 0.0
C236 C 0.74865 0.76155 0.53655 0.0
C237 C 0.76531 0.70146 0.54685 0.0
C238 C 0.8401 0.7039 0.56765 0.0
C239 C 0.83255 0.67152 0.61471 0.0
C240 C 0.8906 0.67358 0.5424 0.0
C241 C 0.86504 0.77517 0.56487 0.0
C242 C 0.81022 0.80718 0.54795 0.0
C243 C 0.81733 0.87273 0.54498 0.0
C244 C 0.88245 0.9067 0.55907 0.0
C245 C 0.93998 0.87547 0.57557 0.0
C246 C 0.93099 0.80873 0.57895 0.0
H247 H 0.6884 0.29508 0.41164 0.0
H248 H 0.71521 0.28655 0.5487 0.0
H249 H 0.7715 0.19019 0.55141 0.0
H250 H 0.65006 0.11725 0.41217 0.0
H251 H 0.699 0.12579 0.36218 0.0
H252 H 0.65068 0.18707 0.37275 0.0
H253 H 0.77022 0.27009 0.3586 0.0
H254 H 0.81868 0.20929 0.34811 0.0
H255 H 0.85118 0.25715 0.3888 0.0
H256 H 0.84802 0.11048 0.53569 0.0
H257 H 0.92954 0.05063 0.50369 0.0
H258 H 0.83988 0.10211 0.37851 0.0
C259 C 0.70407 0.27138 0.4423 0.0
C260 C 0.69754 0.29731 0.48003 0.0
C261 C 0.71924 0.26637 0.51969 0.0
C262 C 0.75113 0.21185 0.5214 0.0
C263 C 0.75876 0.18821 0.48327 0.0
C264 C 0.7342 0.21629 0.44458 0.0
C265 C 0.75357 0.18505 0.40768 0.0
C266 C 0.68418 0.1518 0.38751 0.0
C267 C 0.80124 0.23326 0.37385 0.0
C268 C 0.7966 0.13738 0.43112 0.0
C269 C 0.79881 0.13953 0.47478 0.0
C270 C 0.84445 0.10671 0.50187 0.0
C271 C 0.89029 0.07263 0.48363 0.0
C272 C 0.88976 0.07136 0.43897 0.0
C273 C 0.83986 0.10162 0.41289 0.0
H274 H 0.41693 0.28578 0.5203 0.0
H275 H 0.25324 0.40006 0.4749 0.0
H276 H 0.15563 0.30661 0.49347 0.0
H277 H 0.32167 0.13495 0.48718 0.0
H278 H 0.34939 0.08755 0.5347 0.0
H279 H 0.40689 0.16127 0.51284 0.0
H280 H 0.40458 0.19981 0.58647 0.0
H281 H 0.34618 0.12673 0.60836 0.0
H282 H 0.31776 0.20144 0.61065 0.0
H283 H 0.07505 0.2036 0.52183 0.0
H284 H 1.01724 0.09628 0.55677 0.0
H285 H 0.23105 0.04833 0.58615 0.0
C286 C 0.36071 0.29057 0.51301 0.0
C287 C 0.34277 0.35008 0.49546 0.0
C288 C 0.26832 0.35488 0.48783 0.0
C289 C 0.21247 0.30206 0.49838 0.0
C290 C 0.23173 0.24464 0.51684 0.0
C291 C 0.30403 0.23832 0.5239 0.0
C292 C 0.30928 0.17229 0.5469 0.0
C293 C 0.34917 0.13693 0.51871 0.0
C294 C 0.34666 0.17529 0.59069 0.0
C295 C 0.22871 0.14288 0.55222 0.0
C296 C 0.18502 0.18544 0.53432 0.0
C297 C 0.10876 0.1699 0.53577 0.0
C298 C 0.07637 0.10923 0.55574 0.0
C299 C 0.1199 0.065 0.57419 0.0
C300 C 0.19698 0.08188 0.57243 0.0
H301 H 0.16495 0.66312 0.48609 0.0
H302 H 0.38648 0.76975 0.48209 0.0
H303 H 0.33977 0.86795 0.45362 0.0
H304 H 0.10066 0.74627 0.38875 0.0
H305 H 1.01072 0.74392 0.41033 0.0
H306 H 0.06205 0.68242 0.43003 0.0
H307 H 0.04742 0.70521 0.50675 0.0
H308 H 0.99949 0.76993 0.4881 0.0
H309 H 0.08079 0.78332 0.51971 0.0
H310 H 0.26703 0.9555 0.43057 0.0
H311 H 0.17568 0.02451 0.41094 0.0
H312 H 1.00305 0.85906 0.42221 0.0
C313 C 0.20363 0.70713 0.47929 0.0
C314 C 0.27946 0.70879 0.48642 0.0
C315 C 0.32832 0.76729 0.47661 0.0
C316 C 0.30223 0.8233 0.46055 0.0
C317 C 0.22716 0.81992 0.4539 0.0
C318 C 0.17868 0.76326 0.4626 0.0
C319 C 0.10063 0.77273 0.45308 0.0
C320 C 0.06652 0.73404 0.41848 0.0
C321 C 0.05428 0.75674 0.4944 0.0
C322 C 0.11261 0.84322 0.43692 0.0
C323 C 0.18587 0.86979 0.43848 0.0
C324 C 0.20974 0.93489 0.42848 0.0
C325 C 0.15735 0.97369 0.417 0.0
C326 C 0.08174 0.94766 0.41491 0.0
C327 C 0.05967 0.88115 0.42421 0.0
H328 H 0.04634 1.00184 0.14005 0.0
H329 H 0.1665 0.19416 0.11381 0.0
H330 H 0.18751 0.19403 0.19177 0.0
H331 H 0.95026 0.02699 0.22817 0.0
H332 H 0.94858 0.94871 0.25786 0.0
H333 H 0.95428 0.96109 0.20028 0.0
H334 H 0.07221 0.91154 0.20505 0.0
H335 H 0.06748 0.90027 0.26285 0.0
H336 H 0.14917 0.94447 0.23525 0.0
H337 H 0.19082 0.17386 0.27256 0.0
H338 H 0.15516 0.14422 0.34935 0.0
H339 H 0.0218 0.97037 0.32174 0.0
C340 C 0.0779 0.0434 0.15097 0.0
C341 C 0.1055 0.09782 0.12166 0.0
C342 C 0.14517 0.15217 0.13637 0.0
C343 C 0.15802 0.15215 0.18034 0.0
C344 C 0.13006 0.09758 0.20878 0.0
C345 C 0.08958 0.04465 0.19471 0.0
C346 C 0.05677 0.99566 0.23184 0.0
C347 C 0.97251 0.9824 0.22939 0.0
C348 C 0.08832 0.93436 0.23385 0.0
C349 C 0.08319 0.03003 0.26896 0.0
C350 C 0.12748 0.08776 0.25518 0.0
C351 C 0.1558 0.12897 0.28367 0.0
C352 C 0.13483 0.11221 0.327 0.0
C353 C 0.08408 0.05616 0.34069 0.0
C354 C 0.06099 1.01333 0.31179 0.0
H355 H 0.14667 0.03755 0.86789 0.0
H356 H 0.99763 0.17257 0.85517 0.0
H357 H 0.98693 0.16651 0.77748 0.0
H358 H 0.23866 0.09174 0.76296 0.0
H359 H 0.24498 1.0121 0.75553 0.0
H360 H 0.24677 0.03255 0.80885 0.0
H361 H 0.137 0.94167 0.8312 0.0
H362 H 0.13515 0.9208 0.77815 0.0
H363 H 0.05388 0.93873 0.80039 0.0
H364 H 0.983 0.13669 0.70266 0.0
H365 H 0.98455 0.08379 0.63827 0.0
H366 H 0.13709 0.97056 0.70046 0.0
C367 C 0.11259 0.06672 0.84876 0.0
C368 C 0.0731 0.1057 0.86762 0.0
C369 C 0.02861 0.14254 0.8414 0.0
C370 C 0.02241 0.13956 0.79723 0.0
C371 C 0.06154 0.09996 0.77982 0.0
C372 C 0.10594 0.06438 0.80486 0.0
C373 C 0.13826 0.02209 0.77938 0.0
C374 C 0.22215 0.04077 0.77652 0.0
C375 C 0.11462 0.95168 0.79841 0.0
C376 C 0.10346 0.03789 0.73628 0.0
C377 C 0.06005 0.0835 0.73689 0.0
C378 C 1.01807 0.10206 0.70157 0.0
C379 C 1.01946 0.07226 0.66516 0.0
C380 C 0.06252 0.02484 0.66457 0.0
C381 C 0.10574 1.00825 0.70015 0.0
H382 H 0.38929 0.43686 0.63751 0.0
H383 H 0.62317 0.44788 0.62217 0.0
H384 H 0.63738 0.43236 0.70069 0.0
H385 H 0.39209 0.5224 0.71486 0.0
H386 H 0.31539 0.47661 0.74644 0.0
H387 H 0.32032 0.47246 0.69026 0.0
H388 H 0.31023 0.35037 0.70701 0.0
H389 H 0.30464 0.35407 0.76358 0.0
H390 H 0.37369 0.31666 0.74369 0.0
H391 H 0.63146 0.45192 0.77445 0.0
H392 H 0.60325 0.49026 0.8403 0.0
H393 H 0.37127 0.4443 0.81496 0.0
C394 C 0.44289 0.43363 0.65099 0.0
C395 C 0.50517 0.44377 0.6243 0.0
C396 C 0.5748 0.43978 0.64241 0.0
C397 C 0.58332 0.43068 0.6869 0.0
C398 C 0.52126 0.42332 0.71262 0.0
C399 C 0.45191 0.42252 0.69545 0.0
C400 C 0.39559 0.42061 0.72992 0.0
C401 C 0.35347 0.47634 0.71975 0.0
C402 C 0.34293 0.3566 0.73644 0.0
C403 C 0.44524 0.42731 0.76817 0.0
C404 C 0.51748 0.42802 0.75758 0.0
C405 C 0.57497 0.44781 0.78419 0.0
C406 C 0.55844 0.46922 0.8218 0.0
C407 C 0.48496 0.46885 0.83312 0.0
C408 C 0.42778 0.44441 0.80706 0.0
H409 H 0.60756 0.54999 0.36496 0.0
H410 H 0.39934 0.61299 0.37162 0.0
H411 H 0.41065 0.65802 0.29452 0.0
H412 H 0.69652 0.68678 0.28444 0.0
H413 H 0.743 0.63604 0.25877 0.0
H414 H 0.72398 0.61798 0.31564 0.0
H415 H 0.65526 0.50557 0.30664 0.0
H416 H 0.67565 0.523 0.25025 0.0
H417 H 0.58194 0.49788 0.26837 0.0
H418 H 0.4336 0.67745 0.21531 0.0
H419 H 0.46398 0.66492 0.14134 0.0
H420 H 0.66112 0.5978 0.18673 0.0
C421 C 0.56478 0.57408 0.35037 0.0
C422 C 0.50233 0.57767 0.37407 0.0
C423 C 0.44762 0.60966 0.35393 0.0
C424 C 0.45393 0.63585 0.3103 0.0
C425 C 0.51608 0.63093 0.28768 0.0
C426 C 0.57079 0.60119 0.30721 0.0
C427 C 0.62837 0.59631 0.27523 0.0
C428 C 0.70235 0.6367 0.28406 0.0
C429 C 0.63563 0.52658 0.27511 0.0
C430 C 0.59526 0.6243 0.2341 0.0
C431 C 0.53117 0.64526 0.24197 0.0
C432 C 0.48495 0.66351 0.20874 0.0
C433 C 0.50269 0.65687 0.16686 0.0
C434 C 0.56597 0.63256 0.15884 0.0
C435 C 0.61457 0.61943 0.19235 0.0
loop_
_geom_bond_atom_site_label_1
_geom_bond_atom_site_label_2
_geom_bond_distance
_geom_bond_site_symmetry_2
_ccdc_geom_bond_type
Co0 N5 2.057 . S
Co0 O17 2.021 . S
Co0 O20 2.062 1_455 S
Co0 O24 2.117 1_564 S
Co0 O25 2.020 1_565 S
C1 O21 1.259 1_455 S
C1 O24 1.258 . S
Co2 N11 2.057 . S
Co2 O18 2.117 . S
Co2 O19 2.020 1_545 S
Co2 O21 2.021 1_554 S
Co2 O26 2.063 1_654 S
C3 N5 1.316 . S
C3 N6 1.347 . S
C3 H8 0.931 . S
C4 N5 1.375 1_556 S
C4 C7 1.350 . S
C4 H9 0.930 . S
N5 Co0 2.057 . S
N5 C3 1.316 . S
N5 C4 1.375 1_554 S
N6 C3 1.347 . S
N6 C7 1.373 1_554 S
C7 C4 1.350 . S
C7 N6 1.373 1_556 S
C7 H28 0.931 . S
H8 C3 0.931 . S
H9 C4 0.930 . S
C10 O17 1.259 1_545 S
C10 O18 1.258 1_455 S
N11 Co2 2.057 . S
N11 C12 1.316 1_554 S
N11 C13 1.375 . S
C12 N11 1.316 1_556 S
C12 N14 1.347 1_556 S
C12 H23 0.931 . S
C13 N11 1.375 . S
C13 C15 1.350 . S
C13 H22 0.930 . S
N14 C12 1.347 1_554 S
N14 C15 1.373 . S
C15 C13 1.350 . S
C15 N14 1.373 . S
C15 H29 0.931 . S
C16 O19 1.256 . S
C16 O20 1.255 . S
O17 Co0 2.021 . S
O17 C10 1.259 1_565 S
O18 Co2 2.117 . S
O18 C10 1.258 1_655 S
O19 Co2 2.020 1_565 S
O19 C16 1.256 . S
O20 Co0 2.062 1_655 S
O20 C16 1.255 . S
O21 C1 1.259 1_655 S
O21 Co2 2.021 1_556 S
H22 C13 0.930 . S
H23 C12 0.931 . S
O24 Co0 2.117 1_546 S
O24 C1 1.258 . S
O25 Co0 2.020 1_545 S
O25 C27 1.256 . S
O26 Co2 2.063 1_456 S
O26 C27 1.253 1_556 S
C27 O25 1.256 . S
C27 O26 1.253 1_554 S
H28 C7 0.931 . S
H29 C15 0.931 . S
Co30 N35 2.057 . S
Co30 O47 2.021 . S
Co30 O50 2.062 . S
Co30 O54 2.117 . S
Co30 O55 2.020 . S
C31 O51 1.259 . S
C31 O54 1.258 . S
Co32 N41 2.057 . S
Co32 O48 2.117 . S
Co32 O49 2.020 . S
Co32 O51 2.021 . S
Co32 O56 2.062 . S
C33 N35 1.316 . S
C33 N36 1.347 . S
C33 H38 0.931 . S
C34 N35 1.375 . S
C34 C37 1.350 . S
C34 H39 0.930 . S
N35 Co30 2.057 . S
N35 C33 1.316 . S
N35 C34 1.375 . S
N36 C33 1.347 . S
N36 C37 1.373 . S
C37 C34 1.350 . S
C37 N36 1.373 . S
C37 H58 0.931 . S
H38 C33 0.931 . S
H39 C34 0.930 . S
C40 O47 1.259 . S
C40 O48 1.258 . S
N41 Co32 2.057 . S
N41 C42 1.316 . S
N41 C43 1.375 . S
C42 N41 1.316 . S
C42 N44 1.347 . S
C42 H53 0.931 . S
C43 N41 1.375 . S
C43 C45 1.350 . S
C43 H52 0.930 . S
N44 C42 1.347 . S
N44 C45 1.373 . S
C45 C43 1.350 . S
C45 N44 1.373 . S
C45 H59 0.931 . S
C46 O49 1.256 . S
C46 O50 1.255 . S
O47 Co30 2.021 . S
O47 C40 1.259 . S
O48 Co32 2.117 . S
O48 C40 1.258 . S
O49 Co32 2.020 . S
O49 C46 1.256 . S
O50 Co30 2.062 . S
O50 C46 1.255 . S
O51 C31 1.259 . S
O51 Co32 2.021 . S
H52 C43 0.930 . S
H53 C42 0.931 . S
O54 Co30 2.117 . S
O54 C31 1.258 . S
O55 Co30 2.020 . S
O55 C57 1.256 . S
O56 Co32 2.062 . S
O56 C57 1.255 . S
C57 O55 1.256 . S
C57 O56 1.255 . S
H58 C37 0.931 . S
H59 C45 0.931 . S
C60 N61 1.317 1_545 S
C60 N62 1.348 1_455 S
C60 C63 1.485 1_545 S
N61 C60 1.317 1_565 S
N61 N65 1.372 . S
N62 C60 1.348 1_655 S
N62 C64 1.346 . S
C63 C60 1.485 1_565 S
C63 H67 0.960 1_455 S
C63 H68 0.961 1_565 S
C63 H69 0.960 . S
C64 N62 1.346 . S
C64 N65 1.302 1_645 S
C64 C66 1.486 . S
N65 N61 1.372 . S
N65 C64 1.302 1_465 S
C66 C64 1.486 . S
C66 H70 0.960 . S
C66 H71 0.960 . S
C66 H72 0.959 . S
H67 C63 0.960 1_655 S
H68 C63 0.961 1_545 S
H69 C63 0.960 . S
H70 C66 0.960 . S
H71 C66 0.960 . S
H72 C66 0.959 . S
C73 N74 1.317 . S
C73 N75 1.348 1_445 S
C73 C76 1.485 . S
N74 C73 1.317 . S
N74 N78 1.370 . S
N75 C73 1.348 1_665 S
N75 C77 1.346 . S
C76 C73 1.485 . S
C76 H80 0.960 1_455 S
C76 H81 0.961 . S
C76 H82 0.960 . S
C77 N75 1.346 . S
C77 N78 1.307 1_665 S
C77 C79 1.486 . S
N78 N74 1.370 . S
N78 C77 1.307 1_445 S
C79 C77 1.486 . S
C79 H83 0.960 . S
C79 H84 0.960 . S
C79 H85 0.959 . S
H80 C76 0.960 1_655 S
H81 C76 0.961 . S
H82 C76 0.960 . S
H83 C79 0.960 . S
H84 C79 0.960 . S
H85 C79 0.959 . S
C86 N87 1.317 . S
C86 N88 1.348 . S
C86 C89 1.485 1_556 S
N87 C86 1.317 . S
N87 N91 1.370 . S
N88 C86 1.348 . S
N88 C90 1.346 . S
C89 C86 1.485 1_554 S
C89 H93 0.960 . S
C89 H94 0.961 . S
C89 H95 0.960 . S
C90 N88 1.346 . S
C90 N91 1.307 . S
C90 C92 1.486 . S
N91 N87 1.370 . S
N91 C90 1.307 . S
C92 C90 1.486 . S
C92 H96 0.960 . S
C92 H97 0.960 . S
C92 H98 0.959 . S
H93 C89 0.960 . S
H94 C89 0.961 . S
H95 C89 0.960 . S
H96 C92 0.960 . S
H97 C92 0.960 . S
H98 C92 0.959 . S
C99 N100 1.317 . S
C99 N101 1.348 . S
C99 C102 1.485 1_554 S
N100 C99 1.317 . S
N100 N104 1.370 . S
N101 C99 1.348 . S
N101 C103 1.346 . S
C102 C99 1.485 1_556 S
C102 H106 0.960 . S
C102 H107 0.961 . S
C102 H108 0.960 . S
C103 N101 1.346 . S
C103 N104 1.307 . S
C103 C105 1.486 . S
N104 N100 1.370 . S
N104 C103 1.307 . S
C105 C103 1.486 . S
C105 H109 0.960 . S
C105 H110 0.960 . S
C105 H111 0.959 . S
H106 C102 0.960 . S
H107 C102 0.961 . S
H108 C102 0.960 . S
H109 C105 0.960 . S
H110 C105 0.960 . S
H111 C105 0.959 . S
H112 C124 0.930 1_556 S
H113 C126 0.930 . S
H114 C127 0.930 . S
H115 C131 0.959 . S
H116 C131 0.959 . S
H117 C131 0.961 . S
H118 C132 0.960 . S
H119 C132 0.961 . S
H120 C132 0.959 . S
H121 C135 0.929 . S
H122 C136 0.931 . S
H123 C138 0.930 . S
C124 H112 0.930 1_554 S
C124 C125 1.399 . S
C124 C129 1.399 . S
C125 C124 1.399 . S
C125 C126 1.376 . S
C126 H113 0.930 . S
C126 C125 1.376 . S
C126 C127 1.388 . S
C127 H114 0.930 . S
C127 C126 1.388 . S
C127 C128 1.390 . S
C128 C127 1.390 . S
C128 C129 1.394 . S
C128 C134 1.465 . S
C129 C124 1.399 . S
C129 C128 1.394 . S
C129 C130 1.516 . S
C130 C129 1.516 . S
C130 C131 1.502 1_554 S
C130 C132 1.561 . S
C130 C133 1.526 . S
C131 H115 0.959 . S
C131 H116 0.959 . S
C131 H117 0.961 . S
C131 C130 1.502 1_556 S
C132 H118 0.960 . S
C132 H119 0.961 . S
C132 H120 0.959 . S
C132 C130 1.561 . S
C133 C130 1.526 . S
C133 C134 1.396 . S
C133 C138 1.390 . S
C134 C128 1.465 . S
C134 C133 1.396 . S
C134 C135 1.399 . S
C135 H121 0.929 . S
C135 C134 1.399 . S
C135 C136 1.385 . S
C136 H122 0.931 . S
C136 C135 1.385 . S
C136 C137 1.389 . S
C137 C136 1.389 . S
C137 C138 1.387 . S
C138 H123 0.930 . S
C138 C133 1.390 . S
C138 C137 1.387 . S
H139 C151 0.930 . S
H140 C153 0.930 . S
H141 C154 0.930 . S
H142 C158 0.959 . S
H143 C158 0.959 . S
H144 C158 0.961 . S
H145 C159 0.960 . S
H146 C159 0.961 . S
H147 C159 0.959 . S
H148 C162 0.929 . S
H149 C163 0.931 . S
H150 C165 0.930 . S
C151 H139 0.930 . S
C151 C152 1.399 . S
C151 C156 1.399 . S
C152 C151 1.399 . S
C152 C153 1.376 1_554 S
C153 H140 0.930 . S
C153 C152 1.376 1_556 S
C153 C154 1.388 . S
C154 H141 0.930 . S
C154 C153 1.388 . S
C154 C155 1.390 . S
C155 C154 1.390 . S
C155 C156 1.394 1_556 S
C155 C161 1.465 . S
C156 C151 1.399 . S
C156 C155 1.394 1_554 S
C156 C157 1.516 . S
C157 C156 1.516 . S
C157 C158 1.502 . S
C157 C159 1.561 . S
C157 C160 1.526 . S
C158 H142 0.959 . S
C158 H143 0.959 . S
C158 H144 0.961 . S
C158 C157 1.502 . S
C159 H145 0.960 . S
C159 H146 0.961 . S
C159 H147 0.959 . S
C159 C157 1.561 . S
C160 C157 1.526 . S
C160 C161 1.396 1_554 S
C160 C165 1.390 . S
C161 C155 1.465 . S
C161 C160 1.396 1_556 S
C161 C162 1.399 . S
C162 H148 0.929 . S
C162 C161 1.399 . S
C162 C163 1.385 . S
C163 H149 0.931 . S
C163 C162 1.385 . S
C163 C164 1.389 . S
C164 C163 1.389 . S
C164 C165 1.387 1_556 S
C165 H150 0.930 . S
C165 C160 1.390 . S
C165 C164 1.387 1_554 S
H166 C178 0.930 . S
H167 C180 0.930 . S
H168 C181 0.930 . S
H169 C185 0.959 . S
H170 C185 0.959 . S
H171 C185 0.961 . S
H172 C186 0.960 . S
H173 C186 0.961 . S
H174 C186 0.959 . S
H175 C189 0.929 . S
H176 C190 0.931 1_556 S
H177 C192 0.930 . S
C178 H166 0.930 . S
C178 C179 1.399 . S
C178 C183 1.399 . S
C179 C178 1.399 . S
C179 C180 1.376 1_554 S
C180 H167 0.930 . S
C180 C179 1.376 1_556 S
C180 C181 1.388 . S
C181 H168 0.930 . S
C181 C180 1.388 . S
C181 C182 1.390 1_556 S
C182 C181 1.390 1_554 S
C182 C183 1.394 . S
C182 C188 1.465 . S
C183 C178 1.399 . S
C183 C182 1.394 . S
C183 C184 1.516 . S
C184 C183 1.516 . S
C184 C185 1.502 . S
C184 C186 1.561 . S
C184 C187 1.526 . S
C185 H169 0.959 . S
C185 H170 0.959 . S
C185 H171 0.961 . S
C185 C184 1.502 . S
C186 H172 0.960 . S
C186 H173 0.961 . S
C186 H174 0.959 . S
C186 C184 1.561 . S
C187 C184 1.526 . S
C187 C188 1.396 . S
C187 C192 1.390 . S
C188 C182 1.465 . S
C188 C187 1.396 . S
C188 C189 1.399 1_554 S
C189 H175 0.929 . S
C189 C188 1.399 1_556 S
C189 C190 1.385 1_556 S
C190 H176 0.931 1_554 S
C190 C189 1.385 1_554 S
C190 C191 1.389 . S
C191 C190 1.389 . S
C191 C192 1.387 . S
C192 H177 0.930 . S
C192 C187 1.390 . S
C192 C191 1.387 . S
H193 C205 0.930 . S
H194 C207 0.930 . S
H195 C208 0.930 . S
H196 C212 0.959 . S
H197 C212 0.959 . S
H198 C212 0.961 . S
H199 C213 0.960 . S
H200 C213 0.961 . S
H201 C213 0.959 . S
H202 C216 0.929 . S
H203 C217 0.931 . S
H204 C219 0.930 . S
C205 H193 0.930 . S
C205 C206 1.399 . S
C205 C210 1.399 . S
C206 C205 1.399 . S
C206 C207 1.376 1_556 S
C207 H194 0.930 . S
C207 C206 1.376 1_554 S
C207 C208 1.388 . S
C208 H195 0.930 . S
C208 C207 1.388 . S
C208 C209 1.390 1_554 S
C209 C208 1.390 1_556 S
C209 C210 1.394 . S
C209 C215 1.465 . S
C210 C205 1.399 . S
C210 C209 1.394 . S
C210 C211 1.516 . S
C211 C210 1.516 . S
C211 C212 1.502 . S
C211 C213 1.561 . S
C211 C214 1.526 . S
C212 H196 0.959 . S
C212 H197 0.959 . S
C212 H198 0.961 . S
C212 C211 1.502 . S
C213 H199 0.960 . S
C213 H200 0.961 . S
C213 H201 0.959 . S
C213 C211 1.561 . S
C214 C211 1.526 . S
C214 C215 1.396 . S
C214 C219 1.390 . S
C215 C209 1.465 . S
C215 C214 1.396 . S
C215 C216 1.399 1_556 S
C216 H202 0.929 . S
C216 C215 1.399 1_554 S
C216 C217 1.385 . S
C217 H203 0.931 . S
C217 C216 1.385 . S
C217 C218 1.389 1_554 S
C218 C217 1.389 1_556 S
C218 C219 1.387 . S
C219 H204 0.930 . S
C219 C214 1.390 . S
C219 C218 1.387 . S
H220 C232 0.930 . S
H221 C234 0.930 . S
H222 C235 0.930 . S
H223 C239 0.959 . S
H224 C239 0.959 . S
H225 C239 0.961 . S
H226 C240 0.960 . S
H227 C240 0.961 . S
H228 C240 0.959 . S
H229 C243 0.929 . S
H230 C244 0.931 . S
H231 C246 0.930 . S
C232 H220 0.930 . S
C232 C233 1.399 . S
C232 C237 1.399 . S
C233 C232 1.399 . S
C233 C234 1.376 . S
C234 H221 0.930 . S
C234 C233 1.376 . S
C234 C235 1.388 . S
C235 H222 0.930 . S
C235 C234 1.388 . S
C235 C236 1.390 . S
C236 C235 1.390 . S
C236 C237 1.394 . S
C236 C242 1.465 . S
C237 C232 1.399 . S
C237 C236 1.394 . S
C237 C238 1.516 . S
C238 C237 1.516 . S
C238 C239 1.502 . S
C238 C240 1.561 . S
C238 C241 1.526 . S
C239 H223 0.959 . S
C239 H224 0.959 . S
C239 H225 0.961 . S
C239 C238 1.502 . S
C240 H226 0.960 . S
C240 H227 0.961 . S
C240 H228 0.959 . S
C240 C238 1.561 . S
C241 C238 1.526 . S
C241 C242 1.396 . S
C241 C246 1.390 . S
C242 C236 1.465 . S
C242 C241 1.396 . S
C242 C243 1.399 . S
C243 H229 0.929 . S
C243 C242 1.399 . S
C243 C244 1.385 . S
C244 H230 0.931 . S
C244 C243 1.385 . S
C244 C245 1.389 . S
C245 C244 1.389 . S
C245 C246 1.387 . S
C246 H231 0.930 . S
C246 C241 1.390 . S
C246 C245 1.387 . S
H247 C259 0.930 . S
H248 C261 0.930 . S
H249 C262 0.930 . S
H250 C266 0.959 . S
H251 C266 0.959 . S
H252 C266 0.961 . S
H253 C267 0.960 . S
H254 C267 0.961 . S
H255 C267 0.959 . S
H256 C270 0.929 . S
H257 C271 0.931 . S
H258 C273 0.930 . S
C259 H247 0.930 . S
C259 C260 1.399 . S
C259 C264 1.399 . S
C260 C259 1.399 . S
C260 C261 1.376 . S
C261 H248 0.930 . S
C261 C260 1.376 . S
C261 C262 1.388 . S
C262 H249 0.930 . S
C262 C261 1.388 . S
C262 C263 1.390 . S
C263 C262 1.390 . S
C263 C264 1.394 . S
C263 C269 1.465 . S
C264 C259 1.399 . S
C264 C263 1.394 . S
C264 C265 1.516 . S
C265 C264 1.516 . S
C265 C266 1.502 . S
C265 C267 1.561 . S
C265 C268 1.526 . S
C266 H250 0.959 . S
C266 H251 0.959 . S
C266 H252 0.961 . S
C266 C265 1.502 . S
C267 H253 0.960 . S
C267 H254 0.961 . S
C267 H255 0.959 . S
C267 C265 1.561 . S
C268 C265 1.526 . S
C268 C269 1.396 . S
C268 C273 1.390 . S
C269 C263 1.465 . S
C269 C268 1.396 . S
C269 C270 1.399 . S
C270 H256 0.929 . S
C270 C269 1.399 . S
C270 C271 1.385 . S
C271 H257 0.931 . S
C271 C270 1.385 . S
C271 C272 1.389 . S
C272 C271 1.389 . S
C272 C273 1.387 . S
C273 H258 0.930 . S
C273 C268 1.390 . S
C273 C272 1.387 . S
H274 C286 0.930 . S
H275 C288 0.930 . S
H276 C289 0.930 . S
H277 C293 0.959 . S
H278 C293 0.959 . S
H279 C293 0.961 . S
H280 C294 0.960 . S
H281 C294 0.961 . S
H282 C294 0.959 . S
H283 C297 0.929 . S
H284 C298 0.931 . S
H285 C300 0.930 . S
C286 H274 0.930 . S
C286 C287 1.399 . S
C286 C291 1.399 . S
C287 C286 1.399 . S
C287 C288 1.376 . S
C288 H275 0.930 . S
C288 C287 1.376 . S
C288 C289 1.388 . S
C289 H276 0.930 . S
C289 C288 1.388 . S
C289 C290 1.390 . S
C290 C289 1.390 . S
C290 C291 1.394 . S
C290 C296 1.465 . S
C291 C286 1.399 . S
C291 C290 1.394 . S
C291 C292 1.516 . S
C292 C291 1.516 . S
C292 C293 1.502 . S
C292 C294 1.561 . S
C292 C295 1.526 . S
C293 H277 0.959 . S
C293 H278 0.959 . S
C293 H279 0.961 . S
C293 C292 1.502 . S
C294 H280 0.960 . S
C294 H281 0.961 . S
C294 H282 0.959 . S
C294 C292 1.561 . S
C295 C292 1.526 . S
C295 C296 1.396 . S
C295 C300 1.390 . S
C296 C290 1.465 . S
C296 C295 1.396 . S
C296 C297 1.399 . S
C297 H283 0.929 . S
C297 C296 1.399 . S
C297 C298 1.385 . S
C298 H284 0.931 . S
C298 C297 1.385 . S
C298 C299 1.389 . S
C299 C298 1.389 . S
C299 C300 1.387 . S
C300 H285 0.930 . S
C300 C295 1.390 . S
C300 C299 1.387 . S
H301 C313 0.930 . S
H302 C315 0.930 . S
H303 C316 0.930 . S
H304 C320 0.959 . S
H305 C320 0.959 . S
H306 C320 0.961 . S
H307 C321 0.960 . S
H308 C321 0.961 . S
H309 C321 0.959 . S
H310 C324 0.929 . S
H311 C325 0.931 . S
H312 C327 0.930 . S
C313 H301 0.930 . S
C313 C314 1.399 . S
C313 C318 1.399 . S
C314 C313 1.399 . S
C314 C315 1.376 . S
C315 H302 0.930 . S
C315 C314 1.376 . S
C315 C316 1.388 . S
C316 H303 0.930 . S
C316 C315 1.388 . S
C316 C317 1.390 . S
C317 C316 1.390 . S
C317 C318 1.394 . S
C317 C323 1.465 . S
C318 C313 1.399 . S
C318 C317 1.394 . S
C318 C319 1.516 . S
C319 C318 1.516 . S
C319 C320 1.502 . S
C319 C321 1.561 . S
C319 C322 1.526 . S
C320 H304 0.959 . S
C320 H305 0.959 . S
C320 H306 0.961 . S
C320 C319 1.502 . S
C321 H307 0.960 . S
C321 H308 0.961 . S
C321 H309 0.959 . S
C321 C319 1.561 . S
C322 C319 1.526 . S
C322 C323 1.396 . S
C322 C327 1.390 . S
C323 C317 1.465 . S
C323 C322 1.396 . S
C323 C324 1.399 . S
C324 H310 0.929 . S
C324 C323 1.399 . S
C324 C325 1.385 . S
C325 H311 0.931 . S
C325 C324 1.385 . S
C325 C326 1.389 . S
C326 C325 1.389 . S
C326 C327 1.387 . S
C327 H312 0.930 . S
C327 C322 1.390 . S
C327 C326 1.387 . S
H328 C340 0.930 1_655 S
H329 C342 0.930 . S
H330 C343 0.930 . S
H331 C347 0.959 . S
H332 C347 0.959 . S
H333 C347 0.961 . S
H334 C348 0.960 . S
H335 C348 0.961 . S
H336 C348 0.959 . S
H337 C351 0.929 . S
H338 C352 0.931 . S
H339 C354 0.930 . S
C340 H328 0.930 1_455 S
C340 C341 1.399 1_565 S
C340 C345 1.399 . S
C341 C340 1.399 1_545 S
C341 C342 1.376 . S
C342 H329 0.930 . S
C342 C341 1.376 . S
C342 C343 1.388 . S
C343 H330 0.930 . S
C343 C342 1.388 . S
C343 C344 1.390 . S
C344 C343 1.390 . S
C344 C345 1.394 1_545 S
C344 C350 1.465 . S
C345 C340 1.399 . S
C345 C344 1.394 1_565 S
C345 C346 1.516 1_455 S
C346 C345 1.516 1_655 S
C346 C347 1.502 . S
C346 C348 1.561 1_655 S
C346 C349 1.526 1_655 S
C347 H331 0.959 . S
C347 H332 0.959 . S
C347 H333 0.961 . S
C347 C346 1.502 . S
C348 H334 0.960 . S
C348 H335 0.961 . S
C348 H336 0.959 . S
C348 C346 1.561 1_455 S
C349 C346 1.526 1_455 S
C349 C350 1.396 1_565 S
C349 C354 1.390 1_455 S
C350 C344 1.465 . S
C350 C349 1.396 1_545 S
C350 C351 1.399 . S
C351 H337 0.929 . S
C351 C350 1.399 . S
C351 C352 1.385 . S
C352 H338 0.931 . S
C352 C351 1.385 . S
C352 C353 1.389 1_545 S
C353 C352 1.389 1_565 S
C353 C354 1.387 1_455 S
C354 H339 0.930 . S
C354 C349 1.390 1_655 S
C354 C353 1.387 1_655 S
H355 C367 0.930 1_565 S
H356 C369 0.930 . S
H357 C370 0.930 . S
H358 C374 0.959 1_545 S
H359 C374 0.959 . S
H360 C374 0.961 . S
H361 C375 0.960 . S
H362 C375 0.961 . S
H363 C375 0.959 1_655 S
H364 C378 0.929 . S
H365 C379 0.931 . S
H366 C381 0.930 1_565 S
C367 H355 0.930 1_545 S
C367 C368 1.399 . S
C367 C372 1.399 . S
C368 C367 1.399 . S
C368 C369 1.376 1_455 S
C369 H356 0.930 . S
C369 C368 1.376 1_655 S
C369 C370 1.388 . S
C370 H357 0.930 . S
C370 C369 1.388 . S
C370 C371 1.390 1_655 S
C371 C370 1.390 1_455 S
C371 C372 1.394 . S
C371 C377 1.465 . S
C372 C367 1.399 . S
C372 C371 1.394 . S
C372 C373 1.516 1_545 S
C373 C372 1.516 1_565 S
C373 C374 1.502 . S
C373 C375 1.561 . S
C373 C376 1.526 1_565 S
C374 H358 0.959 1_565 S
C374 H359 0.959 . S
C374 H360 0.961 . S
C374 C373 1.502 . S
C375 H361 0.960 . S
C375 H362 0.961 . S
C375 H363 0.959 1_455 S
C375 C373 1.561 . S
C376 C373 1.526 1_545 S
C376 C377 1.396 . S
C376 C381 1.390 . S
C377 C371 1.465 . S
C377 C376 1.396 . S
C377 C378 1.399 1_455 S
C378 H364 0.929 . S
C378 C377 1.399 1_655 S
C378 C379 1.385 . S
C379 H365 0.931 . S
C379 C378 1.385 . S
C379 C380 1.389 1_655 S
C380 C379 1.389 1_455 S
C380 C381 1.387 . S
C381 H366 0.930 1_545 S
C381 C376 1.390 . S
C381 C380 1.387 . S
H382 C394 0.930 . S
H383 C396 0.930 . S
H384 C397 0.930 . S
H385 C401 0.959 . S
H386 C401 0.959 . S
H387 C401 0.961 . S
H388 C402 0.960 . S
H389 C402 0.961 . S
H390 C402 0.959 . S
H391 C405 0.929 . S
H392 C406 0.931 . S
H393 C408 0.930 . S
C394 H382 0.930 . S
C394 C395 1.399 . S
C394 C399 1.399 . S
C395 C394 1.399 . S
C395 C396 1.376 . S
C396 H383 0.930 . S
C396 C395 1.376 . S
C396 C397 1.388 . S
C397 H384 0.930 . S
C397 C396 1.388 . S
C397 C398 1.390 . S
C398 C397 1.390 . S
C398 C399 1.394 . S
C398 C404 1.465 . S
C399 C394 1.399 . S
C399 C398 1.394 . S
C399 C400 1.516 . S
C400 C399 1.516 . S
C400 C401 1.502 . S
C400 C402 1.561 . S
C400 C403 1.526 . S
C401 H385 0.959 . S
C401 H386 0.959 . S
C401 H387 0.961 . S
C401 C400 1.502 . S
C402 H388 0.960 . S
C402 H389 0.961 . S
C402 H390 0.959 . S
C402 C400 1.561 . S
C403 C400 1.526 . S
C403 C404 1.396 . S
C403 C408 1.390 . S
C404 C398 1.465 . S
C404 C403 1.396 . S
C404 C405 1.399 . S
C405 H391 0.929 . S
C405 C404 1.399 . S
C405 C406 1.385 . S
C406 H392 0.931 . S
C406 C405 1.385 . S
C406 C407 1.389 . S
C407 C406 1.389 . S
C407 C408 1.387 . S
C408 H393 0.930 . S
C408 C403 1.390 . S
C408 C407 1.387 . S
H409 C421 0.930 . S
H410 C423 0.930 . S
H411 C424 0.930 . S
H412 C428 0.959 . S
H413 C428 0.959 . S
H414 C428 0.961 . S
H415 C429 0.960 . S
H416 C429 0.961 . S
H417 C429 0.959 . S
H418 C432 0.929 . S
H419 C433 0.931 . S
H420 C435 0.930 . S
C421 H409 0.930 . S
C421 C422 1.399 . S
C421 C426 1.399 . S
C422 C421 1.399 . S
C422 C423 1.376 . S
C423 H410 0.930 . S
C423 C422 1.376 . S
C423 C424 1.388 . S
C424 H411 0.930 . S
C424 C423 1.388 . S
C424 C425 1.390 . S
C425 C424 1.390 . S
C425 C426 1.394 . S
C425 C431 1.465 . S
C426 C421 1.399 . S
C426 C425 1.394 . S
C426 C427 1.516 . S
C427 C426 1.516 . S
C427 C428 1.502 . S
C427 C429 1.561 . S
C427 C430 1.526 . S
C428 H412 0.959 . S
C428 H413 0.959 . S
C428 H414 0.961 . S
C428 C427 1.502 . S
C429 H415 0.960 . S
C429 H416 0.961 . S
C429 H417 0.959 . S
C429 C427 1.561 . S
C430 C427 1.526 . S
C430 C431 1.396 . S
C430 C435 1.390 . S
C431 C425 1.465 . S
C431 C430 1.396 . S
C431 C432 1.399 . S
C432 H418 0.929 . S
C432 C431 1.399 . S
C432 C433 1.385 . S
C433 H419 0.931 . S
C433 C432 1.385 . S
C433 C434 1.389 . S
C434 C433 1.389 . S
C434 C435 1.387 . S
C435 H420 0.930 . S
C435 C430 1.390 . S
C435 C434 1.387 . S
C137 N101 1.369 . S
C125 C27 1.395 . S
C152 N6 1.316 . S
C164 N88 1.371 . S
C179 C16 1.475 . S
C191 N100 1.482 . S
C206 N14 1.388 1_556 S
C218 N87 1.454 . S
C233 C57 1.412 . S
C245 N75 1.403 . S
C260 N36 1.357 . S
C272 N62 1.398 . S
C299 N74 1.477 . S
C287 C46 1.479 . S
C326 N61 1.437 . S
C314 N44 1.450 . S
C341 C10 1.457 . S
C353 N65 1.435 . S
C368 C1 1.540 . S
C380 N78 1.539 . S
C407 N91 1.432 . S
C395 C40 1.457 . S
C422 C31 1.541 . S
C434 N104 1.541 . S
