# Generated by pormake.
# Topology ssb, (4,4)-cn, num edge types: 1
# Building blocks:
#     Node 0, Type 0, BuildingBlock: AZAVOO_clean_linker_0, # of connection points: 4
#     Node 1, Type 0, BuildingBlock: AZAVOO_clean_linker_0, # of connection points: 4
#     Node 2, Type 0, BuildingBlock: AZAVOO_clean_linker_0, # of connection points: 4
#     Node 3, Type 0, BuildingBlock: AZAVOO_clean_linker_0, # of connection points: 4
#     Node 4, Type 0, BuildingBlock: AZAVOO_clean_linker_0, # of connection points: 4
#     Node 5, Type 0, BuildingBlock: AZAVOO_clean_linker_0, # of connection points: 4
#     Node 6, Type 0, BuildingBlock: AZAVOO_clean_linker_0, # of connection points: 4
#     Node 7, Type 0, BuildingBlock: AZAVOO_clean_linker_0, # of connection points: 4
#     Node 8, Type 1, BuildingBlock: NAWXER_clean_sbu_0, # of connection points: 4
#     Node 9, Type 1, BuildingBlock: NAWXER_clean_sbu_0, # of connection points: 4
#     Node 10, Type 1, BuildingBlock: NAWXER_clean_sbu_0, # of connection points: 4
#     Node 11, Type 1, BuildingBlock: NAWXER_clean_sbu_0, # of connection points: 4
#     Node 12, Type 1, BuildingBlock: NAWXER_clean_sbu_0, # of connection points: 4
#     Node 13, Type 1, BuildingBlock: NAWXER_clean_sbu_0, # of connection points: 4
#     Node 14, Type 1, BuildingBlock: NAWXER_clean_sbu_0, # of connection points: 4
#     Node 15, Type 1, BuildingBlock: NAWXER_clean_sbu_0, # of connection points: 4
#     Edge 16, Type (0, 1), BuildingBlock: TEMPAE_clean_linker_10, # of connection points: 2
#     Edge 17, Type (0, 1), BuildingBlock: TEMPAE_clean_linker_10, # of connection points: 2
#     Edge 18, Type (0, 1), BuildingBlock: TEMPAE_clean_linker_10, # of connection points: 2
#     Edge 19, Type (0, 1), BuildingBlock: TEMPAE_clean_linker_10, # of connection points: 2
#     Edge 20, Type (0, 1), BuildingBlock: TEMPAE_clean_linker_10, # of connection points: 2
#     Edge 21, Type (0, 1), BuildingBlock: TEMPAE_clean_linker_10, # of connection points: 2
#     Edge 22, Type (0, 1), BuildingBlock: TEMPAE_clean_linker_10, # of connection points: 2
#     Edge 23, Type (0, 1), BuildingBlock: TEMPAE_clean_linker_10, # of connection points: 2
#     Edge 24, Type (0, 1), BuildingBlock: TEMPAE_clean_linker_10, # of connection points: 2
#     Edge 25, Type (0, 1), BuildingBlock: TEMPAE_clean_linker_10, # of connection points: 2
#     Edge 26, Type (0, 1), BuildingBlock: TEMPAE_clean_linker_10, # of connection points: 2
#     Edge 27, Type (0, 1), BuildingBlock: TEMPAE_clean_linker_10, # of connection points: 2
#     Edge 28, Type (0, 1), BuildingBlock: TEMPAE_clean_linker_10, # of connection points: 2
#     Edge 29, Type (0, 1), BuildingBlock: TEMPAE_clean_linker_10, # of connection points: 2
#     Edge 30, Type (0, 1), BuildingBlock: TEMPAE_clean_linker_10, # of connection points: 2
#     Edge 31, Type (0, 1), BuildingBlock: TEMPAE_clean_linker_10, # of connection points: 2
#     Edge 32, Type (0, 1), BuildingBlock: TEMPAE_clean_linker_10, # of connection points: 2
#     Edge 33, Type (0, 1), BuildingBlock: TEMPAE_clean_linker_10, # of connection points: 2
#     Edge 34, Type (0, 1), BuildingBlock: TEMPAE_clean_linker_10, # of connection points: 2
#     Edge 35, Type (0, 1), BuildingBlock: TEMPAE_clean_linker_10, # of connection points: 2
#     Edge 36, Type (0, 1), BuildingBlock: TEMPAE_clean_linker_10, # of connection points: 2
#     Edge 37, Type (0, 1), BuildingBlock: TEMPAE_clean_linker_10, # of connection points: 2
#     Edge 38, Type (0, 1), BuildingBlock: TEMPAE_clean_linker_10, # of connection points: 2
#     Edge 39, Type (0, 1), BuildingBlock: TEMPAE_clean_linker_10, # of connection points: 2
#     Edge 40, Type (0, 1), BuildingBlock: TEMPAE_clean_linker_10, # of connection points: 2
#     Edge 41, Type (0, 1), BuildingBlock: TEMPAE_clean_linker_10, # of connection points: 2
#     Edge 42, Type (0, 1), BuildingBlock: TEMPAE_clean_linker_10, # of connection points: 2
#     Edge 43, Type (0, 1), BuildingBlock: TEMPAE_clean_linker_10, # of connection points: 2
#     Edge 44, Type (0, 1), BuildingBlock: TEMPAE_clean_linker_10, # of connection points: 2
#     Edge 45, Type (0, 1), BuildingBlock: TEMPAE_clean_linker_10, # of connection points: 2
#     Edge 46, Type (0, 1), BuildingBlock: TEMPAE_clean_linker_10, # of connection points: 2
#     Edge 47, Type (0, 1), BuildingBlock: TEMPAE_clean_linker_10, # of connection points: 2
# Relax obj value: 0.057
# Max RMSD: 0.287
# Mean RMSD: 0.112
data_MOF--net-ssb--node1-NAWXER_clean_sbu_0--node2-AZAVOO_clean_linker_0--edge1-TEMPAE_clean_linker_10
_symmetry_space_group_name_H-M    P1
_symmetry_Int_Tables_number       1
_symmetry_cell_setting            triclinic
loop_
_symmetry_equiv_pos_as_xyz
'x, y, z'
_cell_length_a     51.740152
_cell_length_b     53.482219
_cell_length_c     44.918179
_cell_angle_alpha  92.719812
_cell_angle_beta   89.860614
_cell_angle_gamma 90.009988
loop_
_atom_site_label
_atom_site_type_symbol
_atom_site_fract_x
_atom_site_fract_y
_atom_site_fract_z
_atom_type_partial_charge
H0 H 0.13049 0.52262 0.26073 0.0
H1 H 0.32726 0.4062 0.04269 0.0
H2 H 0.23167 0.43345 0.29245 0.0
H3 H 0.20011 0.4365 0.33322 0.0
H4 H 0.16223 0.36977 0.2971 0.0
H5 H 0.19379 0.36701 0.25625 0.0
H6 H 0.22748 0.46789 0.24204 0.0
H7 H 0.1915 0.49681 0.25203 0.0
H8 H 0.1375 0.43757 0.22787 0.0
H9 H 0.17372 0.40894 0.21762 0.0
H10 H 0.26459 0.46464 0.19407 0.0
H11 H 0.25253 0.49979 0.16383 0.0
H12 H 0.19042 0.45575 0.12436 0.0
H13 H 0.2023 0.42073 0.15521 0.0
H14 H 0.31097 0.41755 0.19018 0.0
H15 H 0.33898 0.42032 0.14649 0.0
H16 H 0.275 0.39793 0.08945 0.0
H17 H 0.24731 0.39487 0.13336 0.0
H18 H 0.31119 0.37703 0.24174 0.0
H19 H 0.34791 0.35157 0.22436 0.0
H20 H 0.30423 0.32746 0.14601 0.0
H21 H 0.26715 0.35077 0.1652 0.0
H22 H 0.26841 0.39407 0.2951 0.0
H23 H 0.27609 0.36497 0.33415 0.0
H24 H 0.25893 0.30296 0.27193 0.0
H25 H 0.24927 0.33256 0.23361 0.0
O26 O 0.14443 0.51093 0.25645 0.0
O27 O 0.11747 0.4798 0.24395 0.0
O28 O 0.34889 0.41661 0.09067 0.0
O29 O 0.31655 0.40544 0.06033 0.0
C30 C 0.23099 0.40084 0.24427 0.0
C31 C 0.22504 0.41881 0.22337 0.0
C32 C 0.23996 0.42026 0.1973 0.0
C33 C 0.26053 0.40343 0.19167 0.0
C34 C 0.26588 0.38458 0.21199 0.0
C35 C 0.25147 0.3837 0.23879 0.0
C36 C 0.21496 0.39998 0.27155 0.0
C37 C 0.21685 0.41923 0.29376 0.0
C38 C 0.19883 0.42096 0.31692 0.0
C39 C 0.17859 0.40354 0.31805 0.0
C40 C 0.17744 0.38366 0.29645 0.0
C41 C 0.19556 0.38186 0.27338 0.0
C42 C 0.20315 0.43641 0.22899 0.0
C43 C 0.20786 0.46128 0.23872 0.0
C44 C 0.18728 0.47771 0.2445 0.0
C45 C 0.16161 0.4695 0.24075 0.0
C46 C 0.15702 0.4445 0.23097 0.0
C47 C 0.17764 0.42812 0.22511 0.0
C48 C 0.23438 0.44023 0.1766 0.0
C49 C 0.24856 0.46253 0.17867 0.0
C50 C 0.24153 0.48257 0.16167 0.0
C51 C 0.22042 0.48041 0.14209 0.0
C52 C 0.20673 0.45777 0.13936 0.0
C53 C 0.21352 0.43784 0.15677 0.0
C54 C 0.27711 0.40609 0.16492 0.0
C55 C 0.30304 0.41331 0.16821 0.0
C56 C 0.31899 0.41487 0.14323 0.0
C57 C 0.30922 0.40934 0.11446 0.0
C58 C 0.28313 0.40234 0.11126 0.0
C59 C 0.26723 0.4007 0.13629 0.0
C60 C 0.28657 0.36599 0.20457 0.0
C61 C 0.30934 0.36549 0.22138 0.0
C62 C 0.33049 0.35122 0.21106 0.0
C63 C 0.32949 0.33773 0.18331 0.0
C64 C 0.30596 0.33718 0.16758 0.0
C65 C 0.28467 0.35081 0.17836 0.0
C66 C 0.25804 0.36549 0.26157 0.0
C67 C 0.26614 0.3742 0.28997 0.0
C68 C 0.27087 0.35745 0.31219 0.0
C69 C 0.26819 0.33149 0.30633 0.0
C70 C 0.26075 0.32279 0.27749 0.0
C71 C 0.25552 0.33966 0.25541 0.0
C72 C 0.13978 0.48696 0.2471 0.0
C73 C 0.32615 0.41072 0.08786 0.0
H74 H 0.59403 0.15278 0.30052 0.0
H75 H 0.80851 0.20507 0.51845 0.0
H76 H 0.70233 0.2351 0.27858 0.0
H77 H 0.67686 0.24937 0.23677 0.0
H78 H 0.65711 0.31696 0.28833 0.0
H79 H 0.68246 0.30238 0.33025 0.0
H80 H 0.69823 0.19141 0.3234 0.0
H81 H 0.65828 0.1689 0.31068 0.0
H82 H 0.61379 0.23309 0.343 0.0
H83 H 0.65389 0.2553 0.35588 0.0
H84 H 0.74475 0.18601 0.3721 0.0
H85 H 0.73637 0.15116 0.40433 0.0
H86 H 0.6685 0.18903 0.43949 0.0
H87 H 0.67755 0.22454 0.40813 0.0
H88 H 0.79042 0.2231 0.37394 0.0
H89 H 0.81787 0.20877 0.414 0.0
H90 H 0.75842 0.22976 0.47826 0.0
H91 H 0.73133 0.24439 0.43805 0.0
H92 H 0.79335 0.26862 0.32889 0.0
H93 H 0.83501 0.28613 0.34477 0.0
H94 H 0.80244 0.30548 0.43171 0.0
H95 H 0.76061 0.29002 0.41466 0.0
H96 H 0.7462 0.27062 0.27993 0.0
H97 H 0.7551 0.30548 0.24859 0.0
H98 H 0.75135 0.35649 0.32622 0.0
H99 H 0.74014 0.32151 0.35692 0.0
O100 O 0.60959 0.16201 0.30578 0.0
O101 O 0.58761 0.19554 0.32258 0.0
O102 O 0.82824 0.20064 0.46833 0.0
O103 O 0.79812 0.21073 0.5022 0.0
C104 C 0.71065 0.25947 0.3321 0.0
C105 C 0.70323 0.23855 0.34826 0.0
C106 C 0.71914 0.23038 0.37137 0.0
C107 C 0.74223 0.24344 0.37865 0.0
C108 C 0.74963 0.26448 0.36257 0.0
C109 C 0.73404 0.27227 0.33891 0.0
C110 C 0.69416 0.26769 0.30741 0.0
C111 C 0.69231 0.25288 0.2809 0.0
C112 C 0.678 0.26116 0.25701 0.0
C113 C 0.66517 0.28435 0.25928 0.0
C114 C 0.6667 0.29897 0.28606 0.0
C115 C 0.68117 0.29072 0.30992 0.0
C116 C 0.67893 0.22495 0.3406 0.0
C117 C 0.67982 0.20053 0.32782 0.0
C118 C 0.65698 0.18774 0.32052 0.0
C119 C 0.63283 0.19919 0.32582 0.0
C120 C 0.63205 0.22372 0.33862 0.0
C121 C 0.65491 0.23646 0.34595 0.0
C122 C 0.71193 0.20795 0.38797 0.0
C123 C 0.72799 0.18677 0.38661 0.0
C124 C 0.72319 0.16691 0.40489 0.0
C125 C 0.70186 0.16762 0.42427 0.0
C126 C 0.68498 0.18815 0.42456 0.0
C127 C 0.69011 0.20832 0.40667 0.0
C128 C 0.75892 0.23482 0.4031 0.0
C129 C 0.78343 0.22471 0.3967 0.0
C130 C 0.79903 0.21648 0.41962 0.0
C131 C 0.79033 0.21811 0.44935 0.0
C132 C 0.76572 0.22823 0.45563 0.0
C133 C 0.75018 0.23655 0.43271 0.0
C134 C 0.77396 0.27794 0.37065 0.0
C135 C 0.79512 0.27733 0.35106 0.0
C136 C 0.81904 0.28699 0.3604 0.0
C137 C 0.82238 0.29699 0.38974 0.0
C138 C 0.80075 0.29835 0.40885 0.0
C139 C 0.77676 0.28928 0.39924 0.0
C140 C 0.74222 0.29348 0.3207 0.0
C141 C 0.74715 0.28936 0.29013 0.0
C142 C 0.75257 0.30937 0.27228 0.0
C143 C 0.75398 0.33402 0.2847 0.0
C144 C 0.74991 0.33794 0.31563 0.0
C145 C 0.74387 0.31791 0.33337 0.0
C146 C 0.6086 0.18556 0.31801 0.0
C147 C 0.80677 0.20928 0.47376 0.0
H148 H 0.64489 0.8988 0.31556 0.0
H149 H 0.70781 0.65214 0.15382 0.0
H150 H 0.76262 0.8329 0.3184 0.0
H151 H 0.76863 0.86395 0.35905 0.0
H152 H 0.76493 0.80531 0.42219 0.0
H153 H 0.75608 0.77485 0.38137 0.0
H154 H 0.72316 0.82736 0.2713 0.0
H155 H 0.69216 0.86105 0.28241 0.0
H156 H 0.66785 0.82423 0.36145 0.0
H157 H 0.69873 0.79047 0.34986 0.0
H158 H 0.73429 0.78628 0.2227 0.0
H159 H 0.70067 0.79519 0.18674 0.0
H160 H 0.64244 0.77136 0.24856 0.0
H161 H 0.67645 0.76296 0.28479 0.0
H162 H 0.77514 0.7447 0.22176 0.0
H163 H 0.76904 0.71528 0.17896 0.0
H164 H 0.70131 0.68545 0.22137 0.0
H165 H 0.70785 0.71478 0.2642 0.0
H166 H 0.81541 0.75008 0.26791 0.0
H167 H 0.84567 0.71585 0.25513 0.0
H168 H 0.7907 0.66282 0.28793 0.0
H169 H 0.76072 0.69709 0.3007 0.0
H170 H 0.81434 0.7917 0.31753 0.0
H171 H 0.85399 0.7848 0.34567 0.0
H172 H 0.81922 0.72016 0.38386 0.0
H173 H 0.77949 0.72738 0.35582 0.0
O174 O 0.65691 0.88519 0.31148 0.0
O175 O 0.64515 0.86554 0.3519 0.0
O176 O 0.74577 0.67982 0.14973 0.0
O177 O 0.7107 0.66396 0.17047 0.0
C178 C 0.75357 0.78309 0.32189 0.0
C179 C 0.73199 0.78597 0.30303 0.0
C180 C 0.72849 0.76937 0.27793 0.0
C181 C 0.74593 0.74942 0.27223 0.0
C182 C 0.76717 0.74638 0.29129 0.0
C183 C 0.77103 0.76316 0.316 0.0
C184 C 0.75858 0.80164 0.34689 0.0
C185 C 0.76274 0.82684 0.34107 0.0
C186 C 0.76667 0.84453 0.36442 0.0
C187 C 0.76739 0.83728 0.39414 0.0
C188 C 0.76399 0.81179 0.39976 0.0
C189 C 0.75927 0.79423 0.3764 0.0
C190 C 0.71304 0.80638 0.30965 0.0
C191 C 0.71096 0.82649 0.29085 0.0
C192 C 0.69331 0.84577 0.29733 0.0
C193 C 0.6775 0.84532 0.32281 0.0
C194 C 0.67971 0.82514 0.34163 0.0
C195 C 0.69733 0.80585 0.33508 0.0
C196 C 0.70774 0.77395 0.25622 0.0
C197 C 0.71428 0.78283 0.22836 0.0
C198 C 0.69505 0.78777 0.20782 0.0
C199 C 0.66889 0.7838 0.21472 0.0
C200 C 0.66241 0.77477 0.2427 0.0
C201 C 0.68173 0.76988 0.26333 0.0
C202 C 0.74202 0.73175 0.24611 0.0
C203 C 0.75909 0.7317 0.22181 0.0
C204 C 0.75551 0.71493 0.19737 0.0
C205 C 0.73469 0.69797 0.19676 0.0
C206 C 0.71754 0.69822 0.22113 0.0
C207 C 0.7212 0.71497 0.24559 0.0
C208 C 0.78589 0.7259 0.28495 0.0
C209 C 0.81013 0.73107 0.27263 0.0
C210 C 0.82736 0.7116 0.26547 0.0
C211 C 0.82059 0.68677 0.27079 0.0
C212 C 0.79662 0.68184 0.28413 0.0
C213 C 0.77936 0.70128 0.29107 0.0
C214 C 0.79411 0.76013 0.33487 0.0
C215 C 0.81525 0.77622 0.33221 0.0
C216 C 0.83791 0.77205 0.34795 0.0
C217 C 0.83971 0.75177 0.36665 0.0
C218 C 0.8183 0.73592 0.36963 0.0
C219 C 0.79567 0.74003 0.35374 0.0
C220 C 0.65886 0.8659 0.3297 0.0
C221 C 0.73081 0.68009 0.17087 0.0
H222 H 0.36941 0.03162 0.35402 0.0
H223 H 0.29683 0.83698 0.09521 0.0
H224 H 0.28397 0.92551 0.3525 0.0
H225 H 0.28883 0.96084 0.38855 0.0
H226 H 0.23037 0.0014 0.34213 0.0
H227 H 0.226 0.96608 0.30585 0.0
H228 H 0.32723 0.9349 0.31146 0.0
H229 H 0.35143 0.97124 0.3316 0.0
H230 H 0.29582 0.0204 0.29272 0.0
H231 H 0.2718 0.98389 0.27284 0.0
H232 H 0.33318 0.89526 0.25369 0.0
H233 H 0.37138 0.90322 0.22346 0.0
H234 H 0.33364 0.96769 0.18853 0.0
H235 H 0.29519 0.95919 0.21858 0.0
H236 H 0.29077 0.85265 0.24328 0.0
H237 H 0.30134 0.82639 0.19882 0.0
H238 H 0.28031 0.88706 0.14335 0.0
H239 H 0.26958 0.91305 0.18803 0.0
H240 H 0.24345 0.84768 0.28418 0.0
H241 H 0.228 0.81074 0.25541 0.0
H242 H 0.20638 0.85807 0.18392 0.0
H243 H 0.21961 0.89456 0.21391 0.0
H244 H 0.24799 0.88441 0.34167 0.0
H245 H 0.21298 0.8727 0.37482 0.0
H246 H 0.15733 0.90311 0.31463 0.0
H247 H 0.19267 0.9141 0.28112 0.0
O248 O 0.36013 0.01752 0.34494 0.0
O249 O 0.33219 0.04197 0.32255 0.0
O250 O 0.3081 0.81831 0.14274 0.0
O251 O 0.2929 0.84704 0.11313 0.0
C252 C 0.26032 0.92808 0.29895 0.0
C253 C 0.28169 0.93488 0.28135 0.0
C254 C 0.28794 0.92065 0.25525 0.0
C255 C 0.27223 0.90024 0.24593 0.0
C256 C 0.24996 0.89423 0.26265 0.0
C257 C 0.24443 0.9077 0.28973 0.0
C258 C 0.25479 0.94339 0.32651 0.0
C259 C 0.27125 0.9415 0.35106 0.0
C260 C 0.27414 0.96178 0.37151 0.0
C261 C 0.26045 0.98407 0.36763 0.0
C262 C 0.24154 0.9846 0.34522 0.0
C263 C 0.23869 0.96431 0.32479 0.0
C264 C 0.2978 0.95683 0.29079 0.0
C265 C 0.32053 0.95355 0.30704 0.0
C266 C 0.33421 0.97433 0.31863 0.0
C267 C 0.32544 0.99873 0.31396 0.0
C268 C 0.30305 0.00188 0.29682 0.0
C269 C 0.28935 0.98108 0.28536 0.0
C270 C 0.31149 0.92659 0.23817 0.0
C271 C 0.33328 0.9112 0.23968 0.0
C272 C 0.35513 0.91593 0.22261 0.0
C273 C 0.35556 0.93618 0.20373 0.0
C274 C 0.33381 0.9519 0.20276 0.0
C275 C 0.31193 0.94714 0.21993 0.0
C276 C 0.27943 0.88472 0.21884 0.0
C277 C 0.28849 0.86022 0.2215 0.0
C278 C 0.29454 0.84529 0.19609 0.0
C279 C 0.29169 0.85465 0.16753 0.0
C280 C 0.2827 0.87927 0.16499 0.0
C281 C 0.27667 0.8942 0.19045 0.0
C282 C 0.23295 0.87373 0.25094 0.0
C283 C 0.23409 0.85006 0.26296 0.0
C284 C 0.22573 0.82891 0.24612 0.0
C285 C 0.21674 0.8311 0.21672 0.0
C286 C 0.21301 0.85528 0.20634 0.0
C287 C 0.22067 0.87637 0.2235 0.0
C288 C 0.22284 0.90009 0.30905 0.0
C289 C 0.22821 0.88845 0.33563 0.0
C290 C 0.20818 0.88196 0.35464 0.0
C291 C 0.18229 0.88716 0.34757 0.0
C292 C 0.17699 0.89863 0.32065 0.0
C293 C 0.19711 0.905 0.30153 0.0
C294 C 0.33941 0.02076 0.3273 0.0
C295 C 0.29808 0.83884 0.14047 0.0
H296 H 0.41208 0.02123 0.74913 0.0
H297 H 0.15143 0.95109 0.61289 0.0
H298 H 0.34719 0.90122 0.74997 0.0
H299 H 0.38098 0.89366 0.78625 0.0
H300 H 0.32463 0.90212 0.8574 0.0
H301 H 0.29157 0.91173 0.82105 0.0
H302 H 0.33674 0.94637 0.70645 0.0
H303 H 0.37148 0.9767 0.71604 0.0
H304 H 0.34121 0.99254 0.80477 0.0
H305 H 0.30639 0.96238 0.79476 0.0
H306 H 0.28532 0.94442 0.66207 0.0
H307 H 0.28238 0.98338 0.63646 0.0
H308 H 0.27321 0.02409 0.7215 0.0
H309 H 0.27316 0.98465 0.74639 0.0
H310 H 0.25747 0.89423 0.66024 0.0
H311 H 0.22472 0.89921 0.62179 0.0
H312 H 0.18789 0.95716 0.67732 0.0
H313 H 0.22058 0.95174 0.71578 0.0
H314 H 0.27247 0.85265 0.70297 0.0
H315 H 0.24298 0.8202 0.68322 0.0
H316 H 0.17804 0.8636 0.71758 0.0
H317 H 0.2078 0.89552 0.73813 0.0
H318 H 0.29853 0.84717 0.75243 0.0
H319 H 0.28687 0.81228 0.78323 0.0
H320 H 0.23439 0.86105 0.83383 0.0
H321 H 0.24473 0.89488 0.80145 0.0
O322 O 0.39811 0.0094 0.74577 0.0
O323 O 0.38181 0.01682 0.79119 0.0
O324 O 0.18418 0.91869 0.60016 0.0
O325 O 0.16467 0.94879 0.62769 0.0
C326 C 0.29676 0.91181 0.76056 0.0
C327 C 0.29808 0.93361 0.74396 0.0
C328 C 0.27945 0.93765 0.72162 0.0
C329 C 0.2608 0.91897 0.71449 0.0
C330 C 0.2601 0.89698 0.73066 0.0
C331 C 0.27711 0.89405 0.7546 0.0
C332 C 0.31691 0.90678 0.78287 0.0
C333 C 0.34225 0.90157 0.77344 0.0
C334 C 0.36146 0.89699 0.79421 0.0
C335 C 0.35556 0.89708 0.82482 0.0
C336 C 0.33001 0.90222 0.8341 0.0
C337 C 0.31095 0.90733 0.81333 0.0
C338 C 0.31907 0.95215 0.7499 0.0
C339 C 0.3376 0.95649 0.72789 0.0
C340 C 0.35745 0.97378 0.73347 0.0
C341 C 0.35915 0.98703 0.76119 0.0
C342 C 0.34049 0.98264 0.78319 0.0
C343 C 0.32063 0.96538 0.77757 0.0
C344 C 0.27924 0.9616 0.7061 0.0
C345 C 0.28225 0.96174 0.67508 0.0
C346 C 0.28098 0.98418 0.66052 0.0
C347 C 0.27761 0.00715 0.67678 0.0
C348 C 0.27522 0.00689 0.70801 0.0
C349 C 0.27563 0.98434 0.72242 0.0
C350 C 0.24137 0.92261 0.69078 0.0
C351 C 0.24229 0.90795 0.66406 0.0
C352 C 0.22358 0.91087 0.64213 0.0
C353 C 0.20366 0.92859 0.64649 0.0
C354 C 0.20295 0.94335 0.67324 0.0
C355 C 0.22162 0.94035 0.69521 0.0
C356 C 0.24217 0.87641 0.72178 0.0
C357 C 0.25189 0.8548 0.70683 0.0
C358 C 0.23507 0.83638 0.69549 0.0
C359 C 0.20823 0.8394 0.69877 0.0
C360 C 0.19864 0.86056 0.71508 0.0
C361 C 0.21553 0.87892 0.72655 0.0
C362 C 0.27249 0.87346 0.77485 0.0
C363 C 0.28456 0.85016 0.77024 0.0
C364 C 0.27792 0.83032 0.78799 0.0
C365 C 0.25946 0.83366 0.811 0.0
C366 C 0.24808 0.85742 0.81589 0.0
C367 C 0.25425 0.87695 0.79772 0.0
C368 C 0.38032 0.00533 0.76707 0.0
C369 C 0.18365 0.93165 0.62332 0.0
H370 H 0.19833 0.54581 0.76998 0.0
H371 H 0.27181 0.30365 0.60689 0.0
H372 H 0.32475 0.48493 0.76509 0.0
H373 H 0.32743 0.51969 0.80193 0.0
H374 H 0.31941 0.4679 0.87251 0.0
H375 H 0.31506 0.43335 0.83514 0.0
H376 H 0.27684 0.47582 0.7228 0.0
H377 H 0.24479 0.50846 0.73462 0.0
H378 H 0.2301 0.47605 0.81943 0.0
H379 H 0.26196 0.44334 0.80716 0.0
H380 H 0.27733 0.43387 0.67685 0.0
H381 H 0.23732 0.4273 0.64852 0.0
H382 H 0.20171 0.39561 0.72539 0.0
H383 H 0.24148 0.40308 0.75366 0.0
H384 H 0.33072 0.40258 0.67257 0.0
H385 H 0.32523 0.37376 0.62908 0.0
H386 H 0.26786 0.33278 0.67723 0.0
H387 H 0.27395 0.36146 0.72076 0.0
H388 H 0.37416 0.40489 0.71545 0.0
H389 H 0.39742 0.37127 0.6878 0.0
H390 H 0.34728 0.31682 0.72645 0.0
H391 H 0.3245 0.35042 0.75408 0.0
H392 H 0.3778 0.44164 0.77867 0.0
H393 H 0.41064 0.43287 0.81644 0.0
H394 H 0.36412 0.37149 0.84554 0.0
H395 H 0.33166 0.38036 0.8081 0.0
O396 O 0.2108 0.53263 0.76567 0.0
O397 O 0.20406 0.51531 0.80906 0.0
O398 O 0.30471 0.33644 0.60041 0.0
O399 O 0.27459 0.31513 0.62389 0.0
C400 C 0.31425 0.43648 0.77437 0.0
C401 C 0.29146 0.43766 0.75704 0.0
C402 C 0.28722 0.41989 0.73333 0.0
C403 C 0.30621 0.40171 0.72605 0.0
C404 C 0.32838 0.39986 0.74412 0.0
C405 C 0.33199 0.41668 0.76887 0.0
C406 C 0.31968 0.45662 0.79739 0.0
C407 C 0.32388 0.48107 0.78854 0.0
C408 C 0.32565 0.50092 0.80971 0.0
C409 C 0.32362 0.4967 0.84032 0.0
C410 C 0.32067 0.47192 0.84916 0.0
C411 C 0.31851 0.45208 0.82786 0.0
C412 C 0.27171 0.45724 0.76412 0.0
C413 C 0.26655 0.47572 0.74383 0.0
C414 C 0.2483 0.49439 0.75069 0.0
C415 C 0.2349 0.49489 0.77799 0.0
C416 C 0.24009 0.47624 0.79822 0.0
C417 C 0.2583 0.45755 0.7913 0.0
C418 C 0.2622 0.41901 0.71728 0.0
C419 C 0.26068 0.42594 0.68764 0.0
C420 C 0.23791 0.4219 0.67144 0.0
C421 C 0.21634 0.41068 0.68457 0.0
C422 C 0.21778 0.40455 0.71465 0.0
C423 C 0.24049 0.40876 0.73086 0.0
C424 C 0.30266 0.38415 0.69972 0.0
C425 C 0.31704 0.38732 0.67369 0.0
C426 C 0.31383 0.37086 0.64888 0.0
C427 C 0.29598 0.35105 0.64962 0.0
C428 C 0.28169 0.34789 0.67586 0.0
C429 C 0.28506 0.36427 0.70073 0.0
C430 C 0.34756 0.38002 0.7365 0.0
C431 C 0.36908 0.38561 0.71901 0.0
C432 C 0.38219 0.36641 0.70308 0.0
C433 C 0.37392 0.34144 0.70459 0.0
C434 C 0.35429 0.3358 0.72494 0.0
C435 C 0.34119 0.35498 0.74076 0.0
C436 C 0.35243 0.41162 0.79076 0.0
C437 C 0.37485 0.42631 0.79322 0.0
C438 C 0.39352 0.42125 0.81466 0.0
C439 C 0.38978 0.40163 0.83403 0.0
C440 C 0.36733 0.38695 0.83123 0.0
C441 C 0.34889 0.39186 0.80975 0.0
C442 C 0.21565 0.51484 0.78529 0.0
C443 C 0.2921 0.33383 0.62312 0.0
H444 H 0.90641 0.41164 0.89434 0.0
H445 H 0.82701 0.26528 0.60638 0.0
H446 H 0.83878 0.2904 0.86819 0.0
H447 H 0.84878 0.30845 0.91787 0.0
H448 H 0.77725 0.35003 0.9179 0.0
H449 H 0.76748 0.33208 0.86785 0.0
H450 H 0.86889 0.32339 0.82561 0.0
H451 H 0.89184 0.35727 0.8529 0.0
H452 H 0.82044 0.39906 0.86152 0.0
H453 H 0.79782 0.36515 0.8339 0.0
H454 H 0.86855 0.30391 0.76197 0.0
H455 H 0.89447 0.32954 0.72945 0.0
H456 H 0.83378 0.3851 0.73062 0.0
H457 H 0.80786 0.35914 0.76306 0.0
H458 H 0.83709 0.25113 0.75277 0.0
H459 H 0.84705 0.23654 0.70157 0.0
H460 H 0.80394 0.29874 0.6687 0.0
H461 H 0.79384 0.31293 0.72 0.0
H462 H 0.79783 0.23282 0.81366 0.0
H463 H 0.78692 0.19161 0.79237 0.0
H464 H 0.75425 0.2258 0.71551 0.0
H465 H 0.76242 0.26704 0.73889 0.0
H466 H 0.78664 0.25771 0.869 0.0
H467 H 0.74872 0.24669 0.89857 0.0
H468 H 0.69928 0.28176 0.83518 0.0
H469 H 0.73697 0.29195 0.80569 0.0
O470 O 0.89716 0.39886 0.88271 0.0
O471 O 0.85983 0.41932 0.88704 0.0
O472 O 0.84515 0.23888 0.64489 0.0
O473 O 0.82337 0.27063 0.62685 0.0
C474 C 0.80147 0.30565 0.83186 0.0
C475 C 0.81741 0.32022 0.81394 0.0
C476 C 0.82027 0.31372 0.78341 0.0
C477 C 0.80856 0.29168 0.77119 0.0
C478 C 0.79171 0.27764 0.789 0.0
C479 C 0.78702 0.28568 0.81895 0.0
C480 C 0.80252 0.31013 0.86451 0.0
C481 C 0.82477 0.30262 0.87945 0.0
C482 C 0.83053 0.313 0.90764 0.0
C483 C 0.8139 0.33074 0.92137 0.0
C484 C 0.79027 0.33623 0.90772 0.0
C485 C 0.78463 0.32601 0.87927 0.0
C486 C 0.83175 0.34189 0.82771 0.0
C487 C 0.85836 0.34007 0.83298 0.0
C488 C 0.87136 0.35937 0.84875 0.0
C489 C 0.85795 0.38083 0.85952 0.0
C490 C 0.83135 0.38278 0.85359 0.0
C491 C 0.8184 0.36349 0.83775 0.0
C492 C 0.83633 0.32963 0.76459 0.0
C493 C 0.86095 0.32167 0.7553 0.0
C494 C 0.87577 0.33643 0.73699 0.0
C495 C 0.86617 0.35939 0.72766 0.0
C496 C 0.84159 0.36747 0.7374 0.0
C497 C 0.82684 0.35273 0.75589 0.0
C498 C 0.8147 0.28304 0.74006 0.0
C499 C 0.82978 0.26154 0.73447 0.0
C500 C 0.83546 0.25327 0.70521 0.0
C501 C 0.82627 0.26648 0.68102 0.0
C502 C 0.8113 0.28813 0.68678 0.0
C503 C 0.80556 0.29632 0.71605 0.0
C504 C 0.7814 0.25305 0.77761 0.0
C505 C 0.78751 0.23146 0.79269 0.0
C506 C 0.78171 0.20781 0.78012 0.0
C507 C 0.77043 0.20514 0.75167 0.0
C508 C 0.76289 0.22691 0.73744 0.0
C509 C 0.76788 0.25062 0.75059 0.0
C510 C 0.76455 0.27578 0.8353 0.0
C511 C 0.76754 0.26263 0.86137 0.0
C512 C 0.74587 0.25646 0.87827 0.0
C513 C 0.72088 0.26342 0.86938 0.0
C514 C 0.71807 0.27567 0.84254 0.0
C515 C 0.73965 0.28167 0.82567 0.0
C516 C 0.87161 0.40089 0.8772 0.0
C517 C 0.83222 0.25776 0.64989 0.0
H518 H 0.95659 0.66562 0.82817 0.0
H519 H 0.70463 0.70427 0.99323 0.0
H520 H 0.87578 0.77252 0.82468 0.0
H521 H 0.90308 0.78232 0.78247 0.0
H522 H 0.83862 0.76775 0.7229 0.0
H523 H 0.81231 0.75585 0.76503 0.0
H524 H 0.87571 0.73321 0.8748 0.0
H525 H 0.91345 0.70702 0.86288 0.0
H526 H 0.87678 0.68031 0.78099 0.0
H527 H 0.83904 0.70638 0.79334 0.0
H528 H 0.82945 0.73455 0.92619 0.0
H529 H 0.83125 0.69995 0.95932 0.0
H530 H 0.82041 0.64773 0.88376 0.0
H531 H 0.81608 0.68282 0.85134 0.0
H532 H 0.78919 0.77693 0.92546 0.0
H533 H 0.76179 0.76913 0.96851 0.0
H534 H 0.73592 0.69974 0.92501 0.0
H535 H 0.7631 0.70796 0.88191 0.0
H536 H 0.78844 0.81741 0.87361 0.0
H537 H 0.75153 0.8431 0.89107 0.0
H538 H 0.70071 0.77997 0.87493 0.0
H539 H 0.73735 0.75467 0.8562 0.0
H540 H 0.82754 0.81732 0.82379 0.0
H541 H 0.81371 0.85139 0.79271 0.0
H542 H 0.74765 0.80747 0.76335 0.0
H543 H 0.76168 0.77351 0.7943 0.0
O544 O 0.94143 0.67577 0.83248 0.0
O545 O 0.92177 0.66268 0.79062 0.0
O546 O 0.72924 0.74386 0.99768 0.0
O547 O 0.71561 0.70784 0.97648 0.0
C548 C 0.8254 0.7577 0.82398 0.0
C549 C 0.83179 0.73765 0.84224 0.0
C550 C 0.81631 0.73274 0.86736 0.0
C551 C 0.79456 0.748 0.87427 0.0
C552 C 0.78817 0.76793 0.85605 0.0
C553 C 0.80336 0.7726 0.83077 0.0
C554 C 0.84201 0.76346 0.79803 0.0
C555 C 0.8677 0.77111 0.80244 0.0
C556 C 0.88317 0.77708 0.77824 0.0
C557 C 0.87312 0.77608 0.74907 0.0
C558 C 0.84728 0.76842 0.74483 0.0
C559 C 0.83203 0.76188 0.76899 0.0
C560 C 0.85465 0.72169 0.83494 0.0
C561 C 0.87583 0.7216 0.85437 0.0
C562 C 0.89738 0.70667 0.84746 0.0
C563 C 0.89814 0.69158 0.82097 0.0
C564 C 0.87684 0.69172 0.80156 0.0
C565 C 0.85528 0.70663 0.80852 0.0
C566 C 0.82227 0.71133 0.88636 0.0
C567 C 0.82754 0.71561 0.9168 0.0
C568 C 0.82884 0.69566 0.93571 0.0
C569 C 0.82572 0.67078 0.92449 0.0
C570 C 0.82216 0.66654 0.89353 0.0
C571 C 0.82015 0.6866 0.87476 0.0
C572 C 0.77814 0.74301 0.90059 0.0
C573 C 0.77753 0.7601 0.92525 0.0
C574 C 0.7619 0.75557 0.94982 0.0
C575 C 0.74667 0.73379 0.95021 0.0
C576 C 0.74741 0.71668 0.92545 0.0
C577 C 0.76296 0.72128 0.90084 0.0
C578 C 0.76558 0.78413 0.86382 0.0
C579 C 0.76925 0.80932 0.87316 0.0
C580 C 0.74827 0.82392 0.88314 0.0
C581 C 0.72352 0.81333 0.88438 0.0
C582 C 0.71974 0.78839 0.8742 0.0
C583 C 0.74057 0.77398 0.86363 0.0
C584 C 0.79564 0.79295 0.8112 0.0
C585 C 0.81017 0.81506 0.81051 0.0
C586 C 0.80214 0.83452 0.79297 0.0
C587 C 0.77956 0.83208 0.77569 0.0
C588 C 0.76522 0.80979 0.77625 0.0
C589 C 0.77314 0.79044 0.79395 0.0
C590 C 0.9211 0.67578 0.81367 0.0
C591 C 0.73003 0.7289 0.97626 0.0
C592 C 0.98299 0.3955 0.56158 0.0
C593 C 0.04416 0.39866 0.47895 0.0
O594 O 0.98852 0.41474 0.54724 0.0
Zn595 Zn 0.01375 0.39835 0.52041 0.0
O596 O 0.99465 0.37481 0.55533 0.0
Zn597 Zn 0.02293 0.35968 0.52556 0.0
O598 O 0.05078 0.35086 0.55179 0.0
O599 O 0.04568 0.39165 0.5492 0.0
O600 O 0.04274 0.37721 0.49043 0.0
O601 O 0.03038 0.41671 0.48953 0.0
O602 O 0.99056 0.37184 0.49474 0.0
O603 O 0.0033 0.33366 0.50476 0.0
C604 C 0.0579 0.37301 0.55931 0.0
C605 C 0.98839 0.348 0.49093 0.0
C606 C 0.76341 0.04192 0.63061 0.0
C607 C 0.76427 0.97372 0.55559 0.0
O608 O 0.78217 0.03431 0.61431 0.0
Zn609 Zn 0.76436 0.0072 0.59352 0.0
O610 O 0.74148 0.03087 0.62849 0.0
Zn611 Zn 0.72452 0.00076 0.60226 0.0
O612 O 0.71475 0.97707 0.63181 0.0
O613 O 0.75692 0.98085 0.62673 0.0
O614 O 0.74182 0.97709 0.56734 0.0
O615 O 0.78332 0.98696 0.56468 0.0
O616 O 0.7378 0.02662 0.56625 0.0
O617 O 0.69799 0.01841 0.58098 0.0
C618 C 0.73746 0.97078 0.63918 0.0
C619 C 0.71333 0.02953 0.56382 0.0
C620 C 0.99113 0.80938 0.57583 0.0
C621 C 0.04914 0.82906 0.49406 0.0
O622 O 0.99412 0.83045 0.56432 0.0
Zn623 Zn 0.01921 0.81963 0.53433 0.0
O624 O 0.00344 0.79019 0.56506 0.0
Zn625 Zn 0.0305 0.78125 0.52974 0.0
O626 O 0.05926 0.76868 0.5518 0.0
O627 O 0.05169 0.80906 0.5604 0.0
O628 O 0.04943 0.80578 0.49982 0.0
O629 O 0.03404 0.84388 0.50866 0.0
O630 O 0.99643 0.79702 0.50451 0.0
O631 O 0.0113 0.75836 0.50339 0.0
C632 C 0.06499 0.78942 0.5652 0.0
C633 C 0.99508 0.77422 0.49458 0.0
C634 C 0.34046 0.21209 0.54742 0.0
C635 C 0.31246 0.1444 0.47828 0.0
O636 O 0.35481 0.19754 0.53146 0.0
Zn637 Zn 0.32726 0.17921 0.51089 0.0
O638 O 0.31585 0.2108 0.54448 0.0
Zn639 Zn 0.28807 0.18963 0.5189 0.0
O640 O 0.26759 0.17466 0.54911 0.0
O641 O 0.30803 0.16113 0.54679 0.0
O642 O 0.29379 0.15769 0.48918 0.0
O643 O 0.33564 0.15044 0.48472 0.0
O644 O 0.31191 0.20521 0.48045 0.0
O645 O 0.27192 0.21381 0.49469 0.0
C646 C 0.28546 0.16087 0.55866 0.0
C647 C 0.2906 0.21694 0.47688 0.0
C648 C 0.49863 0.90417 0.05864 0.0
C649 C 0.56755 0.883 0.98784 0.0
O650 O 0.51592 0.9187 0.04917 0.0
Zn651 Zn 0.53333 0.89402 0.0232 0.0
O652 O 0.4983 0.88118 0.04924 0.0
Zn653 Zn 0.51962 0.85664 0.01951 0.0
O654 O 0.53203 0.83181 0.04534 0.0
O655 O 0.54983 0.86892 0.05409 0.0
O656 O 0.55269 0.86439 0.99253 0.0
O657 O 0.56351 0.90403 0.00143 0.0
O658 O 0.50514 0.88619 0.98858 0.0
O659 O 0.49402 0.84642 0.99098 0.0
C660 C 0.54765 0.8458 0.06015 0.0
C661 C 0.49167 0.86732 0.97901 0.0
C662 C 0.24238 0.70425 0.04795 0.0
C663 C 0.27577 0.64625 0.97041 0.0
O664 O 0.26579 0.6991 0.04175 0.0
Zn665 Zn 0.25954 0.67619 0.00839 0.0
O666 O 0.22417 0.69439 0.03199 0.0
Zn667 Zn 0.22117 0.66905 0.99333 0.0
O668 O 0.20092 0.64207 0.00855 0.0
O669 O 0.24017 0.64539 0.0276 0.0
O670 O 0.25111 0.64855 0.96951 0.0
O671 O 0.2887 0.65912 0.98967 0.0
O672 O 0.2463 0.70028 0.97517 0.0
O673 O 0.20663 0.6888 0.96254 0.0
C674 C 0.2183 0.63414 0.02572 0.0
C675 C 0.22598 0.70306 0.95945 0.0
C676 C 0.56292 0.28682 0.99703 0.0
C677 C 0.48594 0.29912 0.05861 0.0
O678 O 0.56034 0.30955 0.00705 0.0
Zn679 Zn 0.53409 0.33093 0.03529 0.0
O680 O 0.54635 0.27054 0.00396 0.0
Zn681 Zn 0.5244 0.29266 0.02807 0.0
O682 O 0.50846 0.31783 0.99633 0.0
O683 O 0.52205 0.3559 0.0095 0.0
O684 O 0.49412 0.27874 0.04635 0.0
O685 O 0.49871 0.31944 0.05594 0.0
O686 O 0.55534 0.34174 0.06879 0.0
O687 O 0.54804 0.30111 0.0663 0.0
C688 C 0.50911 0.34141 0.99196 0.0
C689 C 0.55844 0.32037 0.07943 0.0
C690 C 0.84427 0.53192 0.15408 0.0
C691 C 0.84297 0.46581 0.07625 0.0
O692 O 0.86347 0.51916 0.14429 0.0
Zn693 Zn 0.84424 0.49847 0.11554 0.0
O694 O 0.82175 0.52766 0.14315 0.0
Zn695 Zn 0.80372 0.50384 0.11004 0.0
O696 O 0.7794 0.48455 0.13246 0.0
O697 O 0.82007 0.47676 0.1435 0.0
O698 O 0.82084 0.47607 0.08071 0.0
O699 O 0.86222 0.47265 0.09214 0.0
O700 O 0.83345 0.52495 0.08269 0.0
O701 O 0.79084 0.52786 0.08302 0.0
C702 C 0.79587 0.47298 0.14761 0.0
C703 C 0.81258 0.53453 0.07281 0.0
C704 C 0.13211 0.40424 0.33308 0.0
C705 C 0.15819 0.40652 0.3411 0.0
C706 C 0.11255 0.4059 0.35472 0.0
C707 C 0.11932 0.40975 0.38509 0.0
C708 C 0.14558 0.41304 0.39321 0.0
C709 C 0.16473 0.41144 0.37105 0.0
C710 C 0.08476 0.40247 0.34519 0.0
C711 C 0.15354 0.41703 0.4254 0.0
C712 C 0.0673 0.42558 0.44299 0.0
C713 C 0.06244 0.40194 0.45407 0.0
C714 C 0.08566 0.42851 0.42028 0.0
C715 C 0.09935 0.40732 0.40854 0.0
C716 C 0.09421 0.38342 0.41935 0.0
C717 C 0.07585 0.38104 0.44191 0.0
C718 C 0.09067 0.45425 0.40913 0.0
C719 C 0.10834 0.36033 0.40734 0.0
H720 H 0.127 0.40097 0.30982 0.0
H721 H 0.18491 0.41318 0.37728 0.0
H722 H 0.07731 0.38449 0.35311 0.0
H723 H 0.07254 0.41763 0.3554 0.0
H724 H 0.08254 0.40233 0.32059 0.0
H725 H 0.17438 0.42172 0.42772 0.0
H726 H 0.142 0.43231 0.43646 0.0
H727 H 0.14967 0.39977 0.43743 0.0
H728 H 0.05703 0.4418 0.4523 0.0
H729 H 0.07218 0.36266 0.45019 0.0
H730 H 0.08783 0.45412 0.38465 0.0
H731 H 0.11105 0.45969 0.41357 0.0
H732 H 0.07781 0.46867 0.41988 0.0
H733 H 0.10526 0.35777 0.38295 0.0
H734 H 0.10187 0.34308 0.41803 0.0
H735 H 0.12942 0.36258 0.41103 0.0
C736 C 0.67744 0.13135 0.44356 0.0
C737 C 0.69856 0.14771 0.44559 0.0
C738 C 0.67549 0.11121 0.46249 0.0
C739 C 0.69486 0.10784 0.48419 0.0
C740 C 0.71562 0.12508 0.48702 0.0
C741 C 0.71735 0.14464 0.46744 0.0
C742 C 0.65336 0.093 0.45846 0.0
C743 C 0.73645 0.12247 0.51018 0.0
C744 C 0.68734 0.06654 0.55022 0.0
C745 C 0.70381 0.04669 0.54168 0.0
C746 C 0.68296 0.08613 0.53103 0.0
C747 C 0.69487 0.08537 0.50253 0.0
C748 C 0.70976 0.06423 0.49306 0.0
C749 C 0.7144 0.04535 0.51296 0.0
C750 C 0.66737 0.10852 0.54217 0.0
C751 C 0.72226 0.06232 0.46262 0.0
H752 H 0.66299 0.13383 0.42651 0.0
H753 H 0.73355 0.15751 0.46901 0.0
H754 H 0.66092 0.07451 0.45025 0.0
H755 H 0.64364 0.09024 0.48009 0.0
H756 H 0.63881 0.09938 0.44233 0.0
H757 H 0.74994 0.13866 0.51115 0.0
H758 H 0.72766 0.12072 0.53254 0.0
H759 H 0.74779 0.1052 0.50501 0.0
H760 H 0.67944 0.06765 0.57263 0.0
H761 H 0.72711 0.02991 0.50644 0.0
H762 H 0.65355 0.11425 0.52494 0.0
H763 H 0.68057 0.12454 0.54703 0.0
H764 H 0.65647 0.10475 0.56283 0.0
H765 H 0.7082 0.06714 0.44518 0.0
H766 H 0.72997 0.04326 0.45714 0.0
H767 H 0.73848 0.07585 0.46185 0.0
C768 C 0.88782 0.74951 0.36971 0.0
C769 C 0.86367 0.7478 0.38366 0.0
C770 C 0.91068 0.74926 0.38634 0.0
C771 C 0.90923 0.74748 0.41763 0.0
C772 C 0.88499 0.7439 0.43149 0.0
C773 C 0.86244 0.74408 0.41428 0.0
C774 C 0.93619 0.75282 0.37071 0.0
C775 C 0.88264 0.742 0.46482 0.0
C776 C 0.97003 0.7418 0.46427 0.0
C777 C 0.9741 0.76688 0.47368 0.0
C778 C 0.94917 0.73505 0.44555 0.0
C779 C 0.93213 0.75384 0.43623 0.0
C780 C 0.93649 0.77918 0.44524 0.0
C781 C 0.95739 0.78536 0.46376 0.0
C782 C 0.9451 0.70787 0.43616 0.0
C783 C 0.91878 0.79983 0.43573 0.0
H784 H 0.88878 0.75188 0.34589 0.0
H785 H 0.84377 0.74277 0.42511 0.0
H786 H 0.94315 0.77222 0.37548 0.0
H787 H 0.95102 0.73992 0.37901 0.0
H788 H 0.93449 0.74967 0.34616 0.0
H789 H 0.86314 0.73558 0.47151 0.0
H790 H 0.89729 0.72891 0.47312 0.0
H791 H 0.88627 0.76064 0.47593 0.0
H792 H 0.98289 0.72743 0.47184 0.0
H793 H 0.96043 0.80481 0.47074 0.0
H794 H 0.94366 0.70563 0.41153 0.0
H795 H 0.9266 0.70122 0.44548 0.0
H796 H 0.96097 0.69575 0.44379 0.0
H797 H 0.918 0.79991 0.41106 0.0
H798 H 0.92512 0.81863 0.44443 0.0
H799 H 0.89885 0.7965 0.44382 0.0
C800 C 0.27355 0.00812 0.41449 0.0
C801 C 0.2685 0.00754 0.38384 0.0
C802 C 0.28232 0.03014 0.42948 0.0
C803 C 0.28632 0.05193 0.41331 0.0
C804 C 0.28172 0.05127 0.38227 0.0
C805 C 0.2728 0.02911 0.36794 0.0
C806 C 0.28688 0.03022 0.46267 0.0
C807 C 0.28592 0.07405 0.36423 0.0
C808 C 0.28039 0.11465 0.45533 0.0
C809 C 0.30635 0.12134 0.46012 0.0
C810 C 0.27372 0.09215 0.44013 0.0
C811 C 0.29346 0.07591 0.42918 0.0
C812 C 0.31973 0.08266 0.43333 0.0
C813 C 0.32589 0.10533 0.44887 0.0
C814 C 0.24547 0.08564 0.43609 0.0
C815 C 0.34125 0.06582 0.42164 0.0
H816 H 0.27036 0.99143 0.42678 0.0
H817 H 0.26955 0.02856 0.34409 0.0
H818 H 0.30681 0.03663 0.46793 0.0
H819 H 0.27343 0.04358 0.47431 0.0
H820 H 0.28402 0.01144 0.47171 0.0
H821 H 0.28258 0.07007 0.34004 0.0
H822 H 0.27265 0.08927 0.37211 0.0
H823 H 0.30594 0.08111 0.36736 0.0
H824 H 0.2651 0.12684 0.46391 0.0
H825 H 0.34598 0.11034 0.4525 0.0
H826 H 0.24116 0.06778 0.44667 0.0
H827 H 0.24095 0.08289 0.41203 0.0
H828 H 0.23248 0.10038 0.44593 0.0
H829 H 0.34023 0.04756 0.43232 0.0
H830 H 0.36065 0.07412 0.42591 0.0
H831 H 0.33901 0.06197 0.3973 0.0
C832 C 0.16677 0.81532 0.69479 0.0
C833 C 0.19019 0.82252 0.682 0.0
C834 C 0.14721 0.80417 0.67716 0.0
C835 C 0.15123 0.80039 0.64609 0.0
C836 C 0.17575 0.8053 0.63366 0.0
C837 C 0.19496 0.81636 0.65179 0.0
C838 C 0.12144 0.79882 0.69131 0.0
C839 C 0.18084 0.80154 0.60063 0.0
C840 C 0.09992 0.77027 0.59557 0.0
C841 C 0.08694 0.79152 0.58613 0.0
C842 C 0.12072 0.77266 0.61559 0.0
C843 C 0.12871 0.79683 0.62601 0.0
C844 C 0.11561 0.81826 0.61656 0.0
C845 C 0.09489 0.81532 0.59686 0.0
C846 C 0.13422 0.74946 0.62544 0.0
C847 C 0.12364 0.84444 0.62695 0.0
H848 H 0.16323 0.81963 0.71828 0.0
H849 H 0.21297 0.82198 0.6417 0.0
H850 H 0.10766 0.81399 0.68647 0.0
H851 H 0.11321 0.78098 0.68198 0.0
H852 H 0.12301 0.79783 0.71589 0.0
H853 H 0.20185 0.80167 0.59546 0.0
H854 H 0.17246 0.78364 0.59175 0.0
H855 H 0.17153 0.81689 0.58878 0.0
H856 H 0.09377 0.75182 0.58743 0.0
H857 H 0.08505 0.83186 0.58962 0.0
H858 H 0.13419 0.74921 0.65012 0.0
H859 H 0.15472 0.74961 0.61816 0.0
H860 H 0.12498 0.73202 0.61625 0.0
H861 H 0.12269 0.84649 0.65162 0.0
H862 H 0.11124 0.85908 0.6176 0.0
H863 H 0.14394 0.84791 0.62028 0.0
C864 C 0.38021 0.32835 0.65116 0.0
C865 C 0.38148 0.32231 0.68118 0.0
C866 C 0.37974 0.30956 0.62835 0.0
C867 C 0.38057 0.28415 0.63577 0.0
C868 C 0.38479 0.27808 0.66571 0.0
C869 C 0.38509 0.29727 0.68814 0.0
C870 C 0.37516 0.31689 0.59674 0.0
C871 C 0.38625 0.25124 0.67452 0.0
C872 C 0.33483 0.24262 0.59043 0.0
C873 C 0.35148 0.22999 0.57015 0.0
C874 C 0.34428 0.25977 0.61219 0.0
C875 C 0.37115 0.26462 0.61377 0.0
C876 C 0.38823 0.2517 0.59374 0.0
C877 C 0.37818 0.23445 0.57211 0.0
C878 C 0.32537 0.27278 0.63346 0.0
C879 C 0.41698 0.25632 0.59497 0.0
H880 H 0.37714 0.34762 0.64555 0.0
H881 H 0.38643 0.29256 0.7113 0.0
H882 H 0.38757 0.30575 0.58093 0.0
H883 H 0.35474 0.31294 0.59062 0.0
H884 H 0.37894 0.3371 0.59397 0.0
H885 H 0.39526 0.24972 0.69679 0.0
H886 H 0.36644 0.24338 0.67544 0.0
H887 H 0.39742 0.23963 0.6579 0.0
H888 H 0.31421 0.23908 0.5894 0.0
H889 H 0.39117 0.22466 0.5566 0.0
H890 H 0.3276 0.29336 0.63287 0.0
H891 H 0.32948 0.26754 0.65658 0.0
H892 H 0.30497 0.26787 0.62821 0.0
H893 H 0.42115 0.27582 0.58905 0.0
H894 H 0.42783 0.24334 0.57947 0.0
H895 H 0.42424 0.25421 0.61793 0.0
C896 C 0.90795 0.37689 0.70997 0.0
C897 C 0.88124 0.37384 0.70626 0.0
C898 C 0.92327 0.38621 0.68724 0.0
C899 C 0.91155 0.39248 0.66013 0.0
C900 C 0.88431 0.39168 0.65739 0.0
C901 C 0.86944 0.38232 0.68054 0.0
C902 C 0.95223 0.38703 0.6912 0.0
C903 C 0.87106 0.39837 0.62896 0.0
C904 C 0.95561 0.41819 0.60067 0.0
C905 C 0.96298 0.39597 0.58512 0.0
C906 C 0.93816 0.41766 0.62477 0.0
C907 C 0.92792 0.39442 0.63313 0.0
C908 C 0.9345 0.37217 0.61655 0.0
C909 C 0.95193 0.37325 0.59288 0.0
C910 C 0.93145 0.44174 0.64189 0.0
C911 C 0.92382 0.34699 0.6244 0.0
H912 H 0.91705 0.37085 0.73013 0.0
H913 H 0.84877 0.38002 0.67757 0.0
H914 H 0.96112 0.37114 0.67809 0.0
H915 H 0.96032 0.40456 0.6828 0.0
H916 H 0.95788 0.38563 0.71491 0.0
H917 H 0.85005 0.40173 0.63244 0.0
H918 H 0.87987 0.41528 0.61978 0.0
H919 H 0.8734 0.38273 0.61202 0.0
H920 H 0.96408 0.4358 0.59467 0.0
H921 H 0.95718 0.35604 0.58061 0.0
H922 H 0.94072 0.44197 0.66414 0.0
H923 H 0.91027 0.44314 0.64555 0.0
H924 H 0.93808 0.45844 0.63021 0.0
H925 H 0.93042 0.34239 0.64698 0.0
H926 H 0.93001 0.33167 0.60838 0.0
H927 H 0.90239 0.34753 0.62484 0.0
C928 C 0.7707 0.87747 0.76853 0.0
C929 C 0.77106 0.85266 0.75694 0.0
C930 C 0.76335 0.89717 0.75077 0.0
C931 C 0.75646 0.89194 0.72062 0.0
C932 C 0.75634 0.86686 0.70897 0.0
C933 C 0.76354 0.84752 0.72731 0.0
C934 C 0.7635 0.92363 0.76407 0.0
C935 C 0.74941 0.86053 0.67685 0.0
C936 C 0.72142 0.94074 0.67657 0.0
C937 C 0.74196 0.95127 0.66099 0.0
C938 C 0.72583 0.92165 0.69646 0.0
C939 C 0.75131 0.91278 0.70063 0.0
C940 C 0.77209 0.92349 0.68515 0.0
C941 C 0.76718 0.94261 0.66567 0.0
C942 C 0.70324 0.9108 0.7128 0.0
C943 C 0.79953 0.91447 0.68879 0.0
H944 H 0.77615 0.88147 0.79156 0.0
H945 H 0.76399 0.82838 0.71821 0.0
H946 H 0.77848 0.93473 0.75291 0.0
H947 H 0.74461 0.93275 0.7603 0.0
H948 H 0.7675 0.92436 0.78839 0.0
H949 H 0.74886 0.84001 0.67171 0.0
H950 H 0.73028 0.86854 0.6716 0.0
H951 H 0.7638 0.86897 0.66197 0.0
H952 H 0.7019 0.94734 0.67314 0.0
H953 H 0.78321 0.95054 0.65372 0.0
H954 H 0.70669 0.91231 0.73719 0.0
H955 H 0.70123 0.8906 0.70641 0.0
H956 H 0.68477 0.92036 0.70796 0.0
H957 H 0.80531 0.91648 0.71254 0.0
H958 H 0.81354 0.92493 0.67533 0.0
H959 H 0.80087 0.89429 0.68197 0.0
C960 C 0.90834 0.80176 0.7265 0.0
C961 C 0.88956 0.78283 0.72325 0.0
C962 C 0.92468 0.80753 0.70278 0.0
C963 C 0.9218 0.79454 0.6748 0.0
C964 C 0.90239 0.77602 0.671 0.0
C965 C 0.88678 0.77016 0.69531 0.0
C966 C 0.94546 0.82709 0.70787 0.0
C967 C 0.89844 0.76201 0.64137 0.0
C968 C 0.95201 0.82188 0.60606 0.0
C969 C 0.97383 0.80661 0.60171 0.0
C970 C 0.93481 0.81819 0.62976 0.0
C971 C 0.94002 0.79926 0.64996 0.0
C972 C 0.96247 0.78432 0.64609 0.0
C973 C 0.97889 0.78796 0.62181 0.0
C974 C 0.91076 0.83409 0.63275 0.0
C975 C 0.96909 0.76437 0.66752 0.0
H976 H 0.91036 0.81213 0.74767 0.0
H977 H 0.87273 0.75523 0.69247 0.0
H978 H 0.96476 0.81846 0.70405 0.0
H979 H 0.94335 0.84202 0.69175 0.0
H980 H 0.94488 0.83581 0.73081 0.0
H981 H 0.88109 0.74977 0.64136 0.0
H982 H 0.89637 0.77538 0.62338 0.0
H983 H 0.91559 0.7502 0.63593 0.0
H984 H 0.94798 0.8362 0.59042 0.0
H985 H 0.9959 0.77628 0.61867 0.0
H986 H 0.9101 0.84393 0.65503 0.0
H987 H 0.89338 0.82196 0.63089 0.0
H988 H 0.90968 0.84822 0.61545 0.0
H989 H 0.96975 0.77261 0.69065 0.0
H990 H 0.98798 0.7553 0.66227 0.0
H991 H 0.95389 0.74972 0.66685 0.0
C992 C 0.26145 0.05131 0.6724 0.0
C993 C 0.27675 0.03121 0.66128 0.0
C994 C 0.26103 0.0742 0.65837 0.0
C995 C 0.27546 0.07681 0.63194 0.0
C996 C 0.29047 0.05653 0.62018 0.0
C997 C 0.29134 0.03422 0.63528 0.0
C998 C 0.24536 0.09567 0.67197 0.0
C999 C 0.30573 0.05839 0.59163 0.0
C1000 C 0.25898 0.12621 0.57723 0.0
C1001 C 0.28005 0.14243 0.58103 0.0
C1002 C 0.25663 0.10512 0.59448 0.0
C1003 C 0.27537 0.1008 0.6166 0.0
C1004 C 0.29558 0.11828 0.62196 0.0
C1005 C 0.29799 0.13864 0.60363 0.0
C1006 C 0.23528 0.08653 0.58744 0.0
C1007 C 0.31542 0.11479 0.646 0.0
H1008 H 0.24964 0.0492 0.69206 0.0
H1009 H 0.30375 0.01922 0.62674 0.0
H1010 H 0.25803 0.11215 0.67649 0.0
H1011 H 0.23029 0.10132 0.65612 0.0
H1012 H 0.23582 0.09084 0.69313 0.0
H1013 H 0.31492 0.04034 0.58436 0.0
H1014 H 0.29293 0.06441 0.57352 0.0
H1015 H 0.3211 0.07272 0.59473 0.0
H1016 H 0.24539 0.12901 0.55935 0.0
H1017 H 0.3143 0.15128 0.60644 0.0
H1018 H 0.22505 0.0816 0.60807 0.0
H1019 H 0.24377 0.06901 0.57742 0.0
H1020 H 0.22096 0.09376 0.5716 0.0
H1021 H 0.30583 0.11015 0.66717 0.0
H1022 H 0.32751 0.13177 0.65012 0.0
H1023 H 0.32833 0.09893 0.63933 0.0
C1024 C 0.195 0.39525 0.63707 0.0
C1025 C 0.19278 0.40456 0.66672 0.0
C1026 C 0.17301 0.38928 0.61994 0.0
C1027 C 0.14817 0.39237 0.63286 0.0
C1028 C 0.14576 0.40139 0.66288 0.0
C1029 C 0.16807 0.40752 0.67938 0.0
C1030 C 0.17636 0.37992 0.58791 0.0
C1031 C 0.11959 0.40483 0.67746 0.0
C1032 C 0.09155 0.40177 0.58114 0.0
C1033 C 0.08066 0.37772 0.57871 0.0
C1034 C 0.11348 0.40673 0.59867 0.0
C1035 C 0.12469 0.38726 0.61452 0.0
C1036 C 0.11366 0.36299 0.6125 0.0
C1037 C 0.09185 0.35845 0.59443 0.0
C1038 C 0.12485 0.43279 0.59994 0.0
C1039 C 0.12494 0.34184 0.62939 0.0
H1040 H 0.21399 0.39239 0.62726 0.0
H1041 H 0.16612 0.41495 0.70214 0.0
H1042 H 0.16703 0.36135 0.58433 0.0
H1043 H 0.1667 0.3929 0.57291 0.0
H1044 H 0.19703 0.37824 0.58134 0.0
H1045 H 0.12108 0.41072 0.70144 0.0
H1046 H 0.10842 0.41919 0.66595 0.0
H1047 H 0.10844 0.38711 0.67538 0.0
H1048 H 0.08315 0.41675 0.56893 0.0
H1049 H 0.08349 0.33985 0.59273 0.0
H1050 H 0.14513 0.43212 0.59184 0.0
H1051 H 0.12521 0.44048 0.62331 0.0
H1052 H 0.11379 0.44585 0.58627 0.0
H1053 H 0.14517 0.33828 0.62214 0.0
H1054 H 0.11373 0.32422 0.62601 0.0
H1055 H 0.12542 0.3471 0.65358 0.0
C1056 C 0.74824 0.17441 0.71592 0.0
C1057 C 0.76835 0.17996 0.73611 0.0
C1058 C 0.74749 0.15149 0.69937 0.0
C1059 C 0.76682 0.13333 0.70382 0.0
C1060 C 0.78658 0.13835 0.72492 0.0
C1061 C 0.78739 0.16171 0.74036 0.0
C1062 C 0.72636 0.14696 0.6766 0.0
C1063 C 0.80718 0.11919 0.73081 0.0
C1064 C 0.75174 0.06661 0.67703 0.0
C1065 C 0.76597 0.06446 0.65047 0.0
C1066 C 0.75237 0.08873 0.69508 0.0
C1067 C 0.76688 0.10938 0.68571 0.0
C1068 C 0.78135 0.10724 0.65891 0.0
C1069 C 0.78105 0.08461 0.64182 0.0
C1070 C 0.73741 0.09004 0.72402 0.0
C1071 C 0.79651 0.12909 0.64783 0.0
H1072 H 0.73314 0.18804 0.71278 0.0
H1073 H 0.80344 0.1658 0.75524 0.0
H1074 H 0.73504 0.14335 0.65418 0.0
H1075 H 0.71507 0.13009 0.68184 0.0
H1076 H 0.71291 0.16308 0.67565 0.0
H1077 H 0.81981 0.12515 0.74982 0.0
H1078 H 0.79815 0.101 0.73566 0.0
H1079 H 0.81945 0.11602 0.71071 0.0
H1080 H 0.74013 0.05094 0.68371 0.0
H1081 H 0.79176 0.08302 0.62103 0.0
H1082 H 0.72203 0.10442 0.72317 0.0
H1083 H 0.75041 0.09575 0.74275 0.0
H1084 H 0.72831 0.07185 0.72886 0.0
H1085 H 0.78337 0.14517 0.64482 0.0
H1086 H 0.80645 0.12443 0.62632 0.0
H1087 H 0.81122 0.13527 0.66452 0.0
C1088 C 0.85095 0.32451 0.42257 0.0
C1089 C 0.84844 0.30477 0.40102 0.0
C1090 C 0.87493 0.33045 0.43556 0.0
C1091 C 0.89722 0.31695 0.42606 0.0
C1092 C 0.89514 0.29777 0.4034 0.0
C1093 C 0.87075 0.29164 0.3915 0.0
C1094 C 0.87627 0.35083 0.45998 0.0
C1095 C 0.91861 0.28345 0.39208 0.0
C1096 C 0.95995 0.35004 0.44655 0.0
C1097 C 0.96733 0.33773 0.47203 0.0
C1098 C 0.93798 0.34246 0.43026 0.0
C1099 C 0.92255 0.32272 0.4404 0.0
C1100 C 0.93037 0.30976 0.46567 0.0
C1101 C 0.95296 0.3172 0.48094 0.0
C1102 C 0.9308 0.35617 0.40285 0.0
C1103 C 0.9141 0.28903 0.47762 0.0
H1104 H 0.83409 0.33526 0.42961 0.0
H1105 H 0.86916 0.27611 0.37524 0.0
H1106 H 0.88436 0.34318 0.48052 0.0
H1107 H 0.88938 0.36599 0.45327 0.0
H1108 H 0.85703 0.35911 0.46535 0.0
H1109 H 0.91408 0.27064 0.3726 0.0
H1110 H 0.93397 0.29664 0.38559 0.0
H1111 H 0.92657 0.27222 0.41005 0.0
H1112 H 0.97121 0.36586 0.43959 0.0
H1113 H 0.95855 0.30788 0.50086 0.0
H1114 H 0.91314 0.36748 0.40736 0.0
H1115 H 0.92639 0.34264 0.38405 0.0
H1116 H 0.94645 0.36887 0.39587 0.0
H1117 H 0.89518 0.29673 0.48532 0.0
H1118 H 0.92353 0.28002 0.49655 0.0
H1119 H 0.91013 0.2745 0.4598 0.0
C1120 C 0.78565 0.87796 0.41531 0.0
C1121 C 0.77066 0.85641 0.4191 0.0
C1122 C 0.78671 0.89729 0.43749 0.0
C1123 C 0.77324 0.89464 0.46459 0.0
C1124 C 0.75934 0.8724 0.46932 0.0
C1125 C 0.75783 0.85377 0.44637 0.0
C1126 C 0.80131 0.92097 0.43141 0.0
C1127 C 0.74526 0.86863 0.49827 0.0
C1128 C 0.78898 0.9384 0.53116 0.0
C1129 C 0.76762 0.95447 0.5315 0.0
C1130 C 0.79117 0.91875 0.50945 0.0
C1131 C 0.77199 0.91582 0.48711 0.0
C1132 C 0.75092 0.9327 0.4868 0.0
C1133 C 0.74874 0.95156 0.50937 0.0
C1134 C 0.81343 0.90061 0.51105 0.0
C1135 C 0.73051 0.93069 0.46281 0.0
H1136 H 0.79627 0.88 0.39476 0.0
H1137 H 0.74587 0.8375 0.44959 0.0
H1138 H 0.78761 0.93693 0.43123 0.0
H1139 H 0.81552 0.92531 0.44935 0.0
H1140 H 0.81169 0.91965 0.40971 0.0
H1141 H 0.73806 0.84915 0.49979 0.0
H1142 H 0.75816 0.87306 0.5175 0.0
H1143 H 0.72851 0.88154 0.50027 0.0
H1144 H 0.80342 0.94063 0.54855 0.0
H1145 H 0.73234 0.9642 0.50963 0.0
H1146 H 0.82418 0.8995 0.48964 0.0
H1147 H 0.80587 0.88159 0.51479 0.0
H1148 H 0.82712 0.90597 0.52927 0.0
H1149 H 0.73971 0.93032 0.44045 0.0
H1150 H 0.71654 0.94647 0.46449 0.0
H1151 H 0.71965 0.91292 0.46446 0.0
C1152 C 0.16443 0.88391 0.39927 0.0
C1153 C 0.16108 0.8806 0.36833 0.0
C1154 C 0.14528 0.87658 0.41925 0.0
C1155 C 0.12201 0.8659 0.40808 0.0
C1156 C 0.11812 0.8632 0.3769 0.0
C1157 C 0.13773 0.87048 0.3574 0.0
C1158 C 0.15024 0.87973 0.45234 0.0
C1159 C 0.0935 0.85201 0.36413 0.0
C1160 C 0.08618 0.82265 0.45865 0.0
C1161 C 0.06697 0.83845 0.47118 0.0
C1162 C 0.10396 0.83129 0.43787 0.0
C1163 C 0.10243 0.85632 0.4291 0.0
C1164 C 0.08279 0.87226 0.44118 0.0
C1165 C 0.06537 0.86317 0.46219 0.0
C1166 C 0.12473 0.81374 0.42573 0.0
C1167 C 0.0804 0.89899 0.43215 0.0
H1168 H 0.18216 0.89219 0.40796 0.0
H1169 H 0.13501 0.86763 0.33356 0.0
H1170 H 0.13451 0.89085 0.46334 0.0
H1171 H 0.15035 0.86113 0.46229 0.0
H1172 H 0.16897 0.88914 0.45742 0.0
H1173 H 0.09268 0.85287 0.33949 0.0
H1174 H 0.09197 0.83215 0.36997 0.0
H1175 H 0.07646 0.86197 0.37393 0.0
H1176 H 0.08766 0.80353 0.46547 0.0
H1177 H 0.05054 0.87549 0.47165 0.0
H1178 H 0.14407 0.82131 0.43187 0.0
H1179 H 0.12383 0.81222 0.40104 0.0
H1180 H 0.12294 0.79467 0.43432 0.0
H1181 H 0.09807 0.90959 0.43873 0.0
H1182 H 0.0634 0.90864 0.44256 0.0
H1183 H 0.07869 0.89951 0.40757 0.0
C1184 C 0.25704 0.2923 0.33248 0.0
C1185 C 0.27252 0.31374 0.33047 0.0
C1186 C 0.26032 0.27595 0.35571 0.0
C1187 C 0.2791 0.28144 0.37792 0.0
C1188 C 0.29486 0.30293 0.37604 0.0
C1189 C 0.29162 0.31861 0.35217 0.0
C1190 C 0.24347 0.25294 0.35667 0.0
C1191 C 0.31489 0.30957 0.39951 0.0
C1192 C 0.26953 0.25298 0.45308 0.0
C1193 C 0.28773 0.23355 0.45174 0.0
C1194 C 0.26673 0.2689 0.42933 0.0
C1195 C 0.28205 0.26487 0.40337 0.0
C1196 C 0.30024 0.24508 0.40177 0.0
C1197 C 0.30308 0.22985 0.42614 0.0
C1198 C 0.24755 0.29017 0.43212 0.0
C1199 C 0.3165 0.23984 0.37421 0.0
H1200 H 0.24195 0.28849 0.31621 0.0
H1201 H 0.30409 0.33477 0.35058 0.0
H1202 H 0.25567 0.23597 0.35805 0.0
H1203 H 0.23111 0.25414 0.3769 0.0
H1204 H 0.2308 0.25059 0.3368 0.0
H1205 H 0.32531 0.32718 0.39504 0.0
H1206 H 0.30551 0.31177 0.42173 0.0
H1207 H 0.32923 0.29425 0.40066 0.0
H1208 H 0.25774 0.25598 0.47291 0.0
H1209 H 0.31701 0.21469 0.42492 0.0
H1210 H 0.23279 0.28802 0.41431 0.0
H1211 H 0.25757 0.30823 0.42915 0.0
H1212 H 0.23756 0.2911 0.45406 0.0
H1213 H 0.30381 0.2364 0.35456 0.0
H1214 H 0.32933 0.22336 0.3763 0.0
H1215 H 0.32863 0.25635 0.36978 0.0
C1216 C 0.69263 0.84929 0.88606 0.0
C1217 C 0.70196 0.82752 0.8984 0.0
C1218 C 0.67114 0.86196 0.89864 0.0
C1219 C 0.65927 0.8528 0.92441 0.0
C1220 C 0.6694 0.83131 0.93751 0.0
C1221 C 0.69047 0.81877 0.92411 0.0
C1222 C 0.6606 0.88453 0.8838 0.0
C1223 C 0.65763 0.82119 0.9653 0.0
C1224 C 0.61376 0.89072 0.97509 0.0
C1225 C 0.59016 0.87902 0.96821 0.0
C1226 C 0.63646 0.88339 0.95982 0.0
C1227 C 0.63522 0.86437 0.93681 0.0
C1228 C 0.61102 0.85403 0.92825 0.0
C1229 C 0.58882 0.86125 0.94434 0.0
C1230 C 0.66194 0.89459 0.96987 0.0
C1231 C 0.60878 0.83416 0.90337 0.0
H1232 H 0.70167 0.85593 0.86611 0.0
H1233 H 0.69801 0.80203 0.93371 0.0
H1234 H 0.64107 0.88018 0.8748 0.0
H1235 H 0.65848 0.90052 0.90026 0.0
H1236 H 0.67315 0.89034 0.86526 0.0
H1237 H 0.66908 0.80553 0.97393 0.0
H1238 H 0.65613 0.83626 0.98307 0.0
H1239 H 0.63777 0.81434 0.96046 0.0
H1240 H 0.61479 0.90438 0.99367 0.0
H1241 H 0.57047 0.8524 0.93883 0.0
H1242 H 0.67374 0.89976 0.95046 0.0
H1243 H 0.67305 0.88047 0.98189 0.0
H1244 H 0.65929 0.91143 0.98501 0.0
H1245 H 0.61983 0.83965 0.88351 0.0
H1246 H 0.58837 0.83066 0.89676 0.0
H1247 H 0.61715 0.81636 0.91067 0.0
C1248 C 0.22676 0.81083 0.8411 0.0
C1249 C 0.25211 0.81271 0.83008 0.0
C1250 C 0.22006 0.79261 0.86119 0.0
C1251 C 0.23892 0.77524 0.86974 0.0
C1252 C 0.26413 0.7761 0.85751 0.0
C1253 C 0.27053 0.79502 0.83819 0.0
C1254 C 0.19311 0.79259 0.87418 0.0
C1255 C 0.28462 0.7575 0.86557 0.0
C1256 C 0.23602 0.74603 0.9448 0.0
C1257 C 0.22598 0.7223 0.9372 0.0
C1258 C 0.23912 0.76386 0.92322 0.0
C1259 C 0.23295 0.75737 0.89314 0.0
C1260 C 0.22233 0.73352 0.88545 0.0
C1261 C 0.21857 0.71633 0.90777 0.0
C1262 C 0.24969 0.78937 0.93249 0.0
C1263 C 0.21623 0.72569 0.85351 0.0
H1264 H 0.2121 0.82386 0.83436 0.0
H1265 H 0.29022 0.79632 0.83018 0.0
H1266 H 0.18415 0.77384 0.87072 0.0
H1267 H 0.19407 0.79675 0.89859 0.0
H1268 H 0.18036 0.80665 0.86422 0.0
H1269 H 0.30228 0.75894 0.85164 0.0
H1270 H 0.29013 0.76077 0.88929 0.0
H1271 H 0.27701 0.73812 0.86293 0.0
H1272 H 0.24169 0.75054 0.96766 0.0
H1273 H 0.21116 0.69778 0.90196 0.0
H1274 H 0.23715 0.80425 0.92397 0.0
H1275 H 0.26919 0.79172 0.9227 0.0
H1276 H 0.25119 0.79218 0.9571 0.0
H1277 H 0.20368 0.73976 0.84338 0.0
H1278 H 0.20652 0.70716 0.85152 0.0
H1279 H 0.23442 0.72465 0.84035 0.0
C1280 C 0.43535 0.39377 0.84994 0.0
C1281 C 0.40907 0.39613 0.85717 0.0
C1282 C 0.45333 0.38622 0.87112 0.0
C1283 C 0.44477 0.38112 0.9002 0.0
C1284 C 0.4184 0.38442 0.90788 0.0
C1285 C 0.40088 0.39183 0.88626 0.0
C1286 C 0.48128 0.38282 0.86211 0.0
C1287 C 0.40854 0.37943 0.93872 0.0
C1288 C 0.48117 0.33549 0.9468 0.0
C1289 C 0.49411 0.35166 0.96726 0.0
C1290 C 0.4657 0.34487 0.92429 0.0
C1291 C 0.46297 0.37108 0.92225 0.0
C1292 C 0.47646 0.38752 0.94235 0.0
C1293 C 0.49192 0.37762 0.96458 0.0
C1294 C 0.45172 0.32672 0.90316 0.0
C1295 C 0.47393 0.41557 0.94093 0.0
H1296 H 0.44169 0.39694 0.82741 0.0
H1297 H 0.38061 0.39399 0.892 0.0
H1298 H 0.49404 0.39336 0.87805 0.0
H1299 H 0.48661 0.36276 0.86277 0.0
H1300 H 0.48512 0.38916 0.83932 0.0
H1301 H 0.38776 0.38425 0.94156 0.0
H1302 H 0.41111 0.35934 0.94311 0.0
H1303 H 0.41983 0.39038 0.95577 0.0
H1304 H 0.48285 0.31541 0.94858 0.0
H1305 H 0.50185 0.39026 0.98028 0.0
H1306 H 0.45609 0.33096 0.87974 0.0
H1307 H 0.43054 0.32876 0.90634 0.0
H1308 H 0.45709 0.30696 0.9066 0.0
H1309 H 0.47846 0.42144 0.91814 0.0
H1310 H 0.48689 0.42579 0.957 0.0
H1311 H 0.45369 0.42124 0.94591 0.0
C1312 C 0.84631 0.35965 0.94464 0.0
C1313 C 0.82303 0.34648 0.94704 0.0
C1314 C 0.85364 0.37773 0.96655 0.0
C1315 C 0.83735 0.38251 0.9915 0.0
C1316 C 0.81463 0.36809 0.99491 0.0
C1317 C 0.80755 0.3504 0.97237 0.0
C1318 C 0.87773 0.39298 0.96174 0.0
C1319 C 0.79699 0.3724 0.02149 0.0
C1320 C 0.8587 0.4237 0.05813 0.0
C1321 C 0.84519 0.44575 0.05297 0.0
C1322 C 0.857 0.40295 0.03785 0.0
C1323 C 0.84194 0.40474 0.01175 0.0
C1324 C 0.8297 0.42759 0.00565 0.0
C1325 C 0.8312 0.44772 0.02657 0.0
C1326 C 0.87013 0.37879 0.04507 0.0
C1327 C 0.8141 0.43049 0.97762 0.0
H1328 H 0.85808 0.35684 0.92474 0.0
H1329 H 0.78959 0.34012 0.97413 0.0
H1330 H 0.87214 0.41158 0.95386 0.0
H1331 H 0.88862 0.39617 0.98281 0.0
H1332 H 0.89071 0.3838 0.9448 0.0
H1333 H 0.7821 0.35752 0.02278 0.0
H1334 H 0.80834 0.37318 0.04245 0.0
H1335 H 0.78703 0.39067 0.02 0.0
H1336 H 0.86933 0.42223 0.07874 0.0
H1337 H 0.82095 0.46493 0.0226 0.0
H1338 H 0.88175 0.37148 0.02577 0.0
H1339 H 0.85528 0.36448 0.04961 0.0
H1340 H 0.88293 0.38111 0.06482 0.0
H1341 H 0.82563 0.42443 0.9577 0.0
H1342 H 0.80771 0.45011 0.97511 0.0
H1343 H 0.79672 0.41836 0.97805 0.0
C1344 C 0.62511 0.30252 0.23785 0.0
C1345 C 0.6502 0.29309 0.23369 0.0
C1346 C 0.61011 0.30919 0.21347 0.0
C1347 C 0.62057 0.30647 0.18433 0.0
C1348 C 0.64626 0.29787 0.18015 0.0
C1349 C 0.66074 0.29121 0.20489 0.0
C1350 C 0.58275 0.31816 0.21877 0.0
C1351 C 0.65815 0.2949 0.14945 0.0
C1352 C 0.57505 0.2939 0.11944 0.0
C1353 C 0.57391 0.31734 0.10672 0.0
C1354 C 0.58987 0.29029 0.14492 0.0
C1355 C 0.60402 0.31057 0.15802 0.0
C1356 C 0.60281 0.33436 0.14554 0.0
C1357 C 0.58769 0.33749 0.12003 0.0
C1358 C 0.59058 0.26464 0.15764 0.0
C1359 C 0.61773 0.35638 0.15892 0.0
H1360 H 0.61688 0.30385 0.26009 0.0
H1361 H 0.6803 0.28431 0.2017 0.0
H1362 H 0.57942 0.33592 0.20757 0.0
H1363 H 0.56901 0.30413 0.20898 0.0
H1364 H 0.57825 0.32118 0.24287 0.0
H1365 H 0.67896 0.28985 0.15024 0.0
H1366 H 0.64779 0.28004 0.13618 0.0
H1367 H 0.65614 0.3125 0.13755 0.0
H1368 H 0.56437 0.27823 0.10943 0.0
H1369 H 0.5869 0.35566 0.11034 0.0
H1370 H 0.58443 0.26585 0.18134 0.0
H1371 H 0.61063 0.2573 0.15694 0.0
H1372 H 0.57788 0.25102 0.14526 0.0
H1373 H 0.61235 0.35973 0.18269 0.0
H1374 H 0.61419 0.3738 0.14703 0.0
H1375 H 0.63874 0.35223 0.15818 0.0
C1376 C 0.84399 0.66484 0.22886 0.0
C1377 C 0.83656 0.66566 0.25889 0.0
C1378 C 0.85244 0.64243 0.21469 0.0
C1379 C 0.85354 0.62049 0.23109 0.0
C1380 C 0.84946 0.62209 0.26228 0.0
C1381 C 0.84071 0.64469 0.27584 0.0
C1382 C 0.85682 0.64159 0.18141 0.0
C1383 C 0.85144 0.59932 0.28071 0.0
C1384 C 0.82528 0.56501 0.1879 0.0
C1385 C 0.84739 0.5526 0.17679 0.0
C1386 C 0.82721 0.58653 0.20656 0.0
C1387 C 0.85195 0.59581 0.21473 0.0
C1388 C 0.87441 0.58257 0.20517 0.0
C1389 C 0.87187 0.56111 0.18605 0.0
C1390 C 0.80266 0.59998 0.2163 0.0
C1391 C 0.90107 0.5916 0.21394 0.0
H1392 H 0.84085 0.68105 0.2157 0.0
H1393 H 0.83549 0.6455 0.29926 0.0
H1394 H 0.87395 0.63001 0.17525 0.0
H1395 H 0.83978 0.63291 0.17006 0.0
H1396 H 0.85958 0.6606 0.17296 0.0
H1397 H 0.85391 0.60461 0.30475 0.0
H1398 H 0.83347 0.58811 0.27811 0.0
H1399 H 0.86786 0.58726 0.27313 0.0
H1400 H 0.80626 0.55838 0.18124 0.0
H1401 H 0.88905 0.5515 0.17769 0.0
H1402 H 0.80234 0.61897 0.20733 0.0
H1403 H 0.80188 0.60228 0.24095 0.0
H1404 H 0.78499 0.58986 0.20854 0.0
H1405 H 0.90701 0.60669 0.19925 0.0
H1406 H 0.91555 0.5763 0.21155 0.0
H1407 H 0.90135 0.59943 0.23726 0.0
C1408 C 0.374 0.94364 0.15339 0.0
C1409 C 0.37797 0.93954 0.18364 0.0
C1410 C 0.39465 0.94248 0.13308 0.0
C1411 C 0.41978 0.93701 0.14332 0.0
C1412 C 0.42421 0.93486 0.17418 0.0
C1413 C 0.40322 0.93617 0.19399 0.0
C1414 C 0.38915 0.945 0.10037 0.0
C1415 C 0.45074 0.92916 0.18601 0.0
C1416 C 0.46105 0.89602 0.09144 0.0
C1417 C 0.47876 0.91317 0.08038 0.0
C1418 C 0.44188 0.90367 0.11187 0.0
C1419 C 0.44023 0.92918 0.12156 0.0
C1420 C 0.45798 0.94669 0.11056 0.0
C1421 C 0.47713 0.93846 0.09006 0.0
C1422 C 0.42337 0.88435 0.12311 0.0
C1423 C 0.45666 0.97404 0.12038 0.0
H1424 H 0.35452 0.94616 0.14521 0.0
H1425 H 0.40643 0.9335 0.21747 0.0
H1426 H 0.40404 0.95675 0.09 0.0
H1427 H 0.38978 0.92623 0.08877 0.0
H1428 H 0.36982 0.95332 0.09664 0.0
H1429 H 0.45171 0.93192 0.21066 0.0
H1430 H 0.45574 0.90939 0.17991 0.0
H1431 H 0.46556 0.94114 0.17592 0.0
H1432 H 0.46214 0.87643 0.08418 0.0
H1433 H 0.49072 0.95181 0.08157 0.0
H1434 H 0.40321 0.88944 0.1176 0.0
H1435 H 0.42467 0.88386 0.14772 0.0
H1436 H 0.42734 0.86525 0.11336 0.0
H1437 H 0.43749 0.98178 0.11473 0.0
H1438 H 0.4719 0.98526 0.10977 0.0
H1439 H 0.45878 0.97623 0.14493 0.0
C1440 C 0.20897 0.52538 0.139 0.0
C1441 C 0.21299 0.50191 0.1246 0.0
C1442 C 0.20518 0.54669 0.12258 0.0
C1443 C 0.20594 0.54442 0.09106 0.0
C1444 C 0.20842 0.52048 0.07645 0.0
C1445 C 0.21176 0.4994 0.09348 0.0
C1446 C 0.20218 0.57183 0.13898 0.0
C1447 C 0.2096 0.51734 0.0429 0.0
C1448 C 0.18978 0.60102 0.04632 0.0
C1449 C 0.21443 0.61128 0.04239 0.0
C1450 C 0.18653 0.57916 0.06215 0.0
C1451 C 0.2085 0.56727 0.07381 0.0
C1452 C 0.2334 0.57743 0.06954 0.0
C1453 C 0.23602 0.59935 0.05409 0.0
C1454 C 0.1597 0.56894 0.06666 0.0
C1455 C 0.25738 0.56516 0.08133 0.0
H1456 H 0.20956 0.52716 0.16314 0.0
H1457 H 0.21489 0.48118 0.08244 0.0
H1458 H 0.22033 0.58269 0.137 0.0
H1459 H 0.18646 0.58276 0.12903 0.0
H1460 H 0.19794 0.56994 0.16303 0.0
H1461 H 0.20788 0.4974 0.03501 0.0
H1462 H 0.19404 0.52822 0.03258 0.0
H1463 H 0.22833 0.52466 0.03494 0.0
H1464 H 0.17304 0.6102 0.03731 0.0
H1465 H 0.25518 0.60699 0.05088 0.0
H1466 H 0.15534 0.56864 0.09084 0.0
H1467 H 0.15853 0.54935 0.0575 0.0
H1468 H 0.14466 0.5802 0.05584 0.0
H1469 H 0.25635 0.56479 0.10598 0.0
H1470 H 0.27538 0.57506 0.07523 0.0
H1471 H 0.25867 0.54548 0.07247 0.0
C1472 C 0.37743 0.33824 0.17367 0.0
C1473 C 0.35332 0.32655 0.16923 0.0
C1474 C 0.39929 0.33027 0.15733 0.0
C1475 C 0.39692 0.31072 0.13516 0.0
C1476 C 0.37309 0.298 0.13148 0.0
C1477 C 0.35174 0.30574 0.14896 0.0
C1478 C 0.42461 0.34382 0.16263 0.0
C1479 C 0.36962 0.27735 0.10773 0.0
C1480 C 0.44323 0.31791 0.0707 0.0
C1481 C 0.46195 0.29985 0.07619 0.0
C1482 C 0.42126 0.32064 0.08885 0.0
C1483 C 0.41854 0.30562 0.11383 0.0
C1484 C 0.43728 0.28706 0.1192 0.0
C1485 C 0.45864 0.28411 0.09992 0.0
C1486 C 0.40132 0.34011 0.08177 0.0
C1487 C 0.43554 0.2713 0.14613 0.0
H1488 H 0.37913 0.3545 0.18884 0.0
H1489 H 0.33354 0.29596 0.14589 0.0
H1490 H 0.44075 0.33025 0.16382 0.0
H1491 H 0.42868 0.35589 0.14376 0.0
H1492 H 0.4243 0.35579 0.18352 0.0
H1493 H 0.35074 0.26767 0.10968 0.0
H1494 H 0.37074 0.28538 0.08543 0.0
H1495 H 0.38531 0.26331 0.10886 0.0
H1496 H 0.4459 0.33001 0.05223 0.0
H1497 H 0.47341 0.27038 0.10428 0.0
H1498 H 0.40148 0.35543 0.09929 0.0
H1499 H 0.38169 0.33175 0.08151 0.0
H1500 H 0.40496 0.34834 0.0599 0.0
H1501 H 0.43835 0.28341 0.16662 0.0
H1502 H 0.45034 0.25624 0.14567 0.0
H1503 H 0.41612 0.26267 0.1477 0.0
C1504 C 0.74776 0.37893 0.27134 0.0
C1505 C 0.75934 0.35544 0.26536 0.0
C1506 C 0.7526 0.39913 0.25321 0.0
C1507 C 0.76888 0.39567 0.22798 0.0
C1508 C 0.78036 0.37201 0.22155 0.0
C1509 C 0.77578 0.35235 0.24051 0.0
C1510 C 0.74042 0.42423 0.26115 0.0
C1511 C 0.79757 0.36743 0.19463 0.0
C1512 C 0.76494 0.44067 0.16493 0.0
C1513 C 0.78762 0.45466 0.16938 0.0
C1514 C 0.75837 0.42158 0.18406 0.0
C1515 C 0.77452 0.41689 0.20863 0.0
C1516 C 0.79685 0.43174 0.21388 0.0
C1517 C 0.80332 0.45019 0.19396 0.0
C1518 C 0.73473 0.40578 0.1773 0.0
C1519 C 0.81421 0.42782 0.24024 0.0
H1520 H 0.73465 0.38155 0.29006 0.0
H1521 H 0.78534 0.33457 0.23588 0.0
H1522 H 0.75567 0.43871 0.26419 0.0
H1523 H 0.72783 0.42993 0.24271 0.0
H1524 H 0.72868 0.424 0.28188 0.0
H1525 H 0.80381 0.34758 0.19179 0.0
H1526 H 0.78728 0.37261 0.17416 0.0
H1527 H 0.81504 0.3794 0.19673 0.0
H1528 H 0.75288 0.44397 0.14581 0.0
H1529 H 0.82077 0.46113 0.1976 0.0
H1530 H 0.72176 0.40588 0.197 0.0
H1531 H 0.74063 0.38607 0.1723 0.0
H1532 H 0.72368 0.4124 0.15802 0.0
H1533 H 0.80267 0.42823 0.26112 0.0
H1534 H 0.82961 0.44225 0.24253 0.0
H1535 H 0.82349 0.40914 0.23779 0.0
C1536 C 0.62609 0.80258 0.20234 0.0
C1537 C 0.64858 0.78985 0.19294 0.0
C1538 C 0.60789 0.81037 0.18161 0.0
C1539 C 0.61246 0.80546 0.1508 0.0
C1540 C 0.63466 0.79186 0.14125 0.0
C1541 C 0.65237 0.78408 0.16245 0.0
C1542 C 0.58431 0.82468 0.1926 0.0
C1543 C 0.64023 0.78634 0.10857 0.0
C1544 C 0.55865 0.81175 0.09436 0.0
C1545 C 0.56363 0.83561 0.08396 0.0
C1546 C 0.57405 0.80185 0.11662 0.0
C1547 C 0.59505 0.81604 0.12842 0.0
C1548 C 0.60005 0.84019 0.11816 0.0
C1549 C 0.58419 0.84972 0.09616 0.0
C1550 C 0.56803 0.77615 0.12732 0.0
C1551 C 0.62244 0.85579 0.13002 0.0
H1552 H 0.62315 0.80729 0.22584 0.0
H1553 H 0.66947 0.77381 0.1551 0.0
H1554 H 0.58553 0.8443 0.18575 0.0
H1555 H 0.56657 0.81637 0.18244 0.0
H1556 H 0.58236 0.82487 0.21725 0.0
H1557 H 0.65764 0.77442 0.10493 0.0
H1558 H 0.62348 0.77678 0.09766 0.0
H1559 H 0.64329 0.80415 0.09734 0.0
H1560 H 0.54268 0.80081 0.08513 0.0
H1561 H 0.58821 0.86814 0.08818 0.0
H1562 H 0.56531 0.7771 0.15186 0.0
H1563 H 0.58451 0.76336 0.1223 0.0
H1564 H 0.55037 0.76796 0.11675 0.0
H1565 H 0.6208 0.85872 0.15457 0.0
H1566 H 0.62343 0.87437 0.12001 0.0
H1567 H 0.64089 0.84576 0.12532 0.0
C1568 C 0.23268 0.78893 0.19747 0.0
C1569 C 0.21501 0.80876 0.19549 0.0
C1570 C 0.23454 0.76998 0.17489 0.0
C1571 C 0.2191 0.7713 0.14907 0.0
C1572 C 0.20035 0.79044 0.14748 0.0
C1573 C 0.19815 0.80859 0.17098 0.0
C1574 C 0.25417 0.74936 0.17794 0.0
C1575 C 0.18386 0.79282 0.12006 0.0
C1576 C 0.25017 0.74357 0.07835 0.0
C1577 C 0.23606 0.72146 0.07346 0.0
C1578 C 0.24425 0.76029 0.10239 0.0
C1579 C 0.22443 0.7542 0.12266 0.0
C1580 C 0.21033 0.73167 0.11797 0.0
C1581 C 0.21599 0.71577 0.093 0.0
C1582 C 0.2592 0.78448 0.10612 0.0
C1583 C 0.18981 0.72406 0.1397 0.0
H1584 H 0.24617 0.78878 0.21584 0.0
H1585 H 0.18388 0.82328 0.16945 0.0
H1586 H 0.24573 0.73092 0.17104 0.0
H1587 H 0.27091 0.7526 0.16315 0.0
H1588 H 0.26137 0.74854 0.20116 0.0
H1589 H 0.16876 0.80748 0.12328 0.0
H1590 H 0.19634 0.79771 0.10105 0.0
H1591 H 0.17434 0.77477 0.1138 0.0
H1592 H 0.26554 0.748 0.063 0.0
H1593 H 0.20524 0.69851 0.08923 0.0
H1594 H 0.27008 0.78486 0.12735 0.0
H1595 H 0.2457 0.80062 0.10731 0.0
H1596 H 0.27309 0.787 0.0876 0.0
H1597 H 0.19855 0.72218 0.16203 0.0
H1598 H 0.18047 0.70603 0.13268 0.0
H1599 H 0.17469 0.7387 0.14211 0.0
C1600 C 0.39543 0.87428 0.84016 0.0
C1601 C 0.37599 0.89198 0.84695 0.0
C1602 C 0.41506 0.86964 0.86063 0.0
C1603 C 0.41488 0.88253 0.88885 0.0
C1604 C 0.39517 0.90014 0.89606 0.0
C1605 C 0.37616 0.90488 0.8749 0.0
C1606 C 0.43603 0.85101 0.85204 0.0
C1607 C 0.39417 0.91399 0.92615 0.0
C1608 C 0.45107 0.85468 0.95263 0.0
C1609 C 0.47282 0.87026 0.9549 0.0
C1610 C 0.43209 0.85836 0.93106 0.0
C1611 C 0.43532 0.87769 0.91092 0.0
C1612 C 0.45767 0.89295 0.91251 0.0
C1613 C 0.47603 0.88924 0.93476 0.0
C1614 C 0.40823 0.84207 0.9304 0.0
C1615 C 0.46204 0.91336 0.89093 0.0
H1616 H 0.39525 0.86386 0.81888 0.0
H1617 H 0.36158 0.91893 0.88021 0.0
H1618 H 0.45526 0.86011 0.85414 0.0
H1619 H 0.43579 0.83537 0.8674 0.0
H1620 H 0.43382 0.84313 0.82885 0.0
H1621 H 0.37697 0.92635 0.92865 0.0
H1622 H 0.39377 0.90044 0.94411 0.0
H1623 H 0.41178 0.9256 0.92945 0.0
H1624 H 0.44847 0.8401 0.96834 0.0
H1625 H 0.49297 0.90117 0.93636 0.0
H1626 H 0.40589 0.83264 0.90805 0.0
H1627 H 0.39083 0.85385 0.93466 0.0
H1628 H 0.40891 0.82756 0.94728 0.0
H1629 H 0.46071 0.90553 0.86766 0.0
H1630 H 0.48118 0.92253 0.89404 0.0
H1631 H 0.44678 0.92783 0.89388 0.0
C1632 C 0.30488 0.51808 0.8864 0.0
C1633 C 0.32237 0.51832 0.86247 0.0
C1634 C 0.30094 0.53943 0.9052 0.0
C1635 C 0.31446 0.56177 0.89968 0.0
C1636 C 0.33303 0.56186 0.87652 0.0
C1637 C 0.33694 0.54007 0.85837 0.0
C1638 C 0.28123 0.53845 0.92998 0.0
C1639 C 0.34772 0.58534 0.86982 0.0
C1640 C 0.27675 0.62006 0.92322 0.0
C1641 C 0.28832 0.62712 0.9505 0.0
C1642 C 0.28602 0.59959 0.90574 0.0
C1643 C 0.30705 0.5855 0.91611 0.0
C1644 C 0.31948 0.59313 0.9431 0.0
C1645 C 0.3101 0.61408 0.95989 0.0
C1646 C 0.27254 0.5924 0.87678 0.0
C1647 C 0.3417 0.57838 0.95508 0.0
H1648 H 0.29326 0.50157 0.88965 0.0
H1649 H 0.35092 0.54033 0.84039 0.0
H1650 H 0.28934 0.54657 0.95114 0.0
H1651 H 0.26411 0.54981 0.92444 0.0
H1652 H 0.2747 0.51904 0.93359 0.0
H1653 H 0.36337 0.58167 0.85322 0.0
H1654 H 0.3342 0.59923 0.8609 0.0
H1655 H 0.35629 0.59394 0.89047 0.0
H1656 H 0.26 0.63024 0.91584 0.0
H1657 H 0.31892 0.61938 0.98112 0.0
H1658 H 0.26247 0.57424 0.87877 0.0
H1659 H 0.28686 0.58996 0.85844 0.0
H1660 H 0.25811 0.60661 0.87058 0.0
H1661 H 0.33451 0.56 0.96209 0.0
H1662 H 0.35105 0.58825 0.97453 0.0
H1663 H 0.35648 0.57458 0.93752 0.0
C1664 C 0.69989 0.26479 0.9199 0.0
C1665 C 0.69797 0.26006 0.88897 0.0
C1666 C 0.67778 0.26562 0.93809 0.0
C1667 C 0.6531 0.26204 0.92501 0.0
C1668 C 0.65114 0.25577 0.89414 0.0
C1669 C 0.6736 0.25463 0.87655 0.0
C1670 C 0.68073 0.27194 0.97103 0.0
C1671 C 0.62519 0.25192 0.87929 0.0
C1672 C 0.59411 0.25512 0.97489 0.0
C1673 C 0.58529 0.27992 0.97779 0.0
C1674 C 0.61621 0.24889 0.95779 0.0
C1675 C 0.6294 0.26785 0.94286 0.0
C1676 C 0.62017 0.29279 0.94519 0.0
C1677 C 0.5984 0.29854 0.96283 0.0
C1678 C 0.62575 0.2222 0.95621 0.0
C1679 C 0.63339 0.3135 0.9292 0.0
H1680 H 0.71853 0.2692 0.92977 0.0
H1681 H 0.67196 0.25037 0.8528 0.0
H1682 H 0.67381 0.2913 0.97616 0.0
H1683 H 0.66879 0.25922 0.98421 0.0
H1684 H 0.70115 0.27065 0.97838 0.0
H1685 H 0.62708 0.24453 0.85585 0.0
H1686 H 0.61315 0.23881 0.89176 0.0
H1687 H 0.61474 0.27005 0.87937 0.0
H1688 H 0.58413 0.24069 0.98658 0.0
H1689 H 0.59155 0.31771 0.96479 0.0
H1690 H 0.64546 0.22139 0.9658 0.0
H1691 H 0.62713 0.2151 0.93265 0.0
H1692 H 0.61293 0.20954 0.96846 0.0
H1693 H 0.65348 0.31587 0.93742 0.0
H1694 H 0.62318 0.33171 0.93243 0.0
H1695 H 0.63449 0.30855 0.90496 0.0
C1696 C 0.80885 0.62878 0.93906 0.0
C1697 C 0.82492 0.6496 0.94515 0.0
C1698 C 0.80708 0.60924 0.95881 0.0
C1699 C 0.82105 0.61082 0.98588 0.0
C1700 C 0.83729 0.63168 0.99226 0.0
C1701 C 0.83937 0.65054 0.97166 0.0
C1702 C 0.79004 0.58701 0.95081 0.0
C1703 C 0.85215 0.6343 0.02114 0.0
C1704 C 0.79613 0.57309 0.04978 0.0
C1705 C 0.81411 0.55352 0.04998 0.0
C1706 C 0.79829 0.592 0.02921 0.0
C1707 C 0.81842 0.59081 0.00772 0.0
C1708 C 0.83619 0.57066 0.00735 0.0
C1709 C 0.83408 0.55249 0.02881 0.0
C1710 C 0.77939 0.61353 0.0309 0.0
C1711 C 0.85741 0.56825 0.98424 0.0
H1712 H 0.79712 0.62787 0.91911 0.0
H1713 H 0.85232 0.66611 0.97649 0.0
H1714 H 0.80117 0.56938 0.95229 0.0
H1715 H 0.77379 0.58627 0.96689 0.0
H1716 H 0.78193 0.58775 0.92799 0.0
H1717 H 0.86339 0.652 0.02312 0.0
H1718 H 0.8386 0.63381 0.0403 0.0
H1719 H 0.86568 0.61836 0.02288 0.0
H1720 H 0.78082 0.57404 0.06633 0.0
H1721 H 0.84789 0.53724 0.02879 0.0
H1722 H 0.76876 0.61443 0.00958 0.0
H1723 H 0.79 0.63146 0.03441 0.0
H1724 H 0.76513 0.6119 0.04924 0.0
H1725 H 0.84899 0.56838 0.96155 0.0
H1726 H 0.86884 0.55082 0.98609 0.0
H1727 H 0.8707 0.58448 0.98668 0.0
loop_
_geom_bond_atom_site_label_1
_geom_bond_atom_site_label_2
_geom_bond_distance
_geom_bond_site_symmetry_2
_ccdc_geom_bond_type
H0 O26 0.856 . S
H1 O29 0.854 . S
H2 C37 0.930 . S
H3 C38 0.930 . S
H4 C40 0.930 . S
H5 C41 0.930 . S
H6 C43 0.931 . S
H7 C44 0.930 . S
H8 C46 0.930 . S
H9 C47 0.929 . S
H10 C49 0.930 . S
H11 C50 0.931 . S
H12 C52 0.930 . S
H13 C53 0.929 . S
H14 C55 0.931 . S
H15 C56 0.930 . S
H16 C58 0.930 . S
H17 C59 0.932 . S
H18 C61 0.930 . S
H19 C62 0.929 . S
H20 C64 0.931 . S
H21 C65 0.930 . S
H22 C67 0.929 . S
H23 C68 0.931 . S
H24 C70 0.930 . S
H25 C71 0.929 . S
O26 H0 0.856 . S
O26 C72 1.300 . S
O27 C72 1.209 . S
O28 C73 1.199 . S
O29 H1 0.854 . S
O29 C73 1.297 . S
C30 C31 1.404 . S
C30 C35 1.397 . S
C30 C36 1.492 . S
C31 C30 1.404 . S
C31 C32 1.396 . S
C31 C42 1.492 . S
C32 C31 1.396 . S
C32 C33 1.397 . S
C32 C48 1.509 . S
C33 C32 1.397 . S
C33 C34 1.412 . S
C33 C54 1.485 . S
C34 C33 1.412 . S
C34 C35 1.388 . S
C34 C60 1.490 . S
C35 C30 1.397 . S
C35 C34 1.388 . S
C35 C66 1.519 . S
C36 C30 1.492 . S
C36 C37 1.363 . S
C36 C41 1.390 . S
C37 H2 0.930 . S
C37 C36 1.363 . S
C37 C38 1.372 . S
C38 H3 0.930 . S
C38 C37 1.372 . S
C38 C39 1.383 . S
C39 C38 1.383 . S
C39 C40 1.395 . S
C40 H4 0.930 . S
C40 C39 1.395 . S
C40 C41 1.362 . S
C41 H5 0.930 . S
C41 C36 1.390 . S
C41 C40 1.362 . S
C42 C31 1.492 . S
C42 C43 1.377 . S
C42 C47 1.397 . S
C43 H6 0.931 . S
C43 C42 1.377 . S
C43 C44 1.376 . S
C44 H7 0.930 . S
C44 C43 1.376 . S
C44 C45 1.376 . S
C45 C44 1.376 . S
C45 C46 1.378 . S
C45 C72 1.486 . S
C46 H8 0.930 . S
C46 C45 1.378 . S
C46 C47 1.376 . S
C47 H9 0.929 . S
C47 C42 1.397 . S
C47 C46 1.376 . S
C48 C32 1.509 . S
C48 C49 1.391 . S
C48 C53 1.386 . S
C49 H10 0.930 . S
C49 C48 1.391 . S
C49 C50 1.375 . S
C50 H11 0.931 . S
C50 C49 1.375 . S
C50 C51 1.375 . S
C51 C50 1.375 . S
C51 C52 1.361 . S
C52 H12 0.930 . S
C52 C51 1.361 . S
C52 C53 1.399 . S
C53 H13 0.929 . S
C53 C48 1.386 . S
C53 C52 1.399 . S
C54 C33 1.485 . S
C54 C55 1.394 . S
C54 C59 1.360 . S
C55 H14 0.931 . S
C55 C54 1.394 . S
C55 C56 1.372 . S
C56 H15 0.930 . S
C56 C55 1.372 . S
C56 C57 1.397 . S
C57 C56 1.397 . S
C57 C58 1.390 . S
C57 C73 1.476 . S
C58 H16 0.930 . S
C58 C57 1.390 . S
C58 C59 1.366 . S
C59 H17 0.932 . S
C59 C54 1.360 . S
C59 C58 1.366 . S
C60 C34 1.490 . S
C60 C61 1.380 . S
C60 C65 1.386 . S
C61 H18 0.930 . S
C61 C60 1.380 . S
C61 C62 1.381 . S
C62 H19 0.929 . S
C62 C61 1.381 . S
C62 C63 1.371 . S
C63 C62 1.371 . S
C63 C64 1.380 . S
C64 H20 0.931 . S
C64 C63 1.380 . S
C64 C65 1.387 . S
C65 H21 0.930 . S
C65 C60 1.386 . S
C65 C64 1.387 . S
C66 C35 1.519 . S
C66 C67 1.377 . S
C66 C71 1.361 . S
C67 H22 0.929 . S
C67 C66 1.377 . S
C67 C68 1.386 . S
C68 H23 0.931 . S
C68 C67 1.386 . S
C68 C69 1.363 . S
C69 C68 1.363 . S
C69 C70 1.385 . S
C70 H24 0.930 . S
C70 C69 1.385 . S
C70 C71 1.396 . S
C71 H25 0.929 . S
C71 C66 1.361 . S
C71 C70 1.396 . S
C72 O26 1.300 . S
C72 O27 1.209 . S
C72 C45 1.486 . S
C73 O28 1.199 . S
C73 O29 1.297 . S
C73 C57 1.476 . S
H74 O100 0.856 . S
H75 O103 0.854 . S
H76 C111 0.930 . S
H77 C112 0.930 . S
H78 C114 0.930 . S
H79 C115 0.930 . S
H80 C117 0.931 . S
H81 C118 0.930 . S
H82 C120 0.930 . S
H83 C121 0.929 . S
H84 C123 0.930 . S
H85 C124 0.931 . S
H86 C126 0.930 . S
H87 C127 0.929 . S
H88 C129 0.931 . S
H89 C130 0.930 . S
H90 C132 0.930 . S
H91 C133 0.932 . S
H92 C135 0.930 . S
H93 C136 0.929 . S
H94 C138 0.931 . S
H95 C139 0.930 . S
H96 C141 0.929 . S
H97 C142 0.931 . S
H98 C144 0.930 . S
H99 C145 0.929 . S
O100 H74 0.856 . S
O100 C146 1.300 . S
O101 C146 1.209 . S
O102 C147 1.199 . S
O103 H75 0.854 . S
O103 C147 1.297 . S
C104 C105 1.404 . S
C104 C109 1.397 . S
C104 C110 1.492 . S
C105 C104 1.404 . S
C105 C106 1.396 . S
C105 C116 1.492 . S
C106 C105 1.396 . S
C106 C107 1.397 . S
C106 C122 1.509 . S
C107 C106 1.397 . S
C107 C108 1.412 . S
C107 C128 1.485 . S
C108 C107 1.412 . S
C108 C109 1.388 . S
C108 C134 1.490 . S
C109 C104 1.397 . S
C109 C108 1.388 . S
C109 C140 1.519 . S
C110 C104 1.492 . S
C110 C111 1.363 . S
C110 C115 1.390 . S
C111 H76 0.930 . S
C111 C110 1.363 . S
C111 C112 1.372 . S
C112 H77 0.930 . S
C112 C111 1.372 . S
C112 C113 1.383 . S
C113 C112 1.383 . S
C113 C114 1.395 . S
C114 H78 0.930 . S
C114 C113 1.395 . S
C114 C115 1.362 . S
C115 H79 0.930 . S
C115 C110 1.390 . S
C115 C114 1.362 . S
C116 C105 1.492 . S
C116 C117 1.377 . S
C116 C121 1.397 . S
C117 H80 0.931 . S
C117 C116 1.377 . S
C117 C118 1.376 . S
C118 H81 0.930 . S
C118 C117 1.376 . S
C118 C119 1.376 . S
C119 C118 1.376 . S
C119 C120 1.378 . S
C119 C146 1.486 . S
C120 H82 0.930 . S
C120 C119 1.378 . S
C120 C121 1.376 . S
C121 H83 0.929 . S
C121 C116 1.397 . S
C121 C120 1.376 . S
C122 C106 1.509 . S
C122 C123 1.391 . S
C122 C127 1.386 . S
C123 H84 0.930 . S
C123 C122 1.391 . S
C123 C124 1.375 . S
C124 H85 0.931 . S
C124 C123 1.375 . S
C124 C125 1.375 . S
C125 C124 1.375 . S
C125 C126 1.361 . S
C126 H86 0.930 . S
C126 C125 1.361 . S
C126 C127 1.399 . S
C127 H87 0.929 . S
C127 C122 1.386 . S
C127 C126 1.399 . S
C128 C107 1.485 . S
C128 C129 1.394 . S
C128 C133 1.360 . S
C129 H88 0.931 . S
C129 C128 1.394 . S
C129 C130 1.372 . S
C130 H89 0.930 . S
C130 C129 1.372 . S
C130 C131 1.397 . S
C131 C130 1.397 . S
C131 C132 1.390 . S
C131 C147 1.476 . S
C132 H90 0.930 . S
C132 C131 1.390 . S
C132 C133 1.366 . S
C133 H91 0.932 . S
C133 C128 1.360 . S
C133 C132 1.366 . S
C134 C108 1.490 . S
C134 C135 1.380 . S
C134 C139 1.386 . S
C135 H92 0.930 . S
C135 C134 1.380 . S
C135 C136 1.381 . S
C136 H93 0.929 . S
C136 C135 1.381 . S
C136 C137 1.371 . S
C137 C136 1.371 . S
C137 C138 1.380 . S
C138 H94 0.931 . S
C138 C137 1.380 . S
C138 C139 1.387 . S
C139 H95 0.930 . S
C139 C134 1.386 . S
C139 C138 1.387 . S
C140 C109 1.519 . S
C140 C141 1.377 . S
C140 C145 1.361 . S
C141 H96 0.929 . S
C141 C140 1.377 . S
C141 C142 1.386 . S
C142 H97 0.931 . S
C142 C141 1.386 . S
C142 C143 1.363 . S
C143 C142 1.363 . S
C143 C144 1.385 . S
C144 H98 0.930 . S
C144 C143 1.385 . S
C144 C145 1.396 . S
C145 H99 0.929 . S
C145 C140 1.361 . S
C145 C144 1.396 . S
C146 O100 1.300 . S
C146 O101 1.209 . S
C146 C119 1.486 . S
C147 O102 1.199 . S
C147 O103 1.297 . S
C147 C131 1.476 . S
H148 O174 0.856 . S
H149 O177 0.854 . S
H150 C185 0.930 . S
H151 C186 0.930 . S
H152 C188 0.930 . S
H153 C189 0.930 . S
H154 C191 0.931 . S
H155 C192 0.930 . S
H156 C194 0.930 . S
H157 C195 0.929 . S
H158 C197 0.930 . S
H159 C198 0.931 . S
H160 C200 0.930 . S
H161 C201 0.929 . S
H162 C203 0.931 . S
H163 C204 0.930 . S
H164 C206 0.930 . S
H165 C207 0.932 . S
H166 C209 0.930 . S
H167 C210 0.929 . S
H168 C212 0.931 . S
H169 C213 0.930 . S
H170 C215 0.929 . S
H171 C216 0.931 . S
H172 C218 0.930 . S
H173 C219 0.929 . S
O174 H148 0.856 . S
O174 C220 1.300 . S
O175 C220 1.209 . S
O176 C221 1.199 . S
O177 H149 0.854 . S
O177 C221 1.297 . S
C178 C179 1.404 . S
C178 C183 1.397 . S
C178 C184 1.492 . S
C179 C178 1.404 . S
C179 C180 1.396 . S
C179 C190 1.492 . S
C180 C179 1.396 . S
C180 C181 1.397 . S
C180 C196 1.509 . S
C181 C180 1.397 . S
C181 C182 1.412 . S
C181 C202 1.485 . S
C182 C181 1.412 . S
C182 C183 1.388 . S
C182 C208 1.490 . S
C183 C178 1.397 . S
C183 C182 1.388 . S
C183 C214 1.519 . S
C184 C178 1.492 . S
C184 C185 1.363 . S
C184 C189 1.390 . S
C185 H150 0.930 . S
C185 C184 1.363 . S
C185 C186 1.372 . S
C186 H151 0.930 . S
C186 C185 1.372 . S
C186 C187 1.383 . S
C187 C186 1.383 . S
C187 C188 1.395 . S
C188 H152 0.930 . S
C188 C187 1.395 . S
C188 C189 1.362 . S
C189 H153 0.930 . S
C189 C184 1.390 . S
C189 C188 1.362 . S
C190 C179 1.492 . S
C190 C191 1.377 . S
C190 C195 1.397 . S
C191 H154 0.931 . S
C191 C190 1.377 . S
C191 C192 1.376 . S
C192 H155 0.930 . S
C192 C191 1.376 . S
C192 C193 1.376 . S
C193 C192 1.376 . S
C193 C194 1.378 . S
C193 C220 1.486 . S
C194 H156 0.930 . S
C194 C193 1.378 . S
C194 C195 1.376 . S
C195 H157 0.929 . S
C195 C190 1.397 . S
C195 C194 1.376 . S
C196 C180 1.509 . S
C196 C197 1.391 . S
C196 C201 1.386 . S
C197 H158 0.930 . S
C197 C196 1.391 . S
C197 C198 1.375 . S
C198 H159 0.931 . S
C198 C197 1.375 . S
C198 C199 1.375 . S
C199 C198 1.375 . S
C199 C200 1.361 . S
C200 H160 0.930 . S
C200 C199 1.361 . S
C200 C201 1.399 . S
C201 H161 0.929 . S
C201 C196 1.386 . S
C201 C200 1.399 . S
C202 C181 1.485 . S
C202 C203 1.394 . S
C202 C207 1.360 . S
C203 H162 0.931 . S
C203 C202 1.394 . S
C203 C204 1.372 . S
C204 H163 0.930 . S
C204 C203 1.372 . S
C204 C205 1.397 . S
C205 C204 1.397 . S
C205 C206 1.390 . S
C205 C221 1.476 . S
C206 H164 0.930 . S
C206 C205 1.390 . S
C206 C207 1.366 . S
C207 H165 0.932 . S
C207 C202 1.360 . S
C207 C206 1.366 . S
C208 C182 1.490 . S
C208 C209 1.380 . S
C208 C213 1.386 . S
C209 H166 0.930 . S
C209 C208 1.380 . S
C209 C210 1.381 . S
C210 H167 0.929 . S
C210 C209 1.381 . S
C210 C211 1.371 . S
C211 C210 1.371 . S
C211 C212 1.380 . S
C212 H168 0.931 . S
C212 C211 1.380 . S
C212 C213 1.387 . S
C213 H169 0.930 . S
C213 C208 1.386 . S
C213 C212 1.387 . S
C214 C183 1.519 . S
C214 C215 1.377 . S
C214 C219 1.361 . S
C215 H170 0.929 . S
C215 C214 1.377 . S
C215 C216 1.386 . S
C216 H171 0.931 . S
C216 C215 1.386 . S
C216 C217 1.363 . S
C217 C216 1.363 . S
C217 C218 1.385 . S
C218 H172 0.930 . S
C218 C217 1.385 . S
C218 C219 1.396 . S
C219 H173 0.929 . S
C219 C214 1.361 . S
C219 C218 1.396 . S
C220 O174 1.300 . S
C220 O175 1.209 . S
C220 C193 1.486 . S
C221 O176 1.199 . S
C221 O177 1.297 . S
C221 C205 1.476 . S
H222 O248 0.856 . S
H223 O251 0.854 . S
H224 C259 0.930 . S
H225 C260 0.930 . S
H226 C262 0.930 . S
H227 C263 0.930 . S
H228 C265 0.931 . S
H229 C266 0.930 . S
H230 C268 0.930 . S
H231 C269 0.929 . S
H232 C271 0.930 . S
H233 C272 0.931 . S
H234 C274 0.930 . S
H235 C275 0.929 . S
H236 C277 0.931 . S
H237 C278 0.930 . S
H238 C280 0.930 . S
H239 C281 0.932 . S
H240 C283 0.930 . S
H241 C284 0.929 . S
H242 C286 0.931 . S
H243 C287 0.930 . S
H244 C289 0.929 . S
H245 C290 0.931 . S
H246 C292 0.930 . S
H247 C293 0.929 . S
O248 H222 0.856 . S
O248 C294 1.300 . S
O249 C294 1.209 . S
O250 C295 1.199 . S
O251 H223 0.854 . S
O251 C295 1.297 . S
C252 C253 1.404 . S
C252 C257 1.397 . S
C252 C258 1.492 . S
C253 C252 1.404 . S
C253 C254 1.396 . S
C253 C264 1.492 . S
C254 C253 1.396 . S
C254 C255 1.397 . S
C254 C270 1.509 . S
C255 C254 1.397 . S
C255 C256 1.412 . S
C255 C276 1.485 . S
C256 C255 1.412 . S
C256 C257 1.388 . S
C256 C282 1.490 . S
C257 C252 1.397 . S
C257 C256 1.388 . S
C257 C288 1.519 . S
C258 C252 1.492 . S
C258 C259 1.363 . S
C258 C263 1.390 . S
C259 H224 0.930 . S
C259 C258 1.363 . S
C259 C260 1.372 . S
C260 H225 0.930 . S
C260 C259 1.372 . S
C260 C261 1.383 . S
C261 C260 1.383 . S
C261 C262 1.395 . S
C262 H226 0.930 . S
C262 C261 1.395 . S
C262 C263 1.362 . S
C263 H227 0.930 . S
C263 C258 1.390 . S
C263 C262 1.362 . S
C264 C253 1.492 . S
C264 C265 1.377 . S
C264 C269 1.397 . S
C265 H228 0.931 . S
C265 C264 1.377 . S
C265 C266 1.376 . S
C266 H229 0.930 . S
C266 C265 1.376 . S
C266 C267 1.376 1_565 S
C267 C266 1.376 1_545 S
C267 C268 1.378 . S
C267 C294 1.486 . S
C268 H230 0.930 . S
C268 C267 1.378 . S
C268 C269 1.376 1_545 S
C269 H231 0.929 . S
C269 C264 1.397 . S
C269 C268 1.376 1_565 S
C270 C254 1.509 . S
C270 C271 1.391 . S
C270 C275 1.386 . S
C271 H232 0.930 . S
C271 C270 1.391 . S
C271 C272 1.375 . S
C272 H233 0.931 . S
C272 C271 1.375 . S
C272 C273 1.375 . S
C273 C272 1.375 . S
C273 C274 1.361 . S
C274 H234 0.930 . S
C274 C273 1.361 . S
C274 C275 1.399 . S
C275 H235 0.929 . S
C275 C270 1.386 . S
C275 C274 1.399 . S
C276 C255 1.485 . S
C276 C277 1.394 . S
C276 C281 1.360 . S
C277 H236 0.931 . S
C277 C276 1.394 . S
C277 C278 1.372 . S
C278 H237 0.930 . S
C278 C277 1.372 . S
C278 C279 1.397 . S
C279 C278 1.397 . S
C279 C280 1.390 . S
C279 C295 1.476 . S
C280 H238 0.930 . S
C280 C279 1.390 . S
C280 C281 1.366 . S
C281 H239 0.932 . S
C281 C276 1.360 . S
C281 C280 1.366 . S
C282 C256 1.490 . S
C282 C283 1.380 . S
C282 C287 1.386 . S
C283 H240 0.930 . S
C283 C282 1.380 . S
C283 C284 1.381 . S
C284 H241 0.929 . S
C284 C283 1.381 . S
C284 C285 1.371 . S
C285 C284 1.371 . S
C285 C286 1.380 . S
C286 H242 0.931 . S
C286 C285 1.380 . S
C286 C287 1.387 . S
C287 H243 0.930 . S
C287 C282 1.386 . S
C287 C286 1.387 . S
C288 C257 1.519 . S
C288 C289 1.377 . S
C288 C293 1.361 . S
C289 H244 0.929 . S
C289 C288 1.377 . S
C289 C290 1.386 . S
C290 H245 0.931 . S
C290 C289 1.386 . S
C290 C291 1.363 . S
C291 C290 1.363 . S
C291 C292 1.385 . S
C292 H246 0.930 . S
C292 C291 1.385 . S
C292 C293 1.396 . S
C293 H247 0.929 . S
C293 C288 1.361 . S
C293 C292 1.396 . S
C294 O248 1.300 . S
C294 O249 1.209 . S
C294 C267 1.486 . S
C295 O250 1.199 . S
C295 O251 1.297 . S
C295 C279 1.476 . S
H296 O322 0.871 . S
H297 O325 0.854 . S
H298 C333 0.930 . S
H299 C334 0.930 . S
H300 C336 0.930 . S
H301 C337 0.930 . S
H302 C339 0.931 . S
H303 C340 0.930 . S
H304 C342 0.930 . S
H305 C343 0.929 . S
H306 C345 0.930 . S
H307 C346 0.931 . S
H308 C348 0.930 . S
H309 C349 0.929 . S
H310 C351 0.931 . S
H311 C352 0.930 . S
H312 C354 0.930 . S
H313 C355 0.932 . S
H314 C357 0.930 . S
H315 C358 0.929 . S
H316 C360 0.931 . S
H317 C361 0.930 . S
H318 C363 0.929 . S
H319 C364 0.931 . S
H320 C366 0.930 . S
H321 C367 0.929 . S
O322 H296 0.871 . S
O322 C368 1.297 1_545 S
O323 C368 1.209 1_545 S
O324 C369 1.199 . S
O325 H297 0.854 . S
O325 C369 1.297 . S
C326 C327 1.404 . S
C326 C331 1.397 . S
C326 C332 1.492 . S
C327 C326 1.404 . S
C327 C328 1.396 . S
C327 C338 1.492 . S
C328 C327 1.396 . S
C328 C329 1.397 . S
C328 C344 1.509 . S
C329 C328 1.397 . S
C329 C330 1.412 . S
C329 C350 1.485 . S
C330 C329 1.412 . S
C330 C331 1.388 . S
C330 C356 1.490 . S
C331 C326 1.397 . S
C331 C330 1.388 . S
C331 C362 1.519 . S
C332 C326 1.492 . S
C332 C333 1.363 . S
C332 C337 1.390 . S
C333 H298 0.930 . S
C333 C332 1.363 . S
C333 C334 1.372 . S
C334 H299 0.930 . S
C334 C333 1.372 . S
C334 C335 1.383 . S
C335 C334 1.383 . S
C335 C336 1.395 . S
C336 H300 0.930 . S
C336 C335 1.395 . S
C336 C337 1.362 . S
C337 H301 0.930 . S
C337 C332 1.390 . S
C337 C336 1.362 . S
C338 C327 1.492 . S
C338 C339 1.377 . S
C338 C343 1.397 . S
C339 H302 0.931 . S
C339 C338 1.377 . S
C339 C340 1.376 . S
C340 H303 0.930 . S
C340 C339 1.376 . S
C340 C341 1.376 . S
C341 C340 1.376 . S
C341 C342 1.378 . S
C341 C368 1.486 . S
C342 H304 0.930 . S
C342 C341 1.378 . S
C342 C343 1.376 . S
C343 H305 0.929 . S
C343 C338 1.397 . S
C343 C342 1.376 . S
C344 C328 1.509 . S
C344 C345 1.391 . S
C344 C349 1.386 . S
C345 H306 0.930 . S
C345 C344 1.391 . S
C345 C346 1.375 . S
C346 H307 0.931 . S
C346 C345 1.375 . S
C346 C347 1.352 1_565 S
C347 C346 1.352 1_545 S
C347 C348 1.363 . S
C348 H308 0.930 . S
C348 C347 1.363 . S
C348 C349 1.399 1_545 S
C349 H309 0.929 . S
C349 C344 1.386 . S
C349 C348 1.399 1_565 S
C350 C329 1.485 . S
C350 C351 1.394 . S
C350 C355 1.360 . S
C351 H310 0.931 . S
C351 C350 1.394 . S
C351 C352 1.372 . S
C352 H311 0.930 . S
C352 C351 1.372 . S
C352 C353 1.397 . S
C353 C352 1.397 . S
C353 C354 1.390 . S
C353 C369 1.476 . S
C354 H312 0.930 . S
C354 C353 1.390 . S
C354 C355 1.366 . S
C355 H313 0.932 . S
C355 C350 1.360 . S
C355 C354 1.366 . S
C356 C330 1.490 . S
C356 C357 1.380 . S
C356 C361 1.386 . S
C357 H314 0.930 . S
C357 C356 1.380 . S
C357 C358 1.381 . S
C358 H315 0.929 . S
C358 C357 1.381 . S
C358 C359 1.371 . S
C359 C358 1.371 . S
C359 C360 1.380 . S
C360 H316 0.931 . S
C360 C359 1.380 . S
C360 C361 1.387 . S
C361 H317 0.930 . S
C361 C356 1.386 . S
C361 C360 1.387 . S
C362 C331 1.519 . S
C362 C363 1.377 . S
C362 C367 1.361 . S
C363 H318 0.929 . S
C363 C362 1.377 . S
C363 C364 1.386 . S
C364 H319 0.931 . S
C364 C363 1.386 . S
C364 C365 1.363 . S
C365 C364 1.363 . S
C365 C366 1.385 . S
C366 H320 0.930 . S
C366 C365 1.385 . S
C366 C367 1.396 . S
C367 H321 0.929 . S
C367 C362 1.361 . S
C367 C366 1.396 . S
C368 O322 1.297 1_565 S
C368 O323 1.209 1_565 S
C368 C341 1.486 . S
C369 O324 1.199 . S
C369 O325 1.297 . S
C369 C353 1.476 . S
H370 O396 0.856 . S
H371 O399 0.854 . S
H372 C407 0.930 . S
H373 C408 0.930 . S
H374 C410 0.930 . S
H375 C411 0.930 . S
H376 C413 0.931 . S
H377 C414 0.930 . S
H378 C416 0.930 . S
H379 C417 0.929 . S
H380 C419 0.930 . S
H381 C420 0.931 . S
H382 C422 0.930 . S
H383 C423 0.929 . S
H384 C425 0.931 . S
H385 C426 0.930 . S
H386 C428 0.930 . S
H387 C429 0.932 . S
H388 C431 0.930 . S
H389 C432 0.929 . S
H390 C434 0.931 . S
H391 C435 0.930 . S
H392 C437 0.929 . S
H393 C438 0.931 . S
H394 C440 0.930 . S
H395 C441 0.929 . S
O396 H370 0.856 . S
O396 C442 1.300 . S
O397 C442 1.209 . S
O398 C443 1.199 . S
O399 H371 0.854 . S
O399 C443 1.297 . S
C400 C401 1.404 . S
C400 C405 1.397 . S
C400 C406 1.492 . S
C401 C400 1.404 . S
C401 C402 1.396 . S
C401 C412 1.492 . S
C402 C401 1.396 . S
C402 C403 1.397 . S
C402 C418 1.509 . S
C403 C402 1.397 . S
C403 C404 1.412 . S
C403 C424 1.485 . S
C404 C403 1.412 . S
C404 C405 1.388 . S
C404 C430 1.490 . S
C405 C400 1.397 . S
C405 C404 1.388 . S
C405 C436 1.519 . S
C406 C400 1.492 . S
C406 C407 1.363 . S
C406 C411 1.390 . S
C407 H372 0.930 . S
C407 C406 1.363 . S
C407 C408 1.372 . S
C408 H373 0.930 . S
C408 C407 1.372 . S
C408 C409 1.383 . S
C409 C408 1.383 . S
C409 C410 1.395 . S
C410 H374 0.930 . S
C410 C409 1.395 . S
C410 C411 1.362 . S
C411 H375 0.930 . S
C411 C406 1.390 . S
C411 C410 1.362 . S
C412 C401 1.492 . S
C412 C413 1.377 . S
C412 C417 1.397 . S
C413 H376 0.931 . S
C413 C412 1.377 . S
C413 C414 1.376 . S
C414 H377 0.930 . S
C414 C413 1.376 . S
C414 C415 1.376 . S
C415 C414 1.376 . S
C415 C416 1.378 . S
C415 C442 1.486 . S
C416 H378 0.930 . S
C416 C415 1.378 . S
C416 C417 1.376 . S
C417 H379 0.929 . S
C417 C412 1.397 . S
C417 C416 1.376 . S
C418 C402 1.509 . S
C418 C419 1.391 . S
C418 C423 1.386 . S
C419 H380 0.930 . S
C419 C418 1.391 . S
C419 C420 1.375 . S
C420 H381 0.931 . S
C420 C419 1.375 . S
C420 C421 1.375 . S
C421 C420 1.375 . S
C421 C422 1.361 . S
C422 H382 0.930 . S
C422 C421 1.361 . S
C422 C423 1.399 . S
C423 H383 0.929 . S
C423 C418 1.386 . S
C423 C422 1.399 . S
C424 C403 1.485 . S
C424 C425 1.394 . S
C424 C429 1.360 . S
C425 H384 0.931 . S
C425 C424 1.394 . S
C425 C426 1.372 . S
C426 H385 0.930 . S
C426 C425 1.372 . S
C426 C427 1.397 . S
C427 C426 1.397 . S
C427 C428 1.390 . S
C427 C443 1.476 . S
C428 H386 0.930 . S
C428 C427 1.390 . S
C428 C429 1.366 . S
C429 H387 0.932 . S
C429 C424 1.360 . S
C429 C428 1.366 . S
C430 C404 1.490 . S
C430 C431 1.380 . S
C430 C435 1.386 . S
C431 H388 0.930 . S
C431 C430 1.380 . S
C431 C432 1.381 . S
C432 H389 0.929 . S
C432 C431 1.381 . S
C432 C433 1.371 . S
C433 C432 1.371 . S
C433 C434 1.380 . S
C434 H390 0.931 . S
C434 C433 1.380 . S
C434 C435 1.387 . S
C435 H391 0.930 . S
C435 C430 1.386 . S
C435 C434 1.387 . S
C436 C405 1.519 . S
C436 C437 1.377 . S
C436 C441 1.361 . S
C437 H392 0.929 . S
C437 C436 1.377 . S
C437 C438 1.386 . S
C438 H393 0.931 . S
C438 C437 1.386 . S
C438 C439 1.363 . S
C439 C438 1.363 . S
C439 C440 1.385 . S
C440 H394 0.930 . S
C440 C439 1.385 . S
C440 C441 1.396 . S
C441 H395 0.929 . S
C441 C436 1.361 . S
C441 C440 1.396 . S
C442 O396 1.300 . S
C442 O397 1.209 . S
C442 C415 1.486 . S
C443 O398 1.199 . S
C443 O399 1.297 . S
C443 C427 1.476 . S
H444 O470 0.856 . S
H445 O473 0.854 . S
H446 C481 0.930 . S
H447 C482 0.930 . S
H448 C484 0.930 . S
H449 C485 0.930 . S
H450 C487 0.931 . S
H451 C488 0.930 . S
H452 C490 0.930 . S
H453 C491 0.929 . S
H454 C493 0.930 . S
H455 C494 0.931 . S
H456 C496 0.930 . S
H457 C497 0.929 . S
H458 C499 0.931 . S
H459 C500 0.930 . S
H460 C502 0.930 . S
H461 C503 0.932 . S
H462 C505 0.930 . S
H463 C506 0.929 . S
H464 C508 0.931 . S
H465 C509 0.930 . S
H466 C511 0.929 . S
H467 C512 0.931 . S
H468 C514 0.930 . S
H469 C515 0.929 . S
O470 H444 0.856 . S
O470 C516 1.300 . S
O471 C516 1.209 . S
O472 C517 1.199 . S
O473 H445 0.854 . S
O473 C517 1.297 . S
C474 C475 1.404 . S
C474 C479 1.397 . S
C474 C480 1.492 . S
C475 C474 1.404 . S
C475 C476 1.396 . S
C475 C486 1.492 . S
C476 C475 1.396 . S
C476 C477 1.397 . S
C476 C492 1.509 . S
C477 C476 1.397 . S
C477 C478 1.412 . S
C477 C498 1.485 . S
C478 C477 1.412 . S
C478 C479 1.388 . S
C478 C504 1.490 . S
C479 C474 1.397 . S
C479 C478 1.388 . S
C479 C510 1.519 . S
C480 C474 1.492 . S
C480 C481 1.363 . S
C480 C485 1.390 . S
C481 H446 0.930 . S
C481 C480 1.363 . S
C481 C482 1.372 . S
C482 H447 0.930 . S
C482 C481 1.372 . S
C482 C483 1.383 . S
C483 C482 1.383 . S
C483 C484 1.395 . S
C484 H448 0.930 . S
C484 C483 1.395 . S
C484 C485 1.362 . S
C485 H449 0.930 . S
C485 C480 1.390 . S
C485 C484 1.362 . S
C486 C475 1.492 . S
C486 C487 1.377 . S
C486 C491 1.397 . S
C487 H450 0.931 . S
C487 C486 1.377 . S
C487 C488 1.376 . S
C488 H451 0.930 . S
C488 C487 1.376 . S
C488 C489 1.376 . S
C489 C488 1.376 . S
C489 C490 1.378 . S
C489 C516 1.486 . S
C490 H452 0.930 . S
C490 C489 1.378 . S
C490 C491 1.376 . S
C491 H453 0.929 . S
C491 C486 1.397 . S
C491 C490 1.376 . S
C492 C476 1.509 . S
C492 C493 1.391 . S
C492 C497 1.386 . S
C493 H454 0.930 . S
C493 C492 1.391 . S
C493 C494 1.375 . S
C494 H455 0.931 . S
C494 C493 1.375 . S
C494 C495 1.375 . S
C495 C494 1.375 . S
C495 C496 1.361 . S
C496 H456 0.930 . S
C496 C495 1.361 . S
C496 C497 1.399 . S
C497 H457 0.929 . S
C497 C492 1.386 . S
C497 C496 1.399 . S
C498 C477 1.485 . S
C498 C499 1.394 . S
C498 C503 1.360 . S
C499 H458 0.931 . S
C499 C498 1.394 . S
C499 C500 1.372 . S
C500 H459 0.930 . S
C500 C499 1.372 . S
C500 C501 1.397 . S
C501 C500 1.397 . S
C501 C502 1.390 . S
C501 C517 1.476 . S
C502 H460 0.930 . S
C502 C501 1.390 . S
C502 C503 1.366 . S
C503 H461 0.932 . S
C503 C498 1.360 . S
C503 C502 1.366 . S
C504 C478 1.490 . S
C504 C505 1.380 . S
C504 C509 1.386 . S
C505 H462 0.930 . S
C505 C504 1.380 . S
C505 C506 1.381 . S
C506 H463 0.929 . S
C506 C505 1.381 . S
C506 C507 1.371 . S
C507 C506 1.371 . S
C507 C508 1.380 . S
C508 H464 0.931 . S
C508 C507 1.380 . S
C508 C509 1.387 . S
C509 H465 0.930 . S
C509 C504 1.386 . S
C509 C508 1.387 . S
C510 C479 1.519 . S
C510 C511 1.377 . S
C510 C515 1.361 . S
C511 H466 0.929 . S
C511 C510 1.377 . S
C511 C512 1.386 . S
C512 H467 0.931 . S
C512 C511 1.386 . S
C512 C513 1.363 . S
C513 C512 1.363 . S
C513 C514 1.385 . S
C514 H468 0.930 . S
C514 C513 1.385 . S
C514 C515 1.396 . S
C515 H469 0.929 . S
C515 C510 1.361 . S
C515 C514 1.396 . S
C516 O470 1.300 . S
C516 O471 1.209 . S
C516 C489 1.486 . S
C517 O472 1.199 . S
C517 O473 1.297 . S
C517 C501 1.476 . S
H518 O544 0.856 . S
H519 O547 0.854 . S
H520 C555 0.930 . S
H521 C556 0.930 . S
H522 C558 0.930 . S
H523 C559 0.930 . S
H524 C561 0.931 . S
H525 C562 0.930 . S
H526 C564 0.930 . S
H527 C565 0.929 . S
H528 C567 0.930 . S
H529 C568 0.931 . S
H530 C570 0.930 . S
H531 C571 0.929 . S
H532 C573 0.931 . S
H533 C574 0.930 . S
H534 C576 0.930 . S
H535 C577 0.932 . S
H536 C579 0.930 . S
H537 C580 0.929 . S
H538 C582 0.931 . S
H539 C583 0.930 . S
H540 C585 0.929 . S
H541 C586 0.931 . S
H542 C588 0.930 . S
H543 C589 0.929 . S
O544 H518 0.856 . S
O544 C590 1.300 . S
O545 C590 1.209 . S
O546 C591 1.199 . S
O547 H519 0.854 . S
O547 C591 1.297 . S
C548 C549 1.404 . S
C548 C553 1.397 . S
C548 C554 1.492 . S
C549 C548 1.404 . S
C549 C550 1.396 . S
C549 C560 1.492 . S
C550 C549 1.396 . S
C550 C551 1.397 . S
C550 C566 1.509 . S
C551 C550 1.397 . S
C551 C552 1.412 . S
C551 C572 1.485 . S
C552 C551 1.412 . S
C552 C553 1.388 . S
C552 C578 1.490 . S
C553 C548 1.397 . S
C553 C552 1.388 . S
C553 C584 1.519 . S
C554 C548 1.492 . S
C554 C555 1.363 . S
C554 C559 1.390 . S
C555 H520 0.930 . S
C555 C554 1.363 . S
C555 C556 1.372 . S
C556 H521 0.930 . S
C556 C555 1.372 . S
C556 C557 1.383 . S
C557 C556 1.383 . S
C557 C558 1.395 . S
C558 H522 0.930 . S
C558 C557 1.395 . S
C558 C559 1.362 . S
C559 H523 0.930 . S
C559 C554 1.390 . S
C559 C558 1.362 . S
C560 C549 1.492 . S
C560 C561 1.377 . S
C560 C565 1.397 . S
C561 H524 0.931 . S
C561 C560 1.377 . S
C561 C562 1.376 . S
C562 H525 0.930 . S
C562 C561 1.376 . S
C562 C563 1.376 . S
C563 C562 1.376 . S
C563 C564 1.378 . S
C563 C590 1.486 . S
C564 H526 0.930 . S
C564 C563 1.378 . S
C564 C565 1.376 . S
C565 H527 0.929 . S
C565 C560 1.397 . S
C565 C564 1.376 . S
C566 C550 1.509 . S
C566 C567 1.391 . S
C566 C571 1.386 . S
C567 H528 0.930 . S
C567 C566 1.391 . S
C567 C568 1.375 . S
C568 H529 0.931 . S
C568 C567 1.375 . S
C568 C569 1.375 . S
C569 C568 1.375 . S
C569 C570 1.361 . S
C570 H530 0.930 . S
C570 C569 1.361 . S
C570 C571 1.399 . S
C571 H531 0.929 . S
C571 C566 1.386 . S
C571 C570 1.399 . S
C572 C551 1.485 . S
C572 C573 1.394 . S
C572 C577 1.360 . S
C573 H532 0.931 . S
C573 C572 1.394 . S
C573 C574 1.372 . S
C574 H533 0.930 . S
C574 C573 1.372 . S
C574 C575 1.397 . S
C575 C574 1.397 . S
C575 C576 1.390 . S
C575 C591 1.476 . S
C576 H534 0.930 . S
C576 C575 1.390 . S
C576 C577 1.366 . S
C577 H535 0.932 . S
C577 C572 1.360 . S
C577 C576 1.366 . S
C578 C552 1.490 . S
C578 C579 1.380 . S
C578 C583 1.386 . S
C579 H536 0.930 . S
C579 C578 1.380 . S
C579 C580 1.381 . S
C580 H537 0.929 . S
C580 C579 1.381 . S
C580 C581 1.371 . S
C581 C580 1.371 . S
C581 C582 1.380 . S
C582 H538 0.931 . S
C582 C581 1.380 . S
C582 C583 1.387 . S
C583 H539 0.930 . S
C583 C578 1.386 . S
C583 C582 1.387 . S
C584 C553 1.519 . S
C584 C585 1.377 . S
C584 C589 1.361 . S
C585 H540 0.929 . S
C585 C584 1.377 . S
C585 C586 1.386 . S
C586 H541 0.931 . S
C586 C585 1.386 . S
C586 C587 1.363 . S
C587 C586 1.363 . S
C587 C588 1.385 . S
C588 H542 0.930 . S
C588 C587 1.385 . S
C588 C589 1.396 . S
C589 H543 0.929 . S
C589 C584 1.361 . S
C589 C588 1.396 . S
C590 O544 1.300 . S
C590 O545 1.209 . S
C590 C563 1.486 . S
C591 O546 1.199 . S
C591 O547 1.297 . S
C591 C575 1.476 . S
C592 O594 1.247 . S
C592 O596 1.258 . S
C593 O600 1.247 . S
C593 O601 1.258 . S
O594 C592 1.247 . S
O594 Zn595 2.028 . S
Zn595 O594 2.028 . S
Zn595 O599 2.035 1_655 S
Zn595 O601 2.035 1_655 S
Zn595 O602 2.028 . S
O596 C592 1.258 . S
O596 Zn597 2.035 1_655 S
Zn597 O596 2.035 1_455 S
Zn597 O598 2.028 . S
Zn597 O600 2.028 . S
Zn597 O603 2.035 1_455 S
O598 Zn597 2.028 . S
O598 C604 1.247 . S
O599 Zn595 2.035 1_455 S
O599 C604 1.258 . S
O600 C593 1.247 . S
O600 Zn597 2.028 . S
O601 C593 1.258 . S
O601 Zn595 2.035 1_455 S
O602 Zn595 2.028 . S
O602 C605 1.247 . S
O603 Zn597 2.035 1_655 S
O603 C605 1.258 . S
C604 O598 1.247 . S
C604 O599 1.258 . S
C605 O602 1.247 . S
C605 O603 1.258 . S
C606 O608 1.247 . S
C606 O610 1.258 . S
C607 O614 1.247 . S
C607 O615 1.258 . S
O608 C606 1.247 . S
O608 Zn609 2.028 . S
Zn609 O608 2.028 . S
Zn609 O613 2.035 1_545 S
Zn609 O615 2.035 1_545 S
Zn609 O616 2.028 . S
O610 C606 1.258 . S
O610 Zn611 2.035 . S
Zn611 O610 2.035 . S
Zn611 O612 2.028 1_545 S
Zn611 O614 2.028 1_545 S
Zn611 O617 2.035 . S
O612 Zn611 2.028 1_565 S
O612 C618 1.247 . S
O613 Zn609 2.035 1_565 S
O613 C618 1.258 . S
O614 C607 1.247 . S
O614 Zn611 2.028 1_565 S
O615 C607 1.258 . S
O615 Zn609 2.035 1_565 S
O616 Zn609 2.028 . S
O616 C619 1.247 . S
O617 Zn611 2.035 . S
O617 C619 1.258 . S
C618 O612 1.247 . S
C618 O613 1.258 . S
C619 O616 1.247 . S
C619 O617 1.258 . S
C620 O622 1.247 . S
C620 O624 1.258 . S
C621 O628 1.247 . S
C621 O629 1.258 . S
O622 C620 1.247 . S
O622 Zn623 2.028 . S
Zn623 O622 2.028 . S
Zn623 O627 2.035 . S
Zn623 O629 2.035 . S
Zn623 O630 2.028 . S
O624 C620 1.258 . S
O624 Zn625 2.035 . S
Zn625 O624 2.035 . S
Zn625 O626 2.028 . S
Zn625 O628 2.028 . S
Zn625 O631 2.035 . S
O626 Zn625 2.028 . S
O626 C632 1.247 . S
O627 Zn623 2.035 . S
O627 C632 1.258 . S
O628 C621 1.247 . S
O628 Zn625 2.028 . S
O629 C621 1.258 . S
O629 Zn623 2.035 . S
O630 Zn623 2.028 . S
O630 C633 1.247 . S
O631 Zn625 2.035 . S
O631 C633 1.258 . S
C632 O626 1.247 . S
C632 O627 1.258 . S
C633 O630 1.247 . S
C633 O631 1.258 . S
C634 O636 1.247 . S
C634 O638 1.258 . S
C635 O642 1.247 . S
C635 O643 1.258 . S
O636 C634 1.247 . S
O636 Zn637 2.028 . S
Zn637 O636 2.028 . S
Zn637 O641 2.035 . S
Zn637 O643 2.035 . S
Zn637 O644 2.028 . S
O638 C634 1.258 . S
O638 Zn639 2.035 . S
Zn639 O638 2.035 . S
Zn639 O640 2.028 . S
Zn639 O642 2.028 . S
Zn639 O645 2.035 . S
O640 Zn639 2.028 . S
O640 C646 1.247 . S
O641 Zn637 2.035 . S
O641 C646 1.258 . S
O642 C635 1.247 . S
O642 Zn639 2.028 . S
O643 C635 1.258 . S
O643 Zn637 2.035 . S
O644 Zn637 2.028 . S
O644 C647 1.247 . S
O645 Zn639 2.035 . S
O645 C647 1.258 . S
C646 O640 1.247 . S
C646 O641 1.258 . S
C647 O644 1.247 . S
C647 O645 1.258 . S
C648 O650 1.247 . S
C648 O652 1.258 . S
C649 O656 1.247 . S
C649 O657 1.258 . S
O650 C648 1.247 . S
O650 Zn651 2.028 . S
Zn651 O650 2.028 . S
Zn651 O655 2.035 . S
Zn651 O657 2.035 1_554 S
Zn651 O658 2.028 1_554 S
O652 C648 1.258 . S
O652 Zn653 2.035 . S
Zn653 O652 2.035 . S
Zn653 O654 2.028 . S
Zn653 O656 2.028 1_554 S
Zn653 O659 2.035 1_554 S
O654 Zn653 2.028 . S
O654 C660 1.247 . S
O655 Zn651 2.035 . S
O655 C660 1.258 . S
O656 C649 1.247 . S
O656 Zn653 2.028 1_556 S
O657 C649 1.258 . S
O657 Zn651 2.035 1_556 S
O658 Zn651 2.028 1_556 S
O658 C661 1.247 . S
O659 Zn653 2.035 1_556 S
O659 C661 1.258 . S
C660 O654 1.247 . S
C660 O655 1.258 . S
C661 O658 1.247 . S
C661 O659 1.258 . S
C662 O664 1.247 . S
C662 O666 1.258 . S
C663 O670 1.247 . S
C663 O671 1.258 . S
O664 C662 1.247 . S
O664 Zn665 2.028 . S
Zn665 O664 2.028 . S
Zn665 O669 2.035 . S
Zn665 O671 2.035 1_554 S
Zn665 O672 2.028 1_554 S
O666 C662 1.258 . S
O666 Zn667 2.035 . S
Zn667 O666 2.035 . S
Zn667 O668 2.028 . S
Zn667 O670 2.028 1_554 S
Zn667 O673 2.035 1_554 S
O668 Zn667 2.028 . S
O668 C674 1.247 . S
O669 Zn665 2.035 . S
O669 C674 1.258 . S
O670 C663 1.247 . S
O670 Zn667 2.028 1_556 S
O671 C663 1.258 . S
O671 Zn665 2.035 1_556 S
O672 Zn665 2.028 1_556 S
O672 C675 1.247 . S
O673 Zn667 2.035 1_556 S
O673 C675 1.258 . S
C674 O668 1.247 . S
C674 O669 1.258 . S
C675 O672 1.247 . S
C675 O673 1.258 . S
C676 O678 1.249 . S
C676 O680 1.260 . S
C677 O684 1.247 . S
C677 O685 1.258 . S
O678 C676 1.249 . S
O678 Zn679 2.028 . S
Zn679 O678 2.028 . S
Zn679 O683 2.035 . S
Zn679 O685 2.035 . S
Zn679 O686 2.028 . S
O680 C676 1.260 . S
O680 Zn681 2.035 . S
Zn681 O680 2.035 . S
Zn681 O682 2.028 1_554 S
Zn681 O684 2.028 . S
Zn681 O687 2.035 . S
O682 Zn681 2.028 1_556 S
O682 C688 1.247 . S
O683 Zn679 2.035 . S
O683 C688 1.258 1_554 S
O684 C677 1.247 . S
O684 Zn681 2.028 . S
O685 C677 1.258 . S
O685 Zn679 2.035 . S
O686 Zn679 2.028 . S
O686 C689 1.247 . S
O687 Zn681 2.035 . S
O687 C689 1.258 . S
C688 O682 1.247 . S
C688 O683 1.258 1_556 S
C689 O686 1.247 . S
C689 O687 1.258 . S
C690 O692 1.247 . S
C690 O694 1.258 . S
C691 O698 1.247 . S
C691 O699 1.258 . S
O692 C690 1.247 . S
O692 Zn693 2.028 . S
Zn693 O692 2.028 . S
Zn693 O697 2.035 . S
Zn693 O699 2.035 . S
Zn693 O700 2.028 . S
O694 C690 1.258 . S
O694 Zn695 2.035 . S
Zn695 O694 2.035 . S
Zn695 O696 2.028 . S
Zn695 O698 2.028 . S
Zn695 O701 2.035 . S
O696 Zn695 2.028 . S
O696 C702 1.247 . S
O697 Zn693 2.035 . S
O697 C702 1.258 . S
O698 C691 1.247 . S
O698 Zn695 2.028 . S
O699 C691 1.258 . S
O699 Zn693 2.035 . S
O700 Zn693 2.028 . S
O700 C703 1.247 . S
O701 Zn695 2.035 . S
O701 C703 1.258 . S
C702 O696 1.247 . S
C702 O697 1.258 . S
C703 O700 1.247 . S
C703 O701 1.258 . S
C704 C705 1.391 . S
C704 C706 1.394 . S
C704 H720 0.931 . S
C705 C704 1.391 . S
C705 C709 1.376 . S
C706 C704 1.394 . S
C706 C707 1.369 . S
C706 C710 1.531 . S
C707 C706 1.369 . S
C707 C708 1.410 . S
C707 C715 1.503 . S
C708 C707 1.410 . S
C708 C709 1.392 . S
C708 C711 1.511 . S
C709 C705 1.376 . S
C709 C708 1.392 . S
C709 H721 0.929 . S
C710 C706 1.531 . S
C710 H722 0.960 . S
C710 H723 0.962 . S
C710 H724 0.960 . S
C711 C708 1.511 . S
C711 H725 0.961 . S
C711 H726 0.961 . S
C711 H727 0.961 . S
C712 C713 1.370 . S
C712 C714 1.363 . S
C712 H728 0.931 . S
C713 C712 1.370 . S
C713 C717 1.408 . S
C714 C712 1.363 . S
C714 C715 1.370 . S
C714 C718 1.524 . S
C715 C707 1.503 . S
C715 C714 1.370 . S
C715 C716 1.403 . S
C716 C715 1.403 . S
C716 C717 1.404 . S
C716 C719 1.539 . S
C717 C713 1.408 . S
C717 C716 1.404 . S
C717 H729 0.930 . S
C718 C714 1.524 . S
C718 H730 0.956 . S
C718 H731 0.961 . S
C718 H732 0.961 . S
C719 C716 1.539 . S
C719 H733 0.958 . S
C719 H734 0.961 . S
C719 H735 0.960 . S
H720 C704 0.931 . S
H721 C709 0.929 . S
H722 C710 0.960 . S
H723 C710 0.962 . S
H724 C710 0.960 . S
H725 C711 0.961 . S
H726 C711 0.961 . S
H727 C711 0.961 . S
H728 C712 0.931 . S
H729 C717 0.930 . S
H730 C718 0.956 . S
H731 C718 0.961 . S
H732 C718 0.961 . S
H733 C719 0.958 . S
H734 C719 0.961 . S
H735 C719 0.960 . S
C736 C737 1.391 . S
C736 C738 1.394 . S
C736 H752 0.931 . S
C737 C736 1.391 . S
C737 C741 1.376 . S
C738 C736 1.394 . S
C738 C739 1.369 . S
C738 C742 1.531 . S
C739 C738 1.369 . S
C739 C740 1.410 . S
C739 C747 1.503 . S
C740 C739 1.410 . S
C740 C741 1.392 . S
C740 C743 1.511 . S
C741 C737 1.376 . S
C741 C740 1.392 . S
C741 H753 0.929 . S
C742 C738 1.531 . S
C742 H754 0.960 . S
C742 H755 0.962 . S
C742 H756 0.960 . S
C743 C740 1.511 . S
C743 H757 0.961 . S
C743 H758 0.961 . S
C743 H759 0.961 . S
C744 C745 1.370 . S
C744 C746 1.363 . S
C744 H760 0.931 . S
C745 C744 1.370 . S
C745 C749 1.408 . S
C746 C744 1.363 . S
C746 C747 1.370 . S
C746 C750 1.524 . S
C747 C739 1.503 . S
C747 C746 1.370 . S
C747 C748 1.403 . S
C748 C747 1.403 . S
C748 C749 1.404 . S
C748 C751 1.539 . S
C749 C745 1.408 . S
C749 C748 1.404 . S
C749 H761 0.930 . S
C750 C746 1.524 . S
C750 H762 0.956 . S
C750 H763 0.961 . S
C750 H764 0.961 . S
C751 C748 1.539 . S
C751 H765 0.958 . S
C751 H766 0.961 . S
C751 H767 0.960 . S
H752 C736 0.931 . S
H753 C741 0.929 . S
H754 C742 0.960 . S
H755 C742 0.962 . S
H756 C742 0.960 . S
H757 C743 0.961 . S
H758 C743 0.961 . S
H759 C743 0.961 . S
H760 C744 0.931 . S
H761 C749 0.930 . S
H762 C750 0.956 . S
H763 C750 0.961 . S
H764 C750 0.961 . S
H765 C751 0.958 . S
H766 C751 0.961 . S
H767 C751 0.960 . S
C768 C769 1.391 . S
C768 C770 1.394 . S
C768 H784 0.931 . S
C769 C768 1.391 . S
C769 C773 1.376 . S
C770 C768 1.394 . S
C770 C771 1.369 . S
C770 C774 1.531 . S
C771 C770 1.369 . S
C771 C772 1.410 . S
C771 C779 1.503 . S
C772 C771 1.410 . S
C772 C773 1.392 . S
C772 C775 1.511 . S
C773 C769 1.376 . S
C773 C772 1.392 . S
C773 H785 0.929 . S
C774 C770 1.531 . S
C774 H786 0.960 . S
C774 H787 0.962 . S
C774 H788 0.960 . S
C775 C772 1.511 . S
C775 H789 0.961 . S
C775 H790 0.961 . S
C775 H791 0.961 . S
C776 C777 1.370 . S
C776 C778 1.363 . S
C776 H792 0.931 . S
C777 C776 1.370 . S
C777 C781 1.408 . S
C778 C776 1.363 . S
C778 C779 1.370 . S
C778 C782 1.524 . S
C779 C771 1.503 . S
C779 C778 1.370 . S
C779 C780 1.403 . S
C780 C779 1.403 . S
C780 C781 1.404 . S
C780 C783 1.539 . S
C781 C777 1.408 . S
C781 C780 1.404 . S
C781 H793 0.930 . S
C782 C778 1.524 . S
C782 H794 0.956 . S
C782 H795 0.961 . S
C782 H796 0.961 . S
C783 C780 1.539 . S
C783 H797 0.958 . S
C783 H798 0.961 . S
C783 H799 0.960 . S
H784 C768 0.931 . S
H785 C773 0.929 . S
H786 C774 0.960 . S
H787 C774 0.962 . S
H788 C774 0.960 . S
H789 C775 0.961 . S
H790 C775 0.961 . S
H791 C775 0.961 . S
H792 C776 0.931 . S
H793 C781 0.930 . S
H794 C782 0.956 . S
H795 C782 0.961 . S
H796 C782 0.961 . S
H797 C783 0.958 . S
H798 C783 0.961 . S
H799 C783 0.960 . S
C800 C801 1.391 . S
C800 C802 1.394 1_565 S
C800 H816 0.931 . S
C801 C800 1.391 . S
C801 C805 1.376 1_565 S
C802 C800 1.394 1_545 S
C802 C803 1.369 . S
C802 C806 1.531 . S
C803 C802 1.369 . S
C803 C804 1.410 . S
C803 C811 1.503 . S
C804 C803 1.410 . S
C804 C805 1.392 . S
C804 C807 1.511 . S
C805 C801 1.376 1_545 S
C805 C804 1.392 . S
C805 H817 0.929 . S
C806 C802 1.531 . S
C806 H818 0.960 . S
C806 H819 0.962 . S
C806 H820 0.960 . S
C807 C804 1.511 . S
C807 H821 0.961 . S
C807 H822 0.961 . S
C807 H823 0.961 . S
C808 C809 1.370 . S
C808 C810 1.363 . S
C808 H824 0.931 . S
C809 C808 1.370 . S
C809 C813 1.408 . S
C810 C808 1.363 . S
C810 C811 1.370 . S
C810 C814 1.524 . S
C811 C803 1.503 . S
C811 C810 1.370 . S
C811 C812 1.403 . S
C812 C811 1.403 . S
C812 C813 1.404 . S
C812 C815 1.539 . S
C813 C809 1.408 . S
C813 C812 1.404 . S
C813 H825 0.930 . S
C814 C810 1.524 . S
C814 H826 0.956 . S
C814 H827 0.961 . S
C814 H828 0.961 . S
C815 C812 1.539 . S
C815 H829 0.958 . S
C815 H830 0.961 . S
C815 H831 0.960 . S
H816 C800 0.931 . S
H817 C805 0.929 . S
H818 C806 0.960 . S
H819 C806 0.962 . S
H820 C806 0.960 . S
H821 C807 0.961 . S
H822 C807 0.961 . S
H823 C807 0.961 . S
H824 C808 0.931 . S
H825 C813 0.930 . S
H826 C814 0.956 . S
H827 C814 0.961 . S
H828 C814 0.961 . S
H829 C815 0.958 . S
H830 C815 0.961 . S
H831 C815 0.960 . S
C832 C833 1.391 . S
C832 C834 1.394 . S
C832 H848 0.931 . S
C833 C832 1.391 . S
C833 C837 1.376 . S
C834 C832 1.394 . S
C834 C835 1.369 . S
C834 C838 1.531 . S
C835 C834 1.369 . S
C835 C836 1.410 . S
C835 C843 1.503 . S
C836 C835 1.410 . S
C836 C837 1.392 . S
C836 C839 1.511 . S
C837 C833 1.376 . S
C837 C836 1.392 . S
C837 H849 0.929 . S
C838 C834 1.531 . S
C838 H850 0.960 . S
C838 H851 0.962 . S
C838 H852 0.960 . S
C839 C836 1.511 . S
C839 H853 0.961 . S
C839 H854 0.961 . S
C839 H855 0.961 . S
C840 C841 1.370 . S
C840 C842 1.363 . S
C840 H856 0.931 . S
C841 C840 1.370 . S
C841 C845 1.408 . S
C842 C840 1.363 . S
C842 C843 1.370 . S
C842 C846 1.524 . S
C843 C835 1.503 . S
C843 C842 1.370 . S
C843 C844 1.403 . S
C844 C843 1.403 . S
C844 C845 1.404 . S
C844 C847 1.539 . S
C845 C841 1.408 . S
C845 C844 1.404 . S
C845 H857 0.930 . S
C846 C842 1.524 . S
C846 H858 0.956 . S
C846 H859 0.961 . S
C846 H860 0.961 . S
C847 C844 1.539 . S
C847 H861 0.958 . S
C847 H862 0.961 . S
C847 H863 0.960 . S
H848 C832 0.931 . S
H849 C837 0.929 . S
H850 C838 0.960 . S
H851 C838 0.962 . S
H852 C838 0.960 . S
H853 C839 0.961 . S
H854 C839 0.961 . S
H855 C839 0.961 . S
H856 C840 0.931 . S
H857 C845 0.930 . S
H858 C846 0.956 . S
H859 C846 0.961 . S
H860 C846 0.961 . S
H861 C847 0.958 . S
H862 C847 0.961 . S
H863 C847 0.960 . S
C864 C865 1.391 . S
C864 C866 1.394 . S
C864 H880 0.931 . S
C865 C864 1.391 . S
C865 C869 1.376 . S
C866 C864 1.394 . S
C866 C867 1.369 . S
C866 C870 1.531 . S
C867 C866 1.369 . S
C867 C868 1.410 . S
C867 C875 1.503 . S
C868 C867 1.410 . S
C868 C869 1.392 . S
C868 C871 1.511 . S
C869 C865 1.376 . S
C869 C868 1.392 . S
C869 H881 0.929 . S
C870 C866 1.531 . S
C870 H882 0.960 . S
C870 H883 0.962 . S
C870 H884 0.960 . S
C871 C868 1.511 . S
C871 H885 0.961 . S
C871 H886 0.961 . S
C871 H887 0.961 . S
C872 C873 1.370 . S
C872 C874 1.363 . S
C872 H888 0.931 . S
C873 C872 1.370 . S
C873 C877 1.408 . S
C874 C872 1.363 . S
C874 C875 1.370 . S
C874 C878 1.524 . S
C875 C867 1.503 . S
C875 C874 1.370 . S
C875 C876 1.403 . S
C876 C875 1.403 . S
C876 C877 1.404 . S
C876 C879 1.539 . S
C877 C873 1.408 . S
C877 C876 1.404 . S
C877 H889 0.930 . S
C878 C874 1.524 . S
C878 H890 0.956 . S
C878 H891 0.961 . S
C878 H892 0.961 . S
C879 C876 1.539 . S
C879 H893 0.958 . S
C879 H894 0.961 . S
C879 H895 0.960 . S
H880 C864 0.931 . S
H881 C869 0.929 . S
H882 C870 0.960 . S
H883 C870 0.962 . S
H884 C870 0.960 . S
H885 C871 0.961 . S
H886 C871 0.961 . S
H887 C871 0.961 . S
H888 C872 0.931 . S
H889 C877 0.930 . S
H890 C878 0.956 . S
H891 C878 0.961 . S
H892 C878 0.961 . S
H893 C879 0.958 . S
H894 C879 0.961 . S
H895 C879 0.960 . S
C896 C897 1.391 . S
C896 C898 1.394 . S
C896 H912 0.931 . S
C897 C896 1.391 . S
C897 C901 1.376 . S
C898 C896 1.394 . S
C898 C899 1.369 . S
C898 C902 1.531 . S
C899 C898 1.369 . S
C899 C900 1.410 . S
C899 C907 1.503 . S
C900 C899 1.410 . S
C900 C901 1.392 . S
C900 C903 1.511 . S
C901 C897 1.376 . S
C901 C900 1.392 . S
C901 H913 0.929 . S
C902 C898 1.531 . S
C902 H914 0.960 . S
C902 H915 0.962 . S
C902 H916 0.960 . S
C903 C900 1.511 . S
C903 H917 0.961 . S
C903 H918 0.961 . S
C903 H919 0.961 . S
C904 C905 1.370 . S
C904 C906 1.363 . S
C904 H920 0.931 . S
C905 C904 1.370 . S
C905 C909 1.408 . S
C906 C904 1.363 . S
C906 C907 1.370 . S
C906 C910 1.524 . S
C907 C899 1.503 . S
C907 C906 1.370 . S
C907 C908 1.403 . S
C908 C907 1.403 . S
C908 C909 1.404 . S
C908 C911 1.539 . S
C909 C905 1.408 . S
C909 C908 1.404 . S
C909 H921 0.930 . S
C910 C906 1.524 . S
C910 H922 0.956 . S
C910 H923 0.961 . S
C910 H924 0.961 . S
C911 C908 1.539 . S
C911 H925 0.958 . S
C911 H926 0.961 . S
C911 H927 0.960 . S
H912 C896 0.931 . S
H913 C901 0.929 . S
H914 C902 0.960 . S
H915 C902 0.962 . S
H916 C902 0.960 . S
H917 C903 0.961 . S
H918 C903 0.961 . S
H919 C903 0.961 . S
H920 C904 0.931 . S
H921 C909 0.930 . S
H922 C910 0.956 . S
H923 C910 0.961 . S
H924 C910 0.961 . S
H925 C911 0.958 . S
H926 C911 0.961 . S
H927 C911 0.960 . S
C928 C929 1.391 . S
C928 C930 1.394 . S
C928 H944 0.931 . S
C929 C928 1.391 . S
C929 C933 1.376 . S
C930 C928 1.394 . S
C930 C931 1.369 . S
C930 C934 1.531 . S
C931 C930 1.369 . S
C931 C932 1.410 . S
C931 C939 1.503 . S
C932 C931 1.410 . S
C932 C933 1.392 . S
C932 C935 1.511 . S
C933 C929 1.376 . S
C933 C932 1.392 . S
C933 H945 0.929 . S
C934 C930 1.531 . S
C934 H946 0.960 . S
C934 H947 0.962 . S
C934 H948 0.960 . S
C935 C932 1.511 . S
C935 H949 0.961 . S
C935 H950 0.961 . S
C935 H951 0.961 . S
C936 C937 1.370 . S
C936 C938 1.363 . S
C936 H952 0.931 . S
C937 C936 1.370 . S
C937 C941 1.408 . S
C938 C936 1.363 . S
C938 C939 1.370 . S
C938 C942 1.524 . S
C939 C931 1.503 . S
C939 C938 1.370 . S
C939 C940 1.403 . S
C940 C939 1.403 . S
C940 C941 1.404 . S
C940 C943 1.539 . S
C941 C937 1.408 . S
C941 C940 1.404 . S
C941 H953 0.930 . S
C942 C938 1.524 . S
C942 H954 0.956 . S
C942 H955 0.961 . S
C942 H956 0.961 . S
C943 C940 1.539 . S
C943 H957 0.958 . S
C943 H958 0.961 . S
C943 H959 0.960 . S
H944 C928 0.931 . S
H945 C933 0.929 . S
H946 C934 0.960 . S
H947 C934 0.962 . S
H948 C934 0.960 . S
H949 C935 0.961 . S
H950 C935 0.961 . S
H951 C935 0.961 . S
H952 C936 0.931 . S
H953 C941 0.930 . S
H954 C942 0.956 . S
H955 C942 0.961 . S
H956 C942 0.961 . S
H957 C943 0.958 . S
H958 C943 0.961 . S
H959 C943 0.960 . S
C960 C961 1.391 . S
C960 C962 1.394 . S
C960 H976 0.931 . S
C961 C960 1.391 . S
C961 C965 1.376 . S
C962 C960 1.394 . S
C962 C963 1.369 . S
C962 C966 1.531 . S
C963 C962 1.369 . S
C963 C964 1.410 . S
C963 C971 1.503 . S
C964 C963 1.410 . S
C964 C965 1.392 . S
C964 C967 1.511 . S
C965 C961 1.376 . S
C965 C964 1.392 . S
C965 H977 0.929 . S
C966 C962 1.531 . S
C966 H978 0.960 . S
C966 H979 0.962 . S
C966 H980 0.960 . S
C967 C964 1.511 . S
C967 H981 0.961 . S
C967 H982 0.961 . S
C967 H983 0.961 . S
C968 C969 1.370 . S
C968 C970 1.363 . S
C968 H984 0.931 . S
C969 C968 1.370 . S
C969 C973 1.408 1_655 S
C970 C968 1.363 . S
C970 C971 1.370 . S
C970 C974 1.524 . S
C971 C963 1.503 . S
C971 C970 1.370 . S
C971 C972 1.403 . S
C972 C971 1.403 . S
C972 C973 1.404 1_655 S
C972 C975 1.539 . S
C973 C969 1.408 1_455 S
C973 C972 1.404 1_455 S
C973 H985 0.930 . S
C974 C970 1.524 . S
C974 H986 0.956 . S
C974 H987 0.961 . S
C974 H988 0.961 . S
C975 C972 1.539 . S
C975 H989 0.963 . S
C975 H990 0.961 1_655 S
C975 H991 0.960 . S
H976 C960 0.931 . S
H977 C965 0.929 . S
H978 C966 0.960 . S
H979 C966 0.962 . S
H980 C966 0.960 . S
H981 C967 0.961 . S
H982 C967 0.961 . S
H983 C967 0.961 . S
H984 C968 0.931 . S
H985 C973 0.930 . S
H986 C974 0.956 . S
H987 C974 0.961 . S
H988 C974 0.961 . S
H989 C975 0.963 . S
H990 C975 0.961 1_455 S
H991 C975 0.960 . S
C992 C993 1.391 . S
C992 C994 1.394 . S
C992 H1008 0.931 . S
C993 C992 1.391 . S
C993 C997 1.376 . S
C994 C992 1.394 . S
C994 C995 1.369 . S
C994 C998 1.531 . S
C995 C994 1.369 . S
C995 C996 1.410 . S
C995 C1003 1.503 . S
C996 C995 1.410 . S
C996 C997 1.392 . S
C996 C999 1.511 . S
C997 C993 1.376 . S
C997 C996 1.392 . S
C997 H1009 0.909 1_545 S
C998 C994 1.531 . S
C998 H1010 0.960 . S
C998 H1011 0.962 . S
C998 H1012 0.960 . S
C999 C996 1.511 . S
C999 H1013 0.961 . S
C999 H1014 0.961 . S
C999 H1015 0.961 . S
C1000 C1001 1.370 . S
C1000 C1002 1.363 . S
C1000 H1016 0.931 . S
C1001 C1000 1.370 . S
C1001 C1005 1.408 . S
C1002 C1000 1.363 . S
C1002 C1003 1.370 . S
C1002 C1006 1.524 . S
C1003 C995 1.503 . S
C1003 C1002 1.370 . S
C1003 C1004 1.403 . S
C1004 C1003 1.403 . S
C1004 C1005 1.404 . S
C1004 C1007 1.539 . S
C1005 C1001 1.408 . S
C1005 C1004 1.404 . S
C1005 H1017 0.930 . S
C1006 C1002 1.524 . S
C1006 H1018 0.956 . S
C1006 H1019 0.961 . S
C1006 H1020 0.961 . S
C1007 C1004 1.539 . S
C1007 H1021 0.958 . S
C1007 H1022 0.961 . S
C1007 H1023 0.960 . S
H1008 C992 0.931 . S
H1009 C997 0.909 1_565 S
H1010 C998 0.960 . S
H1011 C998 0.962 . S
H1012 C998 0.960 . S
H1013 C999 0.961 . S
H1014 C999 0.961 . S
H1015 C999 0.961 . S
H1016 C1000 0.931 . S
H1017 C1005 0.930 . S
H1018 C1006 0.956 . S
H1019 C1006 0.961 . S
H1020 C1006 0.961 . S
H1021 C1007 0.958 . S
H1022 C1007 0.961 . S
H1023 C1007 0.960 . S
C1024 C1025 1.391 . S
C1024 C1026 1.394 . S
C1024 H1040 0.931 . S
C1025 C1024 1.391 . S
C1025 C1029 1.376 . S
C1026 C1024 1.394 . S
C1026 C1027 1.369 . S
C1026 C1030 1.531 . S
C1027 C1026 1.369 . S
C1027 C1028 1.410 . S
C1027 C1035 1.503 . S
C1028 C1027 1.410 . S
C1028 C1029 1.392 . S
C1028 C1031 1.511 . S
C1029 C1025 1.376 . S
C1029 C1028 1.392 . S
C1029 H1041 0.929 . S
C1030 C1026 1.531 . S
C1030 H1042 0.960 . S
C1030 H1043 0.962 . S
C1030 H1044 0.960 . S
C1031 C1028 1.511 . S
C1031 H1045 0.961 . S
C1031 H1046 0.961 . S
C1031 H1047 0.961 . S
C1032 C1033 1.370 . S
C1032 C1034 1.363 . S
C1032 H1048 0.931 . S
C1033 C1032 1.370 . S
C1033 C1037 1.408 . S
C1034 C1032 1.363 . S
C1034 C1035 1.370 . S
C1034 C1038 1.524 . S
C1035 C1027 1.503 . S
C1035 C1034 1.370 . S
C1035 C1036 1.403 . S
C1036 C1035 1.403 . S
C1036 C1037 1.404 . S
C1036 C1039 1.539 . S
C1037 C1033 1.408 . S
C1037 C1036 1.404 . S
C1037 H1049 0.930 . S
C1038 C1034 1.524 . S
C1038 H1050 0.956 . S
C1038 H1051 0.961 . S
C1038 H1052 0.961 . S
C1039 C1036 1.539 . S
C1039 H1053 0.958 . S
C1039 H1054 0.961 . S
C1039 H1055 0.960 . S
H1040 C1024 0.931 . S
H1041 C1029 0.929 . S
H1042 C1030 0.960 . S
H1043 C1030 0.962 . S
H1044 C1030 0.960 . S
H1045 C1031 0.961 . S
H1046 C1031 0.961 . S
H1047 C1031 0.961 . S
H1048 C1032 0.931 . S
H1049 C1037 0.930 . S
H1050 C1038 0.956 . S
H1051 C1038 0.961 . S
H1052 C1038 0.961 . S
H1053 C1039 0.958 . S
H1054 C1039 0.961 . S
H1055 C1039 0.960 . S
C1056 C1057 1.391 . S
C1056 C1058 1.394 . S
C1056 H1072 0.931 . S
C1057 C1056 1.391 . S
C1057 C1061 1.376 . S
C1058 C1056 1.394 . S
C1058 C1059 1.369 . S
C1058 C1062 1.531 . S
C1059 C1058 1.369 . S
C1059 C1060 1.410 . S
C1059 C1067 1.503 . S
C1060 C1059 1.410 . S
C1060 C1061 1.392 . S
C1060 C1063 1.511 . S
C1061 C1057 1.376 . S
C1061 C1060 1.392 . S
C1061 H1073 0.929 . S
C1062 C1058 1.531 . S
C1062 H1074 0.960 . S
C1062 H1075 0.962 . S
C1062 H1076 0.960 . S
C1063 C1060 1.511 . S
C1063 H1077 0.961 . S
C1063 H1078 0.961 . S
C1063 H1079 0.961 . S
C1064 C1065 1.370 . S
C1064 C1066 1.363 . S
C1064 H1080 0.931 . S
C1065 C1064 1.370 . S
C1065 C1069 1.408 . S
C1066 C1064 1.363 . S
C1066 C1067 1.370 . S
C1066 C1070 1.524 . S
C1067 C1059 1.503 . S
C1067 C1066 1.370 . S
C1067 C1068 1.403 . S
C1068 C1067 1.403 . S
C1068 C1069 1.404 . S
C1068 C1071 1.539 . S
C1069 C1065 1.408 . S
C1069 C1068 1.404 . S
C1069 H1081 0.930 . S
C1070 C1066 1.524 . S
C1070 H1082 0.956 . S
C1070 H1083 0.961 . S
C1070 H1084 0.961 . S
C1071 C1068 1.539 . S
C1071 H1085 0.958 . S
C1071 H1086 0.961 . S
C1071 H1087 0.960 . S
H1072 C1056 0.931 . S
H1073 C1061 0.929 . S
H1074 C1062 0.960 . S
H1075 C1062 0.962 . S
H1076 C1062 0.960 . S
H1077 C1063 0.961 . S
H1078 C1063 0.961 . S
H1079 C1063 0.961 . S
H1080 C1064 0.931 . S
H1081 C1069 0.930 . S
H1082 C1070 0.956 . S
H1083 C1070 0.961 . S
H1084 C1070 0.961 . S
H1085 C1071 0.958 . S
H1086 C1071 0.961 . S
H1087 C1071 0.960 . S
C1088 C1089 1.391 . S
C1088 C1090 1.394 . S
C1088 H1104 0.931 . S
C1089 C1088 1.391 . S
C1089 C1093 1.376 . S
C1090 C1088 1.394 . S
C1090 C1091 1.369 . S
C1090 C1094 1.531 . S
C1091 C1090 1.369 . S
C1091 C1092 1.410 . S
C1091 C1099 1.503 . S
C1092 C1091 1.410 . S
C1092 C1093 1.392 . S
C1092 C1095 1.511 . S
C1093 C1089 1.376 . S
C1093 C1092 1.392 . S
C1093 H1105 0.929 . S
C1094 C1090 1.531 . S
C1094 H1106 0.960 . S
C1094 H1107 0.962 . S
C1094 H1108 0.960 . S
C1095 C1092 1.511 . S
C1095 H1109 0.961 . S
C1095 H1110 0.961 . S
C1095 H1111 0.961 . S
C1096 C1097 1.370 . S
C1096 C1098 1.363 . S
C1096 H1112 0.931 . S
C1097 C1096 1.370 . S
C1097 C1101 1.408 . S
C1098 C1096 1.363 . S
C1098 C1099 1.370 . S
C1098 C1102 1.524 . S
C1099 C1091 1.503 . S
C1099 C1098 1.370 . S
C1099 C1100 1.403 . S
C1100 C1099 1.403 . S
C1100 C1101 1.404 . S
C1100 C1103 1.539 . S
C1101 C1097 1.408 . S
C1101 C1100 1.404 . S
C1101 H1113 0.930 . S
C1102 C1098 1.524 . S
C1102 H1114 0.956 . S
C1102 H1115 0.961 . S
C1102 H1116 0.961 . S
C1103 C1100 1.539 . S
C1103 H1117 0.958 . S
C1103 H1118 0.961 . S
C1103 H1119 0.960 . S
H1104 C1088 0.931 . S
H1105 C1093 0.929 . S
H1106 C1094 0.960 . S
H1107 C1094 0.962 . S
H1108 C1094 0.960 . S
H1109 C1095 0.961 . S
H1110 C1095 0.961 . S
H1111 C1095 0.961 . S
H1112 C1096 0.931 . S
H1113 C1101 0.930 . S
H1114 C1102 0.956 . S
H1115 C1102 0.961 . S
H1116 C1102 0.961 . S
H1117 C1103 0.958 . S
H1118 C1103 0.961 . S
H1119 C1103 0.960 . S
C1120 C1121 1.391 . S
C1120 C1122 1.394 . S
C1120 H1136 0.931 . S
C1121 C1120 1.391 . S
C1121 C1125 1.376 . S
C1122 C1120 1.394 . S
C1122 C1123 1.369 . S
C1122 C1126 1.531 . S
C1123 C1122 1.369 . S
C1123 C1124 1.410 . S
C1123 C1131 1.503 . S
C1124 C1123 1.410 . S
C1124 C1125 1.392 . S
C1124 C1127 1.511 . S
C1125 C1121 1.376 . S
C1125 C1124 1.392 . S
C1125 H1137 0.929 . S
C1126 C1122 1.531 . S
C1126 H1138 0.960 . S
C1126 H1139 0.962 . S
C1126 H1140 0.960 . S
C1127 C1124 1.511 . S
C1127 H1141 0.961 . S
C1127 H1142 0.961 . S
C1127 H1143 0.961 . S
C1128 C1129 1.370 . S
C1128 C1130 1.363 . S
C1128 H1144 0.931 . S
C1129 C1128 1.370 . S
C1129 C1133 1.408 . S
C1130 C1128 1.363 . S
C1130 C1131 1.370 . S
C1130 C1134 1.524 . S
C1131 C1123 1.503 . S
C1131 C1130 1.370 . S
C1131 C1132 1.403 . S
C1132 C1131 1.403 . S
C1132 C1133 1.404 . S
C1132 C1135 1.539 . S
C1133 C1129 1.408 . S
C1133 C1132 1.404 . S
C1133 H1145 0.930 . S
C1134 C1130 1.524 . S
C1134 H1146 0.956 . S
C1134 H1147 0.961 . S
C1134 H1148 0.961 . S
C1135 C1132 1.539 . S
C1135 H1149 0.958 . S
C1135 H1150 0.961 . S
C1135 H1151 0.960 . S
H1136 C1120 0.931 . S
H1137 C1125 0.929 . S
H1138 C1126 0.960 . S
H1139 C1126 0.962 . S
H1140 C1126 0.960 . S
H1141 C1127 0.961 . S
H1142 C1127 0.961 . S
H1143 C1127 0.961 . S
H1144 C1128 0.931 . S
H1145 C1133 0.930 . S
H1146 C1134 0.956 . S
H1147 C1134 0.961 . S
H1148 C1134 0.961 . S
H1149 C1135 0.958 . S
H1150 C1135 0.961 . S
H1151 C1135 0.960 . S
C1152 C1153 1.391 . S
C1152 C1154 1.394 . S
C1152 H1168 0.931 . S
C1153 C1152 1.391 . S
C1153 C1157 1.376 . S
C1154 C1152 1.394 . S
C1154 C1155 1.369 . S
C1154 C1158 1.531 . S
C1155 C1154 1.369 . S
C1155 C1156 1.410 . S
C1155 C1163 1.503 . S
C1156 C1155 1.410 . S
C1156 C1157 1.392 . S
C1156 C1159 1.511 . S
C1157 C1153 1.376 . S
C1157 C1156 1.392 . S
C1157 H1169 0.929 . S
C1158 C1154 1.531 . S
C1158 H1170 0.960 . S
C1158 H1171 0.962 . S
C1158 H1172 0.960 . S
C1159 C1156 1.511 . S
C1159 H1173 0.961 . S
C1159 H1174 0.961 . S
C1159 H1175 0.961 . S
C1160 C1161 1.370 . S
C1160 C1162 1.363 . S
C1160 H1176 0.931 . S
C1161 C1160 1.370 . S
C1161 C1165 1.408 . S
C1162 C1160 1.363 . S
C1162 C1163 1.370 . S
C1162 C1166 1.524 . S
C1163 C1155 1.503 . S
C1163 C1162 1.370 . S
C1163 C1164 1.403 . S
C1164 C1163 1.403 . S
C1164 C1165 1.404 . S
C1164 C1167 1.539 . S
C1165 C1161 1.408 . S
C1165 C1164 1.404 . S
C1165 H1177 0.930 . S
C1166 C1162 1.524 . S
C1166 H1178 0.956 . S
C1166 H1179 0.961 . S
C1166 H1180 0.961 . S
C1167 C1164 1.539 . S
C1167 H1181 0.958 . S
C1167 H1182 0.961 . S
C1167 H1183 0.960 . S
H1168 C1152 0.931 . S
H1169 C1157 0.929 . S
H1170 C1158 0.960 . S
H1171 C1158 0.962 . S
H1172 C1158 0.960 . S
H1173 C1159 0.961 . S
H1174 C1159 0.961 . S
H1175 C1159 0.961 . S
H1176 C1160 0.931 . S
H1177 C1165 0.930 . S
H1178 C1166 0.956 . S
H1179 C1166 0.961 . S
H1180 C1166 0.961 . S
H1181 C1167 0.958 . S
H1182 C1167 0.961 . S
H1183 C1167 0.960 . S
C1184 C1185 1.391 . S
C1184 C1186 1.394 . S
C1184 H1200 0.931 . S
C1185 C1184 1.391 . S
C1185 C1189 1.376 . S
C1186 C1184 1.394 . S
C1186 C1187 1.369 . S
C1186 C1190 1.531 . S
C1187 C1186 1.369 . S
C1187 C1188 1.410 . S
C1187 C1195 1.503 . S
C1188 C1187 1.410 . S
C1188 C1189 1.392 . S
C1188 C1191 1.511 . S
C1189 C1185 1.376 . S
C1189 C1188 1.392 . S
C1189 H1201 0.929 . S
C1190 C1186 1.531 . S
C1190 H1202 0.960 . S
C1190 H1203 0.962 . S
C1190 H1204 0.960 . S
C1191 C1188 1.511 . S
C1191 H1205 0.961 . S
C1191 H1206 0.961 . S
C1191 H1207 0.961 . S
C1192 C1193 1.370 . S
C1192 C1194 1.363 . S
C1192 H1208 0.931 . S
C1193 C1192 1.370 . S
C1193 C1197 1.408 . S
C1194 C1192 1.363 . S
C1194 C1195 1.370 . S
C1194 C1198 1.524 . S
C1195 C1187 1.503 . S
C1195 C1194 1.370 . S
C1195 C1196 1.403 . S
C1196 C1195 1.403 . S
C1196 C1197 1.404 . S
C1196 C1199 1.539 . S
C1197 C1193 1.408 . S
C1197 C1196 1.404 . S
C1197 H1209 0.930 . S
C1198 C1194 1.524 . S
C1198 H1210 0.956 . S
C1198 H1211 0.961 . S
C1198 H1212 0.961 . S
C1199 C1196 1.539 . S
C1199 H1213 0.958 . S
C1199 H1214 0.961 . S
C1199 H1215 0.960 . S
H1200 C1184 0.931 . S
H1201 C1189 0.929 . S
H1202 C1190 0.960 . S
H1203 C1190 0.962 . S
H1204 C1190 0.960 . S
H1205 C1191 0.961 . S
H1206 C1191 0.961 . S
H1207 C1191 0.961 . S
H1208 C1192 0.931 . S
H1209 C1197 0.930 . S
H1210 C1198 0.956 . S
H1211 C1198 0.961 . S
H1212 C1198 0.961 . S
H1213 C1199 0.958 . S
H1214 C1199 0.961 . S
H1215 C1199 0.960 . S
C1216 C1217 1.391 . S
C1216 C1218 1.394 . S
C1216 H1232 0.931 . S
C1217 C1216 1.391 . S
C1217 C1221 1.376 . S
C1218 C1216 1.394 . S
C1218 C1219 1.369 . S
C1218 C1222 1.531 . S
C1219 C1218 1.369 . S
C1219 C1220 1.410 . S
C1219 C1227 1.503 . S
C1220 C1219 1.410 . S
C1220 C1221 1.392 . S
C1220 C1223 1.511 . S
C1221 C1217 1.376 . S
C1221 C1220 1.392 . S
C1221 H1233 0.929 . S
C1222 C1218 1.531 . S
C1222 H1234 0.960 . S
C1222 H1235 0.962 . S
C1222 H1236 0.960 . S
C1223 C1220 1.511 . S
C1223 H1237 0.961 . S
C1223 H1238 0.961 . S
C1223 H1239 0.961 . S
C1224 C1225 1.370 . S
C1224 C1226 1.363 . S
C1224 H1240 0.931 . S
C1225 C1224 1.370 . S
C1225 C1229 1.408 . S
C1226 C1224 1.363 . S
C1226 C1227 1.370 . S
C1226 C1230 1.524 . S
C1227 C1219 1.503 . S
C1227 C1226 1.370 . S
C1227 C1228 1.403 . S
C1228 C1227 1.403 . S
C1228 C1229 1.404 . S
C1228 C1231 1.539 . S
C1229 C1225 1.408 . S
C1229 C1228 1.404 . S
C1229 H1241 0.930 . S
C1230 C1226 1.524 . S
C1230 H1242 0.956 . S
C1230 H1243 0.961 . S
C1230 H1244 0.961 . S
C1231 C1228 1.539 . S
C1231 H1245 0.958 . S
C1231 H1246 0.961 . S
C1231 H1247 0.960 . S
H1232 C1216 0.931 . S
H1233 C1221 0.929 . S
H1234 C1222 0.960 . S
H1235 C1222 0.962 . S
H1236 C1222 0.960 . S
H1237 C1223 0.961 . S
H1238 C1223 0.961 . S
H1239 C1223 0.961 . S
H1240 C1224 0.931 . S
H1241 C1229 0.930 . S
H1242 C1230 0.956 . S
H1243 C1230 0.961 . S
H1244 C1230 0.961 . S
H1245 C1231 0.958 . S
H1246 C1231 0.961 . S
H1247 C1231 0.960 . S
C1248 C1249 1.391 . S
C1248 C1250 1.394 . S
C1248 H1264 0.931 . S
C1249 C1248 1.391 . S
C1249 C1253 1.376 . S
C1250 C1248 1.394 . S
C1250 C1251 1.369 . S
C1250 C1254 1.531 . S
C1251 C1250 1.369 . S
C1251 C1252 1.410 . S
C1251 C1259 1.503 . S
C1252 C1251 1.410 . S
C1252 C1253 1.392 . S
C1252 C1255 1.511 . S
C1253 C1249 1.376 . S
C1253 C1252 1.392 . S
C1253 H1265 0.929 . S
C1254 C1250 1.531 . S
C1254 H1266 0.960 . S
C1254 H1267 0.962 . S
C1254 H1268 0.960 . S
C1255 C1252 1.511 . S
C1255 H1269 0.961 . S
C1255 H1270 0.961 . S
C1255 H1271 0.961 . S
C1256 C1257 1.370 . S
C1256 C1258 1.363 . S
C1256 H1272 0.931 . S
C1257 C1256 1.370 . S
C1257 C1261 1.408 . S
C1258 C1256 1.363 . S
C1258 C1259 1.370 . S
C1258 C1262 1.524 . S
C1259 C1251 1.503 . S
C1259 C1258 1.370 . S
C1259 C1260 1.403 . S
C1260 C1259 1.403 . S
C1260 C1261 1.404 . S
C1260 C1263 1.539 . S
C1261 C1257 1.408 . S
C1261 C1260 1.404 . S
C1261 H1273 0.930 . S
C1262 C1258 1.524 . S
C1262 H1274 0.956 . S
C1262 H1275 0.961 . S
C1262 H1276 0.961 . S
C1263 C1260 1.539 . S
C1263 H1277 0.958 . S
C1263 H1278 0.961 . S
C1263 H1279 0.960 . S
H1264 C1248 0.931 . S
H1265 C1253 0.929 . S
H1266 C1254 0.960 . S
H1267 C1254 0.962 . S
H1268 C1254 0.960 . S
H1269 C1255 0.961 . S
H1270 C1255 0.961 . S
H1271 C1255 0.961 . S
H1272 C1256 0.931 . S
H1273 C1261 0.930 . S
H1274 C1262 0.956 . S
H1275 C1262 0.961 . S
H1276 C1262 0.961 . S
H1277 C1263 0.958 . S
H1278 C1263 0.961 . S
H1279 C1263 0.960 . S
C1280 C1281 1.391 . S
C1280 C1282 1.394 . S
C1280 H1296 0.931 . S
C1281 C1280 1.391 . S
C1281 C1285 1.376 . S
C1282 C1280 1.394 . S
C1282 C1283 1.369 . S
C1282 C1286 1.531 . S
C1283 C1282 1.369 . S
C1283 C1284 1.410 . S
C1283 C1291 1.503 . S
C1284 C1283 1.410 . S
C1284 C1285 1.392 . S
C1284 C1287 1.511 . S
C1285 C1281 1.376 . S
C1285 C1284 1.392 . S
C1285 H1297 0.929 . S
C1286 C1282 1.531 . S
C1286 H1298 0.960 . S
C1286 H1299 0.962 . S
C1286 H1300 0.960 . S
C1287 C1284 1.511 . S
C1287 H1301 0.961 . S
C1287 H1302 0.961 . S
C1287 H1303 0.961 . S
C1288 C1289 1.370 . S
C1288 C1290 1.363 . S
C1288 H1304 0.931 . S
C1289 C1288 1.370 . S
C1289 C1293 1.408 . S
C1290 C1288 1.363 . S
C1290 C1291 1.370 . S
C1290 C1294 1.524 . S
C1291 C1283 1.503 . S
C1291 C1290 1.370 . S
C1291 C1292 1.403 . S
C1292 C1291 1.403 . S
C1292 C1293 1.404 . S
C1292 C1295 1.539 . S
C1293 C1289 1.408 . S
C1293 C1292 1.404 . S
C1293 H1305 0.930 . S
C1294 C1290 1.524 . S
C1294 H1306 0.956 . S
C1294 H1307 0.961 . S
C1294 H1308 0.961 . S
C1295 C1292 1.539 . S
C1295 H1309 0.958 . S
C1295 H1310 0.961 . S
C1295 H1311 0.960 . S
H1296 C1280 0.931 . S
H1297 C1285 0.929 . S
H1298 C1286 0.960 . S
H1299 C1286 0.962 . S
H1300 C1286 0.960 . S
H1301 C1287 0.961 . S
H1302 C1287 0.961 . S
H1303 C1287 0.961 . S
H1304 C1288 0.931 . S
H1305 C1293 0.930 . S
H1306 C1294 0.956 . S
H1307 C1294 0.961 . S
H1308 C1294 0.961 . S
H1309 C1295 0.958 . S
H1310 C1295 0.961 . S
H1311 C1295 0.960 . S
C1312 C1313 1.391 . S
C1312 C1314 1.394 . S
C1312 H1328 0.931 . S
C1313 C1312 1.391 . S
C1313 C1317 1.376 . S
C1314 C1312 1.394 . S
C1314 C1315 1.369 . S
C1314 C1318 1.531 . S
C1315 C1314 1.369 . S
C1315 C1316 1.410 . S
C1315 C1323 1.503 1_556 S
C1316 C1315 1.410 . S
C1316 C1317 1.392 . S
C1316 C1319 1.511 1_556 S
C1317 C1313 1.376 . S
C1317 C1316 1.392 . S
C1317 H1329 0.929 . S
C1318 C1314 1.531 . S
C1318 H1330 0.960 . S
C1318 H1331 0.962 . S
C1318 H1332 0.960 . S
C1319 C1316 1.511 1_554 S
C1319 H1333 0.961 . S
C1319 H1334 0.961 . S
C1319 H1335 0.961 . S
C1320 C1321 1.370 . S
C1320 C1322 1.363 . S
C1320 H1336 0.931 . S
C1321 C1320 1.370 . S
C1321 C1325 1.408 . S
C1322 C1320 1.363 . S
C1322 C1323 1.370 . S
C1322 C1326 1.524 . S
C1323 C1315 1.503 1_554 S
C1323 C1322 1.370 . S
C1323 C1324 1.403 . S
C1324 C1323 1.403 . S
C1324 C1325 1.404 . S
C1324 C1327 1.539 1_554 S
C1325 C1321 1.408 . S
C1325 C1324 1.404 . S
C1325 H1337 0.930 . S
C1326 C1322 1.524 . S
C1326 H1338 0.956 . S
C1326 H1339 0.961 . S
C1326 H1340 0.961 . S
C1327 C1324 1.539 1_556 S
C1327 H1341 0.958 . S
C1327 H1342 0.961 . S
C1327 H1343 0.960 . S
H1328 C1312 0.931 . S
H1329 C1317 0.929 . S
H1330 C1318 0.960 . S
H1331 C1318 0.962 . S
H1332 C1318 0.960 . S
H1333 C1319 0.961 . S
H1334 C1319 0.961 . S
H1335 C1319 0.961 . S
H1336 C1320 0.931 . S
H1337 C1325 0.930 . S
H1338 C1326 0.956 . S
H1339 C1326 0.961 . S
H1340 C1326 0.961 . S
H1341 C1327 0.958 . S
H1342 C1327 0.961 . S
H1343 C1327 0.960 . S
C1344 C1345 1.391 . S
C1344 C1346 1.394 . S
C1344 H1360 0.931 . S
C1345 C1344 1.391 . S
C1345 C1349 1.376 . S
C1346 C1344 1.394 . S
C1346 C1347 1.369 . S
C1346 C1350 1.531 . S
C1347 C1346 1.369 . S
C1347 C1348 1.410 . S
C1347 C1355 1.503 . S
C1348 C1347 1.410 . S
C1348 C1349 1.392 . S
C1348 C1351 1.511 . S
C1349 C1345 1.376 . S
C1349 C1348 1.392 . S
C1349 H1361 0.929 . S
C1350 C1346 1.531 . S
C1350 H1362 0.960 . S
C1350 H1363 0.962 . S
C1350 H1364 0.960 . S
C1351 C1348 1.511 . S
C1351 H1365 0.961 . S
C1351 H1366 0.961 . S
C1351 H1367 0.961 . S
C1352 C1353 1.370 . S
C1352 C1354 1.363 . S
C1352 H1368 0.931 . S
C1353 C1352 1.370 . S
C1353 C1357 1.408 . S
C1354 C1352 1.363 . S
C1354 C1355 1.370 . S
C1354 C1358 1.524 . S
C1355 C1347 1.503 . S
C1355 C1354 1.370 . S
C1355 C1356 1.403 . S
C1356 C1355 1.403 . S
C1356 C1357 1.404 . S
C1356 C1359 1.539 . S
C1357 C1353 1.408 . S
C1357 C1356 1.404 . S
C1357 H1369 0.930 . S
C1358 C1354 1.524 . S
C1358 H1370 0.956 . S
C1358 H1371 0.961 . S
C1358 H1372 0.961 . S
C1359 C1356 1.539 . S
C1359 H1373 0.958 . S
C1359 H1374 0.961 . S
C1359 H1375 0.960 . S
H1360 C1344 0.931 . S
H1361 C1349 0.929 . S
H1362 C1350 0.960 . S
H1363 C1350 0.962 . S
H1364 C1350 0.960 . S
H1365 C1351 0.961 . S
H1366 C1351 0.961 . S
H1367 C1351 0.961 . S
H1368 C1352 0.931 . S
H1369 C1357 0.930 . S
H1370 C1358 0.956 . S
H1371 C1358 0.961 . S
H1372 C1358 0.961 . S
H1373 C1359 0.958 . S
H1374 C1359 0.961 . S
H1375 C1359 0.960 . S
C1376 C1377 1.391 . S
C1376 C1378 1.394 . S
C1376 H1392 0.931 . S
C1377 C1376 1.391 . S
C1377 C1381 1.376 . S
C1378 C1376 1.394 . S
C1378 C1379 1.369 . S
C1378 C1382 1.531 . S
C1379 C1378 1.369 . S
C1379 C1380 1.410 . S
C1379 C1387 1.503 . S
C1380 C1379 1.410 . S
C1380 C1381 1.392 . S
C1380 C1383 1.511 . S
C1381 C1377 1.376 . S
C1381 C1380 1.392 . S
C1381 H1393 0.929 . S
C1382 C1378 1.531 . S
C1382 H1394 0.960 . S
C1382 H1395 0.962 . S
C1382 H1396 0.960 . S
C1383 C1380 1.511 . S
C1383 H1397 0.961 . S
C1383 H1398 0.961 . S
C1383 H1399 0.961 . S
C1384 C1385 1.370 . S
C1384 C1386 1.363 . S
C1384 H1400 0.931 . S
C1385 C1384 1.370 . S
C1385 C1389 1.408 . S
C1386 C1384 1.363 . S
C1386 C1387 1.370 . S
C1386 C1390 1.524 . S
C1387 C1379 1.503 . S
C1387 C1386 1.370 . S
C1387 C1388 1.403 . S
C1388 C1387 1.403 . S
C1388 C1389 1.404 . S
C1388 C1391 1.539 . S
C1389 C1385 1.408 . S
C1389 C1388 1.404 . S
C1389 H1401 0.930 . S
C1390 C1386 1.524 . S
C1390 H1402 0.956 . S
C1390 H1403 0.961 . S
C1390 H1404 0.961 . S
C1391 C1388 1.539 . S
C1391 H1405 0.958 . S
C1391 H1406 0.961 . S
C1391 H1407 0.960 . S
H1392 C1376 0.931 . S
H1393 C1381 0.929 . S
H1394 C1382 0.960 . S
H1395 C1382 0.962 . S
H1396 C1382 0.960 . S
H1397 C1383 0.961 . S
H1398 C1383 0.961 . S
H1399 C1383 0.961 . S
H1400 C1384 0.931 . S
H1401 C1389 0.930 . S
H1402 C1390 0.956 . S
H1403 C1390 0.961 . S
H1404 C1390 0.961 . S
H1405 C1391 0.958 . S
H1406 C1391 0.961 . S
H1407 C1391 0.960 . S
C1408 C1409 1.391 . S
C1408 C1410 1.394 . S
C1408 H1424 0.931 . S
C1409 C1408 1.391 . S
C1409 C1413 1.376 . S
C1410 C1408 1.394 . S
C1410 C1411 1.369 . S
C1410 C1414 1.531 . S
C1411 C1410 1.369 . S
C1411 C1412 1.410 . S
C1411 C1419 1.503 . S
C1412 C1411 1.410 . S
C1412 C1413 1.392 . S
C1412 C1415 1.511 . S
C1413 C1409 1.376 . S
C1413 C1412 1.392 . S
C1413 H1425 0.929 . S
C1414 C1410 1.531 . S
C1414 H1426 0.960 . S
C1414 H1427 0.962 . S
C1414 H1428 0.945 1_565 S
C1415 C1412 1.511 . S
C1415 H1429 0.961 . S
C1415 H1430 0.961 . S
C1415 H1431 0.961 . S
C1416 C1417 1.370 . S
C1416 C1418 1.363 . S
C1416 H1432 0.931 . S
C1417 C1416 1.370 . S
C1417 C1421 1.408 . S
C1418 C1416 1.363 . S
C1418 C1419 1.370 . S
C1418 C1422 1.524 . S
C1419 C1411 1.503 . S
C1419 C1418 1.370 . S
C1419 C1420 1.403 . S
C1420 C1419 1.403 . S
C1420 C1421 1.404 . S
C1420 C1423 1.539 . S
C1421 C1417 1.408 . S
C1421 C1420 1.404 . S
C1421 H1433 0.930 . S
C1422 C1418 1.524 . S
C1422 H1434 0.956 . S
C1422 H1435 0.961 . S
C1422 H1436 0.961 . S
C1423 C1420 1.539 . S
C1423 H1437 0.958 . S
C1423 H1438 0.961 . S
C1423 H1439 0.960 . S
H1424 C1408 0.931 . S
H1425 C1413 0.929 . S
H1426 C1414 0.960 . S
H1427 C1414 0.962 . S
H1428 C1414 0.945 1_545 S
H1429 C1415 0.961 . S
H1430 C1415 0.961 . S
H1431 C1415 0.961 . S
H1432 C1416 0.931 . S
H1433 C1421 0.930 . S
H1434 C1422 0.956 . S
H1435 C1422 0.961 . S
H1436 C1422 0.961 . S
H1437 C1423 0.958 . S
H1438 C1423 0.961 . S
H1439 C1423 0.960 . S
C1440 C1441 1.391 . S
C1440 C1442 1.394 . S
C1440 H1456 0.931 . S
C1441 C1440 1.391 . S
C1441 C1445 1.376 . S
C1442 C1440 1.394 . S
C1442 C1443 1.369 . S
C1442 C1446 1.531 . S
C1443 C1442 1.369 . S
C1443 C1444 1.410 . S
C1443 C1451 1.503 . S
C1444 C1443 1.410 . S
C1444 C1445 1.392 . S
C1444 C1447 1.511 . S
C1445 C1441 1.376 . S
C1445 C1444 1.392 . S
C1445 H1457 0.929 . S
C1446 C1442 1.531 . S
C1446 H1458 0.960 . S
C1446 H1459 0.962 . S
C1446 H1460 0.960 . S
C1447 C1444 1.511 . S
C1447 H1461 0.961 . S
C1447 H1462 0.961 . S
C1447 H1463 0.961 . S
C1448 C1449 1.370 . S
C1448 C1450 1.363 . S
C1448 H1464 0.931 . S
C1449 C1448 1.370 . S
C1449 C1453 1.408 . S
C1450 C1448 1.363 . S
C1450 C1451 1.370 . S
C1450 C1454 1.524 . S
C1451 C1443 1.503 . S
C1451 C1450 1.370 . S
C1451 C1452 1.403 . S
C1452 C1451 1.403 . S
C1452 C1453 1.404 . S
C1452 C1455 1.539 . S
C1453 C1449 1.408 . S
C1453 C1452 1.404 . S
C1453 H1465 0.930 . S
C1454 C1450 1.524 . S
C1454 H1466 0.956 . S
C1454 H1467 0.961 . S
C1454 H1468 0.961 . S
C1455 C1452 1.539 . S
C1455 H1469 0.958 . S
C1455 H1470 0.961 . S
C1455 H1471 0.960 . S
H1456 C1440 0.931 . S
H1457 C1445 0.929 . S
H1458 C1446 0.960 . S
H1459 C1446 0.962 . S
H1460 C1446 0.960 . S
H1461 C1447 0.961 . S
H1462 C1447 0.961 . S
H1463 C1447 0.961 . S
H1464 C1448 0.931 . S
H1465 C1453 0.930 . S
H1466 C1454 0.956 . S
H1467 C1454 0.961 . S
H1468 C1454 0.961 . S
H1469 C1455 0.958 . S
H1470 C1455 0.961 . S
H1471 C1455 0.960 . S
C1472 C1473 1.391 . S
C1472 C1474 1.394 . S
C1472 H1488 0.931 . S
C1473 C1472 1.391 . S
C1473 C1477 1.376 . S
C1474 C1472 1.394 . S
C1474 C1475 1.369 . S
C1474 C1478 1.531 . S
C1475 C1474 1.369 . S
C1475 C1476 1.410 . S
C1475 C1483 1.503 . S
C1476 C1475 1.410 . S
C1476 C1477 1.392 . S
C1476 C1479 1.511 . S
C1477 C1473 1.376 . S
C1477 C1476 1.392 . S
C1477 H1489 0.929 . S
C1478 C1474 1.531 . S
C1478 H1490 0.960 . S
C1478 H1491 0.962 . S
C1478 H1492 0.960 . S
C1479 C1476 1.511 . S
C1479 H1493 0.961 . S
C1479 H1494 0.961 . S
C1479 H1495 0.961 . S
C1480 C1481 1.370 . S
C1480 C1482 1.363 . S
C1480 H1496 0.931 . S
C1481 C1480 1.370 . S
C1481 C1485 1.408 . S
C1482 C1480 1.363 . S
C1482 C1483 1.370 . S
C1482 C1486 1.524 . S
C1483 C1475 1.503 . S
C1483 C1482 1.370 . S
C1483 C1484 1.403 . S
C1484 C1483 1.403 . S
C1484 C1485 1.404 . S
C1484 C1487 1.539 . S
C1485 C1481 1.408 . S
C1485 C1484 1.404 . S
C1485 H1497 0.930 . S
C1486 C1482 1.524 . S
C1486 H1498 0.956 . S
C1486 H1499 0.961 . S
C1486 H1500 0.961 . S
C1487 C1484 1.539 . S
C1487 H1501 0.958 . S
C1487 H1502 0.961 . S
C1487 H1503 0.960 . S
H1488 C1472 0.931 . S
H1489 C1477 0.929 . S
H1490 C1478 0.960 . S
H1491 C1478 0.962 . S
H1492 C1478 0.960 . S
H1493 C1479 0.961 . S
H1494 C1479 0.961 . S
H1495 C1479 0.961 . S
H1496 C1480 0.931 . S
H1497 C1485 0.930 . S
H1498 C1486 0.956 . S
H1499 C1486 0.961 . S
H1500 C1486 0.961 . S
H1501 C1487 0.958 . S
H1502 C1487 0.961 . S
H1503 C1487 0.960 . S
C1504 C1505 1.391 . S
C1504 C1506 1.394 . S
C1504 H1520 0.931 . S
C1505 C1504 1.391 . S
C1505 C1509 1.376 . S
C1506 C1504 1.394 . S
C1506 C1507 1.369 . S
C1506 C1510 1.531 . S
C1507 C1506 1.369 . S
C1507 C1508 1.410 . S
C1507 C1515 1.503 . S
C1508 C1507 1.410 . S
C1508 C1509 1.392 . S
C1508 C1511 1.511 . S
C1509 C1505 1.376 . S
C1509 C1508 1.392 . S
C1509 H1521 0.929 . S
C1510 C1506 1.531 . S
C1510 H1522 0.960 . S
C1510 H1523 0.962 . S
C1510 H1524 0.960 . S
C1511 C1508 1.511 . S
C1511 H1525 0.961 . S
C1511 H1526 0.961 . S
C1511 H1527 0.961 . S
C1512 C1513 1.370 . S
C1512 C1514 1.363 . S
C1512 H1528 0.931 . S
C1513 C1512 1.370 . S
C1513 C1517 1.408 . S
C1514 C1512 1.363 . S
C1514 C1515 1.370 . S
C1514 C1518 1.524 . S
C1515 C1507 1.503 . S
C1515 C1514 1.370 . S
C1515 C1516 1.403 . S
C1516 C1515 1.403 . S
C1516 C1517 1.404 . S
C1516 C1519 1.539 . S
C1517 C1513 1.408 . S
C1517 C1516 1.404 . S
C1517 H1529 0.930 . S
C1518 C1514 1.524 . S
C1518 H1530 0.956 . S
C1518 H1531 0.961 . S
C1518 H1532 0.961 . S
C1519 C1516 1.539 . S
C1519 H1533 0.958 . S
C1519 H1534 0.961 . S
C1519 H1535 0.960 . S
H1520 C1504 0.931 . S
H1521 C1509 0.929 . S
H1522 C1510 0.960 . S
H1523 C1510 0.962 . S
H1524 C1510 0.960 . S
H1525 C1511 0.961 . S
H1526 C1511 0.961 . S
H1527 C1511 0.961 . S
H1528 C1512 0.931 . S
H1529 C1517 0.930 . S
H1530 C1518 0.956 . S
H1531 C1518 0.961 . S
H1532 C1518 0.961 . S
H1533 C1519 0.958 . S
H1534 C1519 0.961 . S
H1535 C1519 0.960 . S
C1536 C1537 1.391 . S
C1536 C1538 1.394 . S
C1536 H1552 0.931 . S
C1537 C1536 1.391 . S
C1537 C1541 1.376 . S
C1538 C1536 1.394 . S
C1538 C1539 1.369 . S
C1538 C1542 1.531 . S
C1539 C1538 1.369 . S
C1539 C1540 1.410 . S
C1539 C1547 1.503 . S
C1540 C1539 1.410 . S
C1540 C1541 1.392 . S
C1540 C1543 1.511 . S
C1541 C1537 1.376 . S
C1541 C1540 1.392 . S
C1541 H1553 0.929 . S
C1542 C1538 1.531 . S
C1542 H1554 0.960 . S
C1542 H1555 0.962 . S
C1542 H1556 0.960 . S
C1543 C1540 1.511 . S
C1543 H1557 0.961 . S
C1543 H1558 0.961 . S
C1543 H1559 0.961 . S
C1544 C1545 1.370 . S
C1544 C1546 1.363 . S
C1544 H1560 0.931 . S
C1545 C1544 1.370 . S
C1545 C1549 1.408 . S
C1546 C1544 1.363 . S
C1546 C1547 1.370 . S
C1546 C1550 1.524 . S
C1547 C1539 1.503 . S
C1547 C1546 1.370 . S
C1547 C1548 1.403 . S
C1548 C1547 1.403 . S
C1548 C1549 1.404 . S
C1548 C1551 1.539 . S
C1549 C1545 1.408 . S
C1549 C1548 1.404 . S
C1549 H1561 0.930 . S
C1550 C1546 1.524 . S
C1550 H1562 0.956 . S
C1550 H1563 0.961 . S
C1550 H1564 0.961 . S
C1551 C1548 1.539 . S
C1551 H1565 0.958 . S
C1551 H1566 0.961 . S
C1551 H1567 0.960 . S
H1552 C1536 0.931 . S
H1553 C1541 0.929 . S
H1554 C1542 0.960 . S
H1555 C1542 0.962 . S
H1556 C1542 0.960 . S
H1557 C1543 0.961 . S
H1558 C1543 0.961 . S
H1559 C1543 0.961 . S
H1560 C1544 0.931 . S
H1561 C1549 0.930 . S
H1562 C1550 0.956 . S
H1563 C1550 0.961 . S
H1564 C1550 0.961 . S
H1565 C1551 0.958 . S
H1566 C1551 0.961 . S
H1567 C1551 0.960 . S
C1568 C1569 1.391 . S
C1568 C1570 1.394 . S
C1568 H1584 0.931 . S
C1569 C1568 1.391 . S
C1569 C1573 1.376 . S
C1570 C1568 1.394 . S
C1570 C1571 1.369 . S
C1570 C1574 1.531 . S
C1571 C1570 1.369 . S
C1571 C1572 1.410 . S
C1571 C1579 1.503 . S
C1572 C1571 1.410 . S
C1572 C1573 1.392 . S
C1572 C1575 1.511 . S
C1573 C1569 1.376 . S
C1573 C1572 1.392 . S
C1573 H1585 0.929 . S
C1574 C1570 1.531 . S
C1574 H1586 0.960 . S
C1574 H1587 0.962 . S
C1574 H1588 0.960 . S
C1575 C1572 1.511 . S
C1575 H1589 0.961 . S
C1575 H1590 0.961 . S
C1575 H1591 0.961 . S
C1576 C1577 1.370 . S
C1576 C1578 1.363 . S
C1576 H1592 0.931 . S
C1577 C1576 1.370 . S
C1577 C1581 1.408 . S
C1578 C1576 1.363 . S
C1578 C1579 1.370 . S
C1578 C1582 1.524 . S
C1579 C1571 1.503 . S
C1579 C1578 1.370 . S
C1579 C1580 1.403 . S
C1580 C1579 1.403 . S
C1580 C1581 1.404 . S
C1580 C1583 1.539 . S
C1581 C1577 1.408 . S
C1581 C1580 1.404 . S
C1581 H1593 0.930 . S
C1582 C1578 1.524 . S
C1582 H1594 0.956 . S
C1582 H1595 0.961 . S
C1582 H1596 0.961 . S
C1583 C1580 1.539 . S
C1583 H1597 0.958 . S
C1583 H1598 0.961 . S
C1583 H1599 0.960 . S
H1584 C1568 0.931 . S
H1585 C1573 0.929 . S
H1586 C1574 0.960 . S
H1587 C1574 0.962 . S
H1588 C1574 0.960 . S
H1589 C1575 0.961 . S
H1590 C1575 0.961 . S
H1591 C1575 0.961 . S
H1592 C1576 0.931 . S
H1593 C1581 0.930 . S
H1594 C1582 0.956 . S
H1595 C1582 0.961 . S
H1596 C1582 0.961 . S
H1597 C1583 0.958 . S
H1598 C1583 0.961 . S
H1599 C1583 0.960 . S
C1600 C1601 1.391 . S
C1600 C1602 1.394 . S
C1600 H1616 0.931 . S
C1601 C1600 1.391 . S
C1601 C1605 1.376 . S
C1602 C1600 1.394 . S
C1602 C1603 1.369 . S
C1602 C1606 1.531 . S
C1603 C1602 1.369 . S
C1603 C1604 1.410 . S
C1603 C1611 1.503 . S
C1604 C1603 1.410 . S
C1604 C1605 1.392 . S
C1604 C1607 1.511 . S
C1605 C1601 1.376 . S
C1605 C1604 1.392 . S
C1605 H1617 0.929 . S
C1606 C1602 1.531 . S
C1606 H1618 0.960 . S
C1606 H1619 0.962 . S
C1606 H1620 0.960 . S
C1607 C1604 1.511 . S
C1607 H1621 0.961 . S
C1607 H1622 0.961 . S
C1607 H1623 0.961 . S
C1608 C1609 1.370 . S
C1608 C1610 1.363 . S
C1608 H1624 0.931 . S
C1609 C1608 1.370 . S
C1609 C1613 1.408 . S
C1610 C1608 1.363 . S
C1610 C1611 1.370 . S
C1610 C1614 1.524 . S
C1611 C1603 1.503 . S
C1611 C1610 1.370 . S
C1611 C1612 1.403 . S
C1612 C1611 1.403 . S
C1612 C1613 1.404 . S
C1612 C1615 1.539 . S
C1613 C1609 1.408 . S
C1613 C1612 1.404 . S
C1613 H1625 0.930 . S
C1614 C1610 1.524 . S
C1614 H1626 0.956 . S
C1614 H1627 0.961 . S
C1614 H1628 0.961 . S
C1615 C1612 1.539 . S
C1615 H1629 0.958 . S
C1615 H1630 0.961 . S
C1615 H1631 0.960 . S
H1616 C1600 0.931 . S
H1617 C1605 0.929 . S
H1618 C1606 0.960 . S
H1619 C1606 0.962 . S
H1620 C1606 0.960 . S
H1621 C1607 0.961 . S
H1622 C1607 0.961 . S
H1623 C1607 0.961 . S
H1624 C1608 0.931 . S
H1625 C1613 0.930 . S
H1626 C1614 0.956 . S
H1627 C1614 0.961 . S
H1628 C1614 0.961 . S
H1629 C1615 0.958 . S
H1630 C1615 0.961 . S
H1631 C1615 0.960 . S
C1632 C1633 1.391 . S
C1632 C1634 1.394 . S
C1632 H1648 0.931 . S
C1633 C1632 1.391 . S
C1633 C1637 1.376 . S
C1634 C1632 1.394 . S
C1634 C1635 1.369 . S
C1634 C1638 1.531 . S
C1635 C1634 1.369 . S
C1635 C1636 1.410 . S
C1635 C1643 1.503 . S
C1636 C1635 1.410 . S
C1636 C1637 1.392 . S
C1636 C1639 1.511 . S
C1637 C1633 1.376 . S
C1637 C1636 1.392 . S
C1637 H1649 0.929 . S
C1638 C1634 1.531 . S
C1638 H1650 0.960 . S
C1638 H1651 0.962 . S
C1638 H1652 0.960 . S
C1639 C1636 1.511 . S
C1639 H1653 0.961 . S
C1639 H1654 0.961 . S
C1639 H1655 0.961 . S
C1640 C1641 1.370 . S
C1640 C1642 1.363 . S
C1640 H1656 0.931 . S
C1641 C1640 1.370 . S
C1641 C1645 1.408 . S
C1642 C1640 1.363 . S
C1642 C1643 1.370 . S
C1642 C1646 1.524 . S
C1643 C1635 1.503 . S
C1643 C1642 1.370 . S
C1643 C1644 1.403 . S
C1644 C1643 1.403 . S
C1644 C1645 1.404 . S
C1644 C1647 1.539 . S
C1645 C1641 1.408 . S
C1645 C1644 1.404 . S
C1645 H1657 0.930 . S
C1646 C1642 1.524 . S
C1646 H1658 0.956 . S
C1646 H1659 0.961 . S
C1646 H1660 0.961 . S
C1647 C1644 1.539 . S
C1647 H1661 0.958 . S
C1647 H1662 0.961 . S
C1647 H1663 0.960 . S
H1648 C1632 0.931 . S
H1649 C1637 0.929 . S
H1650 C1638 0.960 . S
H1651 C1638 0.962 . S
H1652 C1638 0.960 . S
H1653 C1639 0.961 . S
H1654 C1639 0.961 . S
H1655 C1639 0.961 . S
H1656 C1640 0.931 . S
H1657 C1645 0.930 . S
H1658 C1646 0.956 . S
H1659 C1646 0.961 . S
H1660 C1646 0.961 . S
H1661 C1647 0.958 . S
H1662 C1647 0.961 . S
H1663 C1647 0.960 . S
C1664 C1665 1.391 . S
C1664 C1666 1.394 . S
C1664 H1680 0.931 . S
C1665 C1664 1.391 . S
C1665 C1669 1.376 . S
C1666 C1664 1.394 . S
C1666 C1667 1.369 . S
C1666 C1670 1.531 . S
C1667 C1666 1.369 . S
C1667 C1668 1.410 . S
C1667 C1675 1.503 . S
C1668 C1667 1.410 . S
C1668 C1669 1.392 . S
C1668 C1671 1.511 . S
C1669 C1665 1.376 . S
C1669 C1668 1.392 . S
C1669 H1681 0.929 . S
C1670 C1666 1.531 . S
C1670 H1682 0.960 . S
C1670 H1683 0.962 . S
C1670 H1684 0.960 . S
C1671 C1668 1.511 . S
C1671 H1685 0.961 . S
C1671 H1686 0.961 . S
C1671 H1687 0.961 . S
C1672 C1673 1.370 . S
C1672 C1674 1.363 . S
C1672 H1688 0.931 . S
C1673 C1672 1.370 . S
C1673 C1677 1.408 . S
C1674 C1672 1.363 . S
C1674 C1675 1.370 . S
C1674 C1678 1.524 . S
C1675 C1667 1.503 . S
C1675 C1674 1.370 . S
C1675 C1676 1.403 . S
C1676 C1675 1.403 . S
C1676 C1677 1.404 . S
C1676 C1679 1.539 . S
C1677 C1673 1.408 . S
C1677 C1676 1.404 . S
C1677 H1689 0.930 . S
C1678 C1674 1.524 . S
C1678 H1690 0.956 . S
C1678 H1691 0.961 . S
C1678 H1692 0.961 . S
C1679 C1676 1.539 . S
C1679 H1693 0.958 . S
C1679 H1694 0.961 . S
C1679 H1695 0.960 . S
H1680 C1664 0.931 . S
H1681 C1669 0.929 . S
H1682 C1670 0.960 . S
H1683 C1670 0.962 . S
H1684 C1670 0.960 . S
H1685 C1671 0.961 . S
H1686 C1671 0.961 . S
H1687 C1671 0.961 . S
H1688 C1672 0.931 . S
H1689 C1677 0.930 . S
H1690 C1678 0.956 . S
H1691 C1678 0.961 . S
H1692 C1678 0.961 . S
H1693 C1679 0.958 . S
H1694 C1679 0.961 . S
H1695 C1679 0.960 . S
C1696 C1697 1.391 . S
C1696 C1698 1.394 . S
C1696 H1712 0.931 . S
C1697 C1696 1.391 . S
C1697 C1701 1.376 . S
C1698 C1696 1.394 . S
C1698 C1699 1.369 . S
C1698 C1702 1.531 . S
C1699 C1698 1.369 . S
C1699 C1700 1.410 . S
C1699 C1707 1.503 1_556 S
C1700 C1699 1.410 . S
C1700 C1701 1.392 . S
C1700 C1703 1.511 . S
C1701 C1697 1.376 . S
C1701 C1700 1.392 . S
C1701 H1713 0.929 . S
C1702 C1698 1.531 . S
C1702 H1714 0.960 . S
C1702 H1715 0.962 . S
C1702 H1716 0.960 . S
C1703 C1700 1.511 . S
C1703 H1717 0.961 . S
C1703 H1718 0.961 . S
C1703 H1719 0.961 . S
C1704 C1705 1.370 . S
C1704 C1706 1.363 . S
C1704 H1720 0.931 . S
C1705 C1704 1.370 . S
C1705 C1709 1.408 . S
C1706 C1704 1.363 . S
C1706 C1707 1.370 . S
C1706 C1710 1.524 . S
C1707 C1699 1.503 1_554 S
C1707 C1706 1.370 . S
C1707 C1708 1.403 1_554 S
C1708 C1707 1.403 1_556 S
C1708 C1709 1.404 1_556 S
C1708 C1711 1.539 . S
C1709 C1705 1.408 . S
C1709 C1708 1.404 1_554 S
C1709 H1721 0.930 . S
C1710 C1706 1.524 . S
C1710 H1722 0.956 . S
C1710 H1723 0.961 . S
C1710 H1724 0.961 . S
C1711 C1708 1.539 . S
C1711 H1725 0.958 . S
C1711 H1726 0.961 . S
C1711 H1727 0.960 . S
H1712 C1696 0.931 . S
H1713 C1701 0.929 . S
H1714 C1702 0.960 . S
H1715 C1702 0.962 . S
H1716 C1702 0.960 . S
H1717 C1703 0.961 . S
H1718 C1703 0.961 . S
H1719 C1703 0.961 . S
H1720 C1704 0.931 . S
H1721 C1709 0.930 . S
H1722 C1710 0.956 . S
H1723 C1710 0.961 . S
H1724 C1710 0.961 . S
H1725 C1711 0.958 . S
H1726 C1711 0.961 . S
H1727 C1711 0.960 . S
C713 C593 1.684 . S
C705 C39 1.654 . S
C745 C619 1.656 . S
C737 C125 1.643 . S
C777 C633 2.207 1_655 S
C769 C217 2.109 . S
C809 C635 1.954 . S
C801 C261 1.836 . S
C833 C359 1.452 . S
C841 C632 1.506 . S
C873 C634 1.555 . S
C865 C433 1.479 . S
C905 C592 1.528 . S
C897 C495 1.575 . S
C937 C618 1.687 . S
C929 C587 1.707 . S
C969 C620 1.737 1_655 S
C961 C557 1.734 . S
C1001 C646 1.135 . S
C993 C347 1.163 . S
C1033 C604 1.116 . S
C1025 C421 1.106 . S
C1065 C606 1.644 . S
C1057 C507 1.590 . S
C1097 C605 1.513 . S
C1089 C137 1.503 . S
C1129 C607 1.599 . S
C1121 C187 1.541 . S
C1161 C621 2.603 . S
C1153 C291 2.576 . S
C1193 C647 2.103 . S
C1185 C69 2.091 . S
C1225 C649 1.458 . S
C1217 C581 1.460 . S
C1249 C365 2.047 . S
C1257 C675 2.026 . S
C1281 C439 2.465 . S
C1289 C688 2.442 . S
C1313 C483 1.493 . S
C1321 C691 1.529 . S
C1345 C113 1.735 . S
C1353 C689 1.764 . S
C1377 C211 1.640 . S
C1385 C690 1.680 . S
C1409 C273 1.323 . S
C1417 C648 1.374 . S
C1449 C674 1.167 . S
C1441 C51 1.147 . S
C1481 C677 1.597 . S
C1473 C63 1.564 . S
C1505 C143 1.734 . S
C1513 C702 1.752 . S
C1537 C199 1.764 . S
C1545 C660 1.811 . S
C1569 C285 1.459 . S
C1577 C662 1.509 . S
C1609 C661 1.636 . S
C1601 C335 1.587 . S
C1641 C663 1.998 . S
C1633 C409 1.885 . S
C1665 C513 1.992 . S
C1673 C676 1.997 1_556 S
C1705 C703 1.633 . S
C1697 C569 1.649 . S
