# Generated by pormake.
# Topology dag, (6,3)-cn, num edge types: 1
# Building blocks:
#     Node 0, Type 0, BuildingBlock: MIDCAF_clean_sbu_0, # of connection points: 6
#     Node 1, Type 0, BuildingBlock: MIDCAF_clean_sbu_0, # of connection points: 6
#     Node 2, Type 0, BuildingBlock: MIDCAF_clean_sbu_0, # of connection points: 6
#     Node 3, Type 0, BuildingBlock: MIDCAF_clean_sbu_0, # of connection points: 6
#     Node 4, Type 1, BuildingBlock: MIDCAF_clean_linker_0, # of connection points: 3
#     Node 5, Type 1, BuildingBlock: MIDCAF_clean_linker_0, # of connection points: 3
#     Node 6, Type 1, BuildingBlock: MIDCAF_clean_linker_0, # of connection points: 3
#     Node 7, Type 1, BuildingBlock: MIDCAF_clean_linker_0, # of connection points: 3
#     Node 8, Type 1, BuildingBlock: MIDCAF_clean_linker_0, # of connection points: 3
#     Node 9, Type 1, BuildingBlock: MIDCAF_clean_linker_0, # of connection points: 3
#     Node 10, Type 1, BuildingBlock: MIDCAF_clean_linker_0, # of connection points: 3
#     Node 11, Type 1, BuildingBlock: MIDCAF_clean_linker_0, # of connection points: 3
#     Edge 12, Type (0, 1), BuildingBlock: TEMPAE_clean_linker_10, # of connection points: 2
#     Edge 13, Type (0, 1), BuildingBlock: TEMPAE_clean_linker_10, # of connection points: 2
#     Edge 14, Type (0, 1), BuildingBlock: TEMPAE_clean_linker_10, # of connection points: 2
#     Edge 15, Type (0, 1), BuildingBlock: TEMPAE_clean_linker_10, # of connection points: 2
#     Edge 16, Type (0, 1), BuildingBlock: TEMPAE_clean_linker_10, # of connection points: 2
#     Edge 17, Type (0, 1), BuildingBlock: TEMPAE_clean_linker_10, # of connection points: 2
#     Edge 18, Type (0, 1), BuildingBlock: TEMPAE_clean_linker_10, # of connection points: 2
#     Edge 19, Type (0, 1), BuildingBlock: TEMPAE_clean_linker_10, # of connection points: 2
#     Edge 20, Type (0, 1), BuildingBlock: TEMPAE_clean_linker_10, # of connection points: 2
#     Edge 21, Type (0, 1), BuildingBlock: TEMPAE_clean_linker_10, # of connection points: 2
#     Edge 22, Type (0, 1), BuildingBlock: TEMPAE_clean_linker_10, # of connection points: 2
#     Edge 23, Type (0, 1), BuildingBlock: TEMPAE_clean_linker_10, # of connection points: 2
#     Edge 24, Type (0, 1), BuildingBlock: TEMPAE_clean_linker_10, # of connection points: 2
#     Edge 25, Type (0, 1), BuildingBlock: TEMPAE_clean_linker_10, # of connection points: 2
#     Edge 26, Type (0, 1), BuildingBlock: TEMPAE_clean_linker_10, # of connection points: 2
#     Edge 27, Type (0, 1), BuildingBlock: TEMPAE_clean_linker_10, # of connection points: 2
#     Edge 28, Type (0, 1), BuildingBlock: TEMPAE_clean_linker_10, # of connection points: 2
#     Edge 29, Type (0, 1), BuildingBlock: TEMPAE_clean_linker_10, # of connection points: 2
#     Edge 30, Type (0, 1), BuildingBlock: TEMPAE_clean_linker_10, # of connection points: 2
#     Edge 31, Type (0, 1), BuildingBlock: TEMPAE_clean_linker_10, # of connection points: 2
#     Edge 32, Type (0, 1), BuildingBlock: TEMPAE_clean_linker_10, # of connection points: 2
#     Edge 33, Type (0, 1), BuildingBlock: TEMPAE_clean_linker_10, # of connection points: 2
#     Edge 34, Type (0, 1), BuildingBlock: TEMPAE_clean_linker_10, # of connection points: 2
#     Edge 35, Type (0, 1), BuildingBlock: TEMPAE_clean_linker_10, # of connection points: 2
# Relax obj value: 0.310
# Max RMSD: 0.192
# Mean RMSD: 0.181
data_MOF--net-dag--node1-MIDCAF_clean_sbu_0--node2-MIDCAF_clean_linker_0--edge1-TEMPAE_clean_linker_10
_symmetry_space_group_name_H-M    P1
_symmetry_Int_Tables_number       1
_symmetry_cell_setting            triclinic
loop_
_symmetry_equiv_pos_as_xyz
'x, y, z'
_cell_length_a     48.316689
_cell_length_b     49.457019
_cell_length_c     36.860021
_cell_angle_alpha  85.890095
_cell_angle_beta   90.011023
_cell_angle_gamma 89.874738
loop_
_atom_site_label
_atom_site_type_symbol
_atom_site_fract_x
_atom_site_fract_y
_atom_site_fract_z
_atom_type_partial_charge
Zn0 Zn 0.25169 0.83941 0.05878 0.0
Zn1 Zn 0.1605 0.8054 0.91328 0.0
Zn2 Zn 0.2199 0.8255 0.00837 0.0
C3 C 0.19238 0.85543 0.94614 0.0
C4 C 0.16359 0.80416 1.00076 0.0
O5 O 0.25601 0.79944 0.00221 0.0
O6 O 0.28077 0.81228 0.04827 0.0
C7 C 0.24058 0.88663 0.01556 0.0
O8 O 0.20895 0.86049 0.97186 0.0
O9 O 0.18581 0.83062 0.94372 0.0
O10 O 0.17371 0.80634 0.96862 0.0
O11 O 0.17981 0.80929 0.02677 0.0
O12 O 0.25638 0.87844 0.04141 0.0
O13 O 0.22532 0.86962 0.99991 0.0
O14 O 0.19572 0.81476 0.05714 0.0
O15 O 0.22334 0.83072 0.09831 0.0
C16 C 0.20074 0.8197 0.09027 0.0
O17 O 0.23817 0.79713 0.97193 0.0
O18 O 0.19809 0.80168 0.94501 0.0
C19 C 0.27787 0.79731 0.0221 0.0
C20 C 0.22253 0.79146 0.94545 0.0
Zn21 Zn 0.72691 0.65191 0.52066 0.0
Zn22 Zn 0.66233 0.69998 0.61425 0.0
Zn23 Zn 0.69208 0.67442 0.5666 0.0
C24 C 0.66938 0.64513 0.64059 0.0
C25 C 0.63138 0.70056 0.55052 0.0
O26 O 0.73098 0.69806 0.56087 0.0
O27 O 0.75842 0.67689 0.52392 0.0
C28 C 0.71302 0.61139 0.57318 0.0
O29 O 0.68168 0.6436 0.60985 0.0
O30 O 0.65987 0.66746 0.64978 0.0
O31 O 0.63053 0.70921 0.58187 0.0
O32 O 0.65266 0.6874 0.54015 0.0
O33 O 0.72939 0.61569 0.54676 0.0
O34 O 0.69751 0.63059 0.5837 0.0
O35 O 0.67104 0.67792 0.51384 0.0
O36 O 0.70039 0.65734 0.47876 0.0
C37 C 0.67767 0.66957 0.48271 0.0
O38 O 0.71641 0.70726 0.59098 0.0
O39 O 0.6878 0.72887 0.62578 0.0
C40 C 0.75405 0.6963 0.54359 0.0
C41 C 0.71166 0.72615 0.61267 0.0
Zn42 Zn 0.76795 0.18575 0.01447 0.0
Zn43 Zn 0.83877 0.19008 0.17149 0.0
Zn44 Zn 0.79243 0.18665 0.07594 0.0
C45 C 0.86129 0.20311 0.09429 0.0
C46 C 0.80539 0.14702 0.13178 0.0
O47 O 0.75691 0.21562 0.0762 0.0
O48 O 0.73923 0.21332 0.02108 0.0
C49 C 0.82467 0.20137 0.00394 0.0
O50 O 0.83816 0.19886 0.0773 0.0
O51 O 0.8644 0.20014 0.12896 0.0
O52 O 0.81281 0.1704 0.13952 0.0
O53 O 0.79136 0.14622 0.10268 0.0
O54 O 0.80211 0.1977 0.98763 0.0
O55 O 0.82583 0.19848 0.03882 0.0
O56 O 0.78121 0.14421 0.06784 0.0
O57 O 0.75826 0.14623 0.01586 0.0
C58 C 0.76833 0.13236 0.04283 0.0
O59 O 0.76923 0.21343 0.11006 0.0
O60 O 0.80442 0.20052 0.14205 0.0
C61 C 0.739 0.22329 0.05164 0.0
C62 C 0.78245 0.21446 0.13984 0.0
Zn63 Zn 0.27334 0.31366 0.57705 0.0
Zn64 Zn 0.32785 0.2994 0.45879 0.0
Zn65 Zn 0.30233 0.30925 0.51694 0.0
C66 C 0.36685 0.29222 0.51324 0.0
C67 C 0.31108 0.35331 0.45023 0.0
O68 O 0.26593 0.28175 0.5184 0.0
O69 O 0.2418 0.29014 0.56749 0.0
C70 C 0.32628 0.29841 0.59909 0.0
O71 O 0.34519 0.29616 0.53263 0.0
O72 O 0.36513 0.29388 0.47902 0.0
O73 O 0.3201 0.33464 0.43183 0.0
O74 O 0.30415 0.34823 0.48377 0.0
O75 O 0.3023 0.30048 0.61224 0.0
O76 O 0.33004 0.30123 0.56437 0.0
O77 O 0.28961 0.35232 0.51647 0.0
O78 O 0.26833 0.35343 0.56952 0.0
C79 C 0.27697 0.36557 0.54041 0.0
O80 O 0.28007 0.27829 0.48602 0.0
O81 O 0.30873 0.26756 0.44261 0.0
C82 C 0.24466 0.2776 0.53916 0.0
C83 C 0.28597 0.2641 0.45894 0.0
C84 C 0.06788 0.19851 0.03996 0.0
C85 C 0.0577 0.22287 0.05249 0.0
C86 C 0.07477 0.23744 0.07511 0.0
C87 C 0.10011 0.22666 0.08757 0.0
H88 H 0.15049 0.2263 0.1802 0.0
H89 H 0.16278 0.23704 0.24174 0.0
H90 H 0.19977 0.15787 0.26159 0.0
H91 H 0.18767 0.14698 0.19995 0.0
H92 H 0.20432 0.1162 0.12874 0.0
H93 H 0.22089 0.0743 0.10543 0.0
H94 H 0.16897 0.08847 0.01059 0.0
H95 H 0.15261 0.13066 0.03344 0.0
H96 H 0.09976 0.16851 0.04312 0.0
H97 H 0.05537 0.18639 0.02298 0.0
H98 H 0.06801 0.2566 0.08457 0.0
H99 H 0.11207 0.23767 0.10651 0.0
N100 N 0.14118 0.1941 0.1287 0.0
N101 N 0.17266 0.15785 0.13248 0.0
N102 N 0.14505 0.16587 0.08052 0.0
C103 C 0.16089 0.17937 0.14757 0.0
C104 C 0.16503 0.1511 0.09879 0.0
C105 C 0.13314 0.18746 0.09518 0.0
C106 C 0.16828 0.18585 0.185 0.0
C107 C 0.16115 0.2111 0.19765 0.0
C108 C 0.16815 0.21728 0.23288 0.0
C109 C 0.18209 0.19823 0.25639 0.0
C110 C 0.18873 0.17279 0.24412 0.0
C111 C 0.18206 0.16671 0.20869 0.0
C112 C 0.17686 0.12675 0.08322 0.0
C113 C 0.19656 0.11059 0.10276 0.0
C114 C 0.20601 0.08649 0.08947 0.0
C115 C 0.19603 0.07795 0.05635 0.0
C116 C 0.17719 0.09459 0.03608 0.0
C117 C 0.16769 0.11871 0.04937 0.0
C118 C 0.10918 0.20136 0.07706 0.0
C119 C 0.0934 0.18803 0.05183 0.0
C120 C 0.30455 0.58363 0.51867 0.0
C121 C 0.28578 0.56775 0.53991 0.0
C122 C 0.27334 0.57872 0.57006 0.0
C123 C 0.28099 0.60443 0.58017 0.0
H124 H 0.2739 0.65679 0.66367 0.0
H125 H 0.25849 0.67422 0.72063 0.0
H126 H 0.31739 0.73963 0.70619 0.0
H127 H 0.33258 0.7226 0.64924 0.0
H128 H 0.38072 0.71902 0.59262 0.0
H129 H 0.42794 0.72986 0.57372 0.0
H130 H 0.42459 0.66855 0.49613 0.0
H131 H 0.37723 0.658 0.51432 0.0
H132 H 0.32738 0.62048 0.51219 0.0
H133 H 0.31416 0.57579 0.49501 0.0
H134 H 0.25888 0.56683 0.58701 0.0
H135 H 0.27202 0.61179 0.60453 0.0
N136 N 0.30247 0.65547 0.60395 0.0
N137 N 0.33783 0.68806 0.60109 0.0
N138 N 0.33575 0.65595 0.55761 0.0
C139 C 0.3148 0.67729 0.61767 0.0
C140 C 0.34841 0.67754 0.571 0.0
C141 C 0.31276 0.64482 0.57366 0.0
C142 C 0.30451 0.68825 0.6517 0.0
C143 C 0.28349 0.67497 0.67249 0.0
C144 C 0.27478 0.68483 0.70531 0.0
C145 C 0.28674 0.70829 0.71797 0.0
C146 C 0.30754 0.72168 0.69703 0.0
C147 C 0.31633 0.71179 0.66438 0.0
C148 C 0.37526 0.68726 0.55554 0.0
C149 C 0.38981 0.70815 0.57108 0.0
C150 C 0.41693 0.71432 0.56033 0.0
C151 C 0.43014 0.69975 0.53385 0.0
C152 C 0.41497 0.68021 0.5165 0.0
C153 C 0.38783 0.67405 0.52719 0.0
C154 C 0.30117 0.61962 0.56022 0.0
C155 C 0.3121 0.60927 0.52862 0.0
C156 C 0.88737 0.85304 0.43294 0.0
C157 C 0.89009 0.82474 0.43596 0.0
C158 C 0.90902 0.8123 0.41347 0.0
C159 C 0.92418 0.82781 0.38732 0.0
H160 H 0.98761 0.82461 0.30898 0.0
H161 H 0.02568 0.80722 0.27363 0.0
H162 H 0.04025 0.88794 0.22458 0.0
H163 H 0.00192 0.90502 0.25873 0.0
H164 H 0.95506 0.95047 0.2642 0.0
H165 H 0.93166 0.99007 0.23565 0.0
H166 H 0.85573 0.96548 0.29049 0.0
H167 H 0.87948 0.9265 0.32025 0.0
H168 H 0.89892 0.89027 0.40375 0.0
H169 H 0.87275 0.86302 0.44986 0.0
H170 H 0.91143 0.79046 0.41543 0.0
H171 H 0.93796 0.81754 0.36961 0.0
N172 N 0.95603 0.86235 0.33498 0.0
N173 N 0.95571 0.9007 0.29366 0.0
N174 N 0.92194 0.8959 0.33918 0.0
C175 C 0.96741 0.87676 0.30591 0.0
C176 C 0.93292 0.91033 0.30999 0.0
C177 C 0.93347 0.87203 0.35202 0.0
C178 C 0.99155 0.86618 0.28649 0.0
C179 C -0.00097 0.83862 0.29072 0.0
C180 C 0.02088 0.82866 0.2705 0.0
C181 C 0.03582 0.84609 0.24584 0.0
C182 C 0.02875 0.87375 0.2425 0.0
C183 C 0.00683 0.88362 0.26236 0.0
C184 C 0.91914 0.93529 0.29444 0.0
C185 C 0.93342 0.95361 0.27036 0.0
C186 C 0.91992 0.97623 0.25375 0.0
C187 C 0.89168 0.98087 0.2604 0.0
C188 C 0.87754 0.96277 0.28502 0.0
C189 C 0.89116 0.94033 0.30203 0.0
C190 C 0.92029 0.85601 0.38275 0.0
C191 C 0.90218 0.86854 0.40637 0.0
C192 C 0.59741 0.36997 0.98097 0.0
C193 C 0.5861 0.34534 0.99543 0.0
C194 C 0.5603 0.33714 0.98246 0.0
C195 C 0.54713 0.35217 0.95385 0.0
H196 H 0.49988 0.33709 0.86088 0.0
H197 H 0.46681 0.3152 0.8221 0.0
H198 H 0.45094 0.39216 0.76286 0.0
H199 H 0.48373 0.41402 0.80131 0.0
H200 H 0.53073 0.4587 0.80122 0.0
H201 H 0.55487 0.4961 0.76874 0.0
H202 H 0.62538 0.4828 0.83982 0.0
H203 H 0.60128 0.44503 0.87249 0.0
H204 H 0.59421 0.4033 0.94106 0.0
H205 H 0.61739 0.37678 0.98995 0.0
H206 H 0.55083 0.31847 0.9934 0.0
H207 H 0.52783 0.34465 0.94357 0.0
N208 N 0.52627 0.37841 0.88658 0.0
N209 N 0.52847 0.4134 0.84033 0.0
N210 N 0.55963 0.4127 0.88902 0.0
C211 C 0.51649 0.39028 0.85472 0.0
C212 C 0.55005 0.42473 0.85719 0.0
C213 C 0.54768 0.38969 0.90413 0.0
C214 C 0.49451 0.37729 0.8341 0.0
C215 C 0.48903 0.34939 0.83991 0.0
C216 C 0.47028 0.33681 0.81759 0.0
C217 C 0.45638 0.35198 0.78947 0.0
C218 C 0.46117 0.38 0.78452 0.0
C219 C 0.48009 0.39248 0.80646 0.0
C220 C 0.56407 0.44879 0.83945 0.0
C221 C 0.55131 0.46377 0.81018 0.0
C222 C 0.56508 0.48532 0.79164 0.0
C223 C 0.592 0.49233 0.80175 0.0
C224 C 0.6047 0.47766 0.8313 0.0
C225 C 0.5908 0.45619 0.85014 0.0
C226 C 0.55942 0.37583 0.93771 0.0
C227 C 0.58419 0.38507 0.95254 0.0
C228 C 0.5832 0.28331 0.58353 0.0
C229 C 0.56512 0.27066 0.56013 0.0
C230 C 0.57484 0.26473 0.52556 0.0
C231 C 0.60117 0.27298 0.51376 0.0
H232 H 0.65243 0.27456 0.42633 0.0
H233 H 0.66934 0.26293 0.36746 0.0
H234 H 0.74256 0.31115 0.38137 0.0
H235 H 0.72508 0.32366 0.43999 0.0
H236 H 0.72205 0.36746 0.50434 0.0
H237 H 0.73389 0.41139 0.52607 0.0
H238 H 0.66205 0.40709 0.5961 0.0
H239 H 0.65094 0.36294 0.5757 0.0
H240 H 0.6223 0.30271 0.58965 0.0
H241 H 0.57667 0.28767 0.6106 0.0
H242 H 0.56149 0.25534 0.50653 0.0
H243 H 0.60733 0.26931 0.48628 0.0
N244 N 0.65471 0.29369 0.48926 0.0
N245 N 0.68714 0.32892 0.49024 0.0
N246 N 0.65449 0.32235 0.5371 0.0
C247 C 0.67656 0.30743 0.47376 0.0
C248 C 0.67614 0.33652 0.52197 0.0
C249 C 0.64374 0.30086 0.52111 0.0
C250 C 0.68743 0.29999 0.4381 0.0
C251 C 0.67219 0.28269 0.41699 0.0
C252 C 0.68197 0.2759 0.38315 0.0
C253 C 0.70743 0.28595 0.36958 0.0
C254 C 0.72269 0.30331 0.39067 0.0
C255 C 0.71275 0.31034 0.42444 0.0
C256 C 0.68538 0.36171 0.53792 0.0
C257 C 0.70902 0.37571 0.52477 0.0
C258 C 0.71572 0.401 0.53711 0.0
C259 C 0.69874 0.41304 0.56256 0.0
C260 C 0.67583 0.39843 0.57685 0.0
C261 C 0.66933 0.37306 0.56486 0.0
C262 C 0.61828 0.28765 0.53604 0.0
C263 C 0.60942 0.29188 0.57154 0.0
C264 C 0.09848 0.13026 0.62432 0.0
C265 C 0.09478 0.1584 0.61906 0.0
C266 C 0.07417 0.17095 0.63887 0.0
C267 C 0.05873 0.15592 0.6652 0.0
H268 H 0.00047 0.16403 0.74575 0.0
H269 H 0.96737 0.18585 0.7845 0.0
H270 H 0.95857 0.11081 0.85088 0.0
H271 H 0.99113 0.08892 0.81223 0.0
H272 H 0.03111 0.0391 0.80018 0.0
H273 H 0.05484 0.00029 0.83034 0.0
H274 H 0.12715 0.01792 0.76383 0.0
H275 H 0.10303 0.05609 0.7327 0.0
H276 H 0.08749 0.09375 0.65554 0.0
H277 H 0.11436 0.12016 0.60952 0.0
H278 H 0.07087 0.19265 0.6351 0.0
H279 H 0.04387 0.16647 0.68108 0.0
N280 N 0.03031 0.12452 0.7232 0.0
N281 N 0.03086 0.08736 0.7664 0.0
N282 N 0.06182 0.0889 0.71744 0.0
C283 C 0.01997 0.11165 0.75409 0.0
C284 C 0.05178 0.07587 0.74831 0.0
C285 C 0.05105 0.1131 0.7045 0.0
C286 C 0.99855 0.12469 0.77585 0.0
C287 C 0.99127 0.1521 0.76839 0.0
C288 C 0.97247 0.16468 0.79073 0.0
C289 C 0.96039 0.15006 0.82075 0.0
C290 C 0.96727 0.12256 0.82772 0.0
C291 C 0.9861 0.11005 0.8056 0.0
C292 C 0.06521 0.05081 0.76416 0.0
C293 C 0.05198 0.03454 0.79173 0.0
C294 C 0.06567 0.01238 0.80922 0.0
C295 C 0.09307 0.00615 0.79989 0.0
C296 C 0.10598 0.02193 0.7715 0.0
C297 C 0.09216 0.04391 0.7537 0.0
C298 C 0.06386 0.12807 0.67253 0.0
C299 C 0.08323 0.11523 0.65093 0.0
C300 C 0.42186 0.65487 0.10957 0.0
C301 C 0.39675 0.64507 0.09653 0.0
C302 C 0.38668 0.62004 0.11111 0.0
C303 C 0.40039 0.60594 0.13993 0.0
H304 H 0.37862 0.55592 0.22925 0.0
H305 H 0.35261 0.52123 0.26545 0.0
H306 H 0.42575 0.50107 0.32909 0.0
H307 H 0.45178 0.53567 0.29324 0.0
H308 H 0.50129 0.578 0.28919 0.0
H309 H 0.53572 0.59816 0.32662 0.0
H310 H 0.52317 0.67579 0.26745 0.0
H311 H 0.48862 0.65531 0.22906 0.0
H312 H 0.45413 0.64959 0.14927 0.0
H313 H 0.42991 0.67428 0.09895 0.0
H314 H 0.36742 0.61201 0.10135 0.0
H315 H 0.39135 0.58721 0.15137 0.0
N316 N 0.42314 0.58216 0.2063 0.0
N317 N 0.45532 0.58134 0.25367 0.0
N318 N 0.45878 0.61447 0.20508 0.0
C319 C 0.4326 0.5708 0.2385 0.0
C320 C 0.46853 0.60311 0.23731 0.0
C321 C 0.43622 0.60378 0.18915 0.0
C322 C 0.41727 0.54855 0.25839 0.0
C323 C 0.38922 0.54392 0.25074 0.0
C324 C 0.37427 0.52426 0.27159 0.0
C325 C 0.3872 0.50861 0.30005 0.0
C326 C 0.41535 0.5128 0.30715 0.0
C327 C 0.4302 0.53266 0.28669 0.0
C328 C 0.49193 0.61512 0.25643 0.0
C329 C 0.5059 0.59934 0.28387 0.0
C330 C 0.52554 0.61095 0.30554 0.0
C331 C 0.53164 0.63872 0.30061 0.0
C332 C 0.51877 0.65435 0.27197 0.0
C333 C 0.49906 0.64262 0.24999 0.0
C334 C 0.42439 0.6167 0.15501 0.0
C335 C 0.43556 0.64083 0.13862 0.0
C336 C 0.82454 0.92616 0.00204 0.0
C337 C 0.80895 0.94387 0.97859 0.0
C338 C 0.80432 0.93712 0.94269 0.0
C339 C 0.81562 0.91343 0.93023 0.0
H340 H 0.82269 0.86729 0.83848 0.0
H341 H 0.80848 0.84935 0.78113 0.0
H342 H 0.84613 0.77242 0.81467 0.0
H343 H 0.86073 0.79025 0.8717 0.0
H344 H 0.90354 0.78818 0.94194 0.0
H345 H 0.94809 0.77227 0.96617 0.0
H346 H 0.95986 0.84896 0.01356 0.0
H347 H 0.91488 0.86406 0.99117 0.0
H348 H 0.84851 0.88974 0.00811 0.0
H349 H 0.82861 0.93097 0.02975 0.0
H350 H 0.79221 0.95036 0.92412 0.0
H351 H 0.81206 0.90907 0.90223 0.0
N352 N 0.83795 0.86242 0.90753 0.0
N353 N 0.87231 0.8288 0.91408 0.0
N354 N 0.86744 0.86027 0.95824 0.0
C355 C 0.85101 0.84062 0.89477 0.0
C356 C 0.88073 0.8386 0.94571 0.0
C357 C 0.84589 0.87216 0.93953 0.0
C358 C 0.84269 0.83014 0.85976 0.0
C359 C 0.82806 0.84659 0.83356 0.0
C360 C 0.82017 0.83647 0.80062 0.0
C361 C 0.82636 0.80959 0.79357 0.0
C362 C 0.84119 0.79324 0.81952 0.0
C363 C 0.84949 0.80347 0.85214 0.0
C364 C 0.90583 0.82748 0.96431 0.0
C365 C 0.91548 0.80139 0.95813 0.0
C366 C 0.94111 0.79235 0.97187 0.0
C367 C 0.95791 0.80941 0.99145 0.0
C368 C 0.94749 0.83499 0.99912 0.0
C369 C 0.92167 0.8438 0.986 0.0
C370 C 0.83209 0.89619 0.95331 0.0
C371 C 0.83611 0.90265 0.9895 0.0
C372 C 0.20979 0.92613 1.00026 0.0
C373 C 0.23642 0.91605 0.00807 0.0
C374 C 0.2038 0.95378 0.00171 0.0
C375 C 0.22499 0.9717 0.0112 0.0
C376 C 0.25242 0.96195 0.01609 0.0
C377 C 0.25776 0.93415 0.01478 0.0
C378 C 0.1743 0.96331 0.99631 0.0
C379 C 0.27567 0.98045 0.02579 0.0
C380 C 0.21055 0.04756 0.00778 0.0
C381 C 0.20392 0.05099 0.04426 0.0
C382 C 0.21752 0.02187 0.99639 0.0
C383 C 0.21768 -0.00082 0.02207 0.0
C384 C 0.21085 0.00256 0.05884 0.0
C385 C 0.20409 0.02838 0.06944 0.0
C386 C 0.22484 0.019 0.95704 0.0
C387 C 0.21046 0.97883 0.08706 0.0
H388 H 0.19311 0.91213 0.99575 0.0
H389 H 0.27838 0.92637 0.02083 0.0
H390 H 0.16586 0.96958 0.02243 0.0
H391 H 0.17345 0.98125 0.97649 0.0
H392 H 0.16077 0.94722 0.98653 0.0
H393 H 0.29628 0.97086 0.0228 0.0
H394 H 0.275 -0.00027 0.00846 0.0
H395 H 0.27329 0.98555 0.05446 0.0
H396 H 0.21056 0.06502 0.98825 0.0
H397 H 0.19843 0.03079 0.09749 0.0
H398 H 0.21066 0.00438 0.94517 0.0
H399 H 0.24611 0.01075 0.95509 0.0
H400 H 0.22365 0.03862 0.94044 0.0
H401 H 0.1957 0.96324 0.07882 0.0
H402 H 0.20443 0.98489 0.11441 0.0
H403 H 0.23124 0.96924 0.08912 0.0
C404 C 0.5922 0.72679 0.52254 0.0
C405 C 0.60571 0.70189 0.52922 0.0
C406 C 0.56398 0.72782 0.5136 0.0
C407 C 0.54888 0.70335 0.5131 0.0
C408 C 0.56311 0.67821 0.51655 0.0
C409 C 0.59161 0.67783 0.52394 0.0
C410 C 0.5498 0.75505 0.5089 0.0
C411 C 0.54778 0.65161 0.51724 0.0
C412 C 0.47822 0.70342 0.55732 0.0
C413 C 0.46037 0.70269 0.52745 0.0
C414 C 0.50696 0.70395 0.55274 0.0
C415 C 0.51829 0.70387 0.51731 0.0
C416 C 0.50046 0.70361 0.48685 0.0
C417 C 0.47163 0.7029 0.4923 0.0
C418 C 0.5252 0.70395 0.58609 0.0
C419 C 0.51183 0.70376 0.44872 0.0
H420 H 0.60325 0.74538 0.5267 0.0
H421 H 0.60214 0.65858 0.52952 0.0
H422 H 0.53391 0.75523 0.48716 0.0
H423 H 0.53918 0.75925 0.5346 0.0
H424 H 0.56482 0.77164 0.50216 0.0
H425 H 0.56194 0.63441 0.51288 0.0
H426 H 0.5377 0.64769 0.54415 0.0
H427 H 0.5313 0.65226 0.49627 0.0
H428 H 0.46972 0.70266 0.58459 0.0
H429 H 0.45789 0.70243 0.46911 0.0
H430 H 0.53861 0.72217 0.58437 0.0
H431 H 0.53896 0.6859 0.58757 0.0
H432 H 0.51305 0.70376 0.61169 0.0
H433 H 0.52525 0.72174 0.44301 0.0
H434 H 0.4952 0.70409 0.42789 0.0
H435 H 0.52489 0.68555 0.44599 0.0
C436 C 0.80292 0.09719 0.14848 0.0
C437 C 0.81584 0.12222 0.15194 0.0
C438 C 0.8138 0.07326 0.16577 0.0
C439 C 0.83805 0.07453 0.18717 0.0
C440 C 0.85097 0.09982 0.19104 0.0
C441 C 0.83964 0.12336 0.17348 0.0
C442 C 0.79941 0.04668 0.16107 0.0
C443 C 0.87724 0.10193 0.21288 0.0
C444 C 0.85697 0.0189 0.25929 0.0
C445 C 0.87704 0.00428 0.24126 0.0
C446 C 0.84339 0.04124 0.24157 0.0
C447 C 0.8504 0.04948 0.20517 0.0
C448 C 0.87044 0.03471 0.1867 0.0
C449 C 0.88322 0.01211 0.2048 0.0
C450 C 0.82197 0.05638 0.26205 0.0
C451 C 0.87845 0.04268 0.14781 0.0
H452 H 0.78431 0.09633 0.1322 0.0
H453 H 0.84993 0.14258 0.17588 0.0
H454 H 0.81401 0.0321 0.14982 0.0
H455 H 0.79243 0.03765 0.18793 0.0
H456 H 0.78122 0.04908 0.14266 0.0
H457 H 0.88454 0.12318 0.21349 0.0
H458 H 0.87389 0.09353 0.24126 0.0
H459 H 0.89384 0.08974 0.20108 0.0
H460 H 0.85222 0.01324 0.28754 0.0
H461 H 0.8981 0.00053 0.19026 0.0
H462 H 0.80243 0.05821 0.24624 0.0
H463 H 0.82936 0.07724 0.26568 0.0
H464 H 0.81746 0.04626 0.28928 0.0
H465 H 0.86124 0.03769 0.12959 0.0
H466 H 0.89729 0.03183 0.13939 0.0
H467 H 0.8822 0.06482 0.14378 0.0
C468 C 0.34761 0.28404 0.6589 0.0
C469 C 0.34993 0.2977 0.62441 0.0
C470 C 0.36671 0.28854 0.68651 0.0
C471 C 0.38829 0.30751 0.67952 0.0
C472 C 0.39173 0.32 0.64399 0.0
C473 C 0.37252 0.31486 0.61681 0.0
C474 C 0.36244 0.27467 0.7239 0.0
C475 C 0.4139 0.34093 0.63533 0.0
C476 C 0.41213 0.35048 0.75463 0.0
C477 C 0.43777 0.33875 0.76414 0.0
C478 C 0.39547 0.33989 0.72796 0.0
C479 C 0.40475 0.31708 0.71019 0.0
C480 C 0.43019 0.30454 0.7206 0.0
C481 C 0.44641 0.31553 0.74753 0.0
C482 C 0.36826 0.35363 0.71809 0.0
C483 C 0.441 0.28047 0.70202 0.0
H484 H 0.33002 0.27088 0.66482 0.0
H485 H 0.37407 0.32587 0.59037 0.0
H486 H 0.38228 0.26636 0.73506 0.0
H487 H 0.35486 0.28967 0.74259 0.0
H488 H 0.34714 0.25794 0.72368 0.0
H489 H 0.41917 0.3423 0.60591 0.0
H490 H 0.40612 0.36107 0.64218 0.0
H491 H 0.43299 0.3365 0.65139 0.0
H492 H 0.40527 0.36824 0.76777 0.0
H493 H 0.46639 0.30659 0.75453 0.0
H494 H 0.35119 0.33863 0.71999 0.0
H495 H 0.36903 0.36239 0.68955 0.0
H496 H 0.36331 0.37013 0.73598 0.0
H497 H 0.4244 0.26536 0.69883 0.0
H498 H 0.45853 0.27039 0.71714 0.0
H499 H 0.44834 0.28742 0.67446 0.0
C500 C 0.68434 0.57011 0.58101 0.0
C501 C 0.70933 0.58314 0.58748 0.0
C502 C 0.6826 0.54172 0.58381 0.0
C503 C 0.70655 0.52613 0.59304 0.0
C504 C 0.73127 0.53931 0.60235 0.0
C505 C 0.73245 0.56774 0.59906 0.0
C506 C 0.65589 0.52844 0.57353 0.0
C507 C 0.7572 0.52345 0.61246 0.0
C508 C 0.69793 0.44959 0.60697 0.0
C509 C 0.70342 0.44153 0.57185 0.0
C510 C 0.69951 0.47697 0.61473 0.0
C511 C 0.70693 0.49673 0.58679 0.0
C512 C 0.7135 0.48861 0.55172 0.0
C513 C 0.71151 0.46122 0.54466 0.0
C514 C 0.69233 0.48483 0.65241 0.0
C515 C 0.72166 0.50903 0.52113 0.0
H516 H 0.66683 0.58202 0.57063 0.0
H517 H 0.75192 0.5779 0.60333 0.0
H518 H 0.659 0.51756 0.54854 0.0
H519 H 0.64947 0.51322 0.59547 0.0
H520 H 0.63887 0.54335 0.56842 0.0
H521 H 0.77307 0.53624 0.62472 0.0
H522 H 0.75244 0.50591 0.6319 0.0
H523 H 0.76615 0.51536 0.5877 0.0
H524 H 0.69204 0.43452 0.62834 0.0
H525 H 0.71529 0.45543 0.5173 0.0
H526 H 0.70809 0.49883 0.66231 0.0
H527 H 0.69063 0.46692 0.67224 0.0
H528 H 0.67222 0.49572 0.65155 0.0
H529 H 0.70417 0.52312 0.5146 0.0
H530 H 0.72752 0.49925 0.49602 0.0
H531 H 0.73938 0.52136 0.52955 0.0
C532 C 0.87299 0.18818 0.98991 0.0
C533 C 0.84979 0.20434 0.98127 0.0
C534 C 0.89332 0.18404 0.96368 0.0
C535 C 0.8899 0.19581 0.92769 0.0
C536 C 0.86758 0.21382 0.91968 0.0
C537 C 0.84791 0.21803 0.9467 0.0
C538 C 0.91673 0.16473 0.97392 0.0
C539 C 0.86299 0.2266 0.88173 0.0
C540 C 0.94719 0.18878 0.85783 0.0
C541 C 0.94112 0.16329 0.84545 0.0
C542 C 0.93036 0.20026 0.88381 0.0
C543 C 0.90684 0.18585 0.89761 0.0
C544 C 0.89975 0.16086 0.88346 0.0
C545 C 0.91708 0.14981 0.85787 0.0
C546 C 0.938 0.22787 0.8956 0.0
C547 C 0.87387 0.14562 0.89549 0.0
H548 H 0.87404 0.17671 0.01604 0.0
H549 H 0.82982 0.23041 0.93995 0.0
H550 H 0.90933 0.1436 0.9727 0.0
H551 H 0.93478 0.16771 0.95553 0.0
H552 H 0.92355 0.16706 0.00228 0.0
H553 H 0.84437 0.23985 0.87989 0.0
H554 H 0.88124 0.23891 0.87292 0.0
H555 H 0.86054 0.21055 0.8624 0.0
H556 H 0.9656 0.19948 0.84804 0.0
H557 H 0.91186 0.13046 0.8476 0.0
H558 H 0.9608 0.22971 0.8981 0.0
H559 H 0.92816 0.23261 0.92155 0.0
H560 H 0.93138 0.24346 0.87418 0.0
H561 H 0.87638 0.13706 0.92393 0.0
H562 H 0.86931 0.1287 0.87817 0.0
H563 H 0.85578 0.15953 0.89473 0.0
C564 C 0.32781 0.40074 0.4496 0.0
C565 C 0.31217 0.3811 0.43336 0.0
C566 C 0.33633 0.42435 0.42922 0.0
C567 C 0.32853 0.4284 0.39219 0.0
C568 C 0.3104 0.40986 0.37694 0.0
C569 C 0.30272 0.3862 0.39762 0.0
C570 C 0.35551 0.44384 0.44632 0.0
C571 C 0.30114 0.4138 0.33781 0.0
C572 C 0.34616 0.49467 0.3383 0.0
C573 C 0.37147 0.48802 0.32259 0.0
C574 C 0.33171 0.47554 0.36099 0.0
C575 C 0.34289 0.44919 0.36795 0.0
C576 C 0.36824 0.44231 0.35153 0.0
C577 C 0.38227 0.46186 0.32922 0.0
C578 C 0.30506 0.48403 0.37826 0.0
C579 C 0.38069 0.41429 0.35771 0.0
H580 H 0.33522 0.39662 0.47722 0.0
H581 H 0.29065 0.37088 0.38517 0.0
H582 H 0.37546 0.44511 0.4314 0.0
H583 H 0.34622 0.46444 0.44431 0.0
H584 H 0.35992 0.43764 0.4753 0.0
H585 H 0.28439 0.39951 0.33151 0.0
H586 H 0.29368 0.43486 0.33157 0.0
H587 H 0.31897 0.41051 0.31965 0.0
H588 H 0.33798 0.51505 0.33352 0.0
H589 H 0.40172 0.45667 0.31676 0.0
H590 H 0.30977 0.49098 0.40553 0.0
H591 H 0.29012 0.46705 0.38166 0.0
H592 H 0.29509 0.50114 0.36196 0.0
H593 H 0.38491 0.4097 0.38709 0.0
H594 H 0.40032 0.41216 0.34247 0.0
H595 H 0.36583 0.39889 0.34915 0.0
C596 C 0.12135 0.78074 0.02648 0.0
C597 C 0.13357 0.8024 0.00593 0.0
C598 C 0.09235 0.77863 0.02881 0.0
C599 C 0.07559 0.79903 0.01089 0.0
C600 C 0.08815 0.82142 0.99125 0.0
C601 C 0.11699 0.82262 0.9887 0.0
C602 C 0.07964 0.75415 0.0491 0.0
C603 C 0.07114 0.84385 0.97217 0.0
C604 C 0.0033 0.78848 0.97568 0.0
C605 C 0.98718 0.80203 1.00043 0.0
C606 C 0.03193 0.78534 0.98053 0.0
C607 C 0.04494 0.79657 0.01037 0.0
C608 C 0.02867 0.80879 0.03663 0.0
C609 C -7e-05 0.811 0.03163 0.0
C610 C 0.04849 0.77182 0.95213 0.0
C611 C 0.04178 0.82107 0.06876 0.0
H612 H 0.1344 0.76506 0.03953 0.0
H613 H 0.12669 0.83947 0.97315 0.0
H614 H 0.06539 0.76059 0.07044 0.0
H615 H 0.06715 0.74271 0.03014 0.0
H616 H 0.09551 0.74031 0.06201 0.0
H617 H 0.08421 0.86057 0.9599 0.0
H618 H 0.05865 0.83562 0.95026 0.0
H619 H 0.05653 0.85236 0.99162 0.0
H620 H 0.99393 0.78167 0.95126 0.0
H621 H 0.98761 0.82077 0.05149 0.0
H622 H 0.06395 0.75762 0.96515 0.0
H623 H 0.05998 0.78744 0.9351 0.0
H624 H 0.03508 0.76048 0.93403 0.0
H625 H 0.05376 0.80542 0.08503 0.0
H626 H 0.02624 0.8299 0.08675 0.0
H627 H 0.05645 0.83725 0.0591 0.0
C628 C 0.79283 0.08851 0.05559 0.0
C629 C 0.76928 0.10256 0.04237 0.0
C630 C 0.79707 0.06126 0.04894 0.0
C631 C 0.7771 0.04769 0.02885 0.0
C632 C 0.75234 0.06124 0.01766 0.0
C633 C 0.74888 0.08868 0.02417 0.0
C634 C 0.82389 0.04773 0.06102 0.0
C635 C 0.7303 0.04727 0.99687 0.0
C636 C 0.80442 0.99412 0.96945 0.0
C637 C 0.79917 0.97014 0.99087 0.0
C638 C 0.79708 0.01941 0.98145 0.0
C639 C 0.78378 0.02075 0.01553 0.0
C640 C 0.77784 0.99657 0.03697 0.0
C641 C 0.78584 0.97151 0.02451 0.0
C642 C 0.80427 0.04476 0.95805 0.0
C643 C 0.76331 0.99721 0.07316 0.0
H644 H 0.80896 0.09933 0.06894 0.0
H645 H 0.73065 0.09953 0.01389 0.0
H646 H 0.81972 0.02826 0.07687 0.0
H647 H 0.8362 0.04304 0.03683 0.0
H648 H 0.83655 0.06072 0.07791 0.0
H649 H 0.71072 0.05912 0.99495 0.0
H650 H 0.73775 0.04452 0.9689 0.0
H651 H 0.7259 0.02684 0.01001 0.0
H652 H 0.81509 0.99315 0.9437 0.0
H653 H 0.78164 0.95294 0.04102 0.0
H654 H 0.81825 0.05771 0.9732 0.0
H655 H 0.78527 0.05673 0.95134 0.0
H656 H 0.81457 0.04019 0.93224 0.0
H657 H 0.77651 0.00759 0.09247 0.0
H658 H 0.75848 0.97655 0.08531 0.0
H659 H 0.74377 0.00895 0.06991 0.0
C660 C 0.41776 0.29628 0.51001 0.0
C661 C 0.39441 0.28703 0.52965 0.0
C662 C 0.44448 0.29046 0.52277 0.0
C663 C 0.44813 0.27514 0.55639 0.0
C664 C 0.42462 0.2662 0.57692 0.0
C665 C 0.39794 0.27196 0.56297 0.0
C666 C 0.46884 0.3005 0.49985 0.0
C667 C 0.42726 0.24993 0.61293 0.0
C668 C 0.51997 0.24571 0.55652 0.0
C669 C 0.53521 0.26729 0.56916 0.0
C670 C 0.49091 0.2463 0.55614 0.0
C671 C 0.47687 0.26889 0.56891 0.0
C672 C 0.49202 0.28874 0.58618 0.0
C673 C 0.521 0.28789 0.58582 0.0
C674 C 0.47539 0.2242 0.53871 0.0
C675 C 0.47776 0.3125 0.60156 0.0
H676 H 0.41514 0.30802 0.48424 0.0
H677 H 0.37994 0.26415 0.57775 0.0
H678 H 0.48178 0.3142 0.51529 0.0
H679 H 0.48203 0.28315 0.49313 0.0
H680 H 0.46233 0.31168 0.47402 0.0
H681 H 0.40995 0.25461 0.63133 0.0
H682 H 0.42609 0.22805 0.60827 0.0
H683 H 0.44715 0.25365 0.62673 0.0
H684 H 0.53074 0.22918 0.54479 0.0
H685 H 0.53234 0.30468 0.59591 0.0
H686 H 0.46778 0.23208 0.51155 0.0
H687 H 0.4571 0.21782 0.55537 0.0
H688 H 0.48865 0.2062 0.53519 0.0
H689 H 0.4736 0.32832 0.57932 0.0
H690 H 0.49072 0.32157 0.62242 0.0
H691 H 0.4577 0.30617 0.61387 0.0
C692 C 0.19179 0.90287 0.9178 0.0
C693 C 0.17949 0.87725 0.92246 0.0
C694 C 0.17854 0.92428 0.89757 0.0
C695 C 0.15255 0.91975 0.88131 0.0
C696 C 0.14029 0.89374 0.88545 0.0
C697 C 0.15399 0.87277 0.90582 0.0
C698 C 0.1922 0.95176 0.89393 0.0
C699 C 0.11229 0.88828 0.86931 0.0
C700 C 0.10511 0.97981 0.85844 0.0
C701 C 0.1084 0.98394 0.82061 0.0
C702 C 0.1193 0.959 0.87851 0.0
C703 C 0.1378 0.94225 0.86049 0.0
C704 C 0.14155 0.94647 0.82242 0.0
C705 C 0.12666 0.96713 0.8029 0.0
C706 C 0.11474 0.95532 0.91909 0.0
C707 C 0.16114 0.92901 0.8023 0.0
H708 H 0.21176 0.90618 0.93005 0.0
H709 H 0.1443 0.85304 0.90956 0.0
H710 H 0.19558 0.95806 0.86477 0.0
H711 H 0.17848 0.96712 0.90514 0.0
H712 H 0.21239 0.95192 0.90836 0.0
H713 H 0.10581 0.86682 0.87463 0.0
H714 H 0.09648 0.90148 0.88094 0.0
H715 H 0.11262 0.89325 0.83949 0.0
H716 H 0.09161 0.99309 0.87256 0.0
H717 H 0.12913 0.96993 0.77365 0.0
H718 H 0.13309 0.96292 0.93318 0.0
H719 H 0.11217 0.93358 0.92814 0.0
H720 H 0.09629 0.96664 0.92779 0.0
H721 H 0.18216 0.9297 0.81433 0.0
H722 H 0.16249 0.93555 0.77288 0.0
H723 H 0.1542 0.9076 0.80513 0.0
C724 C 0.65778 0.65157 0.42713 0.0
C725 C 0.6577 0.67155 0.45223 0.0
C726 C 0.63719 0.6509 0.40047 0.0
C727 C 0.61609 0.67087 0.39862 0.0
C728 C 0.61684 0.69207 0.42249 0.0
C729 C 0.63774 0.69217 0.44904 0.0
C730 C 0.63713 0.62783 0.37571 0.0
C731 C 0.59483 0.71379 0.42134 0.0
C732 C 0.57209 0.66858 0.31355 0.0
C733 C 0.55096 0.65092 0.32618 0.0
C734 C 0.59254 0.67703 0.33742 0.0
C735 C 0.59185 0.66738 0.37454 0.0
C736 C 0.56947 0.65112 0.38775 0.0
C737 C 0.54924 0.64327 0.36349 0.0
C738 C 0.61573 0.69493 0.32255 0.0
C739 C 0.5679 0.6403 0.42702 0.0
H740 H 0.67325 0.63563 0.42936 0.0
H741 H 0.63827 0.70819 0.46754 0.0
H742 H 0.61884 0.61475 0.38181 0.0
H743 H 0.63551 0.63577 0.34688 0.0
H744 H 0.65606 0.61509 0.37892 0.0
H745 H 0.60112 0.73136 0.43658 0.0
H746 H 0.58995 0.72103 0.39286 0.0
H747 H 0.57558 0.70522 0.43378 0.0
H748 H 0.57343 0.67471 0.28477 0.0
H749 H 0.53251 0.63024 0.37359 0.0
H750 H 0.63497 0.68276 0.32117 0.0
H751 H 0.61985 0.71137 0.3408 0.0
H752 H 0.61103 0.70414 0.29485 0.0
H753 H 0.5835 0.62396 0.4321 0.0
H754 H 0.54716 0.63188 0.43422 0.0
H755 H 0.57277 0.65645 0.44531 0.0
C756 C 0.27201 0.40939 0.50205 0.0
C757 C 0.27441 0.3954 0.53627 0.0
C758 C 0.2714 0.43788 0.49859 0.0
C759 C 0.27284 0.45256 0.53018 0.0
C760 C 0.27417 0.43841 0.56487 0.0
C761 C 0.27487 0.41005 0.56747 0.0
C762 C 0.27049 0.45231 0.46119 0.0
C763 C 0.2761 0.45321 0.59924 0.0
C764 C 0.30494 0.52236 0.52857 0.0
C765 C 0.28174 0.53884 0.53305 0.0
C766 C 0.3022 0.49441 0.52584 0.0
C767 C 0.27553 0.48259 0.52731 0.0
C768 C 0.25188 0.4993 0.53013 0.0
C769 C 0.25528 0.52727 0.53333 0.0
C770 C 0.32817 0.47754 0.52417 0.0
C771 C 0.22311 0.48747 0.53142 0.0
H772 H 0.27064 0.39807 0.47807 0.0
H773 H 0.27667 0.39932 0.59407 0.0
H774 H 0.25301 0.46692 0.45921 0.0
H775 H 0.28982 0.46408 0.45652 0.0
H776 H 0.26838 0.43804 0.4394 0.0
H777 H 0.27515 0.43922 0.62417 0.0
H778 H 0.2959 0.46454 0.59944 0.0
H779 H 0.25907 0.46821 0.60027 0.0
H780 H 0.32549 0.53111 0.52899 0.0
H781 H 0.2373 0.54002 0.53658 0.0
H782 H 0.32476 0.45897 0.50972 0.0
H783 H 0.33492 0.47123 0.5523 0.0
H784 H 0.34526 0.48935 0.51057 0.0
H785 H 0.22017 0.47405 0.50887 0.0
H786 H 0.20684 0.50342 0.52957 0.0
H787 H 0.22028 0.47486 0.55728 0.0
C788 C 0.1571 0.79778 0.11432 0.0
C789 C 0.17862 0.81634 0.11792 0.0
C790 C 0.13395 0.79751 0.13741 0.0
C791 C 0.13197 0.81686 0.16383 0.0
C792 C 0.15436 0.83464 0.1688 0.0
C793 C 0.17756 0.83392 0.14608 0.0
C794 C 0.111 0.77759 0.13203 0.0
C795 C 0.15303 0.85579 0.19637 0.0
C796 C 0.06249 0.84632 0.18752 0.0
C797 C 0.05881 0.83584 0.2236 0.0
C798 C 0.08564 0.83934 0.16727 0.0
C799 C 0.10545 0.82101 0.1832 0.0
C800 C 0.10098 0.80891 0.21869 0.0
C801 C 0.07781 0.81664 0.23862 0.0
C802 C 0.08965 0.85283 0.12956 0.0
C803 C 0.12126 0.78868 0.23614 0.0
H804 H 0.15808 0.78387 0.09296 0.0
H805 H 0.19411 0.84837 0.14894 0.0
H806 H 0.10196 0.7699 0.15843 0.0
H807 H 0.09432 0.78793 0.11573 0.0
H808 H 0.11838 0.76011 0.11734 0.0
H809 H 0.17297 0.86667 0.19872 0.0
H810 H 0.1367 0.87086 0.18831 0.0
H811 H 0.1474 0.84632 0.22353 0.0
H812 H 0.04751 0.86055 0.17527 0.0
H813 H 0.0752 0.80839 0.26644 0.0
H814 H 0.09463 0.83757 0.10992 0.0
H815 H 0.1074 0.86703 0.12977 0.0
H816 H 0.07105 0.8644 0.11972 0.0
H817 H 0.12677 0.77322 0.21698 0.0
H818 H 0.11287 0.77826 0.26148 0.0
H819 H 0.14061 0.79923 0.24295 0.0
C820 C 0.66911 0.62046 0.70176 0.0
C821 C 0.66403 0.62059 0.66437 0.0
C822 C 0.66058 0.59861 0.7255 0.0
C823 C 0.64609 0.57682 0.71142 0.0
C824 C 0.64159 0.57662 0.67346 0.0
C825 C 0.6507 0.59857 0.65038 0.0
C826 C 0.66588 0.59947 0.76575 0.0
C827 C 0.62606 0.55385 0.65744 0.0
C828 C 0.63403 0.51098 0.76891 0.0
C829 C 0.60678 0.51458 0.78081 0.0
C830 C 0.64735 0.53121 0.74663 0.0
C831 C 0.63314 0.55566 0.73652 0.0
C832 C 0.60589 0.55963 0.74927 0.0
C833 C 0.59305 0.53903 0.77121 0.0
C834 C 0.67645 0.52635 0.73364 0.0
C835 C 0.58998 0.58537 0.73891 0.0
H836 H 0.67922 0.63775 0.71249 0.0
H837 H 0.64584 0.59934 0.62166 0.0
H838 H 0.64598 0.60202 0.78014 0.0
H839 H 0.67521 0.5801 0.77688 0.0
H840 H 0.67983 0.61639 0.77186 0.0
H841 H 0.62256 0.55779 0.62777 0.0
H842 H 0.6379 0.53468 0.66219 0.0
H843 H 0.60567 0.55082 0.67093 0.0
H844 H 0.64464 0.49201 0.77611 0.0
H845 H 0.5721 0.54198 0.78072 0.0
H846 H 0.69079 0.5406 0.74594 0.0
H847 H 0.67779 0.53038 0.7037 0.0
H848 H 0.6836 0.5053 0.74094 0.0
H849 H 0.60178 0.60323 0.74688 0.0
H850 H 0.56926 0.58556 0.75194 0.0
H851 H 0.5872 0.58769 0.70896 0.0
C852 C 0.90861 0.18968 0.07942 0.0
C853 C 0.88688 0.20818 0.07353 0.0
C854 C 0.93528 0.19589 0.0669 0.0
C855 C 0.94044 0.22151 0.04856 0.0
C856 C 0.91806 0.23939 0.0398 0.0
C857 C 0.89131 0.23251 0.05255 0.0
C858 C 0.95826 0.17566 0.07543 0.0
C859 C 0.9227 0.26633 0.01898 0.0
C860 C 0.01252 0.24038 0.07484 0.0
C861 C 0.02807 0.23046 0.04645 0.0
C862 C 0.98353 0.24079 0.07363 0.0
C863 C 0.96968 0.23043 0.04374 0.0
C864 C 0.98521 0.22329 0.01334 0.0
C865 C 0.01422 0.22378 0.01483 0.0
C866 C 0.96781 0.24933 0.10634 0.0
C867 C 0.9718 0.21218 0.98073 0.0
H868 H 0.90491 0.17073 0.09535 0.0
H869 H 0.87434 0.2467 0.04794 0.0
H870 H 0.97039 0.17248 0.05053 0.0
H871 H 0.97259 0.18362 0.09564 0.0
H872 H 0.95029 0.15573 0.08666 0.0
H873 H 0.90291 0.27618 0.01009 0.0
H874 H 0.93392 0.28003 0.03645 0.0
H875 H 0.93576 0.26373 0.9947 0.0
H876 H 0.02272 0.24568 0.0995 0.0
H877 H 0.02597 0.21705 0.99209 0.0
H878 H 0.96029 0.23102 0.12253 0.0
H879 H 0.94949 0.26176 0.09779 0.0
H880 H 0.98098 0.26114 0.12418 0.0
H881 H 0.97381 0.18977 0.98309 0.0
H882 H 0.98275 0.21965 0.95553 0.0
H883 H 0.94958 0.21757 0.97831 0.0
C884 C 0.32365 0.77644 0.03689 0.0
C885 C 0.29871 0.77585 0.01752 0.0
C886 C 0.34103 0.75377 0.04042 0.0
C887 C 0.33374 0.73014 0.02316 0.0
C888 C 0.31037 0.73056 0.99991 0.0
C889 C 0.2927 0.75323 0.99804 0.0
C890 C 0.36564 0.75429 0.0657 0.0
C891 C 0.30275 0.70641 0.97925 0.0
C892 C 0.38922 0.67671 0.04092 0.0
C893 C 0.37889 0.66295 0.07262 0.0
C894 C 0.37338 0.69691 0.02176 0.0
C895 C 0.34727 0.70412 0.03566 0.0
C896 C 0.33613 0.68901 0.06633 0.0
C897 C 0.35198 0.66843 0.08415 0.0
C898 C 0.38532 0.71154 0.98804 0.0
C899 C 0.30849 0.69611 0.0824 0.0
H900 H 0.32874 0.79404 0.05149 0.0
H901 H 0.27342 0.75242 0.98321 0.0
H902 H 0.36203 0.74012 0.08997 0.0
H903 H 0.38459 0.74747 0.05207 0.0
H904 H 0.36947 0.77481 0.07505 0.0
H905 H 0.29065 0.71272 0.95441 0.0
H906 H 0.32143 0.69516 0.97127 0.0
H907 H 0.28973 0.69238 0.99673 0.0
H908 H 0.40993 0.67222 0.03174 0.0
H909 H 0.34404 0.65792 0.1088 0.0
H910 H 0.39574 0.73033 0.99543 0.0
H911 H 0.36884 0.71738 0.96797 0.0
H912 H 0.40091 0.69883 0.97502 0.0
H913 H 0.30957 0.71662 0.09277 0.0
H914 H 0.30224 0.68147 0.10517 0.0
H915 H 0.29214 0.69661 0.06128 0.0
C916 C 0.7275 0.76742 0.64113 0.0
C917 C 0.7342 0.74303 0.62602 0.0
C918 C 0.74654 0.78035 0.66266 0.0
C919 C 0.77318 0.76891 0.66852 0.0
C920 C 0.78114 0.74612 0.64976 0.0
C921 C 0.76131 0.73303 0.62936 0.0
C922 C 0.73706 0.80457 0.68215 0.0
C923 C 0.80978 0.7341 0.65378 0.0
C924 C 0.82008 0.81039 0.72588 0.0
C925 C 0.81533 0.79791 0.76068 0.0
C926 C 0.80802 0.80011 0.69498 0.0
C927 C 0.79009 0.7775 0.69937 0.0
C928 C 0.78591 0.76447 0.73446 0.0
C929 C 0.79882 0.77468 0.76459 0.0
C930 C 0.8138 0.8139 0.65791 0.0
C931 C 0.76668 0.74051 0.74051 0.0
H932 H 0.70662 0.77541 0.63831 0.0
H933 H 0.76657 0.71395 0.61841 0.0
H934 H 0.73454 0.79854 0.71155 0.0
H935 H 0.75271 0.82094 0.67964 0.0
H936 H 0.71701 0.81281 0.67148 0.0
H937 H 0.81485 0.72153 0.63085 0.0
H938 H 0.82563 0.7502 0.6551 0.0
H939 H 0.81093 0.72096 0.67943 0.0
H940 H 0.8331 0.82824 0.7229 0.0
H941 H 0.79506 0.76516 0.79155 0.0
H942 H 0.79578 0.82661 0.64892 0.0
H943 H 0.81697 0.79873 0.63752 0.0
H944 H 0.83232 0.82716 0.65817 0.0
H945 H 0.74534 0.74659 0.73224 0.0
H946 H 0.76623 0.73236 0.76938 0.0
H947 H 0.77314 0.72401 0.72348 0.0
C948 C 0.74674 0.24267 0.16918 0.0
C949 C 0.7725 0.22956 0.17065 0.0
C950 C 0.73588 0.25439 0.19979 0.0
C951 C 0.75126 0.25304 0.23261 0.0
C952 C 0.77792 0.24107 0.23363 0.0
C953 C 0.78815 0.22943 0.20271 0.0
C954 C 0.70738 0.26694 0.19737 0.0
C955 C 0.79521 0.23957 0.26786 0.0
C956 C 0.73211 0.29662 0.30999 0.0
C957 C 0.7181 0.27793 0.33388 0.0
C958 C 0.74261 0.28901 0.27661 0.0
C959 C 0.73884 0.26213 0.26671 0.0
C960 C 0.72432 0.24332 0.29034 0.0
C961 C 0.71434 0.25137 0.32366 0.0
C962 C 0.75799 0.30962 0.25212 0.0
C963 C 0.71972 0.2145 0.28072 0.0
H964 H 0.73471 0.24311 0.14444 0.0
H965 H 0.80821 0.2196 0.20407 0.0
H966 H 0.69231 0.25273 0.21109 0.0
H967 H 0.70666 0.28605 0.21135 0.0
H968 H 0.70066 0.27127 0.1687 0.0
H969 H 0.81638 0.23168 0.26331 0.0
H970 H 0.79694 0.25991 0.27853 0.0
H971 H 0.78502 0.22607 0.28916 0.0
H972 H 0.73475 0.3173 0.31727 0.0
H973 H 0.704 0.2366 0.34206 0.0
H974 H 0.74813 0.31165 0.22488 0.0
H975 H 0.77958 0.30267 0.24827 0.0
H976 H 0.75854 0.32989 0.26329 0.0
H977 H 0.70945 0.21437 0.25381 0.0
H978 H 0.70682 0.20276 0.3012 0.0
H979 H 0.73993 0.20402 0.27863 0.0
C980 C 0.19713 0.26524 0.52219 0.0
C981 C 0.224 0.25709 0.53191 0.0
C982 C 0.1751 0.24686 0.52588 0.0
C983 C 0.18011 0.22029 0.54137 0.0
C984 C 0.2077 0.21129 0.54746 0.0
C985 C 0.22948 0.22989 0.54235 0.0
C986 C 0.14616 0.2568 0.51715 0.0
C987 C 0.21399 0.18311 0.5638 0.0
C988 C 0.12881 0.19583 0.61376 0.0
C989 C 0.11501 0.17509 0.59731 0.0
C990 C 0.14987 0.21061 0.59559 0.0
C991 C 0.15701 0.20491 0.55962 0.0
C992 C 0.14257 0.18451 0.5423 0.0
C993 C 0.12198 0.16944 0.56168 0.0
C994 C 0.16492 0.23195 0.61537 0.0
C995 C 0.14914 0.17822 0.50377 0.0
H996 H 0.1931 0.28636 0.51388 0.0
H997 H 0.25039 0.2238 0.54993 0.0
H998 H 0.13382 0.24083 0.50502 0.0
H999 H 0.1357 0.26188 0.5426 0.0
H1000 H 0.14631 0.27524 0.49807 0.0
H1001 H 0.23624 0.17789 0.56123 0.0
H1002 H 0.20853 0.18181 0.59313 0.0
H1003 H 0.20144 0.16784 0.55063 0.0
H1004 H 0.12375 0.19986 0.64152 0.0
H1005 H 0.11132 0.1533 0.54903 0.0
H1006 H 0.16226 0.25211 0.60056 0.0
H1007 H 0.18742 0.2274 0.61644 0.0
H1008 H 0.15731 0.23325 0.64364 0.0
H1009 H 0.15345 0.197 0.48639 0.0
H1010 H 0.13194 0.16715 0.49146 0.0
H1011 H 0.16791 0.16528 0.50371 0.0
C1012 C 0.80292 0.71148 0.54391 0.0
C1013 C 0.77474 0.71806 0.54346 0.0
C1014 C 0.8229 0.73132 0.53501 0.0
C1015 C 0.81428 0.75807 0.5242 0.0
C1016 C 0.78603 0.76532 0.52733 0.0
C1017 C 0.76652 0.74514 0.53727 0.0
C1018 C 0.85292 0.72299 0.5335 0.0
C1019 C 0.77591 0.79356 0.51613 0.0
C1020 C 0.86855 0.81146 0.49666 0.0
C1021 C 0.871 0.80799 0.45937 0.0
C1022 C 0.85016 0.79537 0.5185 0.0
C1023 C 0.83342 0.77611 0.50223 0.0
C1024 C 0.83549 0.77311 0.46437 0.0
C1025 C 0.85445 0.78888 0.44355 0.0
C1026 C 0.84875 0.79883 0.55882 0.0
C1027 C 0.81773 0.75313 0.44574 0.0
H1028 H 0.80922 0.69052 0.54932 0.0
H1029 H 0.74466 0.75017 0.53708 0.0
H1030 H 0.85882 0.72049 0.50483 0.0
H1031 H 0.86649 0.73878 0.54386 0.0
H1032 H 0.85681 0.70348 0.54958 0.0
H1033 H 0.75506 0.79739 0.52742 0.0
H1034 H 0.79043 0.80908 0.52506 0.0
H1035 H 0.7746 0.79606 0.48601 0.0
H1036 H 0.88133 0.8264 0.50875 0.0
H1037 H 0.85607 0.78659 0.41458 0.0
H1038 H 0.85101 0.77893 0.57447 0.0
H1039 H 0.82823 0.80713 0.56575 0.0
H1040 H 0.865 0.81275 0.56777 0.0
H1041 H 0.82271 0.73217 0.45654 0.0
H1042 H 0.82081 0.75445 0.41579 0.0
H1043 H 0.79552 0.75678 0.45138 0.0
C1044 C 0.69887 0.24122 0.08532 0.0
C1045 C 0.71853 0.24448 0.05749 0.0
C1046 C 0.67583 0.25865 0.08578 0.0
C1047 C 0.67247 0.27928 0.05738 0.0
C1048 C 0.69349 0.28371 0.03084 0.0
C1049 C 0.71619 0.26615 0.0312 0.0
C1050 C 0.6542 0.25374 0.11499 0.0
C1051 C 0.69095 0.30555 1.00016 0.0
C1052 C 0.6052 0.29923 0.01202 0.0
C1053 C 0.60325 0.32658 0.01946 0.0
C1054 C 0.62609 0.28254 0.02762 0.0
C1055 C 0.64556 0.29348 0.05125 0.0
C1056 C 0.64182 0.32011 0.06211 0.0
C1057 C 0.62074 0.33645 0.04592 0.0
C1058 C 0.62916 0.25418 0.01539 0.0
C1059 C 0.66162 0.33224 0.08807 0.0
H1060 H 0.70055 0.22411 0.1053 0.0
H1061 H 0.73153 0.26852 0.00971 0.0
H1062 H 0.64681 0.2732 0.12473 0.0
H1063 H 0.63611 0.24345 0.10365 0.0
H1064 H 0.66225 0.24075 0.13852 0.0
H1065 H 0.71017 0.30775 0.98369 0.0
H1066 H 0.6737 0.30056 0.98192 0.0
H1067 H 0.68611 0.32536 0.011 0.0
H1068 H 0.59192 0.29138 0.99154 0.0
H1069 H 0.61895 0.3574 0.05246 0.0
H1070 H 0.63361 0.23952 0.03885 0.0
H1071 H 0.64685 0.25359 0.99624 0.0
H1072 H 0.6103 0.24744 0.00139 0.0
H1073 H 0.66849 0.31691 0.10968 0.0
H1074 H 0.65211 0.34964 0.10097 0.0
H1075 H 0.68026 0.3397 0.07292 0.0
C1076 C 0.23731 0.25405 0.44154 0.0
C1077 C 0.26528 0.24652 0.44298 0.0
C1078 C 0.21902 0.24235 0.41753 0.0
C1079 C 0.22932 0.22346 0.39372 0.0
C1080 C 0.25683 0.21381 0.39785 0.0
C1081 C 0.27442 0.22536 0.42263 0.0
C1082 C 0.1895 0.25227 0.41505 0.0
C1083 C 0.26871 0.19361 0.3732 0.0
C1084 C 0.18695 0.18842 0.32394 0.0
C1085 C 0.19155 0.20564 0.2926 0.0
C1086 C 0.19762 0.1947 0.35783 0.0
C1087 C 0.21391 0.21829 0.35999 0.0
C1088 C 0.21789 0.23607 0.32853 0.0
C1089 C 0.20646 0.22962 0.29534 0.0
C1090 C 0.19226 0.17563 0.3909 0.0
C1091 C 0.23537 0.26133 0.32944 0.0
H1092 H 0.23026 0.27078 0.45655 0.0
H1093 H 0.29602 0.21936 0.42392 0.0
H1094 H 0.18725 0.26707 0.39116 0.0
H1095 H 0.17513 0.23523 0.41126 0.0
H1096 H 0.18326 0.26238 0.43975 0.0
H1097 H 0.28899 0.18545 0.38314 0.0
H1098 H 0.25429 0.17644 0.37072 0.0
H1099 H 0.27169 0.20364 0.34556 0.0
H1100 H 0.17516 0.16996 0.32187 0.0
H1101 H 0.21021 0.24283 0.27108 0.0
H1102 H 0.18805 0.18704 0.41517 0.0
H1103 H 0.21087 0.16292 0.39685 0.0
H1104 H 0.17452 0.16197 0.3866 0.0
H1105 H 0.22742 0.27439 0.35037 0.0
H1106 H 0.23568 0.27339 0.30283 0.0
H1107 H 0.25697 0.25566 0.33695 0.0
C1108 C 0.2135 0.76585 0.89075 0.0
C1109 C 0.2325 0.77592 0.91515 0.0
C1110 C 0.22247 0.75315 0.85999 0.0
C1111 C 0.25118 0.75031 0.85353 0.0
C1112 C 0.27047 0.75955 0.8788 0.0
C1113 C 0.2609 0.7725 0.90912 0.0
C1114 C 0.20121 0.74358 0.83377 0.0
C1115 C 0.30125 0.75669 0.87313 0.0
C1116 C 0.27348 0.70128 0.78394 0.0
C1117 C 0.27764 0.71889 0.75284 0.0
C1118 C 0.26524 0.7112 0.81708 0.0
C1119 C 0.26089 0.73938 0.8191 0.0
C1120 C 0.26507 0.75723 0.78781 0.0
C1121 C 0.2734 0.74678 0.75512 0.0
C1122 C 0.26116 0.69157 0.84993 0.0
C1123 C 0.26048 0.78739 0.78874 0.0
H1124 H 0.19152 0.76828 0.89534 0.0
H1125 H 0.27571 0.78076 0.9274 0.0
H1126 H 0.20325 0.75534 0.80712 0.0
H1127 H 0.20479 0.72195 0.82903 0.0
H1128 H 0.1797 0.7459 0.84376 0.0
H1129 H 0.31333 0.76208 0.89723 0.0
H1130 H 0.3065 0.73561 0.86722 0.0
H1131 H 0.30777 0.77015 0.8493 0.0
H1132 H 0.27706 0.67974 0.78249 0.0
H1133 H 0.27624 0.76047 0.73111 0.0
H1134 H 0.23941 0.69246 0.85939 0.0
H1135 H 0.2745 0.69735 0.87262 0.0
H1136 H 0.26605 0.67036 0.84411 0.0
H1137 H 0.23867 0.79145 0.79612 0.0
H1138 H 0.26506 0.79857 0.76221 0.0
H1139 H 0.27379 0.79556 0.80989 0.0
loop_
_geom_bond_atom_site_label_1
_geom_bond_atom_site_label_2
_geom_bond_distance
_geom_bond_site_symmetry_2
_ccdc_geom_bond_type
Zn0 O6 1.920 . S
Zn0 O12 1.898 . S
Zn0 O15 1.905 . S
Zn1 O9 1.905 . S
Zn1 O10 1.898 . S
Zn1 O18 1.920 . S
Zn2 O5 2.080 . S
Zn2 O8 2.114 1_554 S
Zn2 O11 2.120 1_554 S
Zn2 O13 2.120 . S
Zn2 O14 2.114 . S
Zn2 O17 2.080 1_554 S
C3 O8 1.166 . S
C3 O9 1.182 . S
C4 O10 1.167 . S
C4 O11 1.299 . S
O5 Zn2 2.080 . S
O5 C19 1.305 . S
O6 Zn0 1.920 . S
O6 C19 1.234 . S
C7 O12 1.167 . S
C7 O13 1.299 . S
O8 Zn2 2.114 1_556 S
O8 C3 1.166 . S
O9 Zn1 1.905 . S
O9 C3 1.182 . S
O10 Zn1 1.898 . S
O10 C4 1.167 . S
O11 Zn2 2.120 1_556 S
O11 C4 1.299 . S
O12 Zn0 1.898 . S
O12 C7 1.167 . S
O13 Zn2 2.120 . S
O13 C7 1.299 . S
O14 Zn2 2.114 . S
O14 C16 1.166 . S
O15 Zn0 1.905 . S
O15 C16 1.182 . S
C16 O14 1.166 . S
C16 O15 1.182 . S
O17 Zn2 2.080 1_556 S
O17 C20 1.305 . S
O18 Zn1 1.920 . S
O18 C20 1.234 . S
C19 O5 1.305 . S
C19 O6 1.234 . S
C20 O17 1.305 . S
C20 O18 1.234 . S
Zn21 O27 1.920 . S
Zn21 O33 1.898 . S
Zn21 O36 1.905 . S
Zn22 O30 1.905 . S
Zn22 O31 1.898 . S
Zn22 O39 1.920 . S
Zn23 O26 2.080 . S
Zn23 O29 2.114 . S
Zn23 O32 2.120 . S
Zn23 O34 2.120 . S
Zn23 O35 2.114 . S
Zn23 O38 2.080 . S
C24 O29 1.166 . S
C24 O30 1.182 . S
C25 O31 1.167 . S
C25 O32 1.299 . S
O26 Zn23 2.080 . S
O26 C40 1.305 . S
O27 Zn21 1.920 . S
O27 C40 1.234 . S
C28 O33 1.167 . S
C28 O34 1.299 . S
O29 Zn23 2.114 . S
O29 C24 1.166 . S
O30 Zn22 1.905 . S
O30 C24 1.182 . S
O31 Zn22 1.898 . S
O31 C25 1.167 . S
O32 Zn23 2.120 . S
O32 C25 1.299 . S
O33 Zn21 1.898 . S
O33 C28 1.167 . S
O34 Zn23 2.120 . S
O34 C28 1.299 . S
O35 Zn23 2.114 . S
O35 C37 1.166 . S
O36 Zn21 1.905 . S
O36 C37 1.182 . S
C37 O35 1.166 . S
C37 O36 1.182 . S
O38 Zn23 2.080 . S
O38 C41 1.305 . S
O39 Zn22 1.920 . S
O39 C41 1.234 . S
C40 O26 1.305 . S
C40 O27 1.234 . S
C41 O38 1.305 . S
C41 O39 1.234 . S
Zn42 O48 1.920 . S
Zn42 O54 1.898 . S
Zn42 O57 1.905 . S
Zn43 O51 1.905 . S
Zn43 O52 1.898 . S
Zn43 O60 1.920 . S
Zn44 O47 2.080 . S
Zn44 O50 2.114 . S
Zn44 O53 2.120 . S
Zn44 O55 2.120 . S
Zn44 O56 2.114 . S
Zn44 O59 2.080 . S
C45 O50 1.166 . S
C45 O51 1.182 . S
C46 O52 1.167 . S
C46 O53 1.299 . S
O47 Zn44 2.080 . S
O47 C61 1.305 . S
O48 Zn42 1.920 . S
O48 C61 1.234 1_556 S
C49 O54 1.167 . S
C49 O55 1.299 1_556 S
O50 Zn44 2.114 . S
O50 C45 1.166 . S
O51 Zn43 1.905 . S
O51 C45 1.182 . S
O52 Zn43 1.898 . S
O52 C46 1.167 . S
O53 Zn44 2.120 . S
O53 C46 1.299 . S
O54 Zn42 1.898 . S
O54 C49 1.167 . S
O55 Zn44 2.120 . S
O55 C49 1.299 1_554 S
O56 Zn44 2.114 . S
O56 C58 1.166 . S
O57 Zn42 1.905 . S
O57 C58 1.182 1_556 S
C58 O56 1.166 . S
C58 O57 1.182 1_554 S
O59 Zn44 2.080 . S
O59 C62 1.305 . S
O60 Zn43 1.920 . S
O60 C62 1.234 . S
C61 O47 1.305 . S
C61 O48 1.234 1_554 S
C62 O59 1.305 . S
C62 O60 1.234 . S
Zn63 O69 1.920 . S
Zn63 O75 1.898 . S
Zn63 O78 1.905 . S
Zn64 O72 1.905 . S
Zn64 O73 1.898 . S
Zn64 O81 1.920 . S
Zn65 O68 2.080 . S
Zn65 O71 2.114 . S
Zn65 O74 2.120 . S
Zn65 O76 2.120 . S
Zn65 O77 2.114 . S
Zn65 O80 2.080 . S
C66 O71 1.166 . S
C66 O72 1.182 . S
C67 O73 1.167 . S
C67 O74 1.299 . S
O68 Zn65 2.080 . S
O68 C82 1.305 . S
O69 Zn63 1.920 . S
O69 C82 1.234 . S
C70 O75 1.167 . S
C70 O76 1.299 . S
O71 Zn65 2.114 . S
O71 C66 1.166 . S
O72 Zn64 1.905 . S
O72 C66 1.182 . S
O73 Zn64 1.898 . S
O73 C67 1.167 . S
O74 Zn65 2.120 . S
O74 C67 1.299 . S
O75 Zn63 1.898 . S
O75 C70 1.167 . S
O76 Zn65 2.120 . S
O76 C70 1.299 . S
O77 Zn65 2.114 . S
O77 C79 1.166 . S
O78 Zn63 1.905 . S
O78 C79 1.182 . S
C79 O77 1.166 . S
C79 O78 1.182 . S
O80 Zn65 2.080 . S
O80 C83 1.305 . S
O81 Zn64 1.920 . S
O81 C83 1.234 . S
C82 O68 1.305 . S
C82 O69 1.234 . S
C83 O80 1.305 . S
C83 O81 1.234 . S
C84 C85 1.384 . S
C84 H97 0.947 . S
C84 C119 1.382 . S
C85 C84 1.384 . S
C85 C86 1.378 . S
C86 C85 1.378 . S
C86 C87 1.378 . S
C86 H98 0.952 . S
C87 C86 1.378 . S
C87 H99 0.950 . S
C87 C118 1.383 . S
H88 C107 0.947 . S
H89 C108 0.946 . S
H90 C110 0.953 . S
H91 C111 0.945 . S
H92 C113 0.952 . S
H93 C114 0.949 . S
H94 C116 0.950 . S
H95 C117 0.948 . S
H96 C119 0.951 . S
H97 C84 0.947 . S
H98 C86 0.952 . S
H99 C87 0.950 . S
N100 C103 1.382 . S
N100 C105 1.363 . S
N101 C103 1.371 . S
N101 C104 1.372 . S
N102 C104 1.361 . S
N102 C105 1.377 . S
C103 N100 1.382 . S
C103 N101 1.371 . S
C103 C106 1.480 . S
C104 N101 1.372 . S
C104 N102 1.361 . S
C104 C112 1.457 . S
C105 N100 1.363 . S
C105 N102 1.377 . S
C105 C118 1.479 . S
C106 C103 1.480 . S
C106 C107 1.383 . S
C106 C111 1.385 . S
C107 H88 0.947 . S
C107 C106 1.383 . S
C107 C108 1.388 . S
C108 H89 0.946 . S
C108 C107 1.388 . S
C108 C109 1.384 . S
C109 C108 1.384 . S
C109 C110 1.377 . S
C110 H90 0.953 . S
C110 C109 1.377 . S
C110 C111 1.369 . S
C111 H91 0.945 . S
C111 C106 1.385 . S
C111 C110 1.369 . S
C112 C104 1.457 . S
C112 C113 1.372 . S
C112 C117 1.364 . S
C113 H92 0.952 . S
C113 C112 1.372 . S
C113 C114 1.389 . S
C114 H93 0.949 . S
C114 C113 1.389 . S
C114 C115 1.387 . S
C115 C114 1.387 . S
C115 C116 1.372 . S
C116 H94 0.950 . S
C116 C115 1.372 . S
C116 C117 1.379 . S
C117 H95 0.948 . S
C117 C112 1.364 . S
C117 C116 1.379 . S
C118 C87 1.383 . S
C118 C105 1.479 . S
C118 C119 1.398 . S
C119 C84 1.382 . S
C119 H96 0.951 . S
C119 C118 1.398 . S
C120 C121 1.384 . S
C120 H133 0.947 . S
C120 C155 1.382 . S
C121 C120 1.384 . S
C121 C122 1.378 . S
C122 C121 1.378 . S
C122 C123 1.378 . S
C122 H134 0.952 . S
C123 C122 1.378 . S
C123 H135 0.950 . S
C123 C154 1.383 . S
H124 C143 0.947 . S
H125 C144 0.946 . S
H126 C146 0.953 . S
H127 C147 0.945 . S
H128 C149 0.952 . S
H129 C150 0.949 . S
H130 C152 0.950 . S
H131 C153 0.948 . S
H132 C155 0.951 . S
H133 C120 0.947 . S
H134 C122 0.952 . S
H135 C123 0.950 . S
N136 C139 1.382 . S
N136 C141 1.363 . S
N137 C139 1.371 . S
N137 C140 1.372 . S
N138 C140 1.361 . S
N138 C141 1.377 . S
C139 N136 1.382 . S
C139 N137 1.371 . S
C139 C142 1.480 . S
C140 N137 1.372 . S
C140 N138 1.361 . S
C140 C148 1.457 . S
C141 N136 1.363 . S
C141 N138 1.377 . S
C141 C154 1.479 . S
C142 C139 1.480 . S
C142 C143 1.383 . S
C142 C147 1.385 . S
C143 H124 0.947 . S
C143 C142 1.383 . S
C143 C144 1.388 . S
C144 H125 0.946 . S
C144 C143 1.388 . S
C144 C145 1.384 . S
C145 C144 1.384 . S
C145 C146 1.377 . S
C146 H126 0.953 . S
C146 C145 1.377 . S
C146 C147 1.369 . S
C147 H127 0.945 . S
C147 C142 1.385 . S
C147 C146 1.369 . S
C148 C140 1.457 . S
C148 C149 1.372 . S
C148 C153 1.364 . S
C149 H128 0.952 . S
C149 C148 1.372 . S
C149 C150 1.389 . S
C150 H129 0.949 . S
C150 C149 1.389 . S
C150 C151 1.387 . S
C151 C150 1.387 . S
C151 C152 1.372 . S
C152 H130 0.950 . S
C152 C151 1.372 . S
C152 C153 1.379 . S
C153 H131 0.948 . S
C153 C148 1.364 . S
C153 C152 1.379 . S
C154 C123 1.383 . S
C154 C141 1.479 . S
C154 C155 1.398 . S
C155 C120 1.382 . S
C155 H132 0.951 . S
C155 C154 1.398 . S
C156 C157 1.384 . S
C156 H169 0.947 . S
C156 C191 1.382 . S
C157 C156 1.384 . S
C157 C158 1.378 . S
C158 C157 1.378 . S
C158 C159 1.378 . S
C158 H170 0.952 . S
C159 C158 1.378 . S
C159 H171 0.950 . S
C159 C190 1.383 . S
H160 C179 0.947 . S
H161 C180 0.946 . S
H162 C182 0.953 . S
H163 C183 0.945 . S
H164 C185 0.952 . S
H165 C186 0.949 . S
H166 C188 0.950 . S
H167 C189 0.948 . S
H168 C191 0.951 . S
H169 C156 0.947 . S
H170 C158 0.952 . S
H171 C159 0.950 . S
N172 C175 1.382 . S
N172 C177 1.363 . S
N173 C175 1.371 . S
N173 C176 1.372 . S
N174 C176 1.361 . S
N174 C177 1.377 . S
C175 N172 1.382 . S
C175 N173 1.371 . S
C175 C178 1.480 . S
C176 N173 1.372 . S
C176 N174 1.361 . S
C176 C184 1.457 . S
C177 N172 1.363 . S
C177 N174 1.377 . S
C177 C190 1.479 . S
C178 C175 1.480 . S
C178 C179 1.383 . S
C178 C183 1.385 . S
C179 H160 0.947 . S
C179 C178 1.383 . S
C179 C180 1.388 . S
C180 H161 0.946 . S
C180 C179 1.388 . S
C180 C181 1.384 . S
C181 C180 1.384 . S
C181 C182 1.377 . S
C182 H162 0.953 . S
C182 C181 1.377 . S
C182 C183 1.369 . S
C183 H163 0.945 . S
C183 C178 1.385 . S
C183 C182 1.369 . S
C184 C176 1.457 . S
C184 C185 1.372 . S
C184 C189 1.364 . S
C185 H164 0.952 . S
C185 C184 1.372 . S
C185 C186 1.389 . S
C186 H165 0.949 . S
C186 C185 1.389 . S
C186 C187 1.387 . S
C187 C186 1.387 . S
C187 C188 1.372 . S
C188 H166 0.950 . S
C188 C187 1.372 . S
C188 C189 1.379 . S
C189 H167 0.948 . S
C189 C184 1.364 . S
C189 C188 1.379 . S
C190 C159 1.383 . S
C190 C177 1.479 . S
C190 C191 1.398 . S
C191 C156 1.382 . S
C191 H168 0.951 . S
C191 C190 1.398 . S
C192 C193 1.384 . S
C192 H205 0.947 . S
C192 C227 1.382 . S
C193 C192 1.384 . S
C193 C194 1.378 . S
C194 C193 1.378 . S
C194 C195 1.378 . S
C194 H206 0.952 . S
C195 C194 1.378 . S
C195 H207 0.950 . S
C195 C226 1.383 . S
H196 C215 0.947 . S
H197 C216 0.946 . S
H198 C218 0.953 . S
H199 C219 0.945 . S
H200 C221 0.952 . S
H201 C222 0.949 . S
H202 C224 0.950 . S
H203 C225 0.948 . S
H204 C227 0.951 . S
H205 C192 0.947 . S
H206 C194 0.952 . S
H207 C195 0.950 . S
N208 C211 1.382 . S
N208 C213 1.363 . S
N209 C211 1.371 . S
N209 C212 1.372 . S
N210 C212 1.361 . S
N210 C213 1.377 . S
C211 N208 1.382 . S
C211 N209 1.371 . S
C211 C214 1.480 . S
C212 N209 1.372 . S
C212 N210 1.361 . S
C212 C220 1.457 . S
C213 N208 1.363 . S
C213 N210 1.377 . S
C213 C226 1.479 . S
C214 C211 1.480 . S
C214 C215 1.383 . S
C214 C219 1.385 . S
C215 H196 0.947 . S
C215 C214 1.383 . S
C215 C216 1.388 . S
C216 H197 0.946 . S
C216 C215 1.388 . S
C216 C217 1.384 . S
C217 C216 1.384 . S
C217 C218 1.377 . S
C218 H198 0.953 . S
C218 C217 1.377 . S
C218 C219 1.369 . S
C219 H199 0.945 . S
C219 C214 1.385 . S
C219 C218 1.369 . S
C220 C212 1.457 . S
C220 C221 1.372 . S
C220 C225 1.364 . S
C221 H200 0.952 . S
C221 C220 1.372 . S
C221 C222 1.389 . S
C222 H201 0.949 . S
C222 C221 1.389 . S
C222 C223 1.387 . S
C223 C222 1.387 . S
C223 C224 1.372 . S
C224 H202 0.950 . S
C224 C223 1.372 . S
C224 C225 1.379 . S
C225 H203 0.948 . S
C225 C220 1.364 . S
C225 C224 1.379 . S
C226 C195 1.383 . S
C226 C213 1.479 . S
C226 C227 1.398 . S
C227 C192 1.382 . S
C227 H204 0.951 . S
C227 C226 1.398 . S
C228 C229 1.384 . S
C228 H241 0.947 . S
C228 C263 1.382 . S
C229 C228 1.384 . S
C229 C230 1.378 . S
C230 C229 1.378 . S
C230 C231 1.378 . S
C230 H242 0.952 . S
C231 C230 1.378 . S
C231 H243 0.950 . S
C231 C262 1.383 . S
H232 C251 0.947 . S
H233 C252 0.946 . S
H234 C254 0.953 . S
H235 C255 0.945 . S
H236 C257 0.952 . S
H237 C258 0.949 . S
H238 C260 0.950 . S
H239 C261 0.948 . S
H240 C263 0.951 . S
H241 C228 0.947 . S
H242 C230 0.952 . S
H243 C231 0.950 . S
N244 C247 1.382 . S
N244 C249 1.363 . S
N245 C247 1.371 . S
N245 C248 1.372 . S
N246 C248 1.361 . S
N246 C249 1.377 . S
C247 N244 1.382 . S
C247 N245 1.371 . S
C247 C250 1.480 . S
C248 N245 1.372 . S
C248 N246 1.361 . S
C248 C256 1.457 . S
C249 N244 1.363 . S
C249 N246 1.377 . S
C249 C262 1.479 . S
C250 C247 1.480 . S
C250 C251 1.383 . S
C250 C255 1.385 . S
C251 H232 0.947 . S
C251 C250 1.383 . S
C251 C252 1.388 . S
C252 H233 0.946 . S
C252 C251 1.388 . S
C252 C253 1.384 . S
C253 C252 1.384 . S
C253 C254 1.377 . S
C254 H234 0.953 . S
C254 C253 1.377 . S
C254 C255 1.369 . S
C255 H235 0.945 . S
C255 C250 1.385 . S
C255 C254 1.369 . S
C256 C248 1.457 . S
C256 C257 1.372 . S
C256 C261 1.364 . S
C257 H236 0.952 . S
C257 C256 1.372 . S
C257 C258 1.389 . S
C258 H237 0.949 . S
C258 C257 1.389 . S
C258 C259 1.387 . S
C259 C258 1.387 . S
C259 C260 1.372 . S
C260 H238 0.950 . S
C260 C259 1.372 . S
C260 C261 1.379 . S
C261 H239 0.948 . S
C261 C256 1.364 . S
C261 C260 1.379 . S
C262 C231 1.383 . S
C262 C249 1.479 . S
C262 C263 1.398 . S
C263 C228 1.382 . S
C263 H240 0.951 . S
C263 C262 1.398 . S
C264 C265 1.384 . S
C264 H277 0.947 . S
C264 C299 1.382 . S
C265 C264 1.384 . S
C265 C266 1.378 . S
C266 C265 1.378 . S
C266 C267 1.378 . S
C266 H278 0.952 . S
C267 C266 1.378 . S
C267 H279 0.950 . S
C267 C298 1.383 . S
H268 C287 0.947 . S
H269 C288 0.946 . S
H270 C290 0.953 . S
H271 C291 0.945 . S
H272 C293 0.952 . S
H273 C294 0.949 . S
H274 C296 0.950 . S
H275 C297 0.948 . S
H276 C299 0.951 . S
H277 C264 0.947 . S
H278 C266 0.952 . S
H279 C267 0.950 . S
N280 C283 1.382 . S
N280 C285 1.363 . S
N281 C283 1.371 . S
N281 C284 1.372 . S
N282 C284 1.361 . S
N282 C285 1.377 . S
C283 N280 1.382 . S
C283 N281 1.371 . S
C283 C286 1.480 . S
C284 N281 1.372 . S
C284 N282 1.361 . S
C284 C292 1.457 . S
C285 N280 1.363 . S
C285 N282 1.377 . S
C285 C298 1.479 . S
C286 C283 1.480 . S
C286 C287 1.383 . S
C286 C291 1.385 . S
C287 H268 0.947 . S
C287 C286 1.383 . S
C287 C288 1.388 1_455 S
C288 H269 0.946 . S
C288 C287 1.388 1_655 S
C288 C289 1.384 . S
C289 C288 1.384 . S
C289 C290 1.377 . S
C290 H270 0.953 . S
C290 C289 1.377 . S
C290 C291 1.369 1_655 S
C291 H271 0.945 . S
C291 C286 1.385 . S
C291 C290 1.369 1_455 S
C292 C284 1.457 . S
C292 C293 1.372 . S
C292 C297 1.364 . S
C293 H272 0.952 . S
C293 C292 1.372 . S
C293 C294 1.389 . S
C294 H273 0.949 . S
C294 C293 1.389 . S
C294 C295 1.387 . S
C295 C294 1.387 . S
C295 C296 1.372 . S
C296 H274 0.950 . S
C296 C295 1.372 . S
C296 C297 1.379 . S
C297 H275 0.948 . S
C297 C292 1.364 . S
C297 C296 1.379 . S
C298 C267 1.383 . S
C298 C285 1.479 . S
C298 C299 1.398 . S
C299 C264 1.382 . S
C299 H276 0.951 . S
C299 C298 1.398 . S
C300 C301 1.384 . S
C300 H313 0.947 . S
C300 C335 1.382 . S
C301 C300 1.384 . S
C301 C302 1.378 . S
C302 C301 1.378 . S
C302 C303 1.378 . S
C302 H314 0.952 . S
C303 C302 1.378 . S
C303 H315 0.950 . S
C303 C334 1.383 . S
H304 C323 0.947 . S
H305 C324 0.946 . S
H306 C326 0.953 . S
H307 C327 0.945 . S
H308 C329 0.952 . S
H309 C330 0.949 . S
H310 C332 0.950 . S
H311 C333 0.948 . S
H312 C335 0.951 . S
H313 C300 0.947 . S
H314 C302 0.952 . S
H315 C303 0.950 . S
N316 C319 1.382 . S
N316 C321 1.363 . S
N317 C319 1.371 . S
N317 C320 1.372 . S
N318 C320 1.361 . S
N318 C321 1.377 . S
C319 N316 1.382 . S
C319 N317 1.371 . S
C319 C322 1.480 . S
C320 N317 1.372 . S
C320 N318 1.361 . S
C320 C328 1.457 . S
C321 N316 1.363 . S
C321 N318 1.377 . S
C321 C334 1.479 . S
C322 C319 1.480 . S
C322 C323 1.383 . S
C322 C327 1.385 . S
C323 H304 0.947 . S
C323 C322 1.383 . S
C323 C324 1.388 . S
C324 H305 0.946 . S
C324 C323 1.388 . S
C324 C325 1.384 . S
C325 C324 1.384 . S
C325 C326 1.377 . S
C326 H306 0.953 . S
C326 C325 1.377 . S
C326 C327 1.369 . S
C327 H307 0.945 . S
C327 C322 1.385 . S
C327 C326 1.369 . S
C328 C320 1.457 . S
C328 C329 1.372 . S
C328 C333 1.364 . S
C329 H308 0.952 . S
C329 C328 1.372 . S
C329 C330 1.389 . S
C330 H309 0.949 . S
C330 C329 1.389 . S
C330 C331 1.387 . S
C331 C330 1.387 . S
C331 C332 1.372 . S
C332 H310 0.950 . S
C332 C331 1.372 . S
C332 C333 1.379 . S
C333 H311 0.948 . S
C333 C328 1.364 . S
C333 C332 1.379 . S
C334 C303 1.383 . S
C334 C321 1.479 . S
C334 C335 1.398 . S
C335 C300 1.382 . S
C335 H312 0.951 . S
C335 C334 1.398 . S
C336 C337 1.384 . S
C336 H349 0.947 . S
C336 C371 1.382 . S
C337 C336 1.384 . S
C337 C338 1.378 . S
C338 C337 1.378 . S
C338 C339 1.378 . S
C338 H350 0.952 . S
C339 C338 1.378 . S
C339 H351 0.950 . S
C339 C370 1.383 . S
H340 C359 0.947 . S
H341 C360 0.946 . S
H342 C362 0.953 . S
H343 C363 0.945 . S
H344 C365 0.952 . S
H345 C366 0.949 . S
H346 C368 0.950 . S
H347 C369 0.948 . S
H348 C371 0.951 . S
H349 C336 0.947 . S
H350 C338 0.952 . S
H351 C339 0.950 . S
N352 C355 1.382 . S
N352 C357 1.363 . S
N353 C355 1.371 . S
N353 C356 1.372 . S
N354 C356 1.361 . S
N354 C357 1.377 . S
C355 N352 1.382 . S
C355 N353 1.371 . S
C355 C358 1.480 . S
C356 N353 1.372 . S
C356 N354 1.361 . S
C356 C364 1.457 . S
C357 N352 1.363 . S
C357 N354 1.377 . S
C357 C370 1.479 . S
C358 C355 1.480 . S
C358 C359 1.383 . S
C358 C363 1.385 . S
C359 H340 0.947 . S
C359 C358 1.383 . S
C359 C360 1.388 . S
C360 H341 0.946 . S
C360 C359 1.388 . S
C360 C361 1.384 . S
C361 C360 1.384 . S
C361 C362 1.377 . S
C362 H342 0.953 . S
C362 C361 1.377 . S
C362 C363 1.369 . S
C363 H343 0.945 . S
C363 C358 1.385 . S
C363 C362 1.369 . S
C364 C356 1.457 . S
C364 C365 1.372 . S
C364 C369 1.364 . S
C365 H344 0.952 . S
C365 C364 1.372 . S
C365 C366 1.389 . S
C366 H345 0.949 . S
C366 C365 1.389 . S
C366 C367 1.387 . S
C367 C366 1.387 . S
C367 C368 1.372 . S
C368 H346 0.950 . S
C368 C367 1.372 . S
C368 C369 1.379 . S
C369 H347 0.948 . S
C369 C364 1.364 . S
C369 C368 1.379 . S
C370 C339 1.383 . S
C370 C357 1.479 . S
C370 C371 1.398 . S
C371 C336 1.382 . S
C371 H348 0.951 . S
C371 C370 1.398 . S
C372 C373 1.391 . S
C372 C374 1.394 . S
C372 H388 0.931 . S
C373 C372 1.391 . S
C373 C377 1.376 . S
C374 C372 1.394 . S
C374 C375 1.369 . S
C374 C378 1.531 . S
C375 C374 1.369 . S
C375 C376 1.410 . S
C375 C383 1.503 . S
C376 C375 1.410 . S
C376 C377 1.392 . S
C376 C379 1.511 . S
C377 C373 1.376 . S
C377 C376 1.392 . S
C377 H389 0.929 . S
C378 C374 1.531 . S
C378 H390 0.960 . S
C378 H391 0.962 . S
C378 H392 0.960 . S
C379 C376 1.511 . S
C379 H393 0.961 . S
C379 H394 0.961 . S
C379 H395 0.961 . S
C380 C381 1.370 . S
C380 C382 1.363 1_545 S
C380 H396 0.931 . S
C381 C380 1.370 . S
C381 C385 1.408 . S
C382 C380 1.363 1_565 S
C382 C383 1.370 . S
C382 C386 1.524 . S
C383 C375 1.503 . S
C383 C382 1.370 . S
C383 C384 1.403 . S
C384 C383 1.403 . S
C384 C385 1.404 1_565 S
C384 C387 1.539 . S
C385 C381 1.408 . S
C385 C384 1.404 1_545 S
C385 H397 0.930 . S
C386 C382 1.524 . S
C386 H398 0.956 . S
C386 H399 0.961 . S
C386 H400 0.961 1_565 S
C387 C384 1.539 . S
C387 H401 0.958 . S
C387 H402 0.961 . S
C387 H403 0.960 . S
H388 C372 0.931 . S
H389 C377 0.929 . S
H390 C378 0.960 . S
H391 C378 0.962 . S
H392 C378 0.960 . S
H393 C379 0.961 . S
H394 C379 0.961 . S
H395 C379 0.961 . S
H396 C380 0.931 . S
H397 C385 0.930 . S
H398 C386 0.956 . S
H399 C386 0.961 . S
H400 C386 0.961 1_545 S
H401 C387 0.958 . S
H402 C387 0.961 . S
H403 C387 0.960 . S
C404 C405 1.391 . S
C404 C406 1.394 . S
C404 H420 0.931 . S
C405 C404 1.391 . S
C405 C409 1.376 . S
C406 C404 1.394 . S
C406 C407 1.369 . S
C406 C410 1.531 . S
C407 C406 1.369 . S
C407 C408 1.410 . S
C407 C415 1.503 . S
C408 C407 1.410 . S
C408 C409 1.392 . S
C408 C411 1.511 . S
C409 C405 1.376 . S
C409 C408 1.392 . S
C409 H421 0.929 . S
C410 C406 1.531 . S
C410 H422 0.960 . S
C410 H423 0.962 . S
C410 H424 0.960 . S
C411 C408 1.511 . S
C411 H425 0.961 . S
C411 H426 0.961 . S
C411 H427 0.961 . S
C412 C413 1.370 . S
C412 C414 1.363 . S
C412 H428 0.931 . S
C413 C412 1.370 . S
C413 C417 1.408 . S
C414 C412 1.363 . S
C414 C415 1.370 . S
C414 C418 1.524 . S
C415 C407 1.503 . S
C415 C414 1.370 . S
C415 C416 1.403 . S
C416 C415 1.403 . S
C416 C417 1.404 . S
C416 C419 1.539 . S
C417 C413 1.408 . S
C417 C416 1.404 . S
C417 H429 0.930 . S
C418 C414 1.524 . S
C418 H430 0.956 . S
C418 H431 0.961 . S
C418 H432 0.961 . S
C419 C416 1.539 . S
C419 H433 0.958 . S
C419 H434 0.961 . S
C419 H435 0.960 . S
H420 C404 0.931 . S
H421 C409 0.929 . S
H422 C410 0.960 . S
H423 C410 0.962 . S
H424 C410 0.960 . S
H425 C411 0.961 . S
H426 C411 0.961 . S
H427 C411 0.961 . S
H428 C412 0.931 . S
H429 C417 0.930 . S
H430 C418 0.956 . S
H431 C418 0.961 . S
H432 C418 0.961 . S
H433 C419 0.958 . S
H434 C419 0.961 . S
H435 C419 0.960 . S
C436 C437 1.391 . S
C436 C438 1.394 . S
C436 H452 0.931 . S
C437 C436 1.391 . S
C437 C441 1.376 . S
C438 C436 1.394 . S
C438 C439 1.369 . S
C438 C442 1.531 . S
C439 C438 1.369 . S
C439 C440 1.410 . S
C439 C447 1.503 . S
C440 C439 1.410 . S
C440 C441 1.392 . S
C440 C443 1.511 . S
C441 C437 1.376 . S
C441 C440 1.392 . S
C441 H453 0.929 . S
C442 C438 1.531 . S
C442 H454 0.960 . S
C442 H455 0.962 . S
C442 H456 0.960 . S
C443 C440 1.511 . S
C443 H457 0.961 . S
C443 H458 0.961 . S
C443 H459 0.961 . S
C444 C445 1.370 . S
C444 C446 1.363 . S
C444 H460 0.931 . S
C445 C444 1.370 . S
C445 C449 1.409 1_545 S
C446 C444 1.363 . S
C446 C447 1.370 . S
C446 C450 1.524 . S
C447 C439 1.503 . S
C447 C446 1.370 . S
C447 C448 1.403 . S
C448 C447 1.403 . S
C448 C449 1.406 1_545 S
C448 C451 1.539 . S
C449 C445 1.409 1_565 S
C449 C448 1.406 1_565 S
C449 H461 0.926 . S
C450 C446 1.524 . S
C450 H462 0.956 . S
C450 H463 0.961 . S
C450 H464 0.961 . S
C451 C448 1.539 . S
C451 H465 0.958 . S
C451 H466 0.961 . S
C451 H467 0.960 . S
H452 C436 0.931 . S
H453 C441 0.929 . S
H454 C442 0.960 . S
H455 C442 0.962 . S
H456 C442 0.960 . S
H457 C443 0.961 . S
H458 C443 0.961 . S
H459 C443 0.961 . S
H460 C444 0.931 . S
H461 C449 0.926 . S
H462 C450 0.956 . S
H463 C450 0.961 . S
H464 C450 0.961 . S
H465 C451 0.958 . S
H466 C451 0.961 . S
H467 C451 0.960 . S
C468 C469 1.391 . S
C468 C470 1.394 . S
C468 H484 0.931 . S
C469 C468 1.391 . S
C469 C473 1.376 . S
C470 C468 1.394 . S
C470 C471 1.369 . S
C470 C474 1.531 . S
C471 C470 1.369 . S
C471 C472 1.410 . S
C471 C479 1.503 . S
C472 C471 1.410 . S
C472 C473 1.392 . S
C472 C475 1.511 . S
C473 C469 1.376 . S
C473 C472 1.392 . S
C473 H485 0.929 . S
C474 C470 1.531 . S
C474 H486 0.960 . S
C474 H487 0.962 . S
C474 H488 0.960 . S
C475 C472 1.511 . S
C475 H489 0.961 . S
C475 H490 0.961 . S
C475 H491 0.961 . S
C476 C477 1.370 . S
C476 C478 1.363 . S
C476 H492 0.931 . S
C477 C476 1.370 . S
C477 C481 1.408 . S
C478 C476 1.363 . S
C478 C479 1.370 . S
C478 C482 1.524 . S
C479 C471 1.503 . S
C479 C478 1.370 . S
C479 C480 1.403 . S
C480 C479 1.403 . S
C480 C481 1.404 . S
C480 C483 1.539 . S
C481 C477 1.408 . S
C481 C480 1.404 . S
C481 H493 0.930 . S
C482 C478 1.524 . S
C482 H494 0.956 . S
C482 H495 0.961 . S
C482 H496 0.961 . S
C483 C480 1.539 . S
C483 H497 0.958 . S
C483 H498 0.961 . S
C483 H499 0.960 . S
H484 C468 0.931 . S
H485 C473 0.929 . S
H486 C474 0.960 . S
H487 C474 0.962 . S
H488 C474 0.960 . S
H489 C475 0.961 . S
H490 C475 0.961 . S
H491 C475 0.961 . S
H492 C476 0.931 . S
H493 C481 0.930 . S
H494 C482 0.956 . S
H495 C482 0.961 . S
H496 C482 0.961 . S
H497 C483 0.958 . S
H498 C483 0.961 . S
H499 C483 0.960 . S
C500 C501 1.391 . S
C500 C502 1.394 . S
C500 H516 0.931 . S
C501 C500 1.391 . S
C501 C505 1.376 . S
C502 C500 1.394 . S
C502 C503 1.369 . S
C502 C506 1.531 . S
C503 C502 1.369 . S
C503 C504 1.410 . S
C503 C511 1.503 . S
C504 C503 1.410 . S
C504 C505 1.392 . S
C504 C507 1.511 . S
C505 C501 1.376 . S
C505 C504 1.392 . S
C505 H517 0.929 . S
C506 C502 1.531 . S
C506 H518 0.960 . S
C506 H519 0.962 . S
C506 H520 0.960 . S
C507 C504 1.511 . S
C507 H521 0.961 . S
C507 H522 0.961 . S
C507 H523 0.961 . S
C508 C509 1.370 . S
C508 C510 1.363 . S
C508 H524 0.931 . S
C509 C508 1.370 . S
C509 C513 1.408 . S
C510 C508 1.363 . S
C510 C511 1.370 . S
C510 C514 1.524 . S
C511 C503 1.503 . S
C511 C510 1.370 . S
C511 C512 1.403 . S
C512 C511 1.403 . S
C512 C513 1.404 . S
C512 C515 1.539 . S
C513 C509 1.408 . S
C513 C512 1.404 . S
C513 H525 0.930 . S
C514 C510 1.524 . S
C514 H526 0.956 . S
C514 H527 0.961 . S
C514 H528 0.961 . S
C515 C512 1.539 . S
C515 H529 0.958 . S
C515 H530 0.961 . S
C515 H531 0.960 . S
H516 C500 0.931 . S
H517 C505 0.929 . S
H518 C506 0.960 . S
H519 C506 0.962 . S
H520 C506 0.960 . S
H521 C507 0.961 . S
H522 C507 0.961 . S
H523 C507 0.961 . S
H524 C508 0.931 . S
H525 C513 0.930 . S
H526 C514 0.956 . S
H527 C514 0.961 . S
H528 C514 0.961 . S
H529 C515 0.958 . S
H530 C515 0.961 . S
H531 C515 0.960 . S
C532 C533 1.391 . S
C532 C534 1.394 . S
C532 H548 0.931 . S
C533 C532 1.391 . S
C533 C537 1.376 . S
C534 C532 1.394 . S
C534 C535 1.369 . S
C534 C538 1.531 . S
C535 C534 1.369 . S
C535 C536 1.410 . S
C535 C543 1.503 . S
C536 C535 1.410 . S
C536 C537 1.392 . S
C536 C539 1.511 . S
C537 C533 1.376 . S
C537 C536 1.392 . S
C537 H549 0.929 . S
C538 C534 1.531 . S
C538 H550 0.960 . S
C538 H551 0.962 . S
C538 H552 0.960 . S
C539 C536 1.511 . S
C539 H553 0.961 . S
C539 H554 0.961 . S
C539 H555 0.961 . S
C540 C541 1.370 . S
C540 C542 1.363 . S
C540 H556 0.931 . S
C541 C540 1.370 . S
C541 C545 1.408 . S
C542 C540 1.363 . S
C542 C543 1.370 . S
C542 C546 1.524 . S
C543 C535 1.503 . S
C543 C542 1.370 . S
C543 C544 1.403 . S
C544 C543 1.403 . S
C544 C545 1.404 . S
C544 C547 1.539 . S
C545 C541 1.408 . S
C545 C544 1.404 . S
C545 H557 0.930 . S
C546 C542 1.524 . S
C546 H558 0.956 . S
C546 H559 0.961 . S
C546 H560 0.961 . S
C547 C544 1.539 . S
C547 H561 0.958 . S
C547 H562 0.961 . S
C547 H563 0.960 . S
H548 C532 0.931 . S
H549 C537 0.929 . S
H550 C538 0.960 . S
H551 C538 0.962 . S
H552 C538 0.960 . S
H553 C539 0.961 . S
H554 C539 0.961 . S
H555 C539 0.961 . S
H556 C540 0.931 . S
H557 C545 0.930 . S
H558 C546 0.956 . S
H559 C546 0.961 . S
H560 C546 0.961 . S
H561 C547 0.958 . S
H562 C547 0.961 . S
H563 C547 0.960 . S
C564 C565 1.391 . S
C564 C566 1.394 . S
C564 H580 0.931 . S
C565 C564 1.391 . S
C565 C569 1.376 . S
C566 C564 1.394 . S
C566 C567 1.369 . S
C566 C570 1.531 . S
C567 C566 1.369 . S
C567 C568 1.410 . S
C567 C575 1.503 . S
C568 C567 1.410 . S
C568 C569 1.392 . S
C568 C571 1.511 . S
C569 C565 1.376 . S
C569 C568 1.392 . S
C569 H581 0.929 . S
C570 C566 1.531 . S
C570 H582 0.960 . S
C570 H583 0.962 . S
C570 H584 0.960 . S
C571 C568 1.511 . S
C571 H585 0.961 . S
C571 H586 0.961 . S
C571 H587 0.961 . S
C572 C573 1.370 . S
C572 C574 1.363 . S
C572 H588 0.931 . S
C573 C572 1.370 . S
C573 C577 1.408 . S
C574 C572 1.363 . S
C574 C575 1.370 . S
C574 C578 1.524 . S
C575 C567 1.503 . S
C575 C574 1.370 . S
C575 C576 1.403 . S
C576 C575 1.403 . S
C576 C577 1.404 . S
C576 C579 1.539 . S
C577 C573 1.408 . S
C577 C576 1.404 . S
C577 H589 0.930 . S
C578 C574 1.524 . S
C578 H590 0.956 . S
C578 H591 0.961 . S
C578 H592 0.961 . S
C579 C576 1.539 . S
C579 H593 0.958 . S
C579 H594 0.961 . S
C579 H595 0.960 . S
H580 C564 0.931 . S
H581 C569 0.929 . S
H582 C570 0.960 . S
H583 C570 0.962 . S
H584 C570 0.960 . S
H585 C571 0.961 . S
H586 C571 0.961 . S
H587 C571 0.961 . S
H588 C572 0.931 . S
H589 C577 0.930 . S
H590 C578 0.956 . S
H591 C578 0.961 . S
H592 C578 0.961 . S
H593 C579 0.958 . S
H594 C579 0.961 . S
H595 C579 0.960 . S
C596 C597 1.391 1_554 S
C596 C598 1.394 . S
C596 H612 0.931 . S
C597 C596 1.391 1_556 S
C597 C601 1.376 . S
C598 C596 1.394 . S
C598 C599 1.369 1_554 S
C598 C602 1.531 . S
C599 C598 1.369 1_556 S
C599 C600 1.410 . S
C599 C607 1.503 . S
C600 C599 1.410 . S
C600 C601 1.392 . S
C600 C603 1.511 . S
C601 C597 1.376 . S
C601 C600 1.392 . S
C601 H613 0.929 . S
C602 C598 1.531 . S
C602 H614 0.960 . S
C602 H615 0.962 . S
C602 H616 0.960 . S
C603 C600 1.511 . S
C603 H617 0.961 . S
C603 H618 0.961 . S
C603 H619 0.961 . S
C604 C605 1.370 . S
C604 C606 1.363 . S
C604 H620 0.931 . S
C605 C604 1.370 . S
C605 C609 1.408 . S
C606 C604 1.363 . S
C606 C607 1.370 1_655 S
C606 C610 1.524 1_655 S
C607 C599 1.503 . S
C607 C606 1.370 1_455 S
C607 C608 1.403 1_456 S
C608 C607 1.403 1_654 S
C608 C609 1.404 1_554 S
C608 C611 1.539 . S
C609 C605 1.408 . S
C609 C608 1.404 1_556 S
C609 H621 0.930 1_556 S
C610 C606 1.524 1_455 S
C610 H622 0.956 . S
C610 H623 0.961 . S
C610 H624 0.961 . S
C611 C608 1.539 . S
C611 H625 0.958 . S
C611 H626 0.961 . S
C611 H627 0.969 . S
H612 C596 0.931 . S
H613 C601 0.929 . S
H614 C602 0.960 . S
H615 C602 0.962 . S
H616 C602 0.960 . S
H617 C603 0.961 . S
H618 C603 0.961 . S
H619 C603 0.961 . S
H620 C604 0.931 . S
H621 C609 0.930 1_554 S
H622 C610 0.956 . S
H623 C610 0.961 . S
H624 C610 0.961 . S
H625 C611 0.958 . S
H626 C611 0.961 . S
H627 C611 0.969 . S
C628 C629 1.391 . S
C628 C630 1.394 . S
C628 H644 0.931 . S
C629 C628 1.391 . S
C629 C633 1.376 . S
C630 C628 1.394 . S
C630 C631 1.369 . S
C630 C634 1.531 1_545 S
C631 C630 1.369 . S
C631 C632 1.410 . S
C631 C639 1.503 1_545 S
C632 C631 1.410 . S
C632 C633 1.392 . S
C632 C635 1.511 1_554 S
C633 C629 1.376 . S
C633 C632 1.392 . S
C633 H645 0.929 . S
C634 C630 1.531 1_565 S
C634 H646 0.960 . S
C634 H647 0.962 . S
C634 H648 0.957 1_565 S
C635 C632 1.511 1_556 S
C635 H649 0.961 . S
C635 H650 0.961 . S
C635 H651 0.961 1_556 S
C636 C637 1.370 . S
C636 C638 1.363 . S
C636 H652 0.931 . S
C637 C636 1.370 . S
C637 C641 1.408 1_556 S
C638 C636 1.363 . S
C638 C639 1.370 1_556 S
C638 C642 1.524 . S
C639 C631 1.503 1_565 S
C639 C638 1.370 1_554 S
C639 C640 1.403 . S
C640 C639 1.403 . S
C640 C641 1.404 . S
C640 C643 1.539 . S
C641 C637 1.408 1_554 S
C641 C640 1.404 . S
C641 H653 0.930 . S
C642 C638 1.524 . S
C642 H654 0.956 . S
C642 H655 0.961 1_565 S
C642 H656 0.961 . S
C643 C640 1.539 . S
C643 H657 0.958 . S
C643 H658 0.961 . S
C643 H659 0.954 1_565 S
H644 C628 0.931 . S
H645 C633 0.929 . S
H646 C634 0.960 . S
H647 C634 0.962 . S
H648 C634 0.957 1_545 S
H649 C635 0.961 . S
H650 C635 0.961 . S
H651 C635 0.961 1_554 S
H652 C636 0.931 . S
H653 C641 0.930 . S
H654 C642 0.956 . S
H655 C642 0.961 1_545 S
H656 C642 0.961 . S
H657 C643 0.958 . S
H658 C643 0.961 . S
H659 C643 0.954 1_545 S
C660 C661 1.391 . S
C660 C662 1.394 . S
C660 H676 0.931 . S
C661 C660 1.391 . S
C661 C665 1.376 . S
C662 C660 1.394 . S
C662 C663 1.369 . S
C662 C666 1.531 . S
C663 C662 1.369 . S
C663 C664 1.410 . S
C663 C671 1.503 . S
C664 C663 1.410 . S
C664 C665 1.392 . S
C664 C667 1.511 . S
C665 C661 1.376 . S
C665 C664 1.392 . S
C665 H677 0.929 . S
C666 C662 1.531 . S
C666 H678 0.960 . S
C666 H679 0.962 . S
C666 H680 0.960 . S
C667 C664 1.511 . S
C667 H681 0.961 . S
C667 H682 0.961 . S
C667 H683 0.961 . S
C668 C669 1.370 . S
C668 C670 1.363 . S
C668 H684 0.931 . S
C669 C668 1.370 . S
C669 C673 1.408 . S
C670 C668 1.363 . S
C670 C671 1.370 . S
C670 C674 1.524 . S
C671 C663 1.503 . S
C671 C670 1.370 . S
C671 C672 1.403 . S
C672 C671 1.403 . S
C672 C673 1.404 . S
C672 C675 1.539 . S
C673 C669 1.408 . S
C673 C672 1.404 . S
C673 H685 0.930 . S
C674 C670 1.524 . S
C674 H686 0.956 . S
C674 H687 0.961 . S
C674 H688 0.961 . S
C675 C672 1.539 . S
C675 H689 0.958 . S
C675 H690 0.961 . S
C675 H691 0.960 . S
H676 C660 0.931 . S
H677 C665 0.929 . S
H678 C666 0.960 . S
H679 C666 0.962 . S
H680 C666 0.960 . S
H681 C667 0.961 . S
H682 C667 0.961 . S
H683 C667 0.961 . S
H684 C668 0.931 . S
H685 C673 0.930 . S
H686 C674 0.956 . S
H687 C674 0.961 . S
H688 C674 0.961 . S
H689 C675 0.958 . S
H690 C675 0.961 . S
H691 C675 0.960 . S
C692 C693 1.391 . S
C692 C694 1.394 . S
C692 H708 0.931 . S
C693 C692 1.391 . S
C693 C697 1.376 . S
C694 C692 1.394 . S
C694 C695 1.369 . S
C694 C698 1.531 . S
C695 C694 1.369 . S
C695 C696 1.410 . S
C695 C703 1.503 . S
C696 C695 1.410 . S
C696 C697 1.392 . S
C696 C699 1.511 . S
C697 C693 1.376 . S
C697 C696 1.392 . S
C697 H709 0.929 . S
C698 C694 1.531 . S
C698 H710 0.960 . S
C698 H711 0.962 . S
C698 H712 0.960 . S
C699 C696 1.511 . S
C699 H713 0.961 . S
C699 H714 0.961 . S
C699 H715 0.961 . S
C700 C701 1.370 . S
C700 C702 1.363 . S
C700 H716 0.931 . S
C701 C700 1.370 . S
C701 C705 1.408 . S
C702 C700 1.363 . S
C702 C703 1.370 1_545 S
C702 C706 1.524 . S
C703 C695 1.503 . S
C703 C702 1.370 1_565 S
C703 C704 1.403 . S
C704 C703 1.403 . S
C704 C705 1.404 1_565 S
C704 C707 1.539 . S
C705 C701 1.408 . S
C705 C704 1.404 1_545 S
C705 H717 0.930 . S
C706 C702 1.524 . S
C706 H718 0.956 . S
C706 H719 0.961 . S
C706 H720 0.961 . S
C707 C704 1.539 . S
C707 H721 0.958 . S
C707 H722 0.961 . S
C707 H723 0.960 . S
H708 C692 0.931 . S
H709 C697 0.929 . S
H710 C698 0.960 . S
H711 C698 0.962 . S
H712 C698 0.960 . S
H713 C699 0.961 . S
H714 C699 0.961 . S
H715 C699 0.961 . S
H716 C700 0.931 . S
H717 C705 0.930 . S
H718 C706 0.956 . S
H719 C706 0.961 . S
H720 C706 0.961 . S
H721 C707 0.958 . S
H722 C707 0.961 . S
H723 C707 0.960 . S
C724 C725 1.391 . S
C724 C726 1.394 . S
C724 H740 0.931 . S
C725 C724 1.391 . S
C725 C729 1.376 . S
C726 C724 1.394 . S
C726 C727 1.369 . S
C726 C730 1.531 . S
C727 C726 1.369 . S
C727 C728 1.410 . S
C727 C735 1.503 . S
C728 C727 1.410 . S
C728 C729 1.392 . S
C728 C731 1.511 . S
C729 C725 1.376 . S
C729 C728 1.392 . S
C729 H741 0.929 . S
C730 C726 1.531 . S
C730 H742 0.960 . S
C730 H743 0.962 . S
C730 H744 0.960 . S
C731 C728 1.511 . S
C731 H745 0.961 . S
C731 H746 0.961 . S
C731 H747 0.961 . S
C732 C733 1.370 . S
C732 C734 1.363 . S
C732 H748 0.931 . S
C733 C732 1.370 . S
C733 C737 1.408 . S
C734 C732 1.363 . S
C734 C735 1.370 . S
C734 C738 1.524 . S
C735 C727 1.503 . S
C735 C734 1.370 . S
C735 C736 1.403 . S
C736 C735 1.403 . S
C736 C737 1.404 . S
C736 C739 1.539 . S
C737 C733 1.408 . S
C737 C736 1.404 . S
C737 H749 0.930 . S
C738 C734 1.524 . S
C738 H750 0.956 . S
C738 H751 0.961 . S
C738 H752 0.961 . S
C739 C736 1.539 . S
C739 H753 0.958 . S
C739 H754 0.961 . S
C739 H755 0.960 . S
H740 C724 0.931 . S
H741 C729 0.929 . S
H742 C730 0.960 . S
H743 C730 0.962 . S
H744 C730 0.960 . S
H745 C731 0.961 . S
H746 C731 0.961 . S
H747 C731 0.961 . S
H748 C732 0.931 . S
H749 C737 0.930 . S
H750 C738 0.956 . S
H751 C738 0.961 . S
H752 C738 0.961 . S
H753 C739 0.958 . S
H754 C739 0.961 . S
H755 C739 0.960 . S
C756 C757 1.391 . S
C756 C758 1.394 . S
C756 H772 0.931 . S
C757 C756 1.391 . S
C757 C761 1.376 . S
C758 C756 1.394 . S
C758 C759 1.369 . S
C758 C762 1.531 . S
C759 C758 1.369 . S
C759 C760 1.410 . S
C759 C767 1.503 . S
C760 C759 1.410 . S
C760 C761 1.392 . S
C760 C763 1.511 . S
C761 C757 1.376 . S
C761 C760 1.392 . S
C761 H773 0.929 . S
C762 C758 1.531 . S
C762 H774 0.960 . S
C762 H775 0.962 . S
C762 H776 0.960 . S
C763 C760 1.511 . S
C763 H777 0.961 . S
C763 H778 0.961 . S
C763 H779 0.961 . S
C764 C765 1.370 . S
C764 C766 1.363 . S
C764 H780 0.931 . S
C765 C764 1.370 . S
C765 C769 1.408 . S
C766 C764 1.363 . S
C766 C767 1.370 . S
C766 C770 1.524 . S
C767 C759 1.503 . S
C767 C766 1.370 . S
C767 C768 1.403 . S
C768 C767 1.403 . S
C768 C769 1.404 . S
C768 C771 1.539 . S
C769 C765 1.408 . S
C769 C768 1.404 . S
C769 H781 0.930 . S
C770 C766 1.524 . S
C770 H782 0.956 . S
C770 H783 0.961 . S
C770 H784 0.961 . S
C771 C768 1.539 . S
C771 H785 0.958 . S
C771 H786 0.961 . S
C771 H787 0.960 . S
H772 C756 0.931 . S
H773 C761 0.929 . S
H774 C762 0.960 . S
H775 C762 0.962 . S
H776 C762 0.960 . S
H777 C763 0.961 . S
H778 C763 0.961 . S
H779 C763 0.961 . S
H780 C764 0.931 . S
H781 C769 0.930 . S
H782 C770 0.956 . S
H783 C770 0.961 . S
H784 C770 0.961 . S
H785 C771 0.958 . S
H786 C771 0.961 . S
H787 C771 0.960 . S
C788 C789 1.391 . S
C788 C790 1.394 . S
C788 H804 0.931 . S
C789 C788 1.391 . S
C789 C793 1.376 . S
C790 C788 1.394 . S
C790 C791 1.369 . S
C790 C794 1.531 . S
C791 C790 1.369 . S
C791 C792 1.410 . S
C791 C799 1.503 . S
C792 C791 1.410 . S
C792 C793 1.392 . S
C792 C795 1.511 . S
C793 C789 1.376 . S
C793 C792 1.392 . S
C793 H805 0.929 . S
C794 C790 1.531 . S
C794 H806 0.960 . S
C794 H807 0.962 . S
C794 H808 0.960 . S
C795 C792 1.511 . S
C795 H809 0.961 . S
C795 H810 0.961 . S
C795 H811 0.961 . S
C796 C797 1.369 1_655 S
C796 C798 1.347 1_655 S
C796 H812 0.950 . S
C797 C796 1.369 1_455 S
C797 C801 1.408 . S
C798 C796 1.347 1_455 S
C798 C799 1.370 . S
C798 C802 1.524 . S
C799 C791 1.503 . S
C799 C798 1.370 . S
C799 C800 1.403 . S
C800 C799 1.403 . S
C800 C801 1.404 . S
C800 C803 1.539 . S
C801 C797 1.408 . S
C801 C800 1.404 . S
C801 H813 0.930 . S
C802 C798 1.524 . S
C802 H814 0.956 . S
C802 H815 0.961 . S
C802 H816 0.961 . S
C803 C800 1.539 . S
C803 H817 0.958 . S
C803 H818 0.961 . S
C803 H819 0.960 . S
H804 C788 0.931 . S
H805 C793 0.929 . S
H806 C794 0.960 . S
H807 C794 0.962 . S
H808 C794 0.960 . S
H809 C795 0.961 . S
H810 C795 0.961 . S
H811 C795 0.961 . S
H812 C796 0.950 . S
H813 C801 0.930 . S
H814 C802 0.956 . S
H815 C802 0.961 . S
H816 C802 0.961 . S
H817 C803 0.958 . S
H818 C803 0.961 . S
H819 C803 0.960 . S
C820 C821 1.391 . S
C820 C822 1.394 . S
C820 H836 0.931 . S
C821 C820 1.391 . S
C821 C825 1.376 . S
C822 C820 1.394 . S
C822 C823 1.369 . S
C822 C826 1.531 . S
C823 C822 1.369 . S
C823 C824 1.410 . S
C823 C831 1.503 . S
C824 C823 1.410 . S
C824 C825 1.392 . S
C824 C827 1.511 . S
C825 C821 1.376 . S
C825 C824 1.392 . S
C825 H837 0.929 . S
C826 C822 1.531 . S
C826 H838 0.960 . S
C826 H839 0.962 . S
C826 H840 0.960 . S
C827 C824 1.511 . S
C827 H841 0.961 . S
C827 H842 0.961 . S
C827 H843 0.961 . S
C828 C829 1.370 . S
C828 C830 1.363 . S
C828 H844 0.931 . S
C829 C828 1.370 . S
C829 C833 1.408 . S
C830 C828 1.363 . S
C830 C831 1.370 . S
C830 C834 1.524 . S
C831 C823 1.503 . S
C831 C830 1.370 . S
C831 C832 1.403 . S
C832 C831 1.403 . S
C832 C833 1.404 . S
C832 C835 1.539 . S
C833 C829 1.408 . S
C833 C832 1.404 . S
C833 H845 0.930 . S
C834 C830 1.524 . S
C834 H846 0.956 . S
C834 H847 0.961 . S
C834 H848 0.961 . S
C835 C832 1.539 . S
C835 H849 0.958 . S
C835 H850 0.961 . S
C835 H851 0.960 . S
H836 C820 0.931 . S
H837 C825 0.929 . S
H838 C826 0.960 . S
H839 C826 0.962 . S
H840 C826 0.960 . S
H841 C827 0.961 . S
H842 C827 0.961 . S
H843 C827 0.961 . S
H844 C828 0.931 . S
H845 C833 0.930 . S
H846 C834 0.956 . S
H847 C834 0.961 . S
H848 C834 0.961 . S
H849 C835 0.958 . S
H850 C835 0.961 . S
H851 C835 0.960 . S
C852 C853 1.391 . S
C852 C854 1.394 . S
C852 H868 0.931 . S
C853 C852 1.391 . S
C853 C857 1.376 . S
C854 C852 1.394 . S
C854 C855 1.369 . S
C854 C858 1.531 1_655 S
C855 C854 1.369 . S
C855 C856 1.410 . S
C855 C863 1.503 1_655 S
C856 C855 1.410 . S
C856 C857 1.392 . S
C856 C859 1.511 . S
C857 C853 1.376 . S
C857 C856 1.392 . S
C857 H869 0.929 . S
C858 C854 1.531 1_455 S
C858 H870 0.960 . S
C858 H871 0.962 . S
C858 H872 0.955 1_455 S
C859 C856 1.511 . S
C859 H873 0.961 . S
C859 H874 0.961 1_655 S
C859 H875 0.961 . S
C860 C861 1.370 . S
C860 C862 1.363 . S
C860 H876 0.931 . S
C861 C860 1.370 . S
C861 C865 1.408 . S
C862 C860 1.363 . S
C862 C863 1.370 . S
C862 C866 1.524 . S
C863 C855 1.503 1_455 S
C863 C862 1.370 . S
C863 C864 1.403 . S
C864 C863 1.403 . S
C864 C865 1.404 . S
C864 C867 1.539 . S
C865 C861 1.408 . S
C865 C864 1.404 . S
C865 H877 0.930 . S
C866 C862 1.524 . S
C866 H878 0.956 . S
C866 H879 0.961 . S
C866 H880 0.961 . S
C867 C864 1.539 . S
C867 H881 0.958 . S
C867 H882 0.961 . S
C867 H883 0.960 . S
H868 C852 0.931 . S
H869 C857 0.929 . S
H870 C858 0.960 . S
H871 C858 0.962 . S
H872 C858 0.955 1_655 S
H873 C859 0.961 . S
H874 C859 0.961 1_455 S
H875 C859 0.961 . S
H876 C860 0.931 . S
H877 C865 0.930 . S
H878 C866 0.956 . S
H879 C866 0.961 . S
H880 C866 0.961 . S
H881 C867 0.958 . S
H882 C867 0.961 . S
H883 C867 0.960 . S
C884 C885 1.391 . S
C884 C886 1.394 . S
C884 H900 0.931 . S
C885 C884 1.391 . S
C885 C889 1.376 . S
C886 C884 1.394 . S
C886 C887 1.369 . S
C886 C890 1.531 . S
C887 C886 1.369 . S
C887 C888 1.410 . S
C887 C895 1.503 . S
C888 C887 1.410 . S
C888 C889 1.392 . S
C888 C891 1.511 . S
C889 C885 1.376 . S
C889 C888 1.392 . S
C889 H901 0.929 . S
C890 C886 1.531 . S
C890 H902 0.960 . S
C890 H903 0.962 . S
C890 H904 0.960 . S
C891 C888 1.511 . S
C891 H905 0.961 . S
C891 H906 0.961 . S
C891 H907 0.961 . S
C892 C893 1.370 . S
C892 C894 1.363 . S
C892 H908 0.931 . S
C893 C892 1.370 . S
C893 C897 1.408 . S
C894 C892 1.363 . S
C894 C895 1.370 . S
C894 C898 1.524 . S
C895 C887 1.503 . S
C895 C894 1.370 . S
C895 C896 1.403 . S
C896 C895 1.403 . S
C896 C897 1.404 . S
C896 C899 1.539 . S
C897 C893 1.408 . S
C897 C896 1.404 . S
C897 H909 0.930 . S
C898 C894 1.524 . S
C898 H910 0.956 . S
C898 H911 0.961 . S
C898 H912 0.961 . S
C899 C896 1.539 . S
C899 H913 0.958 . S
C899 H914 0.961 . S
C899 H915 0.960 . S
H900 C884 0.931 . S
H901 C889 0.929 . S
H902 C890 0.960 . S
H903 C890 0.962 . S
H904 C890 0.960 . S
H905 C891 0.961 . S
H906 C891 0.961 . S
H907 C891 0.961 . S
H908 C892 0.931 . S
H909 C897 0.930 . S
H910 C898 0.956 . S
H911 C898 0.961 . S
H912 C898 0.961 . S
H913 C899 0.958 . S
H914 C899 0.961 . S
H915 C899 0.960 . S
C916 C917 1.391 . S
C916 C918 1.394 . S
C916 H932 0.931 . S
C917 C916 1.391 . S
C917 C921 1.376 . S
C918 C916 1.394 . S
C918 C919 1.369 . S
C918 C922 1.531 . S
C919 C918 1.369 . S
C919 C920 1.410 . S
C919 C927 1.503 . S
C920 C919 1.410 . S
C920 C921 1.392 . S
C920 C923 1.511 . S
C921 C917 1.376 . S
C921 C920 1.392 . S
C921 H933 0.929 . S
C922 C918 1.531 . S
C922 H934 0.960 . S
C922 H935 0.962 . S
C922 H936 0.960 . S
C923 C920 1.511 . S
C923 H937 0.961 . S
C923 H938 0.961 . S
C923 H939 0.961 . S
C924 C925 1.370 . S
C924 C926 1.363 . S
C924 H940 0.931 . S
C925 C924 1.370 . S
C925 C929 1.408 . S
C926 C924 1.363 . S
C926 C927 1.370 . S
C926 C930 1.524 . S
C927 C919 1.503 . S
C927 C926 1.370 . S
C927 C928 1.403 . S
C928 C927 1.403 . S
C928 C929 1.404 . S
C928 C931 1.539 . S
C929 C925 1.408 . S
C929 C928 1.404 . S
C929 H941 0.930 . S
C930 C926 1.524 . S
C930 H942 0.956 . S
C930 H943 0.961 . S
C930 H944 0.961 . S
C931 C928 1.539 . S
C931 H945 0.958 . S
C931 H946 0.961 . S
C931 H947 0.960 . S
H932 C916 0.931 . S
H933 C921 0.929 . S
H934 C922 0.960 . S
H935 C922 0.962 . S
H936 C922 0.960 . S
H937 C923 0.961 . S
H938 C923 0.961 . S
H939 C923 0.961 . S
H940 C924 0.931 . S
H941 C929 0.930 . S
H942 C930 0.956 . S
H943 C930 0.961 . S
H944 C930 0.961 . S
H945 C931 0.958 . S
H946 C931 0.961 . S
H947 C931 0.960 . S
C948 C949 1.391 . S
C948 C950 1.394 . S
C948 H964 0.931 . S
C949 C948 1.391 . S
C949 C953 1.376 . S
C950 C948 1.394 . S
C950 C951 1.369 . S
C950 C954 1.531 . S
C951 C950 1.369 . S
C951 C952 1.410 . S
C951 C959 1.503 . S
C952 C951 1.410 . S
C952 C953 1.392 . S
C952 C955 1.511 . S
C953 C949 1.376 . S
C953 C952 1.392 . S
C953 H965 0.929 . S
C954 C950 1.531 . S
C954 H966 0.960 . S
C954 H967 0.962 . S
C954 H968 0.960 . S
C955 C952 1.511 . S
C955 H969 0.961 . S
C955 H970 0.961 . S
C955 H971 0.961 . S
C956 C957 1.370 . S
C956 C958 1.363 . S
C956 H972 0.931 . S
C957 C956 1.370 . S
C957 C961 1.408 . S
C958 C956 1.363 . S
C958 C959 1.370 . S
C958 C962 1.524 . S
C959 C951 1.503 . S
C959 C958 1.370 . S
C959 C960 1.403 . S
C960 C959 1.403 . S
C960 C961 1.404 . S
C960 C963 1.539 . S
C961 C957 1.408 . S
C961 C960 1.404 . S
C961 H973 0.930 . S
C962 C958 1.524 . S
C962 H974 0.956 . S
C962 H975 0.961 . S
C962 H976 0.961 . S
C963 C960 1.539 . S
C963 H977 0.958 . S
C963 H978 0.961 . S
C963 H979 0.960 . S
H964 C948 0.931 . S
H965 C953 0.929 . S
H966 C954 0.960 . S
H967 C954 0.962 . S
H968 C954 0.960 . S
H969 C955 0.961 . S
H970 C955 0.961 . S
H971 C955 0.961 . S
H972 C956 0.931 . S
H973 C961 0.930 . S
H974 C962 0.956 . S
H975 C962 0.961 . S
H976 C962 0.961 . S
H977 C963 0.958 . S
H978 C963 0.961 . S
H979 C963 0.960 . S
C980 C981 1.391 . S
C980 C982 1.394 . S
C980 H996 0.931 . S
C981 C980 1.391 . S
C981 C985 1.376 . S
C982 C980 1.394 . S
C982 C983 1.369 . S
C982 C986 1.531 . S
C983 C982 1.369 . S
C983 C984 1.410 . S
C983 C991 1.503 . S
C984 C983 1.410 . S
C984 C985 1.392 . S
C984 C987 1.511 . S
C985 C981 1.376 . S
C985 C984 1.392 . S
C985 H997 0.929 . S
C986 C982 1.531 . S
C986 H998 0.960 . S
C986 H999 0.962 . S
C986 H1000 0.960 . S
C987 C984 1.511 . S
C987 H1001 0.961 . S
C987 H1002 0.961 . S
C987 H1003 0.961 . S
C988 C989 1.370 . S
C988 C990 1.363 . S
C988 H1004 0.931 . S
C989 C988 1.370 . S
C989 C993 1.408 . S
C990 C988 1.363 . S
C990 C991 1.370 . S
C990 C994 1.524 . S
C991 C983 1.503 . S
C991 C990 1.370 . S
C991 C992 1.403 . S
C992 C991 1.403 . S
C992 C993 1.404 . S
C992 C995 1.539 . S
C993 C989 1.408 . S
C993 C992 1.404 . S
C993 H1005 0.930 . S
C994 C990 1.524 . S
C994 H1006 0.956 . S
C994 H1007 0.961 . S
C994 H1008 0.961 . S
C995 C992 1.539 . S
C995 H1009 0.958 . S
C995 H1010 0.961 . S
C995 H1011 0.960 . S
H996 C980 0.931 . S
H997 C985 0.929 . S
H998 C986 0.960 . S
H999 C986 0.962 . S
H1000 C986 0.960 . S
H1001 C987 0.961 . S
H1002 C987 0.961 . S
H1003 C987 0.961 . S
H1004 C988 0.931 . S
H1005 C993 0.930 . S
H1006 C994 0.956 . S
H1007 C994 0.961 . S
H1008 C994 0.961 . S
H1009 C995 0.958 . S
H1010 C995 0.961 . S
H1011 C995 0.960 . S
C1012 C1013 1.391 . S
C1012 C1014 1.394 . S
C1012 H1028 0.931 . S
C1013 C1012 1.391 . S
C1013 C1017 1.376 . S
C1014 C1012 1.394 . S
C1014 C1015 1.369 . S
C1014 C1018 1.531 . S
C1015 C1014 1.369 . S
C1015 C1016 1.410 . S
C1015 C1023 1.503 . S
C1016 C1015 1.410 . S
C1016 C1017 1.392 . S
C1016 C1019 1.511 . S
C1017 C1013 1.376 . S
C1017 C1016 1.392 . S
C1017 H1029 0.929 . S
C1018 C1014 1.531 . S
C1018 H1030 0.960 . S
C1018 H1031 0.962 . S
C1018 H1032 0.960 . S
C1019 C1016 1.511 . S
C1019 H1033 0.961 . S
C1019 H1034 0.961 . S
C1019 H1035 0.961 . S
C1020 C1021 1.370 . S
C1020 C1022 1.363 . S
C1020 H1036 0.931 . S
C1021 C1020 1.370 . S
C1021 C1025 1.408 . S
C1022 C1020 1.363 . S
C1022 C1023 1.370 . S
C1022 C1026 1.524 . S
C1023 C1015 1.503 . S
C1023 C1022 1.370 . S
C1023 C1024 1.403 . S
C1024 C1023 1.403 . S
C1024 C1025 1.404 . S
C1024 C1027 1.539 . S
C1025 C1021 1.408 . S
C1025 C1024 1.404 . S
C1025 H1037 0.930 . S
C1026 C1022 1.524 . S
C1026 H1038 0.956 . S
C1026 H1039 0.961 . S
C1026 H1040 0.961 . S
C1027 C1024 1.539 . S
C1027 H1041 0.958 . S
C1027 H1042 0.961 . S
C1027 H1043 0.960 . S
H1028 C1012 0.931 . S
H1029 C1017 0.929 . S
H1030 C1018 0.960 . S
H1031 C1018 0.962 . S
H1032 C1018 0.960 . S
H1033 C1019 0.961 . S
H1034 C1019 0.961 . S
H1035 C1019 0.961 . S
H1036 C1020 0.931 . S
H1037 C1025 0.930 . S
H1038 C1026 0.956 . S
H1039 C1026 0.961 . S
H1040 C1026 0.961 . S
H1041 C1027 0.958 . S
H1042 C1027 0.961 . S
H1043 C1027 0.960 . S
C1044 C1045 1.391 . S
C1044 C1046 1.394 . S
C1044 H1060 0.931 . S
C1045 C1044 1.391 . S
C1045 C1049 1.380 . S
C1046 C1044 1.394 . S
C1046 C1047 1.369 . S
C1046 C1050 1.531 . S
C1047 C1046 1.369 . S
C1047 C1048 1.410 1_554 S
C1047 C1055 1.503 1_554 S
C1048 C1047 1.410 1_556 S
C1048 C1049 1.391 1_556 S
C1048 C1051 1.511 . S
C1049 C1045 1.380 . S
C1049 C1048 1.391 1_554 S
C1049 H1061 0.927 1_554 S
C1050 C1046 1.531 . S
C1050 H1062 0.960 . S
C1050 H1063 0.962 . S
C1050 H1064 0.960 . S
C1051 C1048 1.511 . S
C1051 H1065 0.961 . S
C1051 H1066 0.961 . S
C1051 H1067 0.961 . S
C1052 C1053 1.370 . S
C1052 C1054 1.363 . S
C1052 H1068 0.931 . S
C1053 C1052 1.370 . S
C1053 C1057 1.408 . S
C1054 C1052 1.363 . S
C1054 C1055 1.370 . S
C1054 C1058 1.524 . S
C1055 C1047 1.503 1_556 S
C1055 C1054 1.370 . S
C1055 C1056 1.400 1_556 S
C1056 C1055 1.400 1_554 S
C1056 C1057 1.402 1_554 S
C1056 C1059 1.544 . S
C1057 C1053 1.408 . S
C1057 C1056 1.402 1_556 S
C1057 H1069 0.930 . S
C1058 C1054 1.524 . S
C1058 H1070 0.956 . S
C1058 H1071 0.961 . S
C1058 H1072 0.961 . S
C1059 C1056 1.544 . S
C1059 H1073 0.958 . S
C1059 H1074 0.961 . S
C1059 H1075 0.960 . S
H1060 C1044 0.931 . S
H1061 C1049 0.927 1_556 S
H1062 C1050 0.960 . S
H1063 C1050 0.962 . S
H1064 C1050 0.960 . S
H1065 C1051 0.961 . S
H1066 C1051 0.961 . S
H1067 C1051 0.961 . S
H1068 C1052 0.931 . S
H1069 C1057 0.930 . S
H1070 C1058 0.956 . S
H1071 C1058 0.961 . S
H1072 C1058 0.961 . S
H1073 C1059 0.958 . S
H1074 C1059 0.961 . S
H1075 C1059 0.960 . S
C1076 C1077 1.391 . S
C1076 C1078 1.394 . S
C1076 H1092 0.931 . S
C1077 C1076 1.391 . S
C1077 C1081 1.376 . S
C1078 C1076 1.394 . S
C1078 C1079 1.369 . S
C1078 C1082 1.531 . S
C1079 C1078 1.369 . S
C1079 C1080 1.410 . S
C1079 C1087 1.503 . S
C1080 C1079 1.410 . S
C1080 C1081 1.392 . S
C1080 C1083 1.511 . S
C1081 C1077 1.376 . S
C1081 C1080 1.392 . S
C1081 H1093 0.929 . S
C1082 C1078 1.531 . S
C1082 H1094 0.960 . S
C1082 H1095 0.962 . S
C1082 H1096 0.960 . S
C1083 C1080 1.511 . S
C1083 H1097 0.961 . S
C1083 H1098 0.961 . S
C1083 H1099 0.961 . S
C1084 C1085 1.370 . S
C1084 C1086 1.363 . S
C1084 H1100 0.931 . S
C1085 C1084 1.370 . S
C1085 C1089 1.408 . S
C1086 C1084 1.363 . S
C1086 C1087 1.370 . S
C1086 C1090 1.524 . S
C1087 C1079 1.503 . S
C1087 C1086 1.370 . S
C1087 C1088 1.403 . S
C1088 C1087 1.403 . S
C1088 C1089 1.404 . S
C1088 C1091 1.539 . S
C1089 C1085 1.408 . S
C1089 C1088 1.404 . S
C1089 H1101 0.930 . S
C1090 C1086 1.524 . S
C1090 H1102 0.956 . S
C1090 H1103 0.961 . S
C1090 H1104 0.961 . S
C1091 C1088 1.539 . S
C1091 H1105 0.958 . S
C1091 H1106 0.961 . S
C1091 H1107 0.960 . S
H1092 C1076 0.931 . S
H1093 C1081 0.929 . S
H1094 C1082 0.960 . S
H1095 C1082 0.962 . S
H1096 C1082 0.960 . S
H1097 C1083 0.961 . S
H1098 C1083 0.961 . S
H1099 C1083 0.961 . S
H1100 C1084 0.931 . S
H1101 C1089 0.930 . S
H1102 C1090 0.956 . S
H1103 C1090 0.961 . S
H1104 C1090 0.961 . S
H1105 C1091 0.958 . S
H1106 C1091 0.961 . S
H1107 C1091 0.960 . S
C1108 C1109 1.391 . S
C1108 C1110 1.394 . S
C1108 H1124 0.931 . S
C1109 C1108 1.391 . S
C1109 C1113 1.376 . S
C1110 C1108 1.394 . S
C1110 C1111 1.369 . S
C1110 C1114 1.531 . S
C1111 C1110 1.369 . S
C1111 C1112 1.410 . S
C1111 C1119 1.503 . S
C1112 C1111 1.410 . S
C1112 C1113 1.392 . S
C1112 C1115 1.511 . S
C1113 C1109 1.376 . S
C1113 C1112 1.392 . S
C1113 H1125 0.929 . S
C1114 C1110 1.531 . S
C1114 H1126 0.960 . S
C1114 H1127 0.962 . S
C1114 H1128 0.960 . S
C1115 C1112 1.511 . S
C1115 H1129 0.961 . S
C1115 H1130 0.961 . S
C1115 H1131 0.961 . S
C1116 C1117 1.370 . S
C1116 C1118 1.363 . S
C1116 H1132 0.931 . S
C1117 C1116 1.370 . S
C1117 C1121 1.408 . S
C1118 C1116 1.363 . S
C1118 C1119 1.370 . S
C1118 C1122 1.524 . S
C1119 C1111 1.503 . S
C1119 C1118 1.370 . S
C1119 C1120 1.403 . S
C1120 C1119 1.403 . S
C1120 C1121 1.404 . S
C1120 C1123 1.539 . S
C1121 C1117 1.408 . S
C1121 C1120 1.404 . S
C1121 H1133 0.930 . S
C1122 C1118 1.524 . S
C1122 H1134 0.956 . S
C1122 H1135 0.961 . S
C1122 H1136 0.961 . S
C1123 C1120 1.539 . S
C1123 H1137 0.958 . S
C1123 H1138 0.961 . S
C1123 H1139 0.960 . S
H1124 C1108 0.931 . S
H1125 C1113 0.929 . S
H1126 C1114 0.960 . S
H1127 C1114 0.962 . S
H1128 C1114 0.960 . S
H1129 C1115 0.961 . S
H1130 C1115 0.961 . S
H1131 C1115 0.961 . S
H1132 C1116 0.931 . S
H1133 C1121 0.930 . S
H1134 C1122 0.956 . S
H1135 C1122 0.961 . S
H1136 C1122 0.961 . S
H1137 C1123 0.958 . S
H1138 C1123 0.961 . S
H1139 C1123 0.960 . S
C373 C7 1.034 . S
C381 C115 1.083 . S
C405 C25 1.023 . S
C413 C151 0.975 . S
C437 C46 0.803 . S
C445 C187 0.787 1_545 S
C477 C217 0.953 . S
C469 C70 1.012 . S
C509 C259 1.096 . S
C501 C28 1.048 . S
C533 C49 0.892 . S
C541 C289 0.977 . S
C565 C67 0.733 . S
C573 C325 0.833 . S
C597 C4 0.999 . S
C605 C367 0.951 . S
C629 C58 1.970 . S
C637 C337 1.987 . S
C669 C229 1.888 . S
C661 C66 1.811 . S
C701 C295 1.875 . S
C693 C3 1.706 . S
C725 C37 1.630 . S
C733 C331 1.643 . S
C765 C121 2.004 . S
C757 C79 1.966 . S
C789 C16 1.547 . S
C797 C181 1.654 1_455 S
C829 C223 1.883 . S
C821 C24 1.728 . S
C861 C85 1.894 . S
C853 C45 1.813 . S
C893 C301 1.111 . S
C885 C19 1.070 . S
C925 C361 1.368 . S
C917 C41 1.153 . S
C949 C62 1.222 . S
C957 C253 1.549 . S
C989 C265 1.323 . S
C981 C82 1.275 . S
C1021 C157 1.126 . S
C1013 C40 1.030 . S
C1045 C61 1.290 . S
C1053 C193 1.330 . S
C1085 C109 1.537 . S
C1077 C83 1.209 . S
C1117 C145 1.383 . S
C1109 C20 1.154 . S
