# Generated by pormake.
# Topology eea, (3,6)-cn, num edge types: 1
# Building blocks:
#     Node 0, Type 0, BuildingBlock: MIDCAF_clean_linker_0, # of connection points: 3
#     Node 1, Type 0, BuildingBlock: MIDCAF_clean_linker_0, # of connection points: 3
#     Node 2, Type 0, BuildingBlock: MIDCAF_clean_linker_0, # of connection points: 3
#     Node 3, Type 0, BuildingBlock: MIDCAF_clean_linker_0, # of connection points: 3
#     Node 4, Type 0, BuildingBlock: MIDCAF_clean_linker_0, # of connection points: 3
#     Node 5, Type 0, BuildingBlock: MIDCAF_clean_linker_0, # of connection points: 3
#     Node 6, Type 0, BuildingBlock: MIDCAF_clean_linker_0, # of connection points: 3
#     Node 7, Type 0, BuildingBlock: MIDCAF_clean_linker_0, # of connection points: 3
#     Node 8, Type 0, BuildingBlock: MIDCAF_clean_linker_0, # of connection points: 3
#     Node 9, Type 0, BuildingBlock: MIDCAF_clean_linker_0, # of connection points: 3
#     Node 10, Type 0, BuildingBlock: MIDCAF_clean_linker_0, # of connection points: 3
#     Node 11, Type 0, BuildingBlock: MIDCAF_clean_linker_0, # of connection points: 3
#     Node 12, Type 0, BuildingBlock: MIDCAF_clean_linker_0, # of connection points: 3
#     Node 13, Type 0, BuildingBlock: MIDCAF_clean_linker_0, # of connection points: 3
#     Node 14, Type 0, BuildingBlock: MIDCAF_clean_linker_0, # of connection points: 3
#     Node 15, Type 0, BuildingBlock: MIDCAF_clean_linker_0, # of connection points: 3
#     Node 16, Type 0, BuildingBlock: MIDCAF_clean_linker_0, # of connection points: 3
#     Node 17, Type 0, BuildingBlock: MIDCAF_clean_linker_0, # of connection points: 3
#     Node 18, Type 1, BuildingBlock: NUHQIS_clean_sbu_0, # of connection points: 6
#     Node 19, Type 1, BuildingBlock: NUHQIS_clean_sbu_0, # of connection points: 6
#     Node 20, Type 1, BuildingBlock: NUHQIS_clean_sbu_0, # of connection points: 6
#     Node 21, Type 1, BuildingBlock: NUHQIS_clean_sbu_0, # of connection points: 6
#     Node 22, Type 1, BuildingBlock: NUHQIS_clean_sbu_0, # of connection points: 6
#     Node 23, Type 1, BuildingBlock: NUHQIS_clean_sbu_0, # of connection points: 6
#     Node 24, Type 1, BuildingBlock: NUHQIS_clean_sbu_0, # of connection points: 6
#     Node 25, Type 1, BuildingBlock: NUHQIS_clean_sbu_0, # of connection points: 6
#     Node 26, Type 1, BuildingBlock: NUHQIS_clean_sbu_0, # of connection points: 6
#     Edge 27, Type (0, 1), BuildingBlock: OJICUG_clean_linker_0, # of connection points: 2
#     Edge 28, Type (0, 1), BuildingBlock: OJICUG_clean_linker_0, # of connection points: 2
#     Edge 29, Type (0, 1), BuildingBlock: OJICUG_clean_linker_0, # of connection points: 2
#     Edge 30, Type (0, 1), BuildingBlock: OJICUG_clean_linker_0, # of connection points: 2
#     Edge 31, Type (0, 1), BuildingBlock: OJICUG_clean_linker_0, # of connection points: 2
#     Edge 32, Type (0, 1), BuildingBlock: OJICUG_clean_linker_0, # of connection points: 2
#     Edge 33, Type (0, 1), BuildingBlock: OJICUG_clean_linker_0, # of connection points: 2
#     Edge 34, Type (0, 1), BuildingBlock: OJICUG_clean_linker_0, # of connection points: 2
#     Edge 35, Type (0, 1), BuildingBlock: OJICUG_clean_linker_0, # of connection points: 2
#     Edge 36, Type (0, 1), BuildingBlock: OJICUG_clean_linker_0, # of connection points: 2
#     Edge 37, Type (0, 1), BuildingBlock: OJICUG_clean_linker_0, # of connection points: 2
#     Edge 38, Type (0, 1), BuildingBlock: OJICUG_clean_linker_0, # of connection points: 2
#     Edge 39, Type (0, 1), BuildingBlock: OJICUG_clean_linker_0, # of connection points: 2
#     Edge 40, Type (0, 1), BuildingBlock: OJICUG_clean_linker_0, # of connection points: 2
#     Edge 41, Type (0, 1), BuildingBlock: OJICUG_clean_linker_0, # of connection points: 2
#     Edge 42, Type (0, 1), BuildingBlock: OJICUG_clean_linker_0, # of connection points: 2
#     Edge 43, Type (0, 1), BuildingBlock: OJICUG_clean_linker_0, # of connection points: 2
#     Edge 44, Type (0, 1), BuildingBlock: OJICUG_clean_linker_0, # of connection points: 2
#     Edge 45, Type (0, 1), BuildingBlock: OJICUG_clean_linker_0, # of connection points: 2
#     Edge 46, Type (0, 1), BuildingBlock: OJICUG_clean_linker_0, # of connection points: 2
#     Edge 47, Type (0, 1), BuildingBlock: OJICUG_clean_linker_0, # of connection points: 2
#     Edge 48, Type (0, 1), BuildingBlock: OJICUG_clean_linker_0, # of connection points: 2
#     Edge 49, Type (0, 1), BuildingBlock: OJICUG_clean_linker_0, # of connection points: 2
#     Edge 50, Type (0, 1), BuildingBlock: OJICUG_clean_linker_0, # of connection points: 2
#     Edge 51, Type (0, 1), BuildingBlock: OJICUG_clean_linker_0, # of connection points: 2
#     Edge 52, Type (0, 1), BuildingBlock: OJICUG_clean_linker_0, # of connection points: 2
#     Edge 53, Type (0, 1), BuildingBlock: OJICUG_clean_linker_0, # of connection points: 2
#     Edge 54, Type (0, 1), BuildingBlock: OJICUG_clean_linker_0, # of connection points: 2
#     Edge 55, Type (0, 1), BuildingBlock: OJICUG_clean_linker_0, # of connection points: 2
#     Edge 56, Type (0, 1), BuildingBlock: OJICUG_clean_linker_0, # of connection points: 2
#     Edge 57, Type (0, 1), BuildingBlock: OJICUG_clean_linker_0, # of connection points: 2
#     Edge 58, Type (0, 1), BuildingBlock: OJICUG_clean_linker_0, # of connection points: 2
#     Edge 59, Type (0, 1), BuildingBlock: OJICUG_clean_linker_0, # of connection points: 2
#     Edge 60, Type (0, 1), BuildingBlock: OJICUG_clean_linker_0, # of connection points: 2
#     Edge 61, Type (0, 1), BuildingBlock: OJICUG_clean_linker_0, # of connection points: 2
#     Edge 62, Type (0, 1), BuildingBlock: OJICUG_clean_linker_0, # of connection points: 2
#     Edge 63, Type (0, 1), BuildingBlock: OJICUG_clean_linker_0, # of connection points: 2
#     Edge 64, Type (0, 1), BuildingBlock: OJICUG_clean_linker_0, # of connection points: 2
#     Edge 65, Type (0, 1), BuildingBlock: OJICUG_clean_linker_0, # of connection points: 2
#     Edge 66, Type (0, 1), BuildingBlock: OJICUG_clean_linker_0, # of connection points: 2
#     Edge 67, Type (0, 1), BuildingBlock: OJICUG_clean_linker_0, # of connection points: 2
#     Edge 68, Type (0, 1), BuildingBlock: OJICUG_clean_linker_0, # of connection points: 2
#     Edge 69, Type (0, 1), BuildingBlock: OJICUG_clean_linker_0, # of connection points: 2
#     Edge 70, Type (0, 1), BuildingBlock: OJICUG_clean_linker_0, # of connection points: 2
#     Edge 71, Type (0, 1), BuildingBlock: OJICUG_clean_linker_0, # of connection points: 2
#     Edge 72, Type (0, 1), BuildingBlock: OJICUG_clean_linker_0, # of connection points: 2
#     Edge 73, Type (0, 1), BuildingBlock: OJICUG_clean_linker_0, # of connection points: 2
#     Edge 74, Type (0, 1), BuildingBlock: OJICUG_clean_linker_0, # of connection points: 2
#     Edge 75, Type (0, 1), BuildingBlock: OJICUG_clean_linker_0, # of connection points: 2
#     Edge 76, Type (0, 1), BuildingBlock: OJICUG_clean_linker_0, # of connection points: 2
#     Edge 77, Type (0, 1), BuildingBlock: OJICUG_clean_linker_0, # of connection points: 2
#     Edge 78, Type (0, 1), BuildingBlock: OJICUG_clean_linker_0, # of connection points: 2
#     Edge 79, Type (0, 1), BuildingBlock: OJICUG_clean_linker_0, # of connection points: 2
#     Edge 80, Type (0, 1), BuildingBlock: OJICUG_clean_linker_0, # of connection points: 2
# Relax obj value: 0.035
# Max RMSD: 0.131
# Mean RMSD: 0.088
data_MOF--net-eea--node1-NUHQIS_clean_sbu_0--node2-MIDCAF_clean_linker_0--edge1-OJICUG_clean_linker_0
_symmetry_space_group_name_H-M    P1
_symmetry_Int_Tables_number       1
_symmetry_cell_setting            triclinic
loop_
_symmetry_equiv_pos_as_xyz
'x, y, z'
_cell_length_a     48.00606
_cell_length_b     48.34422
_cell_length_c     73.614318
_cell_angle_alpha  93.130301
_cell_angle_beta   92.98208
_cell_angle_gamma 119.88217
loop_
_atom_site_label
_atom_site_type_symbol
_atom_site_fract_x
_atom_site_fract_y
_atom_site_fract_z
_atom_type_partial_charge
C0 C 0.27114 0.03469 0.40159 0.0
C1 C 0.25147 0.02384 0.38502 0.0
C2 C 0.24424 0.04497 0.37632 0.0
C3 C 0.25543 0.07592 0.38437 0.0
H4 H 0.27569 0.17361 0.37644 0.0
H5 H 0.25588 0.20561 0.36225 0.0
H6 H 0.23681 0.23199 0.41535 0.0
H7 H 0.25853 0.20168 0.42949 0.0
H8 H 0.3084 0.20027 0.46321 0.0
H9 H 0.32563 0.20791 0.49578 0.0
H10 H 0.33991 0.12657 0.48976 0.0
H11 H 0.32241 0.11857 0.45744 0.0
H12 H 0.29681 0.0729 0.42265 0.0
H13 H 0.27762 0.01915 0.40844 0.0
H14 H 0.22892 0.03722 0.36361 0.0
H15 H 0.24856 0.09121 0.37756 0.0
N16 N 0.27454 0.13767 0.40304 0.0
N17 N 0.2924 0.17182 0.43022 0.0
N18 N 0.2957 0.12503 0.42854 0.0
C19 C 0.2795 0.16484 0.41255 0.0
C20 C 0.30089 0.1521 0.43824 0.0
C21 C 0.28252 0.11758 0.41098 0.0
C22 C 0.26877 0.1853 0.40406 0.0
C23 C 0.2675 0.18653 0.38504 0.0
C24 C 0.25585 0.20467 0.3769 0.0
C25 C 0.24454 0.22142 0.38758 0.0
C26 C 0.24591 0.22009 0.40665 0.0
C27 C 0.25824 0.20255 0.41481 0.0
C28 C 0.31369 0.15862 0.4577 0.0
C29 C 0.31543 0.18415 0.4688 0.0
C30 C 0.32541 0.18861 0.48744 0.0
C31 C 0.3338 0.16763 0.49533 0.0
C32 C 0.333 0.14276 0.48413 0.0
C33 C 0.32309 0.1383 0.46555 0.0
C34 C 0.274 0.08635 0.40134 0.0
C35 C 0.2823 0.0656 0.40966 0.0
C36 C 1.00102 0.21946 0.41096 0.0
C37 C 0.00275 0.2108 0.39262 0.0
C38 C 0.97651 0.18285 0.38364 0.0
C39 C 0.94925 0.16413 0.39265 0.0
H40 H 0.87609 0.06779 0.39375 0.0
H41 H 0.83603 0.0153 0.37927 0.0
H42 H 0.76236 0.02037 0.4083 0.0
H43 H 0.80295 0.07212 0.42353 0.0
H44 H 0.83364 0.10832 0.46375 0.0
H45 H 0.82413 0.12038 0.49428 0.0
H46 H 0.91427 0.21006 0.49928 0.0
H47 H 0.92419 0.19807 0.46819 0.0
H48 H 0.97304 0.20813 0.43406 0.0
H49 H 0.02099 0.24062 0.4184 0.0
H50 H 0.97667 0.17569 0.36946 0.0
H51 H 0.92951 0.14293 0.3851 0.0
N52 N 0.8948 0.1241 0.41145 0.0
N53 N 0.86289 0.115 0.43578 0.0
N54 N 0.91321 0.16219 0.43697 0.0
C55 C 0.8673 0.10523 0.41916 0.0
C56 C 0.88559 0.14325 0.44488 0.0
C57 C 0.91782 0.15267 0.42012 0.0
C58 C 0.84266 0.07402 0.40978 0.0
C59 C 0.85131 0.0577 0.39698 0.0
C60 C 0.82822 0.02764 0.38859 0.0
C61 C 0.79579 0.01348 0.39253 0.0
C62 C 0.78714 0.03015 0.40516 0.0
C63 C 0.81037 0.05995 0.41381 0.0
C64 C 0.87992 0.15212 0.46343 0.0
C65 C 0.85165 0.13073 0.47118 0.0
C66 C 0.84614 0.13752 0.4888 0.0
C67 C 0.86861 0.16594 0.49926 0.0
C68 C 0.89653 0.18793 0.49148 0.0
C69 C 0.90223 0.18101 0.47373 0.0
C70 C 0.9473 0.17286 0.41091 0.0
C71 C 0.97357 0.20076 0.41998 0.0
C72 C 0.79063 0.77146 0.41375 0.0
C73 C 0.79691 0.78621 0.39732 0.0
C74 C 0.82632 0.79471 0.39003 0.0
C75 C 0.84884 0.78855 0.39889 0.0
H76 H 0.92619 0.78092 0.38949 0.0
H77 H 0.97345 0.79382 0.37363 0.0
H78 H 0.02143 0.78652 0.42292 0.0
H79 H 0.97325 0.77253 0.43884 0.0
H80 H 0.92337 0.73676 0.47249 0.0
H81 H 0.91234 0.71519 0.50227 0.0
H82 H 0.81955 0.70951 0.49741 0.0
H83 H 0.83062 0.73144 0.46815 0.0
H84 H 0.80751 0.75387 0.43524 0.0
H85 H 0.76805 0.76425 0.41963 0.0
H86 H 0.83222 0.80658 0.37758 0.0
H87 H 0.87124 0.79559 0.39283 0.0
N88 N 0.89395 0.77383 0.41676 0.0
N89 N 0.91165 0.75633 0.44164 0.0
N90 N 0.8621 0.75529 0.44112 0.0
C91 C 0.91652 0.76841 0.42501 0.0
C92 C 0.88427 0.74961 0.44976 0.0
C93 C 0.86677 0.76745 0.42466 0.0
C94 C 0.9458 0.77572 0.41555 0.0
C95 C 0.94675 0.78206 0.39707 0.0
C96 C 0.97409 0.78974 0.38793 0.0
C97 C 1.00155 0.79159 0.39697 0.0
C98 C 1.00064 0.78505 0.41544 0.0
C99 C 0.97304 0.77711 0.42461 0.0
C100 C 0.87804 0.73609 0.46784 0.0
C101 C 0.90064 0.73095 0.47779 0.0
C102 C 0.89424 0.71841 0.49485 0.0
C103 C 0.86511 0.71078 0.50237 0.0
C104 C 0.8425 0.71567 0.4923 0.0
C105 C 0.84885 0.72814 0.47536 0.0
C106 C 0.84262 0.77382 0.41532 0.0
C107 C 0.81322 0.76536 0.42266 0.0
C108 C 0.01485 0.2317 0.60661 0.0
C109 C 0.00344 0.2079 0.61898 0.0
C110 C 0.01955 0.19057 0.62139 0.0
C111 C 0.04656 0.19728 0.61209 0.0
H112 H 0.1298 0.19642 0.62135 0.0
H113 H 0.16807 0.18448 0.63665 0.0
H114 H 0.23527 0.23116 0.5966 0.0
H115 H 0.19663 0.24268 0.58095 0.0
H116 H 0.17515 0.26897 0.54834 0.0
H117 H 0.18679 0.29352 0.51975 0.0
H118 H 0.0972 0.29446 0.51784 0.0
H119 H 0.08509 0.26917 0.54644 0.0
H120 H 0.05002 0.25683 0.58787 0.0
H121 H 0.00353 0.24598 0.60453 0.0
H122 H 0.01121 0.17155 0.63039 0.0
H123 H 0.05838 0.18351 0.61445 0.0
N124 N 0.1091 0.22141 0.5985 0.0
N125 N 0.14297 0.24339 0.57524 0.0
N126 N 0.09432 0.24407 0.57516 0.0
C127 C 0.13678 0.22855 0.5909 0.0
C128 C 0.1219 0.25117 0.5672 0.0
C129 C 0.08777 0.22904 0.59083 0.0
C130 C 0.16007 0.22066 0.5999 0.0
C131 C 0.15268 0.20417 0.61572 0.0
C132 C 0.17475 0.19745 0.6246 0.0
C133 C 0.20488 0.20707 0.61796 0.0
C134 C 0.21217 0.22317 0.60201 0.0
C135 C 0.19004 0.2299 0.59308 0.0
C136 C 0.1291 0.26696 0.54983 0.0
C137 C 0.15784 0.2744 0.54193 0.0
C138 C 0.16468 0.28875 0.52551 0.0
C139 C 0.14305 0.29616 0.51645 0.0
C140 C 0.1143 0.28882 0.52432 0.0
C141 C 0.10743 0.27445 0.54081 0.0
C142 C 0.05806 0.22119 0.59987 0.0
C143 C 0.04165 0.23808 0.59706 0.0
C144 C 0.74964 0.77192 0.6126 0.0
C145 C 0.76141 0.77876 0.63116 0.0
C146 C 0.76059 0.80365 0.64143 0.0
C147 C 0.7488 0.82163 0.63328 0.0
H148 H 0.75884 0.91014 0.64011 0.0
H149 H 0.7784 0.9643 0.65381 0.0
H150 H 0.72776 0.9808 0.60932 0.0
H151 H 0.70866 0.92692 0.59536 0.0
H152 H 0.68132 0.87972 0.56101 0.0
H153 H 0.6623 0.87038 0.52887 0.0
H154 H 0.67544 0.7883 0.52345 0.0
H155 H 0.69421 0.79729 0.55585 0.0
H156 H 0.72929 0.7842 0.59006 0.0
H157 H 0.75028 0.75313 0.60423 0.0
H158 H 0.76891 0.80918 0.65583 0.0
H159 H 0.74875 0.84075 0.64164 0.0
N160 N 0.73223 0.86312 0.61503 0.0
N161 N 0.70944 0.87447 0.58973 0.0
N162 N 0.71232 0.82742 0.58849 0.0
C163 C 0.72374 0.88279 0.60706 0.0
C164 C 0.70353 0.84685 0.58035 0.0
C165 C 0.72652 0.83536 0.60592 0.0
C166 C 0.73248 0.91424 0.6165 0.0
C167 C 0.75156 0.92514 0.63331 0.0
C168 C 0.76268 0.95616 0.64123 0.0
C169 C 0.7549 0.9769 0.63253 0.0
C170 C 0.73467 0.96555 0.61615 0.0
C171 C 0.72359 0.93458 0.60821 0.0
C172 C 0.68962 0.83942 0.56105 0.0
C173 C 0.68005 0.85952 0.55307 0.0
C174 C 0.66927 0.8543 0.53459 0.0
C175 C 0.66772 0.82884 0.52358 0.0
C176 C 0.67622 0.80804 0.53162 0.0
C177 C 0.68709 0.81328 0.55018 0.0
C178 C 0.73742 0.81508 0.61466 0.0
C179 C 0.73769 0.78981 0.60445 0.0
C180 C 0.21663 0.96292 0.60713 0.0
C181 C 0.20684 0.9786 0.61974 0.0
C182 C 0.17422 0.9634 0.62332 0.0
C183 C 0.15215 0.93305 0.61491 0.0
H184 H 0.07522 0.85153 0.6273 0.0
H185 H 0.02827 0.82021 0.64337 0.0
H186 H 0.99032 0.74456 0.59934 0.0
H187 H 0.0375 0.77638 0.58284 0.0
H188 H 0.07858 0.79494 0.54418 0.0
H189 H 0.08874 0.78152 0.51355 0.0
H190 H 0.18745 0.85907 0.52286 0.0
H191 H 0.17772 0.87196 0.5532 0.0
H192 H 0.20265 0.9211 0.58893 0.0
H193 H 0.24159 0.97366 0.60419 0.0
H194 H 0.16553 0.97502 0.63255 0.0
H195 H 0.12726 0.92206 0.61806 0.0
N196 N 0.11141 0.86617 0.60179 0.0
N197 N 0.09412 0.82601 0.57752 0.0
N198 N 0.1433 0.87429 0.57753 0.0
C199 C 0.08921 0.83657 0.59396 0.0
C200 C 0.12132 0.84491 0.56925 0.0
C201 C 0.13843 0.88511 0.59372 0.0
C202 C 0.06027 0.81659 0.60365 0.0
C203 C 0.05701 0.82822 0.62092 0.0
C204 C 0.03011 0.81011 0.63029 0.0
C205 C 0.00557 0.77981 0.62272 0.0
C206 C 0.00871 0.76798 0.60549 0.0
C207 C 0.0358 0.78616 0.59606 0.0
C208 C 0.12724 0.83462 0.55117 0.0
C209 C 0.10253 0.80882 0.53974 0.0
C210 C 0.10828 0.80127 0.52215 0.0
C211 C 0.13893 0.81919 0.51575 0.0
C212 C 0.1637 0.84443 0.52739 0.0
C213 C 0.15796 0.85201 0.54481 0.0
C214 C 0.16198 0.91736 0.60243 0.0
C215 C 0.19436 0.9327 0.59845 0.0
C216 C 0.94665 0.37789 0.72997 0.0
C217 C 0.9187 0.36251 0.71763 0.0
C218 C 0.90254 0.37919 0.71329 0.0
C219 C 0.91375 0.41016 0.7212 0.0
H220 H 0.91817 0.49416 0.71089 0.0
H221 H 0.89721 0.5254 0.69731 0.0
H222 H 0.935 0.59308 0.74537 0.0
H223 H 0.95543 0.56127 0.75932 0.0
H224 H 0.98021 0.54051 0.7954 0.0
H225 H 0.99687 0.54725 0.82802 0.0
H226 H 0.01159 0.46628 0.82133 0.0
H227 H 0.99475 0.45921 0.78895 0.0
H228 H 0.97869 0.41968 0.7479 0.0
H229 H 0.96017 0.36614 0.73336 0.0
H230 H 0.88057 0.36804 0.70419 0.0
H231 H 0.90029 0.422 0.71783 0.0
N232 N 0.94245 0.47645 0.73578 0.0
N233 N 0.9637 0.51222 0.76226 0.0
N234 N 0.96566 0.46459 0.76067 0.0
C235 C 0.94904 0.50446 0.74494 0.0
C236 C 0.97219 0.49235 0.77019 0.0
C237 C 0.95078 0.45651 0.7435 0.0
C238 C 0.93835 0.52503 0.73632 0.0
C239 C 0.92223 0.51577 0.71862 0.0
C240 C 0.91035 0.53382 0.71072 0.0
C241 C 0.91433 0.56167 0.72026 0.0
C242 C 0.93111 0.57144 0.73777 0.0
C243 C 0.943 0.5533 0.74573 0.0
C244 C 0.98575 0.49909 0.78954 0.0
C245 C 0.98734 0.52435 0.80084 0.0
C246 C 0.99696 0.52828 0.81953 0.0
C247 C 0.00511 0.50701 0.82727 0.0
C248 C 0.00479 0.48263 0.81584 0.0
C249 C 0.99527 0.47872 0.79722 0.0
C250 C 0.94096 0.42498 0.73397 0.0
C251 C 0.95746 0.40868 0.7382 0.0
C252 C 0.65726 0.56043 0.7391 0.0
C253 C 0.66855 0.54645 0.72629 0.0
C254 C 0.65215 0.51288 0.72304 0.0
C255 C 0.62511 0.49388 0.73218 0.0
H256 H 0.5411 0.40781 0.72328 0.0
H257 H 0.50219 0.35474 0.70888 0.0
H258 H 0.43847 0.34255 0.75091 0.0
H259 H 0.47755 0.39533 0.76558 0.0
H260 H 0.49488 0.45022 0.79433 0.0
H261 H 0.48353 0.46496 0.82378 0.0
H262 H 0.57934 0.54789 0.83152 0.0
H263 H 0.59117 0.53274 0.80184 0.0
H264 H 0.62231 0.55294 0.75809 0.0
H265 H 0.66879 0.5862 0.74175 0.0
H266 H 0.66038 0.50113 0.71358 0.0
H267 H 0.6131 0.46809 0.72928 0.0
N268 N 0.56329 0.45752 0.74643 0.0
N269 N 0.53013 0.44954 0.77006 0.0
N270 N 0.57849 0.49841 0.77007 0.0
C271 C 0.53594 0.43842 0.75426 0.0
C272 C 0.55116 0.47936 0.77812 0.0
C273 C 0.58464 0.4875 0.75416 0.0
C274 C 0.5125 0.40595 0.74559 0.0
C275 C 0.51885 0.39386 0.7295 0.0
C276 C 0.49646 0.36347 0.72118 0.0
C277 C 0.46721 0.3445 0.72872 0.0
C278 C 0.46096 0.35644 0.74487 0.0
C279 C 0.48334 0.38681 0.75322 0.0
C280 C 0.54408 0.49018 0.79567 0.0
C281 C 0.51364 0.47173 0.80217 0.0
C282 C 0.50695 0.48034 0.81907 0.0
C283 C 0.53045 0.50768 0.83001 0.0
C284 C 0.56078 0.52654 0.82346 0.0
C285 C 0.56749 0.51796 0.80641 0.0
C286 C 0.61397 0.50789 0.74501 0.0
C287 C 0.63048 0.54138 0.74846 0.0
C288 C 0.45585 0.09395 0.74203 0.0
C289 C 0.46568 0.11769 0.72968 0.0
C290 C 0.49863 0.13527 0.72684 0.0
C291 C 0.52095 0.12893 0.73579 0.0
H292 H 0.60521 0.13311 0.72808 0.0
H293 H 0.65308 0.1464 0.71272 0.0
H294 H 0.68209 0.10114 0.75258 0.0
H295 H 0.63397 0.08815 0.76837 0.0
H296 H 0.58996 0.06614 0.80512 0.0
H297 H 0.57825 0.04412 0.83475 0.0
H298 H 0.48387 0.03461 0.82828 0.0
H299 H 0.49551 0.05687 0.7991 0.0
H300 H 0.46988 0.06942 0.76055 0.0
H301 H 0.43069 0.0795 0.7444 0.0
H302 H 0.50741 0.15427 0.71782 0.0
H303 H 0.54607 0.14293 0.73322 0.0
N304 N 0.56303 0.10662 0.75016 0.0
N305 N 0.57908 0.08646 0.77437 0.0
N306 N 0.52896 0.08429 0.77326 0.0
C307 C 0.58523 0.10062 0.75837 0.0
C308 C 0.55087 0.07829 0.78193 0.0
C309 C 0.53489 0.09851 0.75743 0.0
C310 C 0.61543 0.10933 0.74952 0.0
C311 C 0.62165 0.12588 0.73369 0.0
C312 C 0.64914 0.13338 0.72473 0.0
C313 C 0.67138 0.12458 0.73124 0.0
C314 C 0.66557 0.10847 0.74723 0.0
C315 C 0.63791 0.10091 0.75626 0.0
C316 C 0.54384 0.06358 0.79965 0.0
C317 C 0.56668 0.05928 0.80999 0.0
C318 C 0.55992 0.04652 0.82697 0.0
C319 C 0.5302 0.03784 0.83403 0.0
C320 C 0.50725 0.04162 0.82351 0.0
C321 C 0.51394 0.05428 0.80662 0.0
C322 C 0.51107 0.10525 0.74811 0.0
C323 C 0.47831 0.088 0.75124 0.0
C324 C 0.67129 0.55037 0.93435 0.0
C325 C 0.66888 0.54184 0.95246 0.0
C326 C 0.6949 0.54074 0.96135 0.0
C327 C 0.72237 0.54776 0.95243 0.0
H328 H 0.79835 0.53411 0.95666 0.0
H329 H 0.83673 0.52198 0.97165 0.0
H330 H 0.90124 0.56431 0.92976 0.0
H331 H 0.86244 0.57592 0.91443 0.0
H332 H 0.84182 0.60391 0.88275 0.0
H333 H 0.85365 0.62859 0.85421 0.0
H334 H 0.76131 0.62388 0.85031 0.0
H335 H 0.74905 0.59857 0.87894 0.0
H336 H 0.6999 0.56398 0.9115 0.0
H337 H 0.65161 0.55108 0.92693 0.0
H338 H 0.69435 0.53495 0.97537 0.0
H339 H 0.74183 0.54672 0.95988 0.0
N340 N 0.77627 0.55702 0.93308 0.0
N341 N 0.80905 0.57708 0.90917 0.0
N342 N 0.76005 0.57708 0.90891 0.0
C343 C 0.8036 0.56355 0.92525 0.0
C344 C 0.78749 0.58396 0.90086 0.0
C345 C 0.75435 0.56363 0.92512 0.0
C346 C 0.82721 0.5561 0.9343 0.0
C347 C 0.82067 0.54089 0.95058 0.0
C348 C 0.84283 0.53407 0.95928 0.0
C349 C 0.8722 0.54232 0.95199 0.0
C350 C 0.87871 0.55733 0.93565 0.0
C351 C 0.8565 0.56415 0.92691 0.0
C352 C 0.7944 0.59915 0.88329 0.0
C353 C 0.82389 0.60804 0.8759 0.0
C354 C 0.83085 0.62249 0.85952 0.0
C355 C 0.80856 0.62846 0.84995 0.0
C356 C 0.77896 0.61943 0.85723 0.0
C357 C 0.772 0.60504 0.87372 0.0
C358 C 0.72486 0.55635 0.93436 0.0
C359 C 0.69897 0.55765 0.92543 0.0
C360 C 0.41486 0.1033 0.94491 0.0
C361 C 0.42741 0.1108 0.96334 0.0
C362 C 0.42733 0.13626 0.97344 0.0
C363 C 0.41541 0.1541 0.96524 0.0
H364 H 0.42592 0.24336 0.97087 0.0
H365 H 0.44541 0.29788 0.9839 0.0
H366 H 0.39419 0.3126 0.93893 0.0
H367 H 0.37514 0.25833 0.92564 0.0
H368 H 0.3486 0.21084 0.89179 0.0
H369 H 0.32981 0.20032 0.85957 0.0
H370 H 0.33584 0.11404 0.85668 0.0
H371 H 0.35461 0.12431 0.88915 0.0
H372 H 0.39371 0.11484 0.92244 0.0
H373 H 0.41496 0.08411 0.93666 0.0
H374 H 0.43631 0.14232 0.98774 0.0
H375 H 0.4159 0.17367 0.97343 0.0
N376 N 0.39848 0.19515 0.94653 0.0
N377 N 0.37468 0.20522 0.92114 0.0
N378 N 0.37695 0.15789 0.92066 0.0
C379 C 0.38984 0.21449 0.93826 0.0
C380 C 0.36803 0.17698 0.91224 0.0
C381 C 0.39203 0.16677 0.93787 0.0
C382 C 0.39915 0.24648 0.94712 0.0
C383 C 0.41855 0.25807 0.96381 0.0
C384 C 0.42964 0.28931 0.97133 0.0
C385 C 0.42152 0.30959 0.96236 0.0
C386 C 0.40132 0.2977 0.94598 0.0
C387 C 0.39025 0.2665 0.93844 0.0
C388 C 0.35353 0.16862 0.89307 0.0
C389 C 0.34575 0.18944 0.88442 0.0
C390 C 0.33507 0.18353 0.86591 0.0
C391 C 0.33178 0.15661 0.85561 0.0
C392 C 0.33811 0.13495 0.86435 0.0
C393 C 0.34898 0.14093 0.88292 0.0
C394 C 0.40316 0.14681 0.94676 0.0
C395 C 0.40276 0.12102 0.93673 0.0
C396 C 0.88322 0.29421 0.94073 0.0
C397 C 0.87285 0.31006 0.95284 0.0
C398 C 0.84011 0.29468 0.95617 0.0
C399 C 0.8185 0.26398 0.94803 0.0
H400 H 0.74234 0.1824 0.96123 0.0
H401 H 0.69495 0.15145 0.97709 0.0
H402 H 0.65778 0.07509 0.9335 0.0
H403 H 0.70535 0.1065 0.91723 0.0
H404 H 0.74597 0.12558 0.87843 0.0
H405 H 0.7561 0.11178 0.84788 0.0
H406 H 0.85618 0.18577 0.85821 0.0
H407 H 0.84637 0.19916 0.88849 0.0
H408 H 0.87013 0.25189 0.92319 0.0
H409 H 0.90829 0.3051 0.938 0.0
H410 H 0.83098 0.30639 0.965 0.0
H411 H 0.7935 0.25285 0.95099 0.0
N412 N 0.77874 0.19669 0.93577 0.0
N413 N 0.76202 0.15579 0.91201 0.0
N414 N 0.81102 0.20417 0.91175 0.0
C415 C 0.75681 0.16682 0.92821 0.0
C416 C 0.78927 0.17447 0.90375 0.0
C417 C 0.8058 0.21547 0.92768 0.0
C418 C 0.72776 0.14705 0.93783 0.0
C419 C 0.72421 0.159 0.95491 0.0
C420 C 0.69705 0.14112 0.96416 0.0
C421 C 0.6726 0.11076 0.95663 0.0
C422 C 0.67609 0.09858 0.9396 0.0
C423 C 0.70342 0.11652 0.93031 0.0
C424 C 0.79529 0.16361 0.88589 0.0
C425 C 0.77021 0.13855 0.87424 0.0
C426 C 0.77595 0.13079 0.85671 0.0
C427 C 0.80695 0.14768 0.85061 0.0
C428 C 0.83212 0.17197 0.86252 0.0
C429 C 0.82638 0.17985 0.87988 0.0
C430 C 0.82891 0.2481 0.93606 0.0
C431 C 0.8614 0.26363 0.93231 0.0
C432 C 0.60636 0.70708 0.06545 0.0
C433 C 0.57905 0.6923 0.05265 0.0
C434 C 0.56364 0.70952 0.04794 0.0
C435 C 0.57509 0.74055 0.05583 0.0
H436 H 0.58121 0.82502 0.04489 0.0
H437 H 0.56088 0.85656 0.03102 0.0
H438 H 0.59903 0.92475 0.07886 0.0
H439 H 0.61885 0.89268 0.09309 0.0
H440 H 0.64607 0.87429 0.12875 0.0
H441 H 0.66246 0.88201 0.16147 0.0
H442 H 0.66923 0.79617 0.15699 0.0
H443 H 0.65278 0.78819 0.12452 0.0
H444 H 0.63824 0.74856 0.08364 0.0
H445 H 0.61926 0.69486 0.06917 0.0
H446 H 0.54214 0.69881 0.03847 0.0
H447 H 0.56228 0.75287 0.05209 0.0
N448 N 0.60445 0.80693 0.0702 0.0
N449 N 0.62634 0.84335 0.09639 0.0
N450 N 0.62703 0.79509 0.09539 0.0
C451 C 0.61166 0.83536 0.07907 0.0
C452 C 0.63421 0.8233 0.10462 0.0
C453 C 0.61216 0.78678 0.07821 0.0
C454 C 0.60152 0.85614 0.07022 0.0
C455 C 0.5855 0.84681 0.0525 0.0
C456 C 0.57397 0.86503 0.04444 0.0
C457 C 0.57822 0.8931 0.05384 0.0
C458 C 0.59495 0.90294 0.07137 0.0
C459 C 0.60648 0.88466 0.07948 0.0
C460 C 0.64768 0.8304 0.12399 0.0
C461 C 0.65139 0.85724 0.13469 0.0
C462 C 0.66086 0.86174 0.15342 0.0
C463 C 0.66666 0.83943 0.1618 0.0
C464 C 0.66428 0.81341 0.15097 0.0
C465 C 0.65498 0.80896 0.1323 0.0
C466 C 0.60182 0.75492 0.06894 0.0
C467 C 0.61743 0.73796 0.07365 0.0
C468 C 0.33279 0.88721 0.07678 0.0
C469 C 0.33356 0.87884 0.05825 0.0
C470 C 0.30725 0.85067 0.0495 0.0
C471 C 0.28098 0.83123 0.05903 0.0
H472 H 0.20732 0.74 0.05551 0.0
H473 H 0.1679 0.68752 0.04068 0.0
H474 H 0.10889 0.67094 0.08574 0.0
H475 H 0.14867 0.72311 0.10085 0.0
H476 H 0.19317 0.76576 0.13951 0.0
H477 H 0.18218 0.77869 0.16969 0.0
H478 H 0.23291 0.87926 0.16132 0.0
H479 H 0.24433 0.86631 0.13083 0.0
H480 H 0.30675 0.8748 0.1006 0.0
H481 H 0.35285 0.90855 0.08402 0.0
H482 H 0.30674 0.84376 0.03519 0.0
H483 H 0.26121 0.80971 0.05174 0.0
N484 N 0.23045 0.78846 0.07957 0.0
N485 N 0.20218 0.77689 0.10559 0.0
N486 N 0.24912 0.82687 0.10489 0.0
C487 C 0.2052 0.76783 0.08841 0.0
C488 C 0.2239 0.80625 0.11395 0.0
C489 C 0.25254 0.81793 0.08763 0.0
C490 C 0.18121 0.73585 0.07939 0.0
C491 C 0.18597 0.72522 0.0623 0.0
C492 C 0.16327 0.69516 0.05373 0.0
C493 C 0.13521 0.67509 0.062 0.0
C494 C 0.13046 0.68566 0.07911 0.0
C495 C 0.15323 0.71568 0.08772 0.0
C496 C 0.21956 0.81502 0.13275 0.0
C497 C 0.20222 0.7907 0.14408 0.0
C498 C 0.19607 0.79809 0.16144 0.0
C499 C 0.20671 0.82996 0.16784 0.0
C500 C 0.22434 0.85446 0.15665 0.0
C501 C 0.23103 0.84708 0.13929 0.0
C502 C 0.28022 0.83946 0.07757 0.0
C503 C 0.30639 0.8678 0.08632 0.0
C504 C 0.11911 0.42195 0.07412 0.0
C505 C 0.129 0.44503 0.06135 0.0
C506 C 0.16181 0.46161 0.05811 0.0
C507 C 0.1839 0.45501 0.0671 0.0
H508 H 0.25251 0.42119 0.05394 0.0
H509 H 0.30025 0.43511 0.0382 0.0
H510 H 0.35808 0.46531 0.09019 0.0
H511 H 0.30941 0.44916 0.10593 0.0
H512 H 0.25544 0.39919 0.1388 0.0
H513 H 0.24374 0.37619 0.16815 0.0
H514 H 0.14734 0.36148 0.16071 0.0
H515 H 0.1587 0.38397 0.13149 0.0
H516 H 0.13294 0.3978 0.09307 0.0
H517 H 0.09404 0.40824 0.07683 0.0
H518 H 0.17071 0.48012 0.04878 0.0
H519 H 0.20893 0.46832 0.06423 0.0
N520 N 0.22533 0.43219 0.08177 0.0
N521 N 0.24256 0.41483 0.10694 0.0
N522 N 0.19249 0.41282 0.10574 0.0
C523 C 0.24778 0.42694 0.09034 0.0
C524 C 0.21471 0.40749 0.11469 0.0
C525 C 0.19776 0.4254 0.08937 0.0
C526 C 0.27719 0.43414 0.08119 0.0
C527 C 0.27543 0.43063 0.06202 0.0
C528 C 0.30303 0.439 0.05296 0.0
C529 C 0.33353 0.45195 0.06276 0.0
C530 C 0.33517 0.45508 0.08204 0.0
C531 C 0.30727 0.44594 0.09114 0.0
C532 C 0.20808 0.39352 0.13265 0.0
C533 C 0.23172 0.39099 0.14339 0.0
C534 C 0.22507 0.37794 0.16029 0.0
C535 C 0.19453 0.36683 0.16681 0.0
C536 C 0.17095 0.36932 0.15604 0.0
C537 C 0.17763 0.3825 0.13927 0.0
C538 C 0.174 0.43209 0.07988 0.0
C539 C 0.14139 0.41577 0.08339 0.0
C540 C 0.3398 0.89192 0.26922 0.0
C541 C 0.33426 0.87701 0.28563 0.0
C542 C 0.35714 0.86962 0.29291 0.0
C543 C 0.38481 0.877 0.28416 0.0
H544 H 0.47006 0.88228 0.29382 0.0
H545 H 0.50726 0.86902 0.3091 0.0
H546 H 0.55811 0.88415 0.26057 0.0
H547 H 0.52128 0.89846 0.24535 0.0
H548 H 0.50572 0.93477 0.21504 0.0
H549 H 0.51731 0.95866 0.18625 0.0
H550 H 0.42879 0.96162 0.18458 0.0
H551 H 0.41672 0.93703 0.2134 0.0
H552 H 0.37114 0.91086 0.24784 0.0
H553 H 0.32284 0.89825 0.26329 0.0
H554 H 0.35348 0.85762 0.30531 0.0
H555 H 0.40166 0.87072 0.2903 0.0
N556 N 0.44203 0.89289 0.26679 0.0
N557 N 0.4748 0.91218 0.24281 0.0
N558 N 0.42606 0.91278 0.24246 0.0
C559 C 0.4693 0.89907 0.25903 0.0
C560 C 0.45341 0.91921 0.23441 0.0
C561 C 0.42022 0.89951 0.25871 0.0
C562 C 0.49253 0.89138 0.26828 0.0
C563 C 0.48913 0.88282 0.28633 0.0
C564 C 0.51042 0.87498 0.29511 0.0
C565 C 0.5356 0.87521 0.28606 0.0
C566 C 0.53921 0.88402 0.26804 0.0
C567 C 0.51798 0.8921 0.25927 0.0
C568 C 0.46022 0.93389 0.21669 0.0
C569 C 0.4886 0.94045 0.20863 0.0
C570 C 0.49543 0.95442 0.19209 0.0
C571 C 0.47412 0.96231 0.18308 0.0
C572 C 0.44563 0.95562 0.19104 0.0
C573 C 0.43878 0.94164 0.20765 0.0
C574 C 0.3905 0.89195 0.26777 0.0
C575 C 0.3676 0.89931 0.26039 0.0
C576 C 0.0893 0.43645 0.27593 0.0
C577 C 0.10259 0.4445 0.29423 0.0
C578 C 0.10375 0.47081 0.30409 0.0
C579 C 0.0921 0.4888 0.29583 0.0
H580 H 0.11547 0.58462 0.2939 0.0
H581 H 0.13324 0.63828 0.30739 0.0
H582 H 0.05081 0.63583 0.27885 0.0
H583 H 0.0341 0.58257 0.26451 0.0
H584 H 0.01082 0.53616 0.22497 0.0
H585 H 0.98869 0.52336 0.19313 0.0
H586 H 0.01045 0.44686 0.18817 0.0
H587 H 0.03285 0.45965 0.21997 0.0
H588 H 0.06762 0.44761 0.25353 0.0
H589 H 0.08846 0.41659 0.26787 0.0
H590 H 0.11333 0.47733 0.31829 0.0
H591 H 0.09338 0.50891 0.30387 0.0
N592 N 0.07396 0.52895 0.27719 0.0
N593 N 0.04705 0.53737 0.25254 0.0
N594 N 0.05049 0.49059 0.25195 0.0
C595 C 0.06398 0.54753 0.26922 0.0
C596 C 0.04025 0.50892 0.24379 0.0
C597 C 0.06715 0.50038 0.26873 0.0
C598 C 0.0734 0.57941 0.27814 0.0
C599 C 0.10103 0.59546 0.29058 0.0
C600 C 0.11112 0.62624 0.29841 0.0
C601 C 0.09346 0.64152 0.2943 0.0
C602 C 0.06539 0.62512 0.2821 0.0
C603 C 0.05564 0.5945 0.27396 0.0
C604 C 0.02391 0.49914 0.22502 0.0
C605 C 0.01066 0.51641 0.21718 0.0
C606 C 0.99777 0.50896 0.19896 0.0
C607 C 0.99803 0.48424 0.18817 0.0
C608 C 0.01029 0.46629 0.19614 0.0
C609 C 0.02296 0.47355 0.21439 0.0
C610 C 0.07885 0.4808 0.27752 0.0
C611 C 0.07746 0.45433 0.26769 0.0
C612 C 0.54896 0.63012 0.27417 0.0
C613 C 0.54262 0.64049 0.29083 0.0
C614 C 0.51468 0.61949 0.29892 0.0
C615 C 0.49328 0.58896 0.29039 0.0
H616 H 0.42369 0.4888 0.29861 0.0
H617 H 0.37619 0.45649 0.31432 0.0
H618 H 0.31696 0.42814 0.26288 0.0
H619 H 0.36508 0.45899 0.24711 0.0
H620 H 0.41673 0.46121 0.21153 0.0
H621 H 0.42649 0.45259 0.17987 0.0
H622 H 0.5209 0.53732 0.18856 0.0
H623 H 0.51136 0.54618 0.21963 0.0
H624 H 0.5331 0.59259 0.2527 0.0
H625 H 0.57055 0.64553 0.26775 0.0
H626 H 0.50892 0.62691 0.31166 0.0
H627 H 0.47173 0.57362 0.29687 0.0
N628 N 0.44933 0.52629 0.27183 0.0
N629 N 0.43075 0.49078 0.24509 0.0
N630 N 0.47959 0.53957 0.24662 0.0
C631 C 0.42681 0.49808 0.26259 0.0
C632 C 0.45751 0.5115 0.2371 0.0
C633 C 0.47571 0.54725 0.26389 0.0
C634 C 0.39804 0.47636 0.27164 0.0
C635 C 0.4005 0.47534 0.29066 0.0
C636 C 0.37313 0.45704 0.2997 0.0
C637 C 0.34241 0.43983 0.29001 0.0
C638 C 0.34012 0.44055 0.27086 0.0
C639 C 0.3677 0.45833 0.26176 0.0
C640 C 0.46305 0.50457 0.21814 0.0
C641 C 0.43957 0.4779 0.20666 0.0
C642 C 0.44518 0.4729 0.18857 0.0
C643 C 0.4743 0.49455 0.18166 0.0
C644 C 0.49793 0.52062 0.19331 0.0
C645 C 0.49242 0.52557 0.21124 0.0
C646 C 0.4993 0.5788 0.27354 0.0
C647 C 0.52754 0.59964 0.26561 0.0
Tb648 Tb 0.48997 0.97838 0.98886 0.0
Eu649 Eu 0.51519 0.02417 0.02819 0.0
C650 C 0.5221 0.96307 0.02208 0.0
C651 C 0.4453 0.96053 0.02076 0.0
C652 C 0.48235 0.96174 0.93904 0.0
C653 C 0.48793 0.95421 0.90675 0.0
C654 C 0.47995 0.94187 0.92372 0.0
C655 C 0.49278 0.99413 0.93716 0.0
C656 C 0.50078 0.00648 0.92023 0.0
C657 C 0.49855 0.98673 0.90478 0.0
C658 C 0.47626 0.94938 0.95719 0.0
O659 O 0.46743 0.00787 0.98912 0.0
O660 O 0.50417 0.05175 0.00828 0.0
O661 O 0.55847 0.03995 0.01185 0.0
O662 O 0.52977 0.02451 0.98384 0.0
C663 C 0.48016 0.03813 0.99536 0.0
O664 O 0.50853 0.05226 0.04999 0.0
O665 O 0.549 0.04428 0.05272 0.0
O666 O 0.51191 0.97752 0.03309 0.0
O667 O 0.52156 0.96604 1.00445 0.0
O668 O 0.45544 0.94906 0.00762 0.0
O669 O 0.46174 0.99074 0.02732 0.0
C670 C 0.55724 0.04051 0.99399 0.0
O671 O 0.50205 0.95652 0.96767 0.0
O672 O 0.45593 0.95392 0.96615 0.0
C673 C 0.52214 0.04163 0.07899 0.0
C674 C 0.50514 0.01725 0.11331 0.0
C675 C 0.52805 0.04977 0.11217 0.0
C676 C 0.53645 0.06181 0.09517 0.0
C677 C 0.49913 0.00927 0.08 0.0
C678 C 0.4907 0.99722 0.09696 0.0
C679 C 0.53154 0.05387 0.06105 0.0
H680 H 0.48555 0.9382 0.89513 0.0
H681 H 0.4722 0.91687 0.92492 0.0
H682 H 0.4952 0.01 0.94887 0.0
H683 H 0.50931 0.03171 0.91935 0.0
H684 H 0.53938 0.06599 0.12444 0.0
H685 H 0.55423 0.08685 0.09466 0.0
H686 H 0.48791 0.99323 0.06765 0.0
H687 H 0.47336 0.97201 0.09725 0.0
Tb688 Tb 0.02245 0.50432 0.98999 0.0
Eu689 Eu 0.97763 0.4848 0.02497 0.0
C690 C 0.04171 0.55106 0.02566 0.0
C691 C 0.03972 0.47587 0.0238 0.0
C692 C 0.04871 0.51848 0.94326 0.0
C693 C 0.06616 0.53482 0.91339 0.0
C694 C 0.07319 0.53664 0.93223 0.0
C695 C 0.0171 0.49831 0.93531 0.0
C696 C 0.01006 0.49639 0.91647 0.0
C697 C 0.0345 0.51475 0.90532 0.0
C698 C 0.05602 0.52208 0.96311 0.0
O699 O 0.98938 0.45305 0.9844 0.0
O700 O 0.94886 0.44653 1.00224 0.0
O701 O 0.96402 0.51388 0.00751 0.0
O702 O 0.97752 0.50149 0.98012 0.0
C703 C 0.95996 0.43604 0.98927 0.0
O704 O 0.94441 0.44953 0.04193 0.0
O705 O 0.95766 0.49942 0.04701 0.0
O706 O 0.0255 0.527 0.03531 0.0
O707 O 0.03698 0.54769 0.00777 0.0
O708 O 0.05032 0.49563 0.01092 0.0
O709 O 0.01071 0.46487 0.02927 0.0
C710 C 0.9615 0.5118 0.98958 0.0
O711 O 0.04674 0.53946 0.97217 0.0
O712 O 0.049 0.49599 0.97079 0.0
C713 C 0.9488 0.46984 0.0727 0.0
C714 C 0.96134 0.4703 0.11064 0.0
C715 C 0.96702 0.45099 0.09813 0.0
C716 C 0.96096 0.45086 0.07935 0.0
C717 C 0.94249 0.4886 0.08514 0.0
C718 C 0.9488 0.48896 0.10391 0.0
C719 C 0.94329 0.47101 0.05294 0.0
H720 H 0.08555 0.54895 0.90513 0.0
H721 H 0.09768 0.55245 0.93821 0.0
H722 H 0.99785 0.48439 0.94371 0.0
H723 H 0.98538 0.48101 0.91069 0.0
H724 H 0.9762 0.43596 0.10283 0.0
H725 H 0.96608 0.43611 0.07009 0.0
H726 H 0.93316 0.50346 0.08031 0.0
H727 H 0.94461 0.5045 0.11311 0.0
Tb728 Tb 0.51516 0.49237 0.02442 0.0
Eu729 Eu 0.48671 0.51023 0.98769 0.0
C730 C 0.47637 0.44139 0.99151 0.0
C731 C 0.55594 0.51482 0.99067 0.0
C732 C 0.52511 0.48077 0.07236 0.0
C733 C 0.51972 0.4644 0.1032 0.0
C734 C 0.52922 0.46311 0.08564 0.0
C735 C 0.51127 0.4996 0.07676 0.0
C736 C 0.50169 0.50082 0.09421 0.0
C737 C 0.50585 0.4833 0.10768 0.0
C738 C 0.53286 0.47782 0.05356 0.0
O739 O 0.53714 0.54429 0.02691 0.0
O740 O 0.50007 0.55035 0.00911 0.0
O741 O 0.4454 0.48786 0.00561 0.0
O742 O 0.47498 0.49694 0.03315 0.0
C743 C 0.52449 0.5615 0.02161 0.0
O744 O 0.49087 0.54518 0.96892 0.0
O745 O 0.45242 0.49583 0.96357 0.0
O746 O 0.48582 0.46414 0.98051 0.0
O747 O 0.47882 0.44798 0.00921 0.0
O748 O 0.54663 0.49464 1.00339 0.0
O749 O 0.53959 0.5287 0.98571 0.0
C750 C 0.44769 0.48876 0.02358 0.0
O751 O 0.50833 0.45759 0.04233 0.0
O752 O 0.55033 0.50459 0.04638 0.0
C753 C 0.47775 0.5232 0.93846 0.0
C754 C 0.49765 0.52359 0.90302 0.0
C755 C 0.47769 0.53634 0.9071 0.0
C756 C 0.46785 0.53614 0.9247 0.0
C757 C 0.49783 0.51069 0.93454 0.0
C758 C 0.50762 0.51081 0.91699 0.0
C759 C 0.46823 0.52367 0.95707 0.0
H760 H 0.52356 0.45089 0.1133 0.0
H761 H 0.53956 0.4482 0.08241 0.0
H762 H 0.50754 0.51313 0.06662 0.0
H763 H 0.49065 0.51521 0.09709 0.0
H764 H 0.46988 0.54671 0.89675 0.0
H765 H 0.45264 0.54621 0.92756 0.0
H766 H 0.50589 0.50077 0.94507 0.0
H767 H 0.52255 0.50036 0.91431 0.0
Tb768 Tb 0.1577 0.30804 0.32201 0.0
Eu769 Eu 0.1842 0.35522 0.36127 0.0
C770 C 0.19071 0.29303 0.35526 0.0
C771 C 0.11443 0.2913 0.35454 0.0
C772 C 0.14796 0.29122 0.27206 0.0
C773 C 0.14648 0.28187 0.2391 0.0
C774 C 0.13898 0.27007 0.25625 0.0
C775 C 0.16441 0.32436 0.27048 0.0
C776 C 0.17211 0.33617 0.25339 0.0
C777 C 0.16337 0.31511 0.23745 0.0
C778 C 0.1418 0.27893 0.29026 0.0
O779 O 0.13653 0.33874 0.32259 0.0
O780 O 0.17523 0.38298 0.34061 0.0
O781 O 0.22761 0.3711 0.34519 0.0
O782 O 0.19979 0.35246 0.31677 0.0
C783 C 0.15092 0.36951 0.32791 0.0
O784 O 0.17681 0.38349 0.38262 0.0
O785 O 0.21773 0.37629 0.38588 0.0
O786 O 0.18335 0.30979 0.36653 0.0
O787 O 0.1871 0.293 0.33743 0.0
O788 O 0.12403 0.27942 0.34133 0.0
O789 O 0.13075 0.32178 0.36054 0.0
C790 C 0.22681 0.36945 0.32726 0.0
O791 O 0.16739 0.28466 0.30047 0.0
O792 O 0.12272 0.28495 0.29954 0.0
C793 C 0.19042 0.3739 0.41192 0.0
C794 C 0.17347 0.35027 0.44642 0.0
C795 C 0.19619 0.38277 0.44508 0.0
C796 C 0.20458 0.39445 0.42799 0.0
C797 C 0.16757 0.34157 0.41313 0.0
C798 C 0.15916 0.32988 0.43018 0.0
C799 C 0.19988 0.38573 0.3939 0.0
H800 H 0.13963 0.26494 0.22716 0.0
H801 H 0.12649 0.24443 0.25717 0.0
H802 H 0.17154 0.34115 0.2825 0.0
H803 H 0.18468 0.36186 0.25266 0.0
H804 H 0.20742 0.39927 0.45725 0.0
H805 H 0.22225 0.41947 0.42733 0.0
H806 H 0.15646 0.32525 0.40087 0.0
H807 H 0.14196 0.30467 0.43062 0.0
Tb808 Tb 0.68528 0.83683 0.32471 0.0
Eu809 Eu 0.64128 0.81799 0.3599 0.0
C810 C 0.70367 0.88722 0.35838 0.0
C811 C 0.70565 0.81452 0.36021 0.0
C812 C 0.70964 0.84993 0.27762 0.0
C813 C 0.72728 0.86522 0.24764 0.0
C814 C 0.73449 0.86581 0.26635 0.0
C815 C 0.67744 0.83375 0.2701 0.0
C816 C 0.67022 0.833 0.25139 0.0
C817 C 0.69508 0.8486 0.23995 0.0
C818 C 0.71747 0.85072 0.29721 0.0
O819 O 0.64074 0.79276 0.3156 0.0
O820 O 0.6302 0.77274 0.34337 0.0
O821 O 0.61106 0.82143 0.33674 0.0
O822 O 0.65241 0.85525 0.32053 0.0
C823 C 0.62667 0.76849 0.3255 0.0
O824 O 0.61622 0.78359 0.37949 0.0
O825 O 0.61393 0.82721 0.37973 0.0
O826 O 0.67441 0.87138 0.36359 0.0
O827 O 0.71411 0.87471 0.34612 0.0
O828 O 0.7027 0.81248 0.34223 0.0
O829 O 0.68852 0.8229 0.36999 0.0
C830 C 0.62215 0.84185 0.32429 0.0
O831 O 0.71425 0.87142 0.30763 0.0
O832 O 0.70523 0.82297 0.30385 0.0
C833 C 0.61567 0.80712 0.40793 0.0
C834 C 0.63208 0.81426 0.44583 0.0
C835 C 0.60005 0.79363 0.43844 0.0
C836 C 0.59193 0.79011 0.41961 0.0
C837 C 0.64761 0.82782 0.4152 0.0
C838 C 0.65574 0.83142 0.434 0.0
C839 C 0.60747 0.80187 0.38813 0.0
H840 H 0.74693 0.87719 0.23914 0.0
H841 H 0.75946 0.87852 0.272 0.0
H842 H 0.65795 0.82164 0.27869 0.0
H843 H 0.64517 0.82035 0.24589 0.0
H844 H 0.58126 0.78037 0.44723 0.0
H845 H 0.5672 0.7739 0.41416 0.0
H846 H 0.66631 0.84083 0.40629 0.0
H847 H 0.68068 0.84715 0.43925 0.0
Tb848 Tb 0.17997 0.82378 0.35767 0.0
Eu849 Eu 0.15104 0.84099 0.32093 0.0
C850 C 0.14168 0.77147 0.32511 0.0
C851 C 0.21878 0.84336 0.32259 0.0
C852 C 0.18931 0.81057 0.4058 0.0
C853 C 0.18812 0.79415 0.43647 0.0
C854 C 0.19779 0.7953 0.41878 0.0
C855 C 0.17076 0.82444 0.41061 0.0
C856 C 0.16119 0.82342 0.4283 0.0
C857 C 0.16979 0.80831 0.44149 0.0
C858 C 0.19851 0.8107 0.38705 0.0
O859 O 0.18212 0.86907 0.36471 0.0
O860 O 0.18937 0.88669 0.33634 0.0
O861 O 0.11981 0.83961 0.3432 0.0
O862 O 0.1292 0.80664 0.36065 0.0
C863 C 0.19268 0.89252 0.35411 0.0
O864 O 0.15822 0.87575 0.30133 0.0
O865 O 0.1148 0.82928 0.2981 0.0
O866 O 0.12802 0.7875 0.31943 0.0
O867 O 0.16698 0.78437 0.33716 0.0
O868 O 0.2203 0.84579 0.3406 0.0
O869 O 0.19179 0.83443 0.31253 0.0
C870 C 0.11234 0.82037 0.35636 0.0
O871 O 0.17577 0.78937 0.37522 0.0
O872 O 0.21369 0.83862 0.38064 0.0
C873 C 0.1403 0.85109 0.27145 0.0
C874 C 0.16249 0.84642 0.23719 0.0
C875 C 0.16418 0.87507 0.24396 0.0
C876 C 0.15315 0.87734 0.26091 0.0
C877 C 0.1378 0.82221 0.26452 0.0
C878 C 0.14854 0.81984 0.24755 0.0
C879 C 0.13329 0.85522 0.29038 0.0
H880 H 0.19478 0.78191 0.44616 0.0
H881 H 0.21172 0.78409 0.41521 0.0
H882 H 0.16371 0.83608 0.40068 0.0
H883 H 0.1475 0.83495 0.4317 0.0
H884 H 0.17502 0.8961 0.23648 0.0
H885 H 0.15571 0.89998 0.26609 0.0
H886 H 0.12832 0.80162 0.27241 0.0
H887 H 0.14617 0.79718 0.24263 0.0
Tb888 Tb 0.82422 0.64676 0.65635 0.0
Eu889 Eu 0.85063 0.69263 0.69575 0.0
C890 C 0.85728 0.63136 0.68917 0.0
C891 C 0.78097 0.62803 0.68909 0.0
C892 C 0.81637 0.63132 0.6065 0.0
C893 C 0.82196 0.6248 0.57411 0.0
C894 C 0.8138 0.61187 0.59093 0.0
C895 C 0.82712 0.66388 0.60502 0.0
C896 C 0.83537 0.67684 0.58827 0.0
C897 C 0.83299 0.65752 0.57256 0.0
C898 C 0.81018 0.61837 0.62449 0.0
O899 O 0.80119 0.67576 0.65725 0.0
O900 O 0.83833 0.7198 0.67614 0.0
O901 O 0.89337 0.70826 0.67898 0.0
O902 O 0.86376 0.69308 0.65128 0.0
C903 C 0.81398 0.70604 0.66342 0.0
O904 O 0.84457 0.7208 0.71779 0.0
O905 O 0.8851 0.71285 0.72 0.0
O906 O 0.8478 0.64614 0.70044 0.0
O907 O 0.85595 0.63404 0.67153 0.0
O908 O 0.78983 0.61703 0.67506 0.0
O909 O 0.79767 0.65805 0.696 0.0
C910 C 0.89156 0.7089 0.66114 0.0
O911 O 0.83594 0.62507 0.63488 0.0
O912 O 0.79 0.62285 0.63365 0.0
C913 C 0.85856 0.70963 0.7465 0.0
C914 C 0.84084 0.68462 0.78061 0.0
C915 C 0.86142 0.71773 0.7796 0.0
C916 C 0.87015 0.7301 0.76269 0.0
C917 C 0.83801 0.67664 0.74741 0.0
C918 C 0.82919 0.66427 0.76426 0.0
C919 C 0.86777 0.72228 0.72863 0.0
H920 H 0.81941 0.60908 0.5623 0.0
H921 H 0.80578 0.58673 0.59181 0.0
H922 H 0.82962 0.67943 0.61692 0.0
H923 H 0.84422 0.7022 0.58773 0.0
H924 H 0.87059 0.73415 0.79188 0.0
H925 H 0.88597 0.75563 0.76227 0.0
H926 H 0.82893 0.66039 0.73506 0.0
H927 H 0.81372 0.63865 0.76448 0.0
Tb928 Tb 0.35648 0.17252 0.65764 0.0
Eu929 Eu 0.3113 0.15233 0.69238 0.0
C930 C 0.37435 0.21969 0.69301 0.0
C931 C 0.37472 0.14567 0.6917 0.0
C932 C 0.38239 0.1854 0.61104 0.0
C933 C 0.39879 0.19989 0.58079 0.0
C934 C 0.40645 0.20286 0.59962 0.0
C935 C 0.35061 0.16478 0.6035 0.0
C936 C 0.34293 0.16174 0.58468 0.0
C937 C 0.36692 0.1794 0.57314 0.0
C938 C 0.39015 0.19018 0.63085 0.0
O939 O 0.32412 0.12104 0.65215 0.0
O940 O 0.28308 0.11403 0.66965 0.0
O941 O 0.29652 0.18028 0.67466 0.0
O942 O 0.31132 0.16883 0.64746 0.0
C943 C 0.2946 0.10375 0.65684 0.0
O944 O 0.28034 0.11666 0.70999 0.0
O945 O 0.28878 0.16512 0.71366 0.0
O946 O 0.35825 0.19577 0.70278 0.0
O947 O 0.37001 0.21595 0.67511 0.0
O948 O 0.38505 0.16557 0.67891 0.0
O949 O 0.34542 0.13365 0.69685 0.0
C950 C 0.29456 0.17842 0.65673 0.0
O951 O 0.38018 0.20729 0.63955 0.0
O952 O 0.38401 0.16468 0.63895 0.0
C953 C 0.2846 0.13841 0.73989 0.0
C954 C 0.29974 0.14162 0.77761 0.0
C955 C 0.26738 0.12566 0.7702 0.0
C956 C 0.25987 0.12415 0.75144 0.0
C957 C 0.3169 0.15372 0.74715 0.0
C958 C 0.32442 0.1554 0.76588 0.0
C959 C 0.27683 0.13734 0.72029 0.0
H960 H 0.41782 0.21351 0.57221 0.0
H961 H 0.43106 0.219 0.6053 0.0
H962 H 0.33169 0.1514 0.61221 0.0
H963 H 0.31811 0.14609 0.57922 0.0
H964 H 0.24792 0.11505 0.77897 0.0
H965 H 0.23482 0.11213 0.74597 0.0
H966 H 0.33628 0.16457 0.73834 0.0
H967 H 0.34955 0.16746 0.77119 0.0
Tb968 Tb 0.85281 0.162 0.69325 0.0
Eu969 Eu 0.82288 0.17727 0.65601 0.0
C970 C 0.81333 0.10938 0.66126 0.0
C971 C 0.89265 0.18252 0.65881 0.0
C972 C 0.86067 0.14627 0.74114 0.0
C973 C 0.85545 0.12449 0.77056 0.0
C974 C 0.86618 0.12753 0.75307 0.0
C975 C 0.8439 0.16161 0.74682 0.0
C976 C 0.83314 0.15859 0.76427 0.0
C977 C 0.83891 0.14012 0.77641 0.0
C978 C 0.87171 0.14914 0.72269 0.0
O979 O 0.87613 0.21383 0.69345 0.0
O980 O 0.83712 0.21848 0.67681 0.0
O981 O 0.78201 0.15471 0.67414 0.0
O982 O 0.81221 0.16623 0.70172 0.0
C983 C 0.86281 0.23059 0.68846 0.0
O984 O 0.82613 0.21083 0.63645 0.0
O985 O 0.78799 0.16121 0.63205 0.0
O986 O 0.82311 0.13159 0.64993 0.0
O987 O 0.81571 0.11686 0.67887 0.0
O988 O 0.8851 0.1646 0.67264 0.0
O989 O 0.87521 0.1948 0.653 0.0
C990 C 0.78458 0.15693 0.69215 0.0
O991 O 0.85135 0.12754 0.71009 0.0
O992 O 0.88478 0.17763 0.71705 0.0
C993 C 0.81413 0.18628 0.6066 0.0
C994 C 0.83587 0.18324 0.57206 0.0
C995 C 0.81678 0.19748 0.57475 0.0
C996 C 0.80598 0.19896 0.59192 0.0
C997 C 0.83356 0.17254 0.60402 0.0
C998 C 0.8443 0.17102 0.58695 0.0
C999 C 0.80382 0.18837 0.62483 0.0
H1000 H 0.85998 0.1098 0.77948 0.0
H1001 H 0.87881 0.11525 0.74885 0.0
H1002 H 0.83937 0.17619 0.73781 0.0
H1003 H 0.82094 0.17135 0.76838 0.0
H1004 H 0.80966 0.20686 0.56352 0.0
H1005 H 0.79124 0.20991 0.59372 0.0
H1006 H 0.84048 0.16301 0.61528 0.0
H1007 H 0.85936 0.16037 0.58542 0.0
C1008 C 0.37349 0.88609 0.03535 0.0
C1009 C 0.36154 0.89953 0.04805 0.0
H1010 H 0.40922 0.8947 0.01664 0.0
C1011 C 0.37656 0.93302 0.05098 0.0
H1012 H 0.36267 0.86035 0.03288 0.0
C1013 C 0.40322 0.95258 0.04178 0.0
C1014 C 0.41556 0.93923 0.02932 0.0
H1015 H 0.36765 0.94421 0.06035 0.0
H1016 H 0.41428 0.9783 0.04459 0.0
C1017 C 0.4002 0.90574 0.02605 0.0
C1018 C 0.10932 0.46104 0.03352 0.0
C1019 C 0.10542 0.45202 0.05152 0.0
H1020 H 0.09192 0.47582 0.01078 0.0
C1021 C 0.07908 0.45025 0.06008 0.0
H1022 H 0.12873 0.46198 0.02623 0.0
C1023 C 0.05743 0.45739 0.05096 0.0
C1024 C 0.06188 0.46705 0.03317 0.0
H1025 H 0.07544 0.444 0.074 0.0
H1026 H 0.03764 0.45609 0.05804 0.0
C1027 C 0.08804 0.46878 0.02456 0.0
C1028 C 0.56727 0.63573 0.05485 0.0
C1029 C 0.5661 0.65886 0.04452 0.0
H1030 H 0.55514 0.58674 0.05563 0.0
C1031 C 0.55155 0.64953 0.02647 0.0
H1032 H 0.57773 0.6418 0.06889 0.0
C1033 C 0.53777 0.6178 0.01913 0.0
C1034 C 0.53891 0.59486 0.02951 0.0
H1035 H 0.55087 0.66673 0.0179 0.0
H1036 H 0.52662 0.61134 0.00522 0.0
C1037 C 0.55411 0.60411 0.04734 0.0
C1038 C 0.92152 0.36533 0.95327 0.0
C1039 C 0.89593 0.34229 0.9622 0.0
H1040 H 0.96201 0.41311 0.95487 0.0
C1041 C 0.89226 0.35037 0.98022 0.0
H1042 H 0.92487 0.36014 0.93932 0.0
C1043 C 0.91302 0.38085 0.9889 0.0
C1044 C 0.93838 0.40384 0.97994 0.0
H1045 H 0.87345 0.33307 0.98774 0.0
H1046 H 0.90941 0.38628 1.00276 0.0
C1047 C 0.94271 0.39574 0.96212 0.0
C1048 C 0.628 0.51073 0.97451 0.0
C1049 C 0.63969 0.53456 0.96218 0.0
H1050 H 0.5927 0.48587 0.9932 0.0
C1051 C 0.62356 0.55179 0.95947 0.0
H1052 H 0.63939 0.49657 0.97676 0.0
C1053 C 0.59659 0.54539 0.96877 0.0
C1054 C 0.58502 0.52171 0.98115 0.0
H1055 H 0.63205 0.57066 0.95037 0.0
H1056 H 0.58491 0.55925 0.96627 0.0
C1057 C 0.60108 0.50446 0.98391 0.0
C1058 C 0.42549 0.0589 0.96785 0.0
C1059 C 0.44071 0.09224 0.97192 0.0
H1060 H 0.42591 0.01579 0.97203 0.0
C1061 C 0.46888 0.10768 0.98406 0.0
H1062 H 0.40346 0.04618 0.95881 0.0
C1063 C 0.48163 0.09016 0.99186 0.0
C1064 C 0.46655 0.05687 0.98759 0.0
H1065 H 0.48144 0.13341 0.9873 0.0
H1066 H 0.5035 0.10277 1.00102 0.0
C1067 C 0.4383 0.04145 0.97554 0.0
C1068 C 0.61261 0.07621 0.95655 0.0
C1069 C 0.6432 0.09245 0.96632 0.0
H1070 H 0.56175 0.04757 0.95757 0.0
C1071 C 0.64535 0.09189 0.98545 0.0
H1072 H 0.61002 0.07658 0.94188 0.0
C1073 C 0.61752 0.07541 0.99456 0.0
C1074 C 0.58695 0.05918 0.98474 0.0
H1075 H 0.66861 0.10392 0.99337 0.0
H1076 H 0.62 0.07519 0.00925 0.0
C1077 C 0.58487 0.05981 0.96563 0.0
C1078 C 0.90115 0.53955 0.98069 0.0
C1079 C 0.89586 0.53532 0.96152 0.0
H1080 H 0.92589 0.53561 1.00453 0.0
C1081 C 0.91299 0.52395 0.9516 0.0
H1082 H 0.88882 0.54879 0.98876 0.0
C1083 C 0.93451 0.51658 0.96067 0.0
C1084 C 0.93941 0.52041 0.97986 0.0
H1085 H 0.90928 0.52009 0.93684 0.0
H1086 H 0.94703 0.50755 0.95261 0.0
C1087 C 0.92259 0.53216 0.98975 0.0
C1088 C 0.43678 0.35114 0.98862 0.0
C1089 C 0.43488 0.34332 0.96978 0.0
H1090 H 0.45132 0.38819 0.01026 0.0
C1091 C 0.44648 0.36802 0.95808 0.0
H1092 H 0.4277 0.3326 0.99795 0.0
C1093 C 0.45987 0.3999 0.96511 0.0
C1094 C 0.46197 0.40772 0.98397 0.0
H1095 H 0.44576 0.36276 0.94351 0.0
H1096 H 0.46879 0.4184 0.95575 0.0
C1097 C 0.4502 0.383 0.99565 0.0
C1098 C 0.10295 0.63955 0.0338 0.0
C1099 C 0.11094 0.6433 0.05276 0.0
H1100 H 0.07486 0.6076 0.0104 0.0
C1101 C 0.09568 0.61648 0.06278 0.0
H1102 H 0.11388 0.65983 0.02573 0.0
C1103 C 0.07302 0.58654 0.05401 0.0
C1104 C 0.06524 0.58279 0.03503 0.0
H1105 H 0.1016 0.61849 0.07737 0.0
H1106 H 0.06187 0.56631 0.0621 0.0
C1107 C 0.08042 0.60962 0.02503 0.0
C1108 C 0.36536 0.47359 0.03542 0.0
C1109 C 0.36322 0.46212 0.05282 0.0
H1110 H 0.39326 0.49058 0.01248 0.0
C1111 C 0.38961 0.46016 0.06049 0.0
H1112 H 0.34613 0.47638 0.02913 0.0
C1113 C 0.41709 0.4693 0.0511 0.0
C1114 C 0.41878 0.48007 0.0336 0.0
H1115 H 0.38897 0.45098 0.07364 0.0
H1116 H 0.43678 0.46722 0.05742 0.0
C1117 C 0.39258 0.48206 0.02585 0.0
C1118 C 0.56515 0.91574 0.02689 0.0
C1119 C 0.56416 0.91129 0.04562 0.0
H1120 H 0.55252 0.93544 1.0047 0.0
C1121 C 0.54877 0.92355 0.0564 0.0
H1122 H 0.57711 0.90684 0.01825 0.0
C1123 C 0.53483 0.94 0.04867 0.0
C1124 C 0.53587 0.94453 0.02996 0.0
H1125 H 0.54705 0.92002 0.07079 0.0
H1126 H 0.5232 0.94915 0.05742 0.0
C1127 C 0.5511 0.93216 0.01912 0.0
C1128 C 0.04672 0.26472 0.38553 0.0
C1129 C 0.03135 0.23118 0.38271 0.0
H1130 H 0.08447 0.30974 0.37882 0.0
C1131 C 0.0431 0.21742 0.37007 0.0
H1132 H 0.03802 0.27621 0.39485 0.0
C1133 C 0.06966 0.23677 0.36058 0.0
C1134 C 0.08514 0.2703 0.36359 0.0
H1135 H 0.0321 0.19165 0.36769 0.0
H1136 H 0.07837 0.22546 0.35114 0.0
C1137 C 0.07326 0.28399 0.37615 0.0
C1138 C 0.76766 0.78873 0.36866 0.0
C1139 C 0.77306 0.79294 0.38783 0.0
H1140 H 0.74229 0.79217 0.34492 0.0
C1141 C 0.75582 0.80404 0.39783 0.0
H1142 H 0.78014 0.77975 0.36053 0.0
C1143 C 0.73389 0.81093 0.38888 0.0
C1144 C 0.72871 0.80696 0.3697 0.0
H1145 H 0.75968 0.80797 0.4126 0.0
H1146 H 0.72121 0.81963 0.39703 0.0
C1147 C 0.74581 0.79571 0.3597 0.0
C1148 C 0.23563 0.98303 0.35828 0.0
C1149 C 0.23745 0.99022 0.37719 0.0
H1150 H 0.22014 0.9466 0.33618 0.0
C1151 C 0.22486 0.965 0.38853 0.0
H1152 H 0.24548 0.00195 0.34923 0.0
C1153 C 0.21045 0.93322 0.38108 0.0
C1154 C 0.20829 0.92605 0.36214 0.0
H1155 H 0.2255 0.96977 0.40314 0.0
H1156 H 0.20073 0.91431 0.39015 0.0
C1157 C 0.22119 0.95129 0.35083 0.0
C1158 C 0.57839 0.69959 0.2891 0.0
C1159 C 0.56482 0.67326 0.29963 0.0
H1160 H 0.60858 0.75034 0.28898 0.0
C1161 C 0.57224 0.67852 0.31865 0.0
H1162 H 0.57281 0.69637 0.27442 0.0
C1163 C 0.59248 0.70942 0.327 0.0
C1164 C 0.60583 0.73578 0.3165 0.0
H1165 H 0.56258 0.6587 0.32711 0.0
H1166 H 0.59761 0.71259 0.34171 0.0
C1167 C 0.59874 0.73053 0.29745 0.0
C1168 C 0.27459 0.85674 0.28508 0.0
C1169 C 0.3047 0.8688 0.29511 0.0
H1170 H 0.22404 0.83906 0.2858 0.0
C1171 C 0.30624 0.87227 0.31432 0.0
H1172 H 0.27236 0.85331 0.27031 0.0
C1173 C 0.27841 0.86376 0.32327 0.0
C1174 C 0.24831 0.85164 0.31323 0.0
H1175 H 0.32907 0.88192 0.3225 0.0
H1176 H 0.28058 0.86693 0.33805 0.0
C1177 C 0.24678 0.84829 0.29402 0.0
C1178 C 0.14345 0.44046 0.31496 0.0
C1179 C 0.11502 0.42541 0.30302 0.0
H1180 H 0.17714 0.43467 0.33222 0.0
C1181 C 0.09847 0.3919 0.29954 0.0
H1182 H 0.15701 0.46628 0.31774 0.0
C1183 C 0.11015 0.37386 0.30768 0.0
C1184 C 0.13858 0.38888 0.31959 0.0
H1185 H 0.07623 0.3795 0.29067 0.0
H1186 H 0.09674 0.34808 0.30465 0.0
C1187 C 0.15507 0.42237 0.3232 0.0
C1188 C 0.31107 0.43248 0.31769 0.0
C1189 C 0.31297 0.42162 0.29985 0.0
H1190 H 0.2826 0.42438 0.34048 0.0
C1191 C 0.28631 0.39324 0.29144 0.0
H1192 H 0.33073 0.45453 0.32455 0.0
C1193 C 0.25848 0.37661 0.30041 0.0
C1194 C 0.25672 0.38745 0.31819 0.0
H1195 H 0.28691 0.38355 0.27796 0.0
H1196 H 0.23841 0.35489 0.29346 0.0
C1197 C 0.28339 0.41537 0.32684 0.0
C1198 C 0.54602 0.84141 0.30712 0.0
C1199 C 0.55782 0.86621 0.29547 0.0
H1200 H 0.55687 0.81435 0.32532 0.0
C1201 C 0.59099 0.88255 0.29313 0.0
H1202 H 0.52055 0.82785 0.30899 0.0
C1203 C 0.61184 0.87452 0.30237 0.0
C1204 C 0.60005 0.85006 0.31424 0.0
H1205 H 0.60102 0.90201 0.28444 0.0
H1206 H 0.63727 0.88778 0.30035 0.0
C1207 C 0.56687 0.83353 0.31643 0.0
C1208 C 0.12037 0.6849 0.32025 0.0
C1209 C 0.10478 0.67464 0.30244 0.0
H1210 H 0.14457 0.72366 0.34126 0.0
C1211 C 0.10094 0.69659 0.29232 0.0
H1212 H 0.12313 0.66856 0.32865 0.0
C1213 C 0.11251 0.72796 0.2998 0.0
C1214 C 0.12872 0.73821 0.31739 0.0
H1215 H 0.08964 0.68983 0.27846 0.0
H1216 H 0.10947 0.74441 0.29163 0.0
C1217 C 0.13253 0.71644 0.32755 0.0
C1218 C 0.7734 0.97211 0.36551 0.0
C1219 C 0.77127 0.98137 0.3836 0.0
H1220 H 0.75381 0.93505 0.34346 0.0
C1221 C 0.74586 0.95947 0.39314 0.0
H1222 H 0.79207 0.98849 0.35755 0.0
C1223 C 0.72335 0.92907 0.38482 0.0
C1224 C 0.72619 0.91974 0.36695 0.0
H1225 H 0.74369 0.96547 0.40718 0.0
H1226 H 0.7043 0.91256 0.39256 0.0
C1227 C 0.75133 0.94154 0.35736 0.0
C1228 C 0.04001 0.82228 0.37381 0.0
C1229 C 0.03061 0.79982 0.38694 0.0
H1230 H 0.07285 0.84631 0.35384 0.0
C1231 C 0.04867 0.78462 0.39 0.0
H1232 H 0.02709 0.83495 0.37129 0.0
C1233 C 0.0751 0.79139 0.38009 0.0
C1234 C 0.08417 0.81346 0.36677 0.0
H1235 H 0.04202 0.76692 0.39978 0.0
H1236 H 0.08826 0.77902 0.38282 0.0
C1237 C 0.06638 0.82894 0.36382 0.0
C1238 C 0.21385 0.22963 0.36151 0.0
C1239 C 0.23116 0.24001 0.37892 0.0
H1240 H 0.18768 0.23844 0.34025 0.0
C1241 C 0.23525 0.26822 0.38816 0.0
H1242 H 0.20967 0.20777 0.35407 0.0
C1243 C 0.22179 0.28509 0.38047 0.0
C1244 C 0.20455 0.27467 0.36314 0.0
H1245 H 0.24911 0.27756 0.40133 0.0
H1246 H 0.22536 0.30667 0.388 0.0
C1247 C 0.20099 0.24702 0.35361 0.0
C1248 C 0.69982 0.5582 0.69831 0.0
C1249 C 0.69749 0.56679 0.71656 0.0
H1250 H 0.72812 0.57062 0.67526 0.0
C1251 C 0.7232 0.59517 0.72557 0.0
H1252 H 0.68036 0.53673 0.69082 0.0
C1253 C 0.75003 0.61477 0.71653 0.0
C1254 C 0.75229 0.60635 0.6983 0.0
H1255 H 0.72287 0.60225 0.73973 0.0
H1256 H 0.76923 0.63649 0.72398 0.0
C1257 C 0.72709 0.57766 0.68931 0.0
C1258 C 0.44591 0.13358 0.70189 0.0
C1259 C 0.44183 0.12418 0.71979 0.0
H1260 H 0.42815 0.14788 0.67909 0.0
C1261 C 0.41492 0.12136 0.72818 0.0
H1262 H 0.4658 0.13533 0.69475 0.0
C1263 C 0.39285 0.12779 0.71895 0.0
C1264 C 0.3974 0.13773 0.70123 0.0
H1265 H 0.41114 0.11477 0.74204 0.0
H1266 H 0.3726 0.12569 0.72588 0.0
C1267 C 0.42417 0.14057 0.69281 0.0
C1268 C 0.90805 0.30644 0.72023 0.0
C1269 C 0.90567 0.32888 0.70982 0.0
H1270 H 0.8965 0.25774 0.72154 0.0
C1271 C 0.88963 0.31859 0.69212 0.0
H1272 H 0.91962 0.31321 0.73403 0.0
C1273 C 0.87549 0.28657 0.68525 0.0
C1274 C 0.87781 0.26432 0.69573 0.0
H1275 H 0.88795 0.33523 0.68349 0.0
H1276 H 0.86309 0.27931 0.67163 0.0
C1277 C 0.89456 0.27456 0.71316 0.0
C1278 C 0.2272 0.01806 0.64754 0.0
C1279 C 0.23039 0.01047 0.62933 0.0
H1280 H 0.24482 0.05344 0.67037 0.0
C1281 C 0.25586 0.03372 0.62041 0.0
H1282 H 0.20852 0.00056 0.65505 0.0
C1283 C 0.27728 0.06393 0.62944 0.0
C1284 C 0.27328 0.07159 0.64742 0.0
H1285 H 0.25887 0.0289 0.60633 0.0
H1286 H 0.29639 0.08154 0.62218 0.0
C1287 C 0.24816 0.04833 0.6564 0.0
C1288 C 0.97302 0.19173 0.64724 0.0
C1289 C 0.97497 0.20113 0.62931 0.0
H1290 H 0.94555 0.17823 0.67058 0.0
C1291 C 0.94933 0.20393 0.62131 0.0
H1292 H 0.99243 0.18981 0.65406 0.0
C1293 C 0.92289 0.19799 0.63097 0.0
C1294 C 0.92096 0.18857 0.64883 0.0
H1295 H 0.94938 0.21034 0.60744 0.0
H1296 H 0.90369 0.20043 0.62428 0.0
C1297 C 0.94621 0.18526 0.65681 0.0
C1298 C 0.75982 0.72691 0.6354 0.0
C1299 C 0.77467 0.76015 0.63975 0.0
H1300 H 0.76044 0.68385 0.63947 0.0
C1301 C 0.80237 0.77548 0.65225 0.0
H1302 H 0.73817 0.71428 0.62607 0.0
C1303 C 0.81503 0.75794 0.66013 0.0
C1304 C 0.80031 0.72475 0.65562 0.0
H1305 H 0.81465 0.80114 0.65571 0.0
H1306 H 0.83655 0.77049 0.66957 0.0
C1307 C 0.77252 0.70944 0.64321 0.0
C1308 C 0.97924 0.76046 0.65175 0.0
C1309 C 0.97651 0.76121 0.63265 0.0
H1310 H 0.9547 0.74353 0.67578 0.0
C1311 C 0.94567 0.7449 0.62317 0.0
H1312 H 0.00269 0.7725 0.65946 0.0
C1313 C 0.91826 0.72835 0.63251 0.0
C1314 C 0.92093 0.72761 0.6516 0.0
H1315 H 0.94261 0.74537 0.60853 0.0
H1316 H 0.89493 0.7161 0.62466 0.0
C1317 C 0.95175 0.74384 0.66112 0.0
C1318 C 0.23264 0.2039 0.64702 0.0
C1319 C 0.22854 0.20047 0.62781 0.0
H1320 H 0.25656 0.19979 0.67116 0.0
C1321 C 0.2469 0.19032 0.61817 0.0
H1322 H 0.21931 0.21218 0.65488 0.0
C1323 C 0.2685 0.18338 0.62753 0.0
C1324 C 0.27225 0.18646 0.64675 0.0
H1325 H 0.24413 0.18713 0.60338 0.0
H1326 H 0.28201 0.17533 0.61967 0.0
C1327 C 0.25418 0.19696 0.65636 0.0
C1328 C 0.77177 0.01889 0.65886 0.0
C1329 C 0.76918 0.01075 0.63999 0.0
H1330 H 0.78774 0.05647 0.68042 0.0
C1331 C 0.78123 0.0353 0.62822 0.0
H1332 H 0.76247 0.00046 0.66825 0.0
C1333 C 0.79557 0.0673 0.63515 0.0
C1334 C 0.79823 0.07547 0.65402 0.0
H1335 H 0.78011 0.02984 0.61364 0.0
H1336 H 0.80471 0.08561 0.62568 0.0
C1337 C 0.78615 0.05095 0.66581 0.0
C1338 C 0.43678 0.3079 0.70055 0.0
C1339 C 0.44317 0.3125 0.71965 0.0
H1340 H 0.41003 0.27515 0.67718 0.0
C1341 C 0.42639 0.28638 0.72997 0.0
H1342 H 0.44894 0.32766 0.69223 0.0
C1343 C 0.40385 0.25625 0.72136 0.0
C1344 C 0.39763 0.25165 0.70224 0.0
H1345 H 0.43104 0.28909 0.7447 0.0
H1346 H 0.39151 0.23655 0.72969 0.0
C1347 C 0.4143 0.27782 0.69194 0.0
C1348 C 0.73062 0.14306 0.7308 0.0
C1349 C 0.70035 0.1323 0.72126 0.0
H1350 H 0.78077 0.15949 0.72921 0.0
C1351 C 0.69806 0.12962 0.70202 0.0
H1352 H 0.73342 0.14577 0.74559 0.0
C1353 C 0.72531 0.13773 0.69258 0.0
C1354 C 0.75562 0.14871 0.70211 0.0
H1355 H 0.67507 0.12093 0.69418 0.0
H1356 H 0.72253 0.13525 0.67778 0.0
C1357 C 0.75789 0.15118 0.72136 0.0
C1358 C 0.88452 0.59172 0.7231 0.0
C1359 C 0.89996 0.57971 0.71218 0.0
H1360 H 0.85872 0.61705 0.72439 0.0
C1361 C 0.9007 0.58428 0.69345 0.0
H1362 H 0.88296 0.58809 0.73748 0.0
C1363 C 0.8864 0.60059 0.68584 0.0
C1364 C 0.87118 0.61277 0.69683 0.0
H1365 H 0.91268 0.57557 0.6847 0.0
H1366 H 0.88766 0.60401 0.67143 0.0
C1367 C 0.87035 0.60809 0.71553 0.0
C1368 C 0.51351 0.00053 0.16268 0.0
C1369 C 0.48171 0.97726 0.16542 0.0
H1370 H 0.54585 0.03107 0.14426 0.0
C1371 C 0.45748 0.96795 0.151 0.0
H1372 H 0.53275 0.00863 0.17353 0.0
C1373 C 0.46496 0.98113 0.13422 0.0
C1374 C 0.49686 0.00406 0.13141 0.0
H1375 H 0.43278 0.94994 0.15253 0.0
H1376 H 0.44567 0.97336 0.12344 0.0
C1377 C 0.52097 0.01373 0.14593 0.0
C1378 C 0.95898 0.47806 0.16209 0.0
C1379 C 0.98734 0.47853 0.1684 0.0
H1380 H 0.92801 0.4742 0.13893 0.0
C1381 C 0.00639 0.47504 0.15565 0.0
H1382 H 0.94367 0.48036 0.17164 0.0
C1383 C 0.99769 0.4719 0.13695 0.0
C1384 C 0.96958 0.47193 0.13056 0.0
H1385 H 0.02865 0.47582 0.16012 0.0
H1386 H 0.01358 0.47045 0.12751 0.0
C1387 C 0.95011 0.47465 0.14336 0.0
C1388 C 0.47323 0.46089 0.15397 0.0
C1389 C 0.48035 0.4908 0.16234 0.0
H1390 H 0.47567 0.43499 0.13008 0.0
C1391 C 0.49486 0.5178 0.1524 0.0
H1392 H 0.46218 0.4397 0.16132 0.0
C1393 C 0.50287 0.51521 0.1347 0.0
C1394 C 0.49645 0.48551 0.1264 0.0
H1395 H 0.50028 0.54111 0.15838 0.0
H1396 H 0.51474 0.53671 0.12767 0.0
C1397 C 0.48131 0.4583 0.13618 0.0
C1398 C 0.03289 0.53907 0.85727 0.0
C1399 C 0.01272 0.50928 0.84728 0.0
H1400 H 0.05553 0.56418 0.88348 0.0
C1401 C 0.99963 0.4814 0.85653 0.0
H1402 H 0.04343 0.56094 0.85049 0.0
C1403 C 0.00665 0.48321 0.87534 0.0
C1404 C 0.02699 0.51295 0.88533 0.0
H1405 H 0.98366 0.45812 0.84925 0.0
H1406 H 0.99643 0.46126 0.88203 0.0
C1407 C 0.04004 0.54088 0.87611 0.0
C1408 C 0.49283 0.51108 0.85133 0.0
C1409 C 0.5234 0.51527 0.84848 0.0
H1410 H 0.46064 0.51003 0.87064 0.0
C1411 C 0.54625 0.52447 0.86362 0.0
H1412 H 0.47481 0.50442 0.83993 0.0
C1413 C 0.53824 0.52807 0.88126 0.0
C1414 C 0.50719 0.52257 0.88417 0.0
H1415 H 0.56994 0.52771 0.86194 0.0
H1416 H 0.55625 0.53473 0.89266 0.0
C1417 C 0.48481 0.51463 0.86894 0.0
C1418 C 0.53185 0.00319 0.85812 0.0
C1419 C 0.52298 0.02522 0.85234 0.0
H1420 H 0.5313 0.97389 0.8791 0.0
C1421 C 0.50644 0.03474 0.86408 0.0
H1422 H 0.54441 0.99514 0.8494 0.0
C1423 C 0.49864 0.02234 0.881 0.0
C1424 C 0.50717 4e-05 0.88672 0.0
H1425 H 0.49958 0.05199 0.86024 0.0
H1426 H 0.48545 0.02992 0.88949 0.0
C1427 C 0.52398 0.9907 0.87507 0.0
C1428 C 0.12617 0.30131 0.48431 0.0
C1429 C 0.15044 0.31108 0.49877 0.0
H1430 H 0.11419 0.3061 0.45666 0.0
C1431 C 0.18211 0.33465 0.49601 0.0
H1432 H 0.10157 0.28306 0.48585 0.0
C1433 C 0.18943 0.34763 0.47919 0.0
C1434 C 0.1653 0.33744 0.46462 0.0
H1435 H 0.20137 0.3431 0.50687 0.0
H1436 H 0.21423 0.36516 0.4775 0.0
C1437 C 0.1335 0.31427 0.46747 0.0
C1438 C 0.67056 0.85173 0.49358 0.0
C1439 C 0.65833 0.82485 0.50368 0.0
H1440 H 0.6716 0.86948 0.4675 0.0
C1441 C 0.63731 0.79438 0.49462 0.0
H1442 H 0.68712 0.87549 0.50013 0.0
C1443 C 0.62859 0.79092 0.47586 0.0
C1444 C 0.64088 0.81784 0.46578 0.0
H1445 H 0.62736 0.77327 0.50207 0.0
H1446 H 0.61255 0.76712 0.4692 0.0
C1447 C 0.66194 0.84826 0.47486 0.0
C1448 C 0.17481 0.81521 0.49335 0.0
C1449 C 0.1452 0.81289 0.4968 0.0
H1450 H 0.20595 0.81613 0.47339 0.0
C1451 C 0.12281 0.80693 0.48189 0.0
H1452 H 0.19245 0.81935 0.50452 0.0
C1453 C 0.1304 0.80464 0.46396 0.0
C1454 C 0.16056 0.80825 0.46052 0.0
H1455 H 0.09986 0.8052 0.48404 0.0
H1456 H 0.11275 0.80042 0.45279 0.0
C1457 C 0.18242 0.81301 0.47547 0.0
C1458 C 0.65804 0.81512 0.19157 0.0
C1459 C 0.67378 0.84227 0.18186 0.0
H1460 H 0.65254 0.79586 0.21746 0.0
C1461 C 0.6962 0.8718 0.19144 0.0
H1462 H 0.64033 0.79212 0.18458 0.0
C1463 C 0.70311 0.87397 0.21033 0.0
C1464 C 0.68747 0.84671 0.22 0.0
H1465 H 0.70874 0.89308 0.18429 0.0
H1466 H 0.72054 0.89699 0.2174 0.0
C1467 C 0.66476 0.81732 0.21042 0.0
C1468 C 0.18383 0.85594 0.18791 0.0
C1469 C 0.19829 0.83698 0.18596 0.0
H1470 H 0.16042 0.87319 0.20543 0.0
C1471 C 0.20248 0.82267 0.20116 0.0
H1472 H 0.18005 0.867 0.17635 0.0
C1473 C 0.19158 0.82642 0.21783 0.0
C1474 C 0.17583 0.84425 0.21967 0.0
H1475 H 0.21394 0.80827 0.2001 0.0
H1476 H 0.19539 0.81515 0.22927 0.0
C1477 C 0.17258 0.85944 0.20457 0.0
C1478 C 0.20966 0.367 0.20022 0.0
C1479 C 0.18712 0.35291 0.18478 0.0
H1480 H 0.21999 0.36619 0.22881 0.0
C1481 C 0.15699 0.32582 0.18676 0.0
H1482 H 0.23299 0.38799 0.19926 0.0
C1483 C 0.14947 0.3134 0.20372 0.0
C1484 C 0.17178 0.32781 0.21923 0.0
H1485 H 0.13916 0.31411 0.17514 0.0
H1486 H 0.12586 0.29283 0.20475 0.0
C1487 C 0.20205 0.35469 0.21723 0.0
C1488 C 0.84754 0.66906 0.83039 0.0
C1489 C 0.81629 0.6438 0.83242 0.0
H1490 H 0.8798 0.70151 0.81261 0.0
C1491 C 0.79286 0.63281 0.81741 0.0
H1492 H 0.86611 0.67843 0.84171 0.0
C1493 C 0.80067 0.64626 0.80072 0.0
C1494 C 0.83208 0.67117 0.79861 0.0
H1495 H 0.76862 0.61327 0.81842 0.0
H1496 H 0.78204 0.6371 0.78944 0.0
C1497 C 0.85531 0.68257 0.81374 0.0
C1498 C 0.3001 0.12233 0.82686 0.0
C1499 C 0.3234 0.15228 0.83563 0.0
H1500 H 0.2742 0.09545 0.80151 0.0
C1501 C 0.33897 0.17844 0.82519 0.0
H1502 H 0.28768 0.10182 0.83462 0.0
C1503 C 0.33133 0.17482 0.80637 0.0
C1504 C 0.30787 0.145 0.79758 0.0
H1505 H 0.35731 0.20171 0.83156 0.0
H1506 H 0.34353 0.19552 0.79872 0.0
C1507 C 0.29224 0.11876 0.80799 0.0
C1508 C 0.79162 0.138 0.81672 0.0
C1509 C 0.8131 0.14161 0.8316 0.0
H1510 H 0.7827 0.13431 0.78762 0.0
C1511 C 0.84188 0.14214 0.82812 0.0
H1512 H 0.76935 0.1377 0.81891 0.0
C1513 C 0.84972 0.1406 0.81022 0.0
C1514 C 0.82896 0.13845 0.79533 0.0
H1515 H 0.85876 0.1445 0.83928 0.0
H1516 H 0.87269 0.14237 0.8081 0.0
C1517 C 0.79948 0.13647 0.79879 0.0
C1518 C 0.36304 0.2011 0.5247 0.0
C1519 C 0.34242 0.17089 0.51526 0.0
H1520 H 0.3869 0.2275 0.55044 0.0
C1521 C 0.32992 0.14357 0.52499 0.0
H1522 H 0.37317 0.22254 0.51753 0.0
C1523 C 0.33793 0.14636 0.54375 0.0
C1524 C 0.35864 0.17653 0.55319 0.0
H1525 H 0.31364 0.11999 0.51813 0.0
H1526 H 0.32812 0.12483 0.55083 0.0
C1527 C 0.37115 0.20389 0.54348 0.0
C1528 C 0.852 0.14685 0.52987 0.0
C1529 C 0.86264 0.17172 0.51831 0.0
H1530 H 0.83493 0.13088 0.55565 0.0
C1531 C 0.86565 0.20106 0.52478 0.0
H1532 H 0.84971 0.12405 0.52533 0.0
C1533 C 0.85716 0.20503 0.54227 0.0
C1534 C 0.8459 0.17985 0.55368 0.0
H1535 H 0.87366 0.22058 0.51613 0.0
H1536 H 0.85938 0.22777 0.54688 0.0
C1537 C 0.84376 0.15086 0.54731 0.0
C1538 C 0.84213 0.70758 0.53269 0.0
C1539 C 0.85801 0.6978 0.52059 0.0
H1540 H 0.82138 0.70236 0.55819 0.0
C1541 C 0.86613 0.67499 0.52589 0.0
H1542 H 0.83587 0.72542 0.52924 0.0
C1543 C 0.85811 0.66197 0.5427 0.0
C1544 C 0.84186 0.67149 0.55468 0.0
H1545 H 0.87814 0.66669 0.51689 0.0
H1546 H 0.86487 0.64456 0.54634 0.0
C1547 C 0.83413 0.6946 0.54945 0.0
loop_
_geom_bond_atom_site_label_1
_geom_bond_atom_site_label_2
_geom_bond_distance
_geom_bond_site_symmetry_2
_ccdc_geom_bond_type
C0 C1 1.384 . S
C0 H13 0.947 . S
C0 C35 1.382 . S
C1 C0 1.384 . S
C1 C2 1.378 . S
C2 C1 1.378 . S
C2 C3 1.378 . S
C2 H14 0.952 . S
C3 C2 1.378 . S
C3 H15 0.950 . S
C3 C34 1.383 . S
H4 C23 0.947 . S
H5 C24 0.946 . S
H6 C26 0.953 . S
H7 C27 0.945 . S
H8 C29 0.952 . S
H9 C30 0.949 . S
H10 C32 0.950 . S
H11 C33 0.948 . S
H12 C35 0.951 . S
H13 C0 0.947 . S
H14 C2 0.952 . S
H15 C3 0.950 . S
N16 C19 1.382 . S
N16 C21 1.363 . S
N17 C19 1.371 . S
N17 C20 1.372 . S
N18 C20 1.361 . S
N18 C21 1.377 . S
C19 N16 1.382 . S
C19 N17 1.371 . S
C19 C22 1.480 . S
C20 N17 1.372 . S
C20 N18 1.361 . S
C20 C28 1.457 . S
C21 N16 1.363 . S
C21 N18 1.377 . S
C21 C34 1.479 . S
C22 C19 1.480 . S
C22 C23 1.383 . S
C22 C27 1.385 . S
C23 H4 0.947 . S
C23 C22 1.383 . S
C23 C24 1.388 . S
C24 H5 0.946 . S
C24 C23 1.388 . S
C24 C25 1.384 . S
C25 C24 1.384 . S
C25 C26 1.377 . S
C26 H6 0.953 . S
C26 C25 1.377 . S
C26 C27 1.369 . S
C27 H7 0.945 . S
C27 C22 1.385 . S
C27 C26 1.369 . S
C28 C20 1.457 . S
C28 C29 1.372 . S
C28 C33 1.364 . S
C29 H8 0.952 . S
C29 C28 1.372 . S
C29 C30 1.389 . S
C30 H9 0.949 . S
C30 C29 1.389 . S
C30 C31 1.387 . S
C31 C30 1.387 . S
C31 C32 1.372 . S
C32 H10 0.950 . S
C32 C31 1.372 . S
C32 C33 1.379 . S
C33 H11 0.948 . S
C33 C28 1.364 . S
C33 C32 1.379 . S
C34 C3 1.383 . S
C34 C21 1.479 . S
C34 C35 1.398 . S
C35 C0 1.382 . S
C35 H12 0.951 . S
C35 C34 1.398 . S
C36 C37 1.384 . S
C36 H49 0.947 . S
C36 C71 1.382 . S
C37 C36 1.384 . S
C37 C38 1.378 . S
C38 C37 1.378 . S
C38 C39 1.378 . S
C38 H50 0.952 . S
C39 C38 1.378 . S
C39 H51 0.950 . S
C39 C70 1.383 . S
H40 C59 0.947 . S
H41 C60 0.946 . S
H42 C62 0.953 . S
H43 C63 0.945 . S
H44 C65 0.952 . S
H45 C66 0.949 . S
H46 C68 0.950 . S
H47 C69 0.948 . S
H48 C71 0.951 . S
H49 C36 0.947 . S
H50 C38 0.952 . S
H51 C39 0.950 . S
N52 C55 1.382 . S
N52 C57 1.363 . S
N53 C55 1.371 . S
N53 C56 1.372 . S
N54 C56 1.361 . S
N54 C57 1.377 . S
C55 N52 1.382 . S
C55 N53 1.371 . S
C55 C58 1.480 . S
C56 N53 1.372 . S
C56 N54 1.361 . S
C56 C64 1.457 . S
C57 N52 1.363 . S
C57 N54 1.377 . S
C57 C70 1.479 . S
C58 C55 1.480 . S
C58 C59 1.383 . S
C58 C63 1.385 . S
C59 H40 0.947 . S
C59 C58 1.383 . S
C59 C60 1.388 . S
C60 H41 0.946 . S
C60 C59 1.388 . S
C60 C61 1.384 . S
C61 C60 1.384 . S
C61 C62 1.377 . S
C62 H42 0.953 . S
C62 C61 1.377 . S
C62 C63 1.369 . S
C63 H43 0.945 . S
C63 C58 1.385 . S
C63 C62 1.369 . S
C64 C56 1.457 . S
C64 C65 1.372 . S
C64 C69 1.364 . S
C65 H44 0.952 . S
C65 C64 1.372 . S
C65 C66 1.389 . S
C66 H45 0.949 . S
C66 C65 1.389 . S
C66 C67 1.387 . S
C67 C66 1.387 . S
C67 C68 1.372 . S
C68 H46 0.950 . S
C68 C67 1.372 . S
C68 C69 1.379 . S
C69 H47 0.948 . S
C69 C64 1.364 . S
C69 C68 1.379 . S
C70 C39 1.383 . S
C70 C57 1.479 . S
C70 C71 1.398 . S
C71 C36 1.382 . S
C71 H48 0.951 . S
C71 C70 1.398 . S
C72 C73 1.384 . S
C72 H85 0.947 . S
C72 C107 1.382 . S
C73 C72 1.384 . S
C73 C74 1.378 . S
C74 C73 1.378 . S
C74 C75 1.378 . S
C74 H86 0.952 . S
C75 C74 1.378 . S
C75 H87 0.950 . S
C75 C106 1.383 . S
H76 C95 0.947 . S
H77 C96 0.946 . S
H78 C98 0.953 1_455 S
H79 C99 0.945 . S
H80 C101 0.952 . S
H81 C102 0.949 . S
H82 C104 0.950 . S
H83 C105 0.948 . S
H84 C107 0.951 . S
H85 C72 0.947 . S
H86 C74 0.952 . S
H87 C75 0.950 . S
N88 C91 1.382 . S
N88 C93 1.363 . S
N89 C91 1.371 . S
N89 C92 1.372 . S
N90 C92 1.361 . S
N90 C93 1.377 . S
C91 N88 1.382 . S
C91 N89 1.371 . S
C91 C94 1.480 . S
C92 N89 1.372 . S
C92 N90 1.361 . S
C92 C100 1.457 . S
C93 N88 1.363 . S
C93 N90 1.377 . S
C93 C106 1.479 . S
C94 C91 1.480 . S
C94 C95 1.383 . S
C94 C99 1.385 . S
C95 H76 0.947 . S
C95 C94 1.383 . S
C95 C96 1.388 . S
C96 H77 0.946 . S
C96 C95 1.388 . S
C96 C97 1.384 . S
C97 C96 1.384 . S
C97 C98 1.377 . S
C98 H78 0.953 1_655 S
C98 C97 1.377 . S
C98 C99 1.369 . S
C99 H79 0.945 . S
C99 C94 1.385 . S
C99 C98 1.369 . S
C100 C92 1.457 . S
C100 C101 1.372 . S
C100 C105 1.364 . S
C101 H80 0.952 . S
C101 C100 1.372 . S
C101 C102 1.389 . S
C102 H81 0.949 . S
C102 C101 1.389 . S
C102 C103 1.387 . S
C103 C102 1.387 . S
C103 C104 1.372 . S
C104 H82 0.950 . S
C104 C103 1.372 . S
C104 C105 1.379 . S
C105 H83 0.948 . S
C105 C100 1.364 . S
C105 C104 1.379 . S
C106 C75 1.383 . S
C106 C93 1.479 . S
C106 C107 1.398 . S
C107 C72 1.382 . S
C107 H84 0.951 . S
C107 C106 1.398 . S
C108 C109 1.384 . S
C108 H121 0.947 1_455 S
C108 C143 1.382 . S
C109 C108 1.384 . S
C109 C110 1.378 . S
C110 C109 1.378 . S
C110 C111 1.378 . S
C110 H122 0.952 . S
C111 C110 1.378 . S
C111 H123 0.950 . S
C111 C142 1.383 . S
H112 C131 0.947 . S
H113 C132 0.946 . S
H114 C134 0.953 . S
H115 C135 0.945 . S
H116 C137 0.952 . S
H117 C138 0.949 . S
H118 C140 0.950 . S
H119 C141 0.948 . S
H120 C143 0.951 . S
H121 C108 0.947 1_655 S
H122 C110 0.952 . S
H123 C111 0.950 . S
N124 C127 1.382 . S
N124 C129 1.363 . S
N125 C127 1.371 . S
N125 C128 1.372 . S
N126 C128 1.361 . S
N126 C129 1.377 . S
C127 N124 1.382 . S
C127 N125 1.371 . S
C127 C130 1.480 . S
C128 N125 1.372 . S
C128 N126 1.361 . S
C128 C136 1.457 . S
C129 N124 1.363 . S
C129 N126 1.377 . S
C129 C142 1.479 . S
C130 C127 1.480 . S
C130 C131 1.383 . S
C130 C135 1.385 . S
C131 H112 0.947 . S
C131 C130 1.383 . S
C131 C132 1.388 . S
C132 H113 0.946 . S
C132 C131 1.388 . S
C132 C133 1.384 . S
C133 C132 1.384 . S
C133 C134 1.377 . S
C134 H114 0.953 . S
C134 C133 1.377 . S
C134 C135 1.369 . S
C135 H115 0.945 . S
C135 C130 1.385 . S
C135 C134 1.369 . S
C136 C128 1.457 . S
C136 C137 1.372 . S
C136 C141 1.364 . S
C137 H116 0.952 . S
C137 C136 1.372 . S
C137 C138 1.389 . S
C138 H117 0.949 . S
C138 C137 1.389 . S
C138 C139 1.387 . S
C139 C138 1.387 . S
C139 C140 1.372 . S
C140 H118 0.950 . S
C140 C139 1.372 . S
C140 C141 1.379 . S
C141 H119 0.948 . S
C141 C136 1.364 . S
C141 C140 1.379 . S
C142 C111 1.383 . S
C142 C129 1.479 . S
C142 C143 1.398 . S
C143 C108 1.382 . S
C143 H120 0.951 . S
C143 C142 1.398 . S
C144 C145 1.384 . S
C144 H157 0.947 . S
C144 C179 1.382 . S
C145 C144 1.384 . S
C145 C146 1.378 . S
C146 C145 1.378 . S
C146 C147 1.378 . S
C146 H158 0.952 . S
C147 C146 1.378 . S
C147 H159 0.950 . S
C147 C178 1.383 . S
H148 C167 0.947 . S
H149 C168 0.946 . S
H150 C170 0.953 . S
H151 C171 0.945 . S
H152 C173 0.952 . S
H153 C174 0.949 . S
H154 C176 0.950 . S
H155 C177 0.948 . S
H156 C179 0.951 . S
H157 C144 0.947 . S
H158 C146 0.952 . S
H159 C147 0.950 . S
N160 C163 1.382 . S
N160 C165 1.363 . S
N161 C163 1.371 . S
N161 C164 1.372 . S
N162 C164 1.361 . S
N162 C165 1.377 . S
C163 N160 1.382 . S
C163 N161 1.371 . S
C163 C166 1.480 . S
C164 N161 1.372 . S
C164 N162 1.361 . S
C164 C172 1.457 . S
C165 N160 1.363 . S
C165 N162 1.377 . S
C165 C178 1.479 . S
C166 C163 1.480 . S
C166 C167 1.383 . S
C166 C171 1.385 . S
C167 H148 0.947 . S
C167 C166 1.383 . S
C167 C168 1.388 . S
C168 H149 0.946 . S
C168 C167 1.388 . S
C168 C169 1.384 . S
C169 C168 1.384 . S
C169 C170 1.377 . S
C170 H150 0.953 . S
C170 C169 1.377 . S
C170 C171 1.369 . S
C171 H151 0.945 . S
C171 C166 1.385 . S
C171 C170 1.369 . S
C172 C164 1.457 . S
C172 C173 1.372 . S
C172 C177 1.364 . S
C173 H152 0.952 . S
C173 C172 1.372 . S
C173 C174 1.389 . S
C174 H153 0.949 . S
C174 C173 1.389 . S
C174 C175 1.387 . S
C175 C174 1.387 . S
C175 C176 1.372 . S
C176 H154 0.950 . S
C176 C175 1.372 . S
C176 C177 1.379 . S
C177 H155 0.948 . S
C177 C172 1.364 . S
C177 C176 1.379 . S
C178 C147 1.383 . S
C178 C165 1.479 . S
C178 C179 1.398 . S
C179 C144 1.382 . S
C179 H156 0.951 . S
C179 C178 1.398 . S
C180 C181 1.384 . S
C180 H193 0.947 . S
C180 C215 1.382 . S
C181 C180 1.384 . S
C181 C182 1.378 . S
C182 C181 1.378 . S
C182 C183 1.378 . S
C182 H194 0.952 . S
C183 C182 1.378 . S
C183 H195 0.950 . S
C183 C214 1.383 . S
H184 C203 0.947 . S
H185 C204 0.946 . S
H186 C206 0.953 . S
H187 C207 0.945 . S
H188 C209 0.952 . S
H189 C210 0.949 . S
H190 C212 0.950 . S
H191 C213 0.948 . S
H192 C215 0.951 . S
H193 C180 0.947 . S
H194 C182 0.952 . S
H195 C183 0.950 . S
N196 C199 1.382 . S
N196 C201 1.363 . S
N197 C199 1.371 . S
N197 C200 1.372 . S
N198 C200 1.361 . S
N198 C201 1.377 . S
C199 N196 1.382 . S
C199 N197 1.371 . S
C199 C202 1.480 . S
C200 N197 1.372 . S
C200 N198 1.361 . S
C200 C208 1.457 . S
C201 N196 1.363 . S
C201 N198 1.377 . S
C201 C214 1.479 . S
C202 C199 1.480 . S
C202 C203 1.383 . S
C202 C207 1.385 . S
C203 H184 0.947 . S
C203 C202 1.383 . S
C203 C204 1.388 . S
C204 H185 0.946 . S
C204 C203 1.388 . S
C204 C205 1.384 . S
C205 C204 1.384 . S
C205 C206 1.377 . S
C206 H186 0.953 . S
C206 C205 1.377 . S
C206 C207 1.369 . S
C207 H187 0.945 . S
C207 C202 1.385 . S
C207 C206 1.369 . S
C208 C200 1.457 . S
C208 C209 1.372 . S
C208 C213 1.364 . S
C209 H188 0.952 . S
C209 C208 1.372 . S
C209 C210 1.389 . S
C210 H189 0.949 . S
C210 C209 1.389 . S
C210 C211 1.387 . S
C211 C210 1.387 . S
C211 C212 1.372 . S
C212 H190 0.950 . S
C212 C211 1.372 . S
C212 C213 1.379 . S
C213 H191 0.948 . S
C213 C208 1.364 . S
C213 C212 1.379 . S
C214 C183 1.383 . S
C214 C201 1.479 . S
C214 C215 1.398 . S
C215 C180 1.382 . S
C215 H192 0.951 . S
C215 C214 1.398 . S
C216 C217 1.384 . S
C216 H229 0.947 . S
C216 C251 1.382 . S
C217 C216 1.384 . S
C217 C218 1.378 . S
C218 C217 1.378 . S
C218 C219 1.378 . S
C218 H230 0.952 . S
C219 C218 1.378 . S
C219 H231 0.950 . S
C219 C250 1.383 . S
H220 C239 0.947 . S
H221 C240 0.946 . S
H222 C242 0.953 . S
H223 C243 0.945 . S
H224 C245 0.952 . S
H225 C246 0.949 . S
H226 C248 0.958 . S
H227 C249 0.948 . S
H228 C251 0.951 . S
H229 C216 0.947 . S
H230 C218 0.952 . S
H231 C219 0.950 . S
N232 C235 1.382 . S
N232 C237 1.363 . S
N233 C235 1.371 . S
N233 C236 1.372 . S
N234 C236 1.361 . S
N234 C237 1.377 . S
C235 N232 1.382 . S
C235 N233 1.371 . S
C235 C238 1.480 . S
C236 N233 1.372 . S
C236 N234 1.361 . S
C236 C244 1.457 . S
C237 N232 1.363 . S
C237 N234 1.377 . S
C237 C250 1.479 . S
C238 C235 1.480 . S
C238 C239 1.383 . S
C238 C243 1.385 . S
C239 H220 0.947 . S
C239 C238 1.383 . S
C239 C240 1.388 . S
C240 H221 0.946 . S
C240 C239 1.388 . S
C240 C241 1.384 . S
C241 C240 1.384 . S
C241 C242 1.377 . S
C242 H222 0.953 . S
C242 C241 1.377 . S
C242 C243 1.369 . S
C243 H223 0.945 . S
C243 C238 1.385 . S
C243 C242 1.369 . S
C244 C236 1.457 . S
C244 C245 1.372 . S
C244 C249 1.364 . S
C245 H224 0.952 . S
C245 C244 1.372 . S
C245 C246 1.389 . S
C246 H225 0.949 . S
C246 C245 1.389 . S
C246 C247 1.386 . S
C247 C246 1.386 . S
C247 C248 1.366 1_655 S
C248 H226 0.958 . S
C248 C247 1.366 1_455 S
C248 C249 1.377 1_455 S
C249 H227 0.948 . S
C249 C244 1.364 . S
C249 C248 1.377 1_655 S
C250 C219 1.383 . S
C250 C237 1.479 . S
C250 C251 1.398 . S
C251 C216 1.382 . S
C251 H228 0.951 . S
C251 C250 1.398 . S
C252 C253 1.384 . S
C252 H265 0.947 . S
C252 C287 1.382 . S
C253 C252 1.384 . S
C253 C254 1.378 . S
C254 C253 1.378 . S
C254 C255 1.378 . S
C254 H266 0.952 . S
C255 C254 1.378 . S
C255 H267 0.950 . S
C255 C286 1.383 . S
H256 C275 0.947 . S
H257 C276 0.946 . S
H258 C278 0.953 . S
H259 C279 0.945 . S
H260 C281 0.952 . S
H261 C282 0.949 . S
H262 C284 0.950 . S
H263 C285 0.948 . S
H264 C287 0.951 . S
H265 C252 0.947 . S
H266 C254 0.952 . S
H267 C255 0.950 . S
N268 C271 1.382 . S
N268 C273 1.363 . S
N269 C271 1.371 . S
N269 C272 1.372 . S
N270 C272 1.361 . S
N270 C273 1.377 . S
C271 N268 1.382 . S
C271 N269 1.371 . S
C271 C274 1.480 . S
C272 N269 1.372 . S
C272 N270 1.361 . S
C272 C280 1.457 . S
C273 N268 1.363 . S
C273 N270 1.377 . S
C273 C286 1.479 . S
C274 C271 1.480 . S
C274 C275 1.383 . S
C274 C279 1.385 . S
C275 H256 0.947 . S
C275 C274 1.383 . S
C275 C276 1.388 . S
C276 H257 0.946 . S
C276 C275 1.388 . S
C276 C277 1.384 . S
C277 C276 1.384 . S
C277 C278 1.377 . S
C278 H258 0.953 . S
C278 C277 1.377 . S
C278 C279 1.369 . S
C279 H259 0.945 . S
C279 C274 1.385 . S
C279 C278 1.369 . S
C280 C272 1.457 . S
C280 C281 1.372 . S
C280 C285 1.364 . S
C281 H260 0.952 . S
C281 C280 1.372 . S
C281 C282 1.389 . S
C282 H261 0.949 . S
C282 C281 1.389 . S
C282 C283 1.387 . S
C283 C282 1.387 . S
C283 C284 1.372 . S
C284 H262 0.950 . S
C284 C283 1.372 . S
C284 C285 1.379 . S
C285 H263 0.948 . S
C285 C280 1.364 . S
C285 C284 1.379 . S
C286 C255 1.383 . S
C286 C273 1.479 . S
C286 C287 1.398 . S
C287 C252 1.382 . S
C287 H264 0.951 . S
C287 C286 1.398 . S
C288 C289 1.384 . S
C288 H301 0.947 . S
C288 C323 1.382 . S
C289 C288 1.384 . S
C289 C290 1.378 . S
C290 C289 1.378 . S
C290 C291 1.378 . S
C290 H302 0.952 . S
C291 C290 1.378 . S
C291 H303 0.950 . S
C291 C322 1.383 . S
H292 C311 0.947 . S
H293 C312 0.946 . S
H294 C314 0.953 . S
H295 C315 0.945 . S
H296 C317 0.952 . S
H297 C318 0.949 . S
H298 C320 0.950 . S
H299 C321 0.948 . S
H300 C323 0.951 . S
H301 C288 0.947 . S
H302 C290 0.952 . S
H303 C291 0.950 . S
N304 C307 1.382 . S
N304 C309 1.363 . S
N305 C307 1.371 . S
N305 C308 1.372 . S
N306 C308 1.361 . S
N306 C309 1.377 . S
C307 N304 1.382 . S
C307 N305 1.371 . S
C307 C310 1.480 . S
C308 N305 1.372 . S
C308 N306 1.361 . S
C308 C316 1.457 . S
C309 N304 1.363 . S
C309 N306 1.377 . S
C309 C322 1.479 . S
C310 C307 1.480 . S
C310 C311 1.383 . S
C310 C315 1.385 . S
C311 H292 0.947 . S
C311 C310 1.383 . S
C311 C312 1.388 . S
C312 H293 0.946 . S
C312 C311 1.388 . S
C312 C313 1.384 . S
C313 C312 1.384 . S
C313 C314 1.377 . S
C314 H294 0.953 . S
C314 C313 1.377 . S
C314 C315 1.369 . S
C315 H295 0.945 . S
C315 C310 1.385 . S
C315 C314 1.369 . S
C316 C308 1.457 . S
C316 C317 1.372 . S
C316 C321 1.364 . S
C317 H296 0.952 . S
C317 C316 1.372 . S
C317 C318 1.389 . S
C318 H297 0.949 . S
C318 C317 1.389 . S
C318 C319 1.387 . S
C319 C318 1.387 . S
C319 C320 1.372 . S
C320 H298 0.950 . S
C320 C319 1.372 . S
C320 C321 1.379 . S
C321 H299 0.948 . S
C321 C316 1.364 . S
C321 C320 1.379 . S
C322 C291 1.383 . S
C322 C309 1.479 . S
C322 C323 1.398 . S
C323 C288 1.382 . S
C323 H300 0.951 . S
C323 C322 1.398 . S
C324 C325 1.384 . S
C324 H337 0.947 . S
C324 C359 1.382 . S
C325 C324 1.384 . S
C325 C326 1.378 . S
C326 C325 1.378 . S
C326 C327 1.378 . S
C326 H338 0.952 . S
C327 C326 1.378 . S
C327 H339 0.950 . S
C327 C358 1.383 . S
H328 C347 0.947 . S
H329 C348 0.946 . S
H330 C350 0.953 . S
H331 C351 0.945 . S
H332 C353 0.952 . S
H333 C354 0.949 . S
H334 C356 0.950 . S
H335 C357 0.948 . S
H336 C359 0.951 . S
H337 C324 0.947 . S
H338 C326 0.952 . S
H339 C327 0.950 . S
N340 C343 1.382 . S
N340 C345 1.363 . S
N341 C343 1.371 . S
N341 C344 1.372 . S
N342 C344 1.361 . S
N342 C345 1.377 . S
C343 N340 1.382 . S
C343 N341 1.371 . S
C343 C346 1.480 . S
C344 N341 1.372 . S
C344 N342 1.361 . S
C344 C352 1.457 . S
C345 N340 1.363 . S
C345 N342 1.377 . S
C345 C358 1.479 . S
C346 C343 1.480 . S
C346 C347 1.383 . S
C346 C351 1.385 . S
C347 H328 0.947 . S
C347 C346 1.383 . S
C347 C348 1.388 . S
C348 H329 0.946 . S
C348 C347 1.388 . S
C348 C349 1.384 . S
C349 C348 1.384 . S
C349 C350 1.377 . S
C350 H330 0.953 . S
C350 C349 1.377 . S
C350 C351 1.369 . S
C351 H331 0.945 . S
C351 C346 1.385 . S
C351 C350 1.369 . S
C352 C344 1.457 . S
C352 C353 1.372 . S
C352 C357 1.364 . S
C353 H332 0.952 . S
C353 C352 1.372 . S
C353 C354 1.389 . S
C354 H333 0.949 . S
C354 C353 1.389 . S
C354 C355 1.387 . S
C355 C354 1.387 . S
C355 C356 1.372 . S
C356 H334 0.950 . S
C356 C355 1.372 . S
C356 C357 1.379 . S
C357 H335 0.948 . S
C357 C352 1.364 . S
C357 C356 1.379 . S
C358 C327 1.383 . S
C358 C345 1.479 . S
C358 C359 1.398 . S
C359 C324 1.382 . S
C359 H336 0.951 . S
C359 C358 1.398 . S
C360 C361 1.384 . S
C360 H373 0.947 . S
C360 C395 1.382 . S
C361 C360 1.384 . S
C361 C362 1.378 . S
C362 C361 1.378 . S
C362 C363 1.378 . S
C362 H374 0.901 1_556 S
C363 C362 1.378 . S
C363 H375 0.950 . S
C363 C394 1.383 . S
H364 C383 0.947 . S
H365 C384 0.946 1_554 S
H366 C386 0.953 . S
H367 C387 0.945 . S
H368 C389 0.952 . S
H369 C390 0.949 . S
H370 C392 0.950 . S
H371 C393 0.948 . S
H372 C395 0.951 . S
H373 C360 0.947 . S
H374 C362 0.901 1_554 S
H375 C363 0.950 . S
N376 C379 1.382 . S
N376 C381 1.363 . S
N377 C379 1.371 . S
N377 C380 1.372 . S
N378 C380 1.361 . S
N378 C381 1.377 . S
C379 N376 1.382 . S
C379 N377 1.371 . S
C379 C382 1.480 . S
C380 N377 1.372 . S
C380 N378 1.361 . S
C380 C388 1.457 . S
C381 N376 1.363 . S
C381 N378 1.377 . S
C381 C394 1.479 . S
C382 C379 1.480 . S
C382 C383 1.383 . S
C382 C387 1.385 . S
C383 H364 0.947 . S
C383 C382 1.383 . S
C383 C384 1.388 . S
C384 H365 0.946 1_556 S
C384 C383 1.388 . S
C384 C385 1.384 . S
C385 C384 1.384 . S
C385 C386 1.377 . S
C386 H366 0.953 . S
C386 C385 1.377 . S
C386 C387 1.369 . S
C387 H367 0.945 . S
C387 C382 1.385 . S
C387 C386 1.369 . S
C388 C380 1.457 . S
C388 C389 1.372 . S
C388 C393 1.364 . S
C389 H368 0.952 . S
C389 C388 1.372 . S
C389 C390 1.389 . S
C390 H369 0.949 . S
C390 C389 1.389 . S
C390 C391 1.387 . S
C391 C390 1.387 . S
C391 C392 1.372 . S
C392 H370 0.950 . S
C392 C391 1.372 . S
C392 C393 1.379 . S
C393 H371 0.948 . S
C393 C388 1.364 . S
C393 C392 1.379 . S
C394 C363 1.383 . S
C394 C381 1.479 . S
C394 C395 1.398 . S
C395 C360 1.382 . S
C395 H372 0.951 . S
C395 C394 1.398 . S
C396 C397 1.384 . S
C396 H409 0.947 . S
C396 C431 1.382 . S
C397 C396 1.384 . S
C397 C398 1.378 . S
C398 C397 1.378 . S
C398 C399 1.378 . S
C398 H410 0.952 . S
C399 C398 1.378 . S
C399 H411 0.950 . S
C399 C430 1.383 . S
H400 C419 0.947 . S
H401 C420 0.946 . S
H402 C422 0.953 . S
H403 C423 0.945 . S
H404 C425 0.952 . S
H405 C426 0.949 . S
H406 C428 0.950 . S
H407 C429 0.948 . S
H408 C431 0.951 . S
H409 C396 0.947 . S
H410 C398 0.952 . S
H411 C399 0.950 . S
N412 C415 1.382 . S
N412 C417 1.363 . S
N413 C415 1.371 . S
N413 C416 1.372 . S
N414 C416 1.361 . S
N414 C417 1.377 . S
C415 N412 1.382 . S
C415 N413 1.371 . S
C415 C418 1.480 . S
C416 N413 1.372 . S
C416 N414 1.361 . S
C416 C424 1.457 . S
C417 N412 1.363 . S
C417 N414 1.377 . S
C417 C430 1.479 . S
C418 C415 1.480 . S
C418 C419 1.383 . S
C418 C423 1.385 . S
C419 H400 0.947 . S
C419 C418 1.383 . S
C419 C420 1.388 . S
C420 H401 0.946 . S
C420 C419 1.388 . S
C420 C421 1.384 . S
C421 C420 1.384 . S
C421 C422 1.377 . S
C422 H402 0.953 . S
C422 C421 1.377 . S
C422 C423 1.369 . S
C423 H403 0.945 . S
C423 C418 1.385 . S
C423 C422 1.369 . S
C424 C416 1.457 . S
C424 C425 1.372 . S
C424 C429 1.364 . S
C425 H404 0.952 . S
C425 C424 1.372 . S
C425 C426 1.389 . S
C426 H405 0.949 . S
C426 C425 1.389 . S
C426 C427 1.387 . S
C427 C426 1.387 . S
C427 C428 1.372 . S
C428 H406 0.950 . S
C428 C427 1.372 . S
C428 C429 1.379 . S
C429 H407 0.948 . S
C429 C424 1.364 . S
C429 C428 1.379 . S
C430 C399 1.383 . S
C430 C417 1.479 . S
C430 C431 1.398 . S
C431 C396 1.382 . S
C431 H408 0.951 . S
C431 C430 1.398 . S
C432 C433 1.384 . S
C432 H445 0.947 . S
C432 C467 1.382 . S
C433 C432 1.384 . S
C433 C434 1.378 . S
C434 C433 1.378 . S
C434 C435 1.378 . S
C434 H446 0.952 . S
C435 C434 1.378 . S
C435 H447 0.950 . S
C435 C466 1.383 . S
H436 C455 0.947 . S
H437 C456 0.946 . S
H438 C458 0.953 . S
H439 C459 0.945 . S
H440 C461 0.952 . S
H441 C462 0.949 . S
H442 C464 0.950 . S
H443 C465 0.948 . S
H444 C467 0.951 . S
H445 C432 0.947 . S
H446 C434 0.952 . S
H447 C435 0.950 . S
N448 C451 1.382 . S
N448 C453 1.363 . S
N449 C451 1.371 . S
N449 C452 1.372 . S
N450 C452 1.361 . S
N450 C453 1.377 . S
C451 N448 1.382 . S
C451 N449 1.371 . S
C451 C454 1.480 . S
C452 N449 1.372 . S
C452 N450 1.361 . S
C452 C460 1.457 . S
C453 N448 1.363 . S
C453 N450 1.377 . S
C453 C466 1.479 . S
C454 C451 1.480 . S
C454 C455 1.383 . S
C454 C459 1.385 . S
C455 H436 0.947 . S
C455 C454 1.383 . S
C455 C456 1.388 . S
C456 H437 0.946 . S
C456 C455 1.388 . S
C456 C457 1.384 . S
C457 C456 1.384 . S
C457 C458 1.377 . S
C458 H438 0.953 . S
C458 C457 1.377 . S
C458 C459 1.369 . S
C459 H439 0.945 . S
C459 C454 1.385 . S
C459 C458 1.369 . S
C460 C452 1.457 . S
C460 C461 1.372 . S
C460 C465 1.364 . S
C461 H440 0.952 . S
C461 C460 1.372 . S
C461 C462 1.389 . S
C462 H441 0.949 . S
C462 C461 1.389 . S
C462 C463 1.387 . S
C463 C462 1.387 . S
C463 C464 1.372 . S
C464 H442 0.950 . S
C464 C463 1.372 . S
C464 C465 1.379 . S
C465 H443 0.948 . S
C465 C460 1.364 . S
C465 C464 1.379 . S
C466 C435 1.383 . S
C466 C453 1.479 . S
C466 C467 1.398 . S
C467 C432 1.382 . S
C467 H444 0.951 . S
C467 C466 1.398 . S
C468 C469 1.384 . S
C468 H481 0.947 . S
C468 C503 1.382 . S
C469 C468 1.384 . S
C469 C470 1.378 . S
C470 C469 1.378 . S
C470 C471 1.378 . S
C470 H482 0.952 . S
C471 C470 1.378 . S
C471 H483 0.950 . S
C471 C502 1.383 . S
H472 C491 0.947 . S
H473 C492 0.946 . S
H474 C494 0.953 . S
H475 C495 0.945 . S
H476 C497 0.952 . S
H477 C498 0.949 . S
H478 C500 0.950 . S
H479 C501 0.948 . S
H480 C503 0.951 . S
H481 C468 0.947 . S
H482 C470 0.952 . S
H483 C471 0.950 . S
N484 C487 1.382 . S
N484 C489 1.363 . S
N485 C487 1.371 . S
N485 C488 1.372 . S
N486 C488 1.361 . S
N486 C489 1.377 . S
C487 N484 1.382 . S
C487 N485 1.371 . S
C487 C490 1.480 . S
C488 N485 1.372 . S
C488 N486 1.361 . S
C488 C496 1.457 . S
C489 N484 1.363 . S
C489 N486 1.377 . S
C489 C502 1.479 . S
C490 C487 1.480 . S
C490 C491 1.383 . S
C490 C495 1.385 . S
C491 H472 0.947 . S
C491 C490 1.383 . S
C491 C492 1.388 . S
C492 H473 0.946 . S
C492 C491 1.388 . S
C492 C493 1.384 . S
C493 C492 1.384 . S
C493 C494 1.377 . S
C494 H474 0.953 . S
C494 C493 1.377 . S
C494 C495 1.369 . S
C495 H475 0.945 . S
C495 C490 1.385 . S
C495 C494 1.369 . S
C496 C488 1.457 . S
C496 C497 1.372 . S
C496 C501 1.364 . S
C497 H476 0.952 . S
C497 C496 1.372 . S
C497 C498 1.389 . S
C498 H477 0.949 . S
C498 C497 1.389 . S
C498 C499 1.387 . S
C499 C498 1.387 . S
C499 C500 1.372 . S
C500 H478 0.950 . S
C500 C499 1.372 . S
C500 C501 1.379 . S
C501 H479 0.948 . S
C501 C496 1.364 . S
C501 C500 1.379 . S
C502 C471 1.383 . S
C502 C489 1.479 . S
C502 C503 1.398 . S
C503 C468 1.382 . S
C503 H480 0.951 . S
C503 C502 1.398 . S
C504 C505 1.384 . S
C504 H517 0.947 . S
C504 C539 1.382 . S
C505 C504 1.384 . S
C505 C506 1.378 . S
C506 C505 1.378 . S
C506 C507 1.378 . S
C506 H518 0.952 . S
C507 C506 1.378 . S
C507 H519 0.950 . S
C507 C538 1.383 . S
H508 C527 0.947 . S
H509 C528 0.946 . S
H510 C530 0.953 . S
H511 C531 0.945 . S
H512 C533 0.952 . S
H513 C534 0.949 . S
H514 C536 0.950 . S
H515 C537 0.948 . S
H516 C539 0.951 . S
H517 C504 0.947 . S
H518 C506 0.952 . S
H519 C507 0.950 . S
N520 C523 1.382 . S
N520 C525 1.363 . S
N521 C523 1.371 . S
N521 C524 1.372 . S
N522 C524 1.361 . S
N522 C525 1.377 . S
C523 N520 1.382 . S
C523 N521 1.371 . S
C523 C526 1.480 . S
C524 N521 1.372 . S
C524 N522 1.361 . S
C524 C532 1.457 . S
C525 N520 1.363 . S
C525 N522 1.377 . S
C525 C538 1.479 . S
C526 C523 1.480 . S
C526 C527 1.383 . S
C526 C531 1.385 . S
C527 H508 0.947 . S
C527 C526 1.383 . S
C527 C528 1.388 . S
C528 H509 0.946 . S
C528 C527 1.388 . S
C528 C529 1.384 . S
C529 C528 1.384 . S
C529 C530 1.377 . S
C530 H510 0.953 . S
C530 C529 1.377 . S
C530 C531 1.369 . S
C531 H511 0.945 . S
C531 C526 1.385 . S
C531 C530 1.369 . S
C532 C524 1.457 . S
C532 C533 1.372 . S
C532 C537 1.364 . S
C533 H512 0.952 . S
C533 C532 1.372 . S
C533 C534 1.389 . S
C534 H513 0.949 . S
C534 C533 1.389 . S
C534 C535 1.387 . S
C535 C534 1.387 . S
C535 C536 1.372 . S
C536 H514 0.950 . S
C536 C535 1.372 . S
C536 C537 1.379 . S
C537 H515 0.948 . S
C537 C532 1.364 . S
C537 C536 1.379 . S
C538 C507 1.383 . S
C538 C525 1.479 . S
C538 C539 1.398 . S
C539 C504 1.382 . S
C539 H516 0.951 . S
C539 C538 1.398 . S
C540 C541 1.384 . S
C540 H553 0.947 . S
C540 C575 1.382 . S
C541 C540 1.384 . S
C541 C542 1.378 . S
C542 C541 1.378 . S
C542 C543 1.378 . S
C542 H554 0.952 . S
C543 C542 1.378 . S
C543 H555 0.950 . S
C543 C574 1.383 . S
H544 C563 0.947 . S
H545 C564 0.946 . S
H546 C566 0.953 . S
H547 C567 0.945 . S
H548 C569 0.952 . S
H549 C570 0.949 . S
H550 C572 0.950 . S
H551 C573 0.948 . S
H552 C575 0.951 . S
H553 C540 0.947 . S
H554 C542 0.952 . S
H555 C543 0.950 . S
N556 C559 1.382 . S
N556 C561 1.363 . S
N557 C559 1.371 . S
N557 C560 1.372 . S
N558 C560 1.361 . S
N558 C561 1.377 . S
C559 N556 1.382 . S
C559 N557 1.371 . S
C559 C562 1.480 . S
C560 N557 1.372 . S
C560 N558 1.361 . S
C560 C568 1.457 . S
C561 N556 1.363 . S
C561 N558 1.377 . S
C561 C574 1.479 . S
C562 C559 1.480 . S
C562 C563 1.383 . S
C562 C567 1.385 . S
C563 H544 0.947 . S
C563 C562 1.383 . S
C563 C564 1.388 . S
C564 H545 0.946 . S
C564 C563 1.388 . S
C564 C565 1.384 . S
C565 C564 1.384 . S
C565 C566 1.377 . S
C566 H546 0.953 . S
C566 C565 1.377 . S
C566 C567 1.369 . S
C567 H547 0.945 . S
C567 C562 1.385 . S
C567 C566 1.369 . S
C568 C560 1.457 . S
C568 C569 1.372 . S
C568 C573 1.364 . S
C569 H548 0.952 . S
C569 C568 1.372 . S
C569 C570 1.389 . S
C570 H549 0.949 . S
C570 C569 1.389 . S
C570 C571 1.387 . S
C571 C570 1.387 . S
C571 C572 1.372 . S
C572 H550 0.950 . S
C572 C571 1.372 . S
C572 C573 1.379 . S
C573 H551 0.948 . S
C573 C568 1.364 . S
C573 C572 1.379 . S
C574 C543 1.383 . S
C574 C561 1.479 . S
C574 C575 1.398 . S
C575 C540 1.382 . S
C575 H552 0.951 . S
C575 C574 1.398 . S
C576 C577 1.384 . S
C576 H589 0.947 . S
C576 C611 1.382 . S
C577 C576 1.384 . S
C577 C578 1.378 . S
C578 C577 1.378 . S
C578 C579 1.378 . S
C578 H590 0.952 . S
C579 C578 1.378 . S
C579 H591 0.950 . S
C579 C610 1.383 . S
H580 C599 0.947 . S
H581 C600 0.946 . S
H582 C602 0.953 . S
H583 C603 0.945 . S
H584 C605 0.952 . S
H585 C606 0.949 . S
H586 C608 0.944 . S
H587 C609 0.948 . S
H588 C611 0.951 . S
H589 C576 0.947 . S
H590 C578 0.952 . S
H591 C579 0.950 . S
N592 C595 1.382 . S
N592 C597 1.363 . S
N593 C595 1.371 . S
N593 C596 1.372 . S
N594 C596 1.361 . S
N594 C597 1.377 . S
C595 N592 1.382 . S
C595 N593 1.371 . S
C595 C598 1.480 . S
C596 N593 1.372 . S
C596 N594 1.361 . S
C596 C604 1.457 . S
C597 N592 1.363 . S
C597 N594 1.377 . S
C597 C610 1.479 . S
C598 C595 1.480 . S
C598 C599 1.383 . S
C598 C603 1.385 . S
C599 H580 0.947 . S
C599 C598 1.383 . S
C599 C600 1.388 . S
C600 H581 0.946 . S
C600 C599 1.388 . S
C600 C601 1.384 . S
C601 C600 1.384 . S
C601 C602 1.377 . S
C602 H582 0.953 . S
C602 C601 1.377 . S
C602 C603 1.369 . S
C603 H583 0.945 . S
C603 C598 1.385 . S
C603 C602 1.369 . S
C604 C596 1.457 . S
C604 C605 1.372 . S
C604 C609 1.364 . S
C605 H584 0.952 . S
C605 C604 1.372 . S
C605 C606 1.389 . S
C606 H585 0.949 . S
C606 C605 1.389 . S
C606 C607 1.383 . S
C607 C606 1.383 . S
C607 C608 1.386 1_455 S
C608 H586 0.944 . S
C608 C607 1.386 1_655 S
C608 C609 1.376 1_655 S
C609 H587 0.948 . S
C609 C604 1.364 . S
C609 C608 1.376 1_455 S
C610 C579 1.383 . S
C610 C597 1.479 . S
C610 C611 1.398 . S
C611 C576 1.382 . S
C611 H588 0.951 . S
C611 C610 1.398 . S
C612 C613 1.384 . S
C612 H625 0.947 . S
C612 C647 1.382 . S
C613 C612 1.384 . S
C613 C614 1.378 . S
C614 C613 1.378 . S
C614 C615 1.378 . S
C614 H626 0.952 . S
C615 C614 1.378 . S
C615 H627 0.950 . S
C615 C646 1.383 . S
H616 C635 0.947 . S
H617 C636 0.946 . S
H618 C638 0.953 . S
H619 C639 0.945 . S
H620 C641 0.952 . S
H621 C642 0.949 . S
H622 C644 0.950 . S
H623 C645 0.948 . S
H624 C647 0.951 . S
H625 C612 0.947 . S
H626 C614 0.952 . S
H627 C615 0.950 . S
N628 C631 1.382 . S
N628 C633 1.363 . S
N629 C631 1.371 . S
N629 C632 1.372 . S
N630 C632 1.361 . S
N630 C633 1.377 . S
C631 N628 1.382 . S
C631 N629 1.371 . S
C631 C634 1.480 . S
C632 N629 1.372 . S
C632 N630 1.361 . S
C632 C640 1.457 . S
C633 N628 1.363 . S
C633 N630 1.377 . S
C633 C646 1.479 . S
C634 C631 1.480 . S
C634 C635 1.383 . S
C634 C639 1.385 . S
C635 H616 0.947 . S
C635 C634 1.383 . S
C635 C636 1.388 . S
C636 H617 0.946 . S
C636 C635 1.388 . S
C636 C637 1.384 . S
C637 C636 1.384 . S
C637 C638 1.377 . S
C638 H618 0.953 . S
C638 C637 1.377 . S
C638 C639 1.369 . S
C639 H619 0.945 . S
C639 C634 1.385 . S
C639 C638 1.369 . S
C640 C632 1.457 . S
C640 C641 1.372 . S
C640 C645 1.364 . S
C641 H620 0.952 . S
C641 C640 1.372 . S
C641 C642 1.389 . S
C642 H621 0.949 . S
C642 C641 1.389 . S
C642 C643 1.387 . S
C643 C642 1.387 . S
C643 C644 1.372 . S
C644 H622 0.950 . S
C644 C643 1.372 . S
C644 C645 1.379 . S
C645 H623 0.948 . S
C645 C640 1.364 . S
C645 C644 1.379 . S
C646 C615 1.383 . S
C646 C633 1.479 . S
C646 C647 1.398 . S
C647 C612 1.382 . S
C647 H624 0.951 . S
C647 C646 1.398 . S
Tb648 C658 2.825 . S
Tb648 O659 2.347 1_565 S
Tb648 O662 2.366 1_565 S
Tb648 O667 2.418 . S
Tb648 O668 2.376 1_556 S
Tb648 O671 2.479 . S
Tb648 O672 2.471 1_565 S
Eu649 O660 2.418 . S
Eu649 O661 2.384 . S
Eu649 O664 2.479 . S
Eu649 O665 2.474 . S
Eu649 O666 2.347 1_545 S
Eu649 O669 2.366 1_545 S
Eu649 C679 2.825 . S
C650 O666 1.259 . S
C650 O667 1.265 1_554 S
C651 O668 1.265 . S
C651 O669 1.265 . S
C652 C654 1.380 . S
C652 C655 1.374 1_565 S
C652 C658 1.507 . S
C653 C654 1.384 . S
C653 C657 1.387 1_565 S
C653 H680 0.930 . S
C654 C652 1.380 . S
C654 C653 1.384 . S
C654 H681 0.931 . S
C655 C652 1.374 1_545 S
C655 C656 1.390 . S
C655 H682 0.930 . S
C656 C655 1.390 . S
C656 C657 1.391 . S
C656 H683 0.930 . S
C657 C653 1.387 1_545 S
C657 C656 1.391 . S
C658 Tb648 2.825 . S
C658 C652 1.507 . S
C658 O671 1.238 . S
C658 O672 1.246 1_565 S
O659 Tb648 2.347 1_545 S
O659 C663 1.283 . S
O660 Eu649 2.418 . S
O660 C663 1.203 1_554 S
O661 Eu649 2.384 . S
O661 C670 1.255 1_554 S
O662 Tb648 2.366 1_545 S
O662 C670 1.265 . S
C663 O659 1.283 . S
C663 O660 1.203 1_556 S
O664 Eu649 2.479 . S
O664 C679 1.238 . S
O665 Eu649 2.474 . S
O665 C679 1.251 . S
O666 Eu649 2.347 1_565 S
O666 C650 1.259 . S
O667 Tb648 2.418 . S
O667 C650 1.265 1_556 S
O668 Tb648 2.376 1_554 S
O668 C651 1.265 . S
O669 Eu649 2.366 1_565 S
O669 C651 1.265 . S
C670 O661 1.255 1_556 S
C670 O662 1.265 . S
O671 Tb648 2.479 . S
O671 C658 1.238 . S
O672 Tb648 2.471 1_545 S
O672 C658 1.246 1_545 S
C673 C676 1.380 . S
C673 C677 1.374 1_545 S
C673 C679 1.507 . S
C674 C675 1.387 1_565 S
C674 C678 1.391 . S
C675 C674 1.387 1_545 S
C675 C676 1.384 . S
C675 H684 0.930 . S
C676 C673 1.380 . S
C676 C675 1.384 . S
C676 H685 0.931 . S
C677 C673 1.374 1_565 S
C677 C678 1.390 . S
C677 H686 0.930 . S
C678 C674 1.391 . S
C678 C677 1.390 . S
C678 H687 0.930 . S
C679 Eu649 2.825 . S
C679 O664 1.238 . S
C679 O665 1.251 . S
C679 C673 1.507 . S
H680 C653 0.930 . S
H681 C654 0.931 . S
H682 C655 0.930 . S
H683 C656 0.930 . S
H684 C675 0.930 . S
H685 C676 0.931 . S
H686 C677 0.930 . S
H687 C678 0.930 . S
Tb688 C698 2.825 . S
Tb688 O699 2.347 1_455 S
Tb688 O702 2.366 1_455 S
Tb688 O707 2.418 . S
Tb688 O708 2.384 1_556 S
Tb688 O711 2.479 . S
Tb688 O712 2.471 1_455 S
Eu689 O700 2.418 . S
Eu689 O701 2.385 . S
Eu689 O704 2.479 . S
Eu689 O705 2.471 1_655 S
Eu689 O706 2.347 1_655 S
Eu689 O709 2.366 1_655 S
Eu689 C719 2.825 . S
C690 O706 1.259 . S
C690 O707 1.265 1_554 S
C691 O708 1.255 . S
C691 O709 1.265 . S
C692 C694 1.380 . S
C692 C695 1.374 1_455 S
C692 C698 1.507 . S
C693 C694 1.384 . S
C693 C697 1.387 1_455 S
C693 H720 0.930 . S
C694 C692 1.380 . S
C694 C693 1.384 . S
C694 H721 0.931 . S
C695 C692 1.374 1_655 S
C695 C696 1.390 . S
C695 H722 0.930 . S
C696 C695 1.390 . S
C696 C697 1.391 . S
C696 H723 0.930 . S
C697 C693 1.387 1_655 S
C697 C696 1.391 . S
C698 Tb688 2.825 . S
C698 C692 1.507 . S
C698 O711 1.238 . S
C698 O712 1.247 1_455 S
O699 Tb688 2.347 1_655 S
O699 C703 1.259 . S
O700 Eu689 2.418 . S
O700 C703 1.265 1_554 S
O701 Eu689 2.385 . S
O701 C710 1.253 1_554 S
O702 Tb688 2.366 1_655 S
O702 C710 1.265 . S
C703 O699 1.259 . S
C703 O700 1.265 1_556 S
O704 Eu689 2.479 . S
O704 C719 1.238 . S
O705 Eu689 2.471 1_455 S
O705 C719 1.247 1_455 S
O706 Eu689 2.347 1_455 S
O706 C690 1.259 . S
O707 Tb688 2.418 . S
O707 C690 1.265 1_556 S
O708 Tb688 2.384 1_554 S
O708 C691 1.255 . S
O709 Eu689 2.366 1_455 S
O709 C691 1.265 . S
C710 O701 1.253 1_556 S
C710 O702 1.265 . S
O711 Tb688 2.479 . S
O711 C698 1.238 . S
O712 Tb688 2.471 1_655 S
O712 C698 1.247 1_655 S
C713 C716 1.380 . S
C713 C717 1.374 1_655 S
C713 C719 1.507 . S
C714 C715 1.387 1_455 S
C714 C718 1.391 . S
C715 C714 1.387 1_655 S
C715 C716 1.384 . S
C715 H724 0.930 . S
C716 C713 1.380 . S
C716 C715 1.384 . S
C716 H725 0.931 . S
C717 C713 1.374 1_455 S
C717 C718 1.390 . S
C717 H726 0.930 . S
C718 C714 1.391 . S
C718 C717 1.390 . S
C718 H727 0.930 . S
C719 Eu689 2.825 . S
C719 O704 1.238 . S
C719 O705 1.247 1_655 S
C719 C713 1.507 . S
H720 C693 0.930 . S
H721 C694 0.931 . S
H722 C695 0.930 . S
H723 C696 0.930 . S
H724 C715 0.930 . S
H725 C716 0.931 . S
H726 C717 0.930 . S
H727 C718 0.930 . S
Tb728 C738 2.825 . S
Tb728 O739 2.347 . S
Tb728 O742 2.366 . S
Tb728 O747 2.418 . S
Tb728 O748 2.384 . S
Tb728 O751 2.479 . S
Tb728 O752 2.471 . S
Eu729 O740 2.418 . S
Eu729 O741 2.384 1_556 S
Eu729 O744 2.479 . S
Eu729 O745 2.471 . S
Eu729 O746 2.347 . S
Eu729 O749 2.366 . S
Eu729 C759 2.825 . S
C730 O746 1.259 . S
C730 O747 1.265 1_556 S
C731 O748 1.255 1_556 S
C731 O749 1.265 . S
C732 C734 1.380 . S
C732 C735 1.374 . S
C732 C738 1.507 . S
C733 C734 1.384 . S
C733 C737 1.387 . S
C733 H760 0.930 . S
C734 C732 1.380 . S
C734 C733 1.384 . S
C734 H761 0.931 . S
C735 C732 1.374 . S
C735 C736 1.390 . S
C735 H762 0.930 . S
C736 C735 1.390 . S
C736 C737 1.391 . S
C736 H763 0.930 . S
C737 C733 1.387 . S
C737 C736 1.391 . S
C738 Tb728 2.825 . S
C738 C732 1.507 . S
C738 O751 1.238 . S
C738 O752 1.247 . S
O739 Tb728 2.347 . S
O739 C743 1.259 . S
O740 Eu729 2.418 . S
O740 C743 1.265 1_556 S
O741 Eu729 2.384 1_554 S
O741 C750 1.255 . S
O742 Tb728 2.366 . S
O742 C750 1.265 . S
C743 O739 1.259 . S
C743 O740 1.265 1_554 S
O744 Eu729 2.479 . S
O744 C759 1.238 . S
O745 Eu729 2.471 . S
O745 C759 1.247 . S
O746 Eu729 2.347 . S
O746 C730 1.259 . S
O747 Tb728 2.418 . S
O747 C730 1.265 1_554 S
O748 Tb728 2.384 . S
O748 C731 1.255 1_554 S
O749 Eu729 2.366 . S
O749 C731 1.265 . S
C750 O741 1.255 . S
C750 O742 1.265 . S
O751 Tb728 2.479 . S
O751 C738 1.238 . S
O752 Tb728 2.471 . S
O752 C738 1.247 . S
C753 C756 1.380 . S
C753 C757 1.374 . S
C753 C759 1.507 . S
C754 C755 1.387 . S
C754 C758 1.391 . S
C755 C754 1.387 . S
C755 C756 1.384 . S
C755 H764 0.930 . S
C756 C753 1.380 . S
C756 C755 1.384 . S
C756 H765 0.931 . S
C757 C753 1.374 . S
C757 C758 1.390 . S
C757 H766 0.930 . S
C758 C754 1.391 . S
C758 C757 1.390 . S
C758 H767 0.930 . S
C759 Eu729 2.825 . S
C759 O744 1.238 . S
C759 O745 1.247 . S
C759 C753 1.507 . S
H760 C733 0.930 . S
H761 C734 0.931 . S
H762 C735 0.930 . S
H763 C736 0.930 . S
H764 C755 0.930 . S
H765 C756 0.931 . S
H766 C757 0.930 . S
H767 C758 0.930 . S
Tb768 C778 2.825 . S
Tb768 O779 2.347 . S
Tb768 O782 2.366 . S
Tb768 O787 2.418 . S
Tb768 O788 2.384 . S
Tb768 O791 2.479 . S
Tb768 O792 2.471 . S
Eu769 O780 2.418 . S
Eu769 O781 2.384 . S
Eu769 O784 2.479 . S
Eu769 O785 2.471 . S
Eu769 O786 2.347 . S
Eu769 O789 2.366 . S
Eu769 C799 2.825 . S
C770 O786 1.259 . S
C770 O787 1.265 . S
C771 O788 1.255 . S
C771 O789 1.265 . S
C772 C774 1.380 . S
C772 C775 1.374 . S
C772 C778 1.507 . S
C773 C774 1.384 . S
C773 C777 1.387 . S
C773 H800 0.930 . S
C774 C772 1.380 . S
C774 C773 1.384 . S
C774 H801 0.931 . S
C775 C772 1.374 . S
C775 C776 1.390 . S
C775 H802 0.930 . S
C776 C775 1.390 . S
C776 C777 1.391 . S
C776 H803 0.930 . S
C777 C773 1.387 . S
C777 C776 1.391 . S
C778 Tb768 2.825 . S
C778 C772 1.507 . S
C778 O791 1.238 . S
C778 O792 1.247 . S
O779 Tb768 2.347 . S
O779 C783 1.259 . S
O780 Eu769 2.418 . S
O780 C783 1.265 . S
O781 Eu769 2.384 . S
O781 C790 1.255 . S
O782 Tb768 2.366 . S
O782 C790 1.265 . S
C783 O779 1.259 . S
C783 O780 1.265 . S
O784 Eu769 2.479 . S
O784 C799 1.238 . S
O785 Eu769 2.471 . S
O785 C799 1.247 . S
O786 Eu769 2.347 . S
O786 C770 1.259 . S
O787 Tb768 2.418 . S
O787 C770 1.265 . S
O788 Tb768 2.384 . S
O788 C771 1.255 . S
O789 Eu769 2.366 . S
O789 C771 1.265 . S
C790 O781 1.255 . S
C790 O782 1.265 . S
O791 Tb768 2.479 . S
O791 C778 1.238 . S
O792 Tb768 2.471 . S
O792 C778 1.247 . S
C793 C796 1.380 . S
C793 C797 1.374 . S
C793 C799 1.507 . S
C794 C795 1.387 . S
C794 C798 1.391 . S
C795 C794 1.387 . S
C795 C796 1.384 . S
C795 H804 0.930 . S
C796 C793 1.380 . S
C796 C795 1.384 . S
C796 H805 0.931 . S
C797 C793 1.374 . S
C797 C798 1.390 . S
C797 H806 0.930 . S
C798 C794 1.391 . S
C798 C797 1.390 . S
C798 H807 0.930 . S
C799 Eu769 2.825 . S
C799 O784 1.238 . S
C799 O785 1.247 . S
C799 C793 1.507 . S
H800 C773 0.930 . S
H801 C774 0.931 . S
H802 C775 0.930 . S
H803 C776 0.930 . S
H804 C795 0.930 . S
H805 C796 0.931 . S
H806 C797 0.930 . S
H807 C798 0.930 . S
Tb808 C818 2.825 . S
Tb808 O819 2.347 . S
Tb808 O822 2.366 . S
Tb808 O827 2.418 . S
Tb808 O828 2.384 . S
Tb808 O831 2.479 . S
Tb808 O832 2.471 . S
Eu809 O820 2.418 . S
Eu809 O821 2.384 . S
Eu809 O824 2.479 . S
Eu809 O825 2.471 . S
Eu809 O826 2.347 . S
Eu809 O829 2.366 . S
Eu809 C839 2.825 . S
C810 O826 1.259 . S
C810 O827 1.265 . S
C811 O828 1.255 . S
C811 O829 1.265 . S
C812 C814 1.380 . S
C812 C815 1.374 . S
C812 C818 1.507 . S
C813 C814 1.384 . S
C813 C817 1.387 . S
C813 H840 0.930 . S
C814 C812 1.380 . S
C814 C813 1.384 . S
C814 H841 0.931 . S
C815 C812 1.374 . S
C815 C816 1.390 . S
C815 H842 0.930 . S
C816 C815 1.390 . S
C816 C817 1.391 . S
C816 H843 0.930 . S
C817 C813 1.387 . S
C817 C816 1.391 . S
C818 Tb808 2.825 . S
C818 C812 1.507 . S
C818 O831 1.238 . S
C818 O832 1.247 . S
O819 Tb808 2.347 . S
O819 C823 1.259 . S
O820 Eu809 2.418 . S
O820 C823 1.265 . S
O821 Eu809 2.384 . S
O821 C830 1.255 . S
O822 Tb808 2.366 . S
O822 C830 1.265 . S
C823 O819 1.259 . S
C823 O820 1.265 . S
O824 Eu809 2.479 . S
O824 C839 1.238 . S
O825 Eu809 2.471 . S
O825 C839 1.247 . S
O826 Eu809 2.347 . S
O826 C810 1.259 . S
O827 Tb808 2.418 . S
O827 C810 1.265 . S
O828 Tb808 2.384 . S
O828 C811 1.255 . S
O829 Eu809 2.366 . S
O829 C811 1.265 . S
C830 O821 1.255 . S
C830 O822 1.265 . S
O831 Tb808 2.479 . S
O831 C818 1.238 . S
O832 Tb808 2.471 . S
O832 C818 1.247 . S
C833 C836 1.380 . S
C833 C837 1.374 . S
C833 C839 1.507 . S
C834 C835 1.387 . S
C834 C838 1.391 . S
C835 C834 1.387 . S
C835 C836 1.384 . S
C835 H844 0.930 . S
C836 C833 1.380 . S
C836 C835 1.384 . S
C836 H845 0.931 . S
C837 C833 1.374 . S
C837 C838 1.390 . S
C837 H846 0.930 . S
C838 C834 1.391 . S
C838 C837 1.390 . S
C838 H847 0.930 . S
C839 Eu809 2.825 . S
C839 O824 1.238 . S
C839 O825 1.247 . S
C839 C833 1.507 . S
H840 C813 0.930 . S
H841 C814 0.931 . S
H842 C815 0.930 . S
H843 C816 0.930 . S
H844 C835 0.930 . S
H845 C836 0.931 . S
H846 C837 0.930 . S
H847 C838 0.930 . S
Tb848 C858 2.825 . S
Tb848 O859 2.347 . S
Tb848 O862 2.366 . S
Tb848 O867 2.418 . S
Tb848 O868 2.384 . S
Tb848 O871 2.479 . S
Tb848 O872 2.471 . S
Eu849 O860 2.418 . S
Eu849 O861 2.384 . S
Eu849 O864 2.479 . S
Eu849 O865 2.471 . S
Eu849 O866 2.347 . S
Eu849 O869 2.366 . S
Eu849 C879 2.825 . S
C850 O866 1.259 . S
C850 O867 1.265 . S
C851 O868 1.255 . S
C851 O869 1.265 . S
C852 C854 1.380 . S
C852 C855 1.374 . S
C852 C858 1.507 . S
C853 C854 1.384 . S
C853 C857 1.387 . S
C853 H880 0.930 . S
C854 C852 1.380 . S
C854 C853 1.384 . S
C854 H881 0.931 . S
C855 C852 1.374 . S
C855 C856 1.390 . S
C855 H882 0.930 . S
C856 C855 1.390 . S
C856 C857 1.391 . S
C856 H883 0.930 . S
C857 C853 1.387 . S
C857 C856 1.391 . S
C858 Tb848 2.825 . S
C858 C852 1.507 . S
C858 O871 1.238 . S
C858 O872 1.247 . S
O859 Tb848 2.347 . S
O859 C863 1.259 . S
O860 Eu849 2.418 . S
O860 C863 1.265 . S
O861 Eu849 2.384 . S
O861 C870 1.255 . S
O862 Tb848 2.366 . S
O862 C870 1.265 . S
C863 O859 1.259 . S
C863 O860 1.265 . S
O864 Eu849 2.479 . S
O864 C879 1.238 . S
O865 Eu849 2.471 . S
O865 C879 1.247 . S
O866 Eu849 2.347 . S
O866 C850 1.259 . S
O867 Tb848 2.418 . S
O867 C850 1.265 . S
O868 Tb848 2.384 . S
O868 C851 1.255 . S
O869 Eu849 2.366 . S
O869 C851 1.265 . S
C870 O861 1.255 . S
C870 O862 1.265 . S
O871 Tb848 2.479 . S
O871 C858 1.238 . S
O872 Tb848 2.471 . S
O872 C858 1.247 . S
C873 C876 1.380 . S
C873 C877 1.374 . S
C873 C879 1.507 . S
C874 C875 1.387 . S
C874 C878 1.391 . S
C875 C874 1.387 . S
C875 C876 1.384 . S
C875 H884 0.930 . S
C876 C873 1.380 . S
C876 C875 1.384 . S
C876 H885 0.931 . S
C877 C873 1.374 . S
C877 C878 1.390 . S
C877 H886 0.930 . S
C878 C874 1.391 . S
C878 C877 1.390 . S
C878 H887 0.930 . S
C879 Eu849 2.825 . S
C879 O864 1.238 . S
C879 O865 1.247 . S
C879 C873 1.507 . S
H880 C853 0.930 . S
H881 C854 0.931 . S
H882 C855 0.930 . S
H883 C856 0.930 . S
H884 C875 0.930 . S
H885 C876 0.931 . S
H886 C877 0.930 . S
H887 C878 0.930 . S
Tb888 C898 2.825 . S
Tb888 O899 2.347 . S
Tb888 O902 2.366 . S
Tb888 O907 2.418 . S
Tb888 O908 2.384 . S
Tb888 O911 2.479 . S
Tb888 O912 2.471 . S
Eu889 O900 2.418 . S
Eu889 O901 2.384 . S
Eu889 O904 2.479 . S
Eu889 O905 2.471 . S
Eu889 O906 2.347 . S
Eu889 O909 2.366 . S
Eu889 C919 2.825 . S
C890 O906 1.259 . S
C890 O907 1.265 . S
C891 O908 1.255 . S
C891 O909 1.265 . S
C892 C894 1.380 . S
C892 C895 1.374 . S
C892 C898 1.507 . S
C893 C894 1.384 . S
C893 C897 1.387 . S
C893 H920 0.930 . S
C894 C892 1.380 . S
C894 C893 1.384 . S
C894 H921 0.931 . S
C895 C892 1.374 . S
C895 C896 1.390 . S
C895 H922 0.930 . S
C896 C895 1.390 . S
C896 C897 1.391 . S
C896 H923 0.930 . S
C897 C893 1.387 . S
C897 C896 1.391 . S
C898 Tb888 2.825 . S
C898 C892 1.507 . S
C898 O911 1.238 . S
C898 O912 1.247 . S
O899 Tb888 2.347 . S
O899 C903 1.259 . S
O900 Eu889 2.418 . S
O900 C903 1.265 . S
O901 Eu889 2.384 . S
O901 C910 1.255 . S
O902 Tb888 2.366 . S
O902 C910 1.265 . S
C903 O899 1.259 . S
C903 O900 1.265 . S
O904 Eu889 2.479 . S
O904 C919 1.238 . S
O905 Eu889 2.471 . S
O905 C919 1.247 . S
O906 Eu889 2.347 . S
O906 C890 1.259 . S
O907 Tb888 2.418 . S
O907 C890 1.265 . S
O908 Tb888 2.384 . S
O908 C891 1.255 . S
O909 Eu889 2.366 . S
O909 C891 1.265 . S
C910 O901 1.255 . S
C910 O902 1.265 . S
O911 Tb888 2.479 . S
O911 C898 1.238 . S
O912 Tb888 2.471 . S
O912 C898 1.247 . S
C913 C916 1.380 . S
C913 C917 1.374 . S
C913 C919 1.507 . S
C914 C915 1.387 . S
C914 C918 1.391 . S
C915 C914 1.387 . S
C915 C916 1.384 . S
C915 H924 0.930 . S
C916 C913 1.380 . S
C916 C915 1.384 . S
C916 H925 0.931 . S
C917 C913 1.374 . S
C917 C918 1.390 . S
C917 H926 0.930 . S
C918 C914 1.391 . S
C918 C917 1.390 . S
C918 H927 0.930 . S
C919 Eu889 2.825 . S
C919 O904 1.238 . S
C919 O905 1.247 . S
C919 C913 1.507 . S
H920 C893 0.930 . S
H921 C894 0.931 . S
H922 C895 0.930 . S
H923 C896 0.930 . S
H924 C915 0.930 . S
H925 C916 0.931 . S
H926 C917 0.930 . S
H927 C918 0.930 . S
Tb928 C938 2.825 . S
Tb928 O939 2.347 . S
Tb928 O942 2.366 . S
Tb928 O947 2.418 . S
Tb928 O948 2.384 . S
Tb928 O951 2.479 . S
Tb928 O952 2.471 . S
Eu929 O940 2.418 . S
Eu929 O941 2.384 . S
Eu929 O944 2.479 . S
Eu929 O945 2.471 . S
Eu929 O946 2.347 . S
Eu929 O949 2.366 . S
Eu929 C959 2.825 . S
C930 O946 1.259 . S
C930 O947 1.265 . S
C931 O948 1.255 . S
C931 O949 1.265 . S
C932 C934 1.380 . S
C932 C935 1.374 . S
C932 C938 1.507 . S
C933 C934 1.384 . S
C933 C937 1.387 . S
C933 H960 0.930 . S
C934 C932 1.380 . S
C934 C933 1.384 . S
C934 H961 0.931 . S
C935 C932 1.374 . S
C935 C936 1.390 . S
C935 H962 0.930 . S
C936 C935 1.390 . S
C936 C937 1.391 . S
C936 H963 0.930 . S
C937 C933 1.387 . S
C937 C936 1.391 . S
C938 Tb928 2.825 . S
C938 C932 1.507 . S
C938 O951 1.238 . S
C938 O952 1.247 . S
O939 Tb928 2.347 . S
O939 C943 1.259 . S
O940 Eu929 2.418 . S
O940 C943 1.265 . S
O941 Eu929 2.384 . S
O941 C950 1.255 . S
O942 Tb928 2.366 . S
O942 C950 1.265 . S
C943 O939 1.259 . S
C943 O940 1.265 . S
O944 Eu929 2.479 . S
O944 C959 1.238 . S
O945 Eu929 2.471 . S
O945 C959 1.247 . S
O946 Eu929 2.347 . S
O946 C930 1.259 . S
O947 Tb928 2.418 . S
O947 C930 1.265 . S
O948 Tb928 2.384 . S
O948 C931 1.255 . S
O949 Eu929 2.366 . S
O949 C931 1.265 . S
C950 O941 1.255 . S
C950 O942 1.265 . S
O951 Tb928 2.479 . S
O951 C938 1.238 . S
O952 Tb928 2.471 . S
O952 C938 1.247 . S
C953 C956 1.380 . S
C953 C957 1.374 . S
C953 C959 1.507 . S
C954 C955 1.387 . S
C954 C958 1.391 . S
C955 C954 1.387 . S
C955 C956 1.384 . S
C955 H964 0.930 . S
C956 C953 1.380 . S
C956 C955 1.384 . S
C956 H965 0.931 . S
C957 C953 1.374 . S
C957 C958 1.390 . S
C957 H966 0.930 . S
C958 C954 1.391 . S
C958 C957 1.390 . S
C958 H967 0.930 . S
C959 Eu929 2.825 . S
C959 O944 1.238 . S
C959 O945 1.247 . S
C959 C953 1.507 . S
H960 C933 0.930 . S
H961 C934 0.931 . S
H962 C935 0.930 . S
H963 C936 0.930 . S
H964 C955 0.930 . S
H965 C956 0.931 . S
H966 C957 0.930 . S
H967 C958 0.930 . S
Tb968 C978 2.825 . S
Tb968 O979 2.347 . S
Tb968 O982 2.366 . S
Tb968 O987 2.418 . S
Tb968 O988 2.384 . S
Tb968 O991 2.479 . S
Tb968 O992 2.471 . S
Eu969 O980 2.418 . S
Eu969 O981 2.384 . S
Eu969 O984 2.479 . S
Eu969 O985 2.471 . S
Eu969 O986 2.347 . S
Eu969 O989 2.366 . S
Eu969 C999 2.825 . S
C970 O986 1.259 . S
C970 O987 1.265 . S
C971 O988 1.255 . S
C971 O989 1.265 . S
C972 C974 1.380 . S
C972 C975 1.374 . S
C972 C978 1.507 . S
C973 C974 1.384 . S
C973 C977 1.387 . S
C973 H1000 0.930 . S
C974 C972 1.380 . S
C974 C973 1.384 . S
C974 H1001 0.931 . S
C975 C972 1.374 . S
C975 C976 1.390 . S
C975 H1002 0.930 . S
C976 C975 1.390 . S
C976 C977 1.391 . S
C976 H1003 0.930 . S
C977 C973 1.387 . S
C977 C976 1.391 . S
C978 Tb968 2.825 . S
C978 C972 1.507 . S
C978 O991 1.238 . S
C978 O992 1.247 . S
O979 Tb968 2.347 . S
O979 C983 1.259 . S
O980 Eu969 2.418 . S
O980 C983 1.265 . S
O981 Eu969 2.384 . S
O981 C990 1.255 . S
O982 Tb968 2.366 . S
O982 C990 1.265 . S
C983 O979 1.259 . S
C983 O980 1.265 . S
O984 Eu969 2.479 . S
O984 C999 1.238 . S
O985 Eu969 2.471 . S
O985 C999 1.247 . S
O986 Eu969 2.347 . S
O986 C970 1.259 . S
O987 Tb968 2.418 . S
O987 C970 1.265 . S
O988 Tb968 2.384 . S
O988 C971 1.255 . S
O989 Eu969 2.366 . S
O989 C971 1.265 . S
C990 O981 1.255 . S
C990 O982 1.265 . S
O991 Tb968 2.479 . S
O991 C978 1.238 . S
O992 Tb968 2.471 . S
O992 C978 1.247 . S
C993 C996 1.380 . S
C993 C997 1.374 . S
C993 C999 1.507 . S
C994 C995 1.387 . S
C994 C998 1.391 . S
C995 C994 1.387 . S
C995 C996 1.384 . S
C995 H1004 0.930 . S
C996 C993 1.380 . S
C996 C995 1.384 . S
C996 H1005 0.931 . S
C997 C993 1.374 . S
C997 C998 1.390 . S
C997 H1006 0.930 . S
C998 C994 1.391 . S
C998 C997 1.390 . S
C998 H1007 0.930 . S
C999 Eu969 2.825 . S
C999 O984 1.238 . S
C999 O985 1.247 . S
C999 C993 1.507 . S
H1000 C973 0.930 . S
H1001 C974 0.931 . S
H1002 C975 0.930 . S
H1003 C976 0.930 . S
H1004 C995 0.930 . S
H1005 C996 0.931 . S
H1006 C997 0.930 . S
H1007 C998 0.930 . S
C1008 C1009 1.387 . S
C1008 H1012 0.950 . S
C1008 C1017 1.390 . S
C1009 C1008 1.387 . S
C1009 C1011 1.387 . S
H1010 C1017 0.950 . S
C1011 C1009 1.387 . S
C1011 C1013 1.390 . S
C1011 H1015 0.950 . S
H1012 C1008 0.950 . S
C1013 C1011 1.390 . S
C1013 C1014 1.387 . S
C1013 H1016 0.950 . S
C1014 C1013 1.387 . S
C1014 C1017 1.387 . S
H1015 C1011 0.950 . S
H1016 C1013 0.950 . S
C1017 C1008 1.390 . S
C1017 H1010 0.950 . S
C1017 C1014 1.387 . S
C1018 C1019 1.387 . S
C1018 H1022 0.950 . S
C1018 C1027 1.390 . S
C1019 C1018 1.387 . S
C1019 C1021 1.387 . S
H1020 C1027 0.950 . S
C1021 C1019 1.387 . S
C1021 C1023 1.390 . S
C1021 H1025 0.950 . S
H1022 C1018 0.950 . S
C1023 C1021 1.390 . S
C1023 C1024 1.387 . S
C1023 H1026 0.950 . S
C1024 C1023 1.387 . S
C1024 C1027 1.387 . S
H1025 C1021 0.950 . S
H1026 C1023 0.950 . S
C1027 C1018 1.390 . S
C1027 H1020 0.950 . S
C1027 C1024 1.387 . S
C1028 C1029 1.387 . S
C1028 H1032 0.950 . S
C1028 C1037 1.390 . S
C1029 C1028 1.387 . S
C1029 C1031 1.439 . S
H1030 C1037 0.950 . S
C1031 C1029 1.439 . S
C1031 C1033 1.396 1_554 S
C1031 H1035 0.895 1_554 S
H1032 C1028 0.950 . S
C1033 C1031 1.396 1_556 S
C1033 C1034 1.383 1_556 S
C1033 H1036 0.954 . S
C1034 C1033 1.383 1_554 S
C1034 C1037 1.387 . S
H1035 C1031 0.895 1_556 S
H1036 C1033 0.954 . S
C1037 C1028 1.390 . S
C1037 H1030 0.950 . S
C1037 C1034 1.387 . S
C1038 C1039 1.387 . S
C1038 H1042 0.950 . S
C1038 C1047 1.390 . S
C1039 C1038 1.387 . S
C1039 C1041 1.387 . S
H1040 C1047 0.950 . S
C1041 C1039 1.387 . S
C1041 C1043 1.389 1_556 S
C1041 H1045 0.950 1_556 S
H1042 C1038 0.950 . S
C1043 C1041 1.389 1_554 S
C1043 C1044 1.340 1_554 S
C1043 H1046 1.000 . S
C1044 C1043 1.340 1_556 S
C1044 C1047 1.387 . S
H1045 C1041 0.950 1_554 S
H1046 C1043 1.000 . S
C1047 C1038 1.390 . S
C1047 H1040 0.950 . S
C1047 C1044 1.387 . S
C1048 C1049 1.387 . S
C1048 H1052 0.950 . S
C1048 C1057 1.390 . S
C1049 C1048 1.387 . S
C1049 C1051 1.387 . S
H1050 C1057 0.950 . S
C1051 C1049 1.387 . S
C1051 C1053 1.390 . S
C1051 H1055 0.950 . S
H1052 C1048 0.950 . S
C1053 C1051 1.390 . S
C1053 C1054 1.387 . S
C1053 H1056 0.950 . S
C1054 C1053 1.387 . S
C1054 C1057 1.387 . S
H1055 C1051 0.950 . S
H1056 C1053 0.950 . S
C1057 C1048 1.390 . S
C1057 H1050 0.950 . S
C1057 C1054 1.387 . S
C1058 C1059 1.387 . S
C1058 H1062 0.950 . S
C1058 C1067 1.390 . S
C1059 C1058 1.387 . S
C1059 C1061 1.387 . S
H1060 C1067 0.950 . S
C1061 C1059 1.387 . S
C1061 C1063 1.390 . S
C1061 H1065 0.950 . S
H1062 C1058 0.950 . S
C1063 C1061 1.390 . S
C1063 C1064 1.387 . S
C1063 H1066 0.939 1_556 S
C1064 C1063 1.387 . S
C1064 C1067 1.387 . S
H1065 C1061 0.950 . S
H1066 C1063 0.939 1_554 S
C1067 C1058 1.390 . S
C1067 H1060 0.950 . S
C1067 C1064 1.387 . S
C1068 C1069 1.387 . S
C1068 H1072 0.950 . S
C1068 C1077 1.390 . S
C1069 C1068 1.387 . S
C1069 C1071 1.387 . S
H1070 C1077 0.950 . S
C1071 C1069 1.387 . S
C1071 C1073 1.390 . S
C1071 H1075 0.950 . S
H1072 C1068 0.950 . S
C1073 C1071 1.390 . S
C1073 C1074 1.387 . S
C1073 H1076 0.950 . S
C1074 C1073 1.387 . S
C1074 C1077 1.387 . S
H1075 C1071 0.950 . S
H1076 C1073 0.950 . S
C1077 C1068 1.390 . S
C1077 H1070 0.950 . S
C1077 C1074 1.387 . S
C1078 C1079 1.387 . S
C1078 H1082 0.950 . S
C1078 C1087 1.390 . S
C1079 C1078 1.387 . S
C1079 C1081 1.387 . S
H1080 C1087 0.950 1_554 S
C1081 C1079 1.387 . S
C1081 C1083 1.390 . S
C1081 H1085 0.950 . S
H1082 C1078 0.950 . S
C1083 C1081 1.390 . S
C1083 C1084 1.387 . S
C1083 H1086 0.950 . S
C1084 C1083 1.387 . S
C1084 C1087 1.387 . S
H1085 C1081 0.950 . S
H1086 C1083 0.950 . S
C1087 C1078 1.390 . S
C1087 H1080 0.950 1_556 S
C1087 C1084 1.387 . S
C1088 C1089 1.387 1_554 S
C1088 H1092 0.950 . S
C1088 C1097 1.390 . S
C1089 C1088 1.387 1_556 S
C1089 C1091 1.387 . S
H1090 C1097 0.950 . S
C1091 C1089 1.387 . S
C1091 C1093 1.390 . S
C1091 H1095 0.950 . S
H1092 C1088 0.950 . S
C1093 C1091 1.390 . S
C1093 C1094 1.387 . S
C1093 H1096 0.950 . S
C1094 C1093 1.387 . S
C1094 C1097 1.387 1_556 S
H1095 C1091 0.950 . S
H1096 C1093 0.950 . S
C1097 C1088 1.390 . S
C1097 H1090 0.950 . S
C1097 C1094 1.387 1_554 S
C1098 C1099 1.387 . S
C1098 H1102 0.950 1_554 S
C1098 C1107 1.390 . S
C1099 C1098 1.387 . S
C1099 C1101 1.387 . S
H1100 C1107 0.950 1_556 S
C1101 C1099 1.387 . S
C1101 C1103 1.390 . S
C1101 H1105 0.950 . S
H1102 C1098 0.950 1_556 S
C1103 C1101 1.390 . S
C1103 C1104 1.387 . S
C1103 H1106 0.950 . S
C1104 C1103 1.387 . S
C1104 C1107 1.387 . S
H1105 C1101 0.950 . S
H1106 C1103 0.950 . S
C1107 C1098 1.390 . S
C1107 H1100 0.950 1_554 S
C1107 C1104 1.387 . S
C1108 C1109 1.387 . S
C1108 H1112 0.950 . S
C1108 C1117 1.390 . S
C1109 C1108 1.387 . S
C1109 C1111 1.387 . S
H1110 C1117 0.950 . S
C1111 C1109 1.387 . S
C1111 C1113 1.390 . S
C1111 H1115 0.950 . S
H1112 C1108 0.950 . S
C1113 C1111 1.390 . S
C1113 C1114 1.387 . S
C1113 H1116 0.950 . S
C1114 C1113 1.387 . S
C1114 C1117 1.387 . S
H1115 C1111 0.950 . S
H1116 C1113 0.950 . S
C1117 C1108 1.390 . S
C1117 H1110 0.950 . S
C1117 C1114 1.387 . S
C1118 C1119 1.387 . S
C1118 H1122 0.950 1_554 S
C1118 C1127 1.390 . S
C1119 C1118 1.387 . S
C1119 C1121 1.387 . S
H1120 C1127 0.950 1_556 S
C1121 C1119 1.387 . S
C1121 C1123 1.390 . S
C1121 H1125 0.950 . S
H1122 C1118 0.950 1_556 S
C1123 C1121 1.390 . S
C1123 C1124 1.387 . S
C1123 H1126 0.950 . S
C1124 C1123 1.387 . S
C1124 C1127 1.387 . S
H1125 C1121 0.950 . S
H1126 C1123 0.950 . S
C1127 C1118 1.390 . S
C1127 H1120 0.950 1_554 S
C1127 C1124 1.387 . S
C1128 C1129 1.387 . S
C1128 H1132 0.950 . S
C1128 C1137 1.390 . S
C1129 C1128 1.387 . S
C1129 C1131 1.387 . S
H1130 C1137 0.950 . S
C1131 C1129 1.387 . S
C1131 C1133 1.390 . S
C1131 H1135 0.950 1_455 S
H1132 C1128 0.950 . S
C1133 C1131 1.390 . S
C1133 C1134 1.387 . S
C1133 H1136 0.950 . S
C1134 C1133 1.387 . S
C1134 C1137 1.387 . S
H1135 C1131 0.950 1_655 S
H1136 C1133 0.950 . S
C1137 C1128 1.390 . S
C1137 H1130 0.950 . S
C1137 C1134 1.387 . S
C1138 C1139 1.387 . S
C1138 H1142 0.950 . S
C1138 C1147 1.390 . S
C1139 C1138 1.387 . S
C1139 C1141 1.387 . S
H1140 C1147 0.950 . S
C1141 C1139 1.387 . S
C1141 C1143 1.390 . S
C1141 H1145 0.950 . S
H1142 C1138 0.950 . S
C1143 C1141 1.390 . S
C1143 C1144 1.387 . S
C1143 H1146 0.950 . S
C1144 C1143 1.387 . S
C1144 C1147 1.387 . S
H1145 C1141 0.950 . S
H1146 C1143 0.950 . S
C1147 C1138 1.390 . S
C1147 H1140 0.950 . S
C1147 C1144 1.387 . S
C1148 C1149 1.387 1_565 S
C1148 H1152 0.950 . S
C1148 C1157 1.390 . S
C1149 C1148 1.387 1_545 S
C1149 C1151 1.387 1_545 S
H1150 C1157 0.950 . S
C1151 C1149 1.387 1_565 S
C1151 C1153 1.390 . S
C1151 H1155 0.950 1_565 S
H1152 C1148 0.950 . S
C1153 C1151 1.390 . S
C1153 C1154 1.387 . S
C1153 H1156 0.950 . S
C1154 C1153 1.387 . S
C1154 C1157 1.387 . S
H1155 C1151 0.950 1_545 S
H1156 C1153 0.950 . S
C1157 C1148 1.390 . S
C1157 H1150 0.950 . S
C1157 C1154 1.387 . S
C1158 C1159 1.387 . S
C1158 H1162 0.950 . S
C1158 C1167 1.390 . S
C1159 C1158 1.387 . S
C1159 C1161 1.387 . S
H1160 C1167 0.950 . S
C1161 C1159 1.387 . S
C1161 C1163 1.390 . S
C1161 H1165 0.950 . S
H1162 C1158 0.950 . S
C1163 C1161 1.390 . S
C1163 C1164 1.387 . S
C1163 H1166 0.950 . S
C1164 C1163 1.387 . S
C1164 C1167 1.387 . S
H1165 C1161 0.950 . S
H1166 C1163 0.950 . S
C1167 C1158 1.390 . S
C1167 H1160 0.950 . S
C1167 C1164 1.387 . S
C1168 C1169 1.387 . S
C1168 H1172 0.950 . S
C1168 C1177 1.390 . S
C1169 C1168 1.387 . S
C1169 C1171 1.387 . S
H1170 C1177 0.950 . S
C1171 C1169 1.387 . S
C1171 C1173 1.390 . S
C1171 H1175 0.950 . S
H1172 C1168 0.950 . S
C1173 C1171 1.390 . S
C1173 C1174 1.387 . S
C1173 H1176 0.950 . S
C1174 C1173 1.387 . S
C1174 C1177 1.387 . S
H1175 C1171 0.950 . S
H1176 C1173 0.950 . S
C1177 C1168 1.390 . S
C1177 H1170 0.950 . S
C1177 C1174 1.387 . S
C1178 C1179 1.387 . S
C1178 H1182 0.950 . S
C1178 C1187 1.390 . S
C1179 C1178 1.387 . S
C1179 C1181 1.387 . S
H1180 C1187 0.950 . S
C1181 C1179 1.387 . S
C1181 C1183 1.390 . S
C1181 H1185 0.950 . S
H1182 C1178 0.950 . S
C1183 C1181 1.390 . S
C1183 C1184 1.387 . S
C1183 H1186 0.950 . S
C1184 C1183 1.387 . S
C1184 C1187 1.387 . S
H1185 C1181 0.950 . S
H1186 C1183 0.950 . S
C1187 C1178 1.390 . S
C1187 H1180 0.950 . S
C1187 C1184 1.387 . S
C1188 C1189 1.387 . S
C1188 H1192 0.950 . S
C1188 C1197 1.390 . S
C1189 C1188 1.387 . S
C1189 C1191 1.387 . S
H1190 C1197 0.950 . S
C1191 C1189 1.387 . S
C1191 C1193 1.390 . S
C1191 H1195 0.950 . S
H1192 C1188 0.950 . S
C1193 C1191 1.390 . S
C1193 C1194 1.387 . S
C1193 H1196 0.950 . S
C1194 C1193 1.387 . S
C1194 C1197 1.387 . S
H1195 C1191 0.950 . S
H1196 C1193 0.950 . S
C1197 C1188 1.390 . S
C1197 H1190 0.950 . S
C1197 C1194 1.387 . S
C1198 C1199 1.387 . S
C1198 H1202 0.950 . S
C1198 C1207 1.390 . S
C1199 C1198 1.387 . S
C1199 C1201 1.387 . S
H1200 C1207 0.950 . S
C1201 C1199 1.387 . S
C1201 C1203 1.390 . S
C1201 H1205 0.950 . S
H1202 C1198 0.950 . S
C1203 C1201 1.390 . S
C1203 C1204 1.387 . S
C1203 H1206 0.950 . S
C1204 C1203 1.387 . S
C1204 C1207 1.387 . S
H1205 C1201 0.950 . S
H1206 C1203 0.950 . S
C1207 C1198 1.390 . S
C1207 H1200 0.950 . S
C1207 C1204 1.387 . S
C1208 C1209 1.387 . S
C1208 H1212 0.950 . S
C1208 C1217 1.390 . S
C1209 C1208 1.387 . S
C1209 C1211 1.387 . S
H1210 C1217 0.950 . S
C1211 C1209 1.387 . S
C1211 C1213 1.390 . S
C1211 H1215 0.950 . S
H1212 C1208 0.950 . S
C1213 C1211 1.390 . S
C1213 C1214 1.387 . S
C1213 H1216 0.950 . S
C1214 C1213 1.387 . S
C1214 C1217 1.387 . S
H1215 C1211 0.950 . S
H1216 C1213 0.950 . S
C1217 C1208 1.390 . S
C1217 H1210 0.950 . S
C1217 C1214 1.387 . S
C1218 C1219 1.390 . S
C1218 H1222 0.950 . S
C1218 C1227 1.390 . S
C1219 C1218 1.390 . S
C1219 C1221 1.403 . S
H1220 C1227 0.950 . S
C1221 C1219 1.403 . S
C1221 C1223 1.390 . S
C1221 H1225 0.950 . S
H1222 C1218 0.950 . S
C1223 C1221 1.390 . S
C1223 C1224 1.387 . S
C1223 H1226 0.950 . S
C1224 C1223 1.387 . S
C1224 C1227 1.387 . S
H1225 C1221 0.950 . S
H1226 C1223 0.950 . S
C1227 C1218 1.390 . S
C1227 H1220 0.950 . S
C1227 C1224 1.387 . S
C1228 C1229 1.387 . S
C1228 H1232 0.950 . S
C1228 C1237 1.390 . S
C1229 C1228 1.387 . S
C1229 C1231 1.387 . S
H1230 C1237 0.950 . S
C1231 C1229 1.387 . S
C1231 C1233 1.390 . S
C1231 H1235 0.950 . S
H1232 C1228 0.950 . S
C1233 C1231 1.390 . S
C1233 C1234 1.387 . S
C1233 H1236 0.950 . S
C1234 C1233 1.387 . S
C1234 C1237 1.387 . S
H1235 C1231 0.950 . S
H1236 C1233 0.950 . S
C1237 C1228 1.390 . S
C1237 H1230 0.950 . S
C1237 C1234 1.387 . S
C1238 C1239 1.387 . S
C1238 H1242 0.950 . S
C1238 C1247 1.390 . S
C1239 C1238 1.387 . S
C1239 C1241 1.387 . S
H1240 C1247 0.950 . S
C1241 C1239 1.387 . S
C1241 C1243 1.390 . S
C1241 H1245 0.950 . S
H1242 C1238 0.950 . S
C1243 C1241 1.390 . S
C1243 C1244 1.387 . S
C1243 H1246 0.950 . S
C1244 C1243 1.387 . S
C1244 C1247 1.387 . S
H1245 C1241 0.950 . S
H1246 C1243 0.950 . S
C1247 C1238 1.390 . S
C1247 H1240 0.950 . S
C1247 C1244 1.387 . S
C1248 C1249 1.387 . S
C1248 H1252 0.950 . S
C1248 C1257 1.390 . S
C1249 C1248 1.387 . S
C1249 C1251 1.387 . S
H1250 C1257 0.950 . S
C1251 C1249 1.387 . S
C1251 C1253 1.390 . S
C1251 H1255 0.950 . S
H1252 C1248 0.950 . S
C1253 C1251 1.390 . S
C1253 C1254 1.387 . S
C1253 H1256 0.950 . S
C1254 C1253 1.387 . S
C1254 C1257 1.387 . S
H1255 C1251 0.950 . S
H1256 C1253 0.950 . S
C1257 C1248 1.390 . S
C1257 H1250 0.950 . S
C1257 C1254 1.387 . S
C1258 C1259 1.387 . S
C1258 H1262 0.950 . S
C1258 C1267 1.390 . S
C1259 C1258 1.387 . S
C1259 C1261 1.387 . S
H1260 C1267 0.950 . S
C1261 C1259 1.387 . S
C1261 C1263 1.390 . S
C1261 H1265 0.950 . S
H1262 C1258 0.950 . S
C1263 C1261 1.390 . S
C1263 C1264 1.387 . S
C1263 H1266 0.950 . S
C1264 C1263 1.387 . S
C1264 C1267 1.387 . S
H1265 C1261 0.950 . S
H1266 C1263 0.950 . S
C1267 C1258 1.390 . S
C1267 H1260 0.950 . S
C1267 C1264 1.387 . S
C1268 C1269 1.387 . S
C1268 H1272 0.950 . S
C1268 C1277 1.390 . S
C1269 C1268 1.387 . S
C1269 C1271 1.387 . S
H1270 C1277 0.950 . S
C1271 C1269 1.387 . S
C1271 C1273 1.390 . S
C1271 H1275 0.950 . S
H1272 C1268 0.950 . S
C1273 C1271 1.390 . S
C1273 C1274 1.387 . S
C1273 H1276 0.950 . S
C1274 C1273 1.387 . S
C1274 C1277 1.387 . S
H1275 C1271 0.950 . S
H1276 C1273 0.950 . S
C1277 C1268 1.390 . S
C1277 H1270 0.950 . S
C1277 C1274 1.387 . S
C1278 C1279 1.388 . S
C1278 H1282 0.950 . S
C1278 C1287 1.390 . S
C1279 C1278 1.388 . S
C1279 C1281 1.388 . S
H1280 C1287 0.950 . S
C1281 C1279 1.388 . S
C1281 C1283 1.390 . S
C1281 H1285 0.950 . S
H1282 C1278 0.950 . S
C1283 C1281 1.390 . S
C1283 C1284 1.387 . S
C1283 H1286 0.950 . S
C1284 C1283 1.387 . S
C1284 C1287 1.387 . S
H1285 C1281 0.950 . S
H1286 C1283 0.950 . S
C1287 C1278 1.390 . S
C1287 H1280 0.950 . S
C1287 C1284 1.387 . S
C1288 C1289 1.387 . S
C1288 H1292 0.950 . S
C1288 C1297 1.390 . S
C1289 C1288 1.387 . S
C1289 C1291 1.387 . S
H1290 C1297 0.950 . S
C1291 C1289 1.387 . S
C1291 C1293 1.390 . S
C1291 H1295 0.950 . S
H1292 C1288 0.950 . S
C1293 C1291 1.390 . S
C1293 C1294 1.387 . S
C1293 H1296 0.950 . S
C1294 C1293 1.387 . S
C1294 C1297 1.387 . S
H1295 C1291 0.950 . S
H1296 C1293 0.950 . S
C1297 C1288 1.390 . S
C1297 H1290 0.950 . S
C1297 C1294 1.387 . S
C1298 C1299 1.387 . S
C1298 H1302 0.950 . S
C1298 C1307 1.390 . S
C1299 C1298 1.387 . S
C1299 C1301 1.387 . S
H1300 C1307 0.950 . S
C1301 C1299 1.387 . S
C1301 C1303 1.390 . S
C1301 H1305 0.950 . S
H1302 C1298 0.950 . S
C1303 C1301 1.390 . S
C1303 C1304 1.387 . S
C1303 H1306 0.950 . S
C1304 C1303 1.387 . S
C1304 C1307 1.387 . S
H1305 C1301 0.950 . S
H1306 C1303 0.950 . S
C1307 C1298 1.390 . S
C1307 H1300 0.950 . S
C1307 C1304 1.387 . S
C1308 C1309 1.387 . S
C1308 H1312 0.950 . S
C1308 C1317 1.390 . S
C1309 C1308 1.387 . S
C1309 C1311 1.387 . S
H1310 C1317 0.950 . S
C1311 C1309 1.387 . S
C1311 C1313 1.390 . S
C1311 H1315 0.950 . S
H1312 C1308 0.950 . S
C1313 C1311 1.390 . S
C1313 C1314 1.387 . S
C1313 H1316 0.950 . S
C1314 C1313 1.387 . S
C1314 C1317 1.387 . S
H1315 C1311 0.950 . S
H1316 C1313 0.950 . S
C1317 C1308 1.390 . S
C1317 H1310 0.950 . S
C1317 C1314 1.387 . S
C1318 C1319 1.387 . S
C1318 H1322 0.950 . S
C1318 C1327 1.390 . S
C1319 C1318 1.387 . S
C1319 C1321 1.387 . S
H1320 C1327 0.950 . S
C1321 C1319 1.387 . S
C1321 C1323 1.390 . S
C1321 H1325 0.950 . S
H1322 C1318 0.950 . S
C1323 C1321 1.390 . S
C1323 C1324 1.387 . S
C1323 H1326 0.950 . S
C1324 C1323 1.387 . S
C1324 C1327 1.387 . S
H1325 C1321 0.950 . S
H1326 C1323 0.950 . S
C1327 C1318 1.390 . S
C1327 H1320 0.950 . S
C1327 C1324 1.387 . S
C1328 C1329 1.387 1_545 S
C1328 H1332 0.950 . S
C1328 C1337 1.390 . S
C1329 C1328 1.387 1_565 S
C1329 C1331 1.387 1_565 S
H1330 C1337 0.950 . S
C1331 C1329 1.387 1_545 S
C1331 C1333 1.390 . S
C1331 H1335 0.950 1_545 S
H1332 C1328 0.950 . S
C1333 C1331 1.390 . S
C1333 C1334 1.387 . S
C1333 H1336 0.950 . S
C1334 C1333 1.387 . S
C1334 C1337 1.387 . S
H1335 C1331 0.950 1_565 S
H1336 C1333 0.950 . S
C1337 C1328 1.390 . S
C1337 H1330 0.950 . S
C1337 C1334 1.387 . S
C1338 C1339 1.387 . S
C1338 H1342 0.950 . S
C1338 C1347 1.390 . S
C1339 C1338 1.387 . S
C1339 C1341 1.387 . S
H1340 C1347 0.950 . S
C1341 C1339 1.387 . S
C1341 C1343 1.390 . S
C1341 H1345 0.950 . S
H1342 C1338 0.950 . S
C1343 C1341 1.390 . S
C1343 C1344 1.387 . S
C1343 H1346 0.950 . S
C1344 C1343 1.387 . S
C1344 C1347 1.387 . S
H1345 C1341 0.950 . S
H1346 C1343 0.950 . S
C1347 C1338 1.390 . S
C1347 H1340 0.950 . S
C1347 C1344 1.387 . S
C1348 C1349 1.387 . S
C1348 H1352 0.950 . S
C1348 C1357 1.390 . S
C1349 C1348 1.387 . S
C1349 C1351 1.387 . S
H1350 C1357 0.950 . S
C1351 C1349 1.387 . S
C1351 C1353 1.390 . S
C1351 H1355 0.950 . S
H1352 C1348 0.950 . S
C1353 C1351 1.390 . S
C1353 C1354 1.387 . S
C1353 H1356 0.950 . S
C1354 C1353 1.387 . S
C1354 C1357 1.387 . S
H1355 C1351 0.950 . S
H1356 C1353 0.950 . S
C1357 C1348 1.390 . S
C1357 H1350 0.950 . S
C1357 C1354 1.387 . S
C1358 C1359 1.387 . S
C1358 H1362 0.950 . S
C1358 C1367 1.390 . S
C1359 C1358 1.387 . S
C1359 C1361 1.387 . S
H1360 C1367 0.950 . S
C1361 C1359 1.387 . S
C1361 C1363 1.390 . S
C1361 H1365 0.950 . S
H1362 C1358 0.950 . S
C1363 C1361 1.390 . S
C1363 C1364 1.387 . S
C1363 H1366 0.950 . S
C1364 C1363 1.387 . S
C1364 C1367 1.387 . S
H1365 C1361 0.950 . S
H1366 C1363 0.950 . S
C1367 C1358 1.390 . S
C1367 H1360 0.950 . S
C1367 C1364 1.387 . S
C1368 C1369 1.387 . S
C1368 H1372 0.950 1_565 S
C1368 C1377 1.390 1_565 S
C1369 C1368 1.387 . S
C1369 C1371 1.387 . S
H1370 C1377 0.950 . S
C1371 C1369 1.387 . S
C1371 C1373 1.390 . S
C1371 H1375 0.950 . S
H1372 C1368 0.950 1_545 S
C1373 C1371 1.390 . S
C1373 C1374 1.387 . S
C1373 H1376 0.950 . S
C1374 C1373 1.387 . S
C1374 C1377 1.387 1_565 S
H1375 C1371 0.950 . S
H1376 C1373 0.950 . S
C1377 C1368 1.390 1_545 S
C1377 H1370 0.950 . S
C1377 C1374 1.387 1_545 S
C1378 C1379 1.387 . S
C1378 H1382 0.950 1_455 S
C1378 C1387 1.390 . S
C1379 C1378 1.387 . S
C1379 C1381 1.387 . S
H1380 C1387 0.950 . S
C1381 C1379 1.387 . S
C1381 C1383 1.390 . S
C1381 H1385 0.950 . S
H1382 C1378 0.950 1_655 S
C1383 C1381 1.390 . S
C1383 C1384 1.387 . S
C1383 H1386 0.950 . S
C1384 C1383 1.387 . S
C1384 C1387 1.387 . S
H1385 C1381 0.950 . S
H1386 C1383 0.950 . S
C1387 C1378 1.390 . S
C1387 H1380 0.950 . S
C1387 C1384 1.387 . S
C1388 C1389 1.387 . S
C1388 H1392 0.950 . S
C1388 C1397 1.390 . S
C1389 C1388 1.387 . S
C1389 C1391 1.387 . S
H1390 C1397 0.950 . S
C1391 C1389 1.387 . S
C1391 C1393 1.390 . S
C1391 H1395 0.950 . S
H1392 C1388 0.950 . S
C1393 C1391 1.390 . S
C1393 C1394 1.387 . S
C1393 H1396 0.950 . S
C1394 C1393 1.387 . S
C1394 C1397 1.387 . S
H1395 C1391 0.950 . S
H1396 C1393 0.950 . S
C1397 C1388 1.390 . S
C1397 H1390 0.950 . S
C1397 C1394 1.387 . S
C1398 C1399 1.387 1_455 S
C1398 H1402 0.950 . S
C1398 C1407 1.390 . S
C1399 C1398 1.387 1_655 S
C1399 C1401 1.387 . S
H1400 C1407 0.950 . S
C1401 C1399 1.387 . S
C1401 C1403 1.390 . S
C1401 H1405 0.950 . S
H1402 C1398 0.950 . S
C1403 C1401 1.390 . S
C1403 C1404 1.387 . S
C1403 H1406 0.950 . S
C1404 C1403 1.387 . S
C1404 C1407 1.387 1_655 S
H1405 C1401 0.950 . S
H1406 C1403 0.950 . S
C1407 C1398 1.390 . S
C1407 H1400 0.950 . S
C1407 C1404 1.387 1_455 S
C1408 C1409 1.387 . S
C1408 H1412 0.950 . S
C1408 C1417 1.390 . S
C1409 C1408 1.387 . S
C1409 C1411 1.387 . S
H1410 C1417 0.950 . S
C1411 C1409 1.387 . S
C1411 C1413 1.390 . S
C1411 H1415 0.950 . S
H1412 C1408 0.950 . S
C1413 C1411 1.390 . S
C1413 C1414 1.387 . S
C1413 H1416 0.950 . S
C1414 C1413 1.387 . S
C1414 C1417 1.387 . S
H1415 C1411 0.950 . S
H1416 C1413 0.950 . S
C1417 C1408 1.390 . S
C1417 H1410 0.950 . S
C1417 C1414 1.387 . S
C1418 C1419 1.387 . S
C1418 H1422 0.950 . S
C1418 C1427 1.390 . S
C1419 C1418 1.387 . S
C1419 C1421 1.387 . S
H1420 C1427 0.950 1_565 S
C1421 C1419 1.387 . S
C1421 C1423 1.390 . S
C1421 H1425 0.950 . S
H1422 C1418 0.950 . S
C1423 C1421 1.390 . S
C1423 C1424 1.387 . S
C1423 H1426 0.950 . S
C1424 C1423 1.387 . S
C1424 C1427 1.387 . S
H1425 C1421 0.950 . S
H1426 C1423 0.950 . S
C1427 C1418 1.390 . S
C1427 H1420 0.950 1_545 S
C1427 C1424 1.387 . S
C1428 C1429 1.387 . S
C1428 H1432 0.950 . S
C1428 C1437 1.390 . S
C1429 C1428 1.387 . S
C1429 C1431 1.387 . S
H1430 C1437 0.950 . S
C1431 C1429 1.387 . S
C1431 C1433 1.390 . S
C1431 H1435 0.950 . S
H1432 C1428 0.950 . S
C1433 C1431 1.390 . S
C1433 C1434 1.387 . S
C1433 H1436 0.950 . S
C1434 C1433 1.387 . S
C1434 C1437 1.387 . S
H1435 C1431 0.950 . S
H1436 C1433 0.950 . S
C1437 C1428 1.390 . S
C1437 H1430 0.950 . S
C1437 C1434 1.387 . S
C1438 C1439 1.387 . S
C1438 H1442 0.950 . S
C1438 C1447 1.390 . S
C1439 C1438 1.387 . S
C1439 C1441 1.387 . S
H1440 C1447 0.950 . S
C1441 C1439 1.387 . S
C1441 C1443 1.390 . S
C1441 H1445 0.950 . S
H1442 C1438 0.950 . S
C1443 C1441 1.390 . S
C1443 C1444 1.387 . S
C1443 H1446 0.950 . S
C1444 C1443 1.387 . S
C1444 C1447 1.387 . S
H1445 C1441 0.950 . S
H1446 C1443 0.950 . S
C1447 C1438 1.390 . S
C1447 H1440 0.950 . S
C1447 C1444 1.387 . S
C1448 C1449 1.387 . S
C1448 H1452 0.950 . S
C1448 C1457 1.390 . S
C1449 C1448 1.387 . S
C1449 C1451 1.387 . S
H1450 C1457 0.950 . S
C1451 C1449 1.387 . S
C1451 C1453 1.390 . S
C1451 H1455 0.950 . S
H1452 C1448 0.950 . S
C1453 C1451 1.390 . S
C1453 C1454 1.387 . S
C1453 H1456 0.950 . S
C1454 C1453 1.387 . S
C1454 C1457 1.387 . S
H1455 C1451 0.950 . S
H1456 C1453 0.950 . S
C1457 C1448 1.390 . S
C1457 H1450 0.950 . S
C1457 C1454 1.387 . S
C1458 C1459 1.387 . S
C1458 H1462 0.950 . S
C1458 C1467 1.390 . S
C1459 C1458 1.387 . S
C1459 C1461 1.387 . S
H1460 C1467 0.950 . S
C1461 C1459 1.387 . S
C1461 C1463 1.390 . S
C1461 H1465 0.950 . S
H1462 C1458 0.950 . S
C1463 C1461 1.390 . S
C1463 C1464 1.387 . S
C1463 H1466 0.950 . S
C1464 C1463 1.387 . S
C1464 C1467 1.387 . S
H1465 C1461 0.950 . S
H1466 C1463 0.950 . S
C1467 C1458 1.390 . S
C1467 H1460 0.950 . S
C1467 C1464 1.387 . S
C1468 C1469 1.387 . S
C1468 H1472 0.950 . S
C1468 C1477 1.390 . S
C1469 C1468 1.387 . S
C1469 C1471 1.387 . S
H1470 C1477 0.950 . S
C1471 C1469 1.387 . S
C1471 C1473 1.390 . S
C1471 H1475 0.950 . S
H1472 C1468 0.950 . S
C1473 C1471 1.390 . S
C1473 C1474 1.387 . S
C1473 H1476 0.950 . S
C1474 C1473 1.387 . S
C1474 C1477 1.387 . S
H1475 C1471 0.950 . S
H1476 C1473 0.950 . S
C1477 C1468 1.390 . S
C1477 H1470 0.950 . S
C1477 C1474 1.387 . S
C1478 C1479 1.387 . S
C1478 H1482 0.950 . S
C1478 C1487 1.390 . S
C1479 C1478 1.387 . S
C1479 C1481 1.387 . S
H1480 C1487 0.950 . S
C1481 C1479 1.387 . S
C1481 C1483 1.390 . S
C1481 H1485 0.950 . S
H1482 C1478 0.950 . S
C1483 C1481 1.390 . S
C1483 C1484 1.387 . S
C1483 H1486 0.950 . S
C1484 C1483 1.387 . S
C1484 C1487 1.387 . S
H1485 C1481 0.950 . S
H1486 C1483 0.950 . S
C1487 C1478 1.390 . S
C1487 H1480 0.950 . S
C1487 C1484 1.387 . S
C1488 C1489 1.387 . S
C1488 H1492 0.950 . S
C1488 C1497 1.390 . S
C1489 C1488 1.387 . S
C1489 C1491 1.387 . S
H1490 C1497 0.950 . S
C1491 C1489 1.387 . S
C1491 C1493 1.390 . S
C1491 H1495 0.950 . S
H1492 C1488 0.950 . S
C1493 C1491 1.390 . S
C1493 C1494 1.387 . S
C1493 H1496 0.950 . S
C1494 C1493 1.387 . S
C1494 C1497 1.387 . S
H1495 C1491 0.950 . S
H1496 C1493 0.950 . S
C1497 C1488 1.390 . S
C1497 H1490 0.950 . S
C1497 C1494 1.387 . S
C1498 C1499 1.387 . S
C1498 H1502 0.950 . S
C1498 C1507 1.390 . S
C1499 C1498 1.387 . S
C1499 C1501 1.387 . S
H1500 C1507 0.950 . S
C1501 C1499 1.387 . S
C1501 C1503 1.390 . S
C1501 H1505 0.950 . S
H1502 C1498 0.950 . S
C1503 C1501 1.390 . S
C1503 C1504 1.387 . S
C1503 H1506 0.950 . S
C1504 C1503 1.387 . S
C1504 C1507 1.387 . S
H1505 C1501 0.950 . S
H1506 C1503 0.950 . S
C1507 C1498 1.390 . S
C1507 H1500 0.950 . S
C1507 C1504 1.387 . S
C1508 C1509 1.387 . S
C1508 H1512 0.950 . S
C1508 C1517 1.390 . S
C1509 C1508 1.387 . S
C1509 C1511 1.387 . S
H1510 C1517 0.950 . S
C1511 C1509 1.387 . S
C1511 C1513 1.390 . S
C1511 H1515 0.950 . S
H1512 C1508 0.950 . S
C1513 C1511 1.390 . S
C1513 C1514 1.387 . S
C1513 H1516 0.950 . S
C1514 C1513 1.387 . S
C1514 C1517 1.387 . S
H1515 C1511 0.950 . S
H1516 C1513 0.950 . S
C1517 C1508 1.390 . S
C1517 H1510 0.950 . S
C1517 C1514 1.387 . S
C1518 C1519 1.387 . S
C1518 H1522 0.950 . S
C1518 C1527 1.390 . S
C1519 C1518 1.387 . S
C1519 C1521 1.387 . S
H1520 C1527 0.950 . S
C1521 C1519 1.387 . S
C1521 C1523 1.390 . S
C1521 H1525 0.950 . S
H1522 C1518 0.950 . S
C1523 C1521 1.390 . S
C1523 C1524 1.387 . S
C1523 H1526 0.950 . S
C1524 C1523 1.387 . S
C1524 C1527 1.387 . S
H1525 C1521 0.950 . S
H1526 C1523 0.950 . S
C1527 C1518 1.390 . S
C1527 H1520 0.950 . S
C1527 C1524 1.387 . S
C1528 C1529 1.387 . S
C1528 H1532 0.950 . S
C1528 C1537 1.390 . S
C1529 C1528 1.387 . S
C1529 C1531 1.387 . S
H1530 C1537 0.950 . S
C1531 C1529 1.387 . S
C1531 C1533 1.390 . S
C1531 H1535 0.950 . S
H1532 C1528 0.950 . S
C1533 C1531 1.390 . S
C1533 C1534 1.387 . S
C1533 H1536 0.950 . S
C1534 C1533 1.387 . S
C1534 C1537 1.387 . S
H1535 C1531 0.950 . S
H1536 C1533 0.950 . S
C1537 C1528 1.390 . S
C1537 H1530 0.950 . S
C1537 C1534 1.387 . S
C1538 C1539 1.387 . S
C1538 H1542 0.950 . S
C1538 C1547 1.390 . S
C1539 C1538 1.387 . S
C1539 C1541 1.387 . S
H1540 C1547 0.950 . S
C1541 C1539 1.387 . S
C1541 C1543 1.390 . S
C1541 H1545 0.950 . S
H1542 C1538 0.950 . S
C1543 C1541 1.390 . S
C1543 C1544 1.387 . S
C1543 H1546 0.950 . S
C1544 C1543 1.387 . S
C1544 C1547 1.387 . S
H1545 C1541 0.950 . S
H1546 C1543 0.950 . S
C1547 C1538 1.390 . S
C1547 H1540 0.950 . S
C1547 C1544 1.387 . S
C1009 C469 1.742 . S
C1014 C651 1.753 . S
C1019 C505 1.791 . S
C1024 C691 1.784 . S
C1029 C433 1.821 . S
C1034 C743 1.822 . S
C1039 C397 1.649 . S
C1044 C703 1.638 . S
C1054 C731 1.533 . S
C1049 C325 1.524 . S
C1059 C361 1.558 . S
C1064 C663 1.610 . S
C1074 C670 1.755 . S
C1069 C421 1.756 . S
C1084 C710 1.784 . S
C1079 C349 1.789 . S
C1089 C385 1.814 . S
C1094 C730 1.824 . S
C1099 C493 1.644 . S
C1104 C690 1.639 . S
C1109 C529 1.539 . S
C1114 C750 1.534 . S
C1124 C650 1.587 . S
C1119 C457 1.567 . S
C1134 C771 1.755 . S
C1129 C37 1.744 1_455 S
C1139 C73 1.791 . S
C1144 C811 1.784 . S
C1149 C1 1.820 . S
C1154 C863 1.822 . S
C1159 C613 1.648 . S
C1164 C823 1.637 . S
C1169 C541 1.525 . S
C1174 C851 1.534 . S
C1179 C577 1.555 . S
C1184 C783 1.582 . S
C1189 C637 1.757 . S
C1194 C790 1.756 . S
C1199 C565 1.789 . S
C1204 C830 1.784 . S
C1214 C850 1.824 . S
C1209 C601 1.814 . S
C1219 C61 1.627 1_565 S
C1224 C810 1.637 . S
C1234 C870 1.535 . S
C1229 C97 1.539 1_455 S
C1239 C25 1.567 . S
C1244 C770 1.587 . S
C1254 C891 1.754 . S
C1249 C253 1.743 . S
C1259 C289 1.792 . S
C1264 C931 1.784 . S
C1274 C983 1.822 . S
C1269 C217 1.821 . S
C1284 C943 1.636 . S
C1279 C181 1.645 1_545 S
C1294 C971 1.533 . S
C1289 C109 1.523 1_655 S
C1299 C145 1.558 . S
C1304 C903 1.585 . S
C1309 C205 1.756 1_655 S
C1314 C910 1.755 . S
C1319 C133 1.789 . S
C1324 C950 1.783 . S
C1334 C970 1.824 . S
C1329 C169 1.814 . S
C1339 C277 1.645 . S
C1344 C930 1.639 . S
C1349 C313 1.538 . S
C1354 C990 1.533 . S
C1359 C241 1.564 . S
C1364 C890 1.585 . S
C1369 C571 1.399 . S
C1374 C674 1.385 . S
C1384 C714 1.821 . S
C1379 C607 1.857 . S
C1389 C643 1.581 . S
C1394 C737 1.577 . S
C1399 C247 1.856 . S
C1404 C697 1.820 . S
C1409 C283 1.585 . S
C1414 C754 1.577 . S
C1424 C657 1.385 . S
C1419 C319 1.401 . S
C1429 C139 1.400 . S
C1434 C794 1.387 . S
C1439 C175 1.855 . S
C1444 C834 1.821 . S
C1449 C211 1.580 . S
C1454 C857 1.576 . S
C1459 C463 1.855 . S
C1464 C817 1.818 . S
C1474 C874 1.576 . S
C1469 C499 1.585 . S
C1479 C535 1.401 . S
C1484 C777 1.384 . S
C1489 C355 1.399 . S
C1494 C914 1.386 . S
C1499 C391 1.853 . S
C1504 C954 1.819 . S
C1514 C977 1.576 . S
C1509 C427 1.581 . S
C1519 C31 1.856 . S
C1524 C937 1.820 . S
C1529 C67 1.585 . S
C1534 C994 1.578 . S
C1539 C103 1.402 . S
C1544 C897 1.385 . S
