# Generated by pormake.
# Topology ssb, (4,4)-cn, num edge types: 1
# Building blocks:
#     Node 0, Type 0, BuildingBlock: NAWXER_clean_linker_0, # of connection points: 4
#     Node 1, Type 0, BuildingBlock: NAWXER_clean_linker_0, # of connection points: 4
#     Node 2, Type 0, BuildingBlock: NAWXER_clean_linker_0, # of connection points: 4
#     Node 3, Type 0, BuildingBlock: NAWXER_clean_linker_0, # of connection points: 4
#     Node 4, Type 0, BuildingBlock: NAWXER_clean_linker_0, # of connection points: 4
#     Node 5, Type 0, BuildingBlock: NAWXER_clean_linker_0, # of connection points: 4
#     Node 6, Type 0, BuildingBlock: NAWXER_clean_linker_0, # of connection points: 4
#     Node 7, Type 0, BuildingBlock: NAWXER_clean_linker_0, # of connection points: 4
#     Node 8, Type 1, BuildingBlock: KOZSID_clean_sbu_0, # of connection points: 4
#     Node 9, Type 1, BuildingBlock: KOZSID_clean_sbu_0, # of connection points: 4
#     Node 10, Type 1, BuildingBlock: KOZSID_clean_sbu_0, # of connection points: 4
#     Node 11, Type 1, BuildingBlock: KOZSID_clean_sbu_0, # of connection points: 4
#     Node 12, Type 1, BuildingBlock: KOZSID_clean_sbu_0, # of connection points: 4
#     Node 13, Type 1, BuildingBlock: KOZSID_clean_sbu_0, # of connection points: 4
#     Node 14, Type 1, BuildingBlock: KOZSID_clean_sbu_0, # of connection points: 4
#     Node 15, Type 1, BuildingBlock: KOZSID_clean_sbu_0, # of connection points: 4
#     Edge 16, Type (0, 1), BuildingBlock: TEMPAE_clean_linker_10, # of connection points: 2
#     Edge 17, Type (0, 1), BuildingBlock: TEMPAE_clean_linker_10, # of connection points: 2
#     Edge 18, Type (0, 1), BuildingBlock: TEMPAE_clean_linker_10, # of connection points: 2
#     Edge 19, Type (0, 1), BuildingBlock: TEMPAE_clean_linker_10, # of connection points: 2
#     Edge 20, Type (0, 1), BuildingBlock: TEMPAE_clean_linker_10, # of connection points: 2
#     Edge 21, Type (0, 1), BuildingBlock: TEMPAE_clean_linker_10, # of connection points: 2
#     Edge 22, Type (0, 1), BuildingBlock: TEMPAE_clean_linker_10, # of connection points: 2
#     Edge 23, Type (0, 1), BuildingBlock: TEMPAE_clean_linker_10, # of connection points: 2
#     Edge 24, Type (0, 1), BuildingBlock: TEMPAE_clean_linker_10, # of connection points: 2
#     Edge 25, Type (0, 1), BuildingBlock: TEMPAE_clean_linker_10, # of connection points: 2
#     Edge 26, Type (0, 1), BuildingBlock: TEMPAE_clean_linker_10, # of connection points: 2
#     Edge 27, Type (0, 1), BuildingBlock: TEMPAE_clean_linker_10, # of connection points: 2
#     Edge 28, Type (0, 1), BuildingBlock: TEMPAE_clean_linker_10, # of connection points: 2
#     Edge 29, Type (0, 1), BuildingBlock: TEMPAE_clean_linker_10, # of connection points: 2
#     Edge 30, Type (0, 1), BuildingBlock: TEMPAE_clean_linker_10, # of connection points: 2
#     Edge 31, Type (0, 1), BuildingBlock: TEMPAE_clean_linker_10, # of connection points: 2
#     Edge 32, Type (0, 1), BuildingBlock: TEMPAE_clean_linker_10, # of connection points: 2
#     Edge 33, Type (0, 1), BuildingBlock: TEMPAE_clean_linker_10, # of connection points: 2
#     Edge 34, Type (0, 1), BuildingBlock: TEMPAE_clean_linker_10, # of connection points: 2
#     Edge 35, Type (0, 1), BuildingBlock: TEMPAE_clean_linker_10, # of connection points: 2
#     Edge 36, Type (0, 1), BuildingBlock: TEMPAE_clean_linker_10, # of connection points: 2
#     Edge 37, Type (0, 1), BuildingBlock: TEMPAE_clean_linker_10, # of connection points: 2
#     Edge 38, Type (0, 1), BuildingBlock: TEMPAE_clean_linker_10, # of connection points: 2
#     Edge 39, Type (0, 1), BuildingBlock: TEMPAE_clean_linker_10, # of connection points: 2
#     Edge 40, Type (0, 1), BuildingBlock: TEMPAE_clean_linker_10, # of connection points: 2
#     Edge 41, Type (0, 1), BuildingBlock: TEMPAE_clean_linker_10, # of connection points: 2
#     Edge 42, Type (0, 1), BuildingBlock: TEMPAE_clean_linker_10, # of connection points: 2
#     Edge 43, Type (0, 1), BuildingBlock: TEMPAE_clean_linker_10, # of connection points: 2
#     Edge 44, Type (0, 1), BuildingBlock: TEMPAE_clean_linker_10, # of connection points: 2
#     Edge 45, Type (0, 1), BuildingBlock: TEMPAE_clean_linker_10, # of connection points: 2
#     Edge 46, Type (0, 1), BuildingBlock: TEMPAE_clean_linker_10, # of connection points: 2
#     Edge 47, Type (0, 1), BuildingBlock: TEMPAE_clean_linker_10, # of connection points: 2
# Relax obj value: 0.002
# Max RMSD: 0.031
# Mean RMSD: 0.019
data_MOF--net-ssb--node1-KOZSID_clean_sbu_0--node2-NAWXER_clean_linker_0--edge1-TEMPAE_clean_linker_10
_symmetry_space_group_name_H-M    P1
_symmetry_Int_Tables_number       1
_symmetry_cell_setting            triclinic
loop_
_symmetry_equiv_pos_as_xyz
'x, y, z'
_cell_length_a     64.00645
_cell_length_b     63.713545
_cell_length_c     47.084389
_cell_angle_alpha  92.145235
_cell_angle_beta   94.388057
_cell_angle_gamma 90.000244
loop_
_atom_site_label
_atom_site_type_symbol
_atom_site_fract_x
_atom_site_fract_y
_atom_site_fract_z
_atom_type_partial_charge
C0 C 0.2989 0.2427 0.19118 0.0
C1 C 0.31972 0.24183 0.20304 0.0
C2 C 0.28219 0.2418 0.20856 0.0
C3 C 0.28596 0.24024 0.23818 0.0
C4 C 0.3234 0.23954 0.23262 0.0
C5 C 0.30667 0.23864 0.24998 0.0
C6 C 0.26845 0.2404 0.25697 0.0
C7 C 0.271 0.30423 0.21823 0.0
C8 C 0.25246 0.3105 0.20283 0.0
C9 C 0.27114 0.28682 0.23568 0.0
C10 C 0.25287 0.2748 0.23767 0.0
C11 C 0.23406 0.29885 0.2055 0.0
C12 C 0.23426 0.28129 0.22269 0.0
C13 C 0.2527 0.25605 0.25604 0.0
C14 C 0.20508 0.23908 0.35777 0.0
C15 C 0.18435 0.24051 0.34578 0.0
C16 C 0.22181 0.23828 0.34031 0.0
C17 C 0.21806 0.23885 0.31056 0.0
C18 C 0.18071 0.24137 0.31603 0.0
C19 C 0.19742 0.24072 0.29862 0.0
C20 C 0.23553 0.23826 0.29177 0.0
C21 C 0.23245 0.17535 0.33244 0.0
C22 C 0.25121 0.16799 0.34635 0.0
C23 C 0.23242 0.19261 0.31473 0.0
C24 C 0.251 0.20373 0.31112 0.0
C25 C 0.26993 0.17865 0.34171 0.0
C26 C 0.26979 0.19622 0.32449 0.0
C27 C 0.25125 0.22252 0.2927 0.0
H28 H 0.2955 0.244 0.16843 0.0
H29 H 0.26631 0.2425 0.19888 0.0
H30 H 0.33923 0.23897 0.24247 0.0
H31 H 0.30992 0.23728 0.27276 0.0
H32 H 0.28538 0.31305 0.21722 0.0
H33 H 0.28557 0.2829 0.24781 0.0
H34 H 0.2195 0.30312 0.19392 0.0
H35 H 0.21985 0.27258 0.22399 0.0
H36 H 0.20835 0.23835 0.38063 0.0
H37 H 0.23766 0.23725 0.35001 0.0
H38 H 0.16492 0.2428 0.30623 0.0
H39 H 0.19422 0.24144 0.27574 0.0
H40 H 0.21759 0.16795 0.33532 0.0
H41 H 0.21773 0.19712 0.30376 0.0
H42 H 0.28487 0.17335 0.35111 0.0
H43 H 0.28449 0.20404 0.32176 0.0
N44 N 0.26718 0.22443 0.27532 0.0
N45 N 0.23682 0.25417 0.2734 0.0
C46 C 0.68412 0.2841 0.21511 0.0
C47 C 0.67736 0.26565 0.19964 0.0
C48 C 0.70212 0.28408 0.23394 0.0
C49 C 0.71448 0.26592 0.23663 0.0
C50 C 0.68945 0.24734 0.20319 0.0
C51 C 0.70783 0.24757 0.22107 0.0
C52 C 0.73337 0.26493 0.25701 0.0
C53 C 0.74637 0.32027 0.20453 0.0
C54 C 0.7469 0.33948 0.22025 0.0
C55 C 0.74654 0.30135 0.21846 0.0
C56 C 0.74706 0.30138 0.24828 0.0
C57 C 0.74761 0.33946 0.25012 0.0
C58 C 0.74786 0.32051 0.26405 0.0
C59 C 0.74788 0.28155 0.26322 0.0
C60 C 0.81913 0.23917 0.32839 0.0
C61 C 0.8246 0.25457 0.34981 0.0
C62 C 0.80071 0.24102 0.31081 0.0
C63 C 0.78723 0.25813 0.31461 0.0
C64 C 0.81127 0.27187 0.35326 0.0
C65 C 0.79279 0.27367 0.33571 0.0
C66 C 0.76782 0.26031 0.29586 0.0
C67 C 0.75756 0.20314 0.34609 0.0
C68 C 0.75561 0.18443 0.32929 0.0
C69 C 0.75719 0.22252 0.3333 0.0
C70 C 0.75501 0.22346 0.30351 0.0
C71 C 0.75357 0.18546 0.29946 0.0
C72 C 0.75313 0.20484 0.2867 0.0
C73 C 0.75339 0.24377 0.28971 0.0
H74 H 0.67553 0.29865 0.21295 0.0
H75 H 0.70601 0.29822 0.24664 0.0
H76 H 0.6846 0.23256 0.19266 0.0
H77 H 0.71674 0.23316 0.22302 0.0
H78 H 0.74569 0.31989 0.18146 0.0
H79 H 0.74636 0.28671 0.20598 0.0
H80 H 0.74827 0.35407 0.26269 0.0
H81 H 0.74855 0.32077 0.28713 0.0
H82 H 0.82931 0.22591 0.32482 0.0
H83 H 0.79714 0.22919 0.29402 0.0
H84 H 0.81503 0.28392 0.36969 0.0
H85 H 0.78271 0.28709 0.3388 0.0
H86 H 0.75874 0.20283 0.36914 0.0
H87 H 0.75811 0.23676 0.34666 0.0
H88 H 0.75223 0.17128 0.28601 0.0
H89 H 0.75134 0.20531 0.26366 0.0
N90 N 0.73684 0.2467 0.27058 0.0
N91 N 0.76443 0.27865 0.28252 0.0
C92 C 0.69879 0.75399 0.17305 0.0
C93 C 0.67867 0.7574 0.18227 0.0
C94 C 0.71634 0.75473 0.19264 0.0
C95 C 0.71396 0.75822 0.22187 0.0
C96 C 0.67641 0.76183 0.21131 0.0
C97 C 0.69391 0.76224 0.23093 0.0
C98 C 0.73218 0.75815 0.24317 0.0
C99 C 0.72825 0.69361 0.19968 0.0
C100 C 0.7469 0.68564 0.18931 0.0
C101 C 0.72845 0.71161 0.21777 0.0
C102 C 0.74712 0.72293 0.22488 0.0
C103 C 0.76573 0.69647 0.19773 0.0
C104 C 0.76578 0.71487 0.21497 0.0
C105 C 0.74783 0.74238 0.24384 0.0
C106 C 0.80197 0.7596 0.35061 0.0
C107 C 0.82178 0.76095 0.33984 0.0
C108 C 0.78379 0.7602 0.33214 0.0
C109 C 0.78531 0.76182 0.30272 0.0
C110 C 0.82319 0.76272 0.31044 0.0
C111 C 0.8051 0.76287 0.29199 0.0
C112 C 0.76652 0.76138 0.28266 0.0
C113 C 0.76918 0.82482 0.32942 0.0
C114 C 0.75026 0.83237 0.33944 0.0
C115 C 0.76946 0.80715 0.31079 0.0
C116 C 0.75099 0.79577 0.30258 0.0
C117 C 0.73168 0.8214 0.33024 0.0
C118 C 0.73208 0.80335 0.31233 0.0
C119 C 0.75065 0.77686 0.28258 0.0
H120 H 0.70093 0.75088 0.15068 0.0
H121 H 0.73173 0.75233 0.185 0.0
H122 H 0.66105 0.76448 0.21893 0.0
H123 H 0.69173 0.76525 0.25331 0.0
H124 H 0.7133 0.68612 0.19379 0.0
H125 H 0.7139 0.71658 0.22616 0.0
H126 H 0.78062 0.6907 0.19136 0.0
H127 H 0.78056 0.72283 0.2206 0.0
H128 H 0.8006 0.75817 0.37325 0.0
H129 H 0.7686 0.75911 0.3407 0.0
H130 H 0.83833 0.76356 0.3017 0.0
H131 H 0.80652 0.76393 0.2693 0.0
H132 H 0.78395 0.83248 0.3359 0.0
H133 H 0.7842 0.80276 0.30253 0.0
H134 H 0.71662 0.82684 0.33645 0.0
H135 H 0.71744 0.79533 0.30599 0.0
N136 N 0.73412 0.77448 0.26274 0.0
N137 N 0.76447 0.74492 0.2634 0.0
C138 C 0.31259 0.72991 0.18175 0.0
C139 C 0.31887 0.74748 0.16727 0.0
C140 C 0.29478 0.7308 0.19718 0.0
C141 C 0.28266 0.74917 0.19803 0.0
C142 C 0.30688 0.76595 0.16857 0.0
C143 C 0.28901 0.76679 0.18387 0.0
C144 C 0.26413 0.75065 0.21505 0.0
C145 C 0.24951 0.70061 0.14699 0.0
C146 C 0.24475 0.68092 0.15727 0.0
C147 C 0.25044 0.7184 0.1653 0.0
C148 C 0.2473 0.71659 0.19435 0.0
C149 C 0.24091 0.67925 0.18603 0.0
C150 C 0.2422 0.69693 0.20441 0.0
C151 C 0.24834 0.73507 0.21431 0.0
C152 C 0.1861 0.77297 0.292 0.0
C153 C 0.18103 0.75482 0.30613 0.0
C154 C 0.2025 0.77273 0.274 0.0
C155 C 0.21448 0.75447 0.27034 0.0
C156 C 0.19269 0.73643 0.30188 0.0
C157 C 0.20923 0.73627 0.28415 0.0
C158 C 0.23201 0.75381 0.25143 0.0
C159 C 0.24999 0.80262 0.32017 0.0
C160 C 0.25098 0.82298 0.30982 0.0
C161 C 0.24889 0.78515 0.30134 0.0
C162 C 0.24861 0.7878 0.27187 0.0
C163 C 0.25105 0.82551 0.2803 0.0
C164 C 0.25001 0.80804 0.2615 0.0
C165 C 0.24756 0.76955 0.25173 0.0
H166 H 0.3214 0.71541 0.18109 0.0
H167 H 0.2906 0.71718 0.20864 0.0
H168 H 0.31148 0.77991 0.15815 0.0
H169 H 0.28013 0.78125 0.18463 0.0
H170 H 0.25229 0.70224 0.12477 0.0
H171 H 0.25356 0.73351 0.15673 0.0
H172 H 0.23734 0.66417 0.19443 0.0
H173 H 0.23948 0.69517 0.22663 0.0
H174 H 0.17712 0.78725 0.29448 0.0
H175 H 0.20565 0.78677 0.26278 0.0
H176 H 0.18919 0.72224 0.31259 0.0
H177 H 0.21809 0.72193 0.28148 0.0
H178 H 0.25031 0.80017 0.34284 0.0
H179 H 0.24837 0.76959 0.30978 0.0
H180 H 0.25159 0.84101 0.27168 0.0
H181 H 0.24998 0.81034 0.23881 0.0
N182 N 0.26294 0.7674 0.23352 0.0
N183 N 0.23306 0.73718 0.23273 0.0
C184 C 0.18346 0.77643 0.70023 0.0
C185 C 0.17839 0.75879 0.68217 0.0
C186 C 0.20132 0.77642 0.71925 0.0
C187 C 0.21456 0.75884 0.72037 0.0
C188 C 0.19171 0.74124 0.68334 0.0
C189 C 0.20955 0.74123 0.70239 0.0
C190 C 0.23285 0.75814 0.74146 0.0
C191 C 0.24876 0.80838 0.6803 0.0
C192 C 0.24773 0.82885 0.69244 0.0
C193 C 0.24851 0.79076 0.69738 0.0
C194 C 0.2476 0.7932 0.72709 0.0
C195 C 0.2467 0.83124 0.72214 0.0
C196 C 0.24694 0.81364 0.7393 0.0
C197 C 0.24781 0.77454 0.74545 0.0
C198 C 0.31631 0.73506 0.81863 0.0
C199 C 0.32283 0.75216 0.83691 0.0
C200 C 0.29768 0.73604 0.80131 0.0
C201 C 0.28504 0.75403 0.80214 0.0
C202 C 0.31018 0.77021 0.83762 0.0
C203 C 0.29152 0.77117 0.82025 0.0
C204 C 0.26586 0.75555 0.78276 0.0
C205 C 0.25354 0.70524 0.84462 0.0
C206 C 0.25075 0.68483 0.83231 0.0
C207 C 0.25352 0.72286 0.82754 0.0
C208 C 0.25077 0.72062 0.79762 0.0
C209 C 0.24775 0.68266 0.80237 0.0
C210 C 0.24758 0.70031 0.78531 0.0
C211 C 0.25065 0.73932 0.77919 0.0
H212 H 0.17332 0.79003 0.70024 0.0
H213 H 0.20447 0.78994 0.73355 0.0
H214 H 0.18837 0.7275 0.6695 0.0
H215 H 0.21947 0.72745 0.70304 0.0
H216 H 0.24952 0.80599 0.6575 0.0
H217 H 0.24926 0.77521 0.6874 0.0
H218 H 0.24604 0.84678 0.73217 0.0
H219 H 0.24634 0.81598 0.76213 0.0
H220 H 0.32592 0.72113 0.81712 0.0
H221 H 0.29338 0.72288 0.78681 0.0
H222 H 0.31471 0.78358 0.85162 0.0
H223 H 0.2821 0.78528 0.821 0.0
H224 H 0.25598 0.70761 0.86753 0.0
H225 H 0.25554 0.7383 0.83781 0.0
H226 H 0.24524 0.66728 0.79208 0.0
H227 H 0.2452 0.69805 0.76237 0.0
N228 N 0.23485 0.74123 0.75839 0.0
N229 N 0.26374 0.77257 0.76602 0.0
C230 C 0.33184 0.2896 0.80859 0.0
C231 C 0.3356 0.27388 0.82854 0.0
C232 C 0.31285 0.29008 0.79179 0.0
C233 C 0.29724 0.27505 0.79505 0.0
C234 C 0.31991 0.25895 0.83174 0.0
C235 C 0.30098 0.25949 0.8151 0.0
C236 C 0.27751 0.27423 0.77657 0.0
C237 C 0.27492 0.33617 0.8258 0.0
C238 C 0.27116 0.35374 0.80899 0.0
C239 C 0.27332 0.31592 0.81351 0.0
C240 C 0.26843 0.3129 0.78407 0.0
C241 C 0.26649 0.35074 0.77952 0.0
C242 C 0.26515 0.33048 0.76717 0.0
C243 C 0.26442 0.29169 0.77113 0.0
C244 C 0.1872 0.24935 0.71106 0.0
C245 C 0.17932 0.26666 0.69587 0.0
C246 C 0.20663 0.2504 0.72664 0.0
C247 C 0.21953 0.2682 0.72591 0.0
C248 C 0.1918 0.28494 0.69655 0.0
C249 C 0.2117 0.28556 0.71098 0.0
C250 C 0.24039 0.2697 0.74218 0.0
C251 C 0.24553 0.20914 0.69023 0.0
C252 C 0.24617 0.19121 0.70687 0.0
C253 C 0.24774 0.22916 0.70317 0.0
C254 C 0.25061 0.23157 0.73292 0.0
C255 C 0.2489 0.19378 0.73671 0.0
C256 C 0.25131 0.21378 0.74959 0.0
C257 C 0.254 0.25248 0.74681 0.0
H258 H 0.34377 0.30118 0.80551 0.0
H259 H 0.31054 0.30191 0.77593 0.0
H260 H 0.32223 0.24684 0.84722 0.0
H261 H 0.2892 0.24768 0.8179 0.0
H262 H 0.27806 0.33806 0.84869 0.0
H263 H 0.27509 0.30267 0.82723 0.0
H264 H 0.26346 0.36405 0.76616 0.0
H265 H 0.26111 0.32851 0.74445 0.0
H266 H 0.17851 0.23481 0.71109 0.0
H267 H 0.21128 0.23723 0.73947 0.0
H268 H 0.18626 0.299 0.68626 0.0
H269 H 0.22093 0.29979 0.71061 0.0
H270 H 0.24388 0.20769 0.66718 0.0
H271 H 0.24757 0.24273 0.68995 0.0
H272 H 0.2492 0.18033 0.75013 0.0
H273 H 0.25359 0.21539 0.77261 0.0
N274 N 0.27177 0.25537 0.76408 0.0
N275 N 0.24638 0.28867 0.75429 0.0
C276 C 0.81 0.23847 0.71091 0.0
C277 C 0.81478 0.25622 0.69566 0.0
C278 C 0.79285 0.23861 0.72763 0.0
C279 C 0.77985 0.25634 0.72894 0.0
C280 C 0.80195 0.27407 0.69751 0.0
C281 C 0.78472 0.27412 0.71401 0.0
C282 C 0.76192 0.25708 0.74707 0.0
C283 C 0.749 0.20473 0.68094 0.0
C284 C 0.74534 0.1849 0.69179 0.0
C285 C 0.74914 0.22292 0.69867 0.0
C286 C 0.7463 0.22167 0.72793 0.0
C287 C 0.74172 0.18373 0.72077 0.0
C288 C 0.74221 0.20188 0.73861 0.0
C289 C 0.74684 0.24078 0.7474 0.0
C290 C 0.68429 0.28032 0.82364 0.0
C291 C 0.67903 0.2626 0.83845 0.0
C292 C 0.70067 0.27945 0.80566 0.0
C293 C 0.71259 0.26103 0.80286 0.0
C294 C 0.69039 0.24394 0.83485 0.0
C295 C 0.70703 0.24318 0.81724 0.0
C296 C 0.7303 0.25998 0.78425 0.0
C297 C 0.74823 0.31049 0.85195 0.0
C298 C 0.74714 0.33079 0.84117 0.0
C299 C 0.74762 0.29272 0.83342 0.0
C300 C 0.74613 0.2949 0.80373 0.0
C301 C 0.74578 0.33292 0.81145 0.0
C302 C 0.74556 0.31516 0.79295 0.0
C303 C 0.74539 0.27617 0.78386 0.0
H304 H 0.81946 0.22441 0.70987 0.0
H305 H 0.78984 0.22491 0.73963 0.0
H306 H 0.8054 0.28816 0.68657 0.0
H307 H 0.77514 0.28811 0.71508 0.0
H308 H 0.75143 0.20621 0.65858 0.0
H309 H 0.7514 0.23797 0.6894 0.0
H310 H 0.73887 0.1687 0.7298 0.0
H311 H 0.73968 0.20039 0.76093 0.0
H312 H 0.67548 0.29475 0.82561 0.0
H313 H 0.70387 0.29316 0.79379 0.0
H314 H 0.68659 0.23004 0.84601 0.0
H315 H 0.71575 0.2287 0.81514 0.0
H316 H 0.74925 0.30837 0.87473 0.0
H317 H 0.74834 0.27726 0.84226 0.0
H318 H 0.74511 0.34836 0.80255 0.0
H319 H 0.74455 0.31723 0.77015 0.0
N320 N 0.76047 0.27411 0.76515 0.0
N321 N 0.73173 0.24291 0.76618 0.0
C322 C 0.80146 0.75149 0.6606 0.0
C323 C 0.82191 0.7481 0.67276 0.0
C324 C 0.78426 0.75019 0.67706 0.0
C325 C 0.78716 0.74554 0.706 0.0
C326 C 0.82469 0.7433 0.70174 0.0
C327 C 0.80747 0.74186 0.7181 0.0
C328 C 0.76914 0.74394 0.72369 0.0
C329 C 0.77374 0.81198 0.70351 0.0
C330 C 0.75554 0.82027 0.68969 0.0
C331 C 0.77332 0.79214 0.71498 0.0
C332 C 0.75483 0.78009 0.71209 0.0
C333 C 0.73702 0.80835 0.68711 0.0
C334 C 0.73668 0.78841 0.69824 0.0
C335 C 0.75368 0.75963 0.72548 0.0
C336 C 0.70466 0.7341 0.82174 0.0
C337 C 0.68418 0.73849 0.81052 0.0
C338 C 0.72135 0.7338 0.80421 0.0
C339 C 0.71785 0.7377 0.77507 0.0
C340 C 0.68078 0.74234 0.78131 0.0
C341 C 0.69747 0.74211 0.76384 0.0
C342 C 0.73547 0.73872 0.75655 0.0
C343 C 0.73155 0.67229 0.78305 0.0
C344 C 0.74992 0.66495 0.79759 0.0
C345 C 0.73181 0.69104 0.7687 0.0
C346 C 0.7503 0.70298 0.76938 0.0
C347 C 0.76857 0.67647 0.79732 0.0
C348 C 0.76875 0.69534 0.78333 0.0
C349 C 0.75094 0.72301 0.75477 0.0
H350 H 0.7987 0.75481 0.63824 0.0
H351 H 0.76866 0.75261 0.6671 0.0
H352 H 0.8402 0.74089 0.71193 0.0
H353 H 0.81005 0.7382 0.74038 0.0
H354 H 0.78811 0.82107 0.70604 0.0
H355 H 0.7873 0.78644 0.7266 0.0
H356 H 0.72284 0.81441 0.67635 0.0
H357 H 0.72219 0.77949 0.6961 0.0
H358 H 0.7079 0.73143 0.84422 0.0
H359 H 0.73704 0.73094 0.81354 0.0
H360 H 0.66518 0.7455 0.77187 0.0
H361 H 0.69444 0.74532 0.74146 0.0
H362 H 0.71706 0.66347 0.78272 0.0
H363 H 0.71757 0.69615 0.75709 0.0
H364 H 0.78288 0.67116 0.80858 0.0
H365 H 0.78326 0.70417 0.78383 0.0
N366 N 0.76722 0.72629 0.73855 0.0
N367 N 0.73741 0.75634 0.74166 0.0
C368 C 0.03033 0.27663 0.56762 0.0
C369 C 0.03701 0.29692 0.57561 0.0
C370 C 0.02552 0.31017 0.55865 0.0
C371 C 0.01269 0.29738 0.54106 0.0
N372 N 0.01507 0.27668 0.54596 0.0
Co373 Co 0.00104 0.25256 0.52332 0.0
N374 N 0.98616 0.27212 0.49621 0.0
C375 C 0.9878 0.29328 0.49635 0.0
C376 C 0.97512 0.3024 0.47553 0.0
C377 C 0.96444 0.28611 0.46152 0.0
C378 C 0.97126 0.26798 0.47477 0.0
N379 N 0.98693 0.22846 0.50076 0.0
C380 C 0.97182 0.22861 0.479 0.0
C381 C 0.96548 0.20846 0.47005 0.0
C382 C 0.97678 0.19504 0.4871 0.0
C383 C 0.98928 0.20773 0.50541 0.0
N384 N 0.01598 0.23299 0.55032 0.0
C385 C 0.0144 0.21179 0.54996 0.0
C386 C 0.02638 0.2027 0.57149 0.0
C387 C 0.03657 0.21901 0.58614 0.0
C388 C 0.03034 0.23717 0.57244 0.0
N389 N 0.97704 0.25421 0.54769 0.0
C390 C 0.9415 0.25596 0.57968 0.0
C391 C 0.95159 0.23695 0.57429 0.0
C392 C 0.96909 0.23643 0.55836 0.0
C393 C 0.9498 0.27418 0.56922 0.0
C394 C 0.96747 0.27297 0.5535 0.0
N395 N 0.02504 0.25087 0.49889 0.0
C396 C 0.05108 0.23042 0.47557 0.0
C397 C 0.06 0.24856 0.46581 0.0
C398 C 0.05098 0.26786 0.47274 0.0
C399 C 0.03365 0.26865 0.48906 0.0
C400 C 0.03381 0.23193 0.49195 0.0
H401 H 0.02764 0.28385 0.49364 0.0
H402 H 0.02792 0.21753 0.49884 0.0
H403 H 0.97577 0.2214 0.5548 0.0
H404 H 0.97294 0.28737 0.54598 0.0
C405 C 5e-05 0.30423 0.51776 0.0
C406 C 0.03965 0.25775 0.57999 0.0
C407 C 0.9621 0.24742 0.4675 0.0
C408 C 0.00205 0.2008 0.52858 0.0
H409 H 0.04941 0.30184 0.59129 0.0
H410 H 0.02708 0.32708 0.55823 0.0
H411 H 0.97329 0.31897 0.47168 0.0
H412 H 0.9525 0.28745 0.44412 0.0
H413 H 0.95349 0.20398 0.45347 0.0
H414 H 0.97547 0.17809 0.4869 0.0
H415 H 0.02788 0.18615 0.57566 0.0
H416 H 0.04778 0.21765 0.60439 0.0
H417 H 0.94609 0.22242 0.58241 0.0
H418 H 0.94249 0.2893 0.57263 0.0
H419 H 0.05726 0.21503 0.47042 0.0
H420 H 0.05744 0.28242 0.46603 0.0
C421 C 0.72675 0.04192 0.55462 0.0
C422 C 0.70733 0.04882 0.56238 0.0
C423 C 0.69267 0.03603 0.54811 0.0
C424 C 0.70388 0.02197 0.53269 0.0
N425 N 0.72487 0.02488 0.53632 0.0
Co426 Co 0.74688 0.00746 0.51832 0.0
N427 N 0.72517 0.98911 0.49642 0.0
C428 C 0.70412 0.99085 0.49691 0.0
C429 C 0.69313 0.97566 0.48075 0.0
C430 C 0.70799 0.96344 0.46914 0.0
C431 C 0.72734 0.97202 0.47869 0.0
N432 N 0.7689 0.98987 0.50059 0.0
C433 C 0.76703 0.97299 0.48201 0.0
C434 C 0.78651 0.96596 0.47461 0.0
C435 C 0.80115 0.97839 0.4895 0.0
C436 C 0.78991 0.99242 0.5049 0.0
N437 N 0.76858 0.02599 0.5399 0.0
C438 C 0.78962 0.02449 0.53905 0.0
C439 C 0.80057 0.03989 0.55487 0.0
C440 C 0.78569 0.05208 0.56649 0.0
C441 C 0.76638 0.04327 0.55727 0.0
N442 N 0.74759 0.98824 0.55041 0.0
C443 C 0.74887 0.95642 0.58999 0.0
C444 C 0.76725 0.96625 0.58343 0.0
C445 C 0.76625 0.98208 0.56372 0.0
C446 C 0.72977 0.96373 0.57808 0.0
C447 C 0.72949 0.9797 0.55869 0.0
N448 N 0.74618 0.02658 0.48615 0.0
C449 C 0.76433 0.04764 0.45428 0.0
C450 C 0.74541 0.05584 0.44305 0.0
C451 C 0.72682 0.04864 0.45293 0.0
C452 C 0.72756 0.034 0.47425 0.0
C453 C 0.76435 0.03313 0.47564 0.0
H454 H 0.71289 0.02919 0.48102 0.0
H455 H 0.7793 0.0278 0.48365 0.0
H456 H 0.78081 0.9886 0.55897 0.0
H457 H 0.71446 0.9844 0.55015 0.0
C458 C 0.69514 0.0062 0.51408 0.0
C459 C 0.74645 0.05218 0.56516 0.0
C460 C 0.74728 0.96307 0.47078 0.0
C461 C 0.79863 0.00865 0.52276 0.0
H462 H 0.70404 0.06182 0.5768 0.0
H463 H 0.67583 0.03695 0.54876 0.0
H464 H 0.67632 0.97344 0.47823 0.0
H465 H 0.70483 0.94957 0.45556 0.0
H466 H 0.78987 0.95321 0.45984 0.0
H467 H 0.818 0.97746 0.48894 0.0
H468 H 0.81738 0.04217 0.55733 0.0
H469 H 0.78878 0.06604 0.57994 0.0
H470 H 0.7824 0.96108 0.59238 0.0
H471 H 0.71512 0.9568 0.58318 0.0
H472 H 0.77914 0.05294 0.44737 0.0
H473 H 0.71178 0.05444 0.44449 0.0
C474 C 0.03622 0.7758 0.54238 0.0
C475 C 0.04334 0.79553 0.55228 0.0
C476 C 0.0321 0.80983 0.53665 0.0
C477 C 0.01889 0.7981 0.51809 0.0
N478 N 0.02078 0.77712 0.52115 0.0
Co479 Co 0.00565 0.75431 0.49724 0.0
N480 N 0.98937 0.77539 0.47405 0.0
C481 C 0.99083 0.79657 0.47668 0.0
C482 C 0.97685 0.80684 0.45861 0.0
C483 C 0.96536 0.7913 0.44409 0.0
C484 C 0.97303 0.77241 0.45431 0.0
N485 N 0.99087 0.73153 0.47286 0.0
C486 C 0.97441 0.73282 0.4531 0.0
C487 C 0.96805 0.71311 0.44216 0.0
C488 C 0.9808 0.69886 0.45571 0.0
C489 C 0.99411 0.71059 0.47417 0.0
N490 N 0.02142 0.7332 0.52102 0.0
C491 C 0.01966 0.71203 0.5185 0.0
C492 C 0.03246 0.70168 0.53798 0.0
C493 C 0.04319 0.71714 0.55374 0.0
C494 C 0.03637 0.73609 0.54276 0.0
N495 N 0.98287 0.75423 0.52353 0.0
C496 C 0.94814 0.75419 0.5568 0.0
C497 C 0.95633 0.73542 0.54624 0.0
C498 C 0.97364 0.73578 0.52998 0.0
C499 C 0.95801 0.77297 0.55116 0.0
C500 C 0.9752 0.77264 0.53454 0.0
N501 N 0.02847 0.75438 0.47075 0.0
C502 C 0.05541 0.73607 0.44629 0.0
C503 C 0.06166 0.75465 0.43462 0.0
C504 C 0.05094 0.77307 0.44111 0.0
C505 C 0.03463 0.77261 0.45917 0.0
C506 C 0.03885 0.73626 0.46397 0.0
H507 H 0.02742 0.78726 0.46357 0.0
H508 H 0.03483 0.72152 0.47193 0.0
H509 H 0.9791 0.72094 0.52252 0.0
H510 H 0.98179 0.78749 0.53044 0.0
C511 C 0.00476 0.8063 0.49734 0.0
C512 C 0.0453 0.7563 0.55281 0.0
C513 C 0.96338 0.75218 0.44605 0.0
C514 C 0.00722 0.70235 0.49607 0.0
H515 H 0.05567 0.79924 0.56871 0.0
H516 H 0.03363 0.82676 0.53828 0.0
H517 H 0.97478 0.82362 0.45689 0.0
H518 H 0.95237 0.79358 0.42841 0.0
H519 H 0.95498 0.70926 0.42694 0.0
H520 H 0.97962 0.68192 0.45367 0.0
H521 H 0.03423 0.68488 0.53992 0.0
H522 H 0.05508 0.71474 0.57093 0.0
H523 H 0.94941 0.72045 0.55055 0.0
H524 H 0.95217 0.78791 0.5589 0.0
H525 H 0.06313 0.72135 0.44156 0.0
H526 H 0.05537 0.7879 0.43273 0.0
C527 C 0.26951 0.96625 0.56189 0.0
C528 C 0.28888 0.95828 0.57154 0.0
C529 C 0.30374 0.97055 0.56109 0.0
C530 C 0.29276 0.98512 0.5454 0.0
N531 N 0.27171 0.98303 0.54523 0.0
Co532 Co 0.25014 0.99992 0.52265 0.0
N533 N 0.27218 0.01752 0.50647 0.0
C534 C 0.29313 0.0162 0.5126 0.0
C535 C 0.30441 0.03102 0.49999 0.0
C536 C 0.28985 0.04262 0.48489 0.0
C537 C 0.27038 0.03403 0.48886 0.0
N538 N 0.22859 0.0165 0.49961 0.0
C539 C 0.23082 0.03243 0.48154 0.0
C540 C 0.21156 0.03862 0.46899 0.0
C541 C 0.19668 0.02666 0.47994 0.0
C542 C 0.20758 0.01368 0.49825 0.0
N543 N 0.22809 0.98263 0.53925 0.0
C544 C 0.20709 0.98487 0.5346 0.0
C545 C 0.19575 0.97143 0.5495 0.0
C546 C 0.21033 0.95975 0.56448 0.0
C547 C 0.22986 0.96657 0.55759 0.0
N548 N 0.24914 0.0207 0.55487 0.0
C549 C 0.24819 0.05366 0.59599 0.0
C550 C 0.22966 0.04554 0.5824 0.0
C551 C 0.23049 0.02915 0.56206 0.0
C552 C 0.2671 0.0443 0.58991 0.0
C553 C 0.2672 0.02781 0.56962 0.0
N554 N 0.25115 0.9792 0.49041 0.0
C555 C 0.23357 0.95472 0.4562 0.0
C556 C 0.25274 0.94779 0.44719 0.0
C557 C 0.27106 0.95725 0.45949 0.0
C558 C 0.26991 0.9729 0.48079 0.0
C559 C 0.23315 0.97032 0.47769 0.0
H560 H 0.28442 0.97949 0.48931 0.0
H561 H 0.21809 0.97466 0.48392 0.0
H562 H 0.21588 0.02401 0.55194 0.0
H563 H 0.28211 0.02143 0.56584 0.0
C564 C 0.30176 1.00082 0.53032 0.0
C565 C 0.24955 0.95708 0.5688 0.0
C566 C 0.25068 0.04233 0.47572 0.0
C567 C 0.1985 0.99915 0.51515 0.0
H568 H 0.29205 0.94483 0.58451 0.0
H569 H 0.32058 0.96885 0.56423 0.0
H570 H 0.32123 0.03327 0.50178 0.0
H571 H 0.29326 0.05603 0.47259 0.0
H572 H 0.2085 0.05061 0.45355 0.0
H573 H 0.17988 0.02742 0.47525 0.0
H574 H 0.17888 0.97012 0.54927 0.0
H575 H 0.20689 0.9475 0.57873 0.0
H576 H 0.21463 0.05236 0.58654 0.0
H577 H 0.2818 0.04989 0.60045 0.0
H578 H 0.21897 0.94771 0.44732 0.0
H579 H 0.28624 0.95255 0.45277 0.0
C580 C 0.53649 0.7658 0.04371 0.0
C581 C 0.54254 0.78524 0.05598 0.0
C582 C 0.53125 0.79996 0.04117 0.0
C583 C 0.51888 0.78872 0.02099 0.0
N584 N 0.52139 0.76768 0.02222 0.0
Co585 Co 0.50611 0.74548 0.99747 0.0
N586 N 0.49098 0.7672 0.97408 0.0
C587 C 0.49383 0.78825 0.97625 0.0
C588 C 0.48099 0.79907 0.95731 0.0
C589 C 0.469 0.78405 0.94245 0.0
C590 C 0.4752 0.76491 0.95338 0.0
N591 N 0.49015 0.72331 0.97335 0.0
C592 C 0.47387 0.72531 0.95348 0.0
C593 C 0.46599 0.70591 0.94339 0.0
C594 C 0.47755 0.6911 0.95765 0.0
C595 C 0.49166 0.70225 0.97565 0.0
N596 N 0.52186 0.72374 0.02026 0.0
C597 C 0.52039 0.70263 0.01625 0.0
C598 C 0.53429 0.69176 0.03367 0.0
C599 C 0.54557 0.7068 0.0495 0.0
C600 C 0.53773 0.72608 0.04093 0.0
N601 N 0.48337 0.74581 0.02389 0.0
C602 C 0.4489 0.74577 0.05781 0.0
C603 C 0.45958 0.72722 0.05165 0.0
C604 C 0.47662 0.7276 0.03483 0.0
C605 C 0.45617 0.76444 0.04732 0.0
C606 C 0.47333 0.76412 0.03068 0.0
N607 N 0.52886 0.74512 0.97095 0.0
C608 C 0.55165 0.72589 0.94061 0.0
C609 C 0.56237 0.74424 0.93534 0.0
C610 C 0.55587 0.7631 0.94789 0.0
C611 C 0.53917 0.7632 0.96535 0.0
C612 C 0.53513 0.72667 0.95834 0.0
H613 H 0.53499 0.77809 0.97419 0.0
H614 H 0.52787 0.71207 0.96173 0.0
H615 H 0.4839 0.71289 0.03069 0.0
H616 H 0.47795 0.77884 0.02312 0.0
C617 C 0.50645 0.79748 0.99882 0.0
C618 C 0.54647 0.74617 0.05206 0.0
C619 C 0.46462 0.7452 0.9449 0.0
C620 C 0.50604 0.69349 0.99561 0.0
H621 H 0.55434 0.78846 0.07331 0.0
H622 H 0.53248 0.81686 0.04411 0.0
H623 H 0.47975 0.81592 0.95553 0.0
H624 H 0.45655 0.78689 0.92617 0.0
H625 H 0.4529 0.70277 0.92788 0.0
H626 H 0.47552 0.67422 0.95571 0.0
H627 H 0.53628 0.67491 0.03436 0.0
H628 H 0.55839 0.70382 0.06513 0.0
H629 H 0.45483 0.71241 0.05975 0.0
H630 H 0.44837 0.77922 0.05131 0.0
H631 H 0.55624 0.71086 0.93157 0.0
H632 H 0.56353 0.77779 0.94409 0.0
C633 C 0.23128 0.5274 0.05386 0.0
C634 C 0.21235 0.53226 0.065 0.0
C635 C 0.19831 0.51711 0.05421 0.0
C636 C 0.20948 0.50392 0.03724 0.0
N637 N 0.22958 0.50991 0.03687 0.0
Co638 Co 0.25127 0.49624 0.01509 0.0
N639 N 0.22983 0.48225 0.98846 0.0
C640 C 0.20952 0.47943 0.99309 0.0
C641 C 0.19834 0.46958 0.97037 0.0
C642 C 0.21256 0.46579 0.95044 0.0
C643 C 0.23178 0.47337 0.96227 0.0
N644 N 0.27311 0.48251 0.99353 0.0
C645 C 0.27154 0.47324 0.96717 0.0
C646 C 0.2907 0.46474 0.96063 0.0
C647 C 0.30455 0.46882 0.98385 0.0
C648 C 0.29319 0.47948 0.00326 0.0
N649 N 0.27259 0.51021 0.0419 0.0
C650 C 0.29272 0.50449 0.04679 0.0
C651 C 0.30375 0.51805 0.06576 0.0
C652 C 0.2896 0.53314 0.07314 0.0
C653 C 0.27065 0.52779 0.05834 0.0
N654 N 0.2512 0.47194 0.03992 0.0
C655 C 0.25127 0.4371 0.0755 0.0
C656 C 0.2507 0.45782 0.08682 0.0
C657 C 0.25077 0.4749 0.06882 0.0
C658 C 0.25177 0.43441 0.04579 0.0
C659 C 0.25161 0.45188 0.02851 0.0
N660 N 0.25132 0.52055 0.99032 0.0
C661 C 0.27014 0.5468 0.96654 0.0
C662 C 0.25132 0.55613 0.95608 0.0
C663 C 0.23251 0.54702 0.96324 0.0
C664 C 0.23285 0.52932 0.98015 0.0
C665 C 0.2698 0.52917 0.98355 0.0
H666 H 0.21809 0.52284 0.98523 0.0
H667 H 0.28455 0.52252 0.99131 0.0
H668 H 0.25041 0.49056 0.07833 0.0
H669 H 0.25193 0.44909 0.00582 0.0
C670 C 0.20094 0.48917 0.01676 0.0
C671 C 0.25084 0.53902 0.06041 0.0
C672 C 0.25181 0.47007 0.9494 0.0
C673 C 0.30144 0.48951 0.02869 0.0
H674 H 0.20905 0.54543 0.07912 0.0
H675 H 0.1817 0.51654 0.05707 0.0
H676 H 0.18171 0.46621 0.96811 0.0
H677 H 0.20919 0.45807 0.92973 0.0
H678 H 0.29425 0.45609 0.94138 0.0
H679 H 0.32105 0.46492 0.98598 0.0
H680 H 0.32036 0.51778 0.0721 0.0
H681 H 0.29303 0.54661 0.08738 0.0
H682 H 0.24995 0.46094 0.10948 0.0
H683 H 0.25257 0.41889 0.03578 0.0
H684 H 0.28513 0.55287 0.9614 0.0
H685 H 0.21751 0.55367 0.95624 0.0
C686 C 0.47195 0.28276 0.97862 0.0
C687 C 0.46518 0.30258 0.97079 0.0
C688 C 0.47495 0.31661 0.98995 0.0
C689 C 0.48706 0.30462 0.00827 0.0
N690 N 0.48576 0.28374 0.0019 0.0
Co691 Co 0.5006 0.26061 0.02304 0.0
N692 N 0.51475 0.28129 0.05131 0.0
C693 C 0.51206 0.30235 0.05273 0.0
C694 C 0.52381 0.31232 0.07476 0.0
C695 C 0.53503 0.29676 0.08786 0.0
C696 C 0.52959 0.27816 0.07277 0.0
N697 N 0.51557 0.23752 0.04423 0.0
C698 C 0.53119 0.2387 0.06541 0.0
C699 C 0.53861 0.21889 0.07232 0.0
C700 C 0.52726 0.20475 0.05501 0.0
C701 C 0.51376 0.2166 0.03835 0.0
N702 N 0.48643 0.23993 0.99467 0.0
C703 C 0.48838 0.21877 0.99411 0.0
C704 C 0.47646 0.20875 0.97226 0.0
C705 C 0.46614 0.22442 0.9581 0.0
C706 C 0.4724 0.24315 0.97224 0.0
N707 N 0.52446 0.26273 0.99874 0.0
C708 C 0.55898 0.26534 0.96539 0.0
C709 C 0.55091 0.24592 0.97184 0.0
C710 C 0.53368 0.24498 0.98816 0.0
C711 C 0.54944 0.2835 0.97568 0.0
C712 C 0.53243 0.28185 0.99246 0.0
N713 N 0.47664 0.25842 0.04744 0.0
C714 C 0.45135 0.23729 0.06945 0.0
C715 C 0.44217 0.25518 0.08111 0.0
C716 C 0.45059 0.27473 0.07573 0.0
C717 C 0.46762 0.27598 0.05895 0.0
C718 C 0.4684 0.23925 0.05291 0.0
H719 H 0.47306 0.29135 0.05547 0.0
H720 H 0.47457 0.22498 0.04478 0.0
H721 H 0.52814 0.22969 0.99199 0.0
H722 H 0.52606 0.29621 1.00028 0.0
C723 C 0.49934 0.31245 0.03209 0.0
C724 C 0.46412 0.26349 0.96399 0.0
C725 C 0.54014 0.25826 0.07826 0.0
C726 C 0.5011 0.20874 0.01485 0.0
H727 H 0.45407 0.30646 0.95328 0.0
H728 H 0.4732 0.33352 0.99068 0.0
H729 H 0.52458 0.32899 0.08013 0.0
H730 H 0.54645 0.29893 0.10592 0.0
H731 H 0.55138 0.21491 0.08748 0.0
H732 H 0.52936 0.18789 0.05372 0.0
H733 H 0.47522 0.19203 0.96744 0.0
H734 H 0.45508 0.22233 0.93964 0.0
H735 H 0.55771 0.23145 0.96398 0.0
H736 H 0.55531 0.29888 0.97122 0.0
H737 H 0.44557 0.22176 0.07331 0.0
H738 H 0.44387 0.28909 0.08403 0.0
C739 C 0.72755 0.54412 0.04823 0.0
C740 C 0.70803 0.55207 0.05398 0.0
C741 C 0.69342 0.53967 0.03895 0.0
C742 C 0.7047 0.52472 0.0252 0.0
N743 N 0.7257 0.52675 0.03053 0.0
Co744 Co 0.74768 0.5072 0.0165 0.0
N745 N 0.72601 0.48871 0.9948 0.0
C746 C 0.70501 0.49169 0.99284 0.0
C747 C 0.69411 0.4771 0.9755 0.0
C748 C 0.70897 0.46394 0.96574 0.0
C749 C 0.7282 0.47115 0.97798 0.0
N750 N 0.76964 0.48751 0.00276 0.0
C751 C 0.76774 0.46962 0.98608 0.0
C752 C 0.78709 0.46029 0.98296 0.0
C753 C 0.80173 0.47285 0.99765 0.0
C754 C 0.79059 0.48899 0.00913 0.0
N755 N 0.76937 0.52582 0.03789 0.0
C756 C 0.79042 0.52331 0.03885 0.0
C757 C 0.80145 0.53907 0.0538 0.0
C758 C 0.78663 0.55247 0.06311 0.0
C759 C 0.76724 0.54395 0.05359 0.0
N760 N 0.74581 0.49029 0.05061 0.0
C761 C 0.74328 0.46375 0.09653 0.0
C762 C 0.76263 0.47108 0.08922 0.0
C763 C 0.76351 0.48431 0.06645 0.0
C764 C 0.72518 0.47065 0.08132 0.0
C765 C 0.7268 0.48381 0.05862 0.0
N766 N 0.74955 0.52408 0.98236 0.0
C767 C 0.77025 0.54197 0.9499 0.0
C768 C 0.75215 0.54931 0.9352 0.0
C769 C 0.73274 0.54347 0.94394 0.0
C770 C 0.73181 0.53103 0.9675 0.0
C771 C 0.76859 0.5293 0.97312 0.0
H772 H 0.71657 0.52751 0.97348 0.0
H773 H 0.78294 0.52411 0.98335 0.0
H774 H 0.77872 0.48914 0.06174 0.0
H775 H 0.71245 0.48821 0.04765 0.0
C776 C 0.69599 0.50842 0.00746 0.0
C777 C 0.74732 0.55363 0.06019 0.0
C778 C 0.74807 0.46084 0.97275 0.0
C779 C 0.79936 0.50592 0.02556 0.0
H780 H 0.70458 0.56536 0.06778 0.0
H781 H 0.67655 0.54123 0.03836 0.0
H782 H 0.67734 0.47623 0.97039 0.0
H783 H 0.70591 0.45061 0.9511 0.0
H784 H 0.79035 0.44586 0.97129 0.0
H785 H 0.81852 0.47052 0.99971 0.0
H786 H 0.81829 0.54067 0.05742 0.0
H787 H 0.78983 0.56692 0.07547 0.0
H788 H 0.77711 0.46603 0.1003 0.0
H789 H 0.70981 0.46568 0.08659 0.0
H790 H 0.78562 0.54606 0.94357 0.0
H791 H 0.71833 0.54905 0.93323 0.0
C792 C 0.16722 0.25456 0.38867 0.0
C793 C 0.16651 0.24128 0.36418 0.0
C794 C 0.15019 0.25586 0.40575 0.0
C795 C 0.1321 0.24346 0.39827 0.0
C796 C 0.13142 0.22982 0.37378 0.0
C797 C 0.1486 0.22896 0.35697 0.0
C798 C 0.15143 0.27073 0.43157 0.0
C799 C 0.1125 0.21619 0.36528 0.0
C800 C 0.0948 0.23309 0.45523 0.0
C801 C 0.07858 0.24735 0.44862 0.0
C802 C 0.11231 0.23167 0.43906 0.0
C803 C 0.11376 0.24494 0.41584 0.0
C804 C 0.09756 0.25948 0.40917 0.0
C805 C 0.08014 0.26044 0.42555 0.0
C806 C 0.12926 0.21593 0.44678 0.0
C807 C 0.09856 0.27393 0.38461 0.0
H808 H 0.18096 0.26427 0.39414 0.0
H809 H 0.1481 0.21848 0.33825 0.0
H810 H 0.13876 0.28257 0.42933 0.0
H811 H 0.14903 0.26199 0.451 0.0
H812 H 0.16672 0.27907 0.43468 0.0
H813 H 0.11462 0.20614 0.34592 0.0
H814 H 0.10929 0.20593 0.38297 0.0
H815 H 0.09848 0.22617 0.36111 0.0
H816 H 0.09391 0.22315 0.47328 0.0
H817 H 0.06757 0.27129 0.42002 0.0
H818 H 0.14445 0.22413 0.4518 0.0
H819 H 0.13121 0.20491 0.42836 0.0
H820 H 0.12572 0.20669 0.46538 0.0
H821 H 0.11313 0.28347 0.38738 0.0
H822 H 0.08493 0.28472 0.38268 0.0
H823 H 0.09906 0.26455 0.36435 0.0
C824 C 0.73984 0.14888 0.33284 0.0
C825 C 0.75482 0.16397 0.34294 0.0
C826 C 0.73798 0.12999 0.34671 0.0
C827 C 0.75134 0.12627 0.37131 0.0
C828 C 0.76687 0.14118 0.38117 0.0
C829 C 0.76846 0.15986 0.36678 0.0
C830 C 0.7213 0.11436 0.33561 0.0
C831 C 0.78139 0.13767 0.40738 0.0
C832 C 0.73334 0.09093 0.4273 0.0
C833 C 0.7453 0.07289 0.42269 0.0
C834 C 0.73472 0.10824 0.41013 0.0
C835 C 0.74833 0.10737 0.38781 0.0
C836 C 0.75985 0.0889 0.38236 0.0
C837 C 0.75824 0.07184 0.39998 0.0
C838 C 0.72228 0.12776 0.41662 0.0
C839 C 0.77434 0.08742 0.35852 0.0
H840 H 0.7291 0.15212 0.31461 0.0
H841 H 0.78027 0.17137 0.37434 0.0
H842 H 0.72825 0.09854 0.33278 0.0
H843 H 0.70935 0.11313 0.35135 0.0
H844 H 0.71332 0.11889 0.31496 0.0
H845 H 0.79318 0.15043 0.41149 0.0
H846 H 0.77214 0.13675 0.4263 0.0
H847 H 0.78974 0.12252 0.40506 0.0
H848 H 0.72354 0.09185 0.44509 0.0
H849 H 0.76732 0.05778 0.39629 0.0
H850 H 0.71287 0.13259 0.3972 0.0
H851 H 0.73314 0.14089 0.42343 0.0
H852 H 0.71157 0.12544 0.43372 0.0
H853 H 0.76587 0.09168 0.33811 0.0
H854 H 0.78099 0.07142 0.35585 0.0
H855 H 0.78745 0.09875 0.36296 0.0
C856 C 0.8453 0.74235 0.37527 0.0
C857 C 0.84113 0.75997 0.35888 0.0
C858 C 0.86465 0.74022 0.39105 0.0
C859 C 0.87989 0.75631 0.39077 0.0
C860 C 0.87534 0.77454 0.37514 0.0
C861 C 0.85607 0.77602 0.35908 0.0
C862 C 0.8691 0.72043 0.40708 0.0
C863 C 0.89101 0.79223 0.37481 0.0
C864 C 0.92525 0.75949 0.44759 0.0
C865 C 0.94171 0.75162 0.43244 0.0
C866 C 0.90489 0.76078 0.43447 0.0
C867 C 0.90099 0.75377 0.40566 0.0
C868 C 0.91755 0.74529 0.39054 0.0
C869 C 0.93783 0.7446 0.40404 0.0
C870 C 0.88775 0.77027 0.45112 0.0
C871 C 0.91394 0.73738 0.35993 0.0
H872 H 0.83374 0.72988 0.37482 0.0
H873 H 0.85271 0.78967 0.34643 0.0
H874 H 0.88221 0.71181 0.39789 0.0
H875 H 0.87407 0.72437 0.42974 0.0
H876 H 0.85525 0.70985 0.40619 0.0
H877 H 0.88443 0.80595 0.36334 0.0
H878 H 0.89635 0.79745 0.39693 0.0
H879 H 0.90502 0.78665 0.36428 0.0
H880 H 0.92846 0.76506 0.46954 0.0
H881 H 0.95073 0.73885 0.39232 0.0
H882 H 0.87422 0.75935 0.45059 0.0
H883 H 0.88205 0.78491 0.44114 0.0
H884 H 0.89318 0.77404 0.47372 0.0
H885 H 0.90084 0.72588 0.35771 0.0
H886 H 0.9281 0.72977 0.35197 0.0
H887 H 0.90943 0.75064 0.34615 0.0
C888 C 0.26535 0.85836 0.32575 0.0
C889 C 0.25185 0.84155 0.32973 0.0
C890 C 0.2661 0.87614 0.34422 0.0
C891 C 0.25315 0.87703 0.36725 0.0
C892 C 0.23959 0.86009 0.37149 0.0
C893 C 0.23905 0.84256 0.3526 0.0
C894 C 0.28075 0.89397 0.3391 0.0
C895 C 0.22558 0.86051 0.39592 0.0
C896 C 0.26766 0.91369 0.4308 0.0
C897 C 0.25359 0.93025 0.4259 0.0
C898 C 0.26788 0.89636 0.41165 0.0
C899 C 0.25376 0.89569 0.38701 0.0
C900 C 0.23981 0.91256 0.38163 0.0
C901 C 0.23985 0.92965 0.40124 0.0
C902 C 0.28286 0.87855 0.41813 0.0
C903 C 0.22468 0.91242 0.3554 0.0
H904 H 0.27548 0.85751 0.30832 0.0
H905 H 0.22839 0.82973 0.35551 0.0
H906 H 0.27173 0.90871 0.33622 0.0
H907 H 0.29208 0.89661 0.35792 0.0
H908 H 0.28962 0.89089 0.32001 0.0
H909 H 0.21615 0.84591 0.39643 0.0
H910 H 0.23517 0.86259 0.41648 0.0
H911 H 0.21474 0.87407 0.3942 0.0
H912 H 0.27811 0.91403 0.45006 0.0
H913 H 0.22912 0.94257 0.39732 0.0
H914 H 0.2927 0.87551 0.40003 0.0
H915 H 0.27391 0.86395 0.42092 0.0
H916 H 0.29331 0.88185 0.43774 0.0
H917 H 0.23332 0.91035 0.33594 0.0
H918 H 0.21539 0.92712 0.35389 0.0
H919 H 0.21371 0.89896 0.35565 0.0
C920 C 0.1463 0.74046 0.65973 0.0
C921 C 0.15899 0.75849 0.66273 0.0
C922 C 0.12778 0.73999 0.64176 0.0
C923 C 0.12175 0.75801 0.62651 0.0
C924 C 0.13447 0.77626 0.6294 0.0
C925 C 0.15296 0.77626 0.64745 0.0
C926 C 0.1146 0.72025 0.63922 0.0
C927 C 0.12854 0.79576 0.61341 0.0
C928 C 0.08377 0.75084 0.56094 0.0
C929 C 0.06486 0.7569 0.57178 0.0
C930 C 0.10247 0.75118 0.57853 0.0
C931 C 0.1021 0.75776 0.60755 0.0
C932 C 0.08293 0.7639 0.61853 0.0
C933 C 0.06446 0.76332 0.60044 0.0
C934 C 0.12258 0.74444 0.5661 0.0
C935 C 0.08194 0.77103 0.64933 0.0
H936 H 0.15068 0.72678 0.67181 0.0
H937 H 0.16282 0.79015 0.64941 0.0
H938 H 0.09874 0.72368 0.64618 0.0
H939 H 0.11259 0.71452 0.61663 0.0
H940 H 0.12164 0.70749 0.65222 0.0
H941 H 0.14008 0.80868 0.61812 0.0
H942 H 0.12734 0.79207 0.59013 0.0
H943 H 0.11293 0.80137 0.61907 0.0
H944 H 0.08387 0.74585 0.53867 0.0
H945 H 0.04967 0.7679 0.60862 0.0
H946 H 0.12941 0.7309 0.57769 0.0
H947 H 0.13422 0.75739 0.56878 0.0
H948 H 0.12017 0.73986 0.54308 0.0
H949 H 0.08753 0.75832 0.66346 0.0
H950 H 0.06582 0.77548 0.6544 0.0
H951 H 0.09245 0.78474 0.65433 0.0
C952 C 0.25797 0.15382 0.70349 0.0
C953 C 0.24487 0.16991 0.69306 0.0
C954 C 0.25785 0.13396 0.68968 0.0
C955 C 0.24453 0.13022 0.66463 0.0
C956 C 0.23088 0.14619 0.65439 0.0
C957 C 0.23113 0.16582 0.66884 0.0
C958 C 0.2725 0.11722 0.70131 0.0
C959 C 0.21653 0.14276 0.62762 0.0
C960 C 0.26132 0.08948 0.61059 0.0
C961 C 0.2479 0.0727 0.6148 0.0
C962 C 0.26045 0.10824 0.62685 0.0
C963 C 0.24593 0.11015 0.648 0.0
C964 C 0.23262 0.09312 0.65277 0.0
C965 C 0.23366 0.07458 0.63592 0.0
C966 C 0.27475 0.12618 0.62095 0.0
C967 C 0.21718 0.09456 0.67544 0.0
H968 H 0.26884 0.15692 0.72197 0.0
H969 H 0.2207 0.17806 0.66099 0.0
H970 H 0.26379 0.10238 0.7035 0.0
H971 H 0.28467 0.11387 0.68623 0.0
H972 H 0.28041 0.122 0.72239 0.0
H973 H 0.20617 0.15644 0.62328 0.0
H974 H 0.22601 0.13988 0.6091 0.0
H975 H 0.20662 0.12865 0.62934 0.0
H976 H 0.27211 0.08812 0.59395 0.0
H977 H 0.22336 0.06153 0.63924 0.0
H978 H 0.28448 0.13099 0.64062 0.0
H979 H 0.26526 0.13999 0.61434 0.0
H980 H 0.28531 0.12201 0.60396 0.0
H981 H 0.22547 0.09872 0.69646 0.0
H982 H 0.20849 0.07962 0.67713 0.0
H983 H 0.2057 0.10722 0.67061 0.0
C984 C 0.83204 0.26591 0.65178 0.0
C985 C 0.83323 0.25628 0.6782 0.0
C986 C 0.84941 0.26642 0.63534 0.0
C987 C 0.86839 0.25688 0.64537 0.0
C988 C 0.86969 0.24701 0.67189 0.0
C989 C 0.85214 0.24692 0.68804 0.0
C990 C 0.84745 0.27716 0.60721 0.0
C991 C 0.88963 0.23655 0.68322 0.0
C992 C 0.90735 0.24059 0.59182 0.0
C993 C 0.92247 0.25661 0.59599 0.0
C994 C 0.88967 0.24053 0.60768 0.0
C995 C 0.88686 0.25701 0.628 0.0
C996 C 0.90182 0.27344 0.63198 0.0
C997 C 0.91948 0.273 0.61601 0.0
C998 C 0.87409 0.22271 0.60285 0.0
C999 C 0.89927 0.29136 0.65333 0.0
H1000 H 0.81742 0.2729 0.64378 0.0
H1001 H 0.85335 0.23974 0.7086 0.0
H1002 H 0.85944 0.28973 0.60716 0.0
H1003 H 0.85037 0.26572 0.58962 0.0
H1004 H 0.83172 0.28421 0.60271 0.0
H1005 H 0.88801 0.22937 0.70408 0.0
H1006 H 0.8942 0.22411 0.66778 0.0
H1007 H 0.90259 0.24818 0.68577 0.0
H1008 H 0.90929 0.22808 0.57601 0.0
H1009 H 0.93117 0.28531 0.61962 0.0
H1010 H 0.85832 0.22895 0.5964 0.0
H1011 H 0.87283 0.21445 0.62298 0.0
H1012 H 0.87853 0.21111 0.58617 0.0
H1013 H 0.88398 0.2992 0.64869 0.0
H1014 H 0.91194 0.30326 0.6532 0.0
H1015 H 0.89929 0.28525 0.67508 0.0
C1016 C 0.77108 0.84673 0.65987 0.0
C1017 C 0.75576 0.84139 0.67803 0.0
C1018 C 0.77063 0.86625 0.64713 0.0
C1019 C 0.75462 0.88073 0.65309 0.0
C1020 C 0.73957 0.87568 0.67227 0.0
C1021 C 0.74025 0.85594 0.68439 0.0
C1022 C 0.78674 0.87104 0.62645 0.0
C1023 C 0.72244 0.89086 0.67932 0.0
C1024 C 0.76195 0.93714 0.63303 0.0
C1025 C 0.74968 0.93753 0.60713 0.0
C1026 C 0.76346 0.9188 0.6486 0.0
C1027 C 0.75269 0.90049 0.63764 0.0
C1028 C 0.74022 0.90087 0.61153 0.0
C1029 C 0.73878 0.91945 0.59665 0.0
C1030 C 0.77665 0.91895 0.67659 0.0
C1031 C 0.72872 0.88154 0.59902 0.0
H1032 H 0.78299 0.83535 0.65488 0.0
H1033 H 0.72857 0.85181 0.69875 0.0
H1034 H 0.77888 0.8727 0.60482 0.0
H1035 H 0.79468 0.88618 0.63266 0.0
H1036 H 0.7988 0.85856 0.62536 0.0
H1037 H 0.71303 0.88518 0.69638 0.0
H1038 H 0.72926 0.90639 0.68627 0.0
H1039 H 0.71178 0.89323 0.66001 0.0
H1040 H 0.7703 0.9512 0.64109 0.0
H1041 H 0.72957 0.9197 0.57636 0.0
H1042 H 0.78964 0.90751 0.67526 0.0
H1043 H 0.76705 0.91399 0.69382 0.0
H1044 H 0.78343 0.93469 0.68258 0.0
H1045 H 0.74007 0.86875 0.5953 0.0
H1046 H 0.71963 0.88456 0.57853 0.0
H1047 H 0.7178 0.87583 0.61423 0.0
C1048 C 0.84132 0.76494 0.63509 0.0
C1049 C 0.84028 0.7494 0.65531 0.0
C1050 C 0.85857 0.76631 0.61853 0.0
C1051 C 0.87531 0.75192 0.62247 0.0
C1052 C 0.87441 0.73625 0.64287 0.0
C1053 C 0.85688 0.73511 0.65891 0.0
C1054 C 0.85892 0.78315 0.59684 0.0
C1055 C 0.89197 0.72065 0.64774 0.0
C1056 C 0.91184 0.74183 0.5636 0.0
C1057 C 0.92931 0.75411 0.5733 0.0
C1058 C 0.89401 0.74126 0.57914 0.0
C1059 C 0.89373 0.75311 0.60514 0.0
C1060 C 0.91126 0.76569 0.61493 0.0
C1061 C 0.92881 0.76612 0.5988 0.0
C1062 C 0.87553 0.72786 0.56782 0.0
C1063 C 0.91161 0.7784 0.64268 0.0
H1064 H 0.82873 0.77624 0.63242 0.0
H1065 H 0.85608 0.72282 0.67409 0.0
H1066 H 0.8727 0.79355 0.60191 0.0
H1067 H 0.86049 0.77587 0.57533 0.0
H1068 H 0.84453 0.79293 0.5961 0.0
H1069 H 0.88907 0.70971 0.66485 0.0
H1070 H 0.89397 0.71129 0.62779 0.0
H1071 H 0.90694 0.72907 0.6536 0.0
H1072 H 0.91206 0.73276 0.54367 0.0
H1073 H 0.94236 0.7755 0.60644 0.0
H1074 H 0.86119 0.73762 0.56559 0.0
H1075 H 0.87265 0.71555 0.58311 0.0
H1076 H 0.87799 0.72012 0.54681 0.0
H1077 H 0.89808 0.78929 0.64236 0.0
H1078 H 0.92627 0.7877 0.64699 0.0
H1079 H 0.9101 0.76778 0.66057 0.0
C1080 C 0.23242 0.86316 0.67576 0.0
C1081 C 0.24789 0.84763 0.67422 0.0
C1082 C 0.23226 0.88082 0.65851 0.0
C1083 C 0.2483 0.88342 0.63972 0.0
C1084 C 0.26412 0.86788 0.63838 0.0
C1085 C 0.26356 0.8501 0.6553 0.0
C1086 C 0.21478 0.8966 0.6602 0.0
C1087 C 0.28182 0.87017 0.61929 0.0
C1088 C 0.2397 0.91935 0.57636 0.0
C1089 C 0.24923 0.93816 0.58707 0.0
C1090 C 0.239 0.9016 0.59331 0.0
C1091 C 0.24856 0.90237 0.62154 0.0
C1092 C 0.25842 0.9213 0.63233 0.0
C1093 C 0.25833 0.939 0.61518 0.0
C1094 C 0.22787 0.88204 0.58104 0.0
C1095 C 0.26923 0.92281 0.66196 0.0
H1096 H 0.22017 0.86128 0.69014 0.0
H1097 H 0.27566 0.83826 0.65416 0.0
H1098 H 0.22129 0.91222 0.66732 0.0
H1099 H 0.20662 0.89834 0.63875 0.0
H1100 H 0.2031 0.89201 0.67512 0.0
H1101 H 0.29323 0.85707 0.62125 0.0
H1102 H 0.27549 0.8707 0.59673 0.0
H1103 H 0.29024 0.88519 0.62465 0.0
H1104 H 0.23265 0.9186 0.55466 0.0
H1105 H 0.26557 0.95352 0.62366 0.0
H1106 H 0.21553 0.8775 0.59497 0.0
H1107 H 0.23908 0.86881 0.58025 0.0
H1108 H 0.22051 0.8842 0.5592 0.0
H1109 H 0.25776 0.92014 0.67796 0.0
H1110 H 0.27682 0.93834 0.66685 0.0
H1111 H 0.28135 0.9104 0.66435 0.0
C1112 C 0.14249 0.25217 0.68756 0.0
C1113 C 0.15826 0.26567 0.67958 0.0
C1114 C 0.12312 0.25029 0.67159 0.0
C1115 C 0.11877 0.26318 0.6481 0.0
C1116 C 0.13413 0.27746 0.64052 0.0
C1117 C 0.15384 0.27806 0.65574 0.0
C1118 C 0.10745 0.23421 0.67961 0.0
C1119 C 0.12977 0.2921 0.61626 0.0
C1120 C 0.0773 0.24807 0.58908 0.0
C1121 C 0.05981 0.25901 0.59792 0.0
C1122 C 0.0964 0.2487 0.60574 0.0
C1123 C 0.0983 0.26148 0.63107 0.0
C1124 C 0.08071 0.27272 0.63995 0.0
C1125 C 0.06145 0.27074 0.62374 0.0
C1126 C 0.11447 0.2356 0.59633 0.0
C1127 C 0.08234 0.28723 0.66614 0.0
H1128 H 0.1451 0.24294 0.70631 0.0
H1129 H 0.16578 0.2882 0.64858 0.0
H1130 H 0.09323 0.24217 0.68662 0.0
H1131 H 0.10248 0.2239 0.66078 0.0
H1132 H 0.11391 0.22423 0.69702 0.0
H1133 H 0.14247 0.30385 0.61515 0.0
H1134 H 0.12806 0.28295 0.59572 0.0
H1135 H 0.11481 0.30056 0.61867 0.0
H1136 H 0.07592 0.23883 0.56921 0.0
H1137 H 0.04775 0.27877 0.63087 0.0
H1138 H 0.1208 0.22584 0.61402 0.0
H1139 H 0.12733 0.24596 0.59075 0.0
H1140 H 0.10981 0.22511 0.57754 0.0
H1141 H 0.08634 0.27816 0.68543 0.0
H1142 H 0.06753 0.29587 0.66901 0.0
H1143 H 0.09512 0.29881 0.66459 0.0
C1144 C 0.72916 0.15063 0.67302 0.0
C1145 C 0.74532 0.16551 0.67295 0.0
C1146 C 0.72896 0.13228 0.65536 0.0
C1147 C 0.74552 0.12847 0.63751 0.0
C1148 C 0.76195 0.14338 0.63751 0.0
C1149 C 0.76156 0.16178 0.65501 0.0
C1150 C 0.71094 0.11703 0.65568 0.0
C1151 C 0.7801 0.13981 0.61924 0.0
C1152 C 0.75486 0.07185 0.61203 0.0
C1153 C 0.74618 0.07175 0.58378 0.0
C1154 C 0.75493 0.09021 0.62964 0.0
C1155 C 0.7457 0.10884 0.61894 0.0
C1156 C 0.73666 0.1087 0.59048 0.0
C1157 C 0.73718 0.09022 0.57319 0.0
C1158 C 0.76501 0.08969 0.65965 0.0
C1159 C 0.72636 0.12805 0.57831 0.0
H1160 H 0.71647 0.15351 0.68663 0.0
H1161 H 0.7742 0.1731 0.65506 0.0
H1162 H 0.70321 0.11472 0.63387 0.0
H1163 H 0.71684 0.10149 0.66248 0.0
H1164 H 0.69903 0.1225 0.67024 0.0
H1165 H 0.79179 0.15275 0.62194 0.0
H1166 H 0.78805 0.12486 0.62471 0.0
H1167 H 0.77429 0.13834 0.59644 0.0
H1168 H 0.76172 0.05754 0.62026 0.0
H1169 H 0.73046 0.09013 0.55133 0.0
H1170 H 0.75324 0.09352 0.67516 0.0
H1171 H 0.77754 0.10177 0.66284 0.0
H1172 H 0.77192 0.07412 0.66453 0.0
H1173 H 0.71368 0.1334 0.59165 0.0
H1174 H 0.71959 0.12522 0.55605 0.0
H1175 H 0.73795 0.14101 0.57864 0.0
C1176 C 0.85749 0.27026 0.37379 0.0
C1177 C 0.84438 0.25274 0.36809 0.0
C1178 C 0.87652 0.26865 0.39039 0.0
C1179 C 0.88254 0.24904 0.40158 0.0
C1180 C 0.8693 0.23134 0.39613 0.0
C1181 C 0.85037 0.2334 0.37941 0.0
C1182 C 0.89029 0.28787 0.39571 0.0
C1183 C 0.87517 0.21023 0.40789 0.0
C1184 C 0.94055 0.24164 0.42152 0.0
C1185 C 0.9416 0.24607 0.45088 0.0
C1186 C 0.92128 0.24208 0.40523 0.0
C1187 C 0.90281 0.24711 0.4188 0.0
C1188 C 0.90387 0.25115 0.44866 0.0
C1189 C 0.92335 0.25064 0.46437 0.0
C1190 C 0.92076 0.23772 0.37345 0.0
C1191 C 0.88453 0.25653 0.46388 0.0
H1192 H 0.85305 0.28517 0.36479 0.0
H1193 H 0.84014 0.21988 0.37533 0.0
H1194 H 0.89324 0.29123 0.41896 0.0
H1195 H 0.90571 0.28495 0.38706 0.0
H1196 H 0.88319 0.30199 0.38578 0.0
H1197 H 0.86302 0.19807 0.40193 0.0
H1198 H 0.8902 0.20487 0.39987 0.0
H1199 H 0.87755 0.21158 0.43148 0.0
H1200 H 0.95486 0.23827 0.41132 0.0
H1201 H 0.92443 0.25416 0.48716 0.0
H1202 H 0.91537 0.25192 0.36209 0.0
H1203 H 0.90941 0.22495 0.36693 0.0
H1204 H 0.93636 0.23316 0.36642 0.0
H1205 H 0.87787 0.27155 0.45619 0.0
H1206 H 0.8879 0.2581 0.48736 0.0
H1207 H 0.87236 0.24424 0.45904 0.0
C1208 C 0.76476 0.86781 0.35801 0.0
C1209 C 0.74985 0.85165 0.35898 0.0
C1210 C 0.76472 0.88573 0.37644 0.0
C1211 C 0.74891 0.88816 0.39575 0.0
C1212 C 0.73358 0.87221 0.39659 0.0
C1213 C 0.73447 0.85407 0.3787 0.0
C1214 C 0.78169 0.90208 0.37529 0.0
C1215 C 0.71612 0.87436 0.41633 0.0
C1216 C 0.75734 0.92539 0.46112 0.0
C1217 C 0.74755 0.94378 0.45154 0.0
C1218 C 0.75823 0.90733 0.44309 0.0
C1219 C 0.7484 0.90737 0.41506 0.0
C1220 C 0.73811 0.92582 0.40549 0.0
C1221 C 0.73817 0.94389 0.42364 0.0
C1222 C 0.76993 0.88831 0.45392 0.0
C1223 C 0.72687 0.92641 0.37616 0.0
H1224 H 0.77648 0.86668 0.34263 0.0
H1225 H 0.72309 0.84172 0.38046 0.0
H1226 H 0.77469 0.91716 0.36844 0.0
H1227 H 0.78969 0.90499 0.39683 0.0
H1228 H 0.7936 0.8973 0.36036 0.0
H1229 H 0.70474 0.86115 0.41332 0.0
H1230 H 0.72271 0.87493 0.43882 0.0
H1231 H 0.70759 0.8893 0.41268 0.0
H1232 H 0.76457 0.92525 0.48271 0.0
H1233 H 0.73068 0.95813 0.41613 0.0
H1234 H 0.78222 0.88385 0.43946 0.0
H1235 H 0.75907 0.87476 0.45407 0.0
H1236 H 0.77744 0.89109 0.4758 0.0
H1237 H 0.73818 0.92384 0.35967 0.0
H1238 H 0.71877 0.9416 0.37246 0.0
H1239 H 0.71512 0.91355 0.37324 0.0
C1240 C 0.1617 0.77132 0.34548 0.0
C1241 C 0.16353 0.75497 0.32506 0.0
C1242 C 0.14534 0.77152 0.36373 0.0
C1243 C 0.13032 0.7551 0.36123 0.0
C1244 C 0.13202 0.73862 0.34051 0.0
C1245 C 0.14868 0.7387 0.32278 0.0
C1246 C 0.1442 0.78921 0.3858 0.0
C1247 C 0.11618 0.72097 0.33697 0.0
C1248 C 0.09809 0.74458 0.42375 0.0
C1249 C 0.07927 0.75485 0.41589 0.0
C1250 C 0.11492 0.74472 0.40631 0.0
C1251 C 0.11277 0.75517 0.38022 0.0
C1252 C 0.09377 0.7655 0.37215 0.0
C1253 C 0.07729 0.76532 0.39017 0.0
C1254 C 0.13502 0.73375 0.41583 0.0
C1255 C 0.09078 0.77658 0.34434 0.0
H1256 H 0.1733 0.7838 0.34748 0.0
H1257 H 0.14992 0.72616 0.3068 0.0
H1258 H 0.12914 0.79769 0.38234 0.0
H1259 H 0.14469 0.78279 0.40742 0.0
H1260 H 0.15725 0.80065 0.38519 0.0
H1261 H 0.11964 0.70945 0.31967 0.0
H1262 H 0.11589 0.71258 0.35716 0.0
H1263 H 0.10027 0.72744 0.33209 0.0
H1264 H 0.09975 0.73668 0.44379 0.0
H1265 H 0.06268 0.7731 0.38392 0.0
H1266 H 0.14829 0.74503 0.41707 0.0
H1267 H 0.13846 0.72114 0.39999 0.0
H1268 H 0.1343 0.7267 0.43696 0.0
H1269 H 0.10281 0.78905 0.34365 0.0
H1270 H 0.07503 0.78383 0.34117 0.0
H1271 H 0.09289 0.7653 0.32626 0.0
C1272 C 0.23632 0.13311 0.36035 0.0
C1273 C 0.25126 0.14934 0.36536 0.0
C1274 C 0.23591 0.11587 0.37828 0.0
C1275 C 0.25116 0.11423 0.40155 0.0
C1276 C 0.26648 0.13029 0.40655 0.0
C1277 C 0.26617 0.14766 0.38878 0.0
C1278 C 0.21904 0.09939 0.37233 0.0
C1279 C 0.28329 0.1291 0.43073 0.0
C1280 C 0.24056 0.07953 0.46373 0.0
C1281 C 0.25083 0.06081 0.45664 0.0
C1282 C 0.2403 0.09686 0.4459 0.0
C1283 C 0.25107 0.09577 0.42063 0.0
C1284 C 0.26171 0.07695 0.41361 0.0
C1285 C 0.26118 0.05966 0.43142 0.0
C1286 C 0.22833 0.11631 0.454 0.0
C1287 C 0.27381 0.07513 0.38735 0.0
H1288 H 0.22494 0.13366 0.34218 0.0
H1289 H 0.27759 0.16007 0.39358 0.0
H1290 H 0.22622 0.08398 0.36736 0.0
H1291 H 0.21028 0.09756 0.39154 0.0
H1292 H 0.20775 0.10334 0.35422 0.0
H1293 H 0.29467 0.14229 0.43107 0.0
H1294 H 0.27605 0.12937 0.4514 0.0
H1295 H 0.29195 0.11408 0.42894 0.0
H1296 H 0.23257 0.08054 0.48322 0.0
H1297 H 0.26905 0.04521 0.42574 0.0
H1298 H 0.21649 0.12004 0.43646 0.0
H1299 H 0.23914 0.12993 0.45722 0.0
H1300 H 0.22022 0.11446 0.4738 0.0
H1301 H 0.26308 0.07707 0.368 0.0
H1302 H 0.28186 0.05976 0.38539 0.0
H1303 H 0.2857 0.08784 0.38793 0.0
C1304 C 0.65114 0.75512 0.82595 0.0
C1305 C 0.66646 0.73946 0.82926 0.0
C1306 C 0.63422 0.75616 0.84322 0.0
C1307 C 0.63263 0.74125 0.8645 0.0
C1308 C 0.64812 0.72551 0.86817 0.0
C1309 C 0.66481 0.72476 0.85046 0.0
C1310 C 0.61802 0.77318 0.83866 0.0
C1311 C 0.64697 0.70936 0.89067 0.0
C1312 C 0.59874 0.75491 0.92541 0.0
C1313 C 0.58031 0.74364 0.91708 0.0
C1314 C 0.61593 0.7542 0.90858 0.0
C1315 C 0.61462 0.74202 0.88273 0.0
C1316 C 0.59603 0.73069 0.87414 0.0
C1317 C 0.57913 0.7316 0.89145 0.0
C1318 C 0.63553 0.76639 0.91855 0.0
C1319 C 0.59397 0.71767 0.84659 0.0
H1320 H 0.65248 0.76677 0.80998 0.0
H1321 H 0.67643 0.71246 0.85295 0.0
H1322 H 0.60231 0.76603 0.83355 0.0
H1323 H 0.61721 0.783 0.85851 0.0
H1324 H 0.6215 0.78353 0.82113 0.0
H1325 H 0.66051 0.69844 0.89121 0.0
H1326 H 0.64649 0.7173 0.91199 0.0
H1327 H 0.63233 0.70005 0.88663 0.0
H1328 H 0.59983 0.76402 0.94538 0.0
H1329 H 0.56484 0.72306 0.88474 0.0
H1330 H 0.63912 0.77783 0.9024 0.0
H1331 H 0.64906 0.75555 0.92094 0.0
H1332 H 0.63405 0.77504 0.93922 0.0
H1333 H 0.59612 0.7278 0.82837 0.0
H1334 H 0.57849 0.70974 0.84303 0.0
H1335 H 0.60641 0.70555 0.84668 0.0
C1336 C 0.24066 0.66637 0.87598 0.0
C1337 C 0.25088 0.66595 0.85058 0.0
C1338 C 0.24058 0.64874 0.89326 0.0
C1339 C 0.25113 0.63011 0.88524 0.0
C1340 C 0.26158 0.62962 0.85971 0.0
C1341 C 0.26125 0.64742 0.84272 0.0
C1342 C 0.22903 0.65 0.92004 0.0
C1343 C 0.27323 0.61027 0.85039 0.0
C1344 C 0.26681 0.59078 0.94276 0.0
C1345 C 0.25128 0.57514 0.9379 0.0
C1346 C 0.267 0.60859 0.92583 0.0
C1347 C 0.25118 0.61115 0.90346 0.0
C1348 C 0.2354 0.59554 0.8985 0.0
C1349 C 0.23569 0.57779 0.91559 0.0
C1350 C 0.28418 0.62473 0.93193 0.0
C1351 C 0.21815 0.59756 0.87504 0.0
H1352 H 0.23236 0.68044 0.88217 0.0
H1353 H 0.26944 0.64692 0.82339 0.0
H1354 H 0.21669 0.6377 0.91898 0.0
H1355 H 0.23998 0.64696 0.93885 0.0
H1356 H 0.22159 0.66556 0.92338 0.0
H1357 H 0.28069 0.61238 0.83015 0.0
H1358 H 0.28556 0.60628 0.86717 0.0
H1359 H 0.26233 0.59669 0.84746 0.0
H1360 H 0.27877 0.58928 0.96013 0.0
H1361 H 0.22377 0.5658 0.91112 0.0
H1362 H 0.27729 0.64019 0.93746 0.0
H1363 H 0.29277 0.62671 0.91261 0.0
H1364 H 0.29556 0.62034 0.94971 0.0
H1365 H 0.20955 0.61248 0.87818 0.0
H1366 H 0.20679 0.58433 0.87422 0.0
H1367 H 0.22499 0.5981 0.85413 0.0
C1368 C 0.36477 0.29091 0.85969 0.0
C1369 C 0.35583 0.27279 0.84598 0.0
C1370 C 0.38314 0.28972 0.87785 0.0
C1371 C 0.39276 0.26997 0.88225 0.0
C1372 C 0.38415 0.25174 0.86776 0.0
C1373 C 0.36579 0.25338 0.8498 0.0
C1374 C 0.39189 0.30948 0.89301 0.0
C1375 C 0.39405 0.23043 0.87178 0.0
C1376 C 0.44898 0.26822 0.91426 0.0
C1377 C 0.44597 0.26454 0.94273 0.0
C1378 C 0.43177 0.27004 0.8942 0.0
C1379 C 0.41122 0.26816 0.90309 0.0
C1380 C 0.40823 0.26435 0.93196 0.0
C1381 C 0.42573 0.26257 0.95148 0.0
C1382 C 0.43552 0.27404 0.86361 0.0
C1383 C 0.38658 0.26223 0.94223 0.0
H1384 H 0.35704 0.30591 0.85693 0.0
H1385 H 0.35909 0.2394 0.83884 0.0
H1386 H 0.39106 0.30828 0.91635 0.0
H1387 H 0.40864 0.31141 0.88911 0.0
H1388 H 0.38323 0.32375 0.88607 0.0
H1389 H 0.38599 0.21799 0.85785 0.0
H1390 H 0.41078 0.23093 0.86714 0.0
H1391 H 0.39355 0.22604 0.8943 0.0
H1392 H 0.4648 0.26981 0.90781 0.0
H1393 H 0.42365 0.2598 0.97368 0.0
H1394 H 0.42793 0.28896 0.85715 0.0
H1395 H 0.42832 0.26131 0.84939 0.0
H1396 H 0.45247 0.27499 0.86019 0.0
H1397 H 0.37746 0.27674 0.93798 0.0
H1398 H 0.38701 0.25935 0.96539 0.0
H1399 H 0.37807 0.24907 0.93036 0.0
C1400 C 0.7321 0.36533 0.85692 0.0
C1401 C 0.74738 0.3497 0.8608 0.0
C1402 C 0.73204 0.38324 0.87535 0.0
C1403 C 0.74793 0.38585 0.8979 0.0
C1404 C 0.76351 0.37018 0.90175 0.0
C1405 C 0.76291 0.3522 0.88337 0.0
C1406 C 0.71489 0.3993 0.8708 0.0
C1407 C 0.78096 0.37251 0.92511 0.0
C1408 C 0.75823 0.44162 0.92823 0.0
C1409 C 0.74828 0.44148 0.95372 0.0
C1410 C 0.75855 0.42355 0.91013 0.0
C1411 C 0.74825 0.40501 0.91736 0.0
C1412 C 0.73807 0.40487 0.94307 0.0
C1413 C 0.73844 0.42301 0.96109 0.0
C1414 C 0.76994 0.4243 0.88328 0.0
C1415 C 0.72658 0.38562 0.95139 0.0
H1416 H 0.71996 0.36336 0.83966 0.0
H1417 H 0.77485 0.34025 0.8863 0.0
H1418 H 0.70648 0.40148 0.89045 0.0
H1419 H 0.72177 0.41471 0.86639 0.0
H1420 H 0.70336 0.39467 0.85282 0.0
H1421 H 0.79208 0.35913 0.92496 0.0
H1422 H 0.78977 0.38726 0.92268 0.0
H1423 H 0.77434 0.37367 0.9462 0.0
H1424 H 0.76582 0.45591 0.92252 0.0
H1425 H 0.73083 0.42289 0.98088 0.0
H1426 H 0.75875 0.42151 0.86435 0.0
H1427 H 0.78185 0.41165 0.88297 0.0
H1428 H 0.77788 0.43963 0.8813 0.0
H1429 H 0.71423 0.3811 0.93443 0.0
H1430 H 0.71916 0.38817 0.9718 0.0
H1431 H 0.73755 0.3722 0.95352 0.0
C1432 C 0.64063 0.27833 0.1865 0.0
C1433 C 0.65754 0.26519 0.18058 0.0
C1434 C 0.62183 0.27768 0.16909 0.0
C1435 C 0.61941 0.26283 0.14598 0.0
C1436 C 0.63621 0.24941 0.13992 0.0
C1437 C 0.65521 0.25115 0.15676 0.0
C1438 C 0.60451 0.29282 0.17556 0.0
C1439 C 0.634 0.23293 0.11595 0.0
C1440 C 0.5634 0.24812 0.12086 0.0
C1441 C 0.56072 0.25849 0.09516 0.0
C1442 C 0.58268 0.24881 0.13715 0.0
C1443 C 0.59921 0.26119 0.1283 0.0
C1444 C 0.59636 0.27216 0.10271 0.0
C1445 C 0.57727 0.2703 0.08613 0.0
C1446 C 0.58537 0.23629 0.16378 0.0
C1447 C 0.61326 0.28626 0.0932 0.0
H1448 H 0.64183 0.28897 0.20501 0.0
H1449 H 0.66819 0.24133 0.15119 0.0
H1450 H 0.59895 0.30106 0.15605 0.0
H1451 H 0.59096 0.2841 0.18262 0.0
H1452 H 0.60962 0.30474 0.19249 0.0
H1453 H 0.64821 0.22299 0.11495 0.0
H1454 H 0.62038 0.22261 0.11871 0.0
H1455 H 0.63098 0.2405 0.09523 0.0
H1456 H 0.55039 0.23944 0.12816 0.0
H1457 H 0.57504 0.27851 0.06636 0.0
H1458 H 0.58773 0.24705 0.18281 0.0
H1459 H 0.59951 0.22624 0.16319 0.0
H1460 H 0.57159 0.22613 0.16636 0.0
H1461 H 0.61762 0.29838 0.11016 0.0
H1462 H 0.60823 0.29426 0.07326 0.0
H1463 H 0.62756 0.27701 0.08961 0.0
C1464 C 0.76209 0.66314 0.15031 0.0
C1465 C 0.74682 0.66615 0.17009 0.0
C1466 C 0.76256 0.64479 0.13278 0.0
C1467 C 0.74685 0.62927 0.13391 0.0
C1468 C 0.73109 0.63231 0.15317 0.0
C1469 C 0.73152 0.65039 0.17136 0.0
C1470 C 0.78002 0.64195 0.11315 0.0
C1471 C 0.71368 0.61647 0.15453 0.0
C1472 C 0.73799 0.59163 0.06908 0.0
C1473 C 0.74718 0.57308 0.07914 0.0
C1474 C 0.73734 0.60985 0.08683 0.0
C1475 C 0.74694 0.60984 0.11499 0.0
C1476 C 0.75668 0.59125 0.12501 0.0
C1477 C 0.75628 0.57301 0.10719 0.0
C1478 C 0.72616 0.62903 0.07555 0.0
C1479 C 0.76776 0.5907 0.15445 0.0
H1480 H 0.77374 0.67518 0.14823 0.0
H1481 H 0.71985 0.65194 0.18676 0.0
H1482 H 0.78808 0.62677 0.11699 0.0
H1483 H 0.7735 0.64142 0.09063 0.0
H1484 H 0.79181 0.6548 0.11609 0.0
H1485 H 0.70179 0.6218 0.1692 0.0
H1486 H 0.70574 0.61345 0.13297 0.0
H1487 H 0.72024 0.60132 0.16185 0.0
H1488 H 0.73104 0.59176 0.04735 0.0
H1489 H 0.76335 0.55867 0.11504 0.0
H1490 H 0.73739 0.64222 0.07497 0.0
H1491 H 0.71403 0.6341 0.08997 0.0
H1492 H 0.71852 0.62613 0.05376 0.0
H1493 H 0.77982 0.60328 0.15722 0.0
H1494 H 0.77546 0.57536 0.15849 0.0
H1495 H 0.75644 0.59375 0.1708 0.0
C1496 C 0.3382 0.7562 0.12478 0.0
C1497 C 0.33802 0.74671 0.15119 0.0
C1498 C 0.35626 0.75597 0.10963 0.0
C1499 C 0.37456 0.7459 0.12106 0.0
C1500 C 0.37446 0.73613 0.14757 0.0
C1501 C 0.35622 0.73671 0.16235 0.0
C1502 C 0.35576 0.76656 0.08143 0.0
C1503 C 0.39366 0.72518 0.16039 0.0
C1504 C 0.41519 0.7294 0.0699 0.0
C1505 C 0.43008 0.74559 0.07452 0.0
C1506 C 0.39716 0.7292 0.08509 0.0
C1507 C 0.39385 0.74564 0.10528 0.0
C1508 C 0.40882 0.76199 0.11014 0.0
C1509 C 0.42677 0.76174 0.09476 0.0
C1510 C 0.38157 0.71147 0.07935 0.0
C1511 C 0.40582 0.77982 0.13148 0.0
H1512 H 0.32413 0.76368 0.11579 0.0
H1513 H 0.35633 0.72961 0.18291 0.0
H1514 H 0.36797 0.77898 0.08233 0.0
H1515 H 0.35936 0.755 0.0643 0.0
H1516 H 0.34031 0.77378 0.07555 0.0
H1517 H 0.3909 0.71804 0.18095 0.0
H1518 H 0.39863 0.71265 0.14536 0.0
H1519 H 0.40684 0.73651 0.16406 0.0
H1520 H 0.41744 0.71704 0.054 0.0
H1521 H 0.43832 0.77415 0.09875 0.0
H1522 H 0.36618 0.7178 0.07131 0.0
H1523 H 0.37917 0.70352 0.09942 0.0
H1524 H 0.38672 0.6996 0.06347 0.0
H1525 H 0.39103 0.78822 0.12553 0.0
H1526 H 0.41896 0.79129 0.13282 0.0
H1527 H 0.40442 0.77356 0.15292 0.0
C1528 C 0.23595 0.34387 0.1843 0.0
C1529 C 0.2523 0.32915 0.18422 0.0
C1530 C 0.23565 0.3615 0.16702 0.0
C1531 C 0.25197 0.36452 0.14881 0.0
C1532 C 0.26847 0.34966 0.14852 0.0
C1533 C 0.2685 0.3323 0.16627 0.0
C1534 C 0.21789 0.37701 0.16838 0.0
C1535 C 0.28604 0.35201 0.12925 0.0
C1536 C 0.24122 0.39961 0.085 0.0
C1537 C 0.25136 0.4185 0.09441 0.0
C1538 C 0.24141 0.382 0.10231 0.0
C1539 C 0.25175 0.38316 0.13005 0.0
C1540 C 0.26187 0.40217 0.13982 0.0
C1541 C 0.26167 0.41946 0.12193 0.0
C1542 C 0.23051 0.36208 0.09085 0.0
C1543 C 0.27297 0.40425 0.16925 0.0
H1544 H 0.22349 0.34179 0.19829 0.0
H1545 H 0.28108 0.32094 0.16574 0.0
H1546 H 0.22419 0.39287 0.17467 0.0
H1547 H 0.20944 0.3781 0.14703 0.0
H1548 H 0.2065 0.37258 0.18379 0.0
H1549 H 0.29765 0.33908 0.13135 0.0
H1550 H 0.27958 0.35225 0.10671 0.0
H1551 H 0.29428 0.36716 0.13425 0.0
H1552 H 0.23285 0.39859 0.06412 0.0
H1553 H 0.26989 0.43369 0.12948 0.0
H1554 H 0.21786 0.35804 0.10456 0.0
H1555 H 0.24176 0.34883 0.09133 0.0
H1556 H 0.22357 0.36349 0.06865 0.0
H1557 H 0.26192 0.40081 0.18553 0.0
H1558 H 0.27967 0.42019 0.174 0.0
H1559 H 0.28583 0.3926 0.17135 0.0
C1560 C 0.33688 0.25827 0.16313 0.0
C1561 C 0.33753 0.24362 0.18471 0.0
C1562 C 0.35367 0.26035 0.1459 0.0
C1563 C 0.37159 0.24752 0.1504 0.0
C1564 C 0.37234 0.23268 0.17209 0.0
C1565 C 0.3553 0.23088 0.18895 0.0
C1566 C 0.35228 0.27638 0.12301 0.0
C1567 C 0.39115 0.21869 0.1775 0.0
C1568 C 0.40758 0.23934 0.09038 0.0
C1569 C 0.42397 0.25342 0.0987 0.0
C1570 C 0.3904 0.23733 0.10692 0.0
C1571 C 0.38959 0.24966 0.13246 0.0
C1572 C 0.40604 0.26396 0.14094 0.0
C1573 C 0.42301 0.26569 0.12394 0.0
C1574 C 0.3731 0.22203 0.09706 0.0
C1575 C 0.40579 0.2773 0.1681 0.0
H1576 H 0.32335 0.26839 0.15999 0.0
H1577 H 0.35581 0.21934 0.20531 0.0
H1578 H 0.36521 0.28797 0.127 0.0
H1579 H 0.35413 0.26855 0.10191 0.0
H1580 H 0.33714 0.28495 0.122 0.0
H1581 H 0.38933 0.20802 0.19528 0.0
H1582 H 0.39375 0.20904 0.15799 0.0
H1583 H 0.40541 0.22841 0.18267 0.0
H1584 H 0.40808 0.23003 0.0707 0.0
H1585 H 0.43573 0.27641 0.13067 0.0
H1586 H 0.35795 0.23045 0.09423 0.0
H1587 H 0.37141 0.21022 0.11346 0.0
H1588 H 0.37605 0.21366 0.07663 0.0
H1589 H 0.39144 0.28709 0.16755 0.0
H1590 H 0.41969 0.28779 0.17154 0.0
H1591 H 0.40538 0.26708 0.18662 0.0
C1592 C 0.75994 0.36203 0.1833 0.0
C1593 C 0.74682 0.35947 0.20539 0.0
C1594 C 0.75929 0.3804 0.16792 0.0
C1595 C 0.74512 0.39652 0.1748 0.0
C1596 C 0.73225 0.39429 0.19763 0.0
C1597 C 0.73327 0.37573 0.21273 0.0
C1598 C 0.77335 0.38231 0.14378 0.0
C1599 C 0.71692 0.41117 0.20543 0.0
C1600 C 0.7553 0.44908 0.14359 0.0
C1601 C 0.74212 0.44779 0.11838 0.0
C1602 C 0.75584 0.43284 0.1629 0.0
C1603 C 0.74289 0.41501 0.15675 0.0
C1604 C 0.72891 0.41405 0.13197 0.0
C1605 C 0.72874 0.43045 0.11303 0.0
C1606 C 0.77087 0.43436 0.18922 0.0
C1607 C 0.71485 0.39525 0.12474 0.0
H1608 H 0.77066 0.34957 0.17796 0.0
H1609 H 0.72303 0.37368 0.22973 0.0
H1610 H 0.76367 0.38316 0.12327 0.0
H1611 H 0.78269 0.397 0.14667 0.0
H1612 H 0.78427 0.36883 0.14221 0.0
H1613 H 0.70926 0.40772 0.22514 0.0
H1614 H 0.72497 0.42659 0.20854 0.0
H1615 H 0.70458 0.41264 0.18774 0.0
H1616 H 0.76545 0.46262 0.14795 0.0
H1617 H 0.71873 0.42924 0.0934 0.0
H1618 H 0.78328 0.42231 0.18759 0.0
H1619 H 0.7626 0.43114 0.20846 0.0
H1620 H 0.77846 0.45005 0.19219 0.0
H1621 H 0.72455 0.38128 0.1201 0.0
H1622 H 0.70369 0.39775 0.10594 0.0
H1623 H 0.7058 0.39163 0.14313 0.0
C1624 C 0.65691 0.73829 0.14326 0.0
C1625 C 0.65995 0.75592 0.16181 0.0
C1626 C 0.63871 0.73615 0.12478 0.0
C1627 C 0.62341 0.7522 0.12462 0.0
C1628 C 0.62664 0.77025 0.14289 0.0
C1629 C 0.64482 0.77181 0.16146 0.0
C1630 C 0.63566 0.71656 0.10586 0.0
C1631 C 0.61083 0.78785 0.14296 0.0
C1632 C 0.58431 0.75558 0.0602 0.0
C1633 C 0.56637 0.7469 0.07039 0.0
C1634 C 0.60305 0.75735 0.07759 0.0
C1635 C 0.60383 0.75 0.10567 0.0
C1636 C 0.58576 0.74093 0.11587 0.0
C1637 C 0.56713 0.7397 0.09814 0.0
C1638 C 0.62189 0.76737 0.06612 0.0
C1639 C 0.58606 0.73271 0.14555 0.0
H1640 H 0.66854 0.7259 0.14376 0.0
H1641 H 0.64729 0.78553 0.17566 0.0
H1642 H 0.62128 0.70819 0.11095 0.0
H1643 H 0.63343 0.72079 0.0832 0.0
H1644 H 0.64915 0.70564 0.10837 0.0
H1645 H 0.61609 0.80116 0.15769 0.0
H1646 H 0.60791 0.79379 0.12116 0.0
H1647 H 0.59568 0.78191 0.14942 0.0
H1648 H 0.58353 0.76122 0.03869 0.0
H1649 H 0.5531 0.73318 0.10594 0.0
H1650 H 0.63528 0.7563 0.06706 0.0
H1651 H 0.62678 0.78147 0.07953 0.0
H1652 H 0.6187 0.77212 0.04374 0.0
H1653 H 0.59873 0.72095 0.14874 0.0
H1654 H 0.57094 0.72531 0.14975 0.0
H1655 H 0.58945 0.74573 0.16154 0.0
C1656 C 0.22721 0.6482 0.13717 0.0
C1657 C 0.24437 0.6619 0.13844 0.0
C1658 C 0.22756 0.62896 0.12185 0.0
C1659 C 0.24568 0.62325 0.10797 0.0
C1660 C 0.26275 0.63741 0.10829 0.0
C1661 C 0.26182 0.65671 0.12342 0.0
C1662 C 0.20893 0.61439 0.12153 0.0
C1663 C 0.28241 0.63171 0.094 0.0
C1664 C 0.25622 0.56495 0.10117 0.0
C1665 C 0.25023 0.56068 0.07238 0.0
C1666 C 0.25522 0.5854 0.11285 0.0
C1667 C 0.24749 0.60174 0.09538 0.0
C1668 C 0.24112 0.59737 0.0663 0.0
C1669 C 0.2426 0.57678 0.0551 0.0
C1670 C 0.26225 0.58949 0.14393 0.0
C1671 C 0.23249 0.61435 0.04722 0.0
H1672 H 0.21366 0.6524 0.14863 0.0
H1673 H 0.27513 0.66732 0.12463 0.0
H1674 H 0.20411 0.60878 0.09941 0.0
H1675 H 0.21327 0.60037 0.13395 0.0
H1676 H 0.1953 0.62207 0.13083 0.0
H1677 H 0.29355 0.6451 0.09431 0.0
H1678 H 0.29037 0.6185 0.10506 0.0
H1679 H 0.27847 0.62633 0.07155 0.0
H1680 H 0.26157 0.55223 0.11454 0.0
H1681 H 0.2377 0.57318 0.03289 0.0
H1682 H 0.24885 0.5952 0.15567 0.0
H1683 H 0.27444 0.60195 0.14613 0.0
H1684 H 0.26869 0.5752 0.15418 0.0
H1685 H 0.2181 0.62105 0.05563 0.0
H1686 H 0.22864 0.60839 0.02495 0.0
H1687 H 0.24401 0.62734 0.04702 0.0
C1688 C 0.34922 0.73299 0.8683 0.0
C1689 C 0.3431 0.75136 0.85442 0.0
C1690 C 0.36876 0.73168 0.88377 0.0
C1691 C 0.38247 0.74918 0.88546 0.0
C1692 C 0.37625 0.76789 0.87194 0.0
C1693 C 0.35665 0.76875 0.85654 0.0
C1694 C 0.37485 0.71149 0.89802 0.0
C1695 C 0.39046 0.78688 0.87332 0.0
C1696 C 0.4264 0.75244 0.94434 0.0
C1697 C 0.44352 0.74565 0.92972 0.0
C1698 C 0.40635 0.75356 0.93024 0.0
C1699 C 0.40353 0.74778 0.90086 0.0
C1700 C 0.42088 0.74086 0.88607 0.0
C1701 C 0.44076 0.73994 0.90073 0.0
C1702 C 0.38826 0.76107 0.94669 0.0
C1703 C 0.41847 0.73455 0.85476 0.0
H1704 H 0.33869 0.7196 0.86707 0.0
H1705 H 0.35213 0.78289 0.84556 0.0
H1706 H 0.38915 0.70495 0.88915 0.0
H1707 H 0.37863 0.71459 0.92118 0.0
H1708 H 0.36223 0.69946 0.8951 0.0
H1709 H 0.38299 0.80047 0.86248 0.0
H1710 H 0.39496 0.79167 0.89586 0.0
H1711 H 0.40511 0.78292 0.86317 0.0
H1712 H 0.42878 0.75693 0.96681 0.0
H1713 H 0.45419 0.73486 0.88959 0.0
H1714 H 0.37575 0.74894 0.94532 0.0
H1715 H 0.38137 0.77541 0.93717 0.0
H1716 H 0.39308 0.76467 0.96953 0.0
H1717 H 0.40681 0.72166 0.851 0.0
H1718 H 0.43348 0.72924 0.84655 0.0
H1719 H 0.41249 0.74801 0.84228 0.0
C1720 C 0.28566 0.38156 0.84365 0.0
C1721 C 0.27007 0.37486 0.82283 0.0
C1722 C 0.28301 0.39982 0.86048 0.0
C1723 C 0.26418 0.41138 0.85656 0.0
C1724 C 0.24907 0.40551 0.83417 0.0
C1725 C 0.25224 0.38729 0.81745 0.0
C1726 C 0.29964 0.4058 0.88388 0.0
C1727 C 0.22877 0.41739 0.82944 0.0
C1728 C 0.24664 0.43493 0.92545 0.0
C1729 C 0.25236 0.456 0.92375 0.0
C1730 C 0.24954 0.4205 0.90304 0.0
C1731 C 0.25892 0.42726 0.87867 0.0
C1732 C 0.26435 0.44866 0.87658 0.0
C1733 C 0.26095 0.46287 0.89928 0.0
C1734 C 0.24336 0.39784 0.90601 0.0
C1735 C 0.2746 0.45632 0.85106 0.0
H1736 H 0.29957 0.37205 0.84753 0.0
H1737 H 0.24011 0.38204 0.80143 0.0
H1738 H 0.3029 0.42291 0.88421 0.0
H1739 H 0.29396 0.40215 0.90484 0.0
H1740 H 0.31451 0.39717 0.88141 0.0
H1741 H 0.22028 0.4129 0.80863 0.0
H1742 H 0.21849 0.41395 0.84665 0.0
H1743 H 0.23166 0.43457 0.83032 0.0
H1744 H 0.24048 0.42962 0.94479 0.0
H1745 H 0.2657 0.47916 0.89842 0.0
H1746 H 0.25758 0.38786 0.90728 0.0
H1747 H 0.23326 0.39223 0.88705 0.0
H1748 H 0.23483 0.39556 0.92535 0.0
H1749 H 0.29066 0.44978 0.85089 0.0
H1750 H 0.27569 0.47373 0.85128 0.0
H1751 H 0.26578 0.45074 0.831 0.0
C1752 C 0.66093 0.27972 0.87841 0.0
C1753 C 0.66163 0.26357 0.85747 0.0
C1754 C 0.64461 0.28078 0.8967 0.0
C1755 C 0.6284 0.26555 0.89355 0.0
C1756 C 0.62894 0.24933 0.8722 0.0
C1757 C 0.64567 0.24842 0.85459 0.0
C1758 C 0.64481 0.29805 0.91957 0.0
C1759 C 0.61178 0.233 0.86786 0.0
C1760 C 0.59531 0.25489 0.95508 0.0
C1761 C 0.57717 0.26644 0.94787 0.0
C1762 C 0.61233 0.2549 0.93798 0.0
C1763 C 0.61096 0.2664 0.91275 0.0
C1764 C 0.59272 0.27826 0.90552 0.0
C1765 C 0.5761 0.2783 0.92335 0.0
C1766 C 0.63166 0.24241 0.94673 0.0
C1767 C 0.59055 0.29044 0.87856 0.0
H1768 H 0.67339 0.29134 0.88077 0.0
H1769 H 0.64612 0.23604 0.8382 0.0
H1770 H 0.63042 0.30768 0.91669 0.0
H1771 H 0.64486 0.29113 0.94085 0.0
H1772 H 0.65866 0.30854 0.91937 0.0
H1773 H 0.61423 0.22178 0.8498 0.0
H1774 H 0.61098 0.22402 0.88748 0.0
H1775 H 0.59639 0.24077 0.86373 0.0
H1776 H 0.59618 0.24585 0.9742 0.0
H1777 H 0.56198 0.28708 0.91768 0.0
H1778 H 0.64573 0.25266 0.94785 0.0
H1779 H 0.63394 0.22969 0.93054 0.0
H1780 H 0.63066 0.23525 0.96774 0.0
H1781 H 0.60362 0.30185 0.87835 0.0
H1782 H 0.57549 0.29911 0.87623 0.0
H1783 H 0.59149 0.27954 0.85976 0.0
C1784 C 0.76467 0.63022 0.8112 0.0
C1785 C 0.74951 0.64584 0.81419 0.0
C1786 C 0.76545 0.61282 0.82858 0.0
C1787 C 0.75094 0.61133 0.84962 0.0
C1788 C 0.73528 0.62684 0.85221 0.0
C1789 C 0.73468 0.64387 0.83427 0.0
C1790 C 0.78212 0.59638 0.82499 0.0
C1791 C 0.71972 0.62589 0.8747 0.0
C1792 C 0.74129 0.56075 0.8862 0.0
C1793 C 0.75341 0.56405 0.91202 0.0
C1794 C 0.74101 0.57565 0.86504 0.0
C1795 C 0.75285 0.59434 0.87021 0.0
C1796 C 0.76557 0.59745 0.89597 0.0
C1797 C 0.76579 0.58215 0.91654 0.0
C1798 C 0.72759 0.57171 0.83757 0.0
C1799 C 0.7782 0.61733 0.90234 0.0
H1800 H 0.77602 0.63174 0.79545 0.0
H1801 H 0.72311 0.65612 0.83669 0.0
H1802 H 0.79331 0.59664 0.84419 0.0
H1803 H 0.77495 0.58049 0.82284 0.0
H1804 H 0.79102 0.59894 0.80605 0.0
H1805 H 0.70804 0.63877 0.8731 0.0
H1806 H 0.71126 0.61065 0.87282 0.0
H1807 H 0.72815 0.62698 0.8962 0.0
H1808 H 0.73186 0.54662 0.88273 0.0
H1809 H 0.77499 0.58474 0.93668 0.0
H1810 H 0.73692 0.57405 0.81902 0.0
H1811 H 0.71452 0.58316 0.83625 0.0
H1812 H 0.72087 0.5556 0.83585 0.0
H1813 H 0.78856 0.62002 0.885 0.0
H1814 H 0.78801 0.61683 0.92282 0.0
H1815 H 0.76749 0.63098 0.90343 0.0
loop_
_geom_bond_atom_site_label_1
_geom_bond_atom_site_label_2
_geom_bond_distance
_geom_bond_site_symmetry_2
_ccdc_geom_bond_type
C0 C1 1.384 . S
C0 C2 1.384 . S
C0 H28 0.931 . S
C1 C0 1.384 . S
C1 C4 1.382 . S
C2 C0 1.384 . S
C2 C3 1.381 . S
C2 H29 0.930 . S
C3 C2 1.381 . S
C3 C5 1.381 . S
C3 C6 1.487 . S
C4 C1 1.382 . S
C4 C5 1.387 . S
C4 H30 0.930 . S
C5 C3 1.381 . S
C5 C4 1.387 . S
C5 H31 0.931 . S
C6 C3 1.487 . S
C6 C13 1.399 . S
C6 N44 1.343 . S
C7 C8 1.384 . S
C7 C9 1.384 . S
C7 H32 0.931 . S
C8 C7 1.384 . S
C8 C11 1.382 . S
C9 C7 1.384 . S
C9 C10 1.381 . S
C9 H33 0.930 . S
C10 C9 1.381 . S
C10 C12 1.381 . S
C10 C13 1.487 . S
C11 C8 1.382 . S
C11 C12 1.387 . S
C11 H34 0.930 . S
C12 C10 1.381 . S
C12 C11 1.387 . S
C12 H35 0.931 . S
C13 C6 1.399 . S
C13 C10 1.487 . S
C13 N45 1.343 . S
C14 C15 1.384 . S
C14 C16 1.384 . S
C14 H36 0.931 . S
C15 C14 1.384 . S
C15 C18 1.382 . S
C16 C14 1.384 . S
C16 C17 1.381 . S
C16 H37 0.930 . S
C17 C16 1.381 . S
C17 C19 1.381 . S
C17 C20 1.487 . S
C18 C15 1.382 . S
C18 C19 1.387 . S
C18 H38 0.930 . S
C19 C17 1.381 . S
C19 C18 1.387 . S
C19 H39 0.931 . S
C20 C17 1.487 . S
C20 C27 1.399 . S
C20 N45 1.343 . S
C21 C22 1.384 . S
C21 C23 1.384 . S
C21 H40 0.931 . S
C22 C21 1.384 . S
C22 C25 1.382 . S
C23 C21 1.384 . S
C23 C24 1.381 . S
C23 H41 0.930 . S
C24 C23 1.381 . S
C24 C26 1.381 . S
C24 C27 1.487 . S
C25 C22 1.382 . S
C25 C26 1.387 . S
C25 H42 0.930 . S
C26 C24 1.381 . S
C26 C25 1.387 . S
C26 H43 0.931 . S
C27 C20 1.399 . S
C27 C24 1.487 . S
C27 N44 1.343 . S
H28 C0 0.931 . S
H29 C2 0.930 . S
H30 C4 0.930 . S
H31 C5 0.931 . S
H32 C7 0.931 . S
H33 C9 0.930 . S
H34 C11 0.930 . S
H35 C12 0.931 . S
H36 C14 0.931 . S
H37 C16 0.930 . S
H38 C18 0.930 . S
H39 C19 0.931 . S
H40 C21 0.931 . S
H41 C23 0.930 . S
H42 C25 0.930 . S
H43 C26 0.931 . S
N44 C6 1.343 . S
N44 C27 1.343 . S
N45 C13 1.343 . S
N45 C20 1.343 . S
C46 C47 1.384 . S
C46 C48 1.384 . S
C46 H74 0.931 . S
C47 C46 1.384 . S
C47 C50 1.382 . S
C48 C46 1.384 . S
C48 C49 1.381 . S
C48 H75 0.930 . S
C49 C48 1.381 . S
C49 C51 1.381 . S
C49 C52 1.487 . S
C50 C47 1.382 . S
C50 C51 1.387 . S
C50 H76 0.930 . S
C51 C49 1.381 . S
C51 C50 1.387 . S
C51 H77 0.931 . S
C52 C49 1.487 . S
C52 C59 1.399 . S
C52 N90 1.343 . S
C53 C54 1.384 . S
C53 C55 1.384 . S
C53 H78 0.931 . S
C54 C53 1.384 . S
C54 C57 1.382 . S
C55 C53 1.384 . S
C55 C56 1.381 . S
C55 H79 0.930 . S
C56 C55 1.381 . S
C56 C58 1.381 . S
C56 C59 1.487 . S
C57 C54 1.382 . S
C57 C58 1.387 . S
C57 H80 0.930 . S
C58 C56 1.381 . S
C58 C57 1.387 . S
C58 H81 0.931 . S
C59 C52 1.399 . S
C59 C56 1.487 . S
C59 N91 1.343 . S
C60 C61 1.384 . S
C60 C62 1.384 . S
C60 H82 0.931 . S
C61 C60 1.384 . S
C61 C64 1.382 . S
C62 C60 1.384 . S
C62 C63 1.381 . S
C62 H83 0.930 . S
C63 C62 1.381 . S
C63 C65 1.381 . S
C63 C66 1.487 . S
C64 C61 1.382 . S
C64 C65 1.387 . S
C64 H84 0.930 . S
C65 C63 1.381 . S
C65 C64 1.387 . S
C65 H85 0.931 . S
C66 C63 1.487 . S
C66 C73 1.399 . S
C66 N91 1.343 . S
C67 C68 1.384 . S
C67 C69 1.384 . S
C67 H86 0.931 . S
C68 C67 1.384 . S
C68 C71 1.382 . S
C69 C67 1.384 . S
C69 C70 1.381 . S
C69 H87 0.930 . S
C70 C69 1.381 . S
C70 C72 1.381 . S
C70 C73 1.487 . S
C71 C68 1.382 . S
C71 C72 1.387 . S
C71 H88 0.930 . S
C72 C70 1.381 . S
C72 C71 1.387 . S
C72 H89 0.931 . S
C73 C66 1.399 . S
C73 C70 1.487 . S
C73 N90 1.343 . S
H74 C46 0.931 . S
H75 C48 0.930 . S
H76 C50 0.930 . S
H77 C51 0.931 . S
H78 C53 0.931 . S
H79 C55 0.930 . S
H80 C57 0.930 . S
H81 C58 0.931 . S
H82 C60 0.931 . S
H83 C62 0.930 . S
H84 C64 0.930 . S
H85 C65 0.931 . S
H86 C67 0.931 . S
H87 C69 0.930 . S
H88 C71 0.930 . S
H89 C72 0.931 . S
N90 C52 1.343 . S
N90 C73 1.343 . S
N91 C59 1.343 . S
N91 C66 1.343 . S
C92 C93 1.384 . S
C92 C94 1.384 . S
C92 H120 0.931 . S
C93 C92 1.384 . S
C93 C96 1.382 . S
C94 C92 1.384 . S
C94 C95 1.381 . S
C94 H121 0.930 . S
C95 C94 1.381 . S
C95 C97 1.381 . S
C95 C98 1.487 . S
C96 C93 1.382 . S
C96 C97 1.387 . S
C96 H122 0.930 . S
C97 C95 1.381 . S
C97 C96 1.387 . S
C97 H123 0.931 . S
C98 C95 1.487 . S
C98 C105 1.399 . S
C98 N136 1.343 . S
C99 C100 1.384 . S
C99 C101 1.384 . S
C99 H124 0.931 . S
C100 C99 1.384 . S
C100 C103 1.382 . S
C101 C99 1.384 . S
C101 C102 1.381 . S
C101 H125 0.930 . S
C102 C101 1.381 . S
C102 C104 1.381 . S
C102 C105 1.487 . S
C103 C100 1.382 . S
C103 C104 1.387 . S
C103 H126 0.930 . S
C104 C102 1.381 . S
C104 C103 1.387 . S
C104 H127 0.931 . S
C105 C98 1.399 . S
C105 C102 1.487 . S
C105 N137 1.343 . S
C106 C107 1.384 . S
C106 C108 1.384 . S
C106 H128 0.931 . S
C107 C106 1.384 . S
C107 C110 1.382 . S
C108 C106 1.384 . S
C108 C109 1.381 . S
C108 H129 0.930 . S
C109 C108 1.381 . S
C109 C111 1.381 . S
C109 C112 1.487 . S
C110 C107 1.382 . S
C110 C111 1.387 . S
C110 H130 0.930 . S
C111 C109 1.381 . S
C111 C110 1.387 . S
C111 H131 0.931 . S
C112 C109 1.487 . S
C112 C119 1.399 . S
C112 N137 1.343 . S
C113 C114 1.384 . S
C113 C115 1.384 . S
C113 H132 0.931 . S
C114 C113 1.384 . S
C114 C117 1.382 . S
C115 C113 1.384 . S
C115 C116 1.381 . S
C115 H133 0.930 . S
C116 C115 1.381 . S
C116 C118 1.381 . S
C116 C119 1.487 . S
C117 C114 1.382 . S
C117 C118 1.387 . S
C117 H134 0.930 . S
C118 C116 1.381 . S
C118 C117 1.387 . S
C118 H135 0.931 . S
C119 C112 1.399 . S
C119 C116 1.487 . S
C119 N136 1.343 . S
H120 C92 0.931 . S
H121 C94 0.930 . S
H122 C96 0.930 . S
H123 C97 0.931 . S
H124 C99 0.931 . S
H125 C101 0.930 . S
H126 C103 0.930 . S
H127 C104 0.931 . S
H128 C106 0.931 . S
H129 C108 0.930 . S
H130 C110 0.930 . S
H131 C111 0.931 . S
H132 C113 0.931 . S
H133 C115 0.930 . S
H134 C117 0.930 . S
H135 C118 0.931 . S
N136 C98 1.343 . S
N136 C119 1.343 . S
N137 C105 1.343 . S
N137 C112 1.343 . S
C138 C139 1.384 . S
C138 C140 1.384 . S
C138 H166 0.931 . S
C139 C138 1.384 . S
C139 C142 1.382 . S
C140 C138 1.384 . S
C140 C141 1.381 . S
C140 H167 0.930 . S
C141 C140 1.381 . S
C141 C143 1.381 . S
C141 C144 1.487 . S
C142 C139 1.382 . S
C142 C143 1.387 . S
C142 H168 0.930 . S
C143 C141 1.381 . S
C143 C142 1.387 . S
C143 H169 0.931 . S
C144 C141 1.487 . S
C144 C151 1.399 . S
C144 N182 1.343 . S
C145 C146 1.384 . S
C145 C147 1.384 . S
C145 H170 0.931 . S
C146 C145 1.384 . S
C146 C149 1.382 . S
C147 C145 1.384 . S
C147 C148 1.381 . S
C147 H171 0.930 . S
C148 C147 1.381 . S
C148 C150 1.381 . S
C148 C151 1.487 . S
C149 C146 1.382 . S
C149 C150 1.387 . S
C149 H172 0.930 . S
C150 C148 1.381 . S
C150 C149 1.387 . S
C150 H173 0.931 . S
C151 C144 1.399 . S
C151 C148 1.487 . S
C151 N183 1.343 . S
C152 C153 1.384 . S
C152 C154 1.384 . S
C152 H174 0.931 . S
C153 C152 1.384 . S
C153 C156 1.382 . S
C154 C152 1.384 . S
C154 C155 1.381 . S
C154 H175 0.930 . S
C155 C154 1.381 . S
C155 C157 1.381 . S
C155 C158 1.487 . S
C156 C153 1.382 . S
C156 C157 1.387 . S
C156 H176 0.930 . S
C157 C155 1.381 . S
C157 C156 1.387 . S
C157 H177 0.931 . S
C158 C155 1.487 . S
C158 C165 1.399 . S
C158 N183 1.343 . S
C159 C160 1.384 . S
C159 C161 1.384 . S
C159 H178 0.931 . S
C160 C159 1.384 . S
C160 C163 1.382 . S
C161 C159 1.384 . S
C161 C162 1.381 . S
C161 H179 0.930 . S
C162 C161 1.381 . S
C162 C164 1.381 . S
C162 C165 1.487 . S
C163 C160 1.382 . S
C163 C164 1.387 . S
C163 H180 0.930 . S
C164 C162 1.381 . S
C164 C163 1.387 . S
C164 H181 0.931 . S
C165 C158 1.399 . S
C165 C162 1.487 . S
C165 N182 1.343 . S
H166 C138 0.931 . S
H167 C140 0.930 . S
H168 C142 0.930 . S
H169 C143 0.931 . S
H170 C145 0.931 . S
H171 C147 0.930 . S
H172 C149 0.930 . S
H173 C150 0.931 . S
H174 C152 0.931 . S
H175 C154 0.930 . S
H176 C156 0.930 . S
H177 C157 0.931 . S
H178 C159 0.931 . S
H179 C161 0.930 . S
H180 C163 0.930 . S
H181 C164 0.931 . S
N182 C144 1.343 . S
N182 C165 1.343 . S
N183 C151 1.343 . S
N183 C158 1.343 . S
C184 C185 1.384 . S
C184 C186 1.384 . S
C184 H212 0.931 . S
C185 C184 1.384 . S
C185 C188 1.382 . S
C186 C184 1.384 . S
C186 C187 1.381 . S
C186 H213 0.930 . S
C187 C186 1.381 . S
C187 C189 1.381 . S
C187 C190 1.487 . S
C188 C185 1.382 . S
C188 C189 1.387 . S
C188 H214 0.930 . S
C189 C187 1.381 . S
C189 C188 1.387 . S
C189 H215 0.931 . S
C190 C187 1.487 . S
C190 C197 1.399 . S
C190 N228 1.343 . S
C191 C192 1.384 . S
C191 C193 1.384 . S
C191 H216 0.931 . S
C192 C191 1.384 . S
C192 C195 1.382 . S
C193 C191 1.384 . S
C193 C194 1.381 . S
C193 H217 0.930 . S
C194 C193 1.381 . S
C194 C196 1.381 . S
C194 C197 1.487 . S
C195 C192 1.382 . S
C195 C196 1.387 . S
C195 H218 0.930 . S
C196 C194 1.381 . S
C196 C195 1.387 . S
C196 H219 0.931 . S
C197 C190 1.399 . S
C197 C194 1.487 . S
C197 N229 1.343 . S
C198 C199 1.384 . S
C198 C200 1.384 . S
C198 H220 0.931 . S
C199 C198 1.384 . S
C199 C202 1.382 . S
C200 C198 1.384 . S
C200 C201 1.381 . S
C200 H221 0.930 . S
C201 C200 1.381 . S
C201 C203 1.381 . S
C201 C204 1.487 . S
C202 C199 1.382 . S
C202 C203 1.387 . S
C202 H222 0.930 . S
C203 C201 1.381 . S
C203 C202 1.387 . S
C203 H223 0.931 . S
C204 C201 1.487 . S
C204 C211 1.399 . S
C204 N229 1.343 . S
C205 C206 1.384 . S
C205 C207 1.384 . S
C205 H224 0.931 . S
C206 C205 1.384 . S
C206 C209 1.382 . S
C207 C205 1.384 . S
C207 C208 1.381 . S
C207 H225 0.930 . S
C208 C207 1.381 . S
C208 C210 1.381 . S
C208 C211 1.487 . S
C209 C206 1.382 . S
C209 C210 1.387 . S
C209 H226 0.930 . S
C210 C208 1.381 . S
C210 C209 1.387 . S
C210 H227 0.931 . S
C211 C204 1.399 . S
C211 C208 1.487 . S
C211 N228 1.343 . S
H212 C184 0.931 . S
H213 C186 0.930 . S
H214 C188 0.930 . S
H215 C189 0.931 . S
H216 C191 0.931 . S
H217 C193 0.930 . S
H218 C195 0.930 . S
H219 C196 0.931 . S
H220 C198 0.931 . S
H221 C200 0.930 . S
H222 C202 0.930 . S
H223 C203 0.931 . S
H224 C205 0.931 . S
H225 C207 0.930 . S
H226 C209 0.930 . S
H227 C210 0.931 . S
N228 C190 1.343 . S
N228 C211 1.343 . S
N229 C197 1.343 . S
N229 C204 1.343 . S
C230 C231 1.384 . S
C230 C232 1.384 . S
C230 H258 0.931 . S
C231 C230 1.384 . S
C231 C234 1.382 . S
C232 C230 1.384 . S
C232 C233 1.381 . S
C232 H259 0.930 . S
C233 C232 1.381 . S
C233 C235 1.381 . S
C233 C236 1.487 . S
C234 C231 1.382 . S
C234 C235 1.387 . S
C234 H260 0.930 . S
C235 C233 1.381 . S
C235 C234 1.387 . S
C235 H261 0.931 . S
C236 C233 1.487 . S
C236 C243 1.399 . S
C236 N274 1.343 . S
C237 C238 1.384 . S
C237 C239 1.384 . S
C237 H262 0.931 . S
C238 C237 1.384 . S
C238 C241 1.382 . S
C239 C237 1.384 . S
C239 C240 1.381 . S
C239 H263 0.930 . S
C240 C239 1.381 . S
C240 C242 1.381 . S
C240 C243 1.487 . S
C241 C238 1.382 . S
C241 C242 1.387 . S
C241 H264 0.930 . S
C242 C240 1.381 . S
C242 C241 1.387 . S
C242 H265 0.931 . S
C243 C236 1.399 . S
C243 C240 1.487 . S
C243 N275 1.343 . S
C244 C245 1.384 . S
C244 C246 1.384 . S
C244 H266 0.931 . S
C245 C244 1.384 . S
C245 C248 1.382 . S
C246 C244 1.384 . S
C246 C247 1.381 . S
C246 H267 0.930 . S
C247 C246 1.381 . S
C247 C249 1.381 . S
C247 C250 1.487 . S
C248 C245 1.382 . S
C248 C249 1.387 . S
C248 H268 0.930 . S
C249 C247 1.381 . S
C249 C248 1.387 . S
C249 H269 0.931 . S
C250 C247 1.487 . S
C250 C257 1.399 . S
C250 N275 1.343 . S
C251 C252 1.384 . S
C251 C253 1.384 . S
C251 H270 0.931 . S
C252 C251 1.384 . S
C252 C255 1.382 . S
C253 C251 1.384 . S
C253 C254 1.381 . S
C253 H271 0.930 . S
C254 C253 1.381 . S
C254 C256 1.381 . S
C254 C257 1.487 . S
C255 C252 1.382 . S
C255 C256 1.387 . S
C255 H272 0.930 . S
C256 C254 1.381 . S
C256 C255 1.387 . S
C256 H273 0.931 . S
C257 C250 1.399 . S
C257 C254 1.487 . S
C257 N274 1.343 . S
H258 C230 0.931 . S
H259 C232 0.930 . S
H260 C234 0.930 . S
H261 C235 0.931 . S
H262 C237 0.931 . S
H263 C239 0.930 . S
H264 C241 0.930 . S
H265 C242 0.931 . S
H266 C244 0.931 . S
H267 C246 0.930 . S
H268 C248 0.930 . S
H269 C249 0.931 . S
H270 C251 0.931 . S
H271 C253 0.930 . S
H272 C255 0.930 . S
H273 C256 0.931 . S
N274 C236 1.343 . S
N274 C257 1.343 . S
N275 C243 1.343 . S
N275 C250 1.343 . S
C276 C277 1.384 . S
C276 C278 1.384 . S
C276 H304 0.931 . S
C277 C276 1.384 . S
C277 C280 1.382 . S
C278 C276 1.384 . S
C278 C279 1.381 . S
C278 H305 0.930 . S
C279 C278 1.381 . S
C279 C281 1.381 . S
C279 C282 1.487 . S
C280 C277 1.382 . S
C280 C281 1.387 . S
C280 H306 0.930 . S
C281 C279 1.381 . S
C281 C280 1.387 . S
C281 H307 0.931 . S
C282 C279 1.487 . S
C282 C289 1.399 . S
C282 N320 1.343 . S
C283 C284 1.384 . S
C283 C285 1.384 . S
C283 H308 0.931 . S
C284 C283 1.384 . S
C284 C287 1.382 . S
C285 C283 1.384 . S
C285 C286 1.381 . S
C285 H309 0.930 . S
C286 C285 1.381 . S
C286 C288 1.381 . S
C286 C289 1.487 . S
C287 C284 1.382 . S
C287 C288 1.387 . S
C287 H310 0.930 . S
C288 C286 1.381 . S
C288 C287 1.387 . S
C288 H311 0.931 . S
C289 C282 1.399 . S
C289 C286 1.487 . S
C289 N321 1.343 . S
C290 C291 1.384 . S
C290 C292 1.384 . S
C290 H312 0.931 . S
C291 C290 1.384 . S
C291 C294 1.382 . S
C292 C290 1.384 . S
C292 C293 1.381 . S
C292 H313 0.930 . S
C293 C292 1.381 . S
C293 C295 1.381 . S
C293 C296 1.487 . S
C294 C291 1.382 . S
C294 C295 1.387 . S
C294 H314 0.930 . S
C295 C293 1.381 . S
C295 C294 1.387 . S
C295 H315 0.931 . S
C296 C293 1.487 . S
C296 C303 1.399 . S
C296 N321 1.343 . S
C297 C298 1.384 . S
C297 C299 1.384 . S
C297 H316 0.931 . S
C298 C297 1.384 . S
C298 C301 1.382 . S
C299 C297 1.384 . S
C299 C300 1.381 . S
C299 H317 0.930 . S
C300 C299 1.381 . S
C300 C302 1.381 . S
C300 C303 1.487 . S
C301 C298 1.382 . S
C301 C302 1.387 . S
C301 H318 0.930 . S
C302 C300 1.381 . S
C302 C301 1.387 . S
C302 H319 0.931 . S
C303 C296 1.399 . S
C303 C300 1.487 . S
C303 N320 1.343 . S
H304 C276 0.931 . S
H305 C278 0.930 . S
H306 C280 0.930 . S
H307 C281 0.931 . S
H308 C283 0.931 . S
H309 C285 0.930 . S
H310 C287 0.930 . S
H311 C288 0.931 . S
H312 C290 0.931 . S
H313 C292 0.930 . S
H314 C294 0.930 . S
H315 C295 0.931 . S
H316 C297 0.931 . S
H317 C299 0.930 . S
H318 C301 0.930 . S
H319 C302 0.931 . S
N320 C282 1.343 . S
N320 C303 1.343 . S
N321 C289 1.343 . S
N321 C296 1.343 . S
C322 C323 1.384 . S
C322 C324 1.384 . S
C322 H350 0.931 . S
C323 C322 1.384 . S
C323 C326 1.382 . S
C324 C322 1.384 . S
C324 C325 1.381 . S
C324 H351 0.930 . S
C325 C324 1.381 . S
C325 C327 1.381 . S
C325 C328 1.487 . S
C326 C323 1.382 . S
C326 C327 1.387 . S
C326 H352 0.930 . S
C327 C325 1.381 . S
C327 C326 1.387 . S
C327 H353 0.931 . S
C328 C325 1.487 . S
C328 C335 1.399 . S
C328 N366 1.343 . S
C329 C330 1.384 . S
C329 C331 1.384 . S
C329 H354 0.931 . S
C330 C329 1.384 . S
C330 C333 1.382 . S
C331 C329 1.384 . S
C331 C332 1.381 . S
C331 H355 0.930 . S
C332 C331 1.381 . S
C332 C334 1.381 . S
C332 C335 1.487 . S
C333 C330 1.382 . S
C333 C334 1.387 . S
C333 H356 0.930 . S
C334 C332 1.381 . S
C334 C333 1.387 . S
C334 H357 0.931 . S
C335 C328 1.399 . S
C335 C332 1.487 . S
C335 N367 1.343 . S
C336 C337 1.384 . S
C336 C338 1.384 . S
C336 H358 0.931 . S
C337 C336 1.384 . S
C337 C340 1.382 . S
C338 C336 1.384 . S
C338 C339 1.381 . S
C338 H359 0.930 . S
C339 C338 1.381 . S
C339 C341 1.381 . S
C339 C342 1.487 . S
C340 C337 1.382 . S
C340 C341 1.387 . S
C340 H360 0.930 . S
C341 C339 1.381 . S
C341 C340 1.387 . S
C341 H361 0.931 . S
C342 C339 1.487 . S
C342 C349 1.399 . S
C342 N367 1.343 . S
C343 C344 1.384 . S
C343 C345 1.384 . S
C343 H362 0.931 . S
C344 C343 1.384 . S
C344 C347 1.382 . S
C345 C343 1.384 . S
C345 C346 1.381 . S
C345 H363 0.930 . S
C346 C345 1.381 . S
C346 C348 1.381 . S
C346 C349 1.487 . S
C347 C344 1.382 . S
C347 C348 1.387 . S
C347 H364 0.930 . S
C348 C346 1.381 . S
C348 C347 1.387 . S
C348 H365 0.931 . S
C349 C342 1.399 . S
C349 C346 1.487 . S
C349 N366 1.343 . S
H350 C322 0.931 . S
H351 C324 0.930 . S
H352 C326 0.930 . S
H353 C327 0.931 . S
H354 C329 0.931 . S
H355 C331 0.930 . S
H356 C333 0.930 . S
H357 C334 0.931 . S
H358 C336 0.931 . S
H359 C338 0.930 . S
H360 C340 0.930 . S
H361 C341 0.931 . S
H362 C343 0.931 . S
H363 C345 0.930 . S
H364 C347 0.930 . S
H365 C348 0.931 . S
N366 C328 1.343 . S
N366 C349 1.343 . S
N367 C335 1.343 . S
N367 C342 1.343 . S
C368 C369 1.443 . S
C368 N372 1.376 . S
C368 C406 1.389 . S
C369 C368 1.443 . S
C369 C370 1.340 . S
C369 H409 0.951 . S
C370 C369 1.340 . S
C370 C371 1.439 . S
C370 H410 0.950 . S
C371 C370 1.439 . S
C371 N372 1.374 . S
C371 C405 1.395 . S
N372 C368 1.376 . S
N372 C371 1.374 . S
N372 Co373 2.008 . S
Co373 N372 2.008 . S
Co373 N374 1.995 1_455 S
Co373 N379 2.008 1_455 S
Co373 N384 1.995 . S
Co373 N389 2.282 1_455 S
Co373 N395 2.282 . S
N374 Co373 1.995 1_655 S
N374 C375 1.376 . S
N374 C378 1.383 . S
C375 N374 1.376 . S
C375 C376 1.446 . S
C375 C405 1.391 1_655 S
C376 C375 1.446 . S
C376 C377 1.339 . S
C376 H411 0.949 . S
C377 C376 1.339 . S
C377 C378 1.439 . S
C377 H412 0.950 . S
C378 N374 1.383 . S
C378 C377 1.439 . S
C378 C407 1.392 . S
N379 Co373 2.008 1_655 S
N379 C380 1.376 . S
N379 C383 1.374 . S
C380 N379 1.376 . S
C380 C381 1.443 . S
C380 C407 1.389 . S
C381 C380 1.443 . S
C381 C382 1.340 . S
C381 H413 0.951 . S
C382 C381 1.340 . S
C382 C383 1.439 . S
C382 H414 0.950 . S
C383 N379 1.374 . S
C383 C382 1.439 . S
C383 C408 1.416 . S
N384 Co373 1.995 . S
N384 C385 1.376 . S
N384 C388 1.383 . S
C385 N384 1.376 . S
C385 C386 1.446 . S
C385 C408 1.369 1_455 S
C386 C385 1.446 . S
C386 C387 1.339 . S
C386 H415 0.949 . S
C387 C386 1.339 . S
C387 C388 1.439 . S
C387 H416 0.950 . S
C388 N384 1.383 . S
C388 C387 1.439 . S
C388 C406 1.392 . S
N389 Co373 2.282 1_655 S
N389 C392 1.332 . S
N389 C394 1.332 . S
C390 C391 1.386 . S
C390 C393 1.388 . S
C391 C390 1.386 . S
C391 C392 1.382 . S
C391 H417 0.950 . S
C392 N389 1.332 . S
C392 C391 1.382 . S
C392 H403 0.952 . S
C393 C390 1.388 . S
C393 C394 1.382 . S
C393 H418 0.950 . S
C394 N389 1.332 . S
C394 C393 1.382 . S
C394 H404 0.948 . S
N395 Co373 2.282 . S
N395 C399 1.332 . S
N395 C400 1.332 . S
C396 C397 1.388 . S
C396 C400 1.382 . S
C396 H419 0.950 . S
C397 C396 1.388 . S
C397 C398 1.386 . S
C398 C397 1.386 . S
C398 C399 1.382 . S
C398 H420 0.950 . S
C399 N395 1.332 . S
C399 C398 1.382 . S
C399 H401 0.952 . S
C400 N395 1.332 . S
C400 C396 1.382 . S
C400 H402 0.948 . S
H401 C399 0.952 . S
H402 C400 0.948 . S
H403 C392 0.952 . S
H404 C394 0.948 . S
C405 C371 1.395 . S
C405 C375 1.391 1_455 S
C406 C368 1.389 . S
C406 C388 1.392 . S
C407 C378 1.392 . S
C407 C380 1.389 . S
C408 C383 1.416 . S
C408 C385 1.369 1_655 S
H409 C369 0.951 . S
H410 C370 0.950 . S
H411 C376 0.949 . S
H412 C377 0.950 . S
H413 C381 0.951 . S
H414 C382 0.950 . S
H415 C386 0.949 . S
H416 C387 0.950 . S
H417 C391 0.950 . S
H418 C393 0.950 . S
H419 C396 0.950 . S
H420 C398 0.950 . S
C421 C422 1.443 . S
C421 N425 1.376 . S
C421 C459 1.389 . S
C422 C421 1.443 . S
C422 C423 1.340 . S
C422 H462 0.951 . S
C423 C422 1.340 . S
C423 C424 1.439 . S
C423 H463 0.950 . S
C424 C423 1.439 . S
C424 N425 1.374 . S
C424 C458 1.395 . S
N425 C421 1.376 . S
N425 C424 1.374 . S
N425 Co426 2.008 . S
Co426 N425 2.008 . S
Co426 N427 1.995 1_545 S
Co426 N432 2.008 1_545 S
Co426 N437 1.995 . S
Co426 N442 2.282 1_545 S
Co426 N448 2.282 . S
N427 Co426 1.995 1_565 S
N427 C428 1.376 . S
N427 C431 1.383 . S
C428 N427 1.376 . S
C428 C429 1.446 . S
C428 C458 1.391 1_565 S
C429 C428 1.446 . S
C429 C430 1.339 . S
C429 H464 0.949 . S
C430 C429 1.339 . S
C430 C431 1.439 . S
C430 H465 0.950 . S
C431 N427 1.383 . S
C431 C430 1.439 . S
C431 C460 1.392 . S
N432 Co426 2.008 1_565 S
N432 C433 1.376 . S
N432 C436 1.374 . S
C433 N432 1.376 . S
C433 C434 1.443 . S
C433 C460 1.389 . S
C434 C433 1.443 . S
C434 C435 1.340 . S
C434 H466 0.951 . S
C435 C434 1.340 . S
C435 C436 1.439 . S
C435 H467 0.950 . S
C436 N432 1.374 . S
C436 C435 1.439 . S
C436 C461 1.408 . S
N437 Co426 1.995 . S
N437 C438 1.376 . S
N437 C441 1.383 . S
C438 N437 1.376 . S
C438 C439 1.446 . S
C438 C461 1.377 1_545 S
C439 C438 1.446 . S
C439 C440 1.339 . S
C439 H468 0.949 . S
C440 C439 1.339 . S
C440 C441 1.439 . S
C440 H469 0.950 . S
C441 N437 1.383 . S
C441 C440 1.439 . S
C441 C459 1.392 . S
N442 Co426 2.282 1_565 S
N442 C445 1.332 . S
N442 C447 1.332 . S
C443 C444 1.386 . S
C443 C446 1.388 . S
C444 C443 1.386 . S
C444 C445 1.382 . S
C444 H470 0.950 . S
C445 N442 1.332 . S
C445 C444 1.382 . S
C445 H456 0.952 . S
C446 C443 1.388 . S
C446 C447 1.382 . S
C446 H471 0.950 . S
C447 N442 1.332 . S
C447 C446 1.382 . S
C447 H457 0.948 . S
N448 Co426 2.282 . S
N448 C452 1.332 . S
N448 C453 1.332 . S
C449 C450 1.388 . S
C449 C453 1.382 . S
C449 H472 0.950 . S
C450 C449 1.388 . S
C450 C451 1.386 . S
C451 C450 1.386 . S
C451 C452 1.382 . S
C451 H473 0.950 . S
C452 N448 1.332 . S
C452 C451 1.382 . S
C452 H454 0.952 . S
C453 N448 1.332 . S
C453 C449 1.382 . S
C453 H455 0.948 . S
H454 C452 0.952 . S
H455 C453 0.948 . S
H456 C445 0.952 . S
H457 C447 0.948 . S
C458 C424 1.395 . S
C458 C428 1.391 1_545 S
C459 C421 1.389 . S
C459 C441 1.392 . S
C460 C431 1.392 . S
C460 C433 1.389 . S
C461 C436 1.408 . S
C461 C438 1.377 1_565 S
H462 C422 0.951 . S
H463 C423 0.950 . S
H464 C429 0.949 . S
H465 C430 0.950 . S
H466 C434 0.951 . S
H467 C435 0.950 . S
H468 C439 0.949 . S
H469 C440 0.950 . S
H470 C444 0.950 . S
H471 C446 0.950 . S
H472 C449 0.950 . S
H473 C451 0.950 . S
C474 C475 1.443 . S
C474 N478 1.376 . S
C474 C512 1.389 . S
C475 C474 1.443 . S
C475 C476 1.340 . S
C475 H515 0.951 . S
C476 C475 1.340 . S
C476 C477 1.439 . S
C476 H516 0.950 . S
C477 C476 1.439 . S
C477 N478 1.374 . S
C477 C511 1.395 . S
N478 C474 1.376 . S
N478 C477 1.374 . S
N478 Co479 2.008 . S
Co479 N478 2.008 . S
Co479 N480 1.995 1_455 S
Co479 N485 2.008 1_455 S
Co479 N490 1.995 . S
Co479 N495 2.282 1_455 S
Co479 N501 2.282 . S
N480 Co479 1.995 1_655 S
N480 C481 1.376 . S
N480 C484 1.383 . S
C481 N480 1.376 . S
C481 C482 1.446 . S
C481 C511 1.391 1_655 S
C482 C481 1.446 . S
C482 C483 1.339 . S
C482 H517 0.949 . S
C483 C482 1.339 . S
C483 C484 1.439 . S
C483 H518 0.950 . S
C484 N480 1.383 . S
C484 C483 1.439 . S
C484 C513 1.392 . S
N485 Co479 2.008 1_655 S
N485 C486 1.376 . S
N485 C489 1.374 . S
C486 N485 1.376 . S
C486 C487 1.443 . S
C486 C513 1.389 . S
C487 C486 1.443 . S
C487 C488 1.340 . S
C487 H519 0.951 . S
C488 C487 1.340 . S
C488 C489 1.439 . S
C488 H520 0.950 . S
C489 N485 1.374 . S
C489 C488 1.439 . S
C489 C514 1.395 . S
N490 Co479 1.995 . S
N490 C491 1.376 . S
N490 C494 1.383 . S
C491 N490 1.376 . S
C491 C492 1.446 . S
C491 C514 1.391 1_455 S
C492 C491 1.446 . S
C492 C493 1.339 . S
C492 H521 0.949 . S
C493 C492 1.339 . S
C493 C494 1.439 . S
C493 H522 0.950 . S
C494 N490 1.383 . S
C494 C493 1.439 . S
C494 C512 1.392 . S
N495 Co479 2.282 1_655 S
N495 C498 1.332 . S
N495 C500 1.332 . S
C496 C497 1.386 . S
C496 C499 1.388 . S
C497 C496 1.386 . S
C497 C498 1.382 . S
C497 H523 0.950 . S
C498 N495 1.332 . S
C498 C497 1.382 . S
C498 H509 0.952 . S
C499 C496 1.388 . S
C499 C500 1.382 . S
C499 H524 0.950 . S
C500 N495 1.332 . S
C500 C499 1.382 . S
C500 H510 0.948 . S
N501 Co479 2.282 . S
N501 C505 1.332 . S
N501 C506 1.332 . S
C502 C503 1.388 . S
C502 C506 1.382 . S
C502 H525 0.950 . S
C503 C502 1.388 . S
C503 C504 1.386 . S
C504 C503 1.386 . S
C504 C505 1.382 . S
C504 H526 0.950 . S
C505 N501 1.332 . S
C505 C504 1.382 . S
C505 H507 0.952 . S
C506 N501 1.332 . S
C506 C502 1.382 . S
C506 H508 0.948 . S
H507 C505 0.952 . S
H508 C506 0.948 . S
H509 C498 0.952 . S
H510 C500 0.948 . S
C511 C477 1.395 . S
C511 C481 1.391 1_455 S
C512 C474 1.389 . S
C512 C494 1.392 . S
C513 C484 1.392 . S
C513 C486 1.389 . S
C514 C489 1.395 . S
C514 C491 1.391 1_655 S
H515 C475 0.951 . S
H516 C476 0.950 . S
H517 C482 0.949 . S
H518 C483 0.950 . S
H519 C487 0.951 . S
H520 C488 0.950 . S
H521 C492 0.949 . S
H522 C493 0.950 . S
H523 C497 0.950 . S
H524 C499 0.950 . S
H525 C502 0.950 . S
H526 C504 0.950 . S
C527 C528 1.443 . S
C527 N531 1.376 . S
C527 C565 1.389 . S
C528 C527 1.443 . S
C528 C529 1.340 . S
C528 H568 0.951 . S
C529 C528 1.340 . S
C529 C530 1.439 . S
C529 H569 0.950 . S
C530 C529 1.439 . S
C530 N531 1.374 . S
C530 C564 1.411 . S
N531 C527 1.376 . S
N531 C530 1.374 . S
N531 Co532 2.008 1_565 S
Co532 N531 2.008 1_545 S
Co532 N533 1.995 . S
Co532 N538 2.008 . S
Co532 N543 1.995 1_545 S
Co532 N548 2.282 . S
Co532 N554 2.282 1_545 S
N533 Co532 1.995 . S
N533 C534 1.376 . S
N533 C537 1.383 . S
C534 N533 1.376 . S
C534 C535 1.446 . S
C534 C564 1.374 1_545 S
C535 C534 1.446 . S
C535 C536 1.339 . S
C535 H570 0.949 . S
C536 C535 1.339 . S
C536 C537 1.439 . S
C536 H571 0.950 . S
C537 N533 1.383 . S
C537 C536 1.439 . S
C537 C566 1.392 . S
N538 Co532 2.008 . S
N538 C539 1.376 . S
N538 C542 1.374 . S
C539 N538 1.376 . S
C539 C540 1.443 . S
C539 C566 1.389 . S
C540 C539 1.443 . S
C540 C541 1.340 . S
C540 H572 0.951 . S
C541 C540 1.340 . S
C541 C542 1.439 . S
C541 H573 0.950 . S
C542 N538 1.374 . S
C542 C541 1.439 . S
C542 C567 1.395 . S
N543 Co532 1.995 1_565 S
N543 C544 1.376 . S
N543 C547 1.383 . S
C544 N543 1.376 . S
C544 C545 1.446 . S
C544 C567 1.391 1_565 S
C545 C544 1.446 . S
C545 C546 1.339 . S
C545 H574 0.949 . S
C546 C545 1.339 . S
C546 C547 1.439 . S
C546 H575 0.950 . S
C547 N543 1.383 . S
C547 C546 1.439 . S
C547 C565 1.392 . S
N548 Co532 2.282 . S
N548 C551 1.332 . S
N548 C553 1.332 . S
C549 C550 1.386 . S
C549 C552 1.388 . S
C550 C549 1.386 . S
C550 C551 1.382 . S
C550 H576 0.950 . S
C551 N548 1.332 . S
C551 C550 1.382 . S
C551 H562 0.952 . S
C552 C549 1.388 . S
C552 C553 1.382 . S
C552 H577 0.950 . S
C553 N548 1.332 . S
C553 C552 1.382 . S
C553 H563 0.948 . S
N554 Co532 2.282 1_565 S
N554 C558 1.332 . S
N554 C559 1.332 . S
C555 C556 1.388 . S
C555 C559 1.382 . S
C555 H578 0.950 . S
C556 C555 1.388 . S
C556 C557 1.386 . S
C557 C556 1.386 . S
C557 C558 1.382 . S
C557 H579 0.950 . S
C558 N554 1.332 . S
C558 C557 1.382 . S
C558 H560 0.952 . S
C559 N554 1.332 . S
C559 C555 1.382 . S
C559 H561 0.948 . S
H560 C558 0.952 . S
H561 C559 0.948 . S
H562 C551 0.952 . S
H563 C553 0.948 . S
C564 C530 1.411 . S
C564 C534 1.374 1_565 S
C565 C527 1.389 . S
C565 C547 1.392 . S
C566 C537 1.392 . S
C566 C539 1.389 . S
C567 C542 1.395 . S
C567 C544 1.391 1_545 S
H568 C528 0.951 . S
H569 C529 0.950 . S
H570 C535 0.949 . S
H571 C536 0.950 . S
H572 C540 0.951 . S
H573 C541 0.950 . S
H574 C545 0.949 . S
H575 C546 0.950 . S
H576 C550 0.950 . S
H577 C552 0.950 . S
H578 C555 0.950 . S
H579 C557 0.950 . S
C580 C581 1.443 . S
C580 N584 1.376 . S
C580 C618 1.389 . S
C581 C580 1.443 . S
C581 C582 1.340 . S
C581 H621 0.951 . S
C582 C581 1.340 . S
C582 C583 1.439 . S
C582 H622 0.950 . S
C583 C582 1.439 . S
C583 N584 1.374 . S
C583 C617 1.395 1_554 S
N584 C580 1.376 . S
N584 C583 1.374 . S
N584 Co585 2.012 . S
Co585 N584 2.012 . S
Co585 N586 1.990 1_554 S
Co585 N591 2.004 1_554 S
Co585 N596 1.999 . S
Co585 N601 2.290 . S
Co585 N607 2.275 1_554 S
N586 Co585 1.990 1_556 S
N586 C587 1.376 . S
N586 C590 1.383 . S
C587 N586 1.376 . S
C587 C588 1.446 . S
C587 C617 1.391 . S
C588 C587 1.446 . S
C588 C589 1.339 . S
C588 H623 0.949 . S
C589 C588 1.339 . S
C589 C590 1.439 . S
C589 H624 0.950 . S
C590 N586 1.383 . S
C590 C589 1.439 . S
C590 C619 1.392 . S
N591 Co585 2.004 1_556 S
N591 C592 1.376 . S
N591 C595 1.374 . S
C592 N591 1.376 . S
C592 C593 1.443 . S
C592 C619 1.389 . S
C593 C592 1.443 . S
C593 C594 1.340 . S
C593 H625 0.951 . S
C594 C593 1.340 . S
C594 C595 1.439 . S
C594 H626 0.950 . S
C595 N591 1.374 . S
C595 C594 1.439 . S
C595 C620 1.395 1_556 S
N596 Co585 1.999 . S
N596 C597 1.376 . S
N596 C600 1.383 . S
C597 N596 1.376 . S
C597 C598 1.446 . S
C597 C620 1.391 . S
C598 C597 1.446 . S
C598 C599 1.339 . S
C598 H627 0.949 . S
C599 C598 1.339 . S
C599 C600 1.439 . S
C599 H628 0.950 . S
C600 N596 1.383 . S
C600 C599 1.439 . S
C600 C618 1.392 . S
N601 Co585 2.290 . S
N601 C604 1.332 . S
N601 C606 1.332 . S
C602 C603 1.386 . S
C602 C605 1.388 . S
C603 C602 1.386 . S
C603 C604 1.382 . S
C603 H629 0.950 . S
C604 N601 1.332 . S
C604 C603 1.382 . S
C604 H615 0.952 . S
C605 C602 1.388 . S
C605 C606 1.382 . S
C605 H630 0.950 . S
C606 N601 1.332 . S
C606 C605 1.382 . S
C606 H616 0.948 . S
N607 Co585 2.275 1_556 S
N607 C611 1.332 . S
N607 C612 1.332 . S
C608 C609 1.388 . S
C608 C612 1.382 . S
C608 H631 0.950 . S
C609 C608 1.388 . S
C609 C610 1.386 . S
C610 C609 1.386 . S
C610 C611 1.382 . S
C610 H632 0.950 . S
C611 N607 1.332 . S
C611 C610 1.382 . S
C611 H613 0.952 . S
C612 N607 1.332 . S
C612 C608 1.382 . S
C612 H614 0.948 . S
H613 C611 0.952 . S
H614 C612 0.948 . S
H615 C604 0.952 . S
H616 C606 0.948 . S
C617 C583 1.395 1_556 S
C617 C587 1.391 . S
C618 C580 1.389 . S
C618 C600 1.392 . S
C619 C590 1.392 . S
C619 C592 1.389 . S
C620 C595 1.395 1_554 S
C620 C597 1.391 . S
H621 C581 0.951 . S
H622 C582 0.950 . S
H623 C588 0.949 . S
H624 C589 0.950 . S
H625 C593 0.951 . S
H626 C594 0.950 . S
H627 C598 0.949 . S
H628 C599 0.950 . S
H629 C603 0.950 . S
H630 C605 0.950 . S
H631 C608 0.950 . S
H632 C610 0.950 . S
C633 C634 1.443 . S
C633 N637 1.376 . S
C633 C671 1.389 . S
C634 C633 1.443 . S
C634 C635 1.340 . S
C634 H674 0.951 . S
C635 C634 1.340 . S
C635 C636 1.439 . S
C635 H675 0.950 . S
C636 C635 1.439 . S
C636 N637 1.374 . S
C636 C670 1.395 . S
N637 C633 1.376 . S
N637 C636 1.374 . S
N637 Co638 2.008 . S
Co638 N637 2.008 . S
Co638 N639 1.995 1_554 S
Co638 N644 2.008 1_554 S
Co638 N649 1.995 . S
Co638 N654 2.282 . S
Co638 N660 2.282 1_554 S
N639 Co638 1.995 1_556 S
N639 C640 1.376 . S
N639 C643 1.383 . S
C640 N639 1.376 . S
C640 C641 1.446 . S
C640 C670 1.391 1_556 S
C641 C640 1.446 . S
C641 C642 1.339 . S
C641 H676 0.949 . S
C642 C641 1.339 . S
C642 C643 1.439 . S
C642 H677 0.950 . S
C643 N639 1.383 . S
C643 C642 1.439 . S
C643 C672 1.392 . S
N644 Co638 2.008 1_556 S
N644 C645 1.376 . S
N644 C648 1.374 1_556 S
C645 N644 1.376 . S
C645 C646 1.443 . S
C645 C672 1.389 . S
C646 C645 1.443 . S
C646 C647 1.340 . S
C646 H678 0.951 . S
C647 C646 1.340 . S
C647 C648 1.439 1_556 S
C647 H679 0.950 . S
C648 N644 1.374 1_554 S
C648 C647 1.439 1_554 S
C648 C673 1.395 . S
N649 Co638 1.995 . S
N649 C650 1.376 . S
N649 C653 1.383 . S
C650 N649 1.376 . S
C650 C651 1.446 . S
C650 C673 1.391 . S
C651 C650 1.446 . S
C651 C652 1.339 . S
C651 H680 0.949 . S
C652 C651 1.339 . S
C652 C653 1.439 . S
C652 H681 0.950 . S
C653 N649 1.383 . S
C653 C652 1.439 . S
C653 C671 1.392 . S
N654 Co638 2.282 . S
N654 C657 1.332 . S
N654 C659 1.332 . S
C655 C656 1.386 . S
C655 C658 1.388 . S
C656 C655 1.386 . S
C656 C657 1.382 . S
C656 H682 0.950 . S
C657 N654 1.332 . S
C657 C656 1.382 . S
C657 H668 0.952 . S
C658 C655 1.388 . S
C658 C659 1.382 . S
C658 H683 0.950 . S
C659 N654 1.332 . S
C659 C658 1.382 . S
C659 H669 0.948 . S
N660 Co638 2.282 1_556 S
N660 C664 1.332 . S
N660 C665 1.332 . S
C661 C662 1.388 . S
C661 C665 1.382 . S
C661 H684 0.950 . S
C662 C661 1.388 . S
C662 C663 1.386 . S
C663 C662 1.386 . S
C663 C664 1.382 . S
C663 H685 0.950 . S
C664 N660 1.332 . S
C664 C663 1.382 . S
C664 H666 0.952 . S
C665 N660 1.332 . S
C665 C661 1.382 . S
C665 H667 0.948 . S
H666 C664 0.952 . S
H667 C665 0.948 . S
H668 C657 0.952 . S
H669 C659 0.948 . S
C670 C636 1.395 . S
C670 C640 1.391 1_554 S
C671 C633 1.389 . S
C671 C653 1.392 . S
C672 C643 1.392 . S
C672 C645 1.389 . S
C673 C648 1.395 . S
C673 C650 1.391 . S
H674 C634 0.951 . S
H675 C635 0.950 . S
H676 C641 0.949 . S
H677 C642 0.950 . S
H678 C646 0.951 . S
H679 C647 0.950 . S
H680 C651 0.949 . S
H681 C652 0.950 . S
H682 C656 0.950 . S
H683 C658 0.950 . S
H684 C661 0.950 . S
H685 C663 0.950 . S
C686 C687 1.443 . S
C686 N690 1.376 1_556 S
C686 C724 1.389 . S
C687 C686 1.443 . S
C687 C688 1.340 . S
C687 H727 0.951 . S
C688 C687 1.340 . S
C688 C689 1.439 1_556 S
C688 H728 0.950 1_556 S
C689 C688 1.439 1_554 S
C689 N690 1.374 . S
C689 C723 1.395 . S
N690 C686 1.376 1_554 S
N690 C689 1.374 . S
N690 Co691 2.008 . S
Co691 N690 2.008 . S
Co691 N692 1.995 . S
Co691 N697 2.008 . S
Co691 N702 1.995 1_554 S
Co691 N707 2.282 1_554 S
Co691 N713 2.282 . S
N692 Co691 1.995 . S
N692 C693 1.376 . S
N692 C696 1.383 . S
C693 N692 1.376 . S
C693 C694 1.446 . S
C693 C723 1.391 . S
C694 C693 1.446 . S
C694 C695 1.339 . S
C694 H729 0.949 . S
C695 C694 1.339 . S
C695 C696 1.439 . S
C695 H730 0.950 . S
C696 N692 1.383 . S
C696 C695 1.439 . S
C696 C725 1.392 . S
N697 Co691 2.008 . S
N697 C698 1.376 . S
N697 C701 1.374 . S
C698 N697 1.376 . S
C698 C699 1.443 . S
C698 C725 1.389 . S
C699 C698 1.443 . S
C699 C700 1.340 . S
C699 H731 0.951 . S
C700 C699 1.340 . S
C700 C701 1.439 . S
C700 H732 0.950 . S
C701 N697 1.374 . S
C701 C700 1.439 . S
C701 C726 1.395 . S
N702 Co691 1.995 1_556 S
N702 C703 1.376 . S
N702 C706 1.383 . S
C703 N702 1.376 . S
C703 C704 1.446 . S
C703 C726 1.391 1_556 S
C704 C703 1.446 . S
C704 C705 1.339 . S
C704 H733 0.949 . S
C705 C704 1.339 . S
C705 C706 1.439 . S
C705 H734 0.950 . S
C706 N702 1.383 . S
C706 C705 1.439 . S
C706 C724 1.392 . S
N707 Co691 2.282 1_556 S
N707 C710 1.332 . S
N707 C712 1.332 . S
C708 C709 1.386 . S
C708 C711 1.388 . S
C709 C708 1.386 . S
C709 C710 1.382 . S
C709 H735 0.950 . S
C710 N707 1.332 . S
C710 C709 1.382 . S
C710 H721 0.952 . S
C711 C708 1.388 . S
C711 C712 1.382 . S
C711 H736 0.950 . S
C712 N707 1.332 . S
C712 C711 1.382 . S
C712 H722 0.950 1_556 S
N713 Co691 2.282 . S
N713 C717 1.332 . S
N713 C718 1.332 . S
C714 C715 1.388 . S
C714 C718 1.382 . S
C714 H737 0.950 . S
C715 C714 1.388 . S
C715 C716 1.386 . S
C716 C715 1.386 . S
C716 C717 1.382 . S
C716 H738 0.950 . S
C717 N713 1.332 . S
C717 C716 1.382 . S
C717 H719 0.952 . S
C718 N713 1.332 . S
C718 C714 1.382 . S
C718 H720 0.948 . S
H719 C717 0.952 . S
H720 C718 0.948 . S
H721 C710 0.952 . S
H722 C712 0.950 1_554 S
C723 C689 1.395 . S
C723 C693 1.391 . S
C724 C686 1.389 . S
C724 C706 1.392 . S
C725 C696 1.392 . S
C725 C698 1.389 . S
C726 C701 1.395 . S
C726 C703 1.391 1_554 S
H727 C687 0.951 . S
H728 C688 0.950 1_554 S
H729 C694 0.949 . S
H730 C695 0.950 . S
H731 C699 0.951 . S
H732 C700 0.950 . S
H733 C704 0.949 . S
H734 C705 0.950 . S
H735 C709 0.950 . S
H736 C711 0.950 . S
H737 C714 0.950 . S
H738 C716 0.950 . S
C739 C740 1.443 . S
C739 N743 1.376 . S
C739 C777 1.389 . S
C740 C739 1.443 . S
C740 C741 1.340 . S
C740 H780 0.951 . S
C741 C740 1.340 . S
C741 C742 1.439 . S
C741 H781 0.950 . S
C742 C741 1.439 . S
C742 N743 1.374 . S
C742 C776 1.395 1_554 S
N743 C739 1.376 . S
N743 C742 1.374 . S
N743 Co744 2.008 . S
Co744 N743 2.008 . S
Co744 N745 1.995 1_554 S
Co744 N750 2.008 1_554 S
Co744 N755 1.995 . S
Co744 N760 2.282 . S
Co744 N766 2.282 1_554 S
N745 Co744 1.995 1_556 S
N745 C746 1.376 . S
N745 C749 1.383 . S
C746 N745 1.376 . S
C746 C747 1.446 . S
C746 C776 1.391 . S
C747 C746 1.446 . S
C747 C748 1.339 . S
C747 H782 0.949 . S
C748 C747 1.339 . S
C748 C749 1.439 . S
C748 H783 0.950 . S
C749 N745 1.383 . S
C749 C748 1.439 . S
C749 C778 1.392 . S
N750 Co744 2.008 1_556 S
N750 C751 1.376 . S
N750 C754 1.374 1_556 S
C751 N750 1.376 . S
C751 C752 1.443 . S
C751 C778 1.389 . S
C752 C751 1.443 . S
C752 C753 1.340 . S
C752 H784 0.951 . S
C753 C752 1.340 . S
C753 C754 1.439 1_556 S
C753 H785 0.950 . S
C754 N750 1.374 1_554 S
C754 C753 1.439 1_554 S
C754 C779 1.395 . S
N755 Co744 1.995 . S
N755 C756 1.376 . S
N755 C759 1.383 . S
C756 N755 1.376 . S
C756 C757 1.446 . S
C756 C779 1.391 . S
C757 C756 1.446 . S
C757 C758 1.339 . S
C757 H786 0.949 . S
C758 C757 1.339 . S
C758 C759 1.439 . S
C758 H787 0.950 . S
C759 N755 1.383 . S
C759 C758 1.439 . S
C759 C777 1.392 . S
N760 Co744 2.282 . S
N760 C763 1.332 . S
N760 C765 1.332 . S
C761 C762 1.386 . S
C761 C764 1.388 . S
C762 C761 1.386 . S
C762 C763 1.382 . S
C762 H788 0.950 . S
C763 N760 1.332 . S
C763 C762 1.382 . S
C763 H774 0.952 . S
C764 C761 1.388 . S
C764 C765 1.382 . S
C764 H789 0.950 . S
C765 N760 1.332 . S
C765 C764 1.382 . S
C765 H775 0.948 . S
N766 Co744 2.282 1_556 S
N766 C770 1.332 . S
N766 C771 1.332 . S
C767 C768 1.388 . S
C767 C771 1.382 . S
C767 H790 0.950 . S
C768 C767 1.388 . S
C768 C769 1.386 . S
C769 C768 1.386 . S
C769 C770 1.382 . S
C769 H791 0.950 . S
C770 N766 1.332 . S
C770 C769 1.382 . S
C770 H772 0.952 . S
C771 N766 1.332 . S
C771 C767 1.382 . S
C771 H773 0.948 . S
H772 C770 0.952 . S
H773 C771 0.948 . S
H774 C763 0.952 . S
H775 C765 0.948 . S
C776 C742 1.395 1_556 S
C776 C746 1.391 . S
C777 C739 1.389 . S
C777 C759 1.392 . S
C778 C749 1.392 . S
C778 C751 1.389 . S
C779 C754 1.395 . S
C779 C756 1.391 . S
H780 C740 0.951 . S
H781 C741 0.950 . S
H782 C747 0.949 . S
H783 C748 0.950 . S
H784 C752 0.951 . S
H785 C753 0.950 . S
H786 C757 0.949 . S
H787 C758 0.950 . S
H788 C762 0.950 . S
H789 C764 0.950 . S
H790 C767 0.950 . S
H791 C769 0.950 . S
C792 C793 1.391 . S
C792 C794 1.394 . S
C792 H808 0.931 . S
C793 C792 1.391 . S
C793 C797 1.376 . S
C794 C792 1.394 . S
C794 C795 1.369 . S
C794 C798 1.531 . S
C795 C794 1.369 . S
C795 C796 1.410 . S
C795 C803 1.503 . S
C796 C795 1.410 . S
C796 C797 1.392 . S
C796 C799 1.511 . S
C797 C793 1.376 . S
C797 C796 1.392 . S
C797 H809 0.929 . S
C798 C794 1.531 . S
C798 H810 0.960 . S
C798 H811 0.962 . S
C798 H812 0.960 . S
C799 C796 1.511 . S
C799 H813 0.961 . S
C799 H814 0.961 . S
C799 H815 0.961 . S
C800 C801 1.370 . S
C800 C802 1.363 . S
C800 H816 0.931 . S
C801 C800 1.370 . S
C801 C805 1.408 . S
C802 C800 1.363 . S
C802 C803 1.370 . S
C802 C806 1.524 . S
C803 C795 1.503 . S
C803 C802 1.370 . S
C803 C804 1.403 . S
C804 C803 1.403 . S
C804 C805 1.404 . S
C804 C807 1.539 . S
C805 C801 1.408 . S
C805 C804 1.404 . S
C805 H817 0.930 . S
C806 C802 1.524 . S
C806 H818 0.956 . S
C806 H819 0.961 . S
C806 H820 0.961 . S
C807 C804 1.539 . S
C807 H821 0.958 . S
C807 H822 0.961 . S
C807 H823 0.960 . S
H808 C792 0.931 . S
H809 C797 0.929 . S
H810 C798 0.960 . S
H811 C798 0.962 . S
H812 C798 0.960 . S
H813 C799 0.961 . S
H814 C799 0.961 . S
H815 C799 0.961 . S
H816 C800 0.931 . S
H817 C805 0.930 . S
H818 C806 0.956 . S
H819 C806 0.961 . S
H820 C806 0.961 . S
H821 C807 0.958 . S
H822 C807 0.961 . S
H823 C807 0.960 . S
C824 C825 1.391 . S
C824 C826 1.394 . S
C824 H840 0.931 . S
C825 C824 1.391 . S
C825 C829 1.376 . S
C826 C824 1.394 . S
C826 C827 1.369 . S
C826 C830 1.531 . S
C827 C826 1.369 . S
C827 C828 1.410 . S
C827 C835 1.503 . S
C828 C827 1.410 . S
C828 C829 1.392 . S
C828 C831 1.511 . S
C829 C825 1.376 . S
C829 C828 1.392 . S
C829 H841 0.929 . S
C830 C826 1.531 . S
C830 H842 0.960 . S
C830 H843 0.962 . S
C830 H844 0.960 . S
C831 C828 1.511 . S
C831 H845 0.961 . S
C831 H846 0.961 . S
C831 H847 0.961 . S
C832 C833 1.370 . S
C832 C834 1.363 . S
C832 H848 0.931 . S
C833 C832 1.370 . S
C833 C837 1.408 . S
C834 C832 1.363 . S
C834 C835 1.370 . S
C834 C838 1.524 . S
C835 C827 1.503 . S
C835 C834 1.370 . S
C835 C836 1.403 . S
C836 C835 1.403 . S
C836 C837 1.404 . S
C836 C839 1.539 . S
C837 C833 1.408 . S
C837 C836 1.404 . S
C837 H849 0.930 . S
C838 C834 1.524 . S
C838 H850 0.956 . S
C838 H851 0.961 . S
C838 H852 0.961 . S
C839 C836 1.539 . S
C839 H853 0.958 . S
C839 H854 0.961 . S
C839 H855 0.960 . S
H840 C824 0.931 . S
H841 C829 0.929 . S
H842 C830 0.960 . S
H843 C830 0.962 . S
H844 C830 0.960 . S
H845 C831 0.961 . S
H846 C831 0.961 . S
H847 C831 0.961 . S
H848 C832 0.931 . S
H849 C837 0.930 . S
H850 C838 0.956 . S
H851 C838 0.961 . S
H852 C838 0.961 . S
H853 C839 0.958 . S
H854 C839 0.961 . S
H855 C839 0.960 . S
C856 C857 1.391 . S
C856 C858 1.394 . S
C856 H872 0.931 . S
C857 C856 1.391 . S
C857 C861 1.376 . S
C858 C856 1.394 . S
C858 C859 1.369 . S
C858 C862 1.531 . S
C859 C858 1.369 . S
C859 C860 1.410 . S
C859 C867 1.503 . S
C860 C859 1.410 . S
C860 C861 1.392 . S
C860 C863 1.511 . S
C861 C857 1.376 . S
C861 C860 1.392 . S
C861 H873 0.929 . S
C862 C858 1.531 . S
C862 H874 0.960 . S
C862 H875 0.962 . S
C862 H876 0.960 . S
C863 C860 1.511 . S
C863 H877 0.961 . S
C863 H878 0.961 . S
C863 H879 0.961 . S
C864 C865 1.370 . S
C864 C866 1.363 . S
C864 H880 0.931 . S
C865 C864 1.370 . S
C865 C869 1.408 . S
C866 C864 1.363 . S
C866 C867 1.370 . S
C866 C870 1.524 . S
C867 C859 1.503 . S
C867 C866 1.370 . S
C867 C868 1.403 . S
C868 C867 1.403 . S
C868 C869 1.404 . S
C868 C871 1.539 . S
C869 C865 1.408 . S
C869 C868 1.404 . S
C869 H881 0.930 . S
C870 C866 1.524 . S
C870 H882 0.956 . S
C870 H883 0.961 . S
C870 H884 0.961 . S
C871 C868 1.539 . S
C871 H885 0.958 . S
C871 H886 0.961 . S
C871 H887 0.960 . S
H872 C856 0.931 . S
H873 C861 0.929 . S
H874 C862 0.960 . S
H875 C862 0.962 . S
H876 C862 0.960 . S
H877 C863 0.961 . S
H878 C863 0.961 . S
H879 C863 0.961 . S
H880 C864 0.931 . S
H881 C869 0.930 . S
H882 C870 0.956 . S
H883 C870 0.961 . S
H884 C870 0.961 . S
H885 C871 0.958 . S
H886 C871 0.961 . S
H887 C871 0.960 . S
C888 C889 1.391 . S
C888 C890 1.394 . S
C888 H904 0.931 . S
C889 C888 1.391 . S
C889 C893 1.376 . S
C890 C888 1.394 . S
C890 C891 1.369 . S
C890 C894 1.531 . S
C891 C890 1.369 . S
C891 C892 1.410 . S
C891 C899 1.503 . S
C892 C891 1.410 . S
C892 C893 1.392 . S
C892 C895 1.511 . S
C893 C889 1.376 . S
C893 C892 1.392 . S
C893 H905 0.929 . S
C894 C890 1.531 . S
C894 H906 0.960 . S
C894 H907 0.962 . S
C894 H908 0.960 . S
C895 C892 1.511 . S
C895 H909 0.961 . S
C895 H910 0.961 . S
C895 H911 0.961 . S
C896 C897 1.370 . S
C896 C898 1.363 . S
C896 H912 0.931 . S
C897 C896 1.370 . S
C897 C901 1.408 . S
C898 C896 1.363 . S
C898 C899 1.370 . S
C898 C902 1.524 . S
C899 C891 1.503 . S
C899 C898 1.370 . S
C899 C900 1.403 . S
C900 C899 1.403 . S
C900 C901 1.404 . S
C900 C903 1.539 . S
C901 C897 1.408 . S
C901 C900 1.404 . S
C901 H913 0.930 . S
C902 C898 1.524 . S
C902 H914 0.956 . S
C902 H915 0.961 . S
C902 H916 0.961 . S
C903 C900 1.539 . S
C903 H917 0.958 . S
C903 H918 0.961 . S
C903 H919 0.960 . S
H904 C888 0.931 . S
H905 C893 0.929 . S
H906 C894 0.960 . S
H907 C894 0.962 . S
H908 C894 0.960 . S
H909 C895 0.961 . S
H910 C895 0.961 . S
H911 C895 0.961 . S
H912 C896 0.931 . S
H913 C901 0.930 . S
H914 C902 0.956 . S
H915 C902 0.961 . S
H916 C902 0.961 . S
H917 C903 0.958 . S
H918 C903 0.961 . S
H919 C903 0.960 . S
C920 C921 1.391 . S
C920 C922 1.394 . S
C920 H936 0.931 . S
C921 C920 1.391 . S
C921 C925 1.376 . S
C922 C920 1.394 . S
C922 C923 1.369 . S
C922 C926 1.531 . S
C923 C922 1.369 . S
C923 C924 1.410 . S
C923 C931 1.503 . S
C924 C923 1.410 . S
C924 C925 1.392 . S
C924 C927 1.511 . S
C925 C921 1.376 . S
C925 C924 1.392 . S
C925 H937 0.929 . S
C926 C922 1.531 . S
C926 H938 0.960 . S
C926 H939 0.962 . S
C926 H940 0.960 . S
C927 C924 1.511 . S
C927 H941 0.961 . S
C927 H942 0.961 . S
C927 H943 0.961 . S
C928 C929 1.370 . S
C928 C930 1.363 . S
C928 H944 0.931 . S
C929 C928 1.370 . S
C929 C933 1.408 . S
C930 C928 1.363 . S
C930 C931 1.370 . S
C930 C934 1.524 . S
C931 C923 1.503 . S
C931 C930 1.370 . S
C931 C932 1.403 . S
C932 C931 1.403 . S
C932 C933 1.404 . S
C932 C935 1.539 . S
C933 C929 1.408 . S
C933 C932 1.404 . S
C933 H945 0.930 . S
C934 C930 1.524 . S
C934 H946 0.956 . S
C934 H947 0.961 . S
C934 H948 0.961 . S
C935 C932 1.539 . S
C935 H949 0.958 . S
C935 H950 0.961 . S
C935 H951 0.960 . S
H936 C920 0.931 . S
H937 C925 0.929 . S
H938 C926 0.960 . S
H939 C926 0.962 . S
H940 C926 0.960 . S
H941 C927 0.961 . S
H942 C927 0.961 . S
H943 C927 0.961 . S
H944 C928 0.931 . S
H945 C933 0.930 . S
H946 C934 0.956 . S
H947 C934 0.961 . S
H948 C934 0.961 . S
H949 C935 0.958 . S
H950 C935 0.961 . S
H951 C935 0.960 . S
C952 C953 1.391 . S
C952 C954 1.394 . S
C952 H968 0.931 . S
C953 C952 1.391 . S
C953 C957 1.376 . S
C954 C952 1.394 . S
C954 C955 1.369 . S
C954 C958 1.531 . S
C955 C954 1.369 . S
C955 C956 1.410 . S
C955 C963 1.503 . S
C956 C955 1.410 . S
C956 C957 1.392 . S
C956 C959 1.511 . S
C957 C953 1.376 . S
C957 C956 1.392 . S
C957 H969 0.929 . S
C958 C954 1.531 . S
C958 H970 0.960 . S
C958 H971 0.962 . S
C958 H972 0.960 . S
C959 C956 1.511 . S
C959 H973 0.961 . S
C959 H974 0.961 . S
C959 H975 0.961 . S
C960 C961 1.370 . S
C960 C962 1.363 . S
C960 H976 0.931 . S
C961 C960 1.370 . S
C961 C965 1.408 . S
C962 C960 1.363 . S
C962 C963 1.370 . S
C962 C966 1.524 . S
C963 C955 1.503 . S
C963 C962 1.370 . S
C963 C964 1.403 . S
C964 C963 1.403 . S
C964 C965 1.404 . S
C964 C967 1.539 . S
C965 C961 1.408 . S
C965 C964 1.404 . S
C965 H977 0.930 . S
C966 C962 1.524 . S
C966 H978 0.956 . S
C966 H979 0.961 . S
C966 H980 0.961 . S
C967 C964 1.539 . S
C967 H981 0.958 . S
C967 H982 0.961 . S
C967 H983 0.960 . S
H968 C952 0.931 . S
H969 C957 0.929 . S
H970 C958 0.960 . S
H971 C958 0.962 . S
H972 C958 0.960 . S
H973 C959 0.961 . S
H974 C959 0.961 . S
H975 C959 0.961 . S
H976 C960 0.931 . S
H977 C965 0.930 . S
H978 C966 0.956 . S
H979 C966 0.961 . S
H980 C966 0.961 . S
H981 C967 0.958 . S
H982 C967 0.961 . S
H983 C967 0.960 . S
C984 C985 1.391 . S
C984 C986 1.394 . S
C984 H1000 0.931 . S
C985 C984 1.391 . S
C985 C989 1.376 . S
C986 C984 1.394 . S
C986 C987 1.369 . S
C986 C990 1.531 . S
C987 C986 1.369 . S
C987 C988 1.410 . S
C987 C995 1.503 . S
C988 C987 1.410 . S
C988 C989 1.392 . S
C988 C991 1.511 . S
C989 C985 1.376 . S
C989 C988 1.392 . S
C989 H1001 0.929 . S
C990 C986 1.531 . S
C990 H1002 0.960 . S
C990 H1003 0.962 . S
C990 H1004 0.960 . S
C991 C988 1.511 . S
C991 H1005 0.961 . S
C991 H1006 0.961 . S
C991 H1007 0.961 . S
C992 C993 1.370 . S
C992 C994 1.363 . S
C992 H1008 0.931 . S
C993 C992 1.370 . S
C993 C997 1.408 . S
C994 C992 1.363 . S
C994 C995 1.370 . S
C994 C998 1.524 . S
C995 C987 1.503 . S
C995 C994 1.370 . S
C995 C996 1.403 . S
C996 C995 1.403 . S
C996 C997 1.404 . S
C996 C999 1.539 . S
C997 C993 1.408 . S
C997 C996 1.404 . S
C997 H1009 0.930 . S
C998 C994 1.524 . S
C998 H1010 0.956 . S
C998 H1011 0.961 . S
C998 H1012 0.961 . S
C999 C996 1.539 . S
C999 H1013 0.958 . S
C999 H1014 0.961 . S
C999 H1015 0.960 . S
H1000 C984 0.931 . S
H1001 C989 0.929 . S
H1002 C990 0.960 . S
H1003 C990 0.962 . S
H1004 C990 0.960 . S
H1005 C991 0.961 . S
H1006 C991 0.961 . S
H1007 C991 0.961 . S
H1008 C992 0.931 . S
H1009 C997 0.930 . S
H1010 C998 0.956 . S
H1011 C998 0.961 . S
H1012 C998 0.961 . S
H1013 C999 0.958 . S
H1014 C999 0.961 . S
H1015 C999 0.960 . S
C1016 C1017 1.391 . S
C1016 C1018 1.394 . S
C1016 H1032 0.931 . S
C1017 C1016 1.391 . S
C1017 C1021 1.376 . S
C1018 C1016 1.394 . S
C1018 C1019 1.369 . S
C1018 C1022 1.531 . S
C1019 C1018 1.369 . S
C1019 C1020 1.410 . S
C1019 C1027 1.503 . S
C1020 C1019 1.410 . S
C1020 C1021 1.392 . S
C1020 C1023 1.511 . S
C1021 C1017 1.376 . S
C1021 C1020 1.392 . S
C1021 H1033 0.929 . S
C1022 C1018 1.531 . S
C1022 H1034 0.960 . S
C1022 H1035 0.962 . S
C1022 H1036 0.960 . S
C1023 C1020 1.511 . S
C1023 H1037 0.961 . S
C1023 H1038 0.961 . S
C1023 H1039 0.961 . S
C1024 C1025 1.370 . S
C1024 C1026 1.363 . S
C1024 H1040 0.931 . S
C1025 C1024 1.370 . S
C1025 C1029 1.408 . S
C1026 C1024 1.363 . S
C1026 C1027 1.370 . S
C1026 C1030 1.524 . S
C1027 C1019 1.503 . S
C1027 C1026 1.370 . S
C1027 C1028 1.403 . S
C1028 C1027 1.403 . S
C1028 C1029 1.404 . S
C1028 C1031 1.539 . S
C1029 C1025 1.408 . S
C1029 C1028 1.404 . S
C1029 H1041 0.930 . S
C1030 C1026 1.524 . S
C1030 H1042 0.956 . S
C1030 H1043 0.961 . S
C1030 H1044 0.961 . S
C1031 C1028 1.539 . S
C1031 H1045 0.958 . S
C1031 H1046 0.961 . S
C1031 H1047 0.960 . S
H1032 C1016 0.931 . S
H1033 C1021 0.929 . S
H1034 C1022 0.960 . S
H1035 C1022 0.962 . S
H1036 C1022 0.960 . S
H1037 C1023 0.961 . S
H1038 C1023 0.961 . S
H1039 C1023 0.961 . S
H1040 C1024 0.931 . S
H1041 C1029 0.930 . S
H1042 C1030 0.956 . S
H1043 C1030 0.961 . S
H1044 C1030 0.961 . S
H1045 C1031 0.958 . S
H1046 C1031 0.961 . S
H1047 C1031 0.960 . S
C1048 C1049 1.391 . S
C1048 C1050 1.394 . S
C1048 H1064 0.931 . S
C1049 C1048 1.391 . S
C1049 C1053 1.376 . S
C1050 C1048 1.394 . S
C1050 C1051 1.369 . S
C1050 C1054 1.531 . S
C1051 C1050 1.369 . S
C1051 C1052 1.410 . S
C1051 C1059 1.503 . S
C1052 C1051 1.410 . S
C1052 C1053 1.392 . S
C1052 C1055 1.511 . S
C1053 C1049 1.376 . S
C1053 C1052 1.392 . S
C1053 H1065 0.929 . S
C1054 C1050 1.531 . S
C1054 H1066 0.960 . S
C1054 H1067 0.962 . S
C1054 H1068 0.960 . S
C1055 C1052 1.511 . S
C1055 H1069 0.961 . S
C1055 H1070 0.961 . S
C1055 H1071 0.961 . S
C1056 C1057 1.370 . S
C1056 C1058 1.363 . S
C1056 H1072 0.931 . S
C1057 C1056 1.370 . S
C1057 C1061 1.408 . S
C1058 C1056 1.363 . S
C1058 C1059 1.370 . S
C1058 C1062 1.524 . S
C1059 C1051 1.503 . S
C1059 C1058 1.370 . S
C1059 C1060 1.403 . S
C1060 C1059 1.403 . S
C1060 C1061 1.404 . S
C1060 C1063 1.539 . S
C1061 C1057 1.408 . S
C1061 C1060 1.404 . S
C1061 H1073 0.930 . S
C1062 C1058 1.524 . S
C1062 H1074 0.956 . S
C1062 H1075 0.961 . S
C1062 H1076 0.961 . S
C1063 C1060 1.539 . S
C1063 H1077 0.958 . S
C1063 H1078 0.961 . S
C1063 H1079 0.960 . S
H1064 C1048 0.931 . S
H1065 C1053 0.929 . S
H1066 C1054 0.960 . S
H1067 C1054 0.962 . S
H1068 C1054 0.960 . S
H1069 C1055 0.961 . S
H1070 C1055 0.961 . S
H1071 C1055 0.961 . S
H1072 C1056 0.931 . S
H1073 C1061 0.930 . S
H1074 C1062 0.956 . S
H1075 C1062 0.961 . S
H1076 C1062 0.961 . S
H1077 C1063 0.958 . S
H1078 C1063 0.961 . S
H1079 C1063 0.960 . S
C1080 C1081 1.391 . S
C1080 C1082 1.394 . S
C1080 H1096 0.931 . S
C1081 C1080 1.391 . S
C1081 C1085 1.376 . S
C1082 C1080 1.394 . S
C1082 C1083 1.369 . S
C1082 C1086 1.531 . S
C1083 C1082 1.369 . S
C1083 C1084 1.410 . S
C1083 C1091 1.503 . S
C1084 C1083 1.410 . S
C1084 C1085 1.392 . S
C1084 C1087 1.511 . S
C1085 C1081 1.376 . S
C1085 C1084 1.392 . S
C1085 H1097 0.929 . S
C1086 C1082 1.531 . S
C1086 H1098 0.960 . S
C1086 H1099 0.962 . S
C1086 H1100 0.960 . S
C1087 C1084 1.511 . S
C1087 H1101 0.961 . S
C1087 H1102 0.961 . S
C1087 H1103 0.961 . S
C1088 C1089 1.370 . S
C1088 C1090 1.363 . S
C1088 H1104 0.931 . S
C1089 C1088 1.370 . S
C1089 C1093 1.408 . S
C1090 C1088 1.363 . S
C1090 C1091 1.370 . S
C1090 C1094 1.524 . S
C1091 C1083 1.503 . S
C1091 C1090 1.370 . S
C1091 C1092 1.403 . S
C1092 C1091 1.403 . S
C1092 C1093 1.404 . S
C1092 C1095 1.539 . S
C1093 C1089 1.408 . S
C1093 C1092 1.404 . S
C1093 H1105 0.930 . S
C1094 C1090 1.524 . S
C1094 H1106 0.956 . S
C1094 H1107 0.961 . S
C1094 H1108 0.961 . S
C1095 C1092 1.539 . S
C1095 H1109 0.958 . S
C1095 H1110 0.961 . S
C1095 H1111 0.960 . S
H1096 C1080 0.931 . S
H1097 C1085 0.929 . S
H1098 C1086 0.960 . S
H1099 C1086 0.962 . S
H1100 C1086 0.960 . S
H1101 C1087 0.961 . S
H1102 C1087 0.961 . S
H1103 C1087 0.961 . S
H1104 C1088 0.931 . S
H1105 C1093 0.930 . S
H1106 C1094 0.956 . S
H1107 C1094 0.961 . S
H1108 C1094 0.961 . S
H1109 C1095 0.958 . S
H1110 C1095 0.961 . S
H1111 C1095 0.960 . S
C1112 C1113 1.391 . S
C1112 C1114 1.394 . S
C1112 H1128 0.931 . S
C1113 C1112 1.391 . S
C1113 C1117 1.376 . S
C1114 C1112 1.394 . S
C1114 C1115 1.369 . S
C1114 C1118 1.531 . S
C1115 C1114 1.369 . S
C1115 C1116 1.410 . S
C1115 C1123 1.503 . S
C1116 C1115 1.410 . S
C1116 C1117 1.392 . S
C1116 C1119 1.511 . S
C1117 C1113 1.376 . S
C1117 C1116 1.392 . S
C1117 H1129 0.929 . S
C1118 C1114 1.531 . S
C1118 H1130 0.960 . S
C1118 H1131 0.962 . S
C1118 H1132 0.960 . S
C1119 C1116 1.511 . S
C1119 H1133 0.961 . S
C1119 H1134 0.961 . S
C1119 H1135 0.961 . S
C1120 C1121 1.370 . S
C1120 C1122 1.363 . S
C1120 H1136 0.931 . S
C1121 C1120 1.370 . S
C1121 C1125 1.408 . S
C1122 C1120 1.363 . S
C1122 C1123 1.370 . S
C1122 C1126 1.524 . S
C1123 C1115 1.503 . S
C1123 C1122 1.370 . S
C1123 C1124 1.403 . S
C1124 C1123 1.403 . S
C1124 C1125 1.404 . S
C1124 C1127 1.539 . S
C1125 C1121 1.408 . S
C1125 C1124 1.404 . S
C1125 H1137 0.930 . S
C1126 C1122 1.524 . S
C1126 H1138 0.956 . S
C1126 H1139 0.961 . S
C1126 H1140 0.961 . S
C1127 C1124 1.539 . S
C1127 H1141 0.958 . S
C1127 H1142 0.961 . S
C1127 H1143 0.960 . S
H1128 C1112 0.931 . S
H1129 C1117 0.929 . S
H1130 C1118 0.960 . S
H1131 C1118 0.962 . S
H1132 C1118 0.960 . S
H1133 C1119 0.961 . S
H1134 C1119 0.961 . S
H1135 C1119 0.961 . S
H1136 C1120 0.931 . S
H1137 C1125 0.930 . S
H1138 C1126 0.956 . S
H1139 C1126 0.961 . S
H1140 C1126 0.961 . S
H1141 C1127 0.958 . S
H1142 C1127 0.961 . S
H1143 C1127 0.960 . S
C1144 C1145 1.391 . S
C1144 C1146 1.394 . S
C1144 H1160 0.931 . S
C1145 C1144 1.391 . S
C1145 C1149 1.376 . S
C1146 C1144 1.394 . S
C1146 C1147 1.369 . S
C1146 C1150 1.531 . S
C1147 C1146 1.369 . S
C1147 C1148 1.410 . S
C1147 C1155 1.503 . S
C1148 C1147 1.410 . S
C1148 C1149 1.392 . S
C1148 C1151 1.511 . S
C1149 C1145 1.376 . S
C1149 C1148 1.392 . S
C1149 H1161 0.929 . S
C1150 C1146 1.531 . S
C1150 H1162 0.960 . S
C1150 H1163 0.962 . S
C1150 H1164 0.960 . S
C1151 C1148 1.511 . S
C1151 H1165 0.961 . S
C1151 H1166 0.961 . S
C1151 H1167 0.961 . S
C1152 C1153 1.370 . S
C1152 C1154 1.363 . S
C1152 H1168 0.931 . S
C1153 C1152 1.370 . S
C1153 C1157 1.408 . S
C1154 C1152 1.363 . S
C1154 C1155 1.370 . S
C1154 C1158 1.524 . S
C1155 C1147 1.503 . S
C1155 C1154 1.370 . S
C1155 C1156 1.403 . S
C1156 C1155 1.403 . S
C1156 C1157 1.404 . S
C1156 C1159 1.539 . S
C1157 C1153 1.408 . S
C1157 C1156 1.404 . S
C1157 H1169 0.930 . S
C1158 C1154 1.524 . S
C1158 H1170 0.956 . S
C1158 H1171 0.961 . S
C1158 H1172 0.961 . S
C1159 C1156 1.539 . S
C1159 H1173 0.958 . S
C1159 H1174 0.961 . S
C1159 H1175 0.960 . S
H1160 C1144 0.931 . S
H1161 C1149 0.929 . S
H1162 C1150 0.960 . S
H1163 C1150 0.962 . S
H1164 C1150 0.960 . S
H1165 C1151 0.961 . S
H1166 C1151 0.961 . S
H1167 C1151 0.961 . S
H1168 C1152 0.931 . S
H1169 C1157 0.930 . S
H1170 C1158 0.956 . S
H1171 C1158 0.961 . S
H1172 C1158 0.961 . S
H1173 C1159 0.958 . S
H1174 C1159 0.961 . S
H1175 C1159 0.960 . S
C1176 C1177 1.391 . S
C1176 C1178 1.394 . S
C1176 H1192 0.931 . S
C1177 C1176 1.391 . S
C1177 C1181 1.376 . S
C1178 C1176 1.394 . S
C1178 C1179 1.369 . S
C1178 C1182 1.531 . S
C1179 C1178 1.369 . S
C1179 C1180 1.410 . S
C1179 C1187 1.503 . S
C1180 C1179 1.410 . S
C1180 C1181 1.392 . S
C1180 C1183 1.511 . S
C1181 C1177 1.376 . S
C1181 C1180 1.392 . S
C1181 H1193 0.929 . S
C1182 C1178 1.531 . S
C1182 H1194 0.960 . S
C1182 H1195 0.962 . S
C1182 H1196 0.960 . S
C1183 C1180 1.511 . S
C1183 H1197 0.961 . S
C1183 H1198 0.961 . S
C1183 H1199 0.961 . S
C1184 C1185 1.370 . S
C1184 C1186 1.363 . S
C1184 H1200 0.931 . S
C1185 C1184 1.370 . S
C1185 C1189 1.408 . S
C1186 C1184 1.363 . S
C1186 C1187 1.370 . S
C1186 C1190 1.524 . S
C1187 C1179 1.503 . S
C1187 C1186 1.370 . S
C1187 C1188 1.403 . S
C1188 C1187 1.403 . S
C1188 C1189 1.404 . S
C1188 C1191 1.539 . S
C1189 C1185 1.408 . S
C1189 C1188 1.404 . S
C1189 H1201 0.930 . S
C1190 C1186 1.524 . S
C1190 H1202 0.956 . S
C1190 H1203 0.961 . S
C1190 H1204 0.961 . S
C1191 C1188 1.539 . S
C1191 H1205 0.958 . S
C1191 H1206 0.961 . S
C1191 H1207 0.960 . S
H1192 C1176 0.931 . S
H1193 C1181 0.929 . S
H1194 C1182 0.960 . S
H1195 C1182 0.962 . S
H1196 C1182 0.960 . S
H1197 C1183 0.961 . S
H1198 C1183 0.961 . S
H1199 C1183 0.961 . S
H1200 C1184 0.931 . S
H1201 C1189 0.930 . S
H1202 C1190 0.956 . S
H1203 C1190 0.961 . S
H1204 C1190 0.961 . S
H1205 C1191 0.958 . S
H1206 C1191 0.961 . S
H1207 C1191 0.960 . S
C1208 C1209 1.391 . S
C1208 C1210 1.394 . S
C1208 H1224 0.931 . S
C1209 C1208 1.391 . S
C1209 C1213 1.376 . S
C1210 C1208 1.394 . S
C1210 C1211 1.369 . S
C1210 C1214 1.531 . S
C1211 C1210 1.369 . S
C1211 C1212 1.410 . S
C1211 C1219 1.503 . S
C1212 C1211 1.410 . S
C1212 C1213 1.392 . S
C1212 C1215 1.511 . S
C1213 C1209 1.376 . S
C1213 C1212 1.392 . S
C1213 H1225 0.929 . S
C1214 C1210 1.531 . S
C1214 H1226 0.960 . S
C1214 H1227 0.962 . S
C1214 H1228 0.960 . S
C1215 C1212 1.511 . S
C1215 H1229 0.961 . S
C1215 H1230 0.961 . S
C1215 H1231 0.961 . S
C1216 C1217 1.370 . S
C1216 C1218 1.363 . S
C1216 H1232 0.931 . S
C1217 C1216 1.370 . S
C1217 C1221 1.408 . S
C1218 C1216 1.363 . S
C1218 C1219 1.370 . S
C1218 C1222 1.524 . S
C1219 C1211 1.503 . S
C1219 C1218 1.370 . S
C1219 C1220 1.403 . S
C1220 C1219 1.403 . S
C1220 C1221 1.404 . S
C1220 C1223 1.539 . S
C1221 C1217 1.408 . S
C1221 C1220 1.404 . S
C1221 H1233 0.930 . S
C1222 C1218 1.524 . S
C1222 H1234 0.956 . S
C1222 H1235 0.961 . S
C1222 H1236 0.961 . S
C1223 C1220 1.539 . S
C1223 H1237 0.958 . S
C1223 H1238 0.961 . S
C1223 H1239 0.960 . S
H1224 C1208 0.931 . S
H1225 C1213 0.929 . S
H1226 C1214 0.960 . S
H1227 C1214 0.962 . S
H1228 C1214 0.960 . S
H1229 C1215 0.961 . S
H1230 C1215 0.961 . S
H1231 C1215 0.961 . S
H1232 C1216 0.931 . S
H1233 C1221 0.930 . S
H1234 C1222 0.956 . S
H1235 C1222 0.961 . S
H1236 C1222 0.961 . S
H1237 C1223 0.958 . S
H1238 C1223 0.961 . S
H1239 C1223 0.960 . S
C1240 C1241 1.391 . S
C1240 C1242 1.394 . S
C1240 H1256 0.931 . S
C1241 C1240 1.391 . S
C1241 C1245 1.376 . S
C1242 C1240 1.394 . S
C1242 C1243 1.369 . S
C1242 C1246 1.531 . S
C1243 C1242 1.369 . S
C1243 C1244 1.410 . S
C1243 C1251 1.503 . S
C1244 C1243 1.410 . S
C1244 C1245 1.392 . S
C1244 C1247 1.511 . S
C1245 C1241 1.376 . S
C1245 C1244 1.392 . S
C1245 H1257 0.929 . S
C1246 C1242 1.531 . S
C1246 H1258 0.960 . S
C1246 H1259 0.962 . S
C1246 H1260 0.960 . S
C1247 C1244 1.511 . S
C1247 H1261 0.961 . S
C1247 H1262 0.961 . S
C1247 H1263 0.961 . S
C1248 C1249 1.370 . S
C1248 C1250 1.363 . S
C1248 H1264 0.931 . S
C1249 C1248 1.370 . S
C1249 C1253 1.408 . S
C1250 C1248 1.363 . S
C1250 C1251 1.370 . S
C1250 C1254 1.524 . S
C1251 C1243 1.503 . S
C1251 C1250 1.370 . S
C1251 C1252 1.403 . S
C1252 C1251 1.403 . S
C1252 C1253 1.404 . S
C1252 C1255 1.539 . S
C1253 C1249 1.408 . S
C1253 C1252 1.404 . S
C1253 H1265 0.930 . S
C1254 C1250 1.524 . S
C1254 H1266 0.956 . S
C1254 H1267 0.961 . S
C1254 H1268 0.961 . S
C1255 C1252 1.539 . S
C1255 H1269 0.958 . S
C1255 H1270 0.961 . S
C1255 H1271 0.960 . S
H1256 C1240 0.931 . S
H1257 C1245 0.929 . S
H1258 C1246 0.960 . S
H1259 C1246 0.962 . S
H1260 C1246 0.960 . S
H1261 C1247 0.961 . S
H1262 C1247 0.961 . S
H1263 C1247 0.961 . S
H1264 C1248 0.931 . S
H1265 C1253 0.930 . S
H1266 C1254 0.956 . S
H1267 C1254 0.961 . S
H1268 C1254 0.961 . S
H1269 C1255 0.958 . S
H1270 C1255 0.961 . S
H1271 C1255 0.960 . S
C1272 C1273 1.391 . S
C1272 C1274 1.394 . S
C1272 H1288 0.931 . S
C1273 C1272 1.391 . S
C1273 C1277 1.376 . S
C1274 C1272 1.394 . S
C1274 C1275 1.369 . S
C1274 C1278 1.531 . S
C1275 C1274 1.369 . S
C1275 C1276 1.410 . S
C1275 C1283 1.503 . S
C1276 C1275 1.410 . S
C1276 C1277 1.392 . S
C1276 C1279 1.511 . S
C1277 C1273 1.376 . S
C1277 C1276 1.392 . S
C1277 H1289 0.929 . S
C1278 C1274 1.531 . S
C1278 H1290 0.960 . S
C1278 H1291 0.962 . S
C1278 H1292 0.960 . S
C1279 C1276 1.511 . S
C1279 H1293 0.961 . S
C1279 H1294 0.961 . S
C1279 H1295 0.961 . S
C1280 C1281 1.370 . S
C1280 C1282 1.363 . S
C1280 H1296 0.931 . S
C1281 C1280 1.370 . S
C1281 C1285 1.408 . S
C1282 C1280 1.363 . S
C1282 C1283 1.370 . S
C1282 C1286 1.524 . S
C1283 C1275 1.503 . S
C1283 C1282 1.370 . S
C1283 C1284 1.403 . S
C1284 C1283 1.403 . S
C1284 C1285 1.404 . S
C1284 C1287 1.539 . S
C1285 C1281 1.408 . S
C1285 C1284 1.404 . S
C1285 H1297 0.930 . S
C1286 C1282 1.524 . S
C1286 H1298 0.956 . S
C1286 H1299 0.961 . S
C1286 H1300 0.961 . S
C1287 C1284 1.539 . S
C1287 H1301 0.958 . S
C1287 H1302 0.961 . S
C1287 H1303 0.960 . S
H1288 C1272 0.931 . S
H1289 C1277 0.929 . S
H1290 C1278 0.960 . S
H1291 C1278 0.962 . S
H1292 C1278 0.960 . S
H1293 C1279 0.961 . S
H1294 C1279 0.961 . S
H1295 C1279 0.961 . S
H1296 C1280 0.931 . S
H1297 C1285 0.930 . S
H1298 C1286 0.956 . S
H1299 C1286 0.961 . S
H1300 C1286 0.961 . S
H1301 C1287 0.958 . S
H1302 C1287 0.961 . S
H1303 C1287 0.960 . S
C1304 C1305 1.391 . S
C1304 C1306 1.394 . S
C1304 H1320 0.931 . S
C1305 C1304 1.391 . S
C1305 C1309 1.376 . S
C1306 C1304 1.394 . S
C1306 C1307 1.369 . S
C1306 C1310 1.531 . S
C1307 C1306 1.369 . S
C1307 C1308 1.410 . S
C1307 C1315 1.503 . S
C1308 C1307 1.410 . S
C1308 C1309 1.392 . S
C1308 C1311 1.511 . S
C1309 C1305 1.376 . S
C1309 C1308 1.392 . S
C1309 H1321 0.929 . S
C1310 C1306 1.531 . S
C1310 H1322 0.960 . S
C1310 H1323 0.962 . S
C1310 H1324 0.960 . S
C1311 C1308 1.511 . S
C1311 H1325 0.961 . S
C1311 H1326 0.961 . S
C1311 H1327 0.961 . S
C1312 C1313 1.370 . S
C1312 C1314 1.363 . S
C1312 H1328 0.931 . S
C1313 C1312 1.370 . S
C1313 C1317 1.408 . S
C1314 C1312 1.363 . S
C1314 C1315 1.370 . S
C1314 C1318 1.524 . S
C1315 C1307 1.503 . S
C1315 C1314 1.370 . S
C1315 C1316 1.403 . S
C1316 C1315 1.403 . S
C1316 C1317 1.404 . S
C1316 C1319 1.539 . S
C1317 C1313 1.408 . S
C1317 C1316 1.404 . S
C1317 H1329 0.930 . S
C1318 C1314 1.524 . S
C1318 H1330 0.956 . S
C1318 H1331 0.961 . S
C1318 H1332 0.961 . S
C1319 C1316 1.539 . S
C1319 H1333 0.958 . S
C1319 H1334 0.961 . S
C1319 H1335 0.960 . S
H1320 C1304 0.931 . S
H1321 C1309 0.929 . S
H1322 C1310 0.960 . S
H1323 C1310 0.962 . S
H1324 C1310 0.960 . S
H1325 C1311 0.961 . S
H1326 C1311 0.961 . S
H1327 C1311 0.961 . S
H1328 C1312 0.931 . S
H1329 C1317 0.930 . S
H1330 C1318 0.956 . S
H1331 C1318 0.961 . S
H1332 C1318 0.961 . S
H1333 C1319 0.958 . S
H1334 C1319 0.961 . S
H1335 C1319 0.960 . S
C1336 C1337 1.391 . S
C1336 C1338 1.394 . S
C1336 H1352 0.931 . S
C1337 C1336 1.391 . S
C1337 C1341 1.376 . S
C1338 C1336 1.394 . S
C1338 C1339 1.369 . S
C1338 C1342 1.531 . S
C1339 C1338 1.369 . S
C1339 C1340 1.410 . S
C1339 C1347 1.503 . S
C1340 C1339 1.410 . S
C1340 C1341 1.392 . S
C1340 C1343 1.511 . S
C1341 C1337 1.376 . S
C1341 C1340 1.392 . S
C1341 H1353 0.929 . S
C1342 C1338 1.531 . S
C1342 H1354 0.960 . S
C1342 H1355 0.962 . S
C1342 H1356 0.960 . S
C1343 C1340 1.511 . S
C1343 H1357 0.961 . S
C1343 H1358 0.961 . S
C1343 H1359 0.961 . S
C1344 C1345 1.370 . S
C1344 C1346 1.363 . S
C1344 H1360 0.931 . S
C1345 C1344 1.370 . S
C1345 C1349 1.408 . S
C1346 C1344 1.363 . S
C1346 C1347 1.370 . S
C1346 C1350 1.524 . S
C1347 C1339 1.503 . S
C1347 C1346 1.370 . S
C1347 C1348 1.403 . S
C1348 C1347 1.403 . S
C1348 C1349 1.404 . S
C1348 C1351 1.539 . S
C1349 C1345 1.408 . S
C1349 C1348 1.404 . S
C1349 H1361 0.930 . S
C1350 C1346 1.524 . S
C1350 H1362 0.956 . S
C1350 H1363 0.961 . S
C1350 H1364 0.961 . S
C1351 C1348 1.539 . S
C1351 H1365 0.958 . S
C1351 H1366 0.961 . S
C1351 H1367 0.960 . S
H1352 C1336 0.931 . S
H1353 C1341 0.929 . S
H1354 C1342 0.960 . S
H1355 C1342 0.962 . S
H1356 C1342 0.960 . S
H1357 C1343 0.961 . S
H1358 C1343 0.961 . S
H1359 C1343 0.961 . S
H1360 C1344 0.931 . S
H1361 C1349 0.930 . S
H1362 C1350 0.956 . S
H1363 C1350 0.961 . S
H1364 C1350 0.961 . S
H1365 C1351 0.958 . S
H1366 C1351 0.961 . S
H1367 C1351 0.960 . S
C1368 C1369 1.391 . S
C1368 C1370 1.394 . S
C1368 H1384 0.931 . S
C1369 C1368 1.391 . S
C1369 C1373 1.376 . S
C1370 C1368 1.394 . S
C1370 C1371 1.369 . S
C1370 C1374 1.531 . S
C1371 C1370 1.369 . S
C1371 C1372 1.410 . S
C1371 C1379 1.503 . S
C1372 C1371 1.410 . S
C1372 C1373 1.392 . S
C1372 C1375 1.511 . S
C1373 C1369 1.376 . S
C1373 C1372 1.392 . S
C1373 H1385 0.929 . S
C1374 C1370 1.531 . S
C1374 H1386 0.960 . S
C1374 H1387 0.962 . S
C1374 H1388 0.960 . S
C1375 C1372 1.511 . S
C1375 H1389 0.961 . S
C1375 H1390 0.961 . S
C1375 H1391 0.961 . S
C1376 C1377 1.370 . S
C1376 C1378 1.363 . S
C1376 H1392 0.931 . S
C1377 C1376 1.370 . S
C1377 C1381 1.408 . S
C1378 C1376 1.363 . S
C1378 C1379 1.370 . S
C1378 C1382 1.524 . S
C1379 C1371 1.503 . S
C1379 C1378 1.370 . S
C1379 C1380 1.403 . S
C1380 C1379 1.403 . S
C1380 C1381 1.404 . S
C1380 C1383 1.539 . S
C1381 C1377 1.408 . S
C1381 C1380 1.404 . S
C1381 H1393 0.930 . S
C1382 C1378 1.524 . S
C1382 H1394 0.956 . S
C1382 H1395 0.961 . S
C1382 H1396 0.961 . S
C1383 C1380 1.539 . S
C1383 H1397 0.958 . S
C1383 H1398 0.961 . S
C1383 H1399 0.960 . S
H1384 C1368 0.931 . S
H1385 C1373 0.929 . S
H1386 C1374 0.960 . S
H1387 C1374 0.962 . S
H1388 C1374 0.960 . S
H1389 C1375 0.961 . S
H1390 C1375 0.961 . S
H1391 C1375 0.961 . S
H1392 C1376 0.931 . S
H1393 C1381 0.930 . S
H1394 C1382 0.956 . S
H1395 C1382 0.961 . S
H1396 C1382 0.961 . S
H1397 C1383 0.958 . S
H1398 C1383 0.961 . S
H1399 C1383 0.960 . S
C1400 C1401 1.391 . S
C1400 C1402 1.394 . S
C1400 H1416 0.931 . S
C1401 C1400 1.391 . S
C1401 C1405 1.376 . S
C1402 C1400 1.394 . S
C1402 C1403 1.369 . S
C1402 C1406 1.531 . S
C1403 C1402 1.369 . S
C1403 C1404 1.410 . S
C1403 C1411 1.503 . S
C1404 C1403 1.410 . S
C1404 C1405 1.392 . S
C1404 C1407 1.511 . S
C1405 C1401 1.376 . S
C1405 C1404 1.392 . S
C1405 H1417 0.929 . S
C1406 C1402 1.531 . S
C1406 H1418 0.960 . S
C1406 H1419 0.962 . S
C1406 H1420 0.960 . S
C1407 C1404 1.511 . S
C1407 H1421 0.961 . S
C1407 H1422 0.961 . S
C1407 H1423 0.961 . S
C1408 C1409 1.370 . S
C1408 C1410 1.363 . S
C1408 H1424 0.931 . S
C1409 C1408 1.370 . S
C1409 C1413 1.408 . S
C1410 C1408 1.363 . S
C1410 C1411 1.370 . S
C1410 C1414 1.524 . S
C1411 C1403 1.503 . S
C1411 C1410 1.370 . S
C1411 C1412 1.403 . S
C1412 C1411 1.403 . S
C1412 C1413 1.404 . S
C1412 C1415 1.539 . S
C1413 C1409 1.408 . S
C1413 C1412 1.404 . S
C1413 H1425 0.930 . S
C1414 C1410 1.524 . S
C1414 H1426 0.956 . S
C1414 H1427 0.961 . S
C1414 H1428 0.961 . S
C1415 C1412 1.539 . S
C1415 H1429 0.958 . S
C1415 H1430 0.961 . S
C1415 H1431 0.960 . S
H1416 C1400 0.931 . S
H1417 C1405 0.929 . S
H1418 C1406 0.960 . S
H1419 C1406 0.962 . S
H1420 C1406 0.960 . S
H1421 C1407 0.961 . S
H1422 C1407 0.961 . S
H1423 C1407 0.961 . S
H1424 C1408 0.931 . S
H1425 C1413 0.930 . S
H1426 C1414 0.956 . S
H1427 C1414 0.961 . S
H1428 C1414 0.961 . S
H1429 C1415 0.958 . S
H1430 C1415 0.961 . S
H1431 C1415 0.960 . S
C1432 C1433 1.391 . S
C1432 C1434 1.394 . S
C1432 H1448 0.931 . S
C1433 C1432 1.391 . S
C1433 C1437 1.376 . S
C1434 C1432 1.394 . S
C1434 C1435 1.369 . S
C1434 C1438 1.531 . S
C1435 C1434 1.369 . S
C1435 C1436 1.410 . S
C1435 C1443 1.503 . S
C1436 C1435 1.410 . S
C1436 C1437 1.392 . S
C1436 C1439 1.511 . S
C1437 C1433 1.376 . S
C1437 C1436 1.392 . S
C1437 H1449 0.929 . S
C1438 C1434 1.531 . S
C1438 H1450 0.960 . S
C1438 H1451 0.962 . S
C1438 H1452 0.960 . S
C1439 C1436 1.511 . S
C1439 H1453 0.961 . S
C1439 H1454 0.961 . S
C1439 H1455 0.961 . S
C1440 C1441 1.370 . S
C1440 C1442 1.363 . S
C1440 H1456 0.931 . S
C1441 C1440 1.370 . S
C1441 C1445 1.408 . S
C1442 C1440 1.363 . S
C1442 C1443 1.370 . S
C1442 C1446 1.524 . S
C1443 C1435 1.503 . S
C1443 C1442 1.370 . S
C1443 C1444 1.403 . S
C1444 C1443 1.403 . S
C1444 C1445 1.404 . S
C1444 C1447 1.539 . S
C1445 C1441 1.408 . S
C1445 C1444 1.404 . S
C1445 H1457 0.930 . S
C1446 C1442 1.524 . S
C1446 H1458 0.956 . S
C1446 H1459 0.961 . S
C1446 H1460 0.961 . S
C1447 C1444 1.539 . S
C1447 H1461 0.958 . S
C1447 H1462 0.961 . S
C1447 H1463 0.960 . S
H1448 C1432 0.931 . S
H1449 C1437 0.929 . S
H1450 C1438 0.960 . S
H1451 C1438 0.962 . S
H1452 C1438 0.960 . S
H1453 C1439 0.961 . S
H1454 C1439 0.961 . S
H1455 C1439 0.961 . S
H1456 C1440 0.931 . S
H1457 C1445 0.930 . S
H1458 C1446 0.956 . S
H1459 C1446 0.961 . S
H1460 C1446 0.961 . S
H1461 C1447 0.958 . S
H1462 C1447 0.961 . S
H1463 C1447 0.960 . S
C1464 C1465 1.391 . S
C1464 C1466 1.394 . S
C1464 H1480 0.931 . S
C1465 C1464 1.391 . S
C1465 C1469 1.376 . S
C1466 C1464 1.394 . S
C1466 C1467 1.369 . S
C1466 C1470 1.531 . S
C1467 C1466 1.369 . S
C1467 C1468 1.410 . S
C1467 C1475 1.503 . S
C1468 C1467 1.410 . S
C1468 C1469 1.392 . S
C1468 C1471 1.511 . S
C1469 C1465 1.376 . S
C1469 C1468 1.392 . S
C1469 H1481 0.929 . S
C1470 C1466 1.531 . S
C1470 H1482 0.960 . S
C1470 H1483 0.962 . S
C1470 H1484 0.960 . S
C1471 C1468 1.511 . S
C1471 H1485 0.961 . S
C1471 H1486 0.961 . S
C1471 H1487 0.961 . S
C1472 C1473 1.370 . S
C1472 C1474 1.363 . S
C1472 H1488 0.931 . S
C1473 C1472 1.370 . S
C1473 C1477 1.408 . S
C1474 C1472 1.363 . S
C1474 C1475 1.370 . S
C1474 C1478 1.524 . S
C1475 C1467 1.503 . S
C1475 C1474 1.370 . S
C1475 C1476 1.403 . S
C1476 C1475 1.403 . S
C1476 C1477 1.404 . S
C1476 C1479 1.539 . S
C1477 C1473 1.408 . S
C1477 C1476 1.404 . S
C1477 H1489 0.930 . S
C1478 C1474 1.524 . S
C1478 H1490 0.956 . S
C1478 H1491 0.961 . S
C1478 H1492 0.961 . S
C1479 C1476 1.539 . S
C1479 H1493 0.958 . S
C1479 H1494 0.961 . S
C1479 H1495 0.960 . S
H1480 C1464 0.931 . S
H1481 C1469 0.929 . S
H1482 C1470 0.960 . S
H1483 C1470 0.962 . S
H1484 C1470 0.960 . S
H1485 C1471 0.961 . S
H1486 C1471 0.961 . S
H1487 C1471 0.961 . S
H1488 C1472 0.931 . S
H1489 C1477 0.930 . S
H1490 C1478 0.956 . S
H1491 C1478 0.961 . S
H1492 C1478 0.961 . S
H1493 C1479 0.958 . S
H1494 C1479 0.961 . S
H1495 C1479 0.960 . S
C1496 C1497 1.391 . S
C1496 C1498 1.394 . S
C1496 H1512 0.931 . S
C1497 C1496 1.391 . S
C1497 C1501 1.376 . S
C1498 C1496 1.394 . S
C1498 C1499 1.369 . S
C1498 C1502 1.531 . S
C1499 C1498 1.369 . S
C1499 C1500 1.410 . S
C1499 C1507 1.503 . S
C1500 C1499 1.410 . S
C1500 C1501 1.392 . S
C1500 C1503 1.511 . S
C1501 C1497 1.376 . S
C1501 C1500 1.392 . S
C1501 H1513 0.929 . S
C1502 C1498 1.531 . S
C1502 H1514 0.960 . S
C1502 H1515 0.962 . S
C1502 H1516 0.960 . S
C1503 C1500 1.511 . S
C1503 H1517 0.961 . S
C1503 H1518 0.961 . S
C1503 H1519 0.961 . S
C1504 C1505 1.370 . S
C1504 C1506 1.363 . S
C1504 H1520 0.931 . S
C1505 C1504 1.370 . S
C1505 C1509 1.408 . S
C1506 C1504 1.363 . S
C1506 C1507 1.370 . S
C1506 C1510 1.524 . S
C1507 C1499 1.503 . S
C1507 C1506 1.370 . S
C1507 C1508 1.403 . S
C1508 C1507 1.403 . S
C1508 C1509 1.404 . S
C1508 C1511 1.539 . S
C1509 C1505 1.408 . S
C1509 C1508 1.404 . S
C1509 H1521 0.930 . S
C1510 C1506 1.524 . S
C1510 H1522 0.956 . S
C1510 H1523 0.961 . S
C1510 H1524 0.961 . S
C1511 C1508 1.539 . S
C1511 H1525 0.958 . S
C1511 H1526 0.961 . S
C1511 H1527 0.960 . S
H1512 C1496 0.931 . S
H1513 C1501 0.929 . S
H1514 C1502 0.960 . S
H1515 C1502 0.962 . S
H1516 C1502 0.960 . S
H1517 C1503 0.961 . S
H1518 C1503 0.961 . S
H1519 C1503 0.961 . S
H1520 C1504 0.931 . S
H1521 C1509 0.930 . S
H1522 C1510 0.956 . S
H1523 C1510 0.961 . S
H1524 C1510 0.961 . S
H1525 C1511 0.958 . S
H1526 C1511 0.961 . S
H1527 C1511 0.960 . S
C1528 C1529 1.391 . S
C1528 C1530 1.394 . S
C1528 H1544 0.931 . S
C1529 C1528 1.391 . S
C1529 C1533 1.376 . S
C1530 C1528 1.394 . S
C1530 C1531 1.369 . S
C1530 C1534 1.531 . S
C1531 C1530 1.369 . S
C1531 C1532 1.410 . S
C1531 C1539 1.503 . S
C1532 C1531 1.410 . S
C1532 C1533 1.392 . S
C1532 C1535 1.511 . S
C1533 C1529 1.376 . S
C1533 C1532 1.392 . S
C1533 H1545 0.929 . S
C1534 C1530 1.531 . S
C1534 H1546 0.960 . S
C1534 H1547 0.962 . S
C1534 H1548 0.960 . S
C1535 C1532 1.511 . S
C1535 H1549 0.961 . S
C1535 H1550 0.961 . S
C1535 H1551 0.961 . S
C1536 C1537 1.370 . S
C1536 C1538 1.363 . S
C1536 H1552 0.931 . S
C1537 C1536 1.370 . S
C1537 C1541 1.408 . S
C1538 C1536 1.363 . S
C1538 C1539 1.370 . S
C1538 C1542 1.524 . S
C1539 C1531 1.503 . S
C1539 C1538 1.370 . S
C1539 C1540 1.403 . S
C1540 C1539 1.403 . S
C1540 C1541 1.404 . S
C1540 C1543 1.539 . S
C1541 C1537 1.408 . S
C1541 C1540 1.404 . S
C1541 H1553 0.930 . S
C1542 C1538 1.524 . S
C1542 H1554 0.956 . S
C1542 H1555 0.961 . S
C1542 H1556 0.961 . S
C1543 C1540 1.539 . S
C1543 H1557 0.958 . S
C1543 H1558 0.961 . S
C1543 H1559 0.960 . S
H1544 C1528 0.931 . S
H1545 C1533 0.929 . S
H1546 C1534 0.960 . S
H1547 C1534 0.962 . S
H1548 C1534 0.960 . S
H1549 C1535 0.961 . S
H1550 C1535 0.961 . S
H1551 C1535 0.961 . S
H1552 C1536 0.931 . S
H1553 C1541 0.930 . S
H1554 C1542 0.956 . S
H1555 C1542 0.961 . S
H1556 C1542 0.961 . S
H1557 C1543 0.958 . S
H1558 C1543 0.961 . S
H1559 C1543 0.960 . S
C1560 C1561 1.391 . S
C1560 C1562 1.394 . S
C1560 H1576 0.931 . S
C1561 C1560 1.391 . S
C1561 C1565 1.376 . S
C1562 C1560 1.394 . S
C1562 C1563 1.369 . S
C1562 C1566 1.531 . S
C1563 C1562 1.369 . S
C1563 C1564 1.410 . S
C1563 C1571 1.503 . S
C1564 C1563 1.410 . S
C1564 C1565 1.392 . S
C1564 C1567 1.511 . S
C1565 C1561 1.376 . S
C1565 C1564 1.392 . S
C1565 H1577 0.929 . S
C1566 C1562 1.531 . S
C1566 H1578 0.960 . S
C1566 H1579 0.962 . S
C1566 H1580 0.960 . S
C1567 C1564 1.511 . S
C1567 H1581 0.961 . S
C1567 H1582 0.961 . S
C1567 H1583 0.961 . S
C1568 C1569 1.370 . S
C1568 C1570 1.363 . S
C1568 H1584 0.931 . S
C1569 C1568 1.370 . S
C1569 C1573 1.408 . S
C1570 C1568 1.363 . S
C1570 C1571 1.370 . S
C1570 C1574 1.524 . S
C1571 C1563 1.503 . S
C1571 C1570 1.370 . S
C1571 C1572 1.403 . S
C1572 C1571 1.403 . S
C1572 C1573 1.404 . S
C1572 C1575 1.539 . S
C1573 C1569 1.408 . S
C1573 C1572 1.404 . S
C1573 H1585 0.930 . S
C1574 C1570 1.524 . S
C1574 H1586 0.956 . S
C1574 H1587 0.961 . S
C1574 H1588 0.961 . S
C1575 C1572 1.539 . S
C1575 H1589 0.958 . S
C1575 H1590 0.961 . S
C1575 H1591 0.960 . S
H1576 C1560 0.931 . S
H1577 C1565 0.929 . S
H1578 C1566 0.960 . S
H1579 C1566 0.962 . S
H1580 C1566 0.960 . S
H1581 C1567 0.961 . S
H1582 C1567 0.961 . S
H1583 C1567 0.961 . S
H1584 C1568 0.931 . S
H1585 C1573 0.930 . S
H1586 C1574 0.956 . S
H1587 C1574 0.961 . S
H1588 C1574 0.961 . S
H1589 C1575 0.958 . S
H1590 C1575 0.961 . S
H1591 C1575 0.960 . S
C1592 C1593 1.391 . S
C1592 C1594 1.394 . S
C1592 H1608 0.931 . S
C1593 C1592 1.391 . S
C1593 C1597 1.376 . S
C1594 C1592 1.394 . S
C1594 C1595 1.369 . S
C1594 C1598 1.531 . S
C1595 C1594 1.369 . S
C1595 C1596 1.410 . S
C1595 C1603 1.503 . S
C1596 C1595 1.410 . S
C1596 C1597 1.392 . S
C1596 C1599 1.511 . S
C1597 C1593 1.376 . S
C1597 C1596 1.392 . S
C1597 H1609 0.929 . S
C1598 C1594 1.531 . S
C1598 H1610 0.960 . S
C1598 H1611 0.962 . S
C1598 H1612 0.960 . S
C1599 C1596 1.511 . S
C1599 H1613 0.961 . S
C1599 H1614 0.961 . S
C1599 H1615 0.961 . S
C1600 C1601 1.370 . S
C1600 C1602 1.363 . S
C1600 H1616 0.931 . S
C1601 C1600 1.370 . S
C1601 C1605 1.408 . S
C1602 C1600 1.363 . S
C1602 C1603 1.370 . S
C1602 C1606 1.524 . S
C1603 C1595 1.503 . S
C1603 C1602 1.370 . S
C1603 C1604 1.403 . S
C1604 C1603 1.403 . S
C1604 C1605 1.404 . S
C1604 C1607 1.539 . S
C1605 C1601 1.408 . S
C1605 C1604 1.404 . S
C1605 H1617 0.930 . S
C1606 C1602 1.524 . S
C1606 H1618 0.956 . S
C1606 H1619 0.961 . S
C1606 H1620 0.961 . S
C1607 C1604 1.539 . S
C1607 H1621 0.958 . S
C1607 H1622 0.961 . S
C1607 H1623 0.960 . S
H1608 C1592 0.931 . S
H1609 C1597 0.929 . S
H1610 C1598 0.960 . S
H1611 C1598 0.962 . S
H1612 C1598 0.960 . S
H1613 C1599 0.961 . S
H1614 C1599 0.961 . S
H1615 C1599 0.961 . S
H1616 C1600 0.931 . S
H1617 C1605 0.930 . S
H1618 C1606 0.956 . S
H1619 C1606 0.961 . S
H1620 C1606 0.961 . S
H1621 C1607 0.958 . S
H1622 C1607 0.961 . S
H1623 C1607 0.960 . S
C1624 C1625 1.391 . S
C1624 C1626 1.394 . S
C1624 H1640 0.931 . S
C1625 C1624 1.391 . S
C1625 C1629 1.376 . S
C1626 C1624 1.394 . S
C1626 C1627 1.369 . S
C1626 C1630 1.531 . S
C1627 C1626 1.369 . S
C1627 C1628 1.410 . S
C1627 C1635 1.503 . S
C1628 C1627 1.410 . S
C1628 C1629 1.392 . S
C1628 C1631 1.511 . S
C1629 C1625 1.376 . S
C1629 C1628 1.392 . S
C1629 H1641 0.929 . S
C1630 C1626 1.531 . S
C1630 H1642 0.960 . S
C1630 H1643 0.962 . S
C1630 H1644 0.960 . S
C1631 C1628 1.511 . S
C1631 H1645 0.961 . S
C1631 H1646 0.961 . S
C1631 H1647 0.961 . S
C1632 C1633 1.370 . S
C1632 C1634 1.363 . S
C1632 H1648 0.931 . S
C1633 C1632 1.370 . S
C1633 C1637 1.408 . S
C1634 C1632 1.363 . S
C1634 C1635 1.370 . S
C1634 C1638 1.524 . S
C1635 C1627 1.503 . S
C1635 C1634 1.370 . S
C1635 C1636 1.403 . S
C1636 C1635 1.403 . S
C1636 C1637 1.404 . S
C1636 C1639 1.539 . S
C1637 C1633 1.408 . S
C1637 C1636 1.404 . S
C1637 H1649 0.930 . S
C1638 C1634 1.524 . S
C1638 H1650 0.956 . S
C1638 H1651 0.961 . S
C1638 H1652 0.961 . S
C1639 C1636 1.539 . S
C1639 H1653 0.958 . S
C1639 H1654 0.961 . S
C1639 H1655 0.960 . S
H1640 C1624 0.931 . S
H1641 C1629 0.929 . S
H1642 C1630 0.960 . S
H1643 C1630 0.962 . S
H1644 C1630 0.960 . S
H1645 C1631 0.961 . S
H1646 C1631 0.961 . S
H1647 C1631 0.961 . S
H1648 C1632 0.931 . S
H1649 C1637 0.930 . S
H1650 C1638 0.956 . S
H1651 C1638 0.961 . S
H1652 C1638 0.961 . S
H1653 C1639 0.958 . S
H1654 C1639 0.961 . S
H1655 C1639 0.960 . S
C1656 C1657 1.391 . S
C1656 C1658 1.394 . S
C1656 H1672 0.931 . S
C1657 C1656 1.391 . S
C1657 C1661 1.376 . S
C1658 C1656 1.394 . S
C1658 C1659 1.369 . S
C1658 C1662 1.531 . S
C1659 C1658 1.369 . S
C1659 C1660 1.410 . S
C1659 C1667 1.503 . S
C1660 C1659 1.410 . S
C1660 C1661 1.392 . S
C1660 C1663 1.511 . S
C1661 C1657 1.376 . S
C1661 C1660 1.392 . S
C1661 H1673 0.929 . S
C1662 C1658 1.531 . S
C1662 H1674 0.960 . S
C1662 H1675 0.962 . S
C1662 H1676 0.960 . S
C1663 C1660 1.511 . S
C1663 H1677 0.961 . S
C1663 H1678 0.961 . S
C1663 H1679 0.961 . S
C1664 C1665 1.370 . S
C1664 C1666 1.363 . S
C1664 H1680 0.931 . S
C1665 C1664 1.370 . S
C1665 C1669 1.408 . S
C1666 C1664 1.363 . S
C1666 C1667 1.370 . S
C1666 C1670 1.524 . S
C1667 C1659 1.503 . S
C1667 C1666 1.370 . S
C1667 C1668 1.403 . S
C1668 C1667 1.403 . S
C1668 C1669 1.404 . S
C1668 C1671 1.539 . S
C1669 C1665 1.408 . S
C1669 C1668 1.404 . S
C1669 H1681 0.930 . S
C1670 C1666 1.524 . S
C1670 H1682 0.956 . S
C1670 H1683 0.961 . S
C1670 H1684 0.961 . S
C1671 C1668 1.539 . S
C1671 H1685 0.958 . S
C1671 H1686 0.961 . S
C1671 H1687 0.960 . S
H1672 C1656 0.931 . S
H1673 C1661 0.929 . S
H1674 C1662 0.960 . S
H1675 C1662 0.962 . S
H1676 C1662 0.960 . S
H1677 C1663 0.961 . S
H1678 C1663 0.961 . S
H1679 C1663 0.961 . S
H1680 C1664 0.931 . S
H1681 C1669 0.930 . S
H1682 C1670 0.956 . S
H1683 C1670 0.961 . S
H1684 C1670 0.961 . S
H1685 C1671 0.958 . S
H1686 C1671 0.961 . S
H1687 C1671 0.960 . S
C1688 C1689 1.391 . S
C1688 C1690 1.394 . S
C1688 H1704 0.931 . S
C1689 C1688 1.391 . S
C1689 C1693 1.376 . S
C1690 C1688 1.394 . S
C1690 C1691 1.369 . S
C1690 C1694 1.531 . S
C1691 C1690 1.369 . S
C1691 C1692 1.410 . S
C1691 C1699 1.503 . S
C1692 C1691 1.410 . S
C1692 C1693 1.392 . S
C1692 C1695 1.511 . S
C1693 C1689 1.376 . S
C1693 C1692 1.392 . S
C1693 H1705 0.929 . S
C1694 C1690 1.531 . S
C1694 H1706 0.960 . S
C1694 H1707 0.962 . S
C1694 H1708 0.960 . S
C1695 C1692 1.511 . S
C1695 H1709 0.961 . S
C1695 H1710 0.961 . S
C1695 H1711 0.961 . S
C1696 C1697 1.370 . S
C1696 C1698 1.363 . S
C1696 H1712 0.931 . S
C1697 C1696 1.370 . S
C1697 C1701 1.408 . S
C1698 C1696 1.363 . S
C1698 C1699 1.370 . S
C1698 C1702 1.524 . S
C1699 C1691 1.503 . S
C1699 C1698 1.370 . S
C1699 C1700 1.403 . S
C1700 C1699 1.403 . S
C1700 C1701 1.404 . S
C1700 C1703 1.539 . S
C1701 C1697 1.408 . S
C1701 C1700 1.404 . S
C1701 H1713 0.930 . S
C1702 C1698 1.524 . S
C1702 H1714 0.956 . S
C1702 H1715 0.961 . S
C1702 H1716 0.961 . S
C1703 C1700 1.539 . S
C1703 H1717 0.958 . S
C1703 H1718 0.961 . S
C1703 H1719 0.960 . S
H1704 C1688 0.931 . S
H1705 C1693 0.929 . S
H1706 C1694 0.960 . S
H1707 C1694 0.962 . S
H1708 C1694 0.960 . S
H1709 C1695 0.961 . S
H1710 C1695 0.961 . S
H1711 C1695 0.961 . S
H1712 C1696 0.931 . S
H1713 C1701 0.930 . S
H1714 C1702 0.956 . S
H1715 C1702 0.961 . S
H1716 C1702 0.961 . S
H1717 C1703 0.958 . S
H1718 C1703 0.961 . S
H1719 C1703 0.960 . S
C1720 C1721 1.391 . S
C1720 C1722 1.394 . S
C1720 H1736 0.931 . S
C1721 C1720 1.391 . S
C1721 C1725 1.376 . S
C1722 C1720 1.394 . S
C1722 C1723 1.369 . S
C1722 C1726 1.531 . S
C1723 C1722 1.369 . S
C1723 C1724 1.410 . S
C1723 C1731 1.503 . S
C1724 C1723 1.410 . S
C1724 C1725 1.392 . S
C1724 C1727 1.511 . S
C1725 C1721 1.376 . S
C1725 C1724 1.392 . S
C1725 H1737 0.929 . S
C1726 C1722 1.531 . S
C1726 H1738 0.960 . S
C1726 H1739 0.962 . S
C1726 H1740 0.960 . S
C1727 C1724 1.511 . S
C1727 H1741 0.961 . S
C1727 H1742 0.961 . S
C1727 H1743 0.961 . S
C1728 C1729 1.370 . S
C1728 C1730 1.363 . S
C1728 H1744 0.931 . S
C1729 C1728 1.370 . S
C1729 C1733 1.408 . S
C1730 C1728 1.363 . S
C1730 C1731 1.370 . S
C1730 C1734 1.524 . S
C1731 C1723 1.503 . S
C1731 C1730 1.370 . S
C1731 C1732 1.403 . S
C1732 C1731 1.403 . S
C1732 C1733 1.404 . S
C1732 C1735 1.539 . S
C1733 C1729 1.408 . S
C1733 C1732 1.404 . S
C1733 H1745 0.930 . S
C1734 C1730 1.524 . S
C1734 H1746 0.956 . S
C1734 H1747 0.961 . S
C1734 H1748 0.961 . S
C1735 C1732 1.539 . S
C1735 H1749 0.958 . S
C1735 H1750 0.961 . S
C1735 H1751 0.960 . S
H1736 C1720 0.931 . S
H1737 C1725 0.929 . S
H1738 C1726 0.960 . S
H1739 C1726 0.962 . S
H1740 C1726 0.960 . S
H1741 C1727 0.961 . S
H1742 C1727 0.961 . S
H1743 C1727 0.961 . S
H1744 C1728 0.931 . S
H1745 C1733 0.930 . S
H1746 C1734 0.956 . S
H1747 C1734 0.961 . S
H1748 C1734 0.961 . S
H1749 C1735 0.958 . S
H1750 C1735 0.961 . S
H1751 C1735 0.960 . S
C1752 C1753 1.391 . S
C1752 C1754 1.394 . S
C1752 H1768 0.931 . S
C1753 C1752 1.391 . S
C1753 C1757 1.376 . S
C1754 C1752 1.394 . S
C1754 C1755 1.369 . S
C1754 C1758 1.531 . S
C1755 C1754 1.369 . S
C1755 C1756 1.410 . S
C1755 C1763 1.503 . S
C1756 C1755 1.410 . S
C1756 C1757 1.392 . S
C1756 C1759 1.511 . S
C1757 C1753 1.376 . S
C1757 C1756 1.392 . S
C1757 H1769 0.929 . S
C1758 C1754 1.531 . S
C1758 H1770 0.960 . S
C1758 H1771 0.962 . S
C1758 H1772 0.960 . S
C1759 C1756 1.511 . S
C1759 H1773 0.961 . S
C1759 H1774 0.961 . S
C1759 H1775 0.961 . S
C1760 C1761 1.370 . S
C1760 C1762 1.363 . S
C1760 H1776 0.931 . S
C1761 C1760 1.370 . S
C1761 C1765 1.408 . S
C1762 C1760 1.363 . S
C1762 C1763 1.370 . S
C1762 C1766 1.524 . S
C1763 C1755 1.503 . S
C1763 C1762 1.370 . S
C1763 C1764 1.403 . S
C1764 C1763 1.403 . S
C1764 C1765 1.404 . S
C1764 C1767 1.539 . S
C1765 C1761 1.408 . S
C1765 C1764 1.404 . S
C1765 H1777 0.930 . S
C1766 C1762 1.524 . S
C1766 H1778 0.956 . S
C1766 H1779 0.961 . S
C1766 H1780 0.961 . S
C1767 C1764 1.539 . S
C1767 H1781 0.958 . S
C1767 H1782 0.961 . S
C1767 H1783 0.960 . S
H1768 C1752 0.931 . S
H1769 C1757 0.929 . S
H1770 C1758 0.960 . S
H1771 C1758 0.962 . S
H1772 C1758 0.960 . S
H1773 C1759 0.961 . S
H1774 C1759 0.961 . S
H1775 C1759 0.961 . S
H1776 C1760 0.931 . S
H1777 C1765 0.930 . S
H1778 C1766 0.956 . S
H1779 C1766 0.961 . S
H1780 C1766 0.961 . S
H1781 C1767 0.958 . S
H1782 C1767 0.961 . S
H1783 C1767 0.960 . S
C1784 C1785 1.391 . S
C1784 C1786 1.394 . S
C1784 H1800 0.931 . S
C1785 C1784 1.391 . S
C1785 C1789 1.376 . S
C1786 C1784 1.394 . S
C1786 C1787 1.369 . S
C1786 C1790 1.531 . S
C1787 C1786 1.369 . S
C1787 C1788 1.410 . S
C1787 C1795 1.503 . S
C1788 C1787 1.410 . S
C1788 C1789 1.392 . S
C1788 C1791 1.511 . S
C1789 C1785 1.376 . S
C1789 C1788 1.392 . S
C1789 H1801 0.929 . S
C1790 C1786 1.531 . S
C1790 H1802 0.960 . S
C1790 H1803 0.962 . S
C1790 H1804 0.960 . S
C1791 C1788 1.511 . S
C1791 H1805 0.961 . S
C1791 H1806 0.961 . S
C1791 H1807 0.961 . S
C1792 C1793 1.370 . S
C1792 C1794 1.363 . S
C1792 H1808 0.931 . S
C1793 C1792 1.370 . S
C1793 C1797 1.408 . S
C1794 C1792 1.363 . S
C1794 C1795 1.370 . S
C1794 C1798 1.524 . S
C1795 C1787 1.503 . S
C1795 C1794 1.370 . S
C1795 C1796 1.403 . S
C1796 C1795 1.403 . S
C1796 C1797 1.404 . S
C1796 C1799 1.539 . S
C1797 C1793 1.408 . S
C1797 C1796 1.404 . S
C1797 H1809 0.930 . S
C1798 C1794 1.524 . S
C1798 H1810 0.956 . S
C1798 H1811 0.961 . S
C1798 H1812 0.961 . S
C1799 C1796 1.539 . S
C1799 H1813 0.958 . S
C1799 H1814 0.961 . S
C1799 H1815 0.960 . S
H1800 C1784 0.931 . S
H1801 C1789 0.929 . S
H1802 C1790 0.960 . S
H1803 C1790 0.962 . S
H1804 C1790 0.960 . S
H1805 C1791 0.961 . S
H1806 C1791 0.961 . S
H1807 C1791 0.961 . S
H1808 C1792 0.931 . S
H1809 C1797 0.930 . S
H1810 C1798 0.956 . S
H1811 C1798 0.961 . S
H1812 C1798 0.961 . S
H1813 C1799 0.958 . S
H1814 C1799 0.961 . S
H1815 C1799 0.960 . S
C801 C397 1.466 . S
C793 C15 1.466 . S
C833 C450 1.302 . S
C825 C68 1.293 . S
C865 C513 1.540 . S
C857 C107 1.535 . S
C897 C556 1.245 . S
C889 C160 1.240 . S
C921 C185 1.543 . S
C929 C512 1.535 . S
C961 C549 1.314 . S
C953 C252 1.308 . S
C993 C390 1.467 . S
C985 C277 1.460 . S
C1025 C443 1.235 . S
C1017 C330 1.233 . S
C1057 C496 1.474 . S
C1049 C323 1.463 . S
C1089 C565 1.796 . S
C1081 C192 1.794 . S
C1121 C406 1.554 . S
C1113 C245 1.555 . S
C1153 C459 1.735 . S
C1145 C284 1.729 . S
C1185 C407 1.544 . S
C1177 C61 1.541 . S
C1217 C460 1.805 . S
C1209 C114 1.806 . S
C1249 C503 1.487 . S
C1241 C153 1.476 . S
C1281 C566 1.719 . S
C1273 C22 1.718 . S
C1313 C609 1.430 . S
C1305 C337 1.433 . S
C1337 C206 1.663 . S
C1345 C662 1.668 . S
C1369 C231 1.571 . S
C1377 C724 1.583 . S
C1401 C298 1.668 . S
C1409 C778 1.680 . S
C1433 C47 1.500 . S
C1441 C725 1.507 . S
C1465 C100 1.751 . S
C1473 C777 1.755 . S
C1497 C139 1.497 . S
C1505 C602 1.505 . S
C1537 C655 1.602 . S
C1529 C8 1.601 . S
C1569 C715 1.455 . S
C1561 C1 1.435 . S
C1593 C54 1.353 . S
C1601 C761 1.355 . S
C1625 C93 1.574 . S
C1633 C618 1.586 . S
C1657 C146 1.316 . S
C1665 C671 1.318 . S
C1697 C619 1.522 . S
C1689 C199 1.513 . S
C1729 C672 1.393 . S
C1721 C238 1.397 . S
C1753 C291 1.503 . S
C1761 C708 1.511 . S
C1793 C768 1.291 . S
C1785 C344 1.275 . S
