# Generated by pormake.
# Topology ptr, (4,4)-cn, num edge types: 1
# Building blocks:
#     Node 0, Type 0, BuildingBlock: KUFVIS_clean_sbu_0, # of connection points: 4
#     Node 1, Type 0, BuildingBlock: KUFVIS_clean_sbu_0, # of connection points: 4
#     Node 2, Type 0, BuildingBlock: KUFVIS_clean_sbu_0, # of connection points: 4
#     Node 3, Type 0, BuildingBlock: KUFVIS_clean_sbu_0, # of connection points: 4
#     Node 4, Type 0, BuildingBlock: KUFVIS_clean_sbu_0, # of connection points: 4
#     Node 5, Type 0, BuildingBlock: KUFVIS_clean_sbu_0, # of connection points: 4
#     Node 6, Type 0, BuildingBlock: KUFVIS_clean_sbu_0, # of connection points: 4
#     Node 7, Type 0, BuildingBlock: KUFVIS_clean_sbu_0, # of connection points: 4
#     Node 8, Type 0, BuildingBlock: KUFVIS_clean_sbu_0, # of connection points: 4
#     Node 9, Type 0, BuildingBlock: KUFVIS_clean_sbu_0, # of connection points: 4
#     Node 10, Type 0, BuildingBlock: KUFVIS_clean_sbu_0, # of connection points: 4
#     Node 11, Type 0, BuildingBlock: KUFVIS_clean_sbu_0, # of connection points: 4
#     Node 12, Type 0, BuildingBlock: KUFVIS_clean_sbu_0, # of connection points: 4
#     Node 13, Type 0, BuildingBlock: KUFVIS_clean_sbu_0, # of connection points: 4
#     Node 14, Type 0, BuildingBlock: KUFVIS_clean_sbu_0, # of connection points: 4
#     Node 15, Type 0, BuildingBlock: KUFVIS_clean_sbu_0, # of connection points: 4
#     Node 16, Type 0, BuildingBlock: KUFVIS_clean_sbu_0, # of connection points: 4
#     Node 17, Type 0, BuildingBlock: KUFVIS_clean_sbu_0, # of connection points: 4
#     Node 18, Type 1, BuildingBlock: MIFKUJ_clean_linker_1, # of connection points: 4
#     Node 19, Type 1, BuildingBlock: MIFKUJ_clean_linker_1, # of connection points: 4
#     Node 20, Type 1, BuildingBlock: MIFKUJ_clean_linker_1, # of connection points: 4
#     Node 21, Type 1, BuildingBlock: MIFKUJ_clean_linker_1, # of connection points: 4
#     Node 22, Type 1, BuildingBlock: MIFKUJ_clean_linker_1, # of connection points: 4
#     Node 23, Type 1, BuildingBlock: MIFKUJ_clean_linker_1, # of connection points: 4
#     Node 24, Type 1, BuildingBlock: MIFKUJ_clean_linker_1, # of connection points: 4
#     Node 25, Type 1, BuildingBlock: MIFKUJ_clean_linker_1, # of connection points: 4
#     Node 26, Type 1, BuildingBlock: MIFKUJ_clean_linker_1, # of connection points: 4
#     Node 27, Type 1, BuildingBlock: MIFKUJ_clean_linker_1, # of connection points: 4
#     Node 28, Type 1, BuildingBlock: MIFKUJ_clean_linker_1, # of connection points: 4
#     Node 29, Type 1, BuildingBlock: MIFKUJ_clean_linker_1, # of connection points: 4
#     Node 30, Type 1, BuildingBlock: MIFKUJ_clean_linker_1, # of connection points: 4
#     Node 31, Type 1, BuildingBlock: MIFKUJ_clean_linker_1, # of connection points: 4
#     Node 32, Type 1, BuildingBlock: MIFKUJ_clean_linker_1, # of connection points: 4
#     Node 33, Type 1, BuildingBlock: MIFKUJ_clean_linker_1, # of connection points: 4
#     Node 34, Type 1, BuildingBlock: MIFKUJ_clean_linker_1, # of connection points: 4
#     Node 35, Type 1, BuildingBlock: MIFKUJ_clean_linker_1, # of connection points: 4
#     Edge 36, Type (0, 1), BuildingBlock: KIFKEQ_clean_linker_1, # of connection points: 2
#     Edge 37, Type (0, 1), BuildingBlock: KIFKEQ_clean_linker_1, # of connection points: 2
#     Edge 38, Type (0, 1), BuildingBlock: KIFKEQ_clean_linker_1, # of connection points: 2
#     Edge 39, Type (0, 1), BuildingBlock: KIFKEQ_clean_linker_1, # of connection points: 2
#     Edge 40, Type (0, 1), BuildingBlock: KIFKEQ_clean_linker_1, # of connection points: 2
#     Edge 41, Type (0, 1), BuildingBlock: KIFKEQ_clean_linker_1, # of connection points: 2
#     Edge 42, Type (0, 1), BuildingBlock: KIFKEQ_clean_linker_1, # of connection points: 2
#     Edge 43, Type (0, 1), BuildingBlock: KIFKEQ_clean_linker_1, # of connection points: 2
#     Edge 44, Type (0, 1), BuildingBlock: KIFKEQ_clean_linker_1, # of connection points: 2
#     Edge 45, Type (0, 1), BuildingBlock: KIFKEQ_clean_linker_1, # of connection points: 2
#     Edge 46, Type (0, 1), BuildingBlock: KIFKEQ_clean_linker_1, # of connection points: 2
#     Edge 47, Type (0, 1), BuildingBlock: KIFKEQ_clean_linker_1, # of connection points: 2
#     Edge 48, Type (0, 1), BuildingBlock: KIFKEQ_clean_linker_1, # of connection points: 2
#     Edge 49, Type (0, 1), BuildingBlock: KIFKEQ_clean_linker_1, # of connection points: 2
#     Edge 50, Type (0, 1), BuildingBlock: KIFKEQ_clean_linker_1, # of connection points: 2
#     Edge 51, Type (0, 1), BuildingBlock: KIFKEQ_clean_linker_1, # of connection points: 2
#     Edge 52, Type (0, 1), BuildingBlock: KIFKEQ_clean_linker_1, # of connection points: 2
#     Edge 53, Type (0, 1), BuildingBlock: KIFKEQ_clean_linker_1, # of connection points: 2
#     Edge 54, Type (0, 1), BuildingBlock: KIFKEQ_clean_linker_1, # of connection points: 2
#     Edge 55, Type (0, 1), BuildingBlock: KIFKEQ_clean_linker_1, # of connection points: 2
#     Edge 56, Type (0, 1), BuildingBlock: KIFKEQ_clean_linker_1, # of connection points: 2
#     Edge 57, Type (0, 1), BuildingBlock: KIFKEQ_clean_linker_1, # of connection points: 2
#     Edge 58, Type (0, 1), BuildingBlock: KIFKEQ_clean_linker_1, # of connection points: 2
#     Edge 59, Type (0, 1), BuildingBlock: KIFKEQ_clean_linker_1, # of connection points: 2
#     Edge 60, Type (0, 1), BuildingBlock: KIFKEQ_clean_linker_1, # of connection points: 2
#     Edge 61, Type (0, 1), BuildingBlock: KIFKEQ_clean_linker_1, # of connection points: 2
#     Edge 62, Type (0, 1), BuildingBlock: KIFKEQ_clean_linker_1, # of connection points: 2
#     Edge 63, Type (0, 1), BuildingBlock: KIFKEQ_clean_linker_1, # of connection points: 2
#     Edge 64, Type (0, 1), BuildingBlock: KIFKEQ_clean_linker_1, # of connection points: 2
#     Edge 65, Type (0, 1), BuildingBlock: KIFKEQ_clean_linker_1, # of connection points: 2
#     Edge 66, Type (0, 1), BuildingBlock: KIFKEQ_clean_linker_1, # of connection points: 2
#     Edge 67, Type (0, 1), BuildingBlock: KIFKEQ_clean_linker_1, # of connection points: 2
#     Edge 68, Type (0, 1), BuildingBlock: KIFKEQ_clean_linker_1, # of connection points: 2
#     Edge 69, Type (0, 1), BuildingBlock: KIFKEQ_clean_linker_1, # of connection points: 2
#     Edge 70, Type (0, 1), BuildingBlock: KIFKEQ_clean_linker_1, # of connection points: 2
#     Edge 71, Type (0, 1), BuildingBlock: KIFKEQ_clean_linker_1, # of connection points: 2
#     Edge 72, Type (0, 1), BuildingBlock: KIFKEQ_clean_linker_1, # of connection points: 2
#     Edge 73, Type (0, 1), BuildingBlock: KIFKEQ_clean_linker_1, # of connection points: 2
#     Edge 74, Type (0, 1), BuildingBlock: KIFKEQ_clean_linker_1, # of connection points: 2
#     Edge 75, Type (0, 1), BuildingBlock: KIFKEQ_clean_linker_1, # of connection points: 2
#     Edge 76, Type (0, 1), BuildingBlock: KIFKEQ_clean_linker_1, # of connection points: 2
#     Edge 77, Type (0, 1), BuildingBlock: KIFKEQ_clean_linker_1, # of connection points: 2
#     Edge 78, Type (0, 1), BuildingBlock: KIFKEQ_clean_linker_1, # of connection points: 2
#     Edge 79, Type (0, 1), BuildingBlock: KIFKEQ_clean_linker_1, # of connection points: 2
#     Edge 80, Type (0, 1), BuildingBlock: KIFKEQ_clean_linker_1, # of connection points: 2
#     Edge 81, Type (0, 1), BuildingBlock: KIFKEQ_clean_linker_1, # of connection points: 2
#     Edge 82, Type (0, 1), BuildingBlock: KIFKEQ_clean_linker_1, # of connection points: 2
#     Edge 83, Type (0, 1), BuildingBlock: KIFKEQ_clean_linker_1, # of connection points: 2
#     Edge 84, Type (0, 1), BuildingBlock: KIFKEQ_clean_linker_1, # of connection points: 2
#     Edge 85, Type (0, 1), BuildingBlock: KIFKEQ_clean_linker_1, # of connection points: 2
#     Edge 86, Type (0, 1), BuildingBlock: KIFKEQ_clean_linker_1, # of connection points: 2
#     Edge 87, Type (0, 1), BuildingBlock: KIFKEQ_clean_linker_1, # of connection points: 2
#     Edge 88, Type (0, 1), BuildingBlock: KIFKEQ_clean_linker_1, # of connection points: 2
#     Edge 89, Type (0, 1), BuildingBlock: KIFKEQ_clean_linker_1, # of connection points: 2
#     Edge 90, Type (0, 1), BuildingBlock: KIFKEQ_clean_linker_1, # of connection points: 2
#     Edge 91, Type (0, 1), BuildingBlock: KIFKEQ_clean_linker_1, # of connection points: 2
#     Edge 92, Type (0, 1), BuildingBlock: KIFKEQ_clean_linker_1, # of connection points: 2
#     Edge 93, Type (0, 1), BuildingBlock: KIFKEQ_clean_linker_1, # of connection points: 2
#     Edge 94, Type (0, 1), BuildingBlock: KIFKEQ_clean_linker_1, # of connection points: 2
#     Edge 95, Type (0, 1), BuildingBlock: KIFKEQ_clean_linker_1, # of connection points: 2
#     Edge 96, Type (0, 1), BuildingBlock: KIFKEQ_clean_linker_1, # of connection points: 2
#     Edge 97, Type (0, 1), BuildingBlock: KIFKEQ_clean_linker_1, # of connection points: 2
#     Edge 98, Type (0, 1), BuildingBlock: KIFKEQ_clean_linker_1, # of connection points: 2
#     Edge 99, Type (0, 1), BuildingBlock: KIFKEQ_clean_linker_1, # of connection points: 2
#     Edge 100, Type (0, 1), BuildingBlock: KIFKEQ_clean_linker_1, # of connection points: 2
#     Edge 101, Type (0, 1), BuildingBlock: KIFKEQ_clean_linker_1, # of connection points: 2
#     Edge 102, Type (0, 1), BuildingBlock: KIFKEQ_clean_linker_1, # of connection points: 2
#     Edge 103, Type (0, 1), BuildingBlock: KIFKEQ_clean_linker_1, # of connection points: 2
#     Edge 104, Type (0, 1), BuildingBlock: KIFKEQ_clean_linker_1, # of connection points: 2
#     Edge 105, Type (0, 1), BuildingBlock: KIFKEQ_clean_linker_1, # of connection points: 2
#     Edge 106, Type (0, 1), BuildingBlock: KIFKEQ_clean_linker_1, # of connection points: 2
#     Edge 107, Type (0, 1), BuildingBlock: KIFKEQ_clean_linker_1, # of connection points: 2
# Relax obj value: 0.041
# Max RMSD: 0.153
# Mean RMSD: 0.069
data_MOF--net-ptr--node1-KUFVIS_clean_sbu_0--node2-MIFKUJ_clean_linker_1--edge1-KIFKEQ_clean_linker_1
_symmetry_space_group_name_H-M    P1
_symmetry_Int_Tables_number       1
_symmetry_cell_setting            triclinic
loop_
_symmetry_equiv_pos_as_xyz
'x, y, z'
_cell_length_a     90.423285
_cell_length_b     90.06017
_cell_length_c     62.604966
_cell_angle_alpha  89.856915
_cell_angle_beta   90.42714
_cell_angle_gamma 119.51254
loop_
_atom_site_label
_atom_site_type_symbol
_atom_site_fract_x
_atom_site_fract_y
_atom_site_fract_z
_atom_type_partial_charge
Mn0 Mn 1.00031 0.35414 0.00751 0.0
Mn1 Mn 0.03862 0.38982 0.00557 0.0
C2 C 0.0044 0.376 0.98471 0.0
C3 C 0.9822 0.32648 0.99547 0.0
C4 C 0.01338 0.38203 0.0415 0.0
O5 O 0.01603 0.34714 0.0224 0.0
O6 O 0.04137 0.37062 0.01667 0.0
C7 C 0.05446 0.37933 0.97195 0.0
N8 N 0.04963 0.39049 0.97937 0.0
C9 C 0.06064 0.40814 0.94815 0.0
C10 C 0.06586 0.39691 0.94026 0.0
C11 C 0.06271 0.38242 0.95219 0.0
C12 C 0.05251 0.40442 0.96796 0.0
H13 H 0.05199 0.36813 0.98103 0.0
C14 C 0.03225 0.35529 0.02336 0.0
O15 O 0.97996 0.33161 0.01393 0.0
O16 O 0.99521 0.3372 0.98449 0.0
N17 N 0.03789 0.4094 0.99492 0.0
C18 C 0.03144 0.41858 0.00437 0.0
C19 C 0.03329 0.43335 0.99432 0.0
C20 C 0.04184 0.4386 0.97476 0.0
C21 C 0.0485 0.42902 0.96542 0.0
C22 C 0.04642 0.41451 0.97629 0.0
H23 H 0.02492 0.41467 0.01944 0.0
O24 O 0.98916 0.36462 0.99021 0.0
O25 O 0.01671 0.37405 0.99242 0.0
O26 O 1.00128 0.36833 0.03357 0.0
O27 O 0.02799 0.39047 0.03284 0.0
C28 C 0.0569 0.43318 0.94562 0.0
C29 C 0.06292 0.42271 0.93696 0.0
H30 H 0.07216 0.3992 0.92498 0.0
H31 H 0.06661 0.37363 0.94615 0.0
H32 H 0.02811 0.44067 1.00162 0.0
H33 H 0.04317 0.44995 0.96701 0.0
H34 H 0.05859 0.44426 0.93679 0.0
H35 H 0.06915 0.42591 0.92159 0.0
Mn36 Mn 0.65145 0.64955 0.01894 0.0
Mn37 Mn 0.65022 0.61147 0.02164 0.0
C38 C 0.63355 0.62917 0.04292 0.0
C39 C 0.6633 0.678 0.02951 0.0
C40 C 0.63269 0.62058 0.98667 0.0
O41 O 0.67293 0.65403 0.00312 0.0
O42 O 0.67152 0.62855 0.00768 0.0
C43 C 0.67868 0.62111 0.05214 0.0
N44 N 0.66207 0.61082 0.04669 0.0
C45 C 0.65706 0.59405 0.07854 0.0
C46 C 0.67415 0.6044 0.08444 0.0
C47 C 0.68499 0.61803 0.07121 0.0
C48 C 0.6515 0.59778 0.05939 0.0
H49 H 0.68705 0.63159 0.04199 0.0
C50 C 0.67892 0.64393 1.00077 0.0
O51 O 0.65498 0.67264 0.01161 0.0
O52 O 0.66521 0.66698 0.04085 0.0
N53 N 0.63037 0.59357 0.03477 0.0
C54 C 0.61412 0.58512 0.02709 0.0
C55 C 0.6016 0.57132 0.03865 0.0
C56 C 0.60595 0.56618 0.05778 0.0
C57 C 0.62281 0.57485 0.06514 0.0
C58 C 0.63474 0.58852 0.05295 0.0
H59 H 0.61073 0.58894 0.01232 0.0
O60 O 0.63089 0.64149 0.03712 0.0
O61 O 0.64685 0.6293 0.03489 0.0
O62 O 0.63657 0.63538 0.99368 0.0
O63 O 0.63743 0.61085 0.99567 0.0
C64 C 0.62822 0.57059 0.0842 0.0
C65 C 0.64531 0.58025 0.09097 0.0
H66 H 0.67906 0.60205 0.09913 0.0
H67 H 0.69817 0.62612 0.0757 0.0
H68 H 0.58862 0.56466 0.03283 0.0
H69 H 0.59623 0.55558 0.06672 0.0
H70 H 0.61931 0.56001 0.09388 0.0
H71 H 0.64925 0.577 0.10582 0.0
Mn72 Mn 0.35238 1.00026 0.02003 0.0
Mn73 Mn 0.38991 0.03684 0.02347 0.0
C74 C 0.37344 0.00201 0.0429 0.0
C75 C 0.32449 0.98339 0.03188 0.0
C76 C 0.38056 0.01169 0.98675 0.0
O77 O 0.34715 0.01764 0.00589 0.0
O78 O 0.37228 0.04149 0.01123 0.0
C79 C 0.38066 0.05439 0.05627 0.0
N80 N 0.39096 0.04832 0.04952 0.0
C81 C 0.40853 0.05901 0.081 0.0
C82 C 0.39816 0.06546 0.08825 0.0
C83 C 0.38412 0.06307 0.07587 0.0
C84 C 0.40439 0.05039 0.0614 0.0
H85 H 0.36989 0.05262 0.04676 0.0
C86 C 0.35685 0.03378 0.00452 0.0
O87 O 0.3291 0.98101 0.01315 0.0
O88 O 0.33584 0.99595 0.04312 0.0
N89 N 0.40826 0.03444 0.03508 0.0
C90 C 0.41664 0.02693 0.02616 0.0
C91 C 0.43079 0.02782 0.03676 0.0
C92 C 0.43635 0.03665 0.05624 0.0
C93 C 0.4277 0.04454 0.06491 0.0
C94 C 0.41365 0.04319 0.05365 0.0
H95 H 0.41251 0.02024 0.01111 0.0
O96 O 0.36131 0.98729 0.03661 0.0
O97 O 0.37277 0.01527 0.03589 0.0
O98 O 0.36597 1.00052 0.99361 0.0
O99 O 0.39013 0.02569 0.99652 0.0
C100 C 0.43238 0.05357 0.08437 0.0
C101 C 0.42273 0.06068 0.0925 0.0
H102 H 0.4008 0.07218 0.10334 0.0
H103 H 0.37603 0.06796 0.08139 0.0
H104 H 0.43742 0.02174 0.02993 0.0
H105 H 0.44723 0.03726 0.06442 0.0
H106 H 0.44327 0.05494 0.09335 0.0
H107 H 0.4263 0.06736 0.10766 0.0
Mn108 Mn 0.00408 0.65113 1.00196 0.0
Mn109 Mn 0.04053 0.64942 0.99948 0.0
C110 C 0.00633 0.63289 0.97793 0.0
C111 C 0.98754 0.66329 0.99169 0.0
C112 C 0.01438 0.63234 0.03437 0.0
O113 O 0.02105 0.67258 0.01804 0.0
O114 O 0.04493 0.67114 0.01303 0.0
C115 C 0.05893 0.67747 0.96865 0.0
N116 N 0.05267 0.66085 0.97433 0.0
C117 C 0.06409 0.65516 0.94278 0.0
C118 C 0.07075 0.67225 0.93663 0.0
C119 C 0.0681 0.68343 0.94958 0.0
C120 C 0.055 0.64994 0.96189 0.0
H121 H 0.05695 0.68611 0.9786 0.0
C122 C 0.03707 0.67866 0.02009 0.0
O123 O 0.9849 0.65501 0.00954 0.0
O124 O 1.00015 0.66498 0.98016 0.0
N125 N 0.03839 0.62918 0.98668 0.0
C126 C 0.03072 0.61298 0.99459 0.0
C127 C 0.0319 0.60015 0.98333 0.0
C128 C 0.04119 0.60414 0.96427 0.0
C129 C 0.04924 0.62096 0.95667 0.0
C130 C 0.0476 0.6332 0.96855 0.0
H131 H 0.02369 0.60987 0.00933 0.0
O132 O 0.99154 0.63045 0.98361 0.0
O133 O 0.01943 0.64619 0.98609 0.0
O134 O 0.00353 0.63624 0.02706 0.0
O135 O 0.02874 0.63701 0.02564 0.0
C136 C 0.05873 0.62602 0.93768 0.0
C137 C 0.06604 0.64308 0.93065 0.0
H138 H 0.07785 0.6769 0.92195 0.0
H139 H 0.07314 0.69662 0.94491 0.0
H140 H 0.02569 0.58721 0.98933 0.0
H141 H 0.04201 0.59419 0.95557 0.0
H142 H 0.06034 0.61686 0.92824 0.0
H143 H 0.07309 0.64676 0.91585 0.0
Mn144 Mn 0.35215 0.35689 0.01918 0.0
Mn145 Mn 0.38938 0.35665 0.0207 0.0
C146 C 0.37353 0.37502 0.04229 0.0
C147 C 0.32425 0.34591 0.03113 0.0
C148 C 0.37988 0.3738 0.98552 0.0
O149 O 0.34657 0.33478 0.00363 0.0
O150 O 0.37127 0.33478 0.00862 0.0
C151 C 0.3804 0.32957 0.05307 0.0
N152 N 0.39076 0.34586 0.04637 0.0
C153 C 0.4085 0.35219 0.07764 0.0
C154 C 0.39808 0.33545 0.08483 0.0
C155 C 0.38394 0.32411 0.07251 0.0
C156 C 0.40433 0.35691 0.05816 0.0
H157 H 0.3695 0.32084 0.04367 0.0
C158 C 0.35586 0.32779 1.00195 0.0
O159 O 0.32905 0.35373 0.0129 0.0
O160 O 0.33548 0.34399 0.04193 0.0
N161 N 0.40813 0.37695 0.03212 0.0
C162 C 0.41666 0.39277 0.02318 0.0
C163 C 0.43111 0.40565 0.03355 0.0
C164 C 0.43673 0.4021 0.05286 0.0
C165 C 0.42786 0.38569 0.06164 0.0
C166 C 0.41364 0.37332 0.05048 0.0
H167 H 0.41248 0.39555 0.00826 0.0
O168 O 0.36138 0.37805 0.03699 0.0
O169 O 0.37262 0.36129 0.03428 0.0
O170 O 0.36572 0.37099 0.99334 0.0
O171 O 0.38925 0.36841 0.99404 0.0
C172 C 0.43245 0.38116 0.08114 0.0
C173 C 0.42274 0.36445 0.08918 0.0
H174 H 0.40075 0.3312 0.09983 0.0
H175 H 0.3758 0.31119 0.078 0.0
H176 H 0.4379 0.41829 0.02666 0.0
H177 H 0.44787 0.41207 0.06082 0.0
H178 H 0.44331 0.3905 0.0902 0.0
H179 H 0.42627 0.36117 0.10431 0.0
Mn180 Mn 0.65203 0.00303 0.00642 0.0
Mn181 Mn 0.61549 0.9656 1.00088 0.0
C182 C 0.63196 1.00058 0.98153 0.0
C183 C 0.68038 0.0209 0.99747 0.0
C184 C 0.62176 0.99067 0.03675 0.0
O185 O 0.65746 0.98639 0.02186 0.0
O186 O 0.63292 0.96208 0.016 0.0
C187 C 0.62808 0.94879 0.9713 0.0
N188 N 0.61672 0.95408 0.97596 0.0
C189 C 0.60115 0.94194 0.9434 0.0
C190 C 0.61261 0.93626 0.9383 0.0
C191 C 0.62619 0.93977 0.95227 0.0
C192 C 0.60373 0.95093 0.96253 0.0
H193 H 0.6385 0.95142 0.98203 0.0
C194 C 0.64808 0.97028 0.02352 0.0
O195 O 0.67422 0.02286 0.01526 0.0
O196 O 0.67024 0.00827 0.98532 0.0
N197 N 0.59734 0.9667 0.9864 0.0
C198 C 0.58789 0.97377 0.99317 0.0
C199 C 0.57408 0.97185 0.98068 0.0
C200 C 0.56995 0.96243 0.96159 0.0
C201 C 0.57969 0.95504 0.95513 0.0
C202 C 0.59334 0.95744 0.96818 0.0
H203 H 0.59094 0.98093 0.00789 0.0
O204 O 0.64339 0.01543 0.98847 0.0
O205 O 0.63276 0.98748 0.98899 0.0
O206 O 0.63673 0.00191 0.0312 0.0
O207 O 0.61288 0.9767 0.02659 0.0
C208 C 0.57654 0.94557 0.93612 0.0
C209 C 0.58733 0.93914 0.93017 0.0
H210 H 0.61118 0.92928 0.92365 0.0
H211 H 0.63513 0.9355 0.94842 0.0
H212 H 0.56663 0.97759 0.98577 0.0
H213 H 0.55934 0.96104 0.95196 0.0
H214 H 0.56595 0.94332 0.92582 0.0
H215 H 0.58493 0.93212 0.91534 0.0
Mn216 Mn 0.66545 0.68636 0.34292 0.0
Mn217 Mn 0.70246 0.72364 0.34118 0.0
C218 C 0.6692 0.70665 0.31777 0.0
C219 C 0.64853 0.65797 0.33275 0.0
C220 C 0.6749 0.71666 0.37317 0.0
O221 O 0.6812 0.681 0.36045 0.0
O222 O 0.70501 0.70657 0.35872 0.0
C223 C 0.72173 0.71103 0.31624 0.0
N224 N 0.71591 0.72228 0.31868 0.0
C225 C 0.72989 0.73719 0.2866 0.0
C226 C 0.73613 0.72583 0.2838 0.0
C227 C 0.73197 0.71265 0.29865 0.0
C228 C 0.71968 0.73488 0.30438 0.0
H229 H 0.7186 0.70089 0.32762 0.0
C230 C 0.69675 0.69107 0.36511 0.0
O231 O 0.6454 0.66388 0.35002 0.0
O232 O 0.66177 0.6684 0.32186 0.0
N233 N 0.70232 0.74154 0.32478 0.0
C234 C 0.69495 0.75117 0.32948 0.0
C235 C 0.69764 0.76476 0.31601 0.0
C236 C 0.70811 0.7685 0.29806 0.0
C237 C 0.71583 0.75862 0.29378 0.0
C238 C 0.71267 0.74523 0.30776 0.0
H239 H 0.68691 0.74838 0.34327 0.0
O240 O 0.65406 0.69501 0.32322 0.0
O241 O 0.68184 0.706 0.32696 0.0
O242 O 0.66477 0.70132 0.36729 0.0
O243 O 0.68919 0.72622 0.36429 0.0
C244 C 0.72641 0.76143 0.27606 0.0
C245 C 0.73333 0.75065 0.27239 0.0
H246 H 0.74406 0.72706 0.27027 0.0
H247 H 0.73668 0.70379 0.29656 0.0
H248 H 0.69165 0.77233 0.31945 0.0
H249 H 0.71008 0.77892 0.28764 0.0
H250 H 0.72919 0.77176 0.26505 0.0
H251 H 0.74127 0.75281 0.25855 0.0
Mn252 Mn 0.317 0.98341 0.35169 0.0
Mn253 Mn 0.31525 0.94502 0.35204 0.0
C254 C 0.29945 0.96264 0.37546 0.0
C255 C 0.32903 0.01169 0.36303 0.0
C256 C 0.29694 0.95485 0.31912 0.0
O257 O 0.33816 0.98813 0.33503 0.0
O258 O 0.33587 0.96208 0.33678 0.0
C259 C 0.34509 0.95452 0.38009 0.0
N260 N 0.32825 0.94427 0.3758 0.0
C261 C 0.32467 0.92754 0.40734 0.0
C262 C 0.34201 0.93785 0.41204 0.0
C263 C 0.35225 0.95144 0.39839 0.0
C264 C 0.31825 0.93127 0.38892 0.0
H265 H 0.353 0.96497 0.36963 0.0
C266 C 0.34346 0.9777 0.33082 0.0
O267 O 0.32046 0.00658 0.34528 0.0
O268 O 0.33111 1.00052 0.37381 0.0
N269 N 0.29605 0.92708 0.36618 0.0
C270 C 0.2795 0.91859 0.35961 0.0
C271 C 0.26752 0.90479 0.3717 0.0
C272 C 0.27271 0.89968 0.39019 0.0
C273 C 0.28987 0.90838 0.39636 0.0
C274 C 0.30124 0.92203 0.38368 0.0
H275 H 0.27547 0.92239 0.34533 0.0
O276 O 0.29677 0.9751 0.37044 0.0
O277 O 0.31256 0.96281 0.36673 0.0
O278 O 0.3017 0.96977 0.32643 0.0
O279 O 0.3013 0.94459 0.32743 0.0
C280 C 0.29612 0.90416 0.41472 0.0
C281 C 0.31349 0.9138 0.42029 0.0
H282 H 0.34758 0.93551 0.42613 0.0
H283 H 0.36562 0.95949 0.40196 0.0
H284 H 0.25431 0.8981 0.36679 0.0
H285 H 0.26341 0.88911 0.39956 0.0
H286 H 0.28765 0.89362 0.42479 0.0
H287 H 0.31809 0.91057 0.43459 0.0
Mn288 Mn 0.01824 0.33239 0.35155 0.0
Mn289 Mn 0.05698 0.3677 0.35403 0.0
C290 C 0.0387 0.33329 0.37465 0.0
C291 C 0.99022 0.31688 0.36339 0.0
C292 C 0.04646 0.34152 0.31856 0.0
O293 O 0.0141 0.35029 0.33698 0.0
O294 O 0.0404 0.37304 0.33988 0.0
C295 C 0.0484 0.38731 0.38453 0.0
N296 N 0.05823 0.38037 0.37906 0.0
C297 C 0.07508 0.39113 0.41109 0.0
C298 C 0.06521 0.39851 0.417 0.0
C299 C 0.05177 0.39654 0.40369 0.0
C300 C 0.07113 0.38209 0.3918 0.0
H301 H 0.03804 0.3858 0.37435 0.0
C302 C 0.02484 0.36597 0.33381 0.0
O303 O 0.99458 0.31391 0.34483 0.0
O304 O 1.00195 0.32924 0.37451 0.0
N305 N 0.07452 0.36472 0.36717 0.0
C306 C 0.08243 0.35631 0.3595 0.0
C307 C 0.096 0.35676 0.37111 0.0
C308 C 0.10143 0.36602 0.3903 0.0
C309 C 0.09327 0.37481 0.39768 0.0
C310 C 0.07989 0.37399 0.38536 0.0
H311 H 0.07836 0.34924 0.3447 0.0
O312 O 0.02609 0.31879 0.36854 0.0
O313 O 0.03894 0.34692 0.36721 0.0
O314 O 0.0314 0.33146 0.32521 0.0
O315 O 0.05688 0.35525 0.32825 0.0
C316 C 0.09767 0.38408 0.41698 0.0
C317 C 0.08855 0.39219 0.42371 0.0
H318 H 0.06774 0.4056 0.43179 0.0
H319 H 0.04404 0.40213 0.40819 0.0
H320 H 0.10224 0.34995 0.3653 0.0
H321 H 0.11179 0.36621 0.39931 0.0
H322 H 0.10789 0.38485 0.4269 0.0
H323 H 0.0919 0.3991 0.43871 0.0
Mn324 Mn 0.67119 0.98382 0.33858 0.0
Mn325 Mn 0.70807 0.98289 0.33696 0.0
C326 C 0.67398 0.96558 0.31511 0.0
C327 C 0.65424 0.99532 0.32762 0.0
C328 C 0.68181 0.96582 0.37177 0.0
O329 O 0.68781 0.00558 0.35443 0.0
O330 O 0.71205 0.00474 0.34971 0.0
C331 C 0.72605 0.01043 0.30536 0.0
N332 N 0.72009 0.99397 0.31158 0.0
C333 C 0.7312 0.98782 0.28007 0.0
C334 C 0.73756 0.00475 0.27338 0.0
C335 C 0.73493 0.01608 0.28605 0.0
C336 C 0.72245 0.98292 0.29944 0.0
H337 H 0.72402 0.01917 0.31504 0.0
C338 C 0.70389 0.01207 0.35641 0.0
O339 O 0.65165 0.98724 0.34562 0.0
O340 O 0.66706 0.99725 0.31635 0.0
N341 N 0.70633 0.96257 0.32492 0.0
C342 C 0.69907 0.94658 0.33342 0.0
C343 C 0.70051 0.93369 0.32268 0.0
C344 C 0.70954 0.9374 0.30344 0.0
C345 C 0.71706 0.95398 0.29512 0.0
C346 C 0.71535 0.96635 0.30665 0.0
H347 H 0.69221 0.94367 0.34828 0.0
O348 O 0.65905 0.96291 0.32051 0.0
O349 O 0.68688 0.97908 0.32322 0.0
O350 O 0.6708 0.96931 0.36402 0.0
O351 O 0.69635 0.97079 0.36336 0.0
C352 C 0.72604 0.95868 0.27574 0.0
C353 C 0.73304 0.97557 0.26817 0.0
H354 H 0.74439 0.00915 0.25848 0.0
H355 H 0.73973 0.02914 0.28095 0.0
H356 H 0.69468 0.92092 0.32921 0.0
H357 H 0.7106 0.92742 0.29519 0.0
H358 H 0.72747 0.94936 0.2664 0.0
H359 H 0.73975 0.97899 0.25312 0.0
Mn360 Mn 0.01773 0.6909 0.3504 0.0
Mn361 Mn 0.05517 0.69114 0.35379 0.0
C362 C 0.0384 0.70912 0.3742 0.0
C363 C 0.98946 0.67966 0.36089 0.0
C364 C 0.04635 0.70828 0.31791 0.0
O365 O 0.0128 0.66892 0.335 0.0
O366 O 0.03756 0.66929 0.3411 0.0
C367 C 0.04551 0.66387 0.38605 0.0
N368 N 0.05596 0.68023 0.37963 0.0
C369 C 0.07297 0.68641 0.41157 0.0
C370 C 0.06245 0.6696 0.41847 0.0
C371 C 0.04864 0.65831 0.40567 0.0
C372 C 0.06921 0.69123 0.39189 0.0
H373 H 0.03487 0.65516 0.37626 0.0
C374 C 0.02231 0.66215 0.33382 0.0
O375 O 0.99481 0.68759 0.34282 0.0
O376 O 1.00038 0.67777 0.37245 0.0
N377 N 0.07351 0.71144 0.36585 0.0
C378 C 0.08222 0.72731 0.35709 0.0
C379 C 0.09642 0.74015 0.36791 0.0
C380 C 0.10163 0.73649 0.38746 0.0
C381 C 0.09259 0.72003 0.39605 0.0
C382 C 0.07864 0.70771 0.38445 0.0
H383 H 0.07837 0.73017 0.34198 0.0
O384 O 0.02626 0.71196 0.36822 0.0
O385 O 0.03789 0.69548 0.36648 0.0
O386 O 0.03191 0.70518 0.32505 0.0
O387 O 0.05566 0.70305 0.32698 0.0
C388 C 0.09677 0.71539 0.41576 0.0
C389 C 0.08692 0.69862 0.42356 0.0
H390 H 0.06481 0.66527 0.43361 0.0
H391 H 0.04042 0.64534 0.41093 0.0
H392 H 0.10335 0.75283 0.36117 0.0
H393 H 0.11259 0.74642 0.39575 0.0
H394 H 0.10742 0.72469 0.42516 0.0
H395 H 0.09014 0.69526 0.43885 0.0
Mn396 Mn 0.31975 0.33903 0.33944 0.0
Mn397 Mn 0.28292 0.3018 0.33534 0.0
C398 C 0.29867 0.33693 0.31656 0.0
C399 C 0.34755 0.35639 0.3279 0.0
C400 C 0.29156 0.32636 0.37267 0.0
O401 O 0.32548 0.32197 0.3532 0.0
O402 O 0.30105 0.29757 0.34687 0.0
C403 C 0.29264 0.28537 0.30157 0.0
N404 N 0.28203 0.29089 0.30886 0.0
C405 C 0.26457 0.28068 0.27724 0.0
C406 C 0.27525 0.27478 0.26944 0.0
C407 C 0.28937 0.27718 0.28164 0.0
C408 C 0.26844 0.2887 0.29723 0.0
H409 H 0.30353 0.28722 0.31089 0.0
C410 C 0.31639 0.30575 0.35382 0.0
O411 O 0.34277 0.35853 0.34664 0.0
O412 O 0.33642 0.34384 0.31646 0.0
N413 N 0.26421 0.30385 0.3243 0.0
C414 C 0.25568 0.31105 0.33362 0.0
C415 C 0.24145 0.31016 0.32322 0.0
C416 C 0.23603 0.30173 0.30348 0.0
C417 C 0.24488 0.29423 0.29433 0.0
C418 C 0.25891 0.29544 0.3055 0.0
H419 H 0.25975 0.31751 0.34882 0.0
O420 O 0.31049 0.35174 0.3231 0.0
O421 O 0.29965 0.3238 0.32338 0.0
O422 O 0.30586 0.3381 0.3658 0.0
O423 O 0.28249 0.3123 0.36276 0.0
C424 C 0.24055 0.28592 0.27436 0.0
C425 C 0.25041 0.27918 0.2658 0.0
H426 H 0.27281 0.26852 0.25404 0.0
H427 H 0.29771 0.27274 0.27568 0.0
H428 H 0.23469 0.31599 0.33037 0.0
H429 H 0.22514 0.30119 0.29542 0.0
H430 H 0.22983 0.28488 0.2653 0.0
H431 H 0.24711 0.27304 0.25029 0.0
Mn432 Mn 0.33103 0.02025 0.67441 0.0
Mn433 Mn 0.3669 0.05842 0.67213 0.0
C434 C 0.33241 0.04109 0.6516 0.0
C435 C 0.31521 0.99216 0.6625 0.0
C436 C 0.3415 0.04792 0.70837 0.0
O437 O 0.34867 0.01576 0.68907 0.0
O438 O 0.37232 0.04095 0.68314 0.0
C439 C 0.38481 0.05069 0.6383 0.0
N440 N 0.37834 0.06046 0.64583 0.0
C441 C 0.38779 0.07846 0.61473 0.0
C442 C 0.39468 0.06867 0.60673 0.0
C443 C 0.39313 0.05469 0.61853 0.0
C444 C 0.37964 0.07386 0.63453 0.0
H445 H 0.38359 0.03989 0.6473 0.0
C446 C 0.36476 0.02552 0.68988 0.0
O447 O 0.3124 0.99672 0.68103 0.0
O448 O 0.32756 0.00375 0.65139 0.0
N449 N 0.36358 0.07654 0.66156 0.0
C450 C 0.35565 0.08427 0.67113 0.0
C451 C 0.35585 0.09838 0.66126 0.0
C452 C 0.36429 0.10448 0.64176 0.0
C453 C 0.37244 0.09638 0.63227 0.0
C454 C 0.37197 0.08248 0.64296 0.0
H455 H 0.34924 0.07972 0.68619 0.0
O456 O 0.31779 0.02858 0.65729 0.0
O457 O 0.34571 0.04087 0.65918 0.0
O458 O 0.33044 0.0336 0.70054 0.0
O459 O 0.35576 0.0577 0.69952 0.0
C460 C 0.38083 0.10143 0.6125 0.0
C461 C 0.38844 0.09243 0.6037 0.0
H462 H 0.40107 0.07168 0.59145 0.0
H463 H 0.39833 0.04701 0.6124 0.0
H464 H 0.34952 0.10456 0.66868 0.0
H465 H 0.36441 0.11536 0.63421 0.0
H466 H 0.3813 0.11206 0.6038 0.0
H467 H 0.39465 0.09628 0.58835 0.0
Mn468 Mn 0.98406 0.31436 0.68737 0.0
Mn469 Mn 0.98155 0.2757 0.68952 0.0
C470 C 0.96575 0.29397 0.71106 0.0
C471 C 0.99596 0.34265 0.69875 0.0
C472 C 0.96365 0.28512 0.65558 0.0
O473 O 0.00558 0.31874 0.67196 0.0
O474 O 1.00209 0.29224 0.67357 0.0
C475 C 0.01178 0.28592 0.71713 0.0
N476 N 0.99487 0.2756 0.71331 0.0
C477 C 0.99173 0.25977 0.74557 0.0
C478 C 0.00913 0.27016 0.74979 0.0
C479 C 0.01919 0.28333 0.73554 0.0
C480 C 0.98505 0.263 0.72702 0.0
H481 H 0.01957 0.29605 0.70623 0.0
C482 C 0.01034 0.30789 0.66774 0.0
O483 O 0.98818 0.33777 0.68043 0.0
O484 O 0.99745 0.33129 0.70987 0.0
N485 N 0.96253 0.2582 0.70449 0.0
C486 C 0.94588 0.24956 0.69836 0.0
C487 C 0.93408 0.2361 0.71105 0.0
C488 C 0.93954 0.23149 0.72971 0.0
C489 C 0.95678 0.24035 0.73548 0.0
C490 C 0.96797 0.25364 0.7222 0.0
H491 H 0.94161 0.25304 0.68404 0.0
O492 O 0.96329 0.30638 0.70508 0.0
O493 O 0.97901 0.29388 0.70321 0.0
O494 O 0.96944 0.30059 0.66158 0.0
O495 O 0.96718 0.27466 0.66511 0.0
C496 C 0.96329 0.23662 0.75399 0.0
C497 C 0.98073 0.2464 0.75912 0.0
H498 H 0.01489 0.26819 0.76396 0.0
H499 H 0.03262 0.29145 0.73873 0.0
H500 H 0.92079 0.22932 0.70648 0.0
H501 H 0.93038 0.22118 0.73954 0.0
H502 H 0.95497 0.22636 0.76451 0.0
H503 H 0.98554 0.24355 0.77353 0.0
Mn504 Mn 0.68488 0.66719 0.68747 0.0
Mn505 Mn 0.72154 0.70468 0.69133 0.0
C506 C 0.70575 0.67004 0.71143 0.0
C507 C 0.65692 0.64948 0.69849 0.0
C508 C 0.71436 0.67901 0.65587 0.0
O509 O 0.67896 0.68364 0.6722 0.0
O510 O 0.70374 0.70793 0.67682 0.0
C511 C 0.70974 0.72199 0.72125 0.0
N512 N 0.72096 0.71661 0.71621 0.0
C513 C 0.73739 0.72929 0.74807 0.0
C514 C 0.72607 0.73506 0.75356 0.0
C515 C 0.71214 0.73132 0.74013 0.0
C516 C 0.7343 0.71998 0.72911 0.0
H517 H 0.69905 0.7192 0.71093 0.0
C518 C 0.6884 0.69971 0.66993 0.0
O519 O 0.66216 0.64719 0.68015 0.0
O520 O 0.66764 0.66242 0.70975 0.0
N521 N 0.74008 0.70384 0.70509 0.0
C522 C 0.7494 0.69674 0.69795 0.0
C523 C 0.76354 0.69888 0.70988 0.0
C524 C 0.76815 0.70857 0.72877 0.0
C525 C 0.75855 0.71603 0.73558 0.0
C526 C 0.74454 0.71338 0.7231 0.0
H527 H 0.74601 0.68941 0.68334 0.0
O528 O 0.69413 0.65509 0.70503 0.0
O529 O 0.70469 0.68299 0.70396 0.0
O530 O 0.69947 0.66783 0.66189 0.0
O531 O 0.7234 0.69311 0.6657 0.0
C532 C 0.76221 0.72582 0.75439 0.0
C533 C 0.75157 0.73233 0.76072 0.0
H534 H 0.7279 0.74229 0.76809 0.0
H535 H 0.70331 0.73568 0.7443 0.0
H536 H 0.7709 0.69311 0.70449 0.0
H537 H 0.77902 0.71015 0.73796 0.0
H538 H 0.77308 0.72827 0.76423 0.0
H539 H 0.75436 0.7396 0.77539 0.0
Mn540 Mn 0.33565 0.31654 0.6708 0.0
Mn541 Mn 0.37182 0.31447 0.66608 0.0
C542 C 0.33717 0.29837 0.64596 0.0
C543 C 0.31893 0.32873 0.66155 0.0
C544 C 0.34629 0.2967 0.70138 0.0
O545 O 0.35295 0.33791 0.68654 0.0
O546 O 0.37633 0.33557 0.68155 0.0
C547 C 0.38973 0.3439 0.63694 0.0
N548 N 0.38372 0.32709 0.64138 0.0
C549 C 0.39475 0.32293 0.60844 0.0
C550 C 0.40116 0.34023 0.60357 0.0
C551 C 0.39859 0.35074 0.61786 0.0
C552 C 0.38599 0.31683 0.62766 0.0
H553 H 0.38778 0.35202 0.64788 0.0
C554 C 0.36884 0.3434 0.68886 0.0
O555 O 0.31665 0.32046 0.67936 0.0
O556 O 0.33129 0.3304 0.64955 0.0
N557 N 0.36982 0.29493 0.65142 0.0
C558 C 0.36254 0.27846 0.65827 0.0
C559 C 0.36403 0.2663 0.64586 0.0
C560 C 0.37313 0.27123 0.62665 0.0
C561 C 0.38062 0.28827 0.62 0.0
C562 C 0.37886 0.29986 0.63315 0.0
H563 H 0.35558 0.2746 0.67305 0.0
O564 O 0.32258 0.2959 0.65258 0.0
O565 O 0.35054 0.31161 0.65377 0.0
O566 O 0.33584 0.30167 0.69563 0.0
O567 O 0.3601 0.30079 0.6915 0.0
C568 C 0.38961 0.29418 0.60072 0.0
C569 C 0.39659 0.31148 0.59489 0.0
H570 H 0.40799 0.34556 0.58887 0.0
H571 H 0.40343 0.36409 0.61417 0.0
H572 H 0.35817 0.25316 0.65108 0.0
H573 H 0.37424 0.26183 0.61711 0.0
H574 H 0.39106 0.28548 0.59016 0.0
H575 H 0.40332 0.31583 0.57993 0.0
Mn576 Mn 0.68596 0.02428 0.68568 0.0
Mn577 Mn 0.72302 0.02363 0.68771 0.0
C578 C 0.70712 0.04194 0.70924 0.0
C579 C 0.65799 0.01376 0.69713 0.0
C580 C 0.71469 0.04195 0.65308 0.0
O581 O 0.68011 0.00218 0.67002 0.0
O582 O 0.70527 0.00281 0.67318 0.0
C583 C 0.71199 0.99463 0.71761 0.0
N584 N 0.72296 0.01118 0.71249 0.0
C585 C 0.73915 0.01526 0.74476 0.0
C586 C 0.7281 0.99822 0.75032 0.0
C587 C 0.71443 0.98788 0.73671 0.0
C588 C 0.73606 0.02128 0.72554 0.0
H589 H 0.70145 0.98666 0.7072 0.0
C590 C 0.6898 0.99586 0.66679 0.0
O591 O 0.66312 0.02166 0.679 0.0
O592 O 0.66892 0.01146 0.7081 0.0
N593 N 0.74159 0.04292 0.70117 0.0
C594 C 0.75097 0.05911 0.69356 0.0
C595 C 0.76515 0.0711 0.70527 0.0
C596 C 0.76965 0.06625 0.72452 0.0
C597 C 0.75997 0.04945 0.73184 0.0
C598 C 0.74608 0.03802 0.71939 0.0
H599 H 0.74763 0.06287 0.6787 0.0
O600 O 0.69524 0.04529 0.70362 0.0
O601 O 0.70613 0.02816 0.70121 0.0
O602 O 0.70006 0.03847 0.66002 0.0
O603 O 0.72417 0.03694 0.66214 0.0
C604 C 0.76346 0.04362 0.75112 0.0
C605 C 0.75301 0.02655 0.75762 0.0
H606 H 0.72992 0.99297 0.76504 0.0
H607 H 0.7058 0.97474 0.74094 0.0
H608 H 0.77258 0.08404 0.69949 0.0
H609 H 0.78057 0.07554 0.73354 0.0
H610 H 0.77405 0.05219 0.76116 0.0
H611 H 0.75572 0.02227 0.77257 0.0
Mn612 Mn 0.98615 0.6727 0.67259 0.0
Mn613 Mn 0.94887 0.63579 0.66889 0.0
C614 C 0.9661 0.66992 0.64755 0.0
C615 C 0.01447 0.68995 0.66304 0.0
C616 C 0.956 0.66225 0.70295 0.0
O617 O 0.99131 0.65617 0.68875 0.0
O618 O 0.96568 0.63247 0.68583 0.0
C619 C 0.9611 0.61701 0.64219 0.0
N620 N 0.95002 0.62291 0.6454 0.0
C621 C 0.93482 0.60969 0.61297 0.0
C622 C 0.94599 0.60337 0.60938 0.0
C623 C 0.95924 0.60711 0.62401 0.0
C624 C 0.93735 0.61954 0.63132 0.0
H625 H 0.97126 0.61981 0.65343 0.0
C626 C 0.98108 0.64047 0.69253 0.0
O627 O 0.00857 0.69248 0.68069 0.0
O628 O 0.00408 0.67706 0.6514 0.0
N629 N 0.93118 0.6367 0.65302 0.0
C630 C 0.9219 0.6443 0.65843 0.0
C631 C 0.90841 0.64219 0.64515 0.0
C632 C 0.90439 0.63202 0.62671 0.0
C633 C 0.9139 0.62405 0.62171 0.0
C634 C 0.92724 0.62668 0.63549 0.0
H635 H 0.92486 0.65199 0.67269 0.0
O636 O 0.9777 0.68487 0.65397 0.0
O637 O 0.9666 0.65687 0.65579 0.0
O638 O 0.97125 0.67266 0.69738 0.0
O639 O 0.94648 0.6483 0.69309 0.0
C640 C 0.91081 0.61378 0.60345 0.0
C641 C 0.92134 0.60671 0.59901 0.0
H642 H 0.94458 0.59572 0.59538 0.0
H643 H 0.96795 0.60234 0.6213 0.0
H644 H 0.90111 0.64835 0.64914 0.0
H645 H 0.89402 0.63048 0.61646 0.0
H646 H 0.90048 0.61136 0.59261 0.0
H647 H 0.91898 0.59904 0.58475 0.0
H648 H 0.14886 0.34422 0.18753 0.0
H649 H 0.12701 0.3454 0.20898 0.0
H650 H 0.08999 0.29528 0.18644 0.0
H651 H 0.11204 0.29424 0.16461 0.0
H652 H 0.15998 0.32073 0.19031 0.0
H653 H 0.13501 0.34154 0.1415 0.0
H654 H 0.11221 0.34233 0.12141 0.0
H655 H 0.10268 0.29683 0.08728 0.0
H656 H 0.12524 0.29568 0.10812 0.0
H657 H 0.17431 0.29838 0.10986 0.0
H658 H 0.19898 0.30154 0.09006 0.0
H659 H 0.23057 0.34985 0.12147 0.0
H660 H 0.20593 0.34664 0.1411 0.0
H661 H 0.15883 0.31767 0.11121 0.0
H662 H 0.19025 0.30224 0.16207 0.0
H663 H 0.21323 0.30545 0.18616 0.0
H664 H 0.21296 0.34826 0.21662 0.0
H665 H 0.19052 0.34543 0.19226 0.0
C666 C 0.13206 0.31917 0.17447 0.0
C667 C 0.13603 0.3335 0.18713 0.0
C668 C 0.12352 0.3342 0.19924 0.0
C669 C 0.1068 0.32047 0.19924 0.0
C670 C 0.1028 0.30602 0.18669 0.0
C671 C 0.11533 0.30544 0.17422 0.0
C672 C 0.14569 0.31872 0.16191 0.0
C673 C 0.15981 0.32013 0.17299 0.0
C674 C 0.14528 0.3178 0.13935 0.0
C675 C 0.13154 0.31828 0.12676 0.0
C676 C 0.12778 0.33148 0.13008 0.0
C677 C 0.11478 0.33196 0.11854 0.0
C678 C 0.10555 0.3195 0.10302 0.0
C679 C 0.10958 0.30653 0.09924 0.0
C680 C 0.12245 0.30589 0.11109 0.0
C681 C 0.18831 0.32211 0.12726 0.0
C682 C 0.18655 0.30968 0.1124 0.0
C683 C 0.20064 0.31153 0.10105 0.0
C684 C 0.21678 0.32588 0.10431 0.0
C685 C 0.21841 0.33848 0.11888 0.0
C686 C 0.20432 0.33666 0.13013 0.0
C687 C 0.17342 0.31999 0.13966 0.0
C688 C 0.15896 0.31799 0.12853 0.0
C689 C 0.17381 0.32108 0.16225 0.0
C690 C 0.18863 0.32359 0.17536 0.0
C691 C 0.19539 0.31253 0.17363 0.0
C692 C 0.20845 0.31434 0.1874 0.0
C693 C 0.21468 0.32699 0.20331 0.0
C694 C 0.20821 0.33827 0.20464 0.0
C695 C 0.19539 0.33664 0.19074 0.0
H696 H 0.7118 0.87626 0.19091 0.0
H697 H 0.7097 0.89615 0.21556 0.0
H698 H 0.66339 0.88738 0.18419 0.0
H699 H 0.6653 0.86716 0.15982 0.0
H700 H 0.69018 0.84338 0.18809 0.0
H701 H 0.7092 0.89121 0.1386 0.0
H702 H 0.70615 0.91289 0.11827 0.0
H703 H 0.66063 0.87314 0.08833 0.0
H704 H 0.66366 0.85167 0.10865 0.0
H705 H 0.6661 0.81115 0.10487 0.0
H706 H 0.66465 0.7873 0.08455 0.0
H707 H 0.70762 0.7915 0.12015 0.0
H708 H 0.70946 0.81575 0.13996 0.0
H709 H 0.68717 0.84273 0.109 0.0
H710 H 0.6638 0.79629 0.15805 0.0
H711 H 0.6605 0.77284 0.18098 0.0
H712 H 0.70748 0.80707 0.21347 0.0
H713 H 0.71096 0.83029 0.19005 0.0
C714 C 0.6888 0.87029 0.17337 0.0
C715 C 0.70126 0.87871 0.1892 0.0
C716 C 0.70004 0.89004 0.20331 0.0
C717 C 0.68636 0.89325 0.20183 0.0
C718 C 0.67417 0.88526 0.18555 0.0
C719 C 0.67529 0.87376 0.17157 0.0
C720 C 0.68925 0.85684 0.16012 0.0
C721 C 0.68989 0.84344 0.17075 0.0
C722 C 0.68803 0.85647 0.13755 0.0
C723 C 0.68661 0.86981 0.12521 0.0
C724 C 0.69853 0.8872 0.12772 0.0
C725 C 0.69679 0.89956 0.11611 0.0
C726 C 0.68322 0.89471 0.10161 0.0
C727 C 0.6714 0.87728 0.09908 0.0
C728 C 0.67309 0.86499 0.11073 0.0
C729 C 0.68774 0.81515 0.12421 0.0
C730 C 0.67537 0.80711 0.10815 0.0
C731 C 0.67453 0.79347 0.09654 0.0
C732 C 0.68596 0.78751 0.10087 0.0
C733 C 0.69851 0.79571 0.11668 0.0
C734 C 0.69952 0.80952 0.12806 0.0
C735 C 0.6882 0.8293 0.137 0.0
C736 C 0.68772 0.8428 0.12632 0.0
C737 C 0.68903 0.82955 0.15959 0.0
C738 C 0.6877 0.815 0.17224 0.0
C739 C 0.67356 0.79864 0.16982 0.0
C740 C 0.6716 0.7853 0.18308 0.0
C741 C 0.68371 0.7881 0.19909 0.0
C742 C 0.69805 0.80442 0.20112 0.0
C743 C 0.69999 0.81774 0.18786 0.0
H744 H 0.12127 0.83363 0.18461 0.0
H745 H 0.10061 0.81127 0.20787 0.0
H746 H 0.12177 0.77899 0.19131 0.0
H747 H 0.14181 0.80111 0.16753 0.0
H748 H 0.15735 0.84904 0.18846 0.0
H749 H 0.1132 0.81695 0.13632 0.0
H750 H 0.09284 0.79097 0.11742 0.0
H751 H 0.13425 0.78409 0.09541 0.0
H752 H 0.15441 0.80967 0.11482 0.0
H753 H 0.19825 0.85367 0.11819 0.0
H754 H 0.223 0.87499 0.09842 0.0
H755 H 0.20769 0.9126 0.11073 0.0
H756 H 0.18312 0.89131 0.13091 0.0
H757 H 0.16303 0.84194 0.11092 0.0
H758 H 0.20469 0.86583 0.16558 0.0
H759 H 0.22676 0.88622 0.18928 0.0
H760 H 0.19369 0.90596 0.20761 0.0
H761 H 0.17137 0.88493 0.18427 0.0
C762 C 0.13296 0.81897 0.17421 0.0
C763 C 0.12128 0.82164 0.18586 0.0
C764 C 0.10955 0.80886 0.19927 0.0
C765 C 0.10947 0.79325 0.2016 0.0
C766 C 0.12115 0.79063 0.18968 0.0
C767 C 0.13271 0.80333 0.17612 0.0
C768 C 0.1461 0.83283 0.16102 0.0
C769 C 0.15831 0.84772 0.17137 0.0
C770 C 0.14777 0.83071 0.13894 0.0
C771 C 0.13533 0.81519 0.12716 0.0
C772 C 0.11786 0.80976 0.12756 0.0
C773 C 0.10625 0.795 0.11659 0.0
C774 C 0.11191 0.7854 0.105 0.0
C775 C 0.12943 0.79101 0.10446 0.0
C776 C 0.141 0.80574 0.11539 0.0
C777 C 0.1889 0.87094 0.12603 0.0
C778 C 0.20021 0.86649 0.11657 0.0
C779 C 0.21433 0.87867 0.10537 0.0
C780 C 0.21718 0.89539 0.10303 0.0
C781 C 0.20569 0.89975 0.11218 0.0
C782 C 0.19174 0.88766 0.12376 0.0
C783 C 0.1742 0.8581 0.13837 0.0
C784 C 0.16176 0.84345 0.12787 0.0
C785 C 0.17254 0.86018 0.16043 0.0
C786 C 0.18645 0.87397 0.17302 0.0
C787 C 0.20231 0.87477 0.1744 0.0
C788 C 0.21497 0.88652 0.18797 0.0
C789 C 0.2121 0.89784 0.20044 0.0
C790 C 0.1963 0.89731 0.19853 0.0
C791 C 0.18356 0.88539 0.18508 0.0
H792 H 0.29144 0.17071 0.83395 0.0
H793 H 0.29426 0.19245 0.80823 0.0
H794 H 0.34095 0.22916 0.83899 0.0
H795 H 0.33848 0.20728 0.86422 0.0
H796 H 0.31147 0.15808 0.83694 0.0
H797 H 0.2953 0.18854 0.88679 0.0
H798 H 0.29842 0.21315 0.90722 0.0
H799 H 0.34472 0.21911 0.93562 0.0
H800 H 0.34167 0.19476 0.91515 0.0
H801 H 0.3434 0.15418 0.91439 0.0
H802 H 0.34828 0.13365 0.9343 0.0
H803 H 0.30162 0.09241 0.90861 0.0
H804 H 0.2965 0.11314 0.88925 0.0
H805 H 0.31969 0.16298 0.91548 0.0
H806 H 0.34176 0.14161 0.86069 0.0
H807 H 0.34422 0.12132 0.8373 0.0
H808 H 0.29151 0.10048 0.81856 0.0
H809 H 0.28951 0.12144 0.8413 0.0
C810 C 0.31465 0.18733 0.8512 0.0
C811 C 0.30219 0.18348 0.83536 0.0
C812 C 0.30379 0.1959 0.82067 0.0
C813 C 0.31782 0.21246 0.82165 0.0
C814 C 0.32991 0.21654 0.83806 0.0
C815 C 0.32844 0.20404 0.85254 0.0
C816 C 0.31418 0.17344 0.86465 0.0
C817 C 0.31282 0.15901 0.8542 0.0
C818 C 0.31663 0.17489 0.88711 0.0
C819 C 0.31827 0.18979 0.89936 0.0
C820 C 0.30618 0.19523 0.89731 0.0
C821 C 0.30797 0.20928 0.90899 0.0
C822 C 0.32176 0.218 0.92315 0.0
C823 C 0.33379 0.21249 0.92516 0.0
C824 C 0.33207 0.19857 0.91341 0.0
C825 C 0.31966 0.13522 0.90015 0.0
C826 C 0.33414 0.14073 0.91316 0.0
C827 C 0.337 0.12895 0.92438 0.0
C828 C 0.32543 0.11135 0.92288 0.0
C829 C 0.31074 0.10586 0.91019 0.0
C830 C 0.30788 0.11769 0.89895 0.0
C831 C 0.31715 0.14789 0.88767 0.0
C832 C 0.31793 0.16199 0.89828 0.0
C833 C 0.31458 0.14643 0.86531 0.0
C834 C 0.31545 0.13298 0.85274 0.0
C835 C 0.33071 0.13252 0.85169 0.0
C836 C 0.33204 0.12081 0.83837 0.0
C837 C 0.31807 0.1092 0.82591 0.0
C838 C 0.30264 0.1094 0.82755 0.0
C839 C 0.3014 0.12129 0.84067 0.0
H840 H 0.83217 0.12819 0.83752 0.0
H841 H 0.81066 0.10833 0.8125 0.0
H842 H 0.77322 0.11838 0.84129 0.0
H843 H 0.79486 0.13854 0.86605 0.0
H844 H 0.84371 0.16082 0.83929 0.0
H845 H 0.81463 0.11463 0.88815 0.0
H846 H 0.79075 0.09281 0.90813 0.0
H847 H 0.78541 0.13219 0.94074 0.0
H848 H 0.80836 0.15379 0.91948 0.0
H849 H 0.85035 0.19992 0.9122 0.0
H850 H 0.87211 0.2246 0.93205 0.0
H851 H 0.90935 0.20971 0.91618 0.0
H852 H 0.88762 0.18523 0.89589 0.0
H853 H 0.83967 0.16415 0.91787 0.0
H854 H 0.86459 0.20906 0.86627 0.0
H855 H 0.88558 0.23121 0.84319 0.0
H856 H 0.8978 0.19445 0.81626 0.0
H857 H 0.87729 0.17255 0.84003 0.0
C858 C 0.81515 0.13483 0.85376 0.0
C859 C 0.8193 0.12602 0.83859 0.0
C860 C 0.80702 0.11471 0.82428 0.0
C861 C 0.7903 0.11188 0.82491 0.0
C862 C 0.78598 0.1202 0.84059 0.0
C863 C 0.79833 0.13168 0.85478 0.0
C864 C 0.82877 0.14836 0.86709 0.0
C865 C 0.84296 0.16129 0.85655 0.0
C866 C 0.82753 0.14932 0.88956 0.0
C867 C 0.81317 0.1359 0.90198 0.0
C868 C 0.80811 0.11856 0.89932 0.0
C869 C 0.79459 0.10607 0.91106 0.0
C870 C 0.78603 0.11065 0.92611 0.0
C871 C 0.79139 0.12807 0.92903 0.0
C872 C 0.8047 0.14051 0.91703 0.0
C873 C 0.86744 0.19085 0.90254 0.0
C874 C 0.86319 0.20195 0.91308 0.0
C875 C 0.87559 0.21602 0.92432 0.0
C876 C 0.89233 0.21896 0.92561 0.0
C877 C 0.89648 0.2076 0.9155 0.0
C878 C 0.88414 0.19372 0.90387 0.0
C879 C 0.85438 0.17638 0.88996 0.0
C880 C 0.8404 0.16338 0.90065 0.0
C881 C 0.8557 0.17534 0.86762 0.0
C882 C 0.86951 0.18917 0.85508 0.0
C883 C 0.87211 0.20588 0.85581 0.0
C884 C 0.88395 0.21848 0.84237 0.0
C885 C 0.89333 0.2146 0.82779 0.0
C886 C 0.89097 0.19795 0.82747 0.0
C887 C 0.87916 0.18537 0.84096 0.0
H888 H 0.81322 0.65917 0.83384 0.0
H889 H 0.79012 0.65625 0.81096 0.0
H890 H 0.79033 0.69867 0.84352 0.0
H891 H 0.81438 0.70232 0.8653 0.0
H892 H 0.84373 0.68271 0.83557 0.0
H893 H 0.80136 0.65607 0.88948 0.0
H894 H 0.77664 0.65124 0.91042 0.0
H895 H 0.80378 0.70339 0.93266 0.0
H896 H 0.82871 0.7081 0.91182 0.0
H897 H 0.8831 0.71097 0.9127 0.0
H898 H 0.9055 0.70934 0.9333 0.0
H899 H 0.88861 0.6589 0.90788 0.0
H900 H 0.86628 0.66055 0.88761 0.0
H901 H 0.84672 0.68783 0.91454 0.0
H902 H 0.89245 0.70828 0.86038 0.0
H903 H 0.9134 0.70624 0.83753 0.0
H904 H 0.87444 0.65671 0.81558 0.0
H905 H 0.85377 0.65878 0.83834 0.0
C906 C 0.81559 0.68095 0.85138 0.0
C907 C 0.80832 0.66788 0.83606 0.0
C908 C 0.7949 0.66608 0.82313 0.0
C909 C 0.78824 0.67719 0.82534 0.0
C910 C 0.79525 0.69001 0.84111 0.0
C911 C 0.80887 0.69196 0.85385 0.0
C912 C 0.83071 0.68345 0.86389 0.0
C913 C 0.84431 0.68377 0.85285 0.0
C914 C 0.83166 0.68507 0.88641 0.0
C915 C 0.81681 0.68244 0.89908 0.0
C916 C 0.80199 0.66646 0.89886 0.0
C917 C 0.78793 0.66371 0.91086 0.0
C918 C 0.78835 0.67695 0.92315 0.0
C919 C 0.80314 0.69302 0.92322 0.0
C920 C 0.81736 0.69569 0.91146 0.0
C921 C 0.87315 0.68595 0.8985 0.0
C922 C 0.88427 0.69959 0.91161 0.0
C923 C 0.89708 0.69868 0.92326 0.0
C924 C 0.89878 0.68398 0.92223 0.0
C925 C 0.88752 0.67032 0.90918 0.0
C926 C 0.87485 0.6713 0.89745 0.0
C927 C 0.8595 0.6867 0.88616 0.0
C928 C 0.84624 0.68714 0.89723 0.0
C929 C 0.8585 0.68503 0.86368 0.0
C930 C 0.87157 0.68367 0.85102 0.0
C931 C 0.88853 0.69693 0.85079 0.0
C932 C 0.90043 0.69579 0.83768 0.0
C933 C 0.89557 0.68129 0.82485 0.0
C934 C 0.87865 0.66794 0.8255 0.0
C935 C 0.86678 0.66916 0.83838 0.0
H936 H 0.82211 0.68139 0.52582 0.0
H937 H 0.80261 0.68329 0.55083 0.0
H938 H 0.76193 0.6352 0.52749 0.0
H939 H 0.78162 0.63352 0.50208 0.0
H940 H 0.83188 0.65802 0.52451 0.0
H941 H 0.80842 0.68147 0.47635 0.0
H942 H 0.78557 0.68418 0.45934 0.0
H943 H 0.76474 0.63313 0.43376 0.0
H944 H 0.78812 0.63075 0.45051 0.0
H945 H 0.84042 0.63214 0.44408 0.0
H946 H 0.86372 0.63453 0.42178 0.0
H947 H 0.89645 0.68509 0.44694 0.0
H948 H 0.87313 0.6827 0.46888 0.0
H949 H 0.82485 0.6531 0.44575 0.0
H950 H 0.85872 0.63752 0.49215 0.0
H951 H 0.88337 0.64089 0.51257 0.0
H952 H 0.88663 0.68511 0.54411 0.0
H953 H 0.86283 0.68228 0.5228 0.0
C954 C 0.80337 0.65727 0.51216 0.0
C955 C 0.80899 0.67126 0.52603 0.0
C956 C 0.79782 0.67228 0.54041 0.0
C957 C 0.78075 0.65926 0.54142 0.0
C958 C 0.77498 0.64547 0.52707 0.0
C959 C 0.78621 0.64448 0.51257 0.0
C960 C 0.81579 0.65596 0.49797 0.0
C961 C 0.83041 0.65702 0.50727 0.0
C962 C 0.81374 0.65447 0.47554 0.0
C963 C 0.79983 0.65585 0.46484 0.0
C964 C 0.79889 0.67083 0.46714 0.0
C965 C 0.78572 0.6723 0.45752 0.0
C966 C 0.77314 0.65877 0.4454 0.0
C967 C 0.77425 0.64381 0.44289 0.0
C968 C 0.78756 0.6424 0.45246 0.0
C969 C 0.8551 0.65717 0.45827 0.0
C970 C 0.8526 0.64376 0.44466 0.0
C971 C 0.86594 0.6451 0.43205 0.0
C972 C 0.88195 0.65999 0.43262 0.0
C973 C 0.88426 0.67353 0.44597 0.0
C974 C 0.87098 0.67213 0.45864 0.0
C975 C 0.84123 0.65555 0.47234 0.0
C976 C 0.82625 0.6538 0.46301 0.0
C977 C 0.84332 0.65721 0.4948 0.0
C978 C 0.85893 0.65967 0.5059 0.0
C979 C 0.86503 0.64816 0.50311 0.0
C980 C 0.879 0.65 0.51499 0.0
C981 C 0.88701 0.66325 0.53008 0.0
C982 C 0.88105 0.67493 0.53242 0.0
C983 C 0.86726 0.6732 0.52041 0.0
H984 H 0.37542 0.21072 0.52214 0.0
H985 H 0.37236 0.23035 0.5462 0.0
H986 H 0.32704 0.22154 0.51214 0.0
H987 H 0.32991 0.20155 0.48831 0.0
H988 H 0.35367 0.17794 0.51958 0.0
H989 H 0.37478 0.22507 0.46944 0.0
H990 H 0.3728 0.24695 0.44822 0.0
H991 H 0.32819 0.20763 0.41621 0.0
H992 H 0.33014 0.18593 0.43745 0.0
H993 H 0.33174 0.14479 0.43669 0.0
H994 H 0.33076 0.12086 0.4171 0.0
H995 H 0.37257 0.12489 0.4552 0.0
H996 H 0.37397 0.14925 0.4743 0.0
H997 H 0.35299 0.17627 0.44048 0.0
H998 H 0.32883 0.13004 0.49042 0.0
H999 H 0.32487 0.10754 0.51563 0.0
H1000 H 0.37029 0.14332 0.54964 0.0
H1001 H 0.37438 0.16567 0.52426 0.0
C1002 C 0.35295 0.20469 0.50334 0.0
C1003 C 0.36492 0.21314 0.51967 0.0
C1004 C 0.36314 0.22431 0.53344 0.0
C1005 C 0.3494 0.22736 0.53109 0.0
C1006 C 0.33782 0.2195 0.51418 0.0
C1007 C 0.33949 0.20814 0.50052 0.0
C1008 C 0.35369 0.19106 0.49085 0.0
C1009 C 0.35391 0.17776 0.50225 0.0
C1010 C 0.3532 0.19045 0.46826 0.0
C1011 C 0.35252 0.20385 0.45515 0.0
C1012 C 0.36454 0.22119 0.4579 0.0
C1013 C 0.36341 0.23367 0.44578 0.0
C1014 C 0.35038 0.229 0.43049 0.0
C1015 C 0.33854 0.21162 0.42759 0.0
C1016 C 0.33961 0.1992 0.43978 0.0
C1017 C 0.35279 0.14875 0.4572 0.0
C1018 C 0.34085 0.14069 0.4407 0.0
C1019 C 0.34028 0.12701 0.42951 0.0
C1020 C 0.35155 0.121 0.4347 0.0
C1021 C 0.36361 0.12915 0.45105 0.0
C1022 C 0.36436 0.14302 0.46202 0.0
C1023 C 0.35308 0.16313 0.46926 0.0
C1024 C 0.35303 0.17655 0.4578 0.0
C1025 C 0.35337 0.16371 0.49187 0.0
C1026 C 0.35195 0.14953 0.50539 0.0
C1027 C 0.33816 0.13293 0.50299 0.0
C1028 C 0.33588 0.1201 0.51742 0.0
C1029 C 0.3472 0.12376 0.53466 0.0
C1030 C 0.36126 0.14023 0.53665 0.0
C1031 C 0.36363 0.15297 0.52213 0.0
H1032 H 0.78924 0.16706 0.52128 0.0
H1033 H 0.7698 0.14437 0.54535 0.0
H1034 H 0.78877 0.11174 0.52248 0.0
H1035 H 0.80818 0.13444 0.49858 0.0
H1036 H 0.82447 0.18202 0.52302 0.0
H1037 H 0.77964 0.15092 0.47173 0.0
H1038 H 0.75922 0.12602 0.45113 0.0
H1039 H 0.80057 0.12074 0.42529 0.0
H1040 H 0.82085 0.14552 0.44588 0.0
H1041 H 0.86384 0.18948 0.44948 0.0
H1042 H 0.8876 0.2113 0.42934 0.0
H1043 H 0.87214 0.24815 0.44656 0.0
H1044 H 0.84896 0.22634 0.46769 0.0
H1045 H 0.82904 0.17752 0.44472 0.0
H1046 H 0.87326 0.20502 0.49543 0.0
H1047 H 0.89487 0.22529 0.51993 0.0
H1048 H 0.85719 0.23442 0.54973 0.0
H1049 H 0.83564 0.21453 0.52468 0.0
C1050 C 0.80008 0.15241 0.50806 0.0
C1051 C 0.78903 0.15494 0.52128 0.0
C1052 C 0.77789 0.14195 0.53492 0.0
C1053 C 0.77782 0.12632 0.53583 0.0
C1054 C 0.78864 0.1237 0.52223 0.0
C1055 C 0.79964 0.13661 0.50846 0.0
C1056 C 0.813 0.16665 0.49508 0.0
C1057 C 0.82525 0.1813 0.5058 0.0
C1058 C 0.81435 0.16523 0.47277 0.0
C1059 C 0.8018 0.15007 0.46045 0.0
C1060 C 0.78429 0.1443 0.46176 0.0
C1061 C 0.77262 0.13008 0.44998 0.0
C1062 C 0.77827 0.12144 0.43649 0.0
C1063 C 0.79581 0.12727 0.43523 0.0
C1064 C 0.80743 0.14142 0.44705 0.0
C1065 C 0.85471 0.20632 0.46015 0.0
C1066 C 0.8656 0.20228 0.44888 0.0
C1067 C 0.87913 0.21479 0.4372 0.0
C1068 C 0.88187 0.23159 0.43612 0.0
C1069 C 0.87071 0.23549 0.44726 0.0
C1070 C 0.85735 0.22301 0.45926 0.0
C1071 C 0.8405 0.19296 0.47267 0.0
C1072 C 0.82806 0.17847 0.46187 0.0
C1073 C 0.83918 0.19437 0.49501 0.0
C1074 C 0.85279 0.20835 0.50794 0.0
C1075 C 0.86972 0.21183 0.50665 0.0
C1076 C 0.88208 0.22337 0.52076 0.0
C1077 C 0.87769 0.23141 0.53674 0.0
C1078 C 0.86089 0.22834 0.53762 0.0
C1079 C 0.84859 0.21698 0.52331 0.0
H1080 H 0.96034 0.50863 0.17066 0.0
H1081 H 0.96275 0.53112 0.14658 0.0
H1082 H 0.01486 0.56311 0.16729 0.0
H1083 H 0.01192 0.54089 0.19205 0.0
H1084 H 0.98356 0.49455 0.16835 0.0
H1085 H 0.96545 0.52394 0.21758 0.0
H1086 H 0.96829 0.54848 0.23782 0.0
H1087 H 0.01396 0.55412 0.26782 0.0
H1088 H 0.01117 0.52979 0.24751 0.0
H1089 H 0.0105 0.48952 0.25133 0.0
H1090 H 0.01469 0.46914 0.27213 0.0
H1091 H 0.97473 0.42777 0.23593 0.0
H1092 H 0.96939 0.44823 0.21676 0.0
H1093 H 0.98848 0.49773 0.24731 0.0
H1094 H 0.01374 0.47807 0.1953 0.0
H1095 H 0.01809 0.45861 0.17228 0.0
H1096 H 0.96753 0.43914 0.14618 0.0
H1097 H 0.96326 0.45868 0.16923 0.0
C1098 C 0.98591 0.52317 0.18318 0.0
C1099 C 0.97216 0.52063 0.17019 0.0
C1100 C 0.97365 0.53347 0.1563 0.0
C1101 C 0.98907 0.54897 0.15475 0.0
C1102 C 1.00269 0.55153 0.1682 0.0
C1103 C 1.00109 0.53879 0.18233 0.0
C1104 C 0.98495 0.50904 0.19631 0.0
C1105 C 0.98426 0.49502 0.18567 0.0
C1106 C 0.98663 0.51013 0.2188 0.0
C1107 C 0.98814 0.52502 0.23092 0.0
C1108 C 0.97616 0.53056 0.22836 0.0
C1109 C 0.97778 0.54457 0.23996 0.0
C1110 C 0.99129 0.55319 0.25452 0.0
C1111 C 0.00323 0.54759 0.25702 0.0
C1112 C 1.00167 0.53369 0.24537 0.0
C1113 C 0.98979 0.47055 0.23213 0.0
C1114 C 1.00241 0.47605 0.24807 0.0
C1115 C 0.005 0.4643 0.25977 0.0
C1116 C 0.9953 0.44668 0.25556 0.0
C1117 C 0.98242 0.44116 0.23985 0.0
C1118 C 0.97955 0.45293 0.22851 0.0
C1119 C 0.98755 0.48332 0.21936 0.0
C1120 C 0.98754 0.49706 0.23002 0.0
C1121 C 0.98604 0.48243 0.19678 0.0
C1122 C 0.98814 0.46973 0.18406 0.0
C1123 C 0.00352 0.46945 0.18482 0.0
C1124 C 0.00602 0.45841 0.17159 0.0
C1125 C 0.99315 0.44738 0.15744 0.0
C1126 C 0.9776 0.44739 0.15708 0.0
C1127 C 0.97518 0.45858 0.17013 0.0
H1128 H 0.49977 0.46199 0.16907 0.0
H1129 H 0.47813 0.44185 0.14436 0.0
H1130 H 0.44075 0.45192 0.17327 0.0
H1131 H 0.4625 0.47238 0.19759 0.0
H1132 H 0.51103 0.49483 0.17029 0.0
H1133 H 0.48636 0.45008 0.2258 0.0
H1134 H 0.46237 0.4284 0.24647 0.0
H1135 H 0.44823 0.46607 0.26379 0.0
H1136 H 0.47238 0.48775 0.24354 0.0
H1137 H 0.51868 0.53003 0.25125 0.0
H1138 H 0.5409 0.55326 0.27233 0.0
H1139 H 0.57904 0.54608 0.24031 0.0
H1140 H 0.55679 0.52247 0.21976 0.0
H1141 H 0.50769 0.49811 0.24899 0.0
H1142 H 0.53208 0.54311 0.19752 0.0
H1143 H 0.55288 0.56544 0.17432 0.0
H1144 H 0.56503 0.52892 0.14652 0.0
H1145 H 0.54455 0.50679 0.17011 0.0
C1146 C 0.48278 0.46862 0.18537 0.0
C1147 C 0.48688 0.45973 0.17026 0.0
C1148 C 0.47453 0.44827 0.15612 0.0
C1149 C 0.45779 0.44537 0.15687 0.0
C1150 C 0.45351 0.45376 0.1725 0.0
C1151 C 0.46593 0.46539 0.1865 0.0
C1152 C 0.49647 0.48243 0.19832 0.0
C1153 C 0.51049 0.49536 0.18757 0.0
C1154 C 0.49543 0.48359 0.22072 0.0
C1155 C 0.48105 0.47045 0.23311 0.0
C1156 C 0.47811 0.45364 0.23413 0.0
C1157 C 0.46452 0.44134 0.24599 0.0
C1158 C 0.45353 0.44564 0.25667 0.0
C1159 C 0.45651 0.46247 0.25563 0.0
C1160 C 0.47028 0.47482 0.24414 0.0
C1161 C 0.53603 0.52461 0.23366 0.0
C1162 C 0.53181 0.53334 0.24887 0.0
C1163 C 0.54449 0.54659 0.26092 0.0
C1164 C 0.56167 0.55147 0.25788 0.0
C1165 C 0.5659 0.54269 0.24278 0.0
C1166 C 0.5532 0.52926 0.23096 0.0
C1167 C 0.52245 0.51046 0.22098 0.0
C1168 C 0.50841 0.49751 0.23175 0.0
C1169 C 0.52335 0.50945 0.19849 0.0
C1170 C 0.53685 0.52331 0.18565 0.0
C1171 C 0.53945 0.54 0.1867 0.0
C1172 C 0.55122 0.55271 0.17329 0.0
C1173 C 0.56058 0.54894 0.15854 0.0
C1174 C 0.55819 0.5323 0.15788 0.0
C1175 C 0.5464 0.5196 0.17124 0.0
H1176 H 0.54393 0.03789 0.16515 0.0
H1177 H 0.5632 0.03437 0.1414 0.0
H1178 H 0.55623 0.9907 0.1782 0.0
H1179 H 0.53605 0.99362 0.20096 0.0
H1180 H 0.51166 0.01691 0.16925 0.0
H1181 H 0.55971 0.03815 0.21711 0.0
H1182 H 0.58214 0.03613 0.23652 0.0
H1183 H 0.54408 0.9944 0.27369 0.0
H1184 H 0.52183 0.99559 0.25305 0.0
H1185 H 0.481 0.99337 0.25213 0.0
H1186 H 0.4563 0.98931 0.27188 0.0
H1187 H 0.45464 0.02886 0.2343 0.0
H1188 H 0.48043 0.03398 0.21603 0.0
H1189 H 0.51122 0.01642 0.24838 0.0
H1190 H 0.46508 0.98951 0.19617 0.0
H1191 H 0.44179 0.9863 0.1728 0.0
H1192 H 0.47505 0.03551 0.14477 0.0
H1193 H 0.49813 0.03871 0.16831 0.0
C1194 C 0.53859 0.01611 0.18496 0.0
C1195 C 0.54663 0.02761 0.16817 0.0
C1196 C 0.55782 0.02568 0.1547 0.0
C1197 C 0.56133 0.01223 0.15779 0.0
C1198 C 0.55367 1.00105 0.17509 0.0
C1199 C 0.54228 0.00286 0.18836 0.0
C1200 C 0.52532 0.01718 0.19771 0.0
C1201 C 0.51175 0.01712 0.18658 0.0
C1202 C 0.52518 0.01696 0.22035 0.0
C1203 C 0.53901 0.01681 0.23326 0.0
C1204 C 0.5562 0.02843 0.22927 0.0
C1205 C 0.56905 0.0274 0.24064 0.0
C1206 C 0.56501 0.01498 0.25662 0.0
C1207 C 0.54777 0.00385 0.26116 0.0
C1208 C 0.53496 0.00468 0.24954 0.0
C1209 C 0.4825 0.01377 0.23222 0.0
C1210 C 0.47551 1.00138 0.24833 0.0
C1211 C 0.46114 0.99889 0.25945 0.0
C1212 C 0.45312 0.00849 0.25448 0.0
C1213 C 0.46042 0.02123 0.23872 0.0
C1214 C 0.47507 0.02399 0.22794 0.0
C1215 C 0.49736 0.01565 0.21988 0.0
C1216 C 0.51127 0.01638 0.23106 0.0
C1217 C 0.4977 0.01608 0.19727 0.0
C1218 C 0.48328 0.01442 0.18409 0.0
C1219 C 0.46726 0.99968 0.18517 0.0
C1220 C 0.45402 0.99781 0.17171 0.0
C1221 C 0.45659 0.01067 0.15697 0.0
C1222 C 0.4726 0.02549 0.15614 0.0
C1223 C 0.48583 0.0273 0.16949 0.0
H1224 H 0.48614 0.01603 0.85728 0.0
H1225 H 0.46466 0.01749 0.8792 0.0
H1226 H 0.42639 0.96889 0.85405 0.0
H1227 H 0.44804 0.96757 0.83177 0.0
H1228 H 0.49625 0.99175 0.85777 0.0
H1229 H 0.47325 0.01593 0.81113 0.0
H1230 H 0.4519 0.01933 0.79129 0.0
H1231 H 0.43944 0.97388 0.75486 0.0
H1232 H 0.46034 0.97002 0.77577 0.0
H1233 H 0.50897 0.9704 0.77569 0.0
H1234 H 0.53324 0.97305 0.75543 0.0
H1235 H 0.56608 0.02054 0.78785 0.0
H1236 H 0.54184 0.01782 0.80797 0.0
H1237 H 0.49455 0.9909 0.77857 0.0
H1238 H 0.52496 0.9725 0.82659 0.0
H1239 H 0.54878 0.97501 0.84808 0.0
H1240 H 0.55009 0.0172 0.88259 0.0
H1241 H 0.5272 0.01535 0.86018 0.0
C1242 C 0.46868 0.99171 0.84289 0.0
C1243 C 0.47313 0.00569 0.85644 0.0
C1244 C 0.46083 0.00657 0.86883 0.0
C1245 C 0.44385 0.99335 0.86821 0.0
C1246 C 0.43939 0.97924 0.85481 0.0
C1247 C 0.45171 0.9785 0.84208 0.0
C1248 C 0.482 0.99109 0.82984 0.0
C1249 C 0.49594 0.99162 0.84044 0.0
C1250 C 0.48146 0.9908 0.80726 0.0
C1251 C 0.46819 0.99254 0.79524 0.0
C1252 C 0.46568 0.00647 0.79921 0.0
C1253 C 0.45362 0.00854 0.78759 0.0
C1254 C 0.444 0.99693 0.77137 0.0
C1255 C 0.44648 0.98293 0.76741 0.0
C1256 C 0.45851 0.98079 0.77922 0.0
C1257 C 0.52363 0.99374 0.79364 0.0
C1258 C 0.52139 0.98142 0.77833 0.0
C1259 C 0.53527 0.98298 0.76672 0.0
C1260 C 0.55164 0.99692 0.77016 0.0
C1261 C 0.55372 0.00946 0.78511 0.0
C1262 C 0.53986 0.00793 0.79662 0.0
C1263 C 0.50903 0.99179 0.80652 0.0
C1264 C 0.49477 0.9907 0.79589 0.0
C1265 C 0.5096 0.99224 0.82916 0.0
C1266 C 0.52433 0.9938 0.84165 0.0
C1267 C 0.53063 0.9825 0.83851 0.0
C1268 C 0.54413 0.98383 0.851 0.0
C1269 C 0.55142 0.99632 0.86712 0.0
C1270 C 0.54509 0.00764 0.8701 0.0
C1271 C 0.5318 0.00645 0.85745 0.0
H1272 H 0.04293 0.54443 0.8525 0.0
H1273 H 0.04016 0.56452 0.87602 0.0
H1274 H 0.99074 0.54946 0.8486 0.0
H1275 H 0.99342 0.52904 0.8255 0.0
H1276 H 0.02309 0.51037 0.85205 0.0
H1277 H 0.03729 0.55619 0.80375 0.0
H1278 H 0.03237 0.57739 0.78585 0.0
H1279 H 0.99006 0.53706 0.75129 0.0
H1280 H 0.99403 0.51595 0.77086 0.0
H1281 H 0.9918 0.47085 0.77926 0.0
H1282 H 0.98932 0.44591 0.76028 0.0
H1283 H 0.04134 0.46128 0.77675 0.0
H1284 H 0.04366 0.48603 0.79622 0.0
H1285 H 0.01577 0.50665 0.77333 0.0
H1286 H 0.99763 0.46211 0.82538 0.0
H1287 H 0.99665 0.44078 0.85039 0.0
H1288 H 0.04481 0.47829 0.87738 0.0
H1289 H 0.04586 0.49955 0.85211 0.0
C1290 C 0.01845 0.53532 0.83713 0.0
C1291 C 0.03155 0.54553 0.85147 0.0
C1292 C 0.02999 0.5571 0.86479 0.0
C1293 C 0.01524 0.55862 0.86416 0.0
C1294 C 1.0022 0.5485 0.84961 0.0
C1295 C 0.00378 0.53694 0.83625 0.0
C1296 C 0.01973 0.52228 0.82403 0.0
C1297 C 0.02189 0.5098 0.83477 0.0
C1298 C 0.01769 0.52132 0.80152 0.0
C1299 C 0.01576 0.53439 0.78915 0.0
C1300 C 0.02677 0.5519 0.79259 0.0
C1301 C 0.02411 0.56407 0.782 0.0
C1302 C 0.01067 0.55903 0.76721 0.0
C1303 C 1.00023 0.5415 0.763 0.0
C1304 C 1.00265 0.52934 0.77398 0.0
C1305 C 0.01789 0.48022 0.78917 0.0
C1306 C 1.00269 0.46889 0.77868 0.0
C1307 C 1.00127 0.45466 0.76794 0.0
C1308 C 0.01515 0.45174 0.76708 0.0
C1309 C 0.03051 0.46334 0.7771 0.0
C1310 C 0.03182 0.4774 0.78825 0.0
C1311 C 0.01896 0.49475 0.80147 0.0
C1312 C 0.0173 0.50749 0.79056 0.0
C1313 C 0.02136 0.49596 0.82385 0.0
C1314 C 0.02191 0.4824 0.83672 0.0
C1315 C 0.00825 0.46561 0.83619 0.0
C1316 C 0.00766 0.45344 0.85056 0.0
C1317 C 0.0206 0.45792 0.86591 0.0
C1318 C 0.03457 0.47455 0.86588 0.0
C1319 C 0.03522 0.48667 0.85141 0.0
H1320 H 0.45583 0.49916 0.85256 0.0
H1321 H 0.43487 0.47702 0.87579 0.0
H1322 H 0.45455 0.44361 0.85851 0.0
H1323 H 0.47493 0.46556 0.83481 0.0
H1324 H 0.49195 0.51359 0.85604 0.0
H1325 H 0.44694 0.48216 0.80393 0.0
H1326 H 0.42629 0.45611 0.78535 0.0
H1327 H 0.46725 0.44842 0.76352 0.0
H1328 H 0.4877 0.47412 0.78253 0.0
H1329 H 0.5314 0.5179 0.78383 0.0
H1330 H 0.55583 0.53914 0.76348 0.0
H1331 H 0.54172 0.57726 0.77837 0.0
H1332 H 0.51752 0.55607 0.79915 0.0
H1333 H 0.49642 0.50666 0.77817 0.0
H1334 H 0.53897 0.52959 0.83074 0.0
H1335 H 0.56176 0.54887 0.85476 0.0
H1336 H 0.5298 0.56833 0.87818 0.0
H1337 H 0.50693 0.54898 0.8539 0.0
C1338 C 0.46682 0.48394 0.84183 0.0
C1339 C 0.45546 0.48698 0.85366 0.0
C1340 C 0.44356 0.47432 0.86704 0.0
C1341 C 0.44296 0.45845 0.86913 0.0
C1342 C 0.45433 0.45548 0.85706 0.0
C1343 C 0.46609 0.46806 0.84354 0.0
C1344 C 0.48009 0.49764 0.82858 0.0
C1345 C 0.49265 0.51234 0.83889 0.0
C1346 C 0.48147 0.49551 0.80642 0.0
C1347 C 0.46886 0.48002 0.79476 0.0
C1348 C 0.45143 0.47479 0.79524 0.0
C1349 C 0.43967 0.45999 0.78448 0.0
C1350 C 0.44512 0.45015 0.77306 0.0
C1351 C 0.4626 0.45556 0.77244 0.0
C1352 C 0.47433 0.47034 0.78313 0.0
C1353 C 0.52271 0.53545 0.79303 0.0
C1354 C 0.53356 0.53082 0.78267 0.0
C1355 C 0.54749 0.54293 0.77112 0.0
C1356 C 0.55057 0.55977 0.76933 0.0
C1357 C 0.53952 0.56431 0.77939 0.0
C1358 C 0.52579 0.55228 0.79132 0.0
C1359 C 0.50816 0.52265 0.80562 0.0
C1360 C 0.49541 0.50816 0.7952 0.0
C1361 C 0.50691 0.52464 0.82781 0.0
C1362 C 0.52129 0.53796 0.84037 0.0
C1363 C 0.53698 0.53829 0.84064 0.0
C1364 C 0.54994 0.54919 0.85451 0.0
C1365 C 0.5475 0.56002 0.8684 0.0
C1366 C 0.53205 0.5602 0.86753 0.0
C1367 C 0.51898 0.54913 0.85375 0.0
H1368 H 0.62204 0.84094 0.50632 0.0
H1369 H 0.62641 0.86423 0.48244 0.0
H1370 H 0.6788 0.89288 0.50358 0.0
H1371 H 0.67396 0.86988 0.52816 0.0
H1372 H 0.64208 0.82411 0.5039 0.0
H1373 H 0.62948 0.85731 0.55215 0.0
H1374 H 0.63544 0.8834 0.57077 0.0
H1375 H 0.676 0.88174 0.60588 0.0
H1376 H 0.67109 0.85676 0.58565 0.0
H1377 H 0.67214 0.81749 0.58061 0.0
H1378 H 0.67696 0.79649 0.59933 0.0
H1379 H 0.62965 0.75598 0.57406 0.0
H1380 H 0.62464 0.77723 0.55564 0.0
H1381 H 0.64882 0.82674 0.58265 0.0
H1382 H 0.66768 0.8008 0.53117 0.0
H1383 H 0.66915 0.78052 0.50659 0.0
H1384 H 0.6221 0.77129 0.47697 0.0
H1385 H 0.62033 0.79115 0.50208 0.0
C1386 C 0.64764 0.85376 0.51907 0.0
C1387 C 0.63437 0.85238 0.50599 0.0
C1388 C 0.63697 0.86567 0.4922 0.0
C1389 C 0.65303 0.88047 0.49083 0.0
C1390 C 0.66619 0.88188 0.50435 0.0
C1391 C 0.66349 0.86869 0.51838 0.0
C1392 C 0.64541 0.83904 0.53208 0.0
C1393 C 0.64312 0.82446 0.52119 0.0
C1394 C 0.64738 0.83993 0.55457 0.0
C1395 C 0.65008 0.85518 0.56702 0.0
C1396 C 0.63989 0.86276 0.56354 0.0
C1397 C 0.64313 0.87758 0.57456 0.0
C1398 C 0.65635 0.88494 0.58979 0.0
C1399 C 0.66603 0.87685 0.59388 0.0
C1400 C 0.66305 0.86231 0.5825 0.0
C1401 C 0.64808 0.79896 0.5666 0.0
C1402 C 0.66268 0.80411 0.57926 0.0
C1403 C 0.66551 0.79206 0.58978 0.0
C1404 C 0.6538 0.77455 0.58795 0.0
C1405 C 0.6389 0.76938 0.57579 0.0
C1406 C 0.63607 0.7815 0.56518 0.0
C1407 C 0.646 0.81199 0.55438 0.0
C1408 C 0.64739 0.82622 0.5654 0.0
C1409 C 0.64376 0.81107 0.53191 0.0
C1410 C 0.64375 0.79735 0.51873 0.0
C1411 C 0.65737 0.794 0.5199 0.0
C1412 C 0.65824 0.78246 0.50578 0.0
C1413 C 0.64574 0.77436 0.4899 0.0
C1414 C 0.63193 0.77741 0.48903 0.0
C1415 C 0.63092 0.78874 0.50336 0.0
H1416 H 0.16465 0.79612 0.49944 0.0
H1417 H 0.14257 0.77675 0.47465 0.0
H1418 H 0.10618 0.78729 0.50549 0.0
H1419 H 0.12841 0.80701 0.53 0.0
H1420 H 0.17704 0.82874 0.50229 0.0
H1421 H 0.14744 0.78198 0.55038 0.0
H1422 H 0.12352 0.7603 0.57051 0.0
H1423 H 0.11974 0.8 0.60461 0.0
H1424 H 0.14275 0.82149 0.5833 0.0
H1425 H 0.18605 0.86696 0.57707 0.0
H1426 H 0.2084 0.89044 0.59742 0.0
H1427 H 0.24378 0.87343 0.57944 0.0
H1428 H 0.22147 0.85059 0.55811 0.0
H1429 H 0.17396 0.83085 0.58114 0.0
H1430 H 0.19958 0.87652 0.53073 0.0
H1431 H 0.22072 0.8987 0.50781 0.0
H1432 H 0.23123 0.86141 0.4788 0.0
H1433 H 0.21051 0.83943 0.50233 0.0
C1434 C 0.14822 0.80299 0.51669 0.0
C1435 C 0.1519 0.7942 0.50098 0.0
C1436 C 0.13929 0.78316 0.48681 0.0
C1437 C 0.12269 0.78059 0.4881 0.0
C1438 C 0.11883 0.78893 0.50426 0.0
C1439 C 0.13153 0.80015 0.51831 0.0
C1440 C 0.16218 0.81612 0.53008 0.0
C1441 C 0.17648 0.82894 0.51959 0.0
C1442 C 0.16121 0.81675 0.55263 0.0
C1443 C 0.14677 0.80341 0.56501 0.0
C1444 C 0.14125 0.78601 0.56191 0.0
C1445 C 0.12771 0.7736 0.57373 0.0
C1446 C 0.11959 0.77833 0.58924 0.0
C1447 C 0.12538 0.7958 0.59255 0.0
C1448 C 0.13872 0.80816 0.58051 0.0
C1449 C 0.20216 0.85714 0.56604 0.0
C1450 C 0.19864 0.86834 0.57757 0.0
C1451 C 0.21145 0.88169 0.58935 0.0
C1452 C 0.228 0.88391 0.59024 0.0
C1453 C 0.23134 0.8724 0.57889 0.0
C1454 C 0.21858 0.85923 0.56678 0.0
C1455 C 0.1886 0.84324 0.55325 0.0
C1456 C 0.17447 0.83037 0.56386 0.0
C1457 C 0.18962 0.84255 0.53082 0.0
C1458 C 0.20358 0.85633 0.51842 0.0
C1459 C 0.20675 0.87321 0.51982 0.0
C1460 C 0.21869 0.88584 0.5065 0.0
C1461 C 0.22762 0.88182 0.49139 0.0
C1462 C 0.22474 0.865 0.49043 0.0
C1463 C 0.21281 0.85238 0.50377 0.0
H1464 H 0.14436 0.32013 0.50024 0.0
H1465 H 0.12198 0.31741 0.47582 0.0
H1466 H 0.123 0.36129 0.50499 0.0
H1467 H 0.14581 0.36431 0.52915 0.0
H1468 H 0.17504 0.34373 0.50202 0.0
H1469 H 0.13153 0.31826 0.55376 0.0
H1470 H 0.1066 0.31348 0.57415 0.0
H1471 H 0.13423 0.36502 0.59842 0.0
H1472 H 0.15933 0.36973 0.57798 0.0
H1473 H 0.21307 0.37343 0.57962 0.0
H1474 H 0.23532 0.37253 0.60141 0.0
H1475 H 0.21986 0.32203 0.57725 0.0
H1476 H 0.19762 0.32292 0.55586 0.0
H1477 H 0.17704 0.35019 0.58078 0.0
H1478 H 0.22309 0.37021 0.52559 0.0
H1479 H 0.24333 0.36832 0.50128 0.0
H1480 H 0.20517 0.31687 0.48459 0.0
H1481 H 0.18505 0.31907 0.50821 0.0
C1482 C 0.14685 0.34246 0.51654 0.0
C1483 C 0.13977 0.32917 0.50147 0.0
C1484 C 0.12699 0.32761 0.48751 0.0
C1485 C 0.12088 0.33921 0.48843 0.0
C1486 C 0.12744 0.35212 0.50405 0.0
C1487 C 0.14042 0.35381 0.51789 0.0
C1488 C 0.16168 0.34497 0.52969 0.0
C1489 C 0.1754 0.34508 0.51927 0.0
C1490 C 0.1623 0.3469 0.55216 0.0
C1491 C 0.14723 0.34437 0.56429 0.0
C1492 C 0.13221 0.32856 0.5634 0.0
C1493 C 0.11802 0.32582 0.57513 0.0
C1494 C 0.11852 0.33887 0.58789 0.0
C1495 C 0.1335 0.35479 0.58861 0.0
C1496 C 0.14782 0.35745 0.57706 0.0
C1497 C 0.20384 0.34833 0.56596 0.0
C1498 C 0.21452 0.3622 0.57905 0.0
C1499 C 0.22726 0.36169 0.59139 0.0
C1500 C 0.22931 0.34719 0.59107 0.0
C1501 C 0.21849 0.3333 0.57803 0.0
C1502 C 0.20588 0.33386 0.56563 0.0
C1503 C 0.1902 0.34862 0.55303 0.0
C1504 C 0.17677 0.34919 0.5635 0.0
C1505 C 0.18943 0.34649 0.53063 0.0
C1506 C 0.20255 0.34484 0.51849 0.0
C1507 C 0.21923 0.35848 0.51686 0.0
C1508 C 0.23077 0.35736 0.503 0.0
C1509 C 0.22576 0.34256 0.49066 0.0
C1510 C 0.20931 0.32863 0.49337 0.0
C1511 C 0.19782 0.32981 0.50699 0.0
H1512 H 0.03666 0.40399 0.07028 0.0
H1513 H 0.98282 0.37681 0.05645 0.0
H1514 H 0.03179 0.41826 0.10011 0.0
H1515 H 0.97797 0.39169 0.08565 0.0
H1516 H 0.97253 0.41347 0.14844 0.0
H1517 H 0.97741 0.39608 0.12257 0.0
H1518 H 0.02533 0.44003 0.10566 0.0
H1519 H 0.02067 0.45703 0.13202 0.0
C1520 C 0.02376 0.40104 0.07365 0.0
C1521 C 0.01014 0.38932 0.06093 0.0
C1522 C 0.02096 0.40934 0.09067 0.0
C1523 C 0.0045 0.40638 0.09521 0.0
C1524 C 0.9908 0.3942 0.08288 0.0
C1525 C 0.99358 0.38568 0.06605 0.0
C1526 C 0.98413 0.41931 0.13922 0.0
C1527 C 0.99625 0.43657 0.14229 0.0
C1528 C 0.98692 0.40939 0.12432 0.0
C1529 C 1.0018 0.41658 0.11194 0.0
C1530 C 0.01391 0.43387 0.11517 0.0
C1531 C 0.01122 0.44369 0.13024 0.0
H1532 H 0.64493 0.62333 0.08052 0.0
H1533 H 0.59929 0.61031 0.04462 0.0
H1534 H 0.62785 0.60512 0.10991 0.0
H1535 H 0.58209 0.5917 0.07356 0.0
H1536 H 0.555 0.57178 0.13601 0.0
H1537 H 0.57317 0.59212 0.10921 0.0
H1538 H 0.61024 0.57564 0.11891 0.0
H1539 H 0.59226 0.55564 0.14613 0.0
C1540 C 0.63121 0.6163 0.07887 0.0
C1541 C 0.62335 0.61765 0.06016 0.0
C1542 C 0.62143 0.60592 0.09566 0.0
C1543 C 0.60357 0.59684 0.09409 0.0
C1544 C 0.59578 0.59863 0.07546 0.0
C1545 C 0.60558 0.60913 0.05879 0.0
C1546 C 0.56715 0.57267 0.13263 0.0
C1547 C 0.57215 0.56204 0.14315 0.0
C1548 C 0.57747 0.58418 0.11705 0.0
C1549 C 0.59308 0.58535 0.1116 0.0
C1550 C 0.59831 0.57507 0.1226 0.0
C1551 C 0.58794 0.56351 0.13813 0.0
H1552 H 0.37846 0.01777 0.08118 0.0
H1553 H 0.39331 0.98723 0.04381 0.0
H1554 H 0.39702 0.01875 0.11035 0.0
H1555 H 0.41241 0.9886 0.07253 0.0
H1556 H 0.43511 0.98225 0.13392 0.0
H1557 H 0.41381 0.97927 0.10757 0.0
H1558 H 0.42611 0.03138 0.11949 0.0
H1559 H 0.4471 0.03419 0.14603 0.0
C1560 C 0.38594 0.01148 0.07918 0.0
C1561 C 0.385 0.00292 0.06011 0.0
C1562 C 0.39656 0.012 0.09585 0.0
C1563 C 0.40638 0.00388 0.09379 0.0
C1564 C 0.40494 0.99485 0.07483 0.0
C1565 C 0.39415 0.99419 0.05828 0.0
C1566 C 0.4331 0.99299 0.13105 0.0
C1567 C 0.44287 0.00849 0.14194 0.0
C1568 C 0.42104 0.99137 0.11576 0.0
C1569 C 0.41842 0.00519 0.11104 0.0
C1570 C 0.4278 0.02049 0.12252 0.0
C1571 C 0.43993 0.02215 0.13769 0.0
H1572 H 0.36693 0.9823 0.96233 0.0
H1573 H 0.40988 0.03339 0.96628 0.0
H1574 H 0.37959 0.97677 0.931 0.0
H1575 H 0.4225 0.02776 0.93572 0.0
H1576 H 0.43772 0.0199 0.87198 0.0
H1577 H 0.41977 0.02338 0.89804 0.0
H1578 H 0.40378 0.97278 0.92235 0.0
H1579 H 0.42145 0.96918 0.89569 0.0
C1580 C 0.37897 0.99237 0.95649 0.0
C1581 C 0.38735 0.00829 0.96691 0.0
C1582 C 0.38626 0.98917 0.93861 0.0
C1583 C 0.40203 0.00184 0.93073 0.0
C1584 C 0.41019 0.01779 0.941 0.0
C1585 C 0.40297 0.02097 0.95875 0.0
C1586 C 0.43018 0.00945 0.88272 0.0
C1587 C 0.43112 0.99436 0.88202 0.0
C1588 C 0.41995 0.01145 0.89771 0.0
C1589 C 0.41057 0.99849 0.91259 0.0
C1590 C 0.41076 0.98299 0.91108 0.0
C1591 C 0.4209 0.98093 0.89586 0.0
H1592 H 0.01981 0.37861 0.94698 0.0
H1593 H 0.99327 0.39896 0.98279 0.0
H1594 H 0.02377 0.39817 0.91756 0.0
H1595 H 0.99712 0.41856 0.95339 0.0
H1596 H 0.02596 0.46418 0.90858 0.0
H1597 H 0.02179 0.44397 0.93701 0.0
H1598 H 0.00667 0.40376 0.89031 0.0
H1599 H 0.01102 0.42409 0.86172 0.0
C1600 C 0.01494 0.3874 0.94851 0.0
C1601 C 0.0068 0.38785 0.96728 0.0
C1602 C 0.01702 0.39841 0.93164 0.0
C1603 C 0.01091 0.41001 0.93329 0.0
C1604 C 1.00222 0.40997 0.95186 0.0
C1605 C 0.99998 0.3988 0.96861 0.0
C1606 C 0.02196 0.45108 0.90435 0.0
C1607 C 0.01888 0.44571 0.88293 0.0
C1608 C 0.0194 0.43948 0.92065 0.0
C1609 C 0.01383 0.42229 0.91588 0.0
C1610 C 0.01104 0.41696 0.89443 0.0
C1611 C 0.01343 0.42855 0.87811 0.0
H1612 H 0.60831 0.62799 0.97237 0.0
H1613 H 0.63211 0.59784 0.9578 0.0
H1614 H 0.58806 0.61419 0.9431 0.0
H1615 H 0.61259 0.58471 0.92802 0.0
H1616 H 0.56321 0.54855 0.89543 0.0
H1617 H 0.58421 0.56428 0.92291 0.0
H1618 H 0.58264 0.61005 0.90583 0.0
H1619 H 0.56093 0.59389 0.87871 0.0
C1620 C 0.60942 0.61866 0.96263 0.0
C1621 C 0.62166 0.61385 0.96752 0.0
C1622 C 0.59785 0.61078 0.94579 0.0
C1623 C 0.59846 0.5981 0.93331 0.0
C1624 C 0.61133 0.594 0.93763 0.0
C1625 C 0.62264 0.60163 0.95463 0.0
C1626 C 0.56745 0.56201 0.89744 0.0
C1627 C 0.56056 0.57003 0.88481 0.0
C1628 C 0.57958 0.5711 0.91315 0.0
C1629 C 0.58538 0.58857 0.9165 0.0
C1630 C 0.5784 0.5966 0.90388 0.0
C1631 C 0.56603 0.58739 0.88828 0.0
H1632 H 0.02298 0.64386 0.94032 0.0
H1633 H 0.99134 0.59845 0.9765 0.0
H1634 H 0.02421 0.62641 0.91125 0.0
H1635 H 0.99296 0.58088 0.94796 0.0
H1636 H 0.98693 0.55244 0.88668 0.0
H1637 H 0.98409 0.57084 0.9128 0.0
H1638 H 0.03638 0.60928 0.90238 0.0
H1639 H 0.03904 0.59108 0.87583 0.0
C1640 C 0.01651 0.63011 0.94209 0.0
C1641 C 0.00755 0.62243 0.9608 0.0
C1642 C 0.01717 0.6201 0.92548 0.0
C1643 C 0.00879 0.60219 0.92725 0.0
C1644 C 0.99941 0.59458 0.94586 0.0
C1645 C 0.9986 0.60461 0.96232 0.0
C1646 C 0.99776 0.56492 0.88977 0.0
C1647 C 0.01325 0.57024 0.87925 0.0
C1648 C 0.9962 0.5754 0.90497 0.0
C1649 C 0.0101 0.59148 0.91006 0.0
C1650 C 0.02543 0.59699 0.89902 0.0
C1651 C 0.027 0.58649 0.88387 0.0
H1652 H 0.37185 0.3976 0.97047 0.0
H1653 H 0.40307 0.37475 0.95714 0.0
H1654 H 0.38512 0.41749 0.94079 0.0
H1655 H 0.41615 0.39448 0.92751 0.0
H1656 H 0.42592 0.42352 0.86464 0.0
H1657 H 0.40879 0.40215 0.8912 0.0
H1658 H 0.41548 0.44208 0.93475 0.0
H1659 H 0.43313 0.46352 0.90865 0.0
C1660 C 0.38132 0.39663 0.96102 0.0
C1661 C 0.38644 0.38462 0.96621 0.0
C1662 C 0.38898 0.40808 0.94413 0.0
C1663 C 0.40168 0.40754 0.93187 0.0
C1664 C 0.4063 0.39511 0.93656 0.0
C1665 C 0.39887 0.38387 0.95361 0.0
C1666 C 0.42385 0.4278 0.8799 0.0
C1667 C 0.43111 0.44533 0.88449 0.0
C1668 C 0.41394 0.41552 0.89505 0.0
C1669 C 0.41083 0.42045 0.91504 0.0
C1670 C 0.41749 0.4379 0.91937 0.0
C1671 C 0.42759 0.45019 0.90434 0.0
H1672 H 0.62631 0.9836 0.94383 0.0
H1673 H 0.6134 0.01658 0.97922 0.0
H1674 H 0.60791 0.98271 0.91424 0.0
H1675 H 0.59529 0.01602 0.94964 0.0
H1676 H 0.57882 0.02481 0.88395 0.0
H1677 H 0.59903 0.02596 0.91078 0.0
H1678 H 0.57567 0.97111 0.90913 0.0
H1679 H 0.55487 0.96974 0.8831 0.0
C1680 C 0.61931 0.99043 0.94533 0.0
C1681 C 0.6206 0.99956 0.96402 0.0
C1682 C 0.60895 0.99006 0.9284 0.0
C1683 C 0.60014 0.99924 0.92972 0.0
C1684 C 0.60199 0.00888 0.94817 0.0
C1685 C 0.61222 0.00912 0.96511 0.0
C1686 C 0.57786 0.01295 0.88939 0.0
C1687 C 0.565 0.99716 0.88152 0.0
C1688 C 0.58951 0.01364 0.90467 0.0
C1689 C 0.58877 0.9986 0.91218 0.0
C1690 C 0.57652 0.98289 0.90359 0.0
C1691 C 0.56467 0.98214 0.88855 0.0
H1692 H 0.63715 0.01564 0.06741 0.0
H1693 H 0.58853 0.97318 0.04879 0.0
H1694 H 0.62387 0.02075 0.09828 0.0
H1695 H 0.57527 0.97865 0.07891 0.0
H1696 H 0.557 0.98157 0.1435 0.0
H1697 H 0.57295 0.97651 0.11631 0.0
H1698 H 0.60491 0.03089 0.10795 0.0
H1699 H 0.58971 0.03599 0.13637 0.0
C1700 C 0.62364 0.00745 0.06982 0.0
C1701 C 0.61395 0.99397 0.05562 0.0
C1702 C 0.61601 0.01042 0.08748 0.0
C1703 C 0.59849 1.00006 0.09122 0.0
C1704 C 0.58885 0.98666 0.0769 0.0
C1705 C 0.59647 0.9836 0.05945 0.0
C1706 C 0.56769 0.9925 0.13632 0.0
C1707 C 0.57196 0.00922 0.14217 0.0
C1708 C 0.57669 0.98958 0.12039 0.0
C1709 C 0.59008 0.00328 0.10962 0.0
C1710 C 0.59474 0.02001 0.11593 0.0
C1711 C 0.58584 0.02294 0.13206 0.0
H1712 H 0.9827 0.61015 0.04953 0.0
H1713 H 0.03613 0.62958 0.06248 0.0
H1714 H 0.97555 0.59064 0.07986 0.0
H1715 H 0.02892 0.61025 0.09291 0.0
H1716 H 0.00797 0.58401 0.15783 0.0
H1717 H 0.01361 0.60497 0.12976 0.0
H1718 H 0.98043 0.56469 0.0868 0.0
H1719 H 0.97537 0.54359 0.11429 0.0
C1720 C 0.99291 0.61042 0.05899 0.0
C1721 C 0.00998 0.62137 0.05357 0.0
C1722 C 0.9888 0.59921 0.07626 0.0
C1723 C 1.00169 0.59898 0.08869 0.0
C1724 C 0.01875 0.61028 0.08368 0.0
C1725 C 0.02285 0.62125 0.06619 0.0
C1726 C 1.00195 0.57954 0.14238 0.0
C1727 C 0.99128 0.562 0.1384 0.0
C1728 C 0.00512 0.59159 0.12637 0.0
C1729 C 0.99745 0.58642 0.10616 0.0
C1730 C 0.98634 0.56902 0.10235 0.0
C1731 C 0.98339 0.55694 0.1182 0.0
H1732 H 0.3943 0.40929 0.04313 0.0
H1733 H 0.37885 0.36358 0.08006 0.0
H1734 H 0.4143 0.42627 0.07152 0.0
H1735 H 0.39883 0.38045 0.10852 0.0
H1736 H 0.42485 0.42024 0.16291 0.0
H1737 H 0.40387 0.40311 0.1355 0.0
H1738 H 0.44128 0.42922 0.08654 0.0
H1739 H 0.46215 0.44625 0.11383 0.0
C1740 C 0.39529 0.40293 0.05734 0.0
C1741 C 0.38561 0.38516 0.05922 0.0
C1742 C 0.40671 0.41259 0.07353 0.0
C1743 C 0.40827 0.40466 0.09213 0.0
C1744 C 0.39791 0.38692 0.0944 0.0
C1745 C 0.38665 0.37725 0.07806 0.0
C1746 C 0.42855 0.42225 0.14628 0.0
C1747 C 0.44514 0.43451 0.14049 0.0
C1748 C 0.41659 0.41241 0.13062 0.0
C1749 C 0.42094 0.41483 0.10887 0.0
C1750 C 0.43753 0.42711 0.10314 0.0
C1751 C 0.44952 0.43676 0.11878 0.0
H1752 H 0.65065 0.69984 0.40384 0.0
H1753 H 0.68763 0.75036 0.38258 0.0
H1754 H 0.64231 0.71257 0.43269 0.0
H1755 H 0.67898 0.76285 0.4109 0.0
H1756 H 0.64375 0.77735 0.44694 0.0
H1757 H 0.64981 0.76226 0.41897 0.0
H1758 H 0.65889 0.73309 0.46688 0.0
H1759 H 0.65303 0.74841 0.49505 0.0
C1760 C 0.65694 0.71361 0.40524 0.0
C1761 C 0.66976 0.72407 0.39082 0.0
C1762 C 0.6522 0.72085 0.42177 0.0
C1763 C 0.65995 0.73866 0.42385 0.0
C1764 C 0.67272 0.74908 0.40948 0.0
C1765 C 0.67768 0.74189 0.3933 0.0
C1766 C 0.64679 0.76754 0.4515 0.0
C1767 C 0.64792 0.76402 0.47314 0.0
C1768 C 0.65034 0.759 0.43552 0.0
C1769 C 0.65483 0.74657 0.44083 0.0
C1770 C 0.65537 0.74257 0.46242 0.0
C1771 C 0.65211 0.75136 0.47847 0.0
H1772 H 0.26522 0.94425 0.37806 0.0
H1773 H 0.31128 0.95577 0.41203 0.0
H1774 H 0.24834 0.92534 0.40696 0.0
H1775 H 0.29452 0.93719 0.44137 0.0
H1776 H 0.25862 0.8875 0.4772 0.0
H1777 H 0.27631 0.90744 0.4497 0.0
H1778 H 0.24045 0.92578 0.4432 0.0
H1779 H 0.2225 0.90547 0.47011 0.0
C1780 C 0.27167 0.94266 0.39179 0.0
C1781 C 0.28945 0.95087 0.3926 0.0
C1782 C 0.26206 0.93198 0.40843 0.0
C1783 C 0.27006 0.92968 0.4265 0.0
C1784 C 0.28794 0.93841 0.42754 0.0
C1785 C 0.29754 0.94899 0.41077 0.0
C1786 C 0.25449 0.89575 0.46984 0.0
C1787 C 0.2391 0.89483 0.47581 0.0
C1788 C 0.26471 0.90729 0.45418 0.0
C1789 C 0.25974 0.9181 0.44404 0.0
C1790 C 0.24454 0.91744 0.4504 0.0
C1791 C 0.23435 0.90595 0.46606 0.0
H1792 H 0.05558 0.31548 0.37665 0.0
H1793 H 0.04586 0.3507 0.41206 0.0
H1794 H 0.07437 0.31597 0.4052 0.0
H1795 H 0.0652 0.35191 0.44035 0.0
H1796 H 0.09136 0.33994 0.49525 0.0
H1797 H 0.07038 0.33749 0.46854 0.0
H1798 H 0.10177 0.33473 0.41865 0.0
H1799 H 0.12224 0.33654 0.44539 0.0
C1800 C 0.05765 0.32345 0.39054 0.0
C1801 C 0.05001 0.33367 0.39185 0.0
C1802 C 0.06846 0.32383 0.40684 0.0
C1803 C 0.07166 0.33429 0.42492 0.0
C1804 C 0.06309 0.34372 0.42672 0.0
C1805 C 0.05225 0.34328 0.41039 0.0
C1806 C 0.09369 0.33882 0.47855 0.0
C1807 C 0.10831 0.33826 0.47238 0.0
C1808 C 0.08173 0.33747 0.46323 0.0
C1809 C 0.08426 0.33574 0.4414 0.0
C1810 C 0.09912 0.33556 0.43532 0.0
C1811 C 0.11092 0.33669 0.45062 0.0
H1812 H 0.03188 0.31131 0.29566 0.0
H1813 H 0.07526 0.36224 0.29667 0.0
H1814 H 0.04347 0.30469 0.26402 0.0
H1815 H 0.08673 0.35558 0.26578 0.0
H1816 H 0.09936 0.34621 0.20154 0.0
H1817 H 0.08182 0.34999 0.22796 0.0
H1818 H 0.06809 0.30068 0.25491 0.0
H1819 H 0.08543 0.29678 0.228 0.0
C1820 C 0.04377 0.32111 0.28911 0.0
C1821 C 0.05262 0.3373 0.29879 0.0
C1822 C 0.05044 0.31729 0.27107 0.0
C1823 C 0.06596 0.32965 0.26226 0.0
C1824 C 0.07459 0.34585 0.27182 0.0
C1825 C 0.06804 0.34962 0.28976 0.0
C1826 C 0.09237 0.33607 0.21291 0.0
C1827 C 0.09393 0.32132 0.21294 0.0
C1828 C 0.08236 0.33824 0.22808 0.0
C1829 C 0.07382 0.32578 0.24383 0.0
C1830 C 0.07445 0.31049 0.24297 0.0
C1831 C 0.0844 0.30826 0.22761 0.0
H1832 H 0.65428 0.72607 0.31258 0.0
H1833 H 0.68759 0.71134 0.28183 0.0
H1834 H 0.65719 0.74456 0.28244 0.0
H1835 H 0.69025 0.72946 0.25123 0.0
H1836 H 0.70714 0.77985 0.21461 0.0
H1837 H 0.70309 0.75918 0.24231 0.0
H1838 H 0.64989 0.74441 0.24567 0.0
H1839 H 0.65406 0.76549 0.21851 0.0
C1840 C 0.6622 0.72683 0.29926 0.0
C1841 C 0.67124 0.71791 0.29972 0.0
C1842 C 0.66376 0.73725 0.28191 0.0
C1843 C 0.67403 0.73857 0.26442 0.0
C1844 C 0.68251 0.72901 0.2646 0.0
C1845 C 0.68105 0.71869 0.28208 0.0
C1846 C 0.69459 0.7722 0.22129 0.0
C1847 C 0.68096 0.77441 0.21446 0.0
C1848 C 0.69223 0.76024 0.23706 0.0
C1849 C 0.67622 0.75027 0.24643 0.0
C1850 C 0.66247 0.75209 0.23908 0.0
C1851 C 0.66481 0.76402 0.22329 0.0
H1852 H 0.2745 0.96509 0.3054 0.0
H1853 H 0.29351 0.93079 0.29024 0.0
H1854 H 0.25442 0.95352 0.27534 0.0
H1855 H 0.2737 0.9195 0.26019 0.0
H1856 H 0.24688 0.91468 0.19652 0.0
H1857 H 0.26809 0.93026 0.22415 0.0
H1858 H 0.22837 0.92317 0.26765 0.0
H1859 H 0.20702 0.90694 0.24046 0.0
C1860 C 0.27454 0.95526 0.29551 0.0
C1861 C 0.28554 0.94881 0.30022 0.0
C1862 C 0.26302 0.9486 0.27841 0.0
C1863 C 0.26257 0.93567 0.26545 0.0
C1864 C 0.27389 0.92959 0.26981 0.0
C1865 C 0.28515 0.93598 0.28709 0.0
C1866 C 0.2426 0.91636 0.21196 0.0
C1867 C 0.22515 0.9093 0.21626 0.0
C1868 C 0.25478 0.92539 0.22772 0.0
C1869 C 0.24984 0.92783 0.24803 0.0
C1870 C 0.23252 0.92159 0.25205 0.0
C1871 C 0.2203 0.91234 0.23639 0.0
H1872 H 0.69045 0.97645 0.27738 0.0
H1873 H 0.65987 0.93119 0.3144 0.0
H1874 H 0.6929 0.95898 0.24914 0.0
H1875 H 0.66218 0.91361 0.28625 0.0
H1876 H 0.67903 0.91903 0.19509 0.0
H1877 H 0.67538 0.93661 0.22208 0.0
H1878 H 0.68533 0.90935 0.27188 0.0
H1879 H 0.68897 0.89189 0.24503 0.0
C1880 C 0.68436 0.96274 0.27945 0.0
C1881 C 0.67554 0.95512 0.29827 0.0
C1882 C 0.68557 0.95274 0.26324 0.0
C1883 C 0.6779 0.93494 0.2656 0.0
C1884 C 0.6685 0.92732 0.28416 0.0
C1885 C 0.66714 0.93732 0.30022 0.0
C1886 C 0.68042 0.91684 0.21182 0.0
C1887 C 0.68436 0.90416 0.21797 0.0
C1888 C 0.67844 0.92695 0.22724 0.0
C1889 C 0.68008 0.92437 0.2491 0.0
C1890 C 0.68391 0.91161 0.25519 0.0
C1891 C 0.68613 0.90169 0.23981 0.0
H1892 H 0.03788 0.73149 0.30191 0.0
H1893 H 0.0707 0.7101 0.29081 0.0
H1894 H 0.05136 0.75143 0.27235 0.0
H1895 H 0.08398 0.72988 0.26125 0.0
H1896 H 0.09348 0.75829 0.19759 0.0
H1897 H 0.07663 0.73689 0.22427 0.0
H1898 H 0.08165 0.77664 0.267 0.0
H1899 H 0.09907 0.79814 0.24083 0.0
C1900 C 0.04777 0.73086 0.29298 0.0
C1901 C 0.05324 0.71923 0.29875 0.0
C1902 C 0.05554 0.74234 0.27616 0.0
C1903 C 0.06872 0.74221 0.26454 0.0
C1904 C 0.07376 0.73018 0.26982 0.0
C1905 C 0.06621 0.71891 0.28682 0.0
C1906 C 0.09112 0.76253 0.2127 0.0
C1907 C 0.09783 0.78004 0.21703 0.0
C1908 C 0.08137 0.75023 0.22792 0.0
C1909 C 0.07786 0.75511 0.2477 0.0
C1910 C 0.08399 0.7725 0.25178 0.0
C1911 C 0.09394 0.78483 0.2367 0.0
H1912 H 0.27905 0.35191 0.31569 0.0
H1913 H 0.29343 0.32096 0.27838 0.0
H1914 H 0.25964 0.35026 0.28729 0.0
H1915 H 0.27348 0.3185 0.25024 0.0
H1916 H 0.24534 0.32883 0.19618 0.0
H1917 H 0.26671 0.33224 0.22288 0.0
H1918 H 0.23311 0.33013 0.27308 0.0
H1919 H 0.21228 0.32748 0.24638 0.0
C1920 C 0.27786 0.34461 0.30142 0.0
C1921 C 0.28701 0.33589 0.29948 0.0
C1922 C 0.2667 0.34355 0.2852 0.0
C1923 C 0.26465 0.33389 0.26663 0.0
C1924 C 0.27467 0.32603 0.26426 0.0
C1925 C 0.28588 0.32717 0.28049 0.0
C1926 C 0.24262 0.32907 0.21296 0.0
C1927 C 0.2273 0.32808 0.21928 0.0
C1928 C 0.25479 0.33097 0.22827 0.0
C1929 C 0.25175 0.33167 0.25018 0.0
C1930 C 0.23614 0.33015 0.25638 0.0
C1931 C 0.22413 0.32851 0.24111 0.0
H1932 H 0.30325 0.35594 0.39637 0.0
H1933 H 0.26319 0.30327 0.3937 0.0
H1934 H 0.28873 0.36095 0.42615 0.0
H1935 H 0.24897 0.30835 0.4231 0.0
H1936 H 0.21679 0.32924 0.45065 0.0
H1937 H 0.23433 0.32605 0.42395 0.0
H1938 H 0.27811 0.35148 0.46549 0.0
H1939 H 0.26033 0.35445 0.49277 0.0
C1940 C 0.29154 0.3454 0.40227 0.0
C1941 C 0.28429 0.32926 0.39239 0.0
C1942 C 0.28327 0.34828 0.41933 0.0
C1943 C 0.2676 0.3351 0.42667 0.0
C1944 C 0.26087 0.31883 0.4175 0.0
C1945 C 0.26909 0.31593 0.40064 0.0
C1946 C 0.2301 0.33401 0.4543 0.0
C1947 C 0.23705 0.34176 0.47408 0.0
C1948 C 0.24017 0.33223 0.43893 0.0
C1949 C 0.25752 0.33826 0.44279 0.0
C1950 C 0.26475 0.34669 0.46214 0.0
C1951 C 0.25458 0.34839 0.47771 0.0
H1952 H 0.65004 0.94429 0.38717 0.0
H1953 H 0.70327 0.96212 0.39958 0.0
H1954 H 0.64248 0.92446 0.41711 0.0
H1955 H 0.69563 0.94239 0.42965 0.0
H1956 H 0.6397 0.87624 0.4503 0.0
H1957 H 0.64597 0.89791 0.42321 0.0
H1958 H 0.68076 0.9368 0.46658 0.0
H1959 H 0.67397 0.91527 0.49425 0.0
C1960 C 0.66014 0.94415 0.39643 0.0
C1961 C 0.67727 0.95477 0.39093 0.0
C1962 C 0.65579 0.93274 0.41349 0.0
C1963 C 0.66847 0.93189 0.42564 0.0
C1964 C 0.68561 0.94287 0.42063 0.0
C1965 C 0.68996 0.95409 0.40334 0.0
C1966 C 0.64837 0.88943 0.45438 0.0
C1967 C 0.65629 0.89391 0.47461 0.0
C1968 C 0.65201 0.90184 0.43875 0.0
C1969 C 0.66386 0.91901 0.4428 0.0
C1970 C 0.67169 0.92361 0.463 0.0
C1971 C 0.66784 0.91123 0.47879 0.0
H1972 H 0.05853 0.74346 0.37469 0.0
H1973 H 0.04368 0.69829 0.41249 0.0
H1974 H 0.0782 0.76098 0.40302 0.0
H1975 H 0.06339 0.71568 0.4409 0.0
H1976 H 0.0898 0.75553 0.49467 0.0
H1977 H 0.06853 0.73829 0.46757 0.0
H1978 H 0.10522 0.76477 0.41798 0.0
H1979 H 0.12636 0.78188 0.44495 0.0
C1980 C 0.05957 0.73734 0.38909 0.0
C1981 C 0.0502 0.71957 0.39122 0.0
C1982 C 0.07081 0.7473 0.40526 0.0
C1983 C 0.0725 0.73968 0.42408 0.0
C1984 C 0.06236 0.72193 0.42661 0.0
C1985 C 0.05127 0.71196 0.41031 0.0
C1986 C 0.09325 0.75763 0.47796 0.0
C1987 C 0.10973 0.76997 0.4719 0.0
C1988 C 0.08114 0.74771 0.46248 0.0
C1989 C 0.08522 0.75016 0.44064 0.0
C1990 C 0.10167 0.76262 0.43465 0.0
C1991 C 0.11381 0.77233 0.45009 0.0
H1992 H 0.30998 0.03859 0.72427 0.0
H1993 H 0.36354 0.07175 0.73661 0.0
H1994 H 0.30316 0.0514 0.75436 0.0
H1995 H 0.35667 0.08436 0.76674 0.0
H1996 H 0.33706 0.09304 0.83034 0.0
H1997 H 0.34207 0.07638 0.80356 0.0
H1998 H 0.30793 0.08189 0.75996 0.0
H1999 H 0.30343 0.09915 0.78616 0.0
C2000 C 0.32029 0.04839 0.73361 0.0
C2001 C 0.3373 0.0542 0.728 0.0
C2002 C 0.31637 0.05577 0.75074 0.0
C2003 C 0.32939 0.06889 0.76283 0.0
C2004 C 0.34639 0.07419 0.75779 0.0
C2005 C 0.3503 0.06702 0.74047 0.0
C2006 C 0.33067 0.09081 0.81502 0.0
C2007 C 0.31991 0.09761 0.81046 0.0
C2008 C 0.33348 0.08117 0.79976 0.0
C2009 C 0.32538 0.07785 0.77972 0.0
C2010 C 0.31416 0.08407 0.77539 0.0
C2011 C 0.31155 0.09392 0.7905 0.0
H2012 H 0.93145 0.27612 0.71366 0.0
H2013 H 0.97727 0.28778 0.74831 0.0
H2014 H 0.91437 0.25773 0.74282 0.0
H2015 H 0.96033 0.26982 0.77793 0.0
H2016 H 0.92465 0.2207 0.81437 0.0
H2017 H 0.94236 0.24045 0.78679 0.0
H2018 H 0.90595 0.25795 0.77865 0.0
H2019 H 0.88792 0.23772 0.80558 0.0
C2020 C 0.93781 0.27471 0.72762 0.0
C2021 C 0.95558 0.28275 0.72854 0.0
C2022 C 0.92807 0.26433 0.74441 0.0
C2023 C 0.93596 0.26219 0.76274 0.0
C2024 C 0.95383 0.27087 0.76391 0.0
C2025 C 0.96354 0.28112 0.74699 0.0
C2026 C 0.92039 0.22871 0.80662 0.0
C2027 C 0.90481 0.22755 0.81214 0.0
C2028 C 0.93063 0.24016 0.79092 0.0
C2029 C 0.92554 0.2507 0.78031 0.0
C2030 C 0.91015 0.24983 0.78621 0.0
C2031 C 0.89991 0.23838 0.8019 0.0
H2032 H 0.72454 0.65422 0.71351 0.0
H2033 H 0.71205 0.68757 0.74876 0.0
H2034 H 0.74334 0.65543 0.74263 0.0
H2035 H 0.73107 0.68908 0.77787 0.0
H2036 H 0.78415 0.70316 0.80848 0.0
H2037 H 0.76308 0.70101 0.78243 0.0
H2038 H 0.74091 0.64627 0.78149 0.0
H2039 H 0.7614 0.64818 0.8084 0.0
C2040 C 0.72595 0.6619 0.72748 0.0
C2041 C 0.71748 0.67137 0.72865 0.0
C2042 C 0.73658 0.66251 0.74417 0.0
C2043 C 0.73874 0.67244 0.76244 0.0
C2044 C 0.72983 0.68152 0.76384 0.0
C2045 C 0.71909 0.68079 0.74718 0.0
C2046 C 0.77457 0.6906 0.80317 0.0
C2047 C 0.77462 0.67585 0.81054 0.0
C2048 C 0.76256 0.68942 0.78809 0.0
C2049 C 0.75052 0.67352 0.77973 0.0
C2050 C 0.75025 0.65873 0.78741 0.0
C2051 C 0.76206 0.65986 0.80276 0.0
H2052 H 0.7457 0.69975 0.63923 0.0
H2053 H 0.70122 0.65014 0.63039 0.0
H2054 H 0.76011 0.69347 0.61124 0.0
H2055 H 0.71597 0.64391 0.60198 0.0
H2056 H 0.74719 0.65113 0.53732 0.0
H2057 H 0.72953 0.65467 0.56423 0.0
H2058 H 0.77105 0.67263 0.60951 0.0
H2059 H 0.78847 0.66888 0.58306 0.0
C2060 C 0.73889 0.6875 0.63126 0.0
C2061 C 0.72228 0.67539 0.63731 0.0
C2062 C 0.74725 0.6839 0.61523 0.0
C2063 C 0.73927 0.66811 0.60465 0.0
C2064 C 0.72242 0.65619 0.60992 0.0
C2065 C 0.71401 0.65976 0.6262 0.0
C2066 C 0.75243 0.6556 0.55313 0.0
C2067 C 0.76936 0.66004 0.5579 0.0
C2068 C 0.74233 0.65762 0.5685 0.0
C2069 C 0.74902 0.66419 0.58883 0.0
C2070 C 0.76567 0.66791 0.59382 0.0
C2071 C 0.77567 0.66582 0.57861 0.0
H2072 H 0.31761 0.06097 0.64945 0.0
H2073 H 0.34835 0.04542 0.61392 0.0
H2074 H 0.31961 0.08002 0.62019 0.0
H2075 H 0.35055 0.06448 0.5847 0.0
H2076 H 0.34788 0.12788 0.57771 0.0
H2077 H 0.34273 0.10683 0.60536 0.0
H2078 H 0.33365 0.06918 0.55686 0.0
H2079 H 0.33888 0.09039 0.52908 0.0
C2080 C 0.32479 0.0617 0.63534 0.0
C2081 C 0.33336 0.05234 0.63408 0.0
C2082 C 0.32597 0.07256 0.61865 0.0
C2083 C 0.33539 0.07386 0.60025 0.0
C2084 C 0.34315 0.06371 0.59861 0.0
C2085 C 0.3421 0.053 0.61539 0.0
C2086 C 0.34486 0.11512 0.57297 0.0
C2087 C 0.3439 0.11078 0.55128 0.0
C2088 C 0.34176 0.10303 0.58879 0.0
C2089 C 0.33782 0.08637 0.58329 0.0
C2090 C 0.33678 0.08197 0.56157 0.0
C2091 C 0.33968 0.09405 0.54569 0.0
H2092 H 0.94259 0.25185 0.64466 0.0
H2093 H 0.95731 0.30331 0.62486 0.0
H2094 H 0.92183 0.24062 0.61579 0.0
H2095 H 0.93657 0.29181 0.5954 0.0
H2096 H 0.91074 0.2569 0.53209 0.0
H2097 H 0.93189 0.27145 0.56056 0.0
H2098 H 0.89396 0.24273 0.60791 0.0
H2099 H 0.87286 0.22839 0.57967 0.0
C2100 C 0.94149 0.26081 0.63413 0.0
C2101 C 0.95159 0.27853 0.63724 0.0
C2102 C 0.92952 0.25433 0.61762 0.0
C2103 C 0.92754 0.26536 0.60352 0.0
C2104 C 0.93788 0.28306 0.60613 0.0
C2105 C 0.94969 0.28961 0.62299 0.0
C2106 C 0.90692 0.2539 0.54861 0.0
C2107 C 0.89017 0.24154 0.55369 0.0
C2108 C 0.91897 0.26226 0.56483 0.0
C2109 C 0.91452 0.25813 0.58635 0.0
C2110 C 0.8977 0.24609 0.59142 0.0
C2111 C 0.88562 0.23797 0.57527 0.0
H2112 H 0.32153 0.26391 0.64397 0.0
H2113 H 0.35314 0.30943 0.60792 0.0
H2114 H 0.3229 0.24639 0.61503 0.0
H2115 H 0.35475 0.29203 0.57895 0.0
H2116 H 0.3424 0.25335 0.5242 0.0
H2117 H 0.33794 0.27043 0.5512 0.0
H2118 H 0.34543 0.24151 0.60109 0.0
H2119 H 0.3499 0.22462 0.57426 0.0
C2120 C 0.32879 0.27011 0.6298 0.0
C2121 C 0.33784 0.28794 0.6284 0.0
C2122 C 0.32961 0.26014 0.61328 0.0
C2123 C 0.33916 0.26785 0.59485 0.0
C2124 C 0.34729 0.28571 0.59293 0.0
C2125 C 0.34659 0.29567 0.60958 0.0
C2126 C 0.34305 0.25069 0.54096 0.0
C2127 C 0.34662 0.23777 0.54717 0.0
C2128 C 0.34059 0.26049 0.55639 0.0
C2129 C 0.34136 0.25733 0.57828 0.0
C2130 C 0.34467 0.24422 0.58438 0.0
C2131 C 0.34737 0.23464 0.56902 0.0
H2132 H 0.73636 0.04099 0.6241 0.0
H2133 H 0.70868 0.06734 0.63874 0.0
H2134 H 0.75006 0.06025 0.59444 0.0
H2135 H 0.72306 0.08732 0.60953 0.0
H2136 H 0.74419 0.114 0.54543 0.0
H2137 H 0.72731 0.0925 0.57218 0.0
H2138 H 0.77151 0.08842 0.58978 0.0
H2139 H 0.78799 0.10931 0.56271 0.0
C2140 C 0.73322 0.05096 0.62095 0.0
C2141 C 0.72155 0.05275 0.63385 0.0
C2142 C 0.74118 0.06212 0.60402 0.0
C2143 C 0.73798 0.07562 0.59976 0.0
C2144 C 0.72579 0.07703 0.6122 0.0
C2145 C 0.71757 0.06562 0.62899 0.0
C2146 C 0.7502 0.10841 0.55503 0.0
C2147 C 0.76735 0.11319 0.55185 0.0
C2148 C 0.74057 0.09614 0.57041 0.0
C2149 C 0.74795 0.08855 0.5831 0.0
C2150 C 0.76519 0.09357 0.57998 0.0
C2151 C 0.77471 0.10562 0.56448 0.0
H2152 H 0.96044 0.65143 0.61114 0.0
H2153 H 0.94847 0.68672 0.64252 0.0
H2154 H 0.94266 0.64994 0.58049 0.0
H2155 H 0.931 0.68558 0.61183 0.0
H2156 H 0.91523 0.69206 0.54477 0.0
H2157 H 0.93533 0.69384 0.57221 0.0
H2158 H 0.91053 0.63892 0.57477 0.0
H2159 H 0.88989 0.63697 0.54812 0.0
C2160 C 0.95378 0.65866 0.61153 0.0
C2161 C 0.95514 0.66862 0.62941 0.0
C2162 C 0.94379 0.65795 0.59399 0.0
C2163 C 0.93543 0.6676 0.59387 0.0
C2164 C 0.93737 0.67807 0.61148 0.0
C2165 C 0.94723 0.67864 0.62905 0.0
C2166 C 0.91398 0.68033 0.55121 0.0
C2167 C 0.90074 0.66436 0.54441 0.0
C2168 C 0.92555 0.68138 0.56685 0.0
C2169 C 0.92432 0.6665 0.57576 0.0
C2170 C 0.91175 0.65056 0.56814 0.0
C2171 C 0.89999 0.64948 0.55274 0.0
H2172 H 0.97065 0.69099 0.72849 0.0
H2173 H 0.9248 0.64235 0.72051 0.0
H2174 H 0.95833 0.69671 0.76004 0.0
H2175 H 0.91267 0.64815 0.75155 0.0
H2176 H 0.90047 0.6541 0.81842 0.0
H2177 H 0.91699 0.65053 0.79036 0.0
H2178 H 0.93442 0.7022 0.76928 0.0
H2179 H 0.91788 0.70581 0.79755 0.0
C2180 C 0.958 0.68154 0.73341 0.0
C2181 C 0.94878 0.66618 0.72194 0.0
C2182 C 0.95094 0.68484 0.75143 0.0
C2183 C 0.93461 0.67279 0.75843 0.0
C2184 C 0.92542 0.65754 0.74687 0.0
C2185 C 0.93238 0.65429 0.72891 0.0
C2186 C 0.90795 0.66475 0.80792 0.0
C2187 C 0.90769 0.68015 0.80998 0.0
C2188 C 0.91739 0.66271 0.79184 0.0
C2189 C 0.92677 0.67598 0.77737 0.0
C2190 C 0.92737 0.69175 0.78022 0.0
C2191 C 0.91791 0.69382 0.79641 0.0
H2192 H 0.32274 0.29027 0.73274 0.0
H2193 H 0.36017 0.27676 0.71225 0.0
H2194 H 0.31521 0.27019 0.7626 0.0
H2195 H 0.35231 0.25657 0.74164 0.0
H2196 H 0.3169 0.20734 0.77884 0.0
H2197 H 0.32346 0.22823 0.75033 0.0
H2198 H 0.33178 0.26672 0.79715 0.0
H2199 H 0.32543 0.24579 0.82586 0.0
C2200 C 0.32935 0.28305 0.73456 0.0
C2201 C 0.34199 0.28507 0.71998 0.0
C2202 C 0.32507 0.27163 0.75168 0.0
C2203 C 0.33311 0.2618 0.75426 0.0
C2204 C 0.34582 0.26391 0.73985 0.0
C2205 C 0.35032 0.27552 0.72305 0.0
C2206 C 0.31993 0.2202 0.78303 0.0
C2207 C 0.32063 0.22496 0.80453 0.0
C2208 C 0.32378 0.23216 0.76676 0.0
C2209 C 0.32815 0.24905 0.7716 0.0
C2210 C 0.32837 0.25374 0.79304 0.0
C2211 C 0.32483 0.24182 0.80941 0.0
H2212 H 0.71217 0.03027 0.74704 0.0
H2213 H 0.72776 0.07617 0.71047 0.0
H2214 H 0.73184 0.04705 0.77584 0.0
H2215 H 0.74742 0.09305 0.73916 0.0
H2216 H 0.79495 0.11299 0.78193 0.0
H2217 H 0.77431 0.09598 0.75441 0.0
H2218 H 0.73657 0.06962 0.80294 0.0
H2219 H 0.75732 0.08673 0.83059 0.0
C2220 C 0.71995 0.04396 0.74519 0.0
C2221 C 0.71906 0.05196 0.72635 0.0
C2222 C 0.73101 0.05357 0.76171 0.0
C2223 C 0.74132 0.07133 0.75963 0.0
C2224 C 0.73988 0.07934 0.74103 0.0
C2225 C 0.72866 0.06975 0.72467 0.0
C2226 C 0.78229 0.10346 0.78673 0.0
C2227 C 0.77775 0.10113 0.8084 0.0
C2228 C 0.77044 0.09382 0.77097 0.0
C2229 C 0.75383 0.08148 0.77652 0.0
C2230 C 0.74931 0.07897 0.79821 0.0
C2231 C 0.76113 0.08881 0.814 0.0
H2232 H 0.01976 0.32857 0.05161 0.0
H2233 H 0.06506 0.3631 0.01704 0.0
H2234 H 0.03561 0.31659 0.06978 0.0
H2235 H 0.08072 0.35108 0.03503 0.0
H2236 H 0.10159 0.31792 0.05969 0.0
H2237 H 0.08191 0.32355 0.03872 0.0
H2238 H 0.06011 0.32959 0.09695 0.0
H2239 H 0.07974 0.32394 0.11787 0.0
C2240 C 0.033 0.33342 0.04767 0.0
C2241 C 0.0412 0.34687 0.03302 0.0
C2242 C 0.04206 0.32661 0.05811 0.0
C2243 C 0.05937 0.33291 0.05378 0.0
C2244 C 0.06735 0.34586 0.03852 0.0
C2245 C 0.0584 0.35283 0.02835 0.0
C2246 C 0.09235 0.3201 0.06796 0.0
C2247 C 0.09224 0.32063 0.09037 0.0
C2248 C 0.08118 0.32341 0.05599 0.0
C2249 C 0.06955 0.32707 0.06623 0.0
C2250 C 0.06885 0.32668 0.08864 0.0
C2251 C 0.08015 0.32359 0.1006 0.0
H2252 H 0.68623 0.69468 0.06144 0.0
H2253 H 0.65321 0.70053 0.01619 0.0
H2254 H 0.69362 0.72215 0.07731 0.0
H2255 H 0.65986 0.7276 0.03267 0.0
H2256 H 0.68283 0.7815 0.05784 0.0
H2257 H 0.67955 0.75632 0.03907 0.0
H2258 H 0.68156 0.73401 0.09955 0.0
H2259 H 0.68555 0.75949 0.11801 0.0
C2260 C 0.68059 0.70189 0.05485 0.0
C2261 C 0.6691 0.69544 0.03762 0.0
C2262 C 0.68469 0.71759 0.06407 0.0
C2263 C 0.67718 0.7271 0.05653 0.0
C2264 C 0.66609 0.72082 0.03881 0.0
C2265 C 0.6622 0.70524 0.02937 0.0
C2266 C 0.68264 0.7712 0.06703 0.0
C2267 C 0.68446 0.77244 0.08936 0.0
C2268 C 0.68068 0.75672 0.05631 0.0
C2269 C 0.68025 0.74301 0.06772 0.0
C2270 C 0.68219 0.74438 0.0901 0.0
C2271 C 0.68439 0.75896 0.10075 0.0
H2272 H 0.29598 0.95864 0.01135 0.0
H2273 H 0.3152 0.98099 0.07344 0.0
H2274 H 0.26921 0.93746 0.02787 0.0
H2275 H 0.28877 0.95972 0.08977 0.0
H2276 H 0.25012 0.90398 0.11028 0.0
H2277 H 0.27544 0.92582 0.09211 0.0
H2278 H 0.24389 0.93773 0.05159 0.0
H2279 H 0.21848 0.91604 0.07013 0.0
C2280 C 0.29445 0.95912 0.02843 0.0
C2281 C 0.3077 0.97147 0.04109 0.0
C2282 C 0.27916 0.94705 0.03785 0.0
C2283 C 0.27705 0.94693 0.06008 0.0
C2284 C 0.29015 0.95947 0.07261 0.0
C2285 C 0.30524 0.97169 0.06321 0.0
C2286 C 0.24861 0.91123 0.09745 0.0
C2287 C 0.2324 0.90837 0.0916 0.0
C2288 C 0.26306 0.92374 0.08714 0.0
C2289 C 0.26157 0.93342 0.07049 0.0
C2290 C 0.24534 0.93037 0.06433 0.0
C2291 C 0.23087 0.91807 0.07497 0.0
H2292 H 0.37196 0.06848 0.00411 0.0
H2293 H 0.32741 0.02324 0.98097 0.0
H2294 H 0.36334 0.08623 0.98452 0.0
H2295 H 0.31885 0.04125 0.96101 0.0
H2296 H 0.30301 0.0825 0.94479 0.0
H2297 H 0.30937 0.06296 0.96496 0.0
H2298 H 0.36206 0.09249 0.9468 0.0
H2299 H 0.35575 0.11186 0.9267 0.0
C2300 C 0.36029 0.06227 0.99486 0.0
C2301 C 0.3505 0.04437 0.99396 0.0
C2302 C 0.35539 0.0725 0.98352 0.0
C2303 C 0.34056 0.06516 0.9709 0.0
C2304 C 0.33035 0.04729 0.97061 0.0
C2305 C 0.33527 0.03697 0.98202 0.0
C2306 C 0.31591 0.0847 0.94494 0.0
C2307 C 0.32892 0.09889 0.93436 0.0
C2308 C 0.31954 0.07351 0.95649 0.0
C2309 C 0.33626 0.0763 0.95772 0.0
C2310 C 0.34912 0.0902 0.94662 0.0
C2311 C 0.34551 0.10133 0.9351 0.0
H2312 H 0.97914 0.31666 0.95397 0.0
H2313 H 0.9572 0.2986 0.01623 0.0
H2314 H 0.95735 0.29011 0.93793 0.0
H2315 H 0.93553 0.27172 1.00001 0.0
H2316 H 0.91358 0.22022 0.95768 0.0
H2317 H 0.93572 0.24578 0.97594 0.0
H2318 H 0.92313 0.27743 0.93656 0.0
H2319 H 0.90082 0.25196 0.91872 0.0
C2320 C 0.96981 0.30693 0.96428 0.0
C2321 C 0.96984 0.30972 0.98637 0.0
C2322 C 0.95732 0.29179 0.95506 0.0
C2323 C 0.9448 0.27899 0.96776 0.0
C2324 C 0.94512 0.28144 0.98994 0.0
C2325 C 0.95746 0.29679 0.99917 0.0
C2326 C 0.91556 0.23267 0.95305 0.0
C2327 C 0.90555 0.23421 0.93686 0.0
C2328 C 0.92811 0.2472 0.96352 0.0
C2329 C 0.93107 0.26348 0.95756 0.0
C2330 C 0.92108 0.26499 0.94135 0.0
C2331 C 0.90833 0.25047 0.93123 0.0
H2332 H 0.69011 0.62433 0.98158 0.0
H2333 H 0.70443 0.67693 0.99381 0.0
H2334 H 0.71674 0.63337 0.96347 0.0
H2335 H 0.7317 0.68609 0.97625 0.0
H2336 H 0.77165 0.69535 0.92388 0.0
H2337 H 0.74539 0.6883 0.94282 0.0
H2338 H 0.74569 0.64455 0.97101 0.0
H2339 H 0.77137 0.65127 0.95141 0.0
C2340 C 0.69905 0.63787 0.98059 0.0
C2341 C 0.69517 0.6499 0.98931 0.0
C2342 C 0.71444 0.64307 0.9703 0.0
C2343 C 0.72658 0.66047 0.96867 0.0
C2344 C 0.72263 0.67258 0.97709 0.0
C2345 C 0.70703 0.66735 0.98722 0.0
C2346 C 0.76609 0.68432 0.93428 0.0
C2347 C 0.77337 0.67372 0.93602 0.0
C2348 C 0.75109 0.68029 0.94519 0.0
C2349 C 0.74321 0.66569 0.95823 0.0
C2350 C 0.75105 0.6556 0.96063 0.0
C2351 C 0.76583 0.65948 0.94952 0.0
H2352 H 0.99024 0.68142 0.95544 0.0
H2353 H 0.95822 0.65838 0.01027 0.0
H2354 H 0.9692 0.6881 0.9405 0.0
H2355 H 0.93725 0.66521 0.9954 0.0
H2356 H 0.8954 0.65708 0.94601 0.0
H2357 H 0.91761 0.65412 0.96454 0.0
H2358 H 0.95467 0.70519 0.94545 0.0
H2359 H 0.9324 0.70803 0.92651 0.0
C2360 C 0.97883 0.67802 0.96446 0.0
C2361 C 0.97584 0.66925 0.98396 0.0
C2362 C 0.96681 0.68192 0.95595 0.0
C2363 C 0.9515 0.67706 0.96669 0.0
C2364 C 0.94883 0.66891 0.9866 0.0
C2365 C 0.96089 0.66509 0.99518 0.0
C2366 C 0.90828 0.66768 0.94579 0.0
C2367 C 0.91218 0.68274 0.93469 0.0
C2368 C 0.92098 0.66606 0.9566 0.0
C2369 C 0.9379 0.67943 0.95648 0.0
C2370 C 0.94176 0.69463 0.94571 0.0
C2371 C 0.92901 0.6963 0.93502 0.0
H2372 H 0.36963 0.30685 1.0018 0.0
H2373 H 0.32621 0.31017 0.97851 0.0
H2374 H 0.35937 0.27981 0.98359 0.0
H2375 H 0.31574 0.28266 0.96037 0.0
H2376 H 0.3176 0.24478 0.90973 0.0
H2377 H 0.32382 0.27052 0.92981 0.0
H2378 H 0.33664 0.2504 0.98525 0.0
H2379 H 0.33053 0.22483 0.96523 0.0
C2380 C 0.35781 0.30177 0.9929 0.0
C2381 C 0.34879 0.31079 0.99159 0.0
C2382 C 0.35184 0.28614 0.98257 0.0
C2383 C 0.33668 0.279 0.97059 0.0
C2384 C 0.32752 0.28788 0.96937 0.0
C2385 C 0.33347 0.30358 0.97987 0.0
C2386 C 0.32148 0.24576 0.92631 0.0
C2387 C 0.32382 0.23288 0.9358 0.0
C2388 C 0.32502 0.26049 0.93782 0.0
C2389 C 0.33094 0.26261 0.95905 0.0
C2390 C 0.33247 0.24934 0.96879 0.0
C2391 C 0.32898 0.23469 0.95731 0.0
H2392 H 0.69879 0.01665 0.96622 0.0
H2393 H 0.70074 0.05337 0.01204 0.0
H2394 H 0.7256 0.03839 0.95096 0.0
H2395 H 0.72747 0.07518 0.99652 0.0
H2396 H 0.75712 0.11086 0.93872 0.0
H2397 H 0.73332 0.08918 0.95885 0.0
H2398 H 0.75748 0.05816 0.96104 0.0
H2399 H 0.78181 0.08019 0.94175 0.0
C2400 C 0.70508 0.0293 0.97322 0.0
C2401 C 0.69765 0.03334 0.99027 0.0
C2402 C 0.72043 0.04171 0.96453 0.0
C2403 C 0.72851 0.05846 0.97249 0.0
C2404 C 0.72141 0.06237 0.99001 0.0
C2405 C 0.70619 0.04987 0.99896 0.0
C2406 C 0.75763 0.09963 0.94385 0.0
C2407 C 0.7715 0.09738 0.93856 0.0
C2408 C 0.74393 0.08719 0.95535 0.0
C2409 C 0.74361 0.07205 0.96155 0.0
C2410 C 0.75739 0.0697 0.95634 0.0
C2411 C 0.77126 0.08228 0.94513 0.0
H2412 H 0.63413 0.93568 0.0244 0.0
H2413 H 0.67743 0.9821 0.04746 0.0
H2414 H 0.64467 0.91894 0.04262 0.0
H2415 H 0.68811 0.96511 0.06564 0.0
H2416 H 0.6865 0.92496 0.11587 0.0
H2417 H 0.6798 0.94448 0.09628 0.0
H2418 H 0.66836 0.91301 0.03994 0.0
H2419 H 0.67504 0.89358 0.05942 0.0
C2420 C 0.64594 0.94236 0.03331 0.0
C2421 C 0.6549 0.96028 0.03447 0.0
C2422 C 0.65205 0.93272 0.04362 0.0
C2423 C 0.66728 0.9407 0.05544 0.0
C2424 C 0.67629 0.95862 0.05671 0.0
C2425 C 0.67021 0.96832 0.04622 0.0
C2426 C 0.68285 0.92241 0.09919 0.0
C2427 C 0.68106 0.90761 0.08926 0.0
C2428 C 0.67903 0.93358 0.08798 0.0
C2429 C 0.67334 0.93014 0.06667 0.0
C2430 C 0.67237 0.9158 0.05649 0.0
C2431 C 0.67618 0.90467 0.06765 0.0
H2432 H 0.02593 0.69759 0.0425 0.0
H2433 H 0.07158 0.6969 0.02402 0.0
H2434 H 0.04318 0.72342 0.06359 0.0
H2435 H 0.08859 0.72256 0.04473 0.0
H2436 H 0.11204 0.7552 0.10318 0.0
H2437 H 0.09327 0.72982 0.08266 0.0
H2438 H 0.06518 0.75418 0.06029 0.0
H2439 H 0.08409 0.77975 0.08089 0.0
C2440 C 0.0396 0.70298 0.04277 0.0
C2441 C 0.04731 0.69501 0.03172 0.0
C2442 C 0.04948 0.71779 0.05481 0.0
C2443 C 0.06723 0.72489 0.05607 0.0
C2444 C 0.07492 0.7172 0.0445 0.0
C2445 C 0.06512 0.70249 0.03251 0.0
C2446 C 0.10193 0.75521 0.09382 0.0
C2447 C 0.0997 0.76959 0.09347 0.0
C2448 C 0.09115 0.74065 0.08205 0.0
C2449 C 0.07786 0.74006 0.06963 0.0
C2450 C 0.07525 0.75421 0.0698 0.0
C2451 C 0.08608 0.76884 0.0816 0.0
H2452 H 0.29884 0.35071 0.01419 0.0
H2453 H 0.31133 0.3294 0.06873 0.0
H2454 H 0.27226 0.34483 0.03126 0.0
H2455 H 0.28475 0.32331 0.08557 0.0
H2456 H 0.21927 0.31906 0.06216 0.0
H2457 H 0.24432 0.32217 0.04351 0.0
H2458 H 0.27368 0.3403 0.10183 0.0
H2459 H 0.24862 0.33672 0.12053 0.0
C2460 C 0.2958 0.34454 0.02966 0.0
C2461 C 0.30726 0.34064 0.04015 0.0
C2462 C 0.28055 0.34112 0.03942 0.0
C2463 C 0.27645 0.33376 0.0599 0.0
C2464 C 0.28765 0.32929 0.06998 0.0
C2465 C 0.30285 0.33268 0.06024 0.0
C2466 C 0.23104 0.32354 0.07102 0.0
C2467 C 0.23194 0.32766 0.09283 0.0
C2468 C 0.24543 0.32548 0.06029 0.0
C2469 C 0.261 0.33144 0.07117 0.0
C2470 C 0.26184 0.33546 0.09301 0.0
C2471 C 0.24752 0.33361 0.10368 0.0
H2472 H 0.72446 0.70973 0.39024 0.0
H2473 H 0.69009 0.65804 0.36983 0.0
H2474 H 0.74077 0.69975 0.4109 0.0
H2475 H 0.70671 0.64807 0.39047 0.0
H2476 H 0.7588 0.64777 0.40564 0.0
H2477 H 0.73814 0.65362 0.38761 0.0
H2478 H 0.73579 0.68024 0.44355 0.0
H2479 H 0.75594 0.67397 0.46191 0.0
C2480 C 0.72035 0.69622 0.39022 0.0
C2481 C 0.706 0.68467 0.37839 0.0
C2482 C 0.72964 0.69051 0.40216 0.0
C2483 C 0.72495 0.67315 0.4023 0.0
C2484 C 0.71057 0.66153 0.39057 0.0
C2485 C 0.70105 0.66722 0.37888 0.0
C2486 C 0.75358 0.65451 0.41431 0.0
C2487 C 0.75925 0.66063 0.43513 0.0
C2488 C 0.74177 0.65786 0.40395 0.0
C2489 C 0.73555 0.66752 0.41414 0.0
C2490 C 0.74061 0.67298 0.43524 0.0
C2491 C 0.75222 0.66946 0.44567 0.0
H2492 H 0.31974 0.03479 0.34966 0.0
H2493 H 0.35131 0.02762 0.39593 0.0
H2494 H 0.32657 0.06179 0.36637 0.0
H2495 H 0.35886 0.05506 0.41212 0.0
H2496 H 0.35054 0.09279 0.45222 0.0
H2497 H 0.34676 0.06731 0.43387 0.0
H2498 H 0.34678 0.09027 0.37309 0.0
H2499 H 0.34986 0.11543 0.39168 0.0
C2500 C 0.32845 0.03917 0.36315 0.0
C2501 C 0.33491 0.02903 0.37155 0.0
C2502 C 0.33245 0.05474 0.37271 0.0
C2503 C 0.34321 0.06066 0.39076 0.0
C2504 C 0.35024 0.05078 0.39857 0.0
C2505 C 0.34603 0.0351 0.38918 0.0
C2506 C 0.34989 0.0924 0.43492 0.0
C2507 C 0.35041 0.10603 0.42337 0.0
C2508 C 0.3478 0.07783 0.42435 0.0
C2509 C 0.34642 0.07663 0.40191 0.0
C2510 C 0.34744 0.09053 0.39037 0.0
C2511 C 0.34928 0.105 0.40099 0.0
H2512 H 0.98066 0.31581 0.40463 0.0
H2513 H 0.96137 0.29275 0.34295 0.0
H2514 H 0.95391 0.29591 0.42091 0.0
H2515 H 0.934 0.27325 0.35905 0.0
H2516 H 0.89574 0.22792 0.39883 0.0
H2517 H 0.92098 0.2491 0.38067 0.0
H2518 H 0.92558 0.28734 0.42597 0.0
H2519 H 0.90131 0.26582 0.44529 0.0
C2520 C 0.97054 0.30669 0.39444 0.0
C2521 C 0.97316 0.30583 0.37249 0.0
C2522 C 0.95506 0.29529 0.40378 0.0
C2523 C 0.94163 0.28285 0.39139 0.0
C2524 C 0.9441 0.28239 0.36924 0.0
C2525 C 0.95974 0.29367 0.35993 0.0
C2526 C 0.90224 0.24078 0.40515 0.0
C2527 C 0.89649 0.24499 0.42381 0.0
C2528 C 0.91662 0.25308 0.39443 0.0
C2529 C 0.92552 0.27003 0.40182 0.0
C2530 C 0.91935 0.27438 0.41998 0.0
C2531 C 0.90517 0.26202 0.43092 0.0
H2532 H 0.99422 0.3654 0.33504 0.0
H2533 H 0.04344 0.39053 0.30517 0.0
H2534 H 0.98658 0.38464 0.3165 0.0
H2535 H 0.03559 0.40886 0.28554 0.0
H2536 H 0.02612 0.45163 0.27015 0.0
H2537 H 0.0322 0.43213 0.2896 0.0
H2538 H 0.97936 0.39315 0.28482 0.0
H2539 H 0.9729 0.41341 0.26728 0.0
C2540 C 0.00329 0.37489 0.32426 0.0
C2541 C 0.01949 0.37666 0.32175 0.0
C2542 C 0.99891 0.38588 0.3135 0.0
C2543 C 0.01053 0.39858 0.29963 0.0
C2544 C 0.02647 0.39974 0.29658 0.0
C2545 C 0.03097 0.38911 0.30772 0.0
C2546 C 0.01564 0.43907 0.27363 0.0
C2547 C 0.99895 0.43428 0.26714 0.0
C2548 C 0.01923 0.42764 0.28446 0.0
C2549 C 0.00635 0.41084 0.28866 0.0
C2550 C 0.98964 0.40598 0.28213 0.0
C2551 C 0.98597 0.41758 0.27168 0.0
H2552 H 0.61554 0.63702 0.34414 0.0
H2553 H 0.65489 0.64003 0.30274 0.0
H2554 H 0.59504 0.61044 0.32701 0.0
H2555 H 0.63466 0.61302 0.28626 0.0
H2556 H 0.59041 0.57848 0.24242 0.0
H2557 H 0.61189 0.60303 0.26208 0.0
H2558 H 0.58501 0.58129 0.32091 0.0
H2559 H 0.56318 0.55706 0.3009 0.0
C2560 C 0.61989 0.63177 0.33172 0.0
C2561 C 0.63677 0.64066 0.32465 0.0
C2562 C 0.60814 0.61647 0.32191 0.0
C2563 C 0.61309 0.6096 0.30502 0.0
C2564 C 0.63025 0.61811 0.2988 0.0
C2565 C 0.64191 0.63353 0.30838 0.0
C2566 C 0.58921 0.57892 0.25958 0.0
C2567 C 0.57514 0.56592 0.27014 0.0
C2568 C 0.60157 0.59295 0.27092 0.0
C2569 C 0.60028 0.5942 0.29318 0.0
C2570 C 0.58632 0.58095 0.30377 0.0
C2571 C 0.57383 0.56703 0.29235 0.0
H2572 H 0.34924 0.95982 0.30062 0.0
H2573 H 0.37274 0.00869 0.33238 0.0
H2574 H 0.37518 0.96813 0.28098 0.0
H2575 H 0.39935 0.01679 0.31374 0.0
H2576 H 0.44185 0.03094 0.26549 0.0
H2577 H 0.41504 0.02438 0.28207 0.0
H2578 H 0.40168 0.97129 0.28625 0.0
H2579 H 0.42746 0.97751 0.26794 0.0
C2580 C 0.36007 0.97235 0.30348 0.0
C2581 C 0.35905 0.98357 0.31812 0.0
C2582 C 0.37505 0.9771 0.29236 0.0
C2583 C 0.38962 0.99303 0.29602 0.0
C2584 C 0.38842 0.00447 0.31031 0.0
C2585 C 0.37321 0.99984 0.3211 0.0
C2586 C 0.43305 0.01781 0.26958 0.0
C2587 C 0.43697 0.00479 0.26529 0.0
C2588 C 0.41774 0.01408 0.27943 0.0
C2589 C 0.40602 0.99727 0.28549 0.0
C2590 C 0.41009 0.98434 0.28145 0.0
C2591 C 0.42518 0.988 0.27128 0.0
H2592 H 0.62261 0.98606 0.34252 0.0
H2593 H 0.65857 0.01641 0.29388 0.0
H2594 H 0.6014 0.99199 0.32635 0.0
H2595 H 0.63734 0.02251 0.27789 0.0
H2596 H 0.59693 0.04039 0.26882 0.0
H2597 H 0.61921 0.0372 0.28705 0.0
H2598 H 0.58609 0.9827 0.28954 0.0
H2599 H 0.56414 0.98563 0.27048 0.0
C2600 C 0.62608 0.99423 0.3286 0.0
C2601 C 0.64223 1.0007 0.31941 0.0
C2602 C 0.61391 0.99754 0.31929 0.0
C2603 C 0.61772 0.00761 0.30081 0.0
C2604 C 0.63411 0.01476 0.29219 0.0
C2605 C 0.64622 0.01123 0.3013 0.0
C2606 C 0.59442 0.02769 0.27299 0.0
C2607 C 0.57861 0.01328 0.26818 0.0
C2608 C 0.60717 0.02591 0.28355 0.0
C2609 C 0.60429 0.00973 0.28985 0.0
C2610 C 0.58853 0.99536 0.28519 0.0
C2611 C 0.57592 0.99709 0.27434 0.0
H2612 H 0.0366 0.64165 0.33444 0.0
H2613 H 0.99328 0.6443 0.30934 0.0
H2614 H 0.0272 0.61484 0.31601 0.0
H2615 H 0.98367 0.61702 0.29099 0.0
H2616 H 0.98721 0.57994 0.24077 0.0
H2617 H 0.99273 0.60544 0.26089 0.0
H2618 H 0.00487 0.58526 0.31685 0.0
H2619 H 0.99943 0.55991 0.29679 0.0
C2620 C 0.02497 0.63648 0.32509 0.0
C2621 C 0.01574 0.64524 0.32334 0.0
C2622 C 0.01951 0.62097 0.31463 0.0
C2623 C 0.00464 0.61372 0.30208 0.0
C2624 C 0.99525 0.62234 0.30043 0.0
C2625 C 1.0007 0.63791 0.31105 0.0
C2626 C 0.9908 0.58085 0.25746 0.0
C2627 C 0.99312 0.56801 0.2671 0.0
C2628 C 0.99394 0.59545 0.269 0.0
C2629 C 0.99943 0.59748 0.29041 0.0
C2630 C 1.00101 0.58427 0.30026 0.0
C2631 C 0.99791 0.56974 0.28875 0.0
H2632 H 0.35709 0.35895 0.28649 0.0
H2633 H 0.3757 0.3814 0.34871 0.0
H2634 H 0.38338 0.3806 0.27036 0.0
H2635 H 0.40238 0.40297 0.33235 0.0
H2636 H 0.45302 0.4244 0.28827 0.0
H2637 H 0.428 0.40239 0.30717 0.0
H2638 H 0.39566 0.41521 0.26965 0.0
H2639 H 0.42057 0.43737 0.25117 0.0
C2640 C 0.36689 0.36834 0.29679 0.0
C2641 C 0.3643 0.36852 0.31888 0.0
C2642 C 0.3819 0.38075 0.2875 0.0
C2643 C 0.39477 0.39342 0.30013 0.0
C2644 C 0.39258 0.39326 0.32234 0.0
C2645 C 0.37735 0.38098 0.33165 0.0
C2646 C 0.44054 0.42249 0.28419 0.0
C2647 C 0.43864 0.4325 0.26832 0.0
C2648 C 0.42632 0.41004 0.29504 0.0
C2649 C 0.41001 0.40718 0.28978 0.0
C2650 C 0.40814 0.41719 0.27391 0.0
C2651 C 0.42234 0.42985 0.26342 0.0
H2652 H 0.34566 0.31721 0.37774 0.0
H2653 H 0.30348 0.27131 0.35169 0.0
H2654 H 0.35642 0.29998 0.39504 0.0
H2655 H 0.31406 0.25428 0.36911 0.0
H2656 H 0.34352 0.22842 0.38788 0.0
H2657 H 0.33759 0.24822 0.36797 0.0
H2658 H 0.34742 0.27895 0.42474 0.0
H2659 H 0.3534 0.25911 0.44469 0.0
C2660 C 0.33875 0.3035 0.37558 0.0
C2661 C 0.32365 0.29565 0.3634 0.0
C2662 C 0.34487 0.29364 0.38558 0.0
C2663 C 0.33611 0.27578 0.38341 0.0
C2664 C 0.32125 0.26802 0.37086 0.0
C2665 C 0.3151 0.27781 0.36101 0.0
C2666 C 0.34449 0.23944 0.39609 0.0
C2667 C 0.34871 0.2421 0.41791 0.0
C2668 C 0.34111 0.25078 0.38469 0.0
C2669 C 0.34185 0.26503 0.39485 0.0
C2670 C 0.34688 0.26816 0.41642 0.0
C2671 C 0.35028 0.25679 0.42785 0.0
H2672 H 0.69219 0.03042 0.379 0.0
H2673 H 0.73839 0.03188 0.35817 0.0
H2674 H 0.70918 0.05768 0.39749 0.0
H2675 H 0.75513 0.05872 0.37676 0.0
H2676 H 0.7812 0.11407 0.39497 0.0
H2677 H 0.76232 0.08849 0.37476 0.0
H2678 H 0.72865 0.06911 0.42881 0.0
H2679 H 0.74761 0.0948 0.4491 0.0
C2680 C 0.70592 0.03654 0.37828 0.0
C2681 C 0.71389 0.02889 0.36711 0.0
C2682 C 0.71564 0.0521 0.38897 0.0
C2683 C 0.73351 0.0604 0.38854 0.0
C2684 C 0.74141 0.05282 0.37716 0.0
C2685 C 0.73175 0.03731 0.36662 0.0
C2686 C 0.76979 0.10435 0.40257 0.0
C2687 C 0.76603 0.10639 0.42374 0.0
C2688 C 0.75895 0.0897 0.39098 0.0
C2689 C 0.74407 0.07668 0.40025 0.0
C2690 C 0.73995 0.07897 0.42115 0.0
C2691 C 0.75082 0.09368 0.43278 0.0
H2692 H 0.96538 0.68611 0.34329 0.0
H2693 H 0.97453 0.66132 0.39686 0.0
H2694 H 0.93816 0.6799 0.35869 0.0
H2695 H 0.94745 0.65526 0.4123 0.0
H2696 H 0.89173 0.63592 0.42704 0.0
H2697 H 0.91634 0.63884 0.40751 0.0
H2698 H 0.92954 0.69032 0.39004 0.0
H2699 H 0.90477 0.68726 0.40914 0.0
C2700 C 0.9615 0.67916 0.35821 0.0
C2701 C 0.97215 0.67427 0.3689 0.0
C2702 C 0.94596 0.6757 0.36711 0.0
C2703 C 0.94068 0.66718 0.38679 0.0
C2704 C 0.95105 0.66171 0.39703 0.0
C2705 C 0.96662 0.66526 0.38822 0.0
C2706 C 0.89975 0.64776 0.41875 0.0
C2707 C 0.89633 0.66138 0.41971 0.0
C2708 C 0.91392 0.64949 0.40773 0.0
C2709 C 0.92493 0.66483 0.39726 0.0
C2710 C 0.92124 0.67827 0.39775 0.0
C2711 C 0.90715 0.67659 0.40889 0.0
H2712 H 0.35554 0.99928 0.71849 0.0
H2713 H 0.39837 0.03726 0.68302 0.0
H2714 H 0.37436 0.9912 0.73722 0.0
H2715 H 0.41694 0.02884 0.70103 0.0
H2716 H 0.44847 0.02729 0.75624 0.0
H2717 H 0.4287 0.03262 0.73587 0.0
H2718 H 0.39265 0.97858 0.73498 0.0
H2719 H 0.41225 0.97331 0.75658 0.0
C2720 C 0.3689 0.00568 0.71443 0.0
C2721 C 0.37551 0.01908 0.69952 0.0
C2722 C 0.37968 1.00102 0.72509 0.0
C2723 C 0.39723 0.00957 0.72089 0.0
C2724 C 0.40359 0.02232 0.70512 0.0
C2725 C 0.39291 0.02709 0.69469 0.0
C2726 C 0.43626 0.01652 0.75196 0.0
C2727 C 0.43192 0.99988 0.75822 0.0
C2728 C 0.42499 0.01956 0.73995 0.0
C2729 C 0.4091 0.00601 0.7336 0.0
C2730 C 0.40474 0.98931 0.73972 0.0
C2731 C 0.41604 0.98627 0.75189 0.0
H2732 H 0.00403 0.35275 0.74008 0.0
H2733 H 0.99958 0.37107 0.67784 0.0
H2734 H 0.00956 0.37971 0.75602 0.0
H2735 H 0.00556 0.39835 0.69393 0.0
H2736 H 0.03474 0.44997 0.73523 0.0
H2737 H 0.03148 0.42414 0.71755 0.0
H2738 H 0.98855 0.39308 0.75768 0.0
H2739 H 0.99154 0.41881 0.77493 0.0
C2740 C 0.00453 0.36264 0.72973 0.0
C2741 C 1.00132 0.35977 0.70769 0.0
C2742 C 0.00761 0.37803 0.73891 0.0
C2743 C 0.00789 0.39101 0.72619 0.0
C2744 C 0.00545 0.38851 0.70402 0.0
C2745 C 1.00201 0.37293 0.69486 0.0
C2746 C 0.02462 0.43759 0.74018 0.0
C2747 C 0.01337 0.4363 0.75637 0.0
C2748 C 0.02272 0.42289 0.73005 0.0
C2749 C 0.0098 0.40669 0.73634 0.0
C2750 C 0.99866 0.40544 0.75264 0.0
C2751 C 1.00031 0.42011 0.76242 0.0
H2752 H 0.647 0.64676 0.73978 0.0
H2753 H 0.6292 0.62392 0.67757 0.0
H2754 H 0.62077 0.62479 0.75573 0.0
H2755 H 0.60257 0.60205 0.69372 0.0
H2756 H 0.55137 0.58058 0.73694 0.0
H2757 H 0.57653 0.60245 0.71814 0.0
H2758 H 0.60863 0.59016 0.75699 0.0
H2759 H 0.58355 0.56809 0.77536 0.0
C2760 C 0.63738 0.63721 0.72943 0.0
C2761 C 0.64019 0.63706 0.70739 0.0
C2762 C 0.62241 0.6246 0.73862 0.0
C2763 C 0.60976 0.61174 0.72594 0.0
C2764 C 0.61218 0.61189 0.70378 0.0
C2765 C 0.62738 0.62436 0.69458 0.0
C2766 C 0.56382 0.58253 0.74131 0.0
C2767 C 0.56559 0.5727 0.75756 0.0
C2768 C 0.57813 0.59493 0.73052 0.0
C2769 C 0.59443 0.59793 0.73619 0.0
C2770 C 0.59617 0.58807 0.75239 0.0
C2771 C 0.58186 0.57545 0.76283 0.0
H2772 H 0.65825 0.68787 0.64746 0.0
H2773 H 0.70345 0.73429 0.6664 0.0
H2774 H 0.64875 0.7048 0.6267 0.0
H2775 H 0.69391 0.75093 0.64607 0.0
H2776 H 0.68384 0.77444 0.58862 0.0
H2777 H 0.69092 0.75536 0.60809 0.0
H2778 H 0.63924 0.7267 0.63044 0.0
H2779 H 0.6321 0.74594 0.61078 0.0
C2780 C 0.66609 0.70163 0.64735 0.0
C2781 C 0.68172 0.70966 0.65842 0.0
C2782 C 0.66062 0.71131 0.63551 0.0
C2783 C 0.67071 0.72918 0.63447 0.0
C2784 C 0.68603 0.73716 0.6461 0.0
C2785 C 0.69146 0.72757 0.65787 0.0
C2786 C 0.67397 0.76411 0.59772 0.0
C2787 C 0.65748 0.76189 0.59845 0.0
C2788 C 0.67803 0.75316 0.60888 0.0
C2789 C 0.66571 0.73968 0.62111 0.0
C2790 C 0.649 0.73695 0.62112 0.0
C2791 C 0.64491 0.74796 0.60989 0.0
H2792 H 0.29142 0.96347 0.68315 0.0
H2793 H 0.31347 0.98228 0.6212 0.0
H2794 H 0.27152 0.93598 0.66717 0.0
H2795 H 0.29316 0.9554 0.60505 0.0
H2796 H 0.26199 0.90263 0.58069 0.0
H2797 H 0.28408 0.92678 0.59992 0.0
H2798 H 0.24708 0.92332 0.64592 0.0
H2799 H 0.22531 0.89816 0.62784 0.0
C2800 C 0.29203 0.9617 0.66614 0.0
C2801 C 0.304 0.97502 0.65344 0.0
C2802 C 0.28053 0.946 0.65691 0.0
C2803 C 0.28058 0.94338 0.63472 0.0
C2804 C 0.29285 0.95668 0.62221 0.0
C2805 C 0.30449 0.97222 0.63147 0.0
C2806 C 0.25859 0.90669 0.5952 0.0
C2807 C 0.24173 0.89839 0.60253 0.0
C2808 C 0.27127 0.92081 0.60609 0.0
C2809 C 0.26743 0.92727 0.6244 0.0
C2810 C 0.25065 0.91871 0.63203 0.0
C2811 C 0.23803 0.9044 0.62136 0.0
H2812 H 0.01966 0.28773 0.64599 0.0
H2813 H 0.03699 0.34045 0.66195 0.0
H2814 H 0.04585 0.29609 0.62703 0.0
H2815 H 0.06373 0.34885 0.64352 0.0
H2816 H 0.10296 0.35833 0.59042 0.0
H2817 H 0.07689 0.35161 0.60958 0.0
H2818 H 0.07467 0.30559 0.63395 0.0
H2819 H 0.10022 0.31205 0.61423 0.0
C2820 C 0.02914 0.30114 0.6456 0.0
C2821 C 0.02625 0.31341 0.65564 0.0
C2822 C 0.04427 0.30594 0.63481 0.0
C2823 C 0.0571 0.32314 0.63398 0.0
C2824 C 0.05411 0.3355 0.6437 0.0
C2825 C 0.0388 0.33069 0.65433 0.0
C2826 C 0.09689 0.34685 0.60001 0.0
C2827 C 0.10347 0.3356 0.60067 0.0
C2828 C 0.08199 0.34301 0.61105 0.0
C2829 C 0.07348 0.32792 0.62313 0.0
C2830 C 0.08053 0.31706 0.62435 0.0
C2831 C 0.09524 0.32079 0.61314 0.0
H2832 H 0.32148 0.34733 0.62591 0.0
H2833 H 0.28938 0.32309 0.68034 0.0
H2834 H 0.30014 0.35359 0.61116 0.0
H2835 H 0.26807 0.32953 0.66564 0.0
H2836 H 0.22627 0.32068 0.61547 0.0
H2837 H 0.24861 0.31844 0.63471 0.0
H2838 H 0.28495 0.36984 0.61591 0.0
H2839 H 0.26258 0.37195 0.59621 0.0
C2840 C 0.30999 0.3436 0.63492 0.0
C2841 C 0.30706 0.33459 0.65422 0.0
C2842 C 0.29779 0.34727 0.6265 0.0
C2843 C 0.28235 0.34195 0.63715 0.0
C2844 C 0.27975 0.3336 0.65692 0.0
C2845 C 0.292 0.33 0.6654 0.0
C2846 C 0.23902 0.33152 0.61548 0.0
C2847 C 0.2427 0.34644 0.60418 0.0
C2848 C 0.25179 0.33031 0.62671 0.0
C2849 C 0.26857 0.34396 0.62684 0.0
C2850 C 0.27217 0.35906 0.61598 0.0
C2851 C 0.25935 0.36031 0.60484 0.0
H2852 H 0.65878 0.96667 0.66921 0.0
H2853 H 0.7066 0.98947 0.63601 0.0
H2854 H 0.65 0.93965 0.65062 0.0
H2855 H 0.69761 0.96318 0.61642 0.0
H2856 H 0.68761 0.91063 0.60268 0.0
H2857 H 0.69441 0.9366 0.62139 0.0
H2858 H 0.64152 0.92343 0.61918 0.0
H2859 H 0.63442 0.8964 0.60226 0.0
C2860 C 0.66724 0.96595 0.65763 0.0
C2861 C 0.68343 0.98001 0.65422 0.0
C2862 C 0.66223 0.95051 0.64688 0.0
C2863 C 0.67319 0.94901 0.6322 0.0
C2864 C 0.68902 0.96351 0.62811 0.0
C2865 C 0.69415 0.97869 0.6392 0.0
C2866 C 0.67729 0.91297 0.60655 0.0
C2867 C 0.66041 0.90118 0.60097 0.0
C2868 C 0.68128 0.92818 0.61695 0.0
C2869 C 0.66859 0.9324 0.62163 0.0
C2870 C 0.65166 0.92065 0.61604 0.0
C2871 C 0.64762 0.9052 0.60598 0.0
H2872 H 0.03549 0.72245 0.67704 0.0
H2873 H 0.03209 0.68505 0.63127 0.0
H2874 H 0.06205 0.74383 0.66077 0.0
H2875 H 0.05873 0.70639 0.61521 0.0
H2876 H 0.11495 0.74755 0.60423 0.0
H2877 H 0.09074 0.72579 0.624 0.0
H2878 H 0.0675 0.75768 0.62332 0.0
H2879 H 0.09118 0.77911 0.60279 0.0
C2880 C 0.04058 0.71871 0.66379 0.0
C2881 C 0.03168 0.70211 0.65535 0.0
C2882 C 0.05571 0.73096 0.65441 0.0
C2883 C 0.06235 0.72677 0.63666 0.0
C2884 C 0.05392 0.70994 0.62894 0.0
C2885 C 0.03866 0.69776 0.63809 0.0
C2886 C 0.10461 0.74989 0.60805 0.0
C2887 C 0.10509 0.76516 0.60182 0.0
C2888 C 0.09082 0.73746 0.61952 0.0
C2889 C 0.07735 0.74013 0.62531 0.0
C2890 C 0.07788 0.75543 0.61938 0.0
C2891 C 0.09151 0.76773 0.60765 0.0
H2892 H 0.01119 0.64044 0.68955 0.0
H2893 H 0.96408 0.61839 0.72425 0.0
H2894 H 0.01903 0.6213 0.70795 0.0
H2895 H 0.97224 0.60018 0.74378 0.0
H2896 H 0.97974 0.55553 0.75604 0.0
H2897 H 0.97382 0.57587 0.73839 0.0
H2898 H 0.02744 0.61297 0.73892 0.0
H2899 H 0.03355 0.59186 0.75467 0.0
C2900 C 1.00273 0.63174 0.7015 0.0
C2901 C 0.98698 0.63068 0.70538 0.0
C2902 C 0.00721 0.62081 0.71214 0.0
C2903 C 0.99616 0.6089 0.72718 0.0
C2904 C 0.98084 0.60868 0.73181 0.0
C2905 C 0.9762 0.61924 0.72079 0.0
C2906 C 0.99037 0.56786 0.75201 0.0
C2907 C 0.00717 0.57189 0.75672 0.0
C2908 C 0.98692 0.57976 0.74225 0.0
C2909 C 1.00011 0.59626 0.7374 0.0
C2910 C 0.01693 0.60037 0.7422 0.0
C2911 C 0.02042 0.5883 0.75159 0.0
H2912 H 0.40331 0.36038 0.69399 0.0
H2913 H 0.35837 0.36302 0.71088 0.0
H2914 H 0.42072 0.38598 0.71465 0.0
H2915 H 0.37598 0.38872 0.73196 0.0
H2916 H 0.41751 0.44466 0.74869 0.0
H2917 H 0.39834 0.41898 0.72849 0.0
H2918 H 0.42562 0.3941 0.75208 0.0
H2919 H 0.4447 0.41966 0.77212 0.0
C2920 C 0.39709 0.36637 0.70216 0.0
C2921 C 0.37936 0.35949 0.70086 0.0
C2922 C 0.40711 0.38104 0.71413 0.0
C2923 C 0.39973 0.38928 0.72519 0.0
C2924 C 0.38206 0.38269 0.72356 0.0
C2925 C 0.37197 0.36794 0.71153 0.0
C2926 C 0.41926 0.43362 0.74973 0.0
C2927 C 0.43275 0.43427 0.76181 0.0
C2928 C 0.40828 0.41892 0.73818 0.0
C2929 C 0.41057 0.40456 0.73847 0.0
C2930 C 0.42374 0.40506 0.7511 0.0
C2931 C 0.43468 0.41972 0.7626 0.0
H2932 H 0.63341 0.01985 0.68021 0.0
H2933 H 0.64432 0.99681 0.73425 0.0
H2934 H 0.60702 0.01474 0.69716 0.0
H2935 H 0.61794 0.99149 0.75096 0.0
H2936 H 0.58319 0.00642 0.78638 0.0
H2937 H 0.6079 0.0092 0.76761 0.0
H2938 H 0.57861 0.99274 0.70906 0.0
H2939 H 0.55392 0.99045 0.7278 0.0
C2940 C 0.63005 0.01346 0.69553 0.0
C2941 C 0.64103 0.00886 0.70594 0.0
C2942 C 0.61491 0.01049 0.70522 0.0
C2943 C 0.61046 0.00288 0.72554 0.0
C2944 C 0.62114 0.99767 0.7355 0.0
C2945 C 0.63622 1.00062 0.72584 0.0
C2946 C 0.58203 0.00352 0.76946 0.0
C2947 C 0.56659 0.99828 0.75858 0.0
C2948 C 0.59615 0.00491 0.75874 0.0
C2949 C 0.59522 1.0011 0.73683 0.0
C2950 C 0.57978 0.99586 0.7259 0.0
C2951 C 0.5656 0.9944 0.73668 0.0
loop_
_geom_bond_atom_site_label_1
_geom_bond_atom_site_label_2
_geom_bond_distance
_geom_bond_site_symmetry_2
_ccdc_geom_bond_type
Mn0 O5 2.095 1_655 S
Mn0 O15 2.162 . S
Mn0 O16 2.297 1_554 S
Mn0 O24 2.385 1_554 S
Mn0 O25 2.209 1_654 S
Mn0 O26 2.094 . S
Mn1 O6 2.121 . S
Mn1 N8 2.257 1_554 S
Mn1 N17 2.282 . S
Mn1 O25 2.215 1_554 S
Mn1 O27 2.117 . S
C2 O24 1.234 1_455 S
C2 O25 1.283 . S
C3 O15 1.281 1_556 S
C3 O16 1.236 . S
C4 O26 1.251 . S
C4 O27 1.239 1_655 S
O5 Mn0 2.095 1_455 S
O5 C14 1.250 . S
O6 Mn1 2.121 . S
O6 C14 1.258 . S
C7 N8 1.326 . S
C7 C11 1.460 . S
C7 H13 0.929 . S
N8 Mn1 2.257 1_556 S
N8 C7 1.326 . S
N8 C12 1.362 . S
C9 C10 1.258 . S
C9 C12 1.431 . S
C9 C29 1.449 . S
C10 C9 1.258 . S
C10 C11 1.477 . S
C10 H30 0.931 . S
C11 C7 1.460 . S
C11 C10 1.477 . S
C11 H31 0.930 . S
C12 N8 1.362 . S
C12 C9 1.431 . S
C12 C22 1.476 . S
H13 C7 0.929 . S
C14 O5 1.250 . S
C14 O6 1.258 . S
O15 Mn0 2.162 . S
O15 C3 1.281 1_554 S
O16 Mn0 2.297 1_556 S
O16 C3 1.236 . S
N17 Mn1 2.282 . S
N17 C18 1.328 . S
N17 C22 1.318 1_554 S
C18 N17 1.328 . S
C18 C19 1.457 1_554 S
C18 H23 0.929 . S
C19 C18 1.457 1_556 S
C19 C20 1.291 . S
C19 H32 0.930 1_556 S
C20 C19 1.291 . S
C20 C21 1.373 . S
C20 H33 0.929 . S
C21 C20 1.373 . S
C21 C22 1.396 . S
C21 C28 1.403 . S
C22 C12 1.476 . S
C22 N17 1.318 1_556 S
C22 C21 1.396 . S
H23 C18 0.929 . S
O24 Mn0 2.385 1_556 S
O24 C2 1.234 1_655 S
O25 Mn0 2.209 1_456 S
O25 Mn1 2.215 1_556 S
O25 C2 1.283 . S
O26 Mn0 2.094 . S
O26 C4 1.251 . S
O27 Mn1 2.117 . S
O27 C4 1.239 1_455 S
C28 C21 1.403 . S
C28 C29 1.399 . S
C28 H34 0.929 . S
C29 C9 1.449 . S
C29 C28 1.399 . S
C29 H35 0.930 . S
H30 C10 0.931 . S
H31 C11 0.930 . S
H32 C19 0.930 1_554 S
H33 C20 0.929 . S
H34 C28 0.929 . S
H35 C29 0.930 . S
Mn36 O41 2.095 1_554 S
Mn36 O51 2.162 . S
Mn36 O52 2.297 . S
Mn36 O60 2.385 . S
Mn36 O61 2.209 . S
Mn36 O62 2.094 1_554 S
Mn37 O42 2.121 . S
Mn37 N44 2.257 1_556 S
Mn37 N53 2.282 1_556 S
Mn37 O61 2.215 1_556 S
Mn37 O63 2.117 . S
C38 O60 1.234 . S
C38 O61 1.283 . S
C39 O51 1.281 . S
C39 O52 1.236 . S
C40 O62 1.240 . S
C40 O63 1.264 . S
O41 Mn36 2.095 1_556 S
O41 C50 1.250 . S
O42 Mn37 2.121 . S
O42 C50 1.258 . S
C43 N44 1.326 . S
C43 C47 1.460 . S
C43 H49 0.929 . S
N44 Mn37 2.257 1_554 S
N44 C43 1.326 . S
N44 C48 1.362 . S
C45 C46 1.258 . S
C45 C48 1.431 . S
C45 C65 1.449 . S
C46 C45 1.258 . S
C46 C47 1.477 . S
C46 H66 0.931 . S
C47 C43 1.460 . S
C47 C46 1.477 . S
C47 H67 0.930 . S
C48 N44 1.362 . S
C48 C45 1.431 . S
C48 C58 1.476 . S
H49 C43 0.929 . S
C50 O41 1.250 . S
C50 O42 1.258 . S
O51 Mn36 2.162 . S
O51 C39 1.281 . S
O52 Mn36 2.297 . S
O52 C39 1.236 . S
N53 Mn37 2.282 1_554 S
N53 C54 1.328 . S
N53 C58 1.318 . S
C54 N53 1.328 . S
C54 C55 1.457 . S
C54 H59 0.919 1_554 S
C55 C54 1.457 . S
C55 C56 1.291 . S
C55 H68 0.931 . S
C56 C55 1.291 . S
C56 C57 1.373 . S
C56 H69 0.929 . S
C57 C56 1.373 . S
C57 C58 1.396 . S
C57 C64 1.403 . S
C58 C48 1.476 . S
C58 N53 1.318 . S
C58 C57 1.396 . S
H59 C54 0.919 1_556 S
O60 Mn36 2.385 . S
O60 C38 1.234 . S
O61 Mn36 2.209 . S
O61 Mn37 2.215 1_554 S
O61 C38 1.283 . S
O62 Mn36 2.094 1_556 S
O62 C40 1.240 . S
O63 Mn37 2.117 . S
O63 C40 1.264 . S
C64 C57 1.403 . S
C64 C65 1.399 . S
C64 H70 0.929 . S
C65 C45 1.449 . S
C65 C64 1.399 . S
C65 H71 0.930 . S
H66 C46 0.931 . S
H67 C47 0.930 . S
H68 C55 0.931 . S
H69 C56 0.929 . S
H70 C64 0.929 . S
H71 C65 0.930 . S
Mn72 O77 2.095 1_564 S
Mn72 O87 2.162 . S
Mn72 O88 2.297 . S
Mn72 O96 2.385 . S
Mn72 O97 2.209 1_565 S
Mn72 O98 2.094 1_554 S
Mn73 O78 2.121 1_554 S
Mn73 N80 2.257 . S
Mn73 N89 2.282 . S
Mn73 O97 2.215 . S
Mn73 O99 2.117 1_554 S
C74 O96 1.234 1_545 S
C74 O97 1.283 . S
C75 O87 1.281 . S
C75 O88 1.236 . S
C76 O98 1.240 . S
C76 O99 1.264 1_565 S
O77 Mn72 2.095 1_546 S
O77 C86 1.250 . S
O78 Mn73 2.121 1_556 S
O78 C86 1.258 . S
C79 N80 1.326 . S
C79 C83 1.460 . S
C79 H85 0.929 . S
N80 Mn73 2.257 . S
N80 C79 1.326 . S
N80 C84 1.362 . S
C81 C82 1.258 . S
C81 C84 1.431 . S
C81 C101 1.449 . S
C82 C81 1.258 . S
C82 C83 1.477 . S
C82 H102 0.931 . S
C83 C79 1.460 . S
C83 C82 1.477 . S
C83 H103 0.930 . S
C84 N80 1.362 . S
C84 C81 1.431 . S
C84 C94 1.476 . S
H85 C79 0.929 . S
C86 O77 1.250 . S
C86 O78 1.258 . S
O87 Mn72 2.162 . S
O87 C75 1.281 . S
O88 Mn72 2.297 . S
O88 C75 1.236 . S
N89 Mn73 2.282 . S
N89 C90 1.328 . S
N89 C94 1.318 . S
C90 N89 1.328 . S
C90 C91 1.457 . S
C90 H95 0.929 . S
C91 C90 1.457 . S
C91 C92 1.291 . S
C91 H104 0.931 . S
C92 C91 1.291 . S
C92 C93 1.373 . S
C92 H105 0.929 . S
C93 C92 1.373 . S
C93 C94 1.396 . S
C93 C100 1.403 . S
C94 C84 1.476 . S
C94 N89 1.318 . S
C94 C93 1.396 . S
H95 C90 0.929 . S
O96 Mn72 2.385 . S
O96 C74 1.234 1_565 S
O97 Mn72 2.209 1_545 S
O97 Mn73 2.215 . S
O97 C74 1.283 . S
O98 Mn72 2.094 1_556 S
O98 C76 1.240 . S
O99 Mn73 2.117 1_556 S
O99 C76 1.264 1_545 S
C100 C93 1.403 . S
C100 C101 1.399 . S
C100 H106 0.929 . S
C101 C81 1.449 . S
C101 C100 1.399 . S
C101 H107 0.930 . S
H102 C82 0.931 . S
H103 C83 0.930 . S
H104 C91 0.931 . S
H105 C92 0.929 . S
H106 C100 0.929 . S
H107 C101 0.930 . S
Mn108 O113 2.095 1_655 S
Mn108 O123 2.162 . S
Mn108 O124 2.297 1_554 S
Mn108 O132 2.385 1_554 S
Mn108 O133 2.209 1_654 S
Mn108 O134 2.094 . S
Mn109 O114 2.121 . S
Mn109 N116 2.257 1_554 S
Mn109 N125 2.282 . S
Mn109 O133 2.215 1_554 S
Mn109 O135 2.117 . S
C110 O132 1.234 1_455 S
C110 O133 1.283 . S
C111 O123 1.281 1_556 S
C111 O124 1.236 . S
C112 O134 1.240 . S
C112 O135 1.264 1_655 S
O113 Mn108 2.095 1_455 S
O113 C122 1.250 . S
O114 Mn109 2.121 . S
O114 C122 1.258 . S
C115 N116 1.326 . S
C115 C119 1.460 . S
C115 H121 0.929 . S
N116 Mn109 2.257 1_556 S
N116 C115 1.326 . S
N116 C120 1.362 . S
C117 C118 1.258 . S
C117 C120 1.431 . S
C117 C137 1.449 . S
C118 C117 1.258 . S
C118 C119 1.477 . S
C118 H138 0.931 . S
C119 C115 1.460 . S
C119 C118 1.477 . S
C119 H139 0.930 . S
C120 N116 1.362 . S
C120 C117 1.431 . S
C120 C130 1.476 . S
H121 C115 0.929 . S
C122 O113 1.250 . S
C122 O114 1.258 . S
O123 Mn108 2.162 . S
O123 C111 1.281 1_554 S
O124 Mn108 2.297 1_556 S
O124 C111 1.236 . S
N125 Mn109 2.282 . S
N125 C126 1.328 . S
N125 C130 1.318 1_554 S
C126 N125 1.328 . S
C126 C127 1.457 1_554 S
C126 H131 0.929 . S
C127 C126 1.457 1_556 S
C127 C128 1.291 . S
C127 H140 0.929 1_556 S
C128 C127 1.291 . S
C128 C129 1.373 . S
C128 H141 0.929 . S
C129 C128 1.373 . S
C129 C130 1.396 . S
C129 C136 1.403 . S
C130 C120 1.476 . S
C130 N125 1.318 1_556 S
C130 C129 1.396 . S
H131 C126 0.929 . S
O132 Mn108 2.385 1_556 S
O132 C110 1.234 1_655 S
O133 Mn108 2.209 1_456 S
O133 Mn109 2.215 1_556 S
O133 C110 1.283 . S
O134 Mn108 2.094 . S
O134 C112 1.240 . S
O135 Mn109 2.117 . S
O135 C112 1.264 1_455 S
C136 C129 1.403 . S
C136 C137 1.399 . S
C136 H142 0.929 . S
C137 C117 1.449 . S
C137 C136 1.399 . S
C137 H143 0.930 . S
H138 C118 0.931 . S
H139 C119 0.930 . S
H140 C127 0.929 1_554 S
H141 C128 0.929 . S
H142 C136 0.929 . S
H143 C137 0.930 . S
Mn144 O149 2.095 1_554 S
Mn144 O159 2.162 . S
Mn144 O160 2.297 . S
Mn144 O168 2.385 . S
Mn144 O169 2.209 . S
Mn144 O170 2.094 1_554 S
Mn145 O150 2.121 1_554 S
Mn145 N152 2.259 . S
Mn145 N161 2.283 . S
Mn145 O169 2.217 . S
Mn145 O171 2.115 1_554 S
C146 O168 1.234 . S
C146 O169 1.283 . S
C147 O159 1.281 . S
C147 O160 1.236 . S
C148 O170 1.240 . S
C148 O171 1.264 . S
O149 Mn144 2.095 1_556 S
O149 C158 1.250 . S
O150 Mn145 2.121 1_556 S
O150 C158 1.258 . S
C151 N152 1.326 . S
C151 C155 1.460 . S
C151 H157 0.929 . S
N152 Mn145 2.259 . S
N152 C151 1.326 . S
N152 C156 1.362 . S
C153 C154 1.258 . S
C153 C156 1.431 . S
C153 C173 1.449 . S
C154 C153 1.258 . S
C154 C155 1.477 . S
C154 H174 0.931 . S
C155 C151 1.460 . S
C155 C154 1.477 . S
C155 H175 0.930 . S
C156 N152 1.362 . S
C156 C153 1.431 . S
C156 C166 1.476 . S
H157 C151 0.929 . S
C158 O149 1.250 . S
C158 O150 1.258 . S
O159 Mn144 2.162 . S
O159 C147 1.281 . S
O160 Mn144 2.297 . S
O160 C147 1.236 . S
N161 Mn145 2.283 . S
N161 C162 1.328 . S
N161 C166 1.318 . S
C162 N161 1.328 . S
C162 C163 1.457 . S
C162 H167 0.962 . S
C163 C162 1.457 . S
C163 C164 1.291 . S
C163 H176 0.931 . S
C164 C163 1.291 . S
C164 C165 1.373 . S
C164 H177 0.929 . S
C165 C164 1.373 . S
C165 C166 1.396 . S
C165 C172 1.403 . S
C166 C156 1.476 . S
C166 N161 1.318 . S
C166 C165 1.396 . S
H167 C162 0.962 . S
O168 Mn144 2.385 . S
O168 C146 1.234 . S
O169 Mn144 2.209 . S
O169 Mn145 2.217 . S
O169 C146 1.283 . S
O170 Mn144 2.094 1_556 S
O170 C148 1.240 . S
O171 Mn145 2.115 1_556 S
O171 C148 1.264 . S
C172 C165 1.403 . S
C172 C173 1.399 . S
C172 H178 0.929 . S
C173 C153 1.449 . S
C173 C172 1.399 . S
C173 H179 0.930 . S
H174 C154 0.931 . S
H175 C155 0.930 . S
H176 C163 0.931 . S
H177 C164 0.929 . S
H178 C172 0.929 . S
H179 C173 0.930 . S
Mn180 O185 2.095 1_545 S
Mn180 O195 2.162 . S
Mn180 O196 2.297 1_554 S
Mn180 O204 2.385 1_554 S
Mn180 O205 2.209 1_544 S
Mn180 O206 2.094 . S
Mn181 O186 2.121 . S
Mn181 N188 2.257 1_554 S
Mn181 N197 2.282 . S
Mn181 O205 2.215 1_554 S
Mn181 O207 2.117 . S
C182 O204 1.216 1_565 S
C182 O205 1.300 . S
C183 O195 1.281 1_556 S
C183 O196 1.236 . S
C184 O206 1.240 . S
C184 O207 1.264 1_545 S
O185 Mn180 2.095 1_565 S
O185 C194 1.250 . S
O186 Mn181 2.121 . S
O186 C194 1.258 . S
C187 N188 1.326 . S
C187 C191 1.460 . S
C187 H193 0.929 . S
N188 Mn181 2.257 1_556 S
N188 C187 1.326 . S
N188 C192 1.362 . S
C189 C190 1.258 . S
C189 C192 1.431 . S
C189 C209 1.449 . S
C190 C189 1.258 . S
C190 C191 1.477 . S
C190 H210 0.931 . S
C191 C187 1.460 . S
C191 C190 1.477 . S
C191 H211 0.930 . S
C192 N188 1.362 . S
C192 C189 1.431 . S
C192 C202 1.476 . S
H193 C187 0.929 . S
C194 O185 1.250 . S
C194 O186 1.258 . S
O195 Mn180 2.162 . S
O195 C183 1.281 1_554 S
O196 Mn180 2.297 1_556 S
O196 C183 1.236 . S
N197 Mn181 2.282 . S
N197 C198 1.328 . S
N197 C202 1.318 1_554 S
C198 N197 1.328 . S
C198 C199 1.457 1_554 S
C198 H203 0.929 . S
C199 C198 1.457 1_556 S
C199 C200 1.291 . S
C199 H212 0.932 1_556 S
C200 C199 1.291 . S
C200 C201 1.373 . S
C200 H213 0.929 . S
C201 C200 1.373 . S
C201 C202 1.396 . S
C201 C208 1.403 . S
C202 C192 1.476 . S
C202 N197 1.318 1_556 S
C202 C201 1.396 . S
H203 C198 0.929 . S
O204 Mn180 2.385 1_556 S
O204 C182 1.216 1_545 S
O205 Mn180 2.209 1_566 S
O205 Mn181 2.215 1_556 S
O205 C182 1.300 . S
O206 Mn180 2.094 . S
O206 C184 1.240 . S
O207 Mn181 2.117 . S
O207 C184 1.264 1_565 S
C208 C201 1.403 . S
C208 C209 1.399 . S
C208 H214 0.929 . S
C209 C189 1.449 . S
C209 C208 1.399 . S
C209 H215 0.930 . S
H210 C190 0.931 . S
H211 C191 0.930 . S
H212 C199 0.932 1_554 S
H213 C200 0.929 . S
H214 C208 0.929 . S
H215 C209 0.930 . S
Mn216 O221 2.095 . S
Mn216 O231 2.162 . S
Mn216 O232 2.297 . S
Mn216 O240 2.385 . S
Mn216 O241 2.209 . S
Mn216 O242 2.094 . S
Mn217 O222 2.121 . S
Mn217 N224 2.257 . S
Mn217 N233 2.282 . S
Mn217 O241 2.215 . S
Mn217 O243 2.117 . S
C218 O240 1.234 . S
C218 O241 1.283 . S
C219 O231 1.281 . S
C219 O232 1.236 . S
C220 O242 1.240 . S
C220 O243 1.264 . S
O221 Mn216 2.095 . S
O221 C230 1.250 . S
O222 Mn217 2.121 . S
O222 C230 1.258 . S
C223 N224 1.326 . S
C223 C227 1.460 . S
C223 H229 0.929 . S
N224 Mn217 2.257 . S
N224 C223 1.326 . S
N224 C228 1.362 . S
C225 C226 1.258 . S
C225 C228 1.431 . S
C225 C245 1.449 . S
C226 C225 1.258 . S
C226 C227 1.477 . S
C226 H246 0.931 . S
C227 C223 1.460 . S
C227 C226 1.477 . S
C227 H247 0.930 . S
C228 N224 1.362 . S
C228 C225 1.431 . S
C228 C238 1.476 . S
H229 C223 0.929 . S
C230 O221 1.250 . S
C230 O222 1.258 . S
O231 Mn216 2.162 . S
O231 C219 1.281 . S
O232 Mn216 2.297 . S
O232 C219 1.236 . S
N233 Mn217 2.282 . S
N233 C234 1.328 . S
N233 C238 1.318 . S
C234 N233 1.328 . S
C234 C235 1.457 . S
C234 H239 0.929 . S
C235 C234 1.457 . S
C235 C236 1.291 . S
C235 H248 0.931 . S
C236 C235 1.291 . S
C236 C237 1.373 . S
C236 H249 0.929 . S
C237 C236 1.373 . S
C237 C238 1.396 . S
C237 C244 1.403 . S
C238 C228 1.476 . S
C238 N233 1.318 . S
C238 C237 1.396 . S
H239 C234 0.929 . S
O240 Mn216 2.385 . S
O240 C218 1.234 . S
O241 Mn216 2.209 . S
O241 Mn217 2.215 . S
O241 C218 1.283 . S
O242 Mn216 2.094 . S
O242 C220 1.240 . S
O243 Mn217 2.117 . S
O243 C220 1.264 . S
C244 C237 1.403 . S
C244 C245 1.399 . S
C244 H250 0.929 . S
C245 C225 1.449 . S
C245 C244 1.399 . S
C245 H251 0.930 . S
H246 C226 0.931 . S
H247 C227 0.930 . S
H248 C235 0.931 . S
H249 C236 0.929 . S
H250 C244 0.929 . S
H251 C245 0.930 . S
Mn252 O257 2.095 . S
Mn252 O267 2.162 1_565 S
Mn252 O268 2.297 1_565 S
Mn252 O276 2.385 . S
Mn252 O277 2.209 . S
Mn252 O278 2.094 . S
Mn253 O258 2.121 . S
Mn253 N260 2.257 . S
Mn253 N269 2.282 . S
Mn253 O277 2.215 . S
Mn253 O279 2.117 . S
C254 O276 1.234 . S
C254 O277 1.283 . S
C255 O267 1.281 . S
C255 O268 1.236 . S
C256 O278 1.240 . S
C256 O279 1.264 . S
O257 Mn252 2.095 . S
O257 C266 1.250 . S
O258 Mn253 2.121 . S
O258 C266 1.258 . S
C259 N260 1.326 . S
C259 C263 1.460 . S
C259 H265 0.929 . S
N260 Mn253 2.257 . S
N260 C259 1.326 . S
N260 C264 1.362 . S
C261 C262 1.258 . S
C261 C264 1.431 . S
C261 C281 1.449 . S
C262 C261 1.258 . S
C262 C263 1.477 . S
C262 H282 0.931 . S
C263 C259 1.460 . S
C263 C262 1.477 . S
C263 H283 0.930 . S
C264 N260 1.362 . S
C264 C261 1.431 . S
C264 C274 1.476 . S
H265 C259 0.929 . S
C266 O257 1.250 . S
C266 O258 1.258 . S
O267 Mn252 2.162 1_545 S
O267 C255 1.281 . S
O268 Mn252 2.297 1_545 S
O268 C255 1.236 . S
N269 Mn253 2.282 . S
N269 C270 1.328 . S
N269 C274 1.318 . S
C270 N269 1.328 . S
C270 C271 1.457 . S
C270 H275 0.929 . S
C271 C270 1.457 . S
C271 C272 1.291 . S
C271 H284 0.931 . S
C272 C271 1.291 . S
C272 C273 1.373 . S
C272 H285 0.929 . S
C273 C272 1.373 . S
C273 C274 1.396 . S
C273 C280 1.403 . S
C274 C264 1.476 . S
C274 N269 1.318 . S
C274 C273 1.396 . S
H275 C270 0.929 . S
O276 Mn252 2.385 . S
O276 C254 1.234 . S
O277 Mn252 2.209 . S
O277 Mn253 2.215 . S
O277 C254 1.283 . S
O278 Mn252 2.094 . S
O278 C256 1.240 . S
O279 Mn253 2.117 . S
O279 C256 1.264 . S
C280 C273 1.403 . S
C280 C281 1.399 . S
C280 H286 0.929 . S
C281 C261 1.449 . S
C281 C280 1.399 . S
C281 H287 0.930 . S
H282 C262 0.931 . S
H283 C263 0.930 . S
H284 C271 0.931 . S
H285 C272 0.929 . S
H286 C280 0.929 . S
H287 C281 0.930 . S
Mn288 O293 2.095 . S
Mn288 O303 2.162 1_455 S
Mn288 O304 2.297 1_455 S
Mn288 O312 2.385 . S
Mn288 O313 2.209 . S
Mn288 O314 2.094 . S
Mn289 O294 2.121 . S
Mn289 N296 2.257 . S
Mn289 N305 2.282 . S
Mn289 O313 2.215 . S
Mn289 O315 2.117 . S
C290 O312 1.234 . S
C290 O313 1.283 . S
C291 O303 1.281 . S
C291 O304 1.236 . S
C292 O314 1.240 . S
C292 O315 1.264 . S
O293 Mn288 2.095 . S
O293 C302 1.250 . S
O294 Mn289 2.121 . S
O294 C302 1.258 . S
C295 N296 1.326 . S
C295 C299 1.460 . S
C295 H301 0.929 . S
N296 Mn289 2.257 . S
N296 C295 1.326 . S
N296 C300 1.362 . S
C297 C298 1.258 . S
C297 C300 1.431 . S
C297 C317 1.449 . S
C298 C297 1.258 . S
C298 C299 1.477 . S
C298 H318 0.931 . S
C299 C295 1.460 . S
C299 C298 1.477 . S
C299 H319 0.930 . S
C300 N296 1.362 . S
C300 C297 1.431 . S
C300 C310 1.476 . S
H301 C295 0.929 . S
C302 O293 1.250 . S
C302 O294 1.258 . S
O303 Mn288 2.162 1_655 S
O303 C291 1.281 . S
O304 Mn288 2.297 1_655 S
O304 C291 1.236 . S
N305 Mn289 2.282 . S
N305 C306 1.328 . S
N305 C310 1.318 . S
C306 N305 1.328 . S
C306 C307 1.457 . S
C306 H311 0.929 . S
C307 C306 1.457 . S
C307 C308 1.291 . S
C307 H320 0.931 . S
C308 C307 1.291 . S
C308 C309 1.373 . S
C308 H321 0.929 . S
C309 C308 1.373 . S
C309 C310 1.396 . S
C309 C316 1.403 . S
C310 C300 1.476 . S
C310 N305 1.318 . S
C310 C309 1.396 . S
H311 C306 0.929 . S
O312 Mn288 2.385 . S
O312 C290 1.234 . S
O313 Mn288 2.209 . S
O313 Mn289 2.215 . S
O313 C290 1.283 . S
O314 Mn288 2.094 . S
O314 C292 1.240 . S
O315 Mn289 2.117 . S
O315 C292 1.264 . S
C316 C309 1.403 . S
C316 C317 1.399 . S
C316 H322 0.929 . S
C317 C297 1.449 . S
C317 C316 1.399 . S
C317 H323 0.930 . S
H318 C298 0.931 . S
H319 C299 0.930 . S
H320 C307 0.931 . S
H321 C308 0.929 . S
H322 C316 0.929 . S
H323 C317 0.930 . S
Mn324 O329 2.116 . S
Mn324 O339 2.162 . S
Mn324 O340 2.297 . S
Mn324 O348 2.385 . S
Mn324 O349 2.209 . S
Mn324 O350 2.094 . S
Mn325 O330 2.121 1_565 S
Mn325 N332 2.257 . S
Mn325 N341 2.282 . S
Mn325 O349 2.215 . S
Mn325 O351 2.117 . S
C326 O348 1.234 . S
C326 O349 1.283 . S
C327 O339 1.281 . S
C327 O340 1.236 . S
C328 O350 1.240 . S
C328 O351 1.264 . S
O329 Mn324 2.116 . S
O329 C338 1.243 1_565 S
O330 Mn325 2.121 1_545 S
O330 C338 1.258 . S
C331 N332 1.326 1_545 S
C331 C335 1.460 . S
C331 H337 0.929 . S
N332 Mn325 2.257 . S
N332 C331 1.326 1_565 S
N332 C336 1.362 . S
C333 C334 1.311 . S
C333 C336 1.431 . S
C333 C353 1.449 . S
C334 C333 1.311 . S
C334 C335 1.410 1_565 S
C334 H354 0.948 1_565 S
C335 C331 1.460 . S
C335 C334 1.410 1_545 S
C335 H355 0.930 . S
C336 N332 1.362 . S
C336 C333 1.431 . S
C336 C346 1.476 . S
H337 C331 0.929 . S
C338 O329 1.243 1_545 S
C338 O330 1.258 . S
O339 Mn324 2.162 . S
O339 C327 1.281 . S
O340 Mn324 2.297 . S
O340 C327 1.236 . S
N341 Mn325 2.282 . S
N341 C342 1.328 . S
N341 C346 1.318 . S
C342 N341 1.328 . S
C342 C343 1.457 . S
C342 H347 0.929 . S
C343 C342 1.457 . S
C343 C344 1.291 . S
C343 H356 0.931 . S
C344 C343 1.291 . S
C344 C345 1.373 . S
C344 H357 0.929 . S
C345 C344 1.373 . S
C345 C346 1.396 . S
C345 C352 1.403 . S
C346 C336 1.476 . S
C346 N341 1.318 . S
C346 C345 1.396 . S
H347 C342 0.929 . S
O348 Mn324 2.385 . S
O348 C326 1.234 . S
O349 Mn324 2.209 . S
O349 Mn325 2.215 . S
O349 C326 1.283 . S
O350 Mn324 2.094 . S
O350 C328 1.240 . S
O351 Mn325 2.117 . S
O351 C328 1.264 . S
C352 C345 1.403 . S
C352 C353 1.399 . S
C352 H358 0.929 . S
C353 C333 1.449 . S
C353 C352 1.399 . S
C353 H359 0.930 . S
H354 C334 0.948 1_545 S
H355 C335 0.930 . S
H356 C343 0.931 . S
H357 C344 0.929 . S
H358 C352 0.929 . S
H359 C353 0.930 . S
Mn360 O365 2.095 . S
Mn360 O375 2.162 1_455 S
Mn360 O376 2.297 1_455 S
Mn360 O384 2.385 . S
Mn360 O385 2.209 . S
Mn360 O386 2.094 . S
Mn361 O366 2.121 . S
Mn361 N368 2.257 . S
Mn361 N377 2.282 . S
Mn361 O385 2.215 . S
Mn361 O387 2.117 . S
C362 O384 1.234 . S
C362 O385 1.283 . S
C363 O375 1.281 . S
C363 O376 1.236 . S
C364 O386 1.240 . S
C364 O387 1.264 . S
O365 Mn360 2.095 . S
O365 C374 1.250 . S
O366 Mn361 2.121 . S
O366 C374 1.258 . S
C367 N368 1.326 . S
C367 C371 1.460 . S
C367 H373 0.929 . S
N368 Mn361 2.257 . S
N368 C367 1.326 . S
N368 C372 1.362 . S
C369 C370 1.258 . S
C369 C372 1.431 . S
C369 C389 1.449 . S
C370 C369 1.258 . S
C370 C371 1.477 . S
C370 H390 0.931 . S
C371 C367 1.460 . S
C371 C370 1.477 . S
C371 H391 0.930 . S
C372 N368 1.362 . S
C372 C369 1.431 . S
C372 C382 1.476 . S
H373 C367 0.929 . S
C374 O365 1.250 . S
C374 O366 1.258 . S
O375 Mn360 2.162 1_655 S
O375 C363 1.281 . S
O376 Mn360 2.297 1_655 S
O376 C363 1.236 . S
N377 Mn361 2.282 . S
N377 C378 1.328 . S
N377 C382 1.318 . S
C378 N377 1.328 . S
C378 C379 1.457 . S
C378 H383 0.929 . S
C379 C378 1.457 . S
C379 C380 1.291 . S
C379 H392 0.931 . S
C380 C379 1.291 . S
C380 C381 1.373 . S
C380 H393 0.929 . S
C381 C380 1.373 . S
C381 C382 1.396 . S
C381 C388 1.403 . S
C382 C372 1.476 . S
C382 N377 1.318 . S
C382 C381 1.396 . S
H383 C378 0.929 . S
O384 Mn360 2.385 . S
O384 C362 1.234 . S
O385 Mn360 2.209 . S
O385 Mn361 2.215 . S
O385 C362 1.283 . S
O386 Mn360 2.094 . S
O386 C364 1.240 . S
O387 Mn361 2.117 . S
O387 C364 1.264 . S
C388 C381 1.403 . S
C388 C389 1.399 . S
C388 H394 0.929 . S
C389 C369 1.449 . S
C389 C388 1.399 . S
C389 H395 0.930 . S
H390 C370 0.931 . S
H391 C371 0.930 . S
H392 C379 0.931 . S
H393 C380 0.929 . S
H394 C388 0.929 . S
H395 C389 0.930 . S
Mn396 O401 2.095 . S
Mn396 O411 2.162 . S
Mn396 O412 2.297 . S
Mn396 O420 2.385 . S
Mn396 O421 2.209 . S
Mn396 O422 2.094 . S
Mn397 O402 2.121 . S
Mn397 N404 2.257 . S
Mn397 N413 2.282 . S
Mn397 O421 2.215 . S
Mn397 O423 2.117 . S
C398 O420 1.234 . S
C398 O421 1.283 . S
C399 O411 1.281 . S
C399 O412 1.236 . S
C400 O422 1.240 . S
C400 O423 1.264 . S
O401 Mn396 2.095 . S
O401 C410 1.250 . S
O402 Mn397 2.121 . S
O402 C410 1.258 . S
C403 N404 1.326 . S
C403 C407 1.460 . S
C403 H409 0.929 . S
N404 Mn397 2.257 . S
N404 C403 1.326 . S
N404 C408 1.362 . S
C405 C406 1.258 . S
C405 C408 1.431 . S
C405 C425 1.449 . S
C406 C405 1.258 . S
C406 C407 1.477 . S
C406 H426 0.931 . S
C407 C403 1.460 . S
C407 C406 1.477 . S
C407 H427 0.930 . S
C408 N404 1.362 . S
C408 C405 1.431 . S
C408 C418 1.476 . S
H409 C403 0.929 . S
C410 O401 1.250 . S
C410 O402 1.258 . S
O411 Mn396 2.162 . S
O411 C399 1.281 . S
O412 Mn396 2.297 . S
O412 C399 1.236 . S
N413 Mn397 2.282 . S
N413 C414 1.328 . S
N413 C418 1.318 . S
C414 N413 1.328 . S
C414 C415 1.457 . S
C414 H419 0.929 . S
C415 C414 1.457 . S
C415 C416 1.291 . S
C415 H428 0.931 . S
C416 C415 1.291 . S
C416 C417 1.373 . S
C416 H429 0.929 . S
C417 C416 1.373 . S
C417 C418 1.396 . S
C417 C424 1.403 . S
C418 C408 1.476 . S
C418 N413 1.318 . S
C418 C417 1.396 . S
H419 C414 0.929 . S
O420 Mn396 2.385 . S
O420 C398 1.234 . S
O421 Mn396 2.209 . S
O421 Mn397 2.215 . S
O421 C398 1.283 . S
O422 Mn396 2.094 . S
O422 C400 1.240 . S
O423 Mn397 2.117 . S
O423 C400 1.264 . S
C424 C417 1.403 . S
C424 C425 1.399 . S
C424 H430 0.929 . S
C425 C405 1.449 . S
C425 C424 1.399 . S
C425 H431 0.930 . S
H426 C406 0.931 . S
H427 C407 0.930 . S
H428 C415 0.931 . S
H429 C416 0.929 . S
H430 C424 0.929 . S
H431 C425 0.930 . S
Mn432 O437 2.095 . S
Mn432 O447 2.162 1_545 S
Mn432 O448 2.297 1_545 S
Mn432 O456 2.385 . S
Mn432 O457 2.209 . S
Mn432 O458 2.094 . S
Mn433 O438 2.121 . S
Mn433 N440 2.257 . S
Mn433 N449 2.282 . S
Mn433 O457 2.215 . S
Mn433 O459 2.117 . S
C434 O456 1.234 . S
C434 O457 1.283 . S
C435 O447 1.281 . S
C435 O448 1.236 . S
C436 O458 1.240 . S
C436 O459 1.264 . S
O437 Mn432 2.095 . S
O437 C446 1.250 . S
O438 Mn433 2.121 . S
O438 C446 1.258 . S
C439 N440 1.326 . S
C439 C443 1.460 . S
C439 H445 0.929 . S
N440 Mn433 2.257 . S
N440 C439 1.326 . S
N440 C444 1.362 . S
C441 C442 1.258 . S
C441 C444 1.431 . S
C441 C461 1.449 . S
C442 C441 1.258 . S
C442 C443 1.477 . S
C442 H462 0.931 . S
C443 C439 1.460 . S
C443 C442 1.477 . S
C443 H463 0.930 . S
C444 N440 1.362 . S
C444 C441 1.431 . S
C444 C454 1.476 . S
H445 C439 0.929 . S
C446 O437 1.250 . S
C446 O438 1.258 . S
O447 Mn432 2.162 1_565 S
O447 C435 1.281 . S
O448 Mn432 2.297 1_565 S
O448 C435 1.236 . S
N449 Mn433 2.282 . S
N449 C450 1.328 . S
N449 C454 1.318 . S
C450 N449 1.328 . S
C450 C451 1.457 . S
C450 H455 0.929 . S
C451 C450 1.457 . S
C451 C452 1.291 . S
C451 H464 0.931 . S
C452 C451 1.291 . S
C452 C453 1.373 . S
C452 H465 0.929 . S
C453 C452 1.373 . S
C453 C454 1.396 . S
C453 C460 1.403 . S
C454 C444 1.476 . S
C454 N449 1.318 . S
C454 C453 1.396 . S
H455 C450 0.929 . S
O456 Mn432 2.385 . S
O456 C434 1.234 . S
O457 Mn432 2.209 . S
O457 Mn433 2.215 . S
O457 C434 1.283 . S
O458 Mn432 2.094 . S
O458 C436 1.240 . S
O459 Mn433 2.117 . S
O459 C436 1.264 . S
C460 C453 1.403 . S
C460 C461 1.399 . S
C460 H466 0.929 . S
C461 C441 1.449 . S
C461 C460 1.399 . S
C461 H467 0.930 . S
H462 C442 0.931 . S
H463 C443 0.930 . S
H464 C451 0.931 . S
H465 C452 0.929 . S
H466 C460 0.929 . S
H467 C461 0.930 . S
Mn468 O473 2.095 . S
Mn468 O483 2.162 . S
Mn468 O484 2.297 . S
Mn468 O492 2.385 . S
Mn468 O493 2.209 . S
Mn468 O494 2.094 . S
Mn469 O474 2.121 1_655 S
Mn469 N476 2.257 . S
Mn469 N485 2.282 . S
Mn469 O493 2.215 . S
Mn469 O495 2.117 . S
C470 O492 1.234 . S
C470 O493 1.283 . S
C471 O483 1.281 . S
C471 O484 1.236 . S
C472 O494 1.240 . S
C472 O495 1.264 . S
O473 Mn468 2.095 . S
O473 C482 1.250 1_655 S
O474 Mn469 2.121 1_455 S
O474 C482 1.258 . S
C475 N476 1.326 1_455 S
C475 C479 1.460 . S
C475 H481 0.929 . S
N476 Mn469 2.257 . S
N476 C475 1.326 1_655 S
N476 C480 1.362 . S
C477 C478 1.258 . S
C477 C480 1.431 . S
C477 C497 1.449 . S
C478 C477 1.258 . S
C478 C479 1.477 1_655 S
C478 H498 0.931 1_655 S
C479 C475 1.460 . S
C479 C478 1.477 1_455 S
C479 H499 0.930 . S
C480 N476 1.362 . S
C480 C477 1.431 . S
C480 C490 1.476 . S
H481 C475 0.929 . S
C482 O473 1.250 1_455 S
C482 O474 1.258 . S
O483 Mn468 2.162 . S
O483 C471 1.281 . S
O484 Mn468 2.297 . S
O484 C471 1.236 . S
N485 Mn469 2.282 . S
N485 C486 1.328 . S
N485 C490 1.318 . S
C486 N485 1.328 . S
C486 C487 1.457 . S
C486 H491 0.929 . S
C487 C486 1.457 . S
C487 C488 1.291 . S
C487 H500 0.931 . S
C488 C487 1.291 . S
C488 C489 1.373 . S
C488 H501 0.929 . S
C489 C488 1.373 . S
C489 C490 1.396 . S
C489 C496 1.403 . S
C490 C480 1.476 . S
C490 N485 1.318 . S
C490 C489 1.396 . S
H491 C486 0.929 . S
O492 Mn468 2.385 . S
O492 C470 1.234 . S
O493 Mn468 2.209 . S
O493 Mn469 2.215 . S
O493 C470 1.283 . S
O494 Mn468 2.094 . S
O494 C472 1.240 . S
O495 Mn469 2.117 . S
O495 C472 1.264 . S
C496 C489 1.403 . S
C496 C497 1.399 . S
C496 H502 0.929 . S
C497 C477 1.449 . S
C497 C496 1.399 . S
C497 H503 0.930 . S
H498 C478 0.931 1_455 S
H499 C479 0.930 . S
H500 C487 0.931 . S
H501 C488 0.929 . S
H502 C496 0.929 . S
H503 C497 0.930 . S
Mn504 O509 2.095 . S
Mn504 O519 2.162 . S
Mn504 O520 2.297 . S
Mn504 O528 2.385 . S
Mn504 O529 2.209 . S
Mn504 O530 2.094 . S
Mn505 O510 2.121 . S
Mn505 N512 2.257 . S
Mn505 N521 2.282 . S
Mn505 O529 2.215 . S
Mn505 O531 2.117 . S
C506 O528 1.234 . S
C506 O529 1.283 . S
C507 O519 1.281 . S
C507 O520 1.236 . S
C508 O530 1.240 . S
C508 O531 1.264 . S
O509 Mn504 2.095 . S
O509 C518 1.250 . S
O510 Mn505 2.121 . S
O510 C518 1.258 . S
C511 N512 1.326 . S
C511 C515 1.460 . S
C511 H517 0.929 . S
N512 Mn505 2.257 . S
N512 C511 1.326 . S
N512 C516 1.362 . S
C513 C514 1.258 . S
C513 C516 1.431 . S
C513 C533 1.449 . S
C514 C513 1.258 . S
C514 C515 1.477 . S
C514 H534 0.931 . S
C515 C511 1.460 . S
C515 C514 1.477 . S
C515 H535 0.930 . S
C516 N512 1.362 . S
C516 C513 1.431 . S
C516 C526 1.476 . S
H517 C511 0.929 . S
C518 O509 1.250 . S
C518 O510 1.258 . S
O519 Mn504 2.162 . S
O519 C507 1.281 . S
O520 Mn504 2.297 . S
O520 C507 1.236 . S
N521 Mn505 2.282 . S
N521 C522 1.328 . S
N521 C526 1.318 . S
C522 N521 1.328 . S
C522 C523 1.457 . S
C522 H527 0.929 . S
C523 C522 1.457 . S
C523 C524 1.291 . S
C523 H536 0.931 . S
C524 C523 1.291 . S
C524 C525 1.373 . S
C524 H537 0.929 . S
C525 C524 1.373 . S
C525 C526 1.396 . S
C525 C532 1.403 . S
C526 C516 1.476 . S
C526 N521 1.318 . S
C526 C525 1.396 . S
H527 C522 0.929 . S
O528 Mn504 2.385 . S
O528 C506 1.234 . S
O529 Mn504 2.209 . S
O529 Mn505 2.215 . S
O529 C506 1.283 . S
O530 Mn504 2.094 . S
O530 C508 1.240 . S
O531 Mn505 2.117 . S
O531 C508 1.264 . S
C532 C525 1.403 . S
C532 C533 1.399 . S
C532 H538 0.929 . S
C533 C513 1.449 . S
C533 C532 1.399 . S
C533 H539 0.930 . S
H534 C514 0.931 . S
H535 C515 0.930 . S
H536 C523 0.931 . S
H537 C524 0.929 . S
H538 C532 0.929 . S
H539 C533 0.930 . S
Mn540 O545 2.095 . S
Mn540 O555 2.162 . S
Mn540 O556 2.297 . S
Mn540 O564 2.385 . S
Mn540 O565 2.209 . S
Mn540 O566 2.094 . S
Mn541 O546 2.121 . S
Mn541 N548 2.257 . S
Mn541 N557 2.282 . S
Mn541 O565 2.215 . S
Mn541 O567 2.117 . S
C542 O564 1.234 . S
C542 O565 1.283 . S
C543 O555 1.281 . S
C543 O556 1.236 . S
C544 O566 1.240 . S
C544 O567 1.264 . S
O545 Mn540 2.095 . S
O545 C554 1.250 . S
O546 Mn541 2.121 . S
O546 C554 1.258 . S
C547 N548 1.326 . S
C547 C551 1.460 . S
C547 H553 0.929 . S
N548 Mn541 2.257 . S
N548 C547 1.326 . S
N548 C552 1.362 . S
C549 C550 1.258 . S
C549 C552 1.431 . S
C549 C569 1.449 . S
C550 C549 1.258 . S
C550 C551 1.477 . S
C550 H570 0.931 . S
C551 C547 1.460 . S
C551 C550 1.477 . S
C551 H571 0.930 . S
C552 N548 1.362 . S
C552 C549 1.431 . S
C552 C562 1.476 . S
H553 C547 0.929 . S
C554 O545 1.250 . S
C554 O546 1.258 . S
O555 Mn540 2.162 . S
O555 C543 1.281 . S
O556 Mn540 2.297 . S
O556 C543 1.236 . S
N557 Mn541 2.282 . S
N557 C558 1.328 . S
N557 C562 1.318 . S
C558 N557 1.328 . S
C558 C559 1.457 . S
C558 H563 0.929 . S
C559 C558 1.457 . S
C559 C560 1.291 . S
C559 H572 0.931 . S
C560 C559 1.291 . S
C560 C561 1.373 . S
C560 H573 0.929 . S
C561 C560 1.373 . S
C561 C562 1.396 . S
C561 C568 1.403 . S
C562 C552 1.476 . S
C562 N557 1.318 . S
C562 C561 1.396 . S
H563 C558 0.929 . S
O564 Mn540 2.385 . S
O564 C542 1.234 . S
O565 Mn540 2.209 . S
O565 Mn541 2.215 . S
O565 C542 1.283 . S
O566 Mn540 2.094 . S
O566 C544 1.240 . S
O567 Mn541 2.117 . S
O567 C544 1.264 . S
C568 C561 1.403 . S
C568 C569 1.399 . S
C568 H574 0.929 . S
C569 C549 1.449 . S
C569 C568 1.399 . S
C569 H575 0.930 . S
H570 C550 0.931 . S
H571 C551 0.930 . S
H572 C559 0.931 . S
H573 C560 0.929 . S
H574 C568 0.929 . S
H575 C569 0.930 . S
Mn576 O581 2.084 1_545 S
Mn576 O591 2.162 . S
Mn576 O592 2.297 . S
Mn576 O600 2.385 . S
Mn576 O601 2.209 . S
Mn576 O602 2.094 . S
Mn577 O582 2.121 1_545 S
Mn577 N584 2.257 . S
Mn577 N593 2.282 . S
Mn577 O601 2.215 . S
Mn577 O603 2.117 . S
C578 O600 1.234 . S
C578 O601 1.283 . S
C579 O591 1.281 . S
C579 O592 1.236 . S
C580 O602 1.240 . S
C580 O603 1.264 . S
O581 Mn576 2.084 1_565 S
O581 C590 1.263 . S
O582 Mn577 2.121 1_565 S
O582 C590 1.258 . S
C583 N584 1.326 1_565 S
C583 C587 1.460 . S
C583 H589 0.929 . S
N584 Mn577 2.257 . S
N584 C583 1.326 1_545 S
N584 C588 1.362 . S
C585 C586 1.253 1_545 S
C585 C588 1.431 . S
C585 C605 1.449 . S
C586 C585 1.253 1_565 S
C586 C587 1.479 . S
C586 H606 0.934 . S
C587 C583 1.460 . S
C587 C586 1.479 . S
C587 H607 0.930 . S
C588 N584 1.362 . S
C588 C585 1.431 . S
C588 C598 1.476 . S
H589 C583 0.929 . S
C590 O581 1.263 . S
C590 O582 1.258 . S
O591 Mn576 2.162 . S
O591 C579 1.281 . S
O592 Mn576 2.297 . S
O592 C579 1.236 . S
N593 Mn577 2.282 . S
N593 C594 1.328 . S
N593 C598 1.318 . S
C594 N593 1.328 . S
C594 C595 1.457 . S
C594 H599 0.929 . S
C595 C594 1.457 . S
C595 C596 1.291 . S
C595 H608 0.931 . S
C596 C595 1.291 . S
C596 C597 1.373 . S
C596 H609 0.929 . S
C597 C596 1.373 . S
C597 C598 1.396 . S
C597 C604 1.403 . S
C598 C588 1.476 . S
C598 N593 1.318 . S
C598 C597 1.396 . S
H599 C594 0.929 . S
O600 Mn576 2.385 . S
O600 C578 1.234 . S
O601 Mn576 2.209 . S
O601 Mn577 2.215 . S
O601 C578 1.283 . S
O602 Mn576 2.094 . S
O602 C580 1.240 . S
O603 Mn577 2.117 . S
O603 C580 1.264 . S
C604 C597 1.403 . S
C604 C605 1.399 . S
C604 H610 0.929 . S
C605 C585 1.449 . S
C605 C604 1.399 . S
C605 H611 0.930 . S
H606 C586 0.934 . S
H607 C587 0.930 . S
H608 C595 0.931 . S
H609 C596 0.929 . S
H610 C604 0.929 . S
H611 C605 0.930 . S
Mn612 O617 2.095 . S
Mn612 O627 2.162 1_655 S
Mn612 O628 2.297 1_655 S
Mn612 O636 2.385 . S
Mn612 O637 2.209 . S
Mn612 O638 2.094 . S
Mn613 O618 2.121 . S
Mn613 N620 2.257 . S
Mn613 N629 2.282 . S
Mn613 O637 2.215 . S
Mn613 O639 2.117 . S
C614 O636 1.234 . S
C614 O637 1.283 . S
C615 O627 1.281 . S
C615 O628 1.236 . S
C616 O638 1.240 . S
C616 O639 1.264 . S
O617 Mn612 2.095 . S
O617 C626 1.250 . S
O618 Mn613 2.121 . S
O618 C626 1.258 . S
C619 N620 1.326 . S
C619 C623 1.460 . S
C619 H625 0.929 . S
N620 Mn613 2.257 . S
N620 C619 1.326 . S
N620 C624 1.362 . S
C621 C622 1.258 . S
C621 C624 1.431 . S
C621 C641 1.449 . S
C622 C621 1.258 . S
C622 C623 1.477 . S
C622 H642 0.931 . S
C623 C619 1.460 . S
C623 C622 1.477 . S
C623 H643 0.930 . S
C624 N620 1.362 . S
C624 C621 1.431 . S
C624 C634 1.476 . S
H625 C619 0.929 . S
C626 O617 1.250 . S
C626 O618 1.258 . S
O627 Mn612 2.162 1_455 S
O627 C615 1.281 . S
O628 Mn612 2.297 1_455 S
O628 C615 1.236 . S
N629 Mn613 2.282 . S
N629 C630 1.328 . S
N629 C634 1.318 . S
C630 N629 1.328 . S
C630 C631 1.457 . S
C630 H635 0.929 . S
C631 C630 1.457 . S
C631 C632 1.291 . S
C631 H644 0.931 . S
C632 C631 1.291 . S
C632 C633 1.373 . S
C632 H645 0.929 . S
C633 C632 1.373 . S
C633 C634 1.396 . S
C633 C640 1.403 . S
C634 C624 1.476 . S
C634 N629 1.318 . S
C634 C633 1.396 . S
H635 C630 0.929 . S
O636 Mn612 2.385 . S
O636 C614 1.234 . S
O637 Mn612 2.209 . S
O637 Mn613 2.215 . S
O637 C614 1.283 . S
O638 Mn612 2.094 . S
O638 C616 1.240 . S
O639 Mn613 2.117 . S
O639 C616 1.264 . S
C640 C633 1.403 . S
C640 C641 1.399 . S
C640 H646 0.929 . S
C641 C621 1.449 . S
C641 C640 1.399 . S
C641 H647 0.930 . S
H642 C622 0.931 . S
H643 C623 0.930 . S
H644 C631 0.931 . S
H645 C632 0.929 . S
H646 C640 0.929 . S
H647 C641 0.930 . S
H648 C667 0.949 . S
H649 C668 0.950 . S
H650 C670 0.950 . S
H651 C671 0.950 . S
H652 C673 0.950 . S
H653 C676 0.950 . S
H654 C677 0.950 . S
H655 C679 0.951 . S
H656 C680 0.949 . S
H657 C682 0.949 . S
H658 C683 0.950 . S
H659 C685 0.950 . S
H660 C686 0.950 . S
H661 C688 0.950 . S
H662 C691 0.950 . S
H663 C692 0.950 . S
H664 C694 0.951 . S
H665 C695 0.949 . S
C666 C667 1.376 . S
C666 C671 1.386 . S
C666 C672 1.483 . S
C667 H648 0.949 . S
C667 C666 1.376 . S
C667 C668 1.397 . S
C668 H649 0.950 . S
C668 C667 1.397 . S
C668 C669 1.391 . S
C669 C668 1.391 . S
C669 C670 1.405 . S
C670 H650 0.950 . S
C670 C669 1.405 . S
C670 C671 1.367 . S
C671 H651 0.950 . S
C671 C666 1.386 . S
C671 C670 1.367 . S
C672 C666 1.483 . S
C672 C673 1.382 . S
C672 C674 1.403 . S
C673 H652 0.950 . S
C673 C672 1.382 . S
C673 C689 1.411 . S
C674 C672 1.403 . S
C674 C675 1.489 . S
C674 C688 1.411 . S
C675 C674 1.489 . S
C675 C676 1.383 . S
C675 C680 1.382 . S
C676 H653 0.950 . S
C676 C675 1.383 . S
C676 C677 1.395 . S
C677 H654 0.950 . S
C677 C676 1.395 . S
C677 C678 1.288 . S
C678 C677 1.288 . S
C678 C679 1.392 . S
C679 H655 0.951 . S
C679 C678 1.392 . S
C679 C680 1.392 . S
C680 H656 0.949 . S
C680 C675 1.382 . S
C680 C679 1.392 . S
C681 C682 1.376 . S
C681 C686 1.386 . S
C681 C687 1.483 . S
C682 H657 0.949 . S
C682 C681 1.376 . S
C682 C683 1.397 . S
C683 H658 0.950 . S
C683 C682 1.397 . S
C683 C684 1.391 . S
C684 C683 1.391 . S
C684 C685 1.405 . S
C685 H659 0.950 . S
C685 C684 1.405 . S
C685 C686 1.367 . S
C686 H660 0.950 . S
C686 C681 1.386 . S
C686 C685 1.367 . S
C687 C681 1.483 . S
C687 C688 1.382 . S
C687 C689 1.403 . S
C688 H661 0.950 . S
C688 C674 1.411 . S
C688 C687 1.382 . S
C689 C673 1.411 . S
C689 C687 1.403 . S
C689 C690 1.489 . S
C690 C689 1.489 . S
C690 C691 1.383 . S
C690 C695 1.382 . S
C691 H662 0.950 . S
C691 C690 1.383 . S
C691 C692 1.395 . S
C692 H663 0.950 . S
C692 C691 1.395 . S
C692 C693 1.288 . S
C693 C692 1.288 . S
C693 C694 1.392 . S
C694 H664 0.951 . S
C694 C693 1.392 . S
C694 C695 1.392 . S
C695 H665 0.949 . S
C695 C690 1.382 . S
C695 C694 1.392 . S
H696 C715 0.949 . S
H697 C716 0.950 . S
H698 C718 0.950 . S
H699 C719 0.950 . S
H700 C721 0.950 . S
H701 C724 0.950 . S
H702 C725 0.950 . S
H703 C727 0.951 . S
H704 C728 0.949 . S
H705 C730 0.949 . S
H706 C731 0.950 . S
H707 C733 0.950 . S
H708 C734 0.950 . S
H709 C736 0.950 . S
H710 C739 0.950 . S
H711 C740 0.950 . S
H712 C742 0.951 . S
H713 C743 0.949 . S
C714 C715 1.376 . S
C714 C719 1.386 . S
C714 C720 1.483 . S
C715 H696 0.949 . S
C715 C714 1.376 . S
C715 C716 1.397 . S
C716 H697 0.950 . S
C716 C715 1.397 . S
C716 C717 1.391 . S
C717 C716 1.391 . S
C717 C718 1.405 . S
C718 H698 0.950 . S
C718 C717 1.405 . S
C718 C719 1.367 . S
C719 H699 0.950 . S
C719 C714 1.386 . S
C719 C718 1.367 . S
C720 C714 1.483 . S
C720 C721 1.382 . S
C720 C722 1.403 . S
C721 H700 0.950 . S
C721 C720 1.382 . S
C721 C737 1.411 . S
C722 C720 1.403 . S
C722 C723 1.489 . S
C722 C736 1.411 . S
C723 C722 1.489 . S
C723 C724 1.383 . S
C723 C728 1.382 . S
C724 H701 0.950 . S
C724 C723 1.383 . S
C724 C725 1.395 . S
C725 H702 0.950 . S
C725 C724 1.395 . S
C725 C726 1.288 . S
C726 C725 1.288 . S
C726 C727 1.392 . S
C727 H703 0.951 . S
C727 C726 1.392 . S
C727 C728 1.392 . S
C728 H704 0.949 . S
C728 C723 1.382 . S
C728 C727 1.392 . S
C729 C730 1.376 . S
C729 C734 1.386 . S
C729 C735 1.483 . S
C730 H705 0.949 . S
C730 C729 1.376 . S
C730 C731 1.397 . S
C731 H706 0.950 . S
C731 C730 1.397 . S
C731 C732 1.391 . S
C732 C731 1.391 . S
C732 C733 1.405 . S
C733 H707 0.950 . S
C733 C732 1.405 . S
C733 C734 1.367 . S
C734 H708 0.950 . S
C734 C729 1.386 . S
C734 C733 1.367 . S
C735 C729 1.483 . S
C735 C736 1.382 . S
C735 C737 1.403 . S
C736 H709 0.950 . S
C736 C722 1.411 . S
C736 C735 1.382 . S
C737 C721 1.411 . S
C737 C735 1.403 . S
C737 C738 1.489 . S
C738 C737 1.489 . S
C738 C739 1.383 . S
C738 C743 1.382 . S
C739 H710 0.950 . S
C739 C738 1.383 . S
C739 C740 1.395 . S
C740 H711 0.950 . S
C740 C739 1.395 . S
C740 C741 1.288 . S
C741 C740 1.288 . S
C741 C742 1.392 . S
C742 H712 0.951 . S
C742 C741 1.392 . S
C742 C743 1.392 . S
C743 H713 0.949 . S
C743 C738 1.382 . S
C743 C742 1.392 . S
H744 C763 0.949 . S
H745 C764 0.950 . S
H746 C766 0.950 . S
H747 C767 0.950 . S
H748 C769 0.950 . S
H749 C772 0.950 . S
H750 C773 0.950 . S
H751 C775 0.951 . S
H752 C776 0.949 . S
H753 C778 0.949 . S
H754 C779 0.950 . S
H755 C781 0.950 . S
H756 C782 0.950 . S
H757 C784 0.950 . S
H758 C787 0.950 . S
H759 C788 0.950 . S
H760 C790 0.951 . S
H761 C791 0.949 . S
C762 C763 1.376 . S
C762 C767 1.386 . S
C762 C768 1.483 . S
C763 H744 0.949 . S
C763 C762 1.376 . S
C763 C764 1.397 . S
C764 H745 0.950 . S
C764 C763 1.397 . S
C764 C765 1.391 . S
C765 C764 1.391 . S
C765 C766 1.405 . S
C766 H746 0.950 . S
C766 C765 1.405 . S
C766 C767 1.367 . S
C767 H747 0.950 . S
C767 C762 1.386 . S
C767 C766 1.367 . S
C768 C762 1.483 . S
C768 C769 1.382 . S
C768 C770 1.403 . S
C769 H748 0.950 . S
C769 C768 1.382 . S
C769 C785 1.411 . S
C770 C768 1.403 . S
C770 C771 1.489 . S
C770 C784 1.411 . S
C771 C770 1.489 . S
C771 C772 1.383 . S
C771 C776 1.382 . S
C772 H749 0.950 . S
C772 C771 1.383 . S
C772 C773 1.395 . S
C773 H750 0.950 . S
C773 C772 1.395 . S
C773 C774 1.288 . S
C774 C773 1.288 . S
C774 C775 1.392 . S
C775 H751 0.951 . S
C775 C774 1.392 . S
C775 C776 1.392 . S
C776 H752 0.949 . S
C776 C771 1.382 . S
C776 C775 1.392 . S
C777 C778 1.376 . S
C777 C782 1.386 . S
C777 C783 1.483 . S
C778 H753 0.949 . S
C778 C777 1.376 . S
C778 C779 1.397 . S
C779 H754 0.950 . S
C779 C778 1.397 . S
C779 C780 1.391 . S
C780 C779 1.391 . S
C780 C781 1.405 . S
C781 H755 0.950 . S
C781 C780 1.405 . S
C781 C782 1.367 . S
C782 H756 0.950 . S
C782 C777 1.386 . S
C782 C781 1.367 . S
C783 C777 1.483 . S
C783 C784 1.382 . S
C783 C785 1.403 . S
C784 H757 0.950 . S
C784 C770 1.411 . S
C784 C783 1.382 . S
C785 C769 1.411 . S
C785 C783 1.403 . S
C785 C786 1.489 . S
C786 C785 1.489 . S
C786 C787 1.383 . S
C786 C791 1.382 . S
C787 H758 0.950 . S
C787 C786 1.383 . S
C787 C788 1.395 . S
C788 H759 0.950 . S
C788 C787 1.395 . S
C788 C789 1.288 . S
C789 C788 1.288 . S
C789 C790 1.392 . S
C790 H760 0.951 . S
C790 C789 1.392 . S
C790 C791 1.392 . S
C791 H761 0.949 . S
C791 C786 1.382 . S
C791 C790 1.392 . S
H792 C811 0.949 . S
H793 C812 0.950 . S
H794 C814 0.950 . S
H795 C815 0.950 . S
H796 C817 0.950 . S
H797 C820 0.950 . S
H798 C821 0.950 . S
H799 C823 0.951 . S
H800 C824 0.949 . S
H801 C826 0.949 . S
H802 C827 0.950 . S
H803 C829 0.950 . S
H804 C830 0.950 . S
H805 C832 0.950 . S
H806 C835 0.950 . S
H807 C836 0.950 . S
H808 C838 0.951 . S
H809 C839 0.949 . S
C810 C811 1.376 . S
C810 C815 1.386 . S
C810 C816 1.483 . S
C811 H792 0.949 . S
C811 C810 1.376 . S
C811 C812 1.397 . S
C812 H793 0.950 . S
C812 C811 1.397 . S
C812 C813 1.391 . S
C813 C812 1.391 . S
C813 C814 1.405 . S
C814 H794 0.950 . S
C814 C813 1.405 . S
C814 C815 1.367 . S
C815 H795 0.950 . S
C815 C810 1.386 . S
C815 C814 1.367 . S
C816 C810 1.483 . S
C816 C817 1.382 . S
C816 C818 1.403 . S
C817 H796 0.950 . S
C817 C816 1.382 . S
C817 C833 1.411 . S
C818 C816 1.403 . S
C818 C819 1.489 . S
C818 C832 1.411 . S
C819 C818 1.489 . S
C819 C820 1.383 . S
C819 C824 1.382 . S
C820 H797 0.950 . S
C820 C819 1.383 . S
C820 C821 1.395 . S
C821 H798 0.950 . S
C821 C820 1.395 . S
C821 C822 1.288 . S
C822 C821 1.288 . S
C822 C823 1.392 . S
C823 H799 0.951 . S
C823 C822 1.392 . S
C823 C824 1.392 . S
C824 H800 0.949 . S
C824 C819 1.382 . S
C824 C823 1.392 . S
C825 C826 1.376 . S
C825 C830 1.386 . S
C825 C831 1.483 . S
C826 H801 0.949 . S
C826 C825 1.376 . S
C826 C827 1.397 . S
C827 H802 0.950 . S
C827 C826 1.397 . S
C827 C828 1.391 . S
C828 C827 1.391 . S
C828 C829 1.405 . S
C829 H803 0.950 . S
C829 C828 1.405 . S
C829 C830 1.367 . S
C830 H804 0.950 . S
C830 C825 1.386 . S
C830 C829 1.367 . S
C831 C825 1.483 . S
C831 C832 1.382 . S
C831 C833 1.403 . S
C832 H805 0.950 . S
C832 C818 1.411 . S
C832 C831 1.382 . S
C833 C817 1.411 . S
C833 C831 1.403 . S
C833 C834 1.489 . S
C834 C833 1.489 . S
C834 C835 1.383 . S
C834 C839 1.382 . S
C835 H806 0.950 . S
C835 C834 1.383 . S
C835 C836 1.395 . S
C836 H807 0.950 . S
C836 C835 1.395 . S
C836 C837 1.288 . S
C837 C836 1.288 . S
C837 C838 1.392 . S
C838 H808 0.951 . S
C838 C837 1.392 . S
C838 C839 1.392 . S
C839 H809 0.949 . S
C839 C834 1.382 . S
C839 C838 1.392 . S
H840 C859 0.949 . S
H841 C860 0.950 . S
H842 C862 0.950 . S
H843 C863 0.950 . S
H844 C865 0.950 . S
H845 C868 0.950 . S
H846 C869 0.950 . S
H847 C871 0.951 . S
H848 C872 0.949 . S
H849 C874 0.949 . S
H850 C875 0.950 . S
H851 C877 0.950 . S
H852 C878 0.950 . S
H853 C880 0.950 . S
H854 C883 0.950 . S
H855 C884 0.950 . S
H856 C886 0.951 . S
H857 C887 0.949 . S
C858 C859 1.376 . S
C858 C863 1.386 . S
C858 C864 1.483 . S
C859 H840 0.949 . S
C859 C858 1.376 . S
C859 C860 1.397 . S
C860 H841 0.950 . S
C860 C859 1.397 . S
C860 C861 1.391 . S
C861 C860 1.391 . S
C861 C862 1.405 . S
C862 H842 0.950 . S
C862 C861 1.405 . S
C862 C863 1.367 . S
C863 H843 0.950 . S
C863 C858 1.386 . S
C863 C862 1.367 . S
C864 C858 1.483 . S
C864 C865 1.382 . S
C864 C866 1.403 . S
C865 H844 0.950 . S
C865 C864 1.382 . S
C865 C881 1.411 . S
C866 C864 1.403 . S
C866 C867 1.489 . S
C866 C880 1.411 . S
C867 C866 1.489 . S
C867 C868 1.383 . S
C867 C872 1.382 . S
C868 H845 0.950 . S
C868 C867 1.383 . S
C868 C869 1.395 . S
C869 H846 0.950 . S
C869 C868 1.395 . S
C869 C870 1.288 . S
C870 C869 1.288 . S
C870 C871 1.392 . S
C871 H847 0.951 . S
C871 C870 1.392 . S
C871 C872 1.392 . S
C872 H848 0.949 . S
C872 C867 1.382 . S
C872 C871 1.392 . S
C873 C874 1.376 . S
C873 C878 1.386 . S
C873 C879 1.483 . S
C874 H849 0.949 . S
C874 C873 1.376 . S
C874 C875 1.397 . S
C875 H850 0.950 . S
C875 C874 1.397 . S
C875 C876 1.391 . S
C876 C875 1.391 . S
C876 C877 1.405 . S
C877 H851 0.950 . S
C877 C876 1.405 . S
C877 C878 1.367 . S
C878 H852 0.950 . S
C878 C873 1.386 . S
C878 C877 1.367 . S
C879 C873 1.483 . S
C879 C880 1.382 . S
C879 C881 1.403 . S
C880 H853 0.950 . S
C880 C866 1.411 . S
C880 C879 1.382 . S
C881 C865 1.411 . S
C881 C879 1.403 . S
C881 C882 1.489 . S
C882 C881 1.489 . S
C882 C883 1.383 . S
C882 C887 1.382 . S
C883 H854 0.950 . S
C883 C882 1.383 . S
C883 C884 1.395 . S
C884 H855 0.950 . S
C884 C883 1.395 . S
C884 C885 1.288 . S
C885 C884 1.288 . S
C885 C886 1.392 . S
C886 H856 0.951 . S
C886 C885 1.392 . S
C886 C887 1.392 . S
C887 H857 0.949 . S
C887 C882 1.382 . S
C887 C886 1.392 . S
H888 C907 0.949 . S
H889 C908 0.950 . S
H890 C910 0.950 . S
H891 C911 0.950 . S
H892 C913 0.950 . S
H893 C916 0.950 . S
H894 C917 0.950 . S
H895 C919 0.951 . S
H896 C920 0.949 . S
H897 C922 0.949 . S
H898 C923 0.950 . S
H899 C925 0.950 . S
H900 C926 0.950 . S
H901 C928 0.950 . S
H902 C931 0.950 . S
H903 C932 0.950 . S
H904 C934 0.951 . S
H905 C935 0.949 . S
C906 C907 1.376 . S
C906 C911 1.386 . S
C906 C912 1.483 . S
C907 H888 0.949 . S
C907 C906 1.376 . S
C907 C908 1.397 . S
C908 H889 0.950 . S
C908 C907 1.397 . S
C908 C909 1.391 . S
C909 C908 1.391 . S
C909 C910 1.405 . S
C910 H890 0.950 . S
C910 C909 1.405 . S
C910 C911 1.367 . S
C911 H891 0.950 . S
C911 C906 1.386 . S
C911 C910 1.367 . S
C912 C906 1.483 . S
C912 C913 1.382 . S
C912 C914 1.403 . S
C913 H892 0.950 . S
C913 C912 1.382 . S
C913 C929 1.411 . S
C914 C912 1.403 . S
C914 C915 1.489 . S
C914 C928 1.411 . S
C915 C914 1.489 . S
C915 C916 1.383 . S
C915 C920 1.382 . S
C916 H893 0.950 . S
C916 C915 1.383 . S
C916 C917 1.395 . S
C917 H894 0.950 . S
C917 C916 1.395 . S
C917 C918 1.288 . S
C918 C917 1.288 . S
C918 C919 1.392 . S
C919 H895 0.951 . S
C919 C918 1.392 . S
C919 C920 1.392 . S
C920 H896 0.949 . S
C920 C915 1.382 . S
C920 C919 1.392 . S
C921 C922 1.376 . S
C921 C926 1.386 . S
C921 C927 1.483 . S
C922 H897 0.949 . S
C922 C921 1.376 . S
C922 C923 1.397 . S
C923 H898 0.950 . S
C923 C922 1.397 . S
C923 C924 1.391 . S
C924 C923 1.391 . S
C924 C925 1.405 . S
C925 H899 0.950 . S
C925 C924 1.405 . S
C925 C926 1.367 . S
C926 H900 0.950 . S
C926 C921 1.386 . S
C926 C925 1.367 . S
C927 C921 1.483 . S
C927 C928 1.382 . S
C927 C929 1.403 . S
C928 H901 0.950 . S
C928 C914 1.411 . S
C928 C927 1.382 . S
C929 C913 1.411 . S
C929 C927 1.403 . S
C929 C930 1.489 . S
C930 C929 1.489 . S
C930 C931 1.383 . S
C930 C935 1.382 . S
C931 H902 0.950 . S
C931 C930 1.383 . S
C931 C932 1.395 . S
C932 H903 0.950 . S
C932 C931 1.395 . S
C932 C933 1.288 . S
C933 C932 1.288 . S
C933 C934 1.392 . S
C934 H904 0.951 . S
C934 C933 1.392 . S
C934 C935 1.392 . S
C935 H905 0.949 . S
C935 C930 1.382 . S
C935 C934 1.392 . S
H936 C955 0.949 . S
H937 C956 0.950 . S
H938 C958 0.950 . S
H939 C959 0.950 . S
H940 C961 0.950 . S
H941 C964 0.950 . S
H942 C965 0.950 . S
H943 C967 0.951 . S
H944 C968 0.949 . S
H945 C970 0.949 . S
H946 C971 0.950 . S
H947 C973 0.950 . S
H948 C974 0.950 . S
H949 C976 0.950 . S
H950 C979 0.950 . S
H951 C980 0.950 . S
H952 C982 0.951 . S
H953 C983 0.949 . S
C954 C955 1.376 . S
C954 C959 1.386 . S
C954 C960 1.483 . S
C955 H936 0.949 . S
C955 C954 1.376 . S
C955 C956 1.397 . S
C956 H937 0.950 . S
C956 C955 1.397 . S
C956 C957 1.391 . S
C957 C956 1.391 . S
C957 C958 1.405 . S
C958 H938 0.950 . S
C958 C957 1.405 . S
C958 C959 1.367 . S
C959 H939 0.950 . S
C959 C954 1.386 . S
C959 C958 1.367 . S
C960 C954 1.483 . S
C960 C961 1.382 . S
C960 C962 1.403 . S
C961 H940 0.950 . S
C961 C960 1.382 . S
C961 C977 1.411 . S
C962 C960 1.403 . S
C962 C963 1.489 . S
C962 C976 1.411 . S
C963 C962 1.489 . S
C963 C964 1.383 . S
C963 C968 1.382 . S
C964 H941 0.950 . S
C964 C963 1.383 . S
C964 C965 1.395 . S
C965 H942 0.950 . S
C965 C964 1.395 . S
C965 C966 1.288 . S
C966 C965 1.288 . S
C966 C967 1.392 . S
C967 H943 0.951 . S
C967 C966 1.392 . S
C967 C968 1.392 . S
C968 H944 0.949 . S
C968 C963 1.382 . S
C968 C967 1.392 . S
C969 C970 1.376 . S
C969 C974 1.386 . S
C969 C975 1.483 . S
C970 H945 0.949 . S
C970 C969 1.376 . S
C970 C971 1.397 . S
C971 H946 0.950 . S
C971 C970 1.397 . S
C971 C972 1.391 . S
C972 C971 1.391 . S
C972 C973 1.405 . S
C973 H947 0.950 . S
C973 C972 1.405 . S
C973 C974 1.367 . S
C974 H948 0.950 . S
C974 C969 1.386 . S
C974 C973 1.367 . S
C975 C969 1.483 . S
C975 C976 1.382 . S
C975 C977 1.403 . S
C976 H949 0.950 . S
C976 C962 1.411 . S
C976 C975 1.382 . S
C977 C961 1.411 . S
C977 C975 1.403 . S
C977 C978 1.489 . S
C978 C977 1.489 . S
C978 C979 1.383 . S
C978 C983 1.382 . S
C979 H950 0.950 . S
C979 C978 1.383 . S
C979 C980 1.395 . S
C980 H951 0.950 . S
C980 C979 1.395 . S
C980 C981 1.288 . S
C981 C980 1.288 . S
C981 C982 1.392 . S
C982 H952 0.951 . S
C982 C981 1.392 . S
C982 C983 1.392 . S
C983 H953 0.949 . S
C983 C978 1.382 . S
C983 C982 1.392 . S
H984 C1003 0.949 . S
H985 C1004 0.950 . S
H986 C1006 0.950 . S
H987 C1007 0.950 . S
H988 C1009 0.950 . S
H989 C1012 0.950 . S
H990 C1013 0.950 . S
H991 C1015 0.951 . S
H992 C1016 0.949 . S
H993 C1018 0.949 . S
H994 C1019 0.950 . S
H995 C1021 0.950 . S
H996 C1022 0.950 . S
H997 C1024 0.950 . S
H998 C1027 0.950 . S
H999 C1028 0.950 . S
H1000 C1030 0.951 . S
H1001 C1031 0.949 . S
C1002 C1003 1.376 . S
C1002 C1007 1.386 . S
C1002 C1008 1.483 . S
C1003 H984 0.949 . S
C1003 C1002 1.376 . S
C1003 C1004 1.397 . S
C1004 H985 0.950 . S
C1004 C1003 1.397 . S
C1004 C1005 1.391 . S
C1005 C1004 1.391 . S
C1005 C1006 1.405 . S
C1006 H986 0.950 . S
C1006 C1005 1.405 . S
C1006 C1007 1.367 . S
C1007 H987 0.950 . S
C1007 C1002 1.386 . S
C1007 C1006 1.367 . S
C1008 C1002 1.483 . S
C1008 C1009 1.382 . S
C1008 C1010 1.403 . S
C1009 H988 0.950 . S
C1009 C1008 1.382 . S
C1009 C1025 1.411 . S
C1010 C1008 1.403 . S
C1010 C1011 1.489 . S
C1010 C1024 1.411 . S
C1011 C1010 1.489 . S
C1011 C1012 1.383 . S
C1011 C1016 1.382 . S
C1012 H989 0.950 . S
C1012 C1011 1.383 . S
C1012 C1013 1.395 . S
C1013 H990 0.950 . S
C1013 C1012 1.395 . S
C1013 C1014 1.288 . S
C1014 C1013 1.288 . S
C1014 C1015 1.392 . S
C1015 H991 0.951 . S
C1015 C1014 1.392 . S
C1015 C1016 1.392 . S
C1016 H992 0.949 . S
C1016 C1011 1.382 . S
C1016 C1015 1.392 . S
C1017 C1018 1.376 . S
C1017 C1022 1.386 . S
C1017 C1023 1.483 . S
C1018 H993 0.949 . S
C1018 C1017 1.376 . S
C1018 C1019 1.397 . S
C1019 H994 0.950 . S
C1019 C1018 1.397 . S
C1019 C1020 1.391 . S
C1020 C1019 1.391 . S
C1020 C1021 1.405 . S
C1021 H995 0.950 . S
C1021 C1020 1.405 . S
C1021 C1022 1.367 . S
C1022 H996 0.950 . S
C1022 C1017 1.386 . S
C1022 C1021 1.367 . S
C1023 C1017 1.483 . S
C1023 C1024 1.382 . S
C1023 C1025 1.403 . S
C1024 H997 0.950 . S
C1024 C1010 1.411 . S
C1024 C1023 1.382 . S
C1025 C1009 1.411 . S
C1025 C1023 1.403 . S
C1025 C1026 1.489 . S
C1026 C1025 1.489 . S
C1026 C1027 1.383 . S
C1026 C1031 1.382 . S
C1027 H998 0.950 . S
C1027 C1026 1.383 . S
C1027 C1028 1.395 . S
C1028 H999 0.950 . S
C1028 C1027 1.395 . S
C1028 C1029 1.288 . S
C1029 C1028 1.288 . S
C1029 C1030 1.392 . S
C1030 H1000 0.951 . S
C1030 C1029 1.392 . S
C1030 C1031 1.392 . S
C1031 H1001 0.949 . S
C1031 C1026 1.382 . S
C1031 C1030 1.392 . S
H1032 C1051 0.949 . S
H1033 C1052 0.950 . S
H1034 C1054 0.950 . S
H1035 C1055 0.950 . S
H1036 C1057 0.950 . S
H1037 C1060 0.950 . S
H1038 C1061 0.950 . S
H1039 C1063 0.951 . S
H1040 C1064 0.949 . S
H1041 C1066 0.949 . S
H1042 C1067 0.950 . S
H1043 C1069 0.950 . S
H1044 C1070 0.950 . S
H1045 C1072 0.950 . S
H1046 C1075 0.950 . S
H1047 C1076 0.950 . S
H1048 C1078 0.951 . S
H1049 C1079 0.949 . S
C1050 C1051 1.376 . S
C1050 C1055 1.386 . S
C1050 C1056 1.483 . S
C1051 H1032 0.949 . S
C1051 C1050 1.376 . S
C1051 C1052 1.397 . S
C1052 H1033 0.950 . S
C1052 C1051 1.397 . S
C1052 C1053 1.391 . S
C1053 C1052 1.391 . S
C1053 C1054 1.405 . S
C1054 H1034 0.950 . S
C1054 C1053 1.405 . S
C1054 C1055 1.367 . S
C1055 H1035 0.950 . S
C1055 C1050 1.386 . S
C1055 C1054 1.367 . S
C1056 C1050 1.483 . S
C1056 C1057 1.382 . S
C1056 C1058 1.403 . S
C1057 H1036 0.950 . S
C1057 C1056 1.382 . S
C1057 C1073 1.411 . S
C1058 C1056 1.403 . S
C1058 C1059 1.489 . S
C1058 C1072 1.411 . S
C1059 C1058 1.489 . S
C1059 C1060 1.383 . S
C1059 C1064 1.382 . S
C1060 H1037 0.950 . S
C1060 C1059 1.383 . S
C1060 C1061 1.395 . S
C1061 H1038 0.950 . S
C1061 C1060 1.395 . S
C1061 C1062 1.288 . S
C1062 C1061 1.288 . S
C1062 C1063 1.392 . S
C1063 H1039 0.951 . S
C1063 C1062 1.392 . S
C1063 C1064 1.392 . S
C1064 H1040 0.949 . S
C1064 C1059 1.382 . S
C1064 C1063 1.392 . S
C1065 C1066 1.376 . S
C1065 C1070 1.386 . S
C1065 C1071 1.483 . S
C1066 H1041 0.949 . S
C1066 C1065 1.376 . S
C1066 C1067 1.397 . S
C1067 H1042 0.950 . S
C1067 C1066 1.397 . S
C1067 C1068 1.391 . S
C1068 C1067 1.391 . S
C1068 C1069 1.405 . S
C1069 H1043 0.950 . S
C1069 C1068 1.405 . S
C1069 C1070 1.367 . S
C1070 H1044 0.950 . S
C1070 C1065 1.386 . S
C1070 C1069 1.367 . S
C1071 C1065 1.483 . S
C1071 C1072 1.382 . S
C1071 C1073 1.403 . S
C1072 H1045 0.950 . S
C1072 C1058 1.411 . S
C1072 C1071 1.382 . S
C1073 C1057 1.411 . S
C1073 C1071 1.403 . S
C1073 C1074 1.489 . S
C1074 C1073 1.489 . S
C1074 C1075 1.383 . S
C1074 C1079 1.382 . S
C1075 H1046 0.950 . S
C1075 C1074 1.383 . S
C1075 C1076 1.395 . S
C1076 H1047 0.950 . S
C1076 C1075 1.395 . S
C1076 C1077 1.288 . S
C1077 C1076 1.288 . S
C1077 C1078 1.392 . S
C1078 H1048 0.951 . S
C1078 C1077 1.392 . S
C1078 C1079 1.392 . S
C1079 H1049 0.949 . S
C1079 C1074 1.382 . S
C1079 C1078 1.392 . S
H1080 C1099 0.949 . S
H1081 C1100 0.950 . S
H1082 C1102 0.950 . S
H1083 C1103 0.950 . S
H1084 C1105 0.950 . S
H1085 C1108 0.950 . S
H1086 C1109 0.950 . S
H1087 C1111 0.951 . S
H1088 C1112 0.949 . S
H1089 C1114 0.949 . S
H1090 C1115 0.950 . S
H1091 C1117 0.950 . S
H1092 C1118 0.950 . S
H1093 C1120 0.950 . S
H1094 C1123 0.950 . S
H1095 C1124 0.950 . S
H1096 C1126 0.951 . S
H1097 C1127 0.949 . S
C1098 C1099 1.376 . S
C1098 C1103 1.386 1_655 S
C1098 C1104 1.483 . S
C1099 H1080 0.949 . S
C1099 C1098 1.376 . S
C1099 C1100 1.397 . S
C1100 H1081 0.950 . S
C1100 C1099 1.397 . S
C1100 C1101 1.391 . S
C1101 C1100 1.391 . S
C1101 C1102 1.405 1_655 S
C1102 H1082 0.950 . S
C1102 C1101 1.405 1_455 S
C1102 C1103 1.367 . S
C1103 H1083 0.950 . S
C1103 C1098 1.386 1_455 S
C1103 C1102 1.367 . S
C1104 C1098 1.483 . S
C1104 C1105 1.382 . S
C1104 C1106 1.403 1_655 S
C1105 H1084 0.950 . S
C1105 C1104 1.382 . S
C1105 C1121 1.411 . S
C1106 C1104 1.403 1_455 S
C1106 C1107 1.489 . S
C1106 C1120 1.411 . S
C1107 C1106 1.489 . S
C1107 C1108 1.383 1_455 S
C1107 C1112 1.382 . S
C1108 H1085 0.950 . S
C1108 C1107 1.383 1_655 S
C1108 C1109 1.395 . S
C1109 H1086 0.950 . S
C1109 C1108 1.395 . S
C1109 C1110 1.288 1_655 S
C1110 C1109 1.288 1_455 S
C1110 C1111 1.392 . S
C1111 H1087 0.951 . S
C1111 C1110 1.392 . S
C1111 C1112 1.392 . S
C1112 H1088 0.949 . S
C1112 C1107 1.382 . S
C1112 C1111 1.392 . S
C1113 C1114 1.376 . S
C1113 C1118 1.386 1_455 S
C1113 C1119 1.483 . S
C1114 H1089 0.949 . S
C1114 C1113 1.376 . S
C1114 C1115 1.397 . S
C1115 H1090 0.950 . S
C1115 C1114 1.397 . S
C1115 C1116 1.391 . S
C1116 C1115 1.391 . S
C1116 C1117 1.405 1_455 S
C1117 H1091 0.950 . S
C1117 C1116 1.405 1_655 S
C1117 C1118 1.367 . S
C1118 H1092 0.950 . S
C1118 C1113 1.386 1_655 S
C1118 C1117 1.367 . S
C1119 C1113 1.483 . S
C1119 C1120 1.382 . S
C1119 C1121 1.403 1_455 S
C1120 H1093 0.950 . S
C1120 C1106 1.411 . S
C1120 C1119 1.382 . S
C1121 C1105 1.411 . S
C1121 C1119 1.403 1_655 S
C1121 C1122 1.489 . S
C1122 C1121 1.489 . S
C1122 C1123 1.383 1_655 S
C1122 C1127 1.382 . S
C1123 H1094 0.950 . S
C1123 C1122 1.383 1_455 S
C1123 C1124 1.395 . S
C1124 H1095 0.950 . S
C1124 C1123 1.395 . S
C1124 C1125 1.288 1_455 S
C1125 C1124 1.288 1_655 S
C1125 C1126 1.392 . S
C1126 H1096 0.951 . S
C1126 C1125 1.392 . S
C1126 C1127 1.392 . S
C1127 H1097 0.949 . S
C1127 C1122 1.382 . S
C1127 C1126 1.392 . S
H1128 C1147 0.949 . S
H1129 C1148 0.950 . S
H1130 C1150 0.950 . S
H1131 C1151 0.950 . S
H1132 C1153 0.950 . S
H1133 C1156 0.950 . S
H1134 C1157 0.950 . S
H1135 C1159 0.951 . S
H1136 C1160 0.949 . S
H1137 C1162 0.949 . S
H1138 C1163 0.950 . S
H1139 C1165 0.950 . S
H1140 C1166 0.950 . S
H1141 C1168 0.950 . S
H1142 C1171 0.950 . S
H1143 C1172 0.950 . S
H1144 C1174 0.951 . S
H1145 C1175 0.949 . S
C1146 C1147 1.376 . S
C1146 C1151 1.386 . S
C1146 C1152 1.483 . S
C1147 H1128 0.949 . S
C1147 C1146 1.376 . S
C1147 C1148 1.397 . S
C1148 H1129 0.950 . S
C1148 C1147 1.397 . S
C1148 C1149 1.391 . S
C1149 C1148 1.391 . S
C1149 C1150 1.405 . S
C1150 H1130 0.950 . S
C1150 C1149 1.405 . S
C1150 C1151 1.367 . S
C1151 H1131 0.950 . S
C1151 C1146 1.386 . S
C1151 C1150 1.367 . S
C1152 C1146 1.483 . S
C1152 C1153 1.382 . S
C1152 C1154 1.403 . S
C1153 H1132 0.950 . S
C1153 C1152 1.382 . S
C1153 C1169 1.411 . S
C1154 C1152 1.403 . S
C1154 C1155 1.489 . S
C1154 C1168 1.411 . S
C1155 C1154 1.489 . S
C1155 C1156 1.383 . S
C1155 C1160 1.382 . S
C1156 H1133 0.950 . S
C1156 C1155 1.383 . S
C1156 C1157 1.395 . S
C1157 H1134 0.950 . S
C1157 C1156 1.395 . S
C1157 C1158 1.288 . S
C1158 C1157 1.288 . S
C1158 C1159 1.392 . S
C1159 H1135 0.951 . S
C1159 C1158 1.392 . S
C1159 C1160 1.392 . S
C1160 H1136 0.949 . S
C1160 C1155 1.382 . S
C1160 C1159 1.392 . S
C1161 C1162 1.376 . S
C1161 C1166 1.386 . S
C1161 C1167 1.483 . S
C1162 H1137 0.949 . S
C1162 C1161 1.376 . S
C1162 C1163 1.397 . S
C1163 H1138 0.950 . S
C1163 C1162 1.397 . S
C1163 C1164 1.391 . S
C1164 C1163 1.391 . S
C1164 C1165 1.405 . S
C1165 H1139 0.950 . S
C1165 C1164 1.405 . S
C1165 C1166 1.367 . S
C1166 H1140 0.950 . S
C1166 C1161 1.386 . S
C1166 C1165 1.367 . S
C1167 C1161 1.483 . S
C1167 C1168 1.382 . S
C1167 C1169 1.403 . S
C1168 H1141 0.950 . S
C1168 C1154 1.411 . S
C1168 C1167 1.382 . S
C1169 C1153 1.411 . S
C1169 C1167 1.403 . S
C1169 C1170 1.489 . S
C1170 C1169 1.489 . S
C1170 C1171 1.383 . S
C1170 C1175 1.382 . S
C1171 H1142 0.950 . S
C1171 C1170 1.383 . S
C1171 C1172 1.395 . S
C1172 H1143 0.950 . S
C1172 C1171 1.395 . S
C1172 C1173 1.288 . S
C1173 C1172 1.288 . S
C1173 C1174 1.392 . S
C1174 H1144 0.951 . S
C1174 C1173 1.392 . S
C1174 C1175 1.392 . S
C1175 H1145 0.949 . S
C1175 C1170 1.382 . S
C1175 C1174 1.392 . S
H1176 C1195 0.949 . S
H1177 C1196 0.950 . S
H1178 C1198 0.950 . S
H1179 C1199 0.950 . S
H1180 C1201 0.950 . S
H1181 C1204 0.950 . S
H1182 C1205 0.950 . S
H1183 C1207 0.951 . S
H1184 C1208 0.949 . S
H1185 C1210 0.949 . S
H1186 C1211 0.950 . S
H1187 C1213 0.950 . S
H1188 C1214 0.950 . S
H1189 C1216 0.950 . S
H1190 C1219 0.950 . S
H1191 C1220 0.950 . S
H1192 C1222 0.951 . S
H1193 C1223 0.949 . S
C1194 C1195 1.376 . S
C1194 C1199 1.386 1_545 S
C1194 C1200 1.483 . S
C1195 H1176 0.949 . S
C1195 C1194 1.376 . S
C1195 C1196 1.397 . S
C1196 H1177 0.950 . S
C1196 C1195 1.397 . S
C1196 C1197 1.391 . S
C1197 C1196 1.391 . S
C1197 C1198 1.405 1_545 S
C1198 H1178 0.950 . S
C1198 C1197 1.405 1_565 S
C1198 C1199 1.367 . S
C1199 H1179 0.950 . S
C1199 C1194 1.386 1_565 S
C1199 C1198 1.367 . S
C1200 C1194 1.483 . S
C1200 C1201 1.382 . S
C1200 C1202 1.403 1_545 S
C1201 H1180 0.950 . S
C1201 C1200 1.382 . S
C1201 C1217 1.411 . S
C1202 C1200 1.403 1_565 S
C1202 C1203 1.489 . S
C1202 C1216 1.411 . S
C1203 C1202 1.489 . S
C1203 C1204 1.383 1_565 S
C1203 C1208 1.382 . S
C1204 H1181 0.950 . S
C1204 C1203 1.383 1_545 S
C1204 C1205 1.395 . S
C1205 H1182 0.950 . S
C1205 C1204 1.395 . S
C1205 C1206 1.288 1_545 S
C1206 C1205 1.288 1_565 S
C1206 C1207 1.392 . S
C1207 H1183 0.951 . S
C1207 C1206 1.392 . S
C1207 C1208 1.392 . S
C1208 H1184 0.949 . S
C1208 C1203 1.382 . S
C1208 C1207 1.392 . S
C1209 C1210 1.376 . S
C1209 C1214 1.386 1_565 S
C1209 C1215 1.483 . S
C1210 H1185 0.949 . S
C1210 C1209 1.376 . S
C1210 C1211 1.397 . S
C1211 H1186 0.950 . S
C1211 C1210 1.397 . S
C1211 C1212 1.391 . S
C1212 C1211 1.391 . S
C1212 C1213 1.405 1_565 S
C1213 H1187 0.950 . S
C1213 C1212 1.405 1_545 S
C1213 C1214 1.367 . S
C1214 H1188 0.950 . S
C1214 C1209 1.386 1_545 S
C1214 C1213 1.367 . S
C1215 C1209 1.483 . S
C1215 C1216 1.382 . S
C1215 C1217 1.403 1_565 S
C1216 H1189 0.950 . S
C1216 C1202 1.411 . S
C1216 C1215 1.382 . S
C1217 C1201 1.411 . S
C1217 C1215 1.403 1_545 S
C1217 C1218 1.489 . S
C1218 C1217 1.489 . S
C1218 C1219 1.383 1_545 S
C1218 C1223 1.382 . S
C1219 H1190 0.950 . S
C1219 C1218 1.383 1_565 S
C1219 C1220 1.395 . S
C1220 H1191 0.950 . S
C1220 C1219 1.395 . S
C1220 C1221 1.288 1_565 S
C1221 C1220 1.288 1_545 S
C1221 C1222 1.392 . S
C1222 H1192 0.951 . S
C1222 C1221 1.392 . S
C1222 C1223 1.392 . S
C1223 H1193 0.949 . S
C1223 C1218 1.382 . S
C1223 C1222 1.392 . S
H1224 C1243 0.949 . S
H1225 C1244 0.950 . S
H1226 C1246 0.950 . S
H1227 C1247 0.950 . S
H1228 C1249 0.950 . S
H1229 C1252 0.950 . S
H1230 C1253 0.950 . S
H1231 C1255 0.951 . S
H1232 C1256 0.949 . S
H1233 C1258 0.949 . S
H1234 C1259 0.950 . S
H1235 C1261 0.950 . S
H1236 C1262 0.950 . S
H1237 C1264 0.950 . S
H1238 C1267 0.950 . S
H1239 C1268 0.950 . S
H1240 C1270 0.951 . S
H1241 C1271 0.949 . S
C1242 C1243 1.379 . S
C1242 C1247 1.385 1_545 S
C1242 C1248 1.505 . S
C1243 H1224 0.949 . S
C1243 C1242 1.379 . S
C1243 C1244 1.397 . S
C1244 H1225 0.950 . S
C1244 C1243 1.397 . S
C1244 C1245 1.391 1_545 S
C1245 C1244 1.391 1_565 S
C1245 C1246 1.405 . S
C1246 H1226 0.950 . S
C1246 C1245 1.405 . S
C1246 C1247 1.367 . S
C1247 H1227 0.950 . S
C1247 C1242 1.385 1_565 S
C1247 C1246 1.367 . S
C1248 C1242 1.505 . S
C1248 C1249 1.360 . S
C1248 C1250 1.398 1_545 S
C1249 H1228 0.950 . S
C1249 C1248 1.360 . S
C1249 C1265 1.446 . S
C1250 C1248 1.398 1_565 S
C1250 C1251 1.486 . S
C1250 C1264 1.437 . S
C1251 C1250 1.486 . S
C1251 C1252 1.341 1_565 S
C1251 C1256 1.405 . S
C1252 H1229 0.950 . S
C1252 C1251 1.341 1_545 S
C1252 C1253 1.395 . S
C1253 H1230 0.950 . S
C1253 C1252 1.395 . S
C1253 C1254 1.288 . S
C1254 C1253 1.288 . S
C1254 C1255 1.392 1_545 S
C1255 H1231 0.951 . S
C1255 C1254 1.392 1_565 S
C1255 C1256 1.392 . S
C1256 H1232 0.949 . S
C1256 C1251 1.405 . S
C1256 C1255 1.392 . S
C1257 C1258 1.379 1_545 S
C1257 C1262 1.385 . S
C1257 C1263 1.497 1_545 S
C1258 H1233 0.949 . S
C1258 C1257 1.379 1_565 S
C1258 C1259 1.397 . S
C1259 H1234 0.950 . S
C1259 C1258 1.397 . S
C1259 C1260 1.391 1_565 S
C1260 C1259 1.391 1_545 S
C1260 C1261 1.405 . S
C1261 H1235 0.950 . S
C1261 C1260 1.405 . S
C1261 C1262 1.367 . S
C1262 H1236 0.950 . S
C1262 C1257 1.385 . S
C1262 C1261 1.367 . S
C1263 C1257 1.497 1_565 S
C1263 C1264 1.367 . S
C1263 C1265 1.398 1_565 S
C1264 H1237 0.950 . S
C1264 C1250 1.437 . S
C1264 C1263 1.367 . S
C1265 C1249 1.446 . S
C1265 C1263 1.398 1_545 S
C1265 C1266 1.486 . S
C1266 C1265 1.486 . S
C1266 C1267 1.324 1_545 S
C1266 C1271 1.415 . S
C1267 H1238 0.950 . S
C1267 C1266 1.324 1_565 S
C1267 C1268 1.395 . S
C1268 H1239 0.950 . S
C1268 C1267 1.395 . S
C1268 C1269 1.324 . S
C1269 C1268 1.324 . S
C1269 C1270 1.324 1_565 S
C1270 H1240 0.951 . S
C1270 C1269 1.324 1_545 S
C1270 C1271 1.392 . S
C1271 H1241 0.949 . S
C1271 C1266 1.415 . S
C1271 C1270 1.392 . S
H1272 C1291 0.949 . S
H1273 C1292 0.950 . S
H1274 C1294 0.950 . S
H1275 C1295 0.950 . S
H1276 C1297 0.950 . S
H1277 C1300 0.950 . S
H1278 C1301 0.950 . S
H1279 C1303 0.951 . S
H1280 C1304 0.949 . S
H1281 C1306 0.949 . S
H1282 C1307 0.950 . S
H1283 C1309 0.950 . S
H1284 C1310 0.950 . S
H1285 C1312 0.950 . S
H1286 C1315 0.950 . S
H1287 C1316 0.950 . S
H1288 C1318 0.951 . S
H1289 C1319 0.949 . S
C1290 C1291 1.376 . S
C1290 C1295 1.386 1_455 S
C1290 C1296 1.483 . S
C1291 H1272 0.949 . S
C1291 C1290 1.376 . S
C1291 C1292 1.397 . S
C1292 H1273 0.950 . S
C1292 C1291 1.397 . S
C1292 C1293 1.391 . S
C1293 C1292 1.391 . S
C1293 C1294 1.405 1_455 S
C1294 H1274 0.950 . S
C1294 C1293 1.405 1_655 S
C1294 C1295 1.367 . S
C1295 H1275 0.950 . S
C1295 C1290 1.386 1_655 S
C1295 C1294 1.367 . S
C1296 C1290 1.483 . S
C1296 C1297 1.382 . S
C1296 C1298 1.403 1_455 S
C1297 H1276 0.950 . S
C1297 C1296 1.382 . S
C1297 C1313 1.411 . S
C1298 C1296 1.403 1_655 S
C1298 C1299 1.489 . S
C1298 C1312 1.411 . S
C1299 C1298 1.489 . S
C1299 C1300 1.383 1_655 S
C1299 C1304 1.382 . S
C1300 H1277 0.950 . S
C1300 C1299 1.383 1_455 S
C1300 C1301 1.395 . S
C1301 H1278 0.950 . S
C1301 C1300 1.395 . S
C1301 C1302 1.288 1_455 S
C1302 C1301 1.288 1_655 S
C1302 C1303 1.392 . S
C1303 H1279 0.951 . S
C1303 C1302 1.392 . S
C1303 C1304 1.392 . S
C1304 H1280 0.949 . S
C1304 C1299 1.382 . S
C1304 C1303 1.392 . S
C1305 C1306 1.376 . S
C1305 C1310 1.386 1_655 S
C1305 C1311 1.483 . S
C1306 H1281 0.949 . S
C1306 C1305 1.376 . S
C1306 C1307 1.397 . S
C1307 H1282 0.950 . S
C1307 C1306 1.397 . S
C1307 C1308 1.391 . S
C1308 C1307 1.391 . S
C1308 C1309 1.405 1_655 S
C1309 H1283 0.950 . S
C1309 C1308 1.405 1_455 S
C1309 C1310 1.367 . S
C1310 H1284 0.950 . S
C1310 C1305 1.386 1_455 S
C1310 C1309 1.367 . S
C1311 C1305 1.483 . S
C1311 C1312 1.382 . S
C1311 C1313 1.403 1_655 S
C1312 H1285 0.950 . S
C1312 C1298 1.411 . S
C1312 C1311 1.382 . S
C1313 C1297 1.411 . S
C1313 C1311 1.403 1_455 S
C1313 C1314 1.489 . S
C1314 C1313 1.489 . S
C1314 C1315 1.383 1_455 S
C1314 C1319 1.382 . S
C1315 H1286 0.950 . S
C1315 C1314 1.383 1_655 S
C1315 C1316 1.395 . S
C1316 H1287 0.950 . S
C1316 C1315 1.395 . S
C1316 C1317 1.288 1_655 S
C1317 C1316 1.288 1_455 S
C1317 C1318 1.392 . S
C1318 H1288 0.951 . S
C1318 C1317 1.392 . S
C1318 C1319 1.392 . S
C1319 H1289 0.949 . S
C1319 C1314 1.382 . S
C1319 C1318 1.392 . S
H1320 C1339 0.949 . S
H1321 C1340 0.950 . S
H1322 C1342 0.950 . S
H1323 C1343 0.950 . S
H1324 C1345 0.950 . S
H1325 C1348 0.950 . S
H1326 C1349 0.950 . S
H1327 C1351 0.951 . S
H1328 C1352 0.949 . S
H1329 C1354 0.949 . S
H1330 C1355 0.950 . S
H1331 C1357 0.950 . S
H1332 C1358 0.950 . S
H1333 C1360 0.950 . S
H1334 C1363 0.950 . S
H1335 C1364 0.950 . S
H1336 C1366 0.951 . S
H1337 C1367 0.949 . S
C1338 C1339 1.376 . S
C1338 C1343 1.386 . S
C1338 C1344 1.483 . S
C1339 H1320 0.949 . S
C1339 C1338 1.376 . S
C1339 C1340 1.397 . S
C1340 H1321 0.950 . S
C1340 C1339 1.397 . S
C1340 C1341 1.391 . S
C1341 C1340 1.391 . S
C1341 C1342 1.405 . S
C1342 H1322 0.950 . S
C1342 C1341 1.405 . S
C1342 C1343 1.367 . S
C1343 H1323 0.950 . S
C1343 C1338 1.386 . S
C1343 C1342 1.367 . S
C1344 C1338 1.483 . S
C1344 C1345 1.382 . S
C1344 C1346 1.403 . S
C1345 H1324 0.950 . S
C1345 C1344 1.382 . S
C1345 C1361 1.411 . S
C1346 C1344 1.403 . S
C1346 C1347 1.489 . S
C1346 C1360 1.411 . S
C1347 C1346 1.489 . S
C1347 C1348 1.383 . S
C1347 C1352 1.382 . S
C1348 H1325 0.950 . S
C1348 C1347 1.383 . S
C1348 C1349 1.395 . S
C1349 H1326 0.950 . S
C1349 C1348 1.395 . S
C1349 C1350 1.288 . S
C1350 C1349 1.288 . S
C1350 C1351 1.392 . S
C1351 H1327 0.951 . S
C1351 C1350 1.392 . S
C1351 C1352 1.392 . S
C1352 H1328 0.949 . S
C1352 C1347 1.382 . S
C1352 C1351 1.392 . S
C1353 C1354 1.376 . S
C1353 C1358 1.386 . S
C1353 C1359 1.483 . S
C1354 H1329 0.949 . S
C1354 C1353 1.376 . S
C1354 C1355 1.397 . S
C1355 H1330 0.950 . S
C1355 C1354 1.397 . S
C1355 C1356 1.391 . S
C1356 C1355 1.391 . S
C1356 C1357 1.405 . S
C1357 H1331 0.950 . S
C1357 C1356 1.405 . S
C1357 C1358 1.367 . S
C1358 H1332 0.950 . S
C1358 C1353 1.386 . S
C1358 C1357 1.367 . S
C1359 C1353 1.483 . S
C1359 C1360 1.382 . S
C1359 C1361 1.403 . S
C1360 H1333 0.950 . S
C1360 C1346 1.411 . S
C1360 C1359 1.382 . S
C1361 C1345 1.411 . S
C1361 C1359 1.403 . S
C1361 C1362 1.489 . S
C1362 C1361 1.489 . S
C1362 C1363 1.383 . S
C1362 C1367 1.382 . S
C1363 H1334 0.950 . S
C1363 C1362 1.383 . S
C1363 C1364 1.395 . S
C1364 H1335 0.950 . S
C1364 C1363 1.395 . S
C1364 C1365 1.288 . S
C1365 C1364 1.288 . S
C1365 C1366 1.392 . S
C1366 H1336 0.951 . S
C1366 C1365 1.392 . S
C1366 C1367 1.392 . S
C1367 H1337 0.949 . S
C1367 C1362 1.382 . S
C1367 C1366 1.392 . S
H1368 C1387 0.949 . S
H1369 C1388 0.950 . S
H1370 C1390 0.950 . S
H1371 C1391 0.950 . S
H1372 C1393 0.950 . S
H1373 C1396 0.950 . S
H1374 C1397 0.950 . S
H1375 C1399 0.951 . S
H1376 C1400 0.949 . S
H1377 C1402 0.949 . S
H1378 C1403 0.950 . S
H1379 C1405 0.950 . S
H1380 C1406 0.950 . S
H1381 C1408 0.950 . S
H1382 C1411 0.950 . S
H1383 C1412 0.950 . S
H1384 C1414 0.951 . S
H1385 C1415 0.949 . S
C1386 C1387 1.376 . S
C1386 C1391 1.386 . S
C1386 C1392 1.483 . S
C1387 H1368 0.949 . S
C1387 C1386 1.376 . S
C1387 C1388 1.397 . S
C1388 H1369 0.950 . S
C1388 C1387 1.397 . S
C1388 C1389 1.391 . S
C1389 C1388 1.391 . S
C1389 C1390 1.405 . S
C1390 H1370 0.950 . S
C1390 C1389 1.405 . S
C1390 C1391 1.367 . S
C1391 H1371 0.950 . S
C1391 C1386 1.386 . S
C1391 C1390 1.367 . S
C1392 C1386 1.483 . S
C1392 C1393 1.382 . S
C1392 C1394 1.403 . S
C1393 H1372 0.950 . S
C1393 C1392 1.382 . S
C1393 C1409 1.411 . S
C1394 C1392 1.403 . S
C1394 C1395 1.489 . S
C1394 C1408 1.411 . S
C1395 C1394 1.489 . S
C1395 C1396 1.383 . S
C1395 C1400 1.382 . S
C1396 H1373 0.950 . S
C1396 C1395 1.383 . S
C1396 C1397 1.395 . S
C1397 H1374 0.950 . S
C1397 C1396 1.395 . S
C1397 C1398 1.288 . S
C1398 C1397 1.288 . S
C1398 C1399 1.392 . S
C1399 H1375 0.951 . S
C1399 C1398 1.392 . S
C1399 C1400 1.392 . S
C1400 H1376 0.949 . S
C1400 C1395 1.382 . S
C1400 C1399 1.392 . S
C1401 C1402 1.376 . S
C1401 C1406 1.386 . S
C1401 C1407 1.483 . S
C1402 H1377 0.949 . S
C1402 C1401 1.376 . S
C1402 C1403 1.397 . S
C1403 H1378 0.950 . S
C1403 C1402 1.397 . S
C1403 C1404 1.391 . S
C1404 C1403 1.391 . S
C1404 C1405 1.405 . S
C1405 H1379 0.950 . S
C1405 C1404 1.405 . S
C1405 C1406 1.367 . S
C1406 H1380 0.950 . S
C1406 C1401 1.386 . S
C1406 C1405 1.367 . S
C1407 C1401 1.483 . S
C1407 C1408 1.382 . S
C1407 C1409 1.403 . S
C1408 H1381 0.950 . S
C1408 C1394 1.411 . S
C1408 C1407 1.382 . S
C1409 C1393 1.411 . S
C1409 C1407 1.403 . S
C1409 C1410 1.489 . S
C1410 C1409 1.489 . S
C1410 C1411 1.383 . S
C1410 C1415 1.382 . S
C1411 H1382 0.950 . S
C1411 C1410 1.383 . S
C1411 C1412 1.395 . S
C1412 H1383 0.950 . S
C1412 C1411 1.395 . S
C1412 C1413 1.288 . S
C1413 C1412 1.288 . S
C1413 C1414 1.392 . S
C1414 H1384 0.951 . S
C1414 C1413 1.392 . S
C1414 C1415 1.392 . S
C1415 H1385 0.949 . S
C1415 C1410 1.382 . S
C1415 C1414 1.392 . S
H1416 C1435 0.949 . S
H1417 C1436 0.950 . S
H1418 C1438 0.950 . S
H1419 C1439 0.950 . S
H1420 C1441 0.950 . S
H1421 C1444 0.950 . S
H1422 C1445 0.950 . S
H1423 C1447 0.951 . S
H1424 C1448 0.949 . S
H1425 C1450 0.949 . S
H1426 C1451 0.950 . S
H1427 C1453 0.950 . S
H1428 C1454 0.950 . S
H1429 C1456 0.950 . S
H1430 C1459 0.950 . S
H1431 C1460 0.950 . S
H1432 C1462 0.951 . S
H1433 C1463 0.949 . S
C1434 C1435 1.376 . S
C1434 C1439 1.386 . S
C1434 C1440 1.483 . S
C1435 H1416 0.949 . S
C1435 C1434 1.376 . S
C1435 C1436 1.397 . S
C1436 H1417 0.950 . S
C1436 C1435 1.397 . S
C1436 C1437 1.391 . S
C1437 C1436 1.391 . S
C1437 C1438 1.405 . S
C1438 H1418 0.950 . S
C1438 C1437 1.405 . S
C1438 C1439 1.367 . S
C1439 H1419 0.950 . S
C1439 C1434 1.386 . S
C1439 C1438 1.367 . S
C1440 C1434 1.483 . S
C1440 C1441 1.382 . S
C1440 C1442 1.403 . S
C1441 H1420 0.950 . S
C1441 C1440 1.382 . S
C1441 C1457 1.411 . S
C1442 C1440 1.403 . S
C1442 C1443 1.489 . S
C1442 C1456 1.411 . S
C1443 C1442 1.489 . S
C1443 C1444 1.383 . S
C1443 C1448 1.382 . S
C1444 H1421 0.950 . S
C1444 C1443 1.383 . S
C1444 C1445 1.395 . S
C1445 H1422 0.950 . S
C1445 C1444 1.395 . S
C1445 C1446 1.288 . S
C1446 C1445 1.288 . S
C1446 C1447 1.392 . S
C1447 H1423 0.951 . S
C1447 C1446 1.392 . S
C1447 C1448 1.392 . S
C1448 H1424 0.949 . S
C1448 C1443 1.382 . S
C1448 C1447 1.392 . S
C1449 C1450 1.376 . S
C1449 C1454 1.386 . S
C1449 C1455 1.483 . S
C1450 H1425 0.949 . S
C1450 C1449 1.376 . S
C1450 C1451 1.397 . S
C1451 H1426 0.950 . S
C1451 C1450 1.397 . S
C1451 C1452 1.391 . S
C1452 C1451 1.391 . S
C1452 C1453 1.405 . S
C1453 H1427 0.950 . S
C1453 C1452 1.405 . S
C1453 C1454 1.367 . S
C1454 H1428 0.950 . S
C1454 C1449 1.386 . S
C1454 C1453 1.367 . S
C1455 C1449 1.483 . S
C1455 C1456 1.382 . S
C1455 C1457 1.403 . S
C1456 H1429 0.950 . S
C1456 C1442 1.411 . S
C1456 C1455 1.382 . S
C1457 C1441 1.411 . S
C1457 C1455 1.403 . S
C1457 C1458 1.489 . S
C1458 C1457 1.489 . S
C1458 C1459 1.383 . S
C1458 C1463 1.382 . S
C1459 H1430 0.950 . S
C1459 C1458 1.383 . S
C1459 C1460 1.395 . S
C1460 H1431 0.950 . S
C1460 C1459 1.395 . S
C1460 C1461 1.288 . S
C1461 C1460 1.288 . S
C1461 C1462 1.392 . S
C1462 H1432 0.951 . S
C1462 C1461 1.392 . S
C1462 C1463 1.392 . S
C1463 H1433 0.949 . S
C1463 C1458 1.382 . S
C1463 C1462 1.392 . S
H1464 C1483 0.949 . S
H1465 C1484 0.950 . S
H1466 C1486 0.950 . S
H1467 C1487 0.950 . S
H1468 C1489 0.950 . S
H1469 C1492 0.950 . S
H1470 C1493 0.950 . S
H1471 C1495 0.951 . S
H1472 C1496 0.949 . S
H1473 C1498 0.949 . S
H1474 C1499 0.950 . S
H1475 C1501 0.950 . S
H1476 C1502 0.950 . S
H1477 C1504 0.950 . S
H1478 C1507 0.950 . S
H1479 C1508 0.950 . S
H1480 C1510 0.951 . S
H1481 C1511 0.949 . S
C1482 C1483 1.376 . S
C1482 C1487 1.386 . S
C1482 C1488 1.483 . S
C1483 H1464 0.949 . S
C1483 C1482 1.376 . S
C1483 C1484 1.397 . S
C1484 H1465 0.950 . S
C1484 C1483 1.397 . S
C1484 C1485 1.391 . S
C1485 C1484 1.391 . S
C1485 C1486 1.405 . S
C1486 H1466 0.950 . S
C1486 C1485 1.405 . S
C1486 C1487 1.367 . S
C1487 H1467 0.950 . S
C1487 C1482 1.386 . S
C1487 C1486 1.367 . S
C1488 C1482 1.483 . S
C1488 C1489 1.382 . S
C1488 C1490 1.403 . S
C1489 H1468 0.950 . S
C1489 C1488 1.382 . S
C1489 C1505 1.411 . S
C1490 C1488 1.403 . S
C1490 C1491 1.489 . S
C1490 C1504 1.411 . S
C1491 C1490 1.489 . S
C1491 C1492 1.383 . S
C1491 C1496 1.382 . S
C1492 H1469 0.950 . S
C1492 C1491 1.383 . S
C1492 C1493 1.395 . S
C1493 H1470 0.950 . S
C1493 C1492 1.395 . S
C1493 C1494 1.288 . S
C1494 C1493 1.288 . S
C1494 C1495 1.392 . S
C1495 H1471 0.951 . S
C1495 C1494 1.392 . S
C1495 C1496 1.392 . S
C1496 H1472 0.949 . S
C1496 C1491 1.382 . S
C1496 C1495 1.392 . S
C1497 C1498 1.376 . S
C1497 C1502 1.386 . S
C1497 C1503 1.483 . S
C1498 H1473 0.949 . S
C1498 C1497 1.376 . S
C1498 C1499 1.397 . S
C1499 H1474 0.950 . S
C1499 C1498 1.397 . S
C1499 C1500 1.391 . S
C1500 C1499 1.391 . S
C1500 C1501 1.405 . S
C1501 H1475 0.950 . S
C1501 C1500 1.405 . S
C1501 C1502 1.367 . S
C1502 H1476 0.950 . S
C1502 C1497 1.386 . S
C1502 C1501 1.367 . S
C1503 C1497 1.483 . S
C1503 C1504 1.382 . S
C1503 C1505 1.403 . S
C1504 H1477 0.950 . S
C1504 C1490 1.411 . S
C1504 C1503 1.382 . S
C1505 C1489 1.411 . S
C1505 C1503 1.403 . S
C1505 C1506 1.489 . S
C1506 C1505 1.489 . S
C1506 C1507 1.383 . S
C1506 C1511 1.382 . S
C1507 H1478 0.950 . S
C1507 C1506 1.383 . S
C1507 C1508 1.395 . S
C1508 H1479 0.950 . S
C1508 C1507 1.395 . S
C1508 C1509 1.288 . S
C1509 C1508 1.288 . S
C1509 C1510 1.392 . S
C1510 H1480 0.951 . S
C1510 C1509 1.392 . S
C1510 C1511 1.392 . S
C1511 H1481 0.949 . S
C1511 C1506 1.382 . S
C1511 C1510 1.392 . S
H1512 C1520 0.950 . S
H1513 C1525 0.950 . S
H1514 C1522 0.950 . S
H1515 C1524 0.950 . S
H1516 C1526 0.950 . S
H1517 C1528 0.950 . S
H1518 C1530 0.950 . S
H1519 C1531 0.950 . S
C1520 H1512 0.950 . S
C1520 C1521 1.386 1_455 S
C1520 C1522 1.391 . S
C1521 C1520 1.386 1_655 S
C1521 C1525 1.393 . S
C1522 H1514 0.950 . S
C1522 C1520 1.391 . S
C1522 C1523 1.400 1_455 S
C1523 C1522 1.400 1_655 S
C1523 C1524 1.398 . S
C1523 C1529 1.491 . S
C1524 H1515 0.950 . S
C1524 C1523 1.398 . S
C1524 C1525 1.391 . S
C1525 H1513 0.950 . S
C1525 C1521 1.393 . S
C1525 C1524 1.391 . S
C1526 H1516 0.950 . S
C1526 C1527 1.386 . S
C1526 C1528 1.391 . S
C1527 C1526 1.386 . S
C1527 C1531 1.393 1_655 S
C1528 H1517 0.950 . S
C1528 C1526 1.391 . S
C1528 C1529 1.400 . S
C1529 C1523 1.491 . S
C1529 C1528 1.400 . S
C1529 C1530 1.398 1_655 S
C1530 H1518 0.950 . S
C1530 C1529 1.398 1_455 S
C1530 C1531 1.391 . S
C1531 H1519 0.950 . S
C1531 C1527 1.393 1_455 S
C1531 C1530 1.391 . S
H1532 C1540 0.950 . S
H1533 C1545 0.950 . S
H1534 C1542 0.950 . S
H1535 C1544 0.950 . S
H1536 C1546 0.950 . S
H1537 C1548 0.950 . S
H1538 C1550 0.950 . S
H1539 C1551 0.950 . S
C1540 H1532 0.950 . S
C1540 C1541 1.386 . S
C1540 C1542 1.391 . S
C1541 C1540 1.386 . S
C1541 C1545 1.393 . S
C1542 H1534 0.950 . S
C1542 C1540 1.391 . S
C1542 C1543 1.400 . S
C1543 C1542 1.400 . S
C1543 C1544 1.398 . S
C1543 C1549 1.491 . S
C1544 H1535 0.950 . S
C1544 C1543 1.398 . S
C1544 C1545 1.391 . S
C1545 H1533 0.950 . S
C1545 C1541 1.393 . S
C1545 C1544 1.391 . S
C1546 H1536 0.950 . S
C1546 C1547 1.386 . S
C1546 C1548 1.391 . S
C1547 C1546 1.386 . S
C1547 C1551 1.393 . S
C1548 H1537 0.950 . S
C1548 C1546 1.391 . S
C1548 C1549 1.400 . S
C1549 C1543 1.491 . S
C1549 C1548 1.400 . S
C1549 C1550 1.398 . S
C1550 H1538 0.950 . S
C1550 C1549 1.398 . S
C1550 C1551 1.391 . S
C1551 H1539 0.950 . S
C1551 C1547 1.393 . S
C1551 C1550 1.391 . S
H1552 C1560 0.950 . S
H1553 C1565 0.950 . S
H1554 C1562 0.950 . S
H1555 C1564 0.950 . S
H1556 C1566 0.950 . S
H1557 C1568 0.950 . S
H1558 C1570 0.950 . S
H1559 C1571 0.950 . S
C1560 H1552 0.950 . S
C1560 C1561 1.386 . S
C1560 C1562 1.391 . S
C1561 C1560 1.386 . S
C1561 C1565 1.393 1_545 S
C1562 H1554 0.950 . S
C1562 C1560 1.391 . S
C1562 C1563 1.400 . S
C1563 C1562 1.400 . S
C1563 C1564 1.398 1_545 S
C1563 C1569 1.491 . S
C1564 H1555 0.950 . S
C1564 C1563 1.398 1_565 S
C1564 C1565 1.391 . S
C1565 H1553 0.950 . S
C1565 C1561 1.393 1_565 S
C1565 C1564 1.391 . S
C1566 H1556 0.950 . S
C1566 C1567 1.386 1_565 S
C1566 C1568 1.391 . S
C1567 C1566 1.386 1_545 S
C1567 C1571 1.393 . S
C1568 H1557 0.950 . S
C1568 C1566 1.391 . S
C1568 C1569 1.400 1_565 S
C1569 C1563 1.491 . S
C1569 C1568 1.400 1_545 S
C1569 C1570 1.398 . S
C1570 H1558 0.950 . S
C1570 C1569 1.398 . S
C1570 C1571 1.391 . S
C1571 H1559 0.950 . S
C1571 C1567 1.393 . S
C1571 C1570 1.391 . S
H1572 C1580 0.950 . S
H1573 C1585 0.950 . S
H1574 C1582 0.950 . S
H1575 C1584 0.950 . S
H1576 C1586 0.950 . S
H1577 C1588 0.950 . S
H1578 C1590 0.950 . S
H1579 C1591 0.950 . S
C1580 H1572 0.950 . S
C1580 C1581 1.386 . S
C1580 C1582 1.391 . S
C1581 C1580 1.386 . S
C1581 C1585 1.393 1_565 S
C1582 H1574 0.950 . S
C1582 C1580 1.391 . S
C1582 C1583 1.400 . S
C1583 C1582 1.400 . S
C1583 C1584 1.398 1_565 S
C1583 C1589 1.491 . S
C1584 H1575 0.950 . S
C1584 C1583 1.398 1_545 S
C1584 C1585 1.391 . S
C1585 H1573 0.950 . S
C1585 C1581 1.393 1_545 S
C1585 C1584 1.391 . S
C1586 H1576 0.950 . S
C1586 C1587 1.386 1_545 S
C1586 C1588 1.391 . S
C1587 C1586 1.386 1_565 S
C1587 C1591 1.393 . S
C1588 H1577 0.950 . S
C1588 C1586 1.391 . S
C1588 C1589 1.400 1_545 S
C1589 C1583 1.491 . S
C1589 C1588 1.400 1_565 S
C1589 C1590 1.398 . S
C1590 H1578 0.950 . S
C1590 C1589 1.398 . S
C1590 C1591 1.391 . S
C1591 H1579 0.950 . S
C1591 C1587 1.393 . S
C1591 C1590 1.391 . S
H1592 C1600 0.950 . S
H1593 C1605 0.950 . S
H1594 C1602 0.950 . S
H1595 C1604 0.950 . S
H1596 C1606 0.950 . S
H1597 C1608 0.950 . S
H1598 C1610 0.950 . S
H1599 C1611 0.950 . S
C1600 H1592 0.950 . S
C1600 C1601 1.386 . S
C1600 C1602 1.391 . S
C1601 C1600 1.386 . S
C1601 C1605 1.393 1_455 S
C1602 H1594 0.950 . S
C1602 C1600 1.391 . S
C1602 C1603 1.400 . S
C1603 C1602 1.400 . S
C1603 C1604 1.398 1_455 S
C1603 C1609 1.491 . S
C1604 H1595 0.950 . S
C1604 C1603 1.398 1_655 S
C1604 C1605 1.391 . S
C1605 H1593 0.950 . S
C1605 C1601 1.393 1_655 S
C1605 C1604 1.391 . S
C1606 H1596 0.950 . S
C1606 C1607 1.386 1_655 S
C1606 C1608 1.391 . S
C1607 C1606 1.386 1_455 S
C1607 C1611 1.393 . S
C1608 H1597 0.950 . S
C1608 C1606 1.391 . S
C1608 C1609 1.400 1_655 S
C1609 C1603 1.491 . S
C1609 C1608 1.400 1_455 S
C1609 C1610 1.398 . S
C1610 H1598 0.950 . S
C1610 C1609 1.398 . S
C1610 C1611 1.391 . S
C1611 H1599 0.950 . S
C1611 C1607 1.393 . S
C1611 C1610 1.391 . S
H1612 C1620 0.950 . S
H1613 C1625 0.950 . S
H1614 C1622 0.950 . S
H1615 C1624 0.950 . S
H1616 C1626 0.950 . S
H1617 C1628 0.950 . S
H1618 C1630 0.950 . S
H1619 C1631 0.950 . S
C1620 H1612 0.950 . S
C1620 C1621 1.386 . S
C1620 C1622 1.391 . S
C1621 C1620 1.386 . S
C1621 C1625 1.393 . S
C1622 H1614 0.950 . S
C1622 C1620 1.391 . S
C1622 C1623 1.400 . S
C1623 C1622 1.400 . S
C1623 C1624 1.398 . S
C1623 C1629 1.491 . S
C1624 H1615 0.950 . S
C1624 C1623 1.398 . S
C1624 C1625 1.391 . S
C1625 H1613 0.950 . S
C1625 C1621 1.393 . S
C1625 C1624 1.391 . S
C1626 H1616 0.950 . S
C1626 C1627 1.386 . S
C1626 C1628 1.391 . S
C1627 C1626 1.386 . S
C1627 C1631 1.393 . S
C1628 H1617 0.950 . S
C1628 C1626 1.391 . S
C1628 C1629 1.400 . S
C1629 C1623 1.491 . S
C1629 C1628 1.400 . S
C1629 C1630 1.398 . S
C1630 H1618 0.950 . S
C1630 C1629 1.398 . S
C1630 C1631 1.391 . S
C1631 H1619 0.950 . S
C1631 C1627 1.393 . S
C1631 C1630 1.391 . S
H1632 C1640 0.950 . S
H1633 C1645 0.950 . S
H1634 C1642 0.950 . S
H1635 C1644 0.950 . S
H1636 C1646 0.950 . S
H1637 C1648 0.950 . S
H1638 C1650 0.950 . S
H1639 C1651 0.950 . S
C1640 H1632 0.950 . S
C1640 C1641 1.386 . S
C1640 C1642 1.391 . S
C1641 C1640 1.386 . S
C1641 C1645 1.393 1_455 S
C1642 H1634 0.950 . S
C1642 C1640 1.391 . S
C1642 C1643 1.400 . S
C1643 C1642 1.400 . S
C1643 C1644 1.398 1_455 S
C1643 C1649 1.491 . S
C1644 H1635 0.950 . S
C1644 C1643 1.398 1_655 S
C1644 C1645 1.391 . S
C1645 H1633 0.950 . S
C1645 C1641 1.393 1_655 S
C1645 C1644 1.391 . S
C1646 H1636 0.950 . S
C1646 C1647 1.386 1_655 S
C1646 C1648 1.391 . S
C1647 C1646 1.386 1_455 S
C1647 C1651 1.393 . S
C1648 H1637 0.950 . S
C1648 C1646 1.391 . S
C1648 C1649 1.400 1_655 S
C1649 C1643 1.491 . S
C1649 C1648 1.400 1_455 S
C1649 C1650 1.398 . S
C1650 H1638 0.950 . S
C1650 C1649 1.398 . S
C1650 C1651 1.391 . S
C1651 H1639 0.950 . S
C1651 C1647 1.393 . S
C1651 C1650 1.391 . S
H1652 C1660 0.950 . S
H1653 C1665 0.950 . S
H1654 C1662 0.950 . S
H1655 C1664 0.950 . S
H1656 C1666 0.950 . S
H1657 C1668 0.950 . S
H1658 C1670 0.950 . S
H1659 C1671 0.950 . S
C1660 H1652 0.950 . S
C1660 C1661 1.386 . S
C1660 C1662 1.391 . S
C1661 C1660 1.386 . S
C1661 C1665 1.393 . S
C1662 H1654 0.950 . S
C1662 C1660 1.391 . S
C1662 C1663 1.400 . S
C1663 C1662 1.400 . S
C1663 C1664 1.398 . S
C1663 C1669 1.491 . S
C1664 H1655 0.950 . S
C1664 C1663 1.398 . S
C1664 C1665 1.391 . S
C1665 H1653 0.950 . S
C1665 C1661 1.393 . S
C1665 C1664 1.391 . S
C1666 H1656 0.950 . S
C1666 C1667 1.386 . S
C1666 C1668 1.391 . S
C1667 C1666 1.386 . S
C1667 C1671 1.393 . S
C1668 H1657 0.950 . S
C1668 C1666 1.391 . S
C1668 C1669 1.400 . S
C1669 C1663 1.491 . S
C1669 C1668 1.400 . S
C1669 C1670 1.398 . S
C1670 H1658 0.950 . S
C1670 C1669 1.398 . S
C1670 C1671 1.391 . S
C1671 H1659 0.950 . S
C1671 C1667 1.393 . S
C1671 C1670 1.391 . S
H1672 C1680 0.950 . S
H1673 C1685 0.950 . S
H1674 C1682 0.950 . S
H1675 C1684 0.950 . S
H1676 C1686 0.950 . S
H1677 C1688 0.950 . S
H1678 C1690 0.950 . S
H1679 C1691 0.950 . S
C1680 H1672 0.950 . S
C1680 C1681 1.386 . S
C1680 C1682 1.391 . S
C1681 C1680 1.386 . S
C1681 C1685 1.393 1_565 S
C1682 H1674 0.950 . S
C1682 C1680 1.391 . S
C1682 C1683 1.400 . S
C1683 C1682 1.400 . S
C1683 C1684 1.398 1_565 S
C1683 C1689 1.491 . S
C1684 H1675 0.950 . S
C1684 C1683 1.398 1_545 S
C1684 C1685 1.391 . S
C1685 H1673 0.950 . S
C1685 C1681 1.393 1_545 S
C1685 C1684 1.391 . S
C1686 H1676 0.950 . S
C1686 C1687 1.386 1_545 S
C1686 C1688 1.391 . S
C1687 C1686 1.386 1_565 S
C1687 C1691 1.393 . S
C1688 H1677 0.950 . S
C1688 C1686 1.391 . S
C1688 C1689 1.400 1_545 S
C1689 C1683 1.491 . S
C1689 C1688 1.400 1_565 S
C1689 C1690 1.398 . S
C1690 H1678 0.950 . S
C1690 C1689 1.398 . S
C1690 C1691 1.391 . S
C1691 H1679 0.950 . S
C1691 C1687 1.393 . S
C1691 C1690 1.391 . S
H1692 C1700 0.950 . S
H1693 C1705 0.950 . S
H1694 C1702 0.950 . S
H1695 C1704 0.950 . S
H1696 C1706 0.950 . S
H1697 C1708 0.950 . S
H1698 C1710 0.950 . S
H1699 C1711 0.950 . S
C1700 H1692 0.950 . S
C1700 C1701 1.386 . S
C1700 C1702 1.391 . S
C1701 C1700 1.386 . S
C1701 C1705 1.393 1_545 S
C1702 H1694 0.950 . S
C1702 C1700 1.391 . S
C1702 C1703 1.400 . S
C1703 C1702 1.400 . S
C1703 C1704 1.398 1_545 S
C1703 C1709 1.491 . S
C1704 H1695 0.950 . S
C1704 C1703 1.398 1_565 S
C1704 C1705 1.391 . S
C1705 H1693 0.950 . S
C1705 C1701 1.393 1_565 S
C1705 C1704 1.391 . S
C1706 H1696 0.950 . S
C1706 C1707 1.386 1_565 S
C1706 C1708 1.391 . S
C1707 C1706 1.386 1_545 S
C1707 C1711 1.393 . S
C1708 H1697 0.950 . S
C1708 C1706 1.391 . S
C1708 C1709 1.400 1_565 S
C1709 C1703 1.491 . S
C1709 C1708 1.400 1_545 S
C1709 C1710 1.398 . S
C1710 H1698 0.950 . S
C1710 C1709 1.398 . S
C1710 C1711 1.391 . S
C1711 H1699 0.950 . S
C1711 C1707 1.393 . S
C1711 C1710 1.391 . S
H1712 C1720 0.950 . S
H1713 C1725 0.950 . S
H1714 C1722 0.950 . S
H1715 C1724 0.950 . S
H1716 C1726 0.950 . S
H1717 C1728 0.950 . S
H1718 C1730 0.950 . S
H1719 C1731 0.950 . S
C1720 H1712 0.950 . S
C1720 C1721 1.386 . S
C1720 C1722 1.391 . S
C1721 C1720 1.386 . S
C1721 C1725 1.393 1_655 S
C1722 H1714 0.950 . S
C1722 C1720 1.391 . S
C1722 C1723 1.400 . S
C1723 C1722 1.400 . S
C1723 C1724 1.398 1_655 S
C1723 C1729 1.491 . S
C1724 H1715 0.950 . S
C1724 C1723 1.398 1_455 S
C1724 C1725 1.391 . S
C1725 H1713 0.950 . S
C1725 C1721 1.393 1_455 S
C1725 C1724 1.391 . S
C1726 H1716 0.950 . S
C1726 C1727 1.386 1_455 S
C1726 C1728 1.391 . S
C1727 C1726 1.386 1_655 S
C1727 C1731 1.393 . S
C1728 H1717 0.950 . S
C1728 C1726 1.391 . S
C1728 C1729 1.400 1_455 S
C1729 C1723 1.491 . S
C1729 C1728 1.400 1_655 S
C1729 C1730 1.398 . S
C1730 H1718 0.950 . S
C1730 C1729 1.398 . S
C1730 C1731 1.391 . S
C1731 H1719 0.950 . S
C1731 C1727 1.393 . S
C1731 C1730 1.391 . S
H1732 C1740 0.950 . S
H1733 C1745 0.950 . S
H1734 C1742 0.950 . S
H1735 C1744 0.950 . S
H1736 C1746 0.950 . S
H1737 C1748 0.950 . S
H1738 C1750 0.950 . S
H1739 C1751 0.950 . S
C1740 H1732 0.950 . S
C1740 C1741 1.386 . S
C1740 C1742 1.391 . S
C1741 C1740 1.386 . S
C1741 C1745 1.393 . S
C1742 H1734 0.950 . S
C1742 C1740 1.391 . S
C1742 C1743 1.400 . S
C1743 C1742 1.400 . S
C1743 C1744 1.398 . S
C1743 C1749 1.491 . S
C1744 H1735 0.950 . S
C1744 C1743 1.398 . S
C1744 C1745 1.391 . S
C1745 H1733 0.950 . S
C1745 C1741 1.393 . S
C1745 C1744 1.391 . S
C1746 H1736 0.950 . S
C1746 C1747 1.386 . S
C1746 C1748 1.391 . S
C1747 C1746 1.386 . S
C1747 C1751 1.393 . S
C1748 H1737 0.950 . S
C1748 C1746 1.391 . S
C1748 C1749 1.400 . S
C1749 C1743 1.491 . S
C1749 C1748 1.400 . S
C1749 C1750 1.398 . S
C1750 H1738 0.950 . S
C1750 C1749 1.398 . S
C1750 C1751 1.391 . S
C1751 H1739 0.950 . S
C1751 C1747 1.393 . S
C1751 C1750 1.391 . S
H1752 C1760 0.950 . S
H1753 C1765 0.950 . S
H1754 C1762 0.950 . S
H1755 C1764 0.950 . S
H1756 C1766 0.950 . S
H1757 C1768 0.950 . S
H1758 C1770 0.950 . S
H1759 C1771 0.950 . S
C1760 H1752 0.950 . S
C1760 C1761 1.386 . S
C1760 C1762 1.391 . S
C1761 C1760 1.386 . S
C1761 C1765 1.393 . S
C1762 H1754 0.950 . S
C1762 C1760 1.391 . S
C1762 C1763 1.400 . S
C1763 C1762 1.400 . S
C1763 C1764 1.398 . S
C1763 C1769 1.491 . S
C1764 H1755 0.950 . S
C1764 C1763 1.398 . S
C1764 C1765 1.391 . S
C1765 H1753 0.950 . S
C1765 C1761 1.393 . S
C1765 C1764 1.391 . S
C1766 H1756 0.950 . S
C1766 C1767 1.386 . S
C1766 C1768 1.391 . S
C1767 C1766 1.386 . S
C1767 C1771 1.393 . S
C1768 H1757 0.950 . S
C1768 C1766 1.391 . S
C1768 C1769 1.400 . S
C1769 C1763 1.491 . S
C1769 C1768 1.400 . S
C1769 C1770 1.398 . S
C1770 H1758 0.950 . S
C1770 C1769 1.398 . S
C1770 C1771 1.391 . S
C1771 H1759 0.950 . S
C1771 C1767 1.393 . S
C1771 C1770 1.391 . S
H1772 C1780 0.950 . S
H1773 C1785 0.950 . S
H1774 C1782 0.950 . S
H1775 C1784 0.950 . S
H1776 C1786 0.950 . S
H1777 C1788 0.950 . S
H1778 C1790 0.950 . S
H1779 C1791 0.950 . S
C1780 H1772 0.950 . S
C1780 C1781 1.386 . S
C1780 C1782 1.391 . S
C1781 C1780 1.386 . S
C1781 C1785 1.393 . S
C1782 H1774 0.950 . S
C1782 C1780 1.391 . S
C1782 C1783 1.400 . S
C1783 C1782 1.400 . S
C1783 C1784 1.398 . S
C1783 C1789 1.491 . S
C1784 H1775 0.950 . S
C1784 C1783 1.398 . S
C1784 C1785 1.391 . S
C1785 H1773 0.950 . S
C1785 C1781 1.393 . S
C1785 C1784 1.391 . S
C1786 H1776 0.950 . S
C1786 C1787 1.386 . S
C1786 C1788 1.391 . S
C1787 C1786 1.386 . S
C1787 C1791 1.393 . S
C1788 H1777 0.950 . S
C1788 C1786 1.391 . S
C1788 C1789 1.400 . S
C1789 C1783 1.491 . S
C1789 C1788 1.400 . S
C1789 C1790 1.398 . S
C1790 H1778 0.950 . S
C1790 C1789 1.398 . S
C1790 C1791 1.391 . S
C1791 H1779 0.950 . S
C1791 C1787 1.393 . S
C1791 C1790 1.391 . S
H1792 C1800 0.950 . S
H1793 C1805 0.950 . S
H1794 C1802 0.950 . S
H1795 C1804 0.950 . S
H1796 C1806 0.950 . S
H1797 C1808 0.950 . S
H1798 C1810 0.950 . S
H1799 C1811 0.950 . S
C1800 H1792 0.950 . S
C1800 C1801 1.386 . S
C1800 C1802 1.391 . S
C1801 C1800 1.386 . S
C1801 C1805 1.393 . S
C1802 H1794 0.950 . S
C1802 C1800 1.391 . S
C1802 C1803 1.400 . S
C1803 C1802 1.400 . S
C1803 C1804 1.398 . S
C1803 C1809 1.491 . S
C1804 H1795 0.950 . S
C1804 C1803 1.398 . S
C1804 C1805 1.391 . S
C1805 H1793 0.950 . S
C1805 C1801 1.393 . S
C1805 C1804 1.391 . S
C1806 H1796 0.950 . S
C1806 C1807 1.386 . S
C1806 C1808 1.391 . S
C1807 C1806 1.386 . S
C1807 C1811 1.393 . S
C1808 H1797 0.950 . S
C1808 C1806 1.391 . S
C1808 C1809 1.400 . S
C1809 C1803 1.491 . S
C1809 C1808 1.400 . S
C1809 C1810 1.398 . S
C1810 H1798 0.950 . S
C1810 C1809 1.398 . S
C1810 C1811 1.391 . S
C1811 H1799 0.950 . S
C1811 C1807 1.393 . S
C1811 C1810 1.391 . S
H1812 C1820 0.950 . S
H1813 C1825 0.950 . S
H1814 C1822 0.950 . S
H1815 C1824 0.950 . S
H1816 C1826 0.950 . S
H1817 C1828 0.950 . S
H1818 C1830 0.950 . S
H1819 C1831 0.950 . S
C1820 H1812 0.950 . S
C1820 C1821 1.386 . S
C1820 C1822 1.391 . S
C1821 C1820 1.386 . S
C1821 C1825 1.393 . S
C1822 H1814 0.950 . S
C1822 C1820 1.391 . S
C1822 C1823 1.400 . S
C1823 C1822 1.400 . S
C1823 C1824 1.398 . S
C1823 C1829 1.491 . S
C1824 H1815 0.950 . S
C1824 C1823 1.398 . S
C1824 C1825 1.391 . S
C1825 H1813 0.950 . S
C1825 C1821 1.393 . S
C1825 C1824 1.391 . S
C1826 H1816 0.950 . S
C1826 C1827 1.386 . S
C1826 C1828 1.391 . S
C1827 C1826 1.386 . S
C1827 C1831 1.393 . S
C1828 H1817 0.950 . S
C1828 C1826 1.391 . S
C1828 C1829 1.400 . S
C1829 C1823 1.491 . S
C1829 C1828 1.400 . S
C1829 C1830 1.398 . S
C1830 H1818 0.950 . S
C1830 C1829 1.398 . S
C1830 C1831 1.391 . S
C1831 H1819 0.950 . S
C1831 C1827 1.393 . S
C1831 C1830 1.391 . S
H1832 C1840 0.950 . S
H1833 C1845 0.950 . S
H1834 C1842 0.950 . S
H1835 C1844 0.950 . S
H1836 C1846 0.950 . S
H1837 C1848 0.950 . S
H1838 C1850 0.950 . S
H1839 C1851 0.950 . S
C1840 H1832 0.950 . S
C1840 C1841 1.386 . S
C1840 C1842 1.391 . S
C1841 C1840 1.386 . S
C1841 C1845 1.393 . S
C1842 H1834 0.950 . S
C1842 C1840 1.391 . S
C1842 C1843 1.400 . S
C1843 C1842 1.400 . S
C1843 C1844 1.398 . S
C1843 C1849 1.491 . S
C1844 H1835 0.950 . S
C1844 C1843 1.398 . S
C1844 C1845 1.391 . S
C1845 H1833 0.950 . S
C1845 C1841 1.393 . S
C1845 C1844 1.391 . S
C1846 H1836 0.950 . S
C1846 C1847 1.386 . S
C1846 C1848 1.391 . S
C1847 C1846 1.386 . S
C1847 C1851 1.393 . S
C1848 H1837 0.950 . S
C1848 C1846 1.391 . S
C1848 C1849 1.400 . S
C1849 C1843 1.491 . S
C1849 C1848 1.400 . S
C1849 C1850 1.398 . S
C1850 H1838 0.950 . S
C1850 C1849 1.398 . S
C1850 C1851 1.391 . S
C1851 H1839 0.950 . S
C1851 C1847 1.393 . S
C1851 C1850 1.391 . S
H1852 C1860 0.950 . S
H1853 C1865 0.950 . S
H1854 C1862 0.950 . S
H1855 C1864 0.950 . S
H1856 C1866 0.950 . S
H1857 C1868 0.950 . S
H1858 C1870 0.950 . S
H1859 C1871 0.950 . S
C1860 H1852 0.950 . S
C1860 C1861 1.386 . S
C1860 C1862 1.391 . S
C1861 C1860 1.386 . S
C1861 C1865 1.393 . S
C1862 H1854 0.950 . S
C1862 C1860 1.391 . S
C1862 C1863 1.400 . S
C1863 C1862 1.400 . S
C1863 C1864 1.398 . S
C1863 C1869 1.491 . S
C1864 H1855 0.950 . S
C1864 C1863 1.398 . S
C1864 C1865 1.391 . S
C1865 H1853 0.950 . S
C1865 C1861 1.393 . S
C1865 C1864 1.391 . S
C1866 H1856 0.950 . S
C1866 C1867 1.386 . S
C1866 C1868 1.391 . S
C1867 C1866 1.386 . S
C1867 C1871 1.393 . S
C1868 H1857 0.950 . S
C1868 C1866 1.391 . S
C1868 C1869 1.400 . S
C1869 C1863 1.491 . S
C1869 C1868 1.400 . S
C1869 C1870 1.398 . S
C1870 H1858 0.950 . S
C1870 C1869 1.398 . S
C1870 C1871 1.391 . S
C1871 H1859 0.950 . S
C1871 C1867 1.393 . S
C1871 C1870 1.391 . S
H1872 C1880 0.950 . S
H1873 C1885 0.950 . S
H1874 C1882 0.950 . S
H1875 C1884 0.950 . S
H1876 C1886 0.950 . S
H1877 C1888 0.950 . S
H1878 C1890 0.950 . S
H1879 C1891 0.950 . S
C1880 H1872 0.950 . S
C1880 C1881 1.386 . S
C1880 C1882 1.391 . S
C1881 C1880 1.386 . S
C1881 C1885 1.393 . S
C1882 H1874 0.950 . S
C1882 C1880 1.391 . S
C1882 C1883 1.400 . S
C1883 C1882 1.400 . S
C1883 C1884 1.398 . S
C1883 C1889 1.491 . S
C1884 H1875 0.950 . S
C1884 C1883 1.398 . S
C1884 C1885 1.391 . S
C1885 H1873 0.950 . S
C1885 C1881 1.393 . S
C1885 C1884 1.391 . S
C1886 H1876 0.950 . S
C1886 C1887 1.386 . S
C1886 C1888 1.391 . S
C1887 C1886 1.386 . S
C1887 C1891 1.393 . S
C1888 H1877 0.950 . S
C1888 C1886 1.391 . S
C1888 C1889 1.400 . S
C1889 C1883 1.491 . S
C1889 C1888 1.400 . S
C1889 C1890 1.398 . S
C1890 H1878 0.950 . S
C1890 C1889 1.398 . S
C1890 C1891 1.391 . S
C1891 H1879 0.950 . S
C1891 C1887 1.393 . S
C1891 C1890 1.391 . S
H1892 C1900 0.950 . S
H1893 C1905 0.950 . S
H1894 C1902 0.950 . S
H1895 C1904 0.950 . S
H1896 C1906 0.950 . S
H1897 C1908 0.950 . S
H1898 C1910 0.950 . S
H1899 C1911 0.950 . S
C1900 H1892 0.950 . S
C1900 C1901 1.386 . S
C1900 C1902 1.391 . S
C1901 C1900 1.386 . S
C1901 C1905 1.393 . S
C1902 H1894 0.950 . S
C1902 C1900 1.391 . S
C1902 C1903 1.400 . S
C1903 C1902 1.400 . S
C1903 C1904 1.398 . S
C1903 C1909 1.491 . S
C1904 H1895 0.950 . S
C1904 C1903 1.398 . S
C1904 C1905 1.391 . S
C1905 H1893 0.950 . S
C1905 C1901 1.393 . S
C1905 C1904 1.391 . S
C1906 H1896 0.950 . S
C1906 C1907 1.386 . S
C1906 C1908 1.391 . S
C1907 C1906 1.386 . S
C1907 C1911 1.393 . S
C1908 H1897 0.950 . S
C1908 C1906 1.391 . S
C1908 C1909 1.400 . S
C1909 C1903 1.491 . S
C1909 C1908 1.400 . S
C1909 C1910 1.398 . S
C1910 H1898 0.950 . S
C1910 C1909 1.398 . S
C1910 C1911 1.391 . S
C1911 H1899 0.950 . S
C1911 C1907 1.393 . S
C1911 C1910 1.391 . S
H1912 C1920 0.950 . S
H1913 C1925 0.950 . S
H1914 C1922 0.950 . S
H1915 C1924 0.950 . S
H1916 C1926 0.950 . S
H1917 C1928 0.950 . S
H1918 C1930 0.950 . S
H1919 C1931 0.950 . S
C1920 H1912 0.950 . S
C1920 C1921 1.386 . S
C1920 C1922 1.391 . S
C1921 C1920 1.386 . S
C1921 C1925 1.393 . S
C1922 H1914 0.950 . S
C1922 C1920 1.391 . S
C1922 C1923 1.400 . S
C1923 C1922 1.400 . S
C1923 C1924 1.398 . S
C1923 C1929 1.491 . S
C1924 H1915 0.950 . S
C1924 C1923 1.398 . S
C1924 C1925 1.391 . S
C1925 H1913 0.950 . S
C1925 C1921 1.393 . S
C1925 C1924 1.391 . S
C1926 H1916 0.950 . S
C1926 C1927 1.386 . S
C1926 C1928 1.391 . S
C1927 C1926 1.386 . S
C1927 C1931 1.393 . S
C1928 H1917 0.950 . S
C1928 C1926 1.391 . S
C1928 C1929 1.400 . S
C1929 C1923 1.491 . S
C1929 C1928 1.400 . S
C1929 C1930 1.398 . S
C1930 H1918 0.950 . S
C1930 C1929 1.398 . S
C1930 C1931 1.391 . S
C1931 H1919 0.950 . S
C1931 C1927 1.393 . S
C1931 C1930 1.391 . S
H1932 C1940 0.950 . S
H1933 C1945 0.950 . S
H1934 C1942 0.950 . S
H1935 C1944 0.950 . S
H1936 C1946 0.950 . S
H1937 C1948 0.950 . S
H1938 C1950 0.950 . S
H1939 C1951 0.950 . S
C1940 H1932 0.950 . S
C1940 C1941 1.386 . S
C1940 C1942 1.391 . S
C1941 C1940 1.386 . S
C1941 C1945 1.393 . S
C1942 H1934 0.950 . S
C1942 C1940 1.391 . S
C1942 C1943 1.400 . S
C1943 C1942 1.400 . S
C1943 C1944 1.398 . S
C1943 C1949 1.491 . S
C1944 H1935 0.950 . S
C1944 C1943 1.398 . S
C1944 C1945 1.391 . S
C1945 H1933 0.950 . S
C1945 C1941 1.393 . S
C1945 C1944 1.391 . S
C1946 H1936 0.950 . S
C1946 C1947 1.386 . S
C1946 C1948 1.391 . S
C1947 C1946 1.386 . S
C1947 C1951 1.393 . S
C1948 H1937 0.950 . S
C1948 C1946 1.391 . S
C1948 C1949 1.400 . S
C1949 C1943 1.491 . S
C1949 C1948 1.400 . S
C1949 C1950 1.398 . S
C1950 H1938 0.950 . S
C1950 C1949 1.398 . S
C1950 C1951 1.391 . S
C1951 H1939 0.950 . S
C1951 C1947 1.393 . S
C1951 C1950 1.391 . S
H1952 C1960 0.950 . S
H1953 C1965 0.950 . S
H1954 C1962 0.950 . S
H1955 C1964 0.950 . S
H1956 C1966 0.950 . S
H1957 C1968 0.950 . S
H1958 C1970 0.950 . S
H1959 C1971 0.950 . S
C1960 H1952 0.950 . S
C1960 C1961 1.386 . S
C1960 C1962 1.391 . S
C1961 C1960 1.386 . S
C1961 C1965 1.393 . S
C1962 H1954 0.950 . S
C1962 C1960 1.391 . S
C1962 C1963 1.400 . S
C1963 C1962 1.400 . S
C1963 C1964 1.398 . S
C1963 C1969 1.491 . S
C1964 H1955 0.950 . S
C1964 C1963 1.398 . S
C1964 C1965 1.391 . S
C1965 H1953 0.950 . S
C1965 C1961 1.393 . S
C1965 C1964 1.391 . S
C1966 H1956 0.950 . S
C1966 C1967 1.386 . S
C1966 C1968 1.391 . S
C1967 C1966 1.386 . S
C1967 C1971 1.393 . S
C1968 H1957 0.950 . S
C1968 C1966 1.391 . S
C1968 C1969 1.400 . S
C1969 C1963 1.491 . S
C1969 C1968 1.400 . S
C1969 C1970 1.398 . S
C1970 H1958 0.950 . S
C1970 C1969 1.398 . S
C1970 C1971 1.391 . S
C1971 H1959 0.950 . S
C1971 C1967 1.393 . S
C1971 C1970 1.391 . S
H1972 C1980 0.950 . S
H1973 C1985 0.950 . S
H1974 C1982 0.950 . S
H1975 C1984 0.950 . S
H1976 C1986 0.950 . S
H1977 C1988 0.950 . S
H1978 C1990 0.950 . S
H1979 C1991 0.950 . S
C1980 H1972 0.950 . S
C1980 C1981 1.386 . S
C1980 C1982 1.391 . S
C1981 C1980 1.386 . S
C1981 C1985 1.393 . S
C1982 H1974 0.950 . S
C1982 C1980 1.391 . S
C1982 C1983 1.400 . S
C1983 C1982 1.400 . S
C1983 C1984 1.398 . S
C1983 C1989 1.491 . S
C1984 H1975 0.950 . S
C1984 C1983 1.398 . S
C1984 C1985 1.391 . S
C1985 H1973 0.950 . S
C1985 C1981 1.393 . S
C1985 C1984 1.391 . S
C1986 H1976 0.950 . S
C1986 C1987 1.386 . S
C1986 C1988 1.391 . S
C1987 C1986 1.386 . S
C1987 C1991 1.393 . S
C1988 H1977 0.950 . S
C1988 C1986 1.391 . S
C1988 C1989 1.400 . S
C1989 C1983 1.491 . S
C1989 C1988 1.400 . S
C1989 C1990 1.398 . S
C1990 H1978 0.950 . S
C1990 C1989 1.398 . S
C1990 C1991 1.391 . S
C1991 H1979 0.950 . S
C1991 C1987 1.393 . S
C1991 C1990 1.391 . S
H1992 C2000 0.950 . S
H1993 C2005 0.950 . S
H1994 C2002 0.950 . S
H1995 C2004 0.950 . S
H1996 C2006 0.950 . S
H1997 C2008 0.950 . S
H1998 C2010 0.950 . S
H1999 C2011 0.950 . S
C2000 H1992 0.950 . S
C2000 C2001 1.386 . S
C2000 C2002 1.391 . S
C2001 C2000 1.386 . S
C2001 C2005 1.393 . S
C2002 H1994 0.950 . S
C2002 C2000 1.391 . S
C2002 C2003 1.400 . S
C2003 C2002 1.400 . S
C2003 C2004 1.398 . S
C2003 C2009 1.491 . S
C2004 H1995 0.950 . S
C2004 C2003 1.398 . S
C2004 C2005 1.391 . S
C2005 H1993 0.950 . S
C2005 C2001 1.393 . S
C2005 C2004 1.391 . S
C2006 H1996 0.950 . S
C2006 C2007 1.386 . S
C2006 C2008 1.391 . S
C2007 C2006 1.386 . S
C2007 C2011 1.393 . S
C2008 H1997 0.950 . S
C2008 C2006 1.391 . S
C2008 C2009 1.400 . S
C2009 C2003 1.491 . S
C2009 C2008 1.400 . S
C2009 C2010 1.398 . S
C2010 H1998 0.950 . S
C2010 C2009 1.398 . S
C2010 C2011 1.391 . S
C2011 H1999 0.950 . S
C2011 C2007 1.393 . S
C2011 C2010 1.391 . S
H2012 C2020 0.950 . S
H2013 C2025 0.950 . S
H2014 C2022 0.950 . S
H2015 C2024 0.950 . S
H2016 C2026 0.950 . S
H2017 C2028 0.950 . S
H2018 C2030 0.950 . S
H2019 C2031 0.950 . S
C2020 H2012 0.950 . S
C2020 C2021 1.386 . S
C2020 C2022 1.391 . S
C2021 C2020 1.386 . S
C2021 C2025 1.393 . S
C2022 H2014 0.950 . S
C2022 C2020 1.391 . S
C2022 C2023 1.400 . S
C2023 C2022 1.400 . S
C2023 C2024 1.398 . S
C2023 C2029 1.491 . S
C2024 H2015 0.950 . S
C2024 C2023 1.398 . S
C2024 C2025 1.391 . S
C2025 H2013 0.950 . S
C2025 C2021 1.393 . S
C2025 C2024 1.391 . S
C2026 H2016 0.950 . S
C2026 C2027 1.386 . S
C2026 C2028 1.391 . S
C2027 C2026 1.386 . S
C2027 C2031 1.393 . S
C2028 H2017 0.950 . S
C2028 C2026 1.391 . S
C2028 C2029 1.400 . S
C2029 C2023 1.491 . S
C2029 C2028 1.400 . S
C2029 C2030 1.398 . S
C2030 H2018 0.950 . S
C2030 C2029 1.398 . S
C2030 C2031 1.391 . S
C2031 H2019 0.950 . S
C2031 C2027 1.393 . S
C2031 C2030 1.391 . S
H2032 C2040 0.950 . S
H2033 C2045 0.950 . S
H2034 C2042 0.950 . S
H2035 C2044 0.950 . S
H2036 C2046 0.950 . S
H2037 C2048 0.950 . S
H2038 C2050 0.950 . S
H2039 C2051 0.950 . S
C2040 H2032 0.950 . S
C2040 C2041 1.386 . S
C2040 C2042 1.391 . S
C2041 C2040 1.386 . S
C2041 C2045 1.393 . S
C2042 H2034 0.950 . S
C2042 C2040 1.391 . S
C2042 C2043 1.400 . S
C2043 C2042 1.400 . S
C2043 C2044 1.398 . S
C2043 C2049 1.491 . S
C2044 H2035 0.950 . S
C2044 C2043 1.398 . S
C2044 C2045 1.391 . S
C2045 H2033 0.950 . S
C2045 C2041 1.393 . S
C2045 C2044 1.391 . S
C2046 H2036 0.950 . S
C2046 C2047 1.386 . S
C2046 C2048 1.391 . S
C2047 C2046 1.386 . S
C2047 C2051 1.393 . S
C2048 H2037 0.950 . S
C2048 C2046 1.391 . S
C2048 C2049 1.400 . S
C2049 C2043 1.491 . S
C2049 C2048 1.400 . S
C2049 C2050 1.398 . S
C2050 H2038 0.950 . S
C2050 C2049 1.398 . S
C2050 C2051 1.391 . S
C2051 H2039 0.950 . S
C2051 C2047 1.393 . S
C2051 C2050 1.391 . S
H2052 C2060 0.950 . S
H2053 C2065 0.950 . S
H2054 C2062 0.950 . S
H2055 C2064 0.950 . S
H2056 C2066 0.950 . S
H2057 C2068 0.950 . S
H2058 C2070 0.950 . S
H2059 C2071 0.950 . S
C2060 H2052 0.950 . S
C2060 C2061 1.386 . S
C2060 C2062 1.391 . S
C2061 C2060 1.386 . S
C2061 C2065 1.393 . S
C2062 H2054 0.950 . S
C2062 C2060 1.391 . S
C2062 C2063 1.400 . S
C2063 C2062 1.400 . S
C2063 C2064 1.398 . S
C2063 C2069 1.491 . S
C2064 H2055 0.950 . S
C2064 C2063 1.398 . S
C2064 C2065 1.391 . S
C2065 H2053 0.950 . S
C2065 C2061 1.393 . S
C2065 C2064 1.391 . S
C2066 H2056 0.950 . S
C2066 C2067 1.386 . S
C2066 C2068 1.391 . S
C2067 C2066 1.386 . S
C2067 C2071 1.393 . S
C2068 H2057 0.950 . S
C2068 C2066 1.391 . S
C2068 C2069 1.400 . S
C2069 C2063 1.491 . S
C2069 C2068 1.400 . S
C2069 C2070 1.398 . S
C2070 H2058 0.950 . S
C2070 C2069 1.398 . S
C2070 C2071 1.391 . S
C2071 H2059 0.950 . S
C2071 C2067 1.393 . S
C2071 C2070 1.391 . S
H2072 C2080 0.950 . S
H2073 C2085 0.950 . S
H2074 C2082 0.950 . S
H2075 C2084 0.950 . S
H2076 C2086 0.950 . S
H2077 C2088 0.950 . S
H2078 C2090 0.950 . S
H2079 C2091 0.950 . S
C2080 H2072 0.950 . S
C2080 C2081 1.386 . S
C2080 C2082 1.391 . S
C2081 C2080 1.386 . S
C2081 C2085 1.393 . S
C2082 H2074 0.950 . S
C2082 C2080 1.391 . S
C2082 C2083 1.400 . S
C2083 C2082 1.400 . S
C2083 C2084 1.398 . S
C2083 C2089 1.491 . S
C2084 H2075 0.950 . S
C2084 C2083 1.398 . S
C2084 C2085 1.391 . S
C2085 H2073 0.950 . S
C2085 C2081 1.393 . S
C2085 C2084 1.391 . S
C2086 H2076 0.950 . S
C2086 C2087 1.386 . S
C2086 C2088 1.391 . S
C2087 C2086 1.386 . S
C2087 C2091 1.393 . S
C2088 H2077 0.950 . S
C2088 C2086 1.391 . S
C2088 C2089 1.400 . S
C2089 C2083 1.491 . S
C2089 C2088 1.400 . S
C2089 C2090 1.398 . S
C2090 H2078 0.950 . S
C2090 C2089 1.398 . S
C2090 C2091 1.391 . S
C2091 H2079 0.950 . S
C2091 C2087 1.393 . S
C2091 C2090 1.391 . S
H2092 C2100 0.950 . S
H2093 C2105 0.950 . S
H2094 C2102 0.950 . S
H2095 C2104 0.950 . S
H2096 C2106 0.950 . S
H2097 C2108 0.950 . S
H2098 C2110 0.950 . S
H2099 C2111 0.950 . S
C2100 H2092 0.950 . S
C2100 C2101 1.386 . S
C2100 C2102 1.391 . S
C2101 C2100 1.386 . S
C2101 C2105 1.393 . S
C2102 H2094 0.950 . S
C2102 C2100 1.391 . S
C2102 C2103 1.400 . S
C2103 C2102 1.400 . S
C2103 C2104 1.398 . S
C2103 C2109 1.491 . S
C2104 H2095 0.950 . S
C2104 C2103 1.398 . S
C2104 C2105 1.391 . S
C2105 H2093 0.950 . S
C2105 C2101 1.393 . S
C2105 C2104 1.391 . S
C2106 H2096 0.950 . S
C2106 C2107 1.386 . S
C2106 C2108 1.391 . S
C2107 C2106 1.386 . S
C2107 C2111 1.393 . S
C2108 H2097 0.950 . S
C2108 C2106 1.391 . S
C2108 C2109 1.400 . S
C2109 C2103 1.491 . S
C2109 C2108 1.400 . S
C2109 C2110 1.398 . S
C2110 H2098 0.950 . S
C2110 C2109 1.398 . S
C2110 C2111 1.391 . S
C2111 H2099 0.950 . S
C2111 C2107 1.393 . S
C2111 C2110 1.391 . S
H2112 C2120 0.950 . S
H2113 C2125 0.950 . S
H2114 C2122 0.950 . S
H2115 C2124 0.950 . S
H2116 C2126 0.950 . S
H2117 C2128 0.950 . S
H2118 C2130 0.950 . S
H2119 C2131 0.950 . S
C2120 H2112 0.950 . S
C2120 C2121 1.386 . S
C2120 C2122 1.391 . S
C2121 C2120 1.386 . S
C2121 C2125 1.393 . S
C2122 H2114 0.950 . S
C2122 C2120 1.391 . S
C2122 C2123 1.400 . S
C2123 C2122 1.400 . S
C2123 C2124 1.398 . S
C2123 C2129 1.491 . S
C2124 H2115 0.950 . S
C2124 C2123 1.398 . S
C2124 C2125 1.391 . S
C2125 H2113 0.950 . S
C2125 C2121 1.393 . S
C2125 C2124 1.391 . S
C2126 H2116 0.950 . S
C2126 C2127 1.386 . S
C2126 C2128 1.391 . S
C2127 C2126 1.386 . S
C2127 C2131 1.393 . S
C2128 H2117 0.950 . S
C2128 C2126 1.391 . S
C2128 C2129 1.400 . S
C2129 C2123 1.491 . S
C2129 C2128 1.400 . S
C2129 C2130 1.398 . S
C2130 H2118 0.950 . S
C2130 C2129 1.398 . S
C2130 C2131 1.391 . S
C2131 H2119 0.950 . S
C2131 C2127 1.393 . S
C2131 C2130 1.391 . S
H2132 C2140 0.950 . S
H2133 C2145 0.950 . S
H2134 C2142 0.950 . S
H2135 C2144 0.950 . S
H2136 C2146 0.950 . S
H2137 C2148 0.950 . S
H2138 C2150 0.950 . S
H2139 C2151 0.950 . S
C2140 H2132 0.950 . S
C2140 C2141 1.386 . S
C2140 C2142 1.391 . S
C2141 C2140 1.386 . S
C2141 C2145 1.393 . S
C2142 H2134 0.950 . S
C2142 C2140 1.391 . S
C2142 C2143 1.400 . S
C2143 C2142 1.400 . S
C2143 C2144 1.398 . S
C2143 C2149 1.491 . S
C2144 H2135 0.950 . S
C2144 C2143 1.398 . S
C2144 C2145 1.391 . S
C2145 H2133 0.950 . S
C2145 C2141 1.393 . S
C2145 C2144 1.391 . S
C2146 H2136 0.950 . S
C2146 C2147 1.386 . S
C2146 C2148 1.391 . S
C2147 C2146 1.386 . S
C2147 C2151 1.393 . S
C2148 H2137 0.950 . S
C2148 C2146 1.391 . S
C2148 C2149 1.400 . S
C2149 C2143 1.491 . S
C2149 C2148 1.400 . S
C2149 C2150 1.398 . S
C2150 H2138 0.950 . S
C2150 C2149 1.398 . S
C2150 C2151 1.391 . S
C2151 H2139 0.950 . S
C2151 C2147 1.393 . S
C2151 C2150 1.391 . S
H2152 C2160 0.950 . S
H2153 C2165 0.950 . S
H2154 C2162 0.950 . S
H2155 C2164 0.950 . S
H2156 C2166 0.950 . S
H2157 C2168 0.950 . S
H2158 C2170 0.950 . S
H2159 C2171 0.950 . S
C2160 H2152 0.950 . S
C2160 C2161 1.386 . S
C2160 C2162 1.391 . S
C2161 C2160 1.386 . S
C2161 C2165 1.393 . S
C2162 H2154 0.950 . S
C2162 C2160 1.391 . S
C2162 C2163 1.400 . S
C2163 C2162 1.400 . S
C2163 C2164 1.398 . S
C2163 C2169 1.491 . S
C2164 H2155 0.950 . S
C2164 C2163 1.398 . S
C2164 C2165 1.391 . S
C2165 H2153 0.950 . S
C2165 C2161 1.393 . S
C2165 C2164 1.391 . S
C2166 H2156 0.950 . S
C2166 C2167 1.386 . S
C2166 C2168 1.391 . S
C2167 C2166 1.386 . S
C2167 C2171 1.393 . S
C2168 H2157 0.950 . S
C2168 C2166 1.391 . S
C2168 C2169 1.400 . S
C2169 C2163 1.491 . S
C2169 C2168 1.400 . S
C2169 C2170 1.398 . S
C2170 H2158 0.950 . S
C2170 C2169 1.398 . S
C2170 C2171 1.391 . S
C2171 H2159 0.950 . S
C2171 C2167 1.393 . S
C2171 C2170 1.391 . S
H2172 C2180 0.950 . S
H2173 C2185 0.950 . S
H2174 C2182 0.950 . S
H2175 C2184 0.950 . S
H2176 C2186 0.950 . S
H2177 C2188 0.950 . S
H2178 C2190 0.950 . S
H2179 C2191 0.950 . S
C2180 H2172 0.950 . S
C2180 C2181 1.386 . S
C2180 C2182 1.391 . S
C2181 C2180 1.386 . S
C2181 C2185 1.393 . S
C2182 H2174 0.950 . S
C2182 C2180 1.391 . S
C2182 C2183 1.400 . S
C2183 C2182 1.400 . S
C2183 C2184 1.398 . S
C2183 C2189 1.491 . S
C2184 H2175 0.950 . S
C2184 C2183 1.398 . S
C2184 C2185 1.391 . S
C2185 H2173 0.950 . S
C2185 C2181 1.393 . S
C2185 C2184 1.391 . S
C2186 H2176 0.950 . S
C2186 C2187 1.386 . S
C2186 C2188 1.391 . S
C2187 C2186 1.386 . S
C2187 C2191 1.393 . S
C2188 H2177 0.950 . S
C2188 C2186 1.391 . S
C2188 C2189 1.400 . S
C2189 C2183 1.491 . S
C2189 C2188 1.400 . S
C2189 C2190 1.398 . S
C2190 H2178 0.950 . S
C2190 C2189 1.398 . S
C2190 C2191 1.391 . S
C2191 H2179 0.950 . S
C2191 C2187 1.393 . S
C2191 C2190 1.391 . S
H2192 C2200 0.950 . S
H2193 C2205 0.950 . S
H2194 C2202 0.950 . S
H2195 C2204 0.950 . S
H2196 C2206 0.950 . S
H2197 C2208 0.950 . S
H2198 C2210 0.950 . S
H2199 C2211 0.950 . S
C2200 H2192 0.950 . S
C2200 C2201 1.386 . S
C2200 C2202 1.391 . S
C2201 C2200 1.386 . S
C2201 C2205 1.393 . S
C2202 H2194 0.950 . S
C2202 C2200 1.391 . S
C2202 C2203 1.400 . S
C2203 C2202 1.400 . S
C2203 C2204 1.398 . S
C2203 C2209 1.491 . S
C2204 H2195 0.950 . S
C2204 C2203 1.398 . S
C2204 C2205 1.391 . S
C2205 H2193 0.950 . S
C2205 C2201 1.393 . S
C2205 C2204 1.391 . S
C2206 H2196 0.950 . S
C2206 C2207 1.386 . S
C2206 C2208 1.391 . S
C2207 C2206 1.386 . S
C2207 C2211 1.393 . S
C2208 H2197 0.950 . S
C2208 C2206 1.391 . S
C2208 C2209 1.400 . S
C2209 C2203 1.491 . S
C2209 C2208 1.400 . S
C2209 C2210 1.398 . S
C2210 H2198 0.950 . S
C2210 C2209 1.398 . S
C2210 C2211 1.391 . S
C2211 H2199 0.950 . S
C2211 C2207 1.393 . S
C2211 C2210 1.391 . S
H2212 C2220 0.950 . S
H2213 C2225 0.950 . S
H2214 C2222 0.950 . S
H2215 C2224 0.950 . S
H2216 C2226 0.950 . S
H2217 C2228 0.950 . S
H2218 C2230 0.950 . S
H2219 C2231 0.950 . S
C2220 H2212 0.950 . S
C2220 C2221 1.386 . S
C2220 C2222 1.391 . S
C2221 C2220 1.386 . S
C2221 C2225 1.393 . S
C2222 H2214 0.950 . S
C2222 C2220 1.391 . S
C2222 C2223 1.400 . S
C2223 C2222 1.400 . S
C2223 C2224 1.398 . S
C2223 C2229 1.491 . S
C2224 H2215 0.950 . S
C2224 C2223 1.398 . S
C2224 C2225 1.391 . S
C2225 H2213 0.950 . S
C2225 C2221 1.393 . S
C2225 C2224 1.391 . S
C2226 H2216 0.950 . S
C2226 C2227 1.386 . S
C2226 C2228 1.391 . S
C2227 C2226 1.386 . S
C2227 C2231 1.393 . S
C2228 H2217 0.950 . S
C2228 C2226 1.391 . S
C2228 C2229 1.400 . S
C2229 C2223 1.491 . S
C2229 C2228 1.400 . S
C2229 C2230 1.398 . S
C2230 H2218 0.950 . S
C2230 C2229 1.398 . S
C2230 C2231 1.391 . S
C2231 H2219 0.950 . S
C2231 C2227 1.393 . S
C2231 C2230 1.391 . S
H2232 C2240 0.950 . S
H2233 C2245 0.950 . S
H2234 C2242 0.950 . S
H2235 C2244 0.950 . S
H2236 C2246 0.950 . S
H2237 C2248 0.950 . S
H2238 C2250 0.950 . S
H2239 C2251 0.950 . S
C2240 H2232 0.950 . S
C2240 C2241 1.386 . S
C2240 C2242 1.391 . S
C2241 C2240 1.386 . S
C2241 C2245 1.393 . S
C2242 H2234 0.950 . S
C2242 C2240 1.391 . S
C2242 C2243 1.400 . S
C2243 C2242 1.400 . S
C2243 C2244 1.398 . S
C2243 C2249 1.491 . S
C2244 H2235 0.950 . S
C2244 C2243 1.398 . S
C2244 C2245 1.391 . S
C2245 H2233 0.950 . S
C2245 C2241 1.393 . S
C2245 C2244 1.391 . S
C2246 H2236 0.950 . S
C2246 C2247 1.386 . S
C2246 C2248 1.391 . S
C2247 C2246 1.386 . S
C2247 C2251 1.393 . S
C2248 H2237 0.950 . S
C2248 C2246 1.391 . S
C2248 C2249 1.400 . S
C2249 C2243 1.491 . S
C2249 C2248 1.400 . S
C2249 C2250 1.398 . S
C2250 H2238 0.950 . S
C2250 C2249 1.398 . S
C2250 C2251 1.391 . S
C2251 H2239 0.950 . S
C2251 C2247 1.393 . S
C2251 C2250 1.391 . S
H2252 C2260 0.950 . S
H2253 C2265 0.950 . S
H2254 C2262 0.950 . S
H2255 C2264 0.950 . S
H2256 C2266 0.950 . S
H2257 C2268 0.950 . S
H2258 C2270 0.950 . S
H2259 C2271 0.950 . S
C2260 H2252 0.950 . S
C2260 C2261 1.386 . S
C2260 C2262 1.391 . S
C2261 C2260 1.386 . S
C2261 C2265 1.393 . S
C2262 H2254 0.950 . S
C2262 C2260 1.391 . S
C2262 C2263 1.400 . S
C2263 C2262 1.400 . S
C2263 C2264 1.398 . S
C2263 C2269 1.491 . S
C2264 H2255 0.950 . S
C2264 C2263 1.398 . S
C2264 C2265 1.391 . S
C2265 H2253 0.950 . S
C2265 C2261 1.393 . S
C2265 C2264 1.391 . S
C2266 H2256 0.950 . S
C2266 C2267 1.386 . S
C2266 C2268 1.391 . S
C2267 C2266 1.386 . S
C2267 C2271 1.393 . S
C2268 H2257 0.950 . S
C2268 C2266 1.391 . S
C2268 C2269 1.400 . S
C2269 C2263 1.491 . S
C2269 C2268 1.400 . S
C2269 C2270 1.398 . S
C2270 H2258 0.950 . S
C2270 C2269 1.398 . S
C2270 C2271 1.391 . S
C2271 H2259 0.950 . S
C2271 C2267 1.393 . S
C2271 C2270 1.391 . S
H2272 C2280 0.950 . S
H2273 C2285 0.950 . S
H2274 C2282 0.950 . S
H2275 C2284 0.950 . S
H2276 C2286 0.950 . S
H2277 C2288 0.950 . S
H2278 C2290 0.950 . S
H2279 C2291 0.950 . S
C2280 H2272 0.950 . S
C2280 C2281 1.386 . S
C2280 C2282 1.391 . S
C2281 C2280 1.386 . S
C2281 C2285 1.393 . S
C2282 H2274 0.950 . S
C2282 C2280 1.391 . S
C2282 C2283 1.400 . S
C2283 C2282 1.400 . S
C2283 C2284 1.398 . S
C2283 C2289 1.491 . S
C2284 H2275 0.950 . S
C2284 C2283 1.398 . S
C2284 C2285 1.391 . S
C2285 H2273 0.950 . S
C2285 C2281 1.393 . S
C2285 C2284 1.391 . S
C2286 H2276 0.950 . S
C2286 C2287 1.386 . S
C2286 C2288 1.391 . S
C2287 C2286 1.386 . S
C2287 C2291 1.393 . S
C2288 H2277 0.950 . S
C2288 C2286 1.391 . S
C2288 C2289 1.400 . S
C2289 C2283 1.491 . S
C2289 C2288 1.400 . S
C2289 C2290 1.398 . S
C2290 H2278 0.950 . S
C2290 C2289 1.398 . S
C2290 C2291 1.391 . S
C2291 H2279 0.950 . S
C2291 C2287 1.393 . S
C2291 C2290 1.391 . S
H2292 C2300 0.950 . S
H2293 C2305 0.950 1_554 S
H2294 C2302 0.950 . S
H2295 C2304 0.950 . S
H2296 C2306 0.950 . S
H2297 C2308 0.950 . S
H2298 C2310 0.950 . S
H2299 C2311 0.950 . S
C2300 H2292 0.950 . S
C2300 C2301 1.386 . S
C2300 C2302 1.391 . S
C2301 C2300 1.386 . S
C2301 C2305 1.393 . S
C2302 H2294 0.950 . S
C2302 C2300 1.391 . S
C2302 C2303 1.400 . S
C2303 C2302 1.400 . S
C2303 C2304 1.398 . S
C2303 C2309 1.491 . S
C2304 H2295 0.950 . S
C2304 C2303 1.398 . S
C2304 C2305 1.391 . S
C2305 H2293 0.950 1_556 S
C2305 C2301 1.393 . S
C2305 C2304 1.391 . S
C2306 H2296 0.950 . S
C2306 C2307 1.386 . S
C2306 C2308 1.391 . S
C2307 C2306 1.386 . S
C2307 C2311 1.393 . S
C2308 H2297 0.950 . S
C2308 C2306 1.391 . S
C2308 C2309 1.400 . S
C2309 C2303 1.491 . S
C2309 C2308 1.400 . S
C2309 C2310 1.398 . S
C2310 H2298 0.950 . S
C2310 C2309 1.398 . S
C2310 C2311 1.391 . S
C2311 H2299 0.950 . S
C2311 C2307 1.393 . S
C2311 C2310 1.391 . S
H2312 C2320 0.950 . S
H2313 C2325 0.950 1_554 S
H2314 C2322 0.950 . S
H2315 C2324 0.950 . S
H2316 C2326 0.950 . S
H2317 C2328 0.950 . S
H2318 C2330 0.950 . S
H2319 C2331 0.950 . S
C2320 H2312 0.950 . S
C2320 C2321 1.386 . S
C2320 C2322 1.391 . S
C2321 C2320 1.386 . S
C2321 C2325 1.393 . S
C2322 H2314 0.950 . S
C2322 C2320 1.391 . S
C2322 C2323 1.400 . S
C2323 C2322 1.400 . S
C2323 C2324 1.398 . S
C2323 C2329 1.491 . S
C2324 H2315 0.950 . S
C2324 C2323 1.398 . S
C2324 C2325 1.391 . S
C2325 H2313 0.950 1_556 S
C2325 C2321 1.393 . S
C2325 C2324 1.391 . S
C2326 H2316 0.950 . S
C2326 C2327 1.386 . S
C2326 C2328 1.391 . S
C2327 C2326 1.386 . S
C2327 C2331 1.393 . S
C2328 H2317 0.950 . S
C2328 C2326 1.391 . S
C2328 C2329 1.400 . S
C2329 C2323 1.491 . S
C2329 C2328 1.400 . S
C2329 C2330 1.398 . S
C2330 H2318 0.950 . S
C2330 C2329 1.398 . S
C2330 C2331 1.391 . S
C2331 H2319 0.950 . S
C2331 C2327 1.393 . S
C2331 C2330 1.391 . S
H2332 C2340 0.950 . S
H2333 C2345 0.950 . S
H2334 C2342 0.950 . S
H2335 C2344 0.950 . S
H2336 C2346 0.950 . S
H2337 C2348 0.950 . S
H2338 C2350 0.950 . S
H2339 C2351 0.950 . S
C2340 H2332 0.950 . S
C2340 C2341 1.386 . S
C2340 C2342 1.391 . S
C2341 C2340 1.386 . S
C2341 C2345 1.393 . S
C2342 H2334 0.950 . S
C2342 C2340 1.391 . S
C2342 C2343 1.400 . S
C2343 C2342 1.400 . S
C2343 C2344 1.398 . S
C2343 C2349 1.491 . S
C2344 H2335 0.950 . S
C2344 C2343 1.398 . S
C2344 C2345 1.391 . S
C2345 H2333 0.950 . S
C2345 C2341 1.393 . S
C2345 C2344 1.391 . S
C2346 H2336 0.950 . S
C2346 C2347 1.386 . S
C2346 C2348 1.391 . S
C2347 C2346 1.386 . S
C2347 C2351 1.393 . S
C2348 H2337 0.950 . S
C2348 C2346 1.391 . S
C2348 C2349 1.400 . S
C2349 C2343 1.491 . S
C2349 C2348 1.400 . S
C2349 C2350 1.398 . S
C2350 H2338 0.950 . S
C2350 C2349 1.398 . S
C2350 C2351 1.391 . S
C2351 H2339 0.950 . S
C2351 C2347 1.393 . S
C2351 C2350 1.391 . S
H2352 C2360 0.950 . S
H2353 C2365 0.950 . S
H2354 C2362 0.950 . S
H2355 C2364 0.950 . S
H2356 C2366 0.950 . S
H2357 C2368 0.950 . S
H2358 C2370 0.950 . S
H2359 C2371 0.950 . S
C2360 H2352 0.950 . S
C2360 C2361 1.386 . S
C2360 C2362 1.391 . S
C2361 C2360 1.386 . S
C2361 C2365 1.393 . S
C2362 H2354 0.950 . S
C2362 C2360 1.391 . S
C2362 C2363 1.400 . S
C2363 C2362 1.400 . S
C2363 C2364 1.398 . S
C2363 C2369 1.491 . S
C2364 H2355 0.950 . S
C2364 C2363 1.398 . S
C2364 C2365 1.391 . S
C2365 H2353 0.950 . S
C2365 C2361 1.393 . S
C2365 C2364 1.391 . S
C2366 H2356 0.950 . S
C2366 C2367 1.386 . S
C2366 C2368 1.391 . S
C2367 C2366 1.386 . S
C2367 C2371 1.393 . S
C2368 H2357 0.950 . S
C2368 C2366 1.391 . S
C2368 C2369 1.400 . S
C2369 C2363 1.491 . S
C2369 C2368 1.400 . S
C2369 C2370 1.398 . S
C2370 H2358 0.950 . S
C2370 C2369 1.398 . S
C2370 C2371 1.391 . S
C2371 H2359 0.950 . S
C2371 C2367 1.393 . S
C2371 C2370 1.391 . S
H2372 C2380 0.950 1_554 S
H2373 C2385 0.950 . S
H2374 C2382 0.950 . S
H2375 C2384 0.950 . S
H2376 C2386 0.950 . S
H2377 C2388 0.950 . S
H2378 C2390 0.950 . S
H2379 C2391 0.950 . S
C2380 H2372 0.950 1_556 S
C2380 C2381 1.386 . S
C2380 C2382 1.391 . S
C2381 C2380 1.386 . S
C2381 C2385 1.393 . S
C2382 H2374 0.950 . S
C2382 C2380 1.391 . S
C2382 C2383 1.400 . S
C2383 C2382 1.400 . S
C2383 C2384 1.398 . S
C2383 C2389 1.491 . S
C2384 H2375 0.950 . S
C2384 C2383 1.398 . S
C2384 C2385 1.391 . S
C2385 H2373 0.950 . S
C2385 C2381 1.393 . S
C2385 C2384 1.391 . S
C2386 H2376 0.950 . S
C2386 C2387 1.386 . S
C2386 C2388 1.391 . S
C2387 C2386 1.386 . S
C2387 C2391 1.393 . S
C2388 H2377 0.950 . S
C2388 C2386 1.391 . S
C2388 C2389 1.400 . S
C2389 C2383 1.491 . S
C2389 C2388 1.400 . S
C2389 C2390 1.398 . S
C2390 H2378 0.950 . S
C2390 C2389 1.398 . S
C2390 C2391 1.391 . S
C2391 H2379 0.950 . S
C2391 C2387 1.393 . S
C2391 C2390 1.391 . S
H2392 C2400 0.950 . S
H2393 C2405 0.950 . S
H2394 C2402 0.950 . S
H2395 C2404 0.950 . S
H2396 C2406 0.950 . S
H2397 C2408 0.950 . S
H2398 C2410 0.950 . S
H2399 C2411 0.950 . S
C2400 H2392 0.950 . S
C2400 C2401 1.386 . S
C2400 C2402 1.391 . S
C2401 C2400 1.386 . S
C2401 C2405 1.393 . S
C2402 H2394 0.950 . S
C2402 C2400 1.391 . S
C2402 C2403 1.400 . S
C2403 C2402 1.400 . S
C2403 C2404 1.398 . S
C2403 C2409 1.491 . S
C2404 H2395 0.950 . S
C2404 C2403 1.398 . S
C2404 C2405 1.391 . S
C2405 H2393 0.950 . S
C2405 C2401 1.393 . S
C2405 C2404 1.391 . S
C2406 H2396 0.950 . S
C2406 C2407 1.386 . S
C2406 C2408 1.391 . S
C2407 C2406 1.386 . S
C2407 C2411 1.393 . S
C2408 H2397 0.950 . S
C2408 C2406 1.391 . S
C2408 C2409 1.400 . S
C2409 C2403 1.491 . S
C2409 C2408 1.400 . S
C2409 C2410 1.398 . S
C2410 H2398 0.950 . S
C2410 C2409 1.398 . S
C2410 C2411 1.391 . S
C2411 H2399 0.950 . S
C2411 C2407 1.393 . S
C2411 C2410 1.391 . S
H2412 C2420 0.950 . S
H2413 C2425 0.950 . S
H2414 C2422 0.950 . S
H2415 C2424 0.950 . S
H2416 C2426 0.950 . S
H2417 C2428 0.950 . S
H2418 C2430 0.950 . S
H2419 C2431 0.950 . S
C2420 H2412 0.950 . S
C2420 C2421 1.386 . S
C2420 C2422 1.391 . S
C2421 C2420 1.386 . S
C2421 C2425 1.393 . S
C2422 H2414 0.950 . S
C2422 C2420 1.391 . S
C2422 C2423 1.400 . S
C2423 C2422 1.400 . S
C2423 C2424 1.398 . S
C2423 C2429 1.491 . S
C2424 H2415 0.950 . S
C2424 C2423 1.398 . S
C2424 C2425 1.391 . S
C2425 H2413 0.950 . S
C2425 C2421 1.393 . S
C2425 C2424 1.391 . S
C2426 H2416 0.950 . S
C2426 C2427 1.386 . S
C2426 C2428 1.391 . S
C2427 C2426 1.386 . S
C2427 C2431 1.393 . S
C2428 H2417 0.950 . S
C2428 C2426 1.391 . S
C2428 C2429 1.400 . S
C2429 C2423 1.491 . S
C2429 C2428 1.400 . S
C2429 C2430 1.398 . S
C2430 H2418 0.950 . S
C2430 C2429 1.398 . S
C2430 C2431 1.391 . S
C2431 H2419 0.950 . S
C2431 C2427 1.393 . S
C2431 C2430 1.391 . S
H2432 C2440 0.950 . S
H2433 C2445 0.950 . S
H2434 C2442 0.950 . S
H2435 C2444 0.950 . S
H2436 C2446 0.950 . S
H2437 C2448 0.950 . S
H2438 C2450 0.950 . S
H2439 C2451 0.950 . S
C2440 H2432 0.950 . S
C2440 C2441 1.386 . S
C2440 C2442 1.391 . S
C2441 C2440 1.386 . S
C2441 C2445 1.393 . S
C2442 H2434 0.950 . S
C2442 C2440 1.391 . S
C2442 C2443 1.400 . S
C2443 C2442 1.400 . S
C2443 C2444 1.398 . S
C2443 C2449 1.491 . S
C2444 H2435 0.950 . S
C2444 C2443 1.398 . S
C2444 C2445 1.391 . S
C2445 H2433 0.950 . S
C2445 C2441 1.393 . S
C2445 C2444 1.391 . S
C2446 H2436 0.950 . S
C2446 C2447 1.386 . S
C2446 C2448 1.391 . S
C2447 C2446 1.386 . S
C2447 C2451 1.393 . S
C2448 H2437 0.950 . S
C2448 C2446 1.391 . S
C2448 C2449 1.400 . S
C2449 C2443 1.491 . S
C2449 C2448 1.400 . S
C2449 C2450 1.398 . S
C2450 H2438 0.950 . S
C2450 C2449 1.398 . S
C2450 C2451 1.391 . S
C2451 H2439 0.950 . S
C2451 C2447 1.393 . S
C2451 C2450 1.391 . S
H2452 C2460 0.950 . S
H2453 C2465 0.950 . S
H2454 C2462 0.950 . S
H2455 C2464 0.950 . S
H2456 C2466 0.950 . S
H2457 C2468 0.950 . S
H2458 C2470 0.950 . S
H2459 C2471 0.950 . S
C2460 H2452 0.950 . S
C2460 C2461 1.386 . S
C2460 C2462 1.391 . S
C2461 C2460 1.386 . S
C2461 C2465 1.393 . S
C2462 H2454 0.950 . S
C2462 C2460 1.391 . S
C2462 C2463 1.400 . S
C2463 C2462 1.400 . S
C2463 C2464 1.398 . S
C2463 C2469 1.491 . S
C2464 H2455 0.950 . S
C2464 C2463 1.398 . S
C2464 C2465 1.391 . S
C2465 H2453 0.950 . S
C2465 C2461 1.393 . S
C2465 C2464 1.391 . S
C2466 H2456 0.950 . S
C2466 C2467 1.386 . S
C2466 C2468 1.391 . S
C2467 C2466 1.386 . S
C2467 C2471 1.393 . S
C2468 H2457 0.950 . S
C2468 C2466 1.391 . S
C2468 C2469 1.400 . S
C2469 C2463 1.491 . S
C2469 C2468 1.400 . S
C2469 C2470 1.398 . S
C2470 H2458 0.950 . S
C2470 C2469 1.398 . S
C2470 C2471 1.391 . S
C2471 H2459 0.950 . S
C2471 C2467 1.393 . S
C2471 C2470 1.391 . S
H2472 C2480 0.950 . S
H2473 C2485 0.950 . S
H2474 C2482 0.950 . S
H2475 C2484 0.950 . S
H2476 C2486 0.950 . S
H2477 C2488 0.950 . S
H2478 C2490 0.950 . S
H2479 C2491 0.950 . S
C2480 H2472 0.950 . S
C2480 C2481 1.386 . S
C2480 C2482 1.391 . S
C2481 C2480 1.386 . S
C2481 C2485 1.393 . S
C2482 H2474 0.950 . S
C2482 C2480 1.391 . S
C2482 C2483 1.400 . S
C2483 C2482 1.400 . S
C2483 C2484 1.398 . S
C2483 C2489 1.491 . S
C2484 H2475 0.950 . S
C2484 C2483 1.398 . S
C2484 C2485 1.391 . S
C2485 H2473 0.950 . S
C2485 C2481 1.393 . S
C2485 C2484 1.391 . S
C2486 H2476 0.950 . S
C2486 C2487 1.386 . S
C2486 C2488 1.391 . S
C2487 C2486 1.386 . S
C2487 C2491 1.393 . S
C2488 H2477 0.950 . S
C2488 C2486 1.391 . S
C2488 C2489 1.400 . S
C2489 C2483 1.491 . S
C2489 C2488 1.400 . S
C2489 C2490 1.398 . S
C2490 H2478 0.950 . S
C2490 C2489 1.398 . S
C2490 C2491 1.391 . S
C2491 H2479 0.950 . S
C2491 C2487 1.393 . S
C2491 C2490 1.391 . S
H2492 C2500 0.950 . S
H2493 C2505 0.950 . S
H2494 C2502 0.950 . S
H2495 C2504 0.950 . S
H2496 C2506 0.950 . S
H2497 C2508 0.950 . S
H2498 C2510 0.950 . S
H2499 C2511 0.950 . S
C2500 H2492 0.950 . S
C2500 C2501 1.386 . S
C2500 C2502 1.391 . S
C2501 C2500 1.386 . S
C2501 C2505 1.393 . S
C2502 H2494 0.950 . S
C2502 C2500 1.391 . S
C2502 C2503 1.400 . S
C2503 C2502 1.400 . S
C2503 C2504 1.398 . S
C2503 C2509 1.491 . S
C2504 H2495 0.950 . S
C2504 C2503 1.398 . S
C2504 C2505 1.391 . S
C2505 H2493 0.950 . S
C2505 C2501 1.393 . S
C2505 C2504 1.391 . S
C2506 H2496 0.950 . S
C2506 C2507 1.386 . S
C2506 C2508 1.391 . S
C2507 C2506 1.386 . S
C2507 C2511 1.393 . S
C2508 H2497 0.950 . S
C2508 C2506 1.391 . S
C2508 C2509 1.400 . S
C2509 C2503 1.491 . S
C2509 C2508 1.400 . S
C2509 C2510 1.398 . S
C2510 H2498 0.950 . S
C2510 C2509 1.398 . S
C2510 C2511 1.391 . S
C2511 H2499 0.950 . S
C2511 C2507 1.393 . S
C2511 C2510 1.391 . S
H2512 C2520 0.950 . S
H2513 C2525 0.950 . S
H2514 C2522 0.950 . S
H2515 C2524 0.950 . S
H2516 C2526 0.950 . S
H2517 C2528 0.950 . S
H2518 C2530 0.950 . S
H2519 C2531 0.950 . S
C2520 H2512 0.950 . S
C2520 C2521 1.386 . S
C2520 C2522 1.391 . S
C2521 C2520 1.386 . S
C2521 C2525 1.393 . S
C2522 H2514 0.950 . S
C2522 C2520 1.391 . S
C2522 C2523 1.400 . S
C2523 C2522 1.400 . S
C2523 C2524 1.398 . S
C2523 C2529 1.491 . S
C2524 H2515 0.950 . S
C2524 C2523 1.398 . S
C2524 C2525 1.391 . S
C2525 H2513 0.950 . S
C2525 C2521 1.393 . S
C2525 C2524 1.391 . S
C2526 H2516 0.950 . S
C2526 C2527 1.386 . S
C2526 C2528 1.391 . S
C2527 C2526 1.386 . S
C2527 C2531 1.393 . S
C2528 H2517 0.950 . S
C2528 C2526 1.391 . S
C2528 C2529 1.400 . S
C2529 C2523 1.491 . S
C2529 C2528 1.400 . S
C2529 C2530 1.398 . S
C2530 H2518 0.950 . S
C2530 C2529 1.398 . S
C2530 C2531 1.391 . S
C2531 H2519 0.950 . S
C2531 C2527 1.393 . S
C2531 C2530 1.391 . S
H2532 C2540 0.950 . S
H2533 C2545 0.950 . S
H2534 C2542 0.950 . S
H2535 C2544 0.950 . S
H2536 C2546 0.950 . S
H2537 C2548 0.950 . S
H2538 C2550 0.950 . S
H2539 C2551 0.950 . S
C2540 H2532 0.950 . S
C2540 C2541 1.386 1_655 S
C2540 C2542 1.391 . S
C2541 C2540 1.386 1_455 S
C2541 C2545 1.393 . S
C2542 H2534 0.950 . S
C2542 C2540 1.391 . S
C2542 C2543 1.400 1_655 S
C2543 C2542 1.400 1_455 S
C2543 C2544 1.398 . S
C2543 C2549 1.491 . S
C2544 H2535 0.950 . S
C2544 C2543 1.398 . S
C2544 C2545 1.391 . S
C2545 H2533 0.950 . S
C2545 C2541 1.393 . S
C2545 C2544 1.391 . S
C2546 H2536 0.950 . S
C2546 C2547 1.386 . S
C2546 C2548 1.391 . S
C2547 C2546 1.386 . S
C2547 C2551 1.393 1_455 S
C2548 H2537 0.950 . S
C2548 C2546 1.391 . S
C2548 C2549 1.400 . S
C2549 C2543 1.491 . S
C2549 C2548 1.400 . S
C2549 C2550 1.398 1_455 S
C2550 H2538 0.950 . S
C2550 C2549 1.398 1_655 S
C2550 C2551 1.391 . S
C2551 H2539 0.950 . S
C2551 C2547 1.393 1_655 S
C2551 C2550 1.391 . S
H2552 C2560 0.950 . S
H2553 C2565 0.950 . S
H2554 C2562 0.950 . S
H2555 C2564 0.950 . S
H2556 C2566 0.950 . S
H2557 C2568 0.950 . S
H2558 C2570 0.950 . S
H2559 C2571 0.950 . S
C2560 H2552 0.950 . S
C2560 C2561 1.386 . S
C2560 C2562 1.391 . S
C2561 C2560 1.386 . S
C2561 C2565 1.393 . S
C2562 H2554 0.950 . S
C2562 C2560 1.391 . S
C2562 C2563 1.400 . S
C2563 C2562 1.400 . S
C2563 C2564 1.398 . S
C2563 C2569 1.491 . S
C2564 H2555 0.950 . S
C2564 C2563 1.398 . S
C2564 C2565 1.391 . S
C2565 H2553 0.950 . S
C2565 C2561 1.393 . S
C2565 C2564 1.391 . S
C2566 H2556 0.950 . S
C2566 C2567 1.386 . S
C2566 C2568 1.391 . S
C2567 C2566 1.386 . S
C2567 C2571 1.393 . S
C2568 H2557 0.950 . S
C2568 C2566 1.391 . S
C2568 C2569 1.400 . S
C2569 C2563 1.491 . S
C2569 C2568 1.400 . S
C2569 C2570 1.398 . S
C2570 H2558 0.950 . S
C2570 C2569 1.398 . S
C2570 C2571 1.391 . S
C2571 H2559 0.950 . S
C2571 C2567 1.393 . S
C2571 C2570 1.391 . S
H2572 C2580 0.950 . S
H2573 C2585 0.950 . S
H2574 C2582 0.950 . S
H2575 C2584 0.950 . S
H2576 C2586 0.950 . S
H2577 C2588 0.950 . S
H2578 C2590 0.950 . S
H2579 C2591 0.950 . S
C2580 H2572 0.950 . S
C2580 C2581 1.386 . S
C2580 C2582 1.391 . S
C2581 C2580 1.386 . S
C2581 C2585 1.393 1_565 S
C2582 H2574 0.950 . S
C2582 C2580 1.391 . S
C2582 C2583 1.400 . S
C2583 C2582 1.400 . S
C2583 C2584 1.398 1_565 S
C2583 C2589 1.491 . S
C2584 H2575 0.950 . S
C2584 C2583 1.398 1_545 S
C2584 C2585 1.391 . S
C2585 H2573 0.950 . S
C2585 C2581 1.393 1_545 S
C2585 C2584 1.391 . S
C2586 H2576 0.950 . S
C2586 C2587 1.386 1_545 S
C2586 C2588 1.391 . S
C2587 C2586 1.386 1_565 S
C2587 C2591 1.393 . S
C2588 H2577 0.950 . S
C2588 C2586 1.391 . S
C2588 C2589 1.400 1_545 S
C2589 C2583 1.491 . S
C2589 C2588 1.400 1_565 S
C2589 C2590 1.398 . S
C2590 H2578 0.950 . S
C2590 C2589 1.398 . S
C2590 C2591 1.391 . S
C2591 H2579 0.950 . S
C2591 C2587 1.393 . S
C2591 C2590 1.391 . S
H2592 C2600 0.950 . S
H2593 C2605 0.950 . S
H2594 C2602 0.950 . S
H2595 C2604 0.950 . S
H2596 C2606 0.950 . S
H2597 C2608 0.950 . S
H2598 C2610 0.950 . S
H2599 C2611 0.950 . S
C2600 H2592 0.950 . S
C2600 C2601 1.386 . S
C2600 C2602 1.391 . S
C2601 C2600 1.386 . S
C2601 C2605 1.393 1_565 S
C2602 H2594 0.950 . S
C2602 C2600 1.391 . S
C2602 C2603 1.400 . S
C2603 C2602 1.400 . S
C2603 C2604 1.398 1_565 S
C2603 C2609 1.491 . S
C2604 H2595 0.950 . S
C2604 C2603 1.398 1_545 S
C2604 C2605 1.391 . S
C2605 H2593 0.950 . S
C2605 C2601 1.393 1_545 S
C2605 C2604 1.391 . S
C2606 H2596 0.950 . S
C2606 C2607 1.386 1_545 S
C2606 C2608 1.391 . S
C2607 C2606 1.386 1_565 S
C2607 C2611 1.393 . S
C2608 H2597 0.950 . S
C2608 C2606 1.391 . S
C2608 C2609 1.400 1_545 S
C2609 C2603 1.491 . S
C2609 C2608 1.400 1_565 S
C2609 C2610 1.398 . S
C2610 H2598 0.950 . S
C2610 C2609 1.398 . S
C2610 C2611 1.391 . S
C2611 H2599 0.950 . S
C2611 C2607 1.393 . S
C2611 C2610 1.391 . S
H2612 C2620 0.950 . S
H2613 C2625 0.950 . S
H2614 C2622 0.950 . S
H2615 C2624 0.950 . S
H2616 C2626 0.950 . S
H2617 C2628 0.950 . S
H2618 C2630 0.950 . S
H2619 C2631 0.950 . S
C2620 H2612 0.950 . S
C2620 C2621 1.386 . S
C2620 C2622 1.391 . S
C2621 C2620 1.386 . S
C2621 C2625 1.393 . S
C2622 H2614 0.950 . S
C2622 C2620 1.391 . S
C2622 C2623 1.400 . S
C2623 C2622 1.400 . S
C2623 C2624 1.398 . S
C2623 C2629 1.491 . S
C2624 H2615 0.950 . S
C2624 C2623 1.398 . S
C2624 C2625 1.391 . S
C2625 H2613 0.950 . S
C2625 C2621 1.393 . S
C2625 C2624 1.391 . S
C2626 H2616 0.950 . S
C2626 C2627 1.386 . S
C2626 C2628 1.391 . S
C2627 C2626 1.386 . S
C2627 C2631 1.393 . S
C2628 H2617 0.950 . S
C2628 C2626 1.391 . S
C2628 C2629 1.400 . S
C2629 C2623 1.491 . S
C2629 C2628 1.400 . S
C2629 C2630 1.398 . S
C2630 H2618 0.950 . S
C2630 C2629 1.398 . S
C2630 C2631 1.391 . S
C2631 H2619 0.950 . S
C2631 C2627 1.393 . S
C2631 C2630 1.391 . S
H2632 C2640 0.950 . S
H2633 C2645 0.950 . S
H2634 C2642 0.950 . S
H2635 C2644 0.950 . S
H2636 C2646 0.950 . S
H2637 C2648 0.950 . S
H2638 C2650 0.950 . S
H2639 C2651 0.950 . S
C2640 H2632 0.950 . S
C2640 C2641 1.386 . S
C2640 C2642 1.391 . S
C2641 C2640 1.386 . S
C2641 C2645 1.393 . S
C2642 H2634 0.950 . S
C2642 C2640 1.391 . S
C2642 C2643 1.400 . S
C2643 C2642 1.400 . S
C2643 C2644 1.398 . S
C2643 C2649 1.491 . S
C2644 H2635 0.950 . S
C2644 C2643 1.398 . S
C2644 C2645 1.391 . S
C2645 H2633 0.950 . S
C2645 C2641 1.393 . S
C2645 C2644 1.391 . S
C2646 H2636 0.950 . S
C2646 C2647 1.386 . S
C2646 C2648 1.391 . S
C2647 C2646 1.386 . S
C2647 C2651 1.393 . S
C2648 H2637 0.950 . S
C2648 C2646 1.391 . S
C2648 C2649 1.400 . S
C2649 C2643 1.491 . S
C2649 C2648 1.400 . S
C2649 C2650 1.398 . S
C2650 H2638 0.950 . S
C2650 C2649 1.398 . S
C2650 C2651 1.391 . S
C2651 H2639 0.950 . S
C2651 C2647 1.393 . S
C2651 C2650 1.391 . S
H2652 C2660 0.950 . S
H2653 C2665 0.950 . S
H2654 C2662 0.950 . S
H2655 C2664 0.950 . S
H2656 C2666 0.950 . S
H2657 C2668 0.950 . S
H2658 C2670 0.950 . S
H2659 C2671 0.950 . S
C2660 H2652 0.950 . S
C2660 C2661 1.386 . S
C2660 C2662 1.391 . S
C2661 C2660 1.386 . S
C2661 C2665 1.393 . S
C2662 H2654 0.950 . S
C2662 C2660 1.391 . S
C2662 C2663 1.400 . S
C2663 C2662 1.400 . S
C2663 C2664 1.398 . S
C2663 C2669 1.491 . S
C2664 H2655 0.950 . S
C2664 C2663 1.398 . S
C2664 C2665 1.391 . S
C2665 H2653 0.950 . S
C2665 C2661 1.393 . S
C2665 C2664 1.391 . S
C2666 H2656 0.950 . S
C2666 C2667 1.386 . S
C2666 C2668 1.391 . S
C2667 C2666 1.386 . S
C2667 C2671 1.393 . S
C2668 H2657 0.950 . S
C2668 C2666 1.391 . S
C2668 C2669 1.400 . S
C2669 C2663 1.491 . S
C2669 C2668 1.400 . S
C2669 C2670 1.398 . S
C2670 H2658 0.950 . S
C2670 C2669 1.398 . S
C2670 C2671 1.391 . S
C2671 H2659 0.950 . S
C2671 C2667 1.393 . S
C2671 C2670 1.391 . S
H2672 C2680 0.950 . S
H2673 C2685 0.950 . S
H2674 C2682 0.950 . S
H2675 C2684 0.950 . S
H2676 C2686 0.950 . S
H2677 C2688 0.950 . S
H2678 C2690 0.950 . S
H2679 C2691 0.950 . S
C2680 H2672 0.950 . S
C2680 C2681 1.386 . S
C2680 C2682 1.391 . S
C2681 C2680 1.386 . S
C2681 C2685 1.393 . S
C2682 H2674 0.950 . S
C2682 C2680 1.391 . S
C2682 C2683 1.400 . S
C2683 C2682 1.400 . S
C2683 C2684 1.398 . S
C2683 C2689 1.491 . S
C2684 H2675 0.950 . S
C2684 C2683 1.398 . S
C2684 C2685 1.391 . S
C2685 H2673 0.950 . S
C2685 C2681 1.393 . S
C2685 C2684 1.391 . S
C2686 H2676 0.950 . S
C2686 C2687 1.386 . S
C2686 C2688 1.391 . S
C2687 C2686 1.386 . S
C2687 C2691 1.393 . S
C2688 H2677 0.950 . S
C2688 C2686 1.391 . S
C2688 C2689 1.400 . S
C2689 C2683 1.491 . S
C2689 C2688 1.400 . S
C2689 C2690 1.398 . S
C2690 H2678 0.950 . S
C2690 C2689 1.398 . S
C2690 C2691 1.391 . S
C2691 H2679 0.950 . S
C2691 C2687 1.393 . S
C2691 C2690 1.391 . S
H2692 C2700 0.950 . S
H2693 C2705 0.950 . S
H2694 C2702 0.950 . S
H2695 C2704 0.950 . S
H2696 C2706 0.950 . S
H2697 C2708 0.950 . S
H2698 C2710 0.950 . S
H2699 C2711 0.950 . S
C2700 H2692 0.950 . S
C2700 C2701 1.386 . S
C2700 C2702 1.391 . S
C2701 C2700 1.386 . S
C2701 C2705 1.393 . S
C2702 H2694 0.950 . S
C2702 C2700 1.391 . S
C2702 C2703 1.400 . S
C2703 C2702 1.400 . S
C2703 C2704 1.398 . S
C2703 C2709 1.491 . S
C2704 H2695 0.950 . S
C2704 C2703 1.398 . S
C2704 C2705 1.391 . S
C2705 H2693 0.950 . S
C2705 C2701 1.393 . S
C2705 C2704 1.391 . S
C2706 H2696 0.950 . S
C2706 C2707 1.386 . S
C2706 C2708 1.391 . S
C2707 C2706 1.386 . S
C2707 C2711 1.393 . S
C2708 H2697 0.950 . S
C2708 C2706 1.391 . S
C2708 C2709 1.400 . S
C2709 C2703 1.491 . S
C2709 C2708 1.400 . S
C2709 C2710 1.398 . S
C2710 H2698 0.950 . S
C2710 C2709 1.398 . S
C2710 C2711 1.391 . S
C2711 H2699 0.950 . S
C2711 C2707 1.393 . S
C2711 C2710 1.391 . S
H2712 C2720 0.950 . S
H2713 C2725 0.950 . S
H2714 C2722 0.950 . S
H2715 C2724 0.950 . S
H2716 C2726 0.950 . S
H2717 C2728 0.950 . S
H2718 C2730 0.950 . S
H2719 C2731 0.950 . S
C2720 H2712 0.950 . S
C2720 C2721 1.386 1_565 S
C2720 C2722 1.391 . S
C2721 C2720 1.386 1_545 S
C2721 C2725 1.393 . S
C2722 H2714 0.950 . S
C2722 C2720 1.391 . S
C2722 C2723 1.400 1_565 S
C2723 C2722 1.400 1_545 S
C2723 C2724 1.398 . S
C2723 C2729 1.491 . S
C2724 H2715 0.950 . S
C2724 C2723 1.398 . S
C2724 C2725 1.391 . S
C2725 H2713 0.950 . S
C2725 C2721 1.393 . S
C2725 C2724 1.391 . S
C2726 H2716 0.950 . S
C2726 C2727 1.386 . S
C2726 C2728 1.391 . S
C2727 C2726 1.386 . S
C2727 C2731 1.393 1_545 S
C2728 H2717 0.950 . S
C2728 C2726 1.391 . S
C2728 C2729 1.400 . S
C2729 C2723 1.491 . S
C2729 C2728 1.400 . S
C2729 C2730 1.398 1_545 S
C2730 H2718 0.950 . S
C2730 C2729 1.398 1_565 S
C2730 C2731 1.391 . S
C2731 H2719 0.950 . S
C2731 C2727 1.393 1_565 S
C2731 C2730 1.391 . S
H2732 C2740 0.950 . S
H2733 C2745 0.950 . S
H2734 C2742 0.950 . S
H2735 C2744 0.950 . S
H2736 C2746 0.950 . S
H2737 C2748 0.950 . S
H2738 C2750 0.950 . S
H2739 C2751 0.950 . S
C2740 H2732 0.950 . S
C2740 C2741 1.386 . S
C2740 C2742 1.391 . S
C2741 C2740 1.386 . S
C2741 C2745 1.393 1_655 S
C2742 H2734 0.950 . S
C2742 C2740 1.391 . S
C2742 C2743 1.400 . S
C2743 C2742 1.400 . S
C2743 C2744 1.398 1_655 S
C2743 C2749 1.491 . S
C2744 H2735 0.950 . S
C2744 C2743 1.398 1_455 S
C2744 C2745 1.391 . S
C2745 H2733 0.950 . S
C2745 C2741 1.393 1_455 S
C2745 C2744 1.391 . S
C2746 H2736 0.950 . S
C2746 C2747 1.386 1_455 S
C2746 C2748 1.391 . S
C2747 C2746 1.386 1_655 S
C2747 C2751 1.393 . S
C2748 H2737 0.950 . S
C2748 C2746 1.391 . S
C2748 C2749 1.400 1_455 S
C2749 C2743 1.491 . S
C2749 C2748 1.400 1_655 S
C2749 C2750 1.398 . S
C2750 H2738 0.950 . S
C2750 C2749 1.398 . S
C2750 C2751 1.391 . S
C2751 H2739 0.950 . S
C2751 C2747 1.393 . S
C2751 C2750 1.391 . S
H2752 C2760 0.950 . S
H2753 C2765 0.950 . S
H2754 C2762 0.950 . S
H2755 C2764 0.950 . S
H2756 C2766 0.950 . S
H2757 C2768 0.950 . S
H2758 C2770 0.950 . S
H2759 C2771 0.950 . S
C2760 H2752 0.950 . S
C2760 C2761 1.386 . S
C2760 C2762 1.391 . S
C2761 C2760 1.386 . S
C2761 C2765 1.393 . S
C2762 H2754 0.950 . S
C2762 C2760 1.391 . S
C2762 C2763 1.400 . S
C2763 C2762 1.400 . S
C2763 C2764 1.398 . S
C2763 C2769 1.491 . S
C2764 H2755 0.950 . S
C2764 C2763 1.398 . S
C2764 C2765 1.391 . S
C2765 H2753 0.950 . S
C2765 C2761 1.393 . S
C2765 C2764 1.391 . S
C2766 H2756 0.950 . S
C2766 C2767 1.386 . S
C2766 C2768 1.391 . S
C2767 C2766 1.386 . S
C2767 C2771 1.393 . S
C2768 H2757 0.950 . S
C2768 C2766 1.391 . S
C2768 C2769 1.400 . S
C2769 C2763 1.491 . S
C2769 C2768 1.400 . S
C2769 C2770 1.398 . S
C2770 H2758 0.950 . S
C2770 C2769 1.398 . S
C2770 C2771 1.391 . S
C2771 H2759 0.950 . S
C2771 C2767 1.393 . S
C2771 C2770 1.391 . S
H2772 C2780 0.950 . S
H2773 C2785 0.950 . S
H2774 C2782 0.950 . S
H2775 C2784 0.950 . S
H2776 C2786 0.950 . S
H2777 C2788 0.950 . S
H2778 C2790 0.950 . S
H2779 C2791 0.950 . S
C2780 H2772 0.950 . S
C2780 C2781 1.386 . S
C2780 C2782 1.391 . S
C2781 C2780 1.386 . S
C2781 C2785 1.393 . S
C2782 H2774 0.950 . S
C2782 C2780 1.391 . S
C2782 C2783 1.400 . S
C2783 C2782 1.400 . S
C2783 C2784 1.398 . S
C2783 C2789 1.491 . S
C2784 H2775 0.950 . S
C2784 C2783 1.398 . S
C2784 C2785 1.391 . S
C2785 H2773 0.950 . S
C2785 C2781 1.393 . S
C2785 C2784 1.391 . S
C2786 H2776 0.950 . S
C2786 C2787 1.386 . S
C2786 C2788 1.391 . S
C2787 C2786 1.386 . S
C2787 C2791 1.393 . S
C2788 H2777 0.950 . S
C2788 C2786 1.391 . S
C2788 C2789 1.400 . S
C2789 C2783 1.491 . S
C2789 C2788 1.400 . S
C2789 C2790 1.398 . S
C2790 H2778 0.950 . S
C2790 C2789 1.398 . S
C2790 C2791 1.391 . S
C2791 H2779 0.950 . S
C2791 C2787 1.393 . S
C2791 C2790 1.391 . S
H2792 C2800 0.950 . S
H2793 C2805 0.950 . S
H2794 C2802 0.950 . S
H2795 C2804 0.950 . S
H2796 C2806 0.950 . S
H2797 C2808 0.950 . S
H2798 C2810 0.950 . S
H2799 C2811 0.950 . S
C2800 H2792 0.950 . S
C2800 C2801 1.386 . S
C2800 C2802 1.391 . S
C2801 C2800 1.386 . S
C2801 C2805 1.393 . S
C2802 H2794 0.950 . S
C2802 C2800 1.391 . S
C2802 C2803 1.400 . S
C2803 C2802 1.400 . S
C2803 C2804 1.398 . S
C2803 C2809 1.491 . S
C2804 H2795 0.950 . S
C2804 C2803 1.398 . S
C2804 C2805 1.391 . S
C2805 H2793 0.950 . S
C2805 C2801 1.393 . S
C2805 C2804 1.391 . S
C2806 H2796 0.950 . S
C2806 C2807 1.386 . S
C2806 C2808 1.391 . S
C2807 C2806 1.386 . S
C2807 C2811 1.393 . S
C2808 H2797 0.950 . S
C2808 C2806 1.391 . S
C2808 C2809 1.400 . S
C2809 C2803 1.491 . S
C2809 C2808 1.400 . S
C2809 C2810 1.398 . S
C2810 H2798 0.950 . S
C2810 C2809 1.398 . S
C2810 C2811 1.391 . S
C2811 H2799 0.950 . S
C2811 C2807 1.393 . S
C2811 C2810 1.391 . S
H2812 C2820 0.950 . S
H2813 C2825 0.950 . S
H2814 C2822 0.950 . S
H2815 C2824 0.950 . S
H2816 C2826 0.950 . S
H2817 C2828 0.950 . S
H2818 C2830 0.950 . S
H2819 C2831 0.950 . S
C2820 H2812 0.950 . S
C2820 C2821 1.386 . S
C2820 C2822 1.391 . S
C2821 C2820 1.386 . S
C2821 C2825 1.393 . S
C2822 H2814 0.950 . S
C2822 C2820 1.391 . S
C2822 C2823 1.400 . S
C2823 C2822 1.400 . S
C2823 C2824 1.398 . S
C2823 C2829 1.491 . S
C2824 H2815 0.950 . S
C2824 C2823 1.398 . S
C2824 C2825 1.391 . S
C2825 H2813 0.950 . S
C2825 C2821 1.393 . S
C2825 C2824 1.391 . S
C2826 H2816 0.950 . S
C2826 C2827 1.386 . S
C2826 C2828 1.391 . S
C2827 C2826 1.386 . S
C2827 C2831 1.393 . S
C2828 H2817 0.950 . S
C2828 C2826 1.391 . S
C2828 C2829 1.400 . S
C2829 C2823 1.491 . S
C2829 C2828 1.400 . S
C2829 C2830 1.398 . S
C2830 H2818 0.950 . S
C2830 C2829 1.398 . S
C2830 C2831 1.391 . S
C2831 H2819 0.950 . S
C2831 C2827 1.393 . S
C2831 C2830 1.391 . S
H2832 C2840 0.950 . S
H2833 C2845 0.950 . S
H2834 C2842 0.950 . S
H2835 C2844 0.950 . S
H2836 C2846 0.950 . S
H2837 C2848 0.950 . S
H2838 C2850 0.950 . S
H2839 C2851 0.950 . S
C2840 H2832 0.950 . S
C2840 C2841 1.386 . S
C2840 C2842 1.391 . S
C2841 C2840 1.386 . S
C2841 C2845 1.393 . S
C2842 H2834 0.950 . S
C2842 C2840 1.391 . S
C2842 C2843 1.400 . S
C2843 C2842 1.400 . S
C2843 C2844 1.398 . S
C2843 C2849 1.491 . S
C2844 H2835 0.950 . S
C2844 C2843 1.398 . S
C2844 C2845 1.391 . S
C2845 H2833 0.950 . S
C2845 C2841 1.393 . S
C2845 C2844 1.391 . S
C2846 H2836 0.950 . S
C2846 C2847 1.386 . S
C2846 C2848 1.391 . S
C2847 C2846 1.386 . S
C2847 C2851 1.393 . S
C2848 H2837 0.950 . S
C2848 C2846 1.391 . S
C2848 C2849 1.400 . S
C2849 C2843 1.491 . S
C2849 C2848 1.400 . S
C2849 C2850 1.398 . S
C2850 H2838 0.950 . S
C2850 C2849 1.398 . S
C2850 C2851 1.391 . S
C2851 H2839 0.950 . S
C2851 C2847 1.393 . S
C2851 C2850 1.391 . S
H2852 C2860 0.950 . S
H2853 C2865 0.950 . S
H2854 C2862 0.950 . S
H2855 C2864 0.950 . S
H2856 C2866 0.950 . S
H2857 C2868 0.950 . S
H2858 C2870 0.950 . S
H2859 C2871 0.950 . S
C2860 H2852 0.950 . S
C2860 C2861 1.386 . S
C2860 C2862 1.391 . S
C2861 C2860 1.386 . S
C2861 C2865 1.393 . S
C2862 H2854 0.950 . S
C2862 C2860 1.391 . S
C2862 C2863 1.400 . S
C2863 C2862 1.400 . S
C2863 C2864 1.398 . S
C2863 C2869 1.491 . S
C2864 H2855 0.950 . S
C2864 C2863 1.398 . S
C2864 C2865 1.391 . S
C2865 H2853 0.950 . S
C2865 C2861 1.393 . S
C2865 C2864 1.391 . S
C2866 H2856 0.950 . S
C2866 C2867 1.386 . S
C2866 C2868 1.391 . S
C2867 C2866 1.386 . S
C2867 C2871 1.393 . S
C2868 H2857 0.950 . S
C2868 C2866 1.391 . S
C2868 C2869 1.400 . S
C2869 C2863 1.491 . S
C2869 C2868 1.400 . S
C2869 C2870 1.398 . S
C2870 H2858 0.950 . S
C2870 C2869 1.398 . S
C2870 C2871 1.391 . S
C2871 H2859 0.950 . S
C2871 C2867 1.393 . S
C2871 C2870 1.391 . S
H2872 C2880 0.950 . S
H2873 C2885 0.950 . S
H2874 C2882 0.950 . S
H2875 C2884 0.950 . S
H2876 C2886 0.950 . S
H2877 C2888 0.950 . S
H2878 C2890 0.950 . S
H2879 C2891 0.950 . S
C2880 H2872 0.950 . S
C2880 C2881 1.386 . S
C2880 C2882 1.391 . S
C2881 C2880 1.386 . S
C2881 C2885 1.393 . S
C2882 H2874 0.950 . S
C2882 C2880 1.391 . S
C2882 C2883 1.400 . S
C2883 C2882 1.400 . S
C2883 C2884 1.398 . S
C2883 C2889 1.491 . S
C2884 H2875 0.950 . S
C2884 C2883 1.398 . S
C2884 C2885 1.391 . S
C2885 H2873 0.950 . S
C2885 C2881 1.393 . S
C2885 C2884 1.391 . S
C2886 H2876 0.950 . S
C2886 C2887 1.386 . S
C2886 C2888 1.391 . S
C2887 C2886 1.386 . S
C2887 C2891 1.393 . S
C2888 H2877 0.950 . S
C2888 C2886 1.391 . S
C2888 C2889 1.400 . S
C2889 C2883 1.491 . S
C2889 C2888 1.400 . S
C2889 C2890 1.398 . S
C2890 H2878 0.950 . S
C2890 C2889 1.398 . S
C2890 C2891 1.391 . S
C2891 H2879 0.950 . S
C2891 C2887 1.393 . S
C2891 C2890 1.391 . S
H2892 C2900 0.950 . S
H2893 C2905 0.950 . S
H2894 C2902 0.950 . S
H2895 C2904 0.950 . S
H2896 C2906 0.950 . S
H2897 C2908 0.950 . S
H2898 C2910 0.950 . S
H2899 C2911 0.950 . S
C2900 H2892 0.950 . S
C2900 C2901 1.386 1_455 S
C2900 C2902 1.391 . S
C2901 C2900 1.386 1_655 S
C2901 C2905 1.393 . S
C2902 H2894 0.950 . S
C2902 C2900 1.391 . S
C2902 C2903 1.400 1_455 S
C2903 C2902 1.400 1_655 S
C2903 C2904 1.398 . S
C2903 C2909 1.491 . S
C2904 H2895 0.950 . S
C2904 C2903 1.398 . S
C2904 C2905 1.391 . S
C2905 H2893 0.950 . S
C2905 C2901 1.393 . S
C2905 C2904 1.391 . S
C2906 H2896 0.950 . S
C2906 C2907 1.386 . S
C2906 C2908 1.391 . S
C2907 C2906 1.386 . S
C2907 C2911 1.393 1_655 S
C2908 H2897 0.950 . S
C2908 C2906 1.391 . S
C2908 C2909 1.400 . S
C2909 C2903 1.491 . S
C2909 C2908 1.400 . S
C2909 C2910 1.398 1_655 S
C2910 H2898 0.950 . S
C2910 C2909 1.398 1_455 S
C2910 C2911 1.391 . S
C2911 H2899 0.950 . S
C2911 C2907 1.393 1_455 S
C2911 C2910 1.391 . S
H2912 C2920 0.950 . S
H2913 C2925 0.950 . S
H2914 C2922 0.950 . S
H2915 C2924 0.950 . S
H2916 C2926 0.950 . S
H2917 C2928 0.950 . S
H2918 C2930 0.950 . S
H2919 C2931 0.950 . S
C2920 H2912 0.950 . S
C2920 C2921 1.386 . S
C2920 C2922 1.391 . S
C2921 C2920 1.386 . S
C2921 C2925 1.393 . S
C2922 H2914 0.950 . S
C2922 C2920 1.391 . S
C2922 C2923 1.400 . S
C2923 C2922 1.400 . S
C2923 C2924 1.398 . S
C2923 C2929 1.491 . S
C2924 H2915 0.950 . S
C2924 C2923 1.398 . S
C2924 C2925 1.391 . S
C2925 H2913 0.950 . S
C2925 C2921 1.393 . S
C2925 C2924 1.391 . S
C2926 H2916 0.950 . S
C2926 C2927 1.386 . S
C2926 C2928 1.391 . S
C2927 C2926 1.386 . S
C2927 C2931 1.393 . S
C2928 H2917 0.950 . S
C2928 C2926 1.391 . S
C2928 C2929 1.400 . S
C2929 C2923 1.491 . S
C2929 C2928 1.400 . S
C2929 C2930 1.398 . S
C2930 H2918 0.950 . S
C2930 C2929 1.398 . S
C2930 C2931 1.391 . S
C2931 H2919 0.950 . S
C2931 C2927 1.393 . S
C2931 C2930 1.391 . S
H2932 C2940 0.950 . S
H2933 C2945 0.950 . S
H2934 C2942 0.950 . S
H2935 C2944 0.950 . S
H2936 C2946 0.950 . S
H2937 C2948 0.950 . S
H2938 C2950 0.950 . S
H2939 C2951 0.950 . S
C2940 H2932 0.950 . S
C2940 C2941 1.386 1_565 S
C2940 C2942 1.391 . S
C2941 C2940 1.386 1_545 S
C2941 C2945 1.393 . S
C2942 H2934 0.950 . S
C2942 C2940 1.391 . S
C2942 C2943 1.400 1_565 S
C2943 C2942 1.400 1_545 S
C2943 C2944 1.398 . S
C2943 C2949 1.491 . S
C2944 H2935 0.950 . S
C2944 C2943 1.398 . S
C2944 C2945 1.391 . S
C2945 H2933 0.950 . S
C2945 C2941 1.393 . S
C2945 C2944 1.391 . S
C2946 H2936 0.950 . S
C2946 C2947 1.386 . S
C2946 C2948 1.391 . S
C2947 C2946 1.386 . S
C2947 C2951 1.393 1_545 S
C2948 H2937 0.950 . S
C2948 C2946 1.391 . S
C2948 C2949 1.400 . S
C2949 C2943 1.491 . S
C2949 C2948 1.400 . S
C2949 C2950 1.398 1_545 S
C2950 H2938 0.950 . S
C2950 C2949 1.398 1_565 S
C2950 C2951 1.391 . S
C2951 H2939 0.950 . S
C2951 C2947 1.393 1_565 S
C2951 C2950 1.391 . S
C1521 C4 1.456 . S
C1527 C1125 1.461 . S
C1541 C38 1.707 . S
C1547 C1173 1.707 . S
C1567 C1221 1.470 . S
C1561 C74 1.461 . S
C1581 C76 1.440 . S
C1587 C1245 1.452 . S
C1601 C2 1.538 . S
C1607 C1317 1.570 . S
C1621 C40 1.546 . S
C1627 C1365 1.537 . S
C1641 C110 1.506 . S
C1647 C1293 1.540 . S
C1667 C1341 1.551 . S
C1661 C148 1.542 . S
C1687 C1269 1.575 . S
C1681 C182 1.503 . S
C1701 C184 1.476 . S
C1707 C1197 1.509 . S
C1727 C1101 1.457 . S
C1721 C112 1.427 . S
C1741 C146 1.645 . S
C1747 C1149 1.651 . S
C1761 C220 1.638 . S
C1767 C1413 1.635 . S
C1781 C254 1.778 . S
C1787 C1461 1.782 . S
C1807 C1485 1.621 . S
C1801 C290 1.653 . S
C1821 C292 1.550 . S
C1827 C669 1.528 . S
C1841 C218 1.693 . S
C1847 C741 1.703 . S
C1861 C256 1.576 . S
C1867 C789 1.566 . S
C1881 C326 1.668 . S
C1887 C717 1.681 . S
C1901 C364 1.603 . S
C1907 C765 1.605 . S
C1927 C693 1.657 . S
C1921 C398 1.691 . S
C1947 C1509 1.632 . S
C1941 C400 1.663 . S
C1967 C1389 1.526 . S
C1961 C328 1.530 . S
C1987 C1437 1.723 . S
C1981 C362 1.719 . S
C2001 C436 1.569 . S
C2007 C837 1.560 . S
C2021 C470 1.752 . S
C2027 C885 1.755 . S
C2041 C506 1.647 . S
C2047 C909 1.637 . S
C2061 C508 1.616 . S
C2067 C957 1.604 . S
C2087 C1029 1.698 . S
C2081 C434 1.685 . S
C2107 C1077 1.595 . S
C2101 C472 1.601 . S
C2127 C1005 1.761 . S
C2121 C542 1.757 . S
C2147 C1053 1.615 . S
C2141 C580 1.629 . S
C2161 C614 1.676 . S
C2167 C981 1.642 . S
C2187 C933 1.555 . S
C2181 C616 1.578 . S
C2201 C544 1.543 . S
C2207 C813 1.541 . S
C2227 C861 1.679 . S
C2221 C578 1.685 . S
C2247 C678 1.621 . S
C2241 C14 1.605 . S
C2261 C39 1.535 . S
C2267 C732 1.502 . S
C2287 C780 1.527 . S
C2281 C75 1.557 . S
C2307 C828 1.451 . S
C2301 C86 1.447 . S
C2327 C876 1.564 . S
C2321 C3 1.593 . S
C2347 C918 1.538 . S
C2341 C50 1.514 . S
C2361 C111 1.587 . S
C2367 C924 1.583 . S
C2381 C158 1.474 . S
C2387 C822 1.439 . S
C2401 C183 1.668 . S
C2407 C870 1.624 . S
C2421 C194 1.586 . S
C2427 C726 1.564 . S
C2447 C774 1.487 . S
C2441 C122 1.492 . S
C2461 C147 1.458 . S
C2467 C684 1.446 . S
C2487 C966 1.583 . S
C2481 C230 1.567 . S
C2501 C255 1.653 . S
C2507 C1020 1.630 . S
C2521 C291 1.586 . S
C2527 C1068 1.547 . S
C2547 C1116 1.329 . S
C2541 C302 1.275 . S
C2561 C219 1.569 . S
C2567 C1164 1.551 . S
C2581 C266 1.362 . S
C2587 C1212 1.430 . S
C2601 C327 1.351 . S
C2607 C1206 1.337 . S
C2621 C374 1.343 . S
C2627 C1110 1.373 . S
C2647 C1158 1.597 . S
C2641 C399 1.633 . S
C2661 C410 1.543 . S
C2667 C1014 1.556 . S
C2681 C338 1.545 . S
C2687 C1062 1.562 . S
C2707 C972 1.553 . S
C2701 C363 1.570 . S
C2727 C1254 1.425 . S
C2721 C446 1.372 . S
C2741 C471 1.413 . S
C2747 C1308 1.411 . S
C2761 C507 1.513 . S
C2767 C1356 1.483 . S
C2787 C1404 1.430 . S
C2781 C518 1.434 . S
C2807 C1452 1.630 . S
C2801 C435 1.651 . S
C2821 C482 1.601 . S
C2827 C1494 1.645 . S
C2841 C543 1.530 . S
C2847 C1500 1.519 . S
C2861 C590 1.560 . S
C2867 C1398 1.562 . S
C2887 C1446 1.651 . S
C2881 C615 1.697 . S
C2907 C1302 1.422 . S
C2901 C626 1.366 . S
C2927 C1350 1.494 . S
C2921 C554 1.505 . S
C2941 C579 1.362 . S
C2947 C1260 1.364 . S
