# Generated by pormake.
# Topology pyr, (3,6)-cn, num edge types: 1
# Building blocks:
#     Node 0, Type 0, BuildingBlock: VETTIZ_charged_linker_0, # of connection points: 3
#     Node 1, Type 0, BuildingBlock: VETTIZ_charged_linker_0, # of connection points: 3
#     Node 2, Type 0, BuildingBlock: VETTIZ_charged_linker_0, # of connection points: 3
#     Node 3, Type 0, BuildingBlock: VETTIZ_charged_linker_0, # of connection points: 3
#     Node 4, Type 0, BuildingBlock: VETTIZ_charged_linker_0, # of connection points: 3
#     Node 5, Type 0, BuildingBlock: VETTIZ_charged_linker_0, # of connection points: 3
#     Node 6, Type 0, BuildingBlock: VETTIZ_charged_linker_0, # of connection points: 3
#     Node 7, Type 0, BuildingBlock: VETTIZ_charged_linker_0, # of connection points: 3
#     Node 8, Type 1, BuildingBlock: MIFKUJ_clean_sbu_0, # of connection points: 6
#     Node 9, Type 1, BuildingBlock: MIFKUJ_clean_sbu_0, # of connection points: 6
#     Node 10, Type 1, BuildingBlock: MIFKUJ_clean_sbu_0, # of connection points: 6
#     Node 11, Type 1, BuildingBlock: MIFKUJ_clean_sbu_0, # of connection points: 6
#     Edge 12, Type (0, 1), BuildingBlock: CIFDUS_clean_linker_0, # of connection points: 2
#     Edge 13, Type (0, 1), BuildingBlock: CIFDUS_clean_linker_0, # of connection points: 2
#     Edge 14, Type (0, 1), BuildingBlock: CIFDUS_clean_linker_0, # of connection points: 2
#     Edge 15, Type (0, 1), BuildingBlock: CIFDUS_clean_linker_0, # of connection points: 2
#     Edge 16, Type (0, 1), BuildingBlock: CIFDUS_clean_linker_0, # of connection points: 2
#     Edge 17, Type (0, 1), BuildingBlock: CIFDUS_clean_linker_0, # of connection points: 2
#     Edge 18, Type (0, 1), BuildingBlock: CIFDUS_clean_linker_0, # of connection points: 2
#     Edge 19, Type (0, 1), BuildingBlock: CIFDUS_clean_linker_0, # of connection points: 2
#     Edge 20, Type (0, 1), BuildingBlock: CIFDUS_clean_linker_0, # of connection points: 2
#     Edge 21, Type (0, 1), BuildingBlock: CIFDUS_clean_linker_0, # of connection points: 2
#     Edge 22, Type (0, 1), BuildingBlock: CIFDUS_clean_linker_0, # of connection points: 2
#     Edge 23, Type (0, 1), BuildingBlock: CIFDUS_clean_linker_0, # of connection points: 2
#     Edge 24, Type (0, 1), BuildingBlock: CIFDUS_clean_linker_0, # of connection points: 2
#     Edge 25, Type (0, 1), BuildingBlock: CIFDUS_clean_linker_0, # of connection points: 2
#     Edge 26, Type (0, 1), BuildingBlock: CIFDUS_clean_linker_0, # of connection points: 2
#     Edge 27, Type (0, 1), BuildingBlock: CIFDUS_clean_linker_0, # of connection points: 2
#     Edge 28, Type (0, 1), BuildingBlock: CIFDUS_clean_linker_0, # of connection points: 2
#     Edge 29, Type (0, 1), BuildingBlock: CIFDUS_clean_linker_0, # of connection points: 2
#     Edge 30, Type (0, 1), BuildingBlock: CIFDUS_clean_linker_0, # of connection points: 2
#     Edge 31, Type (0, 1), BuildingBlock: CIFDUS_clean_linker_0, # of connection points: 2
#     Edge 32, Type (0, 1), BuildingBlock: CIFDUS_clean_linker_0, # of connection points: 2
#     Edge 33, Type (0, 1), BuildingBlock: CIFDUS_clean_linker_0, # of connection points: 2
#     Edge 34, Type (0, 1), BuildingBlock: CIFDUS_clean_linker_0, # of connection points: 2
#     Edge 35, Type (0, 1), BuildingBlock: CIFDUS_clean_linker_0, # of connection points: 2
# Relax obj value: 0.028
# Max RMSD: 0.081
# Mean RMSD: 0.048
data_MOF--net-pyr--node1-MIFKUJ_clean_sbu_0--node2-VETTIZ_charged_linker_0--edge1-CIFDUS_clean_linker_0
_symmetry_space_group_name_H-M    P1
_symmetry_Int_Tables_number       1
_symmetry_cell_setting            triclinic
loop_
_symmetry_equiv_pos_as_xyz
'x, y, z'
_cell_length_a     42.782664
_cell_length_b     39.815768
_cell_length_c     41.354654
_cell_angle_alpha  86.584155
_cell_angle_beta   87.987042
_cell_angle_gamma 95.817096
loop_
_atom_site_label
_atom_site_type_symbol
_atom_site_fract_x
_atom_site_fract_y
_atom_site_fract_z
_atom_type_partial_charge
C0 C 0.16197 0.12373 0.31007 0.0
C1 C 0.13465 0.13679 0.32158 0.0
C2 C 0.12715 0.16827 0.3084 0.0
C3 C 0.1715 0.17118 0.27006 0.0
C4 C 0.17996 0.14127 0.28422 0.0
C5 C 0.20829 0.12982 0.26707 0.0
H6 H 0.3152 0.15143 0.14081 0.0
C7 C 0.19281 0.18109 0.24152 0.0
C8 C 0.2146 0.15715 0.23968 0.0
H9 H 0.30634 0.07349 0.21911 0.0
H10 H 0.263 0.09858 0.24315 0.0
H11 H 0.30246 0.2147 0.18489 0.0
H12 H 0.24253 0.1484 0.12949 0.0
H13 H 0.22914 0.18854 0.12494 0.0
H14 H 0.26841 0.18273 0.11043 0.0
H15 H 0.30516 0.21521 0.14142 0.0
H16 H 0.27812 0.23934 0.16205 0.0
C17 C 0.23537 0.13054 0.291 0.0
C18 C 0.19869 0.09461 0.25425 0.0
C19 C 0.17044 0.27996 0.16596 0.0
C20 C 0.18314 0.29293 0.13539 0.0
C21 C 0.2094 0.27895 0.12209 0.0
C22 C 0.22227 0.25214 0.13865 0.0
C23 C 0.20862 0.23887 0.16874 0.0
C24 C 0.18324 0.25293 0.1819 0.0
C25 C 0.17073 0.23477 0.21327 0.0
C26 C 0.19282 0.20743 0.21686 0.0
C27 C 0.21505 0.20999 0.19082 0.0
C28 C 0.17457 0.25989 0.24043 0.0
C29 C 0.13633 0.21995 0.2085 0.0
C30 C 0.30383 0.13959 0.16301 0.0
C31 C 0.31445 0.11043 0.17806 0.0
C32 C 0.2991 0.09624 0.20722 0.0
C33 C 0.27373 0.11073 0.22108 0.0
C34 C 0.26325 0.13962 0.20558 0.0
C35 C 0.27829 0.15362 0.17708 0.0
C36 C 0.26356 0.18399 0.16372 0.0
C37 C 0.2376 0.18625 0.18924 0.0
C38 C 0.23745 0.16008 0.21362 0.0
C39 C 0.28852 0.21507 0.16267 0.0
C40 C 0.25034 0.17586 0.13031 0.0
H41 H 0.13809 0.20904 0.2734 0.0
H42 H 0.16817 0.0995 0.3197 0.0
H43 H 0.17444 0.09324 0.24517 0.0
H44 H 0.21362 0.08889 0.23343 0.0
H45 H 0.1991 0.07422 0.27372 0.0
H46 H 0.23422 0.15153 0.30746 0.0
H47 H 0.23414 0.10655 0.30635 0.0
H48 H 0.25886 0.13541 0.27866 0.0
H49 H 0.15064 0.29033 0.17726 0.0
H50 H 0.21956 0.28814 0.09847 0.0
H51 H 0.24202 0.24241 0.12712 0.0
H52 H 0.19641 0.27752 0.23603 0.0
H53 H 0.15446 0.27543 0.24166 0.0
H54 H 0.17716 0.24721 0.26455 0.0
H55 H 0.13309 0.21281 0.18312 0.0
H56 H 0.1293 0.1963 0.22341 0.0
H57 H 0.1195 0.23862 0.21368 0.0
H58 H 0.10643 0.17898 0.31726 0.0
C59 C 0.14551 0.18561 0.28287 0.0
C60 C 0.26311 0.87869 0.61183 0.0
C61 C 0.24838 0.90562 0.62404 0.0
C62 C 0.25923 0.91943 0.65275 0.0
C63 C 0.29861 0.87973 0.65657 0.0
C64 C 0.28814 0.86633 0.62831 0.0
C65 C 0.3069 0.83846 0.61811 0.0
H66 H 0.42183 0.73705 0.6486 0.0
C67 C 0.32489 0.86106 0.66777 0.0
C68 C 0.32988 0.83687 0.64522 0.0
H69 H 0.36411 0.74072 0.56483 0.0
H70 H 0.33763 0.78531 0.58689 0.0
H71 H 0.4362 0.81761 0.64975 0.0
H72 H 0.3683 0.74512 0.70149 0.0
H73 H 0.38116 0.77464 0.72929 0.0
H74 H 0.40905 0.74956 0.71102 0.0
H75 H 0.44662 0.78889 0.68173 0.0
H76 H 0.43393 0.82951 0.68987 0.0
C77 C 0.32381 0.8498 0.58488 0.0
C78 C 0.28429 0.80555 0.61799 0.0
C79 C 0.37895 0.8899 0.77229 0.0
C80 C 0.40302 0.87568 0.78911 0.0
C81 C 0.41638 0.84808 0.77636 0.0
C82 C 0.40618 0.8349 0.74746 0.0
C83 C 0.38223 0.84933 0.73088 0.0
C84 C 0.36881 0.87619 0.74341 0.0
C85 C 0.34304 0.88754 0.72269 0.0
C86 C 0.34364 0.86343 0.69551 0.0
C87 C 0.36679 0.84125 0.70044 0.0
C88 C 0.35254 0.92472 0.71016 0.0
C89 C 0.31175 0.88189 0.74321 0.0
C90 C 0.40375 0.74762 0.63474 0.0
C91 C 0.39507 0.73492 0.60491 0.0
C92 C 0.37099 0.74937 0.58812 0.0
C93 C 0.35574 0.77555 0.60087 0.0
C94 C 0.36465 0.7878 0.63072 0.0
C95 C 0.38846 0.774 0.64698 0.0
C96 C 0.39543 0.79076 0.67794 0.0
C97 C 0.3719 0.81688 0.67759 0.0
C98 C 0.35374 0.81488 0.65001 0.0
C99 C 0.42986 0.80745 0.67504 0.0
C100 C 0.38842 0.76378 0.70658 0.0
H101 H 0.29117 0.91823 0.69078 0.0
H102 H 0.25569 0.86784 0.58959 0.0
H103 H 0.26772 0.8031 0.63955 0.0
H104 H 0.29653 0.78246 0.61939 0.0
H105 H 0.27008 0.80552 0.59601 0.0
H106 H 0.3293 0.87778 0.58219 0.0
H107 H 0.30896 0.84219 0.56452 0.0
H108 H 0.34686 0.83984 0.58195 0.0
H109 H 0.368 0.91092 0.78159 0.0
H110 H 0.4352 0.83692 0.78854 0.0
H111 H 0.41748 0.81399 0.73912 0.0
H112 H 0.37824 0.92907 0.70411 0.0
H113 H 0.347 0.94247 0.72877 0.0
H114 H 0.34123 0.93173 0.6875 0.0
H115 H 0.31081 0.85838 0.75932 0.0
H116 H 0.29089 0.87825 0.72835 0.0
H117 H 0.30914 0.90327 0.75883 0.0
H118 H 0.24814 0.93996 0.66286 0.0
C119 C 0.28414 0.90664 0.66905 0.0
C120 C 0.60604 0.21637 0.87327 0.0
C121 C 0.57722 0.20015 0.86423 0.0
C122 C 0.56191 0.21433 0.83787 0.0
C123 C 0.60346 0.26062 0.83082 0.0
C124 C 0.61863 0.2464 0.85634 0.0
C125 C 0.64869 0.26709 0.86339 0.0
H126 H 0.74984 0.40777 0.83154 0.0
C127 C 0.62217 0.29261 0.8194 0.0
C128 C 0.64863 0.29657 0.83841 0.0
H129 H 0.75813 0.32339 0.90054 0.0
H130 H 0.70873 0.29621 0.88473 0.0
H131 H 0.67787 0.41339 0.84547 0.0
H132 H 0.7241 0.36076 0.77251 0.0
H133 H 0.69577 0.38399 0.75416 0.0
H134 H 0.72797 0.40602 0.77362 0.0
H135 H 0.69675 0.43537 0.80975 0.0
H136 H 0.6564 0.41682 0.81023 0.0
C137 C 0.64571 0.27842 0.89849 0.0
C138 C 0.67635 0.24566 0.85705 0.0
C139 C 0.58412 0.36513 0.72692 0.0
C140 C 0.59429 0.39768 0.71289 0.0
C141 C 0.62118 0.41557 0.72498 0.0
C142 C 0.63769 0.40117 0.75011 0.0
C143 C 0.62711 0.36863 0.76368 0.0
C144 C 0.60043 0.35147 0.75238 0.0
C145 C 0.59117 0.31825 0.77112 0.0
C146 C 0.61721 0.31785 0.795 0.0
C147 C 0.63845 0.34718 0.79029 0.0
C148 C 0.55851 0.31987 0.78821 0.0
C149 C 0.59228 0.28962 0.74746 0.0
C150 C 0.74113 0.38329 0.84303 0.0
C151 C 0.75793 0.36779 0.86743 0.0
C152 C 0.74549 0.33615 0.88206 0.0
C153 C 0.71686 0.32025 0.87266 0.0
C154 C 0.70038 0.33605 0.84829 0.0
C155 C 0.71258 0.36698 0.8338 0.0
C156 C 0.69183 0.37973 0.8081 0.0
C157 C 0.66542 0.35109 0.80934 0.0
C158 C 0.67054 0.32575 0.83306 0.0
C159 C 0.68015 0.4132 0.8186 0.0
C160 C 0.71076 0.38308 0.77527 0.0
H161 H 0.56214 0.25394 0.80126 0.0
H162 H 0.61824 0.20637 0.89363 0.0
H163 H 0.67083 0.22755 0.83805 0.0
H164 H 0.69801 0.26115 0.84755 0.0
H165 H 0.68164 0.23068 0.87935 0.0
H166 H 0.62156 0.28514 0.90401 0.0
H167 H 0.65047 0.25787 0.91644 0.0
H168 H 0.66139 0.30138 0.90264 0.0
H169 H 0.5639 0.35023 0.71828 0.0
H170 H 0.62934 0.44094 0.71537 0.0
H171 H 0.65793 0.41603 0.75816 0.0
H172 H 0.55466 0.34628 0.79342 0.0
H173 H 0.53919 0.31018 0.77291 0.0
H174 H 0.55601 0.30585 0.8122 0.0
H175 H 0.61315 0.29473 0.73039 0.0
H176 H 0.59466 0.26474 0.75987 0.0
H177 H 0.57098 0.2875 0.73281 0.0
H178 H 0.5399 0.20207 0.83017 0.0
C179 C 0.57491 0.2444 0.82108 0.0
C180 C 0.90172 0.71395 0.37093 0.0
C181 C 0.88683 0.72822 0.39699 0.0
C182 C 0.85529 0.71662 0.40581 0.0
C183 C 0.85412 0.67669 0.36388 0.0
C184 C 0.88497 0.68809 0.35486 0.0
C185 C 0.8971 0.66922 0.32722 0.0
H186 H 0.87052 0.54458 0.22285 0.0
C187 C 0.84346 0.6493 0.34304 0.0
C188 C 0.86851 0.64455 0.3215 0.0
H189 H 0.95505 0.61292 0.2293 0.0
H190 H 0.93074 0.6397 0.27318 0.0
H191 H 0.85655 0.5301 0.29835 0.0
H192 H 0.82261 0.60187 0.22952 0.0
H193 H 0.79045 0.58444 0.25481 0.0
H194 H 0.81091 0.55725 0.23004 0.0
H195 H 0.828 0.51768 0.2694 0.0
H196 H 0.81654 0.53176 0.30835 0.0
C197 C 0.92511 0.65075 0.33911 0.0
C198 C 0.90538 0.69483 0.2978 0.0
C199 C 0.73236 0.59119 0.36036 0.0
C200 C 0.71586 0.56362 0.34649 0.0
C201 C 0.73098 0.54791 0.32144 0.0
C202 C 0.76192 0.55927 0.31067 0.0
C203 C 0.77817 0.58658 0.32512 0.0
C204 C 0.76332 0.60199 0.34953 0.0
C205 C 0.78439 0.62992 0.36285 0.0
C206 C 0.81433 0.62888 0.34227 0.0
C207 C 0.81054 0.6036 0.32011 0.0
C208 C 0.78892 0.62026 0.3992 0.0
C209 C 0.76957 0.66349 0.35628 0.0
C210 C 0.88378 0.56551 0.23344 0.0
C211 C 0.91484 0.57652 0.22242 0.0
C212 C 0.93127 0.60352 0.23749 0.0
C213 C 0.91703 0.61924 0.26287 0.0
C214 C 0.88595 0.60795 0.27345 0.0
C215 C 0.86988 0.58154 0.25866 0.0
C216 C 0.83696 0.57297 0.2727 0.0
C217 C 0.83581 0.59858 0.29832 0.0
C218 C 0.8646 0.61902 0.29883 0.0
C219 C 0.83403 0.53617 0.28786 0.0
C220 C 0.81382 0.57915 0.24549 0.0
H221 H 0.81502 0.68358 0.39747 0.0
H222 H 0.92595 0.7223 0.36359 0.0
H223 H 0.88804 0.71384 0.2962 0.0
H224 H 0.90452 0.68289 0.2744 0.0
H225 H 0.92902 0.70873 0.29985 0.0
H226 H 0.92039 0.64002 0.36448 0.0
H227 H 0.94699 0.66839 0.33861 0.0
H228 H 0.92944 0.62897 0.32492 0.0
H229 H 0.72151 0.60418 0.37937 0.0
H230 H 0.71915 0.52629 0.31059 0.0
H231 H 0.77211 0.54606 0.29173 0.0
H232 H 0.78678 0.59233 0.40418 0.0
H233 H 0.771 0.63035 0.41499 0.0
H234 H 0.81263 0.62896 0.40712 0.0
H235 H 0.75869 0.66416 0.33223 0.0
H236 H 0.78697 0.68603 0.35518 0.0
H237 H 0.75087 0.66642 0.37493 0.0
H238 H 0.84306 0.72761 0.4253 0.0
C239 C 0.83893 0.6911 0.38945 0.0
C240 C 0.85131 0.7121 0.86923 0.0
C241 C 0.8783 0.6973 0.85916 0.0
C242 C 0.89322 0.70841 0.82889 0.0
C243 C 0.85562 0.74926 0.82026 0.0
C244 C 0.84029 0.73771 0.84933 0.0
C245 C 0.8116 0.75564 0.85597 0.0
H246 H 0.7224 0.88106 0.81387 0.0
C247 C 0.83884 0.77672 0.80586 0.0
C248 C 0.81277 0.78036 0.82637 0.0
H249 H 0.70735 0.80695 0.89526 0.0
H250 H 0.75284 0.78079 0.87769 0.0
H251 H 0.73795 0.82758 0.76119 0.0
H252 H 0.7977 0.89342 0.81739 0.0
H253 H 0.81362 0.89606 0.77746 0.0
H254 H 0.77509 0.90907 0.78506 0.0
H255 H 0.74358 0.87253 0.75238 0.0
H256 H 0.77017 0.84489 0.73589 0.0
C257 C 0.78222 0.72931 0.85699 0.0
C258 C 0.81635 0.77406 0.88764 0.0
C259 C 0.8876 0.84597 0.70689 0.0
C260 C 0.87965 0.87505 0.68956 0.0
C261 C 0.85069 0.88742 0.69686 0.0
C262 C 0.83073 0.872 0.7224 0.0
C263 C 0.83991 0.84397 0.74073 0.0
C264 C 0.86757 0.83096 0.73223 0.0
C265 C 0.87382 0.80119 0.75415 0.0
C266 C 0.84576 0.79892 0.77786 0.0
C267 C 0.82604 0.82409 0.77008 0.0
C268 C 0.8734 0.7697 0.73373 0.0
C269 C 0.90525 0.81041 0.77072 0.0
C270 C 0.72863 0.85896 0.82774 0.0
C271 C 0.71126 0.84631 0.8562 0.0
C272 C 0.72058 0.81769 0.87364 0.0
C273 C 0.74692 0.80235 0.86327 0.0
C274 C 0.76426 0.81565 0.83511 0.0
C275 C 0.7548 0.84323 0.81763 0.0
C276 C 0.77587 0.85364 0.78807 0.0
C277 C 0.79944 0.82767 0.79065 0.0
C278 C 0.79271 0.80572 0.81847 0.0
C279 C 0.75602 0.84978 0.75765 0.0
C280 C 0.79136 0.89001 0.79183 0.0
H281 H 0.89465 0.74161 0.78689 0.0
H282 H 0.83917 0.70431 0.89228 0.0
H283 H 0.84082 0.78645 0.88821 0.0
H284 H 0.8011 0.79454 0.8902 0.0
H285 H 0.8122 0.75598 0.90924 0.0
H286 H 0.78601 0.70822 0.84128 0.0
H287 H 0.77653 0.71808 0.882 0.0
H288 H 0.76131 0.74006 0.84742 0.0
H289 H 0.90953 0.83566 0.70142 0.0
H290 H 0.84415 0.90983 0.68372 0.0
H291 H 0.80935 0.88303 0.72744 0.0
H292 H 0.85825 0.77206 0.71255 0.0
H293 H 0.89737 0.76615 0.72425 0.0
H294 H 0.86318 0.74623 0.74751 0.0
H295 H 0.90711 0.83712 0.7776 0.0
H296 H 0.9076 0.79528 0.79353 0.0
H297 H 0.92571 0.80761 0.75417 0.0
H298 H 0.91345 0.69693 0.81995 0.0
C299 C 0.88207 0.73423 0.80949 0.0
C300 C 0.75685 0.09778 0.39195 0.0
C301 C 0.77119 0.07169 0.37772 0.0
C302 C 0.75948 0.0597 0.34856 0.0
C303 C 0.72049 0.10004 0.34813 0.0
C304 C 0.73176 0.11147 0.37686 0.0
C305 C 0.71431 0.13949 0.38889 0.0
H306 H 0.60515 0.24926 0.36621 0.0
C307 C 0.69455 0.12016 0.33861 0.0
C308 C 0.69086 0.14326 0.36255 0.0
H309 H 0.66595 0.2391 0.44688 0.0
H310 H 0.68755 0.19241 0.42309 0.0
H311 H 0.58561 0.16898 0.363 0.0
H312 H 0.6558 0.23856 0.31085 0.0
H313 H 0.63904 0.21157 0.28264 0.0
H314 H 0.6146 0.23814 0.30386 0.0
H315 H 0.57587 0.19885 0.3317 0.0
H316 H 0.58638 0.15753 0.32267 0.0
C317 C 0.69783 0.12713 0.42209 0.0
C318 C 0.73808 0.17148 0.3898 0.0
C319 C 0.63861 0.1007 0.23309 0.0
C320 C 0.61486 0.11694 0.21767 0.0
C321 C 0.60171 0.14316 0.23314 0.0
C322 C 0.61219 0.15344 0.26303 0.0
C323 C 0.63626 0.1375 0.27788 0.0
C324 C 0.64904 0.11151 0.26304 0.0
C325 C 0.67481 0.09803 0.28243 0.0
C326 C 0.67514 0.12008 0.3113 0.0
C327 C 0.65246 0.14315 0.3084 0.0
C328 C 0.66469 0.06038 0.29268 0.0
C329 C 0.70587 0.10428 0.2616 0.0
C330 C 0.62286 0.23674 0.37894 0.0
C331 C 0.63404 0.24831 0.40837 0.0
C332 C 0.65731 0.23129 0.42389 0.0
C333 C 0.66977 0.20398 0.41009 0.0
C334 C 0.65894 0.19328 0.38034 0.0
C335 C 0.63558 0.2093 0.36547 0.0
C336 C 0.62675 0.19412 0.33414 0.0
C337 C 0.64884 0.16657 0.33259 0.0
C338 C 0.66776 0.16639 0.35962 0.0
C339 C 0.59181 0.17923 0.33771 0.0
C340 C 0.63413 0.22189 0.30626 0.0
H341 H 0.72663 0.06358 0.31153 0.0
H342 H 0.76482 0.10727 0.41458 0.0
H343 H 0.75512 0.17349 0.36864 0.0
H344 H 0.7269 0.19526 0.38814 0.0
H345 H 0.75175 0.17064 0.41213 0.0
H346 H 0.69099 0.09934 0.42338 0.0
H347 H 0.71355 0.13259 0.44236 0.0
H348 H 0.67553 0.13825 0.42642 0.0
H349 H 0.64932 0.0806 0.22177 0.0
H350 H 0.58306 0.15572 0.22212 0.0
H351 H 0.6012 0.1736 0.27331 0.0
H352 H 0.63911 0.05635 0.29937 0.0
H353 H 0.66924 0.04397 0.27259 0.0
H354 H 0.67645 0.05137 0.3144 0.0
H355 H 0.70731 0.12906 0.24739 0.0
H356 H 0.72697 0.10575 0.27624 0.0
H357 H 0.70754 0.08431 0.24415 0.0
H358 H 0.77019 0.03985 0.33685 0.0
C359 C 0.73427 0.07368 0.33374 0.0
C360 C 0.4027 0.60826 0.28735 0.0
C361 C 0.38734 0.58115 0.30699 0.0
C362 C 0.35841 0.56537 0.29749 0.0
C363 C 0.35994 0.60493 0.2503 0.0
C364 C 0.3887 0.61964 0.25933 0.0
C365 C 0.40199 0.6485 0.23627 0.0
H366 H 0.38565 0.75271 0.10458 0.0
C367 C 0.35158 0.62374 0.22043 0.0
C368 C 0.37624 0.64914 0.21209 0.0
H369 H 0.46412 0.75263 0.16774 0.0
H370 H 0.43828 0.70399 0.19888 0.0
H371 H 0.33205 0.73919 0.16074 0.0
H372 H 0.37555 0.67197 0.09953 0.0
H373 H 0.33522 0.65806 0.10293 0.0
H374 H 0.34798 0.69974 0.08476 0.0
H375 H 0.32388 0.73687 0.11861 0.0
H376 H 0.30216 0.70914 0.14949 0.0
C377 C 0.40536 0.68102 0.25525 0.0
C378 C 0.43319 0.6391 0.22067 0.0
C379 C 0.24672 0.59323 0.16985 0.0
C380 C 0.23213 0.60696 0.14282 0.0
C381 C 0.24808 0.63476 0.12426 0.0
C382 C 0.27796 0.64861 0.13243 0.0
C383 C 0.29215 0.63464 0.15952 0.0
C384 C 0.27653 0.60744 0.17775 0.0
C385 C 0.29514 0.59607 0.20586 0.0
C386 C 0.32456 0.62086 0.20139 0.0
C387 C 0.32264 0.64337 0.17422 0.0
C388 C 0.2762 0.60079 0.23759 0.0
C389 C 0.3023 0.55923 0.20138 0.0
C390 C 0.39717 0.74228 0.12523 0.0
C391 C 0.42693 0.75657 0.13378 0.0
C392 C 0.44135 0.74188 0.16047 0.0
C393 C 0.42619 0.71375 0.17867 0.0
C394 C 0.39624 0.7001 0.17016 0.0
C395 C 0.38234 0.71415 0.14366 0.0
C396 C 0.35058 0.69605 0.13808 0.0
C397 C 0.34767 0.66891 0.16571 0.0
C398 C 0.37439 0.67158 0.18446 0.0
C399 C 0.3257 0.72147 0.14163 0.0
C400 C 0.35207 0.68075 0.10453 0.0
H401 H 0.32238 0.56441 0.26343 0.0
H402 H 0.42526 0.62046 0.29366 0.0
H403 H 0.43266 0.61128 0.21876 0.0
H404 H 0.43757 0.64987 0.19547 0.0
H405 H 0.45357 0.64724 0.23528 0.0
H406 H 0.38526 0.68119 0.27306 0.0
H407 H 0.4273 0.68276 0.26892 0.0
H408 H 0.40498 0.70442 0.23964 0.0
H409 H 0.23535 0.57159 0.18439 0.0
H410 H 0.23727 0.64611 0.10359 0.0
H411 H 0.28879 0.66977 0.11738 0.0
H412 H 0.26434 0.6244 0.23546 0.0
H413 H 0.25774 0.57933 0.24313 0.0
H414 H 0.29108 0.60366 0.2587 0.0
H415 H 0.30663 0.5551 0.17529 0.0
H416 H 0.32387 0.5529 0.21322 0.0
H417 H 0.28227 0.54084 0.21067 0.0
H418 H 0.34617 0.54442 0.3123 0.0
C419 C 0.34459 0.57716 0.26925 0.0
C420 C 0.11422 0.2494 0.66296 0.0
C421 C 0.1262 0.23972 0.63302 0.0
C422 C 0.15167 0.26022 0.61712 0.0
C423 C 0.15537 0.2963 0.66209 0.0
C424 C 0.12908 0.2779 0.67693 0.0
C425 C 0.11969 0.29239 0.70838 0.0
H426 H 0.15418 0.40616 0.82186 0.0
C427 C 0.16698 0.32252 0.68372 0.0
C428 C 0.14614 0.32067 0.71091 0.0
H429 H 0.06952 0.33784 0.81737 0.0
H430 H 0.09022 0.31589 0.76842 0.0
H431 H 0.1589 0.42962 0.74566 0.0
H432 H 0.20234 0.3546 0.80262 0.0
H433 H 0.23015 0.37056 0.77187 0.0
H434 H 0.21696 0.39852 0.80117 0.0
H435 H 0.18692 0.43956 0.77592 0.0
H436 H 0.19938 0.43359 0.73491 0.0
C437 C 0.0874 0.30627 0.70432 0.0
C438 C 0.11983 0.26469 0.73618 0.0
C439 C 0.27025 0.39415 0.65393 0.0
C440 C 0.28955 0.41743 0.67071 0.0
C441 C 0.27988 0.42415 0.70252 0.0
C442 C 0.25136 0.40885 0.71682 0.0
C443 C 0.23224 0.38614 0.69945 0.0
C444 C 0.24218 0.37857 0.66887 0.0
C445 C 0.22011 0.35185 0.65501 0.0
C446 C 0.19481 0.34535 0.68198 0.0
C447 C 0.20178 0.36587 0.7077 0.0
C448 C 0.2072 0.36726 0.62348 0.0
C449 C 0.23831 0.32056 0.6504 0.0
C450 C 0.14023 0.38623 0.81052 0.0
C451 C 0.11024 0.37366 0.8235 0.0
C452 C 0.0926 0.3481 0.80767 0.0
C453 C 0.10462 0.33544 0.77928 0.0
C454 C 0.13444 0.34876 0.7663 0.0
C455 C 0.15165 0.37377 0.78194 0.0
C456 C 0.1823 0.38601 0.76416 0.0
C457 C 0.18033 0.36494 0.73479 0.0
C458 C 0.15246 0.34276 0.73629 0.0
C459 C 0.18219 0.42424 0.75471 0.0
C460 C 0.20949 0.3773 0.78598 0.0
H461 H 0.1859 0.30217 0.61824 0.0
H462 H 0.09436 0.23469 0.67565 0.0
H463 H 0.14175 0.25196 0.73453 0.0
H464 H 0.1191 0.27488 0.7604 0.0
H465 H 0.09955 0.24513 0.73492 0.0
H466 H 0.08392 0.31432 0.67858 0.0
H467 H 0.06775 0.2868 0.71226 0.0
H468 H 0.08524 0.32925 0.71763 0.0
H469 H 0.2765 0.38827 0.62947 0.0
H470 H 0.29445 0.44109 0.71663 0.0
H471 H 0.24533 0.41528 0.74092 0.0
H472 H 0.20462 0.39461 0.62534 0.0
H473 H 0.22324 0.36492 0.60221 0.0
H474 H 0.18337 0.35577 0.61853 0.0
H475 H 0.25555 0.31779 0.66967 0.0
H476 H 0.22304 0.29641 0.65248 0.0
H477 H 0.25159 0.32284 0.62667 0.0
H478 H 0.16063 0.25447 0.59348 0.0
C479 C 0.16632 0.28818 0.63148 0.0
Zn480 Zn 0.05114 0.00851 0.52985 0.0
Zn481 Zn 0.9735 0.97397 0.46888 0.0
C482 C 0.08923 0.0692 0.54132 0.0
O483 O 0.1096 0.05297 0.52556 0.0
C484 C 0.95866 0.90023 0.46712 0.0
O485 O 0.95033 0.90114 0.49791 0.0
O486 O 0.09009 0.98389 0.53632 0.0
O487 O 0.01525 0.98415 0.55779 0.0
O488 O 0.98621 0.97416 0.51592 0.0
C489 C 0.09009 0.95217 0.54222 0.0
O490 O 0.06354 0.93257 0.54146 0.0
O491 O 0.06097 0.0558 0.54529 0.0
C492 C 0.93003 0.02501 0.45884 0.0
O493 O 0.95498 0.0458 0.46393 0.0
O494 O 0.93205 -0.00668 0.46129 0.0
O495 O 0.00748 0.00283 0.44174 0.0
O496 O 0.03542 0.00938 0.48449 0.0
O497 O 0.9698 0.92744 0.45135 0.0
C498 C 0.98964 0.97155 0.54639 0.0
C499 C 0.03236 0.01543 0.45437 0.0
Zn500 Zn 0.53011 0.95803 0.98861 0.0
Zn501 Zn 0.48583 0.00501 0.02681 0.0
C502 C 0.48769 0.91595 0.95356 0.0
O503 O 0.49865 0.89365 0.97372 0.0
C504 C 0.53109 0.04201 0.06405 0.0
O505 O 0.52114 0.06693 0.04627 0.0
O506 O 0.56696 0.93355 0.97508 0.0
O507 O 0.54612 0.00745 0.98344 0.0
O508 O 0.49999 0.02736 0.98326 0.0
C509 C 0.57489 0.93426 0.9451 0.0
O510 O 0.55903 0.95111 0.92414 0.0
O511 O 0.49689 0.94713 0.95567 0.0
C512 C 0.44401 0.02705 0.07419 0.0
O513 O 0.46017 0.00803 0.09294 0.0
O514 O 0.45059 0.02989 0.04386 0.0
O515 O 0.46812 0.9564 0.02873 0.0
O516 O 0.51418 0.93691 0.03241 0.0
O517 O 0.52052 0.0118 0.05903 0.0
C518 C 0.52879 0.02988 0.97402 0.0
C519 C 0.48472 0.93356 0.03871 0.0
Zn520 Zn 0.51093 0.45477 0.48805 0.0
Zn521 Zn 0.48966 0.51848 0.5192 0.0
C522 C 0.55482 0.4891 0.44027 0.0
O523 O 0.53648 0.47173 0.42102 0.0
C524 C 0.44693 0.48989 0.569 0.0
O525 O 0.46307 0.51382 0.58381 0.0
O526 O 0.52068 0.40918 0.4731 0.0
O527 O 0.51163 0.45242 0.53689 0.0
O528 O 0.52992 0.50607 0.53851 0.0
C529 C 0.54852 0.40129 0.47656 0.0
O530 O 0.56864 0.42202 0.49096 0.0
O531 O 0.5478 0.48719 0.4705 0.0
C532 C 0.45114 0.57051 0.52618 0.0
O533 O 0.43418 0.54875 0.50958 0.0
O534 O 0.47875 0.56414 0.53336 0.0
O535 O 0.48676 0.52131 0.47084 0.0
O536 O 0.47187 0.46736 0.4664 0.0
O537 O 0.45441 0.48533 0.53966 0.0
C538 C 0.52825 0.47564 0.55019 0.0
C539 C 0.47123 0.4981 0.45653 0.0
Zn540 Zn 0.95455 0.4854 0.98705 0.0
Zn541 Zn 0.03658 0.47414 0.03598 0.0
C542 C 0.91101 0.45091 0.94907 0.0
O543 O 0.93019 0.46813 0.92713 0.0
C544 C 0.07758 0.51724 0.06953 0.0
O545 O 0.05936 0.50146 0.0931 0.0
O546 O 0.94515 0.5294 0.96481 0.0
O547 O 0.9552 0.49299 0.03455 0.0
O548 O 0.99873 0.48766 0.06117 0.0
C549 C 0.91773 0.53765 0.97107 0.0
O550 O 0.89907 0.51845 0.99211 0.0
O551 O 0.91695 0.45296 0.97884 0.0
C552 C 0.07953 0.42776 0.05264 0.0
O553 O 0.09613 0.44784 0.03061 0.0
O554 O 0.05142 0.4334 0.05963 0.0
O555 O 0.03506 0.46183 0.98924 0.0
O556 O 0.99099 0.46782 0.96387 0.0
O557 O 0.07173 0.51099 0.04043 0.0
C558 C 0.97025 0.49413 0.06046 0.0
C559 C 0.01886 0.4595 0.96414 0.0
H560 H 0.14635 0.10427 0.37937 0.0
H561 H 0.07228 0.12285 0.31452 0.0
H562 H 0.03427 0.08736 0.35016 0.0
H563 H 0.02216 0.05019 0.39871 0.0
H564 H 0.09479 0.03177 0.46523 0.0
H565 H 0.13337 0.06822 0.43016 0.0
C566 C 0.12186 0.1005 0.37323 0.0
C567 C 0.11204 0.1162 0.34449 0.0
C568 C 0.09997 0.08016 0.39405 0.0
C569 C 0.08026 0.11136 0.33674 0.0
C570 C 0.05856 0.09094 0.35699 0.0
C571 C 0.04645 0.0541 0.40556 0.0
C572 C 0.05574 0.03821 0.43435 0.0
C573 C 0.06818 0.07511 0.38554 0.0
C574 C 0.08714 0.0439 0.44319 0.0
C575 C 0.10917 0.06459 0.42309 0.0
H576 H 0.4148 0.84032 0.84472 0.0
H577 H 0.41786 0.94205 0.80187 0.0
H578 H 0.44242 0.96408 0.85001 0.0
H579 H 0.46675 0.95381 0.90266 0.0
H580 H 0.46378 0.85145 0.94445 0.0
H581 H 0.43563 0.83043 0.89843 0.0
C582 C 0.42079 0.86733 0.84594 0.0
C583 C 0.41482 0.88946 0.8196 0.0
C584 C 0.43513 0.87973 0.87348 0.0
C585 C 0.42211 0.92446 0.82185 0.0
C586 C 0.43634 0.93705 0.8493 0.0
C587 C 0.45964 0.92696 0.90185 0.0
C588 C 0.4677 0.90427 0.92694 0.0
C589 C 0.4435 0.91485 0.87504 0.0
C590 C 0.45817 0.86954 0.92547 0.0
C591 C 0.44205 0.85741 0.8991 0.0
H592 H 0.61811 0.44046 0.66138 0.0
H593 H 0.53084 0.38906 0.70329 0.0
H594 H 0.50313 0.40823 0.65653 0.0
H595 H 0.50373 0.43784 0.60269 0.0
H596 H 0.58908 0.49458 0.56339 0.0
H597 H 0.61737 0.47588 0.61072 0.0
C598 C 0.59294 0.43395 0.66079 0.0
C599 C 0.57694 0.41252 0.68575 0.0
C600 C 0.57675 0.44608 0.63427 0.0
C601 C 0.54422 0.40437 0.68406 0.0
C602 C 0.52816 0.41563 0.65742 0.0
C603 C 0.52849 0.44621 0.60472 0.0
C604 C 0.54455 0.46713 0.57973 0.0
C605 C 0.54426 0.43603 0.63219 0.0
C606 C 0.57641 0.47842 0.58255 0.0
C607 C 0.59253 0.46764 0.60947 0.0
H608 H 0.88771 0.5551 0.16754 0.0
H609 H 0.97574 0.56106 0.21581 0.0
H610 H 1.00034 0.53498 0.17077 0.0
H611 H 0.99709 0.51131 0.11715 0.0
H612 H 0.90865 0.50517 0.06945 0.0
H613 H 0.88393 0.52965 0.11518 0.0
C614 C 0.91218 0.5503 0.1685 0.0
C615 C 0.92979 0.56015 0.19514 0.0
C616 C 0.92613 0.53505 0.14264 0.0
C617 C 0.96166 0.55426 0.19549 0.0
C618 C 0.97572 0.53909 0.16981 0.0
C619 C 0.97233 0.51499 0.11685 0.0
C620 C 0.95486 0.50635 0.08973 0.0
C621 C 0.95821 0.52949 0.14318 0.0
C622 C 0.9228 0.51156 0.08985 0.0
C623 C 0.90859 0.52567 0.11601 0.0
H624 H 0.32731 0.10302 0.11388 0.0
H625 H 0.36176 0.08213 0.20916 0.0
H626 H 0.40441 0.05424 0.18542 0.0
H627 H 0.43183 0.03551 0.13781 0.0
H628 H 0.39898 0.05844 0.0423 0.0
H629 H 0.35615 0.08642 0.06598 0.0
C630 C 0.34438 0.09281 0.12947 0.0
C631 C 0.34111 0.09455 0.16333 0.0
C632 C 0.36917 0.0772 0.11563 0.0
C633 C 0.36326 0.08065 0.1831 0.0
C634 C 0.38782 0.06486 0.16953 0.0
C635 C 0.4153 0.0466 0.12214 0.0
C636 C 0.4185 0.04472 0.08835 0.0
C637 C 0.39091 0.06285 0.13587 0.0
C638 C 0.39705 0.05953 0.06839 0.0
C639 C 0.37253 0.07549 0.08191 0.0
H640 H 0.19762 0.87061 0.59888 0.0
H641 H 0.23973 0.97196 0.61093 0.0
H642 H 0.19554 -0.00476 0.58496 0.0
H643 H 0.14402 0.98693 0.56069 0.0
H644 H 0.10081 0.88564 0.55015 0.0
H645 H 0.14647 0.8623 0.57315 0.0
C646 C 0.19726 0.89779 0.59549 0.0
C647 C 0.22192 0.91949 0.60698 0.0
C648 C 0.17156 0.91104 0.58077 0.0
C649 C 0.22089 0.95467 0.60273 0.0
C650 C 0.19569 0.96801 0.58773 0.0
C651 C 0.14468 0.95973 0.56308 0.0
C652 C 0.11894 0.9381 0.55363 0.0
C653 C 0.17075 0.94646 0.57693 0.0
C654 C 0.12021 0.90292 0.55722 0.0
C655 C 0.14632 0.88953 0.57045 0.0
H656 H 0.7786 0.37159 0.92875 0.0
H657 H 0.80571 0.40108 0.82874 0.0
H658 H 0.85568 0.42864 0.84525 0.0
H659 H 0.89137 0.44469 0.88793 0.0
H660 H 0.86471 0.41489 0.988 0.0
H661 H 0.81506 0.3864 0.97148 0.0
C662 C 0.79558 0.38372 0.91053 0.0
C663 C 0.78837 0.38434 0.87756 0.0
C664 C 0.82436 0.3993 0.92016 0.0
C665 C 0.81044 0.40066 0.85431 0.0
C666 C 0.83912 0.41622 0.86371 0.0
C667 C 0.87481 0.43183 0.90617 0.0
C668 C 0.88175 0.43195 0.93916 0.0
C669 C 0.84627 0.41576 0.89655 0.0
C670 C 0.85998 0.41516 0.96244 0.0
C671 C 0.83154 0.39894 0.95302 0.0
H672 H 0.69246 0.55845 0.40903 0.0
H673 H 0.66607 0.5396 0.31139 0.0
H674 H 0.61369 0.51601 0.33168 0.0
H675 H 0.57586 0.49923 0.37725 0.0
H676 H 0.60191 0.51963 0.47464 0.0
H677 H 0.65364 0.54505 0.4541 0.0
C678 C 0.67515 0.54976 0.39204 0.0
C679 C 0.68341 0.55069 0.35869 0.0
C680 C 0.64492 0.53659 0.4038 0.0
C681 C 0.66067 0.53866 0.33723 0.0
C682 C 0.63059 0.52537 0.34878 0.0
C683 C 0.59275 0.50946 0.39398 0.0
C684 C 0.58502 0.50734 0.42746 0.0
C685 C 0.62255 0.52394 0.38204 0.0
C686 C 0.60718 0.52089 0.44875 0.0
C687 C 0.63685 0.53533 0.43705 0.0
H688 H 0.12073 0.30071 0.13214 0.0
H689 H 0.21255 0.34676 0.09767 0.0
H690 H 0.18839 0.39161 0.06812 0.0
H691 H 0.1414 0.41849 0.05316 0.0
H692 H 0.04989 0.37435 0.09028 0.0
H693 H 0.07391 0.32832 0.11837 0.0
C694 C 0.13558 0.32077 0.11856 0.0
C695 C 0.16849 0.32029 0.11727 0.0
C696 C 0.1216 0.3469 0.10221 0.0
C697 C 0.18717 0.34615 0.09882 0.0
C698 C 0.17338 0.37198 0.08208 0.0
C699 C 0.12667 0.39874 0.0673 0.0
C700 C 0.09389 0.39978 0.06955 0.0
C701 C 0.14065 0.37264 0.0837 0.0
C702 C 0.07518 0.37417 0.08821 0.0
C703 C 0.08889 0.34783 0.10423 0.0
H704 H 0.60659 0.14647 0.88638 0.0
H705 H 0.51565 0.18438 0.88413 0.0
H706 H 0.49248 0.13466 0.9173 0.0
H707 H 0.49846 0.08152 0.94849 0.0
H708 H 0.58972 0.04415 0.95141 0.0
H709 H 0.61241 0.09289 0.9168 0.0
C710 C 0.58172 0.14392 0.89328 0.0
C711 C 0.5629 0.16911 0.88289 0.0
C712 C 0.56866 0.11551 0.91264 0.0
C713 C 0.5306 0.16515 0.89152 0.0
C714 C 0.51738 0.13687 0.91069 0.0
C715 C 0.52332 0.08398 0.94156 0.0
C716 C 0.54236 0.05927 0.9527 0.0
C717 C 0.53625 0.11205 0.92161 0.0
C718 C 0.5745 0.06283 0.94331 0.0
C719 C 0.58753 0.09069 0.92348 0.0
H720 H 0.92329 0.78483 0.37235 0.0
H721 H 0.88717 0.73266 0.46244 0.0
H722 H 0.90811 0.78033 0.49238 0.0
H723 H 0.93292 0.83856 0.49265 0.0
H724 H 0.96872 0.89129 0.40261 0.0
H725 H 0.95215 0.84163 0.37319 0.0
C726 C 0.92055 0.78368 0.39858 0.0
C727 C 0.90337 0.75541 0.41508 0.0
C728 C 0.93241 0.81141 0.4157 0.0
C729 C 0.89984 0.75438 0.44909 0.0
C730 C 0.91186 0.78161 0.46626 0.0
C731 C 0.93742 0.83912 0.46664 0.0
C732 C 0.95178 0.8688 0.44991 0.0
C733 C 0.92754 0.81057 0.44976 0.0
C734 C 0.95756 0.8689 0.41618 0.0
C735 C 0.94803 0.84049 0.39926 0.0
H736 H 0.36839 0.6825 0.57226 0.0
H737 H 0.45729 0.72334 0.6074 0.0
H738 H 0.48254 0.67626 0.58657 0.0
H739 H 0.47941 0.62312 0.55821 0.0
H740 H 0.39057 0.58447 0.52125 0.0
H741 H 0.36568 0.63137 0.54228 0.0
C742 C 0.3934 0.68152 0.57498 0.0
C743 C 0.41076 0.70659 0.59151 0.0
C744 C 0.40794 0.65469 0.56247 0.0
C745 C 0.44308 0.70423 0.59529 0.0
C746 C 0.45766 0.67738 0.58316 0.0
C747 C 0.45464 0.62506 0.55467 0.0
C748 C 0.43697 0.60019 0.53816 0.0
C749 C 0.44031 0.65238 0.56675 0.0
C750 C 0.40488 0.60318 0.53376 0.0
C751 C 0.39051 0.63002 0.54586 0.0
H752 H 0.87103 0.89777 0.62709 0.0
H753 H 0.94059 0.8943 0.69995 0.0
H754 H 0.98046 0.92388 0.66208 0.0
H755 H 0.99582 0.95001 0.60858 0.0
H756 H 0.92762 0.95343 0.53436 0.0
H757 H 0.88693 0.92443 0.57235 0.0
C758 C 0.8949 0.90372 0.63456 0.0
C759 C 0.90298 0.89377 0.66613 0.0
C760 C 0.91791 0.92051 0.61246 0.0
C761 C 0.93398 0.90137 0.67561 0.0
C762 C 0.95674 0.91835 0.65404 0.0
C763 C 0.97204 0.94455 0.60065 0.0
C764 C 0.96475 0.95383 0.56872 0.0
C765 C 0.94901 0.92788 0.62243 0.0
C766 C 0.93387 0.94632 0.5588 0.0
C767 C 0.91059 0.92986 0.58053 0.0
H768 H 0.59932 0.05345 0.197 0.0
H769 H 0.6054 0.15932 0.16574 0.0
H770 H 0.58215 0.14525 0.11466 0.0
H771 H 0.55681 0.10349 0.08042 0.0
H772 H 0.54949 -0.00258 0.11119 0.0
H773 H 0.5769 0.01088 0.1605 0.0
C774 C 0.59597 0.07334 0.17878 0.0
C775 C 0.60374 0.10743 0.18539 0.0
C776 C 0.58224 0.06507 0.14937 0.0
C777 C 0.59912 0.13294 0.16155 0.0
C778 C 0.58591 0.12491 0.13225 0.0
C779 C 0.56143 0.08321 0.09771 0.0
C780 C 0.55086 0.0495 0.09211 0.0
C781 C 0.5768 0.09115 0.12617 0.0
C782 C 0.55729 0.02361 0.11482 0.0
C783 C 0.57289 0.0313 0.14313 0.0
H784 H 0.39457 0.51677 0.3298 0.0
H785 H 0.41182 0.62122 0.35263 0.0
H786 H 0.43871 0.60452 0.40109 0.0
H787 H 0.45887 0.56085 0.43581 0.0
H788 H 0.44221 0.45605 0.4139 0.0
H789 H 0.41327 0.47227 0.36637 0.0
C790 C 0.40391 0.53575 0.34565 0.0
C791 C 0.40148 0.57018 0.33753 0.0
C792 C 0.41955 0.52597 0.37347 0.0
C793 C 0.41385 0.5946 0.35812 0.0
C794 C 0.42914 0.58508 0.38586 0.0
C795 C 0.44895 0.54146 0.42068 0.0
C796 C 0.45292 0.50732 0.42826 0.0
C797 C 0.43248 0.55093 0.39352 0.0
C798 C 0.43956 0.48255 0.40856 0.0
C799 C 0.42304 0.4918 0.38137 0.0
H800 H 0.05226 0.39475 0.83268 0.0
H801 H 0.13949 0.38549 0.87995 0.0
H802 H 0.11931 0.4117 0.92734 0.0
H803 H 0.07694 0.43752 0.95528 0.0
H804 H 0.98996 0.44757 0.90734 0.0
H805 H 0.01002 0.42093 0.86046 0.0
C806 C 0.06669 0.39816 0.85352 0.0
C807 C 0.09726 0.38806 0.85286 0.0
C808 C 0.05508 0.41363 0.88053 0.0
C809 C 0.11592 0.39318 0.87981 0.0
C810 C 0.10439 0.40815 0.90692 0.0
C811 C 0.06237 0.43403 0.93456 0.0
C812 C 0.03193 0.44466 0.93503 0.0
C813 C 0.07404 0.41863 0.9075 0.0
C814 C 0.01348 0.4398 0.90782 0.0
C815 C 0.02489 0.42443 0.88093 0.0
H816 H 0.69425 0.85729 0.91857 0.0
H817 H 0.66639 0.87311 0.81993 0.0
H818 H 0.62225 0.90209 0.83873 0.0
H819 H 0.59152 0.92294 0.88305 0.0
H820 H 0.61805 0.90524 0.98189 0.0
H821 H 0.66243 0.87642 0.9631 0.0
C822 C 0.6783 0.86664 0.90118 0.0
C823 C 0.6838 0.86307 0.86784 0.0
C824 C 0.65269 0.88292 0.91218 0.0
C825 C 0.66312 0.87594 0.84567 0.0
C826 C 0.63771 0.89236 0.85641 0.0
C827 C 0.60701 0.91282 0.90051 0.0
C828 C 0.60153 0.91638 0.93382 0.0
C829 C 0.63234 0.89609 0.88958 0.0
C830 C 0.62171 0.90286 0.95611 0.0
C831 C 0.64712 0.8864 0.94539 0.0
H832 H 0.82078 0.10575 0.40558 0.0
H833 H 0.78288 0.00524 0.38433 0.0
H834 H 0.82784 0.9818 0.40866 0.0
H835 H 0.87851 -0.01008 0.43509 0.0
H836 H 0.91641 0.09062 0.45589 0.0
H837 H 0.87059 0.1137 0.43327 0.0
C838 C 0.82213 0.07866 0.4066 0.0
C839 C 0.79841 0.05735 0.39305 0.0
C840 C 0.84804 0.06532 0.42068 0.0
C841 C 0.80093 0.02234 0.39414 0.0
C842 C 0.82657 0.00887 0.40825 0.0
C843 C 0.87664 0.01689 0.43495 0.0
C844 C 0.90097 0.03846 0.44723 0.0
C845 C 0.85035 0.03012 0.42147 0.0
C846 C 0.89814 0.07338 0.44661 0.0
C847 C 0.87193 0.08665 0.4336 0.0
H848 H 0.21163 0.59585 0.08232 0.0
H849 H 0.18156 0.58493 0.18349 0.0
H850 H 0.13055 0.55786 0.16944 0.0
H851 H 0.09535 0.53532 0.12882 0.0
H852 H 0.12496 0.54633 0.02753 0.0
H853 H 0.17503 0.57622 0.04123 0.0
C854 C 0.19376 0.58802 0.10126 0.0
C855 C 0.20055 0.59218 0.13394 0.0
C856 C 0.16438 0.5726 0.09301 0.0
C857 C 0.17721 0.58147 0.1582 0.0
C858 C 0.14794 0.56619 0.15018 0.0
C859 C 0.11262 0.54447 0.10966 0.0
C860 C 0.10647 0.53841 0.07722 0.0
C861 C 0.14142 0.56128 0.11772 0.0
C862 C 0.12908 0.55064 0.05272 0.0
C863 C 0.15778 0.56761 0.06054 0.0
H864 H 0.33009 0.39297 0.62695 0.0
H865 H 0.31624 0.48191 0.67868 0.0
H866 H 0.36454 0.51072 0.6535 0.0
H867 H 0.4098 0.5118 0.61551 0.0
H868 H 0.421 0.42586 0.55908 0.0
H869 H 0.37406 0.39508 0.58676 0.0
C870 C 0.33722 0.41882 0.63247 0.0
C871 C 0.31931 0.43493 0.65507 0.0
C872 C 0.36451 0.43592 0.61688 0.0
C873 C 0.32967 0.4683 0.66215 0.0
C874 C 0.35723 0.48506 0.64746 0.0
C875 C 0.40206 0.48623 0.60941 0.0
C876 C 0.41888 0.47094 0.58554 0.0
C877 C 0.37474 0.46918 0.62474 0.0
C878 C 0.40835 0.43809 0.57741 0.0
C879 C 0.38159 0.42053 0.59326 0.0
H880 H 0.84505 0.64652 0.89705 0.0
H881 H 0.93998 0.68716 0.86789 0.0
H882 H 0.96056 0.64137 0.89957 0.0
H883 H 0.95166 0.58926 0.93515 0.0
H884 H 0.85684 0.55089 0.96677 0.0
H885 H 0.83633 0.59681 0.9352 0.0
C886 C 0.87027 0.64579 0.89799 0.0
C887 C 0.89083 0.67021 0.87978 0.0
C888 C 0.88204 0.61979 0.91682 0.0
C889 C 0.92346 0.66835 0.88102 0.0
C890 C 0.93533 0.64229 0.89936 0.0
C891 C 0.92653 0.59105 0.93519 0.0
C892 C 0.90583 0.56663 0.95317 0.0
C893 C 0.91483 0.61774 0.91719 0.0
C894 C 0.87333 0.5694 0.95321 0.0
C895 C 0.86153 0.59561 0.93507 0.0
H896 H 0.4002 0.81253 0.11338 0.0
H897 H 0.48875 0.76945 0.11358 0.0
H898 H 0.51463 0.82064 0.08455 0.0
H899 H 0.51195 0.8775 0.059 0.0
H900 H 0.42304 0.92013 0.05861 0.0
H901 H 0.39742 0.86904 0.08755 0.0
C902 C 0.42509 0.8142 0.10674 0.0
C903 C 0.44252 0.78725 0.11553 0.0
C904 C 0.43976 0.8436 0.09006 0.0
C905 C 0.47488 0.79001 0.10732 0.0
C906 C 0.48966 0.81919 0.09063 0.0
C907 C 0.48698 0.87566 0.0653 0.0
C908 C 0.46948 0.90264 0.05665 0.0
C909 C 0.47232 0.84617 0.08194 0.0
C910 C 0.43711 0.89976 0.06492 0.0
C911 C 0.4224 0.87054 0.08148 0.0
H912 H 0.1592 0.19607 0.60142 0.0
H913 H 0.06454 0.2114 0.63221 0.0
H914 H 0.0445 0.15993 0.60679 0.0
H915 H 0.05407 0.11096 0.57465 0.0
H916 H 0.14915 0.09888 0.54215 0.0
H917 H 0.16854 0.1493 0.56855 0.0
C918 C 0.13407 0.18865 0.60219 0.0
C919 C 0.11344 0.20799 0.61846 0.0
C920 C 0.12271 0.15964 0.58693 0.0
C921 C 0.08107 0.19701 0.62007 0.0
C922 C 0.06956 0.16768 0.60529 0.0
C923 C 0.079 0.11948 0.57324 0.0
C924 C 0.10006 0.10103 0.55635 0.0
C925 C 0.09017 0.14886 0.58847 0.0
C926 C 0.13231 0.11248 0.55482 0.0
C927 C 0.14351 0.14133 0.57003 0.0
H928 H 0.57366 0.26576 0.41172 0.0
H929 H 0.66845 0.29924 0.43661 0.0
H930 H 0.65015 0.34843 0.46067 0.0
H931 H 0.60767 0.38242 0.47419 0.0
H932 H 0.51289 0.35069 0.44821 0.0
H933 H 0.53082 0.30058 0.42482 0.0
C934 C 0.59034 0.28395 0.42218 0.0
C935 C 0.62239 0.27853 0.42252 0.0
C936 C 0.57969 0.31254 0.43581 0.0
C937 C 0.64359 0.30229 0.43651 0.0
C938 C 0.63318 0.33062 0.45012 0.0
C939 C 0.59083 0.36453 0.46355 0.0
C940 C 0.55894 0.37033 0.46308 0.0
C941 C 0.60132 0.33597 0.44996 0.0
C942 C 0.53757 0.34688 0.44896 0.0
C943 C 0.54782 0.31821 0.43555 0.0
loop_
_geom_bond_atom_site_label_1
_geom_bond_atom_site_label_2
_geom_bond_distance
_geom_bond_site_symmetry_2
_ccdc_geom_bond_type
C0 C1 1.391 . S
C0 C4 1.391 . S
C0 H42 0.948 . S
C1 C0 1.391 . S
C1 C2 1.391 . S
C2 C1 1.391 . S
C2 H58 0.947 . S
C2 C59 1.392 . S
C3 C4 1.391 . S
C3 C7 1.397 . S
C3 C59 1.419 . S
C4 C0 1.391 . S
C4 C3 1.391 . S
C4 C5 1.399 . S
C5 C4 1.399 . S
C5 C8 1.396 . S
C5 C17 1.453 . S
C5 C18 1.684 . S
H6 C30 0.948 . S
C7 C3 1.397 . S
C7 C8 1.394 . S
C7 C26 1.723 . S
C8 C5 1.396 . S
C8 C7 1.394 . S
C8 C38 1.723 . S
H9 C32 0.947 . S
H10 C33 0.948 . S
H11 C39 0.982 . S
H12 C40 0.979 . S
H13 C40 0.980 . S
H14 C40 0.983 . S
H15 C39 0.979 . S
H16 C39 0.977 . S
C17 C5 1.453 . S
C17 H46 0.982 . S
C17 H47 0.979 . S
C17 H48 0.977 . S
C18 C5 1.684 . S
C18 H43 0.979 . S
C18 H44 0.980 . S
C18 H45 0.983 . S
C19 C20 1.391 . S
C19 C24 1.391 . S
C19 H49 0.948 . S
C20 C19 1.391 . S
C20 C21 1.391 . S
C21 C20 1.391 . S
C21 C22 1.392 . S
C21 H50 0.947 . S
C22 C21 1.392 . S
C22 C23 1.419 . S
C22 H51 0.948 . S
C23 C22 1.419 . S
C23 C24 1.391 . S
C23 C27 1.397 . S
C24 C19 1.391 . S
C24 C23 1.391 . S
C24 C25 1.399 . S
C25 C24 1.399 . S
C25 C26 1.396 . S
C25 C28 1.453 . S
C25 C29 1.684 . S
C26 C7 1.723 . S
C26 C25 1.396 . S
C26 C27 1.394 . S
C27 C23 1.397 . S
C27 C26 1.394 . S
C27 C37 1.723 . S
C28 C25 1.453 . S
C28 H52 0.982 . S
C28 H53 0.979 . S
C28 H54 0.977 . S
C29 C25 1.684 . S
C29 H55 0.979 . S
C29 H56 0.980 . S
C29 H57 0.983 . S
C30 H6 0.948 . S
C30 C31 1.391 . S
C30 C35 1.391 . S
C31 C30 1.391 . S
C31 C32 1.391 . S
C32 H9 0.947 . S
C32 C31 1.391 . S
C32 C33 1.392 . S
C33 H10 0.948 . S
C33 C32 1.392 . S
C33 C34 1.419 . S
C34 C33 1.419 . S
C34 C35 1.391 . S
C34 C38 1.397 . S
C35 C30 1.391 . S
C35 C34 1.391 . S
C35 C36 1.399 . S
C36 C35 1.399 . S
C36 C37 1.396 . S
C36 C39 1.453 . S
C36 C40 1.684 . S
C37 C27 1.723 . S
C37 C36 1.396 . S
C37 C38 1.394 . S
C38 C8 1.723 . S
C38 C34 1.397 . S
C38 C37 1.394 . S
C39 H11 0.982 . S
C39 H15 0.979 . S
C39 H16 0.977 . S
C39 C36 1.453 . S
C40 H12 0.979 . S
C40 H13 0.980 . S
C40 H14 0.983 . S
C40 C36 1.684 . S
H41 C59 0.948 . S
H42 C0 0.948 . S
H43 C18 0.979 . S
H44 C18 0.980 . S
H45 C18 0.983 . S
H46 C17 0.982 . S
H47 C17 0.979 . S
H48 C17 0.977 . S
H49 C19 0.948 . S
H50 C21 0.947 . S
H51 C22 0.948 . S
H52 C28 0.982 . S
H53 C28 0.979 . S
H54 C28 0.977 . S
H55 C29 0.979 . S
H56 C29 0.980 . S
H57 C29 0.983 . S
H58 C2 0.947 . S
C59 C2 1.392 . S
C59 C3 1.419 . S
C59 H41 0.948 . S
C60 C61 1.391 . S
C60 C64 1.391 . S
C60 H102 0.948 . S
C61 C60 1.391 . S
C61 C62 1.391 . S
C62 C61 1.391 . S
C62 H118 0.947 . S
C62 C119 1.392 . S
C63 C64 1.391 . S
C63 C67 1.397 . S
C63 C119 1.419 . S
C64 C60 1.391 . S
C64 C63 1.391 . S
C64 C65 1.399 . S
C65 C64 1.399 . S
C65 C68 1.396 . S
C65 C77 1.453 . S
C65 C78 1.684 . S
H66 C90 0.948 . S
C67 C63 1.397 . S
C67 C68 1.394 . S
C67 C86 1.723 . S
C68 C65 1.396 . S
C68 C67 1.394 . S
C68 C98 1.723 . S
H69 C92 0.947 . S
H70 C93 0.948 . S
H71 C99 0.982 . S
H72 C100 0.979 . S
H73 C100 0.980 . S
H74 C100 0.983 . S
H75 C99 0.979 . S
H76 C99 0.977 . S
C77 C65 1.453 . S
C77 H106 0.982 . S
C77 H107 0.979 . S
C77 H108 0.977 . S
C78 C65 1.684 . S
C78 H103 0.979 . S
C78 H104 0.980 . S
C78 H105 0.983 . S
C79 C80 1.391 . S
C79 C84 1.391 . S
C79 H109 0.948 . S
C80 C79 1.391 . S
C80 C81 1.391 . S
C81 C80 1.391 . S
C81 C82 1.392 . S
C81 H110 0.947 . S
C82 C81 1.392 . S
C82 C83 1.419 . S
C82 H111 0.948 . S
C83 C82 1.419 . S
C83 C84 1.391 . S
C83 C87 1.397 . S
C84 C79 1.391 . S
C84 C83 1.391 . S
C84 C85 1.399 . S
C85 C84 1.399 . S
C85 C86 1.396 . S
C85 C88 1.453 . S
C85 C89 1.684 . S
C86 C67 1.723 . S
C86 C85 1.396 . S
C86 C87 1.394 . S
C87 C83 1.397 . S
C87 C86 1.394 . S
C87 C97 1.723 . S
C88 C85 1.453 . S
C88 H112 0.982 . S
C88 H113 0.979 . S
C88 H114 0.977 . S
C89 C85 1.684 . S
C89 H115 0.979 . S
C89 H116 0.980 . S
C89 H117 0.983 . S
C90 H66 0.948 . S
C90 C91 1.391 . S
C90 C95 1.391 . S
C91 C90 1.391 . S
C91 C92 1.391 . S
C92 H69 0.947 . S
C92 C91 1.391 . S
C92 C93 1.392 . S
C93 H70 0.948 . S
C93 C92 1.392 . S
C93 C94 1.419 . S
C94 C93 1.419 . S
C94 C95 1.391 . S
C94 C98 1.397 . S
C95 C90 1.391 . S
C95 C94 1.391 . S
C95 C96 1.399 . S
C96 C95 1.399 . S
C96 C97 1.396 . S
C96 C99 1.453 . S
C96 C100 1.684 . S
C97 C87 1.723 . S
C97 C96 1.396 . S
C97 C98 1.394 . S
C98 C68 1.723 . S
C98 C94 1.397 . S
C98 C97 1.394 . S
C99 H71 0.982 . S
C99 H75 0.979 . S
C99 H76 0.977 . S
C99 C96 1.453 . S
C100 H72 0.979 . S
C100 H73 0.980 . S
C100 H74 0.983 . S
C100 C96 1.684 . S
H101 C119 0.948 . S
H102 C60 0.948 . S
H103 C78 0.979 . S
H104 C78 0.980 . S
H105 C78 0.983 . S
H106 C77 0.982 . S
H107 C77 0.979 . S
H108 C77 0.977 . S
H109 C79 0.948 . S
H110 C81 0.947 . S
H111 C82 0.948 . S
H112 C88 0.982 . S
H113 C88 0.979 . S
H114 C88 0.977 . S
H115 C89 0.979 . S
H116 C89 0.980 . S
H117 C89 0.983 . S
H118 C62 0.947 . S
C119 C62 1.392 . S
C119 C63 1.419 . S
C119 H101 0.948 . S
C120 C121 1.391 . S
C120 C124 1.391 . S
C120 H162 0.948 . S
C121 C120 1.391 . S
C121 C122 1.391 . S
C122 C121 1.391 . S
C122 H178 0.947 . S
C122 C179 1.392 . S
C123 C124 1.391 . S
C123 C127 1.397 . S
C123 C179 1.419 . S
C124 C120 1.391 . S
C124 C123 1.391 . S
C124 C125 1.399 . S
C125 C124 1.399 . S
C125 C128 1.396 . S
C125 C137 1.453 . S
C125 C138 1.684 . S
H126 C150 0.948 . S
C127 C123 1.397 . S
C127 C128 1.394 . S
C127 C146 1.723 . S
C128 C125 1.396 . S
C128 C127 1.394 . S
C128 C158 1.723 . S
H129 C152 0.947 . S
H130 C153 0.948 . S
H131 C159 0.982 . S
H132 C160 0.979 . S
H133 C160 0.980 . S
H134 C160 0.983 . S
H135 C159 0.979 . S
H136 C159 0.977 . S
C137 C125 1.453 . S
C137 H166 0.982 . S
C137 H167 0.979 . S
C137 H168 0.977 . S
C138 C125 1.684 . S
C138 H163 0.979 . S
C138 H164 0.980 . S
C138 H165 0.983 . S
C139 C140 1.391 . S
C139 C144 1.391 . S
C139 H169 0.948 . S
C140 C139 1.391 . S
C140 C141 1.391 . S
C141 C140 1.391 . S
C141 C142 1.392 . S
C141 H170 0.947 . S
C142 C141 1.392 . S
C142 C143 1.419 . S
C142 H171 0.948 . S
C143 C142 1.419 . S
C143 C144 1.391 . S
C143 C147 1.397 . S
C144 C139 1.391 . S
C144 C143 1.391 . S
C144 C145 1.399 . S
C145 C144 1.399 . S
C145 C146 1.396 . S
C145 C148 1.453 . S
C145 C149 1.684 . S
C146 C127 1.723 . S
C146 C145 1.396 . S
C146 C147 1.394 . S
C147 C143 1.397 . S
C147 C146 1.394 . S
C147 C157 1.723 . S
C148 C145 1.453 . S
C148 H172 0.982 . S
C148 H173 0.979 . S
C148 H174 0.977 . S
C149 C145 1.684 . S
C149 H175 0.979 . S
C149 H176 0.980 . S
C149 H177 0.983 . S
C150 H126 0.948 . S
C150 C151 1.391 . S
C150 C155 1.391 . S
C151 C150 1.391 . S
C151 C152 1.391 . S
C152 H129 0.947 . S
C152 C151 1.391 . S
C152 C153 1.392 . S
C153 H130 0.948 . S
C153 C152 1.392 . S
C153 C154 1.419 . S
C154 C153 1.419 . S
C154 C155 1.391 . S
C154 C158 1.397 . S
C155 C150 1.391 . S
C155 C154 1.391 . S
C155 C156 1.399 . S
C156 C155 1.399 . S
C156 C157 1.396 . S
C156 C159 1.453 . S
C156 C160 1.684 . S
C157 C147 1.723 . S
C157 C156 1.396 . S
C157 C158 1.394 . S
C158 C128 1.723 . S
C158 C154 1.397 . S
C158 C157 1.394 . S
C159 H131 0.982 . S
C159 H135 0.979 . S
C159 H136 0.977 . S
C159 C156 1.453 . S
C160 H132 0.979 . S
C160 H133 0.980 . S
C160 H134 0.983 . S
C160 C156 1.684 . S
H161 C179 0.948 . S
H162 C120 0.948 . S
H163 C138 0.979 . S
H164 C138 0.980 . S
H165 C138 0.983 . S
H166 C137 0.982 . S
H167 C137 0.979 . S
H168 C137 0.977 . S
H169 C139 0.948 . S
H170 C141 0.947 . S
H171 C142 0.948 . S
H172 C148 0.982 . S
H173 C148 0.979 . S
H174 C148 0.977 . S
H175 C149 0.979 . S
H176 C149 0.980 . S
H177 C149 0.983 . S
H178 C122 0.947 . S
C179 C122 1.392 . S
C179 C123 1.419 . S
C179 H161 0.948 . S
C180 C181 1.391 . S
C180 C184 1.391 . S
C180 H222 0.948 . S
C181 C180 1.391 . S
C181 C182 1.391 . S
C182 C181 1.391 . S
C182 H238 0.947 . S
C182 C239 1.392 . S
C183 C184 1.391 . S
C183 C187 1.397 . S
C183 C239 1.419 . S
C184 C180 1.391 . S
C184 C183 1.391 . S
C184 C185 1.399 . S
C185 C184 1.399 . S
C185 C188 1.396 . S
C185 C197 1.453 . S
C185 C198 1.684 . S
H186 C210 0.948 . S
C187 C183 1.397 . S
C187 C188 1.394 . S
C187 C206 1.723 . S
C188 C185 1.396 . S
C188 C187 1.394 . S
C188 C218 1.723 . S
H189 C212 0.947 . S
H190 C213 0.948 . S
H191 C219 0.982 . S
H192 C220 0.979 . S
H193 C220 0.980 . S
H194 C220 0.983 . S
H195 C219 0.979 . S
H196 C219 0.977 . S
C197 C185 1.453 . S
C197 H226 0.982 . S
C197 H227 0.979 . S
C197 H228 0.977 . S
C198 C185 1.684 . S
C198 H223 0.979 . S
C198 H224 0.980 . S
C198 H225 0.983 . S
C199 C200 1.391 . S
C199 C204 1.391 . S
C199 H229 0.948 . S
C200 C199 1.391 . S
C200 C201 1.391 . S
C201 C200 1.391 . S
C201 C202 1.392 . S
C201 H230 0.947 . S
C202 C201 1.392 . S
C202 C203 1.419 . S
C202 H231 0.948 . S
C203 C202 1.419 . S
C203 C204 1.391 . S
C203 C207 1.397 . S
C204 C199 1.391 . S
C204 C203 1.391 . S
C204 C205 1.399 . S
C205 C204 1.399 . S
C205 C206 1.396 . S
C205 C208 1.453 . S
C205 C209 1.684 . S
C206 C187 1.723 . S
C206 C205 1.396 . S
C206 C207 1.394 . S
C207 C203 1.397 . S
C207 C206 1.394 . S
C207 C217 1.723 . S
C208 C205 1.453 . S
C208 H232 0.982 . S
C208 H233 0.979 . S
C208 H234 0.977 . S
C209 C205 1.684 . S
C209 H235 0.979 . S
C209 H236 0.980 . S
C209 H237 0.983 . S
C210 H186 0.948 . S
C210 C211 1.391 . S
C210 C215 1.391 . S
C211 C210 1.391 . S
C211 C212 1.391 . S
C212 H189 0.947 . S
C212 C211 1.391 . S
C212 C213 1.392 . S
C213 H190 0.948 . S
C213 C212 1.392 . S
C213 C214 1.419 . S
C214 C213 1.419 . S
C214 C215 1.391 . S
C214 C218 1.397 . S
C215 C210 1.391 . S
C215 C214 1.391 . S
C215 C216 1.399 . S
C216 C215 1.399 . S
C216 C217 1.396 . S
C216 C219 1.453 . S
C216 C220 1.684 . S
C217 C207 1.723 . S
C217 C216 1.396 . S
C217 C218 1.394 . S
C218 C188 1.723 . S
C218 C214 1.397 . S
C218 C217 1.394 . S
C219 H191 0.982 . S
C219 H195 0.979 . S
C219 H196 0.977 . S
C219 C216 1.453 . S
C220 H192 0.979 . S
C220 H193 0.980 . S
C220 H194 0.983 . S
C220 C216 1.684 . S
H221 C239 0.948 . S
H222 C180 0.948 . S
H223 C198 0.979 . S
H224 C198 0.980 . S
H225 C198 0.983 . S
H226 C197 0.982 . S
H227 C197 0.979 . S
H228 C197 0.977 . S
H229 C199 0.948 . S
H230 C201 0.947 . S
H231 C202 0.948 . S
H232 C208 0.982 . S
H233 C208 0.979 . S
H234 C208 0.977 . S
H235 C209 0.979 . S
H236 C209 0.980 . S
H237 C209 0.983 . S
H238 C182 0.947 . S
C239 C182 1.392 . S
C239 C183 1.419 . S
C239 H221 0.948 . S
C240 C241 1.391 . S
C240 C244 1.391 . S
C240 H282 0.948 . S
C241 C240 1.391 . S
C241 C242 1.391 . S
C242 C241 1.391 . S
C242 H298 0.947 . S
C242 C299 1.392 . S
C243 C244 1.391 . S
C243 C247 1.397 . S
C243 C299 1.419 . S
C244 C240 1.391 . S
C244 C243 1.391 . S
C244 C245 1.399 . S
C245 C244 1.399 . S
C245 C248 1.396 . S
C245 C257 1.453 . S
C245 C258 1.684 . S
H246 C270 0.948 . S
C247 C243 1.397 . S
C247 C248 1.394 . S
C247 C266 1.723 . S
C248 C245 1.396 . S
C248 C247 1.394 . S
C248 C278 1.723 . S
H249 C272 0.947 . S
H250 C273 0.948 . S
H251 C279 0.982 . S
H252 C280 0.979 . S
H253 C280 0.980 . S
H254 C280 0.983 . S
H255 C279 0.979 . S
H256 C279 0.977 . S
C257 C245 1.453 . S
C257 H286 0.982 . S
C257 H287 0.979 . S
C257 H288 0.977 . S
C258 C245 1.684 . S
C258 H283 0.979 . S
C258 H284 0.980 . S
C258 H285 0.983 . S
C259 C260 1.391 . S
C259 C264 1.391 . S
C259 H289 0.948 . S
C260 C259 1.391 . S
C260 C261 1.391 . S
C261 C260 1.391 . S
C261 C262 1.392 . S
C261 H290 0.947 . S
C262 C261 1.392 . S
C262 C263 1.419 . S
C262 H291 0.948 . S
C263 C262 1.419 . S
C263 C264 1.391 . S
C263 C267 1.397 . S
C264 C259 1.391 . S
C264 C263 1.391 . S
C264 C265 1.399 . S
C265 C264 1.399 . S
C265 C266 1.396 . S
C265 C268 1.453 . S
C265 C269 1.684 . S
C266 C247 1.723 . S
C266 C265 1.396 . S
C266 C267 1.394 . S
C267 C263 1.397 . S
C267 C266 1.394 . S
C267 C277 1.723 . S
C268 C265 1.453 . S
C268 H292 0.982 . S
C268 H293 0.979 . S
C268 H294 0.977 . S
C269 C265 1.684 . S
C269 H295 0.979 . S
C269 H296 0.980 . S
C269 H297 0.983 . S
C270 H246 0.948 . S
C270 C271 1.391 . S
C270 C275 1.391 . S
C271 C270 1.391 . S
C271 C272 1.391 . S
C272 H249 0.947 . S
C272 C271 1.391 . S
C272 C273 1.392 . S
C273 H250 0.948 . S
C273 C272 1.392 . S
C273 C274 1.419 . S
C274 C273 1.419 . S
C274 C275 1.391 . S
C274 C278 1.397 . S
C275 C270 1.391 . S
C275 C274 1.391 . S
C275 C276 1.399 . S
C276 C275 1.399 . S
C276 C277 1.396 . S
C276 C279 1.453 . S
C276 C280 1.684 . S
C277 C267 1.723 . S
C277 C276 1.396 . S
C277 C278 1.394 . S
C278 C248 1.723 . S
C278 C274 1.397 . S
C278 C277 1.394 . S
C279 H251 0.982 . S
C279 H255 0.979 . S
C279 H256 0.977 . S
C279 C276 1.453 . S
C280 H252 0.979 . S
C280 H253 0.980 . S
C280 H254 0.983 . S
C280 C276 1.684 . S
H281 C299 0.948 . S
H282 C240 0.948 . S
H283 C258 0.979 . S
H284 C258 0.980 . S
H285 C258 0.983 . S
H286 C257 0.982 . S
H287 C257 0.979 . S
H288 C257 0.977 . S
H289 C259 0.948 . S
H290 C261 0.947 . S
H291 C262 0.948 . S
H292 C268 0.982 . S
H293 C268 0.979 . S
H294 C268 0.977 . S
H295 C269 0.979 . S
H296 C269 0.980 . S
H297 C269 0.983 . S
H298 C242 0.947 . S
C299 C242 1.392 . S
C299 C243 1.419 . S
C299 H281 0.948 . S
C300 C301 1.391 . S
C300 C304 1.391 . S
C300 H342 0.948 . S
C301 C300 1.391 . S
C301 C302 1.391 . S
C302 C301 1.391 . S
C302 H358 0.947 . S
C302 C359 1.392 . S
C303 C304 1.391 . S
C303 C307 1.397 . S
C303 C359 1.419 . S
C304 C300 1.391 . S
C304 C303 1.391 . S
C304 C305 1.399 . S
C305 C304 1.399 . S
C305 C308 1.396 . S
C305 C317 1.453 . S
C305 C318 1.684 . S
H306 C330 0.948 . S
C307 C303 1.397 . S
C307 C308 1.394 . S
C307 C326 1.723 . S
C308 C305 1.396 . S
C308 C307 1.394 . S
C308 C338 1.723 . S
H309 C332 0.947 . S
H310 C333 0.948 . S
H311 C339 0.982 . S
H312 C340 0.979 . S
H313 C340 0.980 . S
H314 C340 0.983 . S
H315 C339 0.979 . S
H316 C339 0.977 . S
C317 C305 1.453 . S
C317 H346 0.982 . S
C317 H347 0.979 . S
C317 H348 0.977 . S
C318 C305 1.684 . S
C318 H343 0.979 . S
C318 H344 0.980 . S
C318 H345 0.983 . S
C319 C320 1.391 . S
C319 C324 1.391 . S
C319 H349 0.948 . S
C320 C319 1.391 . S
C320 C321 1.391 . S
C321 C320 1.391 . S
C321 C322 1.392 . S
C321 H350 0.947 . S
C322 C321 1.392 . S
C322 C323 1.419 . S
C322 H351 0.948 . S
C323 C322 1.419 . S
C323 C324 1.391 . S
C323 C327 1.397 . S
C324 C319 1.391 . S
C324 C323 1.391 . S
C324 C325 1.399 . S
C325 C324 1.399 . S
C325 C326 1.396 . S
C325 C328 1.453 . S
C325 C329 1.684 . S
C326 C307 1.723 . S
C326 C325 1.396 . S
C326 C327 1.394 . S
C327 C323 1.397 . S
C327 C326 1.394 . S
C327 C337 1.723 . S
C328 C325 1.453 . S
C328 H352 0.982 . S
C328 H353 0.979 . S
C328 H354 0.977 . S
C329 C325 1.684 . S
C329 H355 0.979 . S
C329 H356 0.980 . S
C329 H357 0.983 . S
C330 H306 0.948 . S
C330 C331 1.391 . S
C330 C335 1.391 . S
C331 C330 1.391 . S
C331 C332 1.391 . S
C332 H309 0.947 . S
C332 C331 1.391 . S
C332 C333 1.392 . S
C333 H310 0.948 . S
C333 C332 1.392 . S
C333 C334 1.419 . S
C334 C333 1.419 . S
C334 C335 1.391 . S
C334 C338 1.397 . S
C335 C330 1.391 . S
C335 C334 1.391 . S
C335 C336 1.399 . S
C336 C335 1.399 . S
C336 C337 1.396 . S
C336 C339 1.453 . S
C336 C340 1.684 . S
C337 C327 1.723 . S
C337 C336 1.396 . S
C337 C338 1.394 . S
C338 C308 1.723 . S
C338 C334 1.397 . S
C338 C337 1.394 . S
C339 H311 0.982 . S
C339 H315 0.979 . S
C339 H316 0.977 . S
C339 C336 1.453 . S
C340 H312 0.979 . S
C340 H313 0.980 . S
C340 H314 0.983 . S
C340 C336 1.684 . S
H341 C359 0.948 . S
H342 C300 0.948 . S
H343 C318 0.979 . S
H344 C318 0.980 . S
H345 C318 0.983 . S
H346 C317 0.982 . S
H347 C317 0.979 . S
H348 C317 0.977 . S
H349 C319 0.948 . S
H350 C321 0.947 . S
H351 C322 0.948 . S
H352 C328 0.982 . S
H353 C328 0.979 . S
H354 C328 0.977 . S
H355 C329 0.979 . S
H356 C329 0.980 . S
H357 C329 0.983 . S
H358 C302 0.947 . S
C359 C302 1.392 . S
C359 C303 1.419 . S
C359 H341 0.948 . S
C360 C361 1.391 . S
C360 C364 1.391 . S
C360 H402 0.948 . S
C361 C360 1.391 . S
C361 C362 1.391 . S
C362 C361 1.391 . S
C362 H418 0.947 . S
C362 C419 1.392 . S
C363 C364 1.391 . S
C363 C367 1.397 . S
C363 C419 1.419 . S
C364 C360 1.391 . S
C364 C363 1.391 . S
C364 C365 1.399 . S
C365 C364 1.399 . S
C365 C368 1.396 . S
C365 C377 1.453 . S
C365 C378 1.684 . S
H366 C390 0.948 . S
C367 C363 1.397 . S
C367 C368 1.394 . S
C367 C386 1.723 . S
C368 C365 1.396 . S
C368 C367 1.394 . S
C368 C398 1.723 . S
H369 C392 0.947 . S
H370 C393 0.948 . S
H371 C399 0.982 . S
H372 C400 0.979 . S
H373 C400 0.980 . S
H374 C400 0.983 . S
H375 C399 0.979 . S
H376 C399 0.977 . S
C377 C365 1.453 . S
C377 H406 0.982 . S
C377 H407 0.979 . S
C377 H408 0.977 . S
C378 C365 1.684 . S
C378 H403 0.979 . S
C378 H404 0.980 . S
C378 H405 0.983 . S
C379 C380 1.391 . S
C379 C384 1.391 . S
C379 H409 0.948 . S
C380 C379 1.391 . S
C380 C381 1.391 . S
C381 C380 1.391 . S
C381 C382 1.392 . S
C381 H410 0.947 . S
C382 C381 1.392 . S
C382 C383 1.419 . S
C382 H411 0.948 . S
C383 C382 1.419 . S
C383 C384 1.391 . S
C383 C387 1.397 . S
C384 C379 1.391 . S
C384 C383 1.391 . S
C384 C385 1.399 . S
C385 C384 1.399 . S
C385 C386 1.396 . S
C385 C388 1.453 . S
C385 C389 1.684 . S
C386 C367 1.723 . S
C386 C385 1.396 . S
C386 C387 1.394 . S
C387 C383 1.397 . S
C387 C386 1.394 . S
C387 C397 1.723 . S
C388 C385 1.453 . S
C388 H412 0.982 . S
C388 H413 0.979 . S
C388 H414 0.977 . S
C389 C385 1.684 . S
C389 H415 0.979 . S
C389 H416 0.980 . S
C389 H417 0.983 . S
C390 H366 0.948 . S
C390 C391 1.391 . S
C390 C395 1.391 . S
C391 C390 1.391 . S
C391 C392 1.391 . S
C392 H369 0.947 . S
C392 C391 1.391 . S
C392 C393 1.392 . S
C393 H370 0.948 . S
C393 C392 1.392 . S
C393 C394 1.419 . S
C394 C393 1.419 . S
C394 C395 1.391 . S
C394 C398 1.397 . S
C395 C390 1.391 . S
C395 C394 1.391 . S
C395 C396 1.399 . S
C396 C395 1.399 . S
C396 C397 1.396 . S
C396 C399 1.453 . S
C396 C400 1.684 . S
C397 C387 1.723 . S
C397 C396 1.396 . S
C397 C398 1.394 . S
C398 C368 1.723 . S
C398 C394 1.397 . S
C398 C397 1.394 . S
C399 H371 0.982 . S
C399 H375 0.979 . S
C399 H376 0.977 . S
C399 C396 1.453 . S
C400 H372 0.979 . S
C400 H373 0.980 . S
C400 H374 0.983 . S
C400 C396 1.684 . S
H401 C419 0.948 . S
H402 C360 0.948 . S
H403 C378 0.979 . S
H404 C378 0.980 . S
H405 C378 0.983 . S
H406 C377 0.982 . S
H407 C377 0.979 . S
H408 C377 0.977 . S
H409 C379 0.948 . S
H410 C381 0.947 . S
H411 C382 0.948 . S
H412 C388 0.982 . S
H413 C388 0.979 . S
H414 C388 0.977 . S
H415 C389 0.979 . S
H416 C389 0.980 . S
H417 C389 0.983 . S
H418 C362 0.947 . S
C419 C362 1.392 . S
C419 C363 1.419 . S
C419 H401 0.948 . S
C420 C421 1.391 . S
C420 C424 1.391 . S
C420 H462 0.948 . S
C421 C420 1.391 . S
C421 C422 1.391 . S
C422 C421 1.391 . S
C422 H478 0.947 . S
C422 C479 1.392 . S
C423 C424 1.391 . S
C423 C427 1.397 . S
C423 C479 1.419 . S
C424 C420 1.391 . S
C424 C423 1.391 . S
C424 C425 1.399 . S
C425 C424 1.399 . S
C425 C428 1.396 . S
C425 C437 1.453 . S
C425 C438 1.684 . S
H426 C450 0.948 . S
C427 C423 1.397 . S
C427 C428 1.394 . S
C427 C446 1.723 . S
C428 C425 1.396 . S
C428 C427 1.394 . S
C428 C458 1.723 . S
H429 C452 0.947 . S
H430 C453 0.948 . S
H431 C459 0.982 . S
H432 C460 0.979 . S
H433 C460 0.980 . S
H434 C460 0.983 . S
H435 C459 0.979 . S
H436 C459 0.977 . S
C437 C425 1.453 . S
C437 H466 0.982 . S
C437 H467 0.979 . S
C437 H468 0.977 . S
C438 C425 1.684 . S
C438 H463 0.979 . S
C438 H464 0.980 . S
C438 H465 0.983 . S
C439 C440 1.391 . S
C439 C444 1.391 . S
C439 H469 0.948 . S
C440 C439 1.391 . S
C440 C441 1.391 . S
C441 C440 1.391 . S
C441 C442 1.392 . S
C441 H470 0.947 . S
C442 C441 1.392 . S
C442 C443 1.419 . S
C442 H471 0.948 . S
C443 C442 1.419 . S
C443 C444 1.391 . S
C443 C447 1.397 . S
C444 C439 1.391 . S
C444 C443 1.391 . S
C444 C445 1.399 . S
C445 C444 1.399 . S
C445 C446 1.396 . S
C445 C448 1.453 . S
C445 C449 1.684 . S
C446 C427 1.723 . S
C446 C445 1.396 . S
C446 C447 1.394 . S
C447 C443 1.397 . S
C447 C446 1.394 . S
C447 C457 1.723 . S
C448 C445 1.453 . S
C448 H472 0.982 . S
C448 H473 0.979 . S
C448 H474 0.977 . S
C449 C445 1.684 . S
C449 H475 0.979 . S
C449 H476 0.980 . S
C449 H477 0.983 . S
C450 H426 0.948 . S
C450 C451 1.391 . S
C450 C455 1.391 . S
C451 C450 1.391 . S
C451 C452 1.391 . S
C452 H429 0.947 . S
C452 C451 1.391 . S
C452 C453 1.392 . S
C453 H430 0.948 . S
C453 C452 1.392 . S
C453 C454 1.419 . S
C454 C453 1.419 . S
C454 C455 1.391 . S
C454 C458 1.397 . S
C455 C450 1.391 . S
C455 C454 1.391 . S
C455 C456 1.399 . S
C456 C455 1.399 . S
C456 C457 1.396 . S
C456 C459 1.453 . S
C456 C460 1.684 . S
C457 C447 1.723 . S
C457 C456 1.396 . S
C457 C458 1.394 . S
C458 C428 1.723 . S
C458 C454 1.397 . S
C458 C457 1.394 . S
C459 H431 0.982 . S
C459 H435 0.979 . S
C459 H436 0.977 . S
C459 C456 1.453 . S
C460 H432 0.979 . S
C460 H433 0.980 . S
C460 H434 0.983 . S
C460 C456 1.684 . S
H461 C479 0.948 . S
H462 C420 0.948 . S
H463 C438 0.979 . S
H464 C438 0.980 . S
H465 C438 0.983 . S
H466 C437 0.982 . S
H467 C437 0.979 . S
H468 C437 0.977 . S
H469 C439 0.948 . S
H470 C441 0.947 . S
H471 C442 0.948 . S
H472 C448 0.982 . S
H473 C448 0.979 . S
H474 C448 0.977 . S
H475 C449 0.979 . S
H476 C449 0.980 . S
H477 C449 0.983 . S
H478 C422 0.947 . S
C479 C422 1.392 . S
C479 C423 1.419 . S
C479 H461 0.948 . S
Zn480 O486 1.969 1_545 S
Zn480 O487 1.965 1_545 S
Zn480 O491 2.024 . S
Zn480 O496 1.969 . S
Zn481 O488 1.969 . S
Zn481 O494 1.969 1_565 S
Zn481 O495 1.965 1_565 S
Zn481 O497 2.024 . S
C482 O483 1.229 . S
C482 O491 1.058 . S
O483 C482 1.229 . S
C484 O485 1.229 . S
C484 O497 1.058 . S
O485 C484 1.229 . S
O486 Zn480 1.969 1_565 S
O486 C489 1.267 . S
O487 Zn480 1.965 1_565 S
O487 C498 1.260 1_455 S
O488 Zn481 1.969 . S
O488 C498 1.258 . S
C489 O486 1.267 . S
C489 O490 1.228 . S
O490 C489 1.228 . S
O491 Zn480 2.024 . S
O491 C482 1.058 . S
C492 O493 1.228 . S
C492 O494 1.267 . S
O493 C492 1.228 . S
O494 Zn481 1.969 1_545 S
O494 C492 1.267 . S
O495 Zn481 1.965 1_545 S
O495 C499 1.260 1_655 S
O496 Zn480 1.969 . S
O496 C499 1.258 . S
O497 Zn481 2.024 . S
O497 C484 1.058 . S
C498 O487 1.260 1_655 S
C498 O488 1.258 . S
C499 O495 1.260 1_455 S
C499 O496 1.258 . S
Zn500 O506 1.969 . S
Zn500 O507 1.965 1_565 S
Zn500 O511 2.024 . S
Zn500 O516 1.969 . S
Zn501 O508 1.969 . S
Zn501 O514 1.969 . S
Zn501 O515 1.965 1_545 S
Zn501 O517 2.024 . S
C502 O503 1.229 . S
C502 O511 1.058 . S
O503 C502 1.229 . S
C504 O505 1.229 . S
C504 O517 1.058 . S
O505 C504 1.229 . S
O506 Zn500 1.969 . S
O506 C509 1.267 . S
O507 Zn500 1.965 1_545 S
O507 C518 1.260 . S
O508 Zn501 1.969 . S
O508 C518 1.258 1_554 S
C509 O506 1.267 . S
C509 O510 1.228 . S
O510 C509 1.228 . S
O511 Zn500 2.024 . S
O511 C502 1.058 . S
C512 O513 1.228 . S
C512 O514 1.267 . S
O513 C512 1.228 . S
O514 Zn501 1.969 . S
O514 C512 1.267 . S
O515 Zn501 1.965 1_565 S
O515 C519 1.260 . S
O516 Zn500 1.969 . S
O516 C519 1.258 1_556 S
O517 Zn501 2.024 . S
O517 C504 1.058 . S
C518 O507 1.260 . S
C518 O508 1.258 1_556 S
C519 O515 1.260 . S
C519 O516 1.258 1_554 S
Zn520 O526 1.969 . S
Zn520 O527 1.965 . S
Zn520 O531 2.024 . S
Zn520 O536 1.969 . S
Zn521 O528 1.969 . S
Zn521 O534 1.969 . S
Zn521 O535 1.965 . S
Zn521 O537 2.024 . S
C522 O523 1.229 . S
C522 O531 1.058 . S
O523 C522 1.229 . S
C524 O525 1.229 . S
C524 O537 1.058 . S
O525 C524 1.229 . S
O526 Zn520 1.969 . S
O526 C529 1.267 . S
O527 Zn520 1.965 . S
O527 C538 1.260 . S
O528 Zn521 1.969 . S
O528 C538 1.258 . S
C529 O526 1.267 . S
C529 O530 1.228 . S
O530 C529 1.228 . S
O531 Zn520 2.024 . S
O531 C522 1.058 . S
C532 O533 1.228 . S
C532 O534 1.267 . S
O533 C532 1.228 . S
O534 Zn521 1.969 . S
O534 C532 1.267 . S
O535 Zn521 1.965 . S
O535 C539 1.260 . S
O536 Zn520 1.969 . S
O536 C539 1.258 . S
O537 Zn521 2.024 . S
O537 C524 1.058 . S
C538 O527 1.260 . S
C538 O528 1.258 . S
C539 O535 1.260 . S
C539 O536 1.258 . S
Zn540 O546 1.969 . S
Zn540 O547 1.965 1_556 S
Zn540 O551 2.024 . S
Zn540 O556 1.970 . S
Zn541 O548 1.969 . S
Zn541 O554 1.969 . S
Zn541 O555 1.965 1_554 S
Zn541 O557 2.024 . S
C542 O543 1.229 . S
C542 O551 1.058 . S
O543 C542 1.229 . S
C544 O545 1.229 . S
C544 O557 1.058 . S
O545 C544 1.229 . S
O546 Zn540 1.969 . S
O546 C549 1.267 . S
O547 Zn540 1.965 1_554 S
O547 C558 1.260 . S
O548 Zn541 1.969 . S
O548 C558 1.258 1_455 S
C549 O546 1.267 . S
C549 O550 1.228 . S
O550 C549 1.228 . S
O551 Zn540 2.024 . S
O551 C542 1.058 . S
C552 O553 1.228 . S
C552 O554 1.267 . S
O553 C552 1.228 . S
O554 Zn541 1.969 . S
O554 C552 1.267 . S
O555 Zn541 1.965 1_556 S
O555 C559 1.260 . S
O556 Zn540 1.970 . S
O556 C559 1.257 1_655 S
O557 Zn541 2.024 . S
O557 C544 1.058 . S
C558 O547 1.260 . S
C558 O548 1.258 1_655 S
C559 O555 1.260 . S
C559 O556 1.257 1_455 S
H560 C566 0.930 . S
H561 C569 0.930 . S
H562 C570 0.930 . S
H563 C571 0.930 . S
H564 C574 0.930 . S
H565 C575 0.930 . S
C566 H560 0.930 . S
C566 C567 1.355 . S
C566 C568 1.415 . S
C567 C566 1.355 . S
C567 C569 1.419 . S
C568 C566 1.415 . S
C568 C573 1.425 . S
C568 C575 1.409 . S
C569 H561 0.930 . S
C569 C567 1.419 . S
C569 C570 1.362 . S
C570 H562 0.930 . S
C570 C569 1.362 . S
C570 C573 1.409 . S
C571 H563 0.930 . S
C571 C572 1.355 . S
C571 C573 1.415 . S
C572 C571 1.355 . S
C572 C574 1.419 . S
C573 C568 1.425 . S
C573 C570 1.409 . S
C573 C571 1.415 . S
C574 H564 0.930 . S
C574 C572 1.419 . S
C574 C575 1.362 . S
C575 H565 0.930 . S
C575 C568 1.409 . S
C575 C574 1.362 . S
H576 C582 0.930 . S
H577 C585 0.930 . S
H578 C586 0.930 . S
H579 C587 0.930 . S
H580 C590 0.930 . S
H581 C591 0.930 . S
C582 H576 0.930 . S
C582 C583 1.355 . S
C582 C584 1.415 . S
C583 C582 1.355 . S
C583 C585 1.419 . S
C584 C582 1.415 . S
C584 C589 1.425 . S
C584 C591 1.409 . S
C585 H577 0.930 . S
C585 C583 1.419 . S
C585 C586 1.362 . S
C586 H578 0.930 . S
C586 C585 1.362 . S
C586 C589 1.409 . S
C587 H579 0.930 . S
C587 C588 1.355 . S
C587 C589 1.415 . S
C588 C587 1.355 . S
C588 C590 1.419 . S
C589 C584 1.425 . S
C589 C586 1.409 . S
C589 C587 1.415 . S
C590 H580 0.930 . S
C590 C588 1.419 . S
C590 C591 1.362 . S
C591 H581 0.930 . S
C591 C584 1.409 . S
C591 C590 1.362 . S
H592 C598 0.930 . S
H593 C601 0.930 . S
H594 C602 0.930 . S
H595 C603 0.930 . S
H596 C606 0.930 . S
H597 C607 0.930 . S
C598 H592 0.930 . S
C598 C599 1.355 . S
C598 C600 1.415 . S
C599 C598 1.355 . S
C599 C601 1.419 . S
C600 C598 1.415 . S
C600 C605 1.425 . S
C600 C607 1.409 . S
C601 H593 0.930 . S
C601 C599 1.419 . S
C601 C602 1.362 . S
C602 H594 0.930 . S
C602 C601 1.362 . S
C602 C605 1.409 . S
C603 H595 0.930 . S
C603 C604 1.355 . S
C603 C605 1.415 . S
C604 C603 1.355 . S
C604 C606 1.419 . S
C605 C600 1.425 . S
C605 C602 1.409 . S
C605 C603 1.415 . S
C606 H596 0.930 . S
C606 C604 1.419 . S
C606 C607 1.362 . S
C607 H597 0.930 . S
C607 C600 1.409 . S
C607 C606 1.362 . S
H608 C614 0.930 . S
H609 C617 0.930 . S
H610 C618 0.930 . S
H611 C619 0.930 . S
H612 C622 0.930 . S
H613 C623 0.930 . S
C614 H608 0.930 . S
C614 C615 1.355 . S
C614 C616 1.415 . S
C615 C614 1.355 . S
C615 C617 1.419 . S
C616 C614 1.415 . S
C616 C621 1.425 . S
C616 C623 1.409 . S
C617 H609 0.930 . S
C617 C615 1.419 . S
C617 C618 1.362 . S
C618 H610 0.930 . S
C618 C617 1.362 . S
C618 C621 1.409 . S
C619 H611 0.930 . S
C619 C620 1.355 . S
C619 C621 1.415 . S
C620 C619 1.355 . S
C620 C622 1.419 . S
C621 C616 1.425 . S
C621 C618 1.409 . S
C621 C619 1.415 . S
C622 H612 0.930 . S
C622 C620 1.419 . S
C622 C623 1.362 . S
C623 H613 0.930 . S
C623 C616 1.409 . S
C623 C622 1.362 . S
H624 C630 0.930 . S
H625 C633 0.930 . S
H626 C634 0.930 . S
H627 C635 0.930 . S
H628 C638 0.930 . S
H629 C639 0.930 . S
C630 H624 0.930 . S
C630 C631 1.355 . S
C630 C632 1.415 . S
C631 C630 1.355 . S
C631 C633 1.419 . S
C632 C630 1.415 . S
C632 C637 1.425 . S
C632 C639 1.409 . S
C633 H625 0.930 . S
C633 C631 1.419 . S
C633 C634 1.362 . S
C634 H626 0.930 . S
C634 C633 1.362 . S
C634 C637 1.409 . S
C635 H627 0.930 . S
C635 C636 1.355 . S
C635 C637 1.415 . S
C636 C635 1.355 . S
C636 C638 1.419 . S
C637 C632 1.425 . S
C637 C634 1.409 . S
C637 C635 1.415 . S
C638 H628 0.930 . S
C638 C636 1.419 . S
C638 C639 1.362 . S
C639 H629 0.930 . S
C639 C632 1.409 . S
C639 C638 1.362 . S
H640 C646 0.930 . S
H641 C649 0.930 . S
H642 C650 0.930 . S
H643 C651 0.930 . S
H644 C654 0.930 . S
H645 C655 0.930 . S
C646 H640 0.930 . S
C646 C647 1.355 . S
C646 C648 1.415 . S
C647 C646 1.355 . S
C647 C649 1.419 . S
C648 C646 1.415 . S
C648 C653 1.425 . S
C648 C655 1.409 . S
C649 H641 0.930 . S
C649 C647 1.419 . S
C649 C650 1.362 . S
C650 H642 0.930 . S
C650 C649 1.362 . S
C650 C653 1.409 . S
C651 H643 0.930 . S
C651 C652 1.355 . S
C651 C653 1.415 . S
C652 C651 1.355 . S
C652 C654 1.419 . S
C653 C648 1.425 . S
C653 C650 1.409 . S
C653 C651 1.415 . S
C654 H644 0.930 . S
C654 C652 1.419 . S
C654 C655 1.362 . S
C655 H645 0.930 . S
C655 C648 1.409 . S
C655 C654 1.362 . S
H656 C662 0.930 . S
H657 C665 0.930 . S
H658 C666 0.930 . S
H659 C667 0.930 . S
H660 C670 0.930 . S
H661 C671 0.930 . S
C662 H656 0.930 . S
C662 C663 1.355 . S
C662 C664 1.415 . S
C663 C662 1.355 . S
C663 C665 1.419 . S
C664 C662 1.415 . S
C664 C669 1.425 . S
C664 C671 1.409 . S
C665 H657 0.930 . S
C665 C663 1.419 . S
C665 C666 1.362 . S
C666 H658 0.930 . S
C666 C665 1.362 . S
C666 C669 1.409 . S
C667 H659 0.930 . S
C667 C668 1.355 . S
C667 C669 1.415 . S
C668 C667 1.355 . S
C668 C670 1.419 . S
C669 C664 1.425 . S
C669 C666 1.409 . S
C669 C667 1.415 . S
C670 H660 0.930 . S
C670 C668 1.419 . S
C670 C671 1.362 . S
C671 H661 0.930 . S
C671 C664 1.409 . S
C671 C670 1.362 . S
H672 C678 0.930 . S
H673 C681 0.930 . S
H674 C682 0.930 . S
H675 C683 0.930 . S
H676 C686 0.930 . S
H677 C687 0.930 . S
C678 H672 0.930 . S
C678 C679 1.355 . S
C678 C680 1.415 . S
C679 C678 1.355 . S
C679 C681 1.419 . S
C680 C678 1.415 . S
C680 C685 1.425 . S
C680 C687 1.409 . S
C681 H673 0.930 . S
C681 C679 1.419 . S
C681 C682 1.362 . S
C682 H674 0.930 . S
C682 C681 1.362 . S
C682 C685 1.409 . S
C683 H675 0.930 . S
C683 C684 1.355 . S
C683 C685 1.415 . S
C684 C683 1.355 . S
C684 C686 1.419 . S
C685 C680 1.425 . S
C685 C682 1.409 . S
C685 C683 1.415 . S
C686 H676 0.930 . S
C686 C684 1.419 . S
C686 C687 1.362 . S
C687 H677 0.930 . S
C687 C680 1.409 . S
C687 C686 1.362 . S
H688 C694 0.930 . S
H689 C697 0.930 . S
H690 C698 0.930 . S
H691 C699 0.930 . S
H692 C702 0.930 . S
H693 C703 0.930 . S
C694 H688 0.930 . S
C694 C695 1.355 . S
C694 C696 1.415 . S
C695 C694 1.355 . S
C695 C697 1.419 . S
C696 C694 1.415 . S
C696 C701 1.425 . S
C696 C703 1.409 . S
C697 H689 0.930 . S
C697 C695 1.419 . S
C697 C698 1.362 . S
C698 H690 0.930 . S
C698 C697 1.362 . S
C698 C701 1.409 . S
C699 H691 0.930 . S
C699 C700 1.355 . S
C699 C701 1.415 . S
C700 C699 1.355 . S
C700 C702 1.419 . S
C701 C696 1.425 . S
C701 C698 1.409 . S
C701 C699 1.415 . S
C702 H692 0.930 . S
C702 C700 1.419 . S
C702 C703 1.362 . S
C703 H693 0.930 . S
C703 C696 1.409 . S
C703 C702 1.362 . S
H704 C710 0.930 . S
H705 C713 0.930 . S
H706 C714 0.930 . S
H707 C715 0.930 . S
H708 C718 0.930 . S
H709 C719 0.930 . S
C710 H704 0.930 . S
C710 C711 1.355 . S
C710 C712 1.415 . S
C711 C710 1.355 . S
C711 C713 1.419 . S
C712 C710 1.415 . S
C712 C717 1.425 . S
C712 C719 1.409 . S
C713 H705 0.930 . S
C713 C711 1.419 . S
C713 C714 1.362 . S
C714 H706 0.930 . S
C714 C713 1.362 . S
C714 C717 1.409 . S
C715 H707 0.930 . S
C715 C716 1.355 . S
C715 C717 1.415 . S
C716 C715 1.355 . S
C716 C718 1.419 . S
C717 C712 1.425 . S
C717 C714 1.409 . S
C717 C715 1.415 . S
C718 H708 0.930 . S
C718 C716 1.419 . S
C718 C719 1.362 . S
C719 H709 0.930 . S
C719 C712 1.409 . S
C719 C718 1.362 . S
H720 C726 0.930 . S
H721 C729 0.930 . S
H722 C730 0.930 . S
H723 C731 0.930 . S
H724 C734 0.930 . S
H725 C735 0.930 . S
C726 H720 0.930 . S
C726 C727 1.355 . S
C726 C728 1.415 . S
C727 C726 1.355 . S
C727 C729 1.419 . S
C728 C726 1.415 . S
C728 C733 1.425 . S
C728 C735 1.409 . S
C729 H721 0.930 . S
C729 C727 1.419 . S
C729 C730 1.362 . S
C730 H722 0.930 . S
C730 C729 1.362 . S
C730 C733 1.409 . S
C731 H723 0.930 . S
C731 C732 1.355 . S
C731 C733 1.415 . S
C732 C731 1.355 . S
C732 C734 1.419 . S
C733 C728 1.425 . S
C733 C730 1.409 . S
C733 C731 1.415 . S
C734 H724 0.930 . S
C734 C732 1.419 . S
C734 C735 1.362 . S
C735 H725 0.930 . S
C735 C728 1.409 . S
C735 C734 1.362 . S
H736 C742 0.930 . S
H737 C745 0.930 . S
H738 C746 0.930 . S
H739 C747 0.930 . S
H740 C750 0.930 . S
H741 C751 0.930 . S
C742 H736 0.930 . S
C742 C743 1.355 . S
C742 C744 1.415 . S
C743 C742 1.355 . S
C743 C745 1.419 . S
C744 C742 1.415 . S
C744 C749 1.425 . S
C744 C751 1.409 . S
C745 H737 0.930 . S
C745 C743 1.419 . S
C745 C746 1.362 . S
C746 H738 0.930 . S
C746 C745 1.362 . S
C746 C749 1.409 . S
C747 H739 0.930 . S
C747 C748 1.355 . S
C747 C749 1.415 . S
C748 C747 1.355 . S
C748 C750 1.419 . S
C749 C744 1.425 . S
C749 C746 1.409 . S
C749 C747 1.415 . S
C750 H740 0.930 . S
C750 C748 1.419 . S
C750 C751 1.362 . S
C751 H741 0.930 . S
C751 C744 1.409 . S
C751 C750 1.362 . S
H752 C758 0.930 . S
H753 C761 0.930 . S
H754 C762 0.930 . S
H755 C763 0.930 . S
H756 C766 0.930 . S
H757 C767 0.930 . S
C758 H752 0.930 . S
C758 C759 1.355 . S
C758 C760 1.415 . S
C759 C758 1.355 . S
C759 C761 1.419 . S
C760 C758 1.415 . S
C760 C765 1.425 . S
C760 C767 1.409 . S
C761 H753 0.930 . S
C761 C759 1.419 . S
C761 C762 1.362 . S
C762 H754 0.930 . S
C762 C761 1.362 . S
C762 C765 1.409 . S
C763 H755 0.930 . S
C763 C764 1.355 . S
C763 C765 1.415 . S
C764 C763 1.355 . S
C764 C766 1.419 . S
C765 C760 1.425 . S
C765 C762 1.409 . S
C765 C763 1.415 . S
C766 H756 0.930 . S
C766 C764 1.419 . S
C766 C767 1.362 . S
C767 H757 0.930 . S
C767 C760 1.409 . S
C767 C766 1.362 . S
H768 C774 0.930 . S
H769 C777 0.930 . S
H770 C778 0.930 . S
H771 C779 0.930 . S
H772 C782 0.930 . S
H773 C783 0.930 . S
C774 H768 0.930 . S
C774 C775 1.355 . S
C774 C776 1.415 . S
C775 C774 1.355 . S
C775 C777 1.419 . S
C776 C774 1.415 . S
C776 C781 1.425 . S
C776 C783 1.409 . S
C777 H769 0.930 . S
C777 C775 1.419 . S
C777 C778 1.362 . S
C778 H770 0.930 . S
C778 C777 1.362 . S
C778 C781 1.409 . S
C779 H771 0.930 . S
C779 C780 1.355 . S
C779 C781 1.415 . S
C780 C779 1.355 . S
C780 C782 1.419 . S
C781 C776 1.425 . S
C781 C778 1.409 . S
C781 C779 1.415 . S
C782 H772 0.930 . S
C782 C780 1.419 . S
C782 C783 1.362 . S
C783 H773 0.930 . S
C783 C776 1.409 . S
C783 C782 1.362 . S
H784 C790 0.930 . S
H785 C793 0.930 . S
H786 C794 0.930 . S
H787 C795 0.930 . S
H788 C798 0.930 . S
H789 C799 0.930 . S
C790 H784 0.930 . S
C790 C791 1.355 . S
C790 C792 1.415 . S
C791 C790 1.355 . S
C791 C793 1.419 . S
C792 C790 1.415 . S
C792 C797 1.425 . S
C792 C799 1.409 . S
C793 H785 0.930 . S
C793 C791 1.419 . S
C793 C794 1.362 . S
C794 H786 0.930 . S
C794 C793 1.362 . S
C794 C797 1.409 . S
C795 H787 0.930 . S
C795 C796 1.355 . S
C795 C797 1.415 . S
C796 C795 1.355 . S
C796 C798 1.419 . S
C797 C792 1.425 . S
C797 C794 1.409 . S
C797 C795 1.415 . S
C798 H788 0.930 . S
C798 C796 1.419 . S
C798 C799 1.362 . S
C799 H789 0.930 . S
C799 C792 1.409 . S
C799 C798 1.362 . S
H800 C806 0.930 . S
H801 C809 0.930 . S
H802 C810 0.930 . S
H803 C811 0.930 . S
H804 C814 0.930 . S
H805 C815 0.930 . S
C806 H800 0.930 . S
C806 C807 1.355 . S
C806 C808 1.415 . S
C807 C806 1.355 . S
C807 C809 1.419 . S
C808 C806 1.415 . S
C808 C813 1.425 . S
C808 C815 1.409 . S
C809 H801 0.930 . S
C809 C807 1.419 . S
C809 C810 1.362 . S
C810 H802 0.930 . S
C810 C809 1.362 . S
C810 C813 1.409 . S
C811 H803 0.930 . S
C811 C812 1.355 . S
C811 C813 1.415 . S
C812 C811 1.355 . S
C812 C814 1.419 . S
C813 C808 1.425 . S
C813 C810 1.409 . S
C813 C811 1.415 . S
C814 H804 0.930 . S
C814 C812 1.419 . S
C814 C815 1.362 . S
C815 H805 0.930 . S
C815 C808 1.409 . S
C815 C814 1.362 . S
H816 C822 0.930 . S
H817 C825 0.930 . S
H818 C826 0.930 . S
H819 C827 0.930 . S
H820 C830 0.930 . S
H821 C831 0.930 . S
C822 H816 0.930 . S
C822 C823 1.355 . S
C822 C824 1.415 . S
C823 C822 1.355 . S
C823 C825 1.419 . S
C824 C822 1.415 . S
C824 C829 1.425 . S
C824 C831 1.409 . S
C825 H817 0.930 . S
C825 C823 1.419 . S
C825 C826 1.362 . S
C826 H818 0.930 . S
C826 C825 1.362 . S
C826 C829 1.409 . S
C827 H819 0.930 . S
C827 C828 1.355 . S
C827 C829 1.415 . S
C828 C827 1.355 . S
C828 C830 1.419 . S
C829 C824 1.425 . S
C829 C826 1.409 . S
C829 C827 1.415 . S
C830 H820 0.930 . S
C830 C828 1.419 . S
C830 C831 1.362 . S
C831 H821 0.930 . S
C831 C824 1.409 . S
C831 C830 1.362 . S
H832 C838 0.930 . S
H833 C841 0.930 . S
H834 C842 0.930 . S
H835 C843 0.930 . S
H836 C846 0.930 . S
H837 C847 0.930 . S
C838 H832 0.930 . S
C838 C839 1.355 . S
C838 C840 1.415 . S
C839 C838 1.355 . S
C839 C841 1.419 . S
C840 C838 1.415 . S
C840 C845 1.425 . S
C840 C847 1.409 . S
C841 H833 0.930 . S
C841 C839 1.419 . S
C841 C842 1.362 . S
C842 H834 0.930 . S
C842 C841 1.362 . S
C842 C845 1.409 . S
C843 H835 0.930 . S
C843 C844 1.355 . S
C843 C845 1.415 . S
C844 C843 1.355 . S
C844 C846 1.419 . S
C845 C840 1.425 . S
C845 C842 1.409 . S
C845 C843 1.415 . S
C846 H836 0.930 . S
C846 C844 1.419 . S
C846 C847 1.362 . S
C847 H837 0.930 . S
C847 C840 1.409 . S
C847 C846 1.362 . S
H848 C854 0.930 . S
H849 C857 0.930 . S
H850 C858 0.930 . S
H851 C859 0.930 . S
H852 C862 0.930 . S
H853 C863 0.930 . S
C854 H848 0.930 . S
C854 C855 1.355 . S
C854 C856 1.415 . S
C855 C854 1.355 . S
C855 C857 1.419 . S
C856 C854 1.415 . S
C856 C861 1.425 . S
C856 C863 1.409 . S
C857 H849 0.930 . S
C857 C855 1.419 . S
C857 C858 1.362 . S
C858 H850 0.930 . S
C858 C857 1.362 . S
C858 C861 1.409 . S
C859 H851 0.930 . S
C859 C860 1.355 . S
C859 C861 1.415 . S
C860 C859 1.355 . S
C860 C862 1.419 . S
C861 C856 1.425 . S
C861 C858 1.409 . S
C861 C859 1.415 . S
C862 H852 0.930 . S
C862 C860 1.419 . S
C862 C863 1.362 . S
C863 H853 0.930 . S
C863 C856 1.409 . S
C863 C862 1.362 . S
H864 C870 0.930 . S
H865 C873 0.930 . S
H866 C874 0.930 . S
H867 C875 0.930 . S
H868 C878 0.930 . S
H869 C879 0.930 . S
C870 H864 0.930 . S
C870 C871 1.355 . S
C870 C872 1.415 . S
C871 C870 1.355 . S
C871 C873 1.419 . S
C872 C870 1.415 . S
C872 C877 1.425 . S
C872 C879 1.409 . S
C873 H865 0.930 . S
C873 C871 1.419 . S
C873 C874 1.362 . S
C874 H866 0.930 . S
C874 C873 1.362 . S
C874 C877 1.409 . S
C875 H867 0.930 . S
C875 C876 1.355 . S
C875 C877 1.415 . S
C876 C875 1.355 . S
C876 C878 1.419 . S
C877 C872 1.425 . S
C877 C874 1.409 . S
C877 C875 1.415 . S
C878 H868 0.930 . S
C878 C876 1.419 . S
C878 C879 1.362 . S
C879 H869 0.930 . S
C879 C872 1.409 . S
C879 C878 1.362 . S
H880 C886 0.930 . S
H881 C889 0.930 . S
H882 C890 0.930 . S
H883 C891 0.930 . S
H884 C894 0.930 . S
H885 C895 0.930 . S
C886 H880 0.930 . S
C886 C887 1.355 . S
C886 C888 1.415 . S
C887 C886 1.355 . S
C887 C889 1.419 . S
C888 C886 1.415 . S
C888 C893 1.425 . S
C888 C895 1.409 . S
C889 H881 0.930 . S
C889 C887 1.419 . S
C889 C890 1.362 . S
C890 H882 0.930 . S
C890 C889 1.362 . S
C890 C893 1.409 . S
C891 H883 0.930 . S
C891 C892 1.355 . S
C891 C893 1.415 . S
C892 C891 1.355 . S
C892 C894 1.419 . S
C893 C888 1.425 . S
C893 C890 1.409 . S
C893 C891 1.415 . S
C894 H884 0.930 . S
C894 C892 1.419 . S
C894 C895 1.362 . S
C895 H885 0.930 . S
C895 C888 1.409 . S
C895 C894 1.362 . S
H896 C902 0.930 . S
H897 C905 0.930 . S
H898 C906 0.930 . S
H899 C907 0.930 . S
H900 C910 0.930 . S
H901 C911 0.930 . S
C902 H896 0.930 . S
C902 C903 1.355 . S
C902 C904 1.415 . S
C903 C902 1.355 . S
C903 C905 1.419 . S
C904 C902 1.415 . S
C904 C909 1.425 . S
C904 C911 1.409 . S
C905 H897 0.930 . S
C905 C903 1.419 . S
C905 C906 1.362 . S
C906 H898 0.930 . S
C906 C905 1.362 . S
C906 C909 1.409 . S
C907 H899 0.930 . S
C907 C908 1.355 . S
C907 C909 1.415 . S
C908 C907 1.355 . S
C908 C910 1.419 . S
C909 C904 1.425 . S
C909 C906 1.409 . S
C909 C907 1.415 . S
C910 H900 0.930 . S
C910 C908 1.419 . S
C910 C911 1.362 . S
C911 H901 0.930 . S
C911 C904 1.409 . S
C911 C910 1.362 . S
H912 C918 0.930 . S
H913 C921 0.930 . S
H914 C922 0.930 . S
H915 C923 0.930 . S
H916 C926 0.930 . S
H917 C927 0.930 . S
C918 H912 0.930 . S
C918 C919 1.355 . S
C918 C920 1.415 . S
C919 C918 1.355 . S
C919 C921 1.419 . S
C920 C918 1.415 . S
C920 C925 1.425 . S
C920 C927 1.409 . S
C921 H913 0.930 . S
C921 C919 1.419 . S
C921 C922 1.362 . S
C922 H914 0.930 . S
C922 C921 1.362 . S
C922 C925 1.409 . S
C923 H915 0.930 . S
C923 C924 1.355 . S
C923 C925 1.415 . S
C924 C923 1.355 . S
C924 C926 1.419 . S
C925 C920 1.425 . S
C925 C922 1.409 . S
C925 C923 1.415 . S
C926 H916 0.930 . S
C926 C924 1.419 . S
C926 C927 1.362 . S
C927 H917 0.930 . S
C927 C920 1.409 . S
C927 C926 1.362 . S
H928 C934 0.930 . S
H929 C937 0.930 . S
H930 C938 0.930 . S
H931 C939 0.930 . S
H932 C942 0.930 . S
H933 C943 0.930 . S
C934 H928 0.930 . S
C934 C935 1.355 . S
C934 C936 1.415 . S
C935 C934 1.355 . S
C935 C937 1.419 . S
C936 C934 1.415 . S
C936 C941 1.425 . S
C936 C943 1.409 . S
C937 H929 0.930 . S
C937 C935 1.419 . S
C937 C938 1.362 . S
C938 H930 0.930 . S
C938 C937 1.362 . S
C938 C941 1.409 . S
C939 H931 0.930 . S
C939 C940 1.355 . S
C939 C941 1.415 . S
C940 C939 1.355 . S
C940 C942 1.419 . S
C941 C936 1.425 . S
C941 C938 1.409 . S
C941 C939 1.415 . S
C942 H932 0.930 . S
C942 C940 1.419 . S
C942 C943 1.362 . S
C943 H933 0.930 . S
C943 C936 1.409 . S
C943 C942 1.362 . S
C567 C1 1.416 . S
C572 C499 1.441 . S
C583 C80 1.297 . S
C588 C502 1.206 . S
C604 C538 1.783 . S
C599 C140 1.792 . S
C615 C211 1.668 . S
C620 C558 1.667 . S
C636 C512 1.684 . S
C631 C31 1.667 . S
C652 C489 1.483 . S
C647 C61 1.498 . S
C668 C542 1.530 . S
C663 C151 1.617 . S
C684 C522 1.447 . S
C679 C200 1.513 . S
C695 C20 1.340 . S
C700 C552 1.358 . S
C716 C518 1.613 . S
C711 C121 1.625 . S
C727 C181 1.584 . S
C732 C484 1.593 . S
C743 C91 1.338 . S
C748 C532 1.267 . S
C764 C498 1.470 . S
C759 C260 1.490 . S
C775 C320 1.232 . S
C780 C504 1.287 . S
C791 C361 1.784 . S
C796 C539 1.755 . S
C807 C451 1.681 . S
C812 C559 1.648 . S
C823 C271 1.652 . S
C828 C509 1.664 . S
C844 C492 1.509 . S
C839 C301 1.463 . S
C860 C544 1.534 . S
C855 C380 1.620 . S
C876 C524 1.451 . S
C871 C440 1.509 . S
C887 C241 1.280 . S
C892 C549 1.268 . S
C908 C519 1.622 . S
C903 C391 1.603 . S
C924 C482 1.559 . S
C919 C421 1.627 . S
C935 C331 1.310 . S
C940 C529 1.315 . S
