# Generated by pormake.
# Topology ctn, (3,4)-cn, num edge types: 1
# Building blocks:
#     Node 0, Type 0, BuildingBlock: BELTOD_clean_linker_0, # of connection points: 3
#     Node 1, Type 0, BuildingBlock: BELTOD_clean_linker_0, # of connection points: 3
#     Node 2, Type 0, BuildingBlock: BELTOD_clean_linker_0, # of connection points: 3
#     Node 3, Type 0, BuildingBlock: BELTOD_clean_linker_0, # of connection points: 3
#     Node 4, Type 0, BuildingBlock: BELTOD_clean_linker_0, # of connection points: 3
#     Node 5, Type 0, BuildingBlock: BELTOD_clean_linker_0, # of connection points: 3
#     Node 6, Type 0, BuildingBlock: BELTOD_clean_linker_0, # of connection points: 3
#     Node 7, Type 0, BuildingBlock: BELTOD_clean_linker_0, # of connection points: 3
#     Node 8, Type 0, BuildingBlock: BELTOD_clean_linker_0, # of connection points: 3
#     Node 9, Type 0, BuildingBlock: BELTOD_clean_linker_0, # of connection points: 3
#     Node 10, Type 0, BuildingBlock: BELTOD_clean_linker_0, # of connection points: 3
#     Node 11, Type 0, BuildingBlock: BELTOD_clean_linker_0, # of connection points: 3
#     Node 12, Type 0, BuildingBlock: BELTOD_clean_linker_0, # of connection points: 3
#     Node 13, Type 0, BuildingBlock: BELTOD_clean_linker_0, # of connection points: 3
#     Node 14, Type 0, BuildingBlock: BELTOD_clean_linker_0, # of connection points: 3
#     Node 15, Type 0, BuildingBlock: BELTOD_clean_linker_0, # of connection points: 3
#     Node 16, Type 1, BuildingBlock: UXUYUI_clean_sbu_0, # of connection points: 4
#     Node 17, Type 1, BuildingBlock: UXUYUI_clean_sbu_0, # of connection points: 4
#     Node 18, Type 1, BuildingBlock: UXUYUI_clean_sbu_0, # of connection points: 4
#     Node 19, Type 1, BuildingBlock: UXUYUI_clean_sbu_0, # of connection points: 4
#     Node 20, Type 1, BuildingBlock: UXUYUI_clean_sbu_0, # of connection points: 4
#     Node 21, Type 1, BuildingBlock: UXUYUI_clean_sbu_0, # of connection points: 4
#     Node 22, Type 1, BuildingBlock: UXUYUI_clean_sbu_0, # of connection points: 4
#     Node 23, Type 1, BuildingBlock: UXUYUI_clean_sbu_0, # of connection points: 4
#     Node 24, Type 1, BuildingBlock: UXUYUI_clean_sbu_0, # of connection points: 4
#     Node 25, Type 1, BuildingBlock: UXUYUI_clean_sbu_0, # of connection points: 4
#     Node 26, Type 1, BuildingBlock: UXUYUI_clean_sbu_0, # of connection points: 4
#     Node 27, Type 1, BuildingBlock: UXUYUI_clean_sbu_0, # of connection points: 4
#     Edge 28, Type (0, 1), BuildingBlock: OJICUG_clean_linker_0, # of connection points: 2
#     Edge 29, Type (0, 1), BuildingBlock: OJICUG_clean_linker_0, # of connection points: 2
#     Edge 30, Type (0, 1), BuildingBlock: OJICUG_clean_linker_0, # of connection points: 2
#     Edge 31, Type (0, 1), BuildingBlock: OJICUG_clean_linker_0, # of connection points: 2
#     Edge 32, Type (0, 1), BuildingBlock: OJICUG_clean_linker_0, # of connection points: 2
#     Edge 33, Type (0, 1), BuildingBlock: OJICUG_clean_linker_0, # of connection points: 2
#     Edge 34, Type (0, 1), BuildingBlock: OJICUG_clean_linker_0, # of connection points: 2
#     Edge 35, Type (0, 1), BuildingBlock: OJICUG_clean_linker_0, # of connection points: 2
#     Edge 36, Type (0, 1), BuildingBlock: OJICUG_clean_linker_0, # of connection points: 2
#     Edge 37, Type (0, 1), BuildingBlock: OJICUG_clean_linker_0, # of connection points: 2
#     Edge 38, Type (0, 1), BuildingBlock: OJICUG_clean_linker_0, # of connection points: 2
#     Edge 39, Type (0, 1), BuildingBlock: OJICUG_clean_linker_0, # of connection points: 2
#     Edge 40, Type (0, 1), BuildingBlock: OJICUG_clean_linker_0, # of connection points: 2
#     Edge 41, Type (0, 1), BuildingBlock: OJICUG_clean_linker_0, # of connection points: 2
#     Edge 42, Type (0, 1), BuildingBlock: OJICUG_clean_linker_0, # of connection points: 2
#     Edge 43, Type (0, 1), BuildingBlock: OJICUG_clean_linker_0, # of connection points: 2
#     Edge 44, Type (0, 1), BuildingBlock: OJICUG_clean_linker_0, # of connection points: 2
#     Edge 45, Type (0, 1), BuildingBlock: OJICUG_clean_linker_0, # of connection points: 2
#     Edge 46, Type (0, 1), BuildingBlock: OJICUG_clean_linker_0, # of connection points: 2
#     Edge 47, Type (0, 1), BuildingBlock: OJICUG_clean_linker_0, # of connection points: 2
#     Edge 48, Type (0, 1), BuildingBlock: OJICUG_clean_linker_0, # of connection points: 2
#     Edge 49, Type (0, 1), BuildingBlock: OJICUG_clean_linker_0, # of connection points: 2
#     Edge 50, Type (0, 1), BuildingBlock: OJICUG_clean_linker_0, # of connection points: 2
#     Edge 51, Type (0, 1), BuildingBlock: OJICUG_clean_linker_0, # of connection points: 2
#     Edge 52, Type (0, 1), BuildingBlock: OJICUG_clean_linker_0, # of connection points: 2
#     Edge 53, Type (0, 1), BuildingBlock: OJICUG_clean_linker_0, # of connection points: 2
#     Edge 54, Type (0, 1), BuildingBlock: OJICUG_clean_linker_0, # of connection points: 2
#     Edge 55, Type (0, 1), BuildingBlock: OJICUG_clean_linker_0, # of connection points: 2
#     Edge 56, Type (0, 1), BuildingBlock: OJICUG_clean_linker_0, # of connection points: 2
#     Edge 57, Type (0, 1), BuildingBlock: OJICUG_clean_linker_0, # of connection points: 2
#     Edge 58, Type (0, 1), BuildingBlock: OJICUG_clean_linker_0, # of connection points: 2
#     Edge 59, Type (0, 1), BuildingBlock: OJICUG_clean_linker_0, # of connection points: 2
#     Edge 60, Type (0, 1), BuildingBlock: OJICUG_clean_linker_0, # of connection points: 2
#     Edge 61, Type (0, 1), BuildingBlock: OJICUG_clean_linker_0, # of connection points: 2
#     Edge 62, Type (0, 1), BuildingBlock: OJICUG_clean_linker_0, # of connection points: 2
#     Edge 63, Type (0, 1), BuildingBlock: OJICUG_clean_linker_0, # of connection points: 2
#     Edge 64, Type (0, 1), BuildingBlock: OJICUG_clean_linker_0, # of connection points: 2
#     Edge 65, Type (0, 1), BuildingBlock: OJICUG_clean_linker_0, # of connection points: 2
#     Edge 66, Type (0, 1), BuildingBlock: OJICUG_clean_linker_0, # of connection points: 2
#     Edge 67, Type (0, 1), BuildingBlock: OJICUG_clean_linker_0, # of connection points: 2
#     Edge 68, Type (0, 1), BuildingBlock: OJICUG_clean_linker_0, # of connection points: 2
#     Edge 69, Type (0, 1), BuildingBlock: OJICUG_clean_linker_0, # of connection points: 2
#     Edge 70, Type (0, 1), BuildingBlock: OJICUG_clean_linker_0, # of connection points: 2
#     Edge 71, Type (0, 1), BuildingBlock: OJICUG_clean_linker_0, # of connection points: 2
#     Edge 72, Type (0, 1), BuildingBlock: OJICUG_clean_linker_0, # of connection points: 2
#     Edge 73, Type (0, 1), BuildingBlock: OJICUG_clean_linker_0, # of connection points: 2
#     Edge 74, Type (0, 1), BuildingBlock: OJICUG_clean_linker_0, # of connection points: 2
#     Edge 75, Type (0, 1), BuildingBlock: OJICUG_clean_linker_0, # of connection points: 2
# Relax obj value: 0.001
# Max RMSD: 0.017
# Mean RMSD: 0.012
data_MOF--net-ctn--node1-UXUYUI_clean_sbu_0--node2-BELTOD_clean_linker_0--edge1-OJICUG_clean_linker_0
_symmetry_space_group_name_H-M    P1
_symmetry_Int_Tables_number       1
_symmetry_cell_setting            triclinic
loop_
_symmetry_equiv_pos_as_xyz
'x, y, z'
_cell_length_a     60.476556
_cell_length_b     60.93243
_cell_length_c     60.366598
_cell_angle_alpha  89.325291
_cell_angle_beta   90.090577
_cell_angle_gamma 90.762436
loop_
_atom_site_label
_atom_site_type_symbol
_atom_site_fract_x
_atom_site_fract_y
_atom_site_fract_z
_atom_type_partial_charge
P0 P 0.07245 0.06783 0.07093 0.0
H1 H 0.07111 0.04767 0.11477 0.0
H2 H 0.04099 0.0367 0.13949 0.0
H3 H 0.9936 0.05837 0.09042 0.0
H4 H 0.0239 0.06825 0.0654 0.0
H5 H 0.107 0.06622 0.03756 0.0
H6 H 0.13025 0.03674 0.0242 0.0
H7 H 0.09481 0.99046 0.06632 0.0
H8 H 0.07106 0.01981 0.07876 0.0
H9 H 0.06357 0.11455 0.07241 0.0
H10 H 0.05996 0.06325 0.02394 0.0
O11 O 0.09053 0.08109 0.08703 0.0
H12 H 0.05151 0.14125 0.04462 0.0
H13 H 0.04856 0.08999 0.99573 0.0
C14 C 0.04978 0.05894 0.08835 0.0
C15 C 0.05421 0.04992 0.10931 0.0
C16 C 0.03692 0.04384 0.12351 0.0
C17 C 0.01475 0.04689 0.11715 0.0
C18 C 0.0104 0.05558 0.09587 0.0
C19 C 0.02776 0.06142 0.08156 0.0
C20 C 0.08713 0.04526 0.05898 0.0
C21 C 0.10395 0.04963 0.04355 0.0
C22 C 0.11742 0.03276 0.03613 0.0
C23 C 0.1146 0.01117 0.0443 0.0
C24 C 0.09734 0.00679 0.05942 0.0
C25 C 0.08376 0.02367 0.06669 0.0
C26 C 0.06321 0.08707 0.05009 0.0
C27 C 0.06039 0.10909 0.05568 0.0
C28 C 0.05358 0.12436 0.03972 0.0
C29 C 0.04936 0.11788 0.0178 0.0
C30 C 0.05159 0.09558 0.01244 0.0
C31 C 0.05832 0.08028 0.0285 0.0
P32 P 0.31254 0.69142 0.19837 0.0
H33 H 0.33601 0.72123 0.16854 0.0
H34 H 0.32398 0.75069 0.14374 0.0
H35 H 0.25702 0.7422 0.16763 0.0
H36 H 0.26919 0.71242 0.19212 0.0
H37 H 0.34506 0.66868 0.22519 0.0
H38 H 0.36907 0.68011 0.25557 0.0
H39 H 0.33924 0.74421 0.2542 0.0
H40 H 0.31555 0.73268 0.22338 0.0
H41 H 0.28765 0.65749 0.17544 0.0
H42 H 0.28677 0.68762 0.23968 0.0
O43 O 0.32884 0.6765 0.1823 0.0
H44 H 0.25766 0.63265 0.18672 0.0
H45 H 0.25632 0.66308 0.25104 0.0
C46 C 0.30346 0.71444 0.18189 0.0
C47 C 0.31876 0.7258 0.16851 0.0
C48 C 0.31186 0.74276 0.15444 0.0
C49 C 0.28948 0.74877 0.15357 0.0
C50 C 0.2743 0.73775 0.1676 0.0
C51 C 0.28125 0.72077 0.1817 0.0
C52 C 0.32888 0.69995 0.22177 0.0
C53 C 0.34367 0.68518 0.23146 0.0
C54 C 0.35727 0.69171 0.24898 0.0
C55 C 0.35619 0.71314 0.25731 0.0
C56 C 0.34077 0.72771 0.24795 0.0
C57 C 0.32716 0.72113 0.23038 0.0
C58 C 0.2897 0.67405 0.20687 0.0
C59 C 0.28091 0.65879 0.19198 0.0
C60 C 0.26361 0.64472 0.19841 0.0
C61 C 0.2546 0.64578 0.21984 0.0
C62 C 0.26312 0.66156 0.23455 0.0
C63 C 0.28047 0.67566 0.22806 0.0
P64 P 0.9857 0.48636 0.0269 0.0
H65 H 0.98586 0.47493 0.98038 0.0
H66 H 0.98467 0.43996 0.96097 0.0
H67 H 0.97893 0.40546 0.02366 0.0
H68 H 0.9799 0.44065 0.04302 0.0
H69 H 0.96808 0.52038 0.9977 0.0
H70 H 0.93255 0.53882 0.99584 0.0
H71 H 0.90881 0.49907 0.05077 0.0
H72 H 0.9446 0.48045 0.05244 0.0
H73 H 0.02146 0.46053 0.04583 0.0
H74 H 0.97541 0.5087 0.06863 0.0
O75 O 0.00388 0.50191 0.01282 0.0
H76 H 0.03957 0.46048 0.08198 0.0
H77 H 0.9928 0.50812 0.10504 0.0
C78 C 0.98359 0.46034 0.01314 0.0
C79 C 0.98431 0.45984 0.98996 0.0
C80 C 0.98348 0.43985 0.97887 0.0
C81 C 0.98189 0.41994 0.9908 0.0
C82 C 0.98051 0.42052 0.01406 0.0
C83 C 0.98108 0.44061 0.02513 0.0
C84 C 0.95916 0.49945 0.02559 0.0
C85 C 0.9553 0.51563 0.0094 0.0
C86 C 0.9349 0.52606 0.00824 0.0
C87 C 0.91793 0.52049 0.02325 0.0
C88 C 0.92169 0.50392 0.03919 0.0
C89 C 0.94208 0.49327 0.04015 0.0
C90 C 0.99655 0.484 0.05469 0.0
C91 C 0.01479 0.47059 0.05883 0.0
C92 C 0.02514 0.47058 0.07957 0.0
C93 C 0.01761 0.48421 0.09656 0.0
C94 C 0.99918 0.49752 0.09235 0.0
C95 C 0.98894 0.4976 0.07156 0.0
P96 P 0.68286 0.81859 0.18208 0.0
H97 H 0.70198 0.85824 0.1621 0.0
H98 H 0.7318 0.88296 0.17301 0.0
H99 H 0.74559 0.84112 0.2296 0.0
H100 H 0.71484 0.81691 0.219 0.0
H101 H 0.66381 0.79539 0.14466 0.0
H102 H 0.67536 0.76386 0.12352 0.0
H103 H 0.73173 0.75608 0.16696 0.0
H104 H 0.72041 0.78843 0.18755 0.0
H105 H 0.64279 0.8374 0.20003 0.0
H106 H 0.68638 0.78427 0.21673 0.0
O107 O 0.66707 0.83315 0.16476 0.0
H108 H 0.61934 0.82777 0.2314 0.0
H109 H 0.66345 0.77504 0.249 0.0
C110 C 0.70597 0.83586 0.18988 0.0
C111 C 0.71135 0.85437 0.1769 0.0
C112 C 0.72864 0.86844 0.18308 0.0
C113 C 0.74124 0.86412 0.20223 0.0
C114 C 0.73606 0.84521 0.21497 0.0
C115 C 0.71856 0.83123 0.20885 0.0
C116 C 0.69146 0.79454 0.16744 0.0
C117 C 0.67872 0.78699 0.14962 0.0
C118 C 0.68525 0.76872 0.13765 0.0
C119 C 0.70453 0.7573 0.14347 0.0
C120 C 0.71701 0.76465 0.16174 0.0
C121 C 0.7105 0.78311 0.17363 0.0
C122 C 0.66616 0.81136 0.20583 0.0
C123 C 0.64738 0.82367 0.21053 0.0
C124 C 0.63407 0.81827 0.22871 0.0
C125 C 0.63945 0.80062 0.24289 0.0
C126 C 0.65857 0.78851 0.23829 0.0
C127 C 0.67179 0.79384 0.2199 0.0
P128 P 0.05902 0.94245 0.43964 0.0
H129 H 0.10102 0.94113 0.46284 0.0
H130 H 0.12665 0.96961 0.47576 0.0
H131 H 0.08165 0.01949 0.45288 0.0
H132 H 0.05602 0.99091 0.44008 0.0
H133 H 0.03836 0.89925 0.43788 0.0
H134 H 0.02758 0.87234 0.46629 0.0
H135 H 0.0491 0.91732 0.5171 0.0
H136 H 0.05889 0.94443 0.48858 0.0
H137 H 0.0567 0.96385 0.3965 0.0
H138 H 0.01101 0.94482 0.44824 0.0
O139 O 0.07437 0.92807 0.42221 0.0
H140 H 0.02591 0.97605 0.37338 0.0
H141 H 0.98006 0.95708 0.42522 0.0
C142 C 0.07666 0.96387 0.45047 0.0
C143 C 0.09659 0.9582 0.46079 0.0
C144 C 0.11117 0.97449 0.46824 0.0
C145 C 0.10618 0.99681 0.46531 0.0
C146 C 0.08604 0.00244 0.45517 0.0
C147 C 0.07134 0.98609 0.44791 0.0
C148 C 0.04977 0.92366 0.46108 0.0
C149 C 0.04061 0.90333 0.45516 0.0
C150 C 0.03461 0.8879 0.47145 0.0
C151 C 0.03776 0.89247 0.49405 0.0
C152 C 0.04632 0.91323 0.49991 0.0
C153 C 0.05214 0.92873 0.48356 0.0
C154 C 0.03612 0.95314 0.42391 0.0
C155 C 0.04002 0.96246 0.40294 0.0
C156 C 0.02241 0.96957 0.38981 0.0
C157 C 1.0005 0.96745 0.39742 0.0
C158 C 0.99671 0.95867 0.41877 0.0
C159 C 0.0144 0.95169 0.43197 0.0
P160 P 0.23785 0.73743 0.77018 0.0
H161 H 0.26776 0.76974 0.78984 0.0
H162 H 0.26824 0.78827 0.82527 0.0
H163 H 0.21067 0.75046 0.8459 0.0
H164 H 0.20975 0.73271 0.8097 0.0
H165 H 0.25729 0.71147 0.73547 0.0
H166 H 0.27472 0.67566 0.7351 0.0
H167 H 0.26012 0.66709 0.80479 0.0
H168 H 0.24327 0.70337 0.8051 0.0
H169 H 0.21212 0.77156 0.7489 0.0
H170 H 0.20246 0.70369 0.76785 0.0
O171 O 0.25339 0.7528 0.75304 0.0
H172 H 0.17555 0.77194 0.73185 0.0
H173 H 0.16545 0.70401 0.75125 0.0
C174 C 0.23858 0.75002 0.79705 0.0
C175 C 0.25519 0.76545 0.80194 0.0
C176 C 0.25556 0.77591 0.8224 0.0
C177 C 0.23951 0.7709 0.83862 0.0
C178 C 0.22309 0.75504 0.83375 0.0
C179 C 0.22261 0.74474 0.81311 0.0
C180 C 0.24935 0.71028 0.77037 0.0
C181 C 0.25785 0.70189 0.75068 0.0
C182 C 0.26766 0.68127 0.75047 0.0
C183 C 0.26893 0.66842 0.76995 0.0
C184 C 0.25979 0.67667 0.78957 0.0
C185 C 0.25003 0.69741 0.78976 0.0
C186 C 0.21014 0.7375 0.75923 0.0
C187 C 0.20201 0.75676 0.7495 0.0
C188 C 0.18099 0.75699 0.73991 0.0
C189 C 0.16752 0.73797 0.74006 0.0
C190 C 0.17551 0.71884 0.75049 0.0
C191 C 0.19663 0.71864 0.76007 0.0
P192 P 0.98769 0.51396 0.49971 0.0
H193 H 0.02939 0.49487 0.48558 0.0
H194 H 0.04829 0.49381 0.45002 0.0
H195 H 0.99601 0.53182 0.42019 0.0
H196 H 0.97727 0.53309 0.4562 0.0
H197 H 0.01994 0.53655 0.52732 0.0
H198 H 0.02104 0.57286 0.54401 0.0
H199 H 0.95888 0.58832 0.51253 0.0
H200 H 0.95798 0.55184 0.49566 0.0
H201 H 0.96767 0.48204 0.46962 0.0
H202 H 0.94742 0.51978 0.52586 0.0
O203 O 1.00098 0.49749 0.51739 0.0
H204 H 0.93183 0.46331 0.46927 0.0
H205 H 0.91112 0.50189 0.52503 0.0
C206 C 1.00183 0.5139 0.47347 0.0
C207 C 0.02195 0.50299 0.47143 0.0
C208 C 0.03271 0.50229 0.45101 0.0
C209 C 0.02357 0.51254 0.43217 0.0
C210 C 0.00356 0.52386 0.43439 0.0
C211 C 0.99278 0.52453 0.4549 0.0
C212 C 0.98857 0.54129 0.5108 0.0
C213 C 0.00654 0.54774 0.52398 0.0
C214 C 0.00723 0.56857 0.5334 0.0
C215 C 0.98995 0.58339 0.52975 0.0
C216 C 0.97225 0.57711 0.51593 0.0
C217 C 0.97172 0.5563 0.50629 0.0
C218 C 0.96001 0.50287 0.4973 0.0
C219 C 0.95527 0.48681 0.48149 0.0
C220 C 0.93468 0.47609 0.4813 0.0
C221 C 0.91842 0.4811 0.49706 0.0
C222 C 0.92324 0.49741 0.51276 0.0
C223 C 0.94392 0.50795 0.51304 0.0
P224 P 0.81695 0.81393 0.82009 0.0
H225 H 0.85564 0.83454 0.79979 0.0
H226 H 0.87954 0.82431 0.76925 0.0
H227 H 0.83809 0.76727 0.75737 0.0
H228 H 0.81452 0.77742 0.78855 0.0
H229 H 0.80032 0.85412 0.8394 0.0
H230 H 0.77142 0.87953 0.82835 0.0
H231 H 0.75669 0.83967 0.77133 0.0
H232 H 0.78569 0.81404 0.78271 0.0
H233 H 0.83802 0.77455 0.83692 0.0
H234 H 0.77244 0.80147 0.83628 0.0
O235 O 0.83347 0.82702 0.83791 0.0
H236 H 0.82527 0.74469 0.86123 0.0
H237 H 0.75938 0.77136 0.86008 0.0
C238 C 0.83359 0.80651 0.79669 0.0
C239 C 0.85171 0.8198 0.79064 0.0
C240 C 0.86526 0.81402 0.773 0.0
C241 C 0.86082 0.7949 0.76081 0.0
C242 C 0.84223 0.78189 0.76661 0.0
C243 C 0.82868 0.78771 0.78436 0.0
C244 C 0.79546 0.83244 0.81161 0.0
C245 C 0.791 0.85088 0.82444 0.0
C246 C 0.77448 0.86545 0.81806 0.0
C247 C 0.76192 0.86179 0.79881 0.0
C248 C 0.76605 0.84294 0.78627 0.0
C249 C 0.7827 0.82837 0.79265 0.0
C250 C 0.80618 0.79012 0.83462 0.0
C251 C 0.82074 0.77372 0.84159 0.0
C252 C 0.81338 0.75661 0.85546 0.0
C253 C 0.79128 0.75561 0.86272 0.0
C254 C 0.77657 0.77176 0.85508 0.0
C255 C 0.78399 0.78892 0.84126 0.0
P256 P 0.31582 0.31335 0.31967 0.0
H257 H 0.35502 0.33343 0.29989 0.0
H258 H 0.37885 0.32319 0.26931 0.0
H259 H 0.33644 0.26708 0.25646 0.0
H260 H 0.31289 0.27725 0.28766 0.0
H261 H 0.30425 0.35758 0.33335 0.0
H262 H 0.27462 0.38221 0.32282 0.0
H263 H 0.24962 0.33409 0.27672 0.0
H264 H 0.27993 0.30958 0.28706 0.0
H265 H 0.33598 0.27272 0.33475 0.0
H266 H 0.27187 0.30261 0.3382 0.0
O267 O 0.3323 0.32642 0.33754 0.0
H268 H 0.32327 0.24325 0.35958 0.0
H269 H 0.25879 0.27289 0.36237 0.0
C270 C 0.33247 0.30586 0.2963 0.0
C271 C 0.35086 0.31889 0.29053 0.0
C272 C 0.36438 0.31311 0.27286 0.0
C273 C 0.35964 0.29425 0.26038 0.0
C274 C 0.34079 0.28149 0.26592 0.0
C275 C 0.32726 0.28732 0.28368 0.0
C276 C 0.29435 0.33177 0.31092 0.0
C277 C 0.29253 0.35232 0.32087 0.0
C278 C 0.2754 0.36636 0.31495 0.0
C279 C 0.25957 0.36009 0.29905 0.0
C280 C 0.26161 0.33953 0.28888 0.0
C281 C 0.27887 0.32548 0.2948 0.0
C282 C 0.30483 0.2897 0.33432 0.0
C283 C 0.31898 0.27261 0.34037 0.0
C284 C 0.31165 0.25573 0.35455 0.0
C285 C 0.28999 0.25568 0.36309 0.0
C286 C 0.27566 0.27253 0.35639 0.0
C287 C 0.28306 0.28946 0.3423 0.0
P288 P 0.48543 0.99105 0.5257 0.0
H289 H 0.5038 0.9788 0.48297 0.0
H290 H 0.50481 0.94435 0.46301 0.0
H291 H 0.46819 0.91231 0.51594 0.0
H292 H 0.46686 0.94727 0.53571 0.0
H293 H 0.46387 0.01889 0.49298 0.0
H294 H 0.42775 0.03627 0.49157 0.0
H295 H 0.41031 0.00506 0.55389 0.0
H296 H 0.44668 0.9877 0.55518 0.0
H297 H 0.51348 0.95841 0.54793 0.0
H298 H 0.48121 0.0187 0.56453 0.0
O299 O 0.5027 0.00868 0.51299 0.0
H300 H 0.53138 0.95775 0.58422 0.0
H301 H 0.49875 0.01797 0.601 0.0
C302 C 0.48557 0.96549 0.511 0.0
C303 C 0.49602 0.96439 0.49035 0.0
C304 C 0.49667 0.9446 0.47898 0.0
C305 C 0.48684 0.92544 0.48799 0.0
C306 C 0.47586 0.92675 0.50849 0.0
C307 C 0.47519 0.94665 0.51986 0.0
C308 C 0.45814 0.00249 0.52446 0.0
C309 C 0.45228 0.01576 0.50634 0.0
C310 C 0.43154 0.02557 0.50548 0.0
C311 C 0.4162 0.02219 0.52271 0.0
C312 C 0.4219 0.00828 0.54055 0.0
C313 C 0.44264 0.99832 0.54129 0.0
C314 C 0.49547 0.98828 0.55372 0.0
C315 C 0.50969 0.97116 0.55961 0.0
C316 C 0.51997 0.97082 0.5804 0.0
C317 C 0.51649 0.9878 0.59555 0.0
C318 C 0.50192 0.00472 0.58968 0.0
C319 C 0.49166 0.00502 0.56892 0.0
P320 P 0.18313 0.3174 0.68815 0.0
H321 H 0.2021 0.35625 0.66657 0.0
H322 H 0.23203 0.38136 0.67639 0.0
H323 H 0.2463 0.34143 0.73425 0.0
H324 H 0.21551 0.31678 0.72466 0.0
H325 H 0.16361 0.29548 0.65011 0.0
H326 H 0.17492 0.2647 0.62778 0.0
H327 H 0.23181 0.25555 0.67025 0.0
H328 H 0.22075 0.28724 0.69202 0.0
H329 H 0.14705 0.33828 0.71116 0.0
H330 H 0.18578 0.27986 0.71944 0.0
O331 O 0.16623 0.33207 0.67205 0.0
H332 H 0.12478 0.3278 0.7432 0.0
H333 H 0.16399 0.26952 0.75219 0.0
C334 C 0.20635 0.33485 0.69507 0.0
C335 C 0.21162 0.35289 0.6814 0.0
C336 C 0.22896 0.36717 0.68696 0.0
C337 C 0.24167 0.36352 0.70617 0.0
C338 C 0.23665 0.34501 0.71955 0.0
C339 C 0.21914 0.3308 0.71403 0.0
C340 C 0.19151 0.29389 0.67253 0.0
C341 C 0.17858 0.28694 0.6546 0.0
C342 C 0.18498 0.26909 0.64194 0.0
C343 C 0.20431 0.25748 0.64715 0.0
C344 C 0.21703 0.26427 0.66548 0.0
C345 C 0.21067 0.28233 0.67805 0.0
C346 C 0.16775 0.30963 0.71262 0.0
C347 C 0.15083 0.3232 0.71997 0.0
C348 C 0.13823 0.31728 0.7385 0.0
C349 C 0.1425 0.29776 0.75036 0.0
C350 C 0.15996 0.28447 0.74327 0.0
C351 C 0.17251 0.29039 0.72458 0.0
P352 P 0.81287 0.19312 0.69828 0.0
H353 H 0.81431 0.19749 0.65017 0.0
H354 H 0.8006 0.2251 0.62428 0.0
H355 H 0.7733 0.26112 0.67885 0.0
H356 H 0.78746 0.23334 0.70485 0.0
H357 H 0.82289 0.17533 0.74216 0.0
H358 H 0.84705 0.18811 0.77185 0.0
H359 H 0.8585 0.2489 0.73575 0.0
H360 H 0.835 0.23558 0.70577 0.0
H361 H 0.79994 0.1494 0.6835 0.0
H362 H 0.7765 0.19678 0.73013 0.0
O363 O 0.8319 0.1787 0.685 0.0
H364 H 0.77008 0.12423 0.69405 0.0
H365 H 0.74599 0.17177 0.7405 0.0
C366 C 0.8023 0.21362 0.67946 0.0
C367 C 0.80546 0.21135 0.65662 0.0
C368 C 0.79741 0.22708 0.64178 0.0
C369 C 0.78586 0.24536 0.64947 0.0
C370 C 0.78238 0.24739 0.67241 0.0
C371 C 0.79039 0.23153 0.68728 0.0
C372 C 0.82666 0.20471 0.72199 0.0
C373 C 0.83016 0.19164 0.7409 0.0
C374 C 0.844 0.19901 0.75791 0.0
C375 C 0.8548 0.21957 0.75625 0.0
C376 C 0.85069 0.23288 0.73751 0.0
C377 C 0.83696 0.22541 0.72044 0.0
C378 C 0.79061 0.1748 0.70629 0.0
C379 C 0.78833 0.1544 0.69604 0.0
C380 C 0.77107 0.14007 0.70196 0.0
C381 C 0.75556 0.14595 0.71812 0.0
C382 C 0.75779 0.16659 0.72821 0.0
C383 C 0.77514 0.18094 0.72225 0.0
P384 P 0.56725 0.56718 0.56516 0.0
H385 H 0.56786 0.54509 0.60797 0.0
H386 H 0.53884 0.53344 0.63377 0.0
H387 H 0.48932 0.55583 0.58727 0.0
H388 H 0.51843 0.56644 0.5612 0.0
H389 H 0.6112 0.56733 0.54596 0.0
H390 H 0.6361 0.5382 0.53495 0.0
H391 H 0.58607 0.48968 0.55233 0.0
H392 H 0.56101 0.51904 0.56261 0.0
H393 H 0.54307 0.60795 0.56515 0.0
H394 H 0.56907 0.56419 0.51626 0.0
O395 O 0.58329 0.58325 0.58079 0.0
H396 H 0.53124 0.6331 0.53573 0.0
H397 H 0.55739 0.58938 0.48672 0.0
C398 C 0.54535 0.55692 0.58284 0.0
C399 C 0.55073 0.54729 0.60328 0.0
C400 C 0.53409 0.54081 0.6181 0.0
C401 C 0.51167 0.544 0.61281 0.0
C402 C 0.50635 0.553 0.59191 0.0
C403 C 0.52305 0.55929 0.57701 0.0
C404 C 0.58442 0.54535 0.55541 0.0
C405 C 0.60556 0.55042 0.54726 0.0
C406 C 0.61983 0.53371 0.54112 0.0
C407 C 0.61325 0.51153 0.54307 0.0
C408 C 0.59168 0.50656 0.55052 0.0
C409 C 0.57736 0.52335 0.55657 0.0
C410 C 0.55698 0.58425 0.54293 0.0
C411 C 0.54603 0.60366 0.54805 0.0
C412 C 0.53919 0.61797 0.53122 0.0
C413 C 0.5434 0.61324 0.50889 0.0
C414 C 0.55409 0.59356 0.50378 0.0
C415 C 0.56073 0.57912 0.52067 0.0
P416 P 0.56113 0.44016 0.93853 0.0
H417 H 0.60293 0.43789 0.96195 0.0
H418 H 0.62937 0.46568 0.97456 0.0
H419 H 0.58647 0.51665 0.94981 0.0
H420 H 0.55974 0.48872 0.93807 0.0
H421 H 0.53978 0.39727 0.93723 0.0
H422 H 0.52856 0.37084 0.96592 0.0
H423 H 0.55071 0.41605 0.01625 0.0
H424 H 0.56097 0.44271 0.98744 0.0
H425 H 0.55891 0.46078 0.89501 0.0
H426 H 0.51336 0.44412 0.94764 0.0
O427 O 0.57599 0.42525 0.92112 0.0
H428 H 0.52823 0.47335 0.87198 0.0
H429 H 0.4825 0.45682 0.92473 0.0
C430 C 0.57942 0.4612 0.94905 0.0
C431 C 0.59915 0.45507 0.95944 0.0
C432 C 0.61434 0.47101 0.96646 0.0
C433 C 0.61021 0.49347 0.96301 0.0
C434 C 0.59014 0.49955 0.95294 0.0
C435 C 0.57486 0.48354 0.94606 0.0
C436 C 0.55157 0.42175 0.96017 0.0
C437 C 0.54208 0.40151 0.95446 0.0
C438 C 0.53583 0.38635 0.97091 0.0
C439 C 0.53903 0.39112 0.99346 0.0
C440 C 0.54789 0.41181 0.9991 0.0
C441 C 0.55398 0.42704 0.9826 0.0
C442 C 0.53838 0.45123 0.92287 0.0
C443 C 0.54229 0.46001 0.90167 0.0
C444 C 0.52474 0.46732 0.88858 0.0
C445 C 0.50288 0.466 0.89647 0.0
C446 C 0.4991 0.45778 0.91805 0.0
C447 C 0.51674 0.45057 0.93119 0.0
P448 P 0.73694 0.23683 0.27 0.0
H449 H 0.76835 0.26701 0.29069 0.0
H450 H 0.76883 0.28569 0.32611 0.0
H451 H 0.70795 0.25226 0.34454 0.0
H452 H 0.70725 0.23417 0.30849 0.0
H453 H 0.75034 0.2082 0.23464 0.0
H454 H 0.76758 0.17223 0.2341 0.0
H455 H 0.76448 0.16896 0.30561 0.0
H456 H 0.74771 0.20528 0.30598 0.0
H457 H 0.7119 0.27089 0.24765 0.0
H458 H 0.70104 0.20367 0.26834 0.0
O459 O 0.75286 0.2519 0.25295 0.0
H460 H 0.67534 0.27145 0.23053 0.0
H461 H 0.6641 0.20417 0.25164 0.0
C462 C 0.73758 0.24949 0.29683 0.0
C463 C 0.75507 0.26372 0.30232 0.0
C464 C 0.75542 0.27426 0.32274 0.0
C465 C 0.73841 0.27056 0.33828 0.0
C466 C 0.72113 0.25581 0.33287 0.0
C467 C 0.72075 0.24536 0.31232 0.0
C468 C 0.74799 0.20951 0.27032 0.0
C469 C 0.7533 0.19968 0.2502 0.0
C470 C 0.76302 0.17901 0.24992 0.0
C471 C 0.76751 0.16765 0.26983 0.0
C472 C 0.76159 0.17737 0.29 0.0
C473 C 0.75187 0.19812 0.29023 0.0
C474 C 0.70932 0.23712 0.25883 0.0
C475 C 0.70155 0.25626 0.2486 0.0
C476 C 0.68054 0.2566 0.23897 0.0
C477 C 0.66676 0.23781 0.23959 0.0
C478 C 0.67441 0.21881 0.25051 0.0
C479 C 0.6955 0.21851 0.26014 0.0
P480 P 0.48805 0.01526 0.99669 0.0
H481 H 0.5175 0.98362 0.9767 0.0
H482 H 0.53628 0.98238 0.94105 0.0
H483 H 0.50682 0.04408 0.92215 0.0
H484 H 0.48828 0.04534 0.95822 0.0
H485 H 0.52102 0.03823 0.02318 0.0
H486 H 0.52202 0.07429 0.04041 0.0
H487 H 0.45849 0.08896 0.01136 0.0
H488 H 0.45769 0.05275 0.994 0.0
H489 H 0.46676 0.98452 0.96601 0.0
H490 H 0.44878 0.0202 0.0244 0.0
O491 O 0.50167 0.99892 0.01423 0.0
H492 H 0.43084 0.96599 0.96626 0.0
H493 H 0.41233 0.00268 0.02411 0.0
C494 C 0.50183 0.01477 0.97026 0.0
C495 C 0.51517 0.99696 0.96497 0.0
C496 C 0.52575 0.99617 0.94445 0.0
C497 C 0.52309 0.01314 0.92871 0.0
C498 C 0.50947 0.0309 0.93401 0.0
C499 C 0.49882 0.03163 0.95458 0.0
C500 C 0.489 0.04258 0.00785 0.0
C501 C 0.50732 0.04921 0.02047 0.0
C502 C 0.50793 0.06989 0.03019 0.0
C503 C 0.49023 0.0844 0.02743 0.0
C504 C 0.4722 0.07799 0.01411 0.0
C505 C 0.47173 0.05733 0.00418 0.0
C506 C 0.46028 0.00427 0.9948 0.0
C507 C 0.45485 0.98888 0.97853 0.0
C508 C 0.43419 0.97829 0.97866 0.0
C509 C 0.4185 0.98282 0.99516 0.0
C510 C 0.42399 0.99852 0.01128 0.0
C511 C 0.44476 0.00887 0.01127 0.0
Li512 Li 0.27092 0.88973 0.0031 0.0
Li513 Li 0.25166 0.8607 0.02683 0.0
Li514 Li 0.24677 0.86346 0.98476 0.0
Li515 Li 0.2312 0.89018 0.00876 0.0
C516 C 0.29609 0.85376 1.00187 0.0
N517 N 0.34132 0.84802 1.00103 0.0
C518 C 0.30723 0.84688 0.02098 0.0
C519 C 0.30791 0.85747 0.98228 0.0
C520 C 0.33011 0.84412 0.02023 0.0
C521 C 0.33078 0.85456 0.98221 0.0
C522 C 0.24818 0.9096 0.0439 0.0
C523 C 0.22704 0.9239 0.07418 0.0
N524 N 0.23239 0.94467 0.06741 0.0
C525 C 0.2536 0.93106 0.03731 0.0
C526 C 0.23489 0.90593 0.06252 0.0
C527 C 0.2454 0.94858 0.04939 0.0
C528 C 0.29981 0.92248 0.98486 0.0
N529 N 0.29741 0.9071 1.0012 0.0
C530 C 0.33294 0.91649 0.016 0.0
C531 C 0.31331 0.90418 0.01684 0.0
C532 C 0.33608 0.93241 0.99918 0.0
C533 C 0.31908 0.93537 0.98353 0.0
H534 H 0.28666 0.92495 0.97299 0.0
H535 H 0.31076 0.89224 0.03 0.0
C536 C 0.25077 0.81967 0.04897 0.0
N537 N 0.25505 0.84144 0.05154 0.0
C538 C 0.25486 0.80487 0.06632 0.0
C539 C 0.26734 0.83525 0.08872 0.0
C540 C 0.26304 0.84945 0.07093 0.0
C541 C 0.2635 0.81256 0.08649 0.0
H542 H 0.24466 0.81377 0.03324 0.0
H543 H 0.26653 0.86682 0.07241 0.0
C544 C 0.24473 0.8986 0.9588 0.0
N545 N 0.23863 0.90307 0.9136 0.0
C546 C 0.22409 0.90448 0.95031 0.0
C547 C 0.2623 0.89514 0.94429 0.0
C548 C 0.22134 0.90665 0.92741 0.0
C549 C 0.25887 0.89741 0.9215 0.0
C550 C 0.20211 0.85592 0.01097 0.0
C551 C 0.18795 0.86344 0.9943 0.0
C552 C 0.1933 0.84623 0.03016 0.0
C553 C 0.1651 0.86132 0.99723 0.0
C554 C 0.17036 0.84437 0.03244 0.0
N555 N 0.15686 0.85192 0.01608 0.0
C556 C 0.25903 0.8299 0.95565 0.0
C557 C 0.2266 0.84824 0.94432 0.0
C558 C 0.25818 0.81668 0.93691 0.0
N559 N 0.24357 0.84554 0.95887 0.0
C560 C 0.22528 0.8356 0.92517 0.0
C561 C 0.24131 0.8196 0.92111 0.0
H562 H 0.27207 0.82764 0.96767 0.0
H563 H 0.2142 0.86038 0.94736 0.0
C564 C 0.20868 0.92992 0.00259 0.0
N565 N 0.20745 0.9104 0.01372 0.0
C566 C 0.19323 0.94625 0.00648 0.0
C567 C 0.17539 0.92223 0.03327 0.0
C568 C 0.19132 0.90641 0.02901 0.0
C569 C 0.17632 0.94254 0.02205 0.0
H570 H 0.22205 0.93303 0.99106 0.0
H571 H 0.19119 0.89127 0.03845 0.0
O572 O 0.27372 0.85684 0.00235 0.0
O573 O 0.25544 0.89228 0.03185 0.0
O574 O 0.24774 0.89627 0.98117 0.0
O575 O 0.2245 0.85785 0.00848 0.0
H576 H 0.29836 0.84388 0.03627 0.0
H577 H 0.29952 0.86261 0.9673 0.0
H578 H 0.33897 0.83892 0.03492 0.0
H579 H 0.34015 0.8575 0.96719 0.0
H580 H 0.21659 0.92134 0.08853 0.0
H581 H 0.26377 0.93414 0.02284 0.0
H582 H 0.2304 0.8894 0.0677 0.0
H583 H 0.24931 0.96529 0.0444 0.0
H584 H 0.34557 0.91336 0.02832 0.0
H585 H 0.32043 0.94775 0.97058 0.0
H586 H 0.25196 0.78752 0.06368 0.0
H587 H 0.27376 0.84197 0.104 0.0
H588 H 0.21023 0.90704 0.96124 0.0
H589 H 0.27838 0.89066 0.95056 0.0
H590 H 0.20542 0.91107 0.92061 0.0
H591 H 0.2723 0.89468 0.91009 0.0
H592 H 0.19451 0.87113 0.97945 0.0
H593 H 0.20408 0.84031 0.0432 0.0
H594 H 0.15393 0.86722 0.98454 0.0
H595 H 0.16329 0.83698 0.04724 0.0
H596 H 0.2706 0.80424 0.93493 0.0
H597 H 0.21205 0.83868 0.91349 0.0
H598 H 0.19457 0.96168 0.99746 0.0
H599 H 0.16294 0.91888 0.04579 0.0
Li600 Li 0.11289 0.50205 0.28356 0.0
Li601 Li 0.14043 0.4792 0.265 0.0
Li602 Li 0.1404 0.52044 0.25869 0.0
Li603 Li 0.11219 0.49624 0.24222 0.0
C604 C 0.15402 0.50981 0.30631 0.0
N605 N 0.17141 0.52302 0.34647 0.0
C606 C 0.16203 0.49428 0.32143 0.0
C607 C 0.1553 0.5321 0.31145 0.0
C608 C 0.17061 0.50126 0.3417 0.0
C609 C 0.16403 0.53844 0.33187 0.0
C610 C 0.1051 0.45244 0.27058 0.0
C611 C 0.10771 0.41499 0.25844 0.0
N612 N 0.10061 0.40787 0.27868 0.0
C613 C 0.09764 0.44476 0.2912 0.0
C614 C 0.11 0.43746 0.254 0.0
C615 C 0.09554 0.42217 0.29499 0.0
C616 C 0.0764 0.51581 0.30989 0.0
N617 N 0.09574 0.50465 0.31006 0.0
C618 C 0.09115 0.49576 0.34849 0.0
C619 C 0.10311 0.49453 0.3288 0.0
C620 C 0.07123 0.50738 0.34895 0.0
C621 C 0.0639 0.51752 0.32928 0.0
H622 H 0.07058 0.52328 0.29467 0.0
H623 H 0.11812 0.48517 0.32839 0.0
C624 C 0.17624 0.45151 0.25474 0.0
N625 N 0.15948 0.45467 0.2693 0.0
C626 C 0.19157 0.43488 0.25852 0.0
C627 C 0.1718 0.42475 0.29192 0.0
C628 C 0.15697 0.44163 0.28756 0.0
C629 C 0.18966 0.42139 0.27751 0.0
H630 H 0.1781 0.46232 0.24052 0.0
H631 H 0.14374 0.44467 0.29909 0.0
C632 C 0.10093 0.54494 0.26182 0.0
N633 N 0.08748 0.5877 0.26738 0.0
C634 C 0.09009 0.55602 0.24464 0.0
C635 C 0.10462 0.55551 0.28193 0.0
C636 C 0.08351 0.57767 0.24774 0.0
C637 C 0.09778 0.57715 0.2844 0.0
C638 C 0.14687 0.49482 0.21473 0.0
C639 C 0.15119 0.51361 0.20187 0.0
C640 C 0.14455 0.47448 0.20448 0.0
C641 C 0.15272 0.51178 0.17888 0.0
C642 C 0.14618 0.47333 0.18144 0.0
N643 N 0.15017 0.49185 0.16922 0.0
C644 C 0.18042 0.54418 0.26099 0.0
C645 C 0.15196 0.5635 0.24251 0.0
C646 C 0.19545 0.56134 0.25679 0.0
N647 N 0.15915 0.54554 0.25384 0.0
C648 C 0.16641 0.58106 0.23797 0.0
C649 C 0.18857 0.58007 0.24497 0.0
H650 H 0.18582 0.52953 0.26962 0.0
H651 H 0.13518 0.56401 0.23646 0.0
C652 C 0.08019 0.47553 0.21409 0.0
N653 N 0.09382 0.49327 0.21658 0.0
C654 C 0.06707 0.47351 0.19509 0.0
C655 C 0.08218 0.50807 0.18167 0.0
C656 C 0.09488 0.50946 0.20094 0.0
C657 C 0.06797 0.48992 0.17851 0.0
H658 H 0.07941 0.463 0.22689 0.0
H659 H 0.10574 0.52346 0.20338 0.0
O660 O 0.1457 0.50323 0.2863 0.0
O661 O 0.10747 0.4745 0.26664 0.0
O662 O 0.10758 0.52378 0.25898 0.0
O663 O 0.14497 0.49635 0.23724 0.0
H664 H 0.16146 0.47699 0.31766 0.0
H665 H 0.1499 0.54444 0.29972 0.0
H666 H 0.17667 0.48938 0.35362 0.0
H667 H 0.16505 0.55564 0.33606 0.0
H668 H 0.11157 0.40322 0.24579 0.0
H669 H 0.09355 0.45611 0.30415 0.0
H670 H 0.11559 0.44312 0.23791 0.0
H671 H 0.08989 0.416 0.3109 0.0
H672 H 0.09754 0.48778 0.36324 0.0
H673 H 0.04847 0.52633 0.32875 0.0
H674 H 0.20522 0.43318 0.24711 0.0
H675 H 0.16945 0.41463 0.30661 0.0
H676 H 0.08685 0.54804 0.22904 0.0
H677 H 0.11239 0.54701 0.2956 0.0
H678 H 0.07523 0.58647 0.23453 0.0
H679 H 0.10056 0.58551 0.29988 0.0
H680 H 0.15311 0.52947 0.20953 0.0
H681 H 0.14153 0.45974 0.2142 0.0
H682 H 0.15589 0.52621 0.16871 0.0
H683 H 0.14429 0.4577 0.17328 0.0
H684 H 0.21243 0.55962 0.26216 0.0
H685 H 0.16031 0.59519 0.22893 0.0
H686 H 0.05614 0.45939 0.19356 0.0
H687 H 0.08373 0.52098 0.16927 0.0
Li688 Li 0.73231 0.60965 0.00508 0.0
Li689 Li 0.74717 0.63718 0.02874 0.0
Li690 Li 0.75456 0.64103 0.98873 0.0
Li691 Li 0.7723 0.61209 0.01264 0.0
C692 C 0.70983 0.65366 0.01365 0.0
N693 N 0.6794 0.67928 0.0351 0.0
C694 C 0.69209 0.64382 0.02497 0.0
C695 C 0.71203 0.67652 0.0131 0.0
C696 C 0.67687 0.65706 0.03571 0.0
C697 C 0.69651 0.68919 0.02412 0.0
C698 C 0.74247 0.60129 0.05485 0.0
C699 C 0.75165 0.60261 0.0937 0.0
N700 N 0.73121 0.5944 0.09873 0.0
C701 C 0.7216 0.59276 0.06038 0.0
C702 C 0.75768 0.60614 0.0716 0.0
C703 C 0.71622 0.58943 0.08268 0.0
C704 C 0.71156 0.56803 0.00469 0.0
N705 N 0.70881 0.58943 0.99887 0.0
C706 C 0.67374 0.58107 0.98243 0.0
C707 C 0.69038 0.5962 0.98797 0.0
C708 C 0.67627 0.55877 0.98795 0.0
C709 C 0.69546 0.55234 0.99931 0.0
H710 H 0.72645 0.56312 0.01326 0.0
H711 H 0.68878 0.61329 0.98327 0.0
C712 C 0.75341 0.67466 0.05494 0.0
N713 N 0.74141 0.65567 0.05382 0.0
C714 C 0.74864 0.69029 0.07095 0.0
C715 C 0.71963 0.66633 0.08489 0.0
C716 C 0.72481 0.65128 0.06847 0.0
C717 C 0.73133 0.68638 0.08609 0.0
H718 H 0.7662 0.67807 0.04284 0.0
H719 H 0.71497 0.63649 0.06698 0.0
C720 C 0.75189 0.59143 0.97086 0.0
N721 N 0.73817 0.55524 0.94708 0.0
C722 C 0.76064 0.57078 0.97562 0.0
C723 C 0.7362 0.59369 0.95398 0.0
C724 C 0.7535 0.55269 0.96339 0.0
C725 C 0.72945 0.57518 0.94217 0.0
C726 C 0.79732 0.64803 0.01645 0.0
C727 C 0.81042 0.65344 0.99808 0.0
C728 C 0.80713 0.64554 0.03728 0.0
C729 C 0.83324 0.65603 1.00084 0.0
C730 C 0.83001 0.64825 0.03935 0.0
N731 N 0.84248 0.65337 0.02124 0.0
C732 C 0.76271 0.68244 0.96955 0.0
C733 C 0.75958 0.65391 0.94337 0.0
C734 C 0.76693 0.69782 0.9527 0.0
N735 N 0.7591 0.66099 0.96463 0.0
C736 C 0.76371 0.66875 0.92596 0.0
C737 C 0.7675 0.69107 0.93051 0.0
H738 H 0.76268 0.68753 0.98666 0.0
H739 H 0.75699 0.63671 0.93992 0.0
C740 C 0.80146 0.58169 0.0334 0.0
N741 N 0.79874 0.59551 0.01579 0.0
C742 C 0.82047 0.56896 0.03521 0.0
C743 C 0.83353 0.58497 1.00076 0.0
C744 C 0.8142 0.59722 0.99953 0.0
C745 C 0.83686 0.57045 0.01873 0.0
H746 H 0.78871 0.58026 0.04586 0.0
H747 H 0.81144 0.60804 0.9855 0.0
O748 O 0.72518 0.64096 0.00349 0.0
O749 O 0.7481 0.60448 0.03311 0.0
O750 O 0.75813 0.6092 0.98312 0.0
O751 O 0.77501 0.64505 0.01404 0.0
H752 H 0.69029 0.62614 0.02578 0.0
H753 H 0.72571 0.68438 0.00449 0.0
H754 H 0.66314 0.64967 0.04466 0.0
H755 H 0.69809 0.70689 0.02399 0.0
H756 H 0.76321 0.60639 0.10684 0.0
H757 H 0.70961 0.58896 0.04763 0.0
H758 H 0.77392 0.61265 0.06758 0.0
H759 H 0.70009 0.58294 0.08723 0.0
H760 H 0.65933 0.58667 0.97343 0.0
H761 H 0.69798 0.53536 0.00406 0.0
H762 H 0.75787 0.70563 0.07084 0.0
H763 H 0.7063 0.66239 0.09627 0.0
H764 H 0.77263 0.56869 0.98876 0.0
H765 H 0.72897 0.60948 0.95035 0.0
H766 H 0.76006 0.5366 0.96695 0.0
H767 H 0.71719 0.57665 0.92919 0.0
H768 H 0.80308 0.65536 0.98182 0.0
H769 H 0.79717 0.64151 0.05167 0.0
H770 H 0.84361 0.66008 0.98675 0.0
H771 H 0.83785 0.64627 0.05536 0.0
H772 H 0.77021 0.71474 0.95709 0.0
H773 H 0.76383 0.6628 0.90913 0.0
H774 H 0.82205 0.55775 0.04915 0.0
H775 H 0.84575 0.58697 0.98779 0.0
Li776 Li 0.85915 0.02359 0.254 0.0
Li777 Li 0.8864 0.99782 0.27121 0.0
Li778 Li 0.88973 0.00699 0.23161 0.0
Li779 Li 0.86018 0.98416 0.24529 0.0
C780 C 0.90775 0.04151 0.25116 0.0
N781 N 0.94098 0.06924 0.23582 0.0
C782 C 0.92947 0.03882 0.25853 0.0
C783 C 0.90291 0.05831 0.23601 0.0
C784 C 0.94604 0.05302 0.25058 0.0
C785 C 0.91995 0.07215 0.22845 0.0
C786 C 0.85202 0.99526 0.29622 0.0
C787 C 0.85194 0.9719 0.32872 0.0
N788 N 0.85152 0.98998 0.3417 0.0
C789 C 0.8515 0.01362 0.30984 0.0
C790 C 0.85217 0.97422 0.30567 0.0
C791 C 0.85127 0.0106 0.33282 0.0
C792 C 0.81935 0.04774 0.25558 0.0
N793 N 0.84159 0.04895 0.25878 0.0
C794 C 0.83919 0.08681 0.26845 0.0
C795 C 0.85157 0.06787 0.26546 0.0
C796 C 0.81623 0.08626 0.26471 0.0
C797 C 0.80631 0.06628 0.25839 0.0
H798 H 0.81173 0.03236 0.25086 0.0
H799 H 0.86921 0.06832 0.26835 0.0
C800 C 0.91051 0.97209 0.30221 0.0
N801 N 0.90349 0.99271 0.29745 0.0
C802 C 0.92449 0.96827 0.32023 0.0
C803 C 0.92366 0.00699 0.32836 0.0
C804 C 0.90953 0.01002 0.31024 0.0
C805 C 0.93154 0.9859 0.3334 0.0
H806 H 0.90573 0.95865 0.2917 0.0
H807 H 0.90376 0.02628 0.30604 0.0
C808 C 0.84644 1.00085 0.20701 0.0
N809 N 0.82255 0.98134 0.17331 0.0
C810 C 0.85738 0.99053 0.1897 0.0
C811 C 0.82334 1.00126 0.20716 0.0
C812 C 0.84501 0.9808 0.17279 0.0
C813 C 0.81156 0.99126 0.19 0.0
C814 C 0.89445 0.95712 0.23944 0.0
C815 C 0.904 0.95277 0.2189 0.0
C816 C 0.88691 0.9397 0.25282 0.0
C817 C 0.90581 0.93104 0.21208 0.0
C818 C 0.889 0.9182 0.24539 0.0
N819 N 0.89833 0.91435 0.22535 0.0
C820 C 0.93228 0.00715 0.21319 0.0
C821 C 0.90585 0.02505 0.19052 0.0
C822 C 0.9491 0.01248 0.1982 0.0
N823 N 0.91118 0.0135 0.20916 0.0
C824 C 0.92214 0.03048 0.1749 0.0
C825 C 0.94413 0.02431 0.17876 0.0
H826 H 0.93605 0.99816 0.22826 0.0
H827 H 0.88901 0.03028 0.18795 0.0
C828 C 0.82166 0.95769 0.25062 0.0
N829 N 0.84031 0.96007 0.23823 0.0
C830 C 0.80593 0.94146 0.24559 0.0
C831 C 0.82901 0.93011 0.21534 0.0
C832 C 0.84412 0.9467 0.22078 0.0
C833 C 0.80942 0.9274 0.22764 0.0
H834 H 0.81875 0.96873 0.26417 0.0
H835 H 0.85876 0.94902 0.21082 0.0
O836 O 0.89142 0.02734 0.25816 0.0
O837 O 0.85301 0.99788 0.27373 0.0
O838 O 0.85827 0.01015 0.2239 0.0
O839 O 0.89275 0.97829 0.24646 0.0
H840 H 0.93353 0.02573 0.27005 0.0
H841 H 0.88622 0.06039 0.22989 0.0
H842 H 0.96295 0.05108 0.25606 0.0
H843 H 0.91647 0.08513 0.21663 0.0
H844 H 0.85217 0.95572 0.33628 0.0
H845 H 0.85153 0.03001 0.30275 0.0
H846 H 0.85264 0.95986 0.2953 0.0
H847 H 0.85099 0.02466 0.34359 0.0
H848 H 0.84762 0.10183 0.27319 0.0
H849 H 0.78863 0.06493 0.25575 0.0
H850 H 0.93039 0.95181 0.32329 0.0
H851 H 0.92855 0.02101 0.33817 0.0
H852 H 0.87522 0.9896 0.18952 0.0
H853 H 0.81458 0.00896 0.22051 0.0
H854 H 0.85327 0.97265 0.15937 0.0
H855 H 0.79367 0.99135 0.18999 0.0
H856 H 0.90981 0.96601 0.20825 0.0
H857 H 0.87912 0.94275 0.26858 0.0
H858 H 0.91311 0.92744 0.1962 0.0
H859 H 0.8831 0.90458 0.25551 0.0
H860 H 0.96582 0.00732 0.20172 0.0
H861 H 0.9177 0.03985 0.16023 0.0
H862 H 0.79093 0.94036 0.25533 0.0
H863 H 0.83269 0.91957 0.20155 0.0
Li864 Li 0.2455 0.13859 0.53025 0.0
Li865 Li 0.23009 0.11127 0.50673 0.0
Li866 Li 0.27014 0.11318 0.51402 0.0
Li867 Li 0.25278 0.14229 0.49019 0.0
C868 C 0.24054 0.10291 0.55649 0.0
N869 N 0.22961 0.09655 0.60054 0.0
C870 C 0.21978 0.09427 0.56228 0.0
C871 C 0.2558 0.10816 0.57308 0.0
C872 C 0.21457 0.0912 0.58465 0.0
C873 C 0.24993 0.10489 0.59526 0.0
C874 C 0.20862 0.15606 0.51506 0.0
C875 C 0.19664 0.19218 0.52514 0.0
N876 N 0.17912 0.18302 0.53611 0.0
C877 C 0.19046 0.14699 0.52636 0.0
C878 C 0.2117 0.17882 0.51432 0.0
C879 C 0.17573 0.16091 0.53689 0.0
C880 C 0.25229 0.17585 0.55684 0.0
N881 N 0.23996 0.15708 0.5554 0.0
C882 C 0.21816 0.16773 0.58645 0.0
C883 C 0.22318 0.15282 0.56986 0.0
C884 C 0.2302 0.18756 0.588 0.0
C885 C 0.24766 0.19137 0.57301 0.0
H886 H 0.26523 0.17916 0.54488 0.0
H887 H 0.2131 0.13821 0.56812 0.0
C888 C 0.20833 0.07005 0.50653 0.0
N889 N 0.20612 0.09152 0.50071 0.0
C890 C 0.19169 0.05482 0.50144 0.0
C891 C 0.17066 0.08412 0.48469 0.0
C892 C 0.1878 0.09877 0.48998 0.0
C893 C 0.17249 0.06175 0.49034 0.0
H894 H 0.22322 0.06472 0.51484 0.0
H895 H 0.18659 0.11592 0.48535 0.0
C896 C 0.29582 0.14834 0.51742 0.0
N897 N 0.34122 0.15194 0.52137 0.0
C898 C 0.30882 0.15253 0.49869 0.0
C899 C 0.30585 0.14618 0.53818 0.0
C900 C 0.33176 0.15426 0.50103 0.0
C901 C 0.32885 0.14799 0.53983 0.0
C902 C 0.24914 0.09259 0.47253 0.0
C903 C 0.25761 0.07185 0.47739 0.0
C904 C 0.23336 0.09494 0.45575 0.0
C905 C 0.25014 0.05377 0.46534 0.0
C906 C 0.22627 0.07644 0.44412 0.0
N907 N 0.23474 0.05642 0.44911 0.0
C908 C 0.3003 0.08395 0.53531 0.0
C909 C 0.31084 0.0967 0.4996 0.0
C910 C 0.31937 0.0713 0.53692 0.0
N911 N 0.29647 0.09637 0.51688 0.0
C912 C 0.33014 0.0844 0.50053 0.0
C913 C 0.33462 0.07137 0.51935 0.0
H914 H 0.28842 0.08363 0.54866 0.0
H915 H 0.30724 0.10651 0.48502 0.0
C916 C 0.26236 0.18336 0.4709 0.0
N917 N 0.25755 0.16212 0.46601 0.0
C918 C 0.26681 0.1986 0.45398 0.0
C919 C 0.26132 0.16983 0.42724 0.0
C920 C 0.25704 0.15511 0.44471 0.0
C921 C 0.26634 0.19194 0.43175 0.0
H922 H 0.26309 0.18837 0.48802 0.0
H923 H 0.25351 0.13807 0.44128 0.0
O924 O 0.24599 0.10585 0.53467 0.0
O925 O 0.2235 0.14268 0.50508 0.0
O926 O 0.27339 0.14611 0.51543 0.0
O927 O 0.25572 0.11038 0.48461 0.0
H928 H 0.20775 0.09018 0.54967 0.0
H929 H 0.27192 0.11484 0.56887 0.0
H930 H 0.19854 0.08463 0.58939 0.0
H931 H 0.26153 0.10899 0.60827 0.0
H932 H 0.19892 0.20982 0.52486 0.0
H933 H 0.18798 0.12939 0.52731 0.0
H934 H 0.22572 0.18608 0.50572 0.0
H935 H 0.16168 0.15413 0.54583 0.0
H936 H 0.20472 0.16384 0.59771 0.0
H937 H 0.25717 0.20654 0.57316 0.0
H938 H 0.19408 0.03772 0.50576 0.0
H939 H 0.15612 0.0903 0.47634 0.0
H940 H 0.30131 0.15414 0.48248 0.0
H941 H 0.29599 0.14306 0.55284 0.0
H942 H 0.34206 0.15735 0.48666 0.0
H943 H 0.33686 0.14625 0.55577 0.0
H944 H 0.26962 0.06968 0.49049 0.0
H945 H 0.22629 0.1108 0.45207 0.0
H946 H 0.2565 0.03761 0.46897 0.0
H947 H 0.21394 0.07799 0.43121 0.0
H948 H 0.32192 0.06126 0.55161 0.0
H949 H 0.3415 0.08524 0.48669 0.0
H950 H 0.27105 0.21533 0.45834 0.0
H951 H 0.26061 0.16396 0.41039 0.0
Li952 Li 0.38713 0.49851 0.77203 0.0
Li953 Li 0.36104 0.52437 0.75613 0.0
Li954 Li 0.36026 0.4848 0.74648 0.0
Li955 Li 0.39014 0.50807 0.73223 0.0
C956 C 0.35359 0.49516 0.79773 0.0
N957 N 0.35399 0.48811 0.843 0.0
C958 C 0.35526 0.51293 0.81208 0.0
C959 C 0.35195 0.47382 0.80636 0.0
C960 C 0.35548 0.50902 0.83493 0.0
C961 C 0.35222 0.4706 0.82931 0.0
C962 C 0.4009 0.54798 0.75111 0.0
C963 C 0.39795 0.57889 0.726 0.0
N964 N 0.41572 0.58852 0.73596 0.0
C965 C 0.41917 0.55814 0.76105 0.0
C966 C 0.39022 0.55839 0.7334 0.0
C967 C 0.42639 0.57866 0.75317 0.0
C968 C 0.41052 0.47198 0.80327 0.0
N969 N 0.40474 0.49284 0.79786 0.0
C970 C 0.42675 0.50697 0.82757 0.0
C971 C 0.41232 0.51022 0.80973 0.0
C972 C 0.43342 0.48561 0.83323 0.0
C973 C 0.42482 0.46796 0.821 0.0
H974 H 0.40447 0.45845 0.79354 0.0
H975 H 0.40744 0.52666 0.8051 0.0
C976 C 0.32226 0.54945 0.75378 0.0
N977 N 0.34343 0.54968 0.76133 0.0
C978 C 0.30895 0.56785 0.75617 0.0
C979 C 0.33928 0.58622 0.77469 0.0
C980 C 0.35195 0.5674 0.77205 0.0
C981 C 0.31751 0.58675 0.76647 0.0
H982 H 0.31573 0.53495 0.74581 0.0
H983 H 0.3687 0.56707 0.77831 0.0
C984 C 0.39499 0.45753 0.74115 0.0
N985 N 0.39951 0.41407 0.72955 0.0
C986 C 0.40607 0.45211 0.7217 0.0
C987 C 0.3863 0.44081 0.75475 0.0
C988 C 0.40816 0.43005 0.71611 0.0
C989 C 0.38872 0.41895 0.74858 0.0
C990 C 0.35003 0.50464 0.70596 0.0
C991 C 0.36202 0.49026 0.69288 0.0
C992 C 0.32975 0.51247 0.69832 0.0
C993 C 0.3535 0.48386 0.6724 0.0
C994 C 0.32177 0.5057 0.67773 0.0
N995 N 0.33371 0.49165 0.66531 0.0
C996 C 0.32116 0.45938 0.75133 0.0
C997 C 0.34414 0.44714 0.72241 0.0
C998 C 0.30545 0.44303 0.74664 0.0
N999 N 0.34009 0.46115 0.73927 0.0
C1000 C 0.32903 0.43042 0.71731 0.0
C1001 C 0.30924 0.42823 0.72937 0.0
H1002 H 0.31812 0.47089 0.76445 0.0
H1003 H 0.35915 0.4488 0.71287 0.0
C1004 C 0.43218 0.50849 0.71321 0.0
N1005 N 0.41094 0.51436 0.70918 0.0
C1006 C 0.44866 0.51298 0.69758 0.0
C1007 C 0.42114 0.52956 0.67387 0.0
C1008 C 0.4052 0.52491 0.69007 0.0
C1009 C 0.44323 0.52363 0.67758 0.0
H1010 H 0.43629 0.50034 0.72867 0.0
H1011 H 0.3883 0.52992 0.68749 0.0
O1012 O 0.35408 0.49862 0.77533 0.0
O1013 O 0.39382 0.52778 0.75854 0.0
O1014 O 0.39283 0.47906 0.74687 0.0
O1015 O 0.35808 0.51109 0.72609 0.0
H1016 H 0.35667 0.52953 0.80563 0.0
H1017 H 0.3506 0.45991 0.79545 0.0
H1018 H 0.35691 0.5226 0.84625 0.0
H1019 H 0.35108 0.45417 0.83624 0.0
H1020 H 0.38982 0.58714 0.71233 0.0
H1021 H 0.4277 0.55024 0.77468 0.0
H1022 H 0.3761 0.55076 0.72544 0.0
H1023 H 0.44049 0.58673 0.76072 0.0
H1024 H 0.43277 0.52104 0.83669 0.0
H1025 H 0.42973 0.45126 0.82454 0.0
H1026 H 0.29213 0.56725 0.75002 0.0
H1027 H 0.34671 0.60037 0.78259 0.0
H1028 H 0.41293 0.4648 0.71097 0.0
H1029 H 0.37735 0.44467 0.76966 0.0
H1030 H 0.41664 0.42565 0.70107 0.0
H1031 H 0.38192 0.40587 0.75887 0.0
H1032 H 0.37771 0.48401 0.69854 0.0
H1033 H 0.32028 0.52371 0.70813 0.0
H1034 H 0.3626 0.47268 0.66216 0.0
H1035 H 0.3061 0.51164 0.67162 0.0
H1036 H 0.2903 0.44233 0.75616 0.0
H1037 H 0.33294 0.41929 0.70408 0.0
H1038 H 0.46546 0.50801 0.70104 0.0
H1039 H 0.41634 0.53811 0.65883 0.0
Li1040 Li 0.77053 0.38857 0.50262 0.0
Li1041 Li 0.75137 0.35973 0.52418 0.0
Li1042 Li 0.74637 0.36387 0.48408 0.0
Li1043 Li 0.7299 0.39096 0.50765 0.0
C1044 C 0.79519 0.35414 0.49549 0.0
N1045 N 0.83963 0.35126 0.48554 0.0
C1046 C 0.81005 0.34634 0.51139 0.0
C1047 C 0.80287 0.36018 0.47444 0.0
C1048 C 0.83247 0.34508 0.50606 0.0
C1049 C 0.82541 0.35869 0.46975 0.0
C1050 C 0.74552 0.39645 0.55099 0.0
C1051 C 0.71796 0.39079 0.57938 0.0
N1052 N 0.72805 0.40646 0.59184 0.0
C1053 C 0.75563 0.41249 0.56406 0.0
C1054 C 0.72654 0.38548 0.55868 0.0
C1055 C 0.74655 0.41732 0.58467 0.0
C1056 C 0.80002 0.42088 0.48495 0.0
N1057 N 0.79717 0.40566 0.50137 0.0
C1058 C 0.83255 0.41471 0.51669 0.0
C1059 C 0.81282 0.40254 0.51723 0.0
C1060 C 0.83609 0.43056 0.49988 0.0
C1061 C 0.81941 0.43357 0.48389 0.0
H1062 H 0.78715 0.4233 0.47276 0.0
H1063 H 0.80999 0.39049 0.53025 0.0
C1064 C 0.73948 0.32383 0.55266 0.0
N1065 N 0.75429 0.34046 0.54907 0.0
C1066 C 0.74264 0.30889 0.57009 0.0
C1067 C 0.77573 0.32902 0.58035 0.0
C1068 C 0.77192 0.34355 0.56272 0.0
C1069 C 0.76117 0.31116 0.58403 0.0
H1070 H 0.72534 0.32201 0.54184 0.0
H1071 H 0.7833 0.35708 0.55959 0.0
C1072 C 0.74103 0.40124 0.45954 0.0
N1073 N 0.7276 0.41114 0.41684 0.0
C1074 C 0.71924 0.4075 0.45538 0.0
C1075 C 0.75604 0.40026 0.44201 0.0
C1076 C 0.71276 0.4124 0.43367 0.0
C1077 C 0.74891 0.40523 0.42053 0.0
C1078 C 0.70871 0.3461 0.49554 0.0
C1079 C 0.69072 0.35519 0.48433 0.0
C1080 C 0.71278 0.32365 0.49386 0.0
C1081 C 0.67704 0.34162 0.47162 0.0
C1082 C 0.69874 0.31065 0.48093 0.0
N1083 N 0.68131 0.31982 0.47018 0.0
C1084 C 0.7564 0.32896 0.45571 0.0
C1085 C 0.72763 0.35105 0.44161 0.0
C1086 C 0.75533 0.31558 0.43711 0.0
N1087 N 0.74294 0.34655 0.45751 0.0
C1088 C 0.7261 0.33821 0.42261 0.0
C1089 C 0.74022 0.32026 0.42003 0.0
H1090 H 0.76795 0.32517 0.46883 0.0
H1091 H 0.71649 0.36454 0.4436 0.0
C1092 C 0.71245 0.43293 0.5102 0.0
N1093 N 0.70708 0.4114 0.51334 0.0
C1094 C 0.69711 0.44917 0.51473 0.0
C1095 C 0.67087 0.4208 0.52564 0.0
C1096 C 0.6868 0.40507 0.52096 0.0
C1097 C 0.676 0.44323 0.52267 0.0
H1098 H 0.72877 0.43745 0.50423 0.0
H1099 H 0.6831 0.38783 0.52368 0.0
O1100 O 0.77324 0.35595 0.50051 0.0
O1101 O 0.75421 0.39166 0.53074 0.0
O1102 O 0.74775 0.39661 0.48072 0.0
O1103 O 0.72257 0.3592 0.50767 0.0
H1104 H 0.80438 0.34143 0.5277 0.0
H1105 H 0.79155 0.36604 0.4619 0.0
H1106 H 0.84419 0.3392 0.51825 0.0
H1107 H 0.8316 0.36345 0.45357 0.0
H1108 H 0.70327 0.38245 0.58553 0.0
H1109 H 0.77034 0.42111 0.55831 0.0
H1110 H 0.71848 0.37303 0.5488 0.0
H1111 H 0.75419 0.4297 0.59497 0.0
H1112 H 0.84497 0.41154 0.52922 0.0
H1113 H 0.82113 0.44585 0.47087 0.0
H1114 H 0.73077 0.29563 0.57255 0.0
H1115 H 0.79032 0.33135 0.59051 0.0
H1116 H 0.70735 0.40833 0.46868 0.0
H1117 H 0.77302 0.3957 0.44492 0.0
H1118 H 0.69592 0.41713 0.4302 0.0
H1119 H 0.76033 0.40442 0.4068 0.0
H1120 H 0.68752 0.37258 0.48518 0.0
H1121 H 0.72687 0.31642 0.50209 0.0
H1122 H 0.6631 0.34845 0.46279 0.0
H1123 H 0.70178 0.29328 0.47935 0.0
H1124 H 0.76615 0.30161 0.43623 0.0
H1125 H 0.7142 0.34257 0.40994 0.0
H1126 H 0.7017 0.46622 0.51195 0.0
H1127 H 0.65491 0.41551 0.532 0.0
Li1128 Li 0.64223 0.9802 0.76375 0.0
Li1129 Li 0.61399 0.00292 0.78108 0.0
Li1130 Li 0.61325 0.99693 0.73986 0.0
Li1131 Li 0.64083 0.02133 0.75726 0.0
C1132 C 0.60383 0.95334 0.76164 0.0
N1133 N 0.5924 0.90973 0.75566 0.0
C1134 C 0.59431 0.94111 0.77898 0.0
C1135 C 0.60722 0.94346 0.74117 0.0
C1136 C 0.58874 0.91906 0.77566 0.0
C1137 C 0.60141 0.92139 0.73849 0.0
C1138 C 0.64919 0.00582 0.80747 0.0
C1139 C 0.64927 0.02671 0.84115 0.0
N1140 N 0.65316 0.00803 0.85299 0.0
C1141 C 0.65339 0.98685 0.81994 0.0
C1142 C 0.64731 0.02595 0.81811 0.0
C1143 C 0.65527 0.9883 0.84295 0.0
C1144 C 0.68332 0.96014 0.76048 0.0
N1145 N 0.66233 0.95646 0.76778 0.0
C1146 C 0.67238 0.92125 0.78229 0.0
C1147 C 0.65661 0.93746 0.77849 0.0
C1148 C 0.6943 0.92473 0.7752 0.0
C1149 C 0.6996 0.94442 0.76395 0.0
H1150 H 0.68748 0.97549 0.7522 0.0
H1151 H 0.64002 0.93511 0.78471 0.0
C1152 C 0.58342 0.02316 0.81032 0.0
N1153 N 0.59639 0.00538 0.80727 0.0
C1154 C 0.57086 0.02501 0.82963 0.0
C1155 C 0.58505 0.99014 0.8422 0.0
C1156 C 0.5973 0.98897 0.82268 0.0
C1157 C 0.57157 0.00835 0.84592 0.0
H1158 H 0.58272 0.03586 0.79773 0.0
H1159 H 0.60772 0.975 0.81986 0.0
C1160 C 0.65363 0.99129 0.71562 0.0
N1161 N 0.66993 0.97887 0.67494 0.0
C1162 C 0.66022 0.00719 0.70001 0.0
C1163 C 0.6558 0.96907 0.71068 0.0
C1164 C 0.66826 1.00059 0.67949 0.0
C1165 C 0.66395 0.96312 0.69 0.0
C1166 C 0.6048 0.04622 0.75305 0.0
C1167 C 0.59552 0.05354 0.73311 0.0
C1168 C 0.61092 0.06145 0.76914 0.0
C1169 C 0.59283 0.07603 0.72948 0.0
C1170 C 0.60799 0.0838 0.76488 0.0
N1171 N 0.5991 0.09058 0.74529 0.0
C1172 C 0.5763 0.98132 0.71447 0.0
C1173 C 0.60132 0.00501 0.69539 0.0
C1174 C 0.56296 0.97965 0.69558 0.0
N1175 N 0.59518 0.99371 0.71397 0.0
C1176 C 0.58847 0.00391 0.67621 0.0
C1177 C 0.56895 0.99115 0.67612 0.0
H1178 H 0.57143 0.97293 0.72961 0.0
H1179 H 0.61597 0.01532 0.6956 0.0
C1180 C 0.67626 0.05093 0.76587 0.0
N1181 N 0.65899 0.04679 0.75203 0.0
C1182 C 0.69094 0.06834 0.76138 0.0
C1183 C 0.66949 0.07719 0.72876 0.0
C1184 C 0.65533 0.05956 0.73381 0.0
C1185 C 0.68784 0.08159 0.74241 0.0
H1186 H 0.679 0.04033 0.78008 0.0
H1187 H 0.64167 0.05576 0.72289 0.0
O1188 O 0.60951 0.97492 0.76468 0.0
O1189 O 0.64691 0.00466 0.78496 0.0
O1190 O 0.64589 0.99751 0.7359 0.0
O1191 O 0.60778 0.02426 0.7568 0.0
H1192 H 0.59133 0.94851 0.79486 0.0
H1193 H 0.61395 0.95281 0.72741 0.0
H1194 H 0.58149 0.90937 0.78898 0.0
H1195 H 0.60397 0.91356 0.72273 0.0
H1196 H 0.64772 0.04217 0.84961 0.0
H1197 H 0.65492 0.97115 0.81199 0.0
H1198 H 0.64434 0.04082 0.80869 0.0
H1199 H 0.65835 0.97373 0.85283 0.0
H1200 H 0.66764 0.9065 0.79137 0.0
H1201 H 0.71621 0.94774 0.758 0.0
H1202 H 0.56048 0.03919 0.83163 0.0
H1203 H 0.58637 0.97704 0.85439 0.0
H1204 H 0.65897 0.02445 0.7036 0.0
H1205 H 0.65151 0.95649 0.72275 0.0
H1206 H 0.67322 0.01274 0.6672 0.0
H1207 H 0.66564 0.94597 0.68596 0.0
H1208 H 0.59043 0.04199 0.72058 0.0
H1209 H 0.61799 0.05607 0.78469 0.0
H1210 H 0.58576 0.08193 0.71409 0.0
H1211 H 0.6128 0.09577 0.77714 0.0
H1212 H 0.54787 0.9699 0.69636 0.0
H1213 H 0.5938 0.01296 0.66158 0.0
H1214 H 0.70501 0.07086 0.77221 0.0
H1215 H 0.66623 0.08708 0.71413 0.0
Li1216 Li 0.02152 0.2602 0.86895 0.0
Li1217 Li 0.99751 0.27663 0.8975 0.0
Li1218 Li 0.00574 0.2376 0.8992 0.0
Li1219 Li 0.98192 0.25341 0.87009 0.0
C1220 C 0.04739 0.25507 0.90685 0.0
N1221 N 0.0887 0.23949 0.91789 0.0
C1222 C 0.05984 0.26525 0.92341 0.0
C1223 C 0.0559 0.23693 0.89592 0.0
C1224 C 0.08071 0.25714 0.92875 0.0
C1225 C 0.07683 0.22932 0.90174 0.0
C1226 C 0.98633 0.28983 0.8472 0.0
C1227 C 0.95471 0.30805 0.83143 0.0
N1228 N 0.9626 0.30422 0.81077 0.0
C1229 C 0.99422 0.28625 0.82581 0.0
C1230 C 0.96651 0.30099 0.85005 0.0
C1231 C 0.98195 0.29359 0.80761 0.0
C1232 C 0.04745 0.25328 0.83093 0.0
N1233 N 0.04646 0.26472 0.85008 0.0
C1234 C 0.07973 0.28435 0.84082 0.0
C1235 C 0.06224 0.27986 0.85537 0.0
C1236 C 0.08086 0.27333 0.82049 0.0
C1237 C 0.0645 0.2574 0.8158 0.0
H1238 H 0.03454 0.24149 0.82707 0.0
H1239 H 0.06104 0.28871 0.87075 0.0
C1240 C 0.99433 0.30022 0.93777 0.0
N1241 N 0.99382 0.30209 0.91531 0.0
C1242 C 0.99144 0.3187 0.95093 0.0
C1243 C 0.98824 0.34076 0.91759 0.0
C1244 C 0.99101 0.32185 0.9051 0.0
C1245 C 0.98834 0.33939 0.94088 0.0
H1246 H 0.99684 0.28433 0.94547 0.0
H1247 H 0.99111 0.32296 0.88722 0.0
C1248 C 0.99769 0.21121 0.8619 0.0
N1249 N 0.98044 0.17019 0.85227 0.0
C1250 C 0.97798 0.20393 0.87182 0.0
C1251 C 0.00857 0.19765 0.84706 0.0
C1252 C 0.96954 0.18314 0.86673 0.0
C1253 C 0.9996 0.17696 0.84243 0.0
C1254 C 0.96253 0.25903 0.91834 0.0
C1255 C 0.962 0.24903 0.93929 0.0
C1256 C 0.94881 0.27682 0.91385 0.0
C1257 C 0.94811 0.25733 0.95556 0.0
C1258 C 0.93518 0.28466 0.93057 0.0
N1259 N 0.93513 0.27485 0.95092 0.0
C1260 C 0.01552 0.22027 0.94108 0.0
C1261 C 0.01566 0.19302 0.91344 0.0
C1262 C 0.02129 0.20481 0.95728 0.0
N1263 N 0.01256 0.21416 0.91967 0.0
C1264 C 0.02132 0.17699 0.92913 0.0
C1265 C 0.02422 0.1828 0.95141 0.0
H1266 H 0.01349 0.23727 0.94553 0.0
H1267 H 0.01419 0.1885 0.8963 0.0
C1268 C 0.96207 0.24114 0.83003 0.0
N1269 N 0.95727 0.248 0.85079 0.0
C1270 C 0.94519 0.23722 0.81475 0.0
C1271 C 0.91856 0.24733 0.8425 0.0
C1272 C 0.93602 0.251 0.8573 0.0
C1273 C 0.92304 0.24041 0.82083 0.0
H1274 H 0.97911 0.23878 0.82531 0.0
H1275 H 0.9326 0.25635 0.87392 0.0
O1276 O 0.02682 0.26269 0.90168 0.0
O1277 O 0.99781 0.28219 0.86522 0.0
O1278 O 0.00616 0.23164 0.8663 0.0
O1279 O 0.97623 0.25127 0.90226 0.0
H1280 H 0.05341 0.27924 0.93208 0.0
H1281 H 0.04646 0.22875 0.88315 0.0
H1282 H 0.09054 0.26485 0.94153 0.0
H1283 H 0.08362 0.21529 0.89344 0.0
H1284 H 0.93927 0.31657 0.83341 0.0
H1285 H 0.00949 0.27768 0.82325 0.0
H1286 H 0.96021 0.30408 0.86644 0.0
H1287 H 0.98779 0.29077 0.79097 0.0
H1288 H 0.0921 0.29649 0.84537 0.0
H1289 H 0.06436 0.24873 0.80025 0.0
H1290 H 0.99145 0.31673 0.96878 0.0
H1291 H 0.98645 0.35635 0.90904 0.0
H1292 H 0.96927 0.21415 0.88332 0.0
H1293 H 0.02381 0.20305 0.83923 0.0
H1294 H 0.95433 0.17729 0.87428 0.0
H1295 H 0.00787 0.16628 0.831 0.0
H1296 H 0.97209 0.23494 0.94294 0.0
H1297 H 0.94891 0.28468 0.89774 0.0
H1298 H 0.94762 0.2498 0.97188 0.0
H1299 H 0.92466 0.29857 0.92737 0.0
H1300 H 0.0233 0.21003 0.97426 0.0
H1301 H 0.0239 0.16032 0.92378 0.0
H1302 H 0.94948 0.2315 0.79842 0.0
H1303 H 0.90178 0.25017 0.84788 0.0
Li1304 Li 0.52289 0.76409 0.36721 0.0
Li1305 Li 0.49952 0.78086 0.39586 0.0
Li1306 Li 0.50839 0.7408 0.39676 0.0
Li1307 Li 0.48191 0.7548 0.36946 0.0
C1308 C 0.55054 0.77224 0.40138 0.0
N1309 N 0.59471 0.78412 0.40425 0.0
C1310 C 0.55672 0.79254 0.41017 0.0
C1311 C 0.56684 0.7579 0.39424 0.0
C1312 C 0.57913 0.79826 0.41144 0.0
C1313 C 0.58908 0.76423 0.39577 0.0
C1314 C 0.48994 0.80267 0.35399 0.0
C1315 C 0.46052 0.82646 0.34207 0.0
N1316 N 0.47578 0.8415 0.33488 0.0
C1317 C 0.50531 0.81823 0.34617 0.0
C1318 C 0.46734 0.8067 0.35167 0.0
C1319 C 0.49784 0.83781 0.3367 0.0
C1320 C 0.54869 0.756 0.32927 0.0
N1321 N 0.54643 0.76978 0.34664 0.0
C1322 C 0.57632 0.79236 0.33328 0.0
C1323 C 0.55982 0.78773 0.34886 0.0
C1324 C 0.57885 0.77867 0.31487 0.0
C1325 C 0.5648 0.76017 0.31311 0.0
H1326 H 0.53764 0.74201 0.3277 0.0
H1327 H 0.55752 0.79867 0.3626 0.0
C1328 C 0.48545 0.80583 0.43298 0.0
N1329 N 0.49587 0.80687 0.41302 0.0
C1330 C 0.48334 0.8247 0.44576 0.0
C1331 C 0.50315 0.84524 0.41747 0.0
C1332 C 0.50478 0.82604 0.40523 0.0
C1333 C 0.49236 0.84475 0.43808 0.0
H1334 H 0.47899 0.79029 0.43912 0.0
H1335 H 0.51362 0.82634 0.38972 0.0
C1336 C 0.51008 0.71303 0.36396 0.0
N1337 N 0.51522 0.66806 0.36471 0.0
C1338 C 0.49153 0.69912 0.36372 0.0
C1339 C 0.53124 0.70411 0.36435 0.0
C1340 C 0.49447 0.67641 0.36415 0.0
C1341 C 0.53349 0.68132 0.3648 0.0
C1342 C 0.45811 0.7583 0.40926 0.0
C1343 C 0.44693 0.74206 0.42157 0.0
C1344 C 0.44746 0.7779 0.40404 0.0
C1345 C 0.42514 0.7456 0.42817 0.0
C1346 C 0.42568 0.78084 0.41096 0.0
N1347 N 0.41505 0.76475 0.42275 0.0
C1348 C 0.53473 0.71457 0.42546 0.0
C1349 C 0.49843 0.70077 0.41954 0.0
C1350 C 0.53949 0.69687 0.4395 0.0
N1351 N 0.5145 0.71619 0.41578 0.0
C1352 C 0.50241 0.68287 0.43363 0.0
C1353 C 0.52318 0.68077 0.44384 0.0
H1354 H 0.54714 0.72713 0.42251 0.0
H1355 H 0.48251 0.70238 0.41157 0.0
C1356 C 0.45816 0.75479 0.32982 0.0
N1357 N 0.45665 0.7485 0.35144 0.0
C1358 C 0.44094 0.75018 0.31508 0.0
C1359 C 0.42085 0.73256 0.34508 0.0
C1360 C 0.4385 0.73751 0.35926 0.0
C1361 C 0.42195 0.73884 0.32261 0.0
H1362 H 0.47294 0.76319 0.32396 0.0
H1363 H 0.43783 0.73223 0.37637 0.0
O1364 O 0.52865 0.76644 0.39988 0.0
O1365 O 0.497 0.78327 0.36308 0.0
O1366 O 0.50751 0.73529 0.36406 0.0
O1367 O 0.47938 0.75498 0.40249 0.0
H1368 H 0.54437 0.80375 0.416 0.0
H1369 H 0.56236 0.74216 0.38735 0.0
H1370 H 0.58414 0.81395 0.41815 0.0
H1371 H 0.60184 0.75335 0.39016 0.0
H1372 H 0.44308 0.8298 0.34025 0.0
H1373 H 0.52284 0.81534 0.34758 0.0
H1374 H 0.45513 0.79465 0.35697 0.0
H1375 H 0.50959 0.85006 0.33077 0.0
H1376 H 0.58689 0.80663 0.33563 0.0
H1377 H 0.56575 0.74933 0.29907 0.0
H1378 H 0.4752 0.82349 0.4617 0.0
H1379 H 0.51028 0.86033 0.41083 0.0
H1380 H 0.47504 0.70577 0.36347 0.0
H1381 H 0.54575 0.71466 0.36438 0.0
H1382 H 0.48027 0.66544 0.36412 0.0
H1383 H 0.54977 0.67417 0.36523 0.0
H1384 H 0.45495 0.72685 0.42592 0.0
H1385 H 0.45601 0.79082 0.39503 0.0
H1386 H 0.41627 0.73313 0.4376 0.0
H1387 H 0.41726 0.79594 0.40702 0.0
H1388 H 0.55561 0.69609 0.4473 0.0
H1389 H 0.48943 0.67073 0.4364 0.0
H1390 H 0.44278 0.75497 0.29784 0.0
H1391 H 0.40652 0.72388 0.35167 0.0
Li1392 Li 0.00526 0.77061 0.61447 0.0
Li1393 Li 0.9819 0.75555 0.64369 0.0
Li1394 Li 0.02232 0.74868 0.64524 0.0
Li1395 Li 0.9981 0.73057 0.61838 0.0
C1396 C 0.99838 0.79677 0.65394 0.0
N1397 N 0.98092 0.83547 0.66916 0.0
C1398 C 0.98384 0.8088 0.64068 0.0
C1399 C 0.00406 0.80445 0.67494 0.0
C1400 C 0.97518 0.82831 0.64866 0.0
C1401 C 0.99506 0.82405 0.68234 0.0
C1402 C 0.95513 0.75775 0.60754 0.0
C1403 C 0.91694 0.7465 0.61147 0.0
N1404 N 0.91064 0.76523 0.60088 0.0
C1405 C 0.94829 0.77681 0.59655 0.0
C1406 C 0.93936 0.74238 0.61493 0.0
C1407 C 0.92571 0.78031 0.5934 0.0
C1408 C 0.00518 0.78979 0.57199 0.0
N1409 N 0.01085 0.79364 0.5934 0.0
C1410 C 0.02484 0.82935 0.58364 0.0
C1411 C 0.02068 0.81286 0.59944 0.0
C1412 C 0.01911 0.82587 0.56138 0.0
C1413 C 0.00918 0.80574 0.55563 0.0
H1414 H 0.99754 0.77426 0.56765 0.0
H1415 H 0.02544 0.81536 0.61651 0.0
C1416 C 0.95612 0.75027 0.68226 0.0
N1417 N 0.95713 0.76147 0.66267 0.0
C1418 C 0.93952 0.75468 0.69762 0.0
C1419 C 0.92503 0.78186 0.67227 0.0
C1420 C 0.94197 0.77702 0.65748 0.0
C1421 C 0.92375 0.77082 0.69282 0.0
H1422 H 0.96853 0.73822 0.68619 0.0
H1423 H 0.94311 0.78597 0.64199 0.0
C1424 C 0.04684 0.754 0.60583 0.0
N1425 N 0.08716 0.7706 0.5916 0.0
C1426 C 0.05781 0.74422 0.58824 0.0
C1427 C 0.05634 0.77224 0.61618 0.0
C1428 C 0.0782 0.75285 0.58129 0.0
C1429 C 0.07675 0.78039 0.60874 0.0
C1430 C 0.99518 0.70601 0.65429 0.0
C1431 C 0.01388 0.69303 0.65705 0.0
C1432 C 0.97418 0.69616 0.65419 0.0
C1433 C 0.01127 0.6703 0.6593 0.0
C1434 C 0.97226 0.67338 0.65649 0.0
N1435 N 0.99069 0.66102 0.65895 0.0
C1436 C 0.04757 0.7533 0.68458 0.0
C1437 C 0.06563 0.73426 0.65597 0.0
C1438 C 0.06614 0.75141 0.69827 0.0
N1439 N 0.04777 0.74506 0.66376 0.0
C1440 C 0.08458 0.73206 0.66904 0.0
C1441 C 0.08511 0.74086 0.69048 0.0
H1442 H 0.03295 0.76131 0.69057 0.0
H1443 H 0.06525 0.72745 0.63952 0.0
C1444 C 0.97633 0.69907 0.59068 0.0
N1445 N 0.99515 0.70401 0.602 0.0
C1446 C 0.97481 0.67983 0.57833 0.0
C1447 C 0.01208 0.67115 0.58952 0.0
C1448 C 0.01293 0.69062 0.60149 0.0
C1449 C 0.99286 0.66552 0.5776 0.0
H1450 H 0.96258 0.71018 0.59095 0.0
H1451 H 0.02781 0.69509 0.61042 0.0
O1452 O 0.00695 0.77754 0.64646 0.0
O1453 O 0.97717 0.75406 0.61078 0.0
O1454 O 0.0268 0.74579 0.6127 0.0
O1455 O 0.99742 0.72823 0.65157 0.0
H1456 H 0.97911 0.80304 0.62448 0.0
H1457 H 0.01532 0.79542 0.68544 0.0
H1458 H 0.96384 0.83772 0.63858 0.0
H1459 H 0.99932 0.83018 0.69856 0.0
H1460 H 0.90455 0.73481 0.61723 0.0
H1461 H 0.96026 0.78882 0.59058 0.0
H1462 H 0.94436 0.72753 0.62338 0.0
H1463 H 0.92018 0.79504 0.58501 0.0
H1464 H 0.03284 0.84449 0.58872 0.0
H1465 H 0.00437 0.80243 0.53869 0.0
H1466 H 0.93949 0.74598 0.71337 0.0
H1467 H 0.91314 0.79424 0.66766 0.0
H1468 H 0.05063 0.7301 0.58005 0.0
H1469 H 0.04809 0.78003 0.62983 0.0
H1470 H 0.08689 0.74543 0.5677 0.0
H1471 H 0.0843 0.79449 0.6166 0.0
H1472 H 0.03025 0.7004 0.65719 0.0
H1473 H 0.95953 0.70601 0.65238 0.0
H1474 H 0.02561 0.66003 0.66127 0.0
H1475 H 0.95612 0.66552 0.65633 0.0
H1476 H 0.06558 0.75806 0.71481 0.0
H1477 H 0.09881 0.72396 0.66221 0.0
H1478 H 0.95979 0.67643 0.56913 0.0
H1479 H 0.02632 0.66057 0.58978 0.0
Li1480 Li 0.50445 0.27039 0.11442 0.0
Li1481 Li 0.48097 0.25521 0.14348 0.0
Li1482 Li 0.52136 0.24839 0.14518 0.0
Li1483 Li 0.4973 0.23034 0.11816 0.0
C1484 C 0.49732 0.29647 0.15383 0.0
N1485 N 0.4797 0.33517 0.16887 0.0
C1486 C 0.48296 0.30853 0.14041 0.0
C1487 C 0.50274 0.30412 0.17492 0.0
C1488 C 0.47421 0.32804 0.1483 0.0
C1489 C 0.49367 0.32372 0.18222 0.0
C1490 C 0.45436 0.25758 0.10727 0.0
C1491 C 0.41613 0.24642 0.11115 0.0
N1492 N 0.40989 0.26517 0.10055 0.0
C1493 C 0.44758 0.27666 0.09626 0.0
C1494 C 0.43854 0.24225 0.11463 0.0
C1495 C 0.42502 0.28022 0.09308 0.0
C1496 C 0.50467 0.28949 0.07195 0.0
N1497 N 0.51021 0.2934 0.09338 0.0
C1498 C 0.52458 0.32895 0.08355 0.0
C1499 C 0.52014 0.31259 0.09941 0.0
C1500 C 0.51904 0.32538 0.06126 0.0
C1501 C 0.50896 0.30531 0.05554 0.0
H1502 H 0.49697 0.27399 0.06763 0.0
H1503 H 0.52478 0.31512 0.1165 0.0
C1504 C 0.45488 0.24965 0.18183 0.0
N1505 N 0.45609 0.26103 0.16235 0.0
C1506 C 0.4382 0.25399 0.19712 0.0
C1507 C 0.42404 0.2815 0.17194 0.0
C1508 C 0.44104 0.27671 0.15721 0.0
C1509 C 0.42256 0.27027 0.19237 0.0
H1510 H 0.4672 0.23749 0.18573 0.0
H1511 H 0.44233 0.28578 0.14181 0.0
C1512 C 0.54607 0.25381 0.10591 0.0
N1513 N 0.58646 0.27042 0.09187 0.0
C1514 C 0.55708 0.24409 0.08831 0.0
C1515 C 0.55556 0.272 0.11637 0.0
C1516 C 0.57751 0.25271 0.08147 0.0
C1517 C 0.576 0.28015 0.10902 0.0
C1518 C 0.49425 0.2056 0.15378 0.0
C1519 C 0.51296 0.19259 0.15627 0.0
C1520 C 0.47325 0.19575 0.15361 0.0
C1521 C 0.51036 0.16983 0.1582 0.0
C1522 C 0.47134 0.17294 0.15558 0.0
N1523 N 0.48978 0.16056 0.15778 0.0
C1524 C 0.54674 0.25327 0.18441 0.0
C1525 C 0.56454 0.23375 0.15597 0.0
C1526 C 0.56537 0.25145 0.19803 0.0
N1527 N 0.54679 0.24476 0.1637 0.0
C1528 C 0.58353 0.2316 0.16898 0.0
C1529 C 0.58423 0.24067 0.19028 0.0
H1530 H 0.53221 0.26146 0.19036 0.0
H1531 H 0.56404 0.22677 0.1396 0.0
C1532 C 0.47561 0.19875 0.09052 0.0
N1533 N 0.49452 0.20389 0.10161 0.0
C1534 C 0.47424 0.17964 0.07796 0.0
C1535 C 0.51183 0.17149 0.08846 0.0
C1536 C 0.51251 0.19081 0.10068 0.0
C1537 C 0.49254 0.16569 0.07676 0.0
H1538 H 0.46167 0.20961 0.09114 0.0
H1539 H 0.52745 0.19543 0.10945 0.0
O1540 O 0.50597 0.27724 0.14644 0.0
O1541 O 0.47639 0.25383 0.11054 0.0
O1542 O 0.526 0.2456 0.11268 0.0
O1543 O 0.49648 0.22786 0.15135 0.0
H1544 H 0.47841 0.30278 0.12415 0.0
H1545 H 0.51385 0.29506 0.18555 0.0
H1546 H 0.46301 0.33748 0.13808 0.0
H1547 H 0.49773 0.32982 0.1985 0.0
H1548 H 0.40371 0.23477 0.11689 0.0
H1549 H 0.45959 0.28863 0.0903 0.0
H1550 H 0.44349 0.22739 0.12311 0.0
H1551 H 0.41953 0.29496 0.08468 0.0
H1552 H 0.53269 0.34404 0.08861 0.0
H1553 H 0.50427 0.30195 0.03858 0.0
H1554 H 0.43801 0.24514 0.21278 0.0
H1555 H 0.41224 0.29398 0.16737 0.0
H1556 H 0.54991 0.23001 0.08004 0.0
H1557 H 0.54727 0.27975 0.13001 0.0
H1558 H 0.58624 0.24535 0.06787 0.0
H1559 H 0.58354 0.29421 0.11696 0.0
H1560 H 0.52933 0.19996 0.15644 0.0
H1561 H 0.4586 0.20562 0.15198 0.0
H1562 H 0.52471 0.15954 0.15996 0.0
H1563 H 0.4552 0.16508 0.15536 0.0
H1564 H 0.56495 0.25832 0.21448 0.0
H1565 H 0.59768 0.22331 0.16219 0.0
H1566 H 0.45914 0.17609 0.06895 0.0
H1567 H 0.52626 0.16116 0.08835 0.0
C1568 C 0.22007 0.78833 0.87083 0.0
C1569 C 0.23985 0.78249 0.8603 0.0
H1570 H 0.20492 0.80406 0.89831 0.0
C1571 C 0.26005 0.78841 0.87034 0.0
H1572 H 0.20419 0.78428 0.86355 0.0
C1573 C 0.26048 0.8003 0.88999 0.0
C1574 C 0.24072 0.80638 0.90042 0.0
H1575 H 0.27565 0.78391 0.86301 0.0
H1576 H 0.2764 0.80508 0.89674 0.0
C1577 C 0.2205 0.80003 0.89066 0.0
C1578 C 0.03654 0.5295 0.39608 0.0
C1579 C 0.03491 0.51114 0.41036 0.0
H1580 H 0.0495 0.54284 0.36567 0.0
C1581 C 0.04463 0.4914 0.40386 0.0
H1582 H 0.02942 0.54501 0.40067 0.0
C1583 C 0.05611 0.49015 0.38386 0.0
C1584 C 0.05819 0.50861 0.36979 0.0
H1585 H 0.04329 0.4768 0.41421 0.0
H1586 H 0.06327 0.47463 0.37937 0.0
C1587 C 0.04806 0.52825 0.37602 0.0
C1588 C 0.79193 0.71702 0.87821 0.0
C1589 C 0.78401 0.73859 0.87919 0.0
H1590 H 0.79316 0.68524 0.89362 0.0
C1591 C 0.76989 0.7441 0.89671 0.0
H1592 H 0.80264 0.71213 0.86484 0.0
C1593 C 0.76421 0.7286 0.91305 0.0
C1594 C 0.77255 0.70718 0.91238 0.0
H1595 H 0.76367 0.7606 0.89818 0.0
H1596 H 0.75335 0.73347 0.92631 0.0
C1597 C 0.78628 0.70151 0.8946 0.0
C1598 C 0.98283 0.99236 0.36918 0.0
C1599 C 0.98175 0.97336 0.38261 0.0
H1600 H 0.96785 0.01123 0.34319 0.0
C1601 C 0.96321 0.95933 0.38079 0.0
H1602 H 0.99679 0.00362 0.37034 0.0
C1603 C 0.94657 0.96374 0.36531 0.0
C1604 C 0.94802 0.98236 0.35137 0.0
H1605 H 0.96193 0.94448 0.39077 0.0
H1606 H 0.93271 0.95238 0.36401 0.0
C1607 C 0.96613 0.99684 0.35378 0.0
C1608 C 0.19523 0.22458 0.62378 0.0
C1609 C 0.21119 0.23869 0.63318 0.0
H1610 H 0.18851 0.19802 0.60194 0.0
C1611 C 0.23362 0.23516 0.6284 0.0
H1612 H 0.17783 0.22647 0.62735 0.0
C1613 C 0.23985 0.21832 0.6142 0.0
C1614 C 0.22381 0.20464 0.60427 0.0
H1615 H 0.2464 0.24576 0.63515 0.0
H1616 H 0.25727 0.21612 0.61092 0.0
C1617 C 0.20143 0.20793 0.60942 0.0
C1618 C 0.47346 0.52982 0.62266 0.0
C1619 C 0.49404 0.5386 0.62933 0.0
H1620 H 0.44134 0.51814 0.63264 0.0
C1621 C 0.49759 0.5425 0.652 0.0
H1622 H 0.47021 0.52633 0.6054 0.0
C1623 C 0.48114 0.53759 0.66758 0.0
C1624 C 0.46063 0.52884 0.6609 0.0
H1625 H 0.51299 0.54971 0.65775 0.0
H1626 H 0.48437 0.54101 0.68486 0.0
C1627 C 0.45692 0.52509 0.63826 0.0
C1628 C 0.78049 0.2848 0.63804 0.0
C1629 C 0.77794 0.26233 0.6335 0.0
H1630 H 0.77701 0.31785 0.62614 0.0
C1631 C 0.7687 0.25614 0.61307 0.0
H1632 H 0.78768 0.29013 0.65355 0.0
C1633 C 0.76277 0.27199 0.59731 0.0
C1634 C 0.76593 0.29446 0.60155 0.0
H1635 H 0.76624 0.23898 0.60915 0.0
H1636 H 0.75634 0.26657 0.58152 0.0
C1637 C 0.7746 0.30068 0.62223 0.0
C1638 C 0.53834 0.00858 0.624 0.0
C1639 C 0.52909 0.98863 0.61674 0.0
H1640 H 0.55789 0.02505 0.64841 0.0
C1641 C 0.53262 0.96951 0.62949 0.0
H1642 H 0.5362 0.02358 0.61446 0.0
C1643 C 0.54527 0.97033 0.64893 0.0
C1644 C 0.5548 0.99025 0.65595 0.0
H1645 H 0.52559 0.95391 0.62444 0.0
H1646 H 0.54796 0.95528 0.6582 0.0
C1647 C 0.55103 0.00938 0.64333 0.0
C1648 C 0.86842 0.22123 0.79576 0.0
C1649 C 0.87148 0.22633 0.77316 0.0
H1650 H 0.88224 0.22143 0.82845 0.0
C1651 C 0.89124 0.23699 0.76663 0.0
H1652 H 0.85333 0.21325 0.80145 0.0
C1653 C 0.90765 0.24198 0.78214 0.0
C1654 C 0.90487 0.23633 0.80463 0.0
H1655 H 0.89437 0.24094 0.74937 0.0
H1656 H 0.92264 0.25016 0.77644 0.0
C1657 C 0.88491 0.22615 0.8113 0.0
C1658 C 0.50799 0.89871 0.46513 0.0
C1659 C 0.48832 0.90428 0.47599 0.0
H1660 H 0.52477 0.87557 0.44503 0.0
C1661 C 0.47012 0.88971 0.47487 0.0
H1662 H 0.5225 0.90928 0.46604 0.0
C1663 C 0.47146 0.87026 0.46281 0.0
C1664 C 0.49101 0.86499 0.45157 0.0
H1665 H 0.45466 0.89358 0.48286 0.0
H1666 H 0.457 0.85963 0.46185 0.0
C1667 C 0.50931 0.87935 0.45307 0.0
C1668 C 0.12005 0.30703 0.78399 0.0
C1669 C 0.12828 0.29114 0.76954 0.0
H1670 H 0.09853 0.31405 0.81094 0.0
C1671 C 0.12187 0.26908 0.77293 0.0
H1672 H 0.12489 0.32413 0.78218 0.0
C1673 C 0.10706 0.26319 0.78985 0.0
C1674 C 0.09816 0.27921 0.80375 0.0
H1675 H 0.12773 0.25639 0.76208 0.0
H1676 H 0.1024 0.24606 0.79184 0.0
C1677 C 0.10513 0.30117 0.80078 0.0
C1678 C 0.55279 0.63494 0.47448 0.0
C1679 C 0.5375 0.62931 0.4912 0.0
H1680 H 0.56022 0.65555 0.44639 0.0
C1681 C 0.51703 0.63997 0.49153 0.0
H1682 H 0.56877 0.62715 0.47389 0.0
C1683 C 0.51214 0.65624 0.47579 0.0
C1684 C 0.5277 0.66235 0.4595 0.0
H1685 H 0.50485 0.63586 0.5041 0.0
H1686 H 0.49643 0.6645 0.4768 0.0
C1687 C 0.54798 0.65135 0.45888 0.0
C1688 C 0.88156 0.7664 0.73953 0.0
C1689 C 0.87587 0.78848 0.74252 0.0
H1690 H 0.90078 0.74345 0.72141 0.0
C1691 C 0.88539 0.80453 0.72842 0.0
H1692 H 0.87472 0.75361 0.75018 0.0
C1693 C 0.90063 0.79875 0.71219 0.0
C1694 C 0.90668 0.77674 0.70946 0.0
H1695 H 0.88118 0.82166 0.73 0.0
H1696 H 0.90807 0.81169 0.70213 0.0
C1697 C 0.89676 0.7606 0.7232 0.0
C1698 C 0.02365 0.8812 0.53189 0.0
C1699 C 0.03271 0.87544 0.51133 0.0
H1700 H 0.01213 0.8701 0.56372 0.0
C1701 C 0.03724 0.85321 0.50747 0.0
H1702 H 0.01965 0.89809 0.53535 0.0
C1703 C 0.03273 0.83718 0.52365 0.0
C1704 C 0.02375 0.84297 0.54418 0.0
H1705 H 0.04466 0.84817 0.49206 0.0
H1706 H 0.03668 0.82027 0.52022 0.0
C1707 C 0.0193 0.86516 0.54814 0.0
C1708 C 0.13858 0.71999 0.71604 0.0
C1709 C 0.14562 0.73804 0.72867 0.0
H1710 H 0.11393 0.70654 0.69443 0.0
C1711 C 0.13204 0.75659 0.72945 0.0
H1712 H 0.14867 0.7055 0.71489 0.0
C1713 C 0.11228 0.75733 0.71741 0.0
C1714 C 0.10551 0.7395 0.70433 0.0
H1715 H 0.13677 0.77068 0.73923 0.0
H1716 H 0.10263 0.77215 0.71792 0.0
C1717 C 0.11877 0.72071 0.70404 0.0
C1718 C 0.00981 0.61772 0.54164 0.0
C1719 C 0.99026 0.60504 0.54084 0.0
H1720 H 0.02584 0.64688 0.55326 0.0
C1721 C 0.97132 0.61273 0.55157 0.0
H1722 H 0.0246 0.61238 0.53327 0.0
C1723 C 0.97207 0.6324 0.56331 0.0
C1724 C 0.99176 0.64494 0.56447 0.0
H1725 H 0.95608 0.60319 0.55146 0.0
H1726 H 0.95736 0.63745 0.57198 0.0
C1727 C 0.01053 0.63746 0.55321 0.0
C1728 C 0.77248 0.89031 0.1928 0.0
C1729 C 0.75939 0.87953 0.20892 0.0
H1730 H 0.79786 0.91407 0.18587 0.0
C1731 C 0.76335 0.88418 0.23137 0.0
H1732 H 0.77023 0.88695 0.17536 0.0
C1733 C 0.77972 0.89941 0.23748 0.0
C1734 C 0.79248 0.91054 0.2213 0.0
H1735 H 0.75349 0.8764 0.24428 0.0
H1736 H 0.78236 0.90243 0.25493 0.0
C1737 C 0.78866 0.90569 0.19888 0.0
C1738 C 0.77413 0.13074 0.25289 0.0
C1739 C 0.77899 0.14615 0.26943 0.0
H1740 H 0.7821 0.10003 0.23828 0.0
C1741 C 0.79559 0.14125 0.285 0.0
H1742 H 0.76126 0.13382 0.24079 0.0
C1743 C 0.80737 0.12169 0.28374 0.0
C1744 C 0.80287 0.10652 0.26686 0.0
H1745 H 0.79993 0.15279 0.29785 0.0
H1746 H 0.82009 0.1185 0.29596 0.0
C1747 C 0.78592 0.1112 0.25161 0.0
C1748 C 0.38756 0.96446 0.01662 0.0
C1749 C 0.39698 0.97056 0.99611 0.0
H1750 H 0.36096 0.94831 0.03371 0.0
C1751 C 0.38592 0.96433 0.97659 0.0
H1752 H 0.39568 0.96862 0.03203 0.0
C1753 C 0.3662 0.95207 0.97757 0.0
C1754 C 0.35688 0.94586 0.99809 0.0
H1755 H 0.39245 0.96894 0.96049 0.0
H1756 H 0.3585 0.94716 0.96217 0.0
C1757 C 0.36775 0.95241 0.01759 0.0
C1758 C 0.23373 0.37772 0.27143 0.0
C1759 C 0.24096 0.37497 0.29344 0.0
H1760 H 0.21175 0.39427 0.24913 0.0
C1761 C 0.2306 0.38699 0.31015 0.0
H1762 H 0.24142 0.36883 0.25813 0.0
C1763 C 0.21385 0.40174 0.30498 0.0
C1764 C 0.20684 0.40483 0.28295 0.0
H1765 H 0.23548 0.38504 0.32732 0.0
H1766 H 0.20675 0.41112 0.31827 0.0
C1767 C 0.21688 0.3925 0.26624 0.0
C1768 C 0.12736 0.03189 0.45807 0.0
C1769 C 0.1223 0.01405 0.47222 0.0
H1770 H 0.14741 0.06059 0.45239 0.0
C1771 C 0.13335 0.01237 0.49265 0.0
H1772 H 0.11934 0.03348 0.44208 0.0
C1773 C 0.14931 0.02801 0.49868 0.0
C1774 C 0.15475 0.04564 0.48434 0.0
H1775 H 0.12959 0.99897 0.50404 0.0
H1776 H 0.15733 0.0263 0.51464 0.0
C1777 C 0.14344 0.04746 0.46402 0.0
C1778 C 0.72657 0.11785 0.70809 0.0
C1779 C 0.7373 0.13045 0.72436 0.0
H1780 H 0.70298 0.0925 0.70098 0.0
C1781 C 0.73094 0.12753 0.74662 0.0
H1782 H 0.73081 0.11988 0.69075 0.0
C1783 C 0.71463 0.112 0.75248 0.0
C1784 C 0.70429 0.09904 0.73623 0.0
H1785 H 0.73894 0.13685 0.7596 0.0
H1786 H 0.7102 0.11009 0.76978 0.0
C1787 C 0.71035 0.10233 0.71394 0.0
C1788 C 0.3865 0.0438 0.54131 0.0
C1789 C 0.39465 0.03368 0.52222 0.0
H1790 H 0.36151 0.06394 0.55531 0.0
C1791 C 0.38252 0.03543 0.50241 0.0
H1792 H 0.3956 0.04299 0.55676 0.0
C1793 C 0.36294 0.04734 0.50159 0.0
C1794 C 0.35502 0.05792 0.52053 0.0
H1795 H 0.38817 0.02754 0.4875 0.0
H1796 H 0.35396 0.04818 0.48607 0.0
C1797 C 0.36694 0.05581 0.54046 0.0
C1798 C 0.65151 0.49595 0.54404 0.0
C1799 C 0.62912 0.49377 0.53798 0.0
H1800 H 0.68364 0.48171 0.54427 0.0
C1801 C 0.62215 0.47453 0.52718 0.0
H1802 H 0.65739 0.51027 0.55284 0.0
C1803 C 0.63727 0.45802 0.52236 0.0
C1804 C 0.6597 0.46042 0.52816 0.0
H1805 H 0.6051 0.47237 0.52208 0.0
H1806 H 0.63147 0.44358 0.51369 0.0
C1807 C 0.66658 0.47953 0.53916 0.0
C1808 C 0.75868 0.28652 0.37094 0.0
C1809 C 0.73863 0.28237 0.3598 0.0
H1810 H 0.77499 0.30195 0.39815 0.0
C1811 C 0.71896 0.29024 0.36904 0.0
H1812 H 0.77414 0.28045 0.36455 0.0
C1813 C 0.71939 0.30225 0.38868 0.0
C1814 C 0.73952 0.30678 0.39955 0.0
H1815 H 0.70323 0.28757 0.36086 0.0
H1816 H 0.70391 0.30796 0.39533 0.0
C1817 C 0.75913 0.29862 0.39046 0.0
C1818 C 0.54478 0.0311 0.89768 0.0
C1819 C 0.53464 0.01224 0.90697 0.0
H1820 H 0.56463 0.04464 0.87139 0.0
C1821 C 0.53615 0.99229 0.89562 0.0
H1822 H 0.54415 0.04667 0.90611 0.0
C1823 C 0.54787 0.99112 0.87574 0.0
C1824 C 0.55839 0.00987 0.86667 0.0
H1825 H 0.52818 0.97753 0.90207 0.0
H1826 H 0.54857 0.9755 0.86742 0.0
C1827 C 0.55652 0.02993 0.87777 0.0
C1828 C 0.28974 0.21703 0.37854 0.0
C1829 C 0.28287 0.23894 0.37993 0.0
H1830 H 0.29016 0.18514 0.39379 0.0
C1831 C 0.26988 0.24501 0.39811 0.0
H1832 H 0.29956 0.2117 0.36467 0.0
C1833 C 0.26421 0.22971 0.41464 0.0
C1834 C 0.27146 0.20792 0.41352 0.0
H1835 H 0.26451 0.26178 0.39993 0.0
H1836 H 0.25418 0.23502 0.42837 0.0
C1837 C 0.28411 0.20172 0.39513 0.0
C1838 C 0.48572 0.49079 0.8678 0.0
C1839 C 0.48413 0.4722 0.88177 0.0
H1840 H 0.47106 0.50957 0.84158 0.0
C1841 C 0.46502 0.45886 0.88064 0.0
H1842 H 0.50011 0.50154 0.86842 0.0
C1843 C 0.44827 0.46355 0.86536 0.0
C1844 C 0.45019 0.48174 0.85089 0.0
H1845 H 0.46333 0.44433 0.89103 0.0
H1846 H 0.43393 0.45274 0.86466 0.0
C1847 C 0.46894 0.49552 0.85258 0.0
C1848 C 0.73413 0.73472 0.12557 0.0
C1849 C 0.71164 0.73816 0.13014 0.0
H1850 H 0.75804 0.71556 0.1086 0.0
C1851 C 0.69586 0.72367 0.12102 0.0
H1852 H 0.74677 0.74561 0.13212 0.0
C1853 C 0.70228 0.70675 0.1071 0.0
C1854 C 0.72472 0.70361 0.10208 0.0
H1855 H 0.67841 0.7255 0.12446 0.0
H1856 H 0.6895 0.69654 0.09979 0.0
C1857 C 0.74058 0.71764 0.11178 0.0
C1858 C 0.99894 0.04491 0.15569 0.0
C1859 C 0.99638 0.04136 0.13282 0.0
H1860 H 0.98448 0.04241 0.188 0.0
C1861 C 0.97618 0.03249 0.12517 0.0
H1862 H 0.01399 0.0522 0.16221 0.0
C1863 C 0.9591 0.02722 0.14001 0.0
C1864 C 0.96191 0.03045 0.16285 0.0
H1865 H 0.97367 0.02924 0.10775 0.0
H1866 H 0.94386 0.02017 0.13367 0.0
C1867 C 0.98198 0.03941 0.17051 0.0
C1868 C 0.2951 0.78471 0.13324 0.0
C1869 C 0.28202 0.76588 0.13749 0.0
H1870 H 0.29971 0.81397 0.1138 0.0
C1871 C 0.26224 0.76304 0.1255 0.0
H1872 H 0.3103 0.78756 0.14234 0.0
C1873 C 0.256 0.77836 0.10929 0.0
C1874 C 0.26937 0.79692 0.10467 0.0
H1875 H 0.25185 0.74864 0.12818 0.0
H1876 H 0.24074 0.77559 0.10028 0.0
C1877 C 0.28887 0.80001 0.11704 0.0
C1878 C 0.03875 0.46649 0.12793 0.0
C1879 C 0.02963 0.48539 0.11812 0.0
H1880 H 0.05812 0.45308 0.1544 0.0
C1881 C 0.03273 0.50564 0.12871 0.0
H1882 H 0.0365 0.45058 0.12039 0.0
C1883 C 0.04482 0.50702 0.14841 0.0
C1884 C 0.05429 0.48821 0.15801 0.0
H1885 H 0.02623 0.52061 0.12155 0.0
H1886 H 0.04674 0.5229 0.1561 0.0
C1887 C 0.05094 0.46789 0.14761 0.0
C1888 C 0.37747 0.70604 0.29251 0.0
C1889 C 0.37172 0.72038 0.27506 0.0
H1890 H 0.39784 0.70045 0.32098 0.0
C1891 C 0.38179 0.74131 0.27409 0.0
H1892 H 0.36983 0.68991 0.29395 0.0
C1893 C 0.39766 0.74748 0.2898 0.0
C1894 C 0.4039 0.73289 0.30686 0.0
H1895 H 0.37793 0.75272 0.2608 0.0
H1896 H 0.4052 0.76366 0.28844 0.0
C1897 C 0.39335 0.7122 0.30819 0.0
C1898 C 0.99601 0.38165 0.98634 0.0
C1899 C 0.98235 0.39871 0.97892 0.0
H1900 H 0.00904 0.34987 0.98002 0.0
C1901 C 0.96995 0.39574 0.95946 0.0
H1902 H 0.00597 0.38356 1.00114 0.0
C1903 C 0.9715 0.37635 0.94744 0.0
C1904 C 0.98568 0.35949 0.95446 0.0
H1905 H 0.95903 0.40847 0.95349 0.0
H1906 H 0.96158 0.37461 0.9326 0.0
C1907 C 0.99773 0.36231 0.97422 0.0
C1908 C 0.62088 0.77288 0.26835 0.0
C1909 C 0.62495 0.7949 0.26215 0.0
H1910 H 0.60365 0.75047 0.28999 0.0
C1911 C 0.61442 0.81148 0.27407 0.0
H1912 H 0.62852 0.75964 0.25947 0.0
C1913 C 0.59972 0.80621 0.29121 0.0
C1914 C 0.59532 0.78419 0.29719 0.0
H1915 H 0.61741 0.82863 0.27011 0.0
H1916 H 0.59142 0.81948 0.2994 0.0
C1917 C 0.60632 0.7676 0.28568 0.0
C1918 C 0.02694 0.12937 0.98446 0.0
C1919 C 0.04291 0.13442 1.00065 0.0
H1920 H 0.00834 0.14069 0.95642 0.0
C1921 C 0.05275 0.15548 1.00037 0.0
H1922 H 0.01879 0.11343 0.98435 0.0
C1923 C 0.04666 0.17112 0.98445 0.0
C1924 C 0.03065 0.1661 0.96833 0.0
H1925 H 0.06543 0.15983 0.01228 0.0
H1926 H 0.05477 0.18708 0.98457 0.0
C1927 C 0.02091 0.14501 0.96847 0.0
C1928 C 0.38007 0.26575 0.23881 0.0
C1929 C 0.37463 0.28786 0.24204 0.0
H1930 H 0.39914 0.2428 0.22051 0.0
C1931 C 0.38439 0.30396 0.22817 0.0
H1932 H 0.37303 0.25292 0.24928 0.0
C1933 C 0.39962 0.29821 0.21193 0.0
C1934 C 0.40545 0.27616 0.20898 0.0
H1935 H 0.38037 0.32111 0.22994 0.0
H1936 H 0.40725 0.31118 0.20205 0.0
C1937 C 0.39529 0.25997 0.22248 0.0
C1938 C 0.53798 0.35202 0.00729 0.0
C1939 C 0.53371 0.37434 0.0109 0.0
H1940 H 0.53689 0.3192 0.02033 0.0
C1941 C 0.52461 0.38042 0.03134 0.0
H1942 H 0.54542 0.34674 0.99198 0.0
C1943 C 0.51992 0.36458 0.04771 0.0
C1944 C 0.52408 0.34228 0.04397 0.0
H1945 H 0.52082 0.39739 0.03461 0.0
H1946 H 0.51271 0.36975 0.06318 0.0
C1947 C 0.53315 0.3362 0.02357 0.0
C1948 C 0.63152 0.25668 0.22867 0.0
C1949 C 0.64486 0.23795 0.22821 0.0
H1950 H 0.60222 0.27233 0.21697 0.0
C1951 C 0.63757 0.21973 0.21598 0.0
H1952 H 0.63646 0.2709 0.23815 0.0
C1953 C 0.61772 0.22043 0.20405 0.0
C1954 C 0.60467 0.23938 0.20404 0.0
H1955 H 0.64748 0.2051 0.21508 0.0
H1956 H 0.61268 0.20613 0.19473 0.0
C1957 C 0.61171 0.25739 0.21672 0.0
C1958 C 0.50972 0.11886 0.03963 0.0
C1959 C 0.4904 0.10581 0.039 0.0
H1960 H 0.52541 0.14811 0.05147 0.0
C1961 C 0.47155 0.11292 0.0503 0.0
H1962 H 0.52443 0.11398 0.03083 0.0
C1963 C 0.47216 0.13238 0.06239 0.0
C1964 C 0.49161 0.14529 0.06334 0.0
H1965 H 0.45649 0.10308 0.05036 0.0
H1966 H 0.45753 0.13698 0.07145 0.0
C1967 C 0.51029 0.13838 0.05157 0.0
C1968 C 0.27281 0.38951 0.69584 0.0
C1969 C 0.25971 0.37927 0.71231 0.0
H1970 H 0.2981 0.41315 0.68812 0.0
C1971 C 0.2635 0.38483 0.73457 0.0
H1972 H 0.27065 0.38544 0.67855 0.0
C1973 C 0.27971 0.40044 0.74014 0.0
C1974 C 0.29247 0.41101 0.7236 0.0
H1975 H 0.25363 0.37749 0.74771 0.0
H1976 H 0.28222 0.40419 0.75746 0.0
C1977 C 0.28885 0.40523 0.70138 0.0
C1978 C 0.29387 0.64028 0.78751 0.0
C1979 C 0.28028 0.64682 0.76975 0.0
H1980 H 0.31591 0.61618 0.80064 0.0
C1981 C 0.27834 0.63295 0.75136 0.0
H1982 H 0.29594 0.6506 0.80187 0.0
C1983 C 0.29013 0.6134 0.75047 0.0
C1984 C 0.30409 0.60706 0.76801 0.0
H1985 H 0.26779 0.63725 0.73751 0.0
H1986 H 0.28868 0.60353 0.73573 0.0
C1987 C 0.30559 0.62065 0.78667 0.0
C1988 C 0.88706 0.46296 0.51807 0.0
C1989 C 0.89697 0.46872 0.4977 0.0
H1990 H 0.86009 0.44695 0.53476 0.0
C1991 C 0.88648 0.46205 0.47803 0.0
H1992 H 0.89476 0.4675 0.53359 0.0
C1993 C 0.86679 0.44974 0.47872 0.0
C1994 C 0.85695 0.4439 0.4991 0.0
H1995 H 0.89345 0.46637 0.46203 0.0
H1996 H 0.85949 0.44453 0.46323 0.0
C1997 C 0.8673 0.45082 0.51875 0.0
C1998 C 0.72388 0.87058 0.78437 0.0
C1999 C 0.74474 0.87776 0.79192 0.0
H2000 H 0.6916 0.87975 0.7731 0.0
C2001 C 0.749 0.90044 0.79333 0.0
H2002 H 0.72003 0.85322 0.78322 0.0
C2003 C 0.73274 0.91558 0.78766 0.0
C2004 C 0.71175 0.90846 0.78044 0.0
H2005 H 0.76497 0.90653 0.79883 0.0
H2006 H 0.73649 0.9329 0.78938 0.0
C2007 C 0.70753 0.88577 0.77878 0.0
C2008 C 0.62068 0.53056 0.97831 0.0
C2009 C 0.62704 0.51036 0.9694 0.0
H2010 H 0.63121 0.56161 0.99128 0.0
C2011 C 0.64972 0.50639 0.96651 0.0
H2012 H 0.60341 0.53409 0.98103 0.0
C2013 C 0.66561 0.52207 0.97256 0.0
C2014 C 0.65925 0.5422 0.98152 0.0
H2015 H 0.65526 0.49126 0.95925 0.0
H2016 H 0.68291 0.51856 0.96989 0.0
C2017 C 0.63661 0.54633 0.98422 0.0
C2018 C 0.21991 0.62395 0.21205 0.0
C2019 C 0.23681 0.63005 0.22687 0.0
H2020 H 0.1917 0.60336 0.20598 0.0
C2021 C 0.23711 0.62029 0.24809 0.0
H2022 H 0.21899 0.63134 0.19568 0.0
C2023 C 0.22124 0.60442 0.25414 0.0
C2024 C 0.20466 0.59793 0.23911 0.0
H2025 H 0.24999 0.62446 0.25986 0.0
H2026 H 0.22204 0.59715 0.27057 0.0
C2027 C 0.20406 0.60808 0.21808 0.0
C2028 C 0.88686 0.54025 0.0417 0.0
C2029 C 0.89656 0.53225 0.02231 0.0
H2030 H 0.86083 0.55899 0.05578 0.0
C2031 C 0.88617 0.53631 1.00187 0.0
H2032 H 0.89463 0.53758 0.05767 0.0
C2033 C 0.86669 0.54836 1.00077 0.0
C2034 C 0.85719 0.55688 0.02008 0.0
H2035 H 0.89308 0.53008 0.98668 0.0
H2036 H 0.85903 0.5509 0.98474 0.0
C2037 C 0.86745 0.5525 0.04059 0.0
C2038 C 0.12279 0.97181 0.03497 0.0
C2039 C 0.13022 0.99358 0.03791 0.0
H2040 H 0.13145 0.93868 0.02754 0.0
C2041 C 0.15291 0.99835 0.03531 0.0
H2042 H 0.10542 0.96754 0.03654 0.0
C2043 C 0.16774 0.98185 0.02995 0.0
C2044 C 0.16034 0.9601 0.0272 0.0
H2045 H 0.15937 0.01477 0.03791 0.0
H2046 H 0.18514 0.98605 0.02847 0.0
C2047 C 0.13769 0.95525 0.02977 0.0
loop_
_geom_bond_atom_site_label_1
_geom_bond_atom_site_label_2
_geom_bond_distance
_geom_bond_site_symmetry_2
_ccdc_geom_bond_type
P0 O11 1.490 . S
P0 C14 1.812 . S
P0 C20 1.803 . S
P0 C26 1.819 . S
H1 C15 0.941 . S
H2 C16 0.939 . S
H3 C18 0.940 . S
H4 C19 0.940 . S
H5 C21 0.939 . S
H6 C22 0.942 . S
H7 C24 0.940 . S
H8 C25 0.939 . S
H9 C27 0.941 . S
H10 C31 0.939 . S
O11 P0 1.490 . S
H12 C28 0.939 . S
H13 C30 0.940 . S
C14 P0 1.812 . S
C14 C15 1.389 . S
C14 C19 1.391 . S
C15 H1 0.941 . S
C15 C14 1.389 . S
C15 C16 1.397 . S
C16 H2 0.939 . S
C16 C15 1.397 . S
C16 C17 1.378 1_455 S
C17 C16 1.378 1_655 S
C17 C18 1.378 . S
C18 H3 0.940 . S
C18 C17 1.378 . S
C18 C19 1.396 1_655 S
C19 H4 0.940 . S
C19 C14 1.391 . S
C19 C18 1.396 1_455 S
C20 P0 1.803 . S
C20 C21 1.378 . S
C20 C25 1.400 . S
C21 H5 0.939 . S
C21 C20 1.378 . S
C21 C22 1.361 . S
C22 H6 0.942 . S
C22 C21 1.361 . S
C22 C23 1.369 1_545 S
C23 C22 1.369 1_565 S
C23 C24 1.404 . S
C24 H7 0.940 . S
C24 C23 1.404 . S
C24 C25 1.389 1_565 S
C25 H8 0.939 . S
C25 C20 1.400 . S
C25 C24 1.389 1_545 S
C26 P0 1.819 . S
C26 C27 1.391 . S
C26 C31 1.391 . S
C27 H9 0.941 . S
C27 C26 1.391 . S
C27 C28 1.396 . S
C28 H12 0.939 . S
C28 C27 1.396 . S
C28 C29 1.397 1_554 S
C29 C28 1.397 1_556 S
C29 C30 1.385 . S
C30 H13 0.940 . S
C30 C29 1.385 . S
C30 C31 1.388 1_556 S
C31 H10 0.939 . S
C31 C26 1.391 . S
C31 C30 1.388 1_554 S
P32 O43 1.490 . S
P32 C46 1.812 . S
P32 C52 1.803 . S
P32 C58 1.819 . S
H33 C47 0.941 . S
H34 C48 0.939 . S
H35 C50 0.940 . S
H36 C51 0.940 . S
H37 C53 0.939 . S
H38 C54 0.942 . S
H39 C56 0.940 . S
H40 C57 0.939 . S
H41 C59 0.941 . S
H42 C63 0.939 . S
O43 P32 1.490 . S
H44 C60 0.939 . S
H45 C62 0.940 . S
C46 P32 1.812 . S
C46 C47 1.389 . S
C46 C51 1.391 . S
C47 H33 0.941 . S
C47 C46 1.389 . S
C47 C48 1.397 . S
C48 H34 0.939 . S
C48 C47 1.397 . S
C48 C49 1.378 . S
C49 C48 1.378 . S
C49 C50 1.378 . S
C50 H35 0.940 . S
C50 C49 1.378 . S
C50 C51 1.396 . S
C51 H36 0.940 . S
C51 C46 1.391 . S
C51 C50 1.396 . S
C52 P32 1.803 . S
C52 C53 1.378 . S
C52 C57 1.400 . S
C53 H37 0.939 . S
C53 C52 1.378 . S
C53 C54 1.361 . S
C54 H38 0.942 . S
C54 C53 1.361 . S
C54 C55 1.369 . S
C55 C54 1.369 . S
C55 C56 1.404 . S
C56 H39 0.940 . S
C56 C55 1.404 . S
C56 C57 1.389 . S
C57 H40 0.939 . S
C57 C52 1.400 . S
C57 C56 1.389 . S
C58 P32 1.819 . S
C58 C59 1.391 . S
C58 C63 1.391 . S
C59 H41 0.941 . S
C59 C58 1.391 . S
C59 C60 1.396 . S
C60 H44 0.939 . S
C60 C59 1.396 . S
C60 C61 1.397 . S
C61 C60 1.397 . S
C61 C62 1.385 . S
C62 H45 0.940 . S
C62 C61 1.385 . S
C62 C63 1.388 . S
C63 H42 0.939 . S
C63 C58 1.391 . S
C63 C62 1.388 . S
P64 O75 1.483 1_654 S
P64 C78 1.812 . S
P64 C84 1.803 . S
P64 C90 1.819 . S
H65 C79 0.941 . S
H66 C80 0.939 . S
H67 C82 0.940 . S
H68 C83 0.940 . S
H69 C85 0.939 . S
H70 C86 0.942 . S
H71 C88 0.940 . S
H72 C89 0.939 . S
H73 C91 0.941 . S
H74 C95 0.939 . S
O75 P64 1.483 1_456 S
H76 C92 0.939 . S
H77 C94 0.940 . S
C78 P64 1.812 . S
C78 C79 1.389 1_554 S
C78 C83 1.391 . S
C79 H65 0.941 . S
C79 C78 1.389 1_556 S
C79 C80 1.397 . S
C80 H66 0.939 . S
C80 C79 1.397 . S
C80 C81 1.378 . S
C81 C80 1.378 . S
C81 C82 1.378 1_556 S
C82 H67 0.940 . S
C82 C81 1.378 1_554 S
C82 C83 1.396 . S
C83 H68 0.940 . S
C83 C78 1.391 . S
C83 C82 1.396 . S
C84 P64 1.803 . S
C84 C85 1.378 . S
C84 C89 1.400 . S
C85 H69 0.939 . S
C85 C84 1.378 . S
C85 C86 1.361 . S
C86 H70 0.942 . S
C86 C85 1.361 . S
C86 C87 1.369 . S
C87 C86 1.369 . S
C87 C88 1.404 . S
C88 H71 0.940 . S
C88 C87 1.404 . S
C88 C89 1.389 . S
C89 H72 0.939 . S
C89 C84 1.400 . S
C89 C88 1.389 . S
C90 P64 1.819 . S
C90 C91 1.391 1_655 S
C90 C95 1.391 . S
C91 H73 0.941 . S
C91 C90 1.391 1_455 S
C91 C92 1.396 . S
C92 H76 0.939 . S
C92 C91 1.396 . S
C92 C93 1.397 . S
C93 C92 1.397 . S
C93 C94 1.385 1_455 S
C94 H77 0.940 . S
C94 C93 1.385 1_655 S
C94 C95 1.388 . S
C95 H74 0.939 . S
C95 C90 1.391 . S
C95 C94 1.388 . S
P96 O107 1.490 . S
P96 C110 1.812 . S
P96 C116 1.803 . S
P96 C122 1.819 . S
H97 C111 0.941 . S
H98 C112 0.939 . S
H99 C114 0.940 . S
H100 C115 0.940 . S
H101 C117 0.939 . S
H102 C118 0.942 . S
H103 C120 0.940 . S
H104 C121 0.939 . S
H105 C123 0.941 . S
H106 C127 0.939 . S
O107 P96 1.490 . S
H108 C124 0.939 . S
H109 C126 0.940 . S
C110 P96 1.812 . S
C110 C111 1.389 . S
C110 C115 1.391 . S
C111 H97 0.941 . S
C111 C110 1.389 . S
C111 C112 1.397 . S
C112 H98 0.939 . S
C112 C111 1.397 . S
C112 C113 1.378 . S
C113 C112 1.378 . S
C113 C114 1.378 . S
C114 H99 0.940 . S
C114 C113 1.378 . S
C114 C115 1.396 . S
C115 H100 0.940 . S
C115 C110 1.391 . S
C115 C114 1.396 . S
C116 P96 1.803 . S
C116 C117 1.378 . S
C116 C121 1.400 . S
C117 H101 0.939 . S
C117 C116 1.378 . S
C117 C118 1.361 . S
C118 H102 0.942 . S
C118 C117 1.361 . S
C118 C119 1.369 . S
C119 C118 1.369 . S
C119 C120 1.404 . S
C120 H103 0.940 . S
C120 C119 1.404 . S
C120 C121 1.389 . S
C121 H104 0.939 . S
C121 C116 1.400 . S
C121 C120 1.389 . S
C122 P96 1.819 . S
C122 C123 1.391 . S
C122 C127 1.391 . S
C123 H105 0.941 . S
C123 C122 1.391 . S
C123 C124 1.396 . S
C124 H108 0.939 . S
C124 C123 1.396 . S
C124 C125 1.397 . S
C125 C124 1.397 . S
C125 C126 1.385 . S
C126 H109 0.940 . S
C126 C125 1.385 . S
C126 C127 1.388 . S
C127 H106 0.939 . S
C127 C122 1.391 . S
C127 C126 1.388 . S
P128 O139 1.490 . S
P128 C142 1.812 . S
P128 C148 1.803 . S
P128 C154 1.819 . S
H129 C143 0.941 . S
H130 C144 0.939 . S
H131 C146 0.940 . S
H132 C147 0.940 . S
H133 C149 0.939 . S
H134 C150 0.942 . S
H135 C152 0.940 . S
H136 C153 0.939 . S
H137 C155 0.941 . S
H138 C159 0.939 . S
O139 P128 1.490 . S
H140 C156 0.939 . S
H141 C158 0.940 . S
C142 P128 1.812 . S
C142 C143 1.389 . S
C142 C147 1.391 . S
C143 H129 0.941 . S
C143 C142 1.389 . S
C143 C144 1.397 . S
C144 H130 0.939 . S
C144 C143 1.397 . S
C144 C145 1.378 1_565 S
C145 C144 1.378 1_545 S
C145 C146 1.378 . S
C146 H131 0.940 . S
C146 C145 1.378 . S
C146 C147 1.396 1_545 S
C147 H132 0.940 . S
C147 C142 1.391 . S
C147 C146 1.396 1_565 S
C148 P128 1.803 . S
C148 C149 1.378 . S
C148 C153 1.400 . S
C149 H133 0.939 . S
C149 C148 1.378 . S
C149 C150 1.361 . S
C150 H134 0.942 . S
C150 C149 1.361 . S
C150 C151 1.369 . S
C151 C150 1.369 . S
C151 C152 1.404 . S
C152 H135 0.940 . S
C152 C151 1.404 . S
C152 C153 1.389 . S
C153 H136 0.939 . S
C153 C148 1.400 . S
C153 C152 1.389 . S
C154 P128 1.819 . S
C154 C155 1.391 . S
C154 C159 1.391 . S
C155 H137 0.941 . S
C155 C154 1.391 . S
C155 C156 1.396 . S
C156 H140 0.939 . S
C156 C155 1.396 . S
C156 C157 1.397 1_455 S
C157 C156 1.397 1_655 S
C157 C158 1.385 . S
C158 H141 0.940 . S
C158 C157 1.385 . S
C158 C159 1.388 1_655 S
C159 H138 0.939 . S
C159 C154 1.391 . S
C159 C158 1.388 1_455 S
P160 O171 1.490 . S
P160 C174 1.812 . S
P160 C180 1.803 . S
P160 C186 1.819 . S
H161 C175 0.941 . S
H162 C176 0.939 . S
H163 C178 0.940 . S
H164 C179 0.940 . S
H165 C181 0.939 . S
H166 C182 0.942 . S
H167 C184 0.940 . S
H168 C185 0.939 . S
H169 C187 0.941 . S
H170 C191 0.939 . S
O171 P160 1.490 . S
H172 C188 0.939 . S
H173 C190 0.940 . S
C174 P160 1.812 . S
C174 C175 1.389 . S
C174 C179 1.391 . S
C175 H161 0.941 . S
C175 C174 1.389 . S
C175 C176 1.397 . S
C176 H162 0.939 . S
C176 C175 1.397 . S
C176 C177 1.378 . S
C177 C176 1.378 . S
C177 C178 1.378 . S
C178 H163 0.940 . S
C178 C177 1.378 . S
C178 C179 1.396 . S
C179 H164 0.940 . S
C179 C174 1.391 . S
C179 C178 1.396 . S
C180 P160 1.803 . S
C180 C181 1.378 . S
C180 C185 1.400 . S
C181 H165 0.939 . S
C181 C180 1.378 . S
C181 C182 1.361 . S
C182 H166 0.942 . S
C182 C181 1.361 . S
C182 C183 1.369 . S
C183 C182 1.369 . S
C183 C184 1.404 . S
C184 H167 0.940 . S
C184 C183 1.404 . S
C184 C185 1.389 . S
C185 H168 0.939 . S
C185 C180 1.400 . S
C185 C184 1.389 . S
C186 P160 1.819 . S
C186 C187 1.391 . S
C186 C191 1.391 . S
C187 H169 0.941 . S
C187 C186 1.391 . S
C187 C188 1.396 . S
C188 H172 0.939 . S
C188 C187 1.396 . S
C188 C189 1.397 . S
C189 C188 1.397 . S
C189 C190 1.385 . S
C190 H173 0.940 . S
C190 C189 1.385 . S
C190 C191 1.388 . S
C191 H170 0.939 . S
C191 C186 1.391 . S
C191 C190 1.388 . S
P192 O203 1.490 1_655 S
P192 C206 1.812 . S
P192 C212 1.803 . S
P192 C218 1.819 . S
H193 C207 0.941 . S
H194 C208 0.939 . S
H195 C210 0.940 . S
H196 C211 0.940 . S
H197 C213 0.939 . S
H198 C214 0.942 . S
H199 C216 0.940 . S
H200 C217 0.939 . S
H201 C219 0.941 . S
H202 C223 0.939 . S
O203 P192 1.490 1_455 S
H204 C220 0.939 . S
H205 C222 0.940 . S
C206 P192 1.812 . S
C206 C207 1.389 1_655 S
C206 C211 1.391 . S
C207 H193 0.941 . S
C207 C206 1.389 1_455 S
C207 C208 1.397 . S
C208 H194 0.939 . S
C208 C207 1.397 . S
C208 C209 1.378 . S
C209 C208 1.378 . S
C209 C210 1.378 1_455 S
C210 H195 0.940 . S
C210 C209 1.378 1_655 S
C210 C211 1.396 . S
C211 H196 0.940 . S
C211 C206 1.391 . S
C211 C210 1.396 . S
C212 P192 1.803 . S
C212 C213 1.378 . S
C212 C217 1.400 . S
C213 H197 0.939 . S
C213 C212 1.378 . S
C213 C214 1.361 . S
C214 H198 0.942 . S
C214 C213 1.361 . S
C214 C215 1.369 . S
C215 C214 1.369 . S
C215 C216 1.404 . S
C216 H199 0.940 . S
C216 C215 1.404 . S
C216 C217 1.389 . S
C217 H200 0.939 . S
C217 C212 1.400 . S
C217 C216 1.389 . S
C218 P192 1.819 . S
C218 C219 1.391 . S
C218 C223 1.391 . S
C219 H201 0.941 . S
C219 C218 1.391 . S
C219 C220 1.396 . S
C220 H204 0.939 . S
C220 C219 1.396 . S
C220 C221 1.397 . S
C221 C220 1.397 . S
C221 C222 1.385 . S
C222 H205 0.940 . S
C222 C221 1.385 . S
C222 C223 1.388 . S
C223 H202 0.939 . S
C223 C218 1.391 . S
C223 C222 1.388 . S
P224 O235 1.490 . S
P224 C238 1.812 . S
P224 C244 1.803 . S
P224 C250 1.819 . S
H225 C239 0.941 . S
H226 C240 0.939 . S
H227 C242 0.940 . S
H228 C243 0.940 . S
H229 C245 0.939 . S
H230 C246 0.942 . S
H231 C248 0.940 . S
H232 C249 0.939 . S
H233 C251 0.941 . S
H234 C255 0.939 . S
O235 P224 1.490 . S
H236 C252 0.939 . S
H237 C254 0.940 . S
C238 P224 1.812 . S
C238 C239 1.389 . S
C238 C243 1.391 . S
C239 H225 0.941 . S
C239 C238 1.389 . S
C239 C240 1.397 . S
C240 H226 0.939 . S
C240 C239 1.397 . S
C240 C241 1.378 . S
C241 C240 1.378 . S
C241 C242 1.378 . S
C242 H227 0.940 . S
C242 C241 1.378 . S
C242 C243 1.396 . S
C243 H228 0.940 . S
C243 C238 1.391 . S
C243 C242 1.396 . S
C244 P224 1.803 . S
C244 C245 1.378 . S
C244 C249 1.400 . S
C245 H229 0.939 . S
C245 C244 1.378 . S
C245 C246 1.361 . S
C246 H230 0.942 . S
C246 C245 1.361 . S
C246 C247 1.369 . S
C247 C246 1.369 . S
C247 C248 1.404 . S
C248 H231 0.940 . S
C248 C247 1.404 . S
C248 C249 1.389 . S
C249 H232 0.939 . S
C249 C244 1.400 . S
C249 C248 1.389 . S
C250 P224 1.819 . S
C250 C251 1.391 . S
C250 C255 1.391 . S
C251 H233 0.941 . S
C251 C250 1.391 . S
C251 C252 1.396 . S
C252 H236 0.939 . S
C252 C251 1.396 . S
C252 C253 1.397 . S
C253 C252 1.397 . S
C253 C254 1.385 . S
C254 H237 0.940 . S
C254 C253 1.385 . S
C254 C255 1.388 . S
C255 H234 0.939 . S
C255 C250 1.391 . S
C255 C254 1.388 . S
P256 O267 1.490 . S
P256 C270 1.812 . S
P256 C276 1.803 . S
P256 C282 1.819 . S
H257 C271 0.941 . S
H258 C272 0.939 . S
H259 C274 0.940 . S
H260 C275 0.940 . S
H261 C277 0.939 . S
H262 C278 0.942 . S
H263 C280 0.940 . S
H264 C281 0.939 . S
H265 C283 0.941 . S
H266 C287 0.939 . S
O267 P256 1.490 . S
H268 C284 0.939 . S
H269 C286 0.940 . S
C270 P256 1.812 . S
C270 C271 1.389 . S
C270 C275 1.391 . S
C271 H257 0.941 . S
C271 C270 1.389 . S
C271 C272 1.397 . S
C272 H258 0.939 . S
C272 C271 1.397 . S
C272 C273 1.378 . S
C273 C272 1.378 . S
C273 C274 1.378 . S
C274 H259 0.940 . S
C274 C273 1.378 . S
C274 C275 1.396 . S
C275 H260 0.940 . S
C275 C270 1.391 . S
C275 C274 1.396 . S
C276 P256 1.803 . S
C276 C277 1.378 . S
C276 C281 1.400 . S
C277 H261 0.939 . S
C277 C276 1.378 . S
C277 C278 1.361 . S
C278 H262 0.942 . S
C278 C277 1.361 . S
C278 C279 1.369 . S
C279 C278 1.369 . S
C279 C280 1.404 . S
C280 H263 0.940 . S
C280 C279 1.404 . S
C280 C281 1.389 . S
C281 H264 0.939 . S
C281 C276 1.400 . S
C281 C280 1.389 . S
C282 P256 1.819 . S
C282 C283 1.391 . S
C282 C287 1.391 . S
C283 H265 0.941 . S
C283 C282 1.391 . S
C283 C284 1.396 . S
C284 H268 0.939 . S
C284 C283 1.396 . S
C284 C285 1.397 . S
C285 C284 1.397 . S
C285 C286 1.385 . S
C286 H269 0.940 . S
C286 C285 1.385 . S
C286 C287 1.388 . S
C287 H266 0.939 . S
C287 C282 1.391 . S
C287 C286 1.388 . S
P288 O299 1.490 1_565 S
P288 C302 1.812 . S
P288 C308 1.798 1_565 S
P288 C314 1.819 . S
H289 C303 0.941 . S
H290 C304 0.939 . S
H291 C306 0.940 . S
H292 C307 0.940 . S
H293 C309 0.939 . S
H294 C310 0.942 . S
H295 C312 0.940 . S
H296 C313 0.939 . S
H297 C315 0.941 . S
H298 C319 0.939 . S
O299 P288 1.490 1_545 S
H300 C316 0.939 . S
H301 C318 0.940 . S
C302 P288 1.812 . S
C302 C303 1.389 . S
C302 C307 1.391 . S
C303 H289 0.941 . S
C303 C302 1.389 . S
C303 C304 1.397 . S
C304 H290 0.939 . S
C304 C303 1.397 . S
C304 C305 1.378 . S
C305 C304 1.378 . S
C305 C306 1.378 . S
C306 H291 0.940 . S
C306 C305 1.378 . S
C306 C307 1.396 . S
C307 H292 0.940 . S
C307 C302 1.391 . S
C307 C306 1.396 . S
C308 P288 1.798 1_545 S
C308 C309 1.394 . S
C308 C313 1.391 1_545 S
C309 H293 0.939 . S
C309 C308 1.394 . S
C309 C310 1.361 . S
C310 H294 0.942 . S
C310 C309 1.361 . S
C310 C311 1.369 . S
C311 C310 1.369 . S
C311 C312 1.404 1_545 S
C312 H295 0.940 . S
C312 C311 1.404 1_565 S
C312 C313 1.389 . S
C313 H296 0.939 . S
C313 C308 1.391 1_565 S
C313 C312 1.389 . S
C314 P288 1.819 . S
C314 C315 1.391 . S
C314 C319 1.391 . S
C315 H297 0.941 . S
C315 C314 1.391 . S
C315 C316 1.396 . S
C316 H300 0.939 . S
C316 C315 1.396 . S
C316 C317 1.397 . S
C317 C316 1.397 . S
C317 C318 1.385 . S
C318 H301 0.940 . S
C318 C317 1.385 . S
C318 C319 1.388 . S
C319 H298 0.939 . S
C319 C314 1.391 . S
C319 C318 1.388 . S
P320 O331 1.490 . S
P320 C334 1.812 . S
P320 C340 1.803 . S
P320 C346 1.819 . S
H321 C335 0.941 . S
H322 C336 0.939 . S
H323 C338 0.940 . S
H324 C339 0.940 . S
H325 C341 0.939 . S
H326 C342 0.942 . S
H327 C344 0.940 . S
H328 C345 0.939 . S
H329 C347 0.941 . S
H330 C351 0.939 . S
O331 P320 1.490 . S
H332 C348 0.939 . S
H333 C350 0.940 . S
C334 P320 1.812 . S
C334 C335 1.389 . S
C334 C339 1.391 . S
C335 H321 0.941 . S
C335 C334 1.389 . S
C335 C336 1.397 . S
C336 H322 0.939 . S
C336 C335 1.397 . S
C336 C337 1.378 . S
C337 C336 1.378 . S
C337 C338 1.378 . S
C338 H323 0.940 . S
C338 C337 1.378 . S
C338 C339 1.396 . S
C339 H324 0.940 . S
C339 C334 1.391 . S
C339 C338 1.396 . S
C340 P320 1.803 . S
C340 C341 1.378 . S
C340 C345 1.400 . S
C341 H325 0.939 . S
C341 C340 1.378 . S
C341 C342 1.361 . S
C342 H326 0.942 . S
C342 C341 1.361 . S
C342 C343 1.369 . S
C343 C342 1.369 . S
C343 C344 1.404 . S
C344 H327 0.940 . S
C344 C343 1.404 . S
C344 C345 1.389 . S
C345 H328 0.939 . S
C345 C340 1.400 . S
C345 C344 1.389 . S
C346 P320 1.819 . S
C346 C347 1.391 . S
C346 C351 1.391 . S
C347 H329 0.941 . S
C347 C346 1.391 . S
C347 C348 1.396 . S
C348 H332 0.939 . S
C348 C347 1.396 . S
C348 C349 1.397 . S
C349 C348 1.397 . S
C349 C350 1.385 . S
C350 H333 0.940 . S
C350 C349 1.385 . S
C350 C351 1.388 . S
C351 H330 0.939 . S
C351 C346 1.391 . S
C351 C350 1.388 . S
P352 O363 1.490 . S
P352 C366 1.812 . S
P352 C372 1.803 . S
P352 C378 1.819 . S
H353 C367 0.941 . S
H354 C368 0.939 . S
H355 C370 0.940 . S
H356 C371 0.940 . S
H357 C373 0.939 . S
H358 C374 0.942 . S
H359 C376 0.940 . S
H360 C377 0.939 . S
H361 C379 0.941 . S
H362 C383 0.939 . S
O363 P352 1.490 . S
H364 C380 0.939 . S
H365 C382 0.940 . S
C366 P352 1.812 . S
C366 C367 1.389 . S
C366 C371 1.391 . S
C367 H353 0.941 . S
C367 C366 1.389 . S
C367 C368 1.397 . S
C368 H354 0.939 . S
C368 C367 1.397 . S
C368 C369 1.378 . S
C369 C368 1.378 . S
C369 C370 1.378 . S
C370 H355 0.940 . S
C370 C369 1.378 . S
C370 C371 1.396 . S
C371 H356 0.940 . S
C371 C366 1.391 . S
C371 C370 1.396 . S
C372 P352 1.803 . S
C372 C373 1.378 . S
C372 C377 1.400 . S
C373 H357 0.939 . S
C373 C372 1.378 . S
C373 C374 1.361 . S
C374 H358 0.942 . S
C374 C373 1.361 . S
C374 C375 1.369 . S
C375 C374 1.369 . S
C375 C376 1.404 . S
C376 H359 0.940 . S
C376 C375 1.404 . S
C376 C377 1.389 . S
C377 H360 0.939 . S
C377 C372 1.400 . S
C377 C376 1.389 . S
C378 P352 1.819 . S
C378 C379 1.391 . S
C378 C383 1.391 . S
C379 H361 0.941 . S
C379 C378 1.391 . S
C379 C380 1.396 . S
C380 H364 0.939 . S
C380 C379 1.396 . S
C380 C381 1.397 . S
C381 C380 1.397 . S
C381 C382 1.385 . S
C382 H365 0.940 . S
C382 C381 1.385 . S
C382 C383 1.388 . S
C383 H362 0.939 . S
C383 C378 1.391 . S
C383 C382 1.388 . S
P384 O395 1.490 . S
P384 C398 1.812 . S
P384 C404 1.803 . S
P384 C410 1.819 . S
H385 C399 0.941 . S
H386 C400 0.939 . S
H387 C402 0.940 . S
H388 C403 0.940 . S
H389 C405 0.939 . S
H390 C406 0.942 . S
H391 C408 0.940 . S
H392 C409 0.939 . S
H393 C411 0.941 . S
H394 C415 0.939 . S
O395 P384 1.490 . S
H396 C412 0.939 . S
H397 C414 0.940 . S
C398 P384 1.812 . S
C398 C399 1.389 . S
C398 C403 1.391 . S
C399 H385 0.941 . S
C399 C398 1.389 . S
C399 C400 1.397 . S
C400 H386 0.939 . S
C400 C399 1.397 . S
C400 C401 1.378 . S
C401 C400 1.378 . S
C401 C402 1.378 . S
C402 H387 0.940 . S
C402 C401 1.378 . S
C402 C403 1.396 . S
C403 H388 0.940 . S
C403 C398 1.391 . S
C403 C402 1.396 . S
C404 P384 1.803 . S
C404 C405 1.378 . S
C404 C409 1.400 . S
C405 H389 0.939 . S
C405 C404 1.378 . S
C405 C406 1.361 . S
C406 H390 0.942 . S
C406 C405 1.361 . S
C406 C407 1.369 . S
C407 C406 1.369 . S
C407 C408 1.404 . S
C408 H391 0.940 . S
C408 C407 1.404 . S
C408 C409 1.389 . S
C409 H392 0.939 . S
C409 C404 1.400 . S
C409 C408 1.389 . S
C410 P384 1.819 . S
C410 C411 1.391 . S
C410 C415 1.391 . S
C411 H393 0.941 . S
C411 C410 1.391 . S
C411 C412 1.396 . S
C412 H396 0.939 . S
C412 C411 1.396 . S
C412 C413 1.397 . S
C413 C412 1.397 . S
C413 C414 1.385 . S
C414 H397 0.940 . S
C414 C413 1.385 . S
C414 C415 1.388 . S
C415 H394 0.939 . S
C415 C410 1.391 . S
C415 C414 1.388 . S
P416 O427 1.490 . S
P416 C430 1.812 . S
P416 C436 1.803 . S
P416 C442 1.819 . S
H417 C431 0.941 . S
H418 C432 0.939 . S
H419 C434 0.940 . S
H420 C435 0.940 . S
H421 C437 0.939 . S
H422 C438 0.942 . S
H423 C440 0.940 . S
H424 C441 0.943 . S
H425 C443 0.941 . S
H426 C447 0.939 . S
O427 P416 1.490 . S
H428 C444 0.939 . S
H429 C446 0.940 . S
C430 P416 1.812 . S
C430 C431 1.389 . S
C430 C435 1.391 . S
C431 H417 0.941 . S
C431 C430 1.389 . S
C431 C432 1.397 . S
C432 H418 0.939 . S
C432 C431 1.397 . S
C432 C433 1.378 . S
C433 C432 1.378 . S
C433 C434 1.378 . S
C434 H419 0.940 . S
C434 C433 1.378 . S
C434 C435 1.396 . S
C435 H420 0.940 . S
C435 C430 1.391 . S
C435 C434 1.396 . S
C436 P416 1.803 . S
C436 C437 1.378 . S
C436 C441 1.375 1_556 S
C437 H421 0.939 . S
C437 C436 1.378 . S
C437 C438 1.361 . S
C438 H422 0.942 . S
C438 C437 1.361 . S
C438 C439 1.369 1_556 S
C439 C438 1.369 1_554 S
C439 C440 1.404 . S
C440 H423 0.940 . S
C440 C439 1.404 . S
C440 C441 1.411 . S
C441 H424 0.943 . S
C441 C436 1.375 1_554 S
C441 C440 1.411 . S
C442 P416 1.819 . S
C442 C443 1.391 . S
C442 C447 1.391 . S
C443 H425 0.941 . S
C443 C442 1.391 . S
C443 C444 1.396 . S
C444 H428 0.939 . S
C444 C443 1.396 . S
C444 C445 1.397 . S
C445 C444 1.397 . S
C445 C446 1.385 . S
C446 H429 0.940 . S
C446 C445 1.385 . S
C446 C447 1.388 . S
C447 H426 0.939 . S
C447 C442 1.391 . S
C447 C446 1.388 . S
P448 O459 1.490 . S
P448 C462 1.812 . S
P448 C468 1.803 . S
P448 C474 1.819 . S
H449 C463 0.941 . S
H450 C464 0.939 . S
H451 C466 0.940 . S
H452 C467 0.940 . S
H453 C469 0.939 . S
H454 C470 0.942 . S
H455 C472 0.940 . S
H456 C473 0.939 . S
H457 C475 0.941 . S
H458 C479 0.939 . S
O459 P448 1.490 . S
H460 C476 0.939 . S
H461 C478 0.940 . S
C462 P448 1.812 . S
C462 C463 1.389 . S
C462 C467 1.391 . S
C463 H449 0.941 . S
C463 C462 1.389 . S
C463 C464 1.397 . S
C464 H450 0.939 . S
C464 C463 1.397 . S
C464 C465 1.378 . S
C465 C464 1.378 . S
C465 C466 1.378 . S
C466 H451 0.940 . S
C466 C465 1.378 . S
C466 C467 1.396 . S
C467 H452 0.940 . S
C467 C462 1.391 . S
C467 C466 1.396 . S
C468 P448 1.803 . S
C468 C469 1.378 . S
C468 C473 1.400 . S
C469 H453 0.939 . S
C469 C468 1.378 . S
C469 C470 1.361 . S
C470 H454 0.942 . S
C470 C469 1.361 . S
C470 C471 1.369 . S
C471 C470 1.369 . S
C471 C472 1.404 . S
C472 H455 0.940 . S
C472 C471 1.404 . S
C472 C473 1.389 . S
C473 H456 0.939 . S
C473 C468 1.400 . S
C473 C472 1.389 . S
C474 P448 1.819 . S
C474 C475 1.391 . S
C474 C479 1.391 . S
C475 H457 0.941 . S
C475 C474 1.391 . S
C475 C476 1.396 . S
C476 H460 0.939 . S
C476 C475 1.396 . S
C476 C477 1.397 . S
C477 C476 1.397 . S
C477 C478 1.385 . S
C478 H461 0.940 . S
C478 C477 1.385 . S
C478 C479 1.388 . S
C479 H458 0.939 . S
C479 C474 1.391 . S
C479 C478 1.388 . S
P480 O491 1.490 1_556 S
P480 C494 1.812 . S
P480 C500 1.802 1_556 S
P480 C506 1.819 . S
H481 C495 0.941 . S
H482 C496 0.939 . S
H483 C498 0.940 . S
H484 C499 0.940 . S
H485 C501 0.939 . S
H486 C502 0.942 . S
H487 C504 0.940 . S
H488 C505 0.939 . S
H489 C507 0.941 . S
H490 C511 0.939 . S
O491 P480 1.490 1_554 S
H492 C508 0.939 . S
H493 C510 0.940 . S
C494 P480 1.812 . S
C494 C495 1.389 . S
C494 C499 1.391 . S
C495 H481 0.941 . S
C495 C494 1.389 . S
C495 C496 1.397 . S
C496 H482 0.939 . S
C496 C495 1.397 . S
C496 C497 1.378 . S
C497 C496 1.378 . S
C497 C498 1.378 . S
C498 H483 0.940 . S
C498 C497 1.378 . S
C498 C499 1.396 . S
C499 H484 0.940 . S
C499 C494 1.391 . S
C499 C498 1.396 . S
C500 P480 1.802 1_554 S
C500 C501 1.382 . S
C500 C505 1.398 1_554 S
C501 H485 0.939 . S
C501 C500 1.382 . S
C501 C502 1.361 . S
C502 H486 0.942 . S
C502 C501 1.361 . S
C502 C503 1.369 . S
C503 C502 1.369 . S
C503 C504 1.404 1_554 S
C504 H487 0.940 . S
C504 C503 1.404 1_556 S
C504 C505 1.389 . S
C505 H488 0.939 . S
C505 C500 1.398 1_556 S
C505 C504 1.389 . S
C506 P480 1.819 . S
C506 C507 1.391 1_545 S
C506 C511 1.391 . S
C507 H489 0.941 . S
C507 C506 1.391 1_565 S
C507 C508 1.396 . S
C508 H492 0.939 . S
C508 C507 1.396 . S
C508 C509 1.397 . S
C509 C508 1.397 . S
C509 C510 1.385 1_565 S
C510 H493 0.940 . S
C510 C509 1.385 1_545 S
C510 C511 1.388 . S
C511 H490 0.939 . S
C511 C506 1.391 . S
C511 C510 1.388 . S
Li512 N529 1.990 . S
Li512 O572 1.956 . S
Li512 O573 1.970 1_556 S
Li512 O574 1.961 . S
Li513 N537 1.990 . S
Li513 O572 1.970 1_554 S
Li513 O573 1.956 . S
Li513 O575 1.961 . S
Li514 N559 1.990 . S
Li514 O572 1.961 . S
Li514 O574 1.956 . S
Li514 O575 1.970 1_556 S
Li515 N565 1.990 . S
Li515 O573 1.961 . S
Li515 O574 1.970 1_554 S
Li515 O575 1.956 . S
C516 C518 1.348 1_556 S
C516 C519 1.356 . S
C516 O572 1.325 . S
N517 C520 1.314 1_556 S
N517 C521 1.279 . S
C518 C516 1.348 1_554 S
C518 C520 1.353 . S
C518 H576 0.929 . S
C519 C516 1.356 . S
C519 C521 1.358 . S
C519 H577 0.930 . S
C520 N517 1.314 1_554 S
C520 C518 1.353 . S
C520 H578 0.930 . S
C521 N517 1.279 . S
C521 C519 1.358 . S
C521 H579 0.930 . S
C522 C525 1.348 . S
C522 C526 1.356 . S
C522 O573 1.325 . S
C523 N524 1.279 . S
C523 C526 1.358 . S
C523 H580 0.930 . S
N524 C523 1.279 . S
N524 C527 1.314 . S
C525 C522 1.348 . S
C525 C527 1.353 . S
C525 H581 0.929 . S
C526 C522 1.356 . S
C526 C523 1.358 . S
C526 H582 0.930 . S
C527 N524 1.314 . S
C527 C525 1.353 . S
C527 H583 0.930 . S
C528 N529 1.314 . S
C528 C533 1.353 . S
C528 H534 0.930 . S
N529 Li512 1.990 . S
N529 C528 1.314 . S
N529 C531 1.279 . S
C530 C531 1.358 . S
C530 C532 1.356 . S
C530 H584 0.930 . S
C531 N529 1.279 . S
C531 C530 1.358 . S
C531 H535 0.930 . S
C532 C530 1.356 . S
C532 C533 1.348 . S
C533 C528 1.353 . S
C533 C532 1.348 . S
C533 H585 0.929 . S
H534 C528 0.930 . S
H535 C531 0.930 . S
C536 N537 1.314 . S
C536 C538 1.353 . S
C536 H542 0.930 . S
N537 Li513 1.990 . S
N537 C536 1.314 . S
N537 C540 1.279 . S
C538 C536 1.353 . S
C538 C541 1.348 . S
C538 H586 0.929 . S
C539 C540 1.358 . S
C539 C541 1.356 . S
C539 H587 0.930 . S
C540 N537 1.279 . S
C540 C539 1.358 . S
C540 H543 0.930 . S
C541 C538 1.348 . S
C541 C539 1.356 . S
H542 C536 0.930 . S
H543 C540 0.930 . S
C544 C546 1.348 . S
C544 C547 1.356 . S
C544 O574 1.325 . S
N545 C548 1.314 . S
N545 C549 1.279 . S
C546 C544 1.348 . S
C546 C548 1.353 . S
C546 H588 0.929 . S
C547 C544 1.356 . S
C547 C549 1.358 . S
C547 H589 0.930 . S
C548 N545 1.314 . S
C548 C546 1.353 . S
C548 H590 0.930 . S
C549 N545 1.279 . S
C549 C547 1.358 . S
C549 H591 0.930 . S
C550 C551 1.348 1_554 S
C550 C552 1.356 . S
C550 O575 1.325 . S
C551 C550 1.348 1_556 S
C551 C553 1.353 . S
C551 H592 0.929 . S
C552 C550 1.356 . S
C552 C554 1.358 . S
C552 H593 0.930 . S
C553 C551 1.353 . S
C553 N555 1.314 1_556 S
C553 H594 0.930 . S
C554 C552 1.358 . S
C554 N555 1.279 . S
C554 H595 0.930 . S
N555 C553 1.314 1_554 S
N555 C554 1.279 . S
C556 C558 1.353 . S
C556 N559 1.314 . S
C556 H562 0.930 . S
C557 N559 1.279 . S
C557 C560 1.358 . S
C557 H563 0.930 . S
C558 C556 1.353 . S
C558 C561 1.348 . S
C558 H596 0.929 . S
N559 Li514 1.990 . S
N559 C556 1.314 . S
N559 C557 1.279 . S
C560 C557 1.358 . S
C560 C561 1.356 . S
C560 H597 0.930 . S
C561 C558 1.348 . S
C561 C560 1.356 . S
H562 C556 0.930 . S
H563 C557 0.930 . S
C564 N565 1.314 . S
C564 C566 1.353 . S
C564 H570 0.930 . S
N565 Li515 1.990 . S
N565 C564 1.314 . S
N565 C568 1.279 . S
C566 C564 1.353 . S
C566 C569 1.348 . S
C566 H598 0.929 . S
C567 C568 1.358 . S
C567 C569 1.356 . S
C567 H599 0.930 . S
C568 N565 1.279 . S
C568 C567 1.358 . S
C568 H571 0.930 . S
C569 C566 1.348 . S
C569 C567 1.356 . S
H570 C564 0.930 . S
H571 C568 0.930 . S
O572 Li512 1.956 . S
O572 Li513 1.970 1_556 S
O572 Li514 1.961 . S
O572 C516 1.325 . S
O573 Li512 1.970 1_554 S
O573 Li513 1.956 . S
O573 Li515 1.961 . S
O573 C522 1.325 . S
O574 Li512 1.961 . S
O574 Li514 1.956 . S
O574 Li515 1.970 1_556 S
O574 C544 1.325 . S
O575 Li513 1.961 . S
O575 Li514 1.970 1_554 S
O575 Li515 1.956 . S
O575 C550 1.325 . S
H576 C518 0.929 . S
H577 C519 0.930 . S
H578 C520 0.930 . S
H579 C521 0.930 . S
H580 C523 0.930 . S
H581 C525 0.929 . S
H582 C526 0.930 . S
H583 C527 0.930 . S
H584 C530 0.930 . S
H585 C533 0.929 . S
H586 C538 0.929 . S
H587 C539 0.930 . S
H588 C546 0.929 . S
H589 C547 0.930 . S
H590 C548 0.930 . S
H591 C549 0.930 . S
H592 C551 0.929 . S
H593 C552 0.930 . S
H594 C553 0.930 . S
H595 C554 0.930 . S
H596 C558 0.929 . S
H597 C560 0.930 . S
H598 C566 0.929 . S
H599 C567 0.930 . S
Li600 N617 1.990 . S
Li600 O660 1.956 . S
Li600 O661 1.970 . S
Li600 O662 1.961 . S
Li601 N625 1.990 . S
Li601 O660 1.970 . S
Li601 O661 1.956 . S
Li601 O663 1.961 . S
Li602 N647 1.990 . S
Li602 O660 1.961 . S
Li602 O662 1.956 . S
Li602 O663 1.970 . S
Li603 N653 1.990 . S
Li603 O661 1.961 . S
Li603 O662 1.970 . S
Li603 O663 1.956 . S
C604 C606 1.348 . S
C604 C607 1.356 . S
C604 O660 1.325 . S
N605 C608 1.314 . S
N605 C609 1.279 . S
C606 C604 1.348 . S
C606 C608 1.353 . S
C606 H664 0.929 . S
C607 C604 1.356 . S
C607 C609 1.358 . S
C607 H665 0.930 . S
C608 N605 1.314 . S
C608 C606 1.353 . S
C608 H666 0.930 . S
C609 N605 1.279 . S
C609 C607 1.358 . S
C609 H667 0.930 . S
C610 C613 1.348 . S
C610 C614 1.356 . S
C610 O661 1.325 . S
C611 N612 1.279 . S
C611 C614 1.358 . S
C611 H668 0.930 . S
N612 C611 1.279 . S
N612 C615 1.314 . S
C613 C610 1.348 . S
C613 C615 1.353 . S
C613 H669 0.929 . S
C614 C610 1.356 . S
C614 C611 1.358 . S
C614 H670 0.930 . S
C615 N612 1.314 . S
C615 C613 1.353 . S
C615 H671 0.930 . S
C616 N617 1.314 . S
C616 C621 1.353 . S
C616 H622 0.930 . S
N617 Li600 1.990 . S
N617 C616 1.314 . S
N617 C619 1.279 . S
C618 C619 1.358 . S
C618 C620 1.356 . S
C618 H672 0.930 . S
C619 N617 1.279 . S
C619 C618 1.358 . S
C619 H623 0.930 . S
C620 C618 1.356 . S
C620 C621 1.348 . S
C621 C616 1.353 . S
C621 C620 1.348 . S
C621 H673 0.929 . S
H622 C616 0.930 . S
H623 C619 0.930 . S
C624 N625 1.314 . S
C624 C626 1.353 . S
C624 H630 0.930 . S
N625 Li601 1.990 . S
N625 C624 1.314 . S
N625 C628 1.279 . S
C626 C624 1.353 . S
C626 C629 1.348 . S
C626 H674 0.929 . S
C627 C628 1.358 . S
C627 C629 1.356 . S
C627 H675 0.930 . S
C628 N625 1.279 . S
C628 C627 1.358 . S
C628 H631 0.930 . S
C629 C626 1.348 . S
C629 C627 1.356 . S
H630 C624 0.930 . S
H631 C628 0.930 . S
C632 C634 1.348 . S
C632 C635 1.356 . S
C632 O662 1.325 . S
N633 C636 1.314 . S
N633 C637 1.279 . S
C634 C632 1.348 . S
C634 C636 1.353 . S
C634 H676 0.929 . S
C635 C632 1.356 . S
C635 C637 1.358 . S
C635 H677 0.930 . S
C636 N633 1.314 . S
C636 C634 1.353 . S
C636 H678 0.930 . S
C637 N633 1.279 . S
C637 C635 1.358 . S
C637 H679 0.930 . S
C638 C639 1.348 . S
C638 C640 1.356 . S
C638 O663 1.325 . S
C639 C638 1.348 . S
C639 C641 1.353 . S
C639 H680 0.929 . S
C640 C638 1.356 . S
C640 C642 1.358 . S
C640 H681 0.930 . S
C641 C639 1.353 . S
C641 N643 1.314 . S
C641 H682 0.930 . S
C642 C640 1.358 . S
C642 N643 1.279 . S
C642 H683 0.930 . S
N643 C641 1.314 . S
N643 C642 1.279 . S
C644 C646 1.353 . S
C644 N647 1.314 . S
C644 H650 0.930 . S
C645 N647 1.279 . S
C645 C648 1.358 . S
C645 H651 0.930 . S
C646 C644 1.353 . S
C646 C649 1.348 . S
C646 H684 0.929 . S
N647 Li602 1.990 . S
N647 C644 1.314 . S
N647 C645 1.279 . S
C648 C645 1.358 . S
C648 C649 1.356 . S
C648 H685 0.930 . S
C649 C646 1.348 . S
C649 C648 1.356 . S
H650 C644 0.930 . S
H651 C645 0.930 . S
C652 N653 1.314 . S
C652 C654 1.353 . S
C652 H658 0.930 . S
N653 Li603 1.990 . S
N653 C652 1.314 . S
N653 C656 1.279 . S
C654 C652 1.353 . S
C654 C657 1.348 . S
C654 H686 0.929 . S
C655 C656 1.358 . S
C655 C657 1.356 . S
C655 H687 0.930 . S
C656 N653 1.279 . S
C656 C655 1.358 . S
C656 H659 0.930 . S
C657 C654 1.348 . S
C657 C655 1.356 . S
H658 C652 0.930 . S
H659 C656 0.930 . S
O660 Li600 1.956 . S
O660 Li601 1.970 . S
O660 Li602 1.961 . S
O660 C604 1.325 . S
O661 Li600 1.970 . S
O661 Li601 1.956 . S
O661 Li603 1.961 . S
O661 C610 1.325 . S
O662 Li600 1.961 . S
O662 Li602 1.956 . S
O662 Li603 1.970 . S
O662 C632 1.325 . S
O663 Li601 1.961 . S
O663 Li602 1.970 . S
O663 Li603 1.956 . S
O663 C638 1.325 . S
H664 C606 0.929 . S
H665 C607 0.930 . S
H666 C608 0.930 . S
H667 C609 0.930 . S
H668 C611 0.930 . S
H669 C613 0.929 . S
H670 C614 0.930 . S
H671 C615 0.930 . S
H672 C618 0.930 . S
H673 C621 0.929 . S
H674 C626 0.929 . S
H675 C627 0.930 . S
H676 C634 0.929 . S
H677 C635 0.930 . S
H678 C636 0.930 . S
H679 C637 0.930 . S
H680 C639 0.929 . S
H681 C640 0.930 . S
H682 C641 0.930 . S
H683 C642 0.930 . S
H684 C646 0.929 . S
H685 C648 0.930 . S
H686 C654 0.929 . S
H687 C655 0.930 . S
Li688 N705 1.990 . S
Li688 O748 1.956 . S
Li688 O749 1.970 1_556 S
Li688 O750 1.961 . S
Li689 N713 1.990 . S
Li689 O748 1.970 1_554 S
Li689 O749 1.956 . S
Li689 O751 1.961 . S
Li690 N735 1.990 . S
Li690 O748 1.961 . S
Li690 O750 1.956 . S
Li690 O751 1.970 1_556 S
Li691 N741 1.990 . S
Li691 O749 1.961 . S
Li691 O750 1.970 1_554 S
Li691 O751 1.956 . S
C692 C694 1.348 1_556 S
C692 C695 1.356 . S
C692 O748 1.325 . S
N693 C696 1.314 1_556 S
N693 C697 1.279 . S
C694 C692 1.348 1_554 S
C694 C696 1.353 . S
C694 H752 0.929 . S
C695 C692 1.356 . S
C695 C697 1.358 . S
C695 H753 0.930 . S
C696 N693 1.314 1_554 S
C696 C694 1.353 . S
C696 H754 0.930 . S
C697 N693 1.279 . S
C697 C695 1.358 . S
C697 H755 0.930 . S
C698 C701 1.348 . S
C698 C702 1.356 . S
C698 O749 1.325 . S
C699 N700 1.279 . S
C699 C702 1.358 . S
C699 H756 0.930 . S
N700 C699 1.279 . S
N700 C703 1.314 . S
C701 C698 1.348 . S
C701 C703 1.353 . S
C701 H757 0.929 . S
C702 C698 1.356 . S
C702 C699 1.358 . S
C702 H758 0.930 . S
C703 N700 1.314 . S
C703 C701 1.353 . S
C703 H759 0.930 . S
C704 N705 1.314 . S
C704 C709 1.353 . S
C704 H710 0.930 . S
N705 Li688 1.990 . S
N705 C704 1.314 . S
N705 C707 1.279 . S
C706 C707 1.358 . S
C706 C708 1.356 . S
C706 H760 0.930 . S
C707 N705 1.279 . S
C707 C706 1.358 . S
C707 H711 0.930 . S
C708 C706 1.356 . S
C708 C709 1.348 . S
C709 C704 1.353 . S
C709 C708 1.348 . S
C709 H761 0.929 . S
H710 C704 0.930 . S
H711 C707 0.930 . S
C712 N713 1.314 . S
C712 C714 1.353 . S
C712 H718 0.930 . S
N713 Li689 1.990 . S
N713 C712 1.314 . S
N713 C716 1.279 . S
C714 C712 1.353 . S
C714 C717 1.348 . S
C714 H762 0.929 . S
C715 C716 1.358 . S
C715 C717 1.356 . S
C715 H763 0.930 . S
C716 N713 1.279 . S
C716 C715 1.358 . S
C716 H719 0.930 . S
C717 C714 1.348 . S
C717 C715 1.356 . S
H718 C712 0.930 . S
H719 C716 0.930 . S
C720 C722 1.348 . S
C720 C723 1.356 . S
C720 O750 1.325 . S
N721 C724 1.314 . S
N721 C725 1.279 . S
C722 C720 1.348 . S
C722 C724 1.353 . S
C722 H764 0.929 . S
C723 C720 1.356 . S
C723 C725 1.358 . S
C723 H765 0.930 . S
C724 N721 1.314 . S
C724 C722 1.353 . S
C724 H766 0.930 . S
C725 N721 1.279 . S
C725 C723 1.358 . S
C725 H767 0.930 . S
C726 C727 1.348 1_554 S
C726 C728 1.356 . S
C726 O751 1.325 . S
C727 C726 1.348 1_556 S
C727 C729 1.353 . S
C727 H768 0.929 . S
C728 C726 1.356 . S
C728 C730 1.358 . S
C728 H769 0.930 . S
C729 C727 1.353 . S
C729 N731 1.314 1_556 S
C729 H770 0.930 . S
C730 C728 1.358 . S
C730 N731 1.279 . S
C730 H771 0.930 . S
N731 C729 1.314 1_554 S
N731 C730 1.279 . S
C732 C734 1.353 . S
C732 N735 1.314 . S
C732 H738 0.930 . S
C733 N735 1.279 . S
C733 C736 1.358 . S
C733 H739 0.930 . S
C734 C732 1.353 . S
C734 C737 1.348 . S
C734 H772 0.929 . S
N735 Li690 1.990 . S
N735 C732 1.314 . S
N735 C733 1.279 . S
C736 C733 1.358 . S
C736 C737 1.356 . S
C736 H773 0.930 . S
C737 C734 1.348 . S
C737 C736 1.356 . S
H738 C732 0.930 . S
H739 C733 0.930 . S
C740 N741 1.314 . S
C740 C742 1.353 . S
C740 H746 0.930 . S
N741 Li691 1.990 . S
N741 C740 1.314 . S
N741 C744 1.279 . S
C742 C740 1.353 . S
C742 C745 1.348 . S
C742 H774 0.929 . S
C743 C744 1.358 . S
C743 C745 1.356 . S
C743 H775 0.930 . S
C744 N741 1.279 . S
C744 C743 1.358 . S
C744 H747 0.930 . S
C745 C742 1.348 . S
C745 C743 1.356 . S
H746 C740 0.930 . S
H747 C744 0.930 . S
O748 Li688 1.956 . S
O748 Li689 1.970 1_556 S
O748 Li690 1.961 . S
O748 C692 1.325 . S
O749 Li688 1.970 1_554 S
O749 Li689 1.956 . S
O749 Li691 1.961 . S
O749 C698 1.325 . S
O750 Li688 1.961 . S
O750 Li690 1.956 . S
O750 Li691 1.970 1_556 S
O750 C720 1.325 . S
O751 Li689 1.961 . S
O751 Li690 1.970 1_554 S
O751 Li691 1.956 . S
O751 C726 1.325 . S
H752 C694 0.929 . S
H753 C695 0.930 . S
H754 C696 0.930 . S
H755 C697 0.930 . S
H756 C699 0.930 . S
H757 C701 0.929 . S
H758 C702 0.930 . S
H759 C703 0.930 . S
H760 C706 0.930 . S
H761 C709 0.929 . S
H762 C714 0.929 . S
H763 C715 0.930 . S
H764 C722 0.929 . S
H765 C723 0.930 . S
H766 C724 0.930 . S
H767 C725 0.930 . S
H768 C727 0.929 . S
H769 C728 0.930 . S
H770 C729 0.930 . S
H771 C730 0.930 . S
H772 C734 0.929 . S
H773 C736 0.930 . S
H774 C742 0.929 . S
H775 C743 0.930 . S
Li776 N793 1.990 . S
Li776 O836 1.956 . S
Li776 O837 1.934 1_545 S
Li776 O838 1.961 . S
Li777 N801 1.990 . S
Li777 O836 1.970 1_565 S
Li777 O837 1.958 . S
Li777 O839 1.961 . S
Li778 N823 1.990 . S
Li778 O836 1.961 . S
Li778 O838 1.956 . S
Li778 O839 1.970 1_545 S
Li779 N829 1.990 . S
Li779 O837 1.989 . S
Li779 O838 1.970 1_565 S
Li779 O839 1.956 . S
C780 C782 1.348 . S
C780 C783 1.356 . S
C780 O836 1.325 . S
N781 C784 1.314 . S
N781 C785 1.279 . S
C782 C780 1.348 . S
C782 C784 1.353 . S
C782 H840 0.929 . S
C783 C780 1.356 . S
C783 C785 1.358 . S
C783 H841 0.930 . S
C784 N781 1.314 . S
C784 C782 1.353 . S
C784 H842 0.930 . S
C785 N781 1.279 . S
C785 C783 1.358 . S
C785 H843 0.930 . S
C786 C789 1.348 1_565 S
C786 C790 1.356 . S
C786 O837 1.332 . S
C787 N788 1.279 . S
C787 C790 1.358 . S
C787 H844 0.930 . S
N788 C787 1.279 . S
N788 C791 1.314 1_565 S
C789 C786 1.348 1_545 S
C789 C791 1.353 . S
C789 H845 0.929 . S
C790 C786 1.356 . S
C790 C787 1.358 . S
C790 H846 0.930 . S
C791 N788 1.314 1_545 S
C791 C789 1.353 . S
C791 H847 0.930 . S
C792 N793 1.314 . S
C792 C797 1.353 . S
C792 H798 0.930 . S
N793 Li776 1.990 . S
N793 C792 1.314 . S
N793 C795 1.279 . S
C794 C795 1.358 . S
C794 C796 1.356 . S
C794 H848 0.930 . S
C795 N793 1.279 . S
C795 C794 1.358 . S
C795 H799 0.930 . S
C796 C794 1.356 . S
C796 C797 1.348 . S
C797 C792 1.353 . S
C797 C796 1.348 . S
C797 H849 0.929 . S
H798 C792 0.930 . S
H799 C795 0.930 . S
C800 N801 1.314 . S
C800 C802 1.353 . S
C800 H806 0.930 . S
N801 Li777 1.990 . S
N801 C800 1.314 . S
N801 C804 1.279 . S
C802 C800 1.353 . S
C802 C805 1.348 . S
C802 H850 0.929 . S
C803 C804 1.358 . S
C803 C805 1.356 . S
C803 H851 0.930 . S
C804 N801 1.279 . S
C804 C803 1.358 . S
C804 H807 0.930 . S
C805 C802 1.348 . S
C805 C803 1.356 . S
H806 C800 0.930 . S
H807 C804 0.930 . S
C808 C810 1.348 1_545 S
C808 C811 1.356 . S
C808 O838 1.325 . S
N809 C812 1.314 1_545 S
N809 C813 1.279 . S
C810 C808 1.348 1_565 S
C810 C812 1.353 . S
C810 H852 0.929 . S
C811 C808 1.356 . S
C811 C813 1.358 . S
C811 H853 0.930 . S
C812 N809 1.314 1_565 S
C812 C810 1.353 . S
C812 H854 0.930 . S
C813 N809 1.279 . S
C813 C811 1.358 . S
C813 H855 0.930 . S
C814 C815 1.348 . S
C814 C816 1.356 . S
C814 O839 1.325 . S
C815 C814 1.348 . S
C815 C817 1.353 . S
C815 H856 0.929 . S
C816 C814 1.356 . S
C816 C818 1.358 . S
C816 H857 0.930 . S
C817 C815 1.353 . S
C817 N819 1.314 . S
C817 H858 0.930 . S
C818 C816 1.358 . S
C818 N819 1.279 . S
C818 H859 0.930 . S
N819 C817 1.314 . S
N819 C818 1.279 . S
C820 C822 1.353 . S
C820 N823 1.314 . S
C820 H826 0.930 . S
C821 N823 1.279 . S
C821 C824 1.358 . S
C821 H827 0.930 . S
C822 C820 1.353 . S
C822 C825 1.348 . S
C822 H860 0.929 . S
N823 Li778 1.990 . S
N823 C820 1.314 . S
N823 C821 1.279 . S
C824 C821 1.358 . S
C824 C825 1.356 . S
C824 H861 0.930 . S
C825 C822 1.348 . S
C825 C824 1.356 . S
H826 C820 0.930 . S
H827 C821 0.930 . S
C828 N829 1.314 . S
C828 C830 1.353 . S
C828 H834 0.930 . S
N829 Li779 1.990 . S
N829 C828 1.314 . S
N829 C832 1.279 . S
C830 C828 1.353 . S
C830 C833 1.348 . S
C830 H862 0.929 . S
C831 C832 1.358 . S
C831 C833 1.356 . S
C831 H863 0.930 . S
C832 N829 1.279 . S
C832 C831 1.358 . S
C832 H835 0.930 . S
C833 C830 1.348 . S
C833 C831 1.356 . S
H834 C828 0.930 . S
H835 C832 0.930 . S
O836 Li776 1.956 . S
O836 Li777 1.970 1_545 S
O836 Li778 1.961 . S
O836 C780 1.325 . S
O837 Li776 1.934 1_565 S
O837 Li777 1.958 . S
O837 Li779 1.989 . S
O837 C786 1.332 . S
O838 Li776 1.961 . S
O838 Li778 1.956 . S
O838 Li779 1.970 1_545 S
O838 C808 1.325 . S
O839 Li777 1.961 . S
O839 Li778 1.970 1_565 S
O839 Li779 1.956 . S
O839 C814 1.325 . S
H840 C782 0.929 . S
H841 C783 0.930 . S
H842 C784 0.930 . S
H843 C785 0.930 . S
H844 C787 0.930 . S
H845 C789 0.929 . S
H846 C790 0.930 . S
H847 C791 0.930 . S
H848 C794 0.930 . S
H849 C797 0.929 . S
H850 C802 0.929 . S
H851 C803 0.930 . S
H852 C810 0.929 . S
H853 C811 0.930 . S
H854 C812 0.930 . S
H855 C813 0.930 . S
H856 C815 0.929 . S
H857 C816 0.930 . S
H858 C817 0.930 . S
H859 C818 0.930 . S
H860 C822 0.929 . S
H861 C824 0.930 . S
H862 C830 0.929 . S
H863 C831 0.930 . S
Li864 N881 1.990 . S
Li864 O924 1.956 . S
Li864 O925 1.970 . S
Li864 O926 1.961 . S
Li865 N889 1.990 . S
Li865 O924 1.970 . S
Li865 O925 1.956 . S
Li865 O927 1.961 . S
Li866 N911 1.990 . S
Li866 O924 1.961 . S
Li866 O926 1.956 . S
Li866 O927 1.970 . S
Li867 N917 1.990 . S
Li867 O925 1.961 . S
Li867 O926 1.970 . S
Li867 O927 1.956 . S
C868 C870 1.348 . S
C868 C871 1.356 . S
C868 O924 1.325 . S
N869 C872 1.314 . S
N869 C873 1.279 . S
C870 C868 1.348 . S
C870 C872 1.353 . S
C870 H928 0.929 . S
C871 C868 1.356 . S
C871 C873 1.358 . S
C871 H929 0.930 . S
C872 N869 1.314 . S
C872 C870 1.353 . S
C872 H930 0.930 . S
C873 N869 1.279 . S
C873 C871 1.358 . S
C873 H931 0.930 . S
C874 C877 1.348 . S
C874 C878 1.356 . S
C874 O925 1.325 . S
C875 N876 1.279 . S
C875 C878 1.358 . S
C875 H932 0.930 . S
N876 C875 1.279 . S
N876 C879 1.314 . S
C877 C874 1.348 . S
C877 C879 1.353 . S
C877 H933 0.929 . S
C878 C874 1.356 . S
C878 C875 1.358 . S
C878 H934 0.930 . S
C879 N876 1.314 . S
C879 C877 1.353 . S
C879 H935 0.930 . S
C880 N881 1.314 . S
C880 C885 1.353 . S
C880 H886 0.930 . S
N881 Li864 1.990 . S
N881 C880 1.314 . S
N881 C883 1.279 . S
C882 C883 1.358 . S
C882 C884 1.356 . S
C882 H936 0.930 . S
C883 N881 1.279 . S
C883 C882 1.358 . S
C883 H887 0.930 . S
C884 C882 1.356 . S
C884 C885 1.348 . S
C885 C880 1.353 . S
C885 C884 1.348 . S
C885 H937 0.929 . S
H886 C880 0.930 . S
H887 C883 0.930 . S
C888 N889 1.314 . S
C888 C890 1.353 . S
C888 H894 0.930 . S
N889 Li865 1.990 . S
N889 C888 1.314 . S
N889 C892 1.279 . S
C890 C888 1.353 . S
C890 C893 1.348 . S
C890 H938 0.929 . S
C891 C892 1.358 . S
C891 C893 1.356 . S
C891 H939 0.930 . S
C892 N889 1.279 . S
C892 C891 1.358 . S
C892 H895 0.930 . S
C893 C890 1.348 . S
C893 C891 1.356 . S
H894 C888 0.930 . S
H895 C892 0.930 . S
C896 C898 1.348 . S
C896 C899 1.356 . S
C896 O926 1.325 . S
N897 C900 1.314 . S
N897 C901 1.279 . S
C898 C896 1.348 . S
C898 C900 1.353 . S
C898 H940 0.929 . S
C899 C896 1.356 . S
C899 C901 1.358 . S
C899 H941 0.930 . S
C900 N897 1.314 . S
C900 C898 1.353 . S
C900 H942 0.930 . S
C901 N897 1.279 . S
C901 C899 1.358 . S
C901 H943 0.930 . S
C902 C903 1.348 . S
C902 C904 1.356 . S
C902 O927 1.325 . S
C903 C902 1.348 . S
C903 C905 1.353 . S
C903 H944 0.929 . S
C904 C902 1.356 . S
C904 C906 1.358 . S
C904 H945 0.930 . S
C905 C903 1.353 . S
C905 N907 1.314 . S
C905 H946 0.930 . S
C906 C904 1.358 . S
C906 N907 1.279 . S
C906 H947 0.930 . S
N907 C905 1.314 . S
N907 C906 1.279 . S
C908 C910 1.353 . S
C908 N911 1.314 . S
C908 H914 0.930 . S
C909 N911 1.279 . S
C909 C912 1.358 . S
C909 H915 0.930 . S
C910 C908 1.353 . S
C910 C913 1.348 . S
C910 H948 0.929 . S
N911 Li866 1.990 . S
N911 C908 1.314 . S
N911 C909 1.279 . S
C912 C909 1.358 . S
C912 C913 1.356 . S
C912 H949 0.930 . S
C913 C910 1.348 . S
C913 C912 1.356 . S
H914 C908 0.930 . S
H915 C909 0.930 . S
C916 N917 1.314 . S
C916 C918 1.353 . S
C916 H922 0.930 . S
N917 Li867 1.990 . S
N917 C916 1.314 . S
N917 C920 1.279 . S
C918 C916 1.353 . S
C918 C921 1.348 . S
C918 H950 0.929 . S
C919 C920 1.358 . S
C919 C921 1.356 . S
C919 H951 0.930 . S
C920 N917 1.279 . S
C920 C919 1.358 . S
C920 H923 0.930 . S
C921 C918 1.348 . S
C921 C919 1.356 . S
H922 C916 0.930 . S
H923 C920 0.930 . S
O924 Li864 1.956 . S
O924 Li865 1.970 . S
O924 Li866 1.961 . S
O924 C868 1.325 . S
O925 Li864 1.970 . S
O925 Li865 1.956 . S
O925 Li867 1.961 . S
O925 C874 1.325 . S
O926 Li864 1.961 . S
O926 Li866 1.956 . S
O926 Li867 1.970 . S
O926 C896 1.325 . S
O927 Li865 1.961 . S
O927 Li866 1.970 . S
O927 Li867 1.956 . S
O927 C902 1.325 . S
H928 C870 0.929 . S
H929 C871 0.930 . S
H930 C872 0.930 . S
H931 C873 0.930 . S
H932 C875 0.930 . S
H933 C877 0.929 . S
H934 C878 0.930 . S
H935 C879 0.930 . S
H936 C882 0.930 . S
H937 C885 0.929 . S
H938 C890 0.929 . S
H939 C891 0.930 . S
H940 C898 0.929 . S
H941 C899 0.930 . S
H942 C900 0.930 . S
H943 C901 0.930 . S
H944 C903 0.929 . S
H945 C904 0.930 . S
H946 C905 0.930 . S
H947 C906 0.930 . S
H948 C910 0.929 . S
H949 C912 0.930 . S
H950 C918 0.929 . S
H951 C919 0.930 . S
Li952 N969 1.990 . S
Li952 O1012 1.956 . S
Li952 O1013 1.970 . S
Li952 O1014 1.961 . S
Li953 N977 1.990 . S
Li953 O1012 1.970 . S
Li953 O1013 1.956 . S
Li953 O1015 1.961 . S
Li954 N999 1.990 . S
Li954 O1012 1.961 . S
Li954 O1014 1.956 . S
Li954 O1015 1.970 . S
Li955 N1005 1.990 . S
Li955 O1013 1.961 . S
Li955 O1014 1.970 . S
Li955 O1015 1.956 . S
C956 C958 1.348 . S
C956 C959 1.356 . S
C956 O1012 1.325 . S
N957 C960 1.314 . S
N957 C961 1.279 . S
C958 C956 1.348 . S
C958 C960 1.353 . S
C958 H1016 0.929 . S
C959 C956 1.356 . S
C959 C961 1.358 . S
C959 H1017 0.930 . S
C960 N957 1.314 . S
C960 C958 1.353 . S
C960 H1018 0.930 . S
C961 N957 1.279 . S
C961 C959 1.358 . S
C961 H1019 0.930 . S
C962 C965 1.348 . S
C962 C966 1.356 . S
C962 O1013 1.325 . S
C963 N964 1.279 . S
C963 C966 1.358 . S
C963 H1020 0.930 . S
N964 C963 1.279 . S
N964 C967 1.314 . S
C965 C962 1.348 . S
C965 C967 1.353 . S
C965 H1021 0.929 . S
C966 C962 1.356 . S
C966 C963 1.358 . S
C966 H1022 0.930 . S
C967 N964 1.314 . S
C967 C965 1.353 . S
C967 H1023 0.930 . S
C968 N969 1.314 . S
C968 C973 1.353 . S
C968 H974 0.930 . S
N969 Li952 1.990 . S
N969 C968 1.314 . S
N969 C971 1.279 . S
C970 C971 1.358 . S
C970 C972 1.356 . S
C970 H1024 0.930 . S
C971 N969 1.279 . S
C971 C970 1.358 . S
C971 H975 0.930 . S
C972 C970 1.356 . S
C972 C973 1.348 . S
C973 C968 1.353 . S
C973 C972 1.348 . S
C973 H1025 0.929 . S
H974 C968 0.930 . S
H975 C971 0.930 . S
C976 N977 1.314 . S
C976 C978 1.353 . S
C976 H982 0.930 . S
N977 Li953 1.990 . S
N977 C976 1.314 . S
N977 C980 1.279 . S
C978 C976 1.353 . S
C978 C981 1.348 . S
C978 H1026 0.929 . S
C979 C980 1.358 . S
C979 C981 1.356 . S
C979 H1027 0.930 . S
C980 N977 1.279 . S
C980 C979 1.358 . S
C980 H983 0.930 . S
C981 C978 1.348 . S
C981 C979 1.356 . S
H982 C976 0.930 . S
H983 C980 0.930 . S
C984 C986 1.348 . S
C984 C987 1.356 . S
C984 O1014 1.325 . S
N985 C988 1.314 . S
N985 C989 1.279 . S
C986 C984 1.348 . S
C986 C988 1.353 . S
C986 H1028 0.929 . S
C987 C984 1.356 . S
C987 C989 1.358 . S
C987 H1029 0.930 . S
C988 N985 1.314 . S
C988 C986 1.353 . S
C988 H1030 0.930 . S
C989 N985 1.279 . S
C989 C987 1.358 . S
C989 H1031 0.930 . S
C990 C991 1.348 . S
C990 C992 1.356 . S
C990 O1015 1.325 . S
C991 C990 1.348 . S
C991 C993 1.353 . S
C991 H1032 0.929 . S
C992 C990 1.356 . S
C992 C994 1.358 . S
C992 H1033 0.930 . S
C993 C991 1.353 . S
C993 N995 1.314 . S
C993 H1034 0.930 . S
C994 C992 1.358 . S
C994 N995 1.279 . S
C994 H1035 0.930 . S
N995 C993 1.314 . S
N995 C994 1.279 . S
C996 C998 1.353 . S
C996 N999 1.314 . S
C996 H1002 0.930 . S
C997 N999 1.279 . S
C997 C1000 1.358 . S
C997 H1003 0.930 . S
C998 C996 1.353 . S
C998 C1001 1.348 . S
C998 H1036 0.929 . S
N999 Li954 1.990 . S
N999 C996 1.314 . S
N999 C997 1.279 . S
C1000 C997 1.358 . S
C1000 C1001 1.356 . S
C1000 H1037 0.930 . S
C1001 C998 1.348 . S
C1001 C1000 1.356 . S
H1002 C996 0.930 . S
H1003 C997 0.930 . S
C1004 N1005 1.314 . S
C1004 C1006 1.353 . S
C1004 H1010 0.930 . S
N1005 Li955 1.990 . S
N1005 C1004 1.314 . S
N1005 C1008 1.279 . S
C1006 C1004 1.353 . S
C1006 C1009 1.348 . S
C1006 H1038 0.929 . S
C1007 C1008 1.358 . S
C1007 C1009 1.356 . S
C1007 H1039 0.930 . S
C1008 N1005 1.279 . S
C1008 C1007 1.358 . S
C1008 H1011 0.930 . S
C1009 C1006 1.348 . S
C1009 C1007 1.356 . S
H1010 C1004 0.930 . S
H1011 C1008 0.930 . S
O1012 Li952 1.956 . S
O1012 Li953 1.970 . S
O1012 Li954 1.961 . S
O1012 C956 1.325 . S
O1013 Li952 1.970 . S
O1013 Li953 1.956 . S
O1013 Li955 1.961 . S
O1013 C962 1.325 . S
O1014 Li952 1.961 . S
O1014 Li954 1.956 . S
O1014 Li955 1.970 . S
O1014 C984 1.325 . S
O1015 Li953 1.961 . S
O1015 Li954 1.970 . S
O1015 Li955 1.956 . S
O1015 C990 1.325 . S
H1016 C958 0.929 . S
H1017 C959 0.930 . S
H1018 C960 0.930 . S
H1019 C961 0.930 . S
H1020 C963 0.930 . S
H1021 C965 0.929 . S
H1022 C966 0.930 . S
H1023 C967 0.930 . S
H1024 C970 0.930 . S
H1025 C973 0.929 . S
H1026 C978 0.929 . S
H1027 C979 0.930 . S
H1028 C986 0.929 . S
H1029 C987 0.930 . S
H1030 C988 0.930 . S
H1031 C989 0.930 . S
H1032 C991 0.929 . S
H1033 C992 0.930 . S
H1034 C993 0.930 . S
H1035 C994 0.930 . S
H1036 C998 0.929 . S
H1037 C1000 0.930 . S
H1038 C1006 0.929 . S
H1039 C1007 0.930 . S
Li1040 N1057 1.990 . S
Li1040 O1100 1.956 . S
Li1040 O1101 1.970 . S
Li1040 O1102 1.961 . S
Li1041 N1065 1.990 . S
Li1041 O1100 1.970 . S
Li1041 O1101 1.956 . S
Li1041 O1103 1.961 . S
Li1042 N1087 1.990 . S
Li1042 O1100 1.961 . S
Li1042 O1102 1.956 . S
Li1042 O1103 1.970 . S
Li1043 N1093 1.990 . S
Li1043 O1101 1.961 . S
Li1043 O1102 1.970 . S
Li1043 O1103 1.956 . S
C1044 C1046 1.348 . S
C1044 C1047 1.356 . S
C1044 O1100 1.325 . S
N1045 C1048 1.314 . S
N1045 C1049 1.279 . S
C1046 C1044 1.348 . S
C1046 C1048 1.353 . S
C1046 H1104 0.929 . S
C1047 C1044 1.356 . S
C1047 C1049 1.358 . S
C1047 H1105 0.930 . S
C1048 N1045 1.314 . S
C1048 C1046 1.353 . S
C1048 H1106 0.930 . S
C1049 N1045 1.279 . S
C1049 C1047 1.358 . S
C1049 H1107 0.930 . S
C1050 C1053 1.348 . S
C1050 C1054 1.356 . S
C1050 O1101 1.325 . S
C1051 N1052 1.279 . S
C1051 C1054 1.358 . S
C1051 H1108 0.930 . S
N1052 C1051 1.279 . S
N1052 C1055 1.314 . S
C1053 C1050 1.348 . S
C1053 C1055 1.353 . S
C1053 H1109 0.929 . S
C1054 C1050 1.356 . S
C1054 C1051 1.358 . S
C1054 H1110 0.930 . S
C1055 N1052 1.314 . S
C1055 C1053 1.353 . S
C1055 H1111 0.930 . S
C1056 N1057 1.314 . S
C1056 C1061 1.353 . S
C1056 H1062 0.930 . S
N1057 Li1040 1.990 . S
N1057 C1056 1.314 . S
N1057 C1059 1.279 . S
C1058 C1059 1.358 . S
C1058 C1060 1.356 . S
C1058 H1112 0.930 . S
C1059 N1057 1.279 . S
C1059 C1058 1.358 . S
C1059 H1063 0.930 . S
C1060 C1058 1.356 . S
C1060 C1061 1.348 . S
C1061 C1056 1.353 . S
C1061 C1060 1.348 . S
C1061 H1113 0.929 . S
H1062 C1056 0.930 . S
H1063 C1059 0.930 . S
C1064 N1065 1.314 . S
C1064 C1066 1.353 . S
C1064 H1070 0.930 . S
N1065 Li1041 1.990 . S
N1065 C1064 1.314 . S
N1065 C1068 1.279 . S
C1066 C1064 1.353 . S
C1066 C1069 1.348 . S
C1066 H1114 0.929 . S
C1067 C1068 1.358 . S
C1067 C1069 1.356 . S
C1067 H1115 0.930 . S
C1068 N1065 1.279 . S
C1068 C1067 1.358 . S
C1068 H1071 0.930 . S
C1069 C1066 1.348 . S
C1069 C1067 1.356 . S
H1070 C1064 0.930 . S
H1071 C1068 0.930 . S
C1072 C1074 1.348 . S
C1072 C1075 1.356 . S
C1072 O1102 1.325 . S
N1073 C1076 1.314 . S
N1073 C1077 1.279 . S
C1074 C1072 1.348 . S
C1074 C1076 1.353 . S
C1074 H1116 0.929 . S
C1075 C1072 1.356 . S
C1075 C1077 1.358 . S
C1075 H1117 0.930 . S
C1076 N1073 1.314 . S
C1076 C1074 1.353 . S
C1076 H1118 0.930 . S
C1077 N1073 1.279 . S
C1077 C1075 1.358 . S
C1077 H1119 0.930 . S
C1078 C1079 1.348 . S
C1078 C1080 1.356 . S
C1078 O1103 1.325 . S
C1079 C1078 1.348 . S
C1079 C1081 1.353 . S
C1079 H1120 0.929 . S
C1080 C1078 1.356 . S
C1080 C1082 1.358 . S
C1080 H1121 0.930 . S
C1081 C1079 1.353 . S
C1081 N1083 1.314 . S
C1081 H1122 0.930 . S
C1082 C1080 1.358 . S
C1082 N1083 1.279 . S
C1082 H1123 0.930 . S
N1083 C1081 1.314 . S
N1083 C1082 1.279 . S
C1084 C1086 1.353 . S
C1084 N1087 1.314 . S
C1084 H1090 0.930 . S
C1085 N1087 1.279 . S
C1085 C1088 1.358 . S
C1085 H1091 0.930 . S
C1086 C1084 1.353 . S
C1086 C1089 1.348 . S
C1086 H1124 0.929 . S
N1087 Li1042 1.990 . S
N1087 C1084 1.314 . S
N1087 C1085 1.279 . S
C1088 C1085 1.358 . S
C1088 C1089 1.356 . S
C1088 H1125 0.930 . S
C1089 C1086 1.348 . S
C1089 C1088 1.356 . S
H1090 C1084 0.930 . S
H1091 C1085 0.930 . S
C1092 N1093 1.314 . S
C1092 C1094 1.353 . S
C1092 H1098 0.930 . S
N1093 Li1043 1.990 . S
N1093 C1092 1.314 . S
N1093 C1096 1.279 . S
C1094 C1092 1.353 . S
C1094 C1097 1.348 . S
C1094 H1126 0.929 . S
C1095 C1096 1.358 . S
C1095 C1097 1.356 . S
C1095 H1127 0.930 . S
C1096 N1093 1.279 . S
C1096 C1095 1.358 . S
C1096 H1099 0.930 . S
C1097 C1094 1.348 . S
C1097 C1095 1.356 . S
H1098 C1092 0.930 . S
H1099 C1096 0.930 . S
O1100 Li1040 1.956 . S
O1100 Li1041 1.970 . S
O1100 Li1042 1.961 . S
O1100 C1044 1.325 . S
O1101 Li1040 1.970 . S
O1101 Li1041 1.956 . S
O1101 Li1043 1.961 . S
O1101 C1050 1.325 . S
O1102 Li1040 1.961 . S
O1102 Li1042 1.956 . S
O1102 Li1043 1.970 . S
O1102 C1072 1.325 . S
O1103 Li1041 1.961 . S
O1103 Li1042 1.970 . S
O1103 Li1043 1.956 . S
O1103 C1078 1.325 . S
H1104 C1046 0.929 . S
H1105 C1047 0.930 . S
H1106 C1048 0.930 . S
H1107 C1049 0.930 . S
H1108 C1051 0.930 . S
H1109 C1053 0.929 . S
H1110 C1054 0.930 . S
H1111 C1055 0.930 . S
H1112 C1058 0.930 . S
H1113 C1061 0.929 . S
H1114 C1066 0.929 . S
H1115 C1067 0.930 . S
H1116 C1074 0.929 . S
H1117 C1075 0.930 . S
H1118 C1076 0.930 . S
H1119 C1077 0.930 . S
H1120 C1079 0.929 . S
H1121 C1080 0.930 . S
H1122 C1081 0.930 . S
H1123 C1082 0.930 . S
H1124 C1086 0.929 . S
H1125 C1088 0.930 . S
H1126 C1094 0.929 . S
H1127 C1095 0.930 . S
Li1128 N1145 1.990 . S
Li1128 O1188 1.956 . S
Li1128 O1189 1.970 1_565 S
Li1128 O1190 1.993 . S
Li1129 N1153 1.990 . S
Li1129 O1188 1.970 1_545 S
Li1129 O1189 1.956 . S
Li1129 O1191 1.961 . S
Li1130 N1175 1.990 . S
Li1130 O1188 1.961 . S
Li1130 O1190 1.957 . S
Li1130 O1191 1.970 1_565 S
Li1131 N1181 1.990 . S
Li1131 O1189 1.961 . S
Li1131 O1190 1.928 1_545 S
Li1131 O1191 1.956 . S
C1132 C1134 1.348 . S
C1132 C1135 1.356 . S
C1132 O1188 1.325 . S
N1133 C1136 1.314 . S
N1133 C1137 1.279 . S
C1134 C1132 1.348 . S
C1134 C1136 1.353 . S
C1134 H1192 0.929 . S
C1135 C1132 1.356 . S
C1135 C1137 1.358 . S
C1135 H1193 0.930 . S
C1136 N1133 1.314 . S
C1136 C1134 1.353 . S
C1136 H1194 0.930 . S
C1137 N1133 1.279 . S
C1137 C1135 1.358 . S
C1137 H1195 0.930 . S
C1138 C1141 1.348 1_545 S
C1138 C1142 1.356 . S
C1138 O1189 1.325 . S
C1139 N1140 1.279 . S
C1139 C1142 1.358 . S
C1139 H1196 0.930 . S
N1140 C1139 1.279 . S
N1140 C1143 1.314 1_545 S
C1141 C1138 1.348 1_565 S
C1141 C1143 1.353 . S
C1141 H1197 0.929 . S
C1142 C1138 1.356 . S
C1142 C1139 1.358 . S
C1142 H1198 0.930 . S
C1143 N1140 1.314 1_565 S
C1143 C1141 1.353 . S
C1143 H1199 0.930 . S
C1144 N1145 1.314 . S
C1144 C1149 1.353 . S
C1144 H1150 0.930 . S
N1145 Li1128 1.990 . S
N1145 C1144 1.314 . S
N1145 C1147 1.279 . S
C1146 C1147 1.358 . S
C1146 C1148 1.356 . S
C1146 H1200 0.930 . S
C1147 N1145 1.279 . S
C1147 C1146 1.358 . S
C1147 H1151 0.930 . S
C1148 C1146 1.356 . S
C1148 C1149 1.348 . S
C1149 C1144 1.353 . S
C1149 C1148 1.348 . S
C1149 H1201 0.929 . S
H1150 C1144 0.930 . S
H1151 C1147 0.930 . S
C1152 N1153 1.314 . S
C1152 C1154 1.353 . S
C1152 H1158 0.930 . S
N1153 Li1129 1.990 . S
N1153 C1152 1.314 . S
N1153 C1156 1.279 . S
C1154 C1152 1.353 . S
C1154 C1157 1.348 . S
C1154 H1202 0.929 . S
C1155 C1156 1.358 . S
C1155 C1157 1.356 . S
C1155 H1203 0.930 . S
C1156 N1153 1.279 . S
C1156 C1155 1.358 . S
C1156 H1159 0.930 . S
C1157 C1154 1.348 . S
C1157 C1155 1.356 . S
H1158 C1152 0.930 . S
H1159 C1156 0.930 . S
C1160 C1162 1.348 1_565 S
C1160 C1163 1.356 . S
C1160 O1190 1.334 . S
N1161 C1164 1.314 1_565 S
N1161 C1165 1.279 . S
C1162 C1160 1.348 1_545 S
C1162 C1164 1.353 . S
C1162 H1204 0.929 . S
C1163 C1160 1.356 . S
C1163 C1165 1.358 . S
C1163 H1205 0.930 . S
C1164 N1161 1.314 1_545 S
C1164 C1162 1.353 . S
C1164 H1206 0.930 . S
C1165 N1161 1.279 . S
C1165 C1163 1.358 . S
C1165 H1207 0.930 . S
C1166 C1167 1.348 . S
C1166 C1168 1.356 . S
C1166 O1191 1.325 . S
C1167 C1166 1.348 . S
C1167 C1169 1.353 . S
C1167 H1208 0.929 . S
C1168 C1166 1.356 . S
C1168 C1170 1.358 . S
C1168 H1209 0.930 . S
C1169 C1167 1.353 . S
C1169 N1171 1.314 . S
C1169 H1210 0.930 . S
C1170 C1168 1.358 . S
C1170 N1171 1.279 . S
C1170 H1211 0.930 . S
N1171 C1169 1.314 . S
N1171 C1170 1.279 . S
C1172 C1174 1.353 . S
C1172 N1175 1.314 . S
C1172 H1178 0.930 . S
C1173 N1175 1.279 . S
C1173 C1176 1.358 . S
C1173 H1179 0.941 . S
C1174 C1172 1.353 . S
C1174 C1177 1.348 . S
C1174 H1212 0.929 . S
N1175 Li1130 1.990 . S
N1175 C1172 1.314 . S
N1175 C1173 1.279 . S
C1176 C1173 1.358 . S
C1176 C1177 1.356 . S
C1176 H1213 0.930 . S
C1177 C1174 1.348 . S
C1177 C1176 1.356 . S
H1178 C1172 0.930 . S
H1179 C1173 0.941 . S
C1180 N1181 1.314 . S
C1180 C1182 1.353 . S
C1180 H1186 0.930 . S
N1181 Li1131 1.990 . S
N1181 C1180 1.314 . S
N1181 C1184 1.279 . S
C1182 C1180 1.353 . S
C1182 C1185 1.348 . S
C1182 H1214 0.929 . S
C1183 C1184 1.358 . S
C1183 C1185 1.356 . S
C1183 H1215 0.930 . S
C1184 N1181 1.279 . S
C1184 C1183 1.358 . S
C1184 H1187 0.930 . S
C1185 C1182 1.348 . S
C1185 C1183 1.356 . S
H1186 C1180 0.930 . S
H1187 C1184 0.930 . S
O1188 Li1128 1.956 . S
O1188 Li1129 1.970 1_565 S
O1188 Li1130 1.961 . S
O1188 C1132 1.325 . S
O1189 Li1128 1.970 1_545 S
O1189 Li1129 1.956 . S
O1189 Li1131 1.961 . S
O1189 C1138 1.325 . S
O1190 Li1128 1.993 . S
O1190 Li1130 1.957 . S
O1190 Li1131 1.928 1_565 S
O1190 C1160 1.334 . S
O1191 Li1129 1.961 . S
O1191 Li1130 1.970 1_545 S
O1191 Li1131 1.956 . S
O1191 C1166 1.325 . S
H1192 C1134 0.929 . S
H1193 C1135 0.930 . S
H1194 C1136 0.930 . S
H1195 C1137 0.930 . S
H1196 C1139 0.930 . S
H1197 C1141 0.929 . S
H1198 C1142 0.930 . S
H1199 C1143 0.930 . S
H1200 C1146 0.930 . S
H1201 C1149 0.929 . S
H1202 C1154 0.929 . S
H1203 C1155 0.930 . S
H1204 C1162 0.929 . S
H1205 C1163 0.930 . S
H1206 C1164 0.930 . S
H1207 C1165 0.930 . S
H1208 C1167 0.929 . S
H1209 C1168 0.930 . S
H1210 C1169 0.930 . S
H1211 C1170 0.930 . S
H1212 C1174 0.929 . S
H1213 C1176 0.930 . S
H1214 C1182 0.929 . S
H1215 C1183 0.930 . S
Li1216 N1233 1.990 . S
Li1216 O1276 1.956 . S
Li1216 O1277 1.970 . S
Li1216 O1278 1.961 . S
Li1217 N1241 1.982 1_455 S
Li1217 O1276 2.015 . S
Li1217 O1277 1.958 . S
Li1217 O1279 1.929 1_455 S
Li1218 N1263 1.990 . S
Li1218 O1276 1.961 . S
Li1218 O1278 1.956 . S
Li1218 O1279 1.970 1_455 S
Li1219 N1269 1.990 . S
Li1219 O1277 1.961 1_655 S
Li1219 O1278 1.970 1_655 S
Li1219 O1279 1.956 . S
C1220 C1222 1.348 . S
C1220 C1223 1.356 . S
C1220 O1276 1.325 . S
N1221 C1224 1.314 . S
N1221 C1225 1.279 . S
C1222 C1220 1.348 . S
C1222 C1224 1.353 . S
C1222 H1280 0.929 . S
C1223 C1220 1.356 . S
C1223 C1225 1.358 . S
C1223 H1281 0.930 . S
C1224 N1221 1.314 . S
C1224 C1222 1.353 . S
C1224 H1282 0.930 . S
C1225 N1221 1.279 . S
C1225 C1223 1.358 . S
C1225 H1283 0.930 . S
C1226 C1229 1.348 1_655 S
C1226 C1230 1.356 . S
C1226 O1277 1.325 1_655 S
C1227 N1228 1.279 . S
C1227 C1230 1.358 . S
C1227 H1284 0.930 . S
N1228 C1227 1.279 . S
N1228 C1231 1.314 1_655 S
C1229 C1226 1.348 1_455 S
C1229 C1231 1.353 . S
C1229 H1285 0.929 . S
C1230 C1226 1.356 . S
C1230 C1227 1.358 . S
C1230 H1286 0.930 . S
C1231 N1228 1.314 1_455 S
C1231 C1229 1.353 . S
C1231 H1287 0.930 . S
C1232 N1233 1.314 . S
C1232 C1237 1.353 . S
C1232 H1238 0.930 . S
N1233 Li1216 1.990 . S
N1233 C1232 1.314 . S
N1233 C1235 1.279 . S
C1234 C1235 1.358 . S
C1234 C1236 1.356 . S
C1234 H1288 0.930 . S
C1235 N1233 1.279 . S
C1235 C1234 1.358 . S
C1235 H1239 0.930 . S
C1236 C1234 1.356 . S
C1236 C1237 1.348 . S
C1237 C1232 1.353 . S
C1237 C1236 1.348 . S
C1237 H1289 0.929 . S
H1238 C1232 0.930 . S
H1239 C1235 0.930 . S
C1240 N1241 1.314 . S
C1240 C1242 1.353 . S
C1240 H1246 0.930 . S
N1241 Li1217 1.982 1_655 S
N1241 C1240 1.314 . S
N1241 C1244 1.279 . S
C1242 C1240 1.353 . S
C1242 C1245 1.348 . S
C1242 H1290 0.929 . S
C1243 C1244 1.358 . S
C1243 C1245 1.356 . S
C1243 H1291 0.930 . S
C1244 N1241 1.279 . S
C1244 C1243 1.358 . S
C1244 H1247 0.930 1_655 S
C1245 C1242 1.348 . S
C1245 C1243 1.356 . S
H1246 C1240 0.930 . S
H1247 C1244 0.930 1_455 S
C1248 C1250 1.348 1_455 S
C1248 C1251 1.356 . S
C1248 O1278 1.325 . S
N1249 C1252 1.314 1_455 S
N1249 C1253 1.279 . S
C1250 C1248 1.348 1_655 S
C1250 C1252 1.353 . S
C1250 H1292 0.929 . S
C1251 C1248 1.356 . S
C1251 C1253 1.358 . S
C1251 H1293 0.930 . S
C1252 N1249 1.314 1_655 S
C1252 C1250 1.353 . S
C1252 H1294 0.930 . S
C1253 N1249 1.279 . S
C1253 C1251 1.358 . S
C1253 H1295 0.930 . S
C1254 C1255 1.348 . S
C1254 C1256 1.356 . S
C1254 O1279 1.325 . S
C1255 C1254 1.348 . S
C1255 C1257 1.353 . S
C1255 H1296 0.929 . S
C1256 C1254 1.356 . S
C1256 C1258 1.358 . S
C1256 H1297 0.930 . S
C1257 C1255 1.353 . S
C1257 N1259 1.314 . S
C1257 H1298 0.930 . S
C1258 C1256 1.358 . S
C1258 N1259 1.279 . S
C1258 H1299 0.930 . S
N1259 C1257 1.314 . S
N1259 C1258 1.279 . S
C1260 C1262 1.353 . S
C1260 N1263 1.314 . S
C1260 H1266 0.930 . S
C1261 N1263 1.279 . S
C1261 C1264 1.358 . S
C1261 H1267 0.930 . S
C1262 C1260 1.353 . S
C1262 C1265 1.348 . S
C1262 H1300 0.929 . S
N1263 Li1218 1.990 . S
N1263 C1260 1.314 . S
N1263 C1261 1.279 . S
C1264 C1261 1.358 . S
C1264 C1265 1.356 . S
C1264 H1301 0.930 . S
C1265 C1262 1.348 . S
C1265 C1264 1.356 . S
H1266 C1260 0.930 . S
H1267 C1261 0.930 . S
C1268 N1269 1.314 . S
C1268 C1270 1.353 . S
C1268 H1274 0.930 . S
N1269 Li1219 1.990 . S
N1269 C1268 1.314 . S
N1269 C1272 1.279 . S
C1270 C1268 1.353 . S
C1270 C1273 1.348 . S
C1270 H1302 0.929 . S
C1271 C1272 1.358 . S
C1271 C1273 1.356 . S
C1271 H1303 0.930 . S
C1272 N1269 1.279 . S
C1272 C1271 1.358 . S
C1272 H1275 0.930 . S
C1273 C1270 1.348 . S
C1273 C1271 1.356 . S
H1274 C1268 0.930 . S
H1275 C1272 0.930 . S
O1276 Li1216 1.956 . S
O1276 Li1217 2.015 . S
O1276 Li1218 1.961 . S
O1276 C1220 1.325 . S
O1277 Li1216 1.970 . S
O1277 Li1217 1.958 . S
O1277 Li1219 1.961 1_455 S
O1277 C1226 1.325 1_455 S
O1278 Li1216 1.961 . S
O1278 Li1218 1.956 . S
O1278 Li1219 1.970 1_455 S
O1278 C1248 1.325 . S
O1279 Li1217 1.929 1_655 S
O1279 Li1218 1.970 1_655 S
O1279 Li1219 1.956 . S
O1279 C1254 1.325 . S
H1280 C1222 0.929 . S
H1281 C1223 0.930 . S
H1282 C1224 0.930 . S
H1283 C1225 0.930 . S
H1284 C1227 0.930 . S
H1285 C1229 0.929 . S
H1286 C1230 0.930 . S
H1287 C1231 0.930 . S
H1288 C1234 0.930 . S
H1289 C1237 0.929 . S
H1290 C1242 0.929 . S
H1291 C1243 0.930 . S
H1292 C1250 0.929 . S
H1293 C1251 0.930 . S
H1294 C1252 0.930 . S
H1295 C1253 0.930 . S
H1296 C1255 0.929 . S
H1297 C1256 0.930 . S
H1298 C1257 0.930 . S
H1299 C1258 0.930 . S
H1300 C1262 0.929 . S
H1301 C1264 0.930 . S
H1302 C1270 0.929 . S
H1303 C1271 0.930 . S
Li1304 N1321 1.990 . S
Li1304 O1364 1.956 . S
Li1304 O1365 1.970 . S
Li1304 O1366 1.961 . S
Li1305 N1329 1.990 . S
Li1305 O1364 1.970 . S
Li1305 O1365 1.956 . S
Li1305 O1367 1.961 . S
Li1306 N1351 1.990 . S
Li1306 O1364 1.961 . S
Li1306 O1366 1.956 . S
Li1306 O1367 1.970 . S
Li1307 N1357 1.990 . S
Li1307 O1365 1.961 . S
Li1307 O1366 1.970 . S
Li1307 O1367 1.956 . S
C1308 C1310 1.348 . S
C1308 C1311 1.356 . S
C1308 O1364 1.325 . S
N1309 C1312 1.314 . S
N1309 C1313 1.279 . S
C1310 C1308 1.348 . S
C1310 C1312 1.353 . S
C1310 H1368 0.929 . S
C1311 C1308 1.356 . S
C1311 C1313 1.358 . S
C1311 H1369 0.930 . S
C1312 N1309 1.314 . S
C1312 C1310 1.353 . S
C1312 H1370 0.930 . S
C1313 N1309 1.279 . S
C1313 C1311 1.358 . S
C1313 H1371 0.930 . S
C1314 C1317 1.348 . S
C1314 C1318 1.356 . S
C1314 O1365 1.325 . S
C1315 N1316 1.279 . S
C1315 C1318 1.358 . S
C1315 H1372 0.930 . S
N1316 C1315 1.279 . S
N1316 C1319 1.314 . S
C1317 C1314 1.348 . S
C1317 C1319 1.353 . S
C1317 H1373 0.929 . S
C1318 C1314 1.356 . S
C1318 C1315 1.358 . S
C1318 H1374 0.930 . S
C1319 N1316 1.314 . S
C1319 C1317 1.353 . S
C1319 H1375 0.930 . S
C1320 N1321 1.314 . S
C1320 C1325 1.353 . S
C1320 H1326 0.930 . S
N1321 Li1304 1.990 . S
N1321 C1320 1.314 . S
N1321 C1323 1.279 . S
C1322 C1323 1.358 . S
C1322 C1324 1.356 . S
C1322 H1376 0.930 . S
C1323 N1321 1.279 . S
C1323 C1322 1.358 . S
C1323 H1327 0.930 . S
C1324 C1322 1.356 . S
C1324 C1325 1.348 . S
C1325 C1320 1.353 . S
C1325 C1324 1.348 . S
C1325 H1377 0.929 . S
H1326 C1320 0.930 . S
H1327 C1323 0.930 . S
C1328 N1329 1.314 . S
C1328 C1330 1.353 . S
C1328 H1334 0.930 . S
N1329 Li1305 1.990 . S
N1329 C1328 1.314 . S
N1329 C1332 1.279 . S
C1330 C1328 1.353 . S
C1330 C1333 1.348 . S
C1330 H1378 0.929 . S
C1331 C1332 1.358 . S
C1331 C1333 1.356 . S
C1331 H1379 0.930 . S
C1332 N1329 1.279 . S
C1332 C1331 1.358 . S
C1332 H1335 0.930 . S
C1333 C1330 1.348 . S
C1333 C1331 1.356 . S
H1334 C1328 0.930 . S
H1335 C1332 0.930 . S
C1336 C1338 1.348 . S
C1336 C1339 1.356 . S
C1336 O1366 1.325 . S
N1337 C1340 1.314 . S
N1337 C1341 1.279 . S
C1338 C1336 1.348 . S
C1338 C1340 1.353 . S
C1338 H1380 0.929 . S
C1339 C1336 1.356 . S
C1339 C1341 1.358 . S
C1339 H1381 0.930 . S
C1340 N1337 1.314 . S
C1340 C1338 1.353 . S
C1340 H1382 0.930 . S
C1341 N1337 1.279 . S
C1341 C1339 1.358 . S
C1341 H1383 0.930 . S
C1342 C1343 1.348 . S
C1342 C1344 1.356 . S
C1342 O1367 1.325 . S
C1343 C1342 1.348 . S
C1343 C1345 1.353 . S
C1343 H1384 0.929 . S
C1344 C1342 1.356 . S
C1344 C1346 1.358 . S
C1344 H1385 0.930 . S
C1345 C1343 1.353 . S
C1345 N1347 1.314 . S
C1345 H1386 0.930 . S
C1346 C1344 1.358 . S
C1346 N1347 1.279 . S
C1346 H1387 0.930 . S
N1347 C1345 1.314 . S
N1347 C1346 1.279 . S
C1348 C1350 1.353 . S
C1348 N1351 1.314 . S
C1348 H1354 0.930 . S
C1349 N1351 1.279 . S
C1349 C1352 1.358 . S
C1349 H1355 0.930 . S
C1350 C1348 1.353 . S
C1350 C1353 1.348 . S
C1350 H1388 0.929 . S
N1351 Li1306 1.990 . S
N1351 C1348 1.314 . S
N1351 C1349 1.279 . S
C1352 C1349 1.358 . S
C1352 C1353 1.356 . S
C1352 H1389 0.930 . S
C1353 C1350 1.348 . S
C1353 C1352 1.356 . S
H1354 C1348 0.930 . S
H1355 C1349 0.930 . S
C1356 N1357 1.314 . S
C1356 C1358 1.353 . S
C1356 H1362 0.930 . S
N1357 Li1307 1.990 . S
N1357 C1356 1.314 . S
N1357 C1360 1.279 . S
C1358 C1356 1.353 . S
C1358 C1361 1.348 . S
C1358 H1390 0.929 . S
C1359 C1360 1.358 . S
C1359 C1361 1.356 . S
C1359 H1391 0.930 . S
C1360 N1357 1.279 . S
C1360 C1359 1.358 . S
C1360 H1363 0.930 . S
C1361 C1358 1.348 . S
C1361 C1359 1.356 . S
H1362 C1356 0.930 . S
H1363 C1360 0.930 . S
O1364 Li1304 1.956 . S
O1364 Li1305 1.970 . S
O1364 Li1306 1.961 . S
O1364 C1308 1.325 . S
O1365 Li1304 1.970 . S
O1365 Li1305 1.956 . S
O1365 Li1307 1.961 . S
O1365 C1314 1.325 . S
O1366 Li1304 1.961 . S
O1366 Li1306 1.956 . S
O1366 Li1307 1.970 . S
O1366 C1336 1.325 . S
O1367 Li1305 1.961 . S
O1367 Li1306 1.970 . S
O1367 Li1307 1.956 . S
O1367 C1342 1.325 . S
H1368 C1310 0.929 . S
H1369 C1311 0.930 . S
H1370 C1312 0.930 . S
H1371 C1313 0.930 . S
H1372 C1315 0.930 . S
H1373 C1317 0.929 . S
H1374 C1318 0.930 . S
H1375 C1319 0.930 . S
H1376 C1322 0.930 . S
H1377 C1325 0.929 . S
H1378 C1330 0.929 . S
H1379 C1331 0.930 . S
H1380 C1338 0.929 . S
H1381 C1339 0.930 . S
H1382 C1340 0.930 . S
H1383 C1341 0.930 . S
H1384 C1343 0.929 . S
H1385 C1344 0.930 . S
H1386 C1345 0.930 . S
H1387 C1346 0.930 . S
H1388 C1350 0.929 . S
H1389 C1352 0.930 . S
H1390 C1358 0.929 . S
H1391 C1359 0.930 . S
Li1392 N1409 1.990 . S
Li1392 O1452 1.956 . S
Li1392 O1453 1.970 1_455 S
Li1392 O1454 1.961 . S
Li1393 N1417 1.990 . S
Li1393 O1452 1.970 1_655 S
Li1393 O1453 1.956 . S
Li1393 O1455 1.961 . S
Li1394 N1439 1.990 . S
Li1394 O1452 1.961 . S
Li1394 O1454 1.956 . S
Li1394 O1455 1.970 1_455 S
Li1395 N1445 1.990 . S
Li1395 O1453 1.961 . S
Li1395 O1454 1.970 1_655 S
Li1395 O1455 1.956 . S
C1396 C1398 1.348 1_455 S
C1396 C1399 1.356 . S
C1396 O1452 1.325 . S
N1397 C1400 1.314 1_455 S
N1397 C1401 1.279 . S
C1398 C1396 1.348 1_655 S
C1398 C1400 1.353 . S
C1398 H1456 0.929 . S
C1399 C1396 1.356 . S
C1399 C1401 1.358 . S
C1399 H1457 0.930 . S
C1400 N1397 1.314 1_655 S
C1400 C1398 1.353 . S
C1400 H1458 0.930 . S
C1401 N1397 1.279 . S
C1401 C1399 1.358 . S
C1401 H1459 0.930 . S
C1402 C1405 1.348 . S
C1402 C1406 1.356 . S
C1402 O1453 1.325 . S
C1403 N1404 1.279 . S
C1403 C1406 1.358 . S
C1403 H1460 0.930 . S
N1404 C1403 1.279 . S
N1404 C1407 1.314 . S
C1405 C1402 1.348 . S
C1405 C1407 1.353 . S
C1405 H1461 0.929 . S
C1406 C1402 1.356 . S
C1406 C1403 1.358 . S
C1406 H1462 0.930 . S
C1407 N1404 1.314 . S
C1407 C1405 1.353 . S
C1407 H1463 0.930 . S
C1408 N1409 1.314 . S
C1408 C1413 1.353 . S
C1408 H1414 0.930 . S
N1409 Li1392 1.990 . S
N1409 C1408 1.314 . S
N1409 C1411 1.279 . S
C1410 C1411 1.358 . S
C1410 C1412 1.356 . S
C1410 H1464 0.930 . S
C1411 N1409 1.279 . S
C1411 C1410 1.358 . S
C1411 H1415 0.930 . S
C1412 C1410 1.356 . S
C1412 C1413 1.348 . S
C1413 C1408 1.353 . S
C1413 C1412 1.348 . S
C1413 H1465 0.929 . S
H1414 C1408 0.930 . S
H1415 C1411 0.930 . S
C1416 N1417 1.314 . S
C1416 C1418 1.353 . S
C1416 H1422 0.930 . S
N1417 Li1393 1.990 . S
N1417 C1416 1.314 . S
N1417 C1420 1.279 . S
C1418 C1416 1.353 . S
C1418 C1421 1.348 . S
C1418 H1466 0.929 . S
C1419 C1420 1.358 . S
C1419 C1421 1.356 . S
C1419 H1467 0.930 . S
C1420 N1417 1.279 . S
C1420 C1419 1.358 . S
C1420 H1423 0.930 . S
C1421 C1418 1.348 . S
C1421 C1419 1.356 . S
H1422 C1416 0.930 . S
H1423 C1420 0.930 . S
C1424 C1426 1.348 . S
C1424 C1427 1.356 . S
C1424 O1454 1.325 . S
N1425 C1428 1.314 . S
N1425 C1429 1.279 . S
C1426 C1424 1.348 . S
C1426 C1428 1.353 . S
C1426 H1468 0.929 . S
C1427 C1424 1.356 . S
C1427 C1429 1.358 . S
C1427 H1469 0.930 . S
C1428 N1425 1.314 . S
C1428 C1426 1.353 . S
C1428 H1470 0.930 . S
C1429 N1425 1.279 . S
C1429 C1427 1.358 . S
C1429 H1471 0.930 . S
C1430 C1431 1.348 1_655 S
C1430 C1432 1.356 . S
C1430 O1455 1.325 . S
C1431 C1430 1.348 1_455 S
C1431 C1433 1.353 . S
C1431 H1472 0.929 . S
C1432 C1430 1.356 . S
C1432 C1434 1.358 . S
C1432 H1473 0.930 . S
C1433 C1431 1.353 . S
C1433 N1435 1.314 1_455 S
C1433 H1474 0.930 . S
C1434 C1432 1.358 . S
C1434 N1435 1.279 . S
C1434 H1475 0.930 . S
N1435 C1433 1.314 1_655 S
N1435 C1434 1.279 . S
C1436 C1438 1.353 . S
C1436 N1439 1.314 . S
C1436 H1442 0.930 . S
C1437 N1439 1.279 . S
C1437 C1440 1.358 . S
C1437 H1443 0.930 . S
C1438 C1436 1.353 . S
C1438 C1441 1.348 . S
C1438 H1476 0.929 . S
N1439 Li1394 1.990 . S
N1439 C1436 1.314 . S
N1439 C1437 1.279 . S
C1440 C1437 1.358 . S
C1440 C1441 1.356 . S
C1440 H1477 0.930 . S
C1441 C1438 1.348 . S
C1441 C1440 1.356 . S
H1442 C1436 0.930 . S
H1443 C1437 0.930 . S
C1444 N1445 1.314 . S
C1444 C1446 1.353 . S
C1444 H1450 0.930 . S
N1445 Li1395 1.990 . S
N1445 C1444 1.314 . S
N1445 C1448 1.279 . S
C1446 C1444 1.353 . S
C1446 C1449 1.348 . S
C1446 H1478 0.929 . S
C1447 C1448 1.358 . S
C1447 C1449 1.356 . S
C1447 H1479 0.930 . S
C1448 N1445 1.279 . S
C1448 C1447 1.358 . S
C1448 H1451 0.930 . S
C1449 C1446 1.348 . S
C1449 C1447 1.356 . S
H1450 C1444 0.930 . S
H1451 C1448 0.930 . S
O1452 Li1392 1.956 . S
O1452 Li1393 1.970 1_455 S
O1452 Li1394 1.961 . S
O1452 C1396 1.325 . S
O1453 Li1392 1.970 1_655 S
O1453 Li1393 1.956 . S
O1453 Li1395 1.961 . S
O1453 C1402 1.325 . S
O1454 Li1392 1.961 . S
O1454 Li1394 1.956 . S
O1454 Li1395 1.970 1_455 S
O1454 C1424 1.325 . S
O1455 Li1393 1.961 . S
O1455 Li1394 1.970 1_655 S
O1455 Li1395 1.956 . S
O1455 C1430 1.325 . S
H1456 C1398 0.929 . S
H1457 C1399 0.930 . S
H1458 C1400 0.930 . S
H1459 C1401 0.930 . S
H1460 C1403 0.930 . S
H1461 C1405 0.929 . S
H1462 C1406 0.930 . S
H1463 C1407 0.930 . S
H1464 C1410 0.930 . S
H1465 C1413 0.929 . S
H1466 C1418 0.929 . S
H1467 C1419 0.930 . S
H1468 C1426 0.929 . S
H1469 C1427 0.930 . S
H1470 C1428 0.930 . S
H1471 C1429 0.930 . S
H1472 C1431 0.929 . S
H1473 C1432 0.930 . S
H1474 C1433 0.930 . S
H1475 C1434 0.930 . S
H1476 C1438 0.929 . S
H1477 C1440 0.930 . S
H1478 C1446 0.929 . S
H1479 C1447 0.930 . S
Li1480 N1497 1.990 . S
Li1480 O1540 1.956 . S
Li1480 O1541 1.970 . S
Li1480 O1542 1.961 . S
Li1481 N1505 1.990 . S
Li1481 O1540 1.970 . S
Li1481 O1541 1.956 . S
Li1481 O1543 1.961 . S
Li1482 N1527 1.990 . S
Li1482 O1540 1.961 . S
Li1482 O1542 1.956 . S
Li1482 O1543 1.970 . S
Li1483 N1533 1.990 . S
Li1483 O1541 1.961 . S
Li1483 O1542 1.970 . S
Li1483 O1543 1.956 . S
C1484 C1486 1.348 . S
C1484 C1487 1.356 . S
C1484 O1540 1.325 . S
N1485 C1488 1.314 . S
N1485 C1489 1.279 . S
C1486 C1484 1.348 . S
C1486 C1488 1.353 . S
C1486 H1544 0.929 . S
C1487 C1484 1.356 . S
C1487 C1489 1.358 . S
C1487 H1545 0.930 . S
C1488 N1485 1.314 . S
C1488 C1486 1.353 . S
C1488 H1546 0.930 . S
C1489 N1485 1.279 . S
C1489 C1487 1.358 . S
C1489 H1547 0.930 . S
C1490 C1493 1.348 . S
C1490 C1494 1.356 . S
C1490 O1541 1.325 . S
C1491 N1492 1.279 . S
C1491 C1494 1.358 . S
C1491 H1548 0.930 . S
N1492 C1491 1.279 . S
N1492 C1495 1.314 . S
C1493 C1490 1.348 . S
C1493 C1495 1.353 . S
C1493 H1549 0.929 . S
C1494 C1490 1.356 . S
C1494 C1491 1.358 . S
C1494 H1550 0.930 . S
C1495 N1492 1.314 . S
C1495 C1493 1.353 . S
C1495 H1551 0.930 . S
C1496 N1497 1.314 . S
C1496 C1501 1.353 . S
C1496 H1502 0.930 . S
N1497 Li1480 1.990 . S
N1497 C1496 1.314 . S
N1497 C1499 1.279 . S
C1498 C1499 1.358 . S
C1498 C1500 1.356 . S
C1498 H1552 0.930 . S
C1499 N1497 1.279 . S
C1499 C1498 1.358 . S
C1499 H1503 0.930 . S
C1500 C1498 1.356 . S
C1500 C1501 1.348 . S
C1501 C1496 1.353 . S
C1501 C1500 1.348 . S
C1501 H1553 0.929 . S
H1502 C1496 0.930 . S
H1503 C1499 0.930 . S
C1504 N1505 1.314 . S
C1504 C1506 1.353 . S
C1504 H1510 0.930 . S
N1505 Li1481 1.990 . S
N1505 C1504 1.314 . S
N1505 C1508 1.279 . S
C1506 C1504 1.353 . S
C1506 C1509 1.348 . S
C1506 H1554 0.929 . S
C1507 C1508 1.358 . S
C1507 C1509 1.356 . S
C1507 H1555 0.930 . S
C1508 N1505 1.279 . S
C1508 C1507 1.358 . S
C1508 H1511 0.930 . S
C1509 C1506 1.348 . S
C1509 C1507 1.356 . S
H1510 C1504 0.930 . S
H1511 C1508 0.930 . S
C1512 C1514 1.348 . S
C1512 C1515 1.356 . S
C1512 O1542 1.325 . S
N1513 C1516 1.314 . S
N1513 C1517 1.279 . S
C1514 C1512 1.348 . S
C1514 C1516 1.353 . S
C1514 H1556 0.929 . S
C1515 C1512 1.356 . S
C1515 C1517 1.358 . S
C1515 H1557 0.930 . S
C1516 N1513 1.314 . S
C1516 C1514 1.353 . S
C1516 H1558 0.930 . S
C1517 N1513 1.279 . S
C1517 C1515 1.358 . S
C1517 H1559 0.930 . S
C1518 C1519 1.348 . S
C1518 C1520 1.356 . S
C1518 O1543 1.325 . S
C1519 C1518 1.348 . S
C1519 C1521 1.353 . S
C1519 H1560 0.929 . S
C1520 C1518 1.356 . S
C1520 C1522 1.358 . S
C1520 H1561 0.930 . S
C1521 C1519 1.353 . S
C1521 N1523 1.314 . S
C1521 H1562 0.930 . S
C1522 C1520 1.358 . S
C1522 N1523 1.279 . S
C1522 H1563 0.930 . S
N1523 C1521 1.314 . S
N1523 C1522 1.279 . S
C1524 C1526 1.353 . S
C1524 N1527 1.314 . S
C1524 H1530 0.930 . S
C1525 N1527 1.279 . S
C1525 C1528 1.358 . S
C1525 H1531 0.930 . S
C1526 C1524 1.353 . S
C1526 C1529 1.348 . S
C1526 H1564 0.929 . S
N1527 Li1482 1.990 . S
N1527 C1524 1.314 . S
N1527 C1525 1.279 . S
C1528 C1525 1.358 . S
C1528 C1529 1.356 . S
C1528 H1565 0.930 . S
C1529 C1526 1.348 . S
C1529 C1528 1.356 . S
H1530 C1524 0.930 . S
H1531 C1525 0.930 . S
C1532 N1533 1.314 . S
C1532 C1534 1.353 . S
C1532 H1538 0.930 . S
N1533 Li1483 1.990 . S
N1533 C1532 1.314 . S
N1533 C1536 1.279 . S
C1534 C1532 1.353 . S
C1534 C1537 1.348 . S
C1534 H1566 0.929 . S
C1535 C1536 1.358 . S
C1535 C1537 1.356 . S
C1535 H1567 0.930 . S
C1536 N1533 1.279 . S
C1536 C1535 1.358 . S
C1536 H1539 0.930 . S
C1537 C1534 1.348 . S
C1537 C1535 1.356 . S
H1538 C1532 0.930 . S
H1539 C1536 0.930 . S
O1540 Li1480 1.956 . S
O1540 Li1481 1.970 . S
O1540 Li1482 1.961 . S
O1540 C1484 1.325 . S
O1541 Li1480 1.970 . S
O1541 Li1481 1.956 . S
O1541 Li1483 1.961 . S
O1541 C1490 1.325 . S
O1542 Li1480 1.961 . S
O1542 Li1482 1.956 . S
O1542 Li1483 1.970 . S
O1542 C1512 1.325 . S
O1543 Li1481 1.961 . S
O1543 Li1482 1.970 . S
O1543 Li1483 1.956 . S
O1543 C1518 1.325 . S
H1544 C1486 0.929 . S
H1545 C1487 0.930 . S
H1546 C1488 0.930 . S
H1547 C1489 0.930 . S
H1548 C1491 0.930 . S
H1549 C1493 0.929 . S
H1550 C1494 0.930 . S
H1551 C1495 0.930 . S
H1552 C1498 0.930 . S
H1553 C1501 0.929 . S
H1554 C1506 0.929 . S
H1555 C1507 0.930 . S
H1556 C1514 0.929 . S
H1557 C1515 0.930 . S
H1558 C1516 0.930 . S
H1559 C1517 0.930 . S
H1560 C1519 0.929 . S
H1561 C1520 0.930 . S
H1562 C1521 0.930 . S
H1563 C1522 0.930 . S
H1564 C1526 0.929 . S
H1565 C1528 0.930 . S
H1566 C1534 0.929 . S
H1567 C1535 0.930 . S
C1568 C1569 1.387 . S
C1568 H1572 0.950 . S
C1568 C1577 1.390 . S
C1569 C1568 1.387 . S
C1569 C1571 1.387 . S
H1570 C1577 0.950 . S
C1571 C1569 1.387 . S
C1571 C1573 1.390 . S
C1571 H1575 0.950 . S
H1572 C1568 0.950 . S
C1573 C1571 1.390 . S
C1573 C1574 1.387 . S
C1573 H1576 0.950 . S
C1574 C1573 1.387 . S
C1574 C1577 1.387 . S
H1575 C1571 0.950 . S
H1576 C1573 0.950 . S
C1577 C1568 1.390 . S
C1577 H1570 0.950 . S
C1577 C1574 1.387 . S
C1578 C1579 1.387 . S
C1578 H1582 0.950 . S
C1578 C1587 1.390 . S
C1579 C1578 1.387 . S
C1579 C1581 1.387 . S
H1580 C1587 0.950 . S
C1581 C1579 1.387 . S
C1581 C1583 1.390 . S
C1581 H1585 0.950 . S
H1582 C1578 0.950 . S
C1583 C1581 1.390 . S
C1583 C1584 1.387 . S
C1583 H1586 0.950 . S
C1584 C1583 1.387 . S
C1584 C1587 1.387 . S
H1585 C1581 0.950 . S
H1586 C1583 0.950 . S
C1587 C1578 1.390 . S
C1587 H1580 0.950 . S
C1587 C1584 1.387 . S
C1588 C1589 1.387 . S
C1588 H1592 0.950 . S
C1588 C1597 1.390 . S
C1589 C1588 1.387 . S
C1589 C1591 1.387 . S
H1590 C1597 0.950 . S
C1591 C1589 1.387 . S
C1591 C1593 1.390 . S
C1591 H1595 0.950 . S
H1592 C1588 0.950 . S
C1593 C1591 1.390 . S
C1593 C1594 1.387 . S
C1593 H1596 0.950 . S
C1594 C1593 1.387 . S
C1594 C1597 1.387 . S
H1595 C1591 0.950 . S
H1596 C1593 0.950 . S
C1597 C1588 1.390 . S
C1597 H1590 0.950 . S
C1597 C1594 1.387 . S
C1598 C1599 1.387 1_545 S
C1598 H1602 0.950 . S
C1598 C1607 1.390 . S
C1599 C1598 1.387 1_565 S
C1599 C1601 1.387 . S
H1600 C1607 0.950 . S
C1601 C1599 1.387 . S
C1601 C1603 1.390 . S
C1601 H1605 0.950 . S
H1602 C1598 0.950 . S
C1603 C1601 1.390 . S
C1603 C1604 1.387 . S
C1603 H1606 0.950 . S
C1604 C1603 1.387 . S
C1604 C1607 1.387 1_565 S
H1605 C1601 0.950 . S
H1606 C1603 0.950 . S
C1607 C1598 1.390 . S
C1607 H1600 0.950 . S
C1607 C1604 1.387 1_545 S
C1608 C1609 1.387 . S
C1608 H1612 0.950 . S
C1608 C1617 1.390 . S
C1609 C1608 1.387 . S
C1609 C1611 1.387 . S
H1610 C1617 0.950 . S
C1611 C1609 1.387 . S
C1611 C1613 1.390 . S
C1611 H1615 0.950 . S
H1612 C1608 0.950 . S
C1613 C1611 1.390 . S
C1613 C1614 1.387 . S
C1613 H1616 0.950 . S
C1614 C1613 1.387 . S
C1614 C1617 1.387 . S
H1615 C1611 0.950 . S
H1616 C1613 0.950 . S
C1617 C1608 1.390 . S
C1617 H1610 0.950 . S
C1617 C1614 1.387 . S
C1618 C1619 1.387 . S
C1618 H1622 0.950 . S
C1618 C1627 1.390 . S
C1619 C1618 1.387 . S
C1619 C1621 1.387 . S
H1620 C1627 0.950 . S
C1621 C1619 1.387 . S
C1621 C1623 1.390 . S
C1621 H1625 0.950 . S
H1622 C1618 0.950 . S
C1623 C1621 1.390 . S
C1623 C1624 1.387 . S
C1623 H1626 0.950 . S
C1624 C1623 1.387 . S
C1624 C1627 1.387 . S
H1625 C1621 0.950 . S
H1626 C1623 0.950 . S
C1627 C1618 1.390 . S
C1627 H1620 0.950 . S
C1627 C1624 1.387 . S
C1628 C1629 1.387 . S
C1628 H1632 0.950 . S
C1628 C1637 1.390 . S
C1629 C1628 1.387 . S
C1629 C1631 1.387 . S
H1630 C1637 0.950 . S
C1631 C1629 1.387 . S
C1631 C1633 1.390 . S
C1631 H1635 0.950 . S
H1632 C1628 0.950 . S
C1633 C1631 1.390 . S
C1633 C1634 1.387 . S
C1633 H1636 0.950 . S
C1634 C1633 1.387 . S
C1634 C1637 1.387 . S
H1635 C1631 0.950 . S
H1636 C1633 0.950 . S
C1637 C1628 1.390 . S
C1637 H1630 0.950 . S
C1637 C1634 1.387 . S
C1638 C1639 1.387 1_545 S
C1638 H1642 0.950 . S
C1638 C1647 1.390 . S
C1639 C1638 1.387 1_565 S
C1639 C1641 1.387 . S
H1640 C1647 0.950 . S
C1641 C1639 1.387 . S
C1641 C1643 1.390 . S
C1641 H1645 0.950 . S
H1642 C1638 0.950 . S
C1643 C1641 1.390 . S
C1643 C1644 1.387 . S
C1643 H1646 0.950 . S
C1644 C1643 1.387 . S
C1644 C1647 1.387 1_565 S
H1645 C1641 0.950 . S
H1646 C1643 0.950 . S
C1647 C1638 1.390 . S
C1647 H1640 0.950 . S
C1647 C1644 1.387 1_545 S
C1648 C1649 1.387 . S
C1648 H1652 0.950 . S
C1648 C1657 1.390 . S
C1649 C1648 1.387 . S
C1649 C1651 1.387 . S
H1650 C1657 0.950 . S
C1651 C1649 1.387 . S
C1651 C1653 1.390 . S
C1651 H1655 0.950 . S
H1652 C1648 0.950 . S
C1653 C1651 1.390 . S
C1653 C1654 1.387 . S
C1653 H1656 0.950 . S
C1654 C1653 1.387 . S
C1654 C1657 1.387 . S
H1655 C1651 0.950 . S
H1656 C1653 0.950 . S
C1657 C1648 1.390 . S
C1657 H1650 0.950 . S
C1657 C1654 1.387 . S
C1658 C1659 1.387 . S
C1658 H1662 0.950 . S
C1658 C1667 1.390 . S
C1659 C1658 1.387 . S
C1659 C1661 1.387 . S
H1660 C1667 0.950 . S
C1661 C1659 1.387 . S
C1661 C1663 1.390 . S
C1661 H1665 0.950 . S
H1662 C1658 0.950 . S
C1663 C1661 1.390 . S
C1663 C1664 1.387 . S
C1663 H1666 0.950 . S
C1664 C1663 1.387 . S
C1664 C1667 1.387 . S
H1665 C1661 0.950 . S
H1666 C1663 0.950 . S
C1667 C1658 1.390 . S
C1667 H1660 0.950 . S
C1667 C1664 1.387 . S
C1668 C1669 1.387 . S
C1668 H1672 0.950 . S
C1668 C1677 1.390 . S
C1669 C1668 1.387 . S
C1669 C1671 1.387 . S
H1670 C1677 0.950 . S
C1671 C1669 1.387 . S
C1671 C1673 1.390 . S
C1671 H1675 0.950 . S
H1672 C1668 0.950 . S
C1673 C1671 1.390 . S
C1673 C1674 1.387 . S
C1673 H1676 0.950 . S
C1674 C1673 1.387 . S
C1674 C1677 1.387 . S
H1675 C1671 0.950 . S
H1676 C1673 0.950 . S
C1677 C1668 1.390 . S
C1677 H1670 0.950 . S
C1677 C1674 1.387 . S
C1678 C1679 1.387 . S
C1678 H1682 0.950 . S
C1678 C1687 1.390 . S
C1679 C1678 1.387 . S
C1679 C1681 1.387 . S
H1680 C1687 0.950 . S
C1681 C1679 1.387 . S
C1681 C1683 1.390 . S
C1681 H1685 0.950 . S
H1682 C1678 0.950 . S
C1683 C1681 1.390 . S
C1683 C1684 1.387 . S
C1683 H1686 0.950 . S
C1684 C1683 1.387 . S
C1684 C1687 1.387 . S
H1685 C1681 0.950 . S
H1686 C1683 0.950 . S
C1687 C1678 1.390 . S
C1687 H1680 0.950 . S
C1687 C1684 1.387 . S
C1688 C1689 1.387 . S
C1688 H1692 0.950 . S
C1688 C1697 1.390 . S
C1689 C1688 1.387 . S
C1689 C1691 1.387 . S
H1690 C1697 0.950 . S
C1691 C1689 1.387 . S
C1691 C1693 1.390 . S
C1691 H1695 0.950 . S
H1692 C1688 0.950 . S
C1693 C1691 1.390 . S
C1693 C1694 1.387 . S
C1693 H1696 0.950 . S
C1694 C1693 1.387 . S
C1694 C1697 1.387 . S
H1695 C1691 0.950 . S
H1696 C1693 0.950 . S
C1697 C1688 1.390 . S
C1697 H1690 0.950 . S
C1697 C1694 1.387 . S
C1698 C1699 1.387 1_655 S
C1698 H1702 0.950 . S
C1698 C1707 1.390 . S
C1699 C1698 1.387 1_455 S
C1699 C1701 1.387 . S
H1700 C1707 0.950 . S
C1701 C1699 1.387 . S
C1701 C1703 1.390 . S
C1701 H1705 0.950 . S
H1702 C1698 0.950 . S
C1703 C1701 1.390 . S
C1703 C1704 1.387 . S
C1703 H1706 0.950 . S
C1704 C1703 1.387 . S
C1704 C1707 1.387 1_455 S
H1705 C1701 0.950 . S
H1706 C1703 0.950 . S
C1707 C1698 1.390 . S
C1707 H1700 0.950 . S
C1707 C1704 1.387 1_655 S
C1708 C1709 1.387 . S
C1708 H1712 0.950 . S
C1708 C1717 1.390 . S
C1709 C1708 1.387 . S
C1709 C1711 1.387 . S
H1710 C1717 0.950 . S
C1711 C1709 1.387 . S
C1711 C1713 1.390 . S
C1711 H1715 0.950 . S
H1712 C1708 0.950 . S
C1713 C1711 1.390 . S
C1713 C1714 1.387 . S
C1713 H1716 0.950 . S
C1714 C1713 1.387 . S
C1714 C1717 1.387 . S
H1715 C1711 0.950 . S
H1716 C1713 0.950 . S
C1717 C1708 1.390 . S
C1717 H1710 0.950 . S
C1717 C1714 1.387 . S
C1718 C1719 1.387 1_455 S
C1718 H1722 0.950 . S
C1718 C1727 1.390 . S
C1719 C1718 1.387 1_655 S
C1719 C1721 1.387 . S
H1720 C1727 0.950 . S
C1721 C1719 1.387 . S
C1721 C1723 1.390 . S
C1721 H1725 0.950 . S
H1722 C1718 0.950 . S
C1723 C1721 1.390 . S
C1723 C1724 1.387 . S
C1723 H1726 0.950 . S
C1724 C1723 1.387 . S
C1724 C1727 1.387 1_655 S
H1725 C1721 0.950 . S
H1726 C1723 0.950 . S
C1727 C1718 1.390 . S
C1727 H1720 0.950 . S
C1727 C1724 1.387 1_455 S
C1728 C1729 1.387 . S
C1728 H1732 0.950 . S
C1728 C1737 1.390 . S
C1729 C1728 1.387 . S
C1729 C1731 1.387 . S
H1730 C1737 0.950 . S
C1731 C1729 1.387 . S
C1731 C1733 1.390 . S
C1731 H1735 0.950 . S
H1732 C1728 0.950 . S
C1733 C1731 1.390 . S
C1733 C1734 1.387 . S
C1733 H1736 0.950 . S
C1734 C1733 1.387 . S
C1734 C1737 1.387 . S
H1735 C1731 0.950 . S
H1736 C1733 0.950 . S
C1737 C1728 1.390 . S
C1737 H1730 0.950 . S
C1737 C1734 1.387 . S
C1738 C1739 1.387 . S
C1738 H1742 0.950 . S
C1738 C1747 1.390 . S
C1739 C1738 1.387 . S
C1739 C1741 1.387 . S
H1740 C1747 0.950 . S
C1741 C1739 1.387 . S
C1741 C1743 1.390 . S
C1741 H1745 0.950 . S
H1742 C1738 0.950 . S
C1743 C1741 1.390 . S
C1743 C1744 1.387 . S
C1743 H1746 0.950 . S
C1744 C1743 1.387 . S
C1744 C1747 1.387 . S
H1745 C1741 0.950 . S
H1746 C1743 0.950 . S
C1747 C1738 1.390 . S
C1747 H1740 0.950 . S
C1747 C1744 1.387 . S
C1748 C1749 1.387 1_554 S
C1748 H1752 0.950 . S
C1748 C1757 1.390 . S
C1749 C1748 1.387 1_556 S
C1749 C1751 1.387 . S
H1750 C1757 0.950 . S
C1751 C1749 1.387 . S
C1751 C1753 1.390 . S
C1751 H1755 0.950 . S
H1752 C1748 0.950 . S
C1753 C1751 1.390 . S
C1753 C1754 1.387 . S
C1753 H1756 0.950 . S
C1754 C1753 1.387 . S
C1754 C1757 1.387 1_556 S
H1755 C1751 0.950 . S
H1756 C1753 0.950 . S
C1757 C1748 1.390 . S
C1757 H1750 0.950 . S
C1757 C1754 1.387 1_554 S
C1758 C1759 1.387 . S
C1758 H1762 0.950 . S
C1758 C1767 1.390 . S
C1759 C1758 1.387 . S
C1759 C1761 1.387 . S
H1760 C1767 0.950 . S
C1761 C1759 1.387 . S
C1761 C1763 1.390 . S
C1761 H1765 0.950 . S
H1762 C1758 0.950 . S
C1763 C1761 1.390 . S
C1763 C1764 1.387 . S
C1763 H1766 0.950 . S
C1764 C1763 1.387 . S
C1764 C1767 1.387 . S
H1765 C1761 0.950 . S
H1766 C1763 0.950 . S
C1767 C1758 1.390 . S
C1767 H1760 0.950 . S
C1767 C1764 1.387 . S
C1768 C1769 1.387 . S
C1768 H1772 0.950 . S
C1768 C1777 1.390 . S
C1769 C1768 1.387 . S
C1769 C1771 1.387 . S
H1770 C1777 0.950 . S
C1771 C1769 1.387 . S
C1771 C1773 1.390 . S
C1771 H1775 0.950 . S
H1772 C1768 0.950 . S
C1773 C1771 1.390 . S
C1773 C1774 1.387 . S
C1773 H1776 0.950 . S
C1774 C1773 1.387 . S
C1774 C1777 1.387 . S
H1775 C1771 0.950 . S
H1776 C1773 0.950 . S
C1777 C1768 1.390 . S
C1777 H1770 0.950 . S
C1777 C1774 1.387 . S
C1778 C1779 1.387 . S
C1778 H1782 0.950 . S
C1778 C1787 1.390 . S
C1779 C1778 1.387 . S
C1779 C1781 1.387 . S
H1780 C1787 0.950 . S
C1781 C1779 1.387 . S
C1781 C1783 1.390 . S
C1781 H1785 0.950 . S
H1782 C1778 0.950 . S
C1783 C1781 1.390 . S
C1783 C1784 1.387 . S
C1783 H1786 0.950 . S
C1784 C1783 1.387 . S
C1784 C1787 1.387 . S
H1785 C1781 0.950 . S
H1786 C1783 0.950 . S
C1787 C1778 1.390 . S
C1787 H1780 0.950 . S
C1787 C1784 1.387 . S
C1788 C1789 1.387 . S
C1788 H1792 0.950 . S
C1788 C1797 1.390 . S
C1789 C1788 1.387 . S
C1789 C1791 1.387 . S
H1790 C1797 0.950 . S
C1791 C1789 1.387 . S
C1791 C1793 1.390 . S
C1791 H1795 0.950 . S
H1792 C1788 0.950 . S
C1793 C1791 1.390 . S
C1793 C1794 1.387 . S
C1793 H1796 0.950 . S
C1794 C1793 1.387 . S
C1794 C1797 1.387 . S
H1795 C1791 0.950 . S
H1796 C1793 0.950 . S
C1797 C1788 1.390 . S
C1797 H1790 0.950 . S
C1797 C1794 1.387 . S
C1798 C1799 1.387 . S
C1798 H1802 0.950 . S
C1798 C1807 1.390 . S
C1799 C1798 1.387 . S
C1799 C1801 1.387 . S
H1800 C1807 0.950 . S
C1801 C1799 1.387 . S
C1801 C1803 1.390 . S
C1801 H1805 0.950 . S
H1802 C1798 0.950 . S
C1803 C1801 1.390 . S
C1803 C1804 1.387 . S
C1803 H1806 0.950 . S
C1804 C1803 1.387 . S
C1804 C1807 1.387 . S
H1805 C1801 0.950 . S
H1806 C1803 0.950 . S
C1807 C1798 1.390 . S
C1807 H1800 0.950 . S
C1807 C1804 1.387 . S
C1808 C1809 1.387 . S
C1808 H1812 0.950 . S
C1808 C1817 1.390 . S
C1809 C1808 1.387 . S
C1809 C1811 1.387 . S
H1810 C1817 0.950 . S
C1811 C1809 1.387 . S
C1811 C1813 1.390 . S
C1811 H1815 0.950 . S
H1812 C1808 0.950 . S
C1813 C1811 1.390 . S
C1813 C1814 1.387 . S
C1813 H1816 0.950 . S
C1814 C1813 1.387 . S
C1814 C1817 1.387 . S
H1815 C1811 0.950 . S
H1816 C1813 0.950 . S
C1817 C1808 1.390 . S
C1817 H1810 0.950 . S
C1817 C1814 1.387 . S
C1818 C1819 1.387 . S
C1818 H1822 0.950 . S
C1818 C1827 1.390 . S
C1819 C1818 1.387 . S
C1819 C1821 1.387 1_545 S
H1820 C1827 0.950 . S
C1821 C1819 1.387 1_565 S
C1821 C1823 1.390 . S
C1821 H1825 0.950 . S
H1822 C1818 0.950 . S
C1823 C1821 1.390 . S
C1823 C1824 1.387 1_565 S
C1823 H1826 0.950 . S
C1824 C1823 1.387 1_545 S
C1824 C1827 1.387 . S
H1825 C1821 0.950 . S
H1826 C1823 0.950 . S
C1827 C1818 1.390 . S
C1827 H1820 0.950 . S
C1827 C1824 1.387 . S
C1828 C1829 1.387 . S
C1828 H1832 0.950 . S
C1828 C1837 1.390 . S
C1829 C1828 1.387 . S
C1829 C1831 1.387 . S
H1830 C1837 0.950 . S
C1831 C1829 1.387 . S
C1831 C1833 1.390 . S
C1831 H1835 0.950 . S
H1832 C1828 0.950 . S
C1833 C1831 1.390 . S
C1833 C1834 1.387 . S
C1833 H1836 0.950 . S
C1834 C1833 1.387 . S
C1834 C1837 1.387 . S
H1835 C1831 0.950 . S
H1836 C1833 0.950 . S
C1837 C1828 1.390 . S
C1837 H1830 0.950 . S
C1837 C1834 1.387 . S
C1838 C1839 1.387 . S
C1838 H1842 0.950 . S
C1838 C1847 1.390 . S
C1839 C1838 1.387 . S
C1839 C1841 1.387 . S
H1840 C1847 0.950 . S
C1841 C1839 1.387 . S
C1841 C1843 1.390 . S
C1841 H1845 0.950 . S
H1842 C1838 0.950 . S
C1843 C1841 1.390 . S
C1843 C1844 1.387 . S
C1843 H1846 0.950 . S
C1844 C1843 1.387 . S
C1844 C1847 1.387 . S
H1845 C1841 0.950 . S
H1846 C1843 0.950 . S
C1847 C1838 1.390 . S
C1847 H1840 0.950 . S
C1847 C1844 1.387 . S
C1848 C1849 1.387 . S
C1848 H1852 0.950 . S
C1848 C1857 1.390 . S
C1849 C1848 1.387 . S
C1849 C1851 1.387 . S
H1850 C1857 0.950 . S
C1851 C1849 1.387 . S
C1851 C1853 1.390 . S
C1851 H1855 0.950 . S
H1852 C1848 0.950 . S
C1853 C1851 1.390 . S
C1853 C1854 1.387 . S
C1853 H1856 0.950 . S
C1854 C1853 1.387 . S
C1854 C1857 1.387 . S
H1855 C1851 0.950 . S
H1856 C1853 0.950 . S
C1857 C1848 1.390 . S
C1857 H1850 0.950 . S
C1857 C1854 1.387 . S
C1858 C1859 1.387 . S
C1858 H1862 0.950 . S
C1858 C1867 1.390 . S
C1859 C1858 1.387 . S
C1859 C1861 1.387 . S
H1860 C1867 0.950 . S
C1861 C1859 1.387 . S
C1861 C1863 1.390 . S
C1861 H1865 0.950 1_545 S
H1862 C1858 0.950 . S
C1863 C1861 1.390 . S
C1863 C1864 1.387 . S
C1863 H1866 0.950 1_545 S
C1864 C1863 1.387 . S
C1864 C1867 1.387 . S
H1865 C1861 0.950 1_565 S
H1866 C1863 0.950 1_565 S
C1867 C1858 1.390 . S
C1867 H1860 0.950 . S
C1867 C1864 1.387 . S
C1868 C1869 1.387 . S
C1868 H1872 0.950 . S
C1868 C1877 1.390 . S
C1869 C1868 1.387 . S
C1869 C1871 1.387 . S
H1870 C1877 0.950 . S
C1871 C1869 1.387 . S
C1871 C1873 1.390 . S
C1871 H1875 0.950 . S
H1872 C1868 0.950 . S
C1873 C1871 1.390 . S
C1873 C1874 1.387 . S
C1873 H1876 0.950 . S
C1874 C1873 1.387 . S
C1874 C1877 1.387 . S
H1875 C1871 0.950 . S
H1876 C1873 0.950 . S
C1877 C1868 1.390 . S
C1877 H1870 0.950 . S
C1877 C1874 1.387 . S
C1878 C1879 1.387 . S
C1878 H1882 0.950 . S
C1878 C1887 1.390 . S
C1879 C1878 1.387 . S
C1879 C1881 1.387 . S
H1880 C1887 0.950 . S
C1881 C1879 1.387 . S
C1881 C1883 1.390 . S
C1881 H1885 0.950 . S
H1882 C1878 0.950 . S
C1883 C1881 1.390 . S
C1883 C1884 1.387 . S
C1883 H1886 0.950 . S
C1884 C1883 1.387 . S
C1884 C1887 1.387 . S
H1885 C1881 0.950 . S
H1886 C1883 0.950 . S
C1887 C1878 1.390 . S
C1887 H1880 0.950 . S
C1887 C1884 1.387 . S
C1888 C1889 1.387 . S
C1888 H1892 0.950 . S
C1888 C1897 1.390 . S
C1889 C1888 1.387 . S
C1889 C1891 1.387 . S
H1890 C1897 0.950 . S
C1891 C1889 1.387 . S
C1891 C1893 1.390 . S
C1891 H1895 0.950 . S
H1892 C1888 0.950 . S
C1893 C1891 1.390 . S
C1893 C1894 1.387 . S
C1893 H1896 0.950 . S
C1894 C1893 1.387 . S
C1894 C1897 1.387 . S
H1895 C1891 0.950 . S
H1896 C1893 0.950 . S
C1897 C1888 1.390 . S
C1897 H1890 0.950 . S
C1897 C1894 1.387 . S
C1898 C1899 1.387 1_455 S
C1898 H1902 0.950 . S
C1898 C1907 1.390 . S
C1899 C1898 1.387 1_655 S
C1899 C1901 1.387 . S
H1900 C1907 0.950 . S
C1901 C1899 1.387 . S
C1901 C1903 1.390 . S
C1901 H1905 0.950 . S
H1902 C1898 0.950 . S
C1903 C1901 1.390 . S
C1903 C1904 1.387 . S
C1903 H1906 0.950 . S
C1904 C1903 1.387 . S
C1904 C1907 1.387 1_655 S
H1905 C1901 0.950 . S
H1906 C1903 0.950 . S
C1907 C1898 1.390 . S
C1907 H1900 0.950 . S
C1907 C1904 1.387 1_455 S
C1908 C1909 1.387 . S
C1908 H1912 0.950 . S
C1908 C1917 1.390 . S
C1909 C1908 1.387 . S
C1909 C1911 1.387 . S
H1910 C1917 0.950 . S
C1911 C1909 1.387 . S
C1911 C1913 1.390 . S
C1911 H1915 0.950 . S
H1912 C1908 0.950 . S
C1913 C1911 1.390 . S
C1913 C1914 1.387 . S
C1913 H1916 0.950 . S
C1914 C1913 1.387 . S
C1914 C1917 1.387 . S
H1915 C1911 0.950 . S
H1916 C1913 0.950 . S
C1917 C1908 1.390 . S
C1917 H1910 0.950 . S
C1917 C1914 1.387 . S
C1918 C1919 1.387 . S
C1918 H1922 0.950 1_455 S
C1918 C1927 1.390 . S
C1919 C1918 1.387 . S
C1919 C1921 1.387 . S
H1920 C1927 0.950 1_655 S
C1921 C1919 1.387 . S
C1921 C1923 1.390 . S
C1921 H1925 0.950 . S
H1922 C1918 0.950 1_655 S
C1923 C1921 1.390 . S
C1923 C1924 1.387 . S
C1923 H1926 0.950 . S
C1924 C1923 1.387 . S
C1924 C1927 1.387 . S
H1925 C1921 0.950 . S
H1926 C1923 0.950 . S
C1927 C1918 1.390 . S
C1927 H1920 0.950 1_455 S
C1927 C1924 1.387 . S
C1928 C1929 1.387 . S
C1928 H1932 0.950 . S
C1928 C1937 1.390 . S
C1929 C1928 1.387 . S
C1929 C1931 1.387 . S
H1930 C1937 0.950 . S
C1931 C1929 1.387 . S
C1931 C1933 1.390 . S
C1931 H1935 0.950 . S
H1932 C1928 0.950 . S
C1933 C1931 1.390 . S
C1933 C1934 1.387 . S
C1933 H1936 0.950 . S
C1934 C1933 1.387 . S
C1934 C1937 1.387 . S
H1935 C1931 0.950 . S
H1936 C1933 0.950 . S
C1937 C1928 1.390 . S
C1937 H1930 0.950 . S
C1937 C1934 1.387 . S
C1938 C1939 1.387 . S
C1938 H1942 0.950 . S
C1938 C1947 1.390 . S
C1939 C1938 1.387 . S
C1939 C1941 1.387 . S
H1940 C1947 0.950 . S
C1941 C1939 1.387 . S
C1941 C1943 1.390 . S
C1941 H1945 0.950 . S
H1942 C1938 0.950 . S
C1943 C1941 1.390 . S
C1943 C1944 1.387 . S
C1943 H1946 0.950 . S
C1944 C1943 1.387 . S
C1944 C1947 1.387 . S
H1945 C1941 0.950 . S
H1946 C1943 0.950 . S
C1947 C1938 1.390 . S
C1947 H1940 0.950 . S
C1947 C1944 1.387 . S
C1948 C1949 1.387 . S
C1948 H1952 0.950 . S
C1948 C1957 1.390 . S
C1949 C1948 1.387 . S
C1949 C1951 1.387 . S
H1950 C1957 0.950 . S
C1951 C1949 1.387 . S
C1951 C1953 1.390 . S
C1951 H1955 0.950 . S
H1952 C1948 0.950 . S
C1953 C1951 1.390 . S
C1953 C1954 1.387 . S
C1953 H1956 0.950 . S
C1954 C1953 1.387 . S
C1954 C1957 1.387 . S
H1955 C1951 0.950 . S
H1956 C1953 0.950 . S
C1957 C1948 1.390 . S
C1957 H1950 0.950 . S
C1957 C1954 1.387 . S
C1958 C1959 1.387 . S
C1958 H1962 0.950 . S
C1958 C1967 1.390 . S
C1959 C1958 1.387 . S
C1959 C1961 1.387 . S
H1960 C1967 0.950 . S
C1961 C1959 1.387 . S
C1961 C1963 1.390 . S
C1961 H1965 0.950 . S
H1962 C1958 0.950 . S
C1963 C1961 1.390 . S
C1963 C1964 1.387 . S
C1963 H1966 0.950 . S
C1964 C1963 1.387 . S
C1964 C1967 1.387 . S
H1965 C1961 0.950 . S
H1966 C1963 0.950 . S
C1967 C1958 1.390 . S
C1967 H1960 0.950 . S
C1967 C1964 1.387 . S
C1968 C1969 1.387 . S
C1968 H1972 0.950 . S
C1968 C1977 1.390 . S
C1969 C1968 1.387 . S
C1969 C1971 1.387 . S
H1970 C1977 0.950 . S
C1971 C1969 1.387 . S
C1971 C1973 1.390 . S
C1971 H1975 0.950 . S
H1972 C1968 0.950 . S
C1973 C1971 1.390 . S
C1973 C1974 1.387 . S
C1973 H1976 0.950 . S
C1974 C1973 1.387 . S
C1974 C1977 1.387 . S
H1975 C1971 0.950 . S
H1976 C1973 0.950 . S
C1977 C1968 1.390 . S
C1977 H1970 0.950 . S
C1977 C1974 1.387 . S
C1978 C1979 1.387 . S
C1978 H1982 0.950 . S
C1978 C1987 1.390 . S
C1979 C1978 1.387 . S
C1979 C1981 1.387 . S
H1980 C1987 0.950 . S
C1981 C1979 1.387 . S
C1981 C1983 1.390 . S
C1981 H1985 0.950 . S
H1982 C1978 0.950 . S
C1983 C1981 1.390 . S
C1983 C1984 1.387 . S
C1983 H1986 0.950 . S
C1984 C1983 1.387 . S
C1984 C1987 1.387 . S
H1985 C1981 0.950 . S
H1986 C1983 0.950 . S
C1987 C1978 1.390 . S
C1987 H1980 0.950 . S
C1987 C1984 1.387 . S
C1988 C1989 1.387 . S
C1988 H1992 0.950 . S
C1988 C1997 1.390 . S
C1989 C1988 1.387 . S
C1989 C1991 1.387 . S
H1990 C1997 0.950 . S
C1991 C1989 1.387 . S
C1991 C1993 1.390 . S
C1991 H1995 0.950 . S
H1992 C1988 0.950 . S
C1993 C1991 1.390 . S
C1993 C1994 1.387 . S
C1993 H1996 0.950 . S
C1994 C1993 1.387 . S
C1994 C1997 1.387 . S
H1995 C1991 0.950 . S
H1996 C1993 0.950 . S
C1997 C1988 1.390 . S
C1997 H1990 0.950 . S
C1997 C1994 1.387 . S
C1998 C1999 1.387 . S
C1998 H2002 0.950 . S
C1998 C2007 1.390 . S
C1999 C1998 1.387 . S
C1999 C2001 1.387 . S
H2000 C2007 0.950 . S
C2001 C1999 1.387 . S
C2001 C2003 1.390 . S
C2001 H2005 0.950 . S
H2002 C1998 0.950 . S
C2003 C2001 1.390 . S
C2003 C2004 1.387 . S
C2003 H2006 0.950 . S
C2004 C2003 1.387 . S
C2004 C2007 1.387 . S
H2005 C2001 0.950 . S
H2006 C2003 0.950 . S
C2007 C1998 1.390 . S
C2007 H2000 0.950 . S
C2007 C2004 1.387 . S
C2008 C2009 1.387 1_554 S
C2008 H2012 0.950 . S
C2008 C2017 1.390 . S
C2009 C2008 1.387 1_556 S
C2009 C2011 1.387 . S
H2010 C2017 0.950 . S
C2011 C2009 1.387 . S
C2011 C2013 1.390 . S
C2011 H2015 0.950 . S
H2012 C2008 0.950 . S
C2013 C2011 1.390 . S
C2013 C2014 1.387 . S
C2013 H2016 0.950 . S
C2014 C2013 1.387 . S
C2014 C2017 1.387 1_556 S
H2015 C2011 0.950 . S
H2016 C2013 0.950 . S
C2017 C2008 1.390 . S
C2017 H2010 0.950 . S
C2017 C2014 1.387 1_554 S
C2018 C2019 1.387 . S
C2018 H2022 0.950 . S
C2018 C2027 1.390 . S
C2019 C2018 1.387 . S
C2019 C2021 1.387 . S
H2020 C2027 0.950 . S
C2021 C2019 1.387 . S
C2021 C2023 1.390 . S
C2021 H2025 0.950 . S
H2022 C2018 0.950 . S
C2023 C2021 1.390 . S
C2023 C2024 1.387 . S
C2023 H2026 0.950 . S
C2024 C2023 1.387 . S
C2024 C2027 1.387 . S
H2025 C2021 0.950 . S
H2026 C2023 0.950 . S
C2027 C2018 1.390 . S
C2027 H2020 0.950 . S
C2027 C2024 1.387 . S
C2028 C2029 1.387 . S
C2028 H2032 0.950 . S
C2028 C2037 1.390 . S
C2029 C2028 1.387 . S
C2029 C2031 1.387 1_554 S
H2030 C2037 0.950 . S
C2031 C2029 1.387 1_556 S
C2031 C2033 1.390 . S
C2031 H2035 0.950 . S
H2032 C2028 0.950 . S
C2033 C2031 1.390 . S
C2033 C2034 1.387 1_556 S
C2033 H2036 0.950 . S
C2034 C2033 1.387 1_554 S
C2034 C2037 1.387 . S
H2035 C2031 0.950 . S
H2036 C2033 0.950 . S
C2037 C2028 1.390 . S
C2037 H2030 0.950 . S
C2037 C2034 1.387 . S
C2038 C2039 1.394 . S
C2038 H2042 0.944 1_554 S
C2038 C2047 1.389 1_554 S
C2039 C2038 1.394 . S
C2039 C2041 1.387 . S
H2040 C2047 0.950 . S
C2041 C2039 1.387 . S
C2041 C2043 1.390 . S
C2041 H2045 0.950 . S
H2042 C2038 0.944 1_556 S
C2043 C2041 1.390 . S
C2043 C2044 1.387 . S
C2043 H2046 0.950 . S
C2044 C2043 1.387 . S
C2044 C2047 1.387 1_554 S
H2045 C2041 0.950 . S
H2046 C2043 0.950 . S
C2047 C2038 1.389 1_556 S
C2047 H2040 0.950 . S
C2047 C2044 1.387 1_556 S
C1574 C561 1.476 . S
C1569 C177 1.464 . S
C1584 C620 1.534 . S
C1579 C209 1.525 . S
C1589 C253 1.422 . S
C1594 C737 1.475 . S
C1604 C805 1.531 . S
C1599 C157 1.477 . S
C1614 C884 1.525 . S
C1609 C343 1.478 . S
C1624 C1009 1.510 . S
C1619 C401 1.465 . S
C1629 C369 1.482 . S
C1634 C1069 1.524 . S
C1644 C1177 1.518 . S
C1639 C317 1.504 . S
C1649 C375 1.475 . S
C1654 C1273 1.518 . S
C1664 C1333 1.557 . S
C1659 C305 1.551 . S
C1669 C349 1.490 . S
C1674 C1236 1.541 . S
C1684 C1353 1.521 . S
C1679 C413 1.463 . S
C1689 C241 1.444 . S
C1694 C1421 1.488 . S
C1699 C151 1.446 . S
C1704 C1412 1.497 . S
C1709 C189 1.502 . S
C1714 C1441 1.514 . S
C1719 C215 1.503 . S
C1724 C1449 1.515 . S
C1729 C113 1.456 . S
C1734 C833 1.500 . S
C1739 C471 1.481 . S
C1744 C796 1.492 . S
C1754 C532 1.526 . S
C1749 C509 1.512 . S
C1764 C629 1.510 . S
C1759 C279 1.461 . S
C1769 C145 1.435 . S
C1774 C893 1.482 . S
C1784 C1185 1.551 . S
C1779 C381 1.500 . S
C1794 C913 1.535 . S
C1789 C311 1.527 . S
C1804 C1097 1.499 . S
C1799 C407 1.457 . S
C1814 C1089 1.476 . S
C1809 C465 1.465 . S
C1819 C497 1.525 . S
C1824 C1157 1.534 . S
C1829 C285 1.422 . S
C1834 C921 1.475 . S
C1844 C972 1.531 . S
C1839 C445 1.477 . S
C1849 C119 1.475 . S
C1854 C717 1.524 . S
C1864 C825 1.509 . S
C1859 C17 1.463 . S
C1874 C541 1.524 . S
C1869 C49 1.484 . S
C1884 C657 1.517 . S
C1879 C93 1.505 . S
C1889 C55 1.475 . S
C1894 C1361 1.518 . S
C1899 C81 1.551 . S
C1904 C1245 1.557 . S
C1909 C125 1.487 . S
C1914 C1324 1.541 . S
C1919 C29 1.464 . S
C1924 C1265 1.521 . S
C1934 C1509 1.488 . S
C1929 C273 1.445 . S
C1944 C1500 1.496 . S
C1939 C439 1.444 . S
C1954 C1529 1.513 . S
C1949 C477 1.503 . S
C1959 C503 1.503 . S
C1964 C1537 1.515 . S
C1969 C337 1.456 . S
C1974 C1001 1.500 . S
C1984 C981 1.492 . S
C1979 C183 1.479 . S
C1994 C1060 1.526 . S
C1989 C221 1.512 . S
C2004 C1148 1.510 . S
C1999 C247 1.461 . S
C2009 C433 1.438 . S
C2014 C708 1.482 . S
C2024 C649 1.551 . S
C2019 C61 1.499 . S
C2029 C87 1.527 . S
C2034 C745 1.535 . S
C2044 C569 1.500 . S
C2039 C23 1.459 . S
