# Generated by pormake.
# Topology ssa, (4,4)-cn, num edge types: 1
# Building blocks:
#     Node 0, Type 0, BuildingBlock: KOZSID_clean_sbu_0, # of connection points: 4
#     Node 1, Type 0, BuildingBlock: KOZSID_clean_sbu_0, # of connection points: 4
#     Node 2, Type 0, BuildingBlock: KOZSID_clean_sbu_0, # of connection points: 4
#     Node 3, Type 0, BuildingBlock: KOZSID_clean_sbu_0, # of connection points: 4
#     Node 4, Type 0, BuildingBlock: KOZSID_clean_sbu_0, # of connection points: 4
#     Node 5, Type 0, BuildingBlock: KOZSID_clean_sbu_0, # of connection points: 4
#     Node 6, Type 1, BuildingBlock: GIZVER_clean_linker_0, # of connection points: 4
#     Node 7, Type 1, BuildingBlock: GIZVER_clean_linker_0, # of connection points: 4
#     Node 8, Type 1, BuildingBlock: GIZVER_clean_linker_0, # of connection points: 4
#     Node 9, Type 1, BuildingBlock: GIZVER_clean_linker_0, # of connection points: 4
#     Node 10, Type 1, BuildingBlock: GIZVER_clean_linker_0, # of connection points: 4
#     Node 11, Type 1, BuildingBlock: GIZVER_clean_linker_0, # of connection points: 4
#     Edge 12, Type (0, 1), BuildingBlock: EZIPEK_clean_linker_0, # of connection points: 2
#     Edge 13, Type (0, 1), BuildingBlock: EZIPEK_clean_linker_0, # of connection points: 2
#     Edge 14, Type (0, 1), BuildingBlock: EZIPEK_clean_linker_0, # of connection points: 2
#     Edge 15, Type (0, 1), BuildingBlock: EZIPEK_clean_linker_0, # of connection points: 2
#     Edge 16, Type (0, 1), BuildingBlock: EZIPEK_clean_linker_0, # of connection points: 2
#     Edge 17, Type (0, 1), BuildingBlock: EZIPEK_clean_linker_0, # of connection points: 2
#     Edge 18, Type (0, 1), BuildingBlock: EZIPEK_clean_linker_0, # of connection points: 2
#     Edge 19, Type (0, 1), BuildingBlock: EZIPEK_clean_linker_0, # of connection points: 2
#     Edge 20, Type (0, 1), BuildingBlock: EZIPEK_clean_linker_0, # of connection points: 2
#     Edge 21, Type (0, 1), BuildingBlock: EZIPEK_clean_linker_0, # of connection points: 2
#     Edge 22, Type (0, 1), BuildingBlock: EZIPEK_clean_linker_0, # of connection points: 2
#     Edge 23, Type (0, 1), BuildingBlock: EZIPEK_clean_linker_0, # of connection points: 2
#     Edge 24, Type (0, 1), BuildingBlock: EZIPEK_clean_linker_0, # of connection points: 2
#     Edge 25, Type (0, 1), BuildingBlock: EZIPEK_clean_linker_0, # of connection points: 2
#     Edge 26, Type (0, 1), BuildingBlock: EZIPEK_clean_linker_0, # of connection points: 2
#     Edge 27, Type (0, 1), BuildingBlock: EZIPEK_clean_linker_0, # of connection points: 2
#     Edge 28, Type (0, 1), BuildingBlock: EZIPEK_clean_linker_0, # of connection points: 2
#     Edge 29, Type (0, 1), BuildingBlock: EZIPEK_clean_linker_0, # of connection points: 2
#     Edge 30, Type (0, 1), BuildingBlock: EZIPEK_clean_linker_0, # of connection points: 2
#     Edge 31, Type (0, 1), BuildingBlock: EZIPEK_clean_linker_0, # of connection points: 2
#     Edge 32, Type (0, 1), BuildingBlock: EZIPEK_clean_linker_0, # of connection points: 2
#     Edge 33, Type (0, 1), BuildingBlock: EZIPEK_clean_linker_0, # of connection points: 2
#     Edge 34, Type (0, 1), BuildingBlock: EZIPEK_clean_linker_0, # of connection points: 2
#     Edge 35, Type (0, 1), BuildingBlock: EZIPEK_clean_linker_0, # of connection points: 2
# Relax obj value: 0.006
# Max RMSD: 0.036
# Mean RMSD: 0.020
data_MOF--net-ssa--node1-KOZSID_clean_sbu_0--node2-GIZVER_clean_linker_0--edge1-EZIPEK_clean_linker_0
_symmetry_space_group_name_H-M    P1
_symmetry_Int_Tables_number       1
_symmetry_cell_setting            triclinic
loop_
_symmetry_equiv_pos_as_xyz
'x, y, z'
_cell_length_a     45.092543
_cell_length_b     46.459667
_cell_length_c     24.720532
_cell_angle_alpha  85.72438
_cell_angle_beta   89.838473
_cell_angle_gamma 122.80645
loop_
_atom_site_label
_atom_site_type_symbol
_atom_site_fract_x
_atom_site_fract_y
_atom_site_fract_z
_atom_type_partial_charge
C0 C 0.95369 0.51734 0.0297 0.0
C1 C 0.93085 0.51371 0.07125 0.0
C2 C 0.94016 0.50321 0.11766 0.0
C3 C 0.96813 0.50118 0.10184 0.0
N4 N 0.97713 0.50977 0.04837 0.0
Co5 Co 0.01717 0.51193 0.00954 0.0
N6 N 0.02239 0.48487 0.07146 0.0
C7 C 0.00601 0.47645 0.12119 0.0
C8 C 0.01577 0.45922 0.15656 0.0
C9 C 0.04053 0.45728 0.12799 0.0
C10 C 0.04458 0.47355 0.07648 0.0
N11 N 0.0582 0.51534 0.97109 0.0
C12 C 0.07669 0.50084 0.98486 0.0
C13 C 0.10344 0.51016 0.94611 0.0
C14 C 0.10254 0.53224 0.90749 0.0
C15 C 0.07528 0.53497 0.92465 0.0
N16 N 0.01057 0.53704 0.94648 0.0
C17 C 0.03307 0.55421 0.90288 0.0
C18 C 0.02028 0.56695 0.86434 0.0
C19 C 0.98769 0.55739 0.88487 0.0
C20 C 0.98257 0.53956 0.9353 0.0
N21 N 0.05004 0.55585 0.04144 0.0
C22 C 0.09693 0.61771 0.08739 0.0
C23 C 0.07456 0.61657 0.04735 0.0
C24 C 0.0505 0.5852 0.02643 0.0
C25 C 0.09515 0.58749 0.10417 0.0
C26 C 0.07227 0.5574 0.08043 0.0
N27 N 0.9842 0.46866 0.97809 0.0
C28 C 0.96303 0.43666 0.89948 0.0
C29 C 0.9329 0.41044 0.92954 0.0
C30 C 0.92947 0.41303 0.98486 0.0
C31 C 0.95555 0.44227 0.00844 0.0
C32 C 0.98832 0.46547 0.92445 0.0
H33 H 0.9518 0.44389 0.0508 0.0
H34 H 0.01049 0.48561 0.89953 0.0
H35 H 0.03233 0.58525 0.99852 0.0
H36 H 0.07356 0.53588 0.09437 0.0
C37 C 0.98242 0.48596 0.13356 0.0
C38 C 0.95223 0.52794 0.97312 0.0
C39 C 0.07454 0.48402 0.03837 0.0
C40 C 0.06308 0.55312 0.89567 0.0
H41 H 0.90935 0.51767 0.0681 0.0
H42 H 0.92707 0.49637 0.15762 0.0
H43 H 0.00692 0.45028 0.19873 0.0
H44 H 0.05548 0.44702 0.14451 0.0
H45 H 0.12274 0.50313 0.94729 0.0
H46 H 0.11976 0.54487 0.8713 0.0
H47 H 0.03252 0.58035 0.82501 0.0
H48 H 0.96986 0.56303 0.8649 0.0
H49 H 0.07512 0.6395 0.03324 0.0
H50 H 0.11199 0.58722 0.13514 0.0
H51 H 0.96632 0.43547 0.85643 0.0
H52 H 0.90628 0.39318 0.00915 0.0
C53 C 0.56834 0.03833 0.59024 0.0
C54 C 0.57448 0.0317 0.6433 0.0
C55 C 0.54386 0.00288 0.66453 0.0
C56 C 0.52093 0.99353 0.62332 0.0
N57 N 0.53522 0.01448 0.5769 0.0
Co58 Co 0.51144 0.01036 0.50701 0.0
N59 N 0.4649 0.97143 0.54081 0.0
C60 C 0.45759 0.95873 0.59352 0.0
C61 C 0.423 0.93257 0.60482 0.0
C62 C 0.4074 0.92796 0.55621 0.0
C63 C 0.43359 0.95154 0.51802 0.0
N64 N 0.48797 0.00478 0.43635 0.0
C65 C 0.4556 0.97925 0.42254 0.0
C66 C 0.45104 0.98264 0.36742 0.0
C67 C 0.48172 0.01113 0.34556 0.0
C68 C 0.50327 0.02332 0.38827 0.0
N69 N 0.55751 0.05069 0.47422 0.0
C70 C 0.564 0.06553 0.42274 0.0
C71 C 0.59727 0.09452 0.4133 0.0
C72 C 0.61271 0.09893 0.46204 0.0
C73 C 0.5879 0.07216 0.49828 0.0
N74 N 0.52394 0.97754 0.48583 0.0
C75 C 0.5294 0.92587 0.44402 0.0
C76 C 0.54598 0.95858 0.41665 0.0
C77 C 0.54296 0.98388 0.43811 0.0
C78 C 0.51283 0.9202 0.49495 0.0
C79 C 0.51097 0.94652 0.51548 0.0
N80 N 0.49878 0.04311 0.52758 0.0
C81 C 0.49055 0.08978 0.50334 0.0
C82 C 0.48244 0.09046 0.55746 0.0
C83 C 0.48225 0.06702 0.59631 0.0
C84 C 0.49038 0.0437 0.58066 0.0
C85 C 0.49871 0.0661 0.48938 0.0
H86 H 0.4898 0.02648 0.61227 0.0
H87 H 0.50494 0.06695 0.44746 0.0
H88 H 0.55494 0.00782 0.41402 0.0
H89 H 0.49737 0.94057 0.55413 0.0
C90 C 0.48469 0.96885 0.62949 0.0
C91 C 0.59365 0.06917 0.55579 0.0
C92 C 0.42892 0.95074 0.45982 0.0
C93 C 0.53826 0.05146 0.38436 0.0
H94 H 0.59818 0.04694 0.66503 0.0
H95 H 0.53838 0.99124 0.70593 0.0
H96 H 0.41102 0.91744 0.64318 0.0
H97 H 0.38038 0.90823 0.54897 0.0
H98 H 0.42819 0.96591 0.34507 0.0
H99 H 0.48792 0.02122 0.30333 0.0
H100 H 0.6087 0.11084 0.37574 0.0
H101 H 0.63898 0.11978 0.47036 0.0
H102 H 0.55937 0.96395 0.37722 0.0
H103 H 0.5 0.89515 0.51759 0.0
H104 H 0.49063 0.10746 0.47208 0.0
H105 H 0.47579 0.06668 0.63871 0.0
C106 C 0.58039 0.54001 0.93424 0.0
C107 C 0.59551 0.55244 0.88181 0.0
C108 C 0.56877 0.54607 0.84861 0.0
C109 C 0.53887 0.53017 0.88225 0.0
N110 N 0.54507 0.52658 0.93491 0.0
Co111 Co 0.50806 0.50123 0.99496 0.0
N112 N 0.47158 0.50136 0.95014 0.0
C113 C 0.47307 0.50643 0.89569 0.0
C114 C 0.44323 0.50362 0.87597 0.0
C115 C 0.4216 0.49629 0.92097 0.0
C116 C 0.43969 0.49519 0.96551 0.0
N117 N 0.47104 0.4761 0.05464 0.0
C118 C 0.44037 0.47451 0.06214 0.0
C119 C 0.42349 0.45673 0.11177 0.0
C120 C 0.4441 0.44643 0.13544 0.0
C121 C 0.47251 0.4587 0.09946 0.0
N122 N 0.54441 0.50041 0.03973 0.0
C123 C 0.53801 0.48086 0.08678 0.0
C124 C 0.56822 0.48678 0.11002 0.0
C125 C 0.59537 0.51103 0.07493 0.0
C126 C 0.5801 0.51822 0.03172 0.0
N127 N 0.52029 0.54473 0.02245 0.0
C128 C 0.52177 0.59911 0.06699 0.0
C129 C 0.52636 0.57601 0.0995 0.0
C130 C 0.52515 0.54884 0.07662 0.0
C131 C 0.51933 0.59621 0.01099 0.0
C132 C 0.5194 0.5692 0.98935 0.0
N133 N 0.49495 0.45761 0.96721 0.0
C134 C 0.51167 0.42594 0.91667 0.0
C135 C 0.47675 0.40418 0.90091 0.0
C136 C 0.45072 0.40508 0.9313 0.0
C137 C 0.46028 0.43242 0.96272 0.0
C138 C 0.52027 0.45305 0.94776 0.0
H139 H 0.43954 0.43391 0.98128 0.0
H140 H 0.54754 0.47121 0.95378 0.0
H141 H 0.52606 0.53013 0.1036 0.0
H142 H 0.51659 0.56696 0.9463 0.0
C143 C 0.50489 0.51933 0.86612 0.0
C144 C 0.59969 0.53733 0.98034 0.0
C145 C 0.42604 0.48819 0.02187 0.0
C146 C 0.504 0.46115 0.11158 0.0
H147 H 0.62274 0.56356 0.86832 0.0
H148 H 0.57085 0.5519 0.80502 0.0
H149 H 0.4384 0.50788 0.83417 0.0
H150 H 0.39577 0.49265 0.92119 0.0
H151 H 0.39916 0.45202 0.12962 0.0
H152 H 0.43994 0.43347 0.17562 0.0
H153 H 0.57032 0.4753 0.14836 0.0
H154 H 0.62312 0.52105 0.07927 0.0
H155 H 0.52847 0.57762 0.14297 0.0
H156 H 0.51604 0.61385 0.98459 0.0
H157 H 0.53292 0.42315 0.90456 0.0
H158 H 0.42295 0.3855 0.93065 0.0
C159 C 0.94106 0.43139 0.49006 0.0
C160 C 0.91573 0.41401 0.45282 0.0
C161 C 0.92198 0.43775 0.41085 0.0
C162 C 0.95054 0.46812 0.42509 0.0
N163 N 0.96334 0.4651 0.47314 0.0
Co164 Co 0.00323 0.50291 0.51093 0.0
N165 N 0.01275 0.53781 0.44922 0.0
C166 C 0.99539 0.53226 0.40273 0.0
C167 C 0.01025 0.56053 0.36567 0.0
C168 C 0.03927 0.58545 0.3894 0.0
C169 C 0.04025 0.57091 0.43999 0.0
N170 N 0.04212 0.54091 0.54973 0.0
C171 C 0.0645 0.57454 0.53269 0.0
C172 C 0.08725 0.59271 0.57246 0.0
C173 C 0.07943 0.56941 0.616 0.0
C174 C 0.0524 0.53857 0.6003 0.0
N175 N 0.99502 0.4679 0.5715 0.0
C176 C 0.01366 0.47328 0.61661 0.0
C177 C 1.00204 0.44399 0.65036 0.0
C178 C 0.97421 0.41842 0.62548 0.0
C179 C 0.97044 0.43373 0.57785 0.0
N180 N 0.03747 0.49506 0.47512 0.0
C181 C 0.08888 0.4896 0.42082 0.0
C182 C 0.09204 0.49664 0.47511 0.0
C183 C 0.06587 0.49873 0.50162 0.0
C184 C 0.05909 0.48402 0.39472 0.0
C185 C 0.03401 0.48707 0.42227 0.0
N186 N 0.96899 0.51097 0.54678 0.0
C187 C 0.9446 0.51808 0.6283 0.0
C188 C 0.92334 0.52571 0.59795 0.0
C189 C 0.92445 0.52506 0.54173 0.0
C190 C 0.94726 0.51757 0.51712 0.0
C191 C 0.96694 0.51074 0.6022 0.0
H192 H 0.94697 0.51751 0.47409 0.0
H193 H 0.98245 0.50518 0.62783 0.0
H194 H 0.06978 0.50451 0.54295 0.0
H195 H 0.01251 0.48367 0.39947 0.0
C196 C 0.96651 0.49967 0.3938 0.0
C197 C 0.94105 0.41546 0.54292 0.0
C198 C 0.06861 0.5889 0.47689 0.0
C199 C 0.03928 0.50655 0.62893 0.0
H200 H 0.89456 0.3871 0.45635 0.0
H201 H 0.90725 0.43347 0.37459 0.0
H202 H 1.00172 0.56244 0.32541 0.0
H203 H 0.058 0.61112 0.3709 0.0
H204 H 0.10854 0.61957 0.56902 0.0
H205 H 0.0931 0.57404 0.65343 0.0
H206 H 0.01173 0.44171 0.68942 0.0
H207 H 0.95777 0.39176 0.64151 0.0
H208 H 0.11494 0.50123 0.49653 0.0
H209 H 0.0559 0.47866 0.35247 0.0
H210 H 0.94426 0.5182 0.67212 0.0
H211 H 0.90818 0.53076 0.51693 0.0
C212 C 0.44877 0.97228 0.09687 0.0
C213 C 0.44006 0.97559 0.14893 0.0
C214 C 0.46753 0.00654 0.16324 0.0
C215 C 0.49126 0.02025 0.11924 0.0
N216 N 0.48045 0.99984 0.07817 0.0
Co217 Co 0.50604 0.00944 0.00691 0.0
N218 N 0.55122 0.04581 0.03559 0.0
C219 C 0.55517 0.05958 0.08323 0.0
C220 C 0.58984 0.08218 0.094 0.0
C221 C 0.60899 0.08327 0.04998 0.0
C222 C 0.58474 0.06153 0.01446 0.0
N223 N 0.53163 0.01944 0.93527 0.0
C224 C 0.56667 0.03982 0.92132 0.0
C225 C 0.57283 0.04115 0.86574 0.0
C226 C 0.54057 0.02149 0.84421 0.0
C227 C 0.51653 0.00927 0.8875 0.0
N228 N 0.46091 0.97283 0.9789 0.0
C229 C 0.45342 0.96773 0.92652 0.0
C230 C 0.42023 0.93951 0.92024 0.0
C231 C 0.40595 0.92606 0.97199 0.0
C232 C 0.43132 0.94707 0.00674 0.0
N233 N 0.49398 0.04328 0.98458 0.0
C234 C 0.47303 0.08608 0.93825 0.0
C235 C 0.4502 0.05778 0.97492 0.0
C236 C 0.46094 0.03637 0.9968 0.0
C237 C 0.50728 0.09393 0.9284 0.0
C238 C 0.51727 0.07249 0.95241 0.0
N239 N 0.51736 0.97502 0.02868 0.0
C240 C 0.52059 0.92672 0.00818 0.0
C241 C 0.52637 0.92132 0.06248 0.0
C242 C 0.52981 0.94465 0.09867 0.0
C243 C 0.52572 0.97152 0.08086 0.0
C244 C 0.51535 0.95317 0.99242 0.0
H245 H 0.52831 0.98883 0.10986 0.0
H246 H 0.50875 0.95526 0.95115 0.0
H247 H 0.4418 0.01338 0.02149 0.0
H248 H 0.54323 0.07862 0.94236 0.0
C249 C 0.52623 0.04797 0.11935 0.0
C250 C 0.42607 0.9432 0.06574 0.0
C251 C 0.59403 0.06245 0.95739 0.0
C252 C 0.48007 0.98603 0.88555 0.0
H253 H 0.41653 0.95743 0.17405 0.0
H254 H 0.4706 0.01691 0.2021 0.0
H255 H 0.60001 0.09606 0.1297 0.0
H256 H 0.63739 0.09979 0.0431 0.0
H257 H 0.5979 0.05586 0.84269 0.0
H258 H 0.53532 0.01673 0.80202 0.0
H259 H 0.4084 0.92906 0.88268 0.0
H260 H 0.37992 0.90355 0.98297 0.0
H261 H 0.42349 0.051 0.98366 0.0
H262 H 0.52578 0.11572 0.90049 0.0
H263 H 0.51858 0.90969 0.97872 0.0
H264 H 0.53496 0.94168 0.14084 0.0
C265 C 0.52871 0.57137 0.5071 0.0
C266 C 0.5263 0.59037 0.54557 0.0
C267 C 0.51623 0.57017 0.59428 0.0
C268 C 0.51406 0.54053 0.58296 0.0
N269 N 0.52236 0.54115 0.53063 0.0
Co270 Co 0.5257 0.50558 0.49697 0.0
N271 N 0.49498 0.46979 0.55566 0.0
C272 C 0.48848 0.47621 0.60523 0.0
C273 C 0.46994 0.44709 0.64039 0.0
C274 C 0.46508 0.42087 0.61163 0.0
C275 C 0.48093 0.4354 0.56002 0.0
N276 N 0.52882 0.47033 0.46138 0.0
C277 C 0.50857 0.43553 0.46974 0.0
C278 C 0.51877 0.42084 0.43306 0.0
C279 C 0.54778 0.44746 0.40329 0.0
C280 C 0.55322 0.47688 0.42244 0.0
N281 N 0.5576 0.54168 0.44041 0.0
C282 C 0.58332 0.54216 0.41225 0.0
C283 C 0.6076 0.57425 0.38739 0.0
C284 C 0.59584 0.59482 0.40075 0.0
C285 C 0.56389 0.57346 0.43037 0.0
N286 N 0.567 0.51674 0.53891 0.0
C287 C 0.62341 0.53112 0.60404 0.0
C288 C 0.60041 0.49802 0.58835 0.0
C289 C 0.57176 0.49123 0.55778 0.0
C290 C 0.61853 0.5573 0.58443 0.0
C291 C 0.59082 0.54976 0.5507 0.0
N292 N 0.48465 0.49496 0.45544 0.0
C293 C 0.45871 0.49128 0.36923 0.0
C294 C 0.42959 0.48885 0.39479 0.0
C295 C 0.42781 0.48809 0.45138 0.0
C296 C 0.45552 0.49097 0.48099 0.0
C297 C 0.48599 0.49433 0.40031 0.0
H298 H 0.45407 0.49146 0.5244 0.0
H299 H 0.50877 0.49742 0.37961 0.0
H300 H 0.55294 0.46517 0.55074 0.0
H301 H 0.58828 0.5706 0.53529 0.0
C302 C 0.49893 0.50966 0.61647 0.0
C303 C 0.5392 0.5826 0.44911 0.0
C304 C 0.48583 0.41642 0.51913 0.0
C305 C 0.57986 0.51093 0.40375 0.0
H306 H 0.53072 0.61573 0.53884 0.0
H307 H 0.50994 0.57591 0.63268 0.0
H308 H 0.46137 0.44516 0.68219 0.0
H309 H 0.45257 0.39434 0.62785 0.0
H310 H 0.50824 0.39377 0.43123 0.0
H311 H 0.56337 0.44551 0.37216 0.0
H312 H 0.63039 0.5816 0.36131 0.0
H313 H 0.60848 0.62194 0.38821 0.0
H314 H 0.60334 0.47707 0.6024 0.0
H315 H 0.63586 0.58333 0.59542 0.0
H316 H 0.4609 0.49206 0.32542 0.0
H317 H 0.40572 0.48641 0.47231 0.0
H318 H 0.22736 0.49977 0.12499 0.0
H319 H 0.23307 0.50606 0.29829 0.0
H320 H 0.13574 0.47366 0.22232 0.0
H321 H 0.2824 0.54232 0.16718 0.0
H322 H 0.28502 0.54217 0.23852 0.0
H323 H 0.29082 0.5033 0.11656 0.0
H324 H 0.35992 0.47805 0.19421 0.0
H325 H 0.30253 0.50737 0.28963 0.0
C326 C 0.21438 0.49444 0.16479 0.0
C327 C 0.1788 0.4844 0.16866 0.0
C328 C 0.23446 0.5026 0.2115 0.0
C329 C 0.21765 0.49805 0.26254 0.0
C330 C 0.18196 0.4874 0.26636 0.0
C331 C 0.16271 0.47997 0.21961 0.0
C332 C 0.27441 0.52484 0.20519 0.0
C333 C 0.29238 0.50524 0.20387 0.0
C334 C 0.30078 0.49825 0.15348 0.0
C335 C 0.32565 0.48902 0.14994 0.0
C336 C 0.33991 0.48413 0.19721 0.0
C337 C 0.33143 0.49028 0.2476 0.0
C338 C 0.30737 0.50052 0.25111 0.0
H339 H 0.71874 0.21487 0.65843 0.0
H340 H 0.72651 0.20766 0.83187 0.0
H341 H 0.66357 0.1163 0.75031 0.0
H342 H 0.73325 0.26288 0.71018 0.0
H343 H 0.73149 0.25807 0.7823 0.0
H344 H 0.78695 0.27721 0.6568 0.0
H345 H 0.88212 0.3445 0.73538 0.0
H346 H 0.78488 0.28037 0.83059 0.0
C347 C 0.71407 0.19949 0.69647 0.0
C348 C 0.69176 0.16353 0.6984 0.0
C349 C 0.72692 0.21562 0.7447 0.0
C350 C 0.71867 0.19539 0.79427 0.0
C351 C 0.69529 0.15963 0.79637 0.0
C352 C 0.68306 0.14377 0.74829 0.0
C353 C 0.74204 0.25349 0.74542 0.0
C354 C 0.78175 0.2743 0.74428 0.0
C355 C 0.8008 0.2855 0.69392 0.0
C356 C 0.83686 0.31118 0.69082 0.0
C357 C 0.85454 0.32346 0.73832 0.0
C358 C 0.83605 0.31243 0.7888 0.0
C359 C 0.79962 0.28743 0.79196 0.0
H360 H 0.49437 0.7155 0.18493 0.0
H361 H 0.51079 0.70871 0.35665 0.0
H362 H 0.51938 0.64391 0.25086 0.0
H363 H 0.46079 0.72519 0.2554 0.0
H364 H 0.47122 0.72611 0.32448 0.0
H365 H 0.50817 0.77463 0.18563 0.0
H366 H 0.54063 0.87026 0.24983 0.0
H367 H 0.50347 0.77998 0.35879 0.0
C368 C 0.50197 0.70543 0.21926 0.0
C369 C 0.50951 0.68032 0.21193 0.0
C370 C 0.50158 0.71539 0.27179 0.0
C371 C 0.51089 0.70121 0.31621 0.0
C372 C 0.51697 0.67496 0.30913 0.0
C373 C 0.51567 0.66471 0.25688 0.0
C374 C 0.48333 0.73405 0.28237 0.0
C375 C 0.50627 0.77302 0.27351 0.0
C376 C 0.51451 0.78958 0.22027 0.0
C377 C 0.52652 0.82467 0.21173 0.0
C378 C 0.53265 0.84357 0.25643 0.0
C379 C 0.52447 0.82771 0.30933 0.0
C380 C 0.51183 0.79258 0.31795 0.0
H381 H 0.77213 0.57564 0.73455 0.0
H382 H 0.77335 0.59093 0.90517 0.0
H383 H 0.67925 0.55753 0.81883 0.0
H384 H 0.82842 0.62243 0.78083 0.0
H385 H 0.82867 0.618 0.85272 0.0
H386 H 0.82978 0.58083 0.72445 0.0
H387 H 0.88107 0.53383 0.79897 0.0
H388 H 0.83745 0.57528 0.89862 0.0
C389 C 0.75883 0.57489 0.77169 0.0
C390 C 0.72338 0.56516 0.77116 0.0
C391 C 0.77757 0.5854 0.81946 0.0
C392 C 0.7596 0.58363 0.86782 0.0
C393 C 0.72391 0.57304 0.86749 0.0
C394 C 0.70665 0.56509 0.81894 0.0
C395 C 0.81736 0.60311 0.8168 0.0
C396 C 0.83007 0.57909 0.8124 0.0
C397 C 0.83662 0.57171 0.76091 0.0
C398 C 0.85471 0.55502 0.75624 0.0
C399 C 0.86577 0.54535 0.8029 0.0
C400 C 0.85987 0.55274 0.85407 0.0
C401 C 0.84103 0.56864 0.85908 0.0
H402 H 0.30043 0.79519 0.20258 0.0
H403 H 0.29832 0.79959 0.376 0.0
H404 H 0.36129 0.89209 0.27021 0.0
H405 H 0.28743 0.74603 0.26579 0.0
H406 H 0.28413 0.74721 0.33714 0.0
H407 H 0.23872 0.74235 0.20694 0.0
H408 H 0.1376 0.66847 0.28719 0.0
H409 H 0.22814 0.72409 0.38169 0.0
C410 C 0.30695 0.80997 0.23752 0.0
C411 C 0.33045 0.84565 0.23055 0.0
C412 C 0.29511 0.79312 0.28996 0.0
C413 C 0.3059 0.81251 0.3353 0.0
C414 C 0.33006 0.84827 0.32819 0.0
C415 C 0.34139 0.86471 0.27572 0.0
C416 C 0.27729 0.75475 0.29763 0.0
C417 C 0.23784 0.73622 0.29472 0.0
C418 C 0.22226 0.73017 0.244 0.0
C419 C 0.18605 0.70525 0.24089 0.0
C420 C 0.16529 0.68864 0.28905 0.0
C421 C 0.18024 0.69593 0.33957 0.0
C422 C 0.21638 0.72013 0.34253 0.0
H423 H 0.42166 0.25239 0.801 0.0
H424 H 0.4192 0.24774 0.62676 0.0
H425 H 0.4589 0.34394 0.69426 0.0
H426 H 0.38097 0.19768 0.76086 0.0
H427 H 0.38038 0.19554 0.6893 0.0
H428 H 0.41764 0.18466 0.81453 0.0
H429 H 0.46834 0.14242 0.73438 0.0
H430 H 0.42704 0.19281 0.63927 0.0
C431 C 0.42732 0.26497 0.76017 0.0
C432 C 0.44157 0.30046 0.75259 0.0
C433 C 0.41883 0.24554 0.71485 0.0
C434 C 0.42577 0.26232 0.66192 0.0
C435 C 0.44032 0.2979 0.65465 0.0
C436 C 0.44795 0.31649 0.7 0.0
C437 C 0.39833 0.20671 0.72317 0.0
C438 C 0.42178 0.19265 0.72651 0.0
C439 C 0.42794 0.18138 0.77744 0.0
C440 C 0.44491 0.16336 0.78023 0.0
C441 C 0.45654 0.15755 0.73226 0.0
C442 C 0.44989 0.16769 0.68161 0.0
C443 C 0.43325 0.18599 0.67857 0.0
C444 C 0.13682 0.51688 0.07248 0.0
C445 C 0.10658 0.48522 0.05914 0.0
C446 C 0.13052 0.4536 0.10404 0.0
C447 C 0.15932 0.48493 0.12042 0.0
N448 N 0.1951 0.54689 0.10862 0.0
N449 N 0.07967 0.42516 0.04812 0.0
C450 C 0.16426 0.51672 0.10035 0.0
C451 C 0.10526 0.45412 0.07008 0.0
N452 N 0.13865 0.54707 0.06125 0.0
N453 N 0.12663 0.42332 0.12315 0.0
H454 H 0.06094 0.42503 0.02323 0.0
H455 H 0.07867 0.40219 0.05071 0.0
H456 H 0.14574 0.42249 0.14567 0.0
H457 H 0.10416 0.39923 0.11852 0.0
H458 H 0.1565 0.56977 0.07818 0.0
H459 H 0.1215 0.54953 0.03646 0.0
H460 H 0.20221 0.57069 0.08967 0.0
H461 H 0.21528 0.54811 0.13076 0.0
C462 C 0.6559 0.10331 0.58701 0.0
C463 C 0.62253 0.09923 0.58178 0.0
C464 C 0.63787 0.14294 0.64481 0.0
C465 C 0.67091 0.14638 0.65137 0.0
N466 N 0.71488 0.13621 0.62117 0.0
N467 N 0.58472 0.12019 0.59431 0.0
C468 C 0.68112 0.12869 0.61964 0.0
C469 C 0.61462 0.1209 0.60682 0.0
N470 N 0.66269 0.08184 0.56273 0.0
N471 N 0.62793 0.15927 0.67714 0.0
H472 H 0.56706 0.10417 0.56679 0.0
H473 H 0.57886 0.13738 0.60752 0.0
H474 H 0.64468 0.17672 0.70395 0.0
H475 H 0.60248 0.15425 0.6798 0.0
H476 H 0.68478 0.08067 0.56964 0.0
H477 H 0.64516 0.06382 0.53719 0.0
H478 H 0.72518 0.1264 0.59592 0.0
H479 H 0.73364 0.15467 0.64499 0.0
C480 C 0.54377 0.65897 0.09248 0.0
C481 C 0.51601 0.62376 0.09306 0.0
C482 C 0.47887 0.63417 0.15048 0.0
C483 C 0.50864 0.66687 0.15882 0.0
N484 N 0.5691 0.71201 0.13667 0.0
N485 N 0.45755 0.57695 0.12596 0.0
C486 C 0.54082 0.68008 0.12837 0.0
C487 C 0.48339 0.61121 0.12223 0.0
N488 N 0.57321 0.67186 0.05894 0.0
N489 N 0.44649 0.62491 0.17129 0.0
H490 H 0.45944 0.55913 0.10557 0.0
H491 H 0.43526 0.56574 0.15233 0.0
H492 H 0.44299 0.64152 0.19259 0.0
H493 H 0.42305 0.60252 0.16293 0.0
H494 H 0.59293 0.6979 0.05291 0.0
H495 H 0.57688 0.65672 0.03417 0.0
H496 H 0.59468 0.72187 0.12132 0.0
H497 H 0.56693 0.72831 0.16091 0.0
C498 C 0.91759 0.57002 0.63967 0.0
C499 C 0.90138 0.53574 0.62585 0.0
C500 C 0.84829 0.51874 0.68169 0.0
C501 C 0.86703 0.55124 0.7029 0.0
N502 N 0.91881 0.60862 0.70191 0.0
N503 N 0.85061 0.47779 0.6289 0.0
C504 C 0.90122 0.57741 0.68089 0.0
C505 C 0.86619 0.51029 0.64472 0.0
N506 N 0.94875 0.59535 0.61342 0.0
N507 N 0.81353 0.49607 0.69763 0.0
H508 H 0.86233 0.4716 0.59943 0.0
H509 H 0.8267 0.4568 0.64561 0.0
H510 H 0.80016 0.50204 0.72454 0.0
H511 H 0.79724 0.4727 0.68139 0.0
H512 H 0.96054 0.62141 0.61782 0.0
H513 H 0.96142 0.59051 0.5834 0.0
H514 H 0.9454 0.62733 0.69299 0.0
H515 H 0.90706 0.61535 0.7305 0.0
C516 C 0.36328 0.90618 0.10342 0.0
C517 C 0.39688 0.91098 0.09521 0.0
C518 C 0.38294 0.86638 0.16819 0.0
C519 C 0.34998 0.86272 0.17798 0.0
N520 N 0.30468 0.87168 0.1482 0.0
N521 N 0.43632 0.89185 0.11011 0.0
C522 C 0.33869 0.88003 0.14291 0.0
C523 C 0.40567 0.8894 0.12418 0.0
N524 N 0.35599 0.92821 0.0763 0.0
N525 N 0.39298 0.84901 0.2026 0.0
H526 H 0.45258 0.90772 0.0766 0.0
H527 H 0.44461 0.87685 0.12894 0.0
H528 H 0.37637 0.83089 0.23397 0.0
H529 H 0.41809 0.85319 0.20193 0.0
H530 H 0.3337 0.92873 0.08499 0.0
H531 H 0.37336 0.94745 0.04672 0.0
H532 H 0.29375 0.88123 0.1211 0.0
H533 H 0.28641 0.85273 0.17738 0.0
C534 C 0.43702 0.35447 0.54088 0.0
C535 C 0.47386 0.37956 0.53501 0.0
C536 C 0.48484 0.33817 0.58292 0.0
C537 C 0.4489 0.31762 0.60052 0.0
N538 N 0.38948 0.30357 0.59359 0.0
N539 N 0.53366 0.39448 0.54956 0.0
C540 C 0.4244 0.32448 0.57748 0.0
C541 C 0.4981 0.37089 0.55444 0.0
N542 N 0.41433 0.36011 0.51283 0.0
N543 N 0.50639 0.32667 0.59543 0.0
H544 H 0.54516 0.41788 0.52646 0.0
H545 H 0.55193 0.39133 0.57028 0.0
H546 H 0.49683 0.30278 0.61687 0.0
H547 H 0.53238 0.33892 0.58002 0.0
H548 H 0.38732 0.34195 0.51232 0.0
H549 H 0.42328 0.38205 0.48611 0.0
H550 H 0.37062 0.3092 0.58366 0.0
H551 H 0.37971 0.28091 0.61882 0.0
C552 C 0.49874 0.88123 0.37815 0.0
C553 C 0.52557 0.8969 0.41587 0.0
C554 C 0.54938 0.86293 0.38977 0.0
C555 C 0.52208 0.84691 0.35297 0.0
N556 N 0.46571 0.83387 0.32247 0.0
N557 N 0.57264 0.8989 0.46493 0.0
C558 C 0.49504 0.85378 0.3508 0.0
C559 C 0.54958 0.88634 0.42429 0.0
N560 N 0.47782 0.89362 0.36647 0.0
N561 N 0.5759 0.85696 0.3898 0.0
H562 H 0.57407 0.91681 0.48967 0.0
H563 H 0.58855 0.88988 0.47667 0.0
H564 H 0.57582 0.83924 0.36614 0.0
H565 H 0.59876 0.87068 0.41096 0.0
H566 H 0.46125 0.88642 0.33405 0.0
H567 H 0.47885 0.9131 0.38645 0.0
H568 H 0.44363 0.83558 0.32315 0.0
H569 H 0.46201 0.81328 0.30234 0.0
C570 C 0.664 0.58313 0.95934 0.0
C571 C 0.63734 0.54766 0.96986 0.0
C572 C 0.67948 0.53337 0.93979 0.0
C573 C 0.70215 0.5676 0.91715 0.0
N574 N 0.71848 0.62625 0.90814 0.0
N575 N 0.62012 0.48827 0.97057 0.0
C576 C 0.69557 0.59305 0.92897 0.0
C577 C 0.64544 0.52254 0.96157 0.0
N578 N 0.65852 0.60707 0.97721 0.0
N579 N 0.69027 0.51105 0.9385 0.0
H580 H 0.59542 0.4787 0.98892 0.0
H581 H 0.62305 0.4691 0.95753 0.0
H582 H 0.71508 0.51869 0.92201 0.0
H583 H 0.67639 0.48638 0.95842 0.0
H584 H 0.67775 0.6333 0.97428 0.0
H585 H 0.6355 0.60018 -0.00064 0.0
H586 H 0.7134 0.64554 0.90943 0.0
H587 H 0.74232 0.63404 0.88769 0.0
C588 C 0.13099 0.61716 0.43946 0.0
C589 C 0.10274 0.6203 0.45559 0.0
C590 C 0.13417 0.67935 0.41285 0.0
C591 C 0.15849 0.67343 0.38798 0.0
N592 N 0.18208 0.63815 0.3783 0.0
N593 N 0.07871 0.655 0.46546 0.0
C594 C 0.15803 0.64308 0.40255 0.0
C595 C 0.10511 0.65196 0.44553 0.0
N596 N 0.13177 0.5893 0.45905 0.0
N597 N 0.13894 0.71104 0.40439 0.0
H598 H 0.05808 0.63576 0.49154 0.0
H599 H 0.07655 0.67591 0.45552 0.0
H600 H 0.16027 0.73133 0.38064 0.0
H601 H 0.12357 0.71813 0.42349 0.0
H602 H 0.15344 0.58726 0.4538 0.0
H603 H 0.11183 0.56924 0.48468 0.0
H604 H 0.18092 0.61512 0.38238 0.0
H605 H 0.20276 0.65678 0.35178 0.0
C606 C 0.43394 0.08894 0.86812 0.0
C607 C 0.46055 0.10564 0.90596 0.0
C608 C 0.47229 0.16162 0.86848 0.0
C609 C 0.44546 0.14465 0.8314 0.0
N610 N 0.39348 0.09234 0.80781 0.0
N611 N 0.49839 0.15654 0.95157 0.0
C612 C 0.42363 0.10829 0.83583 0.0
C613 C 0.47752 0.14163 0.90928 0.0
N614 N 0.42054 0.05539 0.85945 0.0
N615 N 0.49377 0.19666 0.86307 0.0
H616 H 0.50223 0.14241 0.98235 0.0
H617 H 0.50912 0.18208 0.95882 0.0
H618 H 0.48979 0.21188 0.83471 0.0
H619 H 0.51645 0.21042 0.88465 0.0
H620 H 0.40402 0.04334 0.82809 0.0
H621 H 0.42856 0.04043 0.87964 0.0
H622 H 0.37487 0.06594 0.81306 0.0
H623 H 0.38542 0.10604 0.78364 0.0
C624 C 0.41126 0.52159 0.3337 0.0
C625 C 0.40251 0.48997 0.36195 0.0
C626 C 0.34295 0.46132 0.32692 0.0
C627 C 0.35327 0.49178 0.29364 0.0
N628 N 0.39712 0.55085 0.26322 0.0
N629 N 0.36118 0.42915 0.38372 0.0
C630 C 0.38728 0.52205 0.29698 0.0
C631 C 0.36846 0.45971 0.35866 0.0
N632 N 0.44239 0.55126 0.34262 0.0
N633 N 0.30869 0.43401 0.32794 0.0
H634 H 0.37918 0.42705 0.40729 0.0
H635 H 0.33834 0.40548 0.3784 0.0
H636 H 0.2897 0.43462 0.30475 0.0
H637 H 0.29831 0.41201 0.35478 0.0
H638 H 0.4489 0.57569 0.328 0.0
H639 H 0.46101 0.55174 0.36803 0.0
H640 H 0.42288 0.57224 0.25818 0.0
H641 H 0.37974 0.55283 0.23785 0.0
C642 C 0.88078 0.38932 0.87178 0.0
C643 C 0.90353 0.3824 0.90128 0.0
C644 C 0.87342 0.32462 0.86953 0.0
C645 C 0.85403 0.33335 0.83472 0.0
N646 N 0.83824 0.37326 0.80186 0.0
N647 N 0.92254 0.34431 0.92889 0.0
C648 C 0.85698 0.3653 0.83637 0.0
C649 C 0.89979 0.35003 0.90103 0.0
N650 N 0.88207 0.41901 0.87775 0.0
N651 N 0.86654 0.29205 0.87202 0.0
H652 H 0.9416 0.36214 0.9531 0.0
H653 H 0.9239 0.32282 0.92613 0.0
H654 H 0.84744 0.27323 0.84903 0.0
H655 H 0.87751 0.28276 0.8995 0.0
H656 H 0.86383 0.42417 0.86229 0.0
H657 H 0.90028 0.43788 0.90145 0.0
H658 H 0.84261 0.39767 0.79515 0.0
H659 H 0.81898 0.35561 0.77771 0.0
C660 C 0.93249 0.56824 0.94799 0.0
C661 C 0.92394 0.53404 0.95686 0.0
C662 C 0.86581 0.51303 0.92029 0.0
C663 C 0.87787 0.54722 0.90019 0.0
N664 N 0.92301 0.60795 0.89423 0.0
N665 N 0.88097 0.47319 0.95892 0.0
C666 C 0.91095 0.57513 0.91499 0.0
C667 C 0.88981 0.50612 0.94613 0.0
N668 N 0.9615 0.59405 0.97063 0.0
N669 N 0.83158 0.48742 0.91355 0.0
H670 H 0.89772 0.46745 0.97895 0.0
H671 H 0.85767 0.45148 0.94841 0.0
H672 H 0.81381 0.49234 0.89496 0.0
H673 H 0.81993 0.46209 0.92985 0.0
H674 H 0.96747 0.61911 0.96965 0.0
H675 H 0.97764 0.58953 0.99509 0.0
H676 H 0.94876 0.62866 0.89781 0.0
H677 H 0.908 0.61433 0.87045 0.0
C678 C 0.36937 0.92122 0.41842 0.0
C679 C 0.39825 0.91989 0.43771 0.0
C680 C 0.37694 0.86625 0.39602 0.0
C681 C 0.34903 0.86846 0.37426 0.0
N682 N 0.31318 0.89223 0.37493 0.0
N683 N 0.4232 0.88613 0.46004 0.0
C684 C 0.3434 0.89408 0.38912 0.0
C685 C 0.39976 0.89058 0.43181 0.0
N686 N 0.36764 0.94906 0.42661 0.0
N687 N 0.38326 0.8425 0.37953 0.0
H688 H 0.44125 0.904 0.48501 0.0
H689 H 0.42285 0.86348 0.4624 0.0
H690 H 0.36774 0.82441 0.35271 0.0
H691 H 0.40529 0.84189 0.3897 0.0
H692 H 0.3497 0.95379 0.40853 0.0
H693 H 0.38534 0.96841 0.45023 0.0
H694 H 0.30584 0.90845 0.3877 0.0
H695 H 0.29382 0.87235 0.35375 0.0
C696 C 0.43232 0.35738 0.84134 0.0
C697 C 0.46761 0.3795 0.85693 0.0
C698 C 0.48525 0.3474 0.80579 0.0
C699 C 0.44941 0.32236 0.79809 0.0
N700 N 0.38793 0.30177 0.81287 0.0
N701 N 0.52545 0.40784 0.81172 0.0
C702 C 0.42264 0.3266 0.81794 0.0
C703 C 0.49415 0.37816 0.82812 0.0
N704 N 0.41031 0.36904 0.83784 0.0
N705 N 0.51102 0.34242 0.78983 0.0
H706 H 0.52954 0.43193 0.8157 0.0
H707 H 0.5445 0.4086 0.78652 0.0
H708 H 0.50525 0.32008 0.773 0.0
H709 H 0.53746 0.35901 0.79822 0.0
H710 H 0.38533 0.35526 0.8222 0.0
H711 H 0.41945 0.39475 0.84178 0.0
H712 H 0.3674 0.30238 0.83105 0.0
H713 H 0.37988 0.27919 0.7949 0.0
C714 C 0.12073 0.46204 0.39142 0.0
C715 C 0.11789 0.49109 0.38926 0.0
C716 C 0.16659 0.52129 0.31988 0.0
C717 C 0.16566 0.49051 0.31609 0.0
N718 N 0.1428 0.43161 0.34732 0.0
N719 N 0.13651 0.54787 0.3498 0.0
C720 C 0.14337 0.461 0.35229 0.0
C721 C 0.14074 0.52079 0.35356 0.0
N722 N 0.10144 0.43538 0.43037 0.0
N723 N 0.19209 0.55095 0.29074 0.0
H724 H 0.11889 0.54923 0.37517 0.0
H725 H 0.14872 0.56801 0.31924 0.0
H726 H 0.21106 0.55208 0.26483 0.0
H727 H 0.19652 0.575 0.29579 0.0
H728 H 0.10457 0.41484 0.43754 0.0
H729 H 0.08373 0.43487 0.45827 0.0
H730 H 0.12437 0.40788 0.36772 0.0
H731 H 0.16026 0.43076 0.3207 0.0
C732 C 0.62797 0.12324 0.91494 0.0
C733 C 0.62737 0.09302 0.93133 0.0
C734 C 0.68033 0.11415 0.87245 0.0
C735 C 0.67564 0.13989 0.84791 0.0
N736 N 0.64136 0.16595 0.84122 0.0
N737 N 0.65416 0.06029 0.92968 0.0
C738 C 0.64888 0.14405 0.86839 0.0
C739 C 0.65441 0.08898 0.91198 0.0
N740 N 0.60868 0.13227 0.94339 0.0
N741 N 0.70923 0.11372 0.85737 0.0
H742 H 0.63638 0.04246 0.96045 0.0
H743 H 0.67054 0.05357 0.91287 0.0
H744 H 0.72833 0.13191 0.82828 0.0
H745 H 0.71574 0.09725 0.87643 0.0
H746 H 0.61105 0.15581 0.93558 0.0
H747 H 0.59356 0.11848 0.97869 0.0
H748 H 0.61904 0.16629 0.85079 0.0
H749 H 0.65519 0.1815 0.806 0.0
C750 C 0.50097 0.60862 0.4276 0.0
C751 C 0.52865 0.6037 0.41328 0.0
C752 C 0.55171 0.65149 0.34424 0.0
C753 C 0.52379 0.65613 0.35435 0.0
N754 N 0.4668 0.63325 0.40003 0.0
N755 N 0.55301 0.60263 0.32713 0.0
C756 C 0.49714 0.63349 0.39538 0.0
C757 C 0.54718 0.62014 0.36299 0.0
N758 N 0.47577 0.58686 0.46682 0.0
N759 N 0.58022 0.67466 0.31082 0.0
H760 H 0.5422 0.57624 0.33426 0.0
H761 H 0.56424 0.6135 0.28807 0.0
H762 H 0.58432 0.69823 0.29575 0.0
H763 H 0.60056 0.67091 0.30239 0.0
H764 H 0.45872 0.59214 0.48551 0.0
H765 H 0.47122 0.56279 0.47908 0.0
H766 H 0.44476 0.61498 0.42459 0.0
H767 H 0.46242 0.65 0.37655 0.0
C768 C 0.49972 0.14882 0.5838 0.0
C769 C 0.47289 0.11464 0.57428 0.0
C770 C 0.42846 0.12026 0.62065 0.0
C771 C 0.45567 0.1535 0.63366 0.0
N772 N 0.51457 0.20301 0.61681 0.0
N773 N 0.41113 0.07163 0.56855 0.0
C774 C 0.49048 0.16905 0.61111 0.0
C775 C 0.43696 0.10173 0.58755 0.0
N776 N 0.53411 0.16118 0.56914 0.0
N777 N 0.39502 0.10555 0.64304 0.0
H778 H 0.41678 0.05757 0.54429 0.0
H779 H 0.38431 0.06222 0.57254 0.0
H780 H 0.3875 0.1188 0.6658 0.0
H781 H 0.37511 0.07979 0.64131 0.0
H782 H 0.55551 0.18425 0.58039 0.0
H783 H 0.54144 0.14755 0.54701 0.0
H784 H 0.53987 0.21698 0.59829 0.0
H785 H 0.50797 0.218 0.63671 0.0
C786 C 0.36124 0.45733 0.04963 0.0
C787 C 0.39403 0.48869 0.03631 0.0
C788 C 0.37125 0.52079 0.07353 0.0
C789 C 0.34185 0.48916 0.09734 0.0
N790 N 0.30465 0.42769 0.10104 0.0
N791 N 0.42491 0.54996 0.01506 0.0
C792 C 0.33508 0.45748 0.08175 0.0
C793 C 0.39713 0.5204 0.04107 0.0
N794 N 0.35574 0.4277 0.03198 0.0
N795 N 0.37576 0.5511 0.08576 0.0
H796 H 0.44473 0.55052 0.99244 0.0
H797 H 0.42741 0.57362 0.01274 0.0
H798 H 0.35691 0.55226 0.10819 0.0
H799 H 0.3983 0.57522 0.07486 0.0
H800 H 0.33203 0.4039 0.03786 0.0
H801 H 0.37466 0.42751 0.00783 0.0
H802 H 0.299 0.40319 0.09624 0.0
H803 H 0.28483 0.42781 0.1228 0.0
C804 C 0.90298 0.35219 0.57094 0.0
C805 C 0.90761 0.38497 0.56771 0.0
C806 C 0.85485 0.36219 0.62707 0.0
C807 C 0.85475 0.33185 0.63909 0.0
N808 N 0.8764 0.29607 0.6215 0.0
N809 N 0.8887 0.42206 0.59274 0.0
C810 C 0.87772 0.32596 0.60987 0.0
C811 C 0.88325 0.39004 0.59475 0.0
N812 N 0.92331 0.34667 0.53763 0.0
N813 N 0.82817 0.36459 0.64769 0.0
H814 H 0.9083 0.44299 0.56776 0.0
H815 H 0.87528 0.42844 0.61859 0.0
H816 H 0.80718 0.34482 0.67247 0.0
H817 H 0.82502 0.38477 0.63618 0.0
H818 H 0.91973 0.32274 0.53506 0.0
H819 H 0.94213 0.36581 0.50922 0.0
H820 H 0.89488 0.29151 0.60624 0.0
H821 H 0.85707 0.27606 0.64832 0.0
C822 C 0.49658 0.8585 0.09402 0.0
C823 C 0.52823 0.8913 0.08316 0.0
C824 C 0.56016 0.87059 0.13602 0.0
C825 C 0.5274 0.84168 0.15759 0.0
N826 N 0.46353 0.80852 0.15835 0.0
N827 N 0.59129 0.92776 0.088 0.0
C828 C 0.49536 0.83516 0.13588 0.0
C829 C 0.56055 0.89686 0.10169 0.0
N830 N 0.46751 0.84974 0.06516 0.0
N831 N 0.5907 0.87301 0.1497 0.0
H832 H 0.59242 0.94652 0.06041 0.0
H833 H 0.61527 0.93524 0.10498 0.0
H834 H 0.59057 0.8538 0.17471 0.0
H835 H 0.61557 0.89215 0.13287 0.0
H836 H 0.44494 0.82493 0.06786 0.0
H837 H 0.46697 0.86628 0.035 0.0
H838 H 0.43957 0.80567 0.14928 0.0
H839 H 0.46097 0.7905 0.18884 0.0
C840 C 0.64179 0.51721 0.69357 0.0
C841 C 0.6511 0.53784 0.64335 0.0
C842 C 0.71079 0.57621 0.67413 0.0
C843 C 0.70202 0.55376 0.72216 0.0
N844 N 0.66297 0.49685 0.76691 0.0
N845 N 0.69798 0.58074 0.57999 0.0
C846 C 0.66886 0.52203 0.72784 0.0
C847 C 0.68679 0.56536 0.63162 0.0
N848 N 0.60721 0.49493 0.71094 0.0
N849 N 0.74064 0.60854 0.66999 0.0
H850 H 0.68151 0.57247 0.54741 0.0
H851 H 0.72443 0.59903 0.56875 0.0
H852 H 0.75838 0.61821 0.70072 0.0
H853 H 0.746 0.62682 0.63786 0.0
H854 H 0.59966 0.48168 0.74952 0.0
H855 H 0.5862 0.49286 0.69003 0.0
H856 H 0.63988 0.47236 0.77007 0.0
H857 H 0.68272 0.49944 0.79201 0.0
C858 C 0.15876 0.65915 0.11129 0.0
C859 C 0.12317 0.64978 0.11215 0.0
C860 C 0.13762 0.69167 0.17818 0.0
C861 C 0.16927 0.69301 0.1884 0.0
N862 N 0.20809 0.67383 0.16656 0.0
N863 N 0.07785 0.65647 0.14989 0.0
C864 C 0.17997 0.67637 0.15465 0.0
C865 C 0.11241 0.66645 0.14554 0.0
N866 N 0.17165 0.65017 0.07023 0.0
N867 N 0.13128 0.71375 0.20125 0.0
H868 H 0.05812 0.63741 0.12821 0.0
H869 H 0.06828 0.6653 0.17845 0.0
H870 H 0.1496 0.73254 0.22512 0.0
H871 H 0.10983 0.71566 0.19203 0.0
H872 H 0.1982 0.65849 0.06555 0.0
H873 H 0.15641 0.63753 0.03792 0.0
H874 H 0.21412 0.65863 0.14618 0.0
H875 H 0.22339 0.68388 0.19981 0.0
loop_
_geom_bond_atom_site_label_1
_geom_bond_atom_site_label_2
_geom_bond_distance
_geom_bond_site_symmetry_2
_ccdc_geom_bond_type
C0 C1 1.449 . S
C0 N4 1.383 . S
C0 C38 1.378 1_554 S
C1 C0 1.449 . S
C1 C2 1.340 . S
C1 H41 0.951 . S
C2 C1 1.340 . S
C2 C3 1.439 . S
C2 H42 0.950 . S
C3 C2 1.439 . S
C3 N4 1.374 . S
C3 C37 1.395 . S
N4 C0 1.383 . S
N4 C3 1.374 . S
N4 Co5 2.008 1_655 S
Co5 N4 2.008 1_455 S
Co5 N6 1.995 . S
Co5 N11 2.008 1_554 S
Co5 N16 1.995 1_554 S
Co5 N21 2.282 . S
Co5 N27 2.282 1_454 S
N6 Co5 1.995 . S
N6 C7 1.376 1_455 S
N6 C10 1.383 . S
C7 N6 1.376 1_655 S
C7 C8 1.446 . S
C7 C37 1.391 . S
C8 C7 1.446 . S
C8 C9 1.339 1_655 S
C8 H43 0.949 . S
C9 C8 1.339 1_455 S
C9 C10 1.439 . S
C9 H44 0.950 . S
C10 N6 1.383 . S
C10 C9 1.439 . S
C10 C39 1.392 . S
N11 Co5 2.008 1_556 S
N11 C12 1.376 1_556 S
N11 C15 1.374 . S
C12 N11 1.376 1_554 S
C12 C13 1.443 1_554 S
C12 C39 1.389 . S
C13 C12 1.443 1_556 S
C13 C14 1.340 . S
C13 H45 0.951 . S
C14 C13 1.340 . S
C14 C15 1.439 . S
C14 H46 0.950 . S
C15 N11 1.374 . S
C15 C14 1.439 . S
C15 C40 1.395 . S
N16 Co5 1.995 1_556 S
N16 C17 1.376 . S
N16 C20 1.383 1_455 S
C17 N16 1.376 . S
C17 C18 1.446 . S
C17 C40 1.391 . S
C18 C17 1.446 . S
C18 C19 1.339 1_455 S
C18 H47 0.949 . S
C19 C18 1.339 1_655 S
C19 C20 1.439 . S
C19 H48 0.950 . S
C20 N16 1.383 1_655 S
C20 C19 1.439 . S
C20 C38 1.392 . S
N21 Co5 2.282 . S
N21 C24 1.332 . S
N21 C26 1.332 . S
C22 C23 1.386 . S
C22 C25 1.388 . S
C23 C22 1.386 . S
C23 C24 1.382 . S
C23 H49 0.950 . S
C24 N21 1.332 . S
C24 C23 1.382 . S
C24 H35 0.952 1_554 S
C25 C22 1.388 . S
C25 C26 1.382 . S
C25 H50 0.950 . S
C26 N21 1.332 . S
C26 C25 1.382 . S
C26 H36 0.948 . S
N27 Co5 2.282 1_656 S
N27 C31 1.332 . S
N27 C32 1.332 . S
C28 C29 1.388 . S
C28 C32 1.382 . S
C28 H51 0.950 . S
C29 C28 1.388 . S
C29 C30 1.386 . S
C30 C29 1.386 . S
C30 C31 1.382 . S
C30 H52 0.950 . S
C31 N27 1.332 . S
C31 C30 1.382 . S
C31 H33 0.952 1_556 S
C32 N27 1.332 . S
C32 C28 1.382 . S
C32 H34 0.948 . S
H33 C31 0.952 1_554 S
H34 C32 0.948 . S
H35 C24 0.952 1_556 S
H36 C26 0.948 . S
C37 C3 1.395 . S
C37 C7 1.391 . S
C38 C0 1.378 1_556 S
C38 C20 1.392 . S
C39 C10 1.392 . S
C39 C12 1.389 . S
C40 C15 1.395 . S
C40 C17 1.391 . S
H41 C1 0.951 . S
H42 C2 0.950 . S
H43 C8 0.949 . S
H44 C9 0.950 . S
H45 C13 0.951 . S
H46 C14 0.950 . S
H47 C18 0.949 . S
H48 C19 0.950 . S
H49 C23 0.950 . S
H50 C25 0.950 . S
H51 C28 0.950 . S
H52 C30 0.950 . S
C53 C54 1.443 . S
C53 N57 1.376 . S
C53 C91 1.389 . S
C54 C53 1.443 . S
C54 C55 1.339 1_545 S
C54 H94 0.951 . S
C55 C54 1.339 1_565 S
C55 C56 1.439 . S
C55 H95 0.951 . S
C56 C55 1.439 . S
C56 N57 1.374 1_565 S
C56 C90 1.395 . S
N57 C53 1.376 . S
N57 C56 1.374 1_545 S
N57 Co58 2.008 . S
Co58 N57 2.008 . S
Co58 N59 1.995 1_545 S
Co58 N64 2.008 . S
Co58 N69 1.995 . S
Co58 N74 2.282 1_545 S
Co58 N80 2.282 . S
N59 Co58 1.995 1_565 S
N59 C60 1.376 . S
N59 C63 1.383 . S
C60 N59 1.376 . S
C60 C61 1.446 . S
C60 C90 1.391 . S
C61 C60 1.446 . S
C61 C62 1.339 . S
C61 H96 0.949 . S
C62 C61 1.339 . S
C62 C63 1.439 . S
C62 H97 0.950 . S
C63 N59 1.383 . S
C63 C62 1.439 . S
C63 C92 1.392 . S
N64 Co58 2.008 . S
N64 C65 1.376 1_545 S
N64 C68 1.374 . S
C65 N64 1.376 1_565 S
C65 C66 1.443 . S
C65 C92 1.389 . S
C66 C65 1.443 . S
C66 C67 1.340 1_565 S
C66 H98 0.951 . S
C67 C66 1.340 1_545 S
C67 C68 1.439 . S
C67 H99 0.950 . S
C68 N64 1.374 . S
C68 C67 1.439 . S
C68 C93 1.395 . S
N69 Co58 1.995 . S
N69 C70 1.376 . S
N69 C73 1.383 . S
C70 N69 1.376 . S
C70 C71 1.446 . S
C70 C93 1.391 . S
C71 C70 1.446 . S
C71 C72 1.339 . S
C71 H100 0.949 . S
C72 C71 1.339 . S
C72 C73 1.439 . S
C72 H101 0.950 . S
C73 N69 1.383 . S
C73 C72 1.439 . S
C73 C91 1.392 . S
N74 Co58 2.282 1_565 S
N74 C77 1.332 . S
N74 C79 1.332 . S
C75 C76 1.386 . S
C75 C78 1.388 . S
C76 C75 1.386 . S
C76 C77 1.382 . S
C76 H102 0.950 . S
C77 N74 1.332 . S
C77 C76 1.382 . S
C77 H88 0.952 1_565 S
C78 C75 1.388 . S
C78 C79 1.382 . S
C78 H103 0.950 . S
C79 N74 1.332 . S
C79 C78 1.382 . S
C79 H89 0.948 . S
N80 Co58 2.282 . S
N80 C84 1.332 . S
N80 C85 1.332 . S
C81 C82 1.388 . S
C81 C85 1.382 . S
C81 H104 0.950 . S
C82 C81 1.388 . S
C82 C83 1.386 . S
C83 C82 1.386 . S
C83 C84 1.382 . S
C83 H105 0.950 . S
C84 N80 1.332 . S
C84 C83 1.382 . S
C84 H86 0.952 . S
C85 N80 1.332 . S
C85 C81 1.382 . S
C85 H87 0.948 . S
H86 C84 0.952 . S
H87 C85 0.948 . S
H88 C77 0.952 1_545 S
H89 C79 0.948 . S
C90 C56 1.395 . S
C90 C60 1.391 . S
C91 C53 1.389 . S
C91 C73 1.392 . S
C92 C63 1.392 . S
C92 C65 1.389 . S
C93 C68 1.395 . S
C93 C70 1.391 . S
H94 C54 0.951 . S
H95 C55 0.951 . S
H96 C61 0.949 . S
H97 C62 0.950 . S
H98 C66 0.951 . S
H99 C67 0.950 . S
H100 C71 0.949 . S
H101 C72 0.950 . S
H102 C76 0.950 . S
H103 C78 0.950 . S
H104 C81 0.950 . S
H105 C83 0.950 . S
C106 C107 1.443 . S
C106 N110 1.376 . S
C106 C144 1.389 . S
C107 C106 1.443 . S
C107 C108 1.340 . S
C107 H147 0.951 . S
C108 C107 1.340 . S
C108 C109 1.439 . S
C108 H148 0.950 . S
C109 C108 1.439 . S
C109 N110 1.374 . S
C109 C143 1.395 . S
N110 C106 1.376 . S
N110 C109 1.374 . S
N110 Co111 2.008 1_556 S
Co111 N110 2.008 1_554 S
Co111 N112 1.995 1_554 S
Co111 N117 2.008 . S
Co111 N122 1.995 . S
Co111 N127 2.282 . S
Co111 N133 2.282 1_554 S
N112 Co111 1.995 1_556 S
N112 C113 1.376 . S
N112 C116 1.383 1_556 S
C113 N112 1.376 . S
C113 C114 1.446 . S
C113 C143 1.391 . S
C114 C113 1.446 . S
C114 C115 1.339 . S
C114 H149 0.949 . S
C115 C114 1.339 . S
C115 C116 1.439 1_556 S
C115 H150 0.950 . S
C116 N112 1.383 1_554 S
C116 C115 1.439 1_554 S
C116 C145 1.392 . S
N117 Co111 2.008 . S
N117 C118 1.376 . S
N117 C121 1.374 . S
C118 N117 1.376 . S
C118 C119 1.443 . S
C118 C145 1.389 . S
C119 C118 1.443 . S
C119 C120 1.340 . S
C119 H151 0.951 . S
C120 C119 1.340 . S
C120 C121 1.439 . S
C120 H152 0.950 . S
C121 N117 1.374 . S
C121 C120 1.439 . S
C121 C146 1.395 . S
N122 Co111 1.995 . S
N122 C123 1.376 . S
N122 C126 1.383 . S
C123 N122 1.376 . S
C123 C124 1.446 . S
C123 C146 1.391 . S
C124 C123 1.446 . S
C124 C125 1.339 . S
C124 H153 0.949 . S
C125 C124 1.339 . S
C125 C126 1.439 . S
C125 H154 0.950 . S
C126 N122 1.383 . S
C126 C125 1.439 . S
C126 C144 1.392 1_554 S
N127 Co111 2.282 . S
N127 C130 1.332 . S
N127 C132 1.332 . S
C128 C129 1.386 . S
C128 C131 1.388 . S
C129 C128 1.386 . S
C129 C130 1.382 . S
C129 H155 0.950 . S
C130 N127 1.332 . S
C130 C129 1.382 . S
C130 H141 0.952 . S
C131 C128 1.388 . S
C131 C132 1.382 . S
C131 H156 0.950 . S
C132 N127 1.332 . S
C132 C131 1.382 . S
C132 H142 0.948 1_554 S
N133 Co111 2.282 1_556 S
N133 C137 1.332 . S
N133 C138 1.332 . S
C134 C135 1.388 . S
C134 C138 1.382 . S
C134 H157 0.950 . S
C135 C134 1.388 . S
C135 C136 1.386 . S
C136 C135 1.386 . S
C136 C137 1.382 . S
C136 H158 0.950 . S
C137 N133 1.332 . S
C137 C136 1.382 . S
C137 H139 0.952 . S
C138 N133 1.332 . S
C138 C134 1.382 . S
C138 H140 0.948 1_556 S
H139 C137 0.952 . S
H140 C138 0.948 1_554 S
H141 C130 0.952 . S
H142 C132 0.948 1_556 S
C143 C109 1.395 . S
C143 C113 1.391 . S
C144 C106 1.389 . S
C144 C126 1.392 1_556 S
C145 C116 1.392 . S
C145 C118 1.389 . S
C146 C121 1.395 . S
C146 C123 1.391 . S
H147 C107 0.951 . S
H148 C108 0.950 . S
H149 C114 0.949 . S
H150 C115 0.950 . S
H151 C119 0.951 . S
H152 C120 0.950 . S
H153 C124 0.949 . S
H154 C125 0.950 . S
H155 C129 0.950 . S
H156 C131 0.950 . S
H157 C134 0.950 . S
H158 C136 0.950 . S
C159 C160 1.443 . S
C159 N163 1.376 . S
C159 C197 1.389 . S
C160 C159 1.443 . S
C160 C161 1.340 . S
C160 H200 0.951 . S
C161 C160 1.340 . S
C161 C162 1.439 . S
C161 H201 0.950 . S
C162 C161 1.439 . S
C162 N163 1.374 . S
C162 C196 1.395 . S
N163 C159 1.376 . S
N163 C162 1.374 . S
N163 Co164 2.008 1_655 S
Co164 N163 2.008 1_455 S
Co164 N165 1.995 . S
Co164 N170 2.008 . S
Co164 N175 1.995 . S
Co164 N180 2.282 . S
Co164 N186 2.282 1_455 S
N165 Co164 1.995 . S
N165 C166 1.376 1_455 S
N165 C169 1.383 . S
C166 N165 1.376 1_655 S
C166 C167 1.446 . S
C166 C196 1.391 . S
C167 C166 1.446 . S
C167 C168 1.339 1_655 S
C167 H202 0.949 . S
C168 C167 1.339 1_455 S
C168 C169 1.439 . S
C168 H203 0.950 . S
C169 N165 1.383 . S
C169 C168 1.439 . S
C169 C198 1.392 . S
N170 Co164 2.008 . S
N170 C171 1.376 . S
N170 C174 1.374 . S
C171 N170 1.376 . S
C171 C172 1.443 . S
C171 C198 1.389 . S
C172 C171 1.443 . S
C172 C173 1.340 . S
C172 H204 0.951 . S
C173 C172 1.340 . S
C173 C174 1.439 . S
C173 H205 0.950 . S
C174 N170 1.374 . S
C174 C173 1.439 . S
C174 C199 1.395 . S
N175 Co164 1.995 . S
N175 C176 1.376 . S
N175 C179 1.383 1_455 S
C176 N175 1.376 . S
C176 C177 1.446 . S
C176 C199 1.391 . S
C177 C176 1.446 . S
C177 C178 1.339 1_455 S
C177 H206 0.949 . S
C178 C177 1.339 1_655 S
C178 C179 1.439 . S
C178 H207 0.950 . S
C179 N175 1.383 1_655 S
C179 C178 1.439 . S
C179 C197 1.392 . S
N180 Co164 2.282 . S
N180 C183 1.332 . S
N180 C185 1.332 . S
C181 C182 1.386 . S
C181 C184 1.388 . S
C182 C181 1.386 . S
C182 C183 1.382 . S
C182 H208 0.950 . S
C183 N180 1.332 . S
C183 C182 1.382 . S
C183 H194 0.952 . S
C184 C181 1.388 . S
C184 C185 1.382 . S
C184 H209 0.950 . S
C185 N180 1.332 . S
C185 C184 1.382 . S
C185 H195 0.948 . S
N186 Co164 2.282 1_655 S
N186 C190 1.332 . S
N186 C191 1.332 . S
C187 C188 1.388 . S
C187 C191 1.382 . S
C187 H210 0.950 . S
C188 C187 1.388 . S
C188 C189 1.386 . S
C189 C188 1.386 . S
C189 C190 1.382 . S
C189 H211 0.950 . S
C190 N186 1.332 . S
C190 C189 1.382 . S
C190 H192 0.952 . S
C191 N186 1.332 . S
C191 C187 1.382 . S
C191 H193 0.948 . S
H192 C190 0.952 . S
H193 C191 0.948 . S
H194 C183 0.952 . S
H195 C185 0.948 . S
C196 C162 1.395 . S
C196 C166 1.391 . S
C197 C159 1.389 . S
C197 C179 1.392 . S
C198 C169 1.392 . S
C198 C171 1.389 . S
C199 C174 1.395 . S
C199 C176 1.391 . S
H200 C160 0.951 . S
H201 C161 0.950 . S
H202 C167 0.949 . S
H203 C168 0.950 . S
H204 C172 0.951 . S
H205 C173 0.950 . S
H206 C177 0.949 . S
H207 C178 0.950 . S
H208 C182 0.950 . S
H209 C184 0.950 . S
H210 C187 0.950 . S
H211 C189 0.950 . S
C212 C213 1.443 . S
C212 N216 1.376 1_565 S
C212 C250 1.389 . S
C213 C212 1.443 . S
C213 C214 1.340 1_565 S
C213 H253 0.951 . S
C214 C213 1.340 1_545 S
C214 C215 1.439 . S
C214 H254 0.950 . S
C215 C214 1.439 . S
C215 N216 1.374 . S
C215 C249 1.395 . S
N216 C212 1.376 1_545 S
N216 C215 1.374 . S
N216 Co217 2.008 . S
Co217 N216 2.008 . S
Co217 N218 1.995 . S
Co217 N223 2.008 1_554 S
Co217 N228 1.995 1_544 S
Co217 N233 2.282 1_554 S
Co217 N239 2.282 1_545 S
N218 Co217 1.995 . S
N218 C219 1.376 . S
N218 C222 1.383 1_554 S
C219 N218 1.376 . S
C219 C220 1.446 . S
C219 C249 1.391 . S
C220 C219 1.446 . S
C220 C221 1.339 . S
C220 H255 0.949 . S
C221 C220 1.339 . S
C221 C222 1.439 1_554 S
C221 H256 0.950 1_554 S
C222 N218 1.383 1_556 S
C222 C221 1.439 1_556 S
C222 C251 1.392 . S
N223 Co217 2.008 1_556 S
N223 C224 1.376 . S
N223 C227 1.374 1_545 S
C224 N223 1.376 . S
C224 C225 1.443 . S
C224 C251 1.389 . S
C225 C224 1.443 . S
C225 C226 1.340 . S
C225 H257 0.951 . S
C226 C225 1.340 . S
C226 C227 1.439 1_545 S
C226 H258 0.950 1_545 S
C227 N223 1.374 1_565 S
C227 C226 1.439 1_565 S
C227 C252 1.395 . S
N228 Co217 1.995 1_566 S
N228 C229 1.376 . S
N228 C232 1.383 1_556 S
C229 N228 1.376 . S
C229 C230 1.446 . S
C229 C252 1.391 . S
C230 C229 1.446 . S
C230 C231 1.339 . S
C230 H259 0.949 . S
C231 C230 1.339 . S
C231 C232 1.439 1_556 S
C231 H260 0.950 1_556 S
C232 N228 1.383 1_554 S
C232 C231 1.439 1_554 S
C232 C250 1.392 . S
N233 Co217 2.282 1_556 S
N233 C236 1.332 . S
N233 C238 1.332 . S
C234 C235 1.386 . S
C234 C237 1.388 . S
C235 C234 1.386 . S
C235 C236 1.382 . S
C235 H261 0.950 . S
C236 N233 1.332 . S
C236 C235 1.382 . S
C236 H247 0.952 . S
C237 C234 1.388 . S
C237 C238 1.382 . S
C237 H262 0.950 . S
C238 N233 1.332 . S
C238 C237 1.382 . S
C238 H248 0.948 1_556 S
N239 Co217 2.282 1_565 S
N239 C243 1.332 . S
N239 C244 1.332 . S
C240 C241 1.388 . S
C240 C244 1.382 . S
C240 H263 0.950 . S
C241 C240 1.388 . S
C241 C242 1.386 . S
C242 C241 1.386 . S
C242 C243 1.382 . S
C242 H264 0.950 . S
C243 N239 1.332 . S
C243 C242 1.382 . S
C243 H245 0.952 1_565 S
C244 N239 1.332 . S
C244 C240 1.382 . S
C244 H246 0.948 1_554 S
H245 C243 0.952 1_545 S
H246 C244 0.948 1_556 S
H247 C236 0.952 . S
H248 C238 0.948 1_554 S
C249 C215 1.395 . S
C249 C219 1.391 . S
C250 C212 1.389 . S
C250 C232 1.392 . S
C251 C222 1.392 . S
C251 C224 1.389 . S
C252 C227 1.395 . S
C252 C229 1.391 . S
H253 C213 0.951 . S
H254 C214 0.950 . S
H255 C220 0.949 . S
H256 C221 0.950 1_556 S
H257 C225 0.951 . S
H258 C226 0.950 1_565 S
H259 C230 0.949 . S
H260 C231 0.950 1_554 S
H261 C235 0.950 . S
H262 C237 0.950 . S
H263 C240 0.950 . S
H264 C242 0.950 . S
C265 C266 1.443 . S
C265 N269 1.376 . S
C265 C303 1.389 . S
C266 C265 1.443 . S
C266 C267 1.340 . S
C266 H306 0.951 . S
C267 C266 1.340 . S
C267 C268 1.439 . S
C267 H307 0.950 . S
C268 C267 1.439 . S
C268 N269 1.374 . S
C268 C302 1.395 . S
N269 C265 1.376 . S
N269 C268 1.374 . S
N269 Co270 2.008 . S
Co270 N269 2.008 . S
Co270 N271 1.995 . S
Co270 N276 2.008 . S
Co270 N281 1.995 . S
Co270 N286 2.282 . S
Co270 N292 2.282 . S
N271 Co270 1.995 . S
N271 C272 1.376 . S
N271 C275 1.383 . S
C272 N271 1.376 . S
C272 C273 1.446 . S
C272 C302 1.391 . S
C273 C272 1.446 . S
C273 C274 1.339 . S
C273 H308 0.949 . S
C274 C273 1.339 . S
C274 C275 1.439 . S
C274 H309 0.950 . S
C275 N271 1.383 . S
C275 C274 1.439 . S
C275 C304 1.392 . S
N276 Co270 2.008 . S
N276 C277 1.376 . S
N276 C280 1.374 . S
C277 N276 1.376 . S
C277 C278 1.443 . S
C277 C304 1.389 . S
C278 C277 1.443 . S
C278 C279 1.340 . S
C278 H310 0.951 . S
C279 C278 1.340 . S
C279 C280 1.439 . S
C279 H311 0.950 . S
C280 N276 1.374 . S
C280 C279 1.439 . S
C280 C305 1.395 . S
N281 Co270 1.995 . S
N281 C282 1.376 . S
N281 C285 1.383 . S
C282 N281 1.376 . S
C282 C283 1.446 . S
C282 C305 1.391 . S
C283 C282 1.446 . S
C283 C284 1.339 . S
C283 H312 0.949 . S
C284 C283 1.339 . S
C284 C285 1.439 . S
C284 H313 0.950 . S
C285 N281 1.383 . S
C285 C284 1.439 . S
C285 C303 1.392 . S
N286 Co270 2.282 . S
N286 C289 1.332 . S
N286 C291 1.332 . S
C287 C288 1.386 . S
C287 C290 1.388 . S
C288 C287 1.386 . S
C288 C289 1.382 . S
C288 H314 0.950 . S
C289 N286 1.332 . S
C289 C288 1.382 . S
C289 H300 0.952 . S
C290 C287 1.388 . S
C290 C291 1.382 . S
C290 H315 0.950 . S
C291 N286 1.332 . S
C291 C290 1.382 . S
C291 H301 0.948 . S
N292 Co270 2.282 . S
N292 C296 1.332 . S
N292 C297 1.332 . S
C293 C294 1.388 . S
C293 C297 1.382 . S
C293 H316 0.950 . S
C294 C293 1.388 . S
C294 C295 1.386 . S
C295 C294 1.386 . S
C295 C296 1.382 . S
C295 H317 0.950 . S
C296 N292 1.332 . S
C296 C295 1.382 . S
C296 H298 0.952 . S
C297 N292 1.332 . S
C297 C293 1.382 . S
C297 H299 0.948 . S
H298 C296 0.952 . S
H299 C297 0.948 . S
H300 C289 0.952 . S
H301 C291 0.948 . S
C302 C268 1.395 . S
C302 C272 1.391 . S
C303 C265 1.389 . S
C303 C285 1.392 . S
C304 C275 1.392 . S
C304 C277 1.389 . S
C305 C280 1.395 . S
C305 C282 1.391 . S
H306 C266 0.951 . S
H307 C267 0.950 . S
H308 C273 0.949 . S
H309 C274 0.950 . S
H310 C278 0.951 . S
H311 C279 0.950 . S
H312 C283 0.949 . S
H313 C284 0.950 . S
H314 C288 0.950 . S
H315 C290 0.950 . S
H316 C293 0.950 . S
H317 C295 0.950 . S
H318 C326 0.930 . S
H319 C329 0.930 . S
H320 C331 0.930 . S
H321 C332 0.970 . S
H322 C332 0.970 . S
H323 C334 0.930 . S
H324 C336 0.930 . S
H325 C338 0.930 . S
C326 H318 0.930 . S
C326 C327 1.382 . S
C326 C328 1.426 . S
C327 C326 1.382 . S
C327 C331 1.389 . S
C328 C326 1.426 . S
C328 C329 1.375 . S
C328 C332 1.532 . S
C329 H319 0.930 . S
C329 C328 1.375 . S
C329 C330 1.416 . S
C330 C329 1.416 . S
C330 C331 1.371 . S
C331 H320 0.930 . S
C331 C327 1.389 . S
C331 C330 1.371 . S
C332 H321 0.970 . S
C332 H322 0.970 . S
C332 C328 1.532 . S
C332 C333 1.499 . S
C333 C332 1.499 . S
C333 C334 1.370 . S
C333 C338 1.415 . S
C334 H323 0.930 . S
C334 C333 1.370 . S
C334 C335 1.407 . S
C335 C334 1.407 . S
C335 C336 1.365 . S
C336 H324 0.930 . S
C336 C335 1.365 . S
C336 C337 1.393 . S
C337 C336 1.393 . S
C337 C338 1.387 . S
C338 H325 0.930 . S
C338 C333 1.415 . S
C338 C337 1.387 . S
H339 C347 0.930 . S
H340 C350 0.930 . S
H341 C352 0.930 . S
H342 C353 0.970 . S
H343 C353 0.970 . S
H344 C355 0.930 . S
H345 C357 0.930 . S
H346 C359 0.930 . S
C347 H339 0.930 . S
C347 C348 1.382 . S
C347 C349 1.426 . S
C348 C347 1.382 . S
C348 C352 1.389 . S
C349 C347 1.426 . S
C349 C350 1.375 . S
C349 C353 1.532 . S
C350 H340 0.930 . S
C350 C349 1.375 . S
C350 C351 1.416 . S
C351 C350 1.416 . S
C351 C352 1.371 . S
C352 H341 0.930 . S
C352 C348 1.389 . S
C352 C351 1.371 . S
C353 H342 0.970 . S
C353 H343 0.970 . S
C353 C349 1.532 . S
C353 C354 1.499 . S
C354 C353 1.499 . S
C354 C355 1.370 . S
C354 C359 1.415 . S
C355 H344 0.930 . S
C355 C354 1.370 . S
C355 C356 1.407 . S
C356 C355 1.407 . S
C356 C357 1.365 . S
C357 H345 0.930 . S
C357 C356 1.365 . S
C357 C358 1.393 . S
C358 C357 1.393 . S
C358 C359 1.387 . S
C359 H346 0.930 . S
C359 C354 1.415 . S
C359 C358 1.387 . S
H360 C368 0.930 . S
H361 C371 0.930 . S
H362 C373 0.930 . S
H363 C374 0.970 . S
H364 C374 0.970 . S
H365 C376 0.930 . S
H366 C378 0.930 . S
H367 C380 0.930 . S
C368 H360 0.930 . S
C368 C369 1.382 . S
C368 C370 1.426 . S
C369 C368 1.382 . S
C369 C373 1.389 . S
C370 C368 1.426 . S
C370 C371 1.375 . S
C370 C374 1.532 . S
C371 H361 0.930 . S
C371 C370 1.375 . S
C371 C372 1.416 . S
C372 C371 1.416 . S
C372 C373 1.371 . S
C373 H362 0.930 . S
C373 C369 1.389 . S
C373 C372 1.371 . S
C374 H363 0.970 . S
C374 H364 0.970 . S
C374 C370 1.532 . S
C374 C375 1.499 . S
C375 C374 1.499 . S
C375 C376 1.370 . S
C375 C380 1.415 . S
C376 H365 0.930 . S
C376 C375 1.370 . S
C376 C377 1.407 . S
C377 C376 1.407 . S
C377 C378 1.365 . S
C378 H366 0.930 . S
C378 C377 1.365 . S
C378 C379 1.393 . S
C379 C378 1.393 . S
C379 C380 1.387 . S
C380 H367 0.930 . S
C380 C375 1.415 . S
C380 C379 1.387 . S
H381 C389 0.930 . S
H382 C392 0.930 . S
H383 C394 0.930 . S
H384 C395 0.970 . S
H385 C395 0.970 . S
H386 C397 0.930 . S
H387 C399 0.930 . S
H388 C401 0.930 . S
C389 H381 0.930 . S
C389 C390 1.382 . S
C389 C391 1.426 . S
C390 C389 1.382 . S
C390 C394 1.389 . S
C391 C389 1.426 . S
C391 C392 1.375 . S
C391 C395 1.532 . S
C392 H382 0.930 . S
C392 C391 1.375 . S
C392 C393 1.416 . S
C393 C392 1.416 . S
C393 C394 1.371 . S
C394 H383 0.930 . S
C394 C390 1.389 . S
C394 C393 1.371 . S
C395 H384 0.970 . S
C395 H385 0.970 . S
C395 C391 1.532 . S
C395 C396 1.499 . S
C396 C395 1.499 . S
C396 C397 1.370 . S
C396 C401 1.415 . S
C397 H386 0.930 . S
C397 C396 1.370 . S
C397 C398 1.407 . S
C398 C397 1.407 . S
C398 C399 1.365 . S
C399 H387 0.930 . S
C399 C398 1.365 . S
C399 C400 1.393 . S
C400 C399 1.393 . S
C400 C401 1.387 . S
C401 H388 0.930 . S
C401 C396 1.415 . S
C401 C400 1.387 . S
H402 C410 0.930 . S
H403 C413 0.930 . S
H404 C415 0.930 . S
H405 C416 0.970 . S
H406 C416 0.970 . S
H407 C418 0.930 . S
H408 C420 0.930 . S
H409 C422 0.930 . S
C410 H402 0.930 . S
C410 C411 1.382 . S
C410 C412 1.426 . S
C411 C410 1.382 . S
C411 C415 1.389 . S
C412 C410 1.426 . S
C412 C413 1.375 . S
C412 C416 1.532 . S
C413 H403 0.930 . S
C413 C412 1.375 . S
C413 C414 1.416 . S
C414 C413 1.416 . S
C414 C415 1.371 . S
C415 H404 0.930 . S
C415 C411 1.389 . S
C415 C414 1.371 . S
C416 H405 0.970 . S
C416 H406 0.970 . S
C416 C412 1.532 . S
C416 C417 1.499 . S
C417 C416 1.499 . S
C417 C418 1.370 . S
C417 C422 1.415 . S
C418 H407 0.930 . S
C418 C417 1.370 . S
C418 C419 1.407 . S
C419 C418 1.407 . S
C419 C420 1.365 . S
C420 H408 0.930 . S
C420 C419 1.365 . S
C420 C421 1.393 . S
C421 C420 1.393 . S
C421 C422 1.387 . S
C422 H409 0.930 . S
C422 C417 1.415 . S
C422 C421 1.387 . S
H423 C431 0.930 . S
H424 C434 0.930 . S
H425 C436 0.930 . S
H426 C437 0.970 . S
H427 C437 0.970 . S
H428 C439 0.930 . S
H429 C441 0.930 . S
H430 C443 0.930 . S
C431 H423 0.930 . S
C431 C432 1.382 . S
C431 C433 1.426 . S
C432 C431 1.382 . S
C432 C436 1.389 . S
C433 C431 1.426 . S
C433 C434 1.375 . S
C433 C437 1.532 . S
C434 H424 0.930 . S
C434 C433 1.375 . S
C434 C435 1.416 . S
C435 C434 1.416 . S
C435 C436 1.371 . S
C436 H425 0.930 . S
C436 C432 1.389 . S
C436 C435 1.371 . S
C437 H426 0.970 . S
C437 H427 0.970 . S
C437 C433 1.532 . S
C437 C438 1.499 . S
C438 C437 1.499 . S
C438 C439 1.370 . S
C438 C443 1.415 . S
C439 H428 0.930 . S
C439 C438 1.370 . S
C439 C440 1.407 . S
C440 C439 1.407 . S
C440 C441 1.365 . S
C441 H429 0.930 . S
C441 C440 1.365 . S
C441 C442 1.393 . S
C442 C441 1.393 . S
C442 C443 1.387 . S
C443 H430 0.930 . S
C443 C438 1.415 . S
C443 C442 1.387 . S
C444 C445 1.363 . S
C444 C450 1.379 . S
C444 N452 1.356 . S
C445 C444 1.363 . S
C445 C451 1.363 . S
C446 C447 1.363 . S
C446 C451 1.379 . S
C446 N453 1.356 . S
C447 C446 1.363 . S
C447 C450 1.363 . S
N448 C450 1.356 . S
N448 H460 0.984 . S
N448 H461 0.985 . S
N449 C451 1.356 . S
N449 H454 0.984 . S
N449 H455 0.985 . S
C450 C444 1.379 . S
C450 C447 1.363 . S
C450 N448 1.356 . S
C451 C445 1.363 . S
C451 C446 1.379 . S
C451 N449 1.356 . S
N452 C444 1.356 . S
N452 H458 0.984 . S
N452 H459 0.984 . S
N453 C446 1.356 . S
N453 H456 0.984 . S
N453 H457 0.985 . S
H454 N449 0.984 . S
H455 N449 0.985 . S
H456 N453 0.984 . S
H457 N453 0.985 . S
H458 N452 0.984 . S
H459 N452 0.984 . S
H460 N448 0.984 . S
H461 N448 0.985 . S
C462 C463 1.363 . S
C462 C468 1.379 . S
C462 N470 1.356 . S
C463 C462 1.363 . S
C463 C469 1.363 . S
C464 C465 1.363 . S
C464 C469 1.379 . S
C464 N471 1.356 . S
C465 C464 1.363 . S
C465 C468 1.363 . S
N466 C468 1.356 . S
N466 H478 0.984 . S
N466 H479 0.985 . S
N467 C469 1.356 . S
N467 H472 0.984 . S
N467 H473 0.985 . S
C468 C462 1.379 . S
C468 C465 1.363 . S
C468 N466 1.356 . S
C469 C463 1.363 . S
C469 C464 1.379 . S
C469 N467 1.356 . S
N470 C462 1.356 . S
N470 H476 0.984 . S
N470 H477 0.984 . S
N471 C464 1.356 . S
N471 H474 0.984 . S
N471 H475 0.985 . S
H472 N467 0.984 . S
H473 N467 0.985 . S
H474 N471 0.984 . S
H475 N471 0.985 . S
H476 N470 0.984 . S
H477 N470 0.984 . S
H478 N466 0.984 . S
H479 N466 0.985 . S
C480 C481 1.363 . S
C480 C486 1.379 . S
C480 N488 1.356 . S
C481 C480 1.363 . S
C481 C487 1.363 . S
C482 C483 1.363 . S
C482 C487 1.379 . S
C482 N489 1.356 . S
C483 C482 1.363 . S
C483 C486 1.363 . S
N484 C486 1.356 . S
N484 H496 0.984 . S
N484 H497 0.985 . S
N485 C487 1.356 . S
N485 H490 0.984 . S
N485 H491 0.985 . S
C486 C480 1.379 . S
C486 C483 1.363 . S
C486 N484 1.356 . S
C487 C481 1.363 . S
C487 C482 1.379 . S
C487 N485 1.356 . S
N488 C480 1.356 . S
N488 H494 0.984 . S
N488 H495 0.984 . S
N489 C482 1.356 . S
N489 H492 0.984 . S
N489 H493 0.985 . S
H490 N485 0.984 . S
H491 N485 0.985 . S
H492 N489 0.984 . S
H493 N489 0.985 . S
H494 N488 0.984 . S
H495 N488 0.984 . S
H496 N484 0.984 . S
H497 N484 0.985 . S
C498 C499 1.363 . S
C498 C504 1.379 . S
C498 N506 1.356 . S
C499 C498 1.363 . S
C499 C505 1.363 . S
C500 C501 1.363 . S
C500 C505 1.379 . S
C500 N507 1.356 . S
C501 C500 1.363 . S
C501 C504 1.363 . S
N502 C504 1.356 . S
N502 H514 0.984 . S
N502 H515 0.985 . S
N503 C505 1.356 . S
N503 H508 0.984 . S
N503 H509 0.985 . S
C504 C498 1.379 . S
C504 C501 1.363 . S
C504 N502 1.356 . S
C505 C499 1.363 . S
C505 C500 1.379 . S
C505 N503 1.356 . S
N506 C498 1.356 . S
N506 H512 0.984 . S
N506 H513 0.984 . S
N507 C500 1.356 . S
N507 H510 0.984 . S
N507 H511 0.985 . S
H508 N503 0.984 . S
H509 N503 0.985 . S
H510 N507 0.984 . S
H511 N507 0.985 . S
H512 N506 0.984 . S
H513 N506 0.984 . S
H514 N502 0.984 . S
H515 N502 0.985 . S
C516 C517 1.363 . S
C516 C522 1.379 . S
C516 N524 1.356 . S
C517 C516 1.363 . S
C517 C523 1.363 . S
C518 C519 1.363 . S
C518 C523 1.379 . S
C518 N525 1.356 . S
C519 C518 1.363 . S
C519 C522 1.363 . S
N520 C522 1.356 . S
N520 H532 0.984 . S
N520 H533 0.985 . S
N521 C523 1.356 . S
N521 H526 0.984 . S
N521 H527 0.985 . S
C522 C516 1.379 . S
C522 C519 1.363 . S
C522 N520 1.356 . S
C523 C517 1.363 . S
C523 C518 1.379 . S
C523 N521 1.356 . S
N524 C516 1.356 . S
N524 H530 0.984 . S
N524 H531 0.984 . S
N525 C518 1.356 . S
N525 H528 0.984 . S
N525 H529 0.985 . S
H526 N521 0.984 . S
H527 N521 0.985 . S
H528 N525 0.984 . S
H529 N525 0.985 . S
H530 N524 0.984 . S
H531 N524 0.984 . S
H532 N520 0.984 . S
H533 N520 0.985 . S
C534 C535 1.363 . S
C534 C540 1.379 . S
C534 N542 1.356 . S
C535 C534 1.363 . S
C535 C541 1.363 . S
C536 C537 1.363 . S
C536 C541 1.379 . S
C536 N543 1.356 . S
C537 C536 1.363 . S
C537 C540 1.363 . S
N538 C540 1.356 . S
N538 H550 0.984 . S
N538 H551 0.985 . S
N539 C541 1.356 . S
N539 H544 0.984 . S
N539 H545 0.985 . S
C540 C534 1.379 . S
C540 C537 1.363 . S
C540 N538 1.356 . S
C541 C535 1.363 . S
C541 C536 1.379 . S
C541 N539 1.356 . S
N542 C534 1.356 . S
N542 H548 0.984 . S
N542 H549 0.984 . S
N543 C536 1.356 . S
N543 H546 0.984 . S
N543 H547 0.985 . S
H544 N539 0.984 . S
H545 N539 0.985 . S
H546 N543 0.984 . S
H547 N543 0.985 . S
H548 N542 0.984 . S
H549 N542 0.984 . S
H550 N538 0.984 . S
H551 N538 0.985 . S
C552 C553 1.363 . S
C552 C558 1.379 . S
C552 N560 1.356 . S
C553 C552 1.363 . S
C553 C559 1.363 . S
C554 C555 1.363 . S
C554 C559 1.379 . S
C554 N561 1.356 . S
C555 C554 1.363 . S
C555 C558 1.363 . S
N556 C558 1.356 . S
N556 H568 0.984 . S
N556 H569 0.985 . S
N557 C559 1.356 . S
N557 H562 0.984 . S
N557 H563 0.985 . S
C558 C552 1.379 . S
C558 C555 1.363 . S
C558 N556 1.356 . S
C559 C553 1.363 . S
C559 C554 1.379 . S
C559 N557 1.356 . S
N560 C552 1.356 . S
N560 H566 0.984 . S
N560 H567 0.984 . S
N561 C554 1.356 . S
N561 H564 0.984 . S
N561 H565 0.985 . S
H562 N557 0.984 . S
H563 N557 0.985 . S
H564 N561 0.984 . S
H565 N561 0.985 . S
H566 N560 0.984 . S
H567 N560 0.984 . S
H568 N556 0.984 . S
H569 N556 0.985 . S
C570 C571 1.363 . S
C570 C576 1.379 . S
C570 N578 1.356 . S
C571 C570 1.363 . S
C571 C577 1.363 . S
C572 C573 1.363 . S
C572 C577 1.379 . S
C572 N579 1.356 . S
C573 C572 1.363 . S
C573 C576 1.363 . S
N574 C576 1.356 . S
N574 H586 0.984 . S
N574 H587 0.985 . S
N575 C577 1.356 . S
N575 H580 0.984 . S
N575 H581 0.985 . S
C576 C570 1.379 . S
C576 C573 1.363 . S
C576 N574 1.356 . S
C577 C571 1.363 . S
C577 C572 1.379 . S
C577 N575 1.356 . S
N578 C570 1.356 . S
N578 H584 0.984 . S
N578 H585 0.984 . S
N579 C572 1.356 . S
N579 H582 0.984 . S
N579 H583 0.985 . S
H580 N575 0.984 . S
H581 N575 0.985 . S
H582 N579 0.984 . S
H583 N579 0.985 . S
H584 N578 0.984 . S
H585 N578 0.984 . S
H586 N574 0.984 . S
H587 N574 0.985 . S
C588 C589 1.363 . S
C588 C594 1.379 . S
C588 N596 1.356 . S
C589 C588 1.363 . S
C589 C595 1.363 . S
C590 C591 1.363 . S
C590 C595 1.379 . S
C590 N597 1.356 . S
C591 C590 1.363 . S
C591 C594 1.363 . S
N592 C594 1.356 . S
N592 H604 0.984 . S
N592 H605 0.985 . S
N593 C595 1.356 . S
N593 H598 0.984 . S
N593 H599 0.985 . S
C594 C588 1.379 . S
C594 C591 1.363 . S
C594 N592 1.356 . S
C595 C589 1.363 . S
C595 C590 1.379 . S
C595 N593 1.356 . S
N596 C588 1.356 . S
N596 H602 0.984 . S
N596 H603 0.984 . S
N597 C590 1.356 . S
N597 H600 0.984 . S
N597 H601 0.985 . S
H598 N593 0.984 . S
H599 N593 0.985 . S
H600 N597 0.984 . S
H601 N597 0.985 . S
H602 N596 0.984 . S
H603 N596 0.984 . S
H604 N592 0.984 . S
H605 N592 0.985 . S
C606 C607 1.363 . S
C606 C612 1.379 . S
C606 N614 1.356 . S
C607 C606 1.363 . S
C607 C613 1.363 . S
C608 C609 1.363 . S
C608 C613 1.379 . S
C608 N615 1.356 . S
C609 C608 1.363 . S
C609 C612 1.363 . S
N610 C612 1.356 . S
N610 H622 0.984 . S
N610 H623 0.985 . S
N611 C613 1.356 . S
N611 H616 0.984 . S
N611 H617 0.985 . S
C612 C606 1.379 . S
C612 C609 1.363 . S
C612 N610 1.356 . S
C613 C607 1.363 . S
C613 C608 1.379 . S
C613 N611 1.356 . S
N614 C606 1.356 . S
N614 H620 0.984 . S
N614 H621 0.984 . S
N615 C608 1.356 . S
N615 H618 0.984 . S
N615 H619 0.985 . S
H616 N611 0.984 . S
H617 N611 0.985 . S
H618 N615 0.984 . S
H619 N615 0.985 . S
H620 N614 0.984 . S
H621 N614 0.984 . S
H622 N610 0.984 . S
H623 N610 0.985 . S
C624 C625 1.363 . S
C624 C630 1.379 . S
C624 N632 1.356 . S
C625 C624 1.363 . S
C625 C631 1.363 . S
C626 C627 1.363 . S
C626 C631 1.379 . S
C626 N633 1.356 . S
C627 C626 1.363 . S
C627 C630 1.363 . S
N628 C630 1.356 . S
N628 H640 0.984 . S
N628 H641 0.985 . S
N629 C631 1.356 . S
N629 H634 0.984 . S
N629 H635 0.985 . S
C630 C624 1.379 . S
C630 C627 1.363 . S
C630 N628 1.356 . S
C631 C625 1.363 . S
C631 C626 1.379 . S
C631 N629 1.356 . S
N632 C624 1.356 . S
N632 H638 0.984 . S
N632 H639 0.984 . S
N633 C626 1.356 . S
N633 H636 0.984 . S
N633 H637 0.985 . S
H634 N629 0.984 . S
H635 N629 0.985 . S
H636 N633 0.984 . S
H637 N633 0.985 . S
H638 N632 0.984 . S
H639 N632 0.984 . S
H640 N628 0.984 . S
H641 N628 0.985 . S
C642 C643 1.363 . S
C642 C648 1.379 . S
C642 N650 1.356 . S
C643 C642 1.363 . S
C643 C649 1.363 . S
C644 C645 1.363 . S
C644 C649 1.379 . S
C644 N651 1.356 . S
C645 C644 1.363 . S
C645 C648 1.363 . S
N646 C648 1.356 . S
N646 H658 0.984 . S
N646 H659 0.985 . S
N647 C649 1.356 . S
N647 H652 0.984 . S
N647 H653 0.985 . S
C648 C642 1.379 . S
C648 C645 1.363 . S
C648 N646 1.356 . S
C649 C643 1.363 . S
C649 C644 1.379 . S
C649 N647 1.356 . S
N650 C642 1.356 . S
N650 H656 0.984 . S
N650 H657 0.984 . S
N651 C644 1.356 . S
N651 H654 0.984 . S
N651 H655 0.985 . S
H652 N647 0.984 . S
H653 N647 0.985 . S
H654 N651 0.984 . S
H655 N651 0.985 . S
H656 N650 0.984 . S
H657 N650 0.984 . S
H658 N646 0.984 . S
H659 N646 0.985 . S
C660 C661 1.363 . S
C660 C666 1.379 . S
C660 N668 1.356 . S
C661 C660 1.363 . S
C661 C667 1.363 . S
C662 C663 1.363 . S
C662 C667 1.379 . S
C662 N669 1.356 . S
C663 C662 1.363 . S
C663 C666 1.363 . S
N664 C666 1.356 . S
N664 H676 0.984 . S
N664 H677 0.985 . S
N665 C667 1.356 . S
N665 H670 0.984 . S
N665 H671 0.985 . S
C666 C660 1.379 . S
C666 C663 1.363 . S
C666 N664 1.356 . S
C667 C661 1.363 . S
C667 C662 1.379 . S
C667 N665 1.356 . S
N668 C660 1.356 . S
N668 H674 0.984 . S
N668 H675 0.984 . S
N669 C662 1.356 . S
N669 H672 0.984 . S
N669 H673 0.985 . S
H670 N665 0.984 . S
H671 N665 0.985 . S
H672 N669 0.984 . S
H673 N669 0.985 . S
H674 N668 0.984 . S
H675 N668 0.984 . S
H676 N664 0.984 . S
H677 N664 0.985 . S
C678 C679 1.363 . S
C678 C684 1.379 . S
C678 N686 1.356 . S
C679 C678 1.363 . S
C679 C685 1.363 . S
C680 C681 1.363 . S
C680 C685 1.379 . S
C680 N687 1.356 . S
C681 C680 1.363 . S
C681 C684 1.363 . S
N682 C684 1.356 . S
N682 H694 0.984 . S
N682 H695 0.985 . S
N683 C685 1.356 . S
N683 H688 0.984 . S
N683 H689 0.985 . S
C684 C678 1.379 . S
C684 C681 1.363 . S
C684 N682 1.356 . S
C685 C679 1.363 . S
C685 C680 1.379 . S
C685 N683 1.356 . S
N686 C678 1.356 . S
N686 H692 0.984 . S
N686 H693 0.984 . S
N687 C680 1.356 . S
N687 H690 0.984 . S
N687 H691 0.985 . S
H688 N683 0.984 . S
H689 N683 0.985 . S
H690 N687 0.984 . S
H691 N687 0.985 . S
H692 N686 0.984 . S
H693 N686 0.984 . S
H694 N682 0.984 . S
H695 N682 0.985 . S
C696 C697 1.363 . S
C696 C702 1.379 . S
C696 N704 1.356 . S
C697 C696 1.363 . S
C697 C703 1.363 . S
C698 C699 1.363 . S
C698 C703 1.379 . S
C698 N705 1.356 . S
C699 C698 1.363 . S
C699 C702 1.363 . S
N700 C702 1.356 . S
N700 H712 0.984 . S
N700 H713 0.985 . S
N701 C703 1.356 . S
N701 H706 0.984 . S
N701 H707 0.985 . S
C702 C696 1.379 . S
C702 C699 1.363 . S
C702 N700 1.356 . S
C703 C697 1.363 . S
C703 C698 1.379 . S
C703 N701 1.356 . S
N704 C696 1.356 . S
N704 H710 0.984 . S
N704 H711 0.984 . S
N705 C698 1.356 . S
N705 H708 0.984 . S
N705 H709 0.985 . S
H706 N701 0.984 . S
H707 N701 0.985 . S
H708 N705 0.984 . S
H709 N705 0.985 . S
H710 N704 0.984 . S
H711 N704 0.984 . S
H712 N700 0.984 . S
H713 N700 0.985 . S
C714 C715 1.363 . S
C714 C720 1.379 . S
C714 N722 1.356 . S
C715 C714 1.363 . S
C715 C721 1.363 . S
C716 C717 1.363 . S
C716 C721 1.379 . S
C716 N723 1.356 . S
C717 C716 1.363 . S
C717 C720 1.363 . S
N718 C720 1.356 . S
N718 H730 0.984 . S
N718 H731 0.985 . S
N719 C721 1.356 . S
N719 H724 0.984 . S
N719 H725 0.985 . S
C720 C714 1.379 . S
C720 C717 1.363 . S
C720 N718 1.356 . S
C721 C715 1.363 . S
C721 C716 1.379 . S
C721 N719 1.356 . S
N722 C714 1.356 . S
N722 H728 0.984 . S
N722 H729 0.984 . S
N723 C716 1.356 . S
N723 H726 0.984 . S
N723 H727 0.985 . S
H724 N719 0.984 . S
H725 N719 0.985 . S
H726 N723 0.984 . S
H727 N723 0.985 . S
H728 N722 0.984 . S
H729 N722 0.984 . S
H730 N718 0.984 . S
H731 N718 0.985 . S
C732 C733 1.363 . S
C732 C738 1.379 . S
C732 N740 1.356 . S
C733 C732 1.363 . S
C733 C739 1.363 . S
C734 C735 1.363 . S
C734 C739 1.379 . S
C734 N741 1.356 . S
C735 C734 1.363 . S
C735 C738 1.363 . S
N736 C738 1.356 . S
N736 H748 0.984 . S
N736 H749 0.985 . S
N737 C739 1.356 . S
N737 H742 0.984 . S
N737 H743 0.985 . S
C738 C732 1.379 . S
C738 C735 1.363 . S
C738 N736 1.356 . S
C739 C733 1.363 . S
C739 C734 1.379 . S
C739 N737 1.356 . S
N740 C732 1.356 . S
N740 H746 0.984 . S
N740 H747 0.984 . S
N741 C734 1.356 . S
N741 H744 0.984 . S
N741 H745 0.985 . S
H742 N737 0.984 . S
H743 N737 0.985 . S
H744 N741 0.984 . S
H745 N741 0.985 . S
H746 N740 0.984 . S
H747 N740 0.984 . S
H748 N736 0.984 . S
H749 N736 0.985 . S
C750 C751 1.363 . S
C750 C756 1.379 . S
C750 N758 1.356 . S
C751 C750 1.363 . S
C751 C757 1.363 . S
C752 C753 1.363 . S
C752 C757 1.379 . S
C752 N759 1.356 . S
C753 C752 1.363 . S
C753 C756 1.363 . S
N754 C756 1.356 . S
N754 H766 0.984 . S
N754 H767 0.985 . S
N755 C757 1.356 . S
N755 H760 0.984 . S
N755 H761 0.985 . S
C756 C750 1.379 . S
C756 C753 1.363 . S
C756 N754 1.356 . S
C757 C751 1.363 . S
C757 C752 1.379 . S
C757 N755 1.356 . S
N758 C750 1.356 . S
N758 H764 0.984 . S
N758 H765 0.984 . S
N759 C752 1.356 . S
N759 H762 0.984 . S
N759 H763 0.985 . S
H760 N755 0.984 . S
H761 N755 0.985 . S
H762 N759 0.984 . S
H763 N759 0.985 . S
H764 N758 0.984 . S
H765 N758 0.984 . S
H766 N754 0.984 . S
H767 N754 0.985 . S
C768 C769 1.363 . S
C768 C774 1.379 . S
C768 N776 1.356 . S
C769 C768 1.363 . S
C769 C775 1.363 . S
C770 C771 1.363 . S
C770 C775 1.379 . S
C770 N777 1.356 . S
C771 C770 1.363 . S
C771 C774 1.363 . S
N772 C774 1.356 . S
N772 H784 0.984 . S
N772 H785 0.985 . S
N773 C775 1.356 . S
N773 H778 0.984 . S
N773 H779 0.985 . S
C774 C768 1.379 . S
C774 C771 1.363 . S
C774 N772 1.356 . S
C775 C769 1.363 . S
C775 C770 1.379 . S
C775 N773 1.356 . S
N776 C768 1.356 . S
N776 H782 0.984 . S
N776 H783 0.984 . S
N777 C770 1.356 . S
N777 H780 0.984 . S
N777 H781 0.985 . S
H778 N773 0.984 . S
H779 N773 0.985 . S
H780 N777 0.984 . S
H781 N777 0.985 . S
H782 N776 0.984 . S
H783 N776 0.984 . S
H784 N772 0.984 . S
H785 N772 0.985 . S
C786 C787 1.363 . S
C786 C792 1.379 . S
C786 N794 1.356 . S
C787 C786 1.363 . S
C787 C793 1.363 . S
C788 C789 1.363 . S
C788 C793 1.379 . S
C788 N795 1.356 . S
C789 C788 1.363 . S
C789 C792 1.363 . S
N790 C792 1.356 . S
N790 H802 0.984 . S
N790 H803 0.985 . S
N791 C793 1.356 . S
N791 H796 0.984 . S
N791 H797 0.985 . S
C792 C786 1.379 . S
C792 C789 1.363 . S
C792 N790 1.356 . S
C793 C787 1.363 . S
C793 C788 1.379 . S
C793 N791 1.356 . S
N794 C786 1.356 . S
N794 H800 0.984 1_554 S
N794 H801 0.984 . S
N795 C788 1.356 . S
N795 H798 0.984 . S
N795 H799 0.985 . S
H796 N791 0.984 . S
H797 N791 0.985 . S
H798 N795 0.984 . S
H799 N795 0.985 . S
H800 N794 0.984 1_556 S
H801 N794 0.984 . S
H802 N790 0.984 . S
H803 N790 0.985 . S
C804 C805 1.363 . S
C804 C810 1.379 . S
C804 N812 1.356 . S
C805 C804 1.363 . S
C805 C811 1.363 . S
C806 C807 1.363 . S
C806 C811 1.379 . S
C806 N813 1.356 . S
C807 C806 1.363 . S
C807 C810 1.363 . S
N808 C810 1.356 . S
N808 H820 0.984 . S
N808 H821 0.985 . S
N809 C811 1.356 . S
N809 H814 0.984 . S
N809 H815 0.985 . S
C810 C804 1.379 . S
C810 C807 1.363 . S
C810 N808 1.356 . S
C811 C805 1.363 . S
C811 C806 1.379 . S
C811 N809 1.356 . S
N812 C804 1.356 . S
N812 H818 0.984 . S
N812 H819 0.984 . S
N813 C806 1.356 . S
N813 H816 0.984 . S
N813 H817 0.985 . S
H814 N809 0.984 . S
H815 N809 0.985 . S
H816 N813 0.984 . S
H817 N813 0.985 . S
H818 N812 0.984 . S
H819 N812 0.984 . S
H820 N808 0.984 . S
H821 N808 0.985 . S
C822 C823 1.363 . S
C822 C828 1.379 . S
C822 N830 1.356 . S
C823 C822 1.363 . S
C823 C829 1.363 . S
C824 C825 1.363 . S
C824 C829 1.379 . S
C824 N831 1.356 . S
C825 C824 1.363 . S
C825 C828 1.363 . S
N826 C828 1.356 . S
N826 H838 0.984 . S
N826 H839 0.985 . S
N827 C829 1.356 . S
N827 H832 0.984 . S
N827 H833 0.985 . S
C828 C822 1.379 . S
C828 C825 1.363 . S
C828 N826 1.356 . S
C829 C823 1.363 . S
C829 C824 1.379 . S
C829 N827 1.356 . S
N830 C822 1.356 . S
N830 H836 0.984 . S
N830 H837 0.984 . S
N831 C824 1.356 . S
N831 H834 0.984 . S
N831 H835 0.985 . S
H832 N827 0.984 . S
H833 N827 0.985 . S
H834 N831 0.984 . S
H835 N831 0.985 . S
H836 N830 0.984 . S
H837 N830 0.984 . S
H838 N826 0.984 . S
H839 N826 0.985 . S
C840 C841 1.363 . S
C840 C846 1.379 . S
C840 N848 1.356 . S
C841 C840 1.363 . S
C841 C847 1.363 . S
C842 C843 1.363 . S
C842 C847 1.379 . S
C842 N849 1.356 . S
C843 C842 1.363 . S
C843 C846 1.363 . S
N844 C846 1.356 . S
N844 H856 0.984 . S
N844 H857 0.985 . S
N845 C847 1.356 . S
N845 H850 0.984 . S
N845 H851 0.985 . S
C846 C840 1.379 . S
C846 C843 1.363 . S
C846 N844 1.356 . S
C847 C841 1.363 . S
C847 C842 1.379 . S
C847 N845 1.356 . S
N848 C840 1.356 . S
N848 H854 0.984 . S
N848 H855 0.984 . S
N849 C842 1.356 . S
N849 H852 0.984 . S
N849 H853 0.985 . S
H850 N845 0.984 . S
H851 N845 0.985 . S
H852 N849 0.984 . S
H853 N849 0.985 . S
H854 N848 0.984 . S
H855 N848 0.984 . S
H856 N844 0.984 . S
H857 N844 0.985 . S
C858 C859 1.363 . S
C858 C864 1.379 . S
C858 N866 1.356 . S
C859 C858 1.363 . S
C859 C865 1.363 . S
C860 C861 1.363 . S
C860 C865 1.379 . S
C860 N867 1.356 . S
C861 C860 1.363 . S
C861 C864 1.363 . S
N862 C864 1.356 . S
N862 H874 0.984 . S
N862 H875 0.985 . S
N863 C865 1.356 . S
N863 H868 0.984 . S
N863 H869 0.985 . S
C864 C858 1.379 . S
C864 C861 1.363 . S
C864 N862 1.356 . S
C865 C859 1.363 . S
C865 C860 1.379 . S
C865 N863 1.356 . S
N866 C858 1.356 . S
N866 H872 0.984 . S
N866 H873 0.984 . S
N867 C860 1.356 . S
N867 H870 0.984 . S
N867 H871 0.985 . S
H868 N863 0.984 . S
H869 N863 0.985 . S
H870 N867 0.984 . S
H871 N867 0.985 . S
H872 N866 0.984 . S
H873 N866 0.984 . S
H874 N862 0.984 . S
H875 N862 0.985 . S
C445 C39 1.673 . S
C447 C327 1.479 . S
C463 C91 1.650 . S
C465 C348 1.507 . S
C483 C369 1.360 . S
C481 C128 1.485 . S
C501 C398 1.444 . S
C499 C188 1.484 . S
C519 C411 1.423 . S
C517 C250 1.523 . S
C537 C435 1.576 . S
C535 C304 1.670 . S
C553 C75 1.557 . S
C555 C379 1.397 . S
C571 C144 1.708 . S
C573 C393 1.580 . S
C591 C421 1.455 . S
C589 C198 1.597 . S
C609 C440 1.448 . S
C607 C234 1.515 . S
C625 C294 1.421 . S
C627 C337 1.344 . S
C645 C358 1.400 . S
C643 C29 1.493 . S
C663 C400 1.588 . S
C661 C38 1.695 . S
C679 C92 1.683 . S
C681 C414 1.497 . S
C699 C432 1.474 . S
C697 C135 1.519 . S
C715 C181 1.505 . S
C717 C330 1.369 . S
C733 C251 1.554 . S
C735 C351 1.412 . S
C751 C303 1.708 . S
C753 C372 1.475 . S
C769 C82 1.588 . S
C771 C442 1.497 . S
C789 C335 1.517 . S
C787 C145 1.736 . S
C805 C197 1.632 . S
C807 C356 1.445 . S
C823 C241 1.549 . S
C825 C377 1.383 . S
C841 C287 1.451 . S
C843 C390 1.421 . S
C859 C22 1.525 . S
C861 C419 1.394 . S
