# Generated by pormake.
# Topology anh, (6,3)-cn, num edge types: 1
# Building blocks:
#     Node 0, Type 0, BuildingBlock: PAMTUU_clean_sbu_0, # of connection points: 6
#     Node 1, Type 0, BuildingBlock: PAMTUU_clean_sbu_0, # of connection points: 6
#     Node 2, Type 0, BuildingBlock: PAMTUU_clean_sbu_0, # of connection points: 6
#     Node 3, Type 1, BuildingBlock: CUQRIR_clean_linker_1, # of connection points: 3
#     Node 4, Type 1, BuildingBlock: CUQRIR_clean_linker_1, # of connection points: 3
#     Node 5, Type 1, BuildingBlock: CUQRIR_clean_linker_1, # of connection points: 3
#     Node 6, Type 1, BuildingBlock: CUQRIR_clean_linker_1, # of connection points: 3
#     Node 7, Type 1, BuildingBlock: CUQRIR_clean_linker_1, # of connection points: 3
#     Node 8, Type 1, BuildingBlock: CUQRIR_clean_linker_1, # of connection points: 3
#     Edge 9, Type (0, 1), BuildingBlock: EZIPEK_clean_linker_0, # of connection points: 2
#     Edge 10, Type (0, 1), BuildingBlock: EZIPEK_clean_linker_0, # of connection points: 2
#     Edge 11, Type (0, 1), BuildingBlock: EZIPEK_clean_linker_0, # of connection points: 2
#     Edge 12, Type (0, 1), BuildingBlock: EZIPEK_clean_linker_0, # of connection points: 2
#     Edge 13, Type (0, 1), BuildingBlock: EZIPEK_clean_linker_0, # of connection points: 2
#     Edge 14, Type (0, 1), BuildingBlock: EZIPEK_clean_linker_0, # of connection points: 2
#     Edge 15, Type (0, 1), BuildingBlock: EZIPEK_clean_linker_0, # of connection points: 2
#     Edge 16, Type (0, 1), BuildingBlock: EZIPEK_clean_linker_0, # of connection points: 2
#     Edge 17, Type (0, 1), BuildingBlock: EZIPEK_clean_linker_0, # of connection points: 2
#     Edge 18, Type (0, 1), BuildingBlock: EZIPEK_clean_linker_0, # of connection points: 2
#     Edge 19, Type (0, 1), BuildingBlock: EZIPEK_clean_linker_0, # of connection points: 2
#     Edge 20, Type (0, 1), BuildingBlock: EZIPEK_clean_linker_0, # of connection points: 2
#     Edge 21, Type (0, 1), BuildingBlock: EZIPEK_clean_linker_0, # of connection points: 2
#     Edge 22, Type (0, 1), BuildingBlock: EZIPEK_clean_linker_0, # of connection points: 2
#     Edge 23, Type (0, 1), BuildingBlock: EZIPEK_clean_linker_0, # of connection points: 2
#     Edge 24, Type (0, 1), BuildingBlock: EZIPEK_clean_linker_0, # of connection points: 2
#     Edge 25, Type (0, 1), BuildingBlock: EZIPEK_clean_linker_0, # of connection points: 2
#     Edge 26, Type (0, 1), BuildingBlock: EZIPEK_clean_linker_0, # of connection points: 2
# Relax obj value: 0.481
# Max RMSD: 0.230
# Mean RMSD: 0.176
data_MOF--net-anh--node1-PAMTUU_clean_sbu_0--node2-CUQRIR_clean_linker_1--edge1-EZIPEK_clean_linker_0
_symmetry_space_group_name_H-M    P1
_symmetry_Int_Tables_number       1
_symmetry_cell_setting            triclinic
loop_
_symmetry_equiv_pos_as_xyz
'x, y, z'
_cell_length_a     19.605776
_cell_length_b     19.512213
_cell_length_c     33.62587
_cell_angle_alpha  88.33005
_cell_angle_beta   91.291599
_cell_angle_gamma 119.41667
loop_
_atom_site_label
_atom_site_type_symbol
_atom_site_fract_x
_atom_site_fract_y
_atom_site_fract_z
_atom_type_partial_charge
Tb0 Tb 1.20845 0.70387 0.15062 0.0
Tb1 Tb 0.29059 0.61242 0.18807 0.0
C2 C 0.27573 0.62873 0.09714 0.0
C3 C 1.11088 0.7509 0.06916 0.0
C4 C 0.9961 0.70781 0.0093 0.0
C5 C 1.05994 0.78506 0.01026 0.0
C6 C 1.1163 0.80677 0.04053 0.0
C7 C 1.05555 0.67166 0.06436 0.0
C8 C 0.99848 0.65013 0.0348 0.0
C9 C 1.16073 0.77525 0.10468 0.0
O10 O 1.10492 0.59239 0.1739 0.0
O11 O 1.16646 0.51894 0.17965 0.0
O12 O 0.247 0.65064 0.23746 0.0
O13 O 0.21349 0.73981 0.21023 0.0
O14 O 0.31591 0.51946 0.18669 0.0
O15 O 0.33873 0.58893 0.23927 0.0
O16 O 0.39457 0.73142 0.18359 0.0
O17 O 0.33041 0.79926 0.16651 0.0
O18 O 1.20996 0.6229 0.10821 0.0
O19 O 0.32728 0.63815 0.12509 0.0
C20 C 1.1011 0.52301 0.18128 0.0
O21 O 1.12644 0.74101 0.13815 0.0
O22 O 0.22803 0.77803 0.10084 0.0
C23 C 0.22609 0.70479 0.2407 0.0
C24 C 0.41215 0.52536 0.23234 0.0
C25 C 0.54513 0.50885 0.24764 0.0
C26 C 0.47413 0.4588 0.26676 0.0
C27 C 0.40806 0.46692 0.25903 0.0
C28 C 0.48352 0.57885 0.21533 0.0
C29 C 0.54939 0.57097 0.223 0.0
C30 C 0.34156 0.53035 0.22344 0.0
C31 C 0.39641 0.79959 0.1772 0.0
H32 H 1.06281 0.83039 0.9901 0.0
H33 H 1.16126 0.86784 0.04291 0.0
H34 H 1.05298 0.62722 0.08525 0.0
H35 H 0.95195 0.58951 0.03496 0.0
H36 H 0.46877 0.41258 0.28707 0.0
H37 H 0.35331 0.4266 0.27334 0.0
H38 H 0.48781 0.62535 0.19532 0.0
H39 H 0.60261 0.61158 0.2077 0.0
Tb40 Tb 0.6926 0.15789 0.50109 0.0
Tb41 Tb 0.87899 0.24072 0.51243 0.0
C42 C 0.80243 0.21563 0.42596 0.0
C43 C 0.478 1.04882 0.51754 0.0
C44 C 0.34456 0.9327 0.55729 0.0
C45 C 0.33741 0.97084 0.52233 0.0
C46 C 0.40352 1.02781 0.50258 0.0
C47 C 0.48604 1.01815 0.55447 0.0
C48 C 0.41968 0.96105 0.57444 0.0
C49 C 0.54634 1.10071 0.49362 0.0
O50 O 0.70947 1.05725 0.52186 0.0
O51 O 0.84034 1.11263 0.50958 0.0
O52 O 0.84132 0.21448 0.57344 0.0
O53 O 0.70789 0.16466 0.56517 0.0
O54 O 0.97701 0.22466 0.52019 0.0
O55 O 0.99086 0.3406 0.51337 0.0
O56 O 0.85011 0.33275 0.53048 0.0
O57 O 0.73597 0.28683 0.49532 0.0
O58 O 0.73488 0.16319 0.44085 0.0
O59 O 0.86242 0.25876 0.44904 0.0
C60 C 0.7734 1.0504 0.52019 0.0
O61 O 0.59273 0.1688 0.50882 0.0
O62 O 0.58508 1.06894 0.479 0.0
C63 C 0.77051 0.18594 0.58754 0.0
C64 C 1.07394 0.31402 0.47696 0.0
C65 C 1.13399 0.3845 0.4028 0.0
C66 C 1.17735 0.41671 0.43824 0.0
C67 C 1.14654 0.3823 0.47512 0.0
C68 C 1.03926 0.27328 0.44186 0.0
C69 C 1.06959 0.30802 0.4049 0.0
C70 C 1.02541 0.2983 0.51216 0.0
C71 C 0.79272 0.3438 0.516 0.0
H72 H 0.28124 0.95233 0.50803 0.0
H73 H 0.39647 1.05243 0.47449 0.0
H74 H 0.54361 1.03576 0.56695 0.0
H75 H 0.42804 0.93623 0.60199 0.0
H76 H 0.22943 0.47392 0.43844 0.0
H77 H 1.1748 0.41391 0.50193 0.0
H78 H 0.9839 0.21904 0.44281 0.0
H79 H 1.03717 0.27893 0.37842 0.0
Tb80 Tb 0.66814 0.6051 0.83938 0.0
Tb81 Tb 0.76465 0.79038 0.85424 0.0
C82 C 0.73407 0.73132 0.76556 0.0
C83 C 0.583 0.39165 0.85352 0.0
C84 C 0.60062 0.27235 0.89303 0.0
C85 C 0.56893 0.2617 0.85413 0.0
C86 C 0.56034 0.32091 0.83457 0.0
C87 C 0.60737 0.39986 0.89355 0.0
C88 C 0.61442 0.33979 0.91348 0.0
C89 C 0.58804 0.45856 0.83029 0.0
O90 O 0.78433 0.61928 0.85728 0.0
O91 O 0.85431 0.75218 0.84833 0.0
O92 O 0.69937 0.73463 0.90806 0.0
O93 O 0.69381 0.61677 0.90251 0.0
O94 O 0.85564 0.86873 0.8915 0.0
O95 O 0.8006 0.91031 0.84807 0.0
O96 O 0.64281 0.7716 0.85292 0.0
O97 O 0.57518 0.63658 0.85049 0.0
O98 O 0.69556 0.65794 0.77901 0.0
O99 O 0.76354 0.79152 0.78943 0.0
C100 C 0.85286 0.6845 0.85557 0.0
O101 O 0.5625 0.50004 0.84771 0.0
O102 O 0.6548 0.50296 0.81284 0.0
C103 C 0.68684 0.66778 0.92392 0.0
C104 C 0.9363 0.9822 0.85348 0.0
C105 C 1.01768 1.08419 0.79078 0.0
C106 C 1.00378 1.00616 0.7909 0.0
C107 C 0.96064 0.95452 0.82174 0.0
C108 C 0.97157 1.06313 0.85905 0.0
C109 C 1.01392 1.11465 0.82796 0.0
C110 C 0.86058 0.92967 0.87197 0.0
C111 C 0.57549 0.70416 0.85456 0.0
H112 H 0.55679 0.21029 0.83745 0.0
H113 H 0.54081 0.31337 0.8038 0.0
H114 H 0.62496 0.45419 0.90876 0.0
H115 H 0.63493 0.3484 0.94398 0.0
H116 H 1.01294 0.98153 0.76451 0.0
H117 H 0.93737 0.89212 0.81791 0.0
H118 H 0.95679 1.0859 0.8845 0.0
H119 H 1.0303 0.1759 0.83104 0.0
C120 C 0.75521 0.16275 0.19438 0.0
N121 N 0.80653 0.21821 0.221 0.0
N122 N 0.689 1.10332 0.21247 0.0
C123 C 0.77122 0.16452 0.1509 0.0
C124 C 0.70205 1.12534 0.25099 0.0
N125 N 0.77258 0.19161 0.25669 0.0
C126 C 0.64495 1.08069 0.28386 0.0
H127 H 0.74514 0.19625 0.13442 0.0
H128 H 0.74394 1.1038 0.13949 0.0
H129 H 0.83518 0.19568 0.14538 0.0
H130 H 0.58386 1.05121 0.27231 0.0
H131 H 0.65023 1.12042 0.3081 0.0
H132 H 0.65746 1.03481 0.29648 0.0
C133 C 0.78321 0.69966 0.53565 0.0
N134 N 0.77671 0.74973 0.56176 0.0
N135 N 0.77956 0.63422 0.5545 0.0
C136 C 0.79341 0.71443 0.49165 0.0
C137 C 0.77067 0.64649 0.59306 0.0
N138 N 0.77042 0.71568 0.5979 0.0
C139 C 0.76489 0.59116 0.62675 0.0
H140 H 0.73523 0.68277 0.47686 0.0
H141 H 0.83059 0.69133 0.48006 0.0
H142 H 0.8198 0.77816 0.48429 0.0
H143 H 0.82487 0.60663 0.63695 0.0
H144 H 0.73541 0.52931 0.61701 0.0
H145 H 0.73251 0.59557 0.65228 0.0
C146 C 0.21628 0.6907 0.8709 0.0
N147 N 0.27072 0.68508 0.89563 0.0
N148 N 1.15 0.67716 0.89082 0.0
C149 C 0.22832 0.7112 0.8274 0.0
C150 C 1.16672 0.66317 0.92862 0.0
N151 N 0.23887 0.66904 0.93199 0.0
C152 C 1.11305 0.64581 0.96311 0.0
H153 H 0.29162 0.74586 0.82048 0.0
H154 H 1.19837 0.74476 0.81795 0.0
H155 H 1.20228 0.65604 0.81036 0.0
H156 H 1.11658 0.60289 0.98423 0.0
H157 H 1.05167 0.62237 0.95299 0.0
H158 H 1.13203 0.7012 0.9791 0.0
C159 C 1.15429 0.64277 0.45664 0.0
N160 N 1.15906 0.64247 0.41667 0.0
N161 N 1.17797 0.71661 0.46908 0.0
C162 C 1.13229 0.5722 0.4835 0.0
C163 C 1.19462 0.7605 0.43497 0.0
N164 N 1.18424 0.71547 0.40321 0.0
C165 C 0.22558 0.84791 0.43307 0.0
H166 H 1.07906 0.52061 0.47176 0.0
H167 H 1.12177 0.5835 0.5143 0.0
H168 H 1.18007 0.55728 0.48383 0.0
H169 H 0.28353 0.87781 0.4482 0.0
H170 H 1.1858 0.86264 0.44906 0.0
H171 H 0.2317 0.87039 0.40194 0.0
C172 C 0.7847 1.12695 0.8147 0.0
N173 N 0.80035 1.13072 0.77552 0.0
N174 N 0.72595 0.14276 0.82059 0.0
C175 C 0.82934 1.11198 0.84721 0.0
C176 C 0.70565 0.15547 0.78356 0.0
N177 N 0.75079 0.14801 0.75623 0.0
C178 C 0.6461 0.18115 0.77461 0.0
H179 H 0.79982 1.10122 0.87631 0.0
H180 H 0.88913 0.16334 0.84938 0.0
H181 H 0.8345 1.06007 0.83943 0.0
H182 H 0.66629 0.23964 0.78772 0.0
H183 H 0.58981 1.13893 0.78874 0.0
H184 H 0.63659 0.1849 0.74216 0.0
C185 C 0.75148 0.54791 0.11016 0.0
N186 N 0.73625 0.57011 0.07425 0.0
N187 N 0.69031 0.52657 0.13475 0.0
C188 C 0.82782 0.552 0.1215 0.0
C189 C 0.63674 0.53526 0.11199 0.0
N190 N 0.66534 0.56249 0.07538 0.0
C191 C 0.55874 0.52185 0.12586 0.0
H192 H 0.82508 0.52482 0.15127 0.0
H193 H 0.87495 0.61442 0.12148 0.0
H194 H 0.8431 0.52212 0.09862 0.0
H195 H 0.51594 0.50269 0.10082 0.0
H196 H 0.56563 0.57804 0.13664 0.0
H197 H 0.53545 0.47739 0.15037 0.0
C198 C 0.68571 0.55686 0.24272 0.0
C199 C 0.61107 0.49096 0.24775 0.0
C200 C 0.63038 0.43188 0.18977 0.0
C201 C 0.68524 0.50866 0.17668 0.0
N202 N 0.77776 0.64314 0.19306 0.0
N203 N 0.54841 0.35049 0.24437 0.0
C204 C 0.7199 0.57038 0.2045 0.0
C205 C 0.59589 0.42246 0.22758 0.0
N206 N 0.71579 0.61058 0.27211 0.0
N207 N 0.60756 0.37065 0.16466 0.0
H208 H 0.52758 0.34506 0.27321 0.0
H209 H 0.53679 0.29776 0.23167 0.0
H210 H 0.63431 0.37824 0.13713 0.0
H211 H 0.56223 0.31399 0.17075 0.0
H212 H 0.77145 0.65983 0.27113 0.0
H213 H 0.6855 0.60092 0.29872 0.0
H214 H 0.79955 0.69215 0.21104 0.0
H215 H 0.80206 0.65501 0.16483 0.0
C216 C 0.21303 0.50717 0.36532 0.0
C217 C 1.14001 0.43871 0.36893 0.0
C218 C 1.07844 0.51684 0.38241 0.0
C219 C 1.15306 0.57881 0.39347 0.0
N220 N 0.29369 0.63488 0.39412 0.0
N221 N 1.00845 0.39482 0.34633 0.0
C222 C 0.22178 0.57651 0.3828 0.0
C223 C 1.07414 0.44948 0.36514 0.0
N224 N 0.27439 0.50146 0.35113 0.0
N225 N 1.01247 0.52005 0.39095 0.0
H226 H 1.00684 0.34634 0.33308 0.0
H227 H 0.96023 0.40256 0.34046 0.0
H228 H 1.01471 0.56816 0.40491 0.0
H229 H 0.95624 0.47296 0.38662 0.0
H230 H 0.3296 0.55001 0.34641 0.0
H231 H 0.26636 0.44762 0.3413 0.0
H232 H 0.3453 0.63339 0.38956 0.0
H233 H 0.30042 0.68116 0.41143 0.0
C234 C 1.01087 0.19402 0.75624 0.0
C235 C 1.00113 1.1179 0.75326 0.0
C236 C 0.8622 1.06372 0.74196 0.0
C237 C 0.86803 1.13208 0.75874 0.0
N238 N 0.94497 0.26661 0.77574 0.0
N239 N 0.9342 1.01099 0.70828 0.0
C240 C 0.94236 0.20027 0.76253 0.0
C241 C 0.93241 1.06382 0.73312 0.0
N242 N 1.0848 0.25617 0.75815 0.0
N243 N 0.79149 0.99754 0.73797 0.0
H244 H 0.98704 1.01299 0.70186 0.0
H245 H 0.88538 0.97157 0.69191 0.0
H246 H 0.74002 0.99482 0.74746 0.0
H247 H 0.78572 0.94441 0.72865 0.0
H248 H 1.09762 0.31456 0.75925 0.0
H249 H 1.1331 0.24745 0.75597 0.0
H250 H 0.99642 0.31848 0.78201 0.0
H251 H 0.99642 0.31848 0.78201 0.0
C252 C 0.86386 0.61416 0.98477 0.0
C253 C 0.91845 0.69312 0.9935 0.0
C254 C 0.83698 0.69536 0.045 0.0
C255 C 0.79222 0.61237 0.0436 0.0
N256 N 0.74893 0.49345 0.00729 0.0
N257 N 0.91877 0.81351 0.00647 0.0
C258 C 0.79965 0.57187 0.01108 0.0
C259 C 0.89037 0.73544 0.01424 0.0
N260 N 0.88069 0.57892 0.95517 0.0
N261 N 0.83134 0.73503 0.07629 0.0
H262 H 0.95601 0.84178 0.9826 0.0
H263 H 0.89873 0.84673 0.02088 0.0
H264 H 0.79365 0.70646 0.09995 0.0
H265 H 0.86793 0.79532 0.07973 0.0
H266 H 0.84614 0.52035 0.94743 0.0
H267 H 0.93054 0.61117 0.93796 0.0
H268 H 0.75007 0.46012 0.98402 0.0
H269 H 0.70458 0.46188 0.02783 0.0
C270 C 0.29543 0.79191 0.56275 0.0
C271 C 0.2786 0.85299 0.56846 0.0
C272 C 1.16281 0.78436 0.52636 0.0
C273 C 1.20051 0.74678 0.5086 0.0
N274 N 0.30647 0.71579 0.51105 0.0
N275 N 1.17478 0.88211 0.57421 0.0
C276 C 0.26661 0.74833 0.52776 0.0
C277 C 1.20252 0.8378 0.55775 0.0
N278 N 0.34144 0.77894 0.58928 0.0
N279 N 1.09317 0.7731 0.51106 0.0
H280 H 1.20762 0.92316 0.59588 0.0
H281 H 1.12046 0.87707 0.56752 0.0
H282 H 1.0648 0.7342 0.48791 0.0
H283 H 1.06314 0.8004 0.52147 0.0
H284 H 0.35308 0.73254 0.58669 0.0
H285 H 0.35909 0.80907 0.616 0.0
H286 H 0.35874 0.72225 0.52311 0.0
H287 H 0.29193 0.68925 0.48347 0.0
C288 C 0.71846 0.26187 0.90332 0.0
C289 C 0.63632 0.22351 0.90649 0.0
C290 C 0.62816 1.11082 0.87271 0.0
C291 C 0.7033 0.16207 0.85706 0.0
N292 N 0.82346 0.28678 0.85901 0.0
N293 N 0.51763 1.10088 0.90968 0.0
C294 C 0.75077 0.23706 0.87367 0.0
C295 C 0.59354 0.14264 0.8978 0.0
N296 N 0.76428 0.32328 0.92719 0.0
N297 N 0.58949 1.03428 0.86136 0.0
H298 H 0.49358 1.12683 0.92727 0.0
H299 H 0.47974 1.04252 0.90259 0.0
H300 H 0.61532 1.01189 0.84264 0.0
H301 H 0.53445 0.99279 0.87164 0.0
H302 H 0.82527 0.3514 0.92696 0.0
H303 H 0.74068 0.33852 0.95055 0.0
H304 H 0.85646 0.34521 0.86753 0.0
H305 H 0.84841 0.27146 0.83635 0.0
C306 C 0.71428 0.89693 0.51596 0.0
C307 C 0.77163 0.97113 0.53166 0.0
C308 C 0.83588 0.89917 0.56367 0.0
C309 C 0.77428 0.82414 0.55197 0.0
N310 N 0.64883 0.75307 0.51961 0.0
N311 N 0.8768 1.03489 0.57945 0.0
C312 C 0.71179 0.82381 0.52891 0.0
C313 C 0.82934 0.96962 0.55808 0.0
N314 N 0.66419 0.89615 0.48687 0.0
N315 N 0.90397 0.90457 0.57768 0.0
H316 H 0.87223 1.08591 0.57794 0.0
H317 H 0.9143 1.03503 0.60195 0.0
H318 H 0.91328 0.85651 0.57755 0.0
H319 H 0.9539 0.95788 0.5838 0.0
H320 H 0.62676 0.84621 0.47098 0.0
H321 H 0.66524 0.94714 0.47587 0.0
H322 H 0.59727 0.74723 0.50704 0.0
H323 H 0.64585 0.6996 0.52752 0.0
C324 C 0.99481 0.74379 0.88504 0.0
C325 C 0.93156 0.68338 0.86268 0.0
C326 C 1.01511 0.619 0.85799 0.0
C327 C 1.07956 0.68241 0.87748 0.0
N328 N 1.13401 0.81207 0.9031 0.0
N329 N 0.89284 0.57184 0.82048 0.0
C330 C 1.07015 0.74704 0.88863 0.0
C331 C 0.945 0.62319 0.84723 0.0
N332 N 0.98147 0.79513 0.90573 0.0
N333 N 1.01994 0.55316 0.85063 0.0
H334 H 0.84407 0.57514 0.81007 0.0
H335 H 0.90234 0.53151 0.80535 0.0
H336 H 1.07029 0.5494 0.85723 0.0
H337 H 0.97258 0.50089 0.84089 0.0
H338 H 1.02323 0.83876 0.92361 0.0
H339 H 0.92582 0.78827 0.90907 0.0
H340 H 1.13507 0.86494 0.90821 0.0
H341 H 1.18856 0.81527 0.90632 0.0
C342 C 0.53405 0.88437 0.21152 0.0
C343 C 0.4749 0.87928 0.18374 0.0
C344 C 0.5603 1.02617 0.17369 0.0
C345 C 0.62189 1.0281 0.19779 0.0
N346 N 0.67231 0.95104 0.23001 0.0
N347 N 0.44765 0.95002 0.13085 0.0
C348 C 0.61004 0.95443 0.21332 0.0
C349 C 0.49265 0.95168 0.16274 0.0
N350 N 0.51692 0.82516 0.23889 0.0
N351 N 0.56482 1.09576 0.16201 0.0
H352 H 0.40195 0.8983 0.11973 0.0
H353 H 0.46176 0.99901 0.11247 0.0
H354 H 0.61272 0.14995 0.16926 0.0
H355 H 0.51854 1.09937 0.14819 0.0
H356 H 0.55556 0.82923 0.26169 0.0
H357 H 0.46109 0.77737 0.24276 0.0
H358 H 0.67008 0.89836 0.23892 0.0
H359 H 0.7282 1.0001 0.23033 0.0
C360 C 0.85795 0.49742 0.52093 0.0
C361 C 0.78996 0.42095 0.52382 0.0
C362 C 0.71384 0.49014 0.53749 0.0
C363 C 0.78285 0.56487 0.53928 0.0
N364 N 0.92307 0.63503 0.54018 0.0
N365 N 0.65585 0.3483 0.5457 0.0
C366 C 0.85548 0.56696 0.533 0.0
C367 C 0.71841 0.41859 0.53464 0.0
N368 N 0.92468 0.50499 0.5049 0.0
N369 N 0.64312 0.48738 0.53932 0.0
H370 H 0.65896 0.29663 0.54844 0.0
H371 H 0.60458 0.34308 0.55719 0.0
H372 H 0.63854 0.53813 0.54209 0.0
H373 H 0.59002 0.43638 0.53442 0.0
H374 H 0.97325 0.55947 0.49839 0.0
H375 H 0.92842 0.45738 0.49415 0.0
H376 H 0.9774 0.63761 0.54194 0.0
H377 H 0.92338 0.68663 0.54789 0.0
C378 C 0.42451 0.64647 0.84548 0.0
C379 C 0.49693 0.70242 0.8637 0.0
C380 C 0.41973 0.75475 0.89727 0.0
C381 C 0.34691 0.6913 0.88446 0.0
N382 N 0.28195 0.57016 0.849 0.0
N383 N 0.55517 0.79921 0.91545 0.0
C384 C 0.35016 0.63529 0.85936 0.0
C385 C 0.49212 0.75367 0.89192 0.0
N386 N 0.4263 0.6067 0.81313 0.0
N387 N 0.42082 0.81917 0.91242 0.0
H388 H 0.60733 0.79751 0.91504 0.0
H389 H 0.55221 0.83174 0.93875 0.0
H390 H 0.37084 0.82503 0.91198 0.0
H391 H 0.47234 0.87019 0.9197 0.0
H392 H 0.37668 0.57085 0.79632 0.0
H393 H 0.47831 0.61696 0.80011 0.0
H394 H 0.2801 0.52282 0.83448 0.0
H395 H 0.22739 0.56057 0.8581 0.0
C396 C 0.94915 0.42322 0.17289 0.0
C397 C 1.02265 0.44624 0.19267 0.0
C398 C 0.95464 0.31402 0.22779 0.0
C399 C 0.87941 0.2953 0.21187 0.0
N400 N 0.8064 0.34533 0.17474 0.0
N401 N 1.08458 0.41571 0.24803 0.0
C402 C 0.87741 0.35397 0.18602 0.0
C403 C 1.02188 0.3921 0.22278 0.0
N404 N 0.94757 0.4644 0.1398 0.0
N405 N 0.9639 0.25564 0.24559 0.0
H406 H 1.13172 0.47292 0.2478 0.0
H407 H 1.08544 0.38146 0.27218 0.0
H408 H 0.91913 0.1976 0.24531 0.0
H409 H 1.01797 0.26296 0.25514 0.0
H410 H 0.89869 0.44434 0.12113 0.0
H411 H 0.99741 0.51301 0.12854 0.0
H412 H 0.80011 0.38854 0.15884 0.0
H413 H 0.7538 0.29836 0.18482 0.0
C414 C 0.2652 0.57694 0.02724 0.0
C415 C 0.29418 0.64156 0.05331 0.0
C416 C 0.30198 0.72786 0.99678 0.0
C417 C 0.27377 0.66402 0.97016 0.0
N418 N 0.24005 0.53032 0.95901 0.0
N419 N 0.36507 0.78182 0.05994 0.0
C420 C 0.26053 0.58961 0.98511 0.0
C421 C 0.32164 0.71814 0.03686 0.0
N422 N 0.2389 0.50311 0.04309 0.0
N423 N 0.30266 0.79573 0.98508 0.0
H424 H 0.38068 0.7759 0.08917 0.0
H425 H 0.39208 0.83947 0.04874 0.0
H426 H 0.28336 0.80328 0.95705 0.0
H427 H 0.31431 0.84091 0.00453 0.0
H428 H 1.2092 0.4519 0.02682 0.0
H429 H 0.24488 0.49337 0.07335 0.0
H430 H 0.23495 0.476 0.9668 0.0
H431 H 0.23346 0.53813 0.92865 0.0
C432 C 0.80032 0.27817 0.35857 0.0
C433 C 0.81241 0.22243 0.38149 0.0
C434 C 0.82355 0.16396 0.31984 0.0
C435 C 0.80621 0.21591 0.2965 0.0
N436 N 0.78226 0.3248 0.29283 0.0
N437 N 0.8558 1.12666 0.38413 0.0
C438 C 0.79776 0.27509 0.31577 0.0
C439 C 0.83106 0.17043 0.36206 0.0
N440 N 0.79069 0.33339 0.37799 0.0
N441 N 0.82489 1.10283 0.30178 0.0
H442 H 0.85829 1.12694 0.41515 0.0
H443 H 0.87981 1.09502 0.3718 0.0
H444 H 0.81901 1.09545 0.27115 0.0
H445 H 0.82597 1.05624 0.31709 0.0
H446 H 0.78295 0.37733 0.36405 0.0
H447 H 0.79285 0.33683 0.40894 0.0
H448 H 0.77232 0.36837 0.30371 0.0
H449 H 0.77949 0.32214 0.26187 0.0
C450 C 0.68316 0.72792 0.69487 0.0
C451 C 0.74712 0.74573 0.72128 0.0
C452 C 0.83187 0.76778 0.66367 0.0
C453 C 0.76687 0.7446 0.63707 0.0
N454 N 0.63014 0.69962 0.62731 0.0
N455 N 0.88668 0.80284 0.73029 0.0
C456 C 0.69278 0.72597 0.65272 0.0
C457 C 0.82293 0.77307 0.7054 0.0
N458 N 0.61358 0.7144 0.71026 0.0
N459 N 0.90029 0.77582 0.64955 0.0
H460 H 0.88254 0.8025 0.76111 0.0
H461 H 0.94417 0.83341 0.72028 0.0
H462 H 0.90788 0.76787 0.61982 0.0
H463 H 0.94704 0.78283 0.66758 0.0
H464 H 0.56578 0.70736 0.69317 0.0
H465 H 0.60541 0.71595 0.74072 0.0
H466 H 0.57238 0.67668 0.63614 0.0
H467 H 0.63609 0.69758 0.59676 0.0
C468 C 0.71405 1.10168 0.64859 0.0
C469 C 0.76065 0.17748 0.63103 0.0
C470 C 0.79556 0.23562 0.69702 0.0
C471 C 0.74909 0.1599 0.71402 0.0
N472 N 0.64459 1.02738 0.7072 0.0
N473 N 0.83117 0.3187 0.63753 0.0
C474 C 0.7021 1.0949 0.69011 0.0
C475 C 0.79753 0.24534 0.65498 0.0
N476 N 0.68465 1.03579 0.62611 0.0
N477 N 0.83704 0.29789 0.72132 0.0
H478 H 0.83137 0.3278 0.60686 0.0
H479 H 0.85305 0.37053 0.6533 0.0
H480 H 0.83061 0.29289 0.75215 0.0
H481 H 0.87952 0.3533 0.71131 0.0
H482 H 0.65785 0.97892 0.63828 0.0
H483 H 0.69318 1.03773 0.59562 0.0
H484 H 0.60302 0.98024 0.69085 0.0
H485 H 0.63426 1.02167 0.73775 0.0
C486 C 0.59993 0.56452 0.97289 0.0
C487 C 0.65564 0.64461 0.96499 0.0
C488 C 0.66029 0.66684 0.03631 0.0
C489 C 0.6316 0.5859 0.04307 0.0
N490 N 0.56181 0.45453 0.01907 0.0
N491 N 0.73467 0.7762 0.99146 0.0
C492 C 0.59556 0.53349 0.01179 0.0
C493 C 0.68275 0.69805 0.99715 0.0
N494 N 0.55005 0.5195 0.94368 0.0
N495 N 0.67091 0.71349 0.0678 0.0
H496 H 0.75777 0.80228 0.96408 0.0
H497 H 0.76013 0.81481 0.01488 0.0
H498 H 0.65688 0.68997 0.09665 0.0
H499 H 0.68673 0.77274 0.06474 0.0
H500 H 0.5054 0.46191 0.94864 0.0
H501 H 0.54776 0.54371 0.91599 0.0
H502 H 0.54243 0.41344 0.99649 0.0
H503 H 0.55716 0.43142 0.04791 0.0
C504 C 0.28192 0.77339 0.30427 0.0
C505 C 0.21517 0.72578 0.28071 0.0
C506 C 1.13033 0.70735 0.33651 0.0
C507 C 1.19653 0.73811 0.3618 0.0
N508 N 0.33658 0.80866 0.37072 0.0
N509 N 1.07474 0.64934 0.27301 0.0
C510 C 0.273 0.77528 0.3459 0.0
C511 C 1.13874 0.69452 0.29616 0.0
N512 N 0.35319 0.81683 0.28665 0.0
N513 N 1.05965 0.69013 0.35173 0.0
H514 H 1.07876 0.64027 0.24297 0.0
H515 H 1.01812 0.61747 0.28408 0.0
H516 H 1.05408 0.70115 0.38136 0.0
H517 H 1.00916 0.67242 0.33451 0.0
H518 H 0.40336 0.85763 0.30152 0.0
H519 H 0.36032 0.81734 0.25601 0.0
H520 H 0.39378 0.82857 0.36161 0.0
H521 H 0.33173 0.8125 0.40123 0.0
loop_
_geom_bond_atom_site_label_1
_geom_bond_atom_site_label_2
_geom_bond_distance
_geom_bond_site_symmetry_2
_ccdc_geom_bond_type
Tb0 C9 2.764 . S
Tb0 O10 2.325 . S
Tb0 O13 2.303 . S
Tb0 O17 2.322 1_655 S
Tb0 O18 2.349 . S
Tb0 O21 2.415 . S
Tb0 O22 2.399 . S
Tb1 O11 2.322 1_455 S
Tb1 O12 2.349 . S
Tb1 O14 2.415 . S
Tb1 O15 2.399 . S
Tb1 O16 2.325 . S
Tb1 O19 2.303 . S
Tb1 C30 2.764 . S
C2 O18 1.261 1_455 S
C2 O19 1.257 . S
C3 C6 1.358 . S
C3 C7 1.332 . S
C3 C9 1.504 . S
C4 C5 1.373 . S
C4 C8 1.308 . S
C5 C4 1.373 . S
C5 C6 1.429 . S
C5 H32 0.932 . S
C6 C3 1.358 . S
C6 C5 1.429 . S
C6 H33 0.930 . S
C7 C3 1.332 . S
C7 C8 1.394 . S
C7 H34 0.932 . S
C8 C4 1.308 . S
C8 C7 1.394 . S
C8 H35 0.929 . S
C9 Tb0 2.764 . S
C9 C3 1.504 . S
C9 O21 1.239 . S
C9 O22 1.263 . S
O10 Tb0 2.325 . S
O10 C20 1.236 . S
O11 Tb1 2.322 1_655 S
O11 C20 1.257 . S
O12 Tb1 2.349 . S
O12 C23 1.261 . S
O13 Tb0 2.303 . S
O13 C23 1.257 1_655 S
O14 Tb1 2.415 . S
O14 C30 1.239 . S
O15 Tb1 2.399 . S
O15 C30 1.263 . S
O16 Tb1 2.325 . S
O16 C31 1.236 . S
O17 Tb0 2.322 1_455 S
O17 C31 1.257 . S
O18 Tb0 2.349 . S
O18 C2 1.261 1_655 S
O19 Tb1 2.303 . S
O19 C2 1.257 . S
C20 O10 1.236 . S
C20 O11 1.257 . S
O21 Tb0 2.415 . S
O21 C9 1.239 . S
O22 Tb0 2.399 . S
O22 C9 1.263 . S
C23 O12 1.261 . S
C23 O13 1.257 1_455 S
C24 C27 1.358 . S
C24 C28 1.332 . S
C24 C30 1.504 . S
C25 C26 1.373 . S
C25 C29 1.308 . S
C26 C25 1.373 . S
C26 C27 1.429 . S
C26 H36 0.932 . S
C27 C24 1.358 . S
C27 C26 1.429 . S
C27 H37 0.930 . S
C28 C24 1.332 . S
C28 C29 1.394 . S
C28 H38 0.932 . S
C29 C25 1.308 . S
C29 C28 1.394 . S
C29 H39 0.929 . S
C30 Tb1 2.764 . S
C30 O14 1.239 . S
C30 O15 1.263 . S
C30 C24 1.504 . S
C31 O16 1.236 . S
C31 O17 1.257 . S
H32 C5 0.932 . S
H33 C6 0.930 . S
H34 C7 0.932 . S
H35 C8 0.929 . S
H36 C26 0.932 . S
H37 C27 0.930 . S
H38 C28 0.932 . S
H39 C29 0.929 . S
Tb40 C49 2.764 . S
Tb40 O50 2.325 . S
Tb40 O53 2.303 1_565 S
Tb40 O57 2.322 1_565 S
Tb40 O58 2.349 . S
Tb40 O61 2.415 . S
Tb40 O62 2.399 . S
Tb41 O51 2.322 1_545 S
Tb41 O52 2.349 . S
Tb41 O54 2.415 . S
Tb41 O55 2.399 . S
Tb41 O56 2.325 . S
Tb41 O59 2.303 . S
Tb41 C70 2.764 . S
C42 O58 1.261 1_545 S
C42 O59 1.257 . S
C43 C46 1.358 . S
C43 C47 1.332 . S
C43 C49 1.504 . S
C44 C45 1.373 . S
C44 C48 1.308 . S
C45 C44 1.373 . S
C45 C46 1.429 . S
C45 H72 0.932 . S
C46 C43 1.358 . S
C46 C45 1.429 . S
C46 H73 0.930 . S
C47 C43 1.332 . S
C47 C48 1.394 . S
C47 H74 0.932 . S
C48 C44 1.308 . S
C48 C47 1.394 . S
C48 H75 0.929 . S
C49 Tb40 2.764 . S
C49 C43 1.504 . S
C49 O61 1.239 . S
C49 O62 1.263 . S
O50 Tb40 2.325 . S
O50 C60 1.236 . S
O51 Tb41 2.322 1_565 S
O51 C60 1.257 . S
O52 Tb41 2.349 . S
O52 C63 1.261 . S
O53 Tb40 2.303 1_545 S
O53 C63 1.257 . S
O54 Tb41 2.415 . S
O54 C70 1.239 . S
O55 Tb41 2.399 . S
O55 C70 1.263 . S
O56 Tb41 2.325 . S
O56 C71 1.236 . S
O57 Tb40 2.322 1_545 S
O57 C71 1.257 . S
O58 Tb40 2.349 . S
O58 C42 1.261 1_565 S
O59 Tb41 2.303 . S
O59 C42 1.257 . S
C60 O50 1.236 . S
C60 O51 1.257 . S
O61 Tb40 2.415 . S
O61 C49 1.239 . S
O62 Tb40 2.399 . S
O62 C49 1.263 . S
C63 O52 1.261 . S
C63 O53 1.257 . S
C64 C67 1.358 . S
C64 C68 1.332 . S
C64 C70 1.504 . S
C65 C66 1.373 . S
C65 C69 1.308 . S
C66 C65 1.373 . S
C66 C67 1.429 . S
C66 H76 0.932 . S
C67 C64 1.358 . S
C67 C66 1.429 . S
C67 H77 0.930 . S
C68 C64 1.332 . S
C68 C69 1.394 . S
C68 H78 0.932 . S
C69 C65 1.308 . S
C69 C68 1.394 . S
C69 H79 0.929 . S
C70 Tb41 2.764 . S
C70 O54 1.239 . S
C70 O55 1.263 . S
C70 C64 1.504 . S
C71 O56 1.236 . S
C71 O57 1.257 . S
H72 C45 0.932 . S
H73 C46 0.930 . S
H74 C47 0.932 . S
H75 C48 0.929 . S
H76 C66 0.932 . S
H77 C67 0.930 . S
H78 C68 0.932 . S
H79 C69 0.929 . S
Tb80 C89 2.764 . S
Tb80 O90 2.325 . S
Tb80 O93 2.303 . S
Tb80 O97 2.322 . S
Tb80 O98 2.349 . S
Tb80 O101 2.415 . S
Tb80 O102 2.399 . S
Tb81 O91 2.322 . S
Tb81 O92 2.349 . S
Tb81 O94 2.415 . S
Tb81 O95 2.399 . S
Tb81 O96 2.325 . S
Tb81 O99 2.303 . S
Tb81 C110 2.764 . S
C82 O98 1.261 . S
C82 O99 1.257 . S
C83 C86 1.358 . S
C83 C87 1.332 . S
C83 C89 1.504 . S
C84 C85 1.373 . S
C84 C88 1.308 . S
C85 C84 1.373 . S
C85 C86 1.429 . S
C85 H112 0.932 . S
C86 C83 1.358 . S
C86 C85 1.429 . S
C86 H113 0.930 . S
C87 C83 1.332 . S
C87 C88 1.394 . S
C87 H114 0.932 . S
C88 C84 1.308 . S
C88 C87 1.394 . S
C88 H115 0.929 . S
C89 Tb80 2.764 . S
C89 C83 1.504 . S
C89 O101 1.239 . S
C89 O102 1.263 . S
O90 Tb80 2.325 . S
O90 C100 1.236 . S
O91 Tb81 2.322 . S
O91 C100 1.257 . S
O92 Tb81 2.349 . S
O92 C103 1.261 . S
O93 Tb80 2.303 . S
O93 C103 1.257 . S
O94 Tb81 2.415 . S
O94 C110 1.239 . S
O95 Tb81 2.399 . S
O95 C110 1.263 . S
O96 Tb81 2.325 . S
O96 C111 1.236 . S
O97 Tb80 2.322 . S
O97 C111 1.257 . S
O98 Tb80 2.349 . S
O98 C82 1.261 . S
O99 Tb81 2.303 . S
O99 C82 1.257 . S
C100 O90 1.236 . S
C100 O91 1.257 . S
O101 Tb80 2.415 . S
O101 C89 1.239 . S
O102 Tb80 2.399 . S
O102 C89 1.263 . S
C103 O92 1.261 . S
C103 O93 1.257 . S
C104 C107 1.358 . S
C104 C108 1.332 . S
C104 C110 1.504 . S
C105 C106 1.373 . S
C105 C109 1.308 . S
C106 C105 1.373 . S
C106 C107 1.429 . S
C106 H116 0.932 . S
C107 C104 1.358 . S
C107 C106 1.429 . S
C107 H117 0.930 . S
C108 C104 1.332 . S
C108 C109 1.394 . S
C108 H118 0.932 . S
C109 C105 1.308 . S
C109 C108 1.394 . S
C109 H119 0.929 . S
C110 Tb81 2.764 . S
C110 O94 1.239 . S
C110 O95 1.263 . S
C110 C104 1.504 . S
C111 O96 1.236 . S
C111 O97 1.257 . S
H112 C85 0.932 . S
H113 C86 0.930 . S
H114 C87 0.932 . S
H115 C88 0.929 . S
H116 C106 0.932 . S
H117 C107 0.930 . S
H118 C108 0.932 . S
H119 C109 0.929 . S
C120 N121 1.317 1_565 S
C120 N122 1.348 . S
C120 C123 1.485 1_565 S
N121 C120 1.317 1_545 S
N121 N125 1.370 . S
N122 C120 1.348 . S
N122 C124 1.346 . S
C123 C120 1.485 1_545 S
C123 H127 0.960 . S
C123 H128 0.961 1_545 S
C123 H129 0.960 . S
C124 N122 1.346 . S
C124 N125 1.307 1_565 S
C124 C126 1.486 . S
N125 N121 1.370 . S
N125 C124 1.307 1_545 S
C126 C124 1.486 . S
C126 H130 0.960 . S
C126 H131 0.960 . S
C126 H132 0.959 . S
H127 C123 0.960 . S
H128 C123 0.961 1_565 S
H129 C123 0.960 . S
H130 C126 0.960 . S
H131 C126 0.960 . S
H132 C126 0.959 . S
C133 N134 1.317 . S
C133 N135 1.348 . S
C133 C136 1.485 . S
N134 C133 1.317 . S
N134 N138 1.370 . S
N135 C133 1.348 . S
N135 C137 1.346 . S
C136 C133 1.485 . S
C136 H140 0.960 . S
C136 H141 0.961 . S
C136 H142 0.960 . S
C137 N135 1.346 . S
C137 N138 1.307 . S
C137 C139 1.486 . S
N138 N134 1.370 . S
N138 C137 1.307 . S
C139 C137 1.486 . S
C139 H143 0.960 . S
C139 H144 0.960 . S
C139 H145 0.959 . S
H140 C136 0.960 . S
H141 C136 0.961 . S
H142 C136 0.960 . S
H143 C139 0.960 . S
H144 C139 0.960 . S
H145 C139 0.959 . S
C146 N147 1.317 . S
C146 N148 1.348 . S
C146 C149 1.485 . S
N147 C146 1.317 . S
N147 N151 1.370 . S
N148 C146 1.348 . S
N148 C150 1.346 . S
C149 C146 1.485 . S
C149 H153 0.960 . S
C149 H154 0.961 . S
C149 H155 0.960 . S
C150 N148 1.346 . S
C150 N151 1.307 . S
C150 C152 1.486 1_455 S
N151 N147 1.370 . S
N151 C150 1.307 . S
C152 C150 1.486 1_655 S
C152 H156 0.960 . S
C152 H157 0.960 . S
C152 H158 0.959 . S
H153 C149 0.960 . S
H154 C149 0.961 . S
H155 C149 0.960 . S
H156 C152 0.960 . S
H157 C152 0.960 . S
H158 C152 0.959 . S
C159 N160 1.317 1_455 S
C159 N161 1.348 . S
C159 C162 1.485 . S
N160 C159 1.317 1_655 S
N160 N164 1.370 . S
N161 C159 1.348 . S
N161 C163 1.346 . S
C162 C159 1.485 . S
C162 H166 0.960 1_455 S
C162 H167 0.961 . S
C162 H168 0.960 1_455 S
C163 N161 1.346 . S
C163 N164 1.307 1_455 S
C163 C165 1.486 . S
N164 N160 1.370 . S
N164 C163 1.307 1_655 S
C165 C163 1.486 . S
C165 H169 0.960 . S
C165 H170 0.960 . S
C165 H171 0.959 . S
H166 C162 0.960 1_655 S
H167 C162 0.961 . S
H168 C162 0.960 1_655 S
H169 C165 0.960 . S
H170 C165 0.960 . S
H171 C165 0.959 . S
C172 N173 1.317 1_545 S
C172 N174 1.348 . S
C172 C175 1.485 . S
N173 C172 1.317 1_565 S
N173 N177 1.370 1_565 S
N174 C172 1.348 . S
N174 C176 1.346 . S
C175 C172 1.485 . S
C175 H179 0.960 1_545 S
C175 H180 0.961 . S
C175 H181 0.960 1_545 S
C176 N174 1.346 . S
C176 N177 1.307 . S
C176 C178 1.486 . S
N177 N173 1.370 1_545 S
N177 C176 1.307 . S
C178 C176 1.486 . S
C178 H182 0.960 . S
C178 H183 0.960 . S
C178 H184 0.959 . S
H179 C175 0.960 1_565 S
H180 C175 0.961 . S
H181 C175 0.960 1_565 S
H182 C178 0.960 . S
H183 C178 0.960 . S
H184 C178 0.959 . S
C185 N186 1.317 . S
C185 N187 1.348 . S
C185 C188 1.485 . S
N186 C185 1.317 . S
N186 N190 1.370 . S
N187 C185 1.348 . S
N187 C189 1.346 . S
C188 C185 1.485 . S
C188 H192 0.960 . S
C188 H193 0.961 . S
C188 H194 0.960 . S
C189 N187 1.346 . S
C189 N190 1.307 . S
C189 C191 1.486 . S
N190 N186 1.370 . S
N190 C189 1.307 . S
C191 C189 1.486 . S
C191 H195 0.960 . S
C191 H196 0.960 . S
C191 H197 0.959 . S
H192 C188 0.960 . S
H193 C188 0.961 . S
H194 C188 0.960 . S
H195 C191 0.960 . S
H196 C191 0.960 . S
H197 C191 0.959 . S
C198 C199 1.363 . S
C198 C204 1.379 . S
C198 N206 1.356 . S
C199 C198 1.363 . S
C199 C205 1.363 . S
C200 C201 1.363 . S
C200 C205 1.379 . S
C200 N207 1.356 . S
C201 C200 1.363 . S
C201 C204 1.363 . S
N202 C204 1.356 . S
N202 H214 0.984 . S
N202 H215 0.985 . S
N203 C205 1.356 . S
N203 H208 0.984 . S
N203 H209 0.985 . S
C204 C198 1.379 . S
C204 C201 1.363 . S
C204 N202 1.356 . S
C205 C199 1.363 . S
C205 C200 1.379 . S
C205 N203 1.356 . S
N206 C198 1.356 . S
N206 H212 0.984 . S
N206 H213 0.984 . S
N207 C200 1.356 . S
N207 H210 0.984 . S
N207 H211 0.985 . S
H208 N203 0.984 . S
H209 N203 0.985 . S
H210 N207 0.984 . S
H211 N207 0.985 . S
H212 N206 0.984 . S
H213 N206 0.984 . S
H214 N202 0.984 . S
H215 N202 0.985 . S
C216 C217 1.363 . S
C216 C222 1.379 . S
C216 N224 1.356 . S
C217 C216 1.363 . S
C217 C223 1.363 . S
C218 C219 1.363 . S
C218 C223 1.379 . S
C218 N225 1.356 . S
C219 C218 1.363 . S
C219 C222 1.363 . S
N220 C222 1.356 . S
N220 H232 0.984 . S
N220 H233 0.985 . S
N221 C223 1.356 . S
N221 H226 0.984 . S
N221 H227 0.985 . S
C222 C216 1.379 . S
C222 C219 1.363 . S
C222 N220 1.356 . S
C223 C217 1.363 . S
C223 C218 1.379 . S
C223 N221 1.356 . S
N224 C216 1.356 . S
N224 H230 0.984 . S
N224 H231 0.984 . S
N225 C218 1.356 . S
N225 H228 0.984 . S
N225 H229 0.985 . S
H226 N221 0.984 . S
H227 N221 0.985 . S
H228 N225 0.984 . S
H229 N225 0.985 . S
H230 N224 0.984 . S
H231 N224 0.984 . S
H232 N220 0.984 . S
H233 N220 0.985 . S
C234 C235 1.363 . S
C234 C240 1.379 . S
C234 N242 1.356 1_565 S
C235 C234 1.363 . S
C235 C241 1.363 . S
C236 C237 1.363 . S
C236 C241 1.379 . S
C236 N243 1.356 . S
C237 C236 1.363 . S
C237 C240 1.363 . S
N238 C240 1.356 1_545 S
N238 H250 0.984 . S
N238 H251 0.985 . S
N239 C241 1.356 . S
N239 H244 0.984 . S
N239 H245 0.985 . S
C240 C234 1.379 . S
C240 C237 1.363 . S
C240 N238 1.356 1_565 S
C241 C235 1.363 . S
C241 C236 1.379 . S
C241 N239 1.356 . S
N242 C234 1.356 1_545 S
N242 H248 0.984 . S
N242 H249 0.984 . S
N243 C236 1.356 . S
N243 H246 0.984 . S
N243 H247 0.985 . S
H244 N239 0.984 . S
H245 N239 0.985 . S
H246 N243 0.984 . S
H247 N243 0.985 . S
H248 N242 0.984 . S
H249 N242 0.984 . S
H250 N238 0.984 . S
H251 N238 0.985 . S
C252 C253 1.363 . S
C252 C258 1.379 . S
C252 N260 1.356 . S
C253 C252 1.363 . S
C253 C259 1.363 . S
C254 C255 1.363 . S
C254 C259 1.379 . S
C254 N261 1.356 . S
C255 C254 1.363 . S
C255 C258 1.363 . S
N256 C258 1.356 . S
N256 H268 0.984 . S
N256 H269 0.985 . S
N257 C259 1.356 . S
N257 H262 0.984 . S
N257 H263 0.985 . S
C258 C252 1.379 . S
C258 C255 1.363 . S
C258 N256 1.356 . S
C259 C253 1.363 . S
C259 C254 1.379 . S
C259 N257 1.356 . S
N260 C252 1.356 . S
N260 H266 0.984 . S
N260 H267 0.984 . S
N261 C254 1.356 . S
N261 H264 0.984 . S
N261 H265 0.985 . S
H262 N257 0.984 . S
H263 N257 0.985 . S
H264 N261 0.984 . S
H265 N261 0.985 . S
H266 N260 0.984 . S
H267 N260 0.984 . S
H268 N256 0.984 . S
H269 N256 0.985 . S
C270 C271 1.363 . S
C270 C276 1.379 . S
C270 N278 1.356 . S
C271 C270 1.363 . S
C271 C277 1.363 . S
C272 C273 1.363 . S
C272 C277 1.379 . S
C272 N279 1.356 . S
C273 C272 1.363 . S
C273 C276 1.363 . S
N274 C276 1.356 . S
N274 H286 0.984 . S
N274 H287 0.985 . S
N275 C277 1.356 . S
N275 H280 0.984 . S
N275 H281 0.985 . S
C276 C270 1.379 . S
C276 C273 1.363 . S
C276 N274 1.356 . S
C277 C271 1.363 . S
C277 C272 1.379 . S
C277 N275 1.356 . S
N278 C270 1.356 . S
N278 H284 0.984 . S
N278 H285 0.984 . S
N279 C272 1.356 . S
N279 H282 0.984 1_455 S
N279 H283 0.985 1_455 S
H280 N275 0.984 . S
H281 N275 0.985 . S
H282 N279 0.984 1_655 S
H283 N279 0.985 1_655 S
H284 N278 0.984 . S
H285 N278 0.984 . S
H286 N274 0.984 . S
H287 N274 0.985 . S
C288 C289 1.363 . S
C288 C294 1.379 . S
C288 N296 1.356 . S
C289 C288 1.363 . S
C289 C295 1.363 . S
C290 C291 1.363 . S
C290 C295 1.379 . S
C290 N297 1.356 . S
C291 C290 1.363 . S
C291 C294 1.363 . S
N292 C294 1.356 . S
N292 H304 0.984 . S
N292 H305 0.985 . S
N293 C295 1.356 . S
N293 H298 0.984 . S
N293 H299 0.985 . S
C294 C288 1.379 . S
C294 C291 1.363 . S
C294 N292 1.356 . S
C295 C289 1.363 . S
C295 C290 1.379 . S
C295 N293 1.356 . S
N296 C288 1.356 . S
N296 H302 0.984 . S
N296 H303 0.984 . S
N297 C290 1.356 . S
N297 H300 0.984 . S
N297 H301 0.985 1_545 S
H298 N293 0.984 . S
H299 N293 0.985 . S
H300 N297 0.984 . S
H301 N297 0.985 1_565 S
H302 N296 0.984 . S
H303 N296 0.984 . S
H304 N292 0.984 . S
H305 N292 0.985 . S
C306 C307 1.363 . S
C306 C312 1.379 . S
C306 N314 1.356 . S
C307 C306 1.363 . S
C307 C313 1.363 . S
C308 C309 1.363 . S
C308 C313 1.379 . S
C308 N315 1.356 . S
C309 C308 1.363 . S
C309 C312 1.363 . S
N310 C312 1.356 . S
N310 H322 0.984 . S
N310 H323 0.985 . S
N311 C313 1.356 . S
N311 H316 0.984 . S
N311 H317 0.985 . S
C312 C306 1.379 . S
C312 C309 1.363 . S
C312 N310 1.356 . S
C313 C307 1.363 . S
C313 C308 1.379 . S
C313 N311 1.356 . S
N314 C306 1.356 . S
N314 H320 0.984 . S
N314 H321 0.984 . S
N315 C308 1.356 . S
N315 H318 0.984 . S
N315 H319 0.985 . S
H316 N311 0.984 . S
H317 N311 0.985 . S
H318 N315 0.984 . S
H319 N315 0.985 . S
H320 N314 0.984 . S
H321 N314 0.984 . S
H322 N310 0.984 . S
H323 N310 0.985 . S
C324 C325 1.363 . S
C324 C330 1.379 . S
C324 N332 1.356 . S
C325 C324 1.363 . S
C325 C331 1.363 . S
C326 C327 1.363 . S
C326 C331 1.379 . S
C326 N333 1.356 . S
C327 C326 1.363 . S
C327 C330 1.363 . S
N328 C330 1.356 . S
N328 H340 0.984 . S
N328 H341 0.985 . S
N329 C331 1.356 . S
N329 H334 0.984 . S
N329 H335 0.985 . S
C330 C324 1.379 . S
C330 C327 1.363 . S
C330 N328 1.356 . S
C331 C325 1.363 . S
C331 C326 1.379 . S
C331 N329 1.356 . S
N332 C324 1.356 . S
N332 H338 0.984 . S
N332 H339 0.984 . S
N333 C326 1.356 . S
N333 H336 0.984 . S
N333 H337 0.985 . S
H334 N329 0.984 . S
H335 N329 0.985 . S
H336 N333 0.984 . S
H337 N333 0.985 . S
H338 N332 0.984 . S
H339 N332 0.984 . S
H340 N328 0.984 . S
H341 N328 0.985 . S
C342 C343 1.363 . S
C342 C348 1.379 . S
C342 N350 1.356 . S
C343 C342 1.363 . S
C343 C349 1.363 . S
C344 C345 1.363 . S
C344 C349 1.379 . S
C344 N351 1.356 . S
C345 C344 1.363 . S
C345 C348 1.363 . S
N346 C348 1.356 . S
N346 H358 0.984 . S
N346 H359 0.985 . S
N347 C349 1.356 . S
N347 H352 0.984 . S
N347 H353 0.985 . S
C348 C342 1.379 . S
C348 C345 1.363 . S
C348 N346 1.356 . S
C349 C343 1.363 . S
C349 C344 1.379 . S
C349 N347 1.356 . S
N350 C342 1.356 . S
N350 H356 0.984 . S
N350 H357 0.984 . S
N351 C344 1.356 . S
N351 H354 0.984 . S
N351 H355 0.985 . S
H352 N347 0.984 . S
H353 N347 0.985 . S
H354 N351 0.984 . S
H355 N351 0.985 . S
H356 N350 0.984 . S
H357 N350 0.984 . S
H358 N346 0.984 . S
H359 N346 0.985 . S
C360 C361 1.363 . S
C360 C366 1.379 . S
C360 N368 1.356 . S
C361 C360 1.363 . S
C361 C367 1.363 . S
C362 C363 1.363 . S
C362 C367 1.379 . S
C362 N369 1.356 . S
C363 C362 1.363 . S
C363 C366 1.363 . S
N364 C366 1.356 . S
N364 H376 0.984 . S
N364 H377 0.985 . S
N365 C367 1.356 . S
N365 H370 0.984 . S
N365 H371 0.985 . S
C366 C360 1.379 . S
C366 C363 1.363 . S
C366 N364 1.356 . S
C367 C361 1.363 . S
C367 C362 1.379 . S
C367 N365 1.356 . S
N368 C360 1.356 . S
N368 H374 0.984 . S
N368 H375 0.984 . S
N369 C362 1.356 . S
N369 H372 0.984 . S
N369 H373 0.985 . S
H370 N365 0.984 . S
H371 N365 0.985 . S
H372 N369 0.984 . S
H373 N369 0.985 . S
H374 N368 0.984 . S
H375 N368 0.984 . S
H376 N364 0.984 . S
H377 N364 0.985 . S
C378 C379 1.363 . S
C378 C384 1.379 . S
C378 N386 1.356 . S
C379 C378 1.363 . S
C379 C385 1.363 . S
C380 C381 1.363 . S
C380 C385 1.379 . S
C380 N387 1.356 . S
C381 C380 1.363 . S
C381 C384 1.363 . S
N382 C384 1.356 . S
N382 H394 0.984 . S
N382 H395 0.985 . S
N383 C385 1.356 . S
N383 H388 0.984 . S
N383 H389 0.985 . S
C384 C378 1.379 . S
C384 C381 1.363 . S
C384 N382 1.356 . S
C385 C379 1.363 . S
C385 C380 1.379 . S
C385 N383 1.356 . S
N386 C378 1.356 . S
N386 H392 0.984 . S
N386 H393 0.984 . S
N387 C380 1.356 . S
N387 H390 0.984 . S
N387 H391 0.985 . S
H388 N383 0.984 . S
H389 N383 0.985 . S
H390 N387 0.984 . S
H391 N387 0.985 . S
H392 N386 0.984 . S
H393 N386 0.984 . S
H394 N382 0.984 . S
H395 N382 0.985 . S
C396 C397 1.363 . S
C396 C402 1.379 . S
C396 N404 1.356 . S
C397 C396 1.363 . S
C397 C403 1.363 . S
C398 C399 1.363 . S
C398 C403 1.379 . S
C398 N405 1.356 . S
C399 C398 1.363 . S
C399 C402 1.363 . S
N400 C402 1.356 . S
N400 H412 0.984 . S
N400 H413 0.985 . S
N401 C403 1.356 . S
N401 H406 0.984 . S
N401 H407 0.985 . S
C402 C396 1.379 . S
C402 C399 1.363 . S
C402 N400 1.356 . S
C403 C397 1.363 . S
C403 C398 1.379 . S
C403 N401 1.356 . S
N404 C396 1.356 . S
N404 H410 0.984 . S
N404 H411 0.984 . S
N405 C398 1.356 . S
N405 H408 0.984 . S
N405 H409 0.985 . S
H406 N401 0.984 . S
H407 N401 0.985 . S
H408 N405 0.984 . S
H409 N405 0.985 . S
H410 N404 0.984 . S
H411 N404 0.984 . S
H412 N400 0.984 . S
H413 N400 0.985 . S
C414 C415 1.363 . S
C414 C420 1.379 1_554 S
C414 N422 1.356 1_455 S
C415 C414 1.363 . S
C415 C421 1.363 . S
C416 C417 1.364 . S
C416 C421 1.377 1_556 S
C416 N423 1.357 . S
C417 C416 1.364 . S
C417 C420 1.363 . S
N418 C420 1.356 . S
N418 H430 0.984 1_455 S
N418 H431 0.985 . S
N419 C421 1.356 . S
N419 H424 0.984 . S
N419 H425 0.985 . S
C420 C414 1.379 1_556 S
C420 C417 1.363 . S
C420 N418 1.356 . S
C421 C415 1.363 . S
C421 C416 1.377 1_554 S
C421 N419 1.356 . S
N422 C414 1.356 1_655 S
N422 H428 0.984 . S
N422 H429 0.984 . S
N423 C416 1.357 . S
N423 H426 0.984 . S
N423 H427 0.985 . S
H424 N419 0.984 . S
H425 N419 0.985 . S
H426 N423 0.984 . S
H427 N423 0.985 . S
H428 N422 0.984 . S
H429 N422 0.984 . S
H430 N418 0.984 1_655 S
H431 N418 0.985 . S
C432 C433 1.363 . S
C432 C438 1.379 . S
C432 N440 1.356 . S
C433 C432 1.363 . S
C433 C439 1.363 1_545 S
C434 C435 1.363 1_565 S
C434 C439 1.379 . S
C434 N441 1.356 . S
C435 C434 1.363 1_545 S
C435 C438 1.363 . S
N436 C438 1.356 . S
N436 H448 0.984 . S
N436 H449 0.985 . S
N437 C439 1.356 . S
N437 H442 0.984 . S
N437 H443 0.985 . S
C438 C432 1.379 . S
C438 C435 1.363 . S
C438 N436 1.356 . S
C439 C433 1.363 1_565 S
C439 C434 1.379 . S
C439 N437 1.356 . S
N440 C432 1.356 . S
N440 H446 0.984 . S
N440 H447 0.984 . S
N441 C434 1.356 . S
N441 H444 0.984 . S
N441 H445 0.985 . S
H442 N437 0.984 . S
H443 N437 0.985 . S
H444 N441 0.984 . S
H445 N441 0.985 . S
H446 N440 0.984 . S
H447 N440 0.984 . S
H448 N436 0.984 . S
H449 N436 0.985 . S
C450 C451 1.363 . S
C450 C456 1.379 . S
C450 N458 1.356 . S
C451 C450 1.363 . S
C451 C457 1.363 . S
C452 C453 1.363 . S
C452 C457 1.379 . S
C452 N459 1.356 . S
C453 C452 1.363 . S
C453 C456 1.363 . S
N454 C456 1.356 . S
N454 H466 0.984 . S
N454 H467 0.985 . S
N455 C457 1.356 . S
N455 H460 0.984 . S
N455 H461 0.985 . S
C456 C450 1.379 . S
C456 C453 1.363 . S
C456 N454 1.356 . S
C457 C451 1.363 . S
C457 C452 1.379 . S
C457 N455 1.356 . S
N458 C450 1.356 . S
N458 H464 0.984 . S
N458 H465 0.984 . S
N459 C452 1.356 . S
N459 H462 0.984 . S
N459 H463 0.985 . S
H460 N455 0.984 . S
H461 N455 0.985 . S
H462 N459 0.984 . S
H463 N459 0.985 . S
H464 N458 0.984 . S
H465 N458 0.984 . S
H466 N454 0.984 . S
H467 N454 0.985 . S
C468 C469 1.363 1_565 S
C468 C474 1.379 . S
C468 N476 1.356 . S
C469 C468 1.363 1_545 S
C469 C475 1.363 . S
C470 C471 1.363 1_545 S
C470 C475 1.379 . S
C470 N477 1.356 . S
C471 C470 1.363 1_565 S
C471 C474 1.363 . S
N472 C474 1.356 . S
N472 H484 0.984 . S
N472 H485 0.985 . S
N473 C475 1.356 . S
N473 H478 0.984 . S
N473 H479 0.985 . S
C474 C468 1.379 . S
C474 C471 1.363 . S
C474 N472 1.356 . S
C475 C469 1.363 . S
C475 C470 1.379 . S
C475 N473 1.356 . S
N476 C468 1.356 . S
N476 H482 0.984 . S
N476 H483 0.984 . S
N477 C470 1.356 . S
N477 H480 0.984 . S
N477 H481 0.985 . S
H478 N473 0.984 . S
H479 N473 0.985 . S
H480 N477 0.984 . S
H481 N477 0.985 . S
H482 N476 0.984 . S
H483 N476 0.984 . S
H484 N472 0.984 . S
H485 N472 0.985 . S
C486 C487 1.363 . S
C486 C492 1.379 . S
C486 N494 1.356 . S
C487 C486 1.363 . S
C487 C493 1.363 . S
C488 C489 1.363 . S
C488 C493 1.379 1_554 S
C488 N495 1.356 . S
C489 C488 1.363 . S
C489 C492 1.363 1_554 S
N490 C492 1.356 1_554 S
N490 H502 0.984 1_554 S
N490 H503 0.985 . S
N491 C493 1.356 . S
N491 H496 0.984 . S
N491 H497 0.985 . S
C492 C486 1.379 . S
C492 C489 1.363 1_556 S
C492 N490 1.356 1_556 S
C493 C487 1.363 . S
C493 C488 1.379 1_556 S
C493 N491 1.356 . S
N494 C486 1.356 . S
N494 H500 0.984 . S
N494 H501 0.984 . S
N495 C488 1.356 . S
N495 H498 0.984 . S
N495 H499 0.985 . S
H496 N491 0.984 . S
H497 N491 0.985 . S
H498 N495 0.984 . S
H499 N495 0.985 . S
H500 N494 0.984 . S
H501 N494 0.984 . S
H502 N490 0.984 1_556 S
H503 N490 0.985 . S
C504 C505 1.363 1_455 S
C504 C510 1.379 . S
C504 N512 1.356 . S
C505 C504 1.363 1_655 S
C505 C511 1.363 . S
C506 C507 1.363 . S
C506 C511 1.379 . S
C506 N513 1.356 . S
C507 C506 1.363 . S
C507 C510 1.363 1_655 S
N508 C510 1.356 . S
N508 H520 0.984 . S
N508 H521 0.985 . S
N509 C511 1.356 . S
N509 H514 0.984 . S
N509 H515 0.985 . S
C510 C504 1.379 . S
C510 C507 1.363 1_455 S
C510 N508 1.356 . S
C511 C505 1.363 . S
C511 C506 1.379 . S
C511 N509 1.356 . S
N512 C504 1.356 . S
N512 H518 0.984 . S
N512 H519 0.984 . S
N513 C506 1.356 . S
N513 H516 0.984 . S
N513 H517 0.985 . S
H514 N509 0.984 . S
H515 N509 0.985 . S
H516 N513 0.984 . S
H517 N513 0.985 . S
H518 N512 0.984 . S
H519 N512 0.984 . S
H520 N508 0.984 . S
H521 N508 0.985 . S
C199 C25 0.658 . S
C201 N187 0.589 . S
C217 C65 0.796 . S
C219 N160 0.803 . S
C235 C105 0.826 . S
C237 N173 0.838 . S
C253 C4 0.906 . S
C255 N186 0.923 . S
C273 N161 0.968 . S
C271 C44 0.917 . S
C291 N174 0.942 . S
C289 C84 0.901 . S
C307 C60 2.957 . S
C309 N134 2.954 . S
C325 C100 2.922 . S
C327 N148 2.862 1_655 S
C343 C31 3.141 . S
C345 N122 3.113 . S
C363 N135 3.140 . S
C361 C71 3.153 . S
C381 N147 3.263 . S
C379 C111 3.225 . S
C397 C20 2.968 . S
C399 N121 2.963 . S
C417 N151 1.808 . S
C415 C2 1.805 . S
C433 C42 1.738 . S
C435 N125 1.818 . S
C451 C82 1.744 . S
C453 N138 1.834 . S
C471 N177 1.153 1_565 S
C469 C63 1.179 . S
C489 N190 1.121 . S
C487 C103 1.144 . S
C505 C23 1.142 1_655 S
C507 N164 1.130 . S
