# Generated by pormake.
# Topology zzz, (3,6)-cn, num edge types: 1
# Building blocks:
#     Node 0, Type 0, BuildingBlock: QEWDON_clean_linker_0, # of connection points: 3
#     Node 1, Type 0, BuildingBlock: QEWDON_clean_linker_0, # of connection points: 3
#     Node 2, Type 0, BuildingBlock: QEWDON_clean_linker_0, # of connection points: 3
#     Node 3, Type 0, BuildingBlock: QEWDON_clean_linker_0, # of connection points: 3
#     Node 4, Type 0, BuildingBlock: QEWDON_clean_linker_0, # of connection points: 3
#     Node 5, Type 0, BuildingBlock: QEWDON_clean_linker_0, # of connection points: 3
#     Node 6, Type 0, BuildingBlock: QEWDON_clean_linker_0, # of connection points: 3
#     Node 7, Type 0, BuildingBlock: QEWDON_clean_linker_0, # of connection points: 3
#     Node 8, Type 1, BuildingBlock: KUMJIN_clean_sbu_0, # of connection points: 6
#     Node 9, Type 1, BuildingBlock: KUMJIN_clean_sbu_0, # of connection points: 6
#     Node 10, Type 1, BuildingBlock: KUMJIN_clean_sbu_0, # of connection points: 6
#     Node 11, Type 1, BuildingBlock: KUMJIN_clean_sbu_0, # of connection points: 6
#     Edge 12, Type (0, 1), BuildingBlock: CIFDUS_clean_linker_0, # of connection points: 2
#     Edge 13, Type (0, 1), BuildingBlock: CIFDUS_clean_linker_0, # of connection points: 2
#     Edge 14, Type (0, 1), BuildingBlock: CIFDUS_clean_linker_0, # of connection points: 2
#     Edge 15, Type (0, 1), BuildingBlock: CIFDUS_clean_linker_0, # of connection points: 2
#     Edge 16, Type (0, 1), BuildingBlock: CIFDUS_clean_linker_0, # of connection points: 2
#     Edge 17, Type (0, 1), BuildingBlock: CIFDUS_clean_linker_0, # of connection points: 2
#     Edge 18, Type (0, 1), BuildingBlock: CIFDUS_clean_linker_0, # of connection points: 2
#     Edge 19, Type (0, 1), BuildingBlock: CIFDUS_clean_linker_0, # of connection points: 2
#     Edge 20, Type (0, 1), BuildingBlock: CIFDUS_clean_linker_0, # of connection points: 2
#     Edge 21, Type (0, 1), BuildingBlock: CIFDUS_clean_linker_0, # of connection points: 2
#     Edge 22, Type (0, 1), BuildingBlock: CIFDUS_clean_linker_0, # of connection points: 2
#     Edge 23, Type (0, 1), BuildingBlock: CIFDUS_clean_linker_0, # of connection points: 2
#     Edge 24, Type (0, 1), BuildingBlock: CIFDUS_clean_linker_0, # of connection points: 2
#     Edge 25, Type (0, 1), BuildingBlock: CIFDUS_clean_linker_0, # of connection points: 2
#     Edge 26, Type (0, 1), BuildingBlock: CIFDUS_clean_linker_0, # of connection points: 2
#     Edge 27, Type (0, 1), BuildingBlock: CIFDUS_clean_linker_0, # of connection points: 2
#     Edge 28, Type (0, 1), BuildingBlock: CIFDUS_clean_linker_0, # of connection points: 2
#     Edge 29, Type (0, 1), BuildingBlock: CIFDUS_clean_linker_0, # of connection points: 2
#     Edge 30, Type (0, 1), BuildingBlock: CIFDUS_clean_linker_0, # of connection points: 2
#     Edge 31, Type (0, 1), BuildingBlock: CIFDUS_clean_linker_0, # of connection points: 2
#     Edge 32, Type (0, 1), BuildingBlock: CIFDUS_clean_linker_0, # of connection points: 2
#     Edge 33, Type (0, 1), BuildingBlock: CIFDUS_clean_linker_0, # of connection points: 2
#     Edge 34, Type (0, 1), BuildingBlock: CIFDUS_clean_linker_0, # of connection points: 2
#     Edge 35, Type (0, 1), BuildingBlock: CIFDUS_clean_linker_0, # of connection points: 2
# Relax obj value: 0.129
# Max RMSD: 0.157
# Mean RMSD: 0.077
data_MOF--net-zzz--node1-KUMJIN_clean_sbu_0--node2-QEWDON_clean_linker_0--edge1-CIFDUS_clean_linker_0
_symmetry_space_group_name_H-M    P1
_symmetry_Int_Tables_number       1
_symmetry_cell_setting            triclinic
loop_
_symmetry_equiv_pos_as_xyz
'x, y, z'
_cell_length_a     48.037881
_cell_length_b     47.82129
_cell_length_c     12.721782
_cell_angle_alpha  91.635137
_cell_angle_beta   89.746895
_cell_angle_gamma 89.61081
loop_
_atom_site_label
_atom_site_type_symbol
_atom_site_fract_x
_atom_site_fract_y
_atom_site_fract_z
_atom_type_partial_charge
H0 H 0.75829 0.57907 0.09922 0.0
C1 C 0.77395 0.57055 0.15023 0.0
C2 C 0.80089 0.58122 0.14386 0.0
C3 C 0.76731 0.54981 0.22322 0.0
H4 H 0.84286 0.57866 0.19881 0.0
C5 C 0.82177 0.57129 0.20976 0.0
C6 C 0.81656 0.55199 0.28752 0.0
C7 C 0.78921 0.54055 0.292 0.0
C8 C 0.73733 0.53945 0.23004 0.0
H9 H 0.78523 0.52473 0.34906 0.0
C10 C 0.71772 0.54159 0.14534 0.0
C11 C 0.68936 0.53331 0.15647 0.0
C12 C 0.72747 0.52861 0.32486 0.0
H13 H 0.7407 0.52731 0.39304 0.0
C14 C 0.69991 0.52008 0.33563 0.0
H15 H 0.72428 0.54932 0.07024 0.0
C16 C 0.68112 0.52243 0.25311 0.0
H17 H 0.65973 0.51641 0.26651 0.0
H18 H 0.69285 0.51208 0.40986 0.0
H19 H 0.99494 0.77633 0.11124 0.0
C20 C 1.00172 0.79222 0.16758 0.0
C21 C 0.99478 0.82015 0.14921 0.0
C22 C 0.01869 0.78496 0.25201 0.0
H23 H 0.99736 0.86292 0.20753 0.0
C24 C 1.00204 0.84122 0.22341 0.0
C25 C 0.01835 0.83547 0.31117 0.0
C26 C 0.02722 0.80715 0.32409 0.0
C27 C 0.02687 0.75425 0.26289 0.0
H28 H 0.0412 0.80275 0.38805 0.0
C29 C 0.02862 0.73415 0.17556 0.0
C30 C 0.03495 0.70525 0.19154 0.0
C31 C 0.03183 0.74445 0.36405 0.0
H32 H 0.03033 0.75828 0.43264 0.0
C33 C 0.03803 0.71645 0.37983 0.0
H34 H 0.02594 0.74088 0.09577 0.0
C35 C 0.03907 0.69712 0.29591 0.0
H36 H 0.04354 0.6755 0.31319 0.0
H37 H 0.04207 0.70966 0.45859 0.0
H38 H 0.77581 0.99047 0.15556 0.0
C39 C 0.76132 0.99859 0.21435 0.0
C40 C 0.73294 0.99275 0.20093 0.0
C41 C 0.77073 1.01566 0.29898 0.0
H42 H 0.69174 0.99836 0.26761 0.0
C43 C 0.71382 1.00197 0.27864 0.0
C44 C 0.72177 1.01914 0.36362 0.0
C45 C 0.75035 0.02633 0.37313 0.0
C46 C 0.80164 0.02212 0.30809 0.0
H47 H 0.75634 0.04079 0.43584 0.0
C48 C 0.82025 0.02194 0.21926 0.0
C49 C 0.8495 0.02584 0.2317 0.0
C50 C 0.81315 0.02714 0.40822 0.0
H51 H 0.80035 0.02687 0.47834 0.0
C52 C 0.84159 0.03181 0.42059 0.0
H53 H 0.81225 1.01852 0.14068 0.0
C54 C 0.85951 0.03113 0.33403 0.0
H55 H 0.88139 0.03506 0.34764 0.0
H56 H 0.84991 0.03573 0.49854 0.0
H57 H 0.56948 0.78804 0.15427 0.0
C58 C 0.56534 0.77446 0.2189 0.0
C59 C 0.57126 0.74603 0.20377 0.0
C60 C 0.55476 0.78508 0.31595 0.0
H61 H 0.57079 0.70535 0.27129 0.0
C62 C 0.56686 0.72754 0.28537 0.0
C63 C 0.55646 0.73649 0.38308 0.0
C64 C 0.55002 0.76548 0.39837 0.0
C65 C 0.55051 0.81657 0.33047 0.0
H66 H 0.54165 0.7725 0.4737 0.0
C67 C 0.54639 0.83476 0.24383 0.0
C68 C 0.54595 0.86445 0.25796 0.0
C69 C 0.55279 0.82912 0.43141 0.0
H70 H 0.55654 0.81671 0.4997 0.0
C71 C 0.55133 0.85813 0.44624 0.0
H72 H 0.54396 0.82613 0.16501 0.0
C73 C 0.54817 0.87557 0.36099 0.0
H74 H 0.54722 0.89796 0.37625 0.0
H75 H 0.55315 0.86725 0.52476 0.0
H76 H 0.28434 0.48063 0.21329 0.0
C77 C 0.26885 0.48757 0.15832 0.0
C78 C 0.2416 0.47891 0.17414 0.0
C79 C 0.27586 0.50493 0.07465 0.0
H80 H 0.19934 0.48151 0.12352 0.0
C81 C 0.22062 0.48673 0.10426 0.0
C82 C 0.22598 0.50255 0.01542 0.0
C83 C 0.25395 0.51225 1.00242 0.0
C84 C 0.30611 0.51429 0.06431 0.0
H85 H 0.25842 0.52546 0.93707 0.0
C86 C 0.32527 0.5144 0.15106 0.0
C87 C 0.35402 0.52083 0.13841 0.0
C88 C 0.31671 0.52176 0.96584 0.0
H89 H 0.3037 0.52149 0.89673 0.0
C90 C 0.3447 0.52884 0.9534 0.0
H91 H 0.31811 0.50984 0.22927 0.0
C92 C 0.36313 0.5282 0.0379 0.0
H93 H 0.38484 0.53281 0.02342 0.0
H94 H 0.35234 0.53431 0.87656 0.0
H95 H 0.02659 0.28583 0.27241 0.0
C96 C 0.03028 0.27009 0.21107 0.0
C97 C 0.02629 0.24229 0.23606 0.0
C98 C 0.03676 0.27775 0.10848 0.0
H99 H 0.02453 0.19954 0.1801 0.0
C100 C 0.02886 0.22092 0.15896 0.0
C101 C 0.03416 0.22679 0.05353 0.0
C102 C 0.03849 0.25554 0.02842 0.0
C103 C 0.03788 0.30908 0.08733 0.0
H104 H 0.04233 0.26036 0.94717 0.0
C105 C 0.0433 0.33041 0.16808 0.0
C106 C 0.04137 0.3596 0.14705 0.0
C107 C 0.03093 0.31814 0.98669 0.0
H108 H 0.02579 0.30343 0.92378 0.0
C109 C 0.02924 0.34648 0.96556 0.0
H110 H 0.04949 0.32464 0.24615 0.0
C111 C 0.03426 0.36673 0.04382 0.0
H112 H 0.03244 0.38839 0.02261 0.0
H113 H 0.0236 0.35289 0.8875 0.0
H114 H 0.27728 1.01198 0.24487 0.0
C115 C 0.29249 1.01871 0.18806 0.0
C116 C 0.32029 1.01186 0.20508 0.0
C117 C 0.28432 0.03315 0.09841 0.0
H118 H 0.36216 1.01312 0.14861 0.0
C119 C 0.34071 1.01849 0.13163 0.0
C120 C 0.33399 0.03145 0.03732 0.0
C121 C 0.30556 0.0395 0.0224 0.0
C122 C 0.25342 0.03908 0.08326 0.0
H123 H 0.30011 0.05018 0.95154 0.0
C124 C 0.23406 0.04132 0.16965 0.0
C125 C 0.20473 0.04334 0.15365 0.0
C126 C 0.24252 0.04006 0.98114 0.0
H127 H 0.25587 0.03776 0.91274 0.0
C128 C 0.21393 0.04258 0.96478 0.0
H129 H 0.24163 0.04154 0.24955 0.0
C130 C 0.19528 0.04394 0.04933 0.0
H131 H 0.17325 0.04453 0.03238 0.0
H132 H 0.20609 0.04261 0.88519 0.0
H133 H 0.48124 0.27151 0.17745 0.0
C134 C 0.48781 0.28439 0.11357 0.0
C135 C 0.47756 0.31181 0.11165 0.0
C136 C 0.50631 0.27397 0.03496 0.0
H137 H 0.47808 0.35075 0.03183 0.0
C138 C 0.48512 0.32913 0.02942 0.0
C139 C 0.50387 0.32054 0.95081 0.0
C140 C 0.5149 0.29283 0.95463 0.0
C141 C 0.51536 0.24336 0.03596 0.0
H142 H 0.52999 0.2862 0.89554 0.0
C143 C 0.51543 0.22716 0.12944 0.0
C144 C 0.52087 0.19777 0.12542 0.0
C145 C 0.52211 0.22936 0.94034 0.0
H146 H 0.52184 0.24015 0.86681 0.0
C147 C 0.52842 0.20083 0.93662 0.0
H148 H 0.51091 0.23703 0.20515 0.0
C149 C 0.52752 0.18517 0.02732 0.0
H150 H 0.53243 0.16304 0.02059 0.0
H151 H 0.53373 0.19064 0.86211 0.0
Eu152 Eu 0.05123 0.02128 0.78413 0.0
C153 C 0.98483 0.9874 0.44057 0.0
C154 C 1.00758 0.99296 0.27271 0.0
C155 C 0.98133 0.95082 0.30423 0.0
C156 C 1.00103 1.00297 0.37541 0.0
C157 C 0.97344 0.96184 0.40357 0.0
C158 C 0.99876 0.96622 0.23934 0.0
C159 C 0.94609 0.96088 0.56277 0.0
N160 N 0.97862 0.99819 0.53768 0.0
C161 C 0.9587 0.98577 0.59741 0.0
C162 C 0.95387 0.94856 0.46626 0.0
Eu163 Eu 1.00091 0.04074 0.5917 0.0
N164 N 1.00819 0.02904 0.40907 0.0
C165 C 0.01821 0.04756 0.33816 0.0
C166 C 0.02177 1.01061 0.2054 0.0
C167 C 0.02658 0.03824 0.23774 0.0
H168 H 0.95226 0.9947 0.67216 0.0
H169 H 0.03705 0.05226 0.18613 0.0
H170 H 1.00399 0.95797 0.16148 0.0
H171 H 0.93061 0.95105 0.61125 0.0
H172 H 0.0216 0.06916 0.362 0.0
H173 H 1.00745 0.09693 0.07924 0.0
H174 H 0.02799 1.00355 0.12703 0.0
H175 H 0.11873 1.01145 0.71858 0.0
H176 H 1.0061 0.05867 0.95161 0.0
H177 H 0.16401 0.0345 0.74428 0.0
H178 H 0.97344 0.93085 0.27571 0.0
H179 H 0.05167 0.12065 0.1197 0.0
H180 H 0.10249 0.12512 0.08643 0.0
H181 H 0.9444 0.92907 0.44034 0.0
H182 H 0.14461 0.10927 0.99168 0.0
N183 N 0.04971 0.05866 0.91566 0.0
C184 C 0.026 0.06758 0.96746 0.0
C185 C 0.05142 0.10328 0.06314 0.0
C186 C 0.07568 0.09431 0.0114 0.0
C187 C 0.02647 0.08996 0.04049 0.0
C188 C 0.07423 0.07172 0.93717 0.0
H189 H 0.16733 0.07659 0.86093 0.0
N190 N 0.09611 0.04122 0.81329 0.0
C191 C 0.14558 0.04293 0.78323 0.0
C192 C 0.09794 0.06303 0.88332 0.0
C193 C 0.11984 0.03012 0.76807 0.0
C194 C 0.14739 0.06655 0.84935 0.0
C195 C 0.12366 0.07637 0.90284 0.0
O196 O 0.08147 0.99733 0.8748 0.0
O197 O 0.02183 1.0034 0.66085 0.0
O198 O 0.97693 0.03306 0.74397 0.0
O199 O 1.00878 1.01548 0.86284 0.0
O200 O 0.06301 0.99133 0.64787 0.0
O201 O 0.03902 0.9842 0.86969 0.0
O202 O 0.95829 0.05274 0.63476 0.0
O203 O 0.02404 0.05682 0.73548 0.0
O204 O 0.07672 0.0337 0.64012 0.0
O205 O 0.04418 0.04662 0.51596 0.0
O206 O 0.02247 0.08303 0.60994 0.0
O207 O 0.97731 0.07067 0.49985 0.0
C208 C 0.03844 0.98669 0.61104 0.0
C209 C 0.07276 0.94967 0.83199 0.0
C210 C 0.05722 0.90404 0.76375 0.0
C211 C 0.05423 0.92726 0.83395 0.0
C212 C 0.07973 0.90337 0.69268 0.0
C213 C 0.09583 0.94788 0.76352 0.0
C214 C 0.09912 0.92497 0.694 0.0
C215 C 0.98292 0.02201 0.83539 0.0
C216 C 0.06463 0.97651 0.88479 0.0
C217 C 0.12505 0.09882 0.9759 0.0
C218 C 0.10112 0.10774 0.03018 0.0
C219 C 0.03158 0.08082 0.70459 0.0
C220 C 0.95051 0.10054 0.61359 0.0
C221 C 0.96814 0.12295 0.59387 0.0
C222 C 0.96463 0.14886 0.64666 0.0
C223 C 0.94242 0.15269 0.71763 0.0
C224 C 0.92852 0.10446 0.68577 0.0
C225 C 0.92447 0.13048 0.73714 0.0
C226 C 0.0703 0.04263 0.54582 0.0
C227 C 0.95696 0.07255 0.56762 0.0
H228 H 0.0372 0.92837 0.89004 0.0
H229 H 0.08249 0.88615 0.63645 0.0
H230 H 0.11067 0.96472 0.75993 0.0
H231 H 0.1165 0.9242 0.63953 0.0
H232 H 0.98481 0.12034 0.53669 0.0
H233 H 0.93908 0.1727 0.7579 0.0
H234 H 0.91479 0.08733 0.70355 0.0
H235 H 0.9075 0.13337 0.7927 0.0
Eu236 Eu 0.53439 0.06037 0.80288 0.0
C237 C 0.58018 0.98954 0.48065 0.0
C238 C 0.57783 1.00937 0.30826 0.0
C239 C 0.61969 0.98487 0.36064 0.0
C240 C 0.56576 1.0043 0.40724 0.0
C241 C 0.60673 0.97824 0.45588 0.0
C242 C 0.6054 1.00084 0.28748 0.0
C243 C 0.60497 0.95359 0.61845 0.0
N244 N 0.56745 0.98457 0.57359 0.0
C245 C 0.57908 0.96604 0.64085 0.0
C246 C 0.61909 0.96007 0.52634 0.0
Eu247 Eu 0.52301 1.00592 0.60584 0.0
N248 N 0.53888 1.01113 0.4286 0.0
C249 C 0.52177 1.01859 0.34809 0.0
C250 C 0.56132 0.02147 0.23138 0.0
C251 C 0.53292 0.02524 0.25032 0.0
H252 H 0.56855 0.96041 0.71175 0.0
H253 H 0.51966 0.03337 0.19006 0.0
H254 H 0.6152 1.00501 0.21268 0.0
H255 H 0.6141 0.93917 0.67278 0.0
H256 H 0.49963 0.02106 0.36164 0.0
H257 H 0.4709 1.01316 0.1105 0.0
H258 H 0.56992 0.02655 0.15553 0.0
H259 H 0.5314 0.12832 0.73042 0.0
H260 H 0.51056 1.01749 0.99297 0.0
H261 H 0.49861 0.16797 0.73568 0.0
H262 H 0.64041 0.97709 0.34163 0.0
H263 H 0.43439 0.04973 0.11805 0.0
H264 H 0.41688 0.09582 0.05783 0.0
H265 H 0.63931 0.95071 0.50984 0.0
H266 H 0.4239 0.13755 0.95291 0.0
N267 N 0.49654 0.05518 0.92405 0.0
C268 C 0.49471 0.03324 0.99042 0.0
C269 C 0.45175 0.05158 0.06407 0.0
C270 C 0.45431 0.07477 1.00066 0.0
C271 C 0.47222 0.03088 0.05966 0.0
C272 C 0.47728 0.0761 0.93098 0.0
H273 H 0.45422 0.16461 0.83295 0.0
N274 N 0.50432 0.10078 0.81091 0.0
C275 C 0.49315 0.14868 0.77295 0.0
C276 C 0.48109 0.09942 0.87146 0.0
C277 C 0.51144 0.12585 0.76844 0.0
C278 C 0.46815 0.14671 0.82785 0.0
C279 C 0.46223 0.12222 0.8807 0.0
O280 O 0.55443 0.09685 0.87585 0.0
O281 O 0.5566 0.02988 0.69138 0.0
O282 O 0.52636 0.98514 0.76449 0.0
O283 O 0.54812 1.01839 0.8715 0.0
O284 O 0.5691 0.07118 0.68907 0.0
O285 O 0.56116 0.05641 0.94032 0.0
O286 O 0.51506 0.96176 0.63421 0.0
O287 O 0.50332 0.02926 0.74377 0.0
O288 O 0.52605 0.08266 0.64795 0.0
O289 O 0.51702 0.04751 0.52336 0.0
O290 O 0.47958 0.02579 0.61125 0.0
O291 O 0.49404 0.98182 0.508 0.0
C292 C 0.57414 0.04638 0.65084 0.0
C293 C 0.59944 0.08709 0.93176 0.0
C294 C 0.6465 0.07021 0.89039 0.0
C295 C 0.61766 0.06564 0.89698 0.0
C296 C 0.65646 0.09743 0.91324 0.0
C297 C 0.60986 0.11385 0.95439 0.0
C298 C 0.63822 0.11903 0.94386 0.0
C299 C 0.53991 0.99228 0.85118 0.0
C300 C 0.56936 0.08223 0.93864 0.0
C301 C 0.43872 0.1204 0.94591 0.0
C302 C 0.43479 0.09672 1.00598 0.0
C303 C 0.47928 0.03476 0.70801 0.0
C304 C 0.46828 0.94943 0.60694 0.0
C305 C 0.44327 0.9632 0.58436 0.0
C306 C 0.41782 0.95357 0.62298 0.0
C307 C 0.41732 0.92991 0.68542 0.0
C308 C 0.46762 0.92592 0.6707 0.0
C309 C 0.44225 0.91632 0.70997 0.0
C310 C 0.51953 0.07427 0.5512 0.0
C311 C 0.495 0.95998 0.5666 0.0
H312 H 0.6093 0.04525 0.87709 0.0
H313 H 0.67848 0.102 0.91251 0.0
H314 H 0.59601 0.13076 0.97954 0.0
H315 H 0.64621 0.13972 0.96197 0.0
H316 H 0.44336 0.98119 0.53439 0.0
H317 H 0.39777 0.92198 0.71457 0.0
H318 H 0.48668 0.91503 0.69013 0.0
H319 H 0.4419 0.89814 0.75874 0.0
Eu320 Eu 0.54467 0.52175 0.55872 0.0
C321 C 0.43422 0.50586 0.7614 0.0
C322 C 0.40279 0.53243 0.65295 0.0
C323 C 0.38618 0.49082 0.73706 0.0
C324 C 0.42945 0.52842 0.69738 0.0
C325 C 0.41221 0.48747 0.78476 0.0
C326 C 0.38152 0.51318 0.67102 0.0
C327 C 0.44179 0.46578 0.9118 0.0
N328 N 0.4596 0.50296 0.8068 0.0
C329 C 0.46285 0.48445 0.8868 0.0
C330 C 0.41652 0.46691 0.85901 0.0
Eu331 Eu 0.49408 0.5367 0.76101 0.0
N332 N 0.45032 0.54698 0.68139 0.0
C333 C 0.44534 0.57025 0.62403 0.0
C334 C 0.39803 0.55593 0.59273 0.0
C335 C 0.41934 0.57502 0.57902 0.0
H336 H 0.48235 0.48307 0.92797 0.0
H337 H 0.41593 0.59325 0.53206 0.0
H338 H 0.36112 0.51586 0.63657 0.0
H339 H 0.4451 0.45054 0.9719 0.0
H340 H 0.46148 0.5847 0.60735 0.0
H341 H 0.6225 0.45653 0.75734 0.0
H342 H 0.37794 0.55961 0.55701 0.0
H343 H 0.55977 0.57614 0.39958 0.0
H344 H 0.57825 0.46629 0.67529 0.0
H345 H 0.59758 0.60945 0.37167 0.0
H346 H 0.36924 0.47672 0.75331 0.0
H347 H 0.65953 0.492 0.76122 0.0
H348 H 0.67644 0.53851 0.70688 0.0
H349 H 0.40013 0.45251 0.87898 0.0
H350 H 0.6695 0.58053 0.60372 0.0
N351 N 0.58816 0.50821 0.63437 0.0
C352 C 0.59336 0.4826 0.67621 0.0
C353 C 0.63976 0.49669 0.72476 0.0
C354 C 0.63522 0.52214 0.67635 0.0
C355 C 0.61894 0.47664 0.7227 0.0
C356 C 0.60899 0.52736 0.63023 0.0
H357 H 0.64057 0.60674 0.47677 0.0
N358 N 0.58028 0.55516 0.52384 0.0
C359 C 0.59984 0.59349 0.42974 0.0
C360 C 0.6049 0.55147 0.57386 0.0
C361 C 0.57848 0.57439 0.44571 0.0
C362 C 0.62397 0.59196 0.48952 0.0
C363 C 0.62715 0.57029 0.56005 0.0
O364 O 0.54016 0.52825 0.39081 0.0
O365 O 0.49992 0.536 0.58623 0.0
O366 O 0.49868 0.48904 0.73764 0.0
O367 O 0.53513 0.47833 0.6225 0.0
O368 O 0.50597 0.50096 0.49166 0.0
O369 O 0.56686 0.49489 0.44462 0.0
O370 O 0.49776 0.53233 0.93003 0.0
O371 O 0.53867 0.52223 0.73243 0.0
O372 O 0.5398 0.56996 0.58421 0.0
O373 O 0.50252 0.57987 0.69661 0.0
O374 O 0.53324 0.5565 0.83072 0.0
O375 O 0.47142 0.56503 0.86865 0.0
C376 C 0.48745 0.51825 0.52714 0.0
C377 C 0.54125 0.48704 0.28882 0.0
C378 C 0.51304 0.44573 0.25463 0.0
C379 C 0.52871 0.46255 0.3236 0.0
C380 C 0.5104 0.45343 0.1491 0.0
C381 C 0.53864 0.49441 0.18353 0.0
C382 C 0.52342 0.47751 0.11384 0.0
C383 C 0.51552 0.47071 0.68938 0.0
C384 C 0.55485 0.50618 0.364 0.0
C385 C 0.65245 0.56602 0.61193 0.0
C386 C 0.65645 0.54203 0.67021 0.0
C387 C 0.55152 0.53942 0.79207 0.0
C388 C 0.49684 0.57463 0.02402 0.0
C389 C 0.50766 0.59962 0.98639 0.0
C390 C 0.52442 0.61654 0.05066 0.0
C391 C 0.52997 0.60862 0.15419 0.0
C392 C 0.50224 0.567 0.12765 0.0
C393 C 0.51868 0.58406 0.19258 0.0
C394 C 0.5225 0.58804 0.63253 0.0
C395 C 0.48313 0.55477 0.95197 0.0
H396 H 0.53073 0.45674 0.40498 0.0
H397 H 0.49904 0.44041 0.09323 0.0
H398 H 0.5481 0.51335 0.15564 0.0
H399 H 0.52188 0.48307 0.03233 0.0
H400 H 0.50377 0.6056 0.90616 0.0
H401 H 0.54247 0.62175 0.20599 0.0
H402 H 0.4943 0.54758 0.15736 0.0
H403 H 0.52274 0.57815 0.2725 0.0
Eu404 Eu 0.03618 0.55385 0.55501 0.0
C405 C 0.99895 0.45968 0.8852 0.0
C406 C 0.96876 0.42837 0.7867 0.0
C407 C 0.98293 0.4167 0.96296 0.0
C408 C 0.98353 0.45382 0.79588 0.0
C409 C 0.99852 0.44138 0.97024 0.0
C410 C 0.96851 0.40996 0.87066 0.0
C411 C 0.02851 0.47345 0.06512 0.0
N412 N 1.01374 0.48369 0.89058 0.0
C413 C 0.02915 0.49038 0.97777 0.0
C414 C 1.013 0.44888 0.06162 0.0
Eu415 Eu 1.00421 0.51725 0.76277 0.0
N416 N 0.98325 0.4727 0.71778 0.0
C417 C 0.96955 0.46609 0.62563 0.0
C418 C 0.95449 0.42214 0.69377 0.0
C419 C 0.95519 0.44093 0.61252 0.0
H420 H 0.04017 0.50997 0.98325 0.0
H421 H 0.9447 0.43606 0.5392 0.0
H422 H 0.95698 0.39057 0.86536 0.0
H423 H 0.03907 0.48007 0.1362 0.0
H424 H 0.97022 0.47925 0.55847 0.0
H425 H 0.10329 0.62897 0.76628 0.0
H426 H 0.94312 0.40276 0.68356 0.0
H427 H 0.99509 0.57021 0.34525 0.0
H428 H 0.09038 0.58332 0.69078 0.0
H429 H 0.96845 0.61082 0.2836 0.0
H430 H 0.98204 0.4026 0.02805 0.0
H431 H 0.07349 0.67038 0.73766 0.0
H432 H 0.03204 0.69121 0.64905 0.0
H433 H 1.01185 0.43606 0.13021 0.0
H434 H 0.99486 0.68613 0.51771 0.0
N435 N 0.05291 0.59785 0.6206 0.0
C436 C 0.07698 0.60086 0.67678 0.0
C437 C 0.06773 0.65025 0.70339 0.0
C438 C 0.04427 0.6475 0.63943 0.0
C439 C 0.08459 0.62695 0.71959 0.0
C440 C 0.03767 0.62079 0.59664 0.0
H441 H 0.97214 0.65664 0.37687 0.0
N442 N 1.01272 0.59246 0.47648 0.0
C443 C 0.982 0.61316 0.35086 0.0
C444 C 1.01677 0.61797 0.52292 0.0
C445 C 0.99721 0.59025 0.38604 0.0
C446 C 0.98388 0.63889 0.40449 0.0
C447 C 1.00197 0.64175 0.48987 0.0
O448 O 0.04564 0.55581 0.38814 0.0
O449 O 0.02907 0.50982 0.61237 0.0
O450 O 0.0509 0.50717 0.7783 0.0
O451 O 0.07148 0.5389 0.66606 0.0
O452 O 0.02083 0.51651 0.45755 0.0
O453 O 0.07933 0.55324 0.4992 0.0
O454 O 0.98389 0.52104 0.91726 0.0
O455 O 1.01639 0.56041 0.71284 0.0
O456 O 0.98857 0.55851 0.54288 0.0
O457 O 0.97085 0.52226 0.63727 0.0
O458 O 0.02996 0.54852 0.85854 0.0
O459 O 0.9662 0.54215 0.78627 0.0
C460 C 0.02254 0.49722 0.52603 0.0
C461 C 0.08506 0.53093 0.33063 0.0
C462 C 0.11351 0.489 0.30172 0.0
C463 C 0.10115 0.50901 0.37047 0.0
C464 C 0.10918 0.49106 0.19259 0.0
C465 C 0.08079 0.53235 0.22181 0.0
C466 C 0.0927 0.5124 0.15332 0.0
C467 C 0.0733 0.52005 0.74117 0.0
C468 C 0.07221 0.55242 0.40033 0.0
C469 C 1.0066 0.66782 0.53991 0.0
C470 C 0.02779 0.67071 0.61453 0.0
C471 C 0.02847 0.56926 0.79629 0.0
C472 C 0.96274 0.56546 0.95083 0.0
C473 C 0.93826 0.58127 0.94212 0.0
C474 C 0.93521 0.60775 0.99353 0.0
C475 C 0.95801 0.61815 0.05193 0.0
C476 C 0.98417 0.57544 0.01598 0.0
C477 C 0.9819 0.6018 0.06492 0.0
C478 C 0.96779 0.54185 0.56742 0.0
C479 C 0.96565 0.53927 0.88743 0.0
H480 H 0.10451 0.50775 0.45441 0.0
H481 H 0.11925 0.47668 0.13691 0.0
H482 H 0.06832 0.54902 0.18975 0.0
H483 H 0.08963 0.5138 0.06937 0.0
H484 H 0.92144 0.57202 0.89731 0.0
H485 H 0.9575 0.63867 0.08972 0.0
H486 H 1.00297 0.56331 0.02707 0.0
H487 H 0.99888 0.60975 0.11249 0.0
H488 H 0.15368 0.07076 0.17112 0.0
H489 H 0.20714 1.01465 0.33905 0.0
H490 H 0.1713 1.01021 0.47445 0.0
H491 H 0.1234 0.01971 0.54052 0.0
H492 H 0.07032 0.07606 0.37327 0.0
H493 H 0.10671 0.08186 0.24139 0.0
C494 C 0.15766 0.05742 0.2369 0.0
C495 C 0.18355 0.04298 0.243 0.0
C496 C 0.13661 0.05455 0.31449 0.0
C497 C 0.18794 0.02638 0.33133 0.0
C498 C 0.16719 0.02357 0.40884 0.0
C499 C 0.11983 0.03368 0.47657 0.0
C500 C 0.09361 0.04723 0.46787 0.0
C501 C 0.14127 0.03727 0.40082 0.0
C502 C 0.0897 0.06477 0.38203 0.0
C503 C 0.11076 0.06833 0.30654 0.0
H504 H 0.49732 0.14595 0.14419 0.0
H505 H 0.54299 0.20815 0.32298 0.0
H506 H 0.54618 0.17628 0.47053 0.0
H507 H 0.53853 0.12916 0.54525 0.0
H508 H 0.49041 0.06869 0.36726 0.0
H509 H 0.4865 0.10085 0.22335 0.0
C510 C 0.50794 0.15269 0.2155 0.0
C511 C 0.52007 0.17963 0.22116 0.0
C512 C 0.50973 0.13418 0.30027 0.0
C513 C 0.53327 0.18782 0.31565 0.0
C514 C 0.5353 0.16941 0.40009 0.0
C515 C 0.52682 0.12309 0.4759 0.0
C516 C 0.51541 0.09581 0.46757 0.0
C517 C 0.52393 0.14232 0.39304 0.0
C518 C 0.50042 0.08877 0.37571 0.0
C519 C 0.49783 0.10745 0.2932 0.0
H520 H 0.39868 0.55518 0.18669 0.0
H521 H 0.35768 0.48072 0.28945 0.0
H522 H 0.39436 0.47371 0.41929 0.0
H523 H 0.44014 0.487 0.49761 0.0
H524 H 0.48016 0.56211 0.39793 0.0
H525 H 0.44257 0.5701 0.27228 0.0
C526 C 0.39762 0.53739 0.23744 0.0
C527 C 0.37511 0.51845 0.2266 0.0
C528 C 0.41899 0.5334 0.31245 0.0
C529 C 0.37429 0.49587 0.2954 0.0
C530 C 0.39554 0.49167 0.36946 0.0
C531 C 0.44036 0.50534 0.4494 0.0
C532 C 0.46274 0.52431 0.45926 0.0
C533 C 0.41825 0.51004 0.3779 0.0
C534 C 0.46297 0.54758 0.39414 0.0
C535 C 0.44145 0.55208 0.32183 0.0
H536 H 0.02566 0.36854 0.36329 0.0
H537 H 0.07198 0.40604 0.11269 0.0
H538 H 0.07107 0.45048 0.20714 0.0
H539 H 0.04881 0.48167 0.34202 0.0
H540 H 0.01994 0.44413 0.62474 0.0
H541 H 0.02026 0.39805 0.5351 0.0
C542 C 0.03593 0.38632 0.32971 0.0
C543 C 0.04717 0.38377 0.22568 0.0
C544 C 0.03656 0.41264 0.38754 0.0
C545 C 0.06162 0.40714 0.18854 0.0
C546 C 0.06112 0.43298 0.24288 0.0
C547 C 0.04302 0.46357 0.38613 0.0
C548 C 0.031 0.46756 0.48767 0.0
C549 C 0.04711 0.43651 0.33906 0.0
C550 C 0.02572 0.44294 0.54308 0.0
C551 C 0.02683 0.41611 0.49209 0.0
H552 H 0.90226 1.00295 0.22576 0.0
H553 H 0.84387 0.04645 0.03114 0.0
H554 H 0.87909 0.04845 0.89129 0.0
H555 H 0.92771 0.03994 0.82687 0.0
H556 H 0.98535 0.99642 0.02479 0.0
H557 H 0.94948 0.99304 0.16015 0.0
C558 C 0.89707 1.01303 0.15307 0.0
C559 C 0.87013 0.02478 0.14073 0.0
C560 C 0.91761 1.0144 0.07314 0.0
C561 C 0.86409 0.03703 0.04391 0.0
C562 C 0.88443 0.03838 0.9638 0.0
C563 C 0.93249 0.02955 0.89927 0.0
C564 C 0.95975 1.01877 0.91503 0.0
C565 C 0.91145 0.02744 0.9778 0.0
C566 C 0.96505 1.00534 0.01004 0.0
C567 C 0.9444 1.00325 0.08776 0.0
H568 H 0.57343 0.914 0.22843 0.0
H569 H 0.51219 0.86015 0.08264 0.0
H570 H 0.5053 0.89416 0.94427 0.0
H571 H 0.51523 0.94044 0.86777 0.0
H572 H 0.57719 0.99345 0.01347 0.0
H573 H 0.58496 0.95868 0.14778 0.0
C574 C 0.55846 0.90959 0.16671 0.0
C575 C 0.54323 0.88429 0.16757 0.0
C576 C 0.55449 0.92939 0.08725 0.0
C577 C 0.52442 0.8791 0.08472 0.0
C578 C 0.52031 0.89874 1.0056 0.0
C579 C 0.53049 0.94446 0.92879 0.0
C580 C 0.54519 0.97012 0.93095 0.0
C581 C 0.53501 0.92415 0.00645 0.0
C582 C 0.56498 0.97451 0.01079 0.0
C583 C 0.56955 0.9545 0.08765 0.0
H584 H 0.64701 0.49756 0.0964 0.0
H585 H 0.68157 0.57795 0.02644 0.0
H586 H 0.64266 0.58685 0.90756 0.0
H587 H 0.59675 0.57307 0.83089 0.0
H588 H 0.56328 0.49218 0.89842 0.0
H589 H 0.603 0.48269 0.01254 0.0
C590 C 0.6462 0.51706 0.05512 0.0
C591 C 0.6675 0.5371 0.072 0.0
C592 C 0.62351 0.52216 0.98706 0.0
C593 C 0.66592 0.56195 0.01535 0.0
C594 C 0.64339 0.56721 0.94788 0.0
C595 C 0.59838 0.55324 0.86971 0.0
C596 C 0.57724 0.53308 0.85397 0.0
C597 C 0.62178 0.54768 0.93423 0.0
C598 C 0.57945 0.50776 0.90683 0.0
C599 C 0.6022 0.50237 0.97252 0.0
H600 H 1.00212 0.68965 0.01406 0.0
H601 H 0.07849 0.6691 0.17283 0.0
H602 H 0.08343 0.62667 0.06505 0.0
H603 H 0.06447 0.59237 0.9374 0.0
H604 H 0.99049 0.61249 0.7652 0.0
H605 H 0.98667 0.65757 0.86296 0.0
C606 C 0.02021 0.67631 0.02331 0.0
C607 C 0.03958 0.68283 0.10481 0.0
C608 C 0.02341 0.65144 0.95818 0.0
C609 C 0.06281 0.6648 0.11369 0.0
C610 C 0.06575 0.64029 0.05158 0.0
C611 C 0.04773 0.60682 0.91972 0.0
C612 C 0.02801 0.59885 0.84261 0.0
C613 C 0.04586 0.63289 0.97571 0.0
C614 C 1.00635 0.61799 0.82221 0.0
C615 C 1.0041 0.64388 0.87894 0.0
H616 H 0.04982 0.20949 0.37957 0.0
H617 H 0.97752 0.26035 0.32142 0.0
H618 H 0.9534 0.2404 0.4712 0.0
H619 H 0.94954 0.2006 0.58804 0.0
H620 H 0.02116 0.14769 0.63354 0.0
H621 H 0.04938 0.1771 0.5249 0.0
C622 C 0.02912 0.2167 0.40225 0.0
C623 C 1.01509 0.23571 0.33976 0.0
C624 C 1.01531 0.20479 0.48664 0.0
C625 C 0.98844 0.24543 0.36904 0.0
C626 C 0.97466 0.23398 0.45415 0.0
C627 C 0.97162 0.19635 0.57798 0.0
C628 C 0.98319 0.17189 0.61794 0.0
C629 C 0.98734 0.21248 0.50959 0.0
C630 C 1.01182 0.16648 0.60438 0.0
C631 C 0.0279 0.18305 0.54038 0.0
H632 H 0.34196 0.03394 0.38253 0.0
H633 H 0.31773 0.95607 0.23292 0.0
H634 H 0.34134 0.9299 0.36995 0.0
H635 H 0.37642 0.92986 0.51032 0.0
H636 H 0.40333 1.00803 0.64982 0.0
H637 H 0.37038 0.03363 0.54261 0.0
C638 C 0.34123 1.01127 0.38242 0.0
C639 C 0.32849 0.99672 0.29883 0.0
C640 C 0.35535 0.99655 0.45969 0.0
C641 C 0.32755 0.96743 0.29751 0.0
C642 C 0.3411 0.95256 0.37533 0.0
C643 C 0.37411 0.95237 0.52005 0.0
C644 C 0.39211 0.96722 0.58739 0.0
C645 C 0.35613 0.96692 0.45401 0.0
C646 C 0.38941 0.99638 0.59886 0.0
C647 C 0.37087 1.01097 0.53649 0.0
H648 H 0.50099 0.31976 0.30093 0.0
H649 H 0.42584 0.33692 0.13262 0.0
H650 H 0.42789 0.38609 0.18801 0.0
H651 H 0.46125 0.42459 0.22023 0.0
H652 H 0.53951 0.40677 0.37037 0.0
H653 H 0.52653 0.35798 0.38606 0.0
C654 C 0.48409 0.33396 0.28233 0.0
C655 C 0.46477 0.32572 0.20534 0.0
C656 C 0.48718 0.36258 0.30579 0.0
C657 C 0.44183 0.34339 0.18775 0.0
C658 C 0.44353 0.37177 0.21659 0.0
C659 C 0.47505 0.41011 0.25896 0.0
C660 C 0.5017 0.41888 0.29012 0.0
C661 C 0.46781 0.38184 0.26494 0.0
C662 C 0.51908 0.40034 0.34376 0.0
C663 C 0.51169 0.37238 0.3527 0.0
H664 H 0.21625 0.42887 0.19884 0.0
H665 H 0.24666 0.5004 0.37337 0.0
H666 H 0.2039 0.50293 0.47616 0.0
H667 H 0.15389 0.49986 0.44463 0.0
H668 H 0.12185 0.43372 0.24313 0.0
H669 H 0.16826 0.41351 0.22453 0.0
C670 C 0.21413 0.44369 0.26466 0.0
C671 C 0.23306 0.4659 0.27315 0.0
C672 C 0.18819 0.44684 0.3145 0.0
C673 C 0.23143 0.484 0.36178 0.0
C674 C 0.20659 0.48586 0.41902 0.0
C675 C 0.15671 0.48011 0.40172 0.0
C676 C 0.13496 0.46929 0.33955 0.0
C677 C 0.18379 0.46982 0.3854 0.0
C678 C 0.13868 0.44317 0.28757 0.0
C679 C 0.16531 0.43167 0.27643 0.0
H680 H 0.01808 0.80002 0.96978 0.0
H681 H 0.95662 0.85957 0.08531 0.0
H682 H 0.96532 0.8888 0.93445 0.0
H683 H 1.00173 0.90428 0.81483 0.0
H684 H 0.06983 0.84822 0.73276 0.0
H685 H 0.04634 0.8104 0.81823 0.0
C686 C 1.00549 0.81865 0.95948 0.0
C687 C 0.98776 0.82842 0.04105 0.0
C688 C 1.01248 0.83645 0.87852 0.0
C689 C 0.97109 0.85217 0.025 0.0
C690 C 0.97633 0.86903 0.93936 0.0
C691 C 1.01127 0.88367 0.81425 0.0
C692 C 0.0384 0.87968 0.77365 0.0
C693 C 0.99898 0.86267 0.87261 0.0
C694 C 0.04942 0.85237 0.76617 0.0
C695 C 0.03608 0.83064 0.81634 0.0
H696 H 0.75036 1.01033 0.01007 0.0
H697 H 0.68981 0.95677 0.151 0.0
H698 H 0.65447 0.97291 0.0298 0.0
H699 H 0.63897 1.01552 0.94578 0.0
H700 H 0.69935 0.06937 0.80252 0.0
H701 H 0.73683 0.0393 0.86223 0.0
C702 C 0.72994 1.0008 0.01043 0.0
C703 C 0.72181 0.9845 0.09559 0.0
C704 C 0.70946 1.01125 0.94364 0.0
C705 C 0.69598 0.97083 0.0899 0.0
C706 C 0.67559 0.98042 0.02159 0.0
C707 C 0.66007 0.02029 0.92243 0.0
C708 C 0.66644 0.04621 0.87796 0.0
C709 C 0.68155 1.00298 0.95731 0.0
C710 C 0.69398 0.05077 0.84446 0.0
C711 C 0.71548 0.03341 0.87772 0.0
H712 H 0.5369 0.74248 0.03874 0.0
H713 H 0.61929 0.71979 0.13598 0.0
H714 H 0.61296 0.67235 0.06557 0.0
H715 H 0.57745 0.6354 0.04793 0.0
H716 H 0.49329 0.65791 0.96826 0.0
H717 H 0.50636 0.70702 0.96015 0.0
C718 C 0.55409 0.72762 0.03772 0.0
C719 C 0.5776 0.73353 0.09914 0.0
C720 C 0.54914 0.69982 1.006 0.0
C721 C 0.60046 0.71504 0.09264 0.0
C722 C 0.5965 0.68763 0.05522 0.0
C723 C 0.56233 0.65104 0.02518 0.0
C724 C 0.53433 0.64357 0.01303 0.0
C725 C 0.56985 0.67926 0.02334 0.0
C726 C 0.51488 0.66353 0.9803 0.0
C727 C 0.52234 0.69159 0.97575 0.0
H728 H 0.82127 0.63261 0.18195 0.0
H729 H 0.80123 0.57473 0.92957 0.0
H730 H 0.84249 0.58894 0.83236 0.0
H731 H 0.89102 0.6031 0.85411 0.0
H732 H 0.91495 0.64645 0.143 0.0
H733 H 0.86678 0.65436 0.18678 0.0
C734 C 0.82523 0.62441 0.10278 0.0
C735 C 0.80934 0.60171 0.06508 0.0
C736 C 0.85109 0.62937 0.05589 0.0
C737 C 0.81373 0.59169 0.96155 0.0
C738 C 0.8378 0.59932 0.90726 0.0
C739 C 0.88596 0.61407 0.92737 0.0
C740 C 0.90723 0.622 0.99847 0.0
C741 C 0.85801 0.61558 0.95956 0.0
C742 C 0.89971 0.63891 0.08704 0.0
C743 C 0.87179 0.64334 0.11338 0.0
H744 H 0.07309 0.19501 0.93266 0.0
H745 H 0.98552 0.20178 1.00396 0.0
H746 H 0.97725 0.15679 0.91445 0.0
H747 H 0.99456 0.11405 0.81874 0.0
H748 H 0.08095 0.10858 0.73022 0.0
H749 H 0.08989 0.15353 0.82203 0.0
C750 C 0.05207 0.1871 0.92586 0.0
C751 C 0.02987 0.2026 0.97435 0.0
C752 C 0.04727 0.1607 0.87263 0.0
C753 C 1.00298 0.19104 0.96624 0.0
C754 C 0.99823 0.16495 0.91575 0.0
C755 C 1.01545 0.12246 0.821 0.0
C756 C 0.03733 0.10693 0.7714 0.0
C757 C 0.02019 0.14925 0.86998 0.0
C758 C 0.0639 0.11924 0.7708 0.0
C759 C 0.06895 0.14528 0.82256 0.0
H760 H 0.37751 0.99586 0.98693 0.0
H761 H 0.34413 0.07645 0.90771 0.0
H762 H 0.38529 0.08461 0.79727 0.0
H763 H 0.43271 0.06962 0.72961 0.0
H764 H 0.46588 0.99011 0.82249 0.0
H765 H 0.42337 0.98107 0.92135 0.0
C766 C 0.3791 1.01545 0.9466 0.0
C767 C 0.35742 0.03565 0.95815 0.0
C768 C 0.40325 0.02035 0.8859 0.0
C769 C 0.36003 0.06034 0.90107 0.0
C770 C 0.38384 0.06513 0.8383 0.0
C771 C 0.43063 0.05043 0.77221 0.0
C772 C 0.45301 0.03087 0.7707 0.0
C773 C 0.4059 0.04548 0.83133 0.0
C774 C 0.44952 1.00584 0.82437 0.0
C775 C 0.42505 1.00059 0.88063 0.0
H776 H 0.4699 0.35403 0.83684 0.0
H777 H 0.55666 0.33865 0.89764 0.0
H778 H 0.56871 0.38263 0.81314 0.0
H779 H 0.55372 0.42883 0.74184 0.0
H780 H 0.46624 0.44401 0.69227 0.0
H781 H 0.45545 0.3974 0.75314 0.0
C782 C 0.49158 0.35988 0.82938 0.0
C783 C 0.51231 0.34261 0.87365 0.0
C784 C 0.4982 0.38577 0.78433 0.0
C785 C 0.54022 0.35095 0.86325 0.0
C786 C 0.54707 0.37647 0.81612 0.0
C787 C 0.53239 0.42172 0.74178 0.0
C788 C 0.51081 0.44029 0.71186 0.0
C789 C 0.52615 0.39457 0.77911 0.0
C790 C 0.48327 0.43051 0.71494 0.0
C791 C 0.47705 0.40371 0.74983 0.0
H792 H 0.17956 0.47017 0.97101 0.0
H793 H 0.21526 0.54971 0.8949 0.0
H794 H 0.1727 0.56148 0.79864 0.0
H795 H 0.12339 0.55041 0.74529 0.0
H796 H 0.08752 0.47283 0.84389 0.0
H797 H 0.13139 0.45995 0.92487 0.0
C798 C 0.17826 0.49047 0.93562 0.0
C799 C 0.20121 0.50914 0.94381 0.0
C800 C 0.15312 0.49771 0.88465 0.0
C801 C 0.19859 0.53461 0.89122 0.0
C802 C 0.17389 0.54153 0.83663 0.0
C803 C 0.12509 0.53064 0.78404 0.0
C804 C 0.10153 0.51268 0.78718 0.0
C805 C 0.15071 0.52345 0.83412 0.0
C806 C 0.10474 0.48725 0.8392 0.0
C807 C 0.13006 0.47976 0.88581 0.0
H808 H 0.99451 0.8635 0.48463 0.0
H809 H 0.06443 0.86629 0.2726 0.0
H810 H 0.07624 0.91306 0.34162 0.0
H811 H 0.06527 0.95505 0.45598 0.0
H812 H 0.99837 0.95061 0.68032 0.0
H813 H 0.98671 0.90359 0.61292 0.0
C814 C 1.01286 0.87394 0.45576 0.0
C815 C 0.02897 0.86063 0.37464 0.0
C816 C 0.0196 0.90127 0.49623 0.0
C817 C 0.0521 0.8753 0.33668 0.0
C818 C 0.05865 0.90239 0.37536 0.0
C819 C 0.04798 0.94388 0.4897 0.0
C820 C 0.03148 0.95753 0.56876 0.0
C821 C 0.04228 0.91593 0.4538 0.0
C822 C 1.0102 0.94179 0.61466 0.0
C823 C 1.00391 0.91447 0.57743 0.0
H824 H 0.69745 1.00188 0.54861 0.0
H825 H 0.69118 0.06428 0.31238 0.0
H826 H 0.6449 0.07782 0.37743 0.0
H827 H 0.60411 0.06944 0.49253 0.0
H828 H 0.61098 1.00926 0.73605 0.0
H829 H 0.65879 0.998 0.68013 0.0
C830 C 0.68643 1.0192 0.51419 0.0
C831 C 0.69836 0.0325 0.42689 0.0
C832 C 0.65943 0.02691 0.55218 0.0
C833 C 0.68308 0.05423 0.38129 0.0
C834 C 0.65631 0.06171 0.41759 0.0
C835 C 0.61602 0.05367 0.53274 0.0
C836 C 0.60322 0.03902 0.61466 0.0
C837 C 0.64389 0.0477 0.50111 0.0
C838 C 0.61959 0.01975 0.66913 0.0
C839 C 0.64719 1.01359 0.63793 0.0
H840 H 0.50909 0.71259 0.46829 0.0
H841 H 0.59861 0.70747 0.46991 0.0
H842 H 0.59657 0.66146 0.54805 0.0
H843 H 0.56932 0.62006 0.59985 0.0
H844 H 0.47993 0.62655 0.6122 0.0
H845 H 0.48196 0.67391 0.54762 0.0
C846 C 0.52815 0.70198 0.48989 0.0
C847 C 0.55403 0.71404 0.46403 0.0
C848 C 0.52686 0.67507 0.53529 0.0
C849 C 0.57841 0.69922 0.49043 0.0
C850 C 0.57726 0.67256 0.53392 0.0
C851 C 0.55026 0.63175 0.58801 0.0
C852 C 0.52442 0.61872 0.60682 0.0
C853 C 0.5516 0.65979 0.55361 0.0
C854 C 0.50014 0.63511 0.5958 0.0
C855 C 0.50127 0.66258 0.559 0.0
H856 H 0.85523 0.58778 0.37283 0.0
H857 H 0.83372 0.50037 0.36383 0.0
H858 H 0.87767 0.48941 0.45339 0.0
H859 H 0.92453 0.50457 0.52251 0.0
H860 H 0.94575 0.59201 0.51508 0.0
H861 H 0.90042 0.60269 0.44048 0.0
C862 C 0.85997 0.56617 0.38972 0.0
C863 C 0.84083 0.54493 0.35929 0.0
C864 C 0.88584 0.55992 0.43666 0.0
C865 C 0.84755 0.5173 0.3859 0.0
C866 C 0.87301 0.511 0.43622 0.0
C867 C 0.91923 0.52597 0.50467 0.0
C868 C 0.93919 0.5474 0.52304 0.0
C869 C 0.8927 0.53207 0.46004 0.0
C870 C 0.93152 0.57495 0.49951 0.0
C871 C 0.90531 0.58115 0.45771 0.0
loop_
_geom_bond_atom_site_label_1
_geom_bond_atom_site_label_2
_geom_bond_distance
_geom_bond_site_symmetry_2
_ccdc_geom_bond_type
H0 C1 0.949 . S
C1 H0 0.949 . S
C1 C2 1.395 . S
C1 C3 1.391 . S
C2 C1 1.395 . S
C2 C5 1.390 . S
C3 C1 1.391 . S
C3 C7 1.387 . S
C3 C8 1.491 . S
H4 C5 0.950 . S
C5 C2 1.390 . S
C5 H4 0.950 . S
C5 C6 1.378 . S
C6 C5 1.378 . S
C6 C7 1.409 . S
C7 C3 1.387 . S
C7 C6 1.409 . S
C7 H9 0.951 . S
C8 C3 1.491 . S
C8 C10 1.382 . S
C8 C12 1.404 . S
H9 C7 0.951 . S
C10 C8 1.382 . S
C10 C11 1.390 . S
C10 H15 0.949 . S
C11 C10 1.390 . S
C11 C16 1.399 . S
C12 C8 1.404 . S
C12 H13 0.950 . S
C12 C14 1.375 . S
H13 C12 0.950 . S
C14 C12 1.375 . S
C14 C16 1.382 . S
C14 H18 0.950 . S
H15 C10 0.949 . S
C16 C11 1.399 . S
C16 C14 1.382 . S
C16 H17 0.952 . S
H17 C16 0.952 . S
H18 C14 0.950 . S
H19 C20 0.949 . S
C20 H19 0.949 . S
C20 C21 1.395 . S
C20 C22 1.391 . S
C21 C20 1.395 . S
C21 C24 1.390 . S
C22 C20 1.391 . S
C22 C26 1.387 . S
C22 C27 1.491 . S
H23 C24 0.950 . S
C24 C21 1.390 . S
C24 H23 0.950 . S
C24 C25 1.378 . S
C25 C24 1.378 . S
C25 C26 1.409 . S
C26 C22 1.387 . S
C26 C25 1.409 . S
C26 H28 0.951 . S
C27 C22 1.491 . S
C27 C29 1.382 . S
C27 C31 1.404 . S
H28 C26 0.951 . S
C29 C27 1.382 . S
C29 C30 1.390 . S
C29 H34 0.949 . S
C30 C29 1.390 . S
C30 C35 1.399 . S
C31 C27 1.404 . S
C31 H32 0.950 . S
C31 C33 1.375 . S
H32 C31 0.950 . S
C33 C31 1.375 . S
C33 C35 1.382 . S
C33 H37 0.950 . S
H34 C29 0.949 . S
C35 C30 1.399 . S
C35 C33 1.382 . S
C35 H36 0.952 . S
H36 C35 0.952 . S
H37 C33 0.950 . S
H38 C39 0.949 . S
C39 H38 0.949 . S
C39 C40 1.395 . S
C39 C41 1.391 . S
C40 C39 1.395 . S
C40 C43 1.390 . S
C41 C39 1.391 . S
C41 C45 1.387 . S
C41 C46 1.491 . S
H42 C43 0.950 . S
C43 C40 1.390 . S
C43 H42 0.950 . S
C43 C44 1.378 . S
C44 C43 1.378 . S
C44 C45 1.409 . S
C45 C41 1.387 . S
C45 C44 1.409 . S
C45 H47 0.951 . S
C46 C41 1.491 . S
C46 C48 1.382 . S
C46 C50 1.404 . S
H47 C45 0.951 . S
C48 C46 1.382 . S
C48 C49 1.390 . S
C48 H53 0.949 . S
C49 C48 1.390 . S
C49 C54 1.399 . S
C50 C46 1.404 . S
C50 H51 0.950 . S
C50 C52 1.375 . S
H51 C50 0.950 . S
C52 C50 1.375 . S
C52 C54 1.382 . S
C52 H56 0.950 . S
H53 C48 0.949 . S
C54 C49 1.399 . S
C54 C52 1.382 . S
C54 H55 0.952 . S
H55 C54 0.952 . S
H56 C52 0.950 . S
H57 C58 0.949 . S
C58 H57 0.949 . S
C58 C59 1.395 . S
C58 C60 1.391 . S
C59 C58 1.395 . S
C59 C62 1.390 . S
C60 C58 1.391 . S
C60 C64 1.387 . S
C60 C65 1.491 . S
H61 C62 0.950 . S
C62 C59 1.390 . S
C62 H61 0.950 . S
C62 C63 1.378 . S
C63 C62 1.378 . S
C63 C64 1.409 . S
C64 C60 1.387 . S
C64 C63 1.409 . S
C64 H66 0.951 . S
C65 C60 1.491 . S
C65 C67 1.382 . S
C65 C69 1.404 . S
H66 C64 0.951 . S
C67 C65 1.382 . S
C67 C68 1.390 . S
C67 H72 0.949 . S
C68 C67 1.390 . S
C68 C73 1.399 . S
C69 C65 1.404 . S
C69 H70 0.950 . S
C69 C71 1.375 . S
H70 C69 0.950 . S
C71 C69 1.375 . S
C71 C73 1.382 . S
C71 H75 0.950 . S
H72 C67 0.949 . S
C73 C68 1.399 . S
C73 C71 1.382 . S
C73 H74 0.952 . S
H74 C73 0.952 . S
H75 C71 0.950 . S
H76 C77 0.949 . S
C77 H76 0.949 . S
C77 C78 1.395 . S
C77 C79 1.391 1_554 S
C78 C77 1.395 . S
C78 C81 1.390 1_554 S
C79 C77 1.391 1_556 S
C79 C83 1.387 . S
C79 C84 1.491 . S
H80 C81 0.950 . S
C81 C78 1.390 1_556 S
C81 H80 0.950 . S
C81 C82 1.378 . S
C82 C81 1.378 . S
C82 C83 1.409 . S
C83 C79 1.387 . S
C83 C82 1.409 . S
C83 H85 0.951 . S
C84 C79 1.491 . S
C84 C86 1.382 1_556 S
C84 C88 1.404 . S
H85 C83 0.951 . S
C86 C84 1.382 1_554 S
C86 C87 1.390 . S
C86 H91 0.949 . S
C87 C86 1.390 . S
C87 C92 1.399 1_554 S
C88 C84 1.404 . S
C88 H89 0.950 . S
C88 C90 1.375 . S
H89 C88 0.950 . S
C90 C88 1.375 . S
C90 C92 1.382 . S
C90 H94 0.950 . S
H91 C86 0.949 . S
C92 C87 1.399 1_556 S
C92 C90 1.382 . S
C92 H93 0.952 . S
H93 C92 0.952 . S
H94 C90 0.950 . S
H95 C96 0.949 . S
C96 H95 0.949 . S
C96 C97 1.395 . S
C96 C98 1.391 1_554 S
C97 C96 1.395 . S
C97 C100 1.390 1_554 S
C98 C96 1.391 1_556 S
C98 C102 1.387 . S
C98 C103 1.491 . S
H99 C100 0.950 . S
C100 C97 1.390 1_556 S
C100 H99 0.950 . S
C100 C101 1.378 . S
C101 C100 1.378 . S
C101 C102 1.409 . S
C102 C98 1.387 . S
C102 C101 1.409 . S
C102 H104 0.951 . S
C103 C98 1.491 . S
C103 C105 1.382 1_556 S
C103 C107 1.404 . S
H104 C102 0.951 . S
C105 C103 1.382 1_554 S
C105 C106 1.390 . S
C105 H110 0.949 . S
C106 C105 1.390 . S
C106 C111 1.399 1_554 S
C107 C103 1.404 . S
C107 H108 0.950 . S
C107 C109 1.375 . S
H108 C107 0.950 . S
C109 C107 1.375 . S
C109 C111 1.382 . S
C109 H113 0.950 . S
H110 C105 0.949 . S
C111 C106 1.399 1_556 S
C111 C109 1.382 . S
C111 H112 0.952 . S
H112 C111 0.952 . S
H113 C109 0.950 . S
H114 C115 0.949 . S
C115 H114 0.949 . S
C115 C116 1.395 . S
C115 C117 1.391 1_554 S
C116 C115 1.395 . S
C116 C119 1.390 1_554 S
C117 C115 1.391 1_556 S
C117 C121 1.387 . S
C117 C122 1.491 . S
H118 C119 0.950 . S
C119 C116 1.390 1_556 S
C119 H118 0.950 . S
C119 C120 1.378 . S
C120 C119 1.378 . S
C120 C121 1.409 . S
C121 C117 1.387 . S
C121 C120 1.409 . S
C121 H123 0.951 . S
C122 C117 1.491 . S
C122 C124 1.382 1_556 S
C122 C126 1.404 . S
H123 C121 0.951 . S
C124 C122 1.382 1_554 S
C124 C125 1.390 . S
C124 H129 0.949 . S
C125 C124 1.390 . S
C125 C130 1.399 1_554 S
C126 C122 1.404 . S
C126 H127 0.950 . S
C126 C128 1.375 . S
H127 C126 0.950 . S
C128 C126 1.375 . S
C128 C130 1.382 . S
C128 H132 0.950 . S
H129 C124 0.949 . S
C130 C125 1.399 1_556 S
C130 C128 1.382 . S
C130 H131 0.952 . S
H131 C130 0.952 . S
H132 C128 0.950 . S
H133 C134 0.949 . S
C134 H133 0.949 . S
C134 C135 1.395 . S
C134 C136 1.391 1_554 S
C135 C134 1.395 . S
C135 C138 1.390 1_554 S
C136 C134 1.391 1_556 S
C136 C140 1.387 . S
C136 C141 1.491 . S
H137 C138 0.950 . S
C138 C135 1.390 1_556 S
C138 H137 0.950 . S
C138 C139 1.378 . S
C139 C138 1.378 . S
C139 C140 1.409 . S
C140 C136 1.387 . S
C140 C139 1.409 . S
C140 H142 0.951 . S
C141 C136 1.491 . S
C141 C143 1.382 1_556 S
C141 C145 1.404 . S
H142 C140 0.951 . S
C143 C141 1.382 1_554 S
C143 C144 1.390 . S
C143 H148 0.949 . S
C144 C143 1.390 . S
C144 C149 1.399 1_554 S
C145 C141 1.404 . S
C145 H146 0.950 . S
C145 C147 1.375 . S
H146 C145 0.950 . S
C147 C145 1.375 . S
C147 C149 1.382 . S
C147 H151 0.950 . S
H148 C143 0.949 . S
C149 C144 1.399 1_556 S
C149 C147 1.382 . S
C149 H150 0.952 . S
H150 C149 0.952 . S
H151 C147 0.950 . S
Eu152 N183 2.657 1_565 S
Eu152 N190 2.609 1_565 S
Eu152 O196 2.558 . S
Eu152 O197 2.612 1_455 S
Eu152 O199 2.340 1_455 S
Eu152 O200 2.563 . S
Eu152 O201 2.419 . S
Eu152 O203 2.380 1_565 S
Eu152 O204 2.432 . S
Eu152 C216 2.848 . S
C153 C156 1.429 1_545 S
C153 C157 1.411 1_545 S
C153 N160 1.377 . S
C154 C156 1.420 . S
C154 C158 1.423 . S
C154 C166 1.392 . S
C155 C157 1.420 . S
C155 C158 1.351 . S
C155 H178 0.931 . S
C156 C153 1.429 1_565 S
C156 C154 1.420 . S
C156 N164 1.367 . S
C157 C153 1.411 1_565 S
C157 C155 1.420 . S
C157 C162 1.395 1_565 S
C158 C154 1.423 . S
C158 C155 1.351 . S
C158 H170 0.930 . S
C159 C161 1.400 . S
C159 C162 1.386 . S
C159 H171 0.930 . S
N160 C153 1.377 . S
N160 C161 1.321 . S
N160 Eu163 2.609 . S
C161 C159 1.400 . S
C161 N160 1.321 . S
C161 H168 0.930 . S
C162 C157 1.395 1_545 S
C162 C159 1.386 . S
C162 H181 0.930 . S
Eu163 N160 2.609 . S
Eu163 N164 2.644 1_545 S
Eu163 O197 2.380 1_545 S
Eu163 O198 2.432 . S
Eu163 O202 2.558 . S
Eu163 O203 2.612 1_655 S
Eu163 O205 2.339 1_655 S
Eu163 O206 2.563 1_655 S
Eu163 O207 2.419 . S
Eu163 C227 2.848 . S
N164 C156 1.367 . S
N164 Eu163 2.644 1_565 S
N164 C165 1.342 1_655 S
C165 N164 1.342 1_455 S
C165 C167 1.413 . S
C165 H172 0.929 . S
C166 C154 1.392 . S
C166 C167 1.367 1_655 S
C166 H174 0.930 . S
C167 C165 1.413 . S
C167 C166 1.367 1_455 S
C167 H169 0.930 . S
H168 C161 0.930 . S
H169 C167 0.930 . S
H170 C158 0.930 . S
H171 C159 0.930 . S
H172 C165 0.929 . S
H173 C187 0.930 1_655 S
H174 C166 0.930 . S
H175 C193 0.930 . S
H176 C184 0.929 1_655 S
H177 C191 0.930 . S
H178 C155 0.931 . S
H179 C185 0.930 . S
H180 C218 0.930 . S
H181 C162 0.930 . S
H182 C217 0.931 . S
N183 Eu152 2.657 1_545 S
N183 C184 1.334 . S
N183 C188 1.362 . S
C184 H176 0.929 1_455 S
C184 N183 1.334 . S
C184 C187 1.413 1_556 S
C185 H179 0.930 . S
C185 C186 1.392 . S
C185 C187 1.367 . S
C186 C185 1.392 . S
C186 C188 1.420 1_554 S
C186 C218 1.423 . S
C187 H173 0.930 1_455 S
C187 C184 1.413 1_554 S
C187 C185 1.367 . S
C188 N183 1.362 . S
C188 C186 1.420 1_556 S
C188 C192 1.429 . S
H189 C194 0.931 . S
N190 Eu152 2.609 1_545 S
N190 C192 1.377 . S
N190 C193 1.321 1_545 S
C191 H177 0.930 . S
C191 C193 1.400 . S
C191 C194 1.386 1_565 S
C192 C188 1.429 . S
C192 N190 1.377 . S
C192 C195 1.411 1_556 S
C193 H175 0.930 . S
C193 N190 1.321 1_565 S
C193 C191 1.400 . S
C194 H189 0.931 . S
C194 C191 1.386 1_545 S
C194 C195 1.395 1_556 S
C195 C192 1.411 1_554 S
C195 C194 1.395 1_554 S
C195 C217 1.420 . S
O196 Eu152 2.558 . S
O196 C216 1.257 . S
O197 Eu152 2.612 1_655 S
O197 Eu163 2.380 1_565 S
O197 C208 1.276 . S
O198 Eu163 2.432 . S
O198 C215 1.264 . S
O199 Eu152 2.340 1_655 S
O199 C215 1.252 1_565 S
O200 Eu152 2.563 . S
O200 C208 1.235 1_455 S
O201 Eu152 2.419 . S
O201 C216 1.249 . S
O202 Eu163 2.558 . S
O202 C227 1.257 . S
O203 Eu152 2.380 1_545 S
O203 Eu163 2.612 1_455 S
O203 C219 1.276 . S
O204 Eu152 2.432 . S
O204 C226 1.264 1_565 S
O205 Eu163 2.339 1_455 S
O205 C226 1.254 . S
O206 Eu163 2.563 1_455 S
O206 C219 1.235 . S
O207 Eu163 2.419 . S
O207 C227 1.249 . S
C208 O197 1.276 . S
C208 O200 1.235 1_655 S
C209 C211 1.393 1_556 S
C209 C213 1.395 . S
C209 C216 1.492 . S
C210 C211 1.392 . S
C210 C212 1.386 . S
C211 C209 1.393 1_554 S
C211 C210 1.392 . S
C211 H228 0.960 1_554 S
C212 C210 1.386 . S
C212 C214 1.395 . S
C212 H229 0.930 . S
C213 C209 1.395 . S
C213 C214 1.379 1_556 S
C213 H230 0.930 . S
C214 C212 1.395 . S
C214 C213 1.379 1_554 S
C214 H231 0.930 . S
C215 O198 1.264 . S
C215 O199 1.252 1_545 S
C216 Eu152 2.848 . S
C216 O196 1.257 . S
C216 O201 1.249 . S
C216 C209 1.492 . S
C217 H182 0.931 . S
C217 C195 1.420 . S
C217 C218 1.351 . S
C218 H180 0.930 . S
C218 C186 1.423 . S
C218 C217 1.351 . S
C219 O203 1.276 . S
C219 O206 1.235 . S
C220 C221 1.393 . S
C220 C224 1.395 . S
C220 C227 1.492 . S
C221 C220 1.393 . S
C221 C222 1.392 . S
C221 H232 0.930 1_655 S
C222 C221 1.392 . S
C222 C223 1.386 . S
C223 C222 1.386 . S
C223 C225 1.395 . S
C223 H233 0.930 . S
C224 C220 1.395 . S
C224 C225 1.379 . S
C224 H234 0.930 . S
C225 C223 1.395 . S
C225 C224 1.379 . S
C225 H235 0.930 . S
C226 O204 1.264 1_545 S
C226 O205 1.254 . S
C227 Eu163 2.848 . S
C227 O202 1.257 . S
C227 O207 1.249 . S
C227 C220 1.492 . S
H228 C211 0.960 1_556 S
H229 C212 0.930 . S
H230 C213 0.930 . S
H231 C214 0.930 . S
H232 C221 0.930 1_455 S
H233 C223 0.930 . S
H234 C224 0.930 . S
H235 C225 0.930 . S
Eu236 N267 2.657 . S
Eu236 N274 2.609 . S
Eu236 O280 2.558 . S
Eu236 O281 2.609 1_545 S
Eu236 O283 2.339 1_545 S
Eu236 O284 2.563 . S
Eu236 O285 2.419 . S
Eu236 O287 2.380 . S
Eu236 O288 2.432 . S
Eu236 C300 2.848 . S
C237 C240 1.429 . S
C237 C241 1.411 . S
C237 N244 1.377 . S
C238 C240 1.420 . S
C238 C242 1.423 . S
C238 C250 1.392 . S
C239 C241 1.420 . S
C239 C242 1.351 . S
C239 H262 0.931 . S
C240 C237 1.429 . S
C240 C238 1.420 . S
C240 N248 1.362 . S
C241 C237 1.411 . S
C241 C239 1.420 . S
C241 C246 1.395 . S
C242 C238 1.423 . S
C242 C239 1.351 . S
C242 H254 0.930 . S
C243 C245 1.400 . S
C243 C246 1.386 . S
C243 H255 0.930 . S
N244 C237 1.377 . S
N244 C245 1.321 . S
N244 Eu247 2.609 . S
C245 C243 1.400 . S
C245 N244 1.321 . S
C245 H252 0.930 . S
C246 C241 1.395 . S
C246 C243 1.386 . S
C246 H265 0.930 . S
Eu247 N244 2.609 . S
Eu247 N248 2.657 . S
Eu247 O281 2.381 . S
Eu247 O282 2.432 . S
Eu247 O286 2.558 . S
Eu247 O287 2.612 1_565 S
Eu247 O289 2.339 1_565 S
Eu247 O290 2.563 1_565 S
Eu247 O291 2.419 1_565 S
Eu247 C311 2.848 . S
N248 C240 1.362 . S
N248 Eu247 2.657 . S
N248 C249 1.334 1_565 S
C249 N248 1.334 1_545 S
C249 C251 1.413 . S
C249 H256 0.929 . S
C250 C238 1.392 . S
C250 C251 1.367 1_565 S
C250 H258 0.930 . S
C251 C249 1.413 . S
C251 C250 1.367 1_545 S
C251 H253 0.930 . S
H252 C245 0.930 . S
H253 C251 0.930 . S
H254 C242 0.930 . S
H255 C243 0.930 . S
H256 C249 0.929 . S
H257 C271 0.930 1_565 S
H258 C250 0.930 . S
H259 C277 0.930 . S
H260 C268 0.929 1_565 S
H261 C275 0.930 . S
H262 C239 0.931 . S
H263 C269 0.930 . S
H264 C302 0.930 . S
H265 C246 0.930 . S
H266 C301 0.931 . S
N267 Eu236 2.657 . S
N267 C268 1.334 . S
N267 C272 1.365 . S
C268 H260 0.929 1_545 S
C268 N267 1.334 . S
C268 C271 1.413 1_556 S
C269 H263 0.930 . S
C269 C270 1.392 . S
C269 C271 1.367 . S
C270 C269 1.392 . S
C270 C272 1.414 1_554 S
C270 C302 1.423 . S
C271 H257 0.930 1_545 S
C271 C268 1.413 1_554 S
C271 C269 1.367 . S
C272 N267 1.365 . S
C272 C270 1.414 1_556 S
C272 C276 1.432 . S
H273 C278 0.930 1_554 S
N274 Eu236 2.609 . S
N274 C276 1.377 . S
N274 C277 1.321 . S
C275 H261 0.930 . S
C275 C277 1.400 . S
C275 C278 1.386 . S
C276 C272 1.432 . S
C276 N274 1.377 . S
C276 C279 1.411 1_556 S
C277 H259 0.930 . S
C277 N274 1.321 . S
C277 C275 1.400 . S
C278 H273 0.930 1_556 S
C278 C275 1.386 . S
C278 C279 1.395 1_556 S
C279 C276 1.411 1_554 S
C279 C278 1.395 1_554 S
C279 C301 1.420 . S
O280 Eu236 2.558 . S
O280 C300 1.257 . S
O281 Eu236 2.609 1_565 S
O281 Eu247 2.381 . S
O281 C292 1.274 1_565 S
O282 Eu247 2.432 . S
O282 C299 1.264 . S
O283 Eu236 2.339 1_565 S
O283 C299 1.254 . S
O284 Eu236 2.563 . S
O284 C292 1.262 . S
O285 Eu236 2.419 . S
O285 C300 1.249 . S
O286 Eu247 2.558 . S
O286 C311 1.257 . S
O287 Eu236 2.380 . S
O287 Eu247 2.612 1_545 S
O287 C303 1.276 . S
O288 Eu236 2.432 . S
O288 C310 1.264 . S
O289 Eu247 2.339 1_545 S
O289 C310 1.254 . S
O290 Eu247 2.563 1_545 S
O290 C303 1.235 . S
O291 Eu247 2.419 1_545 S
O291 C311 1.249 1_545 S
C292 O281 1.274 1_545 S
C292 O284 1.262 . S
C293 C295 1.393 1_556 S
C293 C297 1.395 . S
C293 C300 1.492 . S
C294 C295 1.392 . S
C294 C296 1.386 . S
C295 C293 1.393 1_554 S
C295 C294 1.392 . S
C295 H312 0.930 1_554 S
C296 C294 1.386 . S
C296 C298 1.395 . S
C296 H313 0.930 . S
C297 C293 1.395 . S
C297 C298 1.379 1_556 S
C297 H314 0.930 . S
C298 C296 1.395 . S
C298 C297 1.379 1_554 S
C298 H315 0.930 . S
C299 O282 1.264 . S
C299 O283 1.254 . S
C300 Eu236 2.848 . S
C300 O280 1.257 . S
C300 O285 1.249 . S
C300 C293 1.492 . S
C301 H266 0.931 . S
C301 C279 1.420 . S
C301 C302 1.351 . S
C302 H264 0.930 . S
C302 C270 1.423 . S
C302 C301 1.351 . S
C303 O287 1.276 . S
C303 O290 1.235 . S
C304 C305 1.401 . S
C304 C308 1.395 . S
C304 C311 1.492 . S
C305 C304 1.401 . S
C305 C306 1.393 . S
C305 H316 0.920 1_565 S
C306 C305 1.393 . S
C306 C307 1.386 . S
C307 C306 1.386 . S
C307 C309 1.395 . S
C307 H317 0.930 . S
C308 C304 1.395 . S
C308 C309 1.379 . S
C308 H318 0.930 . S
C309 C307 1.395 . S
C309 C308 1.379 . S
C309 H319 0.930 . S
C310 O288 1.264 . S
C310 O289 1.254 . S
C311 Eu247 2.848 . S
C311 O286 1.257 . S
C311 O291 1.249 1_565 S
C311 C304 1.492 . S
H312 C295 0.930 1_556 S
H313 C296 0.930 . S
H314 C297 0.930 . S
H315 C298 0.930 . S
H316 C305 0.920 1_545 S
H317 C307 0.930 . S
H318 C308 0.930 . S
H319 C309 0.930 . S
Eu320 N351 2.657 . S
Eu320 N358 2.609 . S
Eu320 O364 2.558 . S
Eu320 O365 2.612 . S
Eu320 O367 2.339 . S
Eu320 O368 2.563 . S
Eu320 O369 2.419 . S
Eu320 O371 2.380 . S
Eu320 O372 2.432 . S
Eu320 C384 2.848 . S
C321 C324 1.429 . S
C321 C325 1.411 . S
C321 N328 1.377 . S
C322 C324 1.420 . S
C322 C326 1.423 . S
C322 C334 1.392 . S
C323 C325 1.420 . S
C323 C326 1.351 . S
C323 H346 0.931 . S
C324 C321 1.429 . S
C324 C322 1.420 . S
C324 N332 1.362 . S
C325 C321 1.411 . S
C325 C323 1.420 . S
C325 C330 1.395 . S
C326 C322 1.423 . S
C326 C323 1.351 . S
C326 H338 0.930 . S
C327 C329 1.400 1_554 S
C327 C330 1.386 1_554 S
C327 H339 0.930 . S
N328 C321 1.377 . S
N328 C329 1.321 . S
N328 Eu331 2.609 . S
C329 C327 1.400 1_556 S
C329 N328 1.321 . S
C329 H336 0.930 . S
C330 C325 1.395 . S
C330 C327 1.386 1_556 S
C330 H349 0.930 1_556 S
Eu331 N328 2.609 . S
Eu331 N332 2.657 . S
Eu331 O365 2.380 . S
Eu331 O366 2.432 . S
Eu331 O370 2.558 . S
Eu331 O371 2.612 . S
Eu331 O373 2.339 . S
Eu331 O374 2.563 . S
Eu331 O375 2.419 . S
Eu331 C395 2.848 . S
N332 C324 1.362 . S
N332 Eu331 2.657 . S
N332 C333 1.334 . S
C333 N332 1.334 . S
C333 C335 1.413 . S
C333 H340 0.929 . S
C334 C322 1.392 . S
C334 C335 1.367 . S
C334 H342 0.930 . S
C335 C333 1.413 . S
C335 C334 1.367 . S
C335 H337 0.930 . S
H336 C329 0.930 . S
H337 C335 0.930 . S
H338 C326 0.930 . S
H339 C327 0.930 . S
H340 C333 0.929 . S
H341 C355 0.930 . S
H342 C334 0.930 . S
H343 C361 0.930 . S
H344 C352 0.929 . S
H345 C359 0.930 . S
H346 C323 0.931 . S
H347 C353 0.930 . S
H348 C386 0.930 . S
H349 C330 0.930 1_554 S
H350 C385 0.931 . S
N351 Eu320 2.657 . S
N351 C352 1.334 . S
N351 C356 1.362 . S
C352 H344 0.929 . S
C352 N351 1.334 . S
C352 C355 1.413 . S
C353 H347 0.930 . S
C353 C354 1.392 . S
C353 C355 1.367 . S
C354 C353 1.392 . S
C354 C356 1.420 . S
C354 C386 1.423 . S
C355 H341 0.930 . S
C355 C352 1.413 . S
C355 C353 1.367 . S
C356 N351 1.362 . S
C356 C354 1.420 . S
C356 C360 1.429 . S
H357 C362 0.930 . S
N358 Eu320 2.609 . S
N358 C360 1.377 . S
N358 C361 1.321 . S
C359 H345 0.930 . S
C359 C361 1.400 . S
C359 C362 1.386 . S
C360 C356 1.429 . S
C360 N358 1.377 . S
C360 C363 1.411 . S
C361 H343 0.930 . S
C361 N358 1.321 . S
C361 C359 1.400 . S
C362 H357 0.930 . S
C362 C359 1.386 . S
C362 C363 1.395 . S
C363 C360 1.411 . S
C363 C362 1.395 . S
C363 C385 1.420 . S
O364 Eu320 2.558 . S
O364 C384 1.257 . S
O365 Eu320 2.612 . S
O365 Eu331 2.380 . S
O365 C376 1.276 . S
O366 Eu331 2.432 . S
O366 C383 1.264 . S
O367 Eu320 2.339 . S
O367 C383 1.254 . S
O368 Eu320 2.563 . S
O368 C376 1.235 . S
O369 Eu320 2.419 . S
O369 C384 1.249 . S
O370 Eu331 2.558 . S
O370 C395 1.257 . S
O371 Eu320 2.380 . S
O371 Eu331 2.612 . S
O371 C387 1.276 . S
O372 Eu320 2.432 . S
O372 C394 1.264 . S
O373 Eu331 2.339 . S
O373 C394 1.254 . S
O374 Eu331 2.563 . S
O374 C387 1.235 . S
O375 Eu331 2.419 . S
O375 C395 1.249 . S
C376 O365 1.276 . S
C376 O368 1.235 . S
C377 C379 1.393 . S
C377 C381 1.395 . S
C377 C384 1.492 . S
C378 C379 1.392 . S
C378 C380 1.386 . S
C379 C377 1.393 . S
C379 C378 1.392 . S
C379 H396 0.930 . S
C380 C378 1.386 . S
C380 C382 1.395 . S
C380 H397 0.930 . S
C381 C377 1.395 . S
C381 C382 1.379 . S
C381 H398 0.930 . S
C382 C380 1.395 . S
C382 C381 1.379 . S
C382 H399 0.930 . S
C383 O366 1.264 . S
C383 O367 1.254 . S
C384 Eu320 2.848 . S
C384 O364 1.257 . S
C384 O369 1.249 . S
C384 C377 1.492 . S
C385 H350 0.931 . S
C385 C363 1.420 . S
C385 C386 1.351 . S
C386 H348 0.930 . S
C386 C354 1.423 . S
C386 C385 1.351 . S
C387 O371 1.276 . S
C387 O374 1.235 . S
C388 C389 1.393 . S
C388 C392 1.395 . S
C388 C395 1.492 1_554 S
C389 C388 1.393 . S
C389 C390 1.392 . S
C389 H400 0.930 1_554 S
C390 C389 1.392 . S
C390 C391 1.386 . S
C391 C390 1.386 . S
C391 C393 1.395 . S
C391 H401 0.930 . S
C392 C388 1.395 . S
C392 C393 1.379 . S
C392 H402 0.930 . S
C393 C391 1.395 . S
C393 C392 1.379 . S
C393 H403 0.930 . S
C394 O372 1.264 . S
C394 O373 1.254 . S
C395 Eu331 2.848 . S
C395 O370 1.257 . S
C395 O375 1.249 . S
C395 C388 1.492 1_556 S
H396 C379 0.930 . S
H397 C380 0.930 . S
H398 C381 0.930 . S
H399 C382 0.930 . S
H400 C389 0.930 1_556 S
H401 C391 0.930 . S
H402 C392 0.930 . S
H403 C393 0.930 . S
Eu404 N435 2.657 . S
Eu404 N442 2.609 . S
Eu404 O448 2.558 . S
Eu404 O449 2.612 . S
Eu404 O451 2.339 . S
Eu404 O452 2.563 . S
Eu404 O453 2.419 . S
Eu404 O455 2.380 . S
Eu404 O456 2.432 1_455 S
Eu404 C468 2.848 . S
C405 C408 1.429 . S
C405 C409 1.411 . S
C405 N412 1.388 . S
C406 C408 1.420 . S
C406 C410 1.423 . S
C406 C418 1.392 . S
C407 C409 1.420 . S
C407 C410 1.351 . S
C407 H430 0.931 . S
C408 C405 1.429 . S
C408 C406 1.420 . S
C408 N416 1.362 . S
C409 C405 1.411 . S
C409 C407 1.420 . S
C409 C414 1.395 1_655 S
C410 C406 1.423 . S
C410 C407 1.351 . S
C410 H422 0.930 . S
C411 C413 1.400 1_554 S
C411 C414 1.386 1_554 S
C411 H423 0.930 . S
N412 C405 1.388 . S
N412 C413 1.307 1_655 S
N412 Eu415 2.614 . S
C413 C411 1.400 1_556 S
C413 N412 1.307 1_455 S
C413 H420 0.930 . S
C414 C409 1.395 1_455 S
C414 C411 1.386 1_556 S
C414 H433 0.930 1_556 S
Eu415 N412 2.614 . S
Eu415 N416 2.657 . S
Eu415 O449 2.380 1_655 S
Eu415 O450 2.432 1_655 S
Eu415 O454 2.558 . S
Eu415 O455 2.612 1_655 S
Eu415 O457 2.339 . S
Eu415 O458 2.563 . S
Eu415 O459 2.419 . S
Eu415 C479 2.848 . S
N416 C408 1.362 . S
N416 Eu415 2.657 . S
N416 C417 1.334 . S
C417 N416 1.334 . S
C417 C419 1.413 . S
C417 H424 0.929 . S
C418 C406 1.392 . S
C418 C419 1.367 . S
C418 H426 0.930 . S
C419 C417 1.413 . S
C419 C418 1.367 . S
C419 H421 0.930 . S
H420 C413 0.930 . S
H421 C419 0.930 . S
H422 C410 0.930 . S
H423 C411 0.930 . S
H424 C417 0.929 . S
H425 C439 0.930 . S
H426 C418 0.930 . S
H427 C445 0.929 1_655 S
H428 C436 0.929 . S
H429 C443 0.930 . S
H430 C407 0.931 . S
H431 C437 0.930 . S
H432 C470 0.930 . S
H433 C414 0.930 1_554 S
H434 C469 0.931 . S
N435 Eu404 2.657 . S
N435 C436 1.334 . S
N435 C440 1.362 . S
C436 H428 0.929 . S
C436 N435 1.334 . S
C436 C439 1.413 . S
C437 H431 0.930 . S
C437 C438 1.392 . S
C437 C439 1.367 . S
C438 C437 1.392 . S
C438 C440 1.420 . S
C438 C470 1.423 . S
C439 H425 0.930 . S
C439 C436 1.413 . S
C439 C437 1.367 . S
C440 N435 1.362 . S
C440 C438 1.420 . S
C440 C444 1.429 . S
H441 C446 0.930 . S
N442 Eu404 2.609 . S
N442 C444 1.377 . S
N442 C445 1.322 . S
C443 H429 0.930 . S
C443 C445 1.399 1_655 S
C443 C446 1.386 1_655 S
C444 C440 1.429 . S
C444 N442 1.377 . S
C444 C447 1.411 . S
C445 H427 0.929 1_455 S
C445 N442 1.322 . S
C445 C443 1.399 1_455 S
C446 H441 0.930 . S
C446 C443 1.386 1_455 S
C446 C447 1.395 . S
C447 C444 1.411 . S
C447 C446 1.395 . S
C447 C469 1.420 . S
O448 Eu404 2.558 . S
O448 C468 1.257 . S
O449 Eu404 2.612 . S
O449 Eu415 2.380 1_455 S
O449 C460 1.276 . S
O450 Eu415 2.432 1_455 S
O450 C467 1.264 . S
O451 Eu404 2.339 . S
O451 C467 1.254 . S
O452 Eu404 2.563 . S
O452 C460 1.235 . S
O453 Eu404 2.419 . S
O453 C468 1.249 . S
O454 Eu415 2.558 . S
O454 C479 1.257 . S
O455 Eu404 2.380 . S
O455 Eu415 2.612 1_455 S
O455 C471 1.276 1_455 S
O456 Eu404 2.432 1_655 S
O456 C478 1.264 . S
O457 Eu415 2.339 . S
O457 C478 1.254 . S
O458 Eu415 2.563 . S
O458 C471 1.235 . S
O459 Eu415 2.419 . S
O459 C479 1.249 . S
C460 O449 1.276 . S
C460 O452 1.235 . S
C461 C463 1.393 . S
C461 C465 1.395 . S
C461 C468 1.492 . S
C462 C463 1.392 . S
C462 C464 1.386 . S
C463 C461 1.393 . S
C463 C462 1.392 . S
C463 H480 0.930 . S
C464 C462 1.386 . S
C464 C466 1.395 . S
C464 H481 0.930 . S
C465 C461 1.395 . S
C465 C466 1.379 . S
C465 H482 0.930 . S
C466 C464 1.395 . S
C466 C465 1.379 . S
C466 H483 0.930 . S
C467 O450 1.264 . S
C467 O451 1.254 . S
C468 Eu404 2.848 . S
C468 O448 1.257 . S
C468 O453 1.249 . S
C468 C461 1.492 . S
C469 H434 0.931 . S
C469 C447 1.420 . S
C469 C470 1.351 . S
C470 H432 0.930 . S
C470 C438 1.423 . S
C470 C469 1.351 . S
C471 O455 1.276 1_655 S
C471 O458 1.235 . S
C472 C473 1.393 . S
C472 C476 1.395 . S
C472 C479 1.492 1_554 S
C473 C472 1.393 . S
C473 C474 1.392 . S
C473 H484 0.930 1_554 S
C474 C473 1.392 . S
C474 C475 1.386 . S
C475 C474 1.386 . S
C475 C477 1.395 . S
C475 H485 0.930 . S
C476 C472 1.395 . S
C476 C477 1.379 . S
C476 H486 0.930 . S
C477 C475 1.395 . S
C477 C476 1.379 . S
C477 H487 0.930 . S
C478 O456 1.264 . S
C478 O457 1.254 . S
C479 Eu415 2.848 . S
C479 O454 1.257 . S
C479 O459 1.249 . S
C479 C472 1.492 1_556 S
H480 C463 0.930 . S
H481 C464 0.930 . S
H482 C465 0.930 . S
H483 C466 0.930 . S
H484 C473 0.930 1_556 S
H485 C475 0.930 . S
H486 C476 0.930 . S
H487 C477 0.930 . S
H488 C494 0.930 . S
H489 C497 0.930 . S
H490 C498 0.930 1_565 S
H491 C499 0.930 1_565 S
H492 C502 0.930 . S
H493 C503 0.930 . S
C494 H488 0.930 . S
C494 C495 1.355 . S
C494 C496 1.415 . S
C495 C494 1.355 . S
C495 C497 1.419 . S
C496 C494 1.415 . S
C496 C501 1.425 . S
C496 C503 1.409 . S
C497 H489 0.930 . S
C497 C495 1.419 . S
C497 C498 1.362 . S
C498 H490 0.930 1_545 S
C498 C497 1.362 . S
C498 C501 1.409 . S
C499 H491 0.930 1_545 S
C499 C500 1.355 . S
C499 C501 1.415 . S
C500 C499 1.355 . S
C500 C502 1.419 . S
C501 C496 1.425 . S
C501 C498 1.409 . S
C501 C499 1.415 . S
C502 H492 0.930 . S
C502 C500 1.419 . S
C502 C503 1.362 . S
C503 H493 0.930 . S
C503 C496 1.409 . S
C503 C502 1.362 . S
H504 C510 0.930 . S
H505 C513 0.930 . S
H506 C514 0.930 . S
H507 C515 0.930 . S
H508 C518 0.930 . S
H509 C519 0.930 . S
C510 H504 0.930 . S
C510 C511 1.355 . S
C510 C512 1.415 . S
C511 C510 1.355 . S
C511 C513 1.419 . S
C512 C510 1.415 . S
C512 C517 1.425 . S
C512 C519 1.409 . S
C513 H505 0.930 . S
C513 C511 1.419 . S
C513 C514 1.362 . S
C514 H506 0.930 . S
C514 C513 1.362 . S
C514 C517 1.409 . S
C515 H507 0.930 . S
C515 C516 1.355 . S
C515 C517 1.415 . S
C516 C515 1.355 . S
C516 C518 1.419 . S
C517 C512 1.425 . S
C517 C514 1.409 . S
C517 C515 1.415 . S
C518 H508 0.930 . S
C518 C516 1.419 . S
C518 C519 1.362 . S
C519 H509 0.930 . S
C519 C512 1.409 . S
C519 C518 1.362 . S
H520 C526 0.930 . S
H521 C529 0.930 . S
H522 C530 0.930 . S
H523 C531 0.930 . S
H524 C534 0.930 . S
H525 C535 0.930 . S
C526 H520 0.930 . S
C526 C527 1.355 . S
C526 C528 1.415 . S
C527 C526 1.355 . S
C527 C529 1.419 . S
C528 C526 1.415 . S
C528 C533 1.425 . S
C528 C535 1.409 . S
C529 H521 0.930 . S
C529 C527 1.419 . S
C529 C530 1.362 . S
C530 H522 0.930 . S
C530 C529 1.362 . S
C530 C533 1.409 . S
C531 H523 0.930 . S
C531 C532 1.355 . S
C531 C533 1.415 . S
C532 C531 1.355 . S
C532 C534 1.419 . S
C533 C528 1.425 . S
C533 C530 1.409 . S
C533 C531 1.415 . S
C534 H524 0.930 . S
C534 C532 1.419 . S
C534 C535 1.362 . S
C535 H525 0.930 . S
C535 C528 1.409 . S
C535 C534 1.362 . S
H536 C542 0.930 . S
H537 C545 0.930 . S
H538 C546 0.930 . S
H539 C547 0.930 . S
H540 C550 0.930 . S
H541 C551 0.930 . S
C542 H536 0.930 . S
C542 C543 1.355 . S
C542 C544 1.415 . S
C543 C542 1.355 . S
C543 C545 1.419 . S
C544 C542 1.415 . S
C544 C549 1.425 . S
C544 C551 1.409 . S
C545 H537 0.930 . S
C545 C543 1.419 . S
C545 C546 1.362 . S
C546 H538 0.930 . S
C546 C545 1.362 . S
C546 C549 1.409 . S
C547 H539 0.930 . S
C547 C548 1.355 . S
C547 C549 1.415 . S
C548 C547 1.355 . S
C548 C550 1.419 . S
C549 C544 1.425 . S
C549 C546 1.409 . S
C549 C547 1.415 . S
C550 H540 0.930 . S
C550 C548 1.419 . S
C550 C551 1.362 . S
C551 H541 0.930 . S
C551 C544 1.409 . S
C551 C550 1.362 . S
H552 C558 0.930 . S
H553 C561 0.930 1_545 S
H554 C562 0.930 1_556 S
H555 C563 0.930 . S
H556 C566 0.930 . S
H557 C567 0.930 . S
C558 H552 0.930 . S
C558 C559 1.355 . S
C558 C560 1.415 . S
C559 C558 1.355 . S
C559 C561 1.419 . S
C560 C558 1.415 . S
C560 C565 1.425 1_554 S
C560 C567 1.409 . S
C561 H553 0.930 1_565 S
C561 C559 1.419 . S
C561 C562 1.362 1_565 S
C562 H554 0.930 1_554 S
C562 C561 1.362 1_545 S
C562 C565 1.409 1_544 S
C563 H555 0.930 . S
C563 C564 1.355 1_545 S
C563 C565 1.415 1_545 S
C564 C563 1.355 1_565 S
C564 C566 1.419 . S
C565 C560 1.425 1_556 S
C565 C562 1.409 1_566 S
C565 C563 1.415 1_565 S
C566 H556 0.930 . S
C566 C564 1.419 . S
C566 C567 1.362 1_556 S
C567 H557 0.930 . S
C567 C560 1.409 . S
C567 C566 1.362 1_554 S
H568 C574 0.930 . S
H569 C577 0.930 . S
H570 C578 0.930 1_556 S
H571 C579 0.930 . S
H572 C582 0.930 . S
H573 C583 0.930 . S
C574 H568 0.930 . S
C574 C575 1.355 . S
C574 C576 1.415 . S
C575 C574 1.355 . S
C575 C577 1.419 . S
C576 C574 1.415 . S
C576 C581 1.425 1_554 S
C576 C583 1.409 . S
C577 H569 0.930 . S
C577 C575 1.419 . S
C577 C578 1.362 . S
C578 H570 0.930 1_554 S
C578 C577 1.362 . S
C578 C581 1.409 1_554 S
C579 H571 0.930 . S
C579 C580 1.355 . S
C579 C581 1.415 . S
C580 C579 1.355 . S
C580 C582 1.419 . S
C581 C576 1.425 1_556 S
C581 C578 1.409 1_556 S
C581 C579 1.415 . S
C582 H572 0.930 . S
C582 C580 1.419 . S
C582 C583 1.362 1_556 S
C583 H573 0.930 . S
C583 C576 1.409 . S
C583 C582 1.362 1_554 S
H584 C590 0.930 . S
H585 C593 0.930 . S
H586 C594 0.930 . S
H587 C595 0.930 . S
H588 C598 0.930 . S
H589 C599 0.930 . S
C590 H584 0.930 . S
C590 C591 1.355 . S
C590 C592 1.415 . S
C591 C590 1.355 . S
C591 C593 1.419 . S
C592 C590 1.415 . S
C592 C597 1.425 . S
C592 C599 1.409 1_554 S
C593 H585 0.930 . S
C593 C591 1.419 . S
C593 C594 1.362 . S
C594 H586 0.930 . S
C594 C593 1.362 . S
C594 C597 1.409 . S
C595 H587 0.930 . S
C595 C596 1.355 . S
C595 C597 1.415 1_556 S
C596 C595 1.355 . S
C596 C598 1.419 . S
C597 C592 1.425 . S
C597 C594 1.409 . S
C597 C595 1.415 1_554 S
C598 H588 0.930 . S
C598 C596 1.419 . S
C598 C599 1.362 . S
C599 H589 0.930 . S
C599 C592 1.409 1_556 S
C599 C598 1.362 . S
H600 C606 0.930 . S
H601 C609 0.930 1_455 S
H602 C610 0.930 . S
H603 C611 0.969 . S
H604 C614 0.930 . S
H605 C615 0.930 . S
C606 H600 0.930 . S
C606 C607 1.355 . S
C606 C608 1.415 . S
C607 C606 1.355 . S
C607 C609 1.419 . S
C608 C606 1.415 . S
C608 C613 1.425 . S
C608 C615 1.409 1_554 S
C609 H601 0.930 1_655 S
C609 C607 1.419 . S
C609 C610 1.362 1_655 S
C610 H602 0.930 . S
C610 C609 1.362 1_455 S
C610 C613 1.409 1_455 S
C611 H603 0.969 . S
C611 C612 1.331 1_455 S
C611 C613 1.400 1_456 S
C612 C611 1.331 1_655 S
C612 C614 1.419 . S
C613 C608 1.425 . S
C613 C610 1.409 1_655 S
C613 C611 1.400 1_654 S
C614 H604 0.930 . S
C614 C612 1.419 . S
C614 C615 1.362 . S
C615 H605 0.930 . S
C615 C608 1.409 1_556 S
C615 C614 1.362 . S
H616 C622 0.930 . S
H617 C625 0.930 1_556 S
H618 C626 0.930 1_655 S
H619 C627 0.930 1_655 S
H620 C630 0.930 . S
H621 C631 0.930 . S
C622 H616 0.930 . S
C622 C623 1.355 . S
C622 C624 1.415 . S
C623 C622 1.355 . S
C623 C625 1.419 . S
C624 C622 1.415 . S
C624 C629 1.425 . S
C624 C631 1.409 . S
C625 H617 0.930 1_554 S
C625 C623 1.419 . S
C625 C626 1.362 . S
C626 H618 0.930 1_455 S
C626 C625 1.362 . S
C626 C629 1.409 . S
C627 H619 0.930 1_455 S
C627 C628 1.355 . S
C627 C629 1.415 . S
C628 C627 1.355 . S
C628 C630 1.419 . S
C629 C624 1.425 . S
C629 C626 1.409 . S
C629 C627 1.415 . S
C630 H620 0.930 . S
C630 C628 1.419 . S
C630 C631 1.362 . S
C631 H621 0.930 . S
C631 C624 1.409 . S
C631 C630 1.362 . S
H632 C638 0.930 . S
H633 C641 0.930 1_556 S
H634 C642 0.930 1_556 S
H635 C643 0.930 . S
H636 C646 0.930 . S
H637 C647 0.930 . S
C638 H632 0.930 . S
C638 C639 1.355 . S
C638 C640 1.415 . S
C639 C638 1.355 . S
C639 C641 1.419 . S
C640 C638 1.415 . S
C640 C645 1.425 . S
C640 C647 1.409 . S
C641 H633 0.930 1_554 S
C641 C639 1.419 . S
C641 C642 1.362 . S
C642 H634 0.930 1_554 S
C642 C641 1.362 . S
C642 C645 1.409 . S
C643 H635 0.930 . S
C643 C644 1.355 . S
C643 C645 1.415 . S
C644 C643 1.355 . S
C644 C646 1.419 . S
C645 C640 1.425 . S
C645 C642 1.409 . S
C645 C643 1.415 . S
C646 H636 0.930 . S
C646 C644 1.419 . S
C646 C647 1.362 . S
C647 H637 0.930 . S
C647 C640 1.409 . S
C647 C646 1.362 . S
H648 C654 0.930 . S
H649 C657 0.930 . S
H650 C658 0.930 . S
H651 C659 0.930 . S
H652 C662 0.930 . S
H653 C663 0.930 . S
C654 H648 0.930 . S
C654 C655 1.355 . S
C654 C656 1.415 . S
C655 C654 1.355 . S
C655 C657 1.419 . S
C656 C654 1.415 . S
C656 C661 1.425 . S
C656 C663 1.409 . S
C657 H649 0.930 . S
C657 C655 1.419 . S
C657 C658 1.362 . S
C658 H650 0.930 . S
C658 C657 1.362 . S
C658 C661 1.409 . S
C659 H651 0.930 . S
C659 C660 1.355 . S
C659 C661 1.415 . S
C660 C659 1.355 . S
C660 C662 1.419 . S
C661 C656 1.425 . S
C661 C658 1.409 . S
C661 C659 1.415 . S
C662 H652 0.930 . S
C662 C660 1.419 . S
C662 C663 1.362 . S
C663 H653 0.930 . S
C663 C656 1.409 . S
C663 C662 1.362 . S
H664 C670 0.930 . S
H665 C673 0.930 1_556 S
H666 C674 0.930 1_556 S
H667 C675 0.930 . S
H668 C678 0.930 . S
H669 C679 0.930 . S
C670 H664 0.930 . S
C670 C671 1.355 . S
C670 C672 1.415 . S
C671 C670 1.355 . S
C671 C673 1.419 . S
C672 C670 1.415 . S
C672 C677 1.425 . S
C672 C679 1.409 . S
C673 H665 0.930 1_554 S
C673 C671 1.419 . S
C673 C674 1.362 . S
C674 H666 0.930 1_554 S
C674 C673 1.362 . S
C674 C677 1.409 . S
C675 H667 0.930 . S
C675 C676 1.355 . S
C675 C677 1.415 . S
C676 C675 1.355 . S
C676 C678 1.419 . S
C677 C672 1.425 . S
C677 C674 1.409 . S
C677 C675 1.415 . S
C678 H668 0.930 . S
C678 C676 1.419 . S
C678 C679 1.362 . S
C679 H669 0.930 . S
C679 C672 1.409 . S
C679 C678 1.362 . S
H680 C686 0.930 . S
H681 C689 0.930 . S
H682 C690 0.930 . S
H683 C691 0.930 . S
H684 C694 0.930 . S
H685 C695 0.930 . S
C686 H680 0.930 . S
C686 C687 1.355 . S
C686 C688 1.415 . S
C687 C686 1.355 . S
C687 C689 1.419 . S
C688 C686 1.415 . S
C688 C693 1.425 . S
C688 C695 1.409 1_655 S
C689 H681 0.930 . S
C689 C687 1.419 . S
C689 C690 1.362 . S
C690 H682 0.930 . S
C690 C689 1.362 . S
C690 C693 1.409 . S
C691 H683 0.930 . S
C691 C692 1.355 1_655 S
C691 C693 1.415 . S
C692 C691 1.355 1_455 S
C692 C694 1.419 . S
C693 C688 1.425 . S
C693 C690 1.409 . S
C693 C691 1.415 . S
C694 H684 0.930 . S
C694 C692 1.419 . S
C694 C695 1.362 . S
C695 H685 0.930 . S
C695 C688 1.409 1_455 S
C695 C694 1.362 . S
H696 C702 0.930 . S
H697 C705 0.930 . S
H698 C706 0.930 . S
H699 C707 0.930 . S
H700 C710 0.930 . S
H701 C711 0.930 . S
C702 H696 0.930 . S
C702 C703 1.355 . S
C702 C704 1.415 . S
C703 C702 1.355 . S
C703 C705 1.419 . S
C704 C702 1.415 . S
C704 C709 1.425 . S
C704 C711 1.409 1_565 S
C705 H697 0.930 . S
C705 C703 1.419 . S
C705 C706 1.362 . S
C706 H698 0.930 . S
C706 C705 1.362 . S
C706 C709 1.409 . S
C707 H699 0.930 . S
C707 C708 1.355 1_565 S
C707 C709 1.415 . S
C708 C707 1.355 1_545 S
C708 C710 1.419 . S
C709 C704 1.425 . S
C709 C706 1.409 . S
C709 C707 1.415 . S
C710 H700 0.930 . S
C710 C708 1.419 . S
C710 C711 1.362 . S
C711 H701 0.930 . S
C711 C704 1.409 1_545 S
C711 C710 1.362 . S
H712 C718 0.930 . S
H713 C721 0.930 . S
H714 C722 0.930 . S
H715 C723 0.930 . S
H716 C726 0.930 . S
H717 C727 0.930 . S
C718 H712 0.930 . S
C718 C719 1.355 . S
C718 C720 1.415 . S
C719 C718 1.355 . S
C719 C721 1.419 . S
C720 C718 1.415 . S
C720 C725 1.425 . S
C720 C727 1.409 . S
C721 H713 0.930 . S
C721 C719 1.419 . S
C721 C722 1.362 . S
C722 H714 0.930 . S
C722 C721 1.362 . S
C722 C725 1.409 . S
C723 H715 0.930 . S
C723 C724 1.355 . S
C723 C725 1.415 . S
C724 C723 1.355 . S
C724 C726 1.419 . S
C725 C720 1.425 . S
C725 C722 1.409 . S
C725 C723 1.415 . S
C726 H716 0.930 . S
C726 C724 1.419 . S
C726 C727 1.362 . S
C727 H717 0.930 . S
C727 C720 1.409 . S
C727 C726 1.362 . S
H728 C734 0.930 . S
H729 C737 0.930 . S
H730 C738 0.930 . S
H731 C739 0.930 . S
H732 C742 0.930 1_556 S
H733 C743 0.930 1_556 S
C734 H728 0.930 . S
C734 C735 1.355 . S
C734 C736 1.415 . S
C735 C734 1.355 . S
C735 C737 1.419 . S
C736 C734 1.415 . S
C736 C741 1.425 . S
C736 C743 1.409 . S
C737 H729 0.930 . S
C737 C735 1.419 . S
C737 C738 1.362 . S
C738 H730 0.930 . S
C738 C737 1.362 . S
C738 C741 1.409 . S
C739 H731 0.930 . S
C739 C740 1.355 . S
C739 C741 1.415 . S
C740 C739 1.355 . S
C740 C742 1.419 . S
C741 C736 1.425 . S
C741 C738 1.409 . S
C741 C739 1.415 . S
C742 H732 0.930 1_554 S
C742 C740 1.419 . S
C742 C743 1.362 . S
C743 H733 0.930 1_554 S
C743 C736 1.409 . S
C743 C742 1.362 . S
H744 C750 0.930 . S
H745 C753 0.930 . S
H746 C754 0.930 . S
H747 C755 0.930 . S
H748 C758 0.930 . S
H749 C759 0.930 . S
C750 H744 0.930 . S
C750 C751 1.355 . S
C750 C752 1.415 . S
C751 C750 1.355 . S
C751 C753 1.419 . S
C752 C750 1.415 . S
C752 C757 1.425 . S
C752 C759 1.409 . S
C753 H745 0.930 . S
C753 C751 1.419 . S
C753 C754 1.362 . S
C754 H746 0.930 . S
C754 C753 1.362 . S
C754 C757 1.409 . S
C755 H747 0.930 . S
C755 C756 1.355 . S
C755 C757 1.415 . S
C756 C755 1.355 . S
C756 C758 1.419 . S
C757 C752 1.425 . S
C757 C754 1.409 . S
C757 C755 1.415 . S
C758 H748 0.930 . S
C758 C756 1.419 . S
C758 C759 1.362 . S
C759 H749 0.930 . S
C759 C752 1.409 . S
C759 C758 1.362 . S
H760 C766 0.930 . S
H761 C769 0.930 . S
H762 C770 0.930 . S
H763 C771 0.930 . S
H764 C774 0.930 . S
H765 C775 0.930 . S
C766 H760 0.930 . S
C766 C767 1.355 . S
C766 C768 1.415 . S
C767 C766 1.355 . S
C767 C769 1.419 . S
C768 C766 1.415 . S
C768 C773 1.425 . S
C768 C775 1.409 . S
C769 H761 0.930 . S
C769 C767 1.419 . S
C769 C770 1.362 . S
C770 H762 0.930 . S
C770 C769 1.362 . S
C770 C773 1.409 . S
C771 H763 0.930 . S
C771 C772 1.355 . S
C771 C773 1.415 . S
C772 C771 1.355 . S
C772 C774 1.419 . S
C773 C768 1.425 . S
C773 C770 1.409 . S
C773 C771 1.415 . S
C774 H764 0.930 . S
C774 C772 1.419 . S
C774 C775 1.362 . S
C775 H765 0.930 . S
C775 C768 1.409 . S
C775 C774 1.362 . S
H776 C782 0.930 . S
H777 C785 0.930 . S
H778 C786 0.928 1_554 S
H779 C787 0.930 . S
H780 C790 0.930 . S
H781 C791 0.930 . S
C782 H776 0.930 . S
C782 C783 1.355 . S
C782 C784 1.415 . S
C783 C782 1.355 . S
C783 C785 1.419 . S
C784 C782 1.415 . S
C784 C789 1.425 . S
C784 C791 1.409 . S
C785 H777 0.930 . S
C785 C783 1.419 . S
C785 C786 1.362 . S
C786 H778 0.928 1_556 S
C786 C785 1.362 . S
C786 C789 1.409 . S
C787 H779 0.930 . S
C787 C788 1.355 . S
C787 C789 1.415 . S
C788 C787 1.355 . S
C788 C790 1.419 . S
C789 C784 1.425 . S
C789 C786 1.409 . S
C789 C787 1.415 . S
C790 H780 0.930 . S
C790 C788 1.419 . S
C790 C791 1.362 . S
C791 H781 0.930 . S
C791 C784 1.409 . S
C791 C790 1.362 . S
H792 C798 0.930 . S
H793 C801 0.930 . S
H794 C802 0.930 . S
H795 C803 0.930 . S
H796 C806 0.930 . S
H797 C807 0.930 . S
C798 H792 0.930 . S
C798 C799 1.355 . S
C798 C800 1.415 . S
C799 C798 1.355 . S
C799 C801 1.419 . S
C800 C798 1.415 . S
C800 C805 1.425 . S
C800 C807 1.409 . S
C801 H793 0.930 . S
C801 C799 1.419 . S
C801 C802 1.362 . S
C802 H794 0.930 . S
C802 C801 1.362 . S
C802 C805 1.409 . S
C803 H795 0.930 . S
C803 C804 1.355 . S
C803 C805 1.415 . S
C804 C803 1.355 . S
C804 C806 1.419 . S
C805 C800 1.425 . S
C805 C802 1.409 . S
C805 C803 1.415 . S
C806 H796 0.930 . S
C806 C804 1.419 . S
C806 C807 1.362 . S
C807 H797 0.930 . S
C807 C800 1.409 . S
C807 C806 1.362 . S
H808 C814 0.930 . S
H809 C817 0.930 1_455 S
H810 C818 0.930 . S
H811 C819 0.930 1_455 S
H812 C822 0.930 . S
H813 C823 0.930 . S
C814 H808 0.930 . S
C814 C815 1.355 . S
C814 C816 1.415 . S
C815 C814 1.355 . S
C815 C817 1.419 . S
C816 C814 1.415 . S
C816 C821 1.425 . S
C816 C823 1.409 . S
C817 H809 0.930 1_655 S
C817 C815 1.419 . S
C817 C818 1.362 1_655 S
C818 H810 0.930 . S
C818 C817 1.362 1_455 S
C818 C821 1.409 1_455 S
C819 H811 0.930 1_655 S
C819 C820 1.355 . S
C819 C821 1.415 . S
C820 C819 1.355 . S
C820 C822 1.419 . S
C821 C816 1.425 . S
C821 C818 1.409 1_655 S
C821 C819 1.415 . S
C822 H812 0.930 . S
C822 C820 1.419 . S
C822 C823 1.362 . S
C823 H813 0.930 . S
C823 C816 1.409 . S
C823 C822 1.362 . S
H824 C830 0.930 . S
H825 C833 0.930 1_545 S
H826 C834 0.930 . S
H827 C835 0.930 1_545 S
H828 C838 0.930 . S
H829 C839 0.930 . S
C830 H824 0.930 . S
C830 C831 1.355 . S
C830 C832 1.415 . S
C831 C830 1.355 . S
C831 C833 1.419 . S
C832 C830 1.415 . S
C832 C837 1.425 . S
C832 C839 1.409 . S
C833 H825 0.930 1_565 S
C833 C831 1.419 . S
C833 C834 1.362 1_565 S
C834 H826 0.930 . S
C834 C833 1.362 1_545 S
C834 C837 1.409 1_545 S
C835 H827 0.930 1_565 S
C835 C836 1.355 . S
C835 C837 1.415 . S
C836 C835 1.355 . S
C836 C838 1.419 . S
C837 C832 1.425 . S
C837 C834 1.409 1_565 S
C837 C835 1.415 . S
C838 H828 0.930 . S
C838 C836 1.419 . S
C838 C839 1.362 . S
C839 H829 0.930 . S
C839 C832 1.409 . S
C839 C838 1.362 . S
H840 C846 0.930 . S
H841 C849 0.930 . S
H842 C850 0.930 . S
H843 C851 0.930 . S
H844 C854 0.930 . S
H845 C855 0.930 . S
C846 H840 0.930 . S
C846 C847 1.355 . S
C846 C848 1.415 . S
C847 C846 1.355 . S
C847 C849 1.419 . S
C848 C846 1.415 . S
C848 C853 1.425 . S
C848 C855 1.409 . S
C849 H841 0.930 . S
C849 C847 1.419 . S
C849 C850 1.362 . S
C850 H842 0.930 . S
C850 C849 1.362 . S
C850 C853 1.409 . S
C851 H843 0.930 . S
C851 C852 1.355 . S
C851 C853 1.415 . S
C852 C851 1.355 . S
C852 C854 1.419 . S
C853 C848 1.425 . S
C853 C850 1.409 . S
C853 C851 1.415 . S
C854 H844 0.930 . S
C854 C852 1.419 . S
C854 C855 1.362 . S
C855 H845 0.930 . S
C855 C848 1.409 . S
C855 C854 1.362 . S
H856 C862 0.930 . S
H857 C865 0.930 . S
H858 C866 0.930 . S
H859 C867 0.930 . S
H860 C870 0.930 . S
H861 C871 0.930 . S
C862 H856 0.930 . S
C862 C863 1.355 . S
C862 C864 1.415 . S
C863 C862 1.355 . S
C863 C865 1.419 . S
C864 C862 1.415 . S
C864 C869 1.425 . S
C864 C871 1.409 . S
C865 H857 0.930 . S
C865 C863 1.419 . S
C865 C866 1.362 . S
C866 H858 0.930 . S
C866 C865 1.362 . S
C866 C869 1.409 . S
C867 H859 0.930 . S
C867 C868 1.355 . S
C867 C869 1.415 . S
C868 C867 1.355 . S
C868 C870 1.419 . S
C869 C864 1.425 . S
C869 C866 1.409 . S
C869 C867 1.415 . S
C870 H860 0.930 . S
C870 C868 1.419 . S
C870 C871 1.362 . S
C871 H861 0.930 . S
C871 C864 1.409 . S
C871 C870 1.362 . S
C495 C125 1.933 . S
C500 C226 1.978 . S
C516 C310 1.977 . S
C511 C144 1.957 . S
C532 C376 1.942 . S
C527 C87 2.070 . S
C548 C460 1.969 . S
C543 C106 2.017 . S
C564 C215 1.989 1_565 S
C559 C49 2.064 . S
C575 C68 2.077 . S
C580 C299 2.003 . S
C591 C11 2.143 . S
C596 C387 1.964 . S
C607 C30 2.151 . S
C612 C471 1.944 . S
C628 C222 0.817 1_455 S
C623 C97 0.683 . S
C644 C306 0.744 1_545 S
C639 C116 0.678 . S
C660 C378 0.692 . S
C655 C135 0.796 . S
C671 C78 0.667 . S
C676 C462 0.817 . S
C687 C21 0.773 . S
C692 C210 0.730 . S
C708 C294 0.714 . S
C703 C40 0.713 . S
C724 C390 0.724 . S
C719 C59 0.751 . S
C735 C2 0.663 . S
C740 C474 0.818 . S
C751 C101 2.095 . S
C756 C219 2.128 . S
C767 C120 1.993 . S
C772 C303 2.055 . S
C788 C383 2.159 . S
C783 C139 1.906 . S
C804 C467 2.192 . S
C799 C82 2.011 . S
C815 C25 2.066 . S
C820 C208 2.147 . S
C836 C292 2.108 1_565 S
C831 C44 2.050 . S
C852 C394 2.140 . S
C847 C63 1.931 . S
C863 C6 1.941 . S
C868 C478 2.177 . S
