# Generated by pormake.
# Topology apo, (3,6)-cn, num edge types: 1
# Building blocks:
#     Node 0, Type 0, BuildingBlock: CUQRIR_clean_linker_1, # of connection points: 3
#     Node 1, Type 0, BuildingBlock: CUQRIR_clean_linker_1, # of connection points: 3
#     Node 2, Type 0, BuildingBlock: CUQRIR_clean_linker_1, # of connection points: 3
#     Node 3, Type 0, BuildingBlock: CUQRIR_clean_linker_1, # of connection points: 3
#     Node 4, Type 0, BuildingBlock: CUQRIR_clean_linker_1, # of connection points: 3
#     Node 5, Type 0, BuildingBlock: CUQRIR_clean_linker_1, # of connection points: 3
#     Node 6, Type 0, BuildingBlock: CUQRIR_clean_linker_1, # of connection points: 3
#     Node 7, Type 0, BuildingBlock: CUQRIR_clean_linker_1, # of connection points: 3
#     Node 8, Type 1, BuildingBlock: MIDCAF_clean_sbu_0, # of connection points: 6
#     Node 9, Type 1, BuildingBlock: MIDCAF_clean_sbu_0, # of connection points: 6
#     Node 10, Type 1, BuildingBlock: MIDCAF_clean_sbu_0, # of connection points: 6
#     Node 11, Type 1, BuildingBlock: MIDCAF_clean_sbu_0, # of connection points: 6
#     Edge 12, Type (0, 1), BuildingBlock: EZIPEK_clean_linker_0, # of connection points: 2
#     Edge 13, Type (0, 1), BuildingBlock: EZIPEK_clean_linker_0, # of connection points: 2
#     Edge 14, Type (0, 1), BuildingBlock: EZIPEK_clean_linker_0, # of connection points: 2
#     Edge 15, Type (0, 1), BuildingBlock: EZIPEK_clean_linker_0, # of connection points: 2
#     Edge 16, Type (0, 1), BuildingBlock: EZIPEK_clean_linker_0, # of connection points: 2
#     Edge 17, Type (0, 1), BuildingBlock: EZIPEK_clean_linker_0, # of connection points: 2
#     Edge 18, Type (0, 1), BuildingBlock: EZIPEK_clean_linker_0, # of connection points: 2
#     Edge 19, Type (0, 1), BuildingBlock: EZIPEK_clean_linker_0, # of connection points: 2
#     Edge 20, Type (0, 1), BuildingBlock: EZIPEK_clean_linker_0, # of connection points: 2
#     Edge 21, Type (0, 1), BuildingBlock: EZIPEK_clean_linker_0, # of connection points: 2
#     Edge 22, Type (0, 1), BuildingBlock: EZIPEK_clean_linker_0, # of connection points: 2
#     Edge 23, Type (0, 1), BuildingBlock: EZIPEK_clean_linker_0, # of connection points: 2
#     Edge 24, Type (0, 1), BuildingBlock: EZIPEK_clean_linker_0, # of connection points: 2
#     Edge 25, Type (0, 1), BuildingBlock: EZIPEK_clean_linker_0, # of connection points: 2
#     Edge 26, Type (0, 1), BuildingBlock: EZIPEK_clean_linker_0, # of connection points: 2
#     Edge 27, Type (0, 1), BuildingBlock: EZIPEK_clean_linker_0, # of connection points: 2
#     Edge 28, Type (0, 1), BuildingBlock: EZIPEK_clean_linker_0, # of connection points: 2
#     Edge 29, Type (0, 1), BuildingBlock: EZIPEK_clean_linker_0, # of connection points: 2
#     Edge 30, Type (0, 1), BuildingBlock: EZIPEK_clean_linker_0, # of connection points: 2
#     Edge 31, Type (0, 1), BuildingBlock: EZIPEK_clean_linker_0, # of connection points: 2
#     Edge 32, Type (0, 1), BuildingBlock: EZIPEK_clean_linker_0, # of connection points: 2
#     Edge 33, Type (0, 1), BuildingBlock: EZIPEK_clean_linker_0, # of connection points: 2
#     Edge 34, Type (0, 1), BuildingBlock: EZIPEK_clean_linker_0, # of connection points: 2
#     Edge 35, Type (0, 1), BuildingBlock: EZIPEK_clean_linker_0, # of connection points: 2
# Relax obj value: 0.008
# Max RMSD: 0.059
# Mean RMSD: 0.056
data_MOF--net-apo--node1-MIDCAF_clean_sbu_0--node2-CUQRIR_clean_linker_1--edge1-EZIPEK_clean_linker_0
_symmetry_space_group_name_H-M    P1
_symmetry_Int_Tables_number       1
_symmetry_cell_setting            triclinic
loop_
_symmetry_equiv_pos_as_xyz
'x, y, z'
_cell_length_a     25.223047
_cell_length_b     28.338511
_cell_length_c     20.00926
_cell_angle_alpha  90.580861
_cell_angle_beta   90.011764
_cell_angle_gamma 88.841055
loop_
_atom_site_label
_atom_site_type_symbol
_atom_site_fract_x
_atom_site_fract_y
_atom_site_fract_z
_atom_type_partial_charge
C0 C 0.28452 0.25102 0.43604 0.0
N1 N 0.31844 0.28667 0.44783 0.0
N2 N 0.2718 0.24864 0.37025 0.0
C3 C 0.26286 0.21902 0.48824 0.0
C4 C 0.29955 0.28349 0.34219 0.0
N5 N 0.32785 0.30656 0.38911 0.0
C6 C 0.29638 0.297 0.26986 0.0
H7 H 0.27646 0.18226 0.47733 0.0
H8 H 0.2189 0.21976 0.4857 0.0
H9 H 0.27577 0.2293 0.53925 0.0
H10 H 0.26935 0.32815 0.26502 0.0
H11 H 0.28097 0.26774 0.23865 0.0
H12 H 0.33602 0.30703 0.25138 0.0
C13 C 0.20213 0.21272 0.93702 0.0
N14 N 0.16768 0.1776 0.94825 0.0
N15 N 0.21381 0.21529 0.87103 0.0
C16 C 0.22475 0.24438 0.9899 0.0
C17 C 0.18496 0.18092 0.84235 0.0
N18 N 0.15694 0.15806 0.88916 0.0
C19 C 0.18645 0.1679 0.76943 0.0
H20 H 0.20776 0.28051 0.9838 0.0
H21 H 0.26833 0.24647 0.98329 0.0
H22 H 0.21575 0.23182 1.0409 0.0
H23 H 0.21244 0.13616 0.76255 0.0
H24 H 0.20221 0.19699 0.73904 0.0
H25 H 0.14618 0.15893 0.75167 0.0
C26 C 0.79694 0.2289 0.67405 0.0
N27 N 0.82597 0.18822 0.66666 0.0
N28 N 0.76654 0.22764 0.72987 0.0
C29 C 0.79809 0.27032 0.62785 0.0
C30 C 0.77871 0.18545 0.75722 0.0
N31 N 0.81557 0.16196 0.72 0.0
C32 C 0.75236 0.16594 0.81829 0.0
H33 H 0.8328 0.26829 0.59385 0.0
H34 H 0.79931 0.30356 0.65757 0.0
H35 H 0.76103 0.27154 0.59797 0.0
H36 H 0.71372 0.18384 0.82873 0.0
H37 H 0.77844 0.17142 0.86219 0.0
H38 H 0.74638 0.12744 0.81226 0.0
C39 C 0.69213 0.24553 0.17125 0.0
N40 N 0.66183 0.28552 0.16521 0.0
N41 N 0.72192 0.24715 0.2276 0.0
C42 C 0.69254 0.2043 0.12345 0.0
C43 C 0.70814 0.28878 0.25665 0.0
N44 N 0.67082 0.31159 0.21995 0.0
C45 C 0.73286 0.30799 0.31953 0.0
H46 H 0.6925 0.17087 0.15187 0.0
H47 H 0.72963 0.20431 0.09364 0.0
H48 H 0.65784 0.20551 0.08942 0.0
H49 H 0.77423 0.29471 0.32554 0.0
H50 H 0.70972 0.29605 0.36314 0.0
H51 H 0.73241 0.34714 0.31974 0.0
C52 C 0.69652 0.71072 0.69473 0.0
N53 N 0.65842 0.67825 0.68668 0.0
N54 N 0.70686 0.7178 0.76034 0.0
C55 C 0.72663 0.73298 0.63888 0.0
C56 C 0.67364 0.68861 0.79217 0.0
N57 N 0.64457 0.66389 0.74731 0.0
C58 C 0.67186 0.68272 0.8666 0.0
H59 H 0.7653 0.71404 0.63285 0.0
H60 H 0.73482 0.77037 0.65145 0.0
H61 H 0.70477 0.73106 0.59089 0.0
H62 H 0.67528 0.71757 0.89186 0.0
H63 H 0.70623 0.66048 0.8824 0.0
H64 H 0.6347 0.66573 0.88237 0.0
C65 C 0.7606 0.76469 0.18046 0.0
N66 N 0.79629 0.79884 0.17048 0.0
N67 N 0.74582 0.76395 0.24545 0.0
C68 C 0.73848 0.73329 0.12687 0.0
C69 C 0.7739 0.79851 0.27485 0.0
N70 N 0.80471 0.81961 0.22929 0.0
C71 C 0.76897 0.81348 0.3468 0.0
H72 H 0.69758 0.74564 0.11486 0.0
H73 H 0.73611 0.69659 0.14534 0.0
H74 H 0.76285 0.73383 0.08075 0.0
H75 H 0.8087 0.82072 0.36788 0.0
H76 H 0.74941 0.78617 0.37695 0.0
H77 H 0.745 0.8467 0.34975 0.0
C78 C 0.19623 0.75029 0.46891 0.0
N79 N 0.1551 0.78154 0.47421 0.0
N80 N 0.21661 0.75046 0.40679 0.0
C81 C 0.22043 0.72361 0.52664 0.0
C82 C 0.18819 0.78417 0.37455 0.0
N83 N 0.14752 0.8014 0.41404 0.0
C84 C 0.2099 0.80698 0.31258 0.0
H85 H 0.22574 0.74767 0.57013 0.0
H86 H 0.25922 0.70695 0.51351 0.0
H87 H 0.19337 0.6954 0.54211 0.0
H88 H 0.19485 0.78887 0.26725 0.0
H89 H 0.2537 0.80304 0.31069 0.0
H90 H 0.20068 0.84532 0.31117 0.0
C91 C 0.27171 0.71655 0.97649 0.0
N92 N 0.3085 0.68142 0.98215 0.0
N93 N 0.25688 0.72176 0.91192 0.0
C94 C 0.24687 0.74296 1.03435 0.0
C95 C 0.28616 0.68875 0.87837 0.0
N96 N 0.31713 0.66364 0.92115 0.0
C97 C 0.28161 0.67921 0.80464 0.0
H98 H 0.21327 0.72232 1.05348 0.0
H99 H 0.23137 0.778 1.01842 0.0
H100 H 0.27572 0.74746 0.07564 0.0
H101 H 0.27756 0.71297 0.7773 0.0
H102 H 0.24531 0.65876 0.79495 0.0
H103 H 0.31657 0.65884 0.78559 0.0
Zn104 Zn 0.05875 0.07418 0.4098 0.0
Zn105 Zn 0.96582 0.05913 0.19643 0.0
Zn106 Zn -0.00015 0.07136 0.31062 0.0
C107 C 0.05114 0.10101 0.16174 0.0
C108 C 0.94119 0.97673 0.25006 0.0
O109 O 0.95027 0.10906 0.39086 0.0
O110 O 0.00887 0.10516 0.47189 0.0
C111 C 0.11417 0.1237 0.3239 0.0
O112 O 0.04878 0.10423 0.22645 0.0
O113 O 0.01849 0.07615 0.13041 0.0
O114 O 0.93907 -0.00444 0.19338 0.0
O115 O 0.96779 -0.00311 0.29746 0.0
O116 O 0.117 0.11281 0.38451 0.0
O117 O 0.07472 0.11012 0.28774 0.0
O118 O 0.01953 -0.00265 0.33536 0.0
O119 O 0.07752 0.00669 0.41718 0.0
C120 C 0.05403 0.98007 0.37653 0.0
O121 O 0.92703 0.11202 0.32218 0.0
O122 O 0.90952 0.10823 0.2139 0.0
C123 C 0.96271 0.11631 0.45286 0.0
C124 C 0.89828 0.12369 0.27171 0.0
Zn125 Zn 0.52203 0.41231 0.69622 0.0
Zn126 Zn 0.42671 0.39322 0.9145 0.0
Zn127 Zn 0.48185 0.39738 0.81196 0.0
C128 C 0.42853 0.48736 0.89058 0.0
C129 C 0.36975 0.34316 0.82589 0.0
O130 O 0.55827 0.361 0.82236 0.0
O131 O 0.58176 0.36834 0.71625 0.0
C132 C 0.52339 0.49849 0.7521 0.0
O133 O 0.45638 0.47032 0.84164 0.0
O134 O 0.41142 0.46034 0.93494 0.0
O135 O 0.36596 0.35756 0.88538 0.0
O136 O 0.40986 0.35463 0.78983 0.0
O137 O 0.5387 0.47936 0.69823 0.0
O138 O 0.49899 0.47411 0.79636 0.0
O139 O 0.43578 0.36153 0.72839 0.0
O140 O 0.46849 0.3888 0.63385 0.0
C141 C 0.43533 0.36391 0.66373 0.0
O142 O 0.53519 0.36297 0.8915 0.0
O143 O 0.47566 0.35778 0.97122 0.0
C144 C 0.59065 0.35222 0.77384 0.0
C145 C 0.52289 0.35171 0.95214 0.0
Zn146 Zn 0.01536 0.90857 0.93794 0.0
Zn147 Zn 0.94072 0.88833 0.71199 0.0
Zn148 Zn 0.97885 0.89803 0.82283 0.0
C149 C 0.91046 0.97854 0.75632 0.0
C150 C 0.88138 0.8329 0.79244 0.0
O151 O 0.05409 0.85871 0.8185 0.0
O152 O 0.07171 0.85845 0.92676 0.0
C153 C 0.03149 -0.00632 0.8744 0.0
O154 O 0.94844 0.96963 0.79788 0.0
O155 O 0.90209 0.94901 0.71026 0.0
O156 O 0.89442 0.83451 0.73166 0.0
O157 O 0.90617 0.85753 0.83637 0.0
O158 O 0.03986 0.97334 0.92931 0.0
O159 O 0.00172 0.97396 0.83004 0.0
O160 O 0.92697 0.86611 0.90072 0.0
O161 O 0.95617 0.89422 0.99724 0.0
C162 C 0.92297 0.87055 0.9648 0.0
O163 O 0.03631 0.86082 0.7528 0.0
O164 O 0.00202 0.87657 0.65377 0.0
C165 C 0.08284 0.84502 0.86797 0.0
C166 C 0.03934 0.85963 0.68839 0.0
Zn167 Zn 0.52868 0.57602 0.21513 0.0
Zn168 Zn 0.45608 0.56335 0.43641 0.0
Zn169 Zn 0.49443 0.57064 0.32517 0.0
C170 C 0.54898 0.59788 0.46804 0.0
C171 C 0.44154 0.47685 0.37148 0.0
O172 O 0.43735 0.60538 0.25264 0.0
O173 O 0.4676 0.57981 0.15484 0.0
C174 C 0.58288 0.63961 0.29275 0.0
O175 O 0.54569 0.60384 0.40424 0.0
O176 O 0.5157 0.57289 0.49754 0.0
O177 O 0.42745 0.50027 0.42266 0.0
O178 O 0.47572 0.49428 0.3311 0.0
O179 O 0.56724 0.63518 0.23314 0.0
O180 O 0.56358 0.61387 0.33888 0.0
O181 O 0.5285 0.49923 0.3011 0.0
O182 O 0.57478 0.52005 0.21424 0.0
C183 C 0.56766 0.49119 0.26061 0.0
O184 O 0.41923 0.61026 0.31833 0.0
O185 O 0.40435 0.61707 0.42682 0.0
C186 C 0.43244 0.60143 0.18851 0.0
C187 C 0.39252 0.628 0.36759 0.0
C188 C 0.06939 0.8555 0.44269 0.0
C189 C 0.10655 0.83712 0.39636 0.0
C190 C 0.08623 0.90335 0.32335 0.0
C191 C 0.06606 0.9288 0.37977 0.0
N192 N 0.02905 0.92549 0.49143 0.0
N193 N 0.10011 0.82454 0.2781 0.0
C194 C 0.05503 0.90393 0.43938 0.0
C195 C 0.10053 0.85497 0.3311 0.0
N196 N 0.03891 0.82531 0.47752 0.0
N197 N 0.09363 0.92508 0.26367 0.0
H198 H 0.10316 0.7881 0.28523 0.0
H199 H 0.09075 0.83512 0.22968 0.0
H200 H 0.08408 0.96058 0.25596 0.0
H201 H 0.11254 0.90818 0.22345 0.0
H202 H 0.00708 0.83658 0.50733 0.0
H203 H 0.04213 0.78896 0.46887 0.0
H204 H 0.02424 0.90886 0.53715 0.0
H205 H 0.01398 0.96 0.48939 0.0
C206 C 0.31972 0.57923 0.8875 0.0
C207 C 0.34691 0.62065 0.90608 0.0
C208 C 0.43142 0.57596 0.90581 0.0
C209 C 0.40385 0.53498 0.88652 0.0
N210 N 0.32542 0.50063 0.83939 0.0
N211 N 0.42891 0.66156 0.91636 0.0
C212 C 0.34913 0.53773 0.87091 0.0
C213 C 0.40305 0.61995 0.91019 0.0
N214 N 0.26564 0.57882 0.88873 0.0
N215 N 0.48401 0.57252 0.9216 0.0
H216 H 0.40857 0.69398 0.91721 0.0
H217 H 0.46998 0.66421 0.91434 0.0
H218 H 0.50573 0.54093 0.91679 0.0
H219 H 0.50528 0.60016 0.94232 0.0
H220 H 0.24383 0.54818 0.88355 0.0
H221 H 0.24246 0.60843 0.90062 0.0
H222 H 0.28688 0.50233 0.82072 0.0
H223 H 0.34606 0.46975 0.82565 0.0
C224 C 0.55544 0.62853 0.74783 0.0
C225 C 0.61057 0.62454 0.76085 0.0
C226 C 0.59927 0.54279 0.79563 0.0
C227 C 0.54701 0.54419 0.76991 0.0
N228 N 0.4735 0.58784 0.72342 0.0
N229 N 0.68632 0.57643 0.79236 0.0
C230 C 0.52424 0.58713 0.74712 0.0
C231 C 0.63276 0.58148 0.7846 0.0
N232 N 0.53321 0.6721 0.73748 0.0
N233 N 0.61713 0.50394 0.82951 0.0
H234 H 0.7124 0.60357 0.7836 0.0
H235 H 0.70538 0.54425 0.80178 0.0
H236 H 0.59354 0.47479 0.83802 0.0
H237 H 0.65319 0.50254 0.85486 0.0
H238 H 0.4926 0.67828 0.73228 0.0
H239 H 0.5555 0.70267 0.74039 0.0
H240 H 0.45618 0.61673 0.6995 0.0
H241 H 0.44938 0.55838 0.72593 0.0
C242 C 0.88853 0.85359 0.26822 0.0
C243 C 0.83729 0.85996 0.24098 0.0
C244 C 0.84918 0.94534 0.23851 0.0
C245 C 0.90213 0.93854 0.26196 0.0
N246 N 0.95736 0.8907 0.3318 0.0
N247 N 0.7628 0.91131 0.2187 0.0
C248 C 0.91813 0.89379 0.28581 0.0
C249 C 0.81572 0.90581 0.23155 0.0
N250 N 0.90835 0.80914 0.27861 0.0
N251 N 0.83086 -0.01017 0.22413 0.0
H252 H 0.73753 0.88273 0.21552 0.0
H253 H 0.743 0.9438 0.21644 0.0
H254 H 0.85154 0.02002 0.23752 0.0
H255 H 0.79569 -0.00304 0.19863 0.0
H256 H 0.94767 0.80231 0.29202 0.0
H257 H 0.88604 0.77911 0.27 0.0
H258 H 0.96955 0.85928 0.35422 0.0
H259 H 0.96871 0.92114 0.35653 0.0
C260 C 0.81824 0.07656 0.69414 0.0
C261 C 0.83575 0.11487 0.7334 0.0
C262 C 0.88459 0.05966 0.8059 0.0
C263 C 0.87699 0.02337 0.75787 0.0
N264 N 0.80782 -0.00775 0.68728 0.0
N265 N 0.88445 0.14386 0.8284 0.0
C266 C 0.83562 0.03008 0.71007 0.0
C267 C 0.86808 0.10661 0.79041 0.0
N268 N 0.78398 0.08457 0.64252 0.0
N269 N 0.90303 0.04876 0.86813 0.0
H270 H 0.87314 0.17867 0.81835 0.0
H271 H 0.91248 0.14066 0.86639 0.0
H272 H 0.90814 0.01403 0.88384 0.0
H273 H 0.90599 0.07338 0.90686 0.0
H274 H 0.77553 0.05928 0.60612 0.0
H275 H 0.76582 0.11737 0.63451 0.0
H276 H 0.7751 -0.00493 0.65575 0.0
H277 H 0.81158 0.95893 0.70863 0.0
C278 C 0.66542 0.39712 0.19852 0.0
C279 C 0.64871 0.3579 0.23532 0.0
C280 C 0.59593 0.41084 0.3086 0.0
C281 C 0.60324 0.44776 0.26258 0.0
N282 N 0.67245 0.48185 0.19609 0.0
N283 N 0.60018 0.32651 0.32803 0.0
C284 C 0.64592 0.44285 0.21617 0.0
C285 C 0.61512 0.3646 0.29184 0.0
N286 N 0.70075 0.3907 0.14743 0.0
N287 N 0.57515 0.42065 0.37031 0.0
H288 H 0.61359 0.29225 0.31712 0.0
H289 H 0.57144 0.32831 0.36536 0.0
H290 H 0.56773 0.45508 0.38704 0.0
H291 H 0.57216 0.39572 0.4079 0.0
H292 H 0.70896 0.41673 0.11275 0.0
H293 H 0.72002 0.35845 0.13799 0.0
H294 H 0.70609 0.48039 0.16596 0.0
H295 H 0.66621 0.51495 0.21831 0.0
C296 C 0.40859 0.34745 0.35431 0.0
C297 C 0.35588 0.34956 0.3784 0.0
C298 C 0.35519 0.43561 0.37114 0.0
C299 C 0.41037 0.43364 0.3567 0.0
N300 N 0.47814 0.38935 0.2988 0.0
N301 N 0.27595 0.39389 0.40226 0.0
C302 C 0.43438 0.39 0.33827 0.0
C303 C 0.32813 0.39326 0.38412 0.0
N304 N 0.43362 0.30463 0.34639 0.0
N305 N 0.32848 0.47803 0.36777 0.0
H306 H 0.25434 0.36317 0.40654 0.0
H307 H 0.25433 0.42426 0.41512 0.0
H308 H 0.34689 0.50873 0.35239 0.0
H309 H 0.28772 0.48245 0.37358 0.0
H310 H 0.47398 0.30062 0.33633 0.0
H311 H 0.41417 0.27295 0.35333 0.0
H312 H 0.49629 0.3586 0.28074 0.0
H313 H 0.49097 0.41975 0.27582 0.0
C314 C 0.15192 0.0714 0.8835 0.0
C315 C 0.12663 0.11615 0.87814 0.0
C316 C 0.04579 0.07845 0.83918 0.0
C317 C 0.06653 0.0343 0.85965 0.0
N318 N 0.1436 -0.01363 0.88694 0.0
N319 N 0.05065 0.16367 0.84797 0.0
C320 C 0.12119 0.03011 0.87723 0.0
C321 C 0.07375 0.12008 0.85518 0.0
N322 N 0.20562 0.06874 0.89203 0.0
N323 N 0.00245 0.08018 0.79908 0.0
H324 H 0.0715 0.19466 0.85556 0.0
H325 H 0.0104 0.1689 0.83816 0.0
H326 H -0.01208 0.04978 0.77693 0.0
H327 H -0.0134 0.1113 0.77992 0.0
H328 H 0.22788 0.03745 0.89108 0.0
H329 H 0.22883 0.09866 0.89517 0.0
H330 H 0.18072 0.98051 0.90833 0.0
H331 H 0.12437 0.95539 0.87373 0.0
C332 C 0.16817 0.12924 1.05087 0.0
C333 C 0.14397 0.16473 1.01124 0.0
C334 C 0.06906 0.1698 0.08931 0.0
C335 C 0.0887 0.12865 0.12153 0.0
N336 N 0.15698 0.06911 0.13525 0.0
N337 N 0.07461 0.22239 0.99426 0.0
C338 C 0.1388 0.10876 0.10368 0.0
C339 C 0.09556 0.1865 1.03155 0.0
N340 N 0.21951 0.11595 1.03833 0.0
N341 N 0.02492 0.19254 0.11427 0.0
H342 H 0.09502 0.23686 0.9543 0.0
H343 H 0.03677 0.23687 1.00116 0.0
H344 H 0.00526 0.18088 0.15671 0.0
H345 H 0.01008 0.22458 0.09663 0.0
H346 H 0.24132 0.09282 0.06822 0.0
H347 H 0.24182 0.13176 1.00116 0.0
H348 H 0.19028 0.0496 0.11992 0.0
H349 H 0.13706 0.05455 0.17559 0.0
C350 C 0.3927 0.27938 0.52827 0.0
C351 C 0.34291 0.29959 0.5108 0.0
C352 C 0.34721 0.35395 0.60687 0.0
C353 C 0.39865 0.33589 0.62178 0.0
N354 N 0.46521 0.27467 0.60847 0.0
N355 N 0.26532 0.34389 0.54466 0.0
C356 C 0.41963 0.29618 0.5862 0.0
C357 C 0.31773 0.33309 0.55383 0.0
N358 N 0.41424 0.24457 0.48853 0.0
N359 N 0.3277 0.39234 0.64138 0.0
H360 H 0.24283 0.32742 0.5078 0.0
H361 H 0.24308 0.36528 0.57718 0.0
H362 H 0.34772 0.40725 0.68179 0.0
H363 H 0.29313 0.41066 0.62821 0.0
H364 H 0.45281 0.23136 0.49328 0.0
H365 H 0.39335 0.22955 0.44896 0.0
H366 H 0.48136 0.24367 0.58815 0.0
H367 H 0.48494 0.28615 0.65132 0.0
C368 C 0.64632 0.29952 1.04214 0.0
C369 C 0.62795 0.29947 0.1095 0.0
C370 C 0.5494 0.3429 0.0735 0.0
C371 C 0.56202 0.33512 1.00455 0.0
N372 N 0.61702 0.2892 0.92818 0.0
N373 N 0.55095 0.30428 0.17984 0.0
C374 C 0.60923 0.30882 0.98974 0.0
C375 C 0.57594 0.31577 0.12227 0.0
N376 N 0.69859 0.29205 1.02773 0.0
N377 N 0.51486 0.37786 0.09382 0.0
H378 H 0.56838 0.2813 0.21421 0.0
H379 H 0.51089 0.31247 0.18757 0.0
H380 H 0.50064 0.40405 1.06186 0.0
H381 H 0.50726 0.38465 0.14436 0.0
H382 H 0.7134 0.2947 0.97924 0.0
H383 H 0.72735 0.28846 1.06483 0.0
H384 H 0.6498 0.26748 0.91704 0.0
H385 H 0.58691 0.28876 0.89263 0.0
C386 C 0.84182 0.17403 0.54334 0.0
C387 C 0.85979 0.17368 0.61083 0.0
C388 C 0.93671 0.12758 0.57469 0.0
C389 C 0.92479 0.13534 0.50571 0.0
N390 N 0.87228 0.18344 0.43011 0.0
N391 N 0.93626 0.16692 0.68165 0.0
C392 C 0.87887 0.16344 0.49111 0.0
C393 C 0.91114 0.15598 0.62362 0.0
N394 N 0.78993 0.18311 0.52857 0.0
N395 N 0.96901 0.09127 0.59505 0.0
H396 H 0.91937 0.19026 0.71662 0.0
H397 H 0.97609 0.15783 0.6892 0.0
H398 H 0.98124 0.06374 0.56334 0.0
H399 H 0.9761 0.08484 0.64561 0.0
H400 H 0.77532 0.18072 0.47987 0.0
H401 H 0.76108 0.1878 0.56542 0.0
H402 H 0.84036 0.2061 0.41934 0.0
H403 H 0.90273 0.18354 0.39507 0.0
C404 C 0.80086 0.84588 0.06743 0.0
C405 C 0.82251 0.81024 0.10885 0.0
C406 C 0.90029 0.80289 1.03622 0.0
C407 C 0.8833 0.84446 1.00304 0.0
N408 N 0.81731 0.90522 0.98351 0.0
N409 N 0.88933 0.75113 0.13114 0.0
C410 C 0.83303 0.86548 1.0168 0.0
C411 C 0.871 0.78718 0.09215 0.0
N412 N 0.74935 0.86018 0.07629 0.0
N413 N 0.9444 0.77874 1.01384 0.0
H414 H 0.86682 0.73733 0.16977 0.0
H415 H 0.92707 0.73591 0.12696 0.0
H416 H 0.96597 0.78951 0.97236 0.0
H417 H 0.95723 0.74633 1.03244 0.0
H418 H 0.72947 0.88358 1.04481 0.0
H419 H 0.72507 0.84501 0.11202 0.0
H420 H 0.78378 0.9254 0.99613 0.0
H421 H 0.83939 0.91912 0.94451 0.0
C422 C 0.60076 0.68878 0.58755 0.0
C423 C 0.63768 0.66082 0.62398 0.0
C424 C 0.62705 0.5953 0.54478 0.0
C425 C 0.58833 0.62247 0.50996 0.0
N426 N 0.54754 0.69816 0.48709 0.0
N427 N 0.69755 0.59421 0.62762 0.0
C428 C 0.57858 0.67047 0.52745 0.0
C429 C 0.65447 0.61604 0.59943 0.0
N430 N 0.58544 0.73205 0.61224 0.0
N431 N 0.63636 0.54929 0.52649 0.0
H432 H 0.71913 0.61003 0.66591 0.0
H433 H 0.71474 0.56297 0.60935 0.0
H434 H 0.61935 0.53424 0.48395 0.0
H435 H 0.65923 0.52572 0.55446 0.0
H436 H 0.55449 0.7524 0.59263 0.0
H437 H 0.60193 0.74663 0.65536 0.0
H438 H 0.54238 0.73443 0.49363 0.0
H439 H 0.53032 0.68551 0.44327 0.0
C440 C 0.31662 0.62234 0.07196 0.0
C441 C 0.33307 0.66497 1.04311 0.0
C442 C 0.40014 0.67352 0.13078 0.0
C443 C 0.39032 0.6268 0.15127 0.0
N444 N 0.33905 0.55632 0.14383 0.0
N445 N 0.38933 0.73239 1.04427 0.0
C446 C 0.34799 0.60123 0.12306 0.0
C447 C 0.37403 0.69134 0.07303 0.0
N448 N 0.27027 0.60299 1.05134 0.0
N449 N 0.43492 0.70039 0.16623 0.0
H450 H 0.37023 0.74662 1.00264 0.0
H451 H 0.42269 0.75089 1.05886 0.0
H452 H 0.45455 0.68798 0.20868 0.0
H453 H 0.44082 0.73604 0.15748 0.0
H454 H 0.25364 0.57363 0.07334 0.0
H455 H 0.24583 0.6195 1.01625 0.0
H456 H 0.31286 0.53367 0.12014 0.0
H457 H 0.35971 0.54115 0.18369 0.0
C458 C 0.14815 0.84431 0.56137 0.0
C459 C 0.13506 0.79859 0.53817 0.0
C460 C 0.08082 0.78755 0.63837 0.0
C461 C 0.08405 0.83639 0.65235 0.0
N462 N 0.12328 0.91141 0.63203 0.0
N463 N 0.08938 0.72582 0.55402 0.0
C464 C 0.11939 0.86465 0.616 0.0
C465 C 0.10284 0.7693 0.57776 0.0
N466 N 0.18764 0.86807 0.53054 0.0
N467 N 0.05517 0.7592 0.68209 0.0
H468 H 0.10262 0.71273 0.50793 0.0
H469 H 0.06179 0.70447 0.57694 0.0
H470 H 0.03858 0.77227 0.7265 0.0
H471 H 0.05484 0.72257 0.67768 0.0
H472 H 0.20195 0.90017 0.54778 0.0
H473 H 0.20914 0.85354 0.49058 0.0
H474 H 0.14311 0.93555 0.60274 0.0
H475 H 0.1047 0.92623 0.67413 0.0
C476 C 0.24868 0.17177 0.32088 0.0
C477 C 0.23373 0.21859 0.33847 0.0
C478 C 0.14289 0.20426 0.30174 0.0
C479 C 0.15522 0.15548 0.2994 0.0
N480 N 0.21954 0.09218 0.29564 0.0
N481 N 0.16808 0.2812 0.34381 0.0
C482 C 0.20856 0.13927 0.30367 0.0
C483 C 0.18144 0.23574 0.32677 0.0
N484 N 0.30105 0.1587 0.32223 0.0
N485 N 0.09367 0.21977 0.28261 0.0
H486 H 0.19557 0.30476 0.36287 0.0
H487 H 0.12946 0.2948 0.34294 0.0
H488 H 0.06529 0.19667 0.26437 0.0
H489 H 0.08279 0.25526 0.27876 0.0
H490 H 0.31563 0.12591 0.30621 0.0
H491 H 0.33056 0.18228 0.33578 0.0
H492 H 0.25648 0.07644 0.30436 0.0
H493 H 0.1903 0.0686 0.28108 0.0
C494 C 0.30383 0.22928 0.82762 0.0
C495 C 0.25126 0.24571 0.83954 0.0
C496 C 0.27525 0.3255 0.80751 0.0
C497 C 0.32892 0.31004 0.80291 0.0
N498 N 0.39153 0.24633 0.78469 0.0
N499 N 0.18309 0.30486 0.82556 0.0
C500 C 0.34207 0.26134 0.80406 0.0
C501 C 0.23564 0.29243 0.82364 0.0
N502 N 0.31767 0.18385 0.84296 0.0
N503 N 0.26337 0.37241 0.80035 0.0
H504 H 0.15397 0.28088 0.83829 0.0
H505 H 0.16793 0.33755 0.81088 0.0
H506 H 0.29205 0.39637 0.78603 0.0
H507 H 0.22617 0.38768 0.80932 0.0
H508 H 0.35647 0.17067 0.84217 0.0
H509 H 0.29027 0.15982 0.86037 0.0
H510 H 0.4029 0.21094 0.78003 0.0
H511 H 0.41964 0.26955 0.76686 0.0
C512 C 0.67046 0.2447 0.7271 0.0
C513 C 0.72195 0.25801 0.74691 0.0
C514 C 0.68568 0.33062 0.79846 0.0
C515 C 0.63422 0.3169 0.77883 0.0
N516 N 0.57557 0.25638 0.74078 0.0
N517 N 0.77875 0.3079 0.81113 0.0
C518 C 0.62605 0.27227 0.74852 0.0
C519 C 0.72957 0.29927 0.78594 0.0
N520 N 0.66442 0.20649 0.68581 0.0
N521 N 0.69247 0.37405 0.82704 0.0
H522 H 0.81133 0.28562 0.80121 0.0
H523 H 0.78658 0.33509 0.84484 0.0
H524 H 0.66052 0.39646 0.83937 0.0
H525 H 0.72939 0.38848 0.83636 0.0
H526 H 0.62853 0.1977 0.66373 0.0
H527 H 0.69631 0.18549 0.66932 0.0
H528 H 0.56684 0.22247 0.72421 0.0
H529 H 0.54236 0.27575 0.75728 0.0
C530 C 0.75913 0.1764 0.28343 0.0
C531 C 0.76667 0.21729 0.24481 0.0
C532 C 0.86264 0.20339 0.24669 0.0
C533 C 0.85458 0.15902 0.27649 0.0
N534 N 0.79635 0.10216 0.32401 0.0
N535 N 0.8241 0.26887 0.18525 0.0
C536 C 0.80312 0.14536 0.29594 0.0
C537 C 0.81815 0.23072 0.22556 0.0
N538 N 0.7099 0.16779 0.30822 0.0
N539 N 0.91308 0.21935 0.23945 0.0
H540 H 0.79215 0.28982 0.16939 0.0
H541 H 0.85999 0.27777 0.16354 0.0
H542 H 0.94623 0.20024 0.25623 0.0
H543 H 0.92182 0.25307 0.22311 0.0
H544 H 0.70209 0.14097 0.34174 0.0
H545 H 0.67721 0.18978 0.29821 0.0
H546 H 0.75944 0.08768 0.3328 0.0
H547 H 0.82825 0.07991 0.33639 0.0
C548 C 0.80116 0.72455 0.79138 0.0
C549 C 0.74948 0.74488 0.78802 0.0
C550 C 0.7846 0.82314 0.81201 0.0
C551 C 0.83651 0.80304 0.81049 0.0
N552 N 0.89402 0.73502 0.81944 0.0
N553 N 0.68948 0.80994 0.8089 0.0
C554 C 0.84455 0.75362 0.80764 0.0
C555 C 0.74042 0.79311 0.80381 0.0
N556 N 0.80886 0.6781 0.77474 0.0
N557 N 0.77808 0.87103 0.81712 0.0
H558 H 0.65696 0.78833 0.80126 0.0
H559 H 0.67927 0.84399 0.82478 0.0
H560 H 0.80986 0.8934 0.82523 0.0
H561 H 0.74189 0.88881 0.81165 0.0
H562 H 0.84606 0.662 0.76913 0.0
H563 H 0.7776 0.6562 0.76252 0.0
H564 H 0.90227 0.699 0.82307 0.0
H565 H 0.92603 0.75625 0.83181 0.0
C566 C 0.71877 0.69055 0.29881 0.0
C567 C 0.7053 0.73587 0.27454 0.0
C568 C 0.61147 0.72219 0.2945 0.0
C569 C 0.6242 0.67421 0.30647 0.0
N570 N 0.6887 0.61208 0.3259 0.0
N571 N 0.64084 0.79691 0.25099 0.0
C572 C 0.67766 0.6584 0.31216 0.0
C573 C 0.65217 0.75269 0.27421 0.0
N574 N 0.77097 0.67847 0.30757 0.0
N575 N 0.56017 0.73786 0.30171 0.0
H576 H 0.67032 0.82004 0.23676 0.0
H577 H 0.60256 0.80994 0.24276 0.0
H578 H 0.5301 0.71557 0.31694 0.0
H579 H 0.54821 0.77311 0.29828 0.0
H580 H 0.78411 0.64731 0.32973 0.0
H581 H 0.8014 0.70155 0.29644 0.0
H582 H 0.72647 0.59673 0.32346 0.0
H583 H 0.65931 0.58832 0.33828 0.0
C584 C 0.31379 0.73948 0.39866 0.0
C585 C 0.26231 0.72397 0.38275 0.0
C586 C 0.29903 0.64989 0.33625 0.0
C587 C 0.35002 0.66387 0.35747 0.0
N588 N 0.40898 0.7254 0.39057 0.0
N589 N 0.2052 0.67049 0.32524 0.0
C590 C 0.35831 0.71006 0.38259 0.0
C591 C 0.25486 0.68116 0.34719 0.0
N592 N 0.31942 0.78152 0.43162 0.0
N593 N 0.29283 0.60598 0.30884 0.0
H594 H 0.17231 0.69248 0.33456 0.0
H595 H 0.19672 0.64159 0.29494 0.0
H596 H 0.32496 0.58358 0.29756 0.0
H597 H 0.25637 0.59121 0.29809 0.0
H598 H 0.35508 0.79311 0.45135 0.0
H599 H 0.28731 0.80427 0.44165 0.0
H600 H 0.41846 0.75972 0.40426 0.0
H601 H 0.44201 0.70441 0.37779 0.0
C602 C 0.22192 0.79436 0.8592 0.0
C603 C 0.21274 0.74951 0.88707 0.0
C604 C 0.11673 0.76283 0.87867 0.0
C605 C 0.12605 0.80969 0.85892 0.0
N606 N 0.18424 0.86749 0.81452 0.0
N607 N 0.15322 0.68969 0.92295 0.0
C608 C 0.17784 0.82457 0.84365 0.0
C609 C 0.16051 0.73299 0.89547 0.0
N610 N 0.27297 0.80844 0.85105 0.0
N611 N 0.06579 0.74721 0.88075 0.0
H612 H 0.18471 0.66705 0.93494 0.0
H613 H 0.11657 0.67689 0.93704 0.0
H614 H 0.03333 0.76857 0.8675 0.0
H615 H 0.05566 0.71251 0.89007 0.0
H616 H 0.28362 0.84172 0.83506 0.0
H617 H 0.30547 0.78653 0.86216 0.0
H618 H 0.2205 0.88067 0.79969 0.0
H619 H 0.15201 0.88901 0.80104 0.0
loop_
_geom_bond_atom_site_label_1
_geom_bond_atom_site_label_2
_geom_bond_distance
_geom_bond_site_symmetry_2
_ccdc_geom_bond_type
C0 N1 1.317 . S
C0 N2 1.348 . S
C0 C3 1.485 . S
N1 C0 1.317 . S
N1 N5 1.370 . S
N2 C0 1.348 . S
N2 C4 1.346 . S
C3 C0 1.485 . S
C3 H7 0.960 . S
C3 H8 0.961 . S
C3 H9 0.960 . S
C4 N2 1.346 . S
C4 N5 1.307 . S
C4 C6 1.486 . S
N5 N1 1.370 . S
N5 C4 1.307 . S
C6 C4 1.486 . S
C6 H10 0.960 . S
C6 H11 0.960 . S
C6 H12 0.959 . S
H7 C3 0.960 . S
H8 C3 0.961 . S
H9 C3 0.960 . S
H10 C6 0.960 . S
H11 C6 0.960 . S
H12 C6 0.959 . S
C13 N14 1.317 . S
C13 N15 1.348 . S
C13 C16 1.485 . S
N14 C13 1.317 . S
N14 N18 1.370 . S
N15 C13 1.348 . S
N15 C17 1.346 . S
C16 C13 1.485 . S
C16 H20 0.960 . S
C16 H21 0.961 . S
C16 H22 0.960 1_556 S
C17 N15 1.346 . S
C17 N18 1.307 . S
C17 C19 1.486 . S
N18 N14 1.370 . S
N18 C17 1.307 . S
C19 C17 1.486 . S
C19 H23 0.960 . S
C19 H24 0.960 . S
C19 H25 0.959 . S
H20 C16 0.960 . S
H21 C16 0.961 . S
H22 C16 0.960 1_554 S
H23 C19 0.960 . S
H24 C19 0.960 . S
H25 C19 0.959 . S
C26 N27 1.317 . S
C26 N28 1.348 . S
C26 C29 1.485 . S
N27 C26 1.317 . S
N27 N31 1.370 . S
N28 C26 1.348 . S
N28 C30 1.346 . S
C29 C26 1.485 . S
C29 H33 0.960 . S
C29 H34 0.961 . S
C29 H35 0.960 . S
C30 N28 1.346 . S
C30 N31 1.307 . S
C30 C32 1.486 . S
N31 N27 1.370 . S
N31 C30 1.307 . S
C32 C30 1.486 . S
C32 H36 0.960 . S
C32 H37 0.960 . S
C32 H38 0.959 . S
H33 C29 0.960 . S
H34 C29 0.961 . S
H35 C29 0.960 . S
H36 C32 0.960 . S
H37 C32 0.960 . S
H38 C32 0.959 . S
C39 N40 1.317 . S
C39 N41 1.348 . S
C39 C42 1.485 . S
N40 C39 1.317 . S
N40 N44 1.370 . S
N41 C39 1.348 . S
N41 C43 1.346 . S
C42 C39 1.485 . S
C42 H46 0.960 . S
C42 H47 0.961 . S
C42 H48 0.960 1_554 S
C43 N41 1.346 . S
C43 N44 1.307 . S
C43 C45 1.486 . S
N44 N40 1.370 . S
N44 C43 1.307 . S
C45 C43 1.486 . S
C45 H49 0.960 . S
C45 H50 0.960 . S
C45 H51 0.959 . S
H46 C42 0.960 . S
H47 C42 0.961 . S
H48 C42 0.960 1_556 S
H49 C45 0.960 . S
H50 C45 0.960 . S
H51 C45 0.959 . S
C52 N53 1.317 . S
C52 N54 1.348 . S
C52 C55 1.485 . S
N53 C52 1.317 . S
N53 N57 1.370 . S
N54 C52 1.348 . S
N54 C56 1.346 . S
C55 C52 1.485 . S
C55 H59 0.960 . S
C55 H60 0.961 . S
C55 H61 0.960 . S
C56 N54 1.346 . S
C56 N57 1.307 . S
C56 C58 1.486 . S
N57 N53 1.370 . S
N57 C56 1.307 . S
C58 C56 1.486 . S
C58 H62 0.960 . S
C58 H63 0.960 . S
C58 H64 0.959 . S
H59 C55 0.960 . S
H60 C55 0.961 . S
H61 C55 0.960 . S
H62 C58 0.960 . S
H63 C58 0.960 . S
H64 C58 0.959 . S
C65 N66 1.317 . S
C65 N67 1.348 . S
C65 C68 1.485 . S
N66 C65 1.317 . S
N66 N70 1.370 . S
N67 C65 1.348 . S
N67 C69 1.346 . S
C68 C65 1.485 . S
C68 H72 0.960 . S
C68 H73 0.961 . S
C68 H74 0.960 . S
C69 N67 1.346 . S
C69 N70 1.307 . S
C69 C71 1.486 . S
N70 N66 1.370 . S
N70 C69 1.307 . S
C71 C69 1.486 . S
C71 H75 0.960 . S
C71 H76 0.960 . S
C71 H77 0.959 . S
H72 C68 0.960 . S
H73 C68 0.961 . S
H74 C68 0.960 . S
H75 C71 0.960 . S
H76 C71 0.960 . S
H77 C71 0.959 . S
C78 N79 1.317 . S
C78 N80 1.348 . S
C78 C81 1.485 . S
N79 C78 1.317 . S
N79 N83 1.370 . S
N80 C78 1.348 . S
N80 C82 1.346 . S
C81 C78 1.485 . S
C81 H85 0.960 . S
C81 H86 0.961 . S
C81 H87 0.960 . S
C82 N80 1.346 . S
C82 N83 1.307 . S
C82 C84 1.486 . S
N83 N79 1.370 . S
N83 C82 1.307 . S
C84 C82 1.486 . S
C84 H88 0.960 . S
C84 H89 0.960 . S
C84 H90 0.959 . S
H85 C81 0.960 . S
H86 C81 0.961 . S
H87 C81 0.960 . S
H88 C84 0.960 . S
H89 C84 0.960 . S
H90 C84 0.959 . S
C91 N92 1.317 . S
C91 N93 1.348 . S
C91 C94 1.485 . S
N92 C91 1.317 . S
N92 N96 1.370 . S
N93 C91 1.348 . S
N93 C95 1.346 . S
C94 C91 1.485 . S
C94 H98 0.960 . S
C94 H99 0.961 . S
C94 H100 0.960 . S
C95 N93 1.346 . S
C95 N96 1.307 . S
C95 C97 1.486 . S
N96 N92 1.370 . S
N96 C95 1.307 . S
C97 C95 1.486 . S
C97 H101 0.960 . S
C97 H102 0.960 . S
C97 H103 0.959 . S
H98 C94 0.960 . S
H99 C94 0.961 . S
H100 C94 0.960 . S
H101 C97 0.960 . S
H102 C97 0.960 . S
H103 C97 0.959 . S
Zn104 O110 1.918 . S
Zn104 O116 1.898 . S
Zn104 O119 1.905 . S
Zn105 O113 1.905 1_655 S
Zn105 O114 1.898 . S
Zn105 O122 1.920 . S
Zn106 O109 2.080 1_455 S
Zn106 O112 2.114 . S
Zn106 O115 2.120 1_455 S
Zn106 O117 2.120 . S
Zn106 O118 2.114 . S
Zn106 O121 2.080 1_455 S
C107 O112 1.166 . S
C107 O113 1.182 . S
C108 O114 1.167 . S
C108 O115 1.299 . S
O109 Zn106 2.080 1_655 S
O109 C123 1.305 . S
O110 Zn104 1.918 . S
O110 C123 1.235 1_455 S
C111 O116 1.167 . S
C111 O117 1.299 . S
O112 Zn106 2.114 . S
O112 C107 1.166 . S
O113 Zn105 1.905 1_455 S
O113 C107 1.182 . S
O114 Zn105 1.898 . S
O114 C108 1.167 . S
O115 Zn106 2.120 1_655 S
O115 C108 1.299 . S
O116 Zn104 1.898 . S
O116 C111 1.167 . S
O117 Zn106 2.120 . S
O117 C111 1.299 . S
O118 Zn106 2.114 . S
O118 C120 1.166 . S
O119 Zn104 1.905 . S
O119 C120 1.182 . S
C120 O118 1.166 . S
C120 O119 1.182 . S
O121 Zn106 2.080 1_655 S
O121 C124 1.305 . S
O122 Zn105 1.920 . S
O122 C124 1.234 . S
C123 O109 1.305 . S
C123 O110 1.235 1_655 S
C124 O121 1.305 . S
C124 O122 1.234 . S
Zn125 O131 1.920 . S
Zn125 O137 1.898 . S
Zn125 O140 1.905 . S
Zn126 O134 1.905 . S
Zn126 O135 1.898 . S
Zn126 O143 1.920 . S
Zn127 O130 2.080 . S
Zn127 O133 2.114 . S
Zn127 O136 2.120 . S
Zn127 O138 2.120 . S
Zn127 O139 2.114 . S
Zn127 O142 2.080 . S
C128 O133 1.166 . S
C128 O134 1.182 . S
C129 O135 1.167 . S
C129 O136 1.299 . S
O130 Zn127 2.080 . S
O130 C144 1.305 . S
O131 Zn125 1.920 . S
O131 C144 1.234 . S
C132 O137 1.167 . S
C132 O138 1.299 . S
O133 Zn127 2.114 . S
O133 C128 1.166 . S
O134 Zn126 1.905 . S
O134 C128 1.182 . S
O135 Zn126 1.898 . S
O135 C129 1.167 . S
O136 Zn127 2.120 . S
O136 C129 1.299 . S
O137 Zn125 1.898 . S
O137 C132 1.167 . S
O138 Zn127 2.120 . S
O138 C132 1.299 . S
O139 Zn127 2.114 . S
O139 C141 1.166 . S
O140 Zn125 1.905 . S
O140 C141 1.182 . S
C141 O139 1.166 . S
C141 O140 1.182 . S
O142 Zn127 2.080 . S
O142 C145 1.305 . S
O143 Zn126 1.920 . S
O143 C145 1.234 . S
C144 O130 1.305 . S
C144 O131 1.234 . S
C145 O142 1.305 . S
C145 O143 1.234 . S
Zn146 O152 1.920 . S
Zn146 O158 1.898 . S
Zn146 O161 1.905 1_455 S
Zn147 O155 1.905 . S
Zn147 O156 1.898 . S
Zn147 O164 1.920 1_655 S
Zn148 O151 2.080 . S
Zn148 O154 2.114 1_455 S
Zn148 O157 2.120 1_455 S
Zn148 O159 2.120 . S
Zn148 O160 2.114 1_455 S
Zn148 O163 2.080 . S
C149 O154 1.166 . S
C149 O155 1.182 . S
C150 O156 1.167 . S
C150 O157 1.299 . S
O151 Zn148 2.080 . S
O151 C165 1.305 . S
O152 Zn146 1.920 . S
O152 C165 1.234 . S
C153 O158 1.167 . S
C153 O159 1.299 . S
O154 Zn148 2.114 1_655 S
O154 C149 1.166 . S
O155 Zn147 1.905 . S
O155 C149 1.182 . S
O156 Zn147 1.898 . S
O156 C150 1.167 . S
O157 Zn148 2.120 1_655 S
O157 C150 1.299 . S
O158 Zn146 1.898 . S
O158 C153 1.167 . S
O159 Zn148 2.120 . S
O159 C153 1.299 . S
O160 Zn148 2.114 1_655 S
O160 C162 1.166 . S
O161 Zn146 1.905 1_655 S
O161 C162 1.182 . S
C162 O160 1.166 . S
C162 O161 1.182 . S
O163 Zn148 2.080 . S
O163 C166 1.305 . S
O164 Zn147 1.920 1_455 S
O164 C166 1.234 . S
C165 O151 1.305 . S
C165 O152 1.234 . S
C166 O163 1.305 . S
C166 O164 1.234 . S
Zn167 O173 1.920 . S
Zn167 O179 1.898 . S
Zn167 O182 1.905 . S
Zn168 O176 1.905 . S
Zn168 O177 1.898 . S
Zn168 O185 1.920 . S
Zn169 O172 2.080 . S
Zn169 O175 2.114 . S
Zn169 O178 2.120 . S
Zn169 O180 2.120 . S
Zn169 O181 2.114 . S
Zn169 O184 2.080 . S
C170 O175 1.166 . S
C170 O176 1.182 . S
C171 O177 1.167 . S
C171 O178 1.299 . S
O172 Zn169 2.080 . S
O172 C186 1.305 . S
O173 Zn167 1.920 . S
O173 C186 1.234 . S
C174 O179 1.167 . S
C174 O180 1.299 . S
O175 Zn169 2.114 . S
O175 C170 1.166 . S
O176 Zn168 1.905 . S
O176 C170 1.182 . S
O177 Zn168 1.898 . S
O177 C171 1.167 . S
O178 Zn169 2.120 . S
O178 C171 1.299 . S
O179 Zn167 1.898 . S
O179 C174 1.167 . S
O180 Zn169 2.120 . S
O180 C174 1.299 . S
O181 Zn169 2.114 . S
O181 C183 1.166 . S
O182 Zn167 1.905 . S
O182 C183 1.182 . S
C183 O181 1.166 . S
C183 O182 1.182 . S
O184 Zn169 2.080 . S
O184 C187 1.305 . S
O185 Zn168 1.920 . S
O185 C187 1.234 . S
C186 O172 1.305 . S
C186 O173 1.234 . S
C187 O184 1.305 . S
C187 O185 1.234 . S
C188 C189 1.363 . S
C188 C194 1.379 . S
C188 N196 1.356 . S
C189 C188 1.363 . S
C189 C195 1.363 . S
C190 C191 1.363 . S
C190 C195 1.379 . S
C190 N197 1.356 . S
C191 C190 1.363 . S
C191 C194 1.363 . S
N192 C194 1.356 . S
N192 H204 0.984 . S
N192 H205 0.985 1_565 S
N193 C195 1.356 . S
N193 H198 0.984 . S
N193 H199 0.985 . S
C194 C188 1.379 . S
C194 C191 1.363 . S
C194 N192 1.356 . S
C195 C189 1.363 . S
C195 C190 1.379 . S
C195 N193 1.356 . S
N196 C188 1.356 . S
N196 H202 0.984 . S
N196 H203 0.984 . S
N197 C190 1.356 . S
N197 H200 0.984 1_565 S
N197 H201 0.985 . S
H198 N193 0.984 . S
H199 N193 0.985 . S
H200 N197 0.984 1_545 S
H201 N197 0.985 . S
H202 N196 0.984 . S
H203 N196 0.984 . S
H204 N192 0.984 . S
H205 N192 0.985 1_545 S
C206 C207 1.363 . S
C206 C212 1.379 . S
C206 N214 1.356 . S
C207 C206 1.363 . S
C207 C213 1.363 . S
C208 C209 1.363 . S
C208 C213 1.379 . S
C208 N215 1.356 . S
C209 C208 1.363 . S
C209 C212 1.363 . S
N210 C212 1.356 . S
N210 H222 0.984 . S
N210 H223 0.985 . S
N211 C213 1.356 . S
N211 H216 0.984 . S
N211 H217 0.985 . S
C212 C206 1.379 . S
C212 C209 1.363 . S
C212 N210 1.356 . S
C213 C207 1.363 . S
C213 C208 1.379 . S
C213 N211 1.356 . S
N214 C206 1.356 . S
N214 H220 0.984 . S
N214 H221 0.984 . S
N215 C208 1.356 . S
N215 H218 0.984 . S
N215 H219 0.985 . S
H216 N211 0.984 . S
H217 N211 0.985 . S
H218 N215 0.984 . S
H219 N215 0.985 . S
H220 N214 0.984 . S
H221 N214 0.984 . S
H222 N210 0.984 . S
H223 N210 0.985 . S
C224 C225 1.363 . S
C224 C230 1.379 . S
C224 N232 1.356 . S
C225 C224 1.363 . S
C225 C231 1.363 . S
C226 C227 1.363 . S
C226 C231 1.379 . S
C226 N233 1.356 . S
C227 C226 1.363 . S
C227 C230 1.363 . S
N228 C230 1.356 . S
N228 H240 0.984 . S
N228 H241 0.985 . S
N229 C231 1.356 . S
N229 H234 0.984 . S
N229 H235 0.985 . S
C230 C224 1.379 . S
C230 C227 1.363 . S
C230 N228 1.356 . S
C231 C225 1.363 . S
C231 C226 1.379 . S
C231 N229 1.356 . S
N232 C224 1.356 . S
N232 H238 0.984 . S
N232 H239 0.984 . S
N233 C226 1.356 . S
N233 H236 0.984 . S
N233 H237 0.985 . S
H234 N229 0.984 . S
H235 N229 0.985 . S
H236 N233 0.984 . S
H237 N233 0.985 . S
H238 N232 0.984 . S
H239 N232 0.984 . S
H240 N228 0.984 . S
H241 N228 0.985 . S
C242 C243 1.363 . S
C242 C248 1.379 . S
C242 N250 1.356 . S
C243 C242 1.363 . S
C243 C249 1.363 . S
C244 C245 1.363 . S
C244 C249 1.379 . S
C244 N251 1.356 1_565 S
C245 C244 1.363 . S
C245 C248 1.363 . S
N246 C248 1.356 . S
N246 H258 0.984 . S
N246 H259 0.985 . S
N247 C249 1.356 . S
N247 H252 0.984 . S
N247 H253 0.985 . S
C248 C242 1.379 . S
C248 C245 1.363 . S
C248 N246 1.356 . S
C249 C243 1.363 . S
C249 C244 1.379 . S
C249 N247 1.356 . S
N250 C242 1.356 . S
N250 H256 0.984 . S
N250 H257 0.984 . S
N251 C244 1.356 1_545 S
N251 H254 0.984 . S
N251 H255 0.985 . S
H252 N247 0.984 . S
H253 N247 0.985 . S
H254 N251 0.984 . S
H255 N251 0.985 . S
H256 N250 0.984 . S
H257 N250 0.984 . S
H258 N246 0.984 . S
H259 N246 0.985 . S
C260 C261 1.363 . S
C260 C266 1.379 . S
C260 N268 1.356 . S
C261 C260 1.363 . S
C261 C267 1.363 . S
C262 C263 1.363 . S
C262 C267 1.379 . S
C262 N269 1.356 . S
C263 C262 1.363 . S
C263 C266 1.363 . S
N264 C266 1.356 1_565 S
N264 H276 0.984 . S
N264 H277 0.985 . S
N265 C267 1.356 . S
N265 H270 0.984 . S
N265 H271 0.985 . S
C266 C260 1.379 . S
C266 C263 1.363 . S
C266 N264 1.356 1_545 S
C267 C261 1.363 . S
C267 C262 1.379 . S
C267 N265 1.356 . S
N268 C260 1.356 . S
N268 H274 0.984 . S
N268 H275 0.984 . S
N269 C262 1.356 . S
N269 H272 0.984 . S
N269 H273 0.985 1_655 S
H270 N265 0.984 . S
H271 N265 0.985 . S
H272 N269 0.984 . S
H273 N269 0.985 1_455 S
H274 N268 0.984 . S
H275 N268 0.984 . S
H276 N264 0.984 . S
H277 N264 0.985 . S
C278 C279 1.363 . S
C278 C284 1.379 . S
C278 N286 1.356 . S
C279 C278 1.363 . S
C279 C285 1.363 . S
C280 C281 1.363 . S
C280 C285 1.379 . S
C280 N287 1.356 . S
C281 C280 1.363 . S
C281 C284 1.363 . S
N282 C284 1.356 . S
N282 H294 0.984 . S
N282 H295 0.985 . S
N283 C285 1.356 . S
N283 H288 0.984 . S
N283 H289 0.985 . S
C284 C278 1.379 . S
C284 C281 1.363 . S
C284 N282 1.356 . S
C285 C279 1.363 . S
C285 C280 1.379 . S
C285 N283 1.356 . S
N286 C278 1.356 . S
N286 H292 0.984 . S
N286 H293 0.984 . S
N287 C280 1.356 . S
N287 H290 0.984 . S
N287 H291 0.985 . S
H288 N283 0.984 . S
H289 N283 0.985 . S
H290 N287 0.984 . S
H291 N287 0.985 . S
H292 N286 0.984 . S
H293 N286 0.984 . S
H294 N282 0.984 . S
H295 N282 0.985 . S
C296 C297 1.363 . S
C296 C302 1.379 . S
C296 N304 1.356 . S
C297 C296 1.363 . S
C297 C303 1.363 . S
C298 C299 1.363 . S
C298 C303 1.379 . S
C298 N305 1.356 . S
C299 C298 1.363 . S
C299 C302 1.363 . S
N300 C302 1.356 . S
N300 H312 0.984 . S
N300 H313 0.985 . S
N301 C303 1.356 . S
N301 H306 0.984 . S
N301 H307 0.985 . S
C302 C296 1.379 . S
C302 C299 1.363 . S
C302 N300 1.356 . S
C303 C297 1.363 . S
C303 C298 1.379 . S
C303 N301 1.356 . S
N304 C296 1.356 . S
N304 H310 0.984 . S
N304 H311 0.984 . S
N305 C298 1.356 . S
N305 H308 0.984 . S
N305 H309 0.985 . S
H306 N301 0.984 . S
H307 N301 0.985 . S
H308 N305 0.984 . S
H309 N305 0.985 . S
H310 N304 0.984 . S
H311 N304 0.984 . S
H312 N300 0.984 . S
H313 N300 0.985 . S
C314 C315 1.363 . S
C314 C320 1.379 . S
C314 N322 1.356 . S
C315 C314 1.363 . S
C315 C321 1.363 . S
C316 C317 1.363 . S
C316 C321 1.379 . S
C316 N323 1.356 . S
C317 C316 1.363 . S
C317 C320 1.363 . S
N318 C320 1.356 1_565 S
N318 H330 0.984 . S
N318 H331 0.985 . S
N319 C321 1.356 . S
N319 H324 0.984 . S
N319 H325 0.985 . S
C320 C314 1.379 . S
C320 C317 1.363 . S
C320 N318 1.356 1_545 S
C321 C315 1.363 . S
C321 C316 1.379 . S
C321 N319 1.356 . S
N322 C314 1.356 . S
N322 H328 0.984 . S
N322 H329 0.984 . S
N323 C316 1.356 . S
N323 H326 0.984 . S
N323 H327 0.985 . S
H324 N319 0.984 . S
H325 N319 0.985 . S
H326 N323 0.984 . S
H327 N323 0.985 . S
H328 N322 0.984 . S
H329 N322 0.984 . S
H330 N318 0.984 . S
H331 N318 0.985 . S
C332 C333 1.363 . S
C332 C338 1.379 1_556 S
C332 N340 1.356 . S
C333 C332 1.363 . S
C333 C339 1.363 1_556 S
C334 C335 1.363 . S
C334 C339 1.379 . S
C334 N341 1.356 . S
C335 C334 1.363 . S
C335 C338 1.363 . S
N336 C338 1.356 . S
N336 H348 0.984 . S
N336 H349 0.985 . S
N337 C339 1.356 1_556 S
N337 H342 0.984 . S
N337 H343 0.985 1_556 S
C338 C332 1.379 1_554 S
C338 C335 1.363 . S
C338 N336 1.356 . S
C339 C333 1.363 1_554 S
C339 C334 1.379 . S
C339 N337 1.356 1_554 S
N340 C332 1.356 . S
N340 H346 0.984 . S
N340 H347 0.984 . S
N341 C334 1.356 . S
N341 H344 0.984 . S
N341 H345 0.985 . S
H342 N337 0.984 . S
H343 N337 0.985 1_554 S
H344 N341 0.984 . S
H345 N341 0.985 . S
H346 N340 0.984 . S
H347 N340 0.984 . S
H348 N336 0.984 . S
H349 N336 0.985 . S
C350 C351 1.363 . S
C350 C356 1.379 . S
C350 N358 1.356 . S
C351 C350 1.363 . S
C351 C357 1.363 . S
C352 C353 1.363 . S
C352 C357 1.379 . S
C352 N359 1.356 . S
C353 C352 1.363 . S
C353 C356 1.363 . S
N354 C356 1.356 . S
N354 H366 0.984 . S
N354 H367 0.985 . S
N355 C357 1.356 . S
N355 H360 0.984 . S
N355 H361 0.985 . S
C356 C350 1.379 . S
C356 C353 1.363 . S
C356 N354 1.356 . S
C357 C351 1.363 . S
C357 C352 1.379 . S
C357 N355 1.356 . S
N358 C350 1.356 . S
N358 H364 0.984 . S
N358 H365 0.984 . S
N359 C352 1.356 . S
N359 H362 0.984 . S
N359 H363 0.985 . S
H360 N355 0.984 . S
H361 N355 0.985 . S
H362 N359 0.984 . S
H363 N359 0.985 . S
H364 N358 0.984 . S
H365 N358 0.984 . S
H366 N354 0.984 . S
H367 N354 0.985 . S
C368 C369 1.363 1_556 S
C368 C374 1.379 . S
C368 N376 1.356 . S
C369 C368 1.363 1_554 S
C369 C375 1.363 . S
C370 C371 1.363 . S
C370 C375 1.379 1_556 S
C370 N377 1.356 . S
C371 C370 1.363 . S
C371 C374 1.363 . S
N372 C374 1.356 . S
N372 H384 0.984 . S
N372 H385 0.985 . S
N373 C375 1.356 . S
N373 H378 0.984 . S
N373 H379 0.985 . S
C374 C368 1.379 . S
C374 C371 1.363 . S
C374 N372 1.356 . S
C375 C369 1.363 . S
C375 C370 1.379 1_554 S
C375 N373 1.356 . S
N376 C368 1.356 . S
N376 H382 0.984 . S
N376 H383 0.984 1_556 S
N377 C370 1.356 . S
N377 H380 0.984 . S
N377 H381 0.985 . S
H378 N373 0.984 . S
H379 N373 0.985 . S
H380 N377 0.984 . S
H381 N377 0.985 . S
H382 N376 0.984 . S
H383 N376 0.984 1_554 S
H384 N372 0.984 . S
H385 N372 0.985 . S
C386 C387 1.363 . S
C386 C392 1.379 . S
C386 N394 1.356 . S
C387 C386 1.363 . S
C387 C393 1.363 . S
C388 C389 1.363 . S
C388 C393 1.379 . S
C388 N395 1.356 . S
C389 C388 1.363 . S
C389 C392 1.363 . S
N390 C392 1.356 . S
N390 H402 0.984 . S
N390 H403 0.985 . S
N391 C393 1.356 . S
N391 H396 0.984 . S
N391 H397 0.985 . S
C392 C386 1.379 . S
C392 C389 1.363 . S
C392 N390 1.356 . S
C393 C387 1.363 . S
C393 C388 1.379 . S
C393 N391 1.356 . S
N394 C386 1.356 . S
N394 H400 0.984 . S
N394 H401 0.984 . S
N395 C388 1.356 . S
N395 H398 0.984 . S
N395 H399 0.989 . S
H396 N391 0.984 . S
H397 N391 0.985 . S
H398 N395 0.984 . S
H399 N395 0.989 . S
H400 N394 0.984 . S
H401 N394 0.984 . S
H402 N390 0.984 . S
H403 N390 0.985 . S
C404 C405 1.363 1_556 S
C404 C410 1.379 . S
C404 N412 1.356 1_556 S
C405 C404 1.363 1_554 S
C405 C411 1.367 . S
C406 C407 1.363 . S
C406 C411 1.369 1_556 S
C406 N413 1.356 . S
C407 C406 1.363 . S
C407 C410 1.363 . S
N408 C410 1.356 . S
N408 H420 0.984 . S
N408 H421 0.985 . S
N409 C411 1.364 . S
N409 H414 0.984 . S
N409 H415 0.985 . S
C410 C404 1.379 . S
C410 C407 1.363 . S
C410 N408 1.356 . S
C411 C405 1.367 . S
C411 C406 1.369 1_554 S
C411 N409 1.364 . S
N412 C404 1.356 1_554 S
N412 H418 0.984 . S
N412 H419 0.984 . S
N413 C406 1.356 . S
N413 H416 0.984 . S
N413 H417 0.994 . S
H414 N409 0.984 . S
H415 N409 0.985 . S
H416 N413 0.984 . S
H417 N413 0.994 . S
H418 N412 0.984 . S
H419 N412 0.984 . S
H420 N408 0.984 . S
H421 N408 0.985 . S
C422 C423 1.363 . S
C422 C428 1.379 . S
C422 N430 1.356 . S
C423 C422 1.363 . S
C423 C429 1.363 . S
C424 C425 1.363 . S
C424 C429 1.379 . S
C424 N431 1.356 . S
C425 C424 1.363 . S
C425 C428 1.363 . S
N426 C428 1.356 . S
N426 H438 0.984 . S
N426 H439 0.985 . S
N427 C429 1.356 . S
N427 H432 0.984 . S
N427 H433 0.985 . S
C428 C422 1.379 . S
C428 C425 1.363 . S
C428 N426 1.356 . S
C429 C423 1.363 . S
C429 C424 1.379 . S
C429 N427 1.356 . S
N430 C422 1.356 . S
N430 H436 0.984 . S
N430 H437 0.984 . S
N431 C424 1.356 . S
N431 H434 0.984 . S
N431 H435 0.985 . S
H432 N427 0.984 . S
H433 N427 0.985 . S
H434 N431 0.984 . S
H435 N431 0.985 . S
H436 N430 0.984 . S
H437 N430 0.984 . S
H438 N426 0.984 . S
H439 N426 0.985 . S
C440 C441 1.363 1_554 S
C440 C446 1.379 . S
C440 N448 1.356 1_554 S
C441 C440 1.363 1_556 S
C441 C447 1.363 . S
C442 C443 1.363 . S
C442 C447 1.379 1_554 S
C442 N449 1.356 . S
C443 C442 1.363 . S
C443 C446 1.363 . S
N444 C446 1.356 . S
N444 H456 0.984 . S
N444 H457 0.985 . S
N445 C447 1.356 . S
N445 H450 0.984 . S
N445 H451 0.985 . S
C446 C440 1.379 . S
C446 C443 1.363 . S
C446 N444 1.356 . S
C447 C441 1.363 . S
C447 C442 1.379 1_556 S
C447 N445 1.356 . S
N448 C440 1.356 1_556 S
N448 H454 0.984 1_556 S
N448 H455 0.984 . S
N449 C442 1.356 . S
N449 H452 0.984 . S
N449 H453 0.985 . S
H450 N445 0.984 . S
H451 N445 0.985 . S
H452 N449 0.984 . S
H453 N449 0.985 . S
H454 N448 0.984 1_554 S
H455 N448 0.984 . S
H456 N444 0.984 . S
H457 N444 0.985 . S
C458 C459 1.363 . S
C458 C464 1.379 . S
C458 N466 1.356 . S
C459 C458 1.363 . S
C459 C465 1.363 . S
C460 C461 1.363 . S
C460 C465 1.379 . S
C460 N467 1.356 . S
C461 C460 1.363 . S
C461 C464 1.363 . S
N462 C464 1.356 . S
N462 H474 0.984 . S
N462 H475 0.985 . S
N463 C465 1.356 . S
N463 H468 0.984 . S
N463 H469 0.985 . S
C464 C458 1.379 . S
C464 C461 1.363 . S
C464 N462 1.356 . S
C465 C459 1.363 . S
C465 C460 1.379 . S
C465 N463 1.356 . S
N466 C458 1.356 . S
N466 H472 0.984 . S
N466 H473 0.984 . S
N467 C460 1.356 . S
N467 H470 0.984 . S
N467 H471 0.985 . S
H468 N463 0.984 . S
H469 N463 0.985 . S
H470 N467 0.984 . S
H471 N467 0.985 . S
H472 N466 0.984 . S
H473 N466 0.984 . S
H474 N462 0.984 . S
H475 N462 0.985 . S
C476 C477 1.363 . S
C476 C482 1.379 . S
C476 N484 1.356 . S
C477 C476 1.363 . S
C477 C483 1.363 . S
C478 C479 1.363 . S
C478 C483 1.379 . S
C478 N485 1.356 . S
C479 C478 1.363 . S
C479 C482 1.363 . S
N480 C482 1.356 . S
N480 H492 0.984 . S
N480 H493 0.985 . S
N481 C483 1.356 . S
N481 H486 0.984 . S
N481 H487 0.985 . S
C482 C476 1.379 . S
C482 C479 1.363 . S
C482 N480 1.356 . S
C483 C477 1.363 . S
C483 C478 1.379 . S
C483 N481 1.356 . S
N484 C476 1.356 . S
N484 H490 0.984 . S
N484 H491 0.984 . S
N485 C478 1.356 . S
N485 H488 0.984 . S
N485 H489 0.985 . S
H486 N481 0.984 . S
H487 N481 0.985 . S
H488 N485 0.984 . S
H489 N485 0.985 . S
H490 N484 0.984 . S
H491 N484 0.984 . S
H492 N480 0.984 . S
H493 N480 0.985 . S
C494 C495 1.363 . S
C494 C500 1.379 . S
C494 N502 1.356 . S
C495 C494 1.363 . S
C495 C501 1.363 . S
C496 C497 1.363 . S
C496 C501 1.379 . S
C496 N503 1.356 . S
C497 C496 1.363 . S
C497 C500 1.363 . S
N498 C500 1.356 . S
N498 H510 0.984 . S
N498 H511 0.985 . S
N499 C501 1.356 . S
N499 H504 0.984 . S
N499 H505 0.985 . S
C500 C494 1.379 . S
C500 C497 1.363 . S
C500 N498 1.356 . S
C501 C495 1.363 . S
C501 C496 1.379 . S
C501 N499 1.356 . S
N502 C494 1.356 . S
N502 H508 0.984 . S
N502 H509 0.984 . S
N503 C496 1.356 . S
N503 H506 0.984 . S
N503 H507 0.985 . S
H504 N499 0.984 . S
H505 N499 0.985 . S
H506 N503 0.984 . S
H507 N503 0.985 . S
H508 N502 0.984 . S
H509 N502 0.984 . S
H510 N498 0.984 . S
H511 N498 0.985 . S
C512 C513 1.363 . S
C512 C518 1.379 . S
C512 N520 1.356 . S
C513 C512 1.363 . S
C513 C519 1.363 . S
C514 C515 1.363 . S
C514 C519 1.379 . S
C514 N521 1.356 . S
C515 C514 1.363 . S
C515 C518 1.363 . S
N516 C518 1.356 . S
N516 H528 0.984 . S
N516 H529 0.985 . S
N517 C519 1.356 . S
N517 H522 0.984 . S
N517 H523 0.985 . S
C518 C512 1.379 . S
C518 C515 1.363 . S
C518 N516 1.356 . S
C519 C513 1.363 . S
C519 C514 1.379 . S
C519 N517 1.356 . S
N520 C512 1.356 . S
N520 H526 0.984 . S
N520 H527 0.984 . S
N521 C514 1.356 . S
N521 H524 0.984 . S
N521 H525 0.985 . S
H522 N517 0.984 . S
H523 N517 0.985 . S
H524 N521 0.984 . S
H525 N521 0.985 . S
H526 N520 0.984 . S
H527 N520 0.984 . S
H528 N516 0.984 . S
H529 N516 0.985 . S
C530 C531 1.363 . S
C530 C536 1.379 . S
C530 N538 1.356 . S
C531 C530 1.363 . S
C531 C537 1.363 . S
C532 C533 1.363 . S
C532 C537 1.379 . S
C532 N539 1.356 . S
C533 C532 1.363 . S
C533 C536 1.363 . S
N534 C536 1.356 . S
N534 H546 0.984 . S
N534 H547 0.985 . S
N535 C537 1.356 . S
N535 H540 0.984 . S
N535 H541 0.985 . S
C536 C530 1.379 . S
C536 C533 1.363 . S
C536 N534 1.356 . S
C537 C531 1.363 . S
C537 C532 1.379 . S
C537 N535 1.356 . S
N538 C530 1.356 . S
N538 H544 0.984 . S
N538 H545 0.984 . S
N539 C532 1.356 . S
N539 H542 0.984 . S
N539 H543 0.985 . S
H540 N535 0.984 . S
H541 N535 0.985 . S
H542 N539 0.984 . S
H543 N539 0.985 . S
H544 N538 0.984 . S
H545 N538 0.984 . S
H546 N534 0.984 . S
H547 N534 0.985 . S
C548 C549 1.363 . S
C548 C554 1.379 . S
C548 N556 1.356 . S
C549 C548 1.363 . S
C549 C555 1.363 . S
C550 C551 1.363 . S
C550 C555 1.379 . S
C550 N557 1.356 . S
C551 C550 1.363 . S
C551 C554 1.363 . S
N552 C554 1.356 . S
N552 H564 0.984 . S
N552 H565 0.985 . S
N553 C555 1.356 . S
N553 H558 0.984 . S
N553 H559 0.985 . S
C554 C548 1.379 . S
C554 C551 1.363 . S
C554 N552 1.356 . S
C555 C549 1.363 . S
C555 C550 1.379 . S
C555 N553 1.356 . S
N556 C548 1.356 . S
N556 H562 0.984 . S
N556 H563 0.984 . S
N557 C550 1.356 . S
N557 H560 0.984 . S
N557 H561 0.985 . S
H558 N553 0.984 . S
H559 N553 0.985 . S
H560 N557 0.984 . S
H561 N557 0.985 . S
H562 N556 0.984 . S
H563 N556 0.984 . S
H564 N552 0.984 . S
H565 N552 0.985 . S
C566 C567 1.363 . S
C566 C572 1.379 . S
C566 N574 1.356 . S
C567 C566 1.363 . S
C567 C573 1.363 . S
C568 C569 1.363 . S
C568 C573 1.379 . S
C568 N575 1.356 . S
C569 C568 1.363 . S
C569 C572 1.363 . S
N570 C572 1.356 . S
N570 H582 0.984 . S
N570 H583 0.985 . S
N571 C573 1.356 . S
N571 H576 0.984 . S
N571 H577 0.985 . S
C572 C566 1.379 . S
C572 C569 1.363 . S
C572 N570 1.356 . S
C573 C567 1.363 . S
C573 C568 1.379 . S
C573 N571 1.356 . S
N574 C566 1.356 . S
N574 H580 0.984 . S
N574 H581 0.984 . S
N575 C568 1.356 . S
N575 H578 0.984 . S
N575 H579 0.985 . S
H576 N571 0.984 . S
H577 N571 0.985 . S
H578 N575 0.984 . S
H579 N575 0.985 . S
H580 N574 0.984 . S
H581 N574 0.984 . S
H582 N570 0.984 . S
H583 N570 0.985 . S
C584 C585 1.363 . S
C584 C590 1.379 . S
C584 N592 1.356 . S
C585 C584 1.363 . S
C585 C591 1.363 . S
C586 C587 1.363 . S
C586 C591 1.379 . S
C586 N593 1.356 . S
C587 C586 1.363 . S
C587 C590 1.363 . S
N588 C590 1.356 . S
N588 H600 0.984 . S
N588 H601 0.985 . S
N589 C591 1.356 . S
N589 H594 0.984 . S
N589 H595 0.985 . S
C590 C584 1.379 . S
C590 C587 1.363 . S
C590 N588 1.356 . S
C591 C585 1.363 . S
C591 C586 1.379 . S
C591 N589 1.356 . S
N592 C584 1.356 . S
N592 H598 0.984 . S
N592 H599 0.984 . S
N593 C586 1.356 . S
N593 H596 0.984 . S
N593 H597 0.985 . S
H594 N589 0.984 . S
H595 N589 0.985 . S
H596 N593 0.984 . S
H597 N593 0.985 . S
H598 N592 0.984 . S
H599 N592 0.984 . S
H600 N588 0.984 . S
H601 N588 0.985 . S
C602 C603 1.363 . S
C602 C608 1.379 . S
C602 N610 1.356 . S
C603 C602 1.363 . S
C603 C609 1.363 . S
C604 C605 1.363 . S
C604 C609 1.379 . S
C604 N611 1.356 . S
C605 C604 1.363 . S
C605 C608 1.363 . S
N606 C608 1.356 . S
N606 H618 0.984 . S
N606 H619 0.985 . S
N607 C609 1.356 . S
N607 H612 0.984 . S
N607 H613 0.985 . S
C608 C602 1.379 . S
C608 C605 1.363 . S
C608 N606 1.356 . S
C609 C603 1.363 . S
C609 C604 1.379 . S
C609 N607 1.356 . S
N610 C602 1.356 . S
N610 H616 0.984 . S
N610 H617 0.984 . S
N611 C604 1.356 . S
N611 H614 0.984 . S
N611 H615 0.985 . S
H612 N607 0.984 . S
H613 N607 0.985 . S
H614 N611 0.984 . S
H615 N611 0.985 . S
H616 N610 0.984 . S
H617 N610 0.984 . S
H618 N606 0.984 . S
H619 N606 0.985 . S
C189 N83 1.473 . S
C191 C120 1.385 1_565 S
C209 C128 1.385 . S
C207 N96 1.473 . S
C227 C132 1.377 . S
C225 N57 1.471 . S
C243 N70 1.471 . S
C245 C108 1.377 1_565 S
C263 C149 1.385 1_545 S
C261 N31 1.472 . S
C281 C183 1.385 . S
C279 N44 1.472 . S
C297 N5 1.470 . S
C299 C171 1.377 . S
C315 N18 1.470 . S
C317 C153 1.377 1_545 S
C335 C107 1.354 . S
C333 N14 1.485 . S
C353 C141 1.354 . S
C351 N1 1.485 . S
C371 C145 1.351 . S
C369 N40 1.484 . S
C389 C123 1.351 . S
C387 N27 1.484 . S
C407 C162 1.354 . S
C405 N66 1.493 . S
C423 N53 1.493 . S
C425 C170 1.354 . S
C443 C186 1.351 . S
C441 N92 1.490 . S
C459 N79 1.490 . S
C461 C166 1.351 . S
C479 C111 1.353 . S
C477 N2 1.525 . S
C497 C129 1.353 . S
C495 N15 1.525 . S
C513 N28 1.521 . S
C515 C144 1.357 . S
C533 C124 1.357 . S
C531 N41 1.521 . S
C551 C150 1.353 . S
C549 N54 1.529 . S
C567 N67 1.529 . S
C569 C174 1.353 . S
C585 N80 1.524 . S
C587 C187 1.357 . S
C603 N93 1.524 . S
C605 C165 1.357 . S
