# Generated by pormake.
# Topology tsx, (6,3)-cn, num edge types: 1
# Building blocks:
#     Node 0, Type 0, BuildingBlock: CIFDUS_clean_sbu_1, # of connection points: 6
#     Node 1, Type 0, BuildingBlock: CIFDUS_clean_sbu_1, # of connection points: 6
#     Node 2, Type 1, BuildingBlock: VETTIZ_charged_linker_0, # of connection points: 3
#     Node 3, Type 1, BuildingBlock: VETTIZ_charged_linker_0, # of connection points: 3
#     Node 4, Type 1, BuildingBlock: VETTIZ_charged_linker_0, # of connection points: 3
#     Node 5, Type 1, BuildingBlock: VETTIZ_charged_linker_0, # of connection points: 3
#     Edge 6, Type (0, 1), BuildingBlock: AJUNOK_clean_linker_0, # of connection points: 2
#     Edge 7, Type (0, 1), BuildingBlock: AJUNOK_clean_linker_0, # of connection points: 2
#     Edge 8, Type (0, 1), BuildingBlock: AJUNOK_clean_linker_0, # of connection points: 2
#     Edge 9, Type (0, 1), BuildingBlock: AJUNOK_clean_linker_0, # of connection points: 2
#     Edge 10, Type (0, 1), BuildingBlock: AJUNOK_clean_linker_0, # of connection points: 2
#     Edge 11, Type (0, 1), BuildingBlock: AJUNOK_clean_linker_0, # of connection points: 2
#     Edge 12, Type (0, 1), BuildingBlock: AJUNOK_clean_linker_0, # of connection points: 2
#     Edge 13, Type (0, 1), BuildingBlock: AJUNOK_clean_linker_0, # of connection points: 2
#     Edge 14, Type (0, 1), BuildingBlock: AJUNOK_clean_linker_0, # of connection points: 2
#     Edge 15, Type (0, 1), BuildingBlock: AJUNOK_clean_linker_0, # of connection points: 2
#     Edge 16, Type (0, 1), BuildingBlock: AJUNOK_clean_linker_0, # of connection points: 2
#     Edge 17, Type (0, 1), BuildingBlock: AJUNOK_clean_linker_0, # of connection points: 2
# Relax obj value: 0.132
# Max RMSD: 0.158
# Mean RMSD: 0.121
data_MOF--net-tsx--node1-CIFDUS_clean_sbu_1--node2-VETTIZ_charged_linker_0--edge1-AJUNOK_clean_linker_0
_symmetry_space_group_name_H-M    P1
_symmetry_Int_Tables_number       1
_symmetry_cell_setting            triclinic
loop_
_symmetry_equiv_pos_as_xyz
'x, y, z'
_cell_length_a     17.211109
_cell_length_b     20.663098
_cell_length_c     36.609323
_cell_angle_alpha  96.612276
_cell_angle_beta   91.754847
_cell_angle_gamma 91.276175
loop_
_atom_site_label
_atom_site_type_symbol
_atom_site_fract_x
_atom_site_fract_y
_atom_site_fract_z
_atom_type_partial_charge
O0 O 0.9858 0.1167 -0.00528 0.0
Mn1 Mn 0.05827 0.03526 -0.01343 0.0
O2 O 0.91057 0.09632 0.944 0.0
Mn3 Mn 0.92844 0.00766 0.93603 0.0
O4 O 0.12629 0.94828 0.97645 0.0
O5 O 0.1512 0.10242 0.00014 0.0
Mn6 Mn 0.21757 0.0472 0.01742 0.0
O7 O 0.05084 0.02029 0.04135 0.0
O8 O 0.24906 0.98065 -0.01595 0.0
O9 O 0.07389 0.05136 0.93154 0.0
O10 O 0.99212 0.98234 0.89875 0.0
O11 O 0.27346 0.12213 0.0211 0.0
O12 O 0.17663 0.02145 0.05976 0.0
C13 C 0.88825 0.95521 0.97583 0.0
C14 C 0.93297 0.13367 0.97239 0.0
C15 C 0.19922 0.93638 0.97327 0.0
C16 C 0.20955 0.14487 0.00866 0.0
C17 C 0.10453 0.01397 0.06576 0.0
C18 C 0.05263 0.01835 0.90094 0.0
O19 O 0.96322 0.96973 0.97461 0.0
O20 O 0.84412 0.96478 0.9477 0.0
O21 O 0.47702 0.61981 0.48901 0.0
Mn22 Mn 0.55065 0.54021 0.48308 0.0
O23 O 0.38508 0.58727 0.44471 0.0
Mn24 Mn 0.41319 0.5014 0.43272 0.0
O25 O 0.61538 0.45462 0.47383 0.0
O26 O 0.64441 0.60529 0.49447 0.0
Mn27 Mn 0.7119 0.55164 0.51187 0.0
O28 O 0.54499 0.52613 0.53765 0.0
O29 O 0.73903 0.48538 0.47723 0.0
O30 O 0.56507 0.55437 0.42867 0.0
O31 O 0.48405 0.48352 0.39678 0.0
O32 O 0.76665 0.62709 0.51505 0.0
O33 O 0.67189 0.52374 0.55371 0.0
C34 C 0.39596 0.43796 0.47226 0.0
C35 C 0.41442 0.62909 0.47018 0.0
C36 C 0.68681 0.44206 0.46853 0.0
C37 C 0.70266 0.64775 0.5014 0.0
C38 C 0.60032 0.51524 0.56024 0.0
C39 C 0.54502 0.51908 0.39894 0.0
O40 O 0.45484 0.47914 0.47371 0.0
O41 O 0.34865 0.43666 0.444 0.0
C42 C 0.15766 0.8596 0.44443 0.0
C43 C 0.23311 0.83965 0.4346 0.0
C44 C 0.26678 0.86547 0.40456 0.0
C45 C 0.15095 0.92561 0.3941 0.0
C46 C 0.1182 0.90402 0.42412 0.0
C47 C 0.05313 0.94851 0.43719 0.0
H48 H 0.81647 0.19876 0.37942 0.0
C49 C 0.1021 0.97531 0.38073 0.0
C50 C 0.04773 0.99688 0.4074 0.0
H51 H 0.82603 0.15006 0.49033 0.0
H52 H 0.93298 0.08022 0.4739 0.0
H53 H 0.98111 0.2032 0.36671 0.0
H54 H 0.80811 0.05198 0.34479 0.0
H55 H 0.87234 0.03233 0.30949 0.0
H56 H 0.82505 0.1099 0.31303 0.0
H57 H 0.91279 0.19803 0.3284 0.0
H58 H 0.00759 0.16254 0.32449 0.0
C59 C 0.08284 0.97735 0.47575 0.0
C60 C 0.97718 0.90828 0.43734 0.0
C61 C 0.08471 0.96401 0.24189 0.0
C62 C 0.04124 0.99903 0.21803 0.0
C63 C 0.99318 0.04883 0.23282 0.0
C64 C 0.98675 0.06245 0.2706 0.0
C65 C 0.02964 0.02671 0.29421 0.0
C66 C 0.07907 0.97953 0.27989 0.0
C67 C 0.12709 0.95261 0.30935 0.0
C68 C 0.09227 0.98795 0.34386 0.0
C69 C 0.03465 0.02969 0.33445 0.0
C70 C 0.21375 0.97201 0.30494 0.0
C71 C 0.11284 0.878 0.30619 0.0
C72 C 0.83722 0.16974 0.40034 0.0
C73 C 0.81556 0.18387 0.43685 0.0
C74 C 0.84507 0.14386 0.46234 0.0
C75 C 0.90316 0.09838 0.45257 0.0
C76 C 0.92642 0.085 0.41634 0.0
C77 C 0.89121 0.12087 0.39103 0.0
C78 C 0.9221 0.1062 0.35399 0.0
C79 C 0.98513 0.0589 0.3611 0.0
C80 C 0.98956 0.0438 0.39782 0.0
C81 C 0.95727 0.1706 0.34242 0.0
C82 C 0.8539 0.07385 0.3288 0.0
H83 H 0.25831 0.93315 0.36547 0.0
H84 H 0.1323 0.84502 0.46896 0.0
H85 H 0.92726 0.94094 0.43704 0.0
H86 H 0.97507 0.88075 0.46166 0.0
H87 H 0.97049 0.87284 0.41211 0.0
H88 H 0.14252 0.99875 0.47481 0.0
H89 H 0.08413 0.94014 0.49538 0.0
H90 H 0.04661 0.01393 0.48795 0.0
H91 H 0.12429 0.92698 0.23121 0.0
H92 H 0.96244 0.07915 0.21525 0.0
H93 H 0.94918 0.10113 0.27964 0.0
H94 H 0.22433 0.99199 0.27855 0.0
H95 H 0.25185 0.92934 0.30495 0.0
H96 H 0.23437 0.01054 0.32703 0.0
H97 H 0.05055 0.86611 0.31017 0.0
H98 H 0.14811 0.85518 0.3267 0.0
H99 H 0.12889 0.85457 0.27871 0.0
H100 H 0.32461 0.85236 0.39609 0.0
C101 C 0.2272 0.90982 0.38533 0.0
C102 C 0.15548 0.25034 0.54324 0.0
C103 C 0.23035 0.26996 0.55776 0.0
C104 C 0.26059 0.24136 0.58779 0.0
C105 C 0.14223 0.17559 0.58893 0.0
C106 C 0.11382 0.20016 0.55832 0.0
C107 C 0.04999 0.1549 0.53948 0.0
H108 H 0.77292 0.91266 0.58372 0.0
C109 C 0.08785 0.12463 0.59812 0.0
C110 C 0.03495 0.10486 0.56814 0.0
H111 H 0.82842 0.9347 0.47261 0.0
H112 H 0.93686 1.00023 0.49642 0.0
H113 H 0.92974 0.90312 0.60741 0.0
H114 H 0.78482 0.06961 0.61592 0.0
H115 H 0.84021 0.07833 0.65715 0.0
H116 H 0.77724 0.00711 0.64583 0.0
H117 H 0.85807 0.916 0.6419 0.0
H118 H 0.95734 0.94529 0.65001 0.0
C119 C 0.08734 0.12901 0.50296 0.0
C120 C 0.97772 0.19397 0.53335 0.0
C121 C 0.07942 0.11235 0.73488 0.0
C122 C 0.03172 0.07699 0.75585 0.0
C123 C 0.96563 0.04292 0.73964 0.0
C124 C 0.94944 0.04137 0.70203 0.0
C125 C 1.00086 0.07325 0.68042 0.0
C126 C 0.06346 0.10908 0.69712 0.0
C127 C 0.11456 0.13633 0.6701 0.0
C128 C 0.07184 0.11093 0.63401 0.0
C129 C 1.00558 0.07463 0.64036 0.0
C130 C 0.19654 0.10697 0.67358 0.0
C131 C 0.11367 0.21156 0.67845 0.0
C132 C 0.80199 0.93818 0.56361 0.0
C133 C 0.79119 0.91692 0.52594 0.0
C134 C 0.83497 0.94953 0.50181 0.0
C135 C 0.89481 0.99442 0.51503 0.0
C136 C 0.90537 0.01811 0.5522 0.0
C137 C 0.85842 0.9878 0.57574 0.0
C138 C 0.88524 1.00386 0.61453 0.0
C139 C 0.95603 0.04743 0.61092 0.0
C140 C 0.96965 0.05958 0.57429 0.0
C141 C 0.90831 0.93909 0.62961 0.0
C142 C 0.8187 0.04124 0.63472 0.0
H143 H 0.24498 0.17231 0.62494 0.0
H144 H 0.13329 0.2695 0.51875 0.0
H145 H 0.92665 0.16048 0.52894 0.0
H146 H 0.98428 0.22161 0.50926 0.0
H147 H 0.96679 0.22884 0.558 0.0
H148 H 0.13447 0.09533 0.50836 0.0
H149 H 0.11485 0.16789 0.48885 0.0
H150 H 0.04604 0.10985 0.48132 0.0
H151 H 0.1312 0.13794 0.74712 0.0
H152 H 0.9283 0.01545 0.75591 0.0
H153 H 0.89928 0.01305 0.69134 0.0
H154 H 0.19848 0.06793 0.6921 0.0
H155 H 0.24054 0.14485 0.68476 0.0
H156 H 0.21548 0.08269 0.6468 0.0
H157 H 0.05328 0.22918 0.67613 0.0
H158 H 0.14932 0.2373 0.66 0.0
H159 H 0.13665 0.22743 0.70683 0.0
H160 H 0.31859 0.25471 0.59888 0.0
C161 C 0.21737 0.19395 0.6031 0.0
C162 C 0.67121 0.36792 0.94884 0.0
C163 C 0.73717 0.33392 0.93508 0.0
C164 C 0.75262 0.33351 0.89751 0.0
C165 C 0.64128 0.40005 0.88807 0.0
C166 C 0.62451 0.40135 0.92469 0.0
C167 C 0.55508 0.44408 0.93342 0.0
H168 H 0.35317 0.70476 0.87683 0.0
C169 C 0.58752 0.44319 0.87072 0.0
C170 C 0.53867 0.47334 0.89747 0.0
H171 H 0.3195 0.62852 0.97991 0.0
H172 H 0.39599 0.53168 0.95736 0.0
H173 H 0.52833 0.68169 0.86535 0.0
H174 H 0.31666 0.5766 0.83487 0.0
H175 H 0.37821 0.54263 0.80113 0.0
H176 H 0.35876 0.62868 0.80474 0.0
H177 H 0.45984 0.70054 0.83041 0.0
H178 H 0.53962 0.64718 0.81968 0.0
C179 C 0.57747 0.49651 0.96474 0.0
C180 C 0.48593 0.40102 0.94214 0.0
C181 C 0.57448 0.43984 0.73248 0.0
C182 C 0.54193 0.48269 0.70942 0.0
C183 C 0.50616 0.53941 0.72507 0.0
C184 C 0.50142 0.5527 0.76295 0.0
C185 C 0.5329 0.50902 0.78556 0.0
C186 C 0.57166 0.45532 0.7705 0.0
C187 C 0.61373 0.42198 0.79934 0.0
C188 C 0.58143 0.4578 0.83404 0.0
C189 C 0.53438 0.50834 0.82544 0.0
C190 C 0.70245 0.4356 0.79615 0.0
C191 C 0.59002 0.3488 0.79436 0.0
C192 C 0.36507 0.66964 0.89597 0.0
C193 C 0.33554 0.67809 0.93133 0.0
C194 C 0.34507 0.62598 0.95315 0.0
C195 C 0.39115 0.57118 0.94092 0.0
C196 C 0.43116 0.57017 0.90793 0.0
C197 C 0.41196 0.61682 0.8852 0.0
C198 C 0.44225 0.6023 0.84774 0.0
C199 C 0.48946 0.54276 0.85232 0.0
C200 C 0.48673 0.52384 0.88798 0.0
C201 C 0.49492 0.66092 0.84002 0.0
C202 C 0.37089 0.58707 0.82056 0.0
H203 H 0.72088 0.36269 0.84608 0.0
H204 H 0.65736 0.36935 0.97756 0.0
H205 H 0.43164 0.42856 0.942 0.0
H206 H 0.49534 0.38275 0.96928 0.0
H207 H 0.47782 0.35822 0.92088 0.0
H208 H 0.63083 0.5241 0.95863 0.0
H209 H 0.58699 0.47569 -0.00886 0.0
H210 H 0.52956 0.53012 0.96728 0.0
H211 H 0.60332 0.39629 0.72135 0.0
H212 H 0.4838 0.57481 0.70805 0.0
H213 H 0.47478 0.59723 0.77299 0.0
H214 H 0.71529 0.47197 0.77683 0.0
H215 H 0.733 0.3906 0.78595 0.0
H216 H 0.72994 0.45663 0.82286 0.0
H217 H 0.52562 0.34254 0.79257 0.0
H218 H 0.61067 0.32311 0.81749 0.0
H219 H 0.61379 0.32383 0.76876 0.0
H220 H 0.80118 0.30684 0.88576 0.0
C221 C 0.70557 0.36601 0.87423 0.0
C222 C 0.62658 0.75432 0.0352 0.0
C223 C 0.70202 0.77643 0.04824 0.0
C224 C 0.73431 0.75342 0.07975 0.0
C225 C 0.61632 0.69115 0.08678 0.0
C226 C 0.58447 0.71129 0.05518 0.0
C227 C 0.50823 0.67439 0.04445 0.0
H228 H 0.23426 0.45016 0.08843 0.0
C229 C 0.56171 0.64472 0.1004 0.0
C230 C 0.50406 0.62571 0.07317 0.0
H231 H 0.36818 0.40791 -0.00808 0.0
H232 H 0.45188 0.5044 0.0118 0.0
H233 H 0.38374 0.43184 0.12034 0.0
H234 H 0.26768 0.61377 0.11951 0.0
H235 H 0.30724 0.60919 0.16423 0.0
H236 H 0.23637 0.54841 0.14443 0.0
H237 H 0.31552 0.45811 0.15466 0.0
H238 H 0.41797 0.47851 0.16004 0.0
C239 C 0.51286 0.64194 0.00551 0.0
C240 C 0.43957 0.72097 0.04803 0.0
C241 C 0.5831 0.61748 0.23505 0.0
C242 C 0.53407 0.58672 0.25756 0.0
C243 C 0.4578 0.56749 0.24542 0.0
C244 C 0.43249 0.57451 0.20959 0.0
C245 C 0.48522 0.59883 0.18581 0.0
C246 C 0.55754 0.6228 0.19912 0.0
C247 C 0.60472 0.64904 0.17033 0.0
C248 C 0.55076 0.63224 0.1369 0.0
C249 C 0.48135 0.60225 0.14607 0.0
C250 C 0.68229 0.61202 0.16689 0.0
C251 C 0.615 0.72341 0.18151 0.0
C252 C 0.27828 0.4628 0.06985 0.0
C253 C 0.29216 0.42122 0.03749 0.0
C254 C 0.35289 0.44037 0.01558 0.0
C255 C 0.39975 0.49722 0.02625 0.0
C256 C 0.38561 0.53739 0.05879 0.0
C257 C 0.33017 0.51553 0.0816 0.0
C258 C 0.35252 0.53615 0.12146 0.0
C259 C 0.42679 0.5761 0.11819 0.0
C260 C 0.44114 0.58321 0.08146 0.0
C261 C 0.36772 0.47354 0.14045 0.0
C262 C 0.28751 0.5789 0.13863 0.0
H263 H 0.72171 0.69211 0.12146 0.0
H264 H 0.60189 0.76945 0.01008 0.0
H265 H 0.38372 0.69363 0.04109 0.0
H266 H 0.44535 0.75913 0.02914 0.0
H267 H 0.43709 0.74551 0.07663 0.0
H268 H 0.56925 0.61737 0.00216 0.0
H269 H 0.50825 0.67767 -0.01491 0.0
H270 H 0.4642 0.60689 0.00082 0.0
H271 H 0.64154 0.6333 0.24444 0.0
H272 H 0.41902 0.54493 0.26331 0.0
H273 H 0.37452 0.55781 0.20121 0.0
H274 H 0.67989 0.56561 0.17954 0.0
H275 H 0.73158 0.64208 0.18055 0.0
H276 H 0.69609 0.59693 0.1378 0.0
H277 H 0.55738 0.74633 0.18493 0.0
H278 H 0.64588 0.74918 0.16145 0.0
H279 H 0.64841 0.73338 0.2081 0.0
H280 H 0.79282 0.76837 0.08948 0.0
C281 C 0.69269 0.70981 0.09848 0.0
C282 C 0.21402 0.25659 -0.01377 0.0
C283 C 0.20308 0.21742 0.01481 0.0
C284 C 0.23811 0.32318 -0.00631 0.0
C285 C 0.25424 0.35332 0.03005 0.0
H286 H 0.20893 0.23469 0.9579 0.0
H287 H 0.24749 0.35045 0.9706 0.0
S288 S 0.23665 0.26964 0.1145 0.0
N289 N 0.20833 0.2137 0.08065 0.0
N290 N 0.2579 0.33531 0.09475 0.0
C291 C 0.24117 0.31432 0.05875 0.0
C292 C 0.2147 0.2476 0.05109 0.0
C293 C 0.19117 0.8109 0.96754 0.0
C294 C 0.22947 0.86946 0.96066 0.0
C295 C 0.22587 0.74903 0.95953 0.0
C296 C 0.30019 0.74311 0.94418 0.0
H297 H 0.13478 0.81292 0.97989 0.0
H298 H 0.19379 0.7056 0.96483 0.0
S299 S 0.42553 0.88097 0.9215 0.0
N300 N 0.34614 0.91602 0.93722 0.0
N301 N 0.4113 0.80244 0.9239 0.0
C302 C 0.33886 0.8015 0.93773 0.0
C303 C 0.30363 0.86361 0.94539 0.0
C304 C 0.81692 0.92779 0.02997 0.0
C305 C 0.85694 0.90643 -0.00184 0.0
C306 C 0.76606 0.88558 0.04582 0.0
C307 C 0.75054 0.82148 0.0293 0.0
H308 H 0.82197 0.97836 0.04156 0.0
H309 H 0.73718 0.9036 0.07071 0.0
S310 S 0.83703 0.74297 0.94455 0.0
N311 N 0.87637 0.81729 0.95025 0.0
N312 N 0.77897 0.73865 0.97936 0.0
C313 C 0.78974 0.79958 -0.00262 0.0
C314 C 0.84309 0.84196 0.98188 0.0
C315 C 0.92092 0.25115 0.96396 0.0
C316 C 0.89132 0.19606 0.97859 0.0
C317 C 0.87125 0.30002 0.95392 0.0
C318 C 0.78971 0.29543 0.95761 0.0
H319 H 0.98151 0.25342 0.95686 0.0
H320 H 0.89613 0.33893 0.94018 0.0
S321 S 0.68515 0.16485 -0.00076 0.0
N322 N 0.77704 0.14345 0.00025 0.0
N323 N 0.68388 0.23452 0.98117 0.0
C324 C 0.76079 0.24385 0.97562 0.0
C325 C 0.81149 0.1943 -0.01401 0.0
C326 C 0.76265 0.74358 0.47838 0.0
C327 C 0.70056 0.718 0.49673 0.0
C328 C 0.7873 0.80899 0.48598 0.0
C329 C 0.75096 0.85248 0.51243 0.0
H330 H 0.79746 0.71116 0.46053 0.0
H331 H 0.83969 0.82357 0.47314 0.0
S332 S 0.57495 0.81248 0.56254 0.0
N333 N 0.59609 0.74268 0.53861 0.0
N334 N 0.64056 0.86665 0.55233 0.0
C335 C 0.68347 0.82896 0.52814 0.0
C336 C 0.65852 0.76171 0.52033 0.0
C337 C 0.68471 0.3309 0.43172 0.0
C338 C 0.7113 0.37362 0.46238 0.0
C339 C 0.71512 0.26798 0.42473 0.0
C340 C 0.7725 0.24527 0.44837 0.0
H341 H 0.64266 0.34707 0.41232 0.0
H342 H 0.69494 0.23756 0.40005 0.0
S343 S 0.8507 0.33712 0.53584 0.0
N344 N 0.79011 0.3874 0.51881 0.0
N345 N 0.84728 0.27076 0.50607 0.0
C346 C 0.79469 0.28687 0.48054 0.0
C347 C 0.76426 0.3506 0.48737 0.0
C348 C 0.30949 0.42372 0.52303 0.0
C349 C 0.37299 0.40114 0.50228 0.0
C350 C 0.26406 0.38126 0.54141 0.0
C351 C 0.28085 0.31486 0.53966 0.0
H352 H 0.29147 0.47362 0.52288 0.0
H353 H 0.21417 0.40001 0.55614 0.0
S354 S 0.44222 0.23206 0.4899 0.0
N355 N 0.45126 0.30879 0.48165 0.0
N356 N 0.36722 0.2289 0.51686 0.0
C357 C 0.34641 0.2923 0.52043 0.0
C358 C 0.39223 0.33552 0.50156 0.0
C359 C 0.40666 0.74895 0.46865 0.0
C360 C 0.37184 0.69028 0.47627 0.0
C361 C 0.36074 0.79998 0.4587 0.0
C362 C 0.2786 0.79339 0.45514 0.0
H363 H 0.4693 0.75325 0.46702 0.0
H364 H 0.39032 0.84318 0.45134 0.0
S365 S 0.16101 0.65376 0.48111 0.0
N366 N 0.25204 0.6329 0.48727 0.0
N367 N 0.1655 0.72662 0.46683 0.0
C368 C 0.24365 0.73768 0.4672 0.0
C369 C 0.29048 0.68663 0.4781 0.0
C370 C 0.14468 0.99231 0.12891 0.0
C371 C 0.08418 1.00055 0.10314 0.0
C372 C 0.12968 0.98786 0.16568 0.0
C373 C 0.0535 0.99052 0.17813 0.0
H374 H 0.2049 0.99196 0.12114 0.0
H375 H 0.17874 0.98603 0.18476 0.0
S376 S 0.8732 1.00176 0.12147 0.0
N377 N 0.94415 0.00532 0.09234 0.0
N378 N 0.91588 0.99356 0.16156 0.0
C379 C 0.99183 0.99371 0.15239 0.0
C380 C 1.00714 0.99946 0.11487 0.0
C381 C 0.08824 0.99191 0.83691 0.0
C382 C 0.0762 0.03984 0.86639 0.0
C383 C 0.07834 0.00587 0.80076 0.0
C384 C 0.05597 0.06799 0.79334 0.0
H385 H 0.09852 0.94204 0.84184 0.0
H386 H 0.08335 0.9669 0.77853 0.0
S387 S 0.02436 0.21167 0.8607 0.0
N388 N 0.04721 0.15311 0.88596 0.0
N389 N 0.02856 0.17918 0.81741 0.0
C390 C 0.05016 0.11782 0.82231 0.0
C391 C 0.06065 0.10376 0.85919 0.0
C392 C 0.507 0.5009 0.60945 0.0
C393 C 0.58199 0.49348 0.59585 0.0
C394 C 0.49248 0.49093 0.64568 0.0
C395 C 0.55273 0.47424 0.66946 0.0
H396 H 0.46025 0.5179 0.59281 0.0
H397 H 0.43484 0.50034 0.65581 0.0
S398 S 0.75502 0.43475 0.64431 0.0
N399 N 0.71315 0.45542 0.6064 0.0
N400 N 0.68735 0.44174 0.67532 0.0
C401 C 0.626 0.46046 0.65507 0.0
C402 C 0.64029 0.46905 0.61799 0.0
C403 C 0.58044 0.60089 0.3583 0.0
C404 C 0.57535 0.53496 0.36435 0.0
C405 C 0.57405 0.61817 0.3226 0.0
C406 C 0.56347 0.56971 0.29272 0.0
H407 H 0.5799 0.6392 0.38115 0.0
H408 H 0.57012 0.66919 0.31864 0.0
S409 S 0.56947 0.39122 0.29397 0.0
N410 N 0.57618 0.42174 0.33772 0.0
N411 N 0.56485 0.4545 0.27028 0.0
C412 C 0.56975 0.50409 0.29814 0.0
C413 C 0.57603 0.48655 0.33429 0.0
loop_
_geom_bond_atom_site_label_1
_geom_bond_atom_site_label_2
_geom_bond_distance
_geom_bond_site_symmetry_2
_ccdc_geom_bond_type
O0 Mn1 2.163 1_654 S
O0 C14 1.244 1_554 S
Mn1 O0 2.163 1_456 S
Mn1 O4 2.160 1_545 S
Mn1 O5 2.221 1_556 S
Mn1 O7 2.163 1_556 S
Mn1 O9 2.160 . S
Mn1 O19 2.221 1_445 S
O2 Mn3 2.087 . S
O2 C14 1.256 . S
Mn3 O2 2.087 . S
Mn3 O10 2.089 . S
Mn3 O19 2.290 1_545 S
Mn3 O20 2.251 1_545 S
O4 Mn1 2.160 1_565 S
O4 C15 1.239 1_556 S
O5 Mn1 2.221 1_554 S
O5 Mn6 2.290 . S
O5 C16 1.278 . S
Mn6 O5 2.290 . S
Mn6 O8 2.089 1_545 S
Mn6 O11 2.251 . S
Mn6 O12 2.087 . S
O7 Mn1 2.163 1_554 S
O7 C17 1.244 . S
O8 Mn6 2.089 1_565 S
O8 C15 1.256 . S
O9 Mn1 2.160 . S
O9 C18 1.239 . S
O10 Mn3 2.089 . S
O10 C18 1.256 1_655 S
O11 Mn6 2.251 . S
O11 C16 1.241 . S
O12 Mn6 2.087 . S
O12 C17 1.256 . S
C13 O19 1.265 1_554 S
C13 O20 1.235 1_554 S
C14 O0 1.244 1_556 S
C14 O2 1.256 . S
C15 O4 1.239 1_554 S
C15 O8 1.256 . S
C16 O5 1.278 . S
C16 O11 1.241 . S
C17 O7 1.244 . S
C17 O12 1.256 . S
C18 O9 1.239 . S
C18 O10 1.256 1_455 S
O19 Mn1 2.221 1_665 S
O19 Mn3 2.290 1_565 S
O19 C13 1.265 1_556 S
O20 Mn3 2.251 1_565 S
O20 C13 1.235 1_556 S
O21 Mn22 2.163 . S
O21 C35 1.244 . S
Mn22 O21 2.163 . S
Mn22 O25 2.160 . S
Mn22 O26 2.221 . S
Mn22 O28 2.163 . S
Mn22 O30 2.160 . S
Mn22 O40 2.221 . S
O23 Mn24 2.087 . S
O23 C35 1.256 . S
Mn24 O23 2.087 . S
Mn24 O31 2.089 . S
Mn24 O40 2.290 . S
Mn24 O41 2.251 . S
O25 Mn22 2.160 . S
O25 C36 1.239 . S
O26 Mn22 2.221 . S
O26 Mn27 2.290 . S
O26 C37 1.278 . S
Mn27 O26 2.290 . S
Mn27 O29 2.089 . S
Mn27 O32 2.251 . S
Mn27 O33 2.087 . S
O28 Mn22 2.163 . S
O28 C38 1.244 . S
O29 Mn27 2.089 . S
O29 C36 1.256 . S
O30 Mn22 2.160 . S
O30 C39 1.239 . S
O31 Mn24 2.089 . S
O31 C39 1.256 . S
O32 Mn27 2.251 . S
O32 C37 1.241 . S
O33 Mn27 2.087 . S
O33 C38 1.256 . S
C34 O40 1.278 . S
C34 O41 1.241 . S
C35 O21 1.244 . S
C35 O23 1.256 . S
C36 O25 1.239 . S
C36 O29 1.256 . S
C37 O26 1.278 . S
C37 O32 1.241 . S
C38 O28 1.244 . S
C38 O33 1.256 . S
C39 O30 1.239 . S
C39 O31 1.256 . S
O40 Mn22 2.221 . S
O40 Mn24 2.290 . S
O40 C34 1.278 . S
O41 Mn24 2.251 . S
O41 C34 1.241 . S
C42 C43 1.391 . S
C42 C46 1.391 . S
C42 H84 0.948 . S
C43 C42 1.391 . S
C43 C44 1.391 . S
C44 C43 1.391 . S
C44 H100 0.947 . S
C44 C101 1.392 . S
C45 C46 1.391 . S
C45 C49 1.397 . S
C45 C101 1.419 . S
C46 C42 1.391 . S
C46 C45 1.391 . S
C46 C47 1.399 . S
C47 C46 1.399 . S
C47 C50 1.396 . S
C47 C59 1.453 1_565 S
C47 C60 1.684 . S
H48 C72 0.948 . S
C49 C45 1.397 . S
C49 C50 1.394 . S
C49 C68 1.723 . S
C50 C47 1.396 . S
C50 C49 1.394 . S
C50 C80 1.723 1_565 S
H51 C74 0.947 . S
H52 C75 0.948 . S
H53 C81 0.982 1_455 S
H54 C82 0.979 . S
H55 C82 0.980 . S
H56 C82 0.983 . S
H57 C81 0.979 . S
H58 C81 0.977 . S
C59 C47 1.453 1_545 S
C59 H88 0.982 . S
C59 H89 0.979 1_545 S
C59 H90 0.977 . S
C60 C47 1.684 . S
C60 H85 0.979 1_455 S
C60 H86 0.980 1_455 S
C60 H87 0.983 . S
C61 C62 1.391 . S
C61 C66 1.391 . S
C61 H91 0.948 . S
C62 C61 1.391 . S
C62 C63 1.391 1_465 S
C63 C62 1.391 1_645 S
C63 C64 1.392 . S
C63 H92 0.947 . S
C64 C63 1.392 . S
C64 C65 1.419 1_655 S
C64 H93 0.948 . S
C65 C64 1.419 1_455 S
C65 C66 1.391 1_545 S
C65 C69 1.397 . S
C66 C61 1.391 . S
C66 C65 1.391 1_565 S
C66 C67 1.399 . S
C67 C66 1.399 . S
C67 C68 1.396 . S
C67 C70 1.453 . S
C67 C71 1.684 . S
C68 C49 1.723 . S
C68 C67 1.396 . S
C68 C69 1.394 1_565 S
C69 C65 1.397 . S
C69 C68 1.394 1_545 S
C69 C79 1.723 1_455 S
C70 C67 1.453 . S
C70 H94 0.982 . S
C70 H95 0.979 . S
C70 H96 0.977 . S
C71 C67 1.684 . S
C71 H97 0.979 . S
C71 H98 0.980 . S
C71 H99 0.983 . S
C72 H48 0.948 . S
C72 C73 1.391 . S
C72 C77 1.391 . S
C73 C72 1.391 . S
C73 C74 1.391 . S
C74 H51 0.947 . S
C74 C73 1.391 . S
C74 C75 1.392 . S
C75 H52 0.948 . S
C75 C74 1.392 . S
C75 C76 1.419 . S
C76 C75 1.419 . S
C76 C77 1.391 . S
C76 C80 1.397 1_655 S
C77 C72 1.391 . S
C77 C76 1.391 . S
C77 C78 1.399 . S
C78 C77 1.399 . S
C78 C79 1.396 . S
C78 C81 1.453 . S
C78 C82 1.684 . S
C79 C69 1.723 1_655 S
C79 C78 1.396 . S
C79 C80 1.394 1_655 S
C80 C50 1.723 1_545 S
C80 C76 1.397 1_455 S
C80 C79 1.394 1_455 S
C81 H53 0.982 1_655 S
C81 H57 0.979 . S
C81 H58 0.977 . S
C81 C78 1.453 . S
C82 H54 0.979 . S
C82 H55 0.980 . S
C82 H56 0.983 . S
C82 C78 1.684 . S
H83 C101 0.948 . S
H84 C42 0.948 . S
H85 C60 0.979 1_655 S
H86 C60 0.980 1_655 S
H87 C60 0.983 . S
H88 C59 0.982 . S
H89 C59 0.979 1_565 S
H90 C59 0.977 . S
H91 C61 0.948 . S
H92 C63 0.947 . S
H93 C64 0.948 . S
H94 C70 0.982 . S
H95 C70 0.979 . S
H96 C70 0.977 . S
H97 C71 0.979 . S
H98 C71 0.980 . S
H99 C71 0.983 . S
H100 C44 0.947 . S
C101 C44 1.392 . S
C101 C45 1.419 . S
C101 H83 0.948 . S
C102 C103 1.391 . S
C102 C106 1.391 . S
C102 H144 0.948 . S
C103 C102 1.391 . S
C103 C104 1.391 . S
C104 C103 1.391 . S
C104 H160 0.947 . S
C104 C161 1.392 . S
C105 C106 1.391 . S
C105 C109 1.397 . S
C105 C161 1.419 . S
C106 C102 1.391 . S
C106 C105 1.391 . S
C106 C107 1.399 . S
C107 C106 1.399 . S
C107 C110 1.396 . S
C107 C119 1.453 . S
C107 C120 1.684 1_455 S
H108 C132 0.948 . S
C109 C105 1.397 . S
C109 C110 1.394 . S
C109 C128 1.723 . S
C110 C107 1.396 . S
C110 C109 1.394 . S
C110 C140 1.723 1_455 S
H111 C134 0.947 . S
H112 C135 0.948 1_545 S
H113 C141 0.982 . S
H114 C142 0.979 1_545 S
H115 C142 0.980 . S
H116 C142 0.983 . S
H117 C141 0.979 . S
H118 C141 0.977 . S
C119 C107 1.453 . S
C119 H148 0.982 . S
C119 H149 0.979 . S
C119 H150 0.977 . S
C120 C107 1.684 1_655 S
C120 H145 0.979 . S
C120 H146 0.980 . S
C120 H147 0.983 . S
C121 C122 1.391 1_455 S
C121 C126 1.391 . S
C121 H151 0.948 . S
C122 C121 1.391 1_655 S
C122 C123 1.391 . S
C123 C122 1.391 . S
C123 C124 1.392 . S
C123 H152 0.947 . S
C124 C123 1.392 . S
C124 C125 1.419 . S
C124 H153 0.948 . S
C125 C124 1.419 . S
C125 C126 1.391 1_655 S
C125 C129 1.397 . S
C126 C121 1.391 . S
C126 C125 1.391 1_455 S
C126 C127 1.399 . S
C127 C126 1.399 . S
C127 C128 1.396 . S
C127 C130 1.453 . S
C127 C131 1.684 . S
C128 C109 1.723 . S
C128 C127 1.396 . S
C128 C129 1.394 1_455 S
C129 C125 1.397 . S
C129 C128 1.394 1_655 S
C129 C139 1.723 . S
C130 C127 1.453 . S
C130 H154 0.982 . S
C130 H155 0.979 . S
C130 H156 0.977 . S
C131 C127 1.684 . S
C131 H157 0.979 . S
C131 H158 0.980 . S
C131 H159 0.983 . S
C132 H108 0.948 . S
C132 C133 1.391 . S
C132 C137 1.391 . S
C133 C132 1.391 . S
C133 C134 1.391 . S
C134 H111 0.947 . S
C134 C133 1.391 . S
C134 C135 1.392 . S
C135 H112 0.948 1_565 S
C135 C134 1.392 . S
C135 C136 1.419 . S
C136 C135 1.419 . S
C136 C137 1.391 . S
C136 C140 1.397 1_565 S
C137 C132 1.391 . S
C137 C136 1.391 . S
C137 C138 1.399 . S
C138 C137 1.399 . S
C138 C139 1.396 1_565 S
C138 C141 1.453 . S
C138 C142 1.684 . S
C139 C129 1.723 . S
C139 C138 1.396 1_545 S
C139 C140 1.394 . S
C140 C110 1.723 1_655 S
C140 C136 1.397 1_545 S
C140 C139 1.394 . S
C141 H113 0.982 . S
C141 H117 0.979 . S
C141 H118 0.977 . S
C141 C138 1.453 . S
C142 H114 0.979 1_565 S
C142 H115 0.980 . S
C142 H116 0.983 . S
C142 C138 1.684 . S
H143 C161 0.948 . S
H144 C102 0.948 . S
H145 C120 0.979 . S
H146 C120 0.980 . S
H147 C120 0.983 . S
H148 C119 0.982 . S
H149 C119 0.979 . S
H150 C119 0.977 . S
H151 C121 0.948 . S
H152 C123 0.947 . S
H153 C124 0.948 . S
H154 C130 0.982 . S
H155 C130 0.979 . S
H156 C130 0.977 . S
H157 C131 0.979 . S
H158 C131 0.980 . S
H159 C131 0.983 . S
H160 C104 0.947 . S
C161 C104 1.392 . S
C161 C105 1.419 . S
C161 H143 0.948 . S
C162 C163 1.391 . S
C162 C166 1.391 . S
C162 H204 0.948 1_556 S
C163 C162 1.391 . S
C163 C164 1.391 . S
C164 C163 1.391 . S
C164 H220 0.947 . S
C164 C221 1.392 . S
C165 C166 1.391 . S
C165 C169 1.397 . S
C165 C221 1.419 . S
C166 C162 1.391 . S
C166 C165 1.391 . S
C166 C167 1.399 . S
C167 C166 1.399 . S
C167 C170 1.396 . S
C167 C179 1.453 1_556 S
C167 C180 1.684 1_556 S
H168 C192 0.948 . S
C169 C165 1.397 . S
C169 C170 1.394 . S
C169 C188 1.723 . S
C170 C167 1.396 . S
C170 C169 1.394 . S
C170 C200 1.723 . S
H171 C194 0.947 . S
H172 C195 0.948 . S
H173 C201 0.982 . S
H174 C202 0.979 . S
H175 C202 0.980 . S
H176 C202 0.983 . S
H177 C201 0.979 . S
H178 C201 0.977 . S
C179 C167 1.453 1_554 S
C179 H208 0.982 . S
C179 H209 0.979 . S
C179 H210 0.977 . S
C180 C167 1.684 1_554 S
C180 H205 0.979 . S
C180 H206 0.980 . S
C180 H207 0.983 . S
C181 C182 1.391 . S
C181 C186 1.391 . S
C181 H211 0.948 . S
C182 C181 1.391 . S
C182 C183 1.391 . S
C183 C182 1.391 . S
C183 C184 1.392 . S
C183 H212 0.947 . S
C184 C183 1.392 . S
C184 C185 1.419 . S
C184 H213 0.948 . S
C185 C184 1.419 . S
C185 C186 1.391 . S
C185 C189 1.397 . S
C186 C181 1.391 . S
C186 C185 1.391 . S
C186 C187 1.399 . S
C187 C186 1.399 . S
C187 C188 1.396 . S
C187 C190 1.453 . S
C187 C191 1.684 . S
C188 C169 1.723 . S
C188 C187 1.396 . S
C188 C189 1.394 . S
C189 C185 1.397 . S
C189 C188 1.394 . S
C189 C199 1.723 . S
C190 C187 1.453 . S
C190 H214 0.982 . S
C190 H215 0.979 . S
C190 H216 0.977 . S
C191 C187 1.684 . S
C191 H217 0.979 . S
C191 H218 0.980 . S
C191 H219 0.983 . S
C192 H168 0.948 . S
C192 C193 1.391 1_556 S
C192 C197 1.391 . S
C193 C192 1.391 1_554 S
C193 C194 1.391 . S
C194 H171 0.947 . S
C194 C193 1.391 . S
C194 C195 1.392 . S
C195 H172 0.948 . S
C195 C194 1.392 . S
C195 C196 1.419 1_554 S
C196 C195 1.419 1_556 S
C196 C197 1.391 . S
C196 C200 1.397 . S
C197 C192 1.391 . S
C197 C196 1.391 . S
C197 C198 1.399 . S
C198 C197 1.399 . S
C198 C199 1.396 . S
C198 C201 1.453 . S
C198 C202 1.684 . S
C199 C189 1.723 . S
C199 C198 1.396 . S
C199 C200 1.394 . S
C200 C170 1.723 . S
C200 C196 1.397 . S
C200 C199 1.394 . S
C201 H173 0.982 . S
C201 H177 0.979 . S
C201 H178 0.977 . S
C201 C198 1.453 . S
C202 H174 0.979 . S
C202 H175 0.980 . S
C202 H176 0.983 . S
C202 C198 1.684 . S
H203 C221 0.948 . S
H204 C162 0.948 1_554 S
H205 C180 0.979 . S
H206 C180 0.980 . S
H207 C180 0.983 . S
H208 C179 0.982 . S
H209 C179 0.979 . S
H210 C179 0.977 . S
H211 C181 0.948 . S
H212 C183 0.947 . S
H213 C184 0.948 . S
H214 C190 0.982 . S
H215 C190 0.979 . S
H216 C190 0.977 . S
H217 C191 0.979 . S
H218 C191 0.980 . S
H219 C191 0.983 . S
H220 C164 0.947 . S
C221 C164 1.392 . S
C221 C165 1.419 . S
C221 H203 0.948 . S
C222 C223 1.391 . S
C222 C226 1.391 . S
C222 H264 0.948 1_554 S
C223 C222 1.391 . S
C223 C224 1.391 . S
C224 C223 1.391 . S
C224 H280 0.947 . S
C224 C281 1.392 . S
C225 C226 1.391 . S
C225 C229 1.397 . S
C225 C281 1.419 . S
C226 C222 1.391 . S
C226 C225 1.391 . S
C226 C227 1.399 . S
C227 C226 1.399 . S
C227 C230 1.396 . S
C227 C239 1.453 1_554 S
C227 C240 1.684 1_554 S
H228 C252 0.948 . S
C229 C225 1.397 . S
C229 C230 1.394 . S
C229 C248 1.723 . S
C230 C227 1.396 . S
C230 C229 1.394 . S
C230 C260 1.723 . S
H231 C254 0.947 . S
H232 C255 0.948 1_556 S
H233 C261 0.982 . S
H234 C262 0.979 . S
H235 C262 0.980 . S
H236 C262 0.983 . S
H237 C261 0.979 . S
H238 C261 0.977 . S
C239 C227 1.453 1_556 S
C239 H268 0.982 1_556 S
C239 H269 0.979 . S
C239 H270 0.977 . S
C240 C227 1.684 1_556 S
C240 H265 0.979 . S
C240 H266 0.980 . S
C240 H267 0.983 . S
C241 C242 1.391 . S
C241 C246 1.391 . S
C241 H271 0.948 . S
C242 C241 1.391 . S
C242 C243 1.391 . S
C243 C242 1.391 . S
C243 C244 1.392 . S
C243 H272 0.947 . S
C244 C243 1.392 . S
C244 C245 1.419 . S
C244 H273 0.948 . S
C245 C244 1.419 . S
C245 C246 1.391 . S
C245 C249 1.397 . S
C246 C241 1.391 . S
C246 C245 1.391 . S
C246 C247 1.399 . S
C247 C246 1.399 . S
C247 C248 1.396 . S
C247 C250 1.453 . S
C247 C251 1.684 . S
C248 C229 1.723 . S
C248 C247 1.396 . S
C248 C249 1.394 . S
C249 C245 1.397 . S
C249 C248 1.394 . S
C249 C259 1.723 . S
C250 C247 1.453 . S
C250 H274 0.982 . S
C250 H275 0.979 . S
C250 H276 0.977 . S
C251 C247 1.684 . S
C251 H277 0.979 . S
C251 H278 0.980 . S
C251 H279 0.983 . S
C252 H228 0.948 . S
C252 C253 1.391 . S
C252 C257 1.391 . S
C253 C252 1.391 . S
C253 C254 1.391 1_554 S
C254 H231 0.947 . S
C254 C253 1.391 1_556 S
C254 C255 1.392 1_556 S
C255 H232 0.948 1_554 S
C255 C254 1.392 1_554 S
C255 C256 1.419 . S
C256 C255 1.419 . S
C256 C257 1.391 . S
C256 C260 1.397 . S
C257 C252 1.391 . S
C257 C256 1.391 . S
C257 C258 1.399 . S
C258 C257 1.399 . S
C258 C259 1.396 . S
C258 C261 1.453 . S
C258 C262 1.684 . S
C259 C249 1.723 . S
C259 C258 1.396 . S
C259 C260 1.394 . S
C260 C230 1.723 . S
C260 C256 1.397 . S
C260 C259 1.394 . S
C261 H233 0.982 . S
C261 H237 0.979 . S
C261 H238 0.977 . S
C261 C258 1.453 . S
C262 H234 0.979 . S
C262 H235 0.980 . S
C262 H236 0.983 . S
C262 C258 1.684 . S
H263 C281 0.948 . S
H264 C222 0.948 1_556 S
H265 C240 0.979 . S
H266 C240 0.980 . S
H267 C240 0.983 . S
H268 C239 0.982 1_554 S
H269 C239 0.979 . S
H270 C239 0.977 . S
H271 C241 0.948 . S
H272 C243 0.947 . S
H273 C244 0.948 . S
H274 C250 0.982 . S
H275 C250 0.979 . S
H276 C250 0.977 . S
H277 C251 0.979 . S
H278 C251 0.980 . S
H279 C251 0.983 . S
H280 C224 0.947 . S
C281 C224 1.392 . S
C281 C225 1.419 . S
C281 H263 0.948 . S
C282 C283 1.369 1_556 S
C282 C284 1.419 . S
C282 H286 0.930 . S
C283 C282 1.369 1_554 S
C283 C292 1.429 . S
C284 C282 1.419 . S
C284 C285 1.363 1_556 S
C284 H287 0.929 . S
C285 C284 1.363 1_554 S
C285 C291 1.428 . S
H286 C282 0.930 . S
H287 C284 0.929 . S
S288 N289 1.613 . S
S288 N290 1.610 . S
N289 S288 1.613 . S
N289 C292 1.350 . S
N290 S288 1.610 . S
N290 C291 1.351 . S
C291 C285 1.428 . S
C291 N290 1.351 . S
C291 C292 1.434 . S
C292 C283 1.429 . S
C292 N289 1.350 . S
C292 C291 1.434 . S
C293 C294 1.369 . S
C293 C295 1.419 . S
C293 H297 0.930 . S
C294 C293 1.369 . S
C294 C303 1.429 1_554 S
C295 C293 1.419 . S
C295 C296 1.363 . S
C295 H298 0.929 . S
C296 C295 1.363 . S
C296 C302 1.428 1_554 S
H297 C293 0.930 . S
H298 C295 0.929 . S
S299 N300 1.613 . S
S299 N301 1.610 . S
N300 S299 1.613 . S
N300 C303 1.350 . S
N301 S299 1.610 . S
N301 C302 1.351 . S
C302 C296 1.428 1_556 S
C302 N301 1.351 . S
C302 C303 1.434 . S
C303 C294 1.429 1_556 S
C303 N300 1.350 . S
C303 C302 1.434 . S
C304 C305 1.369 . S
C304 C306 1.419 . S
C304 H308 0.930 . S
C305 C304 1.369 . S
C305 C314 1.429 1_554 S
C306 C304 1.419 . S
C306 C307 1.363 . S
C306 H309 0.929 . S
C307 C306 1.363 . S
C307 C313 1.428 1_554 S
H308 C304 0.930 . S
H309 C306 0.929 . S
S310 N311 1.613 . S
S310 N312 1.610 . S
N311 S310 1.613 . S
N311 C314 1.350 . S
N312 S310 1.610 . S
N312 C313 1.351 . S
C313 C307 1.428 1_556 S
C313 N312 1.351 . S
C313 C314 1.434 . S
C314 C305 1.429 1_556 S
C314 N311 1.350 . S
C314 C313 1.434 . S
C315 C316 1.369 . S
C315 C317 1.419 . S
C315 H319 0.930 . S
C316 C315 1.369 . S
C316 C325 1.429 1_556 S
C317 C315 1.419 . S
C317 C318 1.363 . S
C317 H320 0.929 . S
C318 C317 1.363 . S
C318 C324 1.428 1_556 S
H319 C315 0.930 . S
H320 C317 0.929 . S
S321 N322 1.613 . S
S321 N323 1.610 . S
N322 S321 1.613 . S
N322 C325 1.350 . S
N323 S321 1.610 . S
N323 C324 1.351 . S
C324 C318 1.428 1_554 S
C324 N323 1.351 . S
C324 C325 1.434 . S
C325 C316 1.429 1_554 S
C325 N322 1.350 . S
C325 C324 1.434 . S
C326 C327 1.369 . S
C326 C328 1.419 . S
C326 H330 0.930 . S
C327 C326 1.369 . S
C327 C336 1.429 . S
C328 C326 1.419 . S
C328 C329 1.363 . S
C328 H331 0.929 . S
C329 C328 1.363 . S
C329 C335 1.428 . S
H330 C326 0.930 . S
H331 C328 0.929 . S
S332 N333 1.613 . S
S332 N334 1.610 . S
N333 S332 1.613 . S
N333 C336 1.350 . S
N334 S332 1.610 . S
N334 C335 1.351 . S
C335 C329 1.428 . S
C335 N334 1.351 . S
C335 C336 1.434 . S
C336 C327 1.429 . S
C336 N333 1.350 . S
C336 C335 1.434 . S
C337 C338 1.369 . S
C337 C339 1.419 . S
C337 H341 0.930 . S
C338 C337 1.369 . S
C338 C347 1.429 . S
C339 C337 1.419 . S
C339 C340 1.363 . S
C339 H342 0.929 . S
C340 C339 1.363 . S
C340 C346 1.428 . S
H341 C337 0.930 . S
H342 C339 0.929 . S
S343 N344 1.613 . S
S343 N345 1.610 . S
N344 S343 1.613 . S
N344 C347 1.350 . S
N345 S343 1.610 . S
N345 C346 1.351 . S
C346 C340 1.428 . S
C346 N345 1.351 . S
C346 C347 1.434 . S
C347 C338 1.429 . S
C347 N344 1.350 . S
C347 C346 1.434 . S
C348 C349 1.369 . S
C348 C350 1.419 . S
C348 H352 0.930 . S
C349 C348 1.369 . S
C349 C358 1.429 . S
C350 C348 1.419 . S
C350 C351 1.363 . S
C350 H353 0.929 . S
C351 C350 1.363 . S
C351 C357 1.428 . S
H352 C348 0.930 . S
H353 C350 0.929 . S
S354 N355 1.613 . S
S354 N356 1.610 . S
N355 S354 1.613 . S
N355 C358 1.350 . S
N356 S354 1.610 . S
N356 C357 1.351 . S
C357 C351 1.428 . S
C357 N356 1.351 . S
C357 C358 1.434 . S
C358 C349 1.429 . S
C358 N355 1.350 . S
C358 C357 1.434 . S
C359 C360 1.369 . S
C359 C361 1.419 . S
C359 H363 0.930 . S
C360 C359 1.369 . S
C360 C369 1.429 . S
C361 C359 1.419 . S
C361 C362 1.363 . S
C361 H364 0.929 . S
C362 C361 1.363 . S
C362 C368 1.428 . S
H363 C359 0.930 . S
H364 C361 0.929 . S
S365 N366 1.613 . S
S365 N367 1.610 . S
N366 S365 1.613 . S
N366 C369 1.350 . S
N367 S365 1.610 . S
N367 C368 1.351 . S
C368 C362 1.428 . S
C368 N367 1.351 . S
C368 C369 1.434 . S
C369 C360 1.429 . S
C369 N366 1.350 . S
C369 C368 1.434 . S
C370 C371 1.369 . S
C370 C372 1.417 1_545 S
C370 H374 0.930 . S
C371 C370 1.369 . S
C371 C380 1.429 1_455 S
C372 C370 1.417 1_565 S
C372 C373 1.364 . S
C372 H375 0.930 . S
C373 C372 1.364 . S
C373 C379 1.428 1_465 S
H374 C370 0.930 . S
H375 C372 0.930 . S
S376 N377 1.613 . S
S376 N378 1.610 . S
N377 S376 1.613 . S
N377 C380 1.350 . S
N378 S376 1.610 . S
N378 C379 1.351 . S
C379 C373 1.428 1_645 S
C379 N378 1.351 . S
C379 C380 1.434 . S
C380 C371 1.429 1_655 S
C380 N377 1.350 . S
C380 C379 1.434 . S
C381 C382 1.369 . S
C381 C383 1.419 . S
C381 H385 0.930 1_545 S
C382 C381 1.369 . S
C382 C391 1.429 . S
C383 C381 1.419 . S
C383 C384 1.363 . S
C383 H386 0.929 1_545 S
C384 C383 1.363 . S
C384 C390 1.428 . S
H385 C381 0.930 1_565 S
H386 C383 0.929 1_565 S
S387 N388 1.613 . S
S387 N389 1.610 . S
N388 S387 1.613 . S
N388 C391 1.350 1_655 S
N389 S387 1.610 . S
N389 C390 1.351 1_655 S
C390 C384 1.428 . S
C390 N389 1.351 1_455 S
C390 C391 1.434 . S
C391 C382 1.429 . S
C391 N388 1.350 1_455 S
C391 C390 1.434 . S
C392 C393 1.369 . S
C392 C394 1.419 . S
C392 H396 0.930 . S
C393 C392 1.369 . S
C393 C402 1.429 . S
C394 C392 1.419 . S
C394 C395 1.363 . S
C394 H397 0.929 . S
C395 C394 1.363 . S
C395 C401 1.428 . S
H396 C392 0.930 . S
H397 C394 0.929 . S
S398 N399 1.613 . S
S398 N400 1.610 . S
N399 S398 1.613 . S
N399 C402 1.350 . S
N400 S398 1.610 . S
N400 C401 1.351 . S
C401 C395 1.428 . S
C401 N400 1.351 . S
C401 C402 1.434 . S
C402 C393 1.429 . S
C402 N399 1.350 . S
C402 C401 1.434 . S
C403 C404 1.369 . S
C403 C405 1.419 . S
C403 H407 0.930 . S
C404 C403 1.369 . S
C404 C413 1.429 . S
C405 C403 1.419 . S
C405 C406 1.363 . S
C405 H408 0.929 . S
C406 C405 1.363 . S
C406 C412 1.428 . S
H407 C403 0.930 . S
H408 C405 0.929 . S
S409 N410 1.613 . S
S409 N411 1.610 . S
N410 S409 1.613 . S
N410 C413 1.350 . S
N411 S409 1.610 . S
N411 C412 1.351 . S
C412 C406 1.428 . S
C412 N411 1.351 . S
C412 C413 1.434 . S
C413 C404 1.429 . S
C413 N410 1.350 . S
C413 C412 1.434 . S
C285 C253 1.613 . S
C283 C16 1.497 . S
C294 C15 1.617 . S
C296 C193 1.631 . S
C305 C13 1.312 . S
C307 C223 1.470 . S
C316 C14 1.410 . S
C318 C163 1.375 . S
C327 C37 1.505 . S
C329 C133 1.616 . S
C338 C36 1.613 . S
C340 C73 1.633 . S
C351 C103 1.466 . S
C349 C34 1.312 . S
C362 C43 1.373 . S
C360 C35 1.411 . S
C371 C17 1.523 . S
C373 C62 1.521 . S
C382 C18 1.405 . S
C384 C122 1.437 1_455 S
C395 C182 1.527 . S
C393 C38 1.521 . S
C404 C39 1.409 . S
C406 C242 1.433 . S
