# Generated by pormake.
# Topology eea, (3,6)-cn, num edge types: 1
# Building blocks:
#     Node 0, Type 0, BuildingBlock: BELTOD_clean_linker_0, # of connection points: 3
#     Node 1, Type 0, BuildingBlock: BELTOD_clean_linker_0, # of connection points: 3
#     Node 2, Type 0, BuildingBlock: BELTOD_clean_linker_0, # of connection points: 3
#     Node 3, Type 0, BuildingBlock: BELTOD_clean_linker_0, # of connection points: 3
#     Node 4, Type 0, BuildingBlock: BELTOD_clean_linker_0, # of connection points: 3
#     Node 5, Type 0, BuildingBlock: BELTOD_clean_linker_0, # of connection points: 3
#     Node 6, Type 0, BuildingBlock: BELTOD_clean_linker_0, # of connection points: 3
#     Node 7, Type 0, BuildingBlock: BELTOD_clean_linker_0, # of connection points: 3
#     Node 8, Type 0, BuildingBlock: BELTOD_clean_linker_0, # of connection points: 3
#     Node 9, Type 0, BuildingBlock: BELTOD_clean_linker_0, # of connection points: 3
#     Node 10, Type 0, BuildingBlock: BELTOD_clean_linker_0, # of connection points: 3
#     Node 11, Type 0, BuildingBlock: BELTOD_clean_linker_0, # of connection points: 3
#     Node 12, Type 0, BuildingBlock: BELTOD_clean_linker_0, # of connection points: 3
#     Node 13, Type 0, BuildingBlock: BELTOD_clean_linker_0, # of connection points: 3
#     Node 14, Type 0, BuildingBlock: BELTOD_clean_linker_0, # of connection points: 3
#     Node 15, Type 0, BuildingBlock: BELTOD_clean_linker_0, # of connection points: 3
#     Node 16, Type 0, BuildingBlock: BELTOD_clean_linker_0, # of connection points: 3
#     Node 17, Type 0, BuildingBlock: BELTOD_clean_linker_0, # of connection points: 3
#     Node 18, Type 1, BuildingBlock: CUKXOW_clean_sbu_0, # of connection points: 6
#     Node 19, Type 1, BuildingBlock: CUKXOW_clean_sbu_0, # of connection points: 6
#     Node 20, Type 1, BuildingBlock: CUKXOW_clean_sbu_0, # of connection points: 6
#     Node 21, Type 1, BuildingBlock: CUKXOW_clean_sbu_0, # of connection points: 6
#     Node 22, Type 1, BuildingBlock: CUKXOW_clean_sbu_0, # of connection points: 6
#     Node 23, Type 1, BuildingBlock: CUKXOW_clean_sbu_0, # of connection points: 6
#     Node 24, Type 1, BuildingBlock: CUKXOW_clean_sbu_0, # of connection points: 6
#     Node 25, Type 1, BuildingBlock: CUKXOW_clean_sbu_0, # of connection points: 6
#     Node 26, Type 1, BuildingBlock: CUKXOW_clean_sbu_0, # of connection points: 6
#     Edge 27, Type (0, 1), BuildingBlock: AJUNOK_clean_linker_0, # of connection points: 2
#     Edge 28, Type (0, 1), BuildingBlock: AJUNOK_clean_linker_0, # of connection points: 2
#     Edge 29, Type (0, 1), BuildingBlock: AJUNOK_clean_linker_0, # of connection points: 2
#     Edge 30, Type (0, 1), BuildingBlock: AJUNOK_clean_linker_0, # of connection points: 2
#     Edge 31, Type (0, 1), BuildingBlock: AJUNOK_clean_linker_0, # of connection points: 2
#     Edge 32, Type (0, 1), BuildingBlock: AJUNOK_clean_linker_0, # of connection points: 2
#     Edge 33, Type (0, 1), BuildingBlock: AJUNOK_clean_linker_0, # of connection points: 2
#     Edge 34, Type (0, 1), BuildingBlock: AJUNOK_clean_linker_0, # of connection points: 2
#     Edge 35, Type (0, 1), BuildingBlock: AJUNOK_clean_linker_0, # of connection points: 2
#     Edge 36, Type (0, 1), BuildingBlock: AJUNOK_clean_linker_0, # of connection points: 2
#     Edge 37, Type (0, 1), BuildingBlock: AJUNOK_clean_linker_0, # of connection points: 2
#     Edge 38, Type (0, 1), BuildingBlock: AJUNOK_clean_linker_0, # of connection points: 2
#     Edge 39, Type (0, 1), BuildingBlock: AJUNOK_clean_linker_0, # of connection points: 2
#     Edge 40, Type (0, 1), BuildingBlock: AJUNOK_clean_linker_0, # of connection points: 2
#     Edge 41, Type (0, 1), BuildingBlock: AJUNOK_clean_linker_0, # of connection points: 2
#     Edge 42, Type (0, 1), BuildingBlock: AJUNOK_clean_linker_0, # of connection points: 2
#     Edge 43, Type (0, 1), BuildingBlock: AJUNOK_clean_linker_0, # of connection points: 2
#     Edge 44, Type (0, 1), BuildingBlock: AJUNOK_clean_linker_0, # of connection points: 2
#     Edge 45, Type (0, 1), BuildingBlock: AJUNOK_clean_linker_0, # of connection points: 2
#     Edge 46, Type (0, 1), BuildingBlock: AJUNOK_clean_linker_0, # of connection points: 2
#     Edge 47, Type (0, 1), BuildingBlock: AJUNOK_clean_linker_0, # of connection points: 2
#     Edge 48, Type (0, 1), BuildingBlock: AJUNOK_clean_linker_0, # of connection points: 2
#     Edge 49, Type (0, 1), BuildingBlock: AJUNOK_clean_linker_0, # of connection points: 2
#     Edge 50, Type (0, 1), BuildingBlock: AJUNOK_clean_linker_0, # of connection points: 2
#     Edge 51, Type (0, 1), BuildingBlock: AJUNOK_clean_linker_0, # of connection points: 2
#     Edge 52, Type (0, 1), BuildingBlock: AJUNOK_clean_linker_0, # of connection points: 2
#     Edge 53, Type (0, 1), BuildingBlock: AJUNOK_clean_linker_0, # of connection points: 2
#     Edge 54, Type (0, 1), BuildingBlock: AJUNOK_clean_linker_0, # of connection points: 2
#     Edge 55, Type (0, 1), BuildingBlock: AJUNOK_clean_linker_0, # of connection points: 2
#     Edge 56, Type (0, 1), BuildingBlock: AJUNOK_clean_linker_0, # of connection points: 2
#     Edge 57, Type (0, 1), BuildingBlock: AJUNOK_clean_linker_0, # of connection points: 2
#     Edge 58, Type (0, 1), BuildingBlock: AJUNOK_clean_linker_0, # of connection points: 2
#     Edge 59, Type (0, 1), BuildingBlock: AJUNOK_clean_linker_0, # of connection points: 2
#     Edge 60, Type (0, 1), BuildingBlock: AJUNOK_clean_linker_0, # of connection points: 2
#     Edge 61, Type (0, 1), BuildingBlock: AJUNOK_clean_linker_0, # of connection points: 2
#     Edge 62, Type (0, 1), BuildingBlock: AJUNOK_clean_linker_0, # of connection points: 2
#     Edge 63, Type (0, 1), BuildingBlock: AJUNOK_clean_linker_0, # of connection points: 2
#     Edge 64, Type (0, 1), BuildingBlock: AJUNOK_clean_linker_0, # of connection points: 2
#     Edge 65, Type (0, 1), BuildingBlock: AJUNOK_clean_linker_0, # of connection points: 2
#     Edge 66, Type (0, 1), BuildingBlock: AJUNOK_clean_linker_0, # of connection points: 2
#     Edge 67, Type (0, 1), BuildingBlock: AJUNOK_clean_linker_0, # of connection points: 2
#     Edge 68, Type (0, 1), BuildingBlock: AJUNOK_clean_linker_0, # of connection points: 2
#     Edge 69, Type (0, 1), BuildingBlock: AJUNOK_clean_linker_0, # of connection points: 2
#     Edge 70, Type (0, 1), BuildingBlock: AJUNOK_clean_linker_0, # of connection points: 2
#     Edge 71, Type (0, 1), BuildingBlock: AJUNOK_clean_linker_0, # of connection points: 2
#     Edge 72, Type (0, 1), BuildingBlock: AJUNOK_clean_linker_0, # of connection points: 2
#     Edge 73, Type (0, 1), BuildingBlock: AJUNOK_clean_linker_0, # of connection points: 2
#     Edge 74, Type (0, 1), BuildingBlock: AJUNOK_clean_linker_0, # of connection points: 2
#     Edge 75, Type (0, 1), BuildingBlock: AJUNOK_clean_linker_0, # of connection points: 2
#     Edge 76, Type (0, 1), BuildingBlock: AJUNOK_clean_linker_0, # of connection points: 2
#     Edge 77, Type (0, 1), BuildingBlock: AJUNOK_clean_linker_0, # of connection points: 2
#     Edge 78, Type (0, 1), BuildingBlock: AJUNOK_clean_linker_0, # of connection points: 2
#     Edge 79, Type (0, 1), BuildingBlock: AJUNOK_clean_linker_0, # of connection points: 2
#     Edge 80, Type (0, 1), BuildingBlock: AJUNOK_clean_linker_0, # of connection points: 2
# Relax obj value: 0.016
# Max RMSD: 0.121
# Mean RMSD: 0.055
data_MOF--net-eea--node1-CUKXOW_clean_sbu_0--node2-BELTOD_clean_linker_0--edge1-AJUNOK_clean_linker_0
_symmetry_space_group_name_H-M    P1
_symmetry_Int_Tables_number       1
_symmetry_cell_setting            triclinic
loop_
_symmetry_equiv_pos_as_xyz
'x, y, z'
_cell_length_a     49.567081
_cell_length_b     46.21136
_cell_length_c     50.744291
_cell_angle_alpha  93.842825
_cell_angle_beta   93.305874
_cell_angle_gamma 119.98482
loop_
_atom_site_label
_atom_site_type_symbol
_atom_site_fract_x
_atom_site_fract_y
_atom_site_fract_z
_atom_type_partial_charge
P0 P 0.29041 0.15608 0.42197 0.0
H1 H 0.25693 0.11746 0.37141 0.0
H2 H 0.23092 0.0571 0.35626 0.0
H3 H 0.24442 0.03699 0.43625 0.0
H4 H 0.2697 0.09679 0.45148 0.0
H5 H 0.30824 0.20869 0.38686 0.0
H6 H 0.2829 0.2383 0.37048 0.0
H7 H 0.20521 0.18243 0.41581 0.0
H8 H 0.22993 0.15078 0.43076 0.0
H9 H 0.33783 0.14999 0.45279 0.0
H10 H 0.27024 0.18003 0.46868 0.0
O11 O 0.32241 0.16798 0.40627 0.0
H12 H 0.35193 0.15469 0.50035 0.0
H13 H 0.28487 0.18561 0.51637 0.0
C14 C 0.26542 0.1117 0.41251 0.0
C15 C 0.25352 0.09996 0.3858 0.0
C16 C 0.23871 0.0656 0.37717 0.0
C17 C 0.23603 0.04277 0.39514 0.0
C18 C 0.24645 0.05434 0.42209 0.0
C19 C 0.26097 0.08857 0.43074 0.0
C20 C 0.27136 0.17814 0.41062 0.0
C21 C 0.28579 0.2027 0.39338 0.0
C22 C 0.27135 0.21987 0.38416 0.0
C23 C 0.24252 0.21352 0.39255 0.0
C24 C 0.22757 0.18811 0.40921 0.0
C25 C 0.24181 0.17032 0.418 0.0
C26 C 0.30307 0.16475 0.45709 0.0
C27 C 0.32646 0.15828 0.4665 0.0
C28 C 0.33453 0.16099 0.49371 0.0
C29 C 0.31933 0.17024 0.51212 0.0
C30 C 0.29656 0.1778 0.50266 0.0
C31 C 0.28833 0.17483 0.47533 0.0
P32 P 0.88782 0.11443 0.45539 0.0
H33 H 0.89018 0.06034 0.42518 0.0
H34 H 0.85056 0.01031 0.39676 0.0
H35 H 0.78431 0.04449 0.40415 0.0
H36 H 0.82455 0.09527 0.43165 0.0
H37 H 0.94738 0.17262 0.47711 0.0
H38 H 0.99258 0.21329 0.4565 0.0
H39 H 0.94245 0.16693 0.37892 0.0
H40 H 0.89675 0.12796 0.39964 0.0
H41 H 0.83266 0.07669 0.48243 0.0
H42 H 0.90113 0.18116 0.47943 0.0
O43 O 0.90502 0.09841 0.47386 0.0
H44 H 0.81308 0.09227 0.52073 0.0
H45 H 0.88227 0.19646 0.51854 0.0
C46 C 0.85992 0.08085 0.43116 0.0
C47 C 0.86728 0.05732 0.42032 0.0
C48 C 0.84465 0.02878 0.40411 0.0
C49 C 0.81425 0.02331 0.39849 0.0
C50 C 0.80758 0.04813 0.40795 0.0
C51 C 0.83044 0.07694 0.42395 0.0
C52 C 0.91853 0.14756 0.43998 0.0
C53 C 0.94579 0.17196 0.45567 0.0
C54 C 0.97174 0.19492 0.44386 0.0
C55 C 0.97114 0.19349 0.41605 0.0
C56 C 0.9435 0.16937 0.40038 0.0
C57 C 0.91734 0.1468 0.41225 0.0
C58 C 0.8683 0.12772 0.47792 0.0
C59 C 0.84269 0.10308 0.4893 0.0
C60 C 0.83138 0.11194 0.51111 0.0
C61 C 0.84594 0.14553 0.52217 0.0
C62 C 0.87034 0.17048 0.50989 0.0
C63 C 0.88134 0.16164 0.48774 0.0
P64 P 0.86171 0.68989 0.4296 0.0
H65 H 0.83318 0.69081 0.37816 0.0
H66 H 0.80422 0.71804 0.36378 0.0
H67 H 0.81673 0.76331 0.44411 0.0
H68 H 0.84555 0.73571 0.45847 0.0
H69 H 0.91061 0.67261 0.43131 0.0
H70 H 0.96432 0.70107 0.41917 0.0
H71 H 0.95536 0.78597 0.40083 0.0
H72 H 0.90162 0.75739 0.41288 0.0
H73 H 0.80773 0.64763 0.45656 0.0
H74 H 0.90644 0.71612 0.4782 0.0
O75 O 0.84499 0.65241 0.41163 0.0
H76 H 0.80067 0.63738 0.50305 0.0
H77 H 0.89973 0.70511 0.52457 0.0
C78 C 0.84098 0.71075 0.41943 0.0
C79 C 0.82968 0.70657 0.39268 0.0
C80 C 0.8134 0.72239 0.38445 0.0
C81 C 0.80841 0.74296 0.40281 0.0
C82 C 0.82013 0.74745 0.42959 0.0
C83 C 0.83655 0.73169 0.43779 0.0
C84 C 0.90208 0.71276 0.4229 0.0
C85 C 0.92033 0.69749 0.42494 0.0
C86 C 0.95105 0.71385 0.41815 0.0
C87 C 0.96406 0.74582 0.4092 0.0
C88 C 0.94586 0.7613 0.40759 0.0
C89 C 0.91515 0.74497 0.41453 0.0
C90 C 0.85757 0.68246 0.46392 0.0
C91 C 0.82792 0.66024 0.47131 0.0
C92 C 0.82395 0.65427 0.49783 0.0
C93 C 0.84961 0.67052 0.51749 0.0
C94 C 0.87942 0.69261 0.50995 0.0
C95 C 0.88332 0.69873 0.48339 0.0
P96 P 0.14934 0.30237 0.57715 0.0
H97 H 0.13125 0.29624 0.63058 0.0
H98 H 0.08058 0.27073 0.64858 0.0
H99 H 0.03347 0.23876 0.56889 0.0
H100 H 0.08442 0.26463 0.55092 0.0
H101 H 0.21512 0.32228 0.57858 0.0
H102 H 0.2445 0.29502 0.59194 0.0
H103 H 0.15837 0.20743 0.60647 0.0
H104 H 0.12908 0.23475 0.59309 0.0
H105 H 0.14476 0.35126 0.54651 0.0
H106 H 0.1499 0.26142 0.53046 0.0
O107 O 0.16993 0.34118 0.59295 0.0
H108 H 0.15104 0.36182 0.49992 0.0
H109 H 0.1559 0.27171 0.48382 0.0
C110 C 0.11153 0.28257 0.58947 0.0
C111 C 0.11 0.28364 0.61698 0.0
C112 C 0.08107 0.2688 0.62724 0.0
C113 C 0.05311 0.25248 0.61013 0.0
C114 C 0.05471 0.25121 0.58251 0.0
C115 C 0.08375 0.26599 0.57223 0.0
C116 C 0.17005 0.28082 0.5853 0.0
C117 C 0.20255 0.29713 0.5845 0.0
C118 C 0.21927 0.28145 0.59193 0.0
C119 C 0.20367 0.24909 0.60018 0.0
C120 C 0.17096 0.23247 0.60035 0.0
C121 C 0.15424 0.24811 0.59274 0.0
C122 C 0.14774 0.3061 0.54204 0.0
C123 C 0.14675 0.33354 0.53287 0.0
C124 C 0.15017 0.33946 0.50625 0.0
C125 C 0.15462 0.31796 0.48845 0.0
C126 C 0.1532 0.28907 0.4973 0.0
C127 C 0.14973 0.28315 0.52391 0.0
P128 P 0.80127 0.88949 0.55953 0.0
H129 H 0.84451 0.96164 0.56212 0.0
H130 H 0.84792 0.00992 0.58811 0.0
H131 H 0.76333 0.94377 0.62229 0.0
H132 H 0.75951 0.89543 0.59539 0.0
H133 H 0.77441 0.8166 0.54864 0.0
H134 H 0.77269 0.77465 0.57659 0.0
H135 H 0.81055 0.84952 0.64482 0.0
H136 H 0.8129 0.8914 0.61684 0.0
H137 H 0.81035 0.91174 0.5071 0.0
H138 H 0.73361 0.84108 0.54702 0.0
O139 O 0.83695 0.90156 0.55057 0.0
H140 H 0.77492 0.89744 0.4667 0.0
H141 H 0.69784 0.82651 0.50634 0.0
C142 C 0.80214 0.92497 0.57732 0.0
C143 C 0.8266 0.95749 0.57509 0.0
C144 C 0.82859 0.98505 0.59004 0.0
C145 C 0.80606 0.9806 0.60744 0.0
C146 C 0.78089 0.94801 0.60892 0.0
C147 C 0.7788 0.9204 0.59373 0.0
C148 C 0.79278 0.8569 0.58076 0.0
C149 C 0.78125 0.82368 0.56978 0.0
C150 C 0.78022 0.79971 0.58578 0.0
C151 C 0.79109 0.80876 0.61296 0.0
C152 C 0.80178 0.84181 0.624 0.0
C153 C 0.80285 0.8657 0.608 0.0
C154 C 0.77474 0.87678 0.52978 0.0
C155 C 0.78592 0.89277 0.50705 0.0
C156 C 0.76566 0.88475 0.48403 0.0
C157 C 0.73376 0.86062 0.48335 0.0
C158 C 0.72247 0.84472 0.50623 0.0
C159 C 0.74282 0.85302 0.52942 0.0
P160 P 0.14815 0.83833 0.59385 0.0
H161 H 0.17723 0.87326 0.64657 0.0
H162 H 0.20789 0.93295 0.66365 0.0
H163 H 0.19733 0.95955 0.58528 0.0
H164 H 0.16612 0.89994 0.5685 0.0
H165 H 0.10032 0.76949 0.59925 0.0
H166 H 0.04748 0.74471 0.61321 0.0
H167 H 0.05476 0.84205 0.61789 0.0
H168 H 0.10771 0.86678 0.60419 0.0
H169 H 0.20092 0.84881 0.56572 0.0
H170 H 0.10373 0.81711 0.54536 0.0
O171 O 0.16409 0.81906 0.60966 0.0
H172 H 0.20802 0.84481 0.51861 0.0
H173 H 0.11047 0.8122 0.49808 0.0
C174 C 0.17 0.88225 0.6062 0.0
C175 C 0.18148 0.89198 0.63311 0.0
C176 C 0.19894 0.92603 0.64284 0.0
C177 C 0.2049 0.95089 0.62583 0.0
C178 C 0.1927 0.94097 0.59896 0.0
C179 C 0.17518 0.9069 0.58928 0.0
C180 C 0.10815 0.82004 0.60125 0.0
C181 C 0.09049 0.78547 0.60319 0.0
C182 C 0.06031 0.77134 0.61109 0.0
C183 C 0.04728 0.79159 0.61714 0.0
C184 C 0.06454 0.82602 0.61402 0.0
C185 C 0.09473 0.84012 0.60605 0.0
C186 C 0.1518 0.83303 0.559 0.0
C187 C 0.18101 0.84058 0.55107 0.0
C188 C 0.185 0.83818 0.52416 0.0
C189 C 0.15984 0.82829 0.50462 0.0
C190 C 0.1304 0.82034 0.51266 0.0
C191 C 0.12646 0.82288 0.53968 0.0
P192 P 0.94851 0.48506 0.76201 0.0
H193 H 0.93908 0.45484 0.70784 0.0
H194 H 0.91358 0.39633 0.68805 0.0
H195 H 0.88106 0.36282 0.76344 0.0
H196 H 0.90564 0.42142 0.78293 0.0
H197 H 0.96358 0.5307 0.72159 0.0
H198 H 0.93816 0.55883 0.70255 0.0
H199 H 0.86772 0.51827 0.75724 0.0
H200 H 0.89256 0.48817 0.77531 0.0
H201 H 0.97932 0.45681 0.79111 0.0
H202 H 0.93633 0.5157 0.8105 0.0
O203 O 0.98337 0.50077 0.75029 0.0
H204 H 0.99235 0.45702 0.83808 0.0
H205 H 0.94818 0.51472 0.85804 0.0
C206 C 0.92511 0.44236 0.747 0.0
C207 C 0.92606 0.43491 0.72 0.0
C208 C 0.91159 0.40154 0.70875 0.0
C209 C 0.89611 0.37515 0.72444 0.0
C210 C 0.89306 0.38273 0.75099 0.0
C211 C 0.90736 0.41619 0.76218 0.0
C212 C 0.93068 0.50833 0.75062 0.0
C213 C 0.94287 0.52802 0.7298 0.0
C214 C 0.92821 0.5441 0.71881 0.0
C215 C 0.90096 0.541 0.7284 0.0
C216 C 0.88846 0.52088 0.74914 0.0
C217 C 0.90299 0.50424 0.75989 0.0
C218 C 0.95636 0.48569 0.79725 0.0
C219 C 0.97223 0.46938 0.80555 0.0
C220 C 0.9794 0.46921 0.83246 0.0
C221 C 0.97052 0.48507 0.85183 0.0
C222 C 0.955 0.50196 0.84354 0.0
C223 C 0.948 0.50233 0.81637 0.0
P224 P 0.54651 0.45457 0.77834 0.0
H225 H 0.55189 0.42441 0.7284 0.0
H226 H 0.51446 0.37514 0.69823 0.0
H227 H 0.43997 0.36404 0.74441 0.0
H228 H 0.4771 0.41474 0.77341 0.0
H229 H 0.61093 0.50393 0.79765 0.0
H230 H 0.65497 0.5433 0.77509 0.0
H231 H 0.59205 0.52184 0.70465 0.0
H232 H 0.5479 0.48263 0.72742 0.0
H233 H 0.50844 0.41644 0.81798 0.0
H234 H 0.54979 0.51838 0.7983 0.0
O235 O 0.56444 0.43592 0.79197 0.0
H236 H 0.49302 0.43227 0.85879 0.0
H237 H 0.53452 0.53449 0.83973 0.0
C238 C 0.51741 0.42332 0.75323 0.0
C239 C 0.52734 0.41206 0.73154 0.0
C240 C 0.50598 0.38361 0.71451 0.0
C241 C 0.47444 0.36517 0.7194 0.0
C242 C 0.46416 0.37767 0.74017 0.0
C243 C 0.48549 0.40658 0.75693 0.0
C244 C 0.57635 0.48975 0.76397 0.0
C245 C 0.60649 0.50825 0.77755 0.0
C246 C 0.63162 0.53071 0.76466 0.0
C247 C 0.62695 0.53493 0.73795 0.0
C248 C 0.59631 0.51839 0.72506 0.0
C249 C 0.57111 0.49612 0.73809 0.0
C250 C 0.53027 0.46619 0.80514 0.0
C251 C 0.51355 0.44209 0.82214 0.0
C252 C 0.50475 0.45113 0.84544 0.0
C253 C 0.51262 0.48456 0.85232 0.0
C254 C 0.52792 0.50849 0.83465 0.0
C255 C 0.53676 0.49933 0.81111 0.0
P256 P 0.53715 0.03652 0.77172 0.0
H257 H 0.50088 0.02391 0.7205 0.0
H258 H 0.4693 0.04657 0.70266 0.0
H259 H 0.49431 0.11272 0.77535 0.0
H260 H 0.52525 0.08913 0.79342 0.0
H261 H 0.58949 0.02539 0.78129 0.0
H262 H 0.64249 0.05297 0.76767 0.0
H263 H 0.6275 0.12907 0.73646 0.0
H264 H 0.57438 0.10109 0.7497 0.0
H265 H 0.48044 0.99398 0.79479 0.0
H266 H 0.5773 0.06285 0.82339 0.0
O267 O 0.52363 0.99882 0.75484 0.0
H268 H 0.46851 0.98141 0.84005 0.0
H269 H 0.56534 0.0505 0.86914 0.0
C270 C 0.5148 0.05431 0.7585 0.0
C271 C 0.4994 0.04311 0.7327 0.0
C272 C 0.48152 0.05625 0.72245 0.0
C273 C 0.47888 0.08106 0.73774 0.0
C274 C 0.49518 0.09299 0.76335 0.0
C275 C 0.513 0.07969 0.77364 0.0
C276 C 0.57799 0.06119 0.76667 0.0
C277 C 0.59787 0.04844 0.77207 0.0
C278 C 0.62821 0.06432 0.76435 0.0
C279 C 0.63925 0.09332 0.75109 0.0
C280 C 0.6196 0.1067 0.74654 0.0
C281 C 0.58925 0.09078 0.75428 0.0
C282 C 0.5297 0.02927 0.80571 0.0
C283 C 0.49912 0.00656 0.81089 0.0
C284 C 0.4923 0.99954 0.83678 0.0
C285 C 0.51592 0.01529 0.85817 0.0
C286 C 0.5467 0.03802 0.853 0.0
C287 C 0.55352 0.04513 0.82691 0.0
P288 P 0.81659 0.64409 0.91768 0.0
H289 H 0.79295 0.64787 0.96823 0.0
H290 H 0.74076 0.61864 0.98339 0.0
H291 H 0.70272 0.56267 0.90585 0.0
H292 H 0.75517 0.59194 0.89073 0.0
H293 H 0.86941 0.64325 0.8952 0.0
H294 H 0.89867 0.61538 0.90581 0.0
H295 H 0.84312 0.57444 0.97073 0.0
H296 H 0.81203 0.59987 0.95841 0.0
H297 H 0.81584 0.69644 0.88878 0.0
H298 H 0.81254 0.60235 0.86967 0.0
O299 O 0.83637 0.6823 0.93458 0.0
H300 H 0.81793 0.70584 0.84183 0.0
H301 H 0.81734 0.61279 0.82335 0.0
C302 C 0.77784 0.62247 0.92825 0.0
C303 C 0.7734 0.62935 0.95445 0.0
C304 C 0.74365 0.61242 0.96318 0.0
C305 C 0.71779 0.58824 0.94583 0.0
C306 C 0.7223 0.58125 0.91958 0.0
C307 C 0.7522 0.59801 0.91094 0.0
C308 C 0.83771 0.62272 0.92535 0.0
C309 C 0.86293 0.62756 0.91128 0.0
C310 C 0.88016 0.61216 0.91777 0.0
C311 C 0.8736 0.59299 0.9394 0.0
C312 C 0.84859 0.58865 0.95374 0.0
C313 C 0.83082 0.60334 0.94675 0.0
C314 C 0.81491 0.64915 0.88279 0.0
C315 C 0.81565 0.67784 0.87449 0.0
C316 C 0.81702 0.68327 0.84767 0.0
C317 C 0.81777 0.6601 0.82869 0.0
C318 C 0.81599 0.63082 0.83713 0.0
C319 C 0.81382 0.62506 0.8638 0.0
P320 P 0.4521 0.21237 0.89575 0.0
H321 H 0.50396 0.28154 0.90525 0.0
H322 H 0.51208 0.33084 0.93278 0.0
H323 H 0.4216 0.27191 0.96117 0.0
H324 H 0.41304 0.22237 0.93247 0.0
H325 H 0.4363 0.14441 0.87733 0.0
H326 H 0.43893 0.10082 0.90011 0.0
H327 H 0.45832 0.16028 0.97543 0.0
H328 H 0.45519 0.20363 0.95274 0.0
H329 H 0.45099 0.25238 0.85516 0.0
H330 H 0.38942 0.15308 0.87662 0.0
O331 O 0.4853 0.22308 0.88222 0.0
H332 H 0.41752 0.23911 0.81375 0.0
H333 H 0.35632 0.13924 0.83453 0.0
C334 C 0.45809 0.24815 0.91718 0.0
C335 C 0.48592 0.27896 0.91755 0.0
C336 C 0.49071 0.30716 0.93356 0.0
C337 C 0.46787 0.30506 0.94975 0.0
C338 C 0.43975 0.27417 0.94911 0.0
C339 C 0.43485 0.24592 0.93281 0.0
C340 C 0.4448 0.17699 0.91329 0.0
C341 C 0.43975 0.14748 0.89883 0.0
C342 C 0.44155 0.12274 0.91181 0.0
C343 C 0.44907 0.12746 0.93945 0.0
C344 C 0.45222 0.156 0.95412 0.0
C345 C 0.45036 0.18078 0.9411 0.0
C346 C 0.42312 0.20351 0.86863 0.0
C347 C 0.43 0.22786 0.85112 0.0
C348 C 0.41094 0.22023 0.82745 0.0
C349 C 0.38462 0.18801 0.82081 0.0
C350 C 0.37646 0.16428 0.83922 0.0
C351 C 0.39557 0.17208 0.86312 0.0
P352 P 0.81127 0.18228 0.91674 0.0
H353 H 0.87762 0.22624 0.93321 0.0
H354 H 0.90919 0.28583 0.94989 0.0
H355 H 0.82638 0.29461 0.94323 0.0
H356 H 0.79483 0.23483 0.92619 0.0
H357 H 0.74925 0.1515 0.88546 0.0
H358 H 0.69604 0.12454 0.8988 0.0
H359 H 0.73396 0.1459 0.98118 0.0
H360 H 0.78699 0.17363 0.96777 0.0
H361 H 0.82402 0.13813 0.88238 0.0
H362 H 0.80343 0.21754 0.87375 0.0
O363 O 0.8274 0.16246 0.93141 0.0
H364 H 0.83391 0.13754 0.8358 0.0
H365 H 0.8127 0.21656 0.82682 0.0
C366 C 0.83385 0.22605 0.92913 0.0
C367 C 0.86622 0.24093 0.93546 0.0
C368 C 0.88421 0.27493 0.94493 0.0
C369 C 0.87017 0.29473 0.94793 0.0
C370 C 0.83779 0.27995 0.94093 0.0
C371 C 0.81975 0.24579 0.93147 0.0
C372 C 0.77198 0.16428 0.92568 0.0
C373 C 0.74611 0.1506 0.90638 0.0
C374 C 0.71571 0.135 0.91401 0.0
C375 C 0.71085 0.13269 0.94103 0.0
C376 C 0.73696 0.14738 0.96024 0.0
C377 C 0.76723 0.16305 0.95261 0.0
C378 C 0.81362 0.17835 0.88159 0.0
C379 C 0.82127 0.15518 0.87039 0.0
C380 C 0.8268 0.15476 0.84374 0.0
C381 C 0.8247 0.17749 0.82789 0.0
C382 C 0.81528 0.19939 0.83881 0.0
C383 C 0.8098 0.19982 0.86551 0.0
P384 P 0.61408 0.81356 0.09563 0.0
H385 H 0.63873 0.7737 0.07128 0.0
H386 H 0.61388 0.71518 0.05191 0.0
H387 H 0.52365 0.70003 0.06927 0.0
H388 H 0.54895 0.75825 0.08977 0.0
H389 H 0.60897 0.8702 0.1198 0.0
H390 H 0.58317 0.89991 0.10307 0.0
H391 H 0.54563 0.82978 0.03198 0.0
H392 H 0.57132 0.80032 0.04853 0.0
H393 H 0.66326 0.81033 0.12627 0.0
H394 H 0.58151 0.81627 0.14222 0.0
O395 O 0.6483 0.83526 0.08324 0.0
H396 H 0.67443 0.80902 0.17365 0.0
H397 H 0.59343 0.8162 0.19002 0.0
C398 C 0.59556 0.77042 0.08144 0.0
C399 C 0.6136 0.75779 0.07091 0.0
C400 C 0.59935 0.72437 0.05974 0.0
C401 C 0.56679 0.70295 0.05901 0.0
C402 C 0.54883 0.7157 0.06987 0.0
C403 C 0.5632 0.74904 0.08136 0.0
C404 C 0.59107 0.83216 0.08595 0.0
C405 C 0.59434 0.86053 0.10103 0.0
C406 C 0.57974 0.87758 0.09144 0.0
C407 C 0.56242 0.86701 0.0663 0.0
C408 C 0.55885 0.83838 0.05143 0.0
C409 C 0.57329 0.82133 0.06105 0.0
C410 C 0.62216 0.81449 0.13083 0.0
C411 C 0.648 0.81191 0.14002 0.0
C412 C 0.65432 0.81103 0.16701 0.0
C413 C 0.63491 0.81281 0.1853 0.0
C414 C 0.60886 0.81519 0.17618 0.0
C415 C 0.6022 0.81543 0.14898 0.0
P416 P 0.22194 0.78374 0.13044 0.0
H417 H 0.22598 0.73288 0.09782 0.0
H418 H 0.1873 0.68322 0.06868 0.0
H419 H 0.11833 0.71294 0.07899 0.0
H420 H 0.15798 0.76414 0.10662 0.0
H421 H 0.28181 0.78865 0.12377 0.0
H422 H 0.32556 0.82461 0.09964 0.0
H423 H 0.27823 0.87742 0.07648 0.0
H424 H 0.23394 0.84094 0.1008 0.0
H425 H 0.16283 0.75617 0.15374 0.0
H426 H 0.24729 0.85251 0.15585 0.0
O427 O 0.23431 0.76515 0.15108 0.0
H428 H 0.14715 0.77765 0.19142 0.0
H429 H 0.23194 0.87357 0.19428 0.0
C430 C 0.1944 0.75129 0.10537 0.0
C431 C 0.20269 0.72904 0.09347 0.0
C432 C 0.18054 0.70059 0.07697 0.0
C433 C 0.1495 0.69357 0.07254 0.0
C434 C 0.14197 0.71748 0.08249 0.0
C435 C 0.16448 0.74647 0.0986 0.0
C436 C 0.25494 0.81263 0.1145 0.0
C437 C 0.28086 0.80817 0.1138 0.0
C438 C 0.30574 0.82849 0.09982 0.0
C439 C 0.30505 0.85351 0.08611 0.0
C440 C 0.27923 0.85828 0.087 0.0
C441 C 0.25408 0.83762 0.10088 0.0
C442 C 0.20567 0.80307 0.15113 0.0
C443 C 0.17709 0.78252 0.16115 0.0
C444 C 0.16812 0.79475 0.18279 0.0
C445 C 0.18804 0.82741 0.19522 0.0
C446 C 0.21582 0.84863 0.18441 0.0
C447 C 0.22459 0.83652 0.16247 0.0
P448 P 0.19575 0.36038 0.10067 0.0
H449 H 0.14967 0.34405 0.05512 0.0
H450 H 0.11995 0.37033 0.04045 0.0
H451 H 0.16915 0.4503 0.1044 0.0
H452 H 0.19843 0.42337 0.11962 0.0
H453 H 0.23438 0.33179 0.08669 0.0
H454 H 0.28576 0.35538 0.0701 0.0
H455 H 0.29663 0.45426 0.07979 0.0
H456 H 0.24507 0.43056 0.09643 0.0
H457 H 0.14091 0.329 0.12851 0.0
H458 H 0.2409 0.38424 0.14937 0.0
O459 O 0.17645 0.32101 0.0858 0.0
H460 H 0.1327 0.32125 0.17497 0.0
H461 H 0.23277 0.3772 0.1965 0.0
C462 C 0.17624 0.38173 0.08851 0.0
C463 C 0.15424 0.36728 0.066 0.0
C464 C 0.13722 0.38224 0.05762 0.0
C465 C 0.14233 0.41224 0.07133 0.0
C466 C 0.16499 0.42725 0.09344 0.0
C467 C 0.18169 0.41194 0.10209 0.0
C468 C 0.23552 0.37926 0.09224 0.0
C469 C 0.24781 0.35858 0.08539 0.0
C470 C 0.27711 0.37202 0.07579 0.0
C471 C 0.29482 0.4065 0.0731 0.0
C472 C 0.2833 0.42754 0.08146 0.0
C473 C 0.25382 0.41399 0.09093 0.0
C474 C 0.19144 0.35726 0.13553 0.0
C475 C 0.16113 0.33983 0.14321 0.0
C476 C 0.15647 0.33565 0.16983 0.0
C477 C 0.18208 0.34915 0.18949 0.0
C478 C 0.2126 0.36664 0.18177 0.0
C479 C 0.21726 0.37077 0.15491 0.0
P480 P 0.47928 0.96867 0.24677 0.0
H481 H 0.45808 0.99032 0.29249 0.0
H482 H 0.40806 0.96642 0.31132 0.0
H483 H 0.36709 0.88436 0.24848 0.0
H484 H 0.41739 0.90898 0.22906 0.0
H485 H 0.54479 0.98741 0.25204 0.0
H486 H 0.57223 0.95847 0.26606 0.0
H487 H 0.48349 0.86969 0.27313 0.0
H488 H 0.45621 0.89901 0.25978 0.0
H489 H 0.4792 0.01942 0.21583 0.0
H490 H 0.47717 0.92547 0.20021 0.0
O491 O 0.50188 0.00775 0.26173 0.0
H492 H 0.48679 0.02963 0.16954 0.0
H493 H 0.4839 0.93507 0.15347 0.0
C494 C 0.44143 0.95161 0.25918 0.0
C495 C 0.43835 0.96743 0.28245 0.0
C496 C 0.40977 0.95373 0.29329 0.0
C497 C 0.38386 0.92353 0.28142 0.0
C498 C 0.38686 0.90758 0.25809 0.0
C499 C 0.41543 0.92169 0.24693 0.0
C500 C 0.49852 0.94572 0.25547 0.0
C501 C 0.53123 0.96174 0.25669 0.0
C502 C 0.54688 0.94511 0.26453 0.0
C503 C 0.53005 0.91199 0.27114 0.0
C504 C 0.49713 0.8955 0.26884 0.0
C505 C 0.48149 0.91224 0.26107 0.0
C506 C 0.47804 0.97193 0.21155 0.0
C507 C 0.47964 0.00058 0.20226 0.0
C508 C 0.48376 0.00628 0.17568 0.0
C509 C 0.48588 0.98312 0.15774 0.0
C510 C 0.4826 0.95351 0.16685 0.0
C511 C 0.47861 0.94791 0.19353 0.0
P512 P 0.12366 0.55339 0.23095 0.0
H513 H 0.16322 0.59555 0.27827 0.0
H514 H 0.16605 0.64337 0.3049 0.0
H515 H 0.08375 0.62843 0.25797 0.0
H516 H 0.08089 0.5805 0.23141 0.0
H517 H 0.12257 0.49242 0.21203 0.0
H518 H 0.12323 0.44811 0.23535 0.0
H519 H 0.10717 0.48894 0.30779 0.0
H520 H 0.10615 0.53311 0.28437 0.0
H521 H 0.13417 0.58947 0.18467 0.0
H522 H 0.06093 0.49763 0.20931 0.0
O523 O 0.16069 0.56991 0.22402 0.0
H524 H 0.10308 0.57852 0.14237 0.0
H525 H 0.02934 0.48656 0.16675 0.0
C526 C 0.12217 0.58487 0.25266 0.0
C527 C 0.14551 0.60226 0.27397 0.0
C528 C 0.14702 0.62941 0.28924 0.0
C529 C 0.12532 0.63972 0.28325 0.0
C530 C 0.10097 0.62116 0.26273 0.0
C531 C 0.09934 0.59381 0.24757 0.0
C532 C 0.11464 0.5162 0.2465 0.0
C533 C 0.11814 0.49122 0.23271 0.0
C534 C 0.11854 0.46597 0.24601 0.0
C535 C 0.1154 0.46537 0.27333 0.0
C536 C 0.10936 0.48879 0.28667 0.0
C537 C 0.10903 0.51417 0.27331 0.0
C538 C 0.10003 0.54414 0.19991 0.0
C539 C 0.11138 0.56685 0.18089 0.0
C540 C 0.0935 0.56064 0.15675 0.0
C541 C 0.0637 0.53173 0.15124 0.0
C542 C 0.05231 0.50893 0.17039 0.0
C543 C 0.07028 0.51525 0.19469 0.0
P544 P 0.47888 0.51139 0.24837 0.0
H545 H 0.5393 0.54942 0.28083 0.0
H546 H 0.56962 0.60765 0.30095 0.0
H547 H 0.4964 0.62525 0.2707 0.0
H548 H 0.46673 0.56728 0.24969 0.0
H549 H 0.44866 0.4689 0.28946 0.0
H550 H 0.39663 0.44612 0.30458 0.0
H551 H 0.37064 0.49083 0.24345 0.0
H552 H 0.42312 0.51441 0.22863 0.0
H553 H 0.53332 0.54449 0.22006 0.0
H554 H 0.43387 0.47912 0.19965 0.0
O555 O 0.49501 0.48977 0.25962 0.0
H556 H 0.54126 0.54453 0.17321 0.0
H557 H 0.44121 0.48194 0.15265 0.0
C558 C 0.50042 0.55378 0.2643 0.0
C559 C 0.52958 0.56565 0.27876 0.0
C560 C 0.5468 0.59889 0.29042 0.0
C561 C 0.53501 0.62077 0.28793 0.0
C562 C 0.50593 0.60887 0.27312 0.0
C563 C 0.48885 0.57567 0.26128 0.0
C564 C 0.43947 0.49244 0.25737 0.0
C565 C 0.43174 0.47353 0.27904 0.0
C566 C 0.40215 0.46077 0.28783 0.0
C567 C 0.37987 0.46683 0.2751 0.0
C568 C 0.38751 0.48573 0.25339 0.0
C569 C 0.41735 0.49894 0.24484 0.0
C570 C 0.48296 0.51262 0.21342 0.0
C571 C 0.51307 0.53082 0.20546 0.0
C572 C 0.51755 0.53098 0.1786 0.0
C573 C 0.4919 0.51322 0.15903 0.0
C574 C 0.4616 0.49531 0.16711 0.0
C575 C 0.45726 0.49435 0.19411 0.0
Tb576 Tb 0.53706 0.02045 0.00319 0.0
C577 C 0.51876 0.95137 0.02287 0.0
Tb578 Tb 0.46808 0.97388 0.01259 0.0
O579 O 0.55168 0.02604 0.04576 0.0
O580 O 0.50738 0.01734 0.03266 0.0
O581 O 0.53841 0.97536 0.00927 0.0
C582 C 0.41446 0.9357 0.03292 0.0
O583 O 0.49194 0.94869 0.02909 0.0
C584 C 0.47968 0.97476 0.96273 0.0
C585 C 0.48639 0.04237 0.99095 0.0
O586 O 0.42558 0.92546 0.01426 0.0
O587 O 0.43357 0.96745 0.04008 0.0
O588 O 0.45245 0.96686 0.97026 0.0
O589 O 0.49743 0.97753 0.98278 0.0
O590 O 0.46592 0.01839 0.00424 0.0
O591 O 0.51401 0.04585 0.98684 0.0
C592 C 0.59012 0.05699 0.98152 0.0
O593 O 0.58125 0.06759 0.00176 0.0
O594 O 0.56928 0.02591 0.97383 0.0
C595 C 0.52466 0.01979 0.05288 0.0
Tb596 Tb 0.98277 0.51257 0.99836 0.0
C597 C 0.05174 0.56164 0.02324 0.0
Tb598 Tb 0.02555 0.48326 0.01143 0.0
O599 O 0.98406 0.52865 0.04014 0.0
O600 O 0.99078 0.48873 0.02962 0.0
O601 O 0.02773 0.55902 0.00799 0.0
C602 C 0.06402 0.46443 0.03317 0.0
O603 O 0.05355 0.53509 0.02908 0.0
C604 C 0.01522 0.48809 0.96098 0.0
C605 C 0.95594 0.43361 0.99007 0.0
O606 O 0.07155 0.48725 0.01698 0.0
O607 O 0.03478 0.45211 0.037 0.0
O608 O 0.02189 0.46622 0.96929 0.0
O609 O 0.01801 0.50789 0.98054 0.0
O610 O 0.98037 0.43763 0.00549 0.0
O611 O 0.95385 0.45942 0.98226 0.0
C612 C 0.94748 0.53422 0.97514 0.0
O613 O 0.93836 0.51194 0.99193 0.0
O614 O 0.97627 0.54389 0.97119 0.0
C615 C 0.99236 0.50823 0.04902 0.0
Tb616 Tb 0.46879 0.48647 0.00741 0.0
C617 C 0.49211 0.43426 0.99686 0.0
Tb618 Tb 0.54007 0.51336 0.00267 0.0
O619 O 0.46414 0.50374 0.96846 0.0
O620 O 0.49803 0.49165 0.97774 0.0
O621 O 0.46877 0.43905 0.00315 0.0
C622 C 0.59487 0.53189 0.98384 0.0
O623 O 0.52102 0.45921 0.99462 0.0
C624 C 0.52396 0.51348 0.05083 0.0
C625 C 0.51689 0.56424 0.0147 0.0
O626 O 0.58547 0.51583 0.00463 0.0
O627 O 0.57335 0.53738 0.97377 0.0
O628 O 0.55181 0.53411 0.04462 0.0
O629 O 0.50816 0.49252 0.0311 0.0
O630 O 0.53686 0.55872 0.00202 0.0
O631 O 0.4902 0.53957 0.02129 0.0
C632 C 0.41322 0.46103 0.02663 0.0
O633 O 0.43985 0.48408 0.03909 0.0
O634 O 0.41786 0.45238 0.00313 0.0
C635 C 0.48876 0.50381 0.9606 0.0
Tb636 Tb 0.20558 0.36245 0.3353 0.0
C637 C 0.19088 0.29311 0.3533 0.0
Tb638 Tb 0.13766 0.31276 0.34501 0.0
O639 O 0.2206 0.36877 0.37754 0.0
O640 O 0.17531 0.35762 0.36494 0.0
O641 O 0.21038 0.31944 0.34155 0.0
C642 C 0.0849 0.27454 0.36674 0.0
O643 O 0.16178 0.28572 0.35698 0.0
C644 C 0.14991 0.31265 0.29536 0.0
C645 C 0.15364 0.38234 0.32668 0.0
O646 O 0.11306 0.28629 0.37806 0.0
O647 O 0.08649 0.2838 0.34307 0.0
O648 O 0.12217 0.30287 0.3024 0.0
O649 O 0.16786 0.3174 0.31577 0.0
O650 O 0.13568 0.35864 0.34148 0.0
O651 O 0.18052 0.38602 0.31993 0.0
C652 C 0.25851 0.40169 0.31457 0.0
O653 O 0.25138 0.40827 0.33755 0.0
O654 O 0.23571 0.37316 0.30321 0.0
C655 C 0.19328 0.36072 0.38493 0.0
Tb656 Tb 0.64402 0.83892 0.33393 0.0
C657 C 0.71425 0.89064 0.3532 0.0
Tb658 Tb 0.68883 0.81195 0.34551 0.0
O659 O 0.65043 0.85825 0.37579 0.0
O660 O 0.65428 0.81635 0.36491 0.0
O661 O 0.68852 0.88622 0.33956 0.0
C662 C 0.7299 0.79549 0.3655 0.0
O663 O 0.71763 0.86519 0.35976 0.0
C664 C 0.67427 0.81331 0.29528 0.0
C665 C 0.61866 0.76008 0.32861 0.0
O666 O 0.70459 0.7902 0.37565 0.0
O667 O 0.73206 0.81012 0.34413 0.0
O668 O 0.68144 0.79188 0.30378 0.0
O669 O 0.67846 0.83446 0.31438 0.0
O670 O 0.64457 0.76537 0.34238 0.0
O671 O 0.61495 0.78485 0.32059 0.0
C672 C 0.60423 0.85617 0.31241 0.0
O673 O 0.60126 0.84189 0.33408 0.0
O674 O 0.62956 0.86056 0.30282 0.0
C675 C 0.65758 0.83677 0.38426 0.0
Tb676 Tb 0.14203 0.82714 0.35093 0.0
C677 C 0.15745 0.76925 0.33598 0.0
Tb678 Tb 0.21097 0.84548 0.34837 0.0
O679 O 0.13936 0.84267 0.31116 0.0
O680 O 0.17035 0.82668 0.32167 0.0
O681 O 0.13678 0.77686 0.34489 0.0
C682 C 0.26784 0.87123 0.33118 0.0
O683 O 0.18639 0.79256 0.33232 0.0
C684 C 0.19033 0.83324 0.39527 0.0
C685 C 0.19429 0.90353 0.35981 0.0
O686 O 0.25513 0.84567 0.34486 0.0
O687 O 0.24868 0.88235 0.32757 0.0
O688 O 0.21381 0.8304 0.38821 0.0
O689 O 0.18302 0.84663 0.37765 0.0
O690 O 0.21499 0.89504 0.35251 0.0
O691 O 0.16486 0.881 0.36285 0.0
C692 C 0.08653 0.80332 0.37001 0.0
O693 O 0.09378 0.8175 0.34819 0.0
O694 O 0.11037 0.80226 0.38071 0.0
C695 C 0.16299 0.84008 0.30408 0.0
Tb696 Tb 0.86815 0.69452 0.67369 0.0
C697 C 0.85068 0.61989 0.68406 0.0
Tb698 Tb 0.79903 0.6401 0.67274 0.0
O699 O 0.86946 0.71541 0.71433 0.0
O700 O 0.8384 0.66533 0.70122 0.0
O701 O 0.87186 0.64959 0.67725 0.0
C702 C 0.74144 0.60819 0.68812 0.0
O703 O 0.82114 0.6119 0.6862 0.0
C704 C 0.82191 0.64669 0.62661 0.0
C705 C 0.81738 0.71565 0.66353 0.0
O706 O 0.75164 0.59605 0.6699 0.0
O707 O 0.76362 0.63815 0.69742 0.0
O708 O 0.79814 0.61894 0.63235 0.0
O709 O 0.82861 0.66925 0.64524 0.0
O710 O 0.79543 0.68527 0.66859 0.0
O711 O 0.84706 0.72391 0.66248 0.0
C712 C 0.92498 0.72737 0.6569 0.0
O713 O 0.91646 0.73711 0.67788 0.0
O714 O 0.90162 0.69914 0.64571 0.0
C715 C 0.84542 0.68783 0.71998 0.0
Tb716 Tb 0.3127 0.17046 0.66373 0.0
C717 C 0.38518 0.22783 0.67508 0.0
Tb718 Tb 0.36349 0.15056 0.67022 0.0
O719 O 0.30071 0.15975 0.70458 0.0
O720 O 0.34495 0.17379 0.69409 0.0
O721 O 0.35608 0.21992 0.66654 0.0
C722 C 0.39937 0.12829 0.69162 0.0
O723 O 0.39231 0.2046 0.68073 0.0
C724 C 0.35037 0.16054 0.62217 0.0
C725 C 0.29119 0.09322 0.659 0.0
O726 O 0.40158 0.13939 0.6685 0.0
O727 O 0.3767 0.12932 0.70235 0.0
O728 O 0.37741 0.16448 0.63067 0.0
O729 O 0.33168 0.14787 0.63934 0.0
O730 O 0.32032 0.1014 0.66752 0.0
O731 O 0.28363 0.1162 0.65357 0.0
C732 C 0.27753 0.19369 0.64271 0.0
O733 O 0.27357 0.17995 0.66476 0.0
O734 O 0.30145 0.19464 0.6328 0.0
C735 C 0.32768 0.16305 0.71237 0.0
Tb736 Tb 0.80894 0.15793 0.68074 0.0
C737 C 0.82851 0.10512 0.66367 0.0
Tb738 Tb 0.87907 0.1838 0.67358 0.0
O739 O 0.79381 0.14127 0.63834 0.0
O740 O 0.83965 0.17948 0.65114 0.0
O741 O 0.8068 0.10974 0.67416 0.0
C742 C 0.93467 0.20453 0.65519 0.0
O743 O 0.8569 0.13012 0.66048 0.0
C744 C 0.86458 0.1808 0.72236 0.0
C745 C 0.85868 0.23665 0.68811 0.0
O746 O 0.92312 0.18326 0.67265 0.0
O747 O 0.9148 0.21373 0.64807 0.0
O748 O 0.89221 0.2018 0.71599 0.0
O749 O 0.84815 0.16098 0.70225 0.0
O750 O 0.87937 0.23077 0.67728 0.0
O751 O 0.83072 0.21211 0.69291 0.0
C752 C 0.75671 0.14116 0.70403 0.0
O753 O 0.76199 0.15178 0.68073 0.0
O754 O 0.78069 0.13977 0.71392 0.0
C755 C 0.8218 0.15966 0.63129 0.0
C756 C 0.34828 0.90942 0.07661 0.0
C757 C 0.33136 0.87427 0.07085 0.0
C758 C 0.375 0.9292 0.06396 0.0
C759 C 0.38542 0.91447 0.04496 0.0
H760 H 0.34135 0.92159 0.09153 0.0
H761 H 0.38776 0.95615 0.06935 0.0
S762 S 0.34779 0.82361 0.02161 0.0
N763 N 0.32582 0.82565 0.04409 0.0
N764 N 0.37587 0.86274 0.02017 0.0
C765 C 0.3681 0.87943 0.03847 0.0
C766 C 0.34109 0.85933 0.05147 0.0
C767 C 0.09034 0.40798 0.06212 0.0
C768 C 0.12314 0.42701 0.06286 0.0
C769 C 0.07146 0.42073 0.05318 0.0
C770 C 0.08468 0.45266 0.04411 0.0
H771 H 0.07921 0.383 0.06846 0.0
H772 H 0.04628 0.40511 0.05275 0.0
S773 S 0.16941 0.51269 0.04265 0.0
N774 N 0.16814 0.47967 0.05457 0.0
N775 N 0.13263 0.5034 0.03711 0.0
C776 C 0.11747 0.47209 0.04502 0.0
C777 C 0.13673 0.45933 0.05459 0.0
C778 C 0.56041 0.65961 0.02277 0.0
C779 C 0.5519 0.66738 0.04711 0.0
C780 C 0.54821 0.6262 0.01192 0.0
C781 C 0.52672 0.59927 0.02482 0.0
H782 H 0.5769 0.67953 0.01211 0.0
H783 H 0.55595 0.62143 0.99344 0.0
S784 S 0.49764 0.60595 0.08951 0.0
N785 N 0.52139 0.64526 0.08418 0.0
N786 N 0.49767 0.58261 0.06345 0.0
C787 C 0.51751 0.60668 0.04892 0.0
C788 C 0.53027 0.64068 0.06014 0.0
C789 C 0.90933 0.33856 0.98281 0.0
C790 C 0.8895 0.3304 0.95924 0.0
C791 C 0.92978 0.37199 0.99306 0.0
C792 C 0.93127 0.39873 0.98018 0.0
H793 H 0.90935 0.31887 0.99326 0.0
H794 H 0.94494 0.37683 0.01105 0.0
S795 S 0.88359 0.39066 0.91797 0.0
N796 N 0.87202 0.35149 0.92342 0.0
N797 N 0.91036 0.41464 0.94281 0.0
C798 C 0.91079 0.39093 0.957 0.0
C799 C 0.88994 0.35669 0.94649 0.0
C800 C 0.6614 0.57239 0.94069 0.0
C801 C 0.68604 0.57137 0.95493 0.0
C802 C 0.63183 0.559 0.95002 0.0
C803 C 0.62574 0.54382 0.97378 0.0
H804 H 0.66526 0.5845 0.92261 0.0
H805 H 0.61374 0.561 0.93868 0.0
S806 S 0.68169 0.53232 0.01724 0.0
N807 N 0.70199 0.55231 0.99312 0.0
N808 N 0.64636 0.52695 0.01059 0.0
C809 C 0.64987 0.54162 0.98773 0.0
C810 C 0.68005 0.55549 0.97834 0.0
C811 C 0.44368 0.0892 0.97422 0.0
C812 C 0.45816 0.10537 0.95232 0.0
C813 C 0.4529 0.06884 0.98675 0.0
C814 C 0.47738 0.06467 0.97815 0.0
H815 H 0.42496 0.09209 0.98152 0.0
H816 H 0.44092 0.05652 0.00338 0.0
S817 S 0.52316 0.10265 0.92178 0.0
N818 N 0.49825 0.11642 0.92273 0.0
N819 N 0.5159 0.07874 0.94618 0.0
C820 C 0.49225 0.08119 0.95638 0.0
C821 C 0.48253 0.10137 0.94349 0.0
C822 C 0.67045 0.128 0.97069 0.0
C823 C 0.67883 0.11396 0.94945 0.0
C824 C 0.64139 0.10967 0.98059 0.0
C825 C 0.61972 0.07659 0.96967 0.0
H826 H 0.68664 0.15327 0.97993 0.0
H827 H 0.63613 0.1213 0.99722 0.0
S828 S 0.62987 0.02846 0.91344 0.0
N829 N 0.66285 0.06506 0.91762 0.0
N830 N 0.60807 0.03083 0.93593 0.0
C831 C 0.62741 0.06252 0.948 0.0
C832 C 0.657 0.08116 0.93794 0.0
C833 C 0.87856 0.54521 0.95509 0.0
C834 C 0.89297 0.57798 0.94738 0.0
C835 C 0.89633 0.53102 0.96372 0.0
C836 C 0.92912 0.54881 0.96451 0.0
H837 H 0.85331 0.53036 0.95451 0.0
H838 H 0.88428 0.50593 0.96982 0.0
S839 S 0.97863 0.63574 0.94762 0.0
N840 N 0.94244 0.62831 0.94241 0.0
N841 N 0.97551 0.6009 0.95733 0.0
C842 C 0.94389 0.58131 0.95654 0.0
C843 C 0.9259 0.59607 0.94829 0.0
C844 C 0.44937 0.34443 0.96451 0.0
C845 C 0.47285 0.33576 0.96577 0.0
C846 C 0.45522 0.3757 0.9761 0.0
C847 C 0.48485 0.39952 0.98914 0.0
H848 H 0.42683 0.32769 0.95331 0.0
H849 H 0.43694 0.38194 0.97349 0.0
S850 S 0.55241 0.38681 0.00198 0.0
N851 N 0.52537 0.35164 0.98436 0.0
N852 N 0.53664 0.41079 0.00545 0.0
C853 C 0.50785 0.39034 0.99201 0.0
C854 C 0.50178 0.35838 0.9805 0.0
C855 C 0.10268 0.65667 0.03938 0.0
C856 C 0.1247 0.66 0.05988 0.0
C857 C 0.07916 0.62482 0.02748 0.0
C858 C 0.07687 0.59521 0.03571 0.0
H859 H 0.10382 0.67883 0.03232 0.0
H860 H 0.06281 0.62345 0.01165 0.0
S861 S 0.12759 0.59065 0.09032 0.0
N862 N 0.14155 0.6312 0.08913 0.0
N863 N 0.09806 0.57164 0.06676 0.0
C864 C 0.09856 0.59838 0.05659 0.0
C865 C 0.12226 0.63067 0.06868 0.0
C866 C 0.35237 0.44763 0.07407 0.0
C867 C 0.32475 0.42021 0.06084 0.0
C868 C 0.3809 0.46056 0.06286 0.0
C869 C 0.38274 0.44684 0.03785 0.0
H870 H 0.35201 0.45887 0.09338 0.0
H871 H 0.40165 0.4815 0.0739 0.0
S872 S 0.3168 0.37572 0.99467 0.0
N873 N 0.30082 0.3803 0.02113 0.0
N874 N 0.3543 0.40471 1.00002 0.0
C875 C 0.35522 0.41967 0.0243 0.0
C876 C 0.32626 0.40633 0.03581 0.0
C877 C 0.53004 0.89485 0.0678 0.0
C878 C 0.55033 0.88735 0.05457 0.0
C879 C 0.51894 0.91462 0.05695 0.0
C880 C 0.52828 0.92805 0.03278 0.0
H881 H 0.52272 0.88537 0.08663 0.0
H882 H 0.50371 0.92022 0.06796 0.0
S883 S 0.58122 0.91571 0.99055 0.0
N884 N 0.57924 0.89469 0.01612 0.0
N885 N 0.55868 0.93191 0.99582 0.0
C886 C 0.54844 0.92051 0.01936 0.0
C887 C 0.55939 0.90014 0.03023 0.0
C888 C 0.02902 0.21989 0.41381 0.0
C889 C 0.99999 0.21545 0.40356 0.0
C890 C 0.05643 0.23931 0.40191 0.0
C891 C 0.05578 0.25462 0.37909 0.0
H892 H 0.03054 0.20775 0.43091 0.0
H893 H 0.07818 0.24188 0.41041 0.0
S894 S 0.98661 0.25336 0.34562 0.0
N895 N 0.97292 0.23018 0.37029 0.0
N896 N 0.02426 0.26568 0.34739 0.0
C897 C 0.02713 0.25088 0.3688 0.0
C898 C 0.99928 0.2315 0.38114 0.0
C899 C 0.76462 0.75475 0.40751 0.0
C900 C 0.79015 0.75878 0.39409 0.0
C901 C 0.74561 0.7673 0.39842 0.0
C902 C 0.75153 0.78449 0.37567 0.0
H903 H 0.75875 0.74093 0.42473 0.0
H904 H 0.7258 0.76297 0.40905 0.0
S905 S 0.81727 0.80448 0.33492 0.0
N906 N 0.82165 0.7832 0.35803 0.0
N907 N 0.7859 0.80667 0.34087 0.0
C908 C 0.77761 0.7897 0.36261 0.0
C909 C 0.7969 0.77684 0.37182 0.0
C910 C 0.19486 0.98562 0.37395 0.0
C911 C 0.22566 0.0076 0.38549 0.0
C912 C 0.18482 0.95188 0.36549 0.0
C913 C 0.20551 0.93941 0.36774 0.0
H914 H 0.17836 0.99442 0.37192 0.0
H915 H 0.16075 0.93551 0.35708 0.0
S916 S 0.28888 0.98764 0.39613 0.0
N917 N 0.27682 0.01508 0.39849 0.0
N918 N 0.25834 0.95203 0.38229 0.0
C919 C 0.23656 0.96151 0.37884 0.0
C920 C 0.24653 0.99554 0.3878 0.0
C921 C 0.55836 0.68238 0.28442 0.0
C922 C 0.55372 0.6563 0.2998 0.0
C923 C 0.57822 0.71617 0.29442 0.0
C924 C 0.59428 0.72496 0.32003 0.0
H925 H 0.54754 0.67663 0.26415 0.0
H926 H 0.58219 0.73541 0.28154 0.0
S927 S 0.58693 0.66656 0.36949 0.0
N928 N 0.56417 0.64182 0.34292 0.0
N929 N 0.60216 0.70531 0.36143 0.0
C930 C 0.58879 0.69927 0.33601 0.0
C931 C 0.56835 0.66494 0.32596 0.0
C932 C 0.33945 0.92836 0.29771 0.0
C933 C 0.35389 0.9091 0.2936 0.0
C934 C 0.31168 0.91586 0.30999 0.0
C935 C 0.29771 0.88394 0.31916 0.0
H936 H 0.34961 0.95322 0.29122 0.0
H937 H 0.3012 0.93144 0.31247 0.0
S938 S 0.32644 0.82373 0.31334 0.0
N939 N 0.35219 0.85653 0.29952 0.0
N940 N 0.30032 0.83325 0.32313 0.0
C941 C 0.31201 0.8645 0.31532 0.0
C942 C 0.34 0.877 0.30236 0.0
C943 C 0.15393 0.44858 0.28667 0.0
C944 C 0.12409 0.44441 0.28837 0.0
C945 C 0.16342 0.42928 0.30005 0.0
C946 C 0.14337 0.40463 0.3156 0.0
H947 H 0.17016 0.46698 0.27479 0.0
H948 H 0.18661 0.43346 0.29759 0.0
S949 S 0.06276 0.38466 0.32694 0.0
N950 N 0.07464 0.41492 0.30726 0.0
N951 N 0.09218 0.37778 0.33233 0.0
C952 C 0.11352 0.40066 0.31794 0.0
C953 C 0.10397 0.42077 0.30437 0.0
C954 C 0.3218 0.42977 0.26799 0.0
C955 C 0.34871 0.45323 0.28467 0.0
C956 C 0.2924 0.41383 0.27767 0.0
C957 C 0.289 0.42128 0.30419 0.0
H958 H 0.32368 0.42281 0.24766 0.0
H959 H 0.27233 0.39507 0.26445 0.0
S960 S 0.35216 0.48302 0.35508 0.0
N961 N 0.37011 0.48454 0.32833 0.0
N962 N 0.31479 0.45508 0.34649 0.0
C963 C 0.31558 0.44581 0.32069 0.0
C964 C 0.3455 0.46165 0.31093 0.0
C965 C 0.57186 0.89679 0.26778 0.0
C966 C 0.54709 0.89531 0.28104 0.0
C967 C 0.58971 0.88332 0.27775 0.0
C968 C 0.58354 0.86793 0.30139 0.0
H969 H 0.57765 0.9087 0.24963 0.0
H970 H 0.60881 0.88545 0.26703 0.0
S971 S 0.52136 0.85755 0.34372 0.0
N972 N 0.5174 0.87722 0.31912 0.0
N973 N 0.55066 0.85153 0.33764 0.0
C974 C 0.5585 0.86568 0.31459 0.0
C975 C 0.54033 0.87944 0.30446 0.0
C976 C 0.13406 0.67752 0.32469 0.0
C977 C 0.13007 0.6716 0.29674 0.0
C978 C 0.14169 0.70893 0.33765 0.0
C979 C 0.14588 0.73527 0.32295 0.0
H980 H 0.13179 0.65793 0.33656 0.0
H981 H 0.1453 0.71295 0.35915 0.0
S982 S 0.13846 0.73301 0.24969 0.0
N983 N 0.13093 0.69491 0.255 0.0
N984 N 0.14524 0.7537 0.27939 0.0
C985 C 0.14148 0.72955 0.29515 0.0
C986 C 0.13353 0.69771 0.282 0.0
C987 C 0.78596 0.96085 0.39486 0.0
C988 C 0.78896 0.99016 0.38553 0.0
C989 C 0.76197 0.92904 0.384 0.0
C990 C 0.73977 0.92505 0.36334 0.0
H991 H 0.80196 0.96246 0.41115 0.0
H992 H 0.76061 0.90743 0.39235 0.0
S993 S 0.73793 0.99393 0.33111 0.0
N994 N 0.76836 0.01342 0.35393 0.0
N995 N 0.72277 0.95335 0.33352 0.0
C996 C 0.74251 0.95417 0.35367 0.0
C997 C 0.76718 0.98676 0.36477 0.0
C998 C 1.00077 0.77412 0.37521 0.0
C999 C 0.99596 0.76219 0.40032 0.0
C1000 C 0.03026 0.78781 0.36566 0.0
C1001 C 0.05598 0.79006 0.38088 0.0
H1002 H 0.9814 0.7721 0.36256 0.0
H1003 H 0.03276 0.79615 0.34604 0.0
S1004 S 0.05652 0.76557 0.44901 0.0
N1005 N 0.01995 0.7558 0.44098 0.0
N1006 N 0.07528 0.7813 0.42302 0.0
C1007 C 0.05173 0.77914 0.40633 0.0
C1008 C 0.02174 0.76524 0.41605 0.0
C1009 C 0.19687 0.2188 0.37445 0.0
C1010 C 0.22876 0.23403 0.38417 0.0
C1011 C 0.18434 0.23795 0.36481 0.0
C1012 C 0.20344 0.2728 0.36418 0.0
H1013 H 0.1817 0.19184 0.3737 0.0
H1014 H 0.15983 0.22531 0.35717 0.0
S1015 S 0.28721 0.3253 0.39083 0.0
N1016 N 0.27799 0.28659 0.39556 0.0
N1017 N 0.25508 0.32213 0.37627 0.0
C1018 C 0.23504 0.28838 0.37466 0.0
C1019 C 0.24753 0.26912 0.38496 0.0
C1020 C 0.67789 0.587 0.73386 0.0
C1021 C 0.65439 0.55446 0.72328 0.0
C1022 C 0.70553 0.60454 0.72178 0.0
C1023 C 0.71086 0.59003 0.69885 0.0
H1024 H 0.67507 0.59876 0.75187 0.0
H1025 H 0.72321 0.62932 0.73093 0.0
S1026 S 0.65663 0.50548 0.66329 0.0
N1027 N 0.6381 0.50848 0.68842 0.0
N1028 N 0.69015 0.54147 0.66575 0.0
C1029 C 0.68735 0.55777 0.68777 0.0
C1030 C 0.65907 0.53999 0.69997 0.0
C1031 C 0.46133 0.10335 0.70077 0.0
C1032 C 0.45903 0.09416 0.72681 0.0
C1033 C 0.4421 0.11458 0.68961 0.0
C1034 C 0.4197 0.11685 0.70399 0.0
H1035 H 0.47822 0.10196 0.68892 0.0
H1036 H 0.44469 0.12132 0.66949 0.0
S1037 S 0.40417 0.09581 0.77289 0.0
N1038 N 0.43236 0.08796 0.76662 0.0
N1039 N 0.39651 0.10939 0.74576 0.0
C1040 C 0.41728 0.10801 0.73011 0.0
C1041 C 0.4369 0.09664 0.7415 0.0
C1042 C 0.85589 0.31355 0.71639 0.0
C1043 C 0.88617 0.34017 0.71396 0.0
C1044 C 0.84691 0.28021 0.70749 0.0
C1045 C 0.86797 0.27227 0.69602 0.0
H1046 H 0.83906 0.31856 0.72525 0.0
H1047 H 0.82339 0.26055 0.70993 0.0
S1048 S 0.95086 0.3333 0.68679 0.0
N1049 N 0.93762 0.35652 0.70043 0.0
N1050 N 0.92106 0.29439 0.68349 0.0
C1051 C 0.89845 0.29891 0.69362 0.0
C1052 C 0.90746 0.33269 0.70265 0.0
C1053 C 0.25435 0.99818 0.6503 0.0
C1054 C 0.22521 0.98705 0.63579 0.0
C1055 C 0.27502 0.03239 0.65837 0.0
C1056 C 0.2674 0.05696 0.65236 0.0
H1057 H 0.26168 0.98039 0.65477 0.0
H1058 H 0.29744 0.03957 0.66897 0.0
S1059 S 0.19247 0.04031 0.61674 0.0
N1060 N 0.18871 0.00279 0.61726 0.0
N1061 N 0.22747 0.06715 0.6322 0.0
C1062 C 0.23774 0.04596 0.63864 0.0
C1063 C 0.21673 0.01104 0.63037 0.0
C1064 C 1.0007 0.24754 0.61209 0.0
C1065 C 0.02245 0.23841 0.62115 0.0
C1066 C 0.97242 0.23639 0.62329 0.0
C1067 C 0.96469 0.21548 0.64385 0.0
H1068 H 0.00589 0.26408 0.59662 0.0
H1069 H 0.95653 0.24436 0.61581 0.0
S1070 S 0.01267 0.18252 0.67346 0.0
N1071 N 0.03375 0.20596 0.65106 0.0
N1072 N 0.98048 0.18493 0.6721 0.0
C1073 C 0.98588 0.20553 0.65272 0.0
C1074 C 0.0148 0.21704 0.64139 0.0
C1075 C 0.82496 0.79605 0.64242 0.0
C1076 C 0.79539 0.78531 0.62887 0.0
C1077 C 0.83123 0.77363 0.65485 0.0
C1078 C 0.80814 0.73958 0.65443 0.0
H1079 H 0.8439 0.82169 0.64236 0.0
H1080 H 0.85475 0.7829 0.6641 0.0
S1081 S 0.72591 0.69962 0.62383 0.0
N1082 N 0.74207 0.73912 0.61742 0.0
N1083 N 0.75373 0.69672 0.64084 0.0
C1084 C 0.77792 0.72887 0.64218 0.0
C1085 C 0.77162 0.75176 0.6293 0.0
C1086 C 0.99067 0.74693 0.61375 0.0
C1087 C 0.01598 0.7767 0.62712 0.0
C1088 C 0.96128 0.73147 0.62344 0.0
C1089 C 0.9561 0.74506 0.64696 0.0
H1090 H 0.99362 0.73547 0.59564 0.0
H1091 H 0.94252 0.70853 0.61247 0.0
S1092 S 0.01472 0.82236 0.68961 0.0
N1093 N 0.03402 0.81906 0.66522 0.0
N1094 N 0.97866 0.79006 0.68334 0.0
C1095 C 0.98108 0.77496 0.66041 0.0
C1096 C 0.01103 0.79077 0.6505 0.0
C1097 C 0.21728 0.22106 0.63482 0.0
C1098 C 0.22167 0.23343 0.60988 0.0
C1099 C 0.23523 0.2079 0.64518 0.0
C1100 C 0.25818 0.20659 0.63095 0.0
H1101 H 0.20034 0.22228 0.64671 0.0
H1102 H 0.2314 0.19915 0.66464 0.0
S1103 S 0.27672 0.23278 0.56365 0.0
N1104 N 0.24918 0.24147 0.57045 0.0
N1105 N 0.283 0.21684 0.58991 0.0
C1106 C 0.26222 0.21801 0.60567 0.0
C1107 C 0.24397 0.23145 0.59515 0.0
C1108 C 0.83926 0.03339 0.63787 0.0
C1109 C 0.80976 0.01012 0.62435 0.0
C1110 C 0.84461 0.06328 0.65173 0.0
C1111 C 0.82059 0.07097 0.6529 0.0
H1112 H 0.85864 0.02881 0.63722 0.0
H1113 H 0.86802 0.08092 0.66105 0.0
S1114 S 0.73885 0.01814 0.6215 0.0
N1115 N 0.75598 0.99646 0.61342 0.0
N1116 N 0.7659 0.05251 0.63998 0.0
C1117 C 0.79058 0.04731 0.64048 0.0
C1118 C 0.78519 0.0169 0.62609 0.0
C1119 C 0.42224 0.3217 0.69542 0.0
C1120 C 0.4531 0.33127 0.70494 0.0
C1121 C 0.40081 0.2886 0.68443 0.0
C1122 C 0.40937 0.26373 0.68273 0.0
H1123 H 0.41439 0.33976 0.69702 0.0
H1124 H 0.37705 0.28227 0.6782 0.0
S1125 S 0.48802 0.27644 0.70378 0.0
N1126 N 0.49142 0.31347 0.71133 0.0
N1127 N 0.45171 0.2518 0.69008 0.0
C1128 C 0.44063 0.27344 0.69116 0.0
C1129 C 0.46233 0.30703 0.70242 0.0
C1130 C 0.67235 0.11482 0.71352 0.0
C1131 C 0.67013 0.10797 0.7402 0.0
C1132 C 0.7006 0.12622 0.70211 0.0
C1133 C 0.72767 0.13106 0.71691 0.0
H1134 H 0.65184 0.11042 0.70111 0.0
H1135 H 0.70102 0.13049 0.68136 0.0
S1136 S 0.7353 0.12044 0.78832 0.0
N1137 N 0.69823 0.10962 0.78168 0.0
N1138 N 0.75114 0.13054 0.76016 0.0
C1139 C 0.72608 0.12536 0.74381 0.0
C1140 C 0.69737 0.11391 0.75547 0.0
C1141 C 0.90653 0.59345 0.7123 0.0
C1142 C 0.8868 0.55993 0.71708 0.0
C1143 C 0.89458 0.61201 0.70097 0.0
C1144 C 0.86221 0.59812 0.69413 0.0
H1145 H 0.93159 0.60573 0.71764 0.0
H1146 H 0.91104 0.63783 0.69814 0.0
S1147 S 0.80033 0.51092 0.70169 0.0
N1148 N 0.83321 0.51306 0.7132 0.0
N1149 N 0.81051 0.54839 0.69258 0.0
C1150 C 0.84206 0.56458 0.69877 0.0
C1151 C 0.85436 0.54544 0.71013 0.0
C1152 C 0.51844 0.98767 0.12044 0.0
C1153 C 0.49411 0.99118 0.1303 0.0
C1154 C 0.52833 0.99729 0.09549 0.0
C1155 C 0.5141 0.01052 0.07931 0.0
H1156 H 0.53047 0.97811 0.13234 0.0
H1157 H 0.54714 0.99411 0.08876 0.0
S1158 S 0.44944 0.02482 0.09557 0.0
N1159 N 0.45566 0.00834 0.12149 0.0
N1160 N 0.47491 0.02724 0.07495 0.0
C1161 C 0.48972 0.01406 0.08877 0.0
C1162 C 0.47958 0.00423 0.11417 0.0
C1163 C 0.03071 0.4943 0.1101 0.0
C1164 C 0.04457 0.52567 0.12563 0.0
C1165 C 0.01356 0.48863 0.08538 0.0
C1166 C 0.00942 0.514 0.07551 0.0
H1167 H 0.03365 0.47421 0.11686 0.0
H1168 H 0.00342 0.46423 0.07397 0.0
S1169 S 0.04053 0.60039 0.10866 0.0
N1170 N 0.05244 0.58217 0.12953 0.0
N1171 N 0.0205 0.57164 0.0832 0.0
C1172 C 0.02282 0.54531 0.091 0.0
C1173 C 0.04037 0.55114 0.116 0.0
C1174 C 0.52021 0.54269 0.1211 0.0
C1175 C 0.49736 0.51302 0.13048 0.0
C1176 C 0.52838 0.54266 0.09516 0.0
C1177 C 0.5135 0.51317 0.07742 0.0
H1178 H 0.53226 0.56614 0.13401 0.0
H1179 H 0.54653 0.56592 0.08897 0.0
S1180 S 0.45163 0.42897 0.09134 0.0
N1181 N 0.45995 0.45319 0.11954 0.0
N1182 N 0.47435 0.45373 0.07037 0.0
C1183 C 0.48983 0.4836 0.08601 0.0
C1184 C 0.48192 0.48339 0.11263 0.0
C1185 C 0.99347 0.51481 0.89781 0.0
C1186 C 0.97872 0.48476 0.88047 0.0
C1187 C 0.00468 0.51563 0.92409 0.0
C1188 C 0.00179 0.48652 0.9338 0.0
H1189 H 0.99739 0.53809 0.89077 0.0
H1190 H 0.01662 0.53941 0.93658 0.0
S1191 S 0.96109 0.40067 0.8978 0.0
N1192 N 0.9586 0.42446 0.87604 0.0
N1193 N 0.98062 0.42632 0.92498 0.0
C1194 C 0.98597 0.45611 0.91708 0.0
C1195 C 0.97416 0.45515 0.89054 0.0
C1196 C 0.52367 0.48827 0.90095 0.0
C1197 C 0.50874 0.49445 0.87957 0.0
C1198 C 0.51787 0.49291 0.927 0.0
C1199 C 0.49687 0.50398 0.93292 0.0
H1200 H 0.53931 0.47872 0.89741 0.0
H1201 H 0.52903 0.48624 0.9425 0.0
S1202 S 0.4533 0.52587 0.88403 0.0
N1203 N 0.47333 0.5139 0.86578 0.0
N1204 N 0.46229 0.52276 0.9152 0.0
C1205 C 0.4827 0.51165 0.91182 0.0
C1206 C 0.48874 0.50694 0.88503 0.0
C1207 C 0.52487 0.99704 0.90191 0.0
C1208 C 0.50805 0.00747 0.88564 0.0
C1209 C 0.51571 0.98653 0.92691 0.0
C1210 C 0.48957 0.98631 0.93655 0.0
H1211 H 0.54463 0.99598 0.8949 0.0
H1212 H 0.52863 0.97765 0.93843 0.0
S1213 S 0.43965 0.01452 0.90278 0.0
N1214 N 0.46553 0.01935 0.88188 0.0
N1215 N 0.44807 0.99924 0.92845 0.0
C1216 C 0.47307 0.99747 0.92073 0.0
C1217 C 0.48245 0.00826 0.89544 0.0
C1218 C 0.14617 0.33611 0.4445 0.0
C1219 C 0.16381 0.3275 0.46161 0.0
C1220 C 0.1557 0.34674 0.4196 0.0
C1221 C 0.1834 0.34957 0.41119 0.0
H1222 H 0.12486 0.33454 0.45038 0.0
H1223 H 0.14143 0.35304 0.40697 0.0
S1224 S 0.23826 0.33087 0.44899 0.0
N1225 N 0.21045 0.32303 0.46854 0.0
N1226 N 0.22841 0.34315 0.42212 0.0
C1227 C 0.20127 0.34123 0.42823 0.0
C1228 C 0.19143 0.33009 0.45332 0.0
C1229 C 0.71227 0.87996 0.44726 0.0
C1230 C 0.71247 0.85328 0.45893 0.0
C1231 C 0.69365 0.87417 0.42348 0.0
C1232 C 0.67496 0.84158 0.41029 0.0
H1233 H 0.72677 0.90556 0.45653 0.0
H1234 H 0.69463 0.89554 0.415 0.0
S1235 S 0.66616 0.763 0.43295 0.0
N1236 N 0.69167 0.79294 0.45586 0.0
N1237 N 0.65658 0.78211 0.41105 0.0
C1238 C 0.67444 0.8146 0.42191 0.0
C1239 C 0.6932 0.82044 0.4463 0.0
C1240 C 0.1816 0.81232 0.46646 0.0
C1241 C 0.16495 0.82746 0.47603 0.0
C1242 C 0.1891 0.81372 0.44015 0.0
C1243 C 0.18028 0.83034 0.4224 0.0
H1244 H 0.18918 0.79955 0.47952 0.0
H1245 H 0.20224 0.80203 0.43378 0.0
S1246 S 0.13679 0.87454 0.43765 0.0
N1247 N 0.13999 0.85973 0.46564 0.0
N1248 N 0.15412 0.86248 0.41635 0.0
C1249 C 0.16322 0.84517 0.43158 0.0
C1250 C 0.1555 0.84365 0.45834 0.0
C1251 C 0.65275 0.84031 0.23208 0.0
C1252 C 0.64198 0.81163 0.21378 0.0
C1253 C 0.66285 0.84062 0.25861 0.0
C1254 C 0.66219 0.81216 0.26766 0.0
H1255 H 0.65435 0.86295 0.22563 0.0
H1256 H 0.67208 0.86358 0.27188 0.0
S1257 S 0.63318 0.72989 0.22786 0.0
N1258 N 0.62955 0.75365 0.20665 0.0
N1259 N 0.64789 0.75387 0.25651 0.0
C1260 C 0.65044 0.78301 0.24966 0.0
C1261 C 0.64045 0.78282 0.2227 0.0
C1262 C 0.16147 0.84341 0.22926 0.0
C1263 C 0.18426 0.83527 0.2229 0.0
C1264 C 0.15561 0.84649 0.25582 0.0
C1265 C 0.1719 0.84078 0.27662 0.0
H1266 H 0.1477 0.84664 0.21361 0.0
H1267 H 0.13747 0.85219 0.25996 0.0
S1268 S 0.23321 0.81768 0.2694 0.0
N1269 N 0.22306 0.82158 0.23891 0.0
N1270 N 0.21168 0.82631 0.28842 0.0
C1271 C 0.19501 0.83303 0.2702 0.0
C1272 C 0.20122 0.83045 0.24341 0.0
C1273 C 0.1919 0.33082 0.2329 0.0
C1274 C 0.17642 0.34371 0.21772 0.0
C1275 C 0.18381 0.32153 0.25839 0.0
C1276 C 0.15983 0.32455 0.26938 0.0
H1277 H 0.20953 0.32671 0.22464 0.0
H1278 H 0.19565 0.31088 0.26917 0.0
S1279 S 0.11579 0.36196 0.23972 0.0
N1280 N 0.13888 0.36302 0.21715 0.0
N1281 N 0.123 0.34449 0.26443 0.0
C1282 C 0.14523 0.33881 0.25496 0.0
C1283 C 0.15375 0.34872 0.22931 0.0
C1284 C 0.84429 0.69968 0.79469 0.0
C1285 C 0.82216 0.66728 0.80053 0.0
C1286 C 0.85093 0.70636 0.7685 0.0
C1287 C 0.836 0.68085 0.74715 0.0
H1288 H 0.85739 0.71987 0.81054 0.0
H1289 H 0.86855 0.73152 0.7651 0.0
S1290 S 0.77444 0.59228 0.75143 0.0
N1291 N 0.78328 0.61017 0.78235 0.0
N1292 N 0.79733 0.62204 0.73362 0.0
C1293 C 0.81332 0.64853 0.75265 0.0
C1294 C 0.80604 0.64193 0.77919 0.0
C1295 C 0.38637 0.18534 0.77198 0.0
C1296 C 0.36834 0.17868 0.79353 0.0
C1297 C 0.37267 0.17922 0.74592 0.0
C1298 C 0.34027 0.166 0.74019 0.0
H1299 H 0.41149 0.19584 0.77531 0.0
H1300 H 0.38792 0.18581 0.73022 0.0
S1301 S 0.28234 0.14255 0.78945 0.0
N1302 N 0.31623 0.15699 0.80758 0.0
N1303 N 0.29019 0.14513 0.75819 0.0
C1304 C 0.32169 0.15817 0.76145 0.0
C1305 C 0.33577 0.16447 0.78821 0.0
C1306 C 0.82203 0.14954 0.78302 0.0
C1307 C 0.83384 0.17919 0.80046 0.0
C1308 C 0.8317 0.15033 0.75753 0.0
C1309 C 0.85391 0.1807 0.74882 0.0
H1310 H 0.8052 0.12553 0.78913 0.0
H1311 H 0.82221 0.12691 0.74476 0.0
S1312 S 0.89201 0.2653 0.78663 0.0
N1313 N 0.8689 0.23983 0.80708 0.0
N1314 N 0.88713 0.24114 0.75918 0.0
C1315 C 0.86584 0.21052 0.76593 0.0
C1316 C 0.85573 0.20982 0.79174 0.0
C1317 C 0.35785 0.18506 0.55206 0.0
C1318 C 0.32652 0.17033 0.54099 0.0
C1319 C 0.36528 0.18232 0.5785 0.0
C1320 C 0.34168 0.16478 0.59491 0.0
H1321 H 0.37682 0.19841 0.54004 0.0
H1322 H 0.38973 0.19367 0.58602 0.0
S1323 S 0.25592 0.12165 0.57569 0.0
N1324 N 0.27168 0.1377 0.54864 0.0
N1325 N 0.28564 0.13263 0.59831 0.0
C1326 C 0.31025 0.15055 0.58433 0.0
C1327 C 0.30267 0.15337 0.5574 0.0
C1328 C 0.81455 0.154 0.55588 0.0
C1329 C 0.84125 0.15281 0.5497 0.0
C1330 C 0.80891 0.15714 0.5825 0.0
C1331 C 0.82978 0.1592 0.60362 0.0
H1332 H 0.79774 0.15182 0.54012 0.0
H1333 H 0.78789 0.15756 0.5866 0.0
S1334 S 0.90045 0.152 0.59686 0.0
N1335 N 0.88721 0.15117 0.56611 0.0
N1336 N 0.87639 0.15628 0.61576 0.0
C1337 C 0.85622 0.15748 0.59734 0.0
C1338 C 0.86198 0.15444 0.57043 0.0
C1339 C 0.82683 0.63214 0.55291 0.0
C1340 C 0.84485 0.66496 0.5458 0.0
C1341 C 0.82028 0.62643 0.57924 0.0
C1342 C 0.83142 0.6533 0.59945 0.0
H1343 H 0.8175 0.61069 0.53795 0.0
H1344 H 0.80595 0.60078 0.58369 0.0
S1345 S 0.87943 0.74409 0.59119 0.0
N1346 N 0.87359 0.72468 0.56112 0.0
N1347 N 0.86155 0.71404 0.61045 0.0
C1348 C 0.84993 0.68621 0.59267 0.0
C1349 C 0.85659 0.69201 0.5659 0.0
loop_
_geom_bond_atom_site_label_1
_geom_bond_atom_site_label_2
_geom_bond_distance
_geom_bond_site_symmetry_2
_ccdc_geom_bond_type
P0 O11 1.490 . S
P0 C14 1.812 . S
P0 C20 1.803 . S
P0 C26 1.819 . S
H1 C15 0.941 . S
H2 C16 0.939 . S
H3 C18 0.940 . S
H4 C19 0.940 . S
H5 C21 0.939 . S
H6 C22 0.942 . S
H7 C24 0.940 . S
H8 C25 0.939 . S
H9 C27 0.941 . S
H10 C31 0.939 . S
O11 P0 1.490 . S
H12 C28 0.939 . S
H13 C30 0.940 . S
C14 P0 1.812 . S
C14 C15 1.389 . S
C14 C19 1.391 . S
C15 H1 0.941 . S
C15 C14 1.389 . S
C15 C16 1.397 . S
C16 H2 0.939 . S
C16 C15 1.397 . S
C16 C17 1.378 . S
C17 C16 1.378 . S
C17 C18 1.378 . S
C18 H3 0.940 . S
C18 C17 1.378 . S
C18 C19 1.396 . S
C19 H4 0.940 . S
C19 C14 1.391 . S
C19 C18 1.396 . S
C20 P0 1.803 . S
C20 C21 1.378 . S
C20 C25 1.400 . S
C21 H5 0.939 . S
C21 C20 1.378 . S
C21 C22 1.361 . S
C22 H6 0.942 . S
C22 C21 1.361 . S
C22 C23 1.369 . S
C23 C22 1.369 . S
C23 C24 1.404 . S
C24 H7 0.940 . S
C24 C23 1.404 . S
C24 C25 1.389 . S
C25 H8 0.939 . S
C25 C20 1.400 . S
C25 C24 1.389 . S
C26 P0 1.819 . S
C26 C27 1.391 . S
C26 C31 1.391 . S
C27 H9 0.941 . S
C27 C26 1.391 . S
C27 C28 1.396 . S
C28 H12 0.939 . S
C28 C27 1.396 . S
C28 C29 1.397 . S
C29 C28 1.397 . S
C29 C30 1.385 . S
C30 H13 0.940 . S
C30 C29 1.385 . S
C30 C31 1.388 . S
C31 H10 0.939 . S
C31 C26 1.391 . S
C31 C30 1.388 . S
P32 O43 1.490 . S
P32 C46 1.812 . S
P32 C52 1.803 . S
P32 C58 1.819 . S
H33 C47 0.941 . S
H34 C48 0.939 . S
H35 C50 0.940 . S
H36 C51 0.940 . S
H37 C53 0.939 . S
H38 C54 0.942 . S
H39 C56 0.940 . S
H40 C57 0.939 . S
H41 C59 0.941 . S
H42 C63 0.939 . S
O43 P32 1.490 . S
H44 C60 0.939 . S
H45 C62 0.940 . S
C46 P32 1.812 . S
C46 C47 1.389 . S
C46 C51 1.391 . S
C47 H33 0.941 . S
C47 C46 1.389 . S
C47 C48 1.397 . S
C48 H34 0.939 . S
C48 C47 1.397 . S
C48 C49 1.378 . S
C49 C48 1.378 . S
C49 C50 1.378 . S
C50 H35 0.940 . S
C50 C49 1.378 . S
C50 C51 1.396 . S
C51 H36 0.940 . S
C51 C46 1.391 . S
C51 C50 1.396 . S
C52 P32 1.803 . S
C52 C53 1.378 . S
C52 C57 1.400 . S
C53 H37 0.939 . S
C53 C52 1.378 . S
C53 C54 1.361 . S
C54 H38 0.942 . S
C54 C53 1.361 . S
C54 C55 1.369 . S
C55 C54 1.369 . S
C55 C56 1.404 . S
C56 H39 0.940 . S
C56 C55 1.404 . S
C56 C57 1.389 . S
C57 H40 0.939 . S
C57 C52 1.400 . S
C57 C56 1.389 . S
C58 P32 1.819 . S
C58 C59 1.391 . S
C58 C63 1.391 . S
C59 H41 0.941 . S
C59 C58 1.391 . S
C59 C60 1.396 . S
C60 H44 0.939 . S
C60 C59 1.396 . S
C60 C61 1.397 . S
C61 C60 1.397 . S
C61 C62 1.385 . S
C62 H45 0.940 . S
C62 C61 1.385 . S
C62 C63 1.388 . S
C63 H42 0.939 . S
C63 C58 1.391 . S
C63 C62 1.388 . S
P64 O75 1.490 . S
P64 C78 1.812 . S
P64 C84 1.803 . S
P64 C90 1.819 . S
H65 C79 0.941 . S
H66 C80 0.939 . S
H67 C82 0.940 . S
H68 C83 0.940 . S
H69 C85 0.939 . S
H70 C86 0.942 . S
H71 C88 0.940 . S
H72 C89 0.939 . S
H73 C91 0.941 . S
H74 C95 0.939 . S
O75 P64 1.490 . S
H76 C92 0.939 . S
H77 C94 0.940 . S
C78 P64 1.812 . S
C78 C79 1.389 . S
C78 C83 1.391 . S
C79 H65 0.941 . S
C79 C78 1.389 . S
C79 C80 1.397 . S
C80 H66 0.939 . S
C80 C79 1.397 . S
C80 C81 1.378 . S
C81 C80 1.378 . S
C81 C82 1.378 . S
C82 H67 0.940 . S
C82 C81 1.378 . S
C82 C83 1.396 . S
C83 H68 0.940 . S
C83 C78 1.391 . S
C83 C82 1.396 . S
C84 P64 1.803 . S
C84 C85 1.378 . S
C84 C89 1.400 . S
C85 H69 0.939 . S
C85 C84 1.378 . S
C85 C86 1.361 . S
C86 H70 0.942 . S
C86 C85 1.361 . S
C86 C87 1.369 . S
C87 C86 1.369 . S
C87 C88 1.404 . S
C88 H71 0.940 . S
C88 C87 1.404 . S
C88 C89 1.389 . S
C89 H72 0.939 . S
C89 C84 1.400 . S
C89 C88 1.389 . S
C90 P64 1.819 . S
C90 C91 1.391 . S
C90 C95 1.391 . S
C91 H73 0.941 . S
C91 C90 1.391 . S
C91 C92 1.396 . S
C92 H76 0.939 . S
C92 C91 1.396 . S
C92 C93 1.397 . S
C93 C92 1.397 . S
C93 C94 1.385 . S
C94 H77 0.940 . S
C94 C93 1.385 . S
C94 C95 1.388 . S
C95 H74 0.939 . S
C95 C90 1.391 . S
C95 C94 1.388 . S
P96 O107 1.490 . S
P96 C110 1.812 . S
P96 C116 1.803 . S
P96 C122 1.819 . S
H97 C111 0.941 . S
H98 C112 0.939 . S
H99 C114 0.940 . S
H100 C115 0.940 . S
H101 C117 0.939 . S
H102 C118 0.942 . S
H103 C120 0.940 . S
H104 C121 0.939 . S
H105 C123 0.941 . S
H106 C127 0.939 . S
O107 P96 1.490 . S
H108 C124 0.939 . S
H109 C126 0.940 . S
C110 P96 1.812 . S
C110 C111 1.389 . S
C110 C115 1.391 . S
C111 H97 0.941 . S
C111 C110 1.389 . S
C111 C112 1.397 . S
C112 H98 0.939 . S
C112 C111 1.397 . S
C112 C113 1.378 . S
C113 C112 1.378 . S
C113 C114 1.378 . S
C114 H99 0.940 . S
C114 C113 1.378 . S
C114 C115 1.396 . S
C115 H100 0.940 . S
C115 C110 1.391 . S
C115 C114 1.396 . S
C116 P96 1.803 . S
C116 C117 1.378 . S
C116 C121 1.400 . S
C117 H101 0.939 . S
C117 C116 1.378 . S
C117 C118 1.361 . S
C118 H102 0.942 . S
C118 C117 1.361 . S
C118 C119 1.369 . S
C119 C118 1.369 . S
C119 C120 1.404 . S
C120 H103 0.940 . S
C120 C119 1.404 . S
C120 C121 1.389 . S
C121 H104 0.939 . S
C121 C116 1.400 . S
C121 C120 1.389 . S
C122 P96 1.819 . S
C122 C123 1.391 . S
C122 C127 1.391 . S
C123 H105 0.941 . S
C123 C122 1.391 . S
C123 C124 1.396 . S
C124 H108 0.939 . S
C124 C123 1.396 . S
C124 C125 1.397 . S
C125 C124 1.397 . S
C125 C126 1.385 . S
C126 H109 0.940 . S
C126 C125 1.385 . S
C126 C127 1.388 . S
C127 H106 0.939 . S
C127 C122 1.391 . S
C127 C126 1.388 . S
P128 O139 1.490 . S
P128 C142 1.812 . S
P128 C148 1.803 . S
P128 C154 1.819 . S
H129 C143 0.941 . S
H130 C144 0.939 . S
H131 C146 0.940 . S
H132 C147 0.940 . S
H133 C149 0.939 . S
H134 C150 0.942 . S
H135 C152 0.940 . S
H136 C153 0.939 . S
H137 C155 0.941 . S
H138 C159 0.939 . S
O139 P128 1.490 . S
H140 C156 0.939 . S
H141 C158 0.940 . S
C142 P128 1.812 . S
C142 C143 1.389 . S
C142 C147 1.391 . S
C143 H129 0.941 . S
C143 C142 1.389 . S
C143 C144 1.397 . S
C144 H130 0.939 . S
C144 C143 1.397 . S
C144 C145 1.378 . S
C145 C144 1.378 . S
C145 C146 1.378 . S
C146 H131 0.940 . S
C146 C145 1.378 . S
C146 C147 1.396 . S
C147 H132 0.940 . S
C147 C142 1.391 . S
C147 C146 1.396 . S
C148 P128 1.803 . S
C148 C149 1.378 . S
C148 C153 1.400 . S
C149 H133 0.939 . S
C149 C148 1.378 . S
C149 C150 1.361 . S
C150 H134 0.942 . S
C150 C149 1.361 . S
C150 C151 1.369 . S
C151 C150 1.369 . S
C151 C152 1.404 . S
C152 H135 0.940 . S
C152 C151 1.404 . S
C152 C153 1.389 . S
C153 H136 0.939 . S
C153 C148 1.400 . S
C153 C152 1.389 . S
C154 P128 1.819 . S
C154 C155 1.391 . S
C154 C159 1.391 . S
C155 H137 0.941 . S
C155 C154 1.391 . S
C155 C156 1.396 . S
C156 H140 0.939 . S
C156 C155 1.396 . S
C156 C157 1.397 . S
C157 C156 1.397 . S
C157 C158 1.385 . S
C158 H141 0.940 . S
C158 C157 1.385 . S
C158 C159 1.388 . S
C159 H138 0.939 . S
C159 C154 1.391 . S
C159 C158 1.388 . S
P160 O171 1.490 . S
P160 C174 1.812 . S
P160 C180 1.803 . S
P160 C186 1.819 . S
H161 C175 0.941 . S
H162 C176 0.939 . S
H163 C178 0.940 . S
H164 C179 0.940 . S
H165 C181 0.939 . S
H166 C182 0.942 . S
H167 C184 0.940 . S
H168 C185 0.939 . S
H169 C187 0.941 . S
H170 C191 0.939 . S
O171 P160 1.490 . S
H172 C188 0.939 . S
H173 C190 0.940 . S
C174 P160 1.812 . S
C174 C175 1.389 . S
C174 C179 1.391 . S
C175 H161 0.941 . S
C175 C174 1.389 . S
C175 C176 1.397 . S
C176 H162 0.939 . S
C176 C175 1.397 . S
C176 C177 1.378 . S
C177 C176 1.378 . S
C177 C178 1.378 . S
C178 H163 0.940 . S
C178 C177 1.378 . S
C178 C179 1.396 . S
C179 H164 0.940 . S
C179 C174 1.391 . S
C179 C178 1.396 . S
C180 P160 1.803 . S
C180 C181 1.378 . S
C180 C185 1.400 . S
C181 H165 0.939 . S
C181 C180 1.378 . S
C181 C182 1.361 . S
C182 H166 0.942 . S
C182 C181 1.361 . S
C182 C183 1.369 . S
C183 C182 1.369 . S
C183 C184 1.404 . S
C184 H167 0.940 . S
C184 C183 1.404 . S
C184 C185 1.389 . S
C185 H168 0.939 . S
C185 C180 1.400 . S
C185 C184 1.389 . S
C186 P160 1.819 . S
C186 C187 1.391 . S
C186 C191 1.391 . S
C187 H169 0.941 . S
C187 C186 1.391 . S
C187 C188 1.396 . S
C188 H172 0.939 . S
C188 C187 1.396 . S
C188 C189 1.397 . S
C189 C188 1.397 . S
C189 C190 1.385 . S
C190 H173 0.940 . S
C190 C189 1.385 . S
C190 C191 1.388 . S
C191 H170 0.939 . S
C191 C186 1.391 . S
C191 C190 1.388 . S
P192 O203 1.473 1_655 S
P192 C206 1.812 . S
P192 C212 1.803 . S
P192 C218 1.819 . S
H193 C207 0.941 . S
H194 C208 0.939 . S
H195 C210 0.940 . S
H196 C211 0.940 . S
H197 C213 0.939 . S
H198 C214 0.942 . S
H199 C216 0.940 . S
H200 C217 0.939 . S
H201 C219 0.941 1_455 S
H202 C223 0.939 . S
O203 P192 1.473 1_455 S
H204 C220 0.939 1_455 S
H205 C222 0.940 . S
C206 P192 1.812 . S
C206 C207 1.389 . S
C206 C211 1.391 . S
C207 H193 0.941 . S
C207 C206 1.389 . S
C207 C208 1.397 . S
C208 H194 0.939 . S
C208 C207 1.397 . S
C208 C209 1.378 . S
C209 C208 1.378 . S
C209 C210 1.378 . S
C210 H195 0.940 . S
C210 C209 1.378 . S
C210 C211 1.396 . S
C211 H196 0.940 . S
C211 C206 1.391 . S
C211 C210 1.396 . S
C212 P192 1.803 . S
C212 C213 1.378 . S
C212 C217 1.400 . S
C213 H197 0.939 . S
C213 C212 1.378 . S
C213 C214 1.361 . S
C214 H198 0.942 . S
C214 C213 1.361 . S
C214 C215 1.369 . S
C215 C214 1.369 . S
C215 C216 1.404 . S
C216 H199 0.940 . S
C216 C215 1.404 . S
C216 C217 1.389 . S
C217 H200 0.939 . S
C217 C212 1.400 . S
C217 C216 1.389 . S
C218 P192 1.819 . S
C218 C219 1.391 . S
C218 C223 1.391 . S
C219 H201 0.941 1_655 S
C219 C218 1.391 . S
C219 C220 1.396 . S
C220 H204 0.939 1_655 S
C220 C219 1.396 . S
C220 C221 1.397 . S
C221 C220 1.397 . S
C221 C222 1.385 . S
C222 H205 0.940 . S
C222 C221 1.385 . S
C222 C223 1.388 . S
C223 H202 0.939 . S
C223 C218 1.391 . S
C223 C222 1.388 . S
P224 O235 1.490 . S
P224 C238 1.812 . S
P224 C244 1.803 . S
P224 C250 1.819 . S
H225 C239 0.941 . S
H226 C240 0.939 . S
H227 C242 0.940 . S
H228 C243 0.940 . S
H229 C245 0.939 . S
H230 C246 0.942 . S
H231 C248 0.940 . S
H232 C249 0.939 . S
H233 C251 0.941 . S
H234 C255 0.939 . S
O235 P224 1.490 . S
H236 C252 0.939 . S
H237 C254 0.940 . S
C238 P224 1.812 . S
C238 C239 1.389 . S
C238 C243 1.391 . S
C239 H225 0.941 . S
C239 C238 1.389 . S
C239 C240 1.397 . S
C240 H226 0.939 . S
C240 C239 1.397 . S
C240 C241 1.378 . S
C241 C240 1.378 . S
C241 C242 1.378 . S
C242 H227 0.940 . S
C242 C241 1.378 . S
C242 C243 1.396 . S
C243 H228 0.940 . S
C243 C238 1.391 . S
C243 C242 1.396 . S
C244 P224 1.803 . S
C244 C245 1.378 . S
C244 C249 1.400 . S
C245 H229 0.939 . S
C245 C244 1.378 . S
C245 C246 1.361 . S
C246 H230 0.942 . S
C246 C245 1.361 . S
C246 C247 1.369 . S
C247 C246 1.369 . S
C247 C248 1.404 . S
C248 H231 0.940 . S
C248 C247 1.404 . S
C248 C249 1.389 . S
C249 H232 0.939 . S
C249 C244 1.400 . S
C249 C248 1.389 . S
C250 P224 1.819 . S
C250 C251 1.391 . S
C250 C255 1.391 . S
C251 H233 0.941 . S
C251 C250 1.391 . S
C251 C252 1.396 . S
C252 H236 0.939 . S
C252 C251 1.396 . S
C252 C253 1.397 . S
C253 C252 1.397 . S
C253 C254 1.385 . S
C254 H237 0.940 . S
C254 C253 1.385 . S
C254 C255 1.388 . S
C255 H234 0.939 . S
C255 C250 1.391 . S
C255 C254 1.388 . S
P256 O267 1.490 1_545 S
P256 C270 1.812 . S
P256 C276 1.803 . S
P256 C282 1.819 . S
H257 C271 0.941 . S
H258 C272 0.939 . S
H259 C274 0.940 . S
H260 C275 0.940 . S
H261 C277 0.939 . S
H262 C278 0.942 . S
H263 C280 0.940 . S
H264 C281 0.939 . S
H265 C283 0.941 1_565 S
H266 C287 0.939 . S
O267 P256 1.490 1_565 S
H268 C284 0.939 1_565 S
H269 C286 0.940 . S
C270 P256 1.812 . S
C270 C271 1.389 . S
C270 C275 1.391 . S
C271 H257 0.941 . S
C271 C270 1.389 . S
C271 C272 1.397 . S
C272 H258 0.939 . S
C272 C271 1.397 . S
C272 C273 1.378 . S
C273 C272 1.378 . S
C273 C274 1.378 . S
C274 H259 0.940 . S
C274 C273 1.378 . S
C274 C275 1.396 . S
C275 H260 0.940 . S
C275 C270 1.391 . S
C275 C274 1.396 . S
C276 P256 1.803 . S
C276 C277 1.378 . S
C276 C281 1.400 . S
C277 H261 0.939 . S
C277 C276 1.378 . S
C277 C278 1.361 . S
C278 H262 0.942 . S
C278 C277 1.361 . S
C278 C279 1.369 . S
C279 C278 1.369 . S
C279 C280 1.404 . S
C280 H263 0.940 . S
C280 C279 1.404 . S
C280 C281 1.389 . S
C281 H264 0.939 . S
C281 C276 1.400 . S
C281 C280 1.389 . S
C282 P256 1.819 . S
C282 C283 1.391 . S
C282 C287 1.391 . S
C283 H265 0.941 1_545 S
C283 C282 1.391 . S
C283 C284 1.396 . S
C284 H268 0.939 1_545 S
C284 C283 1.396 . S
C284 C285 1.397 . S
C285 C284 1.397 . S
C285 C286 1.385 . S
C286 H269 0.940 . S
C286 C285 1.385 . S
C286 C287 1.388 . S
C287 H266 0.939 . S
C287 C282 1.391 . S
C287 C286 1.388 . S
P288 O299 1.490 . S
P288 C302 1.812 . S
P288 C308 1.803 . S
P288 C314 1.819 . S
H289 C303 0.941 . S
H290 C304 0.939 . S
H291 C306 0.940 . S
H292 C307 0.940 . S
H293 C309 0.939 . S
H294 C310 0.942 . S
H295 C312 0.940 . S
H296 C313 0.939 . S
H297 C315 0.941 . S
H298 C319 0.939 . S
O299 P288 1.490 . S
H300 C316 0.939 . S
H301 C318 0.940 . S
C302 P288 1.812 . S
C302 C303 1.389 . S
C302 C307 1.391 . S
C303 H289 0.941 . S
C303 C302 1.389 . S
C303 C304 1.397 . S
C304 H290 0.939 . S
C304 C303 1.397 . S
C304 C305 1.378 . S
C305 C304 1.378 . S
C305 C306 1.378 . S
C306 H291 0.940 . S
C306 C305 1.378 . S
C306 C307 1.396 . S
C307 H292 0.940 . S
C307 C302 1.391 . S
C307 C306 1.396 . S
C308 P288 1.803 . S
C308 C309 1.378 . S
C308 C313 1.400 . S
C309 H293 0.939 . S
C309 C308 1.378 . S
C309 C310 1.361 . S
C310 H294 0.942 . S
C310 C309 1.361 . S
C310 C311 1.369 . S
C311 C310 1.369 . S
C311 C312 1.404 . S
C312 H295 0.940 . S
C312 C311 1.404 . S
C312 C313 1.389 . S
C313 H296 0.939 . S
C313 C308 1.400 . S
C313 C312 1.389 . S
C314 P288 1.819 . S
C314 C315 1.391 . S
C314 C319 1.391 . S
C315 H297 0.941 . S
C315 C314 1.391 . S
C315 C316 1.396 . S
C316 H300 0.939 . S
C316 C315 1.396 . S
C316 C317 1.397 . S
C317 C316 1.397 . S
C317 C318 1.385 . S
C318 H301 0.940 . S
C318 C317 1.385 . S
C318 C319 1.388 . S
C319 H298 0.939 . S
C319 C314 1.391 . S
C319 C318 1.388 . S
P320 O331 1.490 . S
P320 C334 1.812 . S
P320 C340 1.803 . S
P320 C346 1.819 . S
H321 C335 0.941 . S
H322 C336 0.939 . S
H323 C338 0.940 . S
H324 C339 0.940 . S
H325 C341 0.939 . S
H326 C342 0.942 . S
H327 C344 0.940 . S
H328 C345 0.939 . S
H329 C347 0.941 . S
H330 C351 0.939 . S
O331 P320 1.490 . S
H332 C348 0.939 . S
H333 C350 0.940 . S
C334 P320 1.812 . S
C334 C335 1.389 . S
C334 C339 1.391 . S
C335 H321 0.941 . S
C335 C334 1.389 . S
C335 C336 1.397 . S
C336 H322 0.939 . S
C336 C335 1.397 . S
C336 C337 1.378 . S
C337 C336 1.378 . S
C337 C338 1.378 . S
C338 H323 0.940 . S
C338 C337 1.378 . S
C338 C339 1.396 . S
C339 H324 0.940 . S
C339 C334 1.391 . S
C339 C338 1.396 . S
C340 P320 1.803 . S
C340 C341 1.378 . S
C340 C345 1.400 . S
C341 H325 0.939 . S
C341 C340 1.378 . S
C341 C342 1.361 . S
C342 H326 0.942 . S
C342 C341 1.361 . S
C342 C343 1.369 . S
C343 C342 1.369 . S
C343 C344 1.404 . S
C344 H327 0.940 . S
C344 C343 1.404 . S
C344 C345 1.389 . S
C345 H328 0.939 . S
C345 C340 1.400 . S
C345 C344 1.389 . S
C346 P320 1.819 . S
C346 C347 1.391 . S
C346 C351 1.391 . S
C347 H329 0.941 . S
C347 C346 1.391 . S
C347 C348 1.396 . S
C348 H332 0.939 . S
C348 C347 1.396 . S
C348 C349 1.397 . S
C349 C348 1.397 . S
C349 C350 1.385 . S
C350 H333 0.940 . S
C350 C349 1.385 . S
C350 C351 1.388 . S
C351 H330 0.939 . S
C351 C346 1.391 . S
C351 C350 1.388 . S
P352 O363 1.490 . S
P352 C366 1.812 . S
P352 C372 1.803 . S
P352 C378 1.819 . S
H353 C367 0.941 . S
H354 C368 0.939 . S
H355 C370 0.940 . S
H356 C371 0.940 . S
H357 C373 0.939 . S
H358 C374 0.942 . S
H359 C376 0.940 . S
H360 C377 0.939 . S
H361 C379 0.941 . S
H362 C383 0.939 . S
O363 P352 1.490 . S
H364 C380 0.939 . S
H365 C382 0.940 . S
C366 P352 1.812 . S
C366 C367 1.389 . S
C366 C371 1.391 . S
C367 H353 0.941 . S
C367 C366 1.389 . S
C367 C368 1.397 . S
C368 H354 0.939 . S
C368 C367 1.397 . S
C368 C369 1.378 . S
C369 C368 1.378 . S
C369 C370 1.378 . S
C370 H355 0.940 . S
C370 C369 1.378 . S
C370 C371 1.396 . S
C371 H356 0.940 . S
C371 C366 1.391 . S
C371 C370 1.396 . S
C372 P352 1.803 . S
C372 C373 1.378 . S
C372 C377 1.400 . S
C373 H357 0.939 . S
C373 C372 1.378 . S
C373 C374 1.361 . S
C374 H358 0.942 . S
C374 C373 1.361 . S
C374 C375 1.369 . S
C375 C374 1.369 . S
C375 C376 1.404 . S
C376 H359 0.940 . S
C376 C375 1.404 . S
C376 C377 1.389 . S
C377 H360 0.939 . S
C377 C372 1.400 . S
C377 C376 1.389 . S
C378 P352 1.819 . S
C378 C379 1.391 . S
C378 C383 1.391 . S
C379 H361 0.941 . S
C379 C378 1.391 . S
C379 C380 1.396 . S
C380 H364 0.939 . S
C380 C379 1.396 . S
C380 C381 1.397 . S
C381 C380 1.397 . S
C381 C382 1.385 . S
C382 H365 0.940 . S
C382 C381 1.385 . S
C382 C383 1.388 . S
C383 H362 0.939 . S
C383 C378 1.391 . S
C383 C382 1.388 . S
P384 O395 1.490 . S
P384 C398 1.812 . S
P384 C404 1.803 . S
P384 C410 1.819 . S
H385 C399 0.941 . S
H386 C400 0.939 . S
H387 C402 0.940 . S
H388 C403 0.940 . S
H389 C405 0.939 . S
H390 C406 0.942 . S
H391 C408 0.940 . S
H392 C409 0.939 . S
H393 C411 0.941 . S
H394 C415 0.939 . S
O395 P384 1.490 . S
H396 C412 0.939 . S
H397 C414 0.940 . S
C398 P384 1.812 . S
C398 C399 1.389 . S
C398 C403 1.391 . S
C399 H385 0.941 . S
C399 C398 1.389 . S
C399 C400 1.397 . S
C400 H386 0.939 . S
C400 C399 1.397 . S
C400 C401 1.378 . S
C401 C400 1.378 . S
C401 C402 1.378 . S
C402 H387 0.940 . S
C402 C401 1.378 . S
C402 C403 1.396 . S
C403 H388 0.940 . S
C403 C398 1.391 . S
C403 C402 1.396 . S
C404 P384 1.803 . S
C404 C405 1.378 . S
C404 C409 1.400 . S
C405 H389 0.939 . S
C405 C404 1.378 . S
C405 C406 1.361 . S
C406 H390 0.942 . S
C406 C405 1.361 . S
C406 C407 1.369 . S
C407 C406 1.369 . S
C407 C408 1.404 . S
C408 H391 0.940 . S
C408 C407 1.404 . S
C408 C409 1.389 . S
C409 H392 0.939 . S
C409 C404 1.400 . S
C409 C408 1.389 . S
C410 P384 1.819 . S
C410 C411 1.391 . S
C410 C415 1.391 . S
C411 H393 0.941 . S
C411 C410 1.391 . S
C411 C412 1.396 . S
C412 H396 0.939 . S
C412 C411 1.396 . S
C412 C413 1.397 . S
C413 C412 1.397 . S
C413 C414 1.385 . S
C414 H397 0.940 . S
C414 C413 1.385 . S
C414 C415 1.388 . S
C415 H394 0.939 . S
C415 C410 1.391 . S
C415 C414 1.388 . S
P416 O427 1.490 . S
P416 C430 1.812 . S
P416 C436 1.803 . S
P416 C442 1.819 . S
H417 C431 0.941 . S
H418 C432 0.939 . S
H419 C434 0.940 . S
H420 C435 0.940 . S
H421 C437 0.939 . S
H422 C438 0.942 . S
H423 C440 0.940 . S
H424 C441 0.939 . S
H425 C443 0.941 . S
H426 C447 0.939 . S
O427 P416 1.490 . S
H428 C444 0.939 . S
H429 C446 0.940 . S
C430 P416 1.812 . S
C430 C431 1.389 . S
C430 C435 1.391 . S
C431 H417 0.941 . S
C431 C430 1.389 . S
C431 C432 1.397 . S
C432 H418 0.939 . S
C432 C431 1.397 . S
C432 C433 1.378 . S
C433 C432 1.378 . S
C433 C434 1.378 . S
C434 H419 0.940 . S
C434 C433 1.378 . S
C434 C435 1.396 . S
C435 H420 0.940 . S
C435 C430 1.391 . S
C435 C434 1.396 . S
C436 P416 1.803 . S
C436 C437 1.378 . S
C436 C441 1.400 . S
C437 H421 0.939 . S
C437 C436 1.378 . S
C437 C438 1.361 . S
C438 H422 0.942 . S
C438 C437 1.361 . S
C438 C439 1.369 . S
C439 C438 1.369 . S
C439 C440 1.404 . S
C440 H423 0.940 . S
C440 C439 1.404 . S
C440 C441 1.389 . S
C441 H424 0.939 . S
C441 C436 1.400 . S
C441 C440 1.389 . S
C442 P416 1.819 . S
C442 C443 1.391 . S
C442 C447 1.391 . S
C443 H425 0.941 . S
C443 C442 1.391 . S
C443 C444 1.396 . S
C444 H428 0.939 . S
C444 C443 1.396 . S
C444 C445 1.397 . S
C445 C444 1.397 . S
C445 C446 1.385 . S
C446 H429 0.940 . S
C446 C445 1.385 . S
C446 C447 1.388 . S
C447 H426 0.939 . S
C447 C442 1.391 . S
C447 C446 1.388 . S
P448 O459 1.490 . S
P448 C462 1.812 . S
P448 C468 1.803 . S
P448 C474 1.819 . S
H449 C463 0.941 . S
H450 C464 0.939 . S
H451 C466 0.940 . S
H452 C467 0.940 . S
H453 C469 0.939 . S
H454 C470 0.942 . S
H455 C472 0.940 . S
H456 C473 0.939 . S
H457 C475 0.941 . S
H458 C479 0.939 . S
O459 P448 1.490 . S
H460 C476 0.939 . S
H461 C478 0.940 . S
C462 P448 1.812 . S
C462 C463 1.389 . S
C462 C467 1.391 . S
C463 H449 0.941 . S
C463 C462 1.389 . S
C463 C464 1.397 . S
C464 H450 0.939 . S
C464 C463 1.397 . S
C464 C465 1.378 . S
C465 C464 1.378 . S
C465 C466 1.378 . S
C466 H451 0.940 . S
C466 C465 1.378 . S
C466 C467 1.396 . S
C467 H452 0.940 . S
C467 C462 1.391 . S
C467 C466 1.396 . S
C468 P448 1.803 . S
C468 C469 1.378 . S
C468 C473 1.400 . S
C469 H453 0.939 . S
C469 C468 1.378 . S
C469 C470 1.361 . S
C470 H454 0.942 . S
C470 C469 1.361 . S
C470 C471 1.369 . S
C471 C470 1.369 . S
C471 C472 1.404 . S
C472 H455 0.940 . S
C472 C471 1.404 . S
C472 C473 1.389 . S
C473 H456 0.939 . S
C473 C468 1.400 . S
C473 C472 1.389 . S
C474 P448 1.819 . S
C474 C475 1.391 . S
C474 C479 1.391 . S
C475 H457 0.941 . S
C475 C474 1.391 . S
C475 C476 1.396 . S
C476 H460 0.939 . S
C476 C475 1.396 . S
C476 C477 1.397 . S
C477 C476 1.397 . S
C477 C478 1.385 . S
C478 H461 0.940 . S
C478 C477 1.385 . S
C478 C479 1.388 . S
C479 H458 0.939 . S
C479 C474 1.391 . S
C479 C478 1.388 . S
P480 O491 1.490 1_565 S
P480 C494 1.812 . S
P480 C500 1.803 . S
P480 C506 1.819 . S
H481 C495 0.941 . S
H482 C496 0.939 . S
H483 C498 0.940 . S
H484 C499 0.940 . S
H485 C501 0.939 . S
H486 C502 0.942 . S
H487 C504 0.940 . S
H488 C505 0.939 . S
H489 C507 0.941 1_545 S
H490 C511 0.939 . S
O491 P480 1.490 1_545 S
H492 C508 0.939 1_545 S
H493 C510 0.940 . S
C494 P480 1.812 . S
C494 C495 1.389 . S
C494 C499 1.391 . S
C495 H481 0.941 . S
C495 C494 1.389 . S
C495 C496 1.397 . S
C496 H482 0.939 . S
C496 C495 1.397 . S
C496 C497 1.378 . S
C497 C496 1.378 . S
C497 C498 1.378 . S
C498 H483 0.940 . S
C498 C497 1.378 . S
C498 C499 1.396 . S
C499 H484 0.940 . S
C499 C494 1.391 . S
C499 C498 1.396 . S
C500 P480 1.803 . S
C500 C501 1.378 . S
C500 C505 1.400 . S
C501 H485 0.939 . S
C501 C500 1.378 . S
C501 C502 1.361 . S
C502 H486 0.942 . S
C502 C501 1.361 . S
C502 C503 1.369 . S
C503 C502 1.369 . S
C503 C504 1.404 . S
C504 H487 0.940 . S
C504 C503 1.404 . S
C504 C505 1.389 . S
C505 H488 0.939 . S
C505 C500 1.400 . S
C505 C504 1.389 . S
C506 P480 1.819 . S
C506 C507 1.391 . S
C506 C511 1.391 . S
C507 H489 0.941 1_565 S
C507 C506 1.391 . S
C507 C508 1.396 . S
C508 H492 0.939 1_565 S
C508 C507 1.396 . S
C508 C509 1.397 . S
C509 C508 1.397 . S
C509 C510 1.385 . S
C510 H493 0.940 . S
C510 C509 1.385 . S
C510 C511 1.388 . S
C511 H490 0.939 . S
C511 C506 1.391 . S
C511 C510 1.388 . S
P512 O523 1.490 . S
P512 C526 1.812 . S
P512 C532 1.803 . S
P512 C538 1.819 . S
H513 C527 0.941 . S
H514 C528 0.939 . S
H515 C530 0.940 . S
H516 C531 0.940 . S
H517 C533 0.939 . S
H518 C534 0.942 . S
H519 C536 0.940 . S
H520 C537 0.939 . S
H521 C539 0.941 . S
H522 C543 0.939 . S
O523 P512 1.490 . S
H524 C540 0.939 . S
H525 C542 0.940 . S
C526 P512 1.812 . S
C526 C527 1.389 . S
C526 C531 1.391 . S
C527 H513 0.941 . S
C527 C526 1.389 . S
C527 C528 1.397 . S
C528 H514 0.939 . S
C528 C527 1.397 . S
C528 C529 1.378 . S
C529 C528 1.378 . S
C529 C530 1.378 . S
C530 H515 0.940 . S
C530 C529 1.378 . S
C530 C531 1.396 . S
C531 H516 0.940 . S
C531 C526 1.391 . S
C531 C530 1.396 . S
C532 P512 1.803 . S
C532 C533 1.378 . S
C532 C537 1.400 . S
C533 H517 0.939 . S
C533 C532 1.378 . S
C533 C534 1.361 . S
C534 H518 0.942 . S
C534 C533 1.361 . S
C534 C535 1.369 . S
C535 C534 1.369 . S
C535 C536 1.404 . S
C536 H519 0.940 . S
C536 C535 1.404 . S
C536 C537 1.389 . S
C537 H520 0.939 . S
C537 C532 1.400 . S
C537 C536 1.389 . S
C538 P512 1.819 . S
C538 C539 1.391 . S
C538 C543 1.391 . S
C539 H521 0.941 . S
C539 C538 1.391 . S
C539 C540 1.396 . S
C540 H524 0.939 . S
C540 C539 1.396 . S
C540 C541 1.397 . S
C541 C540 1.397 . S
C541 C542 1.385 . S
C542 H525 0.940 . S
C542 C541 1.385 . S
C542 C543 1.388 . S
C543 H522 0.939 . S
C543 C538 1.391 . S
C543 C542 1.388 . S
P544 O555 1.490 . S
P544 C558 1.812 . S
P544 C564 1.803 . S
P544 C570 1.819 . S
H545 C559 0.941 . S
H546 C560 0.939 . S
H547 C562 0.940 . S
H548 C563 0.940 . S
H549 C565 0.939 . S
H550 C566 0.942 . S
H551 C568 0.940 . S
H552 C569 0.939 . S
H553 C571 0.941 . S
H554 C575 0.939 . S
O555 P544 1.490 . S
H556 C572 0.939 . S
H557 C574 0.940 . S
C558 P544 1.812 . S
C558 C559 1.389 . S
C558 C563 1.391 . S
C559 H545 0.941 . S
C559 C558 1.389 . S
C559 C560 1.397 . S
C560 H546 0.939 . S
C560 C559 1.397 . S
C560 C561 1.378 . S
C561 C560 1.378 . S
C561 C562 1.378 . S
C562 H547 0.940 . S
C562 C561 1.378 . S
C562 C563 1.396 . S
C563 H548 0.940 . S
C563 C558 1.391 . S
C563 C562 1.396 . S
C564 P544 1.803 . S
C564 C565 1.378 . S
C564 C569 1.400 . S
C565 H549 0.939 . S
C565 C564 1.378 . S
C565 C566 1.361 . S
C566 H550 0.942 . S
C566 C565 1.361 . S
C566 C567 1.369 . S
C567 C566 1.369 . S
C567 C568 1.404 . S
C568 H551 0.940 . S
C568 C567 1.404 . S
C568 C569 1.389 . S
C569 H552 0.939 . S
C569 C564 1.400 . S
C569 C568 1.389 . S
C570 P544 1.819 . S
C570 C571 1.391 . S
C570 C575 1.391 . S
C571 H553 0.941 . S
C571 C570 1.391 . S
C571 C572 1.396 . S
C572 H556 0.939 . S
C572 C571 1.396 . S
C572 C573 1.397 . S
C573 C572 1.397 . S
C573 C574 1.385 . S
C574 H557 0.940 . S
C574 C573 1.385 . S
C574 C575 1.388 . S
C575 H554 0.939 . S
C575 C570 1.391 . S
C575 C574 1.388 . S
Tb576 O579 2.453 . S
Tb576 O580 2.596 1_545 S
Tb576 O581 2.374 1_545 S
Tb576 O589 2.343 1_554 S
Tb576 O591 2.353 . S
Tb576 O593 2.427 1_554 S
Tb576 O594 2.513 1_554 S
C577 O581 1.251 . S
C577 O583 1.284 . S
Tb578 O580 2.343 1_556 S
Tb578 O583 2.346 1_556 S
Tb578 O586 2.427 1_556 S
Tb578 O587 2.513 1_556 S
Tb578 O588 2.453 . S
Tb578 O589 2.596 1_565 S
Tb578 O590 2.374 1_565 S
O579 Tb576 2.453 . S
O579 C595 1.245 . S
O580 Tb576 2.596 1_565 S
O580 Tb578 2.343 1_554 S
O580 C595 1.259 1_565 S
O581 Tb576 2.374 1_565 S
O581 C577 1.251 . S
C582 O586 1.275 . S
C582 O587 1.246 . S
O583 C577 1.284 . S
O583 Tb578 2.346 1_554 S
C584 O588 1.245 . S
C584 O589 1.259 1_565 S
C585 O590 1.250 . S
C585 O591 1.263 1_556 S
O586 Tb578 2.427 1_554 S
O586 C582 1.275 . S
O587 Tb578 2.513 1_554 S
O587 C582 1.246 . S
O588 Tb578 2.453 . S
O588 C584 1.245 . S
O589 Tb576 2.343 1_556 S
O589 Tb578 2.596 1_545 S
O589 C584 1.259 1_545 S
O590 Tb578 2.374 1_545 S
O590 C585 1.250 . S
O591 Tb576 2.353 . S
O591 C585 1.263 1_554 S
C592 O593 1.275 . S
C592 O594 1.246 . S
O593 Tb576 2.427 1_556 S
O593 C592 1.275 . S
O594 Tb576 2.513 1_556 S
O594 C592 1.246 . S
C595 O579 1.245 . S
C595 O580 1.259 1_545 S
Tb596 O599 2.453 . S
Tb596 O600 2.596 1_655 S
Tb596 O601 2.374 1_655 S
Tb596 O609 2.343 1_554 S
Tb596 O611 2.353 . S
Tb596 O613 2.427 1_554 S
Tb596 O614 2.513 1_554 S
C597 O601 1.251 . S
C597 O603 1.263 . S
Tb598 O600 2.343 1_556 S
Tb598 O603 2.353 1_556 S
Tb598 O606 2.427 1_556 S
Tb598 O607 2.513 1_556 S
Tb598 O608 2.453 . S
Tb598 O609 2.596 1_455 S
Tb598 O610 2.374 1_455 S
O599 Tb596 2.453 . S
O599 C615 1.245 1_655 S
O600 Tb596 2.596 1_455 S
O600 Tb598 2.343 1_554 S
O600 C615 1.259 . S
O601 Tb596 2.374 1_455 S
O601 C597 1.251 . S
C602 O606 1.275 . S
C602 O607 1.246 . S
O603 C597 1.263 . S
O603 Tb598 2.353 1_554 S
C604 O608 1.239 1_655 S
C604 O609 1.261 . S
C605 O610 1.250 . S
C605 O611 1.263 1_556 S
O606 Tb598 2.427 1_554 S
O606 C602 1.275 . S
O607 Tb598 2.513 1_554 S
O607 C602 1.246 . S
O608 Tb598 2.453 . S
O608 C604 1.239 1_455 S
O609 Tb596 2.343 1_556 S
O609 Tb598 2.596 1_655 S
O609 C604 1.261 . S
O610 Tb598 2.374 1_655 S
O610 C605 1.250 . S
O611 Tb596 2.353 . S
O611 C605 1.263 1_554 S
C612 O613 1.275 . S
C612 O614 1.246 . S
O613 Tb596 2.427 1_556 S
O613 C612 1.275 . S
O614 Tb596 2.513 1_556 S
O614 C612 1.246 . S
C615 O599 1.245 1_455 S
C615 O600 1.259 . S
Tb616 O619 2.453 . S
Tb616 O620 2.596 . S
Tb616 O621 2.374 . S
Tb616 O629 2.343 1_556 S
Tb616 O631 2.353 1_556 S
Tb616 O633 2.427 1_556 S
Tb616 O634 2.513 1_556 S
C617 O621 1.251 . S
C617 O623 1.263 1_556 S
Tb618 O620 2.343 1_554 S
Tb618 O623 2.353 . S
Tb618 O626 2.427 1_554 S
Tb618 O627 2.513 1_554 S
Tb618 O628 2.453 . S
Tb618 O629 2.596 . S
Tb618 O630 2.374 . S
O619 Tb616 2.453 . S
O619 C635 1.245 . S
O620 Tb616 2.596 . S
O620 Tb618 2.343 1_556 S
O620 C635 1.259 . S
O621 Tb616 2.374 . S
O621 C617 1.251 . S
C622 O626 1.275 . S
C622 O627 1.246 . S
O623 C617 1.263 1_554 S
O623 Tb618 2.353 . S
C624 O628 1.245 . S
C624 O629 1.259 . S
C625 O630 1.250 . S
C625 O631 1.263 . S
O626 Tb618 2.427 1_556 S
O626 C622 1.275 . S
O627 Tb618 2.513 1_556 S
O627 C622 1.246 . S
O628 Tb618 2.453 . S
O628 C624 1.245 . S
O629 Tb616 2.343 1_554 S
O629 Tb618 2.596 . S
O629 C624 1.259 . S
O630 Tb618 2.374 . S
O630 C625 1.250 . S
O631 Tb616 2.353 1_554 S
O631 C625 1.263 . S
C632 O633 1.275 . S
C632 O634 1.246 . S
O633 Tb616 2.427 1_554 S
O633 C632 1.275 . S
O634 Tb616 2.513 1_554 S
O634 C632 1.246 . S
C635 O619 1.245 . S
C635 O620 1.259 . S
Tb636 O639 2.453 . S
Tb636 O640 2.596 . S
Tb636 O641 2.374 . S
Tb636 O649 2.343 . S
Tb636 O651 2.353 . S
Tb636 O653 2.427 . S
Tb636 O654 2.513 . S
C637 O641 1.251 . S
C637 O643 1.263 . S
Tb638 O640 2.343 . S
Tb638 O643 2.353 . S
Tb638 O646 2.427 . S
Tb638 O647 2.513 . S
Tb638 O648 2.453 . S
Tb638 O649 2.596 . S
Tb638 O650 2.374 . S
O639 Tb636 2.453 . S
O639 C655 1.245 . S
O640 Tb636 2.596 . S
O640 Tb638 2.343 . S
O640 C655 1.259 . S
O641 Tb636 2.374 . S
O641 C637 1.251 . S
C642 O646 1.275 . S
C642 O647 1.246 . S
O643 C637 1.263 . S
O643 Tb638 2.353 . S
C644 O648 1.245 . S
C644 O649 1.259 . S
C645 O650 1.250 . S
C645 O651 1.263 . S
O646 Tb638 2.427 . S
O646 C642 1.275 . S
O647 Tb638 2.513 . S
O647 C642 1.246 . S
O648 Tb638 2.453 . S
O648 C644 1.245 . S
O649 Tb636 2.343 . S
O649 Tb638 2.596 . S
O649 C644 1.259 . S
O650 Tb638 2.374 . S
O650 C645 1.250 . S
O651 Tb636 2.353 . S
O651 C645 1.263 . S
C652 O653 1.275 . S
C652 O654 1.246 . S
O653 Tb636 2.427 . S
O653 C652 1.275 . S
O654 Tb636 2.513 . S
O654 C652 1.246 . S
C655 O639 1.245 . S
C655 O640 1.259 . S
Tb656 O659 2.453 . S
Tb656 O660 2.596 . S
Tb656 O661 2.374 . S
Tb656 O669 2.343 . S
Tb656 O671 2.353 . S
Tb656 O673 2.427 . S
Tb656 O674 2.513 . S
C657 O661 1.251 . S
C657 O663 1.263 . S
Tb658 O660 2.343 . S
Tb658 O663 2.353 . S
Tb658 O666 2.427 . S
Tb658 O667 2.513 . S
Tb658 O668 2.453 . S
Tb658 O669 2.596 . S
Tb658 O670 2.374 . S
O659 Tb656 2.453 . S
O659 C675 1.245 . S
O660 Tb656 2.596 . S
O660 Tb658 2.343 . S
O660 C675 1.259 . S
O661 Tb656 2.374 . S
O661 C657 1.251 . S
C662 O666 1.275 . S
C662 O667 1.246 . S
O663 C657 1.263 . S
O663 Tb658 2.353 . S
C664 O668 1.245 . S
C664 O669 1.259 . S
C665 O670 1.250 . S
C665 O671 1.263 . S
O666 Tb658 2.427 . S
O666 C662 1.275 . S
O667 Tb658 2.513 . S
O667 C662 1.246 . S
O668 Tb658 2.453 . S
O668 C664 1.245 . S
O669 Tb656 2.343 . S
O669 Tb658 2.596 . S
O669 C664 1.259 . S
O670 Tb658 2.374 . S
O670 C665 1.250 . S
O671 Tb656 2.353 . S
O671 C665 1.263 . S
C672 O673 1.275 . S
C672 O674 1.246 . S
O673 Tb656 2.427 . S
O673 C672 1.275 . S
O674 Tb656 2.513 . S
O674 C672 1.246 . S
C675 O659 1.245 . S
C675 O660 1.259 . S
Tb676 O679 2.453 . S
Tb676 O680 2.596 . S
Tb676 O681 2.374 . S
Tb676 O689 2.343 . S
Tb676 O691 2.353 . S
Tb676 O693 2.427 . S
Tb676 O694 2.513 . S
C677 O681 1.251 . S
C677 O683 1.263 . S
Tb678 O680 2.343 . S
Tb678 O683 2.353 . S
Tb678 O686 2.427 . S
Tb678 O687 2.513 . S
Tb678 O688 2.453 . S
Tb678 O689 2.596 . S
Tb678 O690 2.374 . S
O679 Tb676 2.453 . S
O679 C695 1.245 . S
O680 Tb676 2.596 . S
O680 Tb678 2.343 . S
O680 C695 1.259 . S
O681 Tb676 2.374 . S
O681 C677 1.251 . S
C682 O686 1.275 . S
C682 O687 1.246 . S
O683 C677 1.263 . S
O683 Tb678 2.353 . S
C684 O688 1.245 . S
C684 O689 1.259 . S
C685 O690 1.250 . S
C685 O691 1.263 . S
O686 Tb678 2.427 . S
O686 C682 1.275 . S
O687 Tb678 2.513 . S
O687 C682 1.246 . S
O688 Tb678 2.453 . S
O688 C684 1.245 . S
O689 Tb676 2.343 . S
O689 Tb678 2.596 . S
O689 C684 1.259 . S
O690 Tb678 2.374 . S
O690 C685 1.250 . S
O691 Tb676 2.353 . S
O691 C685 1.263 . S
C692 O693 1.275 . S
C692 O694 1.246 . S
O693 Tb676 2.427 . S
O693 C692 1.275 . S
O694 Tb676 2.513 . S
O694 C692 1.246 . S
C695 O679 1.245 . S
C695 O680 1.259 . S
Tb696 O699 2.453 . S
Tb696 O700 2.596 . S
Tb696 O701 2.374 . S
Tb696 O709 2.343 . S
Tb696 O711 2.353 . S
Tb696 O713 2.427 . S
Tb696 O714 2.513 . S
C697 O701 1.251 . S
C697 O703 1.263 . S
Tb698 O700 2.343 . S
Tb698 O703 2.353 . S
Tb698 O706 2.427 . S
Tb698 O707 2.513 . S
Tb698 O708 2.453 . S
Tb698 O709 2.596 . S
Tb698 O710 2.374 . S
O699 Tb696 2.453 . S
O699 C715 1.245 . S
O700 Tb696 2.596 . S
O700 Tb698 2.343 . S
O700 C715 1.259 . S
O701 Tb696 2.374 . S
O701 C697 1.251 . S
C702 O706 1.275 . S
C702 O707 1.246 . S
O703 C697 1.263 . S
O703 Tb698 2.353 . S
C704 O708 1.245 . S
C704 O709 1.259 . S
C705 O710 1.250 . S
C705 O711 1.263 . S
O706 Tb698 2.427 . S
O706 C702 1.275 . S
O707 Tb698 2.513 . S
O707 C702 1.246 . S
O708 Tb698 2.453 . S
O708 C704 1.245 . S
O709 Tb696 2.343 . S
O709 Tb698 2.596 . S
O709 C704 1.259 . S
O710 Tb698 2.374 . S
O710 C705 1.250 . S
O711 Tb696 2.353 . S
O711 C705 1.263 . S
C712 O713 1.275 . S
C712 O714 1.246 . S
O713 Tb696 2.427 . S
O713 C712 1.275 . S
O714 Tb696 2.513 . S
O714 C712 1.246 . S
C715 O699 1.245 . S
C715 O700 1.259 . S
Tb716 O719 2.453 . S
Tb716 O720 2.596 . S
Tb716 O721 2.374 . S
Tb716 O729 2.343 . S
Tb716 O731 2.353 . S
Tb716 O733 2.427 . S
Tb716 O734 2.513 . S
C717 O721 1.251 . S
C717 O723 1.263 . S
Tb718 O720 2.343 . S
Tb718 O723 2.353 . S
Tb718 O726 2.427 . S
Tb718 O727 2.513 . S
Tb718 O728 2.453 . S
Tb718 O729 2.596 . S
Tb718 O730 2.374 . S
O719 Tb716 2.453 . S
O719 C735 1.245 . S
O720 Tb716 2.596 . S
O720 Tb718 2.343 . S
O720 C735 1.259 . S
O721 Tb716 2.374 . S
O721 C717 1.251 . S
C722 O726 1.275 . S
C722 O727 1.246 . S
O723 C717 1.263 . S
O723 Tb718 2.353 . S
C724 O728 1.245 . S
C724 O729 1.259 . S
C725 O730 1.250 . S
C725 O731 1.263 . S
O726 Tb718 2.427 . S
O726 C722 1.275 . S
O727 Tb718 2.513 . S
O727 C722 1.246 . S
O728 Tb718 2.453 . S
O728 C724 1.245 . S
O729 Tb716 2.343 . S
O729 Tb718 2.596 . S
O729 C724 1.259 . S
O730 Tb718 2.374 . S
O730 C725 1.250 . S
O731 Tb716 2.353 . S
O731 C725 1.263 . S
C732 O733 1.275 . S
C732 O734 1.246 . S
O733 Tb716 2.427 . S
O733 C732 1.275 . S
O734 Tb716 2.513 . S
O734 C732 1.246 . S
C735 O719 1.245 . S
C735 O720 1.259 . S
Tb736 O739 2.453 . S
Tb736 O740 2.596 . S
Tb736 O741 2.374 . S
Tb736 O749 2.343 . S
Tb736 O751 2.353 . S
Tb736 O753 2.427 . S
Tb736 O754 2.513 . S
C737 O741 1.251 . S
C737 O743 1.263 . S
Tb738 O740 2.343 . S
Tb738 O743 2.353 . S
Tb738 O746 2.427 . S
Tb738 O747 2.513 . S
Tb738 O748 2.453 . S
Tb738 O749 2.596 . S
Tb738 O750 2.374 . S
O739 Tb736 2.453 . S
O739 C755 1.245 . S
O740 Tb736 2.596 . S
O740 Tb738 2.343 . S
O740 C755 1.259 . S
O741 Tb736 2.374 . S
O741 C737 1.251 . S
C742 O746 1.275 . S
C742 O747 1.246 . S
O743 C737 1.263 . S
O743 Tb738 2.353 . S
C744 O748 1.245 . S
C744 O749 1.259 . S
C745 O750 1.250 . S
C745 O751 1.263 . S
O746 Tb738 2.427 . S
O746 C742 1.275 . S
O747 Tb738 2.513 . S
O747 C742 1.246 . S
O748 Tb738 2.453 . S
O748 C744 1.245 . S
O749 Tb736 2.343 . S
O749 Tb738 2.596 . S
O749 C744 1.259 . S
O750 Tb738 2.374 . S
O750 C745 1.250 . S
O751 Tb736 2.353 . S
O751 C745 1.263 . S
C752 O753 1.275 . S
C752 O754 1.246 . S
O753 Tb736 2.427 . S
O753 C752 1.275 . S
O754 Tb736 2.513 . S
O754 C752 1.246 . S
C755 O739 1.245 . S
C755 O740 1.259 . S
C756 C757 1.369 . S
C756 C758 1.419 . S
C756 H760 0.930 . S
C757 C756 1.369 . S
C757 C766 1.429 . S
C758 C756 1.419 . S
C758 C759 1.363 . S
C758 H761 0.929 . S
C759 C758 1.363 . S
C759 C765 1.428 . S
H760 C756 0.930 . S
H761 C758 0.929 . S
S762 N763 1.613 . S
S762 N764 1.610 . S
N763 S762 1.613 . S
N763 C766 1.350 . S
N764 S762 1.610 . S
N764 C765 1.351 . S
C765 C759 1.428 . S
C765 N764 1.351 . S
C765 C766 1.434 . S
C766 C757 1.429 . S
C766 N763 1.350 . S
C766 C765 1.434 . S
C767 C768 1.369 . S
C767 C769 1.419 . S
C767 H771 0.930 . S
C768 C767 1.369 . S
C768 C777 1.429 . S
C769 C767 1.419 . S
C769 C770 1.363 . S
C769 H772 0.929 . S
C770 C769 1.363 . S
C770 C776 1.428 . S
H771 C767 0.930 . S
H772 C769 0.929 . S
S773 N774 1.613 . S
S773 N775 1.610 . S
N774 S773 1.613 . S
N774 C777 1.350 . S
N775 S773 1.610 . S
N775 C776 1.351 . S
C776 C770 1.428 . S
C776 N775 1.351 . S
C776 C777 1.434 . S
C777 C768 1.429 . S
C777 N774 1.350 . S
C777 C776 1.434 . S
C778 C779 1.369 . S
C778 C780 1.419 . S
C778 H782 0.930 . S
C779 C778 1.369 . S
C779 C788 1.429 . S
C780 C778 1.419 . S
C780 C781 1.363 . S
C780 H783 0.929 1_554 S
C781 C780 1.363 . S
C781 C787 1.428 . S
H782 C778 0.930 . S
H783 C780 0.929 1_556 S
S784 N785 1.613 . S
S784 N786 1.610 . S
N785 S784 1.613 . S
N785 C788 1.350 . S
N786 S784 1.610 . S
N786 C787 1.351 . S
C787 C781 1.428 . S
C787 N786 1.351 . S
C787 C788 1.434 . S
C788 C779 1.429 . S
C788 N785 1.350 . S
C788 C787 1.434 . S
C789 C790 1.369 . S
C789 C791 1.419 . S
C789 H793 0.941 . S
C790 C789 1.369 . S
C790 C799 1.429 . S
C791 C789 1.419 . S
C791 C792 1.363 . S
C791 H794 0.929 1_556 S
C792 C791 1.363 . S
C792 C798 1.428 . S
H793 C789 0.941 . S
H794 C791 0.929 1_554 S
S795 N796 1.613 . S
S795 N797 1.610 . S
N796 S795 1.613 . S
N796 C799 1.350 . S
N797 S795 1.610 . S
N797 C798 1.351 . S
C798 C792 1.428 . S
C798 N797 1.351 . S
C798 C799 1.434 . S
C799 C790 1.429 . S
C799 N796 1.350 . S
C799 C798 1.434 . S
C800 C801 1.369 . S
C800 C802 1.419 . S
C800 H804 0.930 . S
C801 C800 1.369 . S
C801 C810 1.429 . S
C802 C800 1.419 . S
C802 C803 1.363 . S
C802 H805 0.929 . S
C803 C802 1.363 . S
C803 C809 1.428 . S
H804 C800 0.930 . S
H805 C802 0.929 . S
S806 N807 1.613 1_554 S
S806 N808 1.610 . S
N807 S806 1.613 1_556 S
N807 C810 1.350 . S
N808 S806 1.610 . S
N808 C809 1.351 1_554 S
C809 C803 1.428 . S
C809 N808 1.351 1_556 S
C809 C810 1.434 . S
C810 C801 1.429 . S
C810 N807 1.350 . S
C810 C809 1.434 . S
C811 C812 1.369 . S
C811 C813 1.419 . S
C811 H815 0.930 . S
C812 C811 1.369 . S
C812 C821 1.429 . S
C813 C811 1.419 . S
C813 C814 1.363 . S
C813 H816 0.929 . S
C814 C813 1.363 . S
C814 C820 1.428 . S
H815 C811 0.930 . S
H816 C813 0.929 . S
S817 N818 1.613 . S
S817 N819 1.610 . S
N818 S817 1.613 . S
N818 C821 1.350 . S
N819 S817 1.610 . S
N819 C820 1.351 . S
C820 C814 1.428 . S
C820 N819 1.351 . S
C820 C821 1.434 . S
C821 C812 1.429 . S
C821 N818 1.350 . S
C821 C820 1.434 . S
C822 C823 1.369 . S
C822 C824 1.419 . S
C822 H826 0.930 . S
C823 C822 1.369 . S
C823 C832 1.429 . S
C824 C822 1.419 . S
C824 C825 1.363 . S
C824 H827 0.929 . S
C825 C824 1.363 . S
C825 C831 1.428 . S
H826 C822 0.930 . S
H827 C824 0.929 . S
S828 N829 1.613 . S
S828 N830 1.610 . S
N829 S828 1.613 . S
N829 C832 1.350 . S
N830 S828 1.610 . S
N830 C831 1.351 . S
C831 C825 1.428 . S
C831 N830 1.351 . S
C831 C832 1.434 . S
C832 C823 1.429 . S
C832 N829 1.350 . S
C832 C831 1.434 . S
C833 C834 1.369 . S
C833 C835 1.419 . S
C833 H837 0.930 . S
C834 C833 1.369 . S
C834 C843 1.429 . S
C835 C833 1.419 . S
C835 C836 1.363 . S
C835 H838 0.929 . S
C836 C835 1.363 . S
C836 C842 1.428 . S
H837 C833 0.930 . S
H838 C835 0.929 . S
S839 N840 1.613 . S
S839 N841 1.610 . S
N840 S839 1.613 . S
N840 C843 1.350 . S
N841 S839 1.610 . S
N841 C842 1.351 . S
C842 C836 1.428 . S
C842 N841 1.351 . S
C842 C843 1.434 . S
C843 C834 1.429 . S
C843 N840 1.350 . S
C843 C842 1.434 . S
C844 C845 1.369 . S
C844 C846 1.419 . S
C844 H848 0.930 . S
C845 C844 1.369 . S
C845 C854 1.429 . S
C846 C844 1.419 . S
C846 C847 1.363 . S
C846 H849 0.929 . S
C847 C846 1.363 . S
C847 C853 1.414 1_556 S
H848 C844 0.930 . S
H849 C846 0.929 . S
S850 N851 1.613 . S
S850 N852 1.610 . S
N851 S850 1.613 . S
N851 C854 1.350 1_554 S
N852 S850 1.610 . S
N852 C853 1.370 . S
C853 C847 1.414 1_554 S
C853 N852 1.370 . S
C853 C854 1.432 1_554 S
C854 C845 1.429 . S
C854 N851 1.350 1_556 S
C854 C853 1.432 1_556 S
C855 C856 1.369 . S
C855 C857 1.419 . S
C855 H859 0.930 . S
C856 C855 1.369 . S
C856 C865 1.429 . S
C857 C855 1.419 . S
C857 C858 1.363 . S
C857 H860 0.929 1_554 S
C858 C857 1.363 . S
C858 C864 1.428 . S
H859 C855 0.930 . S
H860 C857 0.929 1_556 S
S861 N862 1.613 . S
S861 N863 1.610 . S
N862 S861 1.613 . S
N862 C865 1.350 . S
N863 S861 1.610 . S
N863 C864 1.351 . S
C864 C858 1.428 . S
C864 N863 1.351 . S
C864 C865 1.434 . S
C865 C856 1.429 . S
C865 N862 1.350 . S
C865 C864 1.434 . S
C866 C867 1.369 . S
C866 C868 1.419 . S
C866 H870 0.930 . S
C867 C866 1.369 . S
C867 C876 1.429 . S
C868 C866 1.419 . S
C868 C869 1.363 . S
C868 H871 0.929 . S
C869 C868 1.363 . S
C869 C875 1.428 . S
H870 C866 0.930 . S
H871 C868 0.929 . S
S872 N873 1.613 . S
S872 N874 1.610 . S
N873 S872 1.613 . S
N873 C876 1.350 . S
N874 S872 1.610 . S
N874 C875 1.351 . S
C875 C869 1.428 . S
C875 N874 1.351 . S
C875 C876 1.434 . S
C876 C867 1.429 . S
C876 N873 1.350 . S
C876 C875 1.434 . S
C877 C878 1.369 . S
C877 C879 1.419 . S
C877 H881 0.930 . S
C878 C877 1.369 . S
C878 C887 1.429 . S
C879 C877 1.419 . S
C879 C880 1.363 . S
C879 H882 0.929 . S
C880 C879 1.363 . S
C880 C886 1.428 . S
H881 C877 0.930 . S
H882 C879 0.929 . S
S883 N884 1.613 1_556 S
S883 N885 1.610 . S
N884 S883 1.613 1_554 S
N884 C887 1.350 . S
N885 S883 1.610 . S
N885 C886 1.351 1_556 S
C886 C880 1.428 . S
C886 N885 1.351 1_554 S
C886 C887 1.434 . S
C887 C878 1.429 . S
C887 N884 1.350 . S
C887 C886 1.434 . S
C888 C889 1.369 1_455 S
C888 C890 1.419 . S
C888 H892 0.930 . S
C889 C888 1.369 1_655 S
C889 C898 1.429 . S
C890 C888 1.419 . S
C890 C891 1.363 . S
C890 H893 0.929 . S
C891 C890 1.363 . S
C891 C897 1.428 . S
H892 C888 0.930 . S
H893 C890 0.929 . S
S894 N895 1.614 1_455 S
S894 N896 1.609 . S
N895 S894 1.614 1_655 S
N895 C898 1.350 . S
N896 S894 1.609 . S
N896 C897 1.351 . S
C897 C891 1.428 . S
C897 N896 1.351 . S
C897 C898 1.434 1_455 S
C898 C889 1.429 . S
C898 N895 1.350 . S
C898 C897 1.434 1_655 S
C899 C900 1.369 . S
C899 C901 1.419 . S
C899 H903 0.930 . S
C900 C899 1.369 . S
C900 C909 1.429 . S
C901 C899 1.419 . S
C901 C902 1.363 . S
C901 H904 0.929 . S
C902 C901 1.363 . S
C902 C908 1.428 . S
H903 C899 0.930 . S
H904 C901 0.929 . S
S905 N906 1.613 . S
S905 N907 1.610 . S
N906 S905 1.613 . S
N906 C909 1.350 . S
N907 S905 1.610 . S
N907 C908 1.351 . S
C908 C902 1.428 . S
C908 N907 1.351 . S
C908 C909 1.434 . S
C909 C900 1.429 . S
C909 N906 1.350 . S
C909 C908 1.434 . S
C910 C911 1.369 1_565 S
C910 C912 1.419 . S
C910 H914 0.930 1_565 S
C911 C910 1.369 1_545 S
C911 C920 1.429 1_545 S
C912 C910 1.419 . S
C912 C913 1.363 . S
C912 H915 0.929 . S
C913 C912 1.363 . S
C913 C919 1.428 . S
H914 C910 0.930 1_545 S
H915 C912 0.929 . S
S916 N917 1.613 . S
S916 N918 1.610 . S
N917 S916 1.613 . S
N917 C920 1.350 . S
N918 S916 1.610 . S
N918 C919 1.351 . S
C919 C913 1.428 . S
C919 N918 1.351 . S
C919 C920 1.434 . S
C920 C911 1.429 1_565 S
C920 N917 1.350 . S
C920 C919 1.434 . S
C921 C922 1.369 . S
C921 C923 1.419 . S
C921 H925 0.930 . S
C922 C921 1.369 . S
C922 C931 1.429 . S
C923 C921 1.419 . S
C923 C924 1.363 . S
C923 H926 0.929 . S
C924 C923 1.363 . S
C924 C930 1.428 . S
H925 C921 0.930 . S
H926 C923 0.929 . S
S927 N928 1.613 . S
S927 N929 1.610 . S
N928 S927 1.613 . S
N928 C931 1.350 . S
N929 S927 1.610 . S
N929 C930 1.351 . S
C930 C924 1.428 . S
C930 N929 1.351 . S
C930 C931 1.434 . S
C931 C922 1.429 . S
C931 N928 1.350 . S
C931 C930 1.434 . S
C932 C933 1.369 . S
C932 C934 1.419 . S
C932 H936 0.930 . S
C933 C932 1.369 . S
C933 C942 1.429 . S
C934 C932 1.419 . S
C934 C935 1.363 . S
C934 H937 0.929 . S
C935 C934 1.363 . S
C935 C941 1.428 . S
H936 C932 0.930 . S
H937 C934 0.929 . S
S938 N939 1.613 . S
S938 N940 1.610 . S
N939 S938 1.613 . S
N939 C942 1.350 . S
N940 S938 1.610 . S
N940 C941 1.351 . S
C941 C935 1.428 . S
C941 N940 1.351 . S
C941 C942 1.434 . S
C942 C933 1.429 . S
C942 N939 1.350 . S
C942 C941 1.434 . S
C943 C944 1.369 . S
C943 C945 1.419 . S
C943 H947 0.930 . S
C944 C943 1.369 . S
C944 C953 1.429 . S
C945 C943 1.419 . S
C945 C946 1.363 . S
C945 H948 0.929 . S
C946 C945 1.363 . S
C946 C952 1.428 . S
H947 C943 0.930 . S
H948 C945 0.929 . S
S949 N950 1.613 . S
S949 N951 1.610 . S
N950 S949 1.613 . S
N950 C953 1.350 . S
N951 S949 1.610 . S
N951 C952 1.351 . S
C952 C946 1.428 . S
C952 N951 1.351 . S
C952 C953 1.434 . S
C953 C944 1.429 . S
C953 N950 1.350 . S
C953 C952 1.434 . S
C954 C955 1.369 . S
C954 C956 1.419 . S
C954 H958 0.930 . S
C955 C954 1.369 . S
C955 C964 1.429 . S
C956 C954 1.419 . S
C956 C957 1.363 . S
C956 H959 0.929 . S
C957 C956 1.363 . S
C957 C963 1.428 . S
H958 C954 0.930 . S
H959 C956 0.929 . S
S960 N961 1.613 . S
S960 N962 1.610 . S
N961 S960 1.613 . S
N961 C964 1.350 . S
N962 S960 1.610 . S
N962 C963 1.351 . S
C963 C957 1.428 . S
C963 N962 1.351 . S
C963 C964 1.434 . S
C964 C955 1.429 . S
C964 N961 1.350 . S
C964 C963 1.434 . S
C965 C966 1.369 . S
C965 C967 1.419 . S
C965 H969 0.930 . S
C966 C965 1.369 . S
C966 C975 1.429 . S
C967 C965 1.419 . S
C967 C968 1.363 . S
C967 H970 0.929 . S
C968 C967 1.363 . S
C968 C974 1.428 . S
H969 C965 0.930 . S
H970 C967 0.929 . S
S971 N972 1.613 . S
S971 N973 1.610 . S
N972 S971 1.613 . S
N972 C975 1.350 . S
N973 S971 1.610 . S
N973 C974 1.351 . S
C974 C968 1.428 . S
C974 N973 1.351 . S
C974 C975 1.434 . S
C975 C966 1.429 . S
C975 N972 1.350 . S
C975 C974 1.434 . S
C976 C977 1.369 . S
C976 C978 1.419 . S
C976 H980 0.930 . S
C977 C976 1.369 . S
C977 C986 1.429 . S
C978 C976 1.419 . S
C978 C979 1.363 . S
C978 H981 0.929 . S
C979 C978 1.363 . S
C979 C985 1.428 . S
H980 C976 0.930 . S
H981 C978 0.929 . S
S982 N983 1.613 . S
S982 N984 1.610 . S
N983 S982 1.613 . S
N983 C986 1.350 . S
N984 S982 1.610 . S
N984 C985 1.351 . S
C985 C979 1.428 . S
C985 N984 1.351 . S
C985 C986 1.434 . S
C986 C977 1.429 . S
C986 N983 1.350 . S
C986 C985 1.434 . S
C987 C988 1.369 1_565 S
C987 C989 1.419 . S
C987 H991 0.930 . S
C988 C987 1.369 1_545 S
C988 C997 1.429 1_545 S
C989 C987 1.419 . S
C989 C990 1.363 . S
C989 H992 0.929 . S
C990 C989 1.363 . S
C990 C996 1.428 . S
H991 C987 0.930 . S
H992 C989 0.929 . S
S993 N994 1.613 1_565 S
S993 N995 1.610 . S
N994 S993 1.613 1_545 S
N994 C997 1.350 1_545 S
N995 S993 1.610 . S
N995 C996 1.351 . S
C996 C990 1.428 . S
C996 N995 1.351 . S
C996 C997 1.434 . S
C997 C988 1.429 1_565 S
C997 N994 1.350 1_565 S
C997 C996 1.434 . S
C998 C999 1.369 1_455 S
C998 C1000 1.419 . S
C998 H1002 0.930 1_455 S
C999 C998 1.369 1_655 S
C999 C1008 1.429 1_655 S
C1000 C998 1.419 . S
C1000 C1001 1.363 . S
C1000 H1003 0.929 . S
C1001 C1000 1.363 . S
C1001 C1007 1.428 . S
H1002 C998 0.930 1_655 S
H1003 C1000 0.929 . S
S1004 N1005 1.613 . S
S1004 N1006 1.610 . S
N1005 S1004 1.613 . S
N1005 C1008 1.350 . S
N1006 S1004 1.610 . S
N1006 C1007 1.351 . S
C1007 C1001 1.428 . S
C1007 N1006 1.351 . S
C1007 C1008 1.434 . S
C1008 C999 1.429 1_455 S
C1008 N1005 1.350 . S
C1008 C1007 1.434 . S
C1009 C1010 1.369 . S
C1009 C1011 1.419 . S
C1009 H1013 0.930 . S
C1010 C1009 1.369 . S
C1010 C1019 1.429 . S
C1011 C1009 1.419 . S
C1011 C1012 1.363 . S
C1011 H1014 0.929 . S
C1012 C1011 1.363 . S
C1012 C1018 1.428 . S
H1013 C1009 0.930 . S
H1014 C1011 0.929 . S
S1015 N1016 1.613 . S
S1015 N1017 1.610 . S
N1016 S1015 1.613 . S
N1016 C1019 1.350 . S
N1017 S1015 1.610 . S
N1017 C1018 1.351 . S
C1018 C1012 1.428 . S
C1018 N1017 1.351 . S
C1018 C1019 1.434 . S
C1019 C1010 1.429 . S
C1019 N1016 1.350 . S
C1019 C1018 1.434 . S
C1020 C1021 1.369 . S
C1020 C1022 1.419 . S
C1020 H1024 0.930 . S
C1021 C1020 1.369 . S
C1021 C1030 1.429 . S
C1022 C1020 1.419 . S
C1022 C1023 1.363 . S
C1022 H1025 0.929 . S
C1023 C1022 1.363 . S
C1023 C1029 1.428 . S
H1024 C1020 0.930 . S
H1025 C1022 0.929 . S
S1026 N1027 1.613 . S
S1026 N1028 1.610 . S
N1027 S1026 1.613 . S
N1027 C1030 1.350 . S
N1028 S1026 1.610 . S
N1028 C1029 1.351 . S
C1029 C1023 1.428 . S
C1029 N1028 1.351 . S
C1029 C1030 1.434 . S
C1030 C1021 1.429 . S
C1030 N1027 1.350 . S
C1030 C1029 1.434 . S
C1031 C1032 1.369 . S
C1031 C1033 1.419 . S
C1031 H1035 0.930 . S
C1032 C1031 1.369 . S
C1032 C1041 1.429 . S
C1033 C1031 1.419 . S
C1033 C1034 1.363 . S
C1033 H1036 0.929 . S
C1034 C1033 1.363 . S
C1034 C1040 1.428 . S
H1035 C1031 0.930 . S
H1036 C1033 0.929 . S
S1037 N1038 1.613 . S
S1037 N1039 1.610 . S
N1038 S1037 1.613 . S
N1038 C1041 1.350 . S
N1039 S1037 1.610 . S
N1039 C1040 1.351 . S
C1040 C1034 1.428 . S
C1040 N1039 1.351 . S
C1040 C1041 1.434 . S
C1041 C1032 1.429 . S
C1041 N1038 1.350 . S
C1041 C1040 1.434 . S
C1042 C1043 1.369 . S
C1042 C1044 1.419 . S
C1042 H1046 0.930 . S
C1043 C1042 1.369 . S
C1043 C1052 1.429 . S
C1044 C1042 1.419 . S
C1044 C1045 1.363 . S
C1044 H1047 0.929 . S
C1045 C1044 1.363 . S
C1045 C1051 1.428 . S
H1046 C1042 0.930 . S
H1047 C1044 0.929 . S
S1048 N1049 1.613 . S
S1048 N1050 1.610 . S
N1049 S1048 1.613 . S
N1049 C1052 1.350 . S
N1050 S1048 1.610 . S
N1050 C1051 1.351 . S
C1051 C1045 1.428 . S
C1051 N1050 1.351 . S
C1051 C1052 1.434 . S
C1052 C1043 1.429 . S
C1052 N1049 1.350 . S
C1052 C1051 1.434 . S
C1053 C1054 1.369 1_545 S
C1053 C1055 1.419 . S
C1053 H1057 0.930 1_545 S
C1054 C1053 1.369 1_565 S
C1054 C1063 1.429 1_565 S
C1055 C1053 1.419 . S
C1055 C1056 1.363 . S
C1055 H1058 0.929 . S
C1056 C1055 1.363 . S
C1056 C1062 1.428 . S
H1057 C1053 0.930 1_565 S
H1058 C1055 0.929 . S
S1059 N1060 1.613 . S
S1059 N1061 1.610 . S
N1060 S1059 1.613 . S
N1060 C1063 1.350 . S
N1061 S1059 1.610 . S
N1061 C1062 1.351 . S
C1062 C1056 1.428 . S
C1062 N1061 1.351 . S
C1062 C1063 1.434 . S
C1063 C1054 1.429 1_545 S
C1063 N1060 1.350 . S
C1063 C1062 1.434 . S
C1064 C1065 1.369 1_655 S
C1064 C1066 1.419 . S
C1064 H1068 0.930 . S
C1065 C1064 1.369 1_455 S
C1065 C1074 1.429 . S
C1066 C1064 1.419 . S
C1066 C1067 1.363 . S
C1066 H1069 0.929 . S
C1067 C1066 1.363 . S
C1067 C1073 1.428 . S
H1068 C1064 0.930 . S
H1069 C1066 0.929 . S
S1070 N1071 1.613 . S
S1070 N1072 1.610 1_455 S
N1071 S1070 1.613 . S
N1071 C1074 1.350 . S
N1072 S1070 1.610 1_655 S
N1072 C1073 1.351 . S
C1073 C1067 1.428 . S
C1073 N1072 1.351 . S
C1073 C1074 1.434 1_655 S
C1074 C1065 1.429 . S
C1074 N1071 1.350 . S
C1074 C1073 1.434 1_455 S
C1075 C1076 1.369 . S
C1075 C1077 1.419 . S
C1075 H1079 0.930 . S
C1076 C1075 1.369 . S
C1076 C1085 1.429 . S
C1077 C1075 1.419 . S
C1077 C1078 1.363 . S
C1077 H1080 0.929 . S
C1078 C1077 1.363 . S
C1078 C1084 1.428 . S
H1079 C1075 0.930 . S
H1080 C1077 0.929 . S
S1081 N1082 1.613 . S
S1081 N1083 1.610 . S
N1082 S1081 1.613 . S
N1082 C1085 1.350 . S
N1083 S1081 1.610 . S
N1083 C1084 1.351 . S
C1084 C1078 1.428 . S
C1084 N1083 1.351 . S
C1084 C1085 1.434 . S
C1085 C1076 1.429 . S
C1085 N1082 1.350 . S
C1085 C1084 1.434 . S
C1086 C1087 1.369 1_655 S
C1086 C1088 1.419 . S
C1086 H1090 0.930 . S
C1087 C1086 1.369 1_455 S
C1087 C1096 1.429 . S
C1088 C1086 1.419 . S
C1088 C1089 1.363 . S
C1088 H1091 0.929 . S
C1089 C1088 1.363 . S
C1089 C1095 1.428 . S
H1090 C1086 0.930 . S
H1091 C1088 0.929 . S
S1092 N1093 1.613 . S
S1092 N1094 1.610 1_455 S
N1093 S1092 1.613 . S
N1093 C1096 1.350 . S
N1094 S1092 1.610 1_655 S
N1094 C1095 1.351 . S
C1095 C1089 1.428 . S
C1095 N1094 1.351 . S
C1095 C1096 1.434 1_655 S
C1096 C1087 1.429 . S
C1096 N1093 1.350 . S
C1096 C1095 1.434 1_455 S
C1097 C1098 1.369 . S
C1097 C1099 1.419 . S
C1097 H1101 0.930 . S
C1098 C1097 1.369 . S
C1098 C1107 1.429 . S
C1099 C1097 1.419 . S
C1099 C1100 1.363 . S
C1099 H1102 0.929 . S
C1100 C1099 1.363 . S
C1100 C1106 1.428 . S
H1101 C1097 0.930 . S
H1102 C1099 0.929 . S
S1103 N1104 1.613 . S
S1103 N1105 1.610 . S
N1104 S1103 1.613 . S
N1104 C1107 1.350 . S
N1105 S1103 1.610 . S
N1105 C1106 1.351 . S
C1106 C1100 1.428 . S
C1106 N1105 1.351 . S
C1106 C1107 1.434 . S
C1107 C1098 1.429 . S
C1107 N1104 1.350 . S
C1107 C1106 1.434 . S
C1108 C1109 1.369 1_545 S
C1108 C1110 1.419 . S
C1108 H1112 0.930 1_545 S
C1109 C1108 1.369 1_565 S
C1109 C1118 1.429 1_565 S
C1110 C1108 1.419 . S
C1110 C1111 1.363 . S
C1110 H1113 0.929 . S
C1111 C1110 1.363 . S
C1111 C1117 1.428 . S
H1112 C1108 0.930 1_565 S
H1113 C1110 0.929 . S
S1114 N1115 1.632 . S
S1114 N1116 1.610 . S
N1115 S1114 1.632 . S
N1115 C1118 1.350 . S
N1116 S1114 1.610 . S
N1116 C1117 1.351 . S
C1117 C1111 1.428 . S
C1117 N1116 1.351 . S
C1117 C1118 1.434 . S
C1118 C1109 1.429 1_545 S
C1118 N1115 1.350 . S
C1118 C1117 1.434 . S
C1119 C1120 1.369 . S
C1119 C1121 1.419 . S
C1119 H1123 0.930 . S
C1120 C1119 1.369 . S
C1120 C1129 1.429 . S
C1121 C1119 1.419 . S
C1121 C1122 1.363 . S
C1121 H1124 0.929 . S
C1122 C1121 1.363 . S
C1122 C1128 1.428 . S
H1123 C1119 0.930 . S
H1124 C1121 0.929 . S
S1125 N1126 1.613 . S
S1125 N1127 1.610 . S
N1126 S1125 1.613 . S
N1126 C1129 1.350 . S
N1127 S1125 1.610 . S
N1127 C1128 1.351 . S
C1128 C1122 1.428 . S
C1128 N1127 1.351 . S
C1128 C1129 1.434 . S
C1129 C1120 1.429 . S
C1129 N1126 1.350 . S
C1129 C1128 1.434 . S
C1130 C1131 1.369 . S
C1130 C1132 1.419 . S
C1130 H1134 0.930 . S
C1131 C1130 1.369 . S
C1131 C1140 1.429 . S
C1132 C1130 1.419 . S
C1132 C1133 1.363 . S
C1132 H1135 0.929 . S
C1133 C1132 1.363 . S
C1133 C1139 1.428 . S
H1134 C1130 0.930 . S
H1135 C1132 0.929 . S
S1136 N1137 1.613 . S
S1136 N1138 1.610 . S
N1137 S1136 1.613 . S
N1137 C1140 1.350 . S
N1138 S1136 1.610 . S
N1138 C1139 1.351 . S
C1139 C1133 1.428 . S
C1139 N1138 1.351 . S
C1139 C1140 1.434 . S
C1140 C1131 1.429 . S
C1140 N1137 1.350 . S
C1140 C1139 1.434 . S
C1141 C1142 1.369 . S
C1141 C1143 1.419 . S
C1141 H1145 0.930 . S
C1142 C1141 1.369 . S
C1142 C1151 1.429 . S
C1143 C1141 1.419 . S
C1143 C1144 1.363 . S
C1143 H1146 0.929 . S
C1144 C1143 1.363 . S
C1144 C1150 1.428 . S
H1145 C1141 0.930 . S
H1146 C1143 0.929 . S
S1147 N1148 1.613 . S
S1147 N1149 1.610 . S
N1148 S1147 1.613 . S
N1148 C1151 1.350 . S
N1149 S1147 1.610 . S
N1149 C1150 1.351 . S
C1150 C1144 1.428 . S
C1150 N1149 1.351 . S
C1150 C1151 1.434 . S
C1151 C1142 1.429 . S
C1151 N1148 1.350 . S
C1151 C1150 1.434 . S
C1152 C1153 1.369 . S
C1152 C1154 1.419 1_565 S
C1152 H1156 0.930 1_565 S
C1153 C1152 1.369 . S
C1153 C1162 1.429 . S
C1154 C1152 1.419 1_545 S
C1154 C1155 1.363 1_545 S
C1154 H1157 0.929 . S
C1155 C1154 1.363 1_565 S
C1155 C1161 1.428 . S
H1156 C1152 0.930 1_545 S
H1157 C1154 0.929 . S
S1158 N1159 1.613 . S
S1158 N1160 1.610 . S
N1159 S1158 1.613 . S
N1159 C1162 1.350 . S
N1160 S1158 1.610 . S
N1160 C1161 1.351 . S
C1161 C1155 1.428 . S
C1161 N1160 1.351 . S
C1161 C1162 1.434 . S
C1162 C1153 1.429 . S
C1162 N1159 1.350 . S
C1162 C1161 1.434 . S
C1163 C1164 1.369 . S
C1163 C1165 1.419 . S
C1163 H1167 0.930 . S
C1164 C1163 1.369 . S
C1164 C1173 1.429 . S
C1165 C1163 1.419 . S
C1165 C1166 1.363 . S
C1165 H1168 0.929 1_455 S
C1166 C1165 1.363 . S
C1166 C1172 1.428 . S
H1167 C1163 0.930 . S
H1168 C1165 0.929 1_655 S
S1169 N1170 1.613 . S
S1169 N1171 1.610 . S
N1170 S1169 1.613 . S
N1170 C1173 1.350 . S
N1171 S1169 1.610 . S
N1171 C1172 1.351 . S
C1172 C1166 1.428 . S
C1172 N1171 1.351 . S
C1172 C1173 1.434 . S
C1173 C1164 1.429 . S
C1173 N1170 1.350 . S
C1173 C1172 1.434 . S
C1174 C1175 1.369 . S
C1174 C1176 1.419 . S
C1174 H1178 0.930 . S
C1175 C1174 1.369 . S
C1175 C1184 1.429 . S
C1176 C1174 1.419 . S
C1176 C1177 1.363 . S
C1176 H1179 0.929 . S
C1177 C1176 1.363 . S
C1177 C1183 1.428 . S
H1178 C1174 0.930 . S
H1179 C1176 0.929 . S
S1180 N1181 1.613 . S
S1180 N1182 1.610 . S
N1181 S1180 1.613 . S
N1181 C1184 1.350 . S
N1182 S1180 1.610 . S
N1182 C1183 1.351 . S
C1183 C1177 1.428 . S
C1183 N1182 1.351 . S
C1183 C1184 1.434 . S
C1184 C1175 1.429 . S
C1184 N1181 1.350 . S
C1184 C1183 1.434 . S
C1185 C1186 1.369 . S
C1185 C1187 1.419 . S
C1185 H1189 0.932 1_655 S
C1186 C1185 1.369 . S
C1186 C1195 1.429 . S
C1187 C1185 1.419 . S
C1187 C1188 1.363 . S
C1187 H1190 0.929 1_655 S
C1188 C1187 1.363 . S
C1188 C1194 1.428 . S
H1189 C1185 0.932 1_455 S
H1190 C1187 0.929 1_455 S
S1191 N1192 1.613 . S
S1191 N1193 1.610 . S
N1192 S1191 1.613 . S
N1192 C1195 1.350 . S
N1193 S1191 1.610 . S
N1193 C1194 1.351 . S
C1194 C1188 1.428 . S
C1194 N1193 1.351 . S
C1194 C1195 1.434 . S
C1195 C1186 1.429 . S
C1195 N1192 1.350 . S
C1195 C1194 1.434 . S
C1196 C1197 1.369 . S
C1196 C1198 1.419 . S
C1196 H1200 0.930 . S
C1197 C1196 1.369 . S
C1197 C1206 1.429 . S
C1198 C1196 1.419 . S
C1198 C1199 1.363 . S
C1198 H1201 0.929 . S
C1199 C1198 1.363 . S
C1199 C1205 1.428 . S
H1200 C1196 0.930 . S
H1201 C1198 0.929 . S
S1202 N1203 1.613 . S
S1202 N1204 1.610 . S
N1203 S1202 1.613 . S
N1203 C1206 1.350 . S
N1204 S1202 1.610 . S
N1204 C1205 1.351 . S
C1205 C1199 1.428 . S
C1205 N1204 1.351 . S
C1205 C1206 1.434 . S
C1206 C1197 1.429 . S
C1206 N1203 1.350 . S
C1206 C1205 1.434 . S
C1207 C1208 1.369 . S
C1207 C1209 1.419 1_545 S
C1207 H1211 0.930 1_545 S
C1208 C1207 1.369 . S
C1208 C1217 1.429 . S
C1209 C1207 1.419 1_565 S
C1209 C1210 1.363 1_565 S
C1209 H1212 0.929 . S
C1210 C1209 1.363 1_545 S
C1210 C1216 1.428 . S
H1211 C1207 0.930 1_565 S
H1212 C1209 0.929 . S
S1213 N1214 1.613 . S
S1213 N1215 1.610 . S
N1214 S1213 1.613 . S
N1214 C1217 1.350 . S
N1215 S1213 1.610 . S
N1215 C1216 1.351 . S
C1216 C1210 1.428 . S
C1216 N1215 1.351 . S
C1216 C1217 1.434 . S
C1217 C1208 1.429 . S
C1217 N1214 1.350 . S
C1217 C1216 1.434 . S
C1218 C1219 1.369 . S
C1218 C1220 1.419 . S
C1218 H1222 0.930 . S
C1219 C1218 1.369 . S
C1219 C1228 1.429 . S
C1220 C1218 1.419 . S
C1220 C1221 1.363 . S
C1220 H1223 0.929 . S
C1221 C1220 1.363 . S
C1221 C1227 1.428 . S
H1222 C1218 0.930 . S
H1223 C1220 0.929 . S
S1224 N1225 1.613 . S
S1224 N1226 1.610 . S
N1225 S1224 1.613 . S
N1225 C1228 1.350 . S
N1226 S1224 1.610 . S
N1226 C1227 1.351 . S
C1227 C1221 1.428 . S
C1227 N1226 1.351 . S
C1227 C1228 1.434 . S
C1228 C1219 1.429 . S
C1228 N1225 1.350 . S
C1228 C1227 1.434 . S
C1229 C1230 1.369 . S
C1229 C1231 1.419 . S
C1229 H1233 0.930 . S
C1230 C1229 1.369 . S
C1230 C1239 1.429 . S
C1231 C1229 1.419 . S
C1231 C1232 1.363 . S
C1231 H1234 0.929 . S
C1232 C1231 1.363 . S
C1232 C1238 1.428 . S
H1233 C1229 0.930 . S
H1234 C1231 0.929 . S
S1235 N1236 1.613 . S
S1235 N1237 1.610 . S
N1236 S1235 1.613 . S
N1236 C1239 1.350 . S
N1237 S1235 1.610 . S
N1237 C1238 1.351 . S
C1238 C1232 1.428 . S
C1238 N1237 1.351 . S
C1238 C1239 1.434 . S
C1239 C1230 1.429 . S
C1239 N1236 1.350 . S
C1239 C1238 1.434 . S
C1240 C1241 1.369 . S
C1240 C1242 1.419 . S
C1240 H1244 0.930 . S
C1241 C1240 1.369 . S
C1241 C1250 1.429 . S
C1242 C1240 1.419 . S
C1242 C1243 1.363 . S
C1242 H1245 0.929 . S
C1243 C1242 1.363 . S
C1243 C1249 1.428 . S
H1244 C1240 0.930 . S
H1245 C1242 0.929 . S
S1246 N1247 1.613 . S
S1246 N1248 1.610 . S
N1247 S1246 1.613 . S
N1247 C1250 1.350 . S
N1248 S1246 1.610 . S
N1248 C1249 1.351 . S
C1249 C1243 1.428 . S
C1249 N1248 1.351 . S
C1249 C1250 1.434 . S
C1250 C1241 1.429 . S
C1250 N1247 1.350 . S
C1250 C1249 1.434 . S
C1251 C1252 1.369 . S
C1251 C1253 1.419 . S
C1251 H1255 0.930 . S
C1252 C1251 1.369 . S
C1252 C1261 1.429 . S
C1253 C1251 1.419 . S
C1253 C1254 1.363 . S
C1253 H1256 0.929 . S
C1254 C1253 1.363 . S
C1254 C1260 1.428 . S
H1255 C1251 0.930 . S
H1256 C1253 0.929 . S
S1257 N1258 1.613 . S
S1257 N1259 1.610 . S
N1258 S1257 1.613 . S
N1258 C1261 1.350 . S
N1259 S1257 1.610 . S
N1259 C1260 1.351 . S
C1260 C1254 1.428 . S
C1260 N1259 1.351 . S
C1260 C1261 1.434 . S
C1261 C1252 1.429 . S
C1261 N1258 1.350 . S
C1261 C1260 1.434 . S
C1262 C1263 1.369 . S
C1262 C1264 1.419 . S
C1262 H1266 0.930 . S
C1263 C1262 1.369 . S
C1263 C1272 1.429 . S
C1264 C1262 1.419 . S
C1264 C1265 1.363 . S
C1264 H1267 0.929 . S
C1265 C1264 1.363 . S
C1265 C1271 1.428 . S
H1266 C1262 0.930 . S
H1267 C1264 0.929 . S
S1268 N1269 1.613 . S
S1268 N1270 1.610 . S
N1269 S1268 1.613 . S
N1269 C1272 1.350 . S
N1270 S1268 1.610 . S
N1270 C1271 1.351 . S
C1271 C1265 1.428 . S
C1271 N1270 1.351 . S
C1271 C1272 1.434 . S
C1272 C1263 1.429 . S
C1272 N1269 1.350 . S
C1272 C1271 1.434 . S
C1273 C1274 1.369 . S
C1273 C1275 1.419 . S
C1273 H1277 0.930 . S
C1274 C1273 1.369 . S
C1274 C1283 1.429 . S
C1275 C1273 1.419 . S
C1275 C1276 1.363 . S
C1275 H1278 0.929 . S
C1276 C1275 1.363 . S
C1276 C1282 1.428 . S
H1277 C1273 0.930 . S
H1278 C1275 0.929 . S
S1279 N1280 1.613 . S
S1279 N1281 1.610 . S
N1280 S1279 1.613 . S
N1280 C1283 1.350 . S
N1281 S1279 1.610 . S
N1281 C1282 1.351 . S
C1282 C1276 1.428 . S
C1282 N1281 1.351 . S
C1282 C1283 1.434 . S
C1283 C1274 1.429 . S
C1283 N1280 1.350 . S
C1283 C1282 1.434 . S
C1284 C1285 1.369 . S
C1284 C1286 1.419 . S
C1284 H1288 0.930 . S
C1285 C1284 1.369 . S
C1285 C1294 1.429 . S
C1286 C1284 1.419 . S
C1286 C1287 1.363 . S
C1286 H1289 0.929 . S
C1287 C1286 1.363 . S
C1287 C1293 1.428 . S
H1288 C1284 0.930 . S
H1289 C1286 0.929 . S
S1290 N1291 1.613 . S
S1290 N1292 1.610 . S
N1291 S1290 1.613 . S
N1291 C1294 1.350 . S
N1292 S1290 1.610 . S
N1292 C1293 1.351 . S
C1293 C1287 1.428 . S
C1293 N1292 1.351 . S
C1293 C1294 1.434 . S
C1294 C1285 1.429 . S
C1294 N1291 1.350 . S
C1294 C1293 1.434 . S
C1295 C1296 1.369 . S
C1295 C1297 1.419 . S
C1295 H1299 0.930 . S
C1296 C1295 1.369 . S
C1296 C1305 1.429 . S
C1297 C1295 1.419 . S
C1297 C1298 1.363 . S
C1297 H1300 0.929 . S
C1298 C1297 1.363 . S
C1298 C1304 1.428 . S
H1299 C1295 0.930 . S
H1300 C1297 0.929 . S
S1301 N1302 1.613 . S
S1301 N1303 1.610 . S
N1302 S1301 1.613 . S
N1302 C1305 1.350 . S
N1303 S1301 1.610 . S
N1303 C1304 1.351 . S
C1304 C1298 1.428 . S
C1304 N1303 1.351 . S
C1304 C1305 1.434 . S
C1305 C1296 1.429 . S
C1305 N1302 1.350 . S
C1305 C1304 1.434 . S
C1306 C1307 1.369 . S
C1306 C1308 1.419 . S
C1306 H1310 0.930 . S
C1307 C1306 1.369 . S
C1307 C1316 1.429 . S
C1308 C1306 1.419 . S
C1308 C1309 1.363 . S
C1308 H1311 0.929 . S
C1309 C1308 1.363 . S
C1309 C1315 1.428 . S
H1310 C1306 0.930 . S
H1311 C1308 0.929 . S
S1312 N1313 1.613 . S
S1312 N1314 1.610 . S
N1313 S1312 1.613 . S
N1313 C1316 1.350 . S
N1314 S1312 1.610 . S
N1314 C1315 1.351 . S
C1315 C1309 1.428 . S
C1315 N1314 1.351 . S
C1315 C1316 1.434 . S
C1316 C1307 1.429 . S
C1316 N1313 1.350 . S
C1316 C1315 1.434 . S
C1317 C1318 1.369 . S
C1317 C1319 1.419 . S
C1317 H1321 0.930 . S
C1318 C1317 1.369 . S
C1318 C1327 1.429 . S
C1319 C1317 1.419 . S
C1319 C1320 1.363 . S
C1319 H1322 0.929 . S
C1320 C1319 1.363 . S
C1320 C1326 1.428 . S
H1321 C1317 0.930 . S
H1322 C1319 0.929 . S
S1323 N1324 1.613 . S
S1323 N1325 1.610 . S
N1324 S1323 1.613 . S
N1324 C1327 1.350 . S
N1325 S1323 1.610 . S
N1325 C1326 1.351 . S
C1326 C1320 1.428 . S
C1326 N1325 1.351 . S
C1326 C1327 1.434 . S
C1327 C1318 1.429 . S
C1327 N1324 1.350 . S
C1327 C1326 1.434 . S
C1328 C1329 1.369 . S
C1328 C1330 1.419 . S
C1328 H1332 0.930 . S
C1329 C1328 1.369 . S
C1329 C1338 1.429 . S
C1330 C1328 1.419 . S
C1330 C1331 1.363 . S
C1330 H1333 0.929 . S
C1331 C1330 1.363 . S
C1331 C1337 1.428 . S
H1332 C1328 0.930 . S
H1333 C1330 0.929 . S
S1334 N1335 1.613 . S
S1334 N1336 1.610 . S
N1335 S1334 1.613 . S
N1335 C1338 1.350 . S
N1336 S1334 1.610 . S
N1336 C1337 1.351 . S
C1337 C1331 1.428 . S
C1337 N1336 1.351 . S
C1337 C1338 1.434 . S
C1338 C1329 1.429 . S
C1338 N1335 1.350 . S
C1338 C1337 1.434 . S
C1339 C1340 1.369 . S
C1339 C1341 1.419 . S
C1339 H1343 0.930 . S
C1340 C1339 1.369 . S
C1340 C1349 1.429 . S
C1341 C1339 1.419 . S
C1341 C1342 1.363 . S
C1341 H1344 0.929 . S
C1342 C1341 1.363 . S
C1342 C1348 1.428 . S
H1343 C1339 0.930 . S
H1344 C1341 0.929 . S
S1345 N1346 1.613 . S
S1345 N1347 1.610 . S
N1346 S1345 1.613 . S
N1346 C1349 1.350 . S
N1347 S1345 1.610 . S
N1347 C1348 1.351 . S
C1348 C1342 1.428 . S
C1348 N1347 1.351 . S
C1348 C1349 1.434 . S
C1349 C1340 1.429 . S
C1349 N1346 1.350 . S
C1349 C1348 1.434 . S
C757 C439 1.457 . S
C759 C582 1.524 . S
C768 C465 1.534 . S
C770 C602 1.495 . S
C779 C401 1.565 . S
C781 C625 1.538 . S
C790 C369 1.493 . S
C792 C605 1.472 . S
C803 C622 1.488 . S
C801 C305 1.504 . S
C812 C343 1.406 . S
C814 C585 1.480 . S
C825 C592 1.545 . S
C823 C375 1.591 . S
C836 C612 1.469 . S
C834 C311 1.511 . S
C845 C337 1.482 . S
C847 C617 1.534 . S
C856 C433 1.409 . S
C858 C597 1.471 . S
C867 C471 1.484 . S
C869 C632 1.461 . S
C880 C577 1.504 . S
C878 C407 1.533 . S
C891 C642 1.518 . S
C889 C55 1.467 . S
C900 C81 1.532 . S
C902 C662 1.490 . S
C911 C17 1.565 . S
C913 C685 1.537 . S
C922 C561 1.492 . S
C924 C665 1.469 . S
C933 C497 1.508 . S
C935 C682 1.492 . S
C944 C535 1.416 . S
C946 C645 1.476 . S
C955 C567 1.591 . S
C957 C652 1.544 . S
C966 C503 1.512 . S
C968 C672 1.470 . S
C979 C677 1.538 . S
C977 C529 1.474 . S
C988 C49 1.420 . S
C990 C657 1.466 . S
C1001 C692 1.465 . S
C999 C87 1.486 . S
C1010 C23 1.533 . S
C1012 C637 1.505 . S
C1023 C702 1.519 . S
C1021 C247 1.464 . S
C1032 C273 1.533 . S
C1034 C722 1.492 . S
C1045 C745 1.534 . S
C1043 C209 1.566 . S
C1056 C725 1.472 . S
C1054 C177 1.493 . S
C1067 C742 1.489 . S
C1065 C113 1.504 . S
C1076 C151 1.409 . S
C1078 C705 1.480 . S
C1087 C183 1.590 . S
C1089 C712 1.544 . S
C1098 C119 1.512 . S
C1100 C732 1.473 . S
C1111 C737 1.537 . S
C1109 C145 1.477 . S
C1120 C241 1.409 . S
C1122 C717 1.470 . S
C1131 C279 1.485 . S
C1133 C752 1.462 . S
C1142 C215 1.533 . S
C1144 C697 1.507 . S
C1153 C509 1.356 . S
C1155 C595 1.338 1_565 S
C1166 C615 1.542 . S
C1164 C541 1.526 . S
C1175 C573 1.515 . S
C1177 C624 1.460 . S
C1186 C221 1.646 . S
C1188 C604 1.572 . S
C1197 C253 1.415 . S
C1199 C635 1.429 . S
C1210 C584 1.327 1_545 S
C1208 C285 1.354 . S
C1219 C125 1.350 . S
C1221 C655 1.333 . S
C1230 C157 1.522 . S
C1232 C675 1.546 . S
C1241 C189 1.516 . S
C1243 C684 1.462 . S
C1252 C413 1.646 . S
C1254 C664 1.569 . S
C1265 C695 1.434 . S
C1263 C445 1.405 . S
C1274 C477 1.354 . S
C1276 C644 1.326 . S
C1285 C317 1.355 . S
C1287 C715 1.338 . S
C1296 C349 1.531 . S
C1298 C735 1.540 . S
C1309 C744 1.460 . S
C1307 C381 1.516 . S
C1318 C29 1.646 . S
C1320 C724 1.570 . S
C1329 C61 1.404 . S
C1331 C755 1.435 . S
C1340 C93 1.355 . S
C1342 C704 1.328 . S
