# Generated by pormake.
# Topology ssa, (4,4)-cn, num edge types: 1
# Building blocks:
#     Node 0, Type 0, BuildingBlock: ESEHIV_clean_sbu_0, # of connection points: 4
#     Node 1, Type 0, BuildingBlock: ESEHIV_clean_sbu_0, # of connection points: 4
#     Node 2, Type 0, BuildingBlock: ESEHIV_clean_sbu_0, # of connection points: 4
#     Node 3, Type 0, BuildingBlock: ESEHIV_clean_sbu_0, # of connection points: 4
#     Node 4, Type 0, BuildingBlock: ESEHIV_clean_sbu_0, # of connection points: 4
#     Node 5, Type 0, BuildingBlock: ESEHIV_clean_sbu_0, # of connection points: 4
#     Node 6, Type 1, BuildingBlock: GIZVER_clean_linker_0, # of connection points: 4
#     Node 7, Type 1, BuildingBlock: GIZVER_clean_linker_0, # of connection points: 4
#     Node 8, Type 1, BuildingBlock: GIZVER_clean_linker_0, # of connection points: 4
#     Node 9, Type 1, BuildingBlock: GIZVER_clean_linker_0, # of connection points: 4
#     Node 10, Type 1, BuildingBlock: GIZVER_clean_linker_0, # of connection points: 4
#     Node 11, Type 1, BuildingBlock: GIZVER_clean_linker_0, # of connection points: 4
#     Edge 12, Type (0, 1), BuildingBlock: OJICUG_clean_linker_0, # of connection points: 2
#     Edge 13, Type (0, 1), BuildingBlock: OJICUG_clean_linker_0, # of connection points: 2
#     Edge 14, Type (0, 1), BuildingBlock: OJICUG_clean_linker_0, # of connection points: 2
#     Edge 15, Type (0, 1), BuildingBlock: OJICUG_clean_linker_0, # of connection points: 2
#     Edge 16, Type (0, 1), BuildingBlock: OJICUG_clean_linker_0, # of connection points: 2
#     Edge 17, Type (0, 1), BuildingBlock: OJICUG_clean_linker_0, # of connection points: 2
#     Edge 18, Type (0, 1), BuildingBlock: OJICUG_clean_linker_0, # of connection points: 2
#     Edge 19, Type (0, 1), BuildingBlock: OJICUG_clean_linker_0, # of connection points: 2
#     Edge 20, Type (0, 1), BuildingBlock: OJICUG_clean_linker_0, # of connection points: 2
#     Edge 21, Type (0, 1), BuildingBlock: OJICUG_clean_linker_0, # of connection points: 2
#     Edge 22, Type (0, 1), BuildingBlock: OJICUG_clean_linker_0, # of connection points: 2
#     Edge 23, Type (0, 1), BuildingBlock: OJICUG_clean_linker_0, # of connection points: 2
#     Edge 24, Type (0, 1), BuildingBlock: OJICUG_clean_linker_0, # of connection points: 2
#     Edge 25, Type (0, 1), BuildingBlock: OJICUG_clean_linker_0, # of connection points: 2
#     Edge 26, Type (0, 1), BuildingBlock: OJICUG_clean_linker_0, # of connection points: 2
#     Edge 27, Type (0, 1), BuildingBlock: OJICUG_clean_linker_0, # of connection points: 2
#     Edge 28, Type (0, 1), BuildingBlock: OJICUG_clean_linker_0, # of connection points: 2
#     Edge 29, Type (0, 1), BuildingBlock: OJICUG_clean_linker_0, # of connection points: 2
#     Edge 30, Type (0, 1), BuildingBlock: OJICUG_clean_linker_0, # of connection points: 2
#     Edge 31, Type (0, 1), BuildingBlock: OJICUG_clean_linker_0, # of connection points: 2
#     Edge 32, Type (0, 1), BuildingBlock: OJICUG_clean_linker_0, # of connection points: 2
#     Edge 33, Type (0, 1), BuildingBlock: OJICUG_clean_linker_0, # of connection points: 2
#     Edge 34, Type (0, 1), BuildingBlock: OJICUG_clean_linker_0, # of connection points: 2
#     Edge 35, Type (0, 1), BuildingBlock: OJICUG_clean_linker_0, # of connection points: 2
# Relax obj value: 0.007
# Max RMSD: 0.108
# Mean RMSD: 0.064
data_MOF--net-ssa--node1-ESEHIV_clean_sbu_0--node2-GIZVER_clean_linker_0--edge1-OJICUG_clean_linker_0
_symmetry_space_group_name_H-M    P1
_symmetry_Int_Tables_number       1
_symmetry_cell_setting            triclinic
loop_
_symmetry_equiv_pos_as_xyz
'x, y, z'
_cell_length_a     38.370846
_cell_length_b     41.540542
_cell_length_c     23.726215
_cell_angle_alpha  87.322559
_cell_angle_beta   91.853187
_cell_angle_gamma 122.10562
loop_
_atom_site_label
_atom_site_type_symbol
_atom_site_fract_x
_atom_site_fract_y
_atom_site_fract_z
_atom_type_partial_charge
Cu0 Cu 0.05517 0.51099 0.03433 0.0
N1 N 1.04685 0.47696 -0.02087 0.0
N2 N 1.01179 0.42788 0.92221 0.0
C3 C 1.00982 0.44667 0.96577 0.0
C4 C 0.05201 0.4472 0.90809 0.0
C5 C 0.07352 0.47738 0.94327 0.0
O6 O 1.00127 0.50443 0.0434 0.0
C7 C 0.11707 0.51044 0.09404 0.0
O8 O 0.13364 0.52335 0.04408 0.0
H9 H 0.9819 0.43924 -0.01287 0.0
H10 H 0.10602 0.49875 0.94145 0.0
N11 N 0.09267 0.56148 0.0112 0.0
N12 N 0.141 0.62243 0.02306 0.0
C13 C 0.11067 0.59001 0.04736 0.0
C14 C 0.11267 0.57644 0.96202 0.0
C15 C 0.14301 0.61423 0.96949 0.0
C16 C 0.99438 0.52924 0.06011 0.0
O17 O 1.02415 0.55949 0.08465 0.0
H18 H 0.1036 0.58642 0.09189 0.0
H19 H 0.10713 0.5606 0.92439 0.0
O20 O 0.07991 0.5011 0.10091 0.0
H21 H 0.06488 0.44125 0.8731 0.0
H22 H 0.16556 0.63367 0.93886 0.0
Cu23 Cu 0.58662 0.03899 0.45091 0.0
N24 N 0.61315 0.02967 0.39527 0.0
N25 N 0.62281 0.9955 0.33431 0.0
C26 C 0.6036 0.99476 0.38163 0.0
C27 C 0.64567 0.03272 0.3181 0.0
C28 C 0.63952 0.05364 0.3556 0.0
O29 O 0.53507 0.991 0.46355 0.0
C30 C 0.65517 0.08602 0.51854 0.0
O31 O 0.6722 0.1017 0.4696 0.0
H32 H 0.58157 0.96926 0.40502 0.0
H33 H 0.65165 0.08385 0.35245 0.0
N34 N 0.57628 0.07671 0.42698 0.0
N35 N 0.56633 0.12472 0.43492 0.0
C36 C 0.58111 0.10441 0.45975 0.0
C37 C 0.55791 0.07957 0.37937 0.0
C38 C 0.55151 0.10911 0.38429 0.0
C39 C 0.50058 0.98715 0.47296 0.0
O40 O 0.49922 1.0174 0.48219 0.0
H41 H 0.59258 0.10781 0.50272 0.0
H42 H 0.54806 0.06037 0.34485 0.0
O43 O 0.61907 0.05639 0.51956 0.0
H44 H 0.66371 0.04404 0.28006 0.0
H45 H 0.53583 0.11748 0.35395 0.0
Cu46 Cu 0.48834 0.48011 -0.00905 0.0
N47 N 0.46293 0.43858 0.9433 0.0
N48 N 0.45732 0.39735 0.88033 0.0
C49 C 0.48135 0.43248 0.90122 0.0
C50 C 0.42212 0.38101 0.91004 0.0
C51 C 0.42576 0.40636 0.94895 0.0
O52 O 0.54589 0.49668 -0.00042 0.0
C53 C 0.42678 0.46424 0.06932 0.0
O54 O 0.40505 0.46123 0.02368 0.0
H55 H 0.51241 0.45307 0.88767 0.0
H56 H 0.40364 0.4009 -0.01908 0.0
N57 N 0.48908 0.52265 0.96013 0.0
N58 N 0.50073 0.58125 0.96476 0.0
C59 C 0.48584 0.54713 -0.00854 0.0
C60 C 0.50654 0.54195 0.91155 0.0
C61 C 0.51397 0.57827 0.91442 0.0
C62 C 0.55986 0.4749 0.00134 0.0
O63 O 0.53413 0.43786 0.00345 0.0
H64 H 0.47768 0.54177 0.03563 0.0
H65 H 0.5171 0.53176 0.87908 0.0
O66 O 0.46228 0.46914 0.06419 0.0
H67 H 0.39632 0.35213 0.90599 0.0
H68 H 0.53079 0.60152 0.88402 0.0
Cu69 Cu 0.05781 0.55943 0.5503 0.0
N70 N 0.09975 0.55116 0.57206 0.0
N71 N 0.15161 0.54293 0.55665 0.0
C72 C 0.13188 0.56047 0.53907 0.0
C73 C 0.13121 0.52171 0.60275 0.0
C74 C 0.09936 0.5271 0.61248 0.0
O75 O 0.0772 0.59179 0.4823 0.0
C76 C 0.98897 0.4903 0.58186 0.0
O77 O 1.00318 0.50422 0.63178 0.0
H78 H 0.13794 0.5764 0.49937 0.0
H79 H 0.07565 0.51197 0.6438 0.0
N80 N 1.04718 0.58362 0.60566 0.0
N81 N 1.01161 0.59685 0.66268 0.0
C82 C 1.01015 0.57805 0.617 0.0
C83 C 0.07301 0.60694 0.64533 0.0
C84 C 0.05116 0.61534 0.68043 0.0
C85 C 0.10628 0.62642 0.48679 0.0
O86 O 0.11915 0.63985 0.5373 0.0
H87 H 0.98227 0.55904 0.59393 0.0
H88 H 0.10503 0.61585 0.64981 0.0
O89 O 1.00819 0.5097 0.53789 0.0
H90 H 0.13709 0.50176 0.62522 0.0
H91 H 0.06279 0.63161 0.71827 0.0
Cu92 Cu 0.5146 1.02168 0.96629 0.0
N93 N 0.48603 0.04149 0.92926 0.0
N94 N 0.47498 0.07865 0.87035 0.0
C95 C 0.49421 0.0594 0.8782 0.0
C96 C 0.45381 0.07256 0.91795 0.0
C97 C 0.4607 0.04963 0.95423 0.0
O98 O 0.57242 0.06173 0.96885 0.0
C99 C 0.45212 0.97414 0.03954 0.0
O100 O 0.43184 0.96442 -0.00865 0.0
H101 H 0.51636 0.06084 0.84939 0.0
H102 H 0.45033 0.0417 -0.00265 0.0
N103 N 0.51248 0.98211 0.92882 0.0
N104 N 0.51982 0.93213 0.92873 0.0
C105 C 0.50424 0.94955 0.95562 0.0
C106 C 0.53371 0.98525 0.88264 0.0
C107 C 0.53851 0.95452 0.88266 0.0
C108 C 0.58503 0.09689 0.9699 0.0
O109 O 0.55864 0.10679 -0.01957 0.0
H110 H 0.49273 0.94177 -0.00173 0.0
H111 H 0.5491 1.01035 0.85507 0.0
O112 O 0.48999 1.00074 0.03937 0.0
H113 H 0.43598 0.085 0.92663 0.0
H114 H 0.55783 0.95103 0.8545 0.0
Cu115 Cu 0.62491 0.58048 0.49227 0.0
N116 N 0.64907 0.62265 0.44156 0.0
N117 N 0.65274 0.66455 0.37517 0.0
C118 C 0.6288 0.63688 0.41343 0.0
C119 C 0.68961 0.66769 0.37904 0.0
C120 C 0.68722 0.64178 0.41989 0.0
O121 O 0.56595 0.55909 0.49152 0.0
C122 C 0.68521 0.60553 0.58039 0.0
O123 O 0.71214 0.62063 0.53949 0.0
H124 H 0.59637 0.62558 0.41838 0.0
H125 H 0.7111 0.63622 0.43113 0.0
N126 N 0.63124 0.54189 0.46855 0.0
N127 N 0.62333 0.48462 0.47824 0.0
C128 C 0.62995 0.51544 0.50469 0.0
C129 C 0.62577 0.52773 0.41692 0.0
C130 C 0.62075 0.4922 0.42281 0.0
C131 C 0.54858 0.57647 0.50519 0.0
O132 O 0.57096 0.61048 0.52607 0.0
H133 H 0.62885 0.51684 0.54998 0.0
H134 H 0.62183 0.54062 0.37855 0.0
O135 O 0.64707 0.5905 0.56892 0.0
H136 H 0.7161 0.68665 0.35329 0.0
H137 H 0.61265 0.47238 0.38951 0.0
H138 H 0.27688 0.53368 0.22995 0.0
H139 H 0.30109 0.55414 0.40701 0.0
H140 H 0.17886 0.50916 0.34205 0.0
H141 H 0.34559 0.57862 0.26221 0.0
H142 H 0.3552 0.59125 0.33396 0.0
H143 H 0.34665 0.5235 0.22994 0.0
H144 H 0.4243 0.49684 0.32947 0.0
H145 H 0.37947 0.56146 0.39975 0.0
C146 C 0.26556 0.53171 0.27199 0.0
C147 C 0.22385 0.51926 0.27985 0.0
C148 C 0.29371 0.54446 0.3175 0.0
C149 C 0.27945 0.54284 0.37205 0.0
C150 C 0.23772 0.52886 0.38093 0.0
C151 C 0.21025 0.51704 0.33498 0.0
C152 C 0.33945 0.56643 0.30615 0.0
C153 C 0.3587 0.54284 0.31509 0.0
C154 C 0.36109 0.52332 0.26986 0.0
C155 C 0.38521 0.50695 0.27434 0.0
C156 C 0.4053 0.50892 0.32586 0.0
C157 C 0.40427 0.52913 0.37101 0.0
C158 C 0.37997 0.5452 0.36571 0.0
H159 H 0.75334 0.23087 0.66329 0.0
H160 H 0.74043 0.24605 0.8376 0.0
H161 H 0.68879 0.13356 0.77681 0.0
H162 H 0.75543 0.28893 0.69933 0.0
H163 H 0.7652 0.29882 0.77245 0.0
H164 H 0.81371 0.32495 0.6425 0.0
H165 H 0.93513 0.37172 0.71162 0.0
H166 H 0.83031 0.29794 0.81493 0.0
C167 C 0.74373 0.21874 0.70555 0.0
C168 C 0.72059 0.17899 0.71467 0.0
C169 C 0.75164 0.24314 0.74989 0.0
C170 C 0.73616 0.22747 0.80396 0.0
C171 C 0.7132 0.18786 0.81395 0.0
C172 C 0.70698 0.1641 0.76952 0.0
C173 C 0.77081 0.28525 0.73745 0.0
C174 C 0.8167 0.30591 0.72815 0.0
C175 C 0.83368 0.32575 0.6765 0.0
C176 C 0.87652 0.34907 0.67015 0.0
C177 C 0.90223 0.35166 0.71528 0.0
C178 C 0.88604 0.33408 0.7679 0.0
C179 C 0.84315 0.31061 0.7739 0.0
H180 H 0.51165 0.72399 0.09207 0.0
H181 H 0.57458 0.75619 0.25242 0.0
H182 H 0.58797 0.68166 0.1476 0.0
H183 H 0.48912 0.74892 0.16464 0.0
H184 H 0.51414 0.76092 0.23169 0.0
H185 H 0.52145 0.79391 0.08031 0.0
H186 H 0.58991 0.91157 0.12247 0.0
H187 H 0.56554 0.82562 0.25041 0.0
C188 C 0.53329 0.72387 0.12247 0.0
C189 C 0.55027 0.70187 0.11307 0.0
C190 C 0.54256 0.74418 0.17227 0.0
C191 C 0.56869 0.74182 0.21305 0.0
C192 C 0.58544 0.71939 0.2045 0.0
C193 C 0.5768 0.70037 0.15368 0.0
C194 C 0.51992 0.76358 0.18554 0.0
C195 C 0.54304 0.80512 0.16674 0.0
C196 C 0.53947 0.81567 0.11058 0.0
C197 C 0.55697 0.85415 0.0943 0.0
C198 C 0.5786 0.8821 0.13434 0.0
C199 C 0.5814 0.8722 0.19088 0.0
C200 C 0.56418 0.83361 0.20662 0.0
H201 H 0.80217 0.60869 0.78729 0.0
H202 H 0.76371 0.55978 0.95494 0.0
H203 H 0.67343 0.54351 0.82998 0.0
H204 H 0.84977 0.63518 0.86982 0.0
H205 H 0.83394 0.61324 0.93824 0.0
H206 H 0.86527 0.60296 0.79541 0.0
H207 H 0.91886 0.5411 0.86203 0.0
H208 H 0.85162 0.56817 0.9716 0.0
C209 C 0.77768 0.59154 0.81701 0.0
C210 C 0.73622 0.576 0.80026 0.0
C211 C 0.78793 0.58587 0.87279 0.0
C212 C 0.75627 0.56368 0.91169 0.0
C213 C 0.71509 0.54783 0.89539 0.0
C214 C 0.70541 0.55428 0.84038 0.0
C215 C 0.83231 0.60711 0.89275 0.0
C216 C 0.85335 0.58562 0.88365 0.0
C217 C 0.86922 0.58728 0.83018 0.0
C218 C 0.89236 0.57076 0.82236 0.0
C219 C 0.89901 0.55193 0.86783 0.0
C220 C 0.88502 0.5512 0.922 0.0
C221 C 0.86167 0.56774 0.92964 0.0
H222 H 0.35128 0.82579 0.19509 0.0
H223 H 0.35423 0.81481 0.37636 0.0
H224 H 0.40461 0.92503 0.29511 0.0
H225 H 0.34689 0.76896 0.24686 0.0
H226 H 0.33592 0.76118 0.32033 0.0
H227 H 0.29267 0.75336 0.1769 0.0
H228 H 0.16787 0.6862 0.23492 0.0
H229 H 0.26721 0.74138 0.35453 0.0
C230 C 0.35763 0.83852 0.23596 0.0
C231 C 0.37885 0.87827 0.23931 0.0
C232 C 0.34768 0.81522 0.28528 0.0
C233 C 0.3593 0.83218 0.33832 0.0
C234 C 0.37946 0.87184 0.34193 0.0
C235 C 0.38785 0.89433 0.29241 0.0
C236 C 0.33036 0.77318 0.2806 0.0
C237 C 0.2848 0.75126 0.26713 0.0
C238 C 0.2707 0.74282 0.21097 0.0
C239 C 0.22842 0.71943 0.19901 0.0
C240 C 0.20041 0.70499 0.24376 0.0
C241 C 0.21385 0.71216 0.3 0.0
C242 C 0.25616 0.73619 0.31128 0.0
H243 H 0.45607 0.27457 0.71737 0.0
H244 H 0.52512 0.30468 0.56366 0.0
H245 H 0.54652 0.39158 0.67624 0.0
H246 H 0.43391 0.22831 0.64572 0.0
H247 H 0.4535 0.24425 0.57624 0.0
H248 H 0.46487 0.20292 0.71187 0.0
H249 H 0.53685 0.16412 0.63925 0.0
H250 H 0.5067 0.2353 0.54032 0.0
C251 C 0.48009 0.29588 0.68994 0.0
C252 C 0.50121 0.33445 0.70397 0.0
C253 C 0.48897 0.28485 0.63964 0.0
C254 C 0.5192 0.31281 0.60329 0.0
C255 C 0.54053 0.35133 0.61673 0.0
C256 C 0.53164 0.36169 0.6673 0.0
C257 C 0.46287 0.2442 0.6211 0.0
C258 C 0.48539 0.22334 0.62675 0.0
C259 C 0.48265 0.20295 0.67728 0.0
C260 C 0.50016 0.18053 0.68163 0.0
C261 C 0.52268 0.18081 0.63607 0.0
C262 C 0.52476 0.19987 0.58485 0.0
C263 C 0.50608 0.22123 0.58025 0.0
C264 C 0.12691 0.48717 0.18987 0.0
C265 C 0.14337 0.51074 0.14133 0.0
H266 H 0.13932 0.46965 0.27043 0.0
C267 C 0.18626 0.5354 0.13749 0.0
H268 H 0.09399 0.46763 0.19372 0.0
C269 C 0.21213 0.5373 0.18159 0.0
C270 C 0.19605 0.51401 0.23064 0.0
H271 H 0.19997 0.55427 0.10086 0.0
H272 H 0.24471 0.5582 0.1777 0.0
C273 C 0.153 0.48847 0.2338 0.0
C274 C 0.64998 0.09785 0.61923 0.0
C275 C 0.67404 0.10685 0.57091 0.0
H276 H 0.64496 0.11399 0.70092 0.0
C277 C 0.71473 0.13837 0.57141 0.0
H278 H 0.61835 0.0741 0.62008 0.0
C279 C 0.73054 0.1611 0.61869 0.0
C280 C 0.70584 0.153 0.66626 0.0
H281 H 0.73407 0.14603 0.53475 0.0
H282 H 0.76185 0.18536 0.61757 0.0
C283 C 0.66549 0.12078 0.66598 0.0
C284 C 0.48242 0.61557 0.02724 0.0
C285 C 0.5112 0.61544 -0.00768 0.0
H286 H 0.47225 0.64403 0.09189 0.0
C287 C 0.5519 0.64683 -0.00819 0.0
H288 H 0.451 0.59148 0.02856 0.0
C289 C 0.56427 0.67645 0.02875 0.0
C290 C 0.53588 0.67558 0.06571 0.0
H291 H 0.57476 0.64706 0.96592 0.0
H292 H 0.59639 0.69911 0.03045 0.0
C293 C 0.49454 0.6456 0.0632 0.0
C294 C 0.98042 0.62206 0.72174 0.0
C295 C 0.97726 0.5916 0.69365 0.0
H296 H 0.95444 0.63924 0.78349 0.0
C297 C 0.94199 0.55506 0.70145 0.0
H298 H 1.00731 0.65043 0.71619 0.0
C299 C 0.91208 0.54858 0.74026 0.0
C300 C 0.91651 0.57871 0.77075 0.0
H301 H 0.93906 0.53104 0.68073 0.0
H302 H 0.8868 0.51973 0.749 0.0
C303 C 0.95006 0.61572 0.75963 0.0
C304 C 0.39138 0.92017 0.09024 0.0
C305 C 0.43247 0.95109 0.09145 0.0
H306 H 0.34204 0.87288 0.13611 0.0
C307 C 0.45524 0.95823 0.14174 0.0
H308 H 0.37301 0.91383 0.05201 0.0
C309 C 0.43757 0.93467 0.18954 0.0
C310 C 0.3966 0.90354 0.18834 0.0
H311 H 0.48704 0.98153 0.14396 0.0
H312 H 0.45644 0.94037 0.22718 0.0
C313 C 0.37365 0.89655 0.13821 0.0
C314 C 0.57544 0.4149 0.48515 0.0
C315 C 0.60951 0.44831 0.50614 0.0
H316 H 0.52668 0.35758 0.50412 0.0
C317 C 0.62521 0.44684 0.55987 0.0
H318 H 0.56249 0.4152 0.44407 0.0
C319 C 0.60478 0.41391 0.59423 0.0
C320 C 0.56819 0.38176 0.57553 0.0
H321 H 0.65176 0.47205 0.5767 0.0
H322 H 0.61608 0.41442 0.63683 0.0
C323 C 0.5549 0.38187 0.51963 0.0
C324 C 0.58129 0.92646 0.31455 0.0
C325 C 0.61575 0.96323 0.30326 0.0
H326 H 0.54385 0.86895 0.2884 0.0
C327 C 0.64171 0.96816 0.25866 0.0
H328 H 0.56025 0.92108 0.34805 0.0
C329 C 0.632 0.93797 0.22417 0.0
C330 C 0.59638 0.90192 0.23376 0.0
H331 H 0.66903 0.99558 0.24921 0.0
H332 H 0.65165 0.94313 0.18873 0.0
C333 C 0.57184 0.89624 0.28036 0.0
C334 C 0.61547 0.47001 0.9584 0.0
C335 C 0.60358 0.4914 -0.01267 0.0
H336 H 0.66107 0.47164 0.90615 0.0
C337 C 0.6323 0.53035 -0.00561 0.0
H338 H 0.59391 0.44004 0.95183 0.0
C339 C 0.67091 0.54816 0.96908 0.0
C340 C 0.68123 0.52737 0.93603 0.0
H341 H 0.62399 0.54753 0.0165 0.0
H342 H 0.69138 0.5787 0.97155 0.0
C343 C 0.65387 0.48798 0.93236 0.0
C344 C 0.1262 0.63206 0.38577 0.0
C345 C 0.13036 0.64939 0.43698 0.0
H346 H 0.14992 0.6378 0.30336 0.0
C347 C 0.16075 0.68817 0.44193 0.0
H348 H 0.10349 0.60214 0.38079 0.0
C349 C 0.18723 0.7089 0.39716 0.0
C350 C 0.184 0.69125 0.34652 0.0
H351 H 0.16469 0.70238 0.48091 0.0
H352 H 0.21051 0.73862 0.40243 0.0
C353 C 0.15285 0.65265 0.34124 0.0
C354 C 0.48086 0.09355 0.76855 0.0
C355 C 0.47988 0.10383 0.82349 0.0
H356 H 0.48577 0.10854 0.68091 0.0
C357 C 0.48441 0.13914 0.83206 0.0
H358 H 0.4768 0.06624 0.76101 0.0
C359 C 0.49087 0.16419 0.78627 0.0
C360 C 0.49235 0.1541 0.73104 0.0
H361 H 0.48406 0.14774 0.87431 0.0
H362 H 0.49551 0.19167 0.79427 0.0
C363 C 0.48639 0.11807 0.72284 0.0
C364 C 0.49408 0.58813 0.46899 0.0
C365 C 0.50625 0.56241 0.48424 0.0
H366 H 0.45225 0.59782 0.4208 0.0
C367 C 0.48007 0.52401 0.47108 0.0
H368 H 0.51364 0.61793 0.47838 0.0
C369 C 0.44433 0.51225 0.43898 0.0
C370 C 0.43441 0.53877 0.41839 0.0
H371 H 0.4884 0.50343 0.48291 0.0
H372 H 0.42588 0.48281 0.42722 0.0
C373 C 0.45863 0.57648 0.4361 0.0
C374 C 0.93754 0.39018 0.89675 0.0
C375 C 0.97766 0.39748 0.8918 0.0
H376 H 0.87664 0.36338 0.86195 0.0
C377 C 0.98433 0.37681 0.85282 0.0
H378 H 0.93078 0.40525 0.92606 0.0
C379 C 0.95292 0.35258 0.81594 0.0
C380 C 0.91406 0.34823 0.81755 0.0
H381 H 1.01433 0.38067 0.8488 0.0
H382 H 0.9598 0.33926 0.78356 0.0
C383 C 0.90611 0.36576 0.86013 0.0
C384 C 0.9298 0.50065 0.00127 0.0
C385 C 0.95752 0.52902 0.03796 0.0
H386 H 0.88401 0.48509 0.93628 0.0
C387 C 0.95362 0.56043 0.04515 0.0
H388 H 0.9315 0.47585 -0.00497 0.0
C389 C 0.92604 0.56552 0.01161 0.0
C390 C 0.90192 0.53933 0.97023 0.0
H391 H 0.97417 0.58269 0.07335 0.0
H392 H 0.92654 0.59172 0.01433 0.0
C393 C 0.90241 0.50583 0.96766 0.0
C394 C 0.4265 0.95061 0.44326 0.0
C395 C 0.46255 0.95104 0.45784 0.0
H396 H 0.37038 0.9237 0.39509 0.0
C397 C 0.46429 0.91887 0.44718 0.0
H398 H 0.42395 0.97473 0.45127 0.0
C399 C 0.43319 0.88935 0.41578 0.0
C400 C 0.40009 0.89172 0.39428 0.0
H401 H 0.49142 0.91809 0.45853 0.0
H402 H 0.43754 0.86706 0.40281 0.0
C403 C 0.3956 0.92125 0.41139 0.0
C404 C 0.43751 0.34952 0.80702 0.0
C405 C 0.46815 0.37992 0.83843 0.0
H406 H 0.42379 0.31124 0.74027 0.0
C407 C 0.5096 0.39296 0.82812 0.0
H408 H 0.40531 0.33881 0.81352 0.0
C409 C 0.52015 0.37699 0.78635 0.0
C410 C 0.48959 0.34753 0.7536 0.0
H411 H 0.53407 0.41556 0.85228 0.0
H412 H 0.55241 0.38816 0.77907 0.0
C413 C 0.4481 0.33351 0.76517 0.0
C414 C 0.21246 0.572 0.496 0.0
C415 C 0.17975 0.5395 0.52275 0.0
H416 H 0.25766 0.59387 0.43072 0.0
C417 C 0.17085 0.50343 0.50844 0.0
H418 H 0.21951 0.60001 0.50619 0.0
C419 C 0.19204 0.49986 0.46469 0.0
C420 C 0.22311 0.53236 0.43575 0.0
H421 H 0.14532 0.47799 0.52788 0.0
H422 H 0.18259 0.47176 0.45121 0.0
C423 C 0.23427 0.56847 0.45317 0.0
C424 C 0.65215 0.11386 0.92814 0.0
C425 C 0.62517 0.12504 0.9438 0.0
H426 H 0.70244 0.1258 0.87587 0.0
C427 C 0.63353 0.16116 0.92555 0.0
H428 H 0.64699 0.08646 0.94206 0.0
C429 C 0.66517 0.18359 0.88724 0.0
C430 C 0.68921 0.17042 0.86668 0.0
H431 H 0.61356 0.17082 0.93705 0.0
H432 H 0.66828 0.20959 0.87001 0.0
C433 C 0.68391 0.13638 0.89009 0.0
C434 C 0.6065 0.68724 0.34675 0.0
C435 C 0.63955 0.68311 0.33462 0.0
H436 H 0.56381 0.70223 0.31552 0.0
C437 C 0.65758 0.69513 0.28097 0.0
H438 H 0.59229 0.6788 0.38788 0.0
C439 C 0.64143 0.70888 0.23953 0.0
C440 C 0.60708 0.71121 0.25087 0.0
H441 H 0.68293 0.69226 0.27004 0.0
H442 H 0.65501 0.71658 0.19796 0.0
C443 C 0.59051 0.70118 0.30546 0.0
C444 C 0.58897 0.17461 0.50438 0.0
C445 C 0.56094 0.15204 0.46238 0.0
H446 H 0.60001 0.20894 0.57535 0.0
C447 C 0.52503 0.15295 0.4534 0.0
H448 H 0.61725 0.17507 0.51154 0.0
C449 C 0.51529 0.17266 0.48978 0.0
C450 C 0.54137 0.1918 0.5355 0.0
H451 H 0.50281 0.13584 0.42145 0.0
H452 H 0.48563 0.16989 0.48536 0.0
C453 C 0.57933 0.19432 0.54051 0.0
C454 C 0.44359 0.48808 0.16735 0.0
C455 C 0.41424 0.47045 0.12426 0.0
H456 H 0.45826 0.51473 0.24639 0.0
C457 C 0.3743 0.46285 0.13204 0.0
H458 H 0.47483 0.49496 0.16249 0.0
C459 C 0.36428 0.47351 0.18133 0.0
C460 C 0.39414 0.49241 0.22367 0.0
H461 H 0.35097 0.44936 0.09952 0.0
H462 H 0.33332 0.46739 0.18585 0.0
C463 C 0.43385 0.49926 0.21596 0.0
C464 C 0.91551 0.44373 0.60012 0.0
C465 C 0.95311 0.45133 0.57956 0.0
H466 H 0.85986 0.40349 0.64299 0.0
C467 C 0.95939 0.42126 0.57476 0.0
H468 H 0.91046 0.46675 0.6051 0.0
C469 C 0.93064 0.38505 0.59713 0.0
C470 C 0.89531 0.37863 0.62429 0.0
H471 H 0.98858 0.42674 0.56007 0.0
H472 H 0.93832 0.36341 0.59919 0.0
C473 C 0.88649 0.40744 0.62166 0.0
C474 C 0.56865 0.91454 0.96444 0.0
C475 C 0.5279 0.90519 0.95643 0.0
H476 H 0.61 0.90516 0.01514 0.0
C477 C 0.49632 0.87357 -0.01372 0.0
H478 H 0.59359 0.93914 0.94259 0.0
C479 C 0.50559 0.85377 0.0271 0.0
C480 C 0.54673 0.86577 0.0394 0.0
H481 H 0.46477 0.86616 -0.01895 0.0
H482 H 0.48095 0.83154 0.05276 0.0
C483 C 0.57804 0.8952 0.00602 0.0
C484 C 0.73697 0.62556 0.65965 0.0
C485 C 0.69821 0.59911 0.63702 0.0
H486 H 0.77897 0.63991 0.72934 0.0
C487 C 0.67301 0.56465 0.66692 0.0
H488 H 0.75719 0.65222 0.63707 0.0
C489 C 0.68618 0.55669 0.71826 0.0
C490 C 0.72436 0.58357 0.74252 0.0
H491 H 0.64347 0.54323 0.64978 0.0
H492 H 0.66623 0.52914 0.73866 0.0
C493 C 0.74966 0.61816 0.71222 0.0
C494 C 0.15339 0.67555 0.07872 0.0
C495 C 0.16877 0.65596 0.05309 0.0
H496 H 0.16155 0.713 0.14374 0.0
C497 C 0.20817 0.66385 0.06796 0.0
H498 H 0.12286 0.66945 0.06797 0.0
C499 C 0.23011 0.68815 0.11211 0.0
C500 C 0.2128 0.70484 0.14174 0.0
H501 H 0.2201 0.64839 0.04917 0.0
H502 H 0.25862 0.69087 0.12644 0.0
C503 C 0.17543 0.70018 0.12218 0.0
loop_
_geom_bond_atom_site_label_1
_geom_bond_atom_site_label_2
_geom_bond_distance
_geom_bond_site_symmetry_2
_ccdc_geom_bond_type
Cu0 N1 1.999 1_454 S
Cu0 O6 1.974 1_454 S
Cu0 N11 1.985 . S
Cu0 O20 1.959 . S
N1 Cu0 1.999 1_656 S
N1 C3 1.263 . S
N1 C5 1.389 1_556 S
N2 C3 1.358 . S
N2 C4 1.400 . S
C3 N1 1.263 . S
C3 N2 1.358 . S
C3 H9 0.930 . S
C4 N2 1.400 . S
C4 C5 1.351 1_556 S
C4 H21 0.930 . S
C5 N1 1.389 1_554 S
C5 C4 1.351 1_554 S
C5 H10 0.930 . S
O6 Cu0 1.974 1_656 S
O6 C16 1.282 . S
C7 O8 1.261 1_554 S
C7 O20 1.251 . S
O8 C7 1.261 1_556 S
H9 C3 0.930 . S
H10 C5 0.930 . S
N11 Cu0 1.985 . S
N11 C13 1.335 . S
N11 C14 1.390 . S
N12 C13 1.345 . S
N12 C15 1.336 . S
C13 N11 1.335 . S
C13 N12 1.345 . S
C13 H18 0.930 . S
C14 N11 1.390 . S
C14 C15 1.346 . S
C14 H19 0.930 1_554 S
C15 N12 1.336 . S
C15 C14 1.346 . S
C15 H22 0.929 . S
C16 O6 1.282 . S
C16 O17 1.218 . S
O17 C16 1.218 . S
H18 C13 0.930 . S
H19 C14 0.930 1_556 S
O20 Cu0 1.959 . S
O20 C7 1.251 . S
H21 C4 0.930 . S
H22 C15 0.929 . S
Cu23 N24 1.999 . S
Cu23 O29 1.974 . S
Cu23 N34 1.985 1_565 S
Cu23 O43 1.959 1_565 S
N24 Cu23 1.999 . S
N24 C26 1.263 . S
N24 C28 1.389 . S
N25 C26 1.358 . S
N25 C27 1.400 . S
C26 N24 1.263 . S
C26 N25 1.358 . S
C26 H32 0.930 . S
C27 N25 1.400 . S
C27 C28 1.351 . S
C27 H44 0.930 . S
C28 N24 1.389 . S
C28 C27 1.351 . S
C28 H33 0.930 . S
O29 Cu23 1.974 . S
O29 C39 1.282 . S
C30 O31 1.261 . S
C30 O43 1.251 . S
O31 C30 1.261 . S
H32 C26 0.930 . S
H33 C28 0.930 . S
N34 Cu23 1.985 1_545 S
N34 C36 1.335 . S
N34 C37 1.390 . S
N35 C36 1.345 . S
N35 C38 1.336 . S
C36 N34 1.335 . S
C36 N35 1.345 . S
C36 H41 0.930 . S
C37 N34 1.390 . S
C37 C38 1.346 . S
C37 H42 0.930 . S
C38 N35 1.336 . S
C38 C37 1.346 . S
C38 H45 0.929 . S
C39 O29 1.282 . S
C39 O40 1.216 . S
O40 C39 1.216 . S
H41 C36 0.930 . S
H42 C37 0.930 . S
O43 Cu23 1.959 1_545 S
O43 C30 1.251 . S
H44 C27 0.930 . S
H45 C38 0.929 . S
Cu46 N47 1.992 1_554 S
Cu46 O52 1.967 1_554 S
Cu46 N57 1.994 . S
Cu46 O66 1.966 . S
N47 Cu46 1.992 1_556 S
N47 C49 1.263 . S
N47 C51 1.389 . S
N48 C49 1.358 . S
N48 C50 1.400 . S
C49 N47 1.263 . S
C49 N48 1.358 . S
C49 H55 0.930 . S
C50 N48 1.400 . S
C50 C51 1.351 . S
C50 H67 0.930 . S
C51 N47 1.389 . S
C51 C50 1.351 . S
C51 H56 0.930 . S
O52 Cu46 1.967 1_556 S
O52 C62 1.282 . S
C53 O54 1.261 . S
C53 O66 1.251 . S
O54 C53 1.261 . S
H55 C49 0.930 . S
H56 C51 0.930 . S
N57 Cu46 1.994 . S
N57 C59 1.335 . S
N57 C60 1.390 . S
N58 C59 1.345 . S
N58 C61 1.336 . S
C59 N57 1.335 . S
C59 N58 1.345 . S
C59 H64 0.930 . S
C60 N57 1.390 . S
C60 C61 1.346 . S
C60 H65 0.930 . S
C61 N58 1.336 . S
C61 C60 1.346 . S
C61 H68 0.929 . S
C62 O52 1.282 . S
C62 O63 1.216 1_556 S
O63 C62 1.216 1_554 S
H64 C59 0.930 . S
H65 C60 0.930 . S
O66 Cu46 1.966 . S
O66 C53 1.251 . S
H67 C50 0.930 . S
H68 C61 0.929 . S
Cu69 N70 1.999 1_655 S
Cu69 O75 1.974 1_655 S
Cu69 N80 1.985 . S
Cu69 O89 1.959 . S
N70 Cu69 1.999 1_455 S
N70 C72 1.263 . S
N70 C74 1.389 1_455 S
N71 C72 1.358 . S
N71 C73 1.400 . S
C72 N70 1.263 . S
C72 N71 1.358 . S
C72 H78 0.930 . S
C73 N71 1.400 . S
C73 C74 1.351 1_455 S
C73 H90 0.930 . S
C74 N70 1.389 1_655 S
C74 C73 1.351 1_655 S
C74 H79 0.930 . S
O75 Cu69 1.974 1_455 S
O75 C85 1.282 . S
C76 O77 1.261 . S
C76 O89 1.251 . S
O77 C76 1.261 . S
H78 C72 0.930 . S
H79 C74 0.930 . S
N80 Cu69 1.985 . S
N80 C82 1.335 . S
N80 C83 1.390 . S
N81 C82 1.345 . S
N81 C84 1.336 . S
C82 N80 1.335 . S
C82 N81 1.345 . S
C82 H87 0.930 . S
C83 N80 1.390 . S
C83 C84 1.346 . S
C83 H88 0.930 1_655 S
C84 N81 1.336 . S
C84 C83 1.346 . S
C84 H91 0.929 . S
C85 O75 1.282 . S
C85 O86 1.216 . S
O86 C85 1.216 . S
H87 C82 0.930 . S
H88 C83 0.930 1_455 S
O89 Cu69 1.959 . S
O89 C76 1.251 . S
H90 C73 0.930 . S
H91 C84 0.929 . S
Cu92 N93 1.999 . S
Cu92 O98 1.974 1_554 S
Cu92 N103 1.985 1_545 S
Cu92 O112 1.959 1_545 S
N93 Cu92 1.999 . S
N93 C95 1.263 1_554 S
N93 C97 1.389 . S
N94 C95 1.358 . S
N94 C96 1.400 1_556 S
C95 N93 1.263 1_556 S
C95 N94 1.358 . S
C95 H101 0.930 . S
C96 N94 1.400 1_554 S
C96 C97 1.351 . S
C96 H113 0.930 . S
C97 N93 1.389 . S
C97 C96 1.351 . S
C97 H102 0.930 . S
O98 Cu92 1.974 1_556 S
O98 C108 1.282 . S
C99 O100 1.261 . S
C99 O112 1.251 . S
O100 C99 1.261 . S
H101 C95 0.930 . S
H102 C97 0.930 . S
N103 Cu92 1.985 1_565 S
N103 C105 1.335 . S
N103 C106 1.390 . S
N104 C105 1.345 . S
N104 C107 1.336 . S
C105 N103 1.335 . S
C105 N104 1.345 . S
C105 H110 0.930 . S
C106 N103 1.390 . S
C106 C107 1.346 . S
C106 H111 0.928 1_564 S
C107 N104 1.336 . S
C107 C106 1.346 . S
C107 H114 0.929 . S
C108 O98 1.282 . S
C108 O109 1.216 . S
O109 C108 1.216 . S
H110 C105 0.930 . S
H111 C106 0.928 1_546 S
O112 Cu92 1.959 1_565 S
O112 C99 1.251 . S
H113 C96 0.930 . S
H114 C107 0.929 . S
Cu115 N116 1.999 . S
Cu115 O121 1.974 . S
Cu115 N126 1.985 . S
Cu115 O135 1.959 . S
N116 Cu115 1.999 . S
N116 C118 1.263 . S
N116 C120 1.389 . S
N117 C118 1.358 . S
N117 C119 1.400 . S
C118 N116 1.263 . S
C118 N117 1.358 . S
C118 H124 0.930 . S
C119 N117 1.400 . S
C119 C120 1.351 . S
C119 H136 0.930 . S
C120 N116 1.389 . S
C120 C119 1.351 . S
C120 H125 0.930 . S
O121 Cu115 1.974 . S
O121 C131 1.282 . S
C122 O123 1.261 . S
C122 O135 1.251 . S
O123 C122 1.261 . S
H124 C118 0.930 . S
H125 C120 0.930 . S
N126 Cu115 1.985 . S
N126 C128 1.335 . S
N126 C129 1.390 . S
N127 C128 1.345 . S
N127 C130 1.336 . S
C128 N126 1.335 . S
C128 N127 1.345 . S
C128 H133 0.930 . S
C129 N126 1.390 . S
C129 C130 1.346 . S
C129 H134 0.930 . S
C130 N127 1.336 . S
C130 C129 1.346 . S
C130 H137 0.929 . S
C131 O121 1.282 . S
C131 O132 1.216 . S
O132 C131 1.216 . S
H133 C128 0.930 . S
H134 C129 0.930 . S
O135 Cu115 1.959 . S
O135 C122 1.251 . S
H136 C119 0.930 . S
H137 C130 0.929 . S
H138 C146 0.930 . S
H139 C149 0.930 . S
H140 C151 0.930 . S
H141 C152 0.970 . S
H142 C152 0.970 . S
H143 C154 0.930 . S
H144 C156 0.930 . S
H145 C158 0.930 . S
C146 H138 0.930 . S
C146 C147 1.382 . S
C146 C148 1.426 . S
C147 C146 1.382 . S
C147 C151 1.389 . S
C148 C146 1.426 . S
C148 C149 1.375 . S
C148 C152 1.532 . S
C149 H139 0.930 . S
C149 C148 1.375 . S
C149 C150 1.416 . S
C150 C149 1.416 . S
C150 C151 1.371 . S
C151 H140 0.930 . S
C151 C147 1.389 . S
C151 C150 1.371 . S
C152 H141 0.970 . S
C152 H142 0.970 . S
C152 C148 1.532 . S
C152 C153 1.499 . S
C153 C152 1.499 . S
C153 C154 1.370 . S
C153 C158 1.415 . S
C154 H143 0.930 . S
C154 C153 1.370 . S
C154 C155 1.407 . S
C155 C154 1.407 . S
C155 C156 1.365 . S
C156 H144 0.930 . S
C156 C155 1.365 . S
C156 C157 1.393 . S
C157 C156 1.393 . S
C157 C158 1.387 . S
C158 H145 0.930 . S
C158 C153 1.415 . S
C158 C157 1.387 . S
H159 C167 0.930 . S
H160 C170 0.930 . S
H161 C172 0.930 . S
H162 C173 0.970 . S
H163 C173 0.970 . S
H164 C175 0.930 . S
H165 C177 0.930 . S
H166 C179 0.930 . S
C167 H159 0.930 . S
C167 C168 1.382 . S
C167 C169 1.426 . S
C168 C167 1.382 . S
C168 C172 1.389 . S
C169 C167 1.426 . S
C169 C170 1.375 . S
C169 C173 1.532 . S
C170 H160 0.930 . S
C170 C169 1.375 . S
C170 C171 1.416 . S
C171 C170 1.416 . S
C171 C172 1.371 . S
C172 H161 0.930 . S
C172 C168 1.389 . S
C172 C171 1.371 . S
C173 H162 0.970 . S
C173 H163 0.970 . S
C173 C169 1.532 . S
C173 C174 1.499 . S
C174 C173 1.499 . S
C174 C175 1.370 . S
C174 C179 1.415 . S
C175 H164 0.930 . S
C175 C174 1.370 . S
C175 C176 1.407 . S
C176 C175 1.407 . S
C176 C177 1.365 . S
C177 H165 0.930 . S
C177 C176 1.365 . S
C177 C178 1.393 . S
C178 C177 1.393 . S
C178 C179 1.387 . S
C179 H166 0.930 . S
C179 C174 1.415 . S
C179 C178 1.387 . S
H180 C188 0.930 . S
H181 C191 0.930 . S
H182 C193 0.930 . S
H183 C194 0.970 . S
H184 C194 0.970 . S
H185 C196 0.930 . S
H186 C198 0.930 . S
H187 C200 0.930 . S
C188 H180 0.930 . S
C188 C189 1.382 . S
C188 C190 1.426 . S
C189 C188 1.382 . S
C189 C193 1.389 . S
C190 C188 1.426 . S
C190 C191 1.375 . S
C190 C194 1.532 . S
C191 H181 0.930 . S
C191 C190 1.375 . S
C191 C192 1.416 . S
C192 C191 1.416 . S
C192 C193 1.371 . S
C193 H182 0.930 . S
C193 C189 1.389 . S
C193 C192 1.371 . S
C194 H183 0.970 . S
C194 H184 0.970 . S
C194 C190 1.532 . S
C194 C195 1.499 . S
C195 C194 1.499 . S
C195 C196 1.370 . S
C195 C200 1.415 . S
C196 H185 0.930 . S
C196 C195 1.370 . S
C196 C197 1.407 . S
C197 C196 1.407 . S
C197 C198 1.365 . S
C198 H186 0.930 . S
C198 C197 1.365 . S
C198 C199 1.393 . S
C199 C198 1.393 . S
C199 C200 1.387 . S
C200 H187 0.930 . S
C200 C195 1.415 . S
C200 C199 1.387 . S
H201 C209 0.930 . S
H202 C212 0.930 . S
H203 C214 0.930 . S
H204 C215 0.970 . S
H205 C215 0.970 . S
H206 C217 0.930 . S
H207 C219 0.930 . S
H208 C221 0.930 . S
C209 H201 0.930 . S
C209 C210 1.382 . S
C209 C211 1.426 . S
C210 C209 1.382 . S
C210 C214 1.389 . S
C211 C209 1.426 . S
C211 C212 1.375 . S
C211 C215 1.532 . S
C212 H202 0.930 . S
C212 C211 1.375 . S
C212 C213 1.416 . S
C213 C212 1.416 . S
C213 C214 1.371 . S
C214 H203 0.930 . S
C214 C210 1.389 . S
C214 C213 1.371 . S
C215 H204 0.970 . S
C215 H205 0.970 . S
C215 C211 1.532 . S
C215 C216 1.499 . S
C216 C215 1.499 . S
C216 C217 1.370 . S
C216 C221 1.415 . S
C217 H206 0.930 . S
C217 C216 1.370 . S
C217 C218 1.407 . S
C218 C217 1.407 . S
C218 C219 1.365 . S
C219 H207 0.930 . S
C219 C218 1.365 . S
C219 C220 1.393 . S
C220 C219 1.393 . S
C220 C221 1.387 . S
C221 H208 0.930 . S
C221 C216 1.415 . S
C221 C220 1.387 . S
H222 C230 0.930 . S
H223 C233 0.930 . S
H224 C235 0.930 . S
H225 C236 0.970 . S
H226 C236 0.970 . S
H227 C238 0.930 . S
H228 C240 0.930 . S
H229 C242 0.930 . S
C230 H222 0.930 . S
C230 C231 1.382 . S
C230 C232 1.426 . S
C231 C230 1.382 . S
C231 C235 1.389 . S
C232 C230 1.426 . S
C232 C233 1.375 . S
C232 C236 1.532 . S
C233 H223 0.930 . S
C233 C232 1.375 . S
C233 C234 1.416 . S
C234 C233 1.416 . S
C234 C235 1.371 . S
C235 H224 0.930 . S
C235 C231 1.389 . S
C235 C234 1.371 . S
C236 H225 0.970 . S
C236 H226 0.970 . S
C236 C232 1.532 . S
C236 C237 1.499 . S
C237 C236 1.499 . S
C237 C238 1.370 . S
C237 C242 1.415 . S
C238 H227 0.930 . S
C238 C237 1.370 . S
C238 C239 1.407 . S
C239 C238 1.407 . S
C239 C240 1.365 . S
C240 H228 0.930 . S
C240 C239 1.365 . S
C240 C241 1.393 . S
C241 C240 1.393 . S
C241 C242 1.387 . S
C242 H229 0.930 . S
C242 C237 1.415 . S
C242 C241 1.387 . S
H243 C251 0.930 . S
H244 C254 0.930 . S
H245 C256 0.930 . S
H246 C257 0.970 . S
H247 C257 0.970 . S
H248 C259 0.930 . S
H249 C261 0.930 . S
H250 C263 0.930 . S
C251 H243 0.930 . S
C251 C252 1.382 . S
C251 C253 1.426 . S
C252 C251 1.382 . S
C252 C256 1.389 . S
C253 C251 1.426 . S
C253 C254 1.375 . S
C253 C257 1.532 . S
C254 H244 0.930 . S
C254 C253 1.375 . S
C254 C255 1.416 . S
C255 C254 1.416 . S
C255 C256 1.371 . S
C256 H245 0.930 . S
C256 C252 1.389 . S
C256 C255 1.371 . S
C257 H246 0.970 . S
C257 H247 0.970 . S
C257 C253 1.532 . S
C257 C258 1.499 . S
C258 C257 1.499 . S
C258 C259 1.370 . S
C258 C263 1.415 . S
C259 H248 0.930 . S
C259 C258 1.370 . S
C259 C260 1.407 . S
C260 C259 1.407 . S
C260 C261 1.365 . S
C261 H249 0.930 . S
C261 C260 1.365 . S
C261 C262 1.393 . S
C262 C261 1.393 . S
C262 C263 1.387 . S
C263 H250 0.930 . S
C263 C258 1.415 . S
C263 C262 1.387 . S
C264 C265 1.387 . S
C264 H268 0.950 . S
C264 C273 1.390 . S
C265 C264 1.387 . S
C265 C267 1.387 . S
H266 C273 0.950 . S
C267 C265 1.387 . S
C267 C269 1.390 . S
C267 H271 0.950 . S
H268 C264 0.950 . S
C269 C267 1.390 . S
C269 C270 1.387 . S
C269 H272 0.950 . S
C270 C269 1.387 . S
C270 C273 1.387 . S
H271 C267 0.950 . S
H272 C269 0.950 . S
C273 C264 1.390 . S
C273 H266 0.950 . S
C273 C270 1.387 . S
C274 C275 1.387 . S
C274 H278 0.950 . S
C274 C283 1.390 . S
C275 C274 1.387 . S
C275 C277 1.387 . S
H276 C283 0.950 . S
C277 C275 1.387 . S
C277 C279 1.390 . S
C277 H281 0.950 . S
H278 C274 0.950 . S
C279 C277 1.390 . S
C279 C280 1.387 . S
C279 H282 0.950 . S
C280 C279 1.387 . S
C280 C283 1.387 . S
H281 C277 0.950 . S
H282 C279 0.950 . S
C283 C274 1.390 . S
C283 H276 0.950 . S
C283 C280 1.387 . S
C284 C285 1.387 . S
C284 H288 0.950 . S
C284 C293 1.390 . S
C285 C284 1.387 . S
C285 C287 1.387 . S
H286 C293 0.950 . S
C287 C285 1.387 . S
C287 C289 1.390 . S
C287 H291 0.950 . S
H288 C284 0.950 . S
C289 C287 1.390 . S
C289 C290 1.387 . S
C289 H292 0.950 . S
C290 C289 1.387 . S
C290 C293 1.387 . S
H291 C287 0.950 . S
H292 C289 0.950 . S
C293 C284 1.390 . S
C293 H286 0.950 . S
C293 C290 1.387 . S
C294 C295 1.387 . S
C294 H298 0.950 . S
C294 C303 1.390 . S
C295 C294 1.387 . S
C295 C297 1.387 . S
H296 C303 0.950 . S
C297 C295 1.387 . S
C297 C299 1.390 . S
C297 H301 0.950 . S
H298 C294 0.950 . S
C299 C297 1.390 . S
C299 C300 1.387 . S
C299 H302 0.950 . S
C300 C299 1.387 . S
C300 C303 1.387 . S
H301 C297 0.950 . S
H302 C299 0.950 . S
C303 C294 1.390 . S
C303 H296 0.950 . S
C303 C300 1.387 . S
C304 C305 1.387 . S
C304 H308 0.950 . S
C304 C313 1.390 . S
C305 C304 1.387 . S
C305 C307 1.387 . S
H306 C313 0.950 . S
C307 C305 1.387 . S
C307 C309 1.390 . S
C307 H311 0.950 . S
H308 C304 0.950 . S
C309 C307 1.390 . S
C309 C310 1.387 . S
C309 H312 0.950 . S
C310 C309 1.387 . S
C310 C313 1.387 . S
H311 C307 0.950 . S
H312 C309 0.950 . S
C313 C304 1.390 . S
C313 H306 0.950 . S
C313 C310 1.387 . S
C314 C315 1.387 . S
C314 H318 0.950 . S
C314 C323 1.390 . S
C315 C314 1.387 . S
C315 C317 1.387 . S
H316 C323 0.950 . S
C317 C315 1.387 . S
C317 C319 1.390 . S
C317 H321 0.950 . S
H318 C314 0.950 . S
C319 C317 1.390 . S
C319 C320 1.387 . S
C319 H322 0.950 . S
C320 C319 1.387 . S
C320 C323 1.387 . S
H321 C317 0.950 . S
H322 C319 0.950 . S
C323 C314 1.390 . S
C323 H316 0.950 . S
C323 C320 1.387 . S
C324 C325 1.387 . S
C324 H328 0.950 . S
C324 C333 1.390 . S
C325 C324 1.387 . S
C325 C327 1.387 . S
H326 C333 0.950 . S
C327 C325 1.387 . S
C327 C329 1.390 . S
C327 H331 0.950 . S
H328 C324 0.950 . S
C329 C327 1.390 . S
C329 C330 1.387 . S
C329 H332 0.950 . S
C330 C329 1.387 . S
C330 C333 1.387 . S
H331 C327 0.950 . S
H332 C329 0.950 . S
C333 C324 1.390 . S
C333 H326 0.950 . S
C333 C330 1.387 . S
C334 C335 1.387 . S
C334 H338 0.950 . S
C334 C343 1.390 . S
C335 C334 1.387 . S
C335 C337 1.387 . S
H336 C343 0.950 . S
C337 C335 1.387 . S
C337 C339 1.390 . S
C337 H341 0.950 . S
H338 C334 0.950 . S
C339 C337 1.390 . S
C339 C340 1.387 . S
C339 H342 0.950 . S
C340 C339 1.387 . S
C340 C343 1.387 . S
H341 C337 0.950 . S
H342 C339 0.950 . S
C343 C334 1.390 . S
C343 H336 0.950 . S
C343 C340 1.387 . S
C344 C345 1.387 . S
C344 H348 0.950 . S
C344 C353 1.390 . S
C345 C344 1.387 . S
C345 C347 1.387 . S
H346 C353 0.950 . S
C347 C345 1.387 . S
C347 C349 1.390 . S
C347 H351 0.950 . S
H348 C344 0.950 . S
C349 C347 1.390 . S
C349 C350 1.387 . S
C349 H352 0.950 . S
C350 C349 1.387 . S
C350 C353 1.387 . S
H351 C347 0.950 . S
H352 C349 0.950 . S
C353 C344 1.390 . S
C353 H346 0.950 . S
C353 C350 1.387 . S
C354 C355 1.387 . S
C354 H358 0.950 . S
C354 C363 1.390 . S
C355 C354 1.387 . S
C355 C357 1.387 . S
H356 C363 0.950 . S
C357 C355 1.387 . S
C357 C359 1.390 . S
C357 H361 0.950 . S
H358 C354 0.950 . S
C359 C357 1.390 . S
C359 C360 1.387 . S
C359 H362 0.950 . S
C360 C359 1.387 . S
C360 C363 1.387 . S
H361 C357 0.950 . S
H362 C359 0.950 . S
C363 C354 1.390 . S
C363 H356 0.950 . S
C363 C360 1.387 . S
C364 C365 1.387 . S
C364 H368 0.950 . S
C364 C373 1.390 . S
C365 C364 1.387 . S
C365 C367 1.387 . S
H366 C373 0.950 . S
C367 C365 1.387 . S
C367 C369 1.390 . S
C367 H371 0.950 . S
H368 C364 0.950 . S
C369 C367 1.390 . S
C369 C370 1.387 . S
C369 H372 0.950 . S
C370 C369 1.387 . S
C370 C373 1.387 . S
H371 C367 0.950 . S
H372 C369 0.950 . S
C373 C364 1.390 . S
C373 H366 0.950 . S
C373 C370 1.387 . S
C374 C375 1.387 . S
C374 H378 0.950 . S
C374 C383 1.390 . S
C375 C374 1.387 . S
C375 C377 1.387 . S
H376 C383 0.950 . S
C377 C375 1.387 . S
C377 C379 1.390 . S
C377 H381 0.950 . S
H378 C374 0.950 . S
C379 C377 1.390 . S
C379 C380 1.387 . S
C379 H382 0.950 . S
C380 C379 1.387 . S
C380 C383 1.387 . S
H381 C377 0.950 . S
H382 C379 0.950 . S
C383 C374 1.390 . S
C383 H376 0.950 . S
C383 C380 1.387 . S
C384 C385 1.387 . S
C384 H388 0.950 . S
C384 C393 1.390 . S
C385 C384 1.387 . S
C385 C387 1.387 . S
H386 C393 0.950 . S
C387 C385 1.387 . S
C387 C389 1.390 . S
C387 H391 0.950 . S
H388 C384 0.950 . S
C389 C387 1.390 . S
C389 C390 1.387 . S
C389 H392 0.950 . S
C390 C389 1.387 . S
C390 C393 1.387 . S
H391 C387 0.950 . S
H392 C389 0.950 . S
C393 C384 1.390 . S
C393 H386 0.950 . S
C393 C390 1.387 . S
C394 C395 1.387 . S
C394 H398 0.950 . S
C394 C403 1.390 . S
C395 C394 1.387 . S
C395 C397 1.387 . S
H396 C403 0.950 . S
C397 C395 1.387 . S
C397 C399 1.390 . S
C397 H401 0.950 . S
H398 C394 0.950 . S
C399 C397 1.390 . S
C399 C400 1.387 . S
C399 H402 0.950 . S
C400 C399 1.387 . S
C400 C403 1.387 . S
H401 C397 0.950 . S
H402 C399 0.950 . S
C403 C394 1.390 . S
C403 H396 0.950 . S
C403 C400 1.387 . S
C404 C405 1.387 . S
C404 H408 0.950 . S
C404 C413 1.390 . S
C405 C404 1.387 . S
C405 C407 1.387 . S
H406 C413 0.950 . S
C407 C405 1.387 . S
C407 C409 1.390 . S
C407 H411 0.950 . S
H408 C404 0.950 . S
C409 C407 1.390 . S
C409 C410 1.387 . S
C409 H412 0.950 . S
C410 C409 1.387 . S
C410 C413 1.387 . S
H411 C407 0.950 . S
H412 C409 0.950 . S
C413 C404 1.390 . S
C413 H406 0.950 . S
C413 C410 1.387 . S
C414 C415 1.387 . S
C414 H418 0.950 . S
C414 C423 1.390 . S
C415 C414 1.387 . S
C415 C417 1.387 . S
H416 C423 0.950 . S
C417 C415 1.387 . S
C417 C419 1.390 . S
C417 H421 0.950 . S
H418 C414 0.950 . S
C419 C417 1.390 . S
C419 C420 1.387 . S
C419 H422 0.950 . S
C420 C419 1.387 . S
C420 C423 1.387 . S
H421 C417 0.950 . S
H422 C419 0.950 . S
C423 C414 1.390 . S
C423 H416 0.950 . S
C423 C420 1.387 . S
C424 C425 1.387 . S
C424 H428 0.950 . S
C424 C433 1.390 . S
C425 C424 1.387 . S
C425 C427 1.387 . S
H426 C433 0.950 . S
C427 C425 1.387 . S
C427 C429 1.390 . S
C427 H431 0.950 . S
H428 C424 0.950 . S
C429 C427 1.390 . S
C429 C430 1.387 . S
C429 H432 0.950 . S
C430 C429 1.387 . S
C430 C433 1.387 . S
H431 C427 0.950 . S
H432 C429 0.950 . S
C433 C424 1.390 . S
C433 H426 0.950 . S
C433 C430 1.387 . S
C434 C435 1.387 . S
C434 H438 0.950 . S
C434 C443 1.390 . S
C435 C434 1.387 . S
C435 C437 1.387 . S
H436 C443 0.950 . S
C437 C435 1.387 . S
C437 C439 1.390 . S
C437 H441 0.950 . S
H438 C434 0.950 . S
C439 C437 1.390 . S
C439 C440 1.387 . S
C439 H442 0.950 . S
C440 C439 1.387 . S
C440 C443 1.387 . S
H441 C437 0.950 . S
H442 C439 0.950 . S
C443 C434 1.390 . S
C443 H436 0.950 . S
C443 C440 1.387 . S
C444 C445 1.387 . S
C444 H448 0.950 . S
C444 C453 1.390 . S
C445 C444 1.387 . S
C445 C447 1.387 . S
H446 C453 0.950 . S
C447 C445 1.387 . S
C447 C449 1.390 . S
C447 H451 0.950 . S
H448 C444 0.950 . S
C449 C447 1.390 . S
C449 C450 1.387 . S
C449 H452 0.950 . S
C450 C449 1.387 . S
C450 C453 1.387 . S
H451 C447 0.950 . S
H452 C449 0.950 . S
C453 C444 1.390 . S
C453 H446 0.950 . S
C453 C450 1.387 . S
C454 C455 1.387 . S
C454 H458 0.950 . S
C454 C463 1.390 . S
C455 C454 1.387 . S
C455 C457 1.387 . S
H456 C463 0.950 . S
C457 C455 1.387 . S
C457 C459 1.390 . S
C457 H461 0.950 . S
H458 C454 0.950 . S
C459 C457 1.390 . S
C459 C460 1.387 . S
C459 H462 0.950 . S
C460 C459 1.387 . S
C460 C463 1.387 . S
H461 C457 0.950 . S
H462 C459 0.950 . S
C463 C454 1.390 . S
C463 H456 0.950 . S
C463 C460 1.387 . S
C464 C465 1.387 . S
C464 H468 0.950 . S
C464 C473 1.390 . S
C465 C464 1.387 . S
C465 C467 1.387 . S
H466 C473 0.950 . S
C467 C465 1.387 . S
C467 C469 1.390 . S
C467 H471 0.950 . S
H468 C464 0.950 . S
C469 C467 1.390 . S
C469 C470 1.387 . S
C469 H472 0.950 . S
C470 C469 1.387 . S
C470 C473 1.387 . S
H471 C467 0.950 . S
H472 C469 0.950 . S
C473 C464 1.390 . S
C473 H466 0.950 . S
C473 C470 1.387 . S
C474 C475 1.387 . S
C474 H478 0.950 . S
C474 C483 1.390 . S
C475 C474 1.387 . S
C475 C477 1.387 . S
H476 C483 0.950 . S
C477 C475 1.387 . S
C477 C479 1.390 . S
C477 H481 0.950 . S
H478 C474 0.950 . S
C479 C477 1.390 . S
C479 C480 1.387 . S
C479 H482 0.950 . S
C480 C479 1.387 . S
C480 C483 1.387 . S
H481 C477 0.950 . S
H482 C479 0.950 . S
C483 C474 1.390 . S
C483 H476 0.950 . S
C483 C480 1.387 . S
C484 C485 1.387 . S
C484 H488 0.950 . S
C484 C493 1.390 . S
C485 C484 1.387 . S
C485 C487 1.387 . S
H486 C493 0.950 . S
C487 C485 1.387 . S
C487 C489 1.390 . S
C487 H491 0.950 . S
H488 C484 0.950 . S
C489 C487 1.390 . S
C489 C490 1.387 . S
C489 H492 0.950 . S
C490 C489 1.387 . S
C490 C493 1.387 . S
H491 C487 0.950 . S
H492 C489 0.950 . S
C493 C484 1.390 . S
C493 H486 0.950 . S
C493 C490 1.387 . S
C494 C495 1.387 . S
C494 H498 0.950 . S
C494 C503 1.390 . S
C495 C494 1.387 . S
C495 C497 1.387 . S
H496 C503 0.950 . S
C497 C495 1.387 . S
C497 C499 1.390 . S
C497 H501 0.950 . S
H498 C494 0.950 . S
C499 C497 1.390 . S
C499 C500 1.387 . S
C499 H502 0.950 . S
C500 C499 1.387 . S
C500 C503 1.387 . S
H501 C497 0.950 . S
H502 C499 0.950 . S
C503 C494 1.390 . S
C503 H496 0.950 . S
C503 C500 1.387 . S
C265 C7 1.749 . S
C270 C147 1.592 . S
C275 C30 1.539 . S
C280 C168 1.407 . S
C290 C189 1.490 . S
C285 N58 1.592 . S
C300 C218 1.419 . S
C295 N81 1.387 . S
C310 C231 1.539 . S
C305 C99 1.642 . S
C320 C255 1.427 . S
C315 N127 1.422 . S
C325 N25 1.594 . S
C330 C199 1.495 . S
C335 C62 1.545 . S
C340 C213 1.488 . S
C350 C241 1.563 . S
C345 C85 1.697 . S
C360 C260 1.440 . S
C355 N94 1.458 . S
C365 C131 1.683 . S
C370 C157 1.591 . S
C380 C178 1.333 . S
C375 N2 1.388 . S
C390 C220 1.632 . S
C385 C16 1.742 . S
C395 C39 1.547 . S
C400 C234 1.355 . S
C410 C252 1.582 . S
C405 N48 1.631 . S
C415 N71 1.413 . S
C420 C150 1.284 . S
C425 C108 1.668 . S
C430 C171 1.502 . S
C435 N117 1.461 . S
C440 C192 1.288 . S
C445 N35 1.609 . S
C450 C262 1.578 . S
C460 C155 1.390 . S
C455 C53 1.580 . S
C465 C76 1.768 . S
C470 C176 1.555 . S
C475 N104 1.459 . S
C480 C197 1.307 . S
C485 C122 1.661 . S
C490 C210 1.597 . S
C495 N12 1.383 . S
C500 C239 1.285 . S
