# Generated by pormake.
# Topology apo, (3,6)-cn, num edge types: 1
# Building blocks:
#     Node 0, Type 0, BuildingBlock: PAMTOO_clean_linker_0, # of connection points: 3
#     Node 1, Type 0, BuildingBlock: PAMTOO_clean_linker_0, # of connection points: 3
#     Node 2, Type 0, BuildingBlock: PAMTOO_clean_linker_0, # of connection points: 3
#     Node 3, Type 0, BuildingBlock: PAMTOO_clean_linker_0, # of connection points: 3
#     Node 4, Type 0, BuildingBlock: PAMTOO_clean_linker_0, # of connection points: 3
#     Node 5, Type 0, BuildingBlock: PAMTOO_clean_linker_0, # of connection points: 3
#     Node 6, Type 0, BuildingBlock: PAMTOO_clean_linker_0, # of connection points: 3
#     Node 7, Type 0, BuildingBlock: PAMTOO_clean_linker_0, # of connection points: 3
#     Node 8, Type 1, BuildingBlock: KUMJIN_clean_sbu_1, # of connection points: 6
#     Node 9, Type 1, BuildingBlock: KUMJIN_clean_sbu_1, # of connection points: 6
#     Node 10, Type 1, BuildingBlock: KUMJIN_clean_sbu_1, # of connection points: 6
#     Node 11, Type 1, BuildingBlock: KUMJIN_clean_sbu_1, # of connection points: 6
#     Edge 12, Type (0, 1), BuildingBlock: XUDNAN_clean_linker_2, # of connection points: 2
#     Edge 13, Type (0, 1), BuildingBlock: XUDNAN_clean_linker_2, # of connection points: 2
#     Edge 14, Type (0, 1), BuildingBlock: XUDNAN_clean_linker_2, # of connection points: 2
#     Edge 15, Type (0, 1), BuildingBlock: XUDNAN_clean_linker_2, # of connection points: 2
#     Edge 16, Type (0, 1), BuildingBlock: XUDNAN_clean_linker_2, # of connection points: 2
#     Edge 17, Type (0, 1), BuildingBlock: XUDNAN_clean_linker_2, # of connection points: 2
#     Edge 18, Type (0, 1), BuildingBlock: XUDNAN_clean_linker_2, # of connection points: 2
#     Edge 19, Type (0, 1), BuildingBlock: XUDNAN_clean_linker_2, # of connection points: 2
#     Edge 20, Type (0, 1), BuildingBlock: XUDNAN_clean_linker_2, # of connection points: 2
#     Edge 21, Type (0, 1), BuildingBlock: XUDNAN_clean_linker_2, # of connection points: 2
#     Edge 22, Type (0, 1), BuildingBlock: XUDNAN_clean_linker_2, # of connection points: 2
#     Edge 23, Type (0, 1), BuildingBlock: XUDNAN_clean_linker_2, # of connection points: 2
#     Edge 24, Type (0, 1), BuildingBlock: XUDNAN_clean_linker_2, # of connection points: 2
#     Edge 25, Type (0, 1), BuildingBlock: XUDNAN_clean_linker_2, # of connection points: 2
#     Edge 26, Type (0, 1), BuildingBlock: XUDNAN_clean_linker_2, # of connection points: 2
#     Edge 27, Type (0, 1), BuildingBlock: XUDNAN_clean_linker_2, # of connection points: 2
#     Edge 28, Type (0, 1), BuildingBlock: XUDNAN_clean_linker_2, # of connection points: 2
#     Edge 29, Type (0, 1), BuildingBlock: XUDNAN_clean_linker_2, # of connection points: 2
#     Edge 30, Type (0, 1), BuildingBlock: XUDNAN_clean_linker_2, # of connection points: 2
#     Edge 31, Type (0, 1), BuildingBlock: XUDNAN_clean_linker_2, # of connection points: 2
#     Edge 32, Type (0, 1), BuildingBlock: XUDNAN_clean_linker_2, # of connection points: 2
#     Edge 33, Type (0, 1), BuildingBlock: XUDNAN_clean_linker_2, # of connection points: 2
#     Edge 34, Type (0, 1), BuildingBlock: XUDNAN_clean_linker_2, # of connection points: 2
#     Edge 35, Type (0, 1), BuildingBlock: XUDNAN_clean_linker_2, # of connection points: 2
# Relax obj value: 0.040
# Max RMSD: 0.224
# Mean RMSD: 0.162
data_MOF--net-apo--node1-KUMJIN_clean_sbu_1--node2-PAMTOO_clean_linker_0--edge1-XUDNAN_clean_linker_2
_symmetry_space_group_name_H-M    P1
_symmetry_Int_Tables_number       1
_symmetry_cell_setting            triclinic
loop_
_symmetry_equiv_pos_as_xyz
'x, y, z'
_cell_length_a     27.48427
_cell_length_b     42.687093
_cell_length_c     51.300803
_cell_angle_alpha  90.055006
_cell_angle_beta   89.853445
_cell_angle_gamma 90.021925
loop_
_atom_site_label
_atom_site_type_symbol
_atom_site_fract_x
_atom_site_fract_y
_atom_site_fract_z
_atom_type_partial_charge
H0 H 0.40021 0.41938 0.42469 0.0
H1 H 0.31552 0.38554 0.3601 0.0
H2 H 0.29281 0.34709 0.43645 0.0
H3 H 0.29389 0.30049 0.3974 0.0
C4 C 0.28186 0.3138 0.37994 0.0
O5 O 0.26782 0.3436 0.38738 0.0
H6 H 0.31289 0.31543 0.366 0.0
C7 C 0.37229 0.40392 0.41714 0.0
C8 C 0.34786 0.3833 0.43406 0.0
C9 C 0.36048 0.40518 0.39053 0.0
C10 C 0.32413 0.38537 0.38071 0.0
C11 C 0.30026 0.36424 0.39726 0.0
C12 C 0.31143 0.36365 0.42391 0.0
H13 H 0.17164 0.0728 0.92417 0.0
H14 H 0.22747 0.16688 0.93113 0.0
H15 H 0.21622 0.12366 0.85585 0.0
H16 H 0.30885 0.15632 0.86798 0.0
C17 C 0.29418 0.17663 0.87913 0.0
O18 O 0.24428 0.17371 0.88129 0.0
H19 H 0.31081 0.17672 0.89888 0.0
C20 C 0.18639 0.09389 0.91543 0.0
C21 C 0.19237 0.09524 0.88829 0.0
C22 C 0.19833 0.1197 0.93119 0.0
C23 C 0.21688 0.14693 0.91936 0.0
C24 C 0.22374 0.14818 0.8923 0.0
C25 C 0.2107 0.12256 0.87675 0.0
H26 H 0.8589 0.09025 0.59127 0.0
H27 H 0.78834 0.12645 0.65991 0.0
H28 H 0.78191 0.17815 0.58842 0.0
H29 H 0.7895 0.21982 0.63285 0.0
C30 C 0.77625 0.20389 0.64849 0.0
O31 O 0.75631 0.17745 0.63732 0.0
H32 H 0.80778 0.19744 0.66097 0.0
C33 C 0.83734 0.10829 0.60066 0.0
C34 C 0.8222 0.13456 0.5863 0.0
C35 C 0.82489 0.10484 0.62709 0.0
C36 C 0.79871 0.12879 0.63961 0.0
C37 C 0.78382 0.15528 0.6256 0.0
C38 C 0.7952 0.15801 0.59907 0.0
H39 H 0.65695 0.4125 0.10256 0.0
H40 H 0.7428 0.32986 0.0878 0.0
H41 H 0.74685 0.37239 0.16291 0.0
H42 H 0.83746 0.35053 0.14108 0.0
C43 C 0.82506 0.32645 0.136 0.0
O44 O 0.77496 0.32498 0.13526 0.0
H45 H 0.8398 0.32037 0.11643 0.0
C46 C 0.68311 0.39529 0.10912 0.0
C47 C 0.69993 0.39601 0.13508 0.0
C48 C 0.69835 0.37159 0.09178 0.0
C49 C 0.73044 0.34834 0.1007 0.0
C50 C 0.74694 0.34862 0.12638 0.0
C51 C 0.73238 0.37247 0.14331 0.0
H52 H 0.667 0.57485 0.59746 0.0
H53 H 0.75099 0.65878 0.58354 0.0
H54 H 0.74829 0.61749 0.65959 0.0
H55 H 0.73597 0.68524 0.65864 0.0
C56 C 0.76104 0.69136 0.64233 0.0
O57 O 0.78032 0.66439 0.6317 0.0
H58 H 0.73963 0.70408 0.6273 0.0
C59 C 0.69062 0.59344 0.60431 0.0
C60 C 0.70571 0.59339 0.63042 0.0
C61 C 0.70714 0.61664 0.58692 0.0
C62 C 0.73734 0.64072 0.59646 0.0
C63 C 0.75147 0.64118 0.62267 0.0
C64 C 0.73635 0.61729 0.63947 0.0
H65 H 0.87053 0.93439 0.10152 0.0
H66 H 0.81003 0.87718 0.1624 0.0
H67 H 0.7851 0.85239 0.0827 0.0
H68 H 0.70077 0.83878 0.11739 0.0
C69 C 0.72084 0.83628 0.13605 0.0
O70 O 0.77028 0.83633 0.13119 0.0
H71 H 0.71131 0.85643 0.14889 0.0
C72 C 0.84817 0.91468 0.10733 0.0
C73 C 0.82874 0.89433 0.08832 0.0
C74 C 0.84143 0.90874 0.13404 0.0
C75 C 0.81488 0.8823 0.14186 0.0
C76 C 0.79452 0.86224 0.12332 0.0
C77 C 0.80125 0.86826 0.0967 0.0
H78 H 0.16465 0.91915 0.42351 0.0
H79 H 0.24803 0.83533 0.43826 0.0
H80 H 0.2484 0.87548 0.36218 0.0
H81 H 0.23469 0.8123 0.36033 0.0
C82 C 0.25757 0.80371 0.37672 0.0
O83 O 0.27766 0.82883 0.38989 0.0
H84 H 0.23372 0.79017 0.39017 0.0
C85 C 0.18937 0.90108 0.41683 0.0
C86 C 0.20358 0.90017 0.39039 0.0
C87 C 0.20556 0.87803 0.43455 0.0
C88 C 0.23522 0.85346 0.42521 0.0
C89 C 0.2498 0.85258 0.39905 0.0
C90 C 0.23532 0.8763 0.38211 0.0
H91 H 0.35946 0.58897 0.92448 0.0
H92 H 0.29933 0.63714 0.85781 0.0
H93 H 0.29818 0.68148 0.93237 0.0
H94 H 0.20287 0.68177 0.89997 0.0
C95 C 0.22061 0.68467 0.88059 0.0
O96 O 0.27051 0.68572 0.88357 0.0
H97 H 0.21044 0.6641 0.8684 0.0
C98 C 0.34193 0.60916 0.91584 0.0
C99 C 0.33154 0.6355 0.93154 0.0
C100 C 0.33009 0.60915 0.88905 0.0
C101 C 0.30774 0.6359 0.8784 0.0
C102 C 0.29516 0.66138 0.89406 0.0
C103 C 0.3075 0.66136 0.92047 0.0
Eu104 Eu 0.08207 0.12287 0.23448 0.0
C105 C 0.89382 0.066 0.27268 0.0
N106 N 0.90493 0.09704 0.27177 0.0
C107 C 0.83016 0.10781 0.24963 0.0
C108 C 0.85065 0.05455 0.26138 0.0
C109 C 0.87347 0.1181 0.26105 0.0
C110 C 0.81887 0.07588 0.2496 0.0
C111 C 0.91501 0.01348 0.28664 0.0
C112 C 0.9261 0.04568 0.28483 0.0
C113 C 0.87263 1.00184 0.27483 0.0
C114 C 0.84055 0.02232 0.26223 0.0
Eu115 Eu 0.97998 0.11199 0.29029 0.0
N116 N 0.96728 0.05753 0.29574 0.0
C117 C 0.94624 0.99409 0.30085 0.0
C118 C 0.99461 0.03939 0.31191 0.0
C119 C 0.98562 0.00726 0.31406 0.0
H120 H 0.88208 0.14277 0.26112 0.0
H121 H 0.00844 0.99283 0.32633 0.0
H122 H 0.16625 0.06615 0.23821 0.0
H123 H 0.10222 0.25031 0.23848 0.0
H124 H 0.02242 0.0498 0.32382 0.0
H125 H 0.93906 0.96923 0.30269 0.0
H126 H 0.05715 0.20052 0.23706 0.0
H127 H 0.80553 0.1245 0.24084 0.0
H128 H 0.86387 0.97712 0.27574 0.0
H129 H 0.80769 0.01304 0.25353 0.0
H130 H 0.25571 0.06174 0.24125 0.0
H131 H 0.78537 0.06798 0.24065 0.0
H132 H 0.19217 0.25004 0.23938 0.0
N133 N 0.16658 0.11595 0.23847 0.0
C134 C 0.19365 0.14258 0.23908 0.0
C135 C 0.2387 0.0846 0.2407 0.0
C136 C 0.24487 0.14113 0.24006 0.0
C137 C 0.18807 0.08716 0.23927 0.0
C138 C 0.26725 0.11168 0.24099 0.0
N139 N 0.12061 0.17213 0.23848 0.0
C140 C 0.0962 0.19998 0.23804 0.0
C141 C 0.19736 0.19943 0.239 0.0
C142 C 0.17011 0.17143 0.23875 0.0
C143 C 0.17251 0.22804 0.23906 0.0
C144 C 0.12173 0.2283 0.23864 0.0
H145 H 0.30651 0.1096 0.24185 0.0
H146 H 0.31147 0.16831 0.2405 0.0
H147 H 0.26993 0.2193 0.23923 0.0
O148 O 0.05302 0.13229 0.19575 0.0
O149 O 0.09898 0.14572 0.27349 0.0
O150 O 0.02456 0.15653 0.29265 0.0
O151 O 0.12281 0.10946 0.19948 0.0
O152 O 0.01079 0.14943 0.22947 0.0
O153 O 0.97313 0.15816 0.26944 0.0
O154 O 0.98054 0.10866 0.33283 0.0
O155 O 0.96868 0.09633 0.248 0.0
O156 O 0.04233 0.07683 0.23612 0.0
O157 O 0.92148 0.13244 0.31363 0.0
O158 O 0.05703 0.09372 0.29832 0.0
O159 O 0.08493 0.07817 0.25792 0.0
C160 C 0.07157 0.16126 0.29009 0.0
C161 C 0.1118 0.14278 0.16337 0.0
C162 C 0.13964 0.15089 0.11862 0.0
C163 C 0.15109 0.18212 0.125 0.0
C164 C 0.12275 0.17411 0.16909 0.0
C165 C 0.14249 0.1936 0.15004 0.0
C166 C 0.12011 0.13125 0.13811 0.0
C167 C 0.97955 0.1644 0.24455 0.0
C168 C 0.09162 0.12205 0.18358 0.0
C169 C 0.27208 0.16898 0.23995 0.0
C170 C 0.24841 0.19802 0.23919 0.0
C171 C 0.99492 0.0747 0.23656 0.0
C172 C 0.90422 0.10781 0.3538 0.0
C173 C 0.86992 0.10423 0.39769 0.0
C174 C 0.83825 0.08058 0.38881 0.0
C175 C 0.87246 0.0842 0.3454 0.0
C176 C 0.90307 0.11762 0.37991 0.0
C177 C 0.83973 0.07063 0.36288 0.0
C178 C 0.08437 0.07558 0.28348 0.0
C179 C 0.93878 0.12257 0.33571 0.0
H180 H 0.16718 0.19768 0.11072 0.0
H181 H 0.11595 0.18358 0.18821 0.0
H182 H 0.15121 0.21768 0.15472 0.0
H183 H 0.1107 0.10719 0.13361 0.0
H184 H 0.8117 0.07011 0.40177 0.0
H185 H 0.87271 0.07641 0.32537 0.0
H186 H 0.9283 0.13553 0.38635 0.0
H187 H 0.81511 0.05251 0.35626 0.0
Eu188 Eu 0.45315 0.38526 0.73469 0.0
C189 C 0.67136 0.39452 0.78203 0.0
N190 N 0.63773 0.37138 0.78469 0.0
C191 C 0.69955 0.33235 0.77935 0.0
C192 C 0.72079 0.38732 0.77772 0.0
C193 C 0.65104 0.34064 0.78384 0.0
C194 C 0.73459 0.35579 0.77621 0.0
C195 C 0.6903 0.45011 0.78082 0.0
C196 C 0.65629 0.42557 0.78343 0.0
C197 C 0.73959 0.443 0.77662 0.0
C198 C 0.75477 0.41172 0.77501 0.0
Eu199 Eu 0.55685 0.38761 0.79169 0.0
N200 N 0.608 0.43176 0.78651 0.0
C201 C 0.67365 0.48106 0.78221 0.0
C202 C 0.59174 0.46189 0.7886 0.0
C203 C 0.62421 0.48695 0.78625 0.0
H204 H 0.62427 0.32252 0.78706 0.0
H205 H 0.61109 0.5108 0.78758 0.0
H206 H 0.35202 0.41494 0.76122 0.0
H207 H 0.48364 0.26638 0.69668 0.0
H208 H 0.55376 0.46668 0.79191 0.0
H209 H 0.69864 0.50055 0.78026 0.0
H210 H 0.49676 0.3232 0.69939 0.0
H211 H 0.70995 0.30792 0.7785 0.0
H212 H 0.76623 0.46154 0.77447 0.0
H213 H 0.7929 0.40663 0.77167 0.0
H214 H 0.2733 0.39621 0.7789 0.0
H215 H 0.77219 0.3493 0.77282 0.0
H216 H 0.41477 0.24204 0.72026 0.0
N217 N 0.37712 0.36935 0.75161 0.0
C218 C 0.36681 0.33826 0.75041 0.0
C219 C 0.29934 0.37967 0.77105 0.0
C220 C 0.32265 0.3265 0.76051 0.0
C221 C 0.34374 0.39022 0.76101 0.0
C222 C 0.28894 0.34763 0.77106 0.0
N223 N 0.44125 0.3306 0.72787 0.0
C224 C 0.46871 0.31275 0.71129 0.0
C225 C 0.38969 0.286 0.73655 0.0
C226 C 0.40025 0.31827 0.73873 0.0
C227 C 0.4215 0.26694 0.72231 0.0
C228 C 0.4605 0.28054 0.70906 0.0
H229 H 0.25463 0.33949 0.77899 0.0
H230 H 0.27991 0.28467 0.76752 0.0
H231 H 0.33825 0.24927 0.74619 0.0
O232 O 0.44027 0.38066 0.69211 0.0
O233 O 0.43607 0.37542 0.77748 0.0
O234 O 0.50267 0.3479 0.79021 0.0
O235 O 0.40052 0.415 0.71526 0.0
O236 O 0.52806 0.36335 0.72729 0.0
O237 O 0.54455 0.34395 0.76794 0.0
O238 O 0.53659 0.40198 0.83116 0.0
O239 O 0.57754 0.41085 0.75348 0.0
O240 O 0.50971 0.42295 0.72822 0.0
O241 O 0.59359 0.36781 0.82563 0.0
O242 O 0.49457 0.42204 0.79642 0.0
O243 O 0.45335 0.43082 0.75728 0.0
C244 C 0.45573 0.35281 0.79111 0.0
C245 C 0.38016 0.41371 0.66944 0.0
C246 C 0.3622 0.41268 0.62271 0.0
C247 C 0.3262 0.43561 0.62679 0.0
C248 C 0.34377 0.4365 0.67284 0.0
C249 C 0.31713 0.44735 0.65165 0.0
C250 C 0.38943 0.40189 0.64422 0.0
C251 C 0.55128 0.34363 0.74263 0.0
C252 C 0.40756 0.40269 0.69246 0.0
C253 C 0.31332 0.29419 0.75955 0.0
C254 C 0.34672 0.27401 0.74756 0.0
C255 C 0.55586 0.42601 0.73443 0.0
C256 C 0.60093 0.40169 0.86163 0.0
C257 C 0.63228 0.40587 0.90607 0.0
C258 C 0.66205 0.43093 0.89795 0.0
C259 C 0.63019 0.42708 0.85425 0.0
C260 C 0.60167 0.39134 0.88759 0.0
C261 C 0.66063 0.44154 0.87228 0.0
C262 C 0.46443 0.43809 0.78157 0.0
C263 C 0.57053 0.3854 0.8423 0.0
H264 H 0.30542 0.4449 0.61063 0.0
H265 H 0.33577 0.44606 0.69195 0.0
H266 H 0.28939 0.46503 0.6545 0.0
H267 H 0.41725 0.38422 0.64137 0.0
H268 H 0.68709 0.44213 0.91128 0.0
H269 H 0.62984 0.43571 0.8346 0.0
H270 H 0.57824 0.37211 0.89331 0.0
H271 H 0.68354 0.46088 0.86627 0.0
Eu272 Eu 0.05868 0.88873 0.72853 0.0
C273 C 0.83927 0.88073 0.7651 0.0
N274 N 0.87122 0.90503 0.76567 0.0
C275 C 0.80955 0.93969 0.74947 0.0
C276 C 0.79119 0.88498 0.75615 0.0
C277 C 0.8561 0.93459 0.75949 0.0
C278 C 0.77712 0.91466 0.74743 0.0
C279 C 0.81906 0.82786 0.77872 0.0
C280 C 0.8532 0.85226 0.77576 0.0
C281 C 0.77164 0.83172 0.76912 0.0
C282 C 0.75794 0.86005 0.75753 0.0
Eu283 Eu 0.94904 0.89401 0.78323 0.0
N284 N 0.89895 0.84938 0.7854 0.0
C285 C 0.83312 0.80071 0.79207 0.0
C286 C 0.91227 0.82358 0.79941 0.0
C287 C 0.87986 0.79862 0.80255 0.0
H288 H 0.87943 0.95454 0.76277 0.0
H289 H 0.8907 0.778 0.81332 0.0
H290 H 0.1538 0.85839 0.75953 0.0
H291 H 0.04116 0.00451 0.68289 0.0
H292 H 0.94802 0.82244 0.8081 0.0
H293 H 0.80787 0.78148 0.7948 0.0
H294 H 0.0234 0.94842 0.68851 0.0
H295 H 0.79829 0.96307 0.744 0.0
H296 H 0.74501 0.81312 0.771 0.0
H297 H 0.72093 0.86288 0.7507 0.0
H298 H 0.23086 0.87645 0.7797 0.0
H299 H 0.74061 0.91883 0.74031 0.0
H300 H 0.1095 0.02884 0.70683 0.0
N301 N 0.13425 0.90374 0.74627 0.0
C302 C 0.1474 0.93423 0.74355 0.0
C303 C 0.20759 0.89295 0.7697 0.0
C304 C 0.19039 0.94568 0.75502 0.0
C305 C 0.16421 0.88277 0.75826 0.0
C306 C 0.22043 0.92463 0.76838 0.0
N307 N 0.07709 0.94167 0.71786 0.0
C308 C 0.0517 0.95897 0.70011 0.0
C309 C 0.13005 0.98568 0.72603 0.0
C310 C 0.11738 0.95391 0.72937 0.0
C311 C 0.1011 0.0043 0.70986 0.0
C312 C 0.0624 0.99069 0.69639 0.0
H313 H 0.25381 0.93251 0.77747 0.0
H314 H 0.23452 0.98699 0.76172 0.0
H315 H 0.18175 0.02203 0.73626 0.0
O316 O 0.09054 0.88995 0.68915 0.0
O317 O 0.07211 0.906 0.76966 0.0
O318 O 0.00301 0.93373 0.77809 0.0
O319 O 0.0905 0.84634 0.71142 0.0
O320 O 0.98599 0.91019 0.71704 0.0
O321 O 0.95973 0.93449 0.75465 0.0
O322 O 0.96432 0.89115 0.82522 0.0
O323 O 0.95166 0.85079 0.75636 0.0
O324 O 0.98273 0.87259 0.71934 0.0
O325 O 0.90345 0.91813 0.81189 0.0
O326 O 0.01622 0.86626 0.7944 0.0
O327 O 0.05519 0.84739 0.7569 0.0
C328 C 0.04993 0.92957 0.78082 0.0
C329 C 0.12689 0.84422 0.66794 0.0
C330 C 0.15147 0.84119 0.62191 0.0
C331 C 0.17507 0.81266 0.62736 0.0
C332 C 0.15017 0.81551 0.67254 0.0
C333 C 0.1742 0.79997 0.65239 0.0
C334 C 0.12765 0.85703 0.64255 0.0
C335 C 0.96037 0.93193 0.7291 0.0
C336 C 0.10214 0.86045 0.68978 0.0
C337 C 0.20198 0.97761 0.75274 0.0
C338 C 0.17183 0.99758 0.73831 0.0
C339 C 0.96055 0.84951 0.73115 0.0
C340 C 0.89448 0.89257 0.85244 0.0
C341 C 0.8722 0.88502 0.89829 0.0
C342 C 0.83487 0.86458 0.89042 0.0
C343 C 0.85578 0.87295 0.84527 0.0
C344 C 0.9023 0.89888 0.8791 0.0
C345 C 0.82671 0.85872 0.8641 0.0
C346 C 0.04676 0.84714 0.78234 0.0
C347 C 0.92576 0.90681 0.8321 0.0
H348 H 0.19495 0.80021 0.61233 0.0
H349 H 0.15025 0.80519 0.69182 0.0
H350 H 0.19252 0.77801 0.65622 0.0
H351 H 0.10903 0.87893 0.63882 0.0
H352 H 0.81078 0.85392 0.90461 0.0
H353 H 0.84733 0.86896 0.82511 0.0
H354 H 0.93142 0.91454 0.88485 0.0
H355 H 0.79715 0.84352 0.85822 0.0
Eu356 Eu 0.47507 0.61518 0.22964 0.0
C357 C 0.6775 0.66169 0.26377 0.0
N358 N 0.65892 0.63216 0.26524 0.0
C359 C 0.73214 0.61149 0.24625 0.0
C360 C 0.72375 0.66723 0.25266 0.0
C361 C 0.68666 0.60705 0.25792 0.0
C362 C 0.75047 0.64173 0.24324 0.0
C363 C 0.67131 0.7168 0.27528 0.0
C364 C 0.65145 0.68636 0.27469 0.0
C365 C 0.71678 0.72243 0.26368 0.0
C366 C 0.74269 0.69779 0.25217 0.0
Eu367 Eu 0.58072 0.628 0.28476 0.0
N368 N 0.60727 0.6804 0.28557 0.0
C369 C 0.64537 0.74052 0.28809 0.0
C370 C 0.58259 0.70308 0.2989 0.0
C371 C 0.60094 0.73359 0.30007 0.0
H372 H 0.67474 0.58337 0.2615 0.0
H373 H 0.58106 0.75165 0.31038 0.0
H374 H 0.38148 0.66044 0.24957 0.0
H375 H 0.47815 0.48989 0.20692 0.0
H376 H 0.54878 0.69747 0.30858 0.0
H377 H 0.65968 0.76413 0.28919 0.0
H378 H 0.51043 0.54348 0.20852 0.0
H379 H 0.75348 0.5915 0.24007 0.0
H380 H 0.73264 0.74567 0.2639 0.0
H381 H 0.77807 0.70244 0.24365 0.0
H382 H 0.29698 0.65405 0.26443 0.0
H383 H 0.78608 0.64504 0.23455 0.0
H384 H 0.39415 0.4792 0.22186 0.0
N385 N 0.39377 0.61166 0.24435 0.0
C386 C 0.37319 0.58269 0.24332 0.0
C387 C 0.31818 0.63372 0.25891 0.0
C388 C 0.32425 0.5781 0.25078 0.0
C389 C 0.36659 0.63719 0.25104 0.0
C390 C 0.29702 0.604 0.25902 0.0
N391 N 0.44759 0.56279 0.22653 0.0
C392 C 0.47481 0.53907 0.21627 0.0
C393 C 0.38007 0.52742 0.2326 0.0
C394 C 0.40074 0.55762 0.23412 0.0
C395 C 0.40867 0.50275 0.2232 0.0
C396 C 0.45614 0.50865 0.21486 0.0
H397 H 0.25932 0.60143 0.26487 0.0
H398 H 0.26617 0.54412 0.25494 0.0
H399 H 0.31502 0.49978 0.23908 0.0
O400 O 0.46263 0.6041 0.18875 0.0
O401 O 0.4673 0.58715 0.26762 0.0
O402 O 0.54616 0.58001 0.28227 0.0
O403 O 0.43757 0.64848 0.20392 0.0
O404 O 0.54885 0.59334 0.21967 0.0
O405 O 0.58953 0.58513 0.25891 0.0
O406 O 0.56648 0.63279 0.32661 0.0
O407 O 0.5618 0.66647 0.25598 0.0
O408 O 0.548 0.63705 0.22003 0.0
O409 O 0.6346 0.61341 0.31347 0.0
O410 O 0.50141 0.63652 0.29324 0.0
O411 O 0.46796 0.65806 0.25656 0.0
C412 C 0.50006 0.57167 0.28125 0.0
C413 C 0.39682 0.62707 0.16672 0.0
C414 C 0.36289 0.62582 0.12256 0.0
C415 C 0.3176 0.61725 0.13323 0.0
C416 C 0.35129 0.61866 0.17687 0.0
C417 C 0.31193 0.61381 0.16017 0.0
C418 C 0.40242 0.63069 0.1396 0.0
C419 C 0.58139 0.57867 0.2341 0.0
C420 C 0.43989 0.63004 0.18362 0.0
C421 C 0.30369 0.54806 0.24927 0.0
C422 C 0.33148 0.52282 0.24018 0.0
C423 C 0.5655 0.66233 0.23085 0.0
C424 C 0.63517 0.64076 0.35343 0.0
C425 C 0.65916 0.64754 0.39894 0.0
C426 C 0.68648 0.67405 0.39168 0.0
C427 C 0.66317 0.66697 0.34662 0.0
C428 C 0.63312 0.63118 0.37959 0.0
C429 C 0.68829 0.68367 0.3657 0.0
C430 C 0.47404 0.65775 0.28213 0.0
C431 C 0.60915 0.62257 0.33347 0.0
H432 H 0.28629 0.61372 0.12079 0.0
H433 H 0.34615 0.61557 0.19757 0.0
H434 H 0.27686 0.6073 0.16814 0.0
H435 H 0.43788 0.63668 0.13174 0.0
H436 H 0.7076 0.68688 0.40592 0.0
H437 H 0.66626 0.67432 0.32659 0.0
H438 H 0.61145 0.61088 0.38478 0.0
H439 H 0.70993 0.70383 0.36026 0.0
H440 H 0.18221 0.96344 0.39721 0.0
H441 H 0.17996 0.88886 0.33939 0.0
H442 H 0.15525 0.92657 0.30598 0.0
H443 H 0.07268 1.00175 0.3719 0.0
H444 H 0.09433 0.0406 0.37927 0.0
H445 H 0.11354 0.00788 0.39888 0.0
H446 H 0.20363 0.02232 0.38963 0.0
H447 H 0.18456 0.05475 0.36967 0.0
H448 H 0.22448 0.02527 0.35637 0.0
H449 H 0.13451 0.97179 0.27824 0.0
H450 H 0.1066 0.02108 0.2587 0.0
H451 H 0.11459 0.06661 0.33432 0.0
C452 C 0.1761 0.95492 0.37761 0.0
C453 C 0.18465 0.92314 0.37095 0.0
C454 C 0.17578 0.91318 0.34497 0.0
C455 C 0.16129 0.9344 0.32578 0.0
C456 C 0.15462 0.96553 0.33283 0.0
C457 C 0.16059 0.97576 0.35816 0.0
C458 C 0.14849 0.01038 0.3605 0.0
C459 C 0.10466 0.01544 0.37872 0.0
C460 C 0.19295 0.02929 0.36958 0.0
C461 C 0.13559 0.01791 0.33245 0.0
C462 C 0.13986 0.99165 0.31687 0.0
C463 C 0.13049 0.99248 0.29025 0.0
C464 C 0.11482 0.02069 0.27932 0.0
C465 C 0.10769 0.04761 0.29505 0.0
C466 C 0.11941 0.04635 0.32187 0.0
H467 H 0.40926 0.56863 0.89011 0.0
H468 H 0.27432 0.58693 0.8488 0.0
H469 H 0.29557 0.54668 0.81654 0.0
H470 H 0.48433 0.55349 0.83572 0.0
H471 H 0.51694 0.52125 0.85011 0.0
H472 H 0.49169 0.55147 0.8706 0.0
H473 H 0.44355 0.50988 0.89686 0.0
H474 H 0.46928 0.47949 0.8767 0.0
H475 H 0.40418 0.48298 0.87989 0.0
H476 H 0.33443 0.50833 0.78636 0.0
H477 H 0.38222 0.46757 0.76397 0.0
H478 H 0.48746 0.46915 0.82704 0.0
C479 C 0.3837 0.56385 0.87459 0.0
C480 C 0.34067 0.58179 0.87174 0.0
C481 C 0.30839 0.57452 0.85102 0.0
C482 C 0.31991 0.55146 0.83261 0.0
C483 C 0.36329 0.53512 0.83545 0.0
C484 C 0.39413 0.54032 0.85624 0.0
C485 C 0.43784 0.51864 0.85492 0.0
C486 C 0.48551 0.53735 0.8527 0.0
C487 C 0.43874 0.49643 0.87849 0.0
C488 C 0.42703 0.50102 0.82988 0.0
C489 C 0.38411 0.5112 0.81885 0.0
C490 C 0.36764 0.49968 0.79504 0.0
C491 C 0.39518 0.47654 0.78243 0.0
C492 C 0.43825 0.46466 0.79387 0.0
C493 C 0.45443 0.47739 0.81786 0.0
H494 H 0.61382 0.57388 0.64351 0.0
H495 H 0.76672 0.55417 0.65601 0.0
H496 H 0.7447 0.50853 0.6833 0.0
H497 H 0.57554 0.55355 0.70955 0.0
H498 H 0.51843 0.537 0.69919 0.0
H499 H 0.54623 0.56799 0.68055 0.0
H500 H 0.54363 0.53304 0.63923 0.0
H501 H 0.51613 0.50189 0.65779 0.0
H502 H 0.57161 0.49486 0.63991 0.0
H503 H 0.70653 0.46371 0.70678 0.0
H504 H 0.65464 0.42501 0.72892 0.0
H505 H 0.52585 0.47585 0.70441 0.0
C506 C 0.64248 0.5599 0.65211 0.0
C507 C 0.69192 0.56726 0.64774 0.0
C508 C 0.72867 0.54882 0.65935 0.0
C509 C 0.71651 0.52286 0.67472 0.0
C510 C 0.66744 0.51603 0.67855 0.0
C511 C 0.63094 0.53423 0.66794 0.0
C512 C 0.5811 0.52218 0.67577 0.0
C513 C 0.55372 0.54664 0.69225 0.0
C514 C 0.55138 0.51241 0.65174 0.0
C515 C 0.59535 0.49402 0.692 0.0
C516 C 0.64534 0.49088 0.69321 0.0
C517 C 0.66736 0.46624 0.70639 0.0
C518 C 0.63752 0.44451 0.7191 0.0
C519 C 0.58623 0.44787 0.71906 0.0
C520 C 0.56494 0.47275 0.70496 0.0
H521 H 0.83215 0.97239 0.14019 0.0
H522 H 0.90375 0.89054 0.17212 0.0
H523 H 0.94645 0.92405 0.20406 0.0
H524 H 0.93052 0.02484 0.14508 0.0
H525 H 0.89469 0.05825 0.15481 0.0
H526 H 0.86764 0.02772 0.13544 0.0
H527 H 0.80003 0.02099 0.17013 0.0
H528 H 0.82712 0.05114 0.19001 0.0
H529 H 0.81632 0.01275 0.20342 0.0
H530 H 0.98761 0.96643 0.22897 0.0
H531 H 0.02108 0.01524 0.24759 0.0
H532 H 0.91856 0.06984 0.20253 0.0
C533 C 0.85652 0.96163 0.15412 0.0
C534 C 0.86486 0.92897 0.15381 0.0
C535 C 0.89679 0.91552 0.17225 0.0
C536 C 0.92112 0.93434 0.19042 0.0
C537 C 0.91237 0.96648 0.19018 0.0
C538 C 0.88037 0.98005 0.17278 0.0
C539 C 0.87828 0.01531 0.1765 0.0
C540 C 0.89372 0.03253 0.15147 0.0
C541 C 0.82741 0.02566 0.18556 0.0
C542 C 0.91548 0.0195 0.19799 0.0
C543 C 0.93462 0.99097 0.20556 0.0
C544 C 0.97237 0.98885 0.22352 0.0
C545 C 0.99142 0.01662 0.23381 0.0
C546 C 0.97214 0.046 0.2265 0.0
C547 C 0.9332 0.04749 0.20869 0.0
H548 H 0.86715 0.0971 0.67549 0.0
H549 H 0.80983 0.04572 0.60929 0.0
H550 H 0.83329 0.99594 0.62999 0.0
H551 H 0.97049 0.049 0.68506 0.0
H552 H 0.96937 0.05066 0.72015 0.0
H553 H 0.94478 0.08256 0.7014 0.0
H554 H 0.86218 0.07701 0.72545 0.0
H555 H 0.88661 0.04519 0.74442 0.0
H556 H 0.83175 0.03957 0.72582 0.0
H557 H 0.86761 0.95239 0.65561 0.0
H558 H 0.91117 0.91681 0.68536 0.0
H559 H 0.94563 0.99513 0.73597 0.0
C560 C 0.85887 0.0753 0.66564 0.0
C561 C 0.8368 0.07521 0.64075 0.0
C562 C 0.82716 0.0463 0.62823 0.0
C563 C 0.84005 0.01791 0.63989 0.0
C564 C 0.86241 0.01875 0.66418 0.0
C565 C 0.87174 0.04659 0.67702 0.0
C566 C 0.89858 0.04069 0.70239 0.0
C567 C 0.94877 0.05668 0.70223 0.0
C568 C 0.86794 0.05124 0.72591 0.0
C569 C 0.90337 0.0053 0.70152 0.0
C570 C 0.88201 0.99322 0.67931 0.0
C571 C 0.88396 0.96146 0.67324 0.0
C572 C 0.90887 0.94149 0.69016 0.0
C573 C 0.9312 0.9533 0.71295 0.0
C574 C 0.92792 0.98554 0.71889 0.0
H575 H 0.67444 0.45798 0.12514 0.0
H576 H 0.68485 0.38972 0.18784 0.0
H577 H 0.66177 0.43019 0.21938 0.0
H578 H 0.71557 0.52552 0.1601 0.0
H579 H 0.6716 0.55187 0.14609 0.0
H580 H 0.69197 0.51819 0.1279 0.0
H581 H 0.60277 0.49951 0.12262 0.0
H582 H 0.58217 0.53335 0.14052 0.0
H583 H 0.5652 0.49464 0.15119 0.0
H584 H 0.64051 0.47756 0.24454 0.0
H585 H 0.61047 0.52778 0.26151 0.0
H586 H 0.60378 0.56476 0.18278 0.0
C587 C 0.67148 0.45131 0.14542 0.0
C588 C 0.68301 0.42053 0.15385 0.0
C589 C 0.67842 0.41321 0.18074 0.0
C590 C 0.66482 0.43602 0.19891 0.0
C591 C 0.65468 0.46604 0.18998 0.0
C592 C 0.65671 0.47366 0.16387 0.0
C593 C 0.64093 0.50736 0.1595 0.0
C594 C 0.6825 0.52688 0.1477 0.0
C595 C 0.59504 0.50878 0.14245 0.0
C596 C 0.63006 0.51736 0.1873 0.0
C597 C 0.63907 0.49319 0.20452 0.0
C598 C 0.63293 0.49663 0.23127 0.0
C599 C 0.61607 0.52535 0.24072 0.0
C600 C 0.6046 0.55015 0.22347 0.0
C601 C 0.61215 0.54616 0.19639 0.0
H602 H 0.32599 0.45238 0.35907 0.0
H603 H 0.45798 0.40502 0.38307 0.0
H604 H 0.50662 0.44052 0.35535 0.0
H605 H 0.36288 0.47048 0.29115 0.0
H606 H 0.33316 0.5081 0.2927 0.0
H607 H 0.31064 0.47612 0.31202 0.0
H608 H 0.31869 0.51296 0.35247 0.0
H609 H 0.34405 0.54354 0.33245 0.0
H610 H 0.37737 0.52935 0.36025 0.0
H611 H 0.54105 0.48167 0.3273 0.0
H612 H 0.56123 0.5278 0.30112 0.0
H613 H 0.40756 0.55058 0.29472 0.0
C614 C 0.36507 0.44933 0.35808 0.0
C615 C 0.38847 0.42591 0.37295 0.0
C616 C 0.43963 0.42284 0.37174 0.0
C617 C 0.46742 0.4428 0.35601 0.0
C618 C 0.44348 0.46584 0.34176 0.0
C619 C 0.39356 0.46943 0.34268 0.0
C620 C 0.37766 0.49752 0.32665 0.0
C621 C 0.34414 0.48738 0.30428 0.0
C622 C 0.35299 0.5223 0.344 0.0
C623 C 0.42648 0.50903 0.31651 0.0
C624 C 0.46374 0.49021 0.32552 0.0
C625 C 0.51224 0.49647 0.31994 0.0
C626 C 0.52327 0.52287 0.305 0.0
C627 C 0.48604 0.54288 0.29562 0.0
C628 C 0.43684 0.53559 0.30126 0.0
H629 H 0.12417 0.09046 0.84974 0.0
H630 H 0.23345 0.0377 0.89173 0.0
H631 H 0.21127 0.98996 0.86705 0.0
H632 H 0.03477 0.03111 0.85048 0.0
H633 H 0.01135 0.03923 0.8184 0.0
H634 H 0.03912 0.07007 0.83714 0.0
H635 H 0.0998 0.08089 0.79936 0.0
H636 H 0.07189 0.05016 0.78047 0.0
H637 H 0.13635 0.04922 0.78673 0.0
H638 H 0.17626 0.94809 0.83892 0.0
H639 H 0.12718 0.91352 0.81073 0.0
H640 H 0.03685 0.99245 0.78875 0.0
C641 C 0.14385 0.06891 0.85329 0.0
C642 C 0.18079 0.06753 0.87231 0.0
C643 C 0.20522 0.03898 0.87707 0.0
C644 C 0.19297 0.01189 0.86314 0.0
C645 C 0.15593 0.01381 0.84473 0.0
C646 C 0.13151 0.0415 0.83982 0.0
C647 C 0.09086 0.03656 0.82032 0.0
C648 C 0.04109 0.04472 0.83231 0.0
C649 C 0.10031 0.05533 0.79524 0.0
C650 C 0.09567 1.00171 0.81547 0.0
C651 C 0.13404 0.98921 0.82938 0.0
C652 C 0.14608 0.95758 0.82797 0.0
C653 C 0.11805 0.93816 0.81195 0.0
C654 C 0.07817 0.9504 0.79786 0.0
C655 C 0.06681 0.98254 0.79966 0.0
H656 H 0.16194 0.16491 0.96397 0.0
H657 H 0.22033 0.07044 0.96336 0.0
H658 H 0.20846 0.0671 0.01101 0.0
H659 H 0.21748 0.18883 0.0239 0.0
H660 H 0.16619 0.21205 0.03427 0.0
H661 H 0.17809 0.20654 1.00004 0.0
H662 H 0.09078 0.18479 0.99384 0.0
H663 H 0.07869 0.1901 0.02808 0.0
H664 H 0.07063 0.15212 0.01333 0.0
H665 H 0.19232 0.07471 0.05905 0.0
H666 H 0.17439 0.09309 0.10373 0.0
H667 H 0.12514 0.1821 0.07251 0.0
C668 C 0.17252 0.14358 0.97387 0.0
C669 C 0.1919 0.1179 0.95991 0.0
C670 C 0.20476 0.09027 0.97359 0.0
C671 C 0.19834 0.08818 1.00066 0.0
C672 C 0.17897 0.11389 0.01379 0.0
C673 C 0.16628 0.14107 1.00085 0.0
C674 C 0.14681 0.1655 0.01954 0.0
C675 C 0.17908 0.19496 0.01942 0.0
C676 C 0.09356 0.17359 0.01332 0.0
C677 C 0.15094 0.14793 0.04504 0.0
C678 C 0.16943 0.11818 0.04134 0.0
C679 C 0.17751 0.09791 0.06217 0.0
C680 C 0.16692 0.10849 0.08747 0.0
C681 C 0.14841 0.13908 0.09172 0.0
C682 C 0.13986 0.15876 0.07005 0.0
H683 H 0.28569 0.38163 0.47592 0.0
H684 H 0.43901 0.38348 0.45575 0.0
H685 H 0.46017 0.38552 0.50253 0.0
H686 H 0.29215 0.43573 0.52663 0.0
H687 H 0.24775 0.41665 0.54709 0.0
H688 H 0.2451 0.41189 0.51229 0.0
H689 H 0.24852 0.35156 0.51775 0.0
H690 H 0.25124 0.35614 0.55265 0.0
H691 H 0.29773 0.33418 0.53584 0.0
H692 H 0.46418 0.39161 0.5516 0.0
H693 H 0.45023 0.40355 0.59827 0.0
H694 H 0.29449 0.39664 0.58605 0.0
C695 C 0.32373 0.38173 0.48136 0.0
C696 C 0.36069 0.38233 0.46219 0.0
C697 C 0.41006 0.38325 0.47011 0.0
C698 C 0.42245 0.38415 0.49663 0.0
C699 C 0.38507 0.38398 0.51504 0.0
C700 C 0.3367 0.38274 0.50772 0.0
C701 C 0.30334 0.38512 0.53114 0.0
C702 C 0.27016 0.41407 0.52916 0.0
C703 C 0.27345 0.35495 0.53454 0.0
C704 C 0.34038 0.38876 0.55271 0.0
C705 C 0.38738 0.38761 0.54315 0.0
C706 C 0.42752 0.39215 0.55935 0.0
C707 C 0.4193 0.39876 0.58585 0.0
C708 C 0.37131 0.40106 0.5958 0.0
C709 C 0.33161 0.39518 0.57901 0.0
H710 H 0.68717 0.42111 0.05812 0.0
H711 H 0.67009 0.3202 0.06346 0.0
H712 H 0.64702 0.31825 0.01706 0.0
H713 H 0.58471 0.43422 0.01337 0.0
H714 H 0.61626 0.46472 0.99588 0.0
H715 H 0.62877 0.45834 0.02993 0.0
H716 H 0.72042 0.45177 0.01925 0.0
H717 H 0.70818 0.45792 0.9852 0.0
H718 H 0.73906 0.42287 0.9956 0.0
H719 H 0.63246 0.32671 0.96932 0.0
H720 H 0.62492 0.34524 0.92404 0.0
H721 H 0.64539 0.44106 0.95057 0.0
C722 C 0.6776 0.39868 0.04969 0.0
C723 C 0.68073 0.37079 0.06442 0.0
C724 C 0.66873 0.34184 0.05248 0.0
C725 C 0.65523 0.34049 0.02618 0.0
C726 C 0.65336 0.36834 0.01213 0.0
C727 C 0.66377 0.39693 0.0235 0.0
C728 C 0.66065 0.42325 1.00382 0.0
C729 C 0.62017 0.4465 0.01119 0.0
C730 C 0.71001 0.43992 1.0008 0.0
C731 C 0.64773 0.4049 0.97954 0.0
C732 C 0.64363 0.37329 0.98473 0.0
C733 C 0.6347 0.3515 0.96508 0.0
C734 C 0.63014 0.36231 0.93939 0.0
C735 C 0.63427 0.39469 0.93355 0.0
C736 C 0.64249 0.41614 0.95414 0.0
H737 H 0.82297 0.08681 0.55031 0.0
H738 H 0.84577 0.18712 0.55771 0.0
H739 H 0.86219 0.19034 0.51041 0.0
H740 H 0.91972 0.07393 0.503 0.0
H741 H 0.88609 0.04412 0.48585 0.0
H742 H 0.87636 0.04992 0.52026 0.0
H743 H 0.78415 0.05774 0.51204 0.0
H744 H 0.79357 0.05208 0.47763 0.0
H745 H 0.76446 0.08726 0.48927 0.0
H746 H 0.8736 0.18255 0.46181 0.0
H747 H 0.87957 0.16446 0.4162 0.0
H748 H 0.85485 0.06877 0.44173 0.0
C749 C 0.83223 0.10945 0.5422 0.0
C750 C 0.8331 0.13672 0.55789 0.0
C751 C 0.84421 0.16593 0.54613 0.0
C752 C 0.85397 0.16796 0.5193 0.0
C753 C 0.85289 0.14056 0.50451 0.0
C754 C 0.84257 0.11185 0.5156 0.0
C755 C 0.84338 0.08588 0.4955 0.0
C756 C 0.8838 0.06206 0.50152 0.0
C757 C 0.79341 0.06981 0.4935 0.0
C758 C 0.85493 0.10453 0.47121 0.0
C759 C 0.86043 0.13601 0.47678 0.0
C760 C 0.86986 0.1579 0.45728 0.0
C761 C 0.87349 0.14734 0.43142 0.0
C762 C 0.86781 0.11513 0.42526 0.0
C763 C 0.85884 0.09357 0.44562 0.0
H764 H 0.84312 0.85 0.04977 0.0
H765 H 0.83703 0.95063 0.06219 0.0
H766 H 0.85628 0.95913 0.01577 0.0
H767 H 0.93917 0.84895 1.00192 0.0
H768 H 0.91135 0.8185 0.98267 0.0
H769 H 0.90058 0.8202 0.0173 0.0
H770 H 0.80749 0.82189 1.00942 0.0
H771 H 0.81797 0.81976 0.97482 0.0
H772 H 0.78259 0.85148 0.98825 0.0
H773 H 0.87422 0.95665 0.96724 0.0
H774 H 0.88089 0.94323 0.92039 0.0
H775 H 0.87154 0.84454 0.93972 0.0
C776 C 0.84535 0.8739 0.04285 0.0
C777 C 0.83885 0.89961 0.05998 0.0
C778 C 0.84286 0.93044 0.0498 0.0
C779 C 0.85363 0.93555 0.02336 0.0
C780 C 0.86005 0.90965 1.00716 0.0
C781 C 0.8555 0.87944 0.01649 0.0
C782 C 0.8612 0.85562 0.9948 0.0
C783 C 0.90573 0.83458 0.99946 0.0
C784 C 0.81454 0.83605 0.99164 0.0
C785 C 0.86917 0.87714 0.97173 0.0
C786 C 0.86908 0.90822 0.97926 0.0
C787 C 0.87455 0.93237 0.96116 0.0
C788 C 0.87871 0.92455 0.93461 0.0
C789 C 0.87681 0.89288 0.92642 0.0
C790 C 0.87309 0.86897 0.94539 0.0
H791 H 0.68594 0.66506 0.55318 0.0
H792 H 0.70223 0.56392 0.55642 0.0
H793 H 0.68513 0.56057 0.50941 0.0
H794 H 0.58994 0.66719 0.50426 0.0
H795 H 0.61448 0.70133 0.4883 0.0
H796 H 0.62391 0.69568 0.52272 0.0
H797 H 0.71713 0.70018 0.51592 0.0
H798 H 0.708 0.70589 0.48152 0.0
H799 H 0.74686 0.67474 0.49277 0.0
H800 H 0.67152 0.5683 0.46155 0.0
H801 H 0.66417 0.58679 0.4162 0.0
H802 H 0.65714 0.68286 0.44389 0.0
C803 C 0.68581 0.64217 0.54406 0.0
C804 C 0.69497 0.61473 0.55868 0.0
C805 C 0.69422 0.58526 0.54588 0.0
C806 C 0.68481 0.58309 0.5191 0.0
C807 C 0.67626 0.61059 0.5053 0.0
C808 C 0.67669 0.63958 0.51731 0.0
C809 C 0.66881 0.66564 0.49775 0.0
C810 C 0.62146 0.68351 0.50361 0.0
C811 C 0.71282 0.68792 0.49695 0.0
C812 C 0.66471 0.64679 0.47283 0.0
C813 C 0.6687 0.61507 0.47763 0.0
C814 C 0.6678 0.59307 0.45756 0.0
C815 C 0.6633 0.60381 0.43185 0.0
C816 C 0.65987 0.63629 0.42639 0.0
C817 C 0.65999 0.65791 0.44732 0.0
H818 H 0.30881 0.59419 0.97102 0.0
H819 H 0.38672 0.68031 0.95475 0.0
H820 H 0.40789 0.68522 1.00138 0.0
H821 H 0.25632 0.61997 0.03039 0.0
H822 H 0.26067 0.58271 0.04672 0.0
H823 H 0.25567 0.58413 0.01176 0.0
H824 H 0.33491 0.55172 1.00728 0.0
H825 H 0.34009 0.55012 0.04227 0.0
H826 H 0.38967 0.56525 0.02295 0.0
H827 H 0.41747 0.68222 0.0499 0.0
H828 H 0.41181 0.67282 0.09728 0.0
H829 H 0.32585 0.5893 0.08277 0.0
C830 C 0.33107 0.61372 0.9773 0.0
C831 C 0.34653 0.63678 0.95932 0.0
C832 C 0.37464 0.66242 0.96826 0.0
C833 C 0.38695 0.66533 0.99466 0.0
C834 C 0.37061 0.64251 0.012 0.0
C835 C 0.34315 0.61722 1.00375 0.0
C836 C 0.32753 0.59717 0.02673 0.0
C837 C 0.27174 0.59594 0.02902 0.0
C838 C 0.34936 0.5641 0.02468 0.0
C839 C 0.34986 0.61539 0.04915 0.0
C840 C 0.37509 0.64122 0.04016 0.0
C841 C 0.39808 0.66194 0.05716 0.0
C842 C 0.39485 0.65632 0.08407 0.0
C843 C 0.36845 0.63033 0.09385 0.0
C844 C 0.34603 0.60952 0.07599 0.0
H845 H 0.17999 0.82953 0.46732 0.0
H846 H 0.20133 0.93025 0.4659 0.0
H847 H 0.18359 0.93269 0.51311 0.0
H848 H 0.08206 0.82866 0.51562 0.0
H849 H 0.10377 0.79327 0.53079 0.0
H850 H 0.11453 0.79992 0.49658 0.0
H851 H 0.20715 0.79249 0.50369 0.0
H852 H 0.19669 0.78581 0.53788 0.0
H853 H 0.23798 0.81622 0.52759 0.0
H854 H 0.16951 0.92331 0.56164 0.0
H855 H 0.1604 0.90296 0.6065 0.0
H856 H 0.14638 0.80867 0.57559 0.0
C857 C 0.18083 0.85215 0.47687 0.0
C858 C 0.19206 0.87971 0.46276 0.0
C859 C 0.1922 0.90884 0.47611 0.0
C860 C 0.18236 0.91045 0.50299 0.0
C861 C 0.17208 0.88277 0.51633 0.0
C862 C 0.171 0.8542 0.50364 0.0
C863 C 0.16078 0.82772 0.52251 0.0
C864 C 0.1124 0.81144 0.51598 0.0
C865 C 0.20318 0.80418 0.52294 0.0
C866 C 0.1573 0.84572 0.54791 0.0
C867 C 0.16362 0.87746 0.544 0.0
C868 C 0.16397 0.89851 0.56485 0.0
C869 C 0.15846 0.88672 0.59031 0.0
C870 C 0.15277 0.85414 0.5948 0.0
C871 C 0.15129 0.83365 0.57307 0.0
H872 H 0.2895 0.25981 0.3523 0.0
H873 H 0.18188 0.32633 0.38006 0.0
H874 H 0.11676 0.29466 0.35989 0.0
H875 H 0.23371 0.24095 0.29028 0.0
H876 H 0.25111 0.20027 0.29294 0.0
H877 H 0.2872 0.23001 0.30843 0.0
H878 H 0.27663 0.19888 0.3518 0.0
H879 H 0.2384 0.17061 0.33572 0.0
H880 H 0.21618 0.19128 0.36399 0.0
H881 H 0.06322 0.25503 0.33709 0.0
H882 H 0.02559 0.211 0.31322 0.0
H883 H 0.16855 0.17053 0.30027 0.0
C884 C 0.25222 0.26784 0.35385 0.0
C885 C 0.24095 0.29588 0.36716 0.0
C886 C 0.19164 0.30529 0.36947 0.0
C887 C 0.15434 0.28738 0.35815 0.0
C888 C 0.16688 0.25998 0.34492 0.0
C889 C 0.21464 0.25021 0.34281 0.0
C890 C 0.21842 0.21945 0.32824 0.0
C891 C 0.24942 0.22296 0.30347 0.0
C892 C 0.23859 0.19353 0.34601 0.0
C893 C 0.16541 0.21376 0.32185 0.0
C894 C 0.13618 0.2372 0.33191 0.0
C895 C 0.08578 0.23659 0.32908 0.0
C896 C 0.06474 0.21141 0.31557 0.0
C897 C 0.09409 0.18731 0.30486 0.0
C898 C 0.14511 0.18866 0.30807 0.0
H899 H 0.37384 0.18748 0.84841 0.0
H900 H 0.24762 0.23405 0.8813 0.0
H901 H 0.27412 0.28397 0.86133 0.0
H902 H 0.45685 0.24988 0.85939 0.0
H903 H 0.49064 0.24367 0.82967 0.0
H904 H 0.46004 0.21132 0.84513 0.0
H905 H 0.41475 0.19996 0.80229 0.0
H906 H 0.44308 0.23291 0.78638 0.0
H907 H 0.3777 0.22991 0.7877 0.0
H908 H 0.31584 0.3291 0.83881 0.0
H909 H 0.37045 0.3662 0.81593 0.0
H910 H 0.47003 0.29022 0.79856 0.0
C911 C 0.35138 0.2081 0.85099 0.0
C912 C 0.30789 0.20674 0.86565 0.0
C913 C 0.2803 0.23441 0.86947 0.0
C914 C 0.29516 0.26285 0.85829 0.0
C915 C 0.33806 0.26331 0.84374 0.0
C916 C 0.36586 0.23667 0.84014 0.0
C917 C 0.41152 0.24369 0.82462 0.0
C918 C 0.45747 0.23673 0.84067 0.0
C919 C 0.41179 0.22556 0.7987 0.0
C920 C 0.4053 0.2785 0.82024 0.0
C921 C 0.36258 0.28936 0.83129 0.0
C922 C 0.3493 0.32083 0.83003 0.0
C923 C 0.38043 0.3417 0.81703 0.0
C924 C 0.42419 0.33096 0.80555 0.0
C925 C 0.43686 0.29902 0.80735 0.0
H926 H 0.73562 0.26269 0.64223 0.0
H927 H 0.73278 0.181 0.69233 0.0
H928 H 0.6724 0.20713 0.72094 0.0
H929 H 0.72813 0.31973 0.69298 0.0
H930 H 0.68974 0.34623 0.67504 0.0
H931 H 0.73086 0.32062 0.65787 0.0
H932 H 0.65878 0.29825 0.63113 0.0
H933 H 0.61751 0.32388 0.64824 0.0
H934 H 0.60681 0.28222 0.64799 0.0
H935 H 0.61517 0.2426 0.74473 0.0
H936 H 0.56422 0.28518 0.76246 0.0
H937 H 0.60402 0.34432 0.69706 0.0
C938 C 0.72198 0.25031 0.65915 0.0
C939 C 0.73862 0.21986 0.66521 0.0
C940 C 0.72024 0.20434 0.6875 0.0
C941 C 0.68603 0.21897 0.70376 0.0
C942 C 0.67058 0.2491 0.69739 0.0
C943 C 0.68783 0.26462 0.67562 0.0
C944 C 0.66618 0.29722 0.67363 0.0
C945 C 0.70612 0.32243 0.67497 0.0
C946 C 0.6355 0.30057 0.64877 0.0
C947 C 0.63446 0.2977 0.69782 0.0
C948 C 0.63748 0.26965 0.71118 0.0
C949 C 0.61245 0.26464 0.73442 0.0
C950 C 0.58382 0.289 0.74439 0.0
C951 C 0.58055 0.31805 0.73119 0.0
C952 C 0.60578 0.32228 0.70745 0.0
H953 H 0.89034 0.27771 0.13037 0.0
H954 H 0.80119 0.32563 0.18769 0.0
H955 H 0.82993 0.28903 0.22179 0.0
H956 H 0.87297 0.19954 0.1551 0.0
H957 H 0.93463 0.18743 0.14853 0.0
H958 H 0.90664 0.21716 0.1287 0.0
H959 H 0.97769 0.25512 0.13912 0.0
H960 H 0.0058 0.22546 0.15898 0.0
H961 H 0.9925 0.26343 0.17264 0.0
H962 H 0.86826 0.24715 0.24942 0.0
H963 H 0.91485 0.20378 0.269 0.0
H964 H 0.97985 0.18377 0.19349 0.0
C965 C 0.87693 0.28041 0.1501 0.0
C966 C 0.84333 0.30424 0.1565 0.0
C967 C 0.82675 0.30732 0.18252 0.0
C968 C 0.84284 0.28669 0.20193 0.0
C969 C 0.87578 0.2633 0.19499 0.0
C970 C 0.89282 0.26013 0.16973 0.0
C971 C 0.92857 0.23326 0.1675 0.0
C972 C 0.90954 0.20784 0.14885 0.0
C973 C 0.97913 0.24503 0.15907 0.0
C974 C 0.92894 0.22184 0.19542 0.0
C975 C 0.89818 0.2394 0.21096 0.0
C976 C 0.89251 0.23323 0.23745 0.0
C977 C 0.91915 0.20852 0.24839 0.0
C978 C 0.9511 0.19027 0.23284 0.0
C979 C 0.95581 0.19716 0.20599 0.0
H980 H 0.78118 0.70932 0.69276 0.0
H981 H 0.83018 0.7212 0.61306 0.0
H982 H 0.89195 0.75957 0.62789 0.0
H983 H 0.78857 0.78875 0.71019 0.0
H984 H 0.80711 0.77997 0.74299 0.0
H985 H 0.77174 0.75208 0.72525 0.0
H986 H 0.83983 0.71116 0.73523 0.0
H987 H 0.87531 0.74062 0.75173 0.0
H988 H 0.90136 0.71909 0.72486 0.0
H989 H 0.94285 0.79958 0.65084 0.0
H990 H 0.97927 0.83904 0.67972 0.0
H991 H 0.89656 0.80184 0.74493 0.0
C992 C 0.80565 0.71956 0.67855 0.0
C993 C 0.80126 0.71239 0.65179 0.0
C994 C 0.83334 0.72644 0.63365 0.0
C995 C 0.86848 0.74813 0.64192 0.0
C996 C 0.87116 0.75527 0.66842 0.0
C997 C 0.84088 0.74124 0.68649 0.0
C998 C 0.84839 0.75491 0.71343 0.0
C999 C 0.80109 0.76985 0.72348 0.0
C1000 C 0.86736 0.72995 0.73243 0.0
C1001 C 0.88696 0.77939 0.70769 0.0
C1002 C 0.89989 0.77889 0.68163 0.0
C1003 C 0.93328 0.80002 0.67131 0.0
C1004 C 0.95364 0.82248 0.68795 0.0
C1005 C 0.9405 0.8239 0.71471 0.0
C1006 C 0.90726 0.80161 0.72469 0.0
H1007 H 0.66096 0.82763 0.17868 0.0
H1008 H 0.74499 0.77652 0.12106 0.0
H1009 H 0.71771 0.7264 0.14051 0.0
H1010 H 0.6805 0.77553 0.23322 0.0
H1011 H 0.61909 0.7797 0.24537 0.0
H1012 H 0.64722 0.81115 0.22755 0.0
H1013 H 0.57517 0.811 0.19527 0.0
H1014 H 0.54717 0.77934 0.21298 0.0
H1015 H 0.55928 0.77525 0.1786 0.0
H1016 H 0.67735 0.68214 0.16446 0.0
H1017 H 0.62764 0.64657 0.19168 0.0
H1018 H 0.57171 0.72623 0.23482 0.0
C1019 C 0.67413 0.80586 0.17043 0.0
C1020 C 0.70596 0.80584 0.14875 0.0
C1021 C 0.72138 0.77694 0.138 0.0
C1022 C 0.70601 0.74843 0.14888 0.0
C1023 C 0.67489 0.74925 0.17038 0.0
C1024 C 0.65902 0.77721 0.18102 0.0
C1025 C 0.62396 0.7716 0.2034 0.0
C1026 C 0.64394 0.78526 0.22892 0.0
C1027 C 0.57341 0.78509 0.19718 0.0
C1028 C 0.62293 0.73608 0.20389 0.0
C1029 C 0.65222 0.72369 0.18449 0.0
C1030 C 0.65468 0.69155 0.17986 0.0
C1031 C 0.62616 0.67156 0.19528 0.0
C1032 C 0.59609 0.68374 0.21529 0.0
C1033 C 0.59493 0.71637 0.21982 0.0
H1034 H 0.28308 0.79119 0.32536 0.0
H1035 H 0.32018 0.76818 0.40518 0.0
H1036 H 0.38176 0.7304 0.38928 0.0
H1037 H 0.29259 0.71396 0.29993 0.0
H1038 H 0.31899 0.72526 0.26915 0.0
H1039 H 0.27992 0.75208 0.28645 0.0
H1040 H 0.34789 0.79417 0.28583 0.0
H1041 H 0.38702 0.76753 0.26833 0.0
H1042 H 0.40716 0.78469 0.29856 0.0
H1043 H 0.43382 0.69298 0.36539 0.0
H1044 H 0.4772 0.65871 0.33511 0.0
H1045 H 0.41032 0.70654 0.26953 0.0
C1046 C 0.30467 0.77841 0.33942 0.0
C1047 C 0.2971 0.78247 0.36655 0.0
C1048 C 0.32568 0.76533 0.38439 0.0
C1049 C 0.3606 0.74389 0.37552 0.0
C1050 C 0.36665 0.74002 0.34872 0.0
C1051 C 0.33986 0.75689 0.33085 0.0
C1052 C 0.35292 0.74739 0.3031 0.0
C1053 C 0.30845 0.73388 0.28882 0.0
C1054 C 0.37507 0.7751 0.28807 0.0
C1055 C 0.39067 0.7222 0.30824 0.0
C1056 C 0.39779 0.71848 0.33472 0.0
C1057 C 0.42896 0.69589 0.34461 0.0
C1058 C 0.45348 0.67643 0.32706 0.0
C1059 C 0.44729 0.67961 0.29969 0.0
C1060 C 0.4157 0.70318 0.29022 0.0
H1061 H 0.18828 0.69375 0.83013 0.0
H1062 H 0.21175 0.74217 0.90332 0.0
H1063 H 0.17506 0.79017 0.88478 0.0
H1064 H 0.21122 0.76241 0.78718 0.0
H1065 H 0.16457 0.75108 0.76441 0.0
H1066 H 0.19699 0.72156 0.7825 0.0
H1067 H 0.11516 0.69962 0.79978 0.0
H1068 H 0.08256 0.72915 0.78191 0.0
H1069 H 0.07367 0.72542 0.81659 0.0
H1070 H 0.1285 0.83038 0.86036 0.0
H1071 H 0.07836 0.86207 0.83075 0.0
H1072 H 0.08616 0.78873 0.77223 0.0
C1073 C 0.18635 0.71468 0.84203 0.0
C1074 C 0.2025 0.71442 0.8682 0.0
C1075 C 0.1994 0.74207 0.88329 0.0
C1076 C 0.17871 0.76934 0.8729 0.0
C1077 C 0.16187 0.76863 0.84729 0.0
C1078 C 0.16592 0.74218 0.8319 0.0
C1079 C 0.14282 0.74734 0.80537 0.0
C1080 C 0.1812 0.74549 0.78358 0.0
C1081 C 0.10108 0.724 0.80065 0.0
C1082 C 0.12382 0.78049 0.80857 0.0
C1083 C 0.13552 0.79227 0.83289 0.0
C1084 C 0.11963 0.82158 0.84116 0.0
C1085 C 0.09083 0.83929 0.82425 0.0
C1086 C 0.07825 0.8278 0.79922 0.0
C1087 C 0.09562 0.79818 0.79115 0.0
loop_
_geom_bond_atom_site_label_1
_geom_bond_atom_site_label_2
_geom_bond_distance
_geom_bond_site_symmetry_2
_ccdc_geom_bond_type
H0 C7 0.929 . S
H1 C10 0.930 . S
H2 C12 0.929 . S
H3 C4 0.969 . S
C4 H3 0.969 . S
C4 O5 1.550 . S
C4 H6 0.973 . S
O5 C4 1.550 . S
O5 C11 1.412 . S
H6 C4 0.973 . S
C7 H0 0.929 . S
C7 C8 1.400 . S
C7 C9 1.364 . S
C8 C7 1.400 . S
C8 C12 1.377 . S
C9 C7 1.364 . S
C9 C10 1.374 . S
C10 H1 0.930 . S
C10 C9 1.374 . S
C10 C11 1.383 . S
C11 O5 1.412 . S
C11 C10 1.383 . S
C11 C12 1.394 . S
C12 H2 0.929 . S
C12 C8 1.377 . S
C12 C11 1.394 . S
H13 C20 0.929 . S
H14 C23 0.930 . S
H15 C25 0.929 . S
H16 C17 0.969 . S
C17 H16 0.969 . S
C17 O18 1.550 . S
C17 H19 0.973 . S
O18 C17 1.550 . S
O18 C24 1.412 . S
H19 C17 0.973 . S
C20 H13 0.929 . S
C20 C21 1.400 . S
C20 C22 1.364 . S
C21 C20 1.400 . S
C21 C25 1.377 . S
C22 C20 1.364 . S
C22 C23 1.374 . S
C23 H14 0.930 . S
C23 C22 1.374 . S
C23 C24 1.383 . S
C24 O18 1.412 . S
C24 C23 1.383 . S
C24 C25 1.394 . S
C25 H15 0.929 . S
C25 C21 1.377 . S
C25 C24 1.394 . S
H26 C33 0.929 . S
H27 C36 0.930 . S
H28 C38 0.929 . S
H29 C30 0.969 . S
C30 H29 0.969 . S
C30 O31 1.550 . S
C30 H32 0.973 . S
O31 C30 1.550 . S
O31 C37 1.412 . S
H32 C30 0.973 . S
C33 H26 0.929 . S
C33 C34 1.400 . S
C33 C35 1.364 . S
C34 C33 1.400 . S
C34 C38 1.377 . S
C35 C33 1.364 . S
C35 C36 1.374 . S
C36 H27 0.930 . S
C36 C35 1.374 . S
C36 C37 1.383 . S
C37 O31 1.412 . S
C37 C36 1.383 . S
C37 C38 1.394 . S
C38 H28 0.929 . S
C38 C34 1.377 . S
C38 C37 1.394 . S
H39 C46 0.929 . S
H40 C49 0.930 . S
H41 C51 0.929 . S
H42 C43 0.969 . S
C43 H42 0.969 . S
C43 O44 1.550 . S
C43 H45 0.973 . S
O44 C43 1.550 . S
O44 C50 1.412 . S
H45 C43 0.973 . S
C46 H39 0.929 . S
C46 C47 1.400 . S
C46 C48 1.364 . S
C47 C46 1.400 . S
C47 C51 1.377 . S
C48 C46 1.364 . S
C48 C49 1.374 . S
C49 H40 0.930 . S
C49 C48 1.374 . S
C49 C50 1.383 . S
C50 O44 1.412 . S
C50 C49 1.383 . S
C50 C51 1.394 . S
C51 H41 0.929 . S
C51 C47 1.377 . S
C51 C50 1.394 . S
H52 C59 0.929 . S
H53 C62 0.930 . S
H54 C64 0.929 . S
H55 C56 0.969 . S
C56 H55 0.969 . S
C56 O57 1.550 . S
C56 H58 0.973 . S
O57 C56 1.550 . S
O57 C63 1.412 . S
H58 C56 0.973 . S
C59 H52 0.929 . S
C59 C60 1.400 . S
C59 C61 1.364 . S
C60 C59 1.400 . S
C60 C64 1.377 . S
C61 C59 1.364 . S
C61 C62 1.374 . S
C62 H53 0.930 . S
C62 C61 1.374 . S
C62 C63 1.383 . S
C63 O57 1.412 . S
C63 C62 1.383 . S
C63 C64 1.394 . S
C64 H54 0.929 . S
C64 C60 1.377 . S
C64 C63 1.394 . S
H65 C72 0.929 . S
H66 C75 0.930 . S
H67 C77 0.929 . S
H68 C69 0.969 . S
C69 H68 0.969 . S
C69 O70 1.550 . S
C69 H71 0.973 . S
O70 C69 1.550 . S
O70 C76 1.412 . S
H71 C69 0.973 . S
C72 H65 0.929 . S
C72 C73 1.400 . S
C72 C74 1.364 . S
C73 C72 1.400 . S
C73 C77 1.377 . S
C74 C72 1.364 . S
C74 C75 1.374 . S
C75 H66 0.930 . S
C75 C74 1.374 . S
C75 C76 1.383 . S
C76 O70 1.412 . S
C76 C75 1.383 . S
C76 C77 1.394 . S
C77 H67 0.929 . S
C77 C73 1.377 . S
C77 C76 1.394 . S
H78 C85 0.929 . S
H79 C88 0.930 . S
H80 C90 0.929 . S
H81 C82 0.969 . S
C82 H81 0.969 . S
C82 O83 1.550 . S
C82 H84 0.973 . S
O83 C82 1.550 . S
O83 C89 1.412 . S
H84 C82 0.973 . S
C85 H78 0.929 . S
C85 C86 1.400 . S
C85 C87 1.364 . S
C86 C85 1.400 . S
C86 C90 1.377 . S
C87 C85 1.364 . S
C87 C88 1.374 . S
C88 H79 0.930 . S
C88 C87 1.374 . S
C88 C89 1.383 . S
C89 O83 1.412 . S
C89 C88 1.383 . S
C89 C90 1.394 . S
C90 H80 0.929 . S
C90 C86 1.377 . S
C90 C89 1.394 . S
H91 C98 0.929 . S
H92 C101 0.930 . S
H93 C103 0.929 . S
H94 C95 0.969 . S
C95 H94 0.969 . S
C95 O96 1.550 . S
C95 H97 0.973 . S
O96 C95 1.550 . S
O96 C102 1.412 . S
H97 C95 0.973 . S
C98 H91 0.929 . S
C98 C99 1.400 . S
C98 C100 1.364 . S
C99 C98 1.400 . S
C99 C103 1.377 . S
C100 C98 1.364 . S
C100 C101 1.374 . S
C101 H92 0.930 . S
C101 C100 1.374 . S
C101 C102 1.383 . S
C102 O96 1.412 . S
C102 C101 1.383 . S
C102 C103 1.394 . S
C103 H93 0.929 . S
C103 C99 1.377 . S
C103 C102 1.394 . S
Eu104 N133 2.600 . S
Eu104 N139 2.562 . S
Eu104 O148 2.462 . S
Eu104 O149 2.373 . S
Eu104 O151 2.432 . S
Eu104 O152 2.291 . S
Eu104 O156 2.335 . S
Eu104 O159 2.372 . S
Eu104 C168 2.787 . S
C105 N106 1.365 . S
C105 C108 1.405 . S
C105 C112 1.448 . S
N106 C105 1.365 . S
N106 C109 1.319 . S
N106 Eu115 2.600 . S
C107 C109 1.397 . S
C107 C110 1.367 . S
C107 H127 0.931 . S
C108 C105 1.405 . S
C108 C110 1.403 . S
C108 C114 1.439 . S
C109 N106 1.319 . S
C109 C107 1.397 . S
C109 H120 0.930 . S
C110 C107 1.367 . S
C110 C108 1.403 . S
C110 H131 0.929 . S
C111 C112 1.430 . S
C111 C113 1.387 . S
C111 C117 1.404 1_545 S
C112 C105 1.448 . S
C112 C111 1.430 . S
C112 N116 1.351 . S
C113 C111 1.387 . S
C113 C114 1.374 . S
C113 H128 0.931 . S
C114 C108 1.439 . S
C114 C113 1.374 . S
C114 H129 0.931 . S
Eu115 N106 2.600 . S
Eu115 N116 2.562 . S
Eu115 O150 2.335 1_655 S
Eu115 O153 2.372 . S
Eu115 O154 2.462 . S
Eu115 O155 2.373 . S
Eu115 O157 2.432 . S
Eu115 O158 2.291 1_655 S
Eu115 C179 2.787 . S
N116 C112 1.351 . S
N116 Eu115 2.562 . S
N116 C118 1.325 . S
C117 C111 1.404 1_565 S
C117 C119 1.366 . S
C117 H125 0.930 . S
C118 N116 1.325 . S
C118 C119 1.408 1_545 S
C118 H124 0.929 . S
C119 C117 1.366 . S
C119 C118 1.408 1_565 S
C119 H121 0.936 . S
H120 C109 0.930 . S
H121 C119 0.936 . S
H122 C137 0.930 . S
H123 C144 0.930 . S
H124 C118 0.929 . S
H125 C117 0.930 . S
H126 C140 0.929 . S
H127 C107 0.931 . S
H128 C113 0.931 . S
H129 C114 0.931 . S
H130 C135 0.931 . S
H131 C110 0.929 . S
H132 C143 0.930 . S
N133 Eu104 2.600 . S
N133 C134 1.365 . S
N133 C137 1.319 . S
C134 N133 1.365 . S
C134 C136 1.405 . S
C134 C142 1.448 . S
C135 H130 0.931 . S
C135 C137 1.397 . S
C135 C138 1.367 . S
C136 C134 1.405 . S
C136 C138 1.403 . S
C136 C169 1.439 . S
C137 H122 0.930 . S
C137 N133 1.319 . S
C137 C135 1.397 . S
C138 C135 1.367 . S
C138 C136 1.403 . S
C138 H145 0.929 . S
N139 Eu104 2.562 . S
N139 C140 1.325 . S
N139 C142 1.351 . S
C140 H126 0.929 . S
C140 N139 1.325 . S
C140 C144 1.416 . S
C141 C142 1.430 . S
C141 C143 1.404 . S
C141 C170 1.387 . S
C142 C134 1.448 . S
C142 N139 1.351 . S
C142 C141 1.430 . S
C143 H132 0.930 . S
C143 C141 1.404 . S
C143 C144 1.366 . S
C144 H123 0.930 . S
C144 C140 1.416 . S
C144 C143 1.366 . S
H145 C138 0.929 . S
H146 C169 0.931 . S
H147 C170 0.931 . S
O148 Eu104 2.462 . S
O148 C168 1.252 . S
O149 Eu104 2.373 . S
O149 C160 1.249 . S
O150 Eu115 2.335 1_455 S
O150 C160 1.264 . S
O151 Eu104 2.432 . S
O151 C168 1.268 . S
O152 Eu104 2.291 . S
O152 C167 1.255 1_455 S
O153 Eu115 2.372 . S
O153 C167 1.257 . S
O154 Eu115 2.462 . S
O154 C179 1.252 . S
O155 Eu115 2.373 . S
O155 C171 1.249 . S
O156 Eu104 2.335 . S
O156 C171 1.264 1_455 S
O157 Eu115 2.432 . S
O157 C179 1.268 . S
O158 Eu115 2.291 1_455 S
O158 C178 1.255 . S
O159 Eu104 2.372 . S
O159 C178 1.257 . S
C160 O149 1.249 . S
C160 O150 1.264 . S
C161 C164 1.382 . S
C161 C166 1.390 . S
C161 C168 1.506 . S
C162 C163 1.398 . S
C162 C166 1.392 . S
C163 C162 1.398 . S
C163 C165 1.372 . S
C163 H180 0.931 . S
C164 C161 1.382 . S
C164 C165 1.390 . S
C164 H181 0.931 . S
C165 C163 1.372 . S
C165 C164 1.390 . S
C165 H182 0.929 . S
C166 C161 1.390 . S
C166 C162 1.392 . S
C166 H183 0.930 . S
C167 O152 1.255 1_655 S
C167 O153 1.257 . S
C168 Eu104 2.787 . S
C168 O148 1.252 . S
C168 O151 1.268 . S
C168 C161 1.506 . S
C169 C136 1.439 . S
C169 H146 0.931 . S
C169 C170 1.374 . S
C170 C141 1.387 . S
C170 H147 0.931 . S
C170 C169 1.374 . S
C171 O155 1.249 . S
C171 O156 1.264 1_655 S
C172 C175 1.382 . S
C172 C176 1.390 . S
C172 C179 1.506 . S
C173 C174 1.398 . S
C173 C176 1.392 . S
C174 C173 1.398 . S
C174 C177 1.372 . S
C174 H184 0.931 . S
C175 C172 1.382 . S
C175 C177 1.390 . S
C175 H185 0.931 . S
C176 C172 1.390 . S
C176 C173 1.392 . S
C176 H186 0.930 . S
C177 C174 1.372 . S
C177 C175 1.390 . S
C177 H187 0.929 . S
C178 O158 1.255 . S
C178 O159 1.257 . S
C179 Eu115 2.787 . S
C179 O154 1.252 . S
C179 O157 1.268 . S
C179 C172 1.506 . S
H180 C163 0.931 . S
H181 C164 0.931 . S
H182 C165 0.929 . S
H183 C166 0.930 . S
H184 C174 0.931 . S
H185 C175 0.931 . S
H186 C176 0.930 . S
H187 C177 0.929 . S
Eu188 N217 2.600 . S
Eu188 N223 2.562 . S
Eu188 O232 2.462 . S
Eu188 O233 2.373 . S
Eu188 O235 2.432 . S
Eu188 O236 2.291 . S
Eu188 O240 2.335 . S
Eu188 O243 2.372 . S
Eu188 C252 2.787 . S
C189 N190 1.365 . S
C189 C192 1.405 . S
C189 C196 1.448 . S
N190 C189 1.365 . S
N190 C193 1.319 . S
N190 Eu199 2.600 . S
C191 C193 1.397 . S
C191 C194 1.367 . S
C191 H211 0.931 . S
C192 C189 1.405 . S
C192 C194 1.403 . S
C192 C198 1.439 . S
C193 N190 1.319 . S
C193 C191 1.397 . S
C193 H204 0.930 . S
C194 C191 1.367 . S
C194 C192 1.403 . S
C194 H215 0.929 . S
C195 C196 1.430 . S
C195 C197 1.387 . S
C195 C201 1.404 . S
C196 C189 1.448 . S
C196 C195 1.430 . S
C196 N200 1.351 . S
C197 C195 1.387 . S
C197 C198 1.374 . S
C197 H212 0.931 . S
C198 C192 1.439 . S
C198 C197 1.374 . S
C198 H213 0.931 . S
Eu199 N190 2.600 . S
Eu199 N200 2.562 . S
Eu199 O234 2.335 . S
Eu199 O237 2.372 . S
Eu199 O238 2.462 . S
Eu199 O239 2.373 . S
Eu199 O241 2.432 . S
Eu199 O242 2.291 . S
Eu199 C263 2.787 . S
N200 C196 1.351 . S
N200 Eu199 2.562 . S
N200 C202 1.325 . S
C201 C195 1.404 . S
C201 C203 1.366 . S
C201 H209 0.930 . S
C202 N200 1.325 . S
C202 C203 1.416 . S
C202 H208 0.929 . S
C203 C201 1.366 . S
C203 C202 1.416 . S
C203 H205 0.930 . S
H204 C193 0.930 . S
H205 C203 0.930 . S
H206 C221 0.930 . S
H207 C228 0.930 . S
H208 C202 0.929 . S
H209 C201 0.930 . S
H210 C224 0.929 . S
H211 C191 0.931 . S
H212 C197 0.931 . S
H213 C198 0.931 . S
H214 C219 0.931 . S
H215 C194 0.929 . S
H216 C227 0.930 . S
N217 Eu188 2.600 . S
N217 C218 1.365 . S
N217 C221 1.319 . S
C218 N217 1.365 . S
C218 C220 1.405 . S
C218 C226 1.448 . S
C219 H214 0.931 . S
C219 C221 1.397 . S
C219 C222 1.367 . S
C220 C218 1.405 . S
C220 C222 1.403 . S
C220 C253 1.439 . S
C221 H206 0.930 . S
C221 N217 1.319 . S
C221 C219 1.397 . S
C222 C219 1.367 . S
C222 C220 1.403 . S
C222 H229 0.929 . S
N223 Eu188 2.562 . S
N223 C224 1.325 . S
N223 C226 1.351 . S
C224 H210 0.929 . S
C224 N223 1.325 . S
C224 C228 1.416 . S
C225 C226 1.430 . S
C225 C227 1.404 . S
C225 C254 1.387 . S
C226 C218 1.448 . S
C226 N223 1.351 . S
C226 C225 1.430 . S
C227 H216 0.930 . S
C227 C225 1.404 . S
C227 C228 1.366 . S
C228 H207 0.930 . S
C228 C224 1.416 . S
C228 C227 1.366 . S
H229 C222 0.929 . S
H230 C253 0.931 . S
H231 C254 0.931 . S
O232 Eu188 2.462 . S
O232 C252 1.252 . S
O233 Eu188 2.373 . S
O233 C244 1.249 . S
O234 Eu199 2.335 . S
O234 C244 1.264 . S
O235 Eu188 2.432 . S
O235 C252 1.268 . S
O236 Eu188 2.291 . S
O236 C251 1.255 . S
O237 Eu199 2.372 . S
O237 C251 1.257 . S
O238 Eu199 2.462 . S
O238 C263 1.252 . S
O239 Eu199 2.373 . S
O239 C255 1.249 . S
O240 Eu188 2.335 . S
O240 C255 1.264 . S
O241 Eu199 2.432 . S
O241 C263 1.268 . S
O242 Eu199 2.291 . S
O242 C262 1.255 . S
O243 Eu188 2.372 . S
O243 C262 1.257 . S
C244 O233 1.249 . S
C244 O234 1.264 . S
C245 C248 1.382 . S
C245 C250 1.390 . S
C245 C252 1.506 . S
C246 C247 1.398 . S
C246 C250 1.392 . S
C247 C246 1.398 . S
C247 C249 1.372 . S
C247 H264 0.931 . S
C248 C245 1.382 . S
C248 C249 1.390 . S
C248 H265 0.931 . S
C249 C247 1.372 . S
C249 C248 1.390 . S
C249 H266 0.929 . S
C250 C245 1.390 . S
C250 C246 1.392 . S
C250 H267 0.930 . S
C251 O236 1.255 . S
C251 O237 1.257 . S
C252 Eu188 2.787 . S
C252 O232 1.252 . S
C252 O235 1.268 . S
C252 C245 1.506 . S
C253 C220 1.439 . S
C253 H230 0.931 . S
C253 C254 1.374 . S
C254 C225 1.387 . S
C254 H231 0.931 . S
C254 C253 1.374 . S
C255 O239 1.249 . S
C255 O240 1.264 . S
C256 C259 1.382 . S
C256 C260 1.390 . S
C256 C263 1.506 . S
C257 C258 1.398 . S
C257 C260 1.392 . S
C258 C257 1.398 . S
C258 C261 1.372 . S
C258 H268 0.931 . S
C259 C256 1.382 . S
C259 C261 1.390 . S
C259 H269 0.931 . S
C260 C256 1.390 . S
C260 C257 1.392 . S
C260 H270 0.930 . S
C261 C258 1.372 . S
C261 C259 1.390 . S
C261 H271 0.929 . S
C262 O242 1.255 . S
C262 O243 1.257 . S
C263 Eu199 2.787 . S
C263 O238 1.252 . S
C263 O241 1.268 . S
C263 C256 1.506 . S
H264 C247 0.931 . S
H265 C248 0.931 . S
H266 C249 0.929 . S
H267 C250 0.930 . S
H268 C258 0.931 . S
H269 C259 0.931 . S
H270 C260 0.930 . S
H271 C261 0.929 . S
Eu272 N301 2.600 . S
Eu272 N307 2.562 . S
Eu272 O316 2.462 . S
Eu272 O317 2.373 . S
Eu272 O319 2.432 . S
Eu272 O320 2.291 . S
Eu272 O324 2.335 . S
Eu272 O327 2.372 . S
Eu272 C336 2.787 . S
C273 N274 1.365 . S
C273 C276 1.405 . S
C273 C280 1.448 . S
N274 C273 1.365 . S
N274 C277 1.319 . S
N274 Eu283 2.600 . S
C275 C277 1.397 . S
C275 C278 1.367 . S
C275 H295 0.931 . S
C276 C273 1.405 . S
C276 C278 1.403 . S
C276 C282 1.439 . S
C277 N274 1.319 . S
C277 C275 1.397 . S
C277 H288 0.930 . S
C278 C275 1.367 . S
C278 C276 1.403 . S
C278 H299 0.929 . S
C279 C280 1.430 . S
C279 C281 1.387 . S
C279 C285 1.404 . S
C280 C273 1.448 . S
C280 C279 1.430 . S
C280 N284 1.351 . S
C281 C279 1.387 . S
C281 C282 1.374 . S
C281 H296 0.931 . S
C282 C276 1.439 . S
C282 C281 1.374 . S
C282 H297 0.931 . S
Eu283 N274 2.600 . S
Eu283 N284 2.562 . S
Eu283 O318 2.335 1_655 S
Eu283 O321 2.372 . S
Eu283 O322 2.462 . S
Eu283 O323 2.373 . S
Eu283 O325 2.432 . S
Eu283 O326 2.291 1_655 S
Eu283 C347 2.787 . S
N284 C280 1.351 . S
N284 Eu283 2.562 . S
N284 C286 1.325 . S
C285 C279 1.404 . S
C285 C287 1.366 . S
C285 H293 0.930 . S
C286 N284 1.325 . S
C286 C287 1.416 . S
C286 H292 0.929 . S
C287 C285 1.366 . S
C287 C286 1.416 . S
C287 H289 0.930 . S
H288 C277 0.930 . S
H289 C287 0.930 . S
H290 C305 0.930 . S
H291 C312 0.937 . S
H292 C286 0.929 . S
H293 C285 0.930 . S
H294 C308 0.929 . S
H295 C275 0.931 . S
H296 C281 0.931 . S
H297 C282 0.931 . S
H298 C303 0.931 . S
H299 C278 0.929 . S
H300 C311 0.930 . S
N301 Eu272 2.600 . S
N301 C302 1.365 . S
N301 C305 1.319 . S
C302 N301 1.365 . S
C302 C304 1.405 . S
C302 C310 1.448 . S
C303 H298 0.931 . S
C303 C305 1.397 . S
C303 C306 1.367 . S
C304 C302 1.405 . S
C304 C306 1.403 . S
C304 C337 1.439 . S
C305 H290 0.930 . S
C305 N301 1.319 . S
C305 C303 1.397 . S
C306 C303 1.367 . S
C306 C304 1.403 . S
C306 H313 0.929 . S
N307 Eu272 2.562 . S
N307 C308 1.325 . S
N307 C310 1.351 . S
C308 H294 0.929 . S
C308 N307 1.325 . S
C308 C312 1.408 1_565 S
C309 C310 1.430 . S
C309 C311 1.404 1_565 S
C309 C338 1.387 . S
C310 C302 1.448 . S
C310 N307 1.351 . S
C310 C309 1.430 . S
C311 H300 0.930 . S
C311 C309 1.404 1_545 S
C311 C312 1.366 . S
C312 H291 0.937 . S
C312 C308 1.408 1_545 S
C312 C311 1.366 . S
H313 C306 0.929 . S
H314 C337 0.931 . S
H315 C338 0.931 . S
O316 Eu272 2.462 . S
O316 C336 1.252 . S
O317 Eu272 2.373 . S
O317 C328 1.249 . S
O318 Eu283 2.335 1_455 S
O318 C328 1.264 . S
O319 Eu272 2.432 . S
O319 C336 1.268 . S
O320 Eu272 2.291 . S
O320 C335 1.255 1_455 S
O321 Eu283 2.372 . S
O321 C335 1.257 . S
O322 Eu283 2.462 . S
O322 C347 1.252 . S
O323 Eu283 2.373 . S
O323 C339 1.249 . S
O324 Eu272 2.335 . S
O324 C339 1.264 1_455 S
O325 Eu283 2.432 . S
O325 C347 1.268 . S
O326 Eu283 2.291 1_455 S
O326 C346 1.255 . S
O327 Eu272 2.372 . S
O327 C346 1.257 . S
C328 O317 1.249 . S
C328 O318 1.264 . S
C329 C332 1.382 . S
C329 C334 1.390 . S
C329 C336 1.506 . S
C330 C331 1.398 . S
C330 C334 1.392 . S
C331 C330 1.398 . S
C331 C333 1.372 . S
C331 H348 0.931 . S
C332 C329 1.382 . S
C332 C333 1.390 . S
C332 H349 0.931 . S
C333 C331 1.372 . S
C333 C332 1.390 . S
C333 H350 0.929 . S
C334 C329 1.390 . S
C334 C330 1.392 . S
C334 H351 0.930 . S
C335 O320 1.255 1_655 S
C335 O321 1.257 . S
C336 Eu272 2.787 . S
C336 O316 1.252 . S
C336 O319 1.268 . S
C336 C329 1.506 . S
C337 C304 1.439 . S
C337 H314 0.931 . S
C337 C338 1.374 . S
C338 C309 1.387 . S
C338 H315 0.931 . S
C338 C337 1.374 . S
C339 O323 1.249 . S
C339 O324 1.264 1_655 S
C340 C343 1.382 . S
C340 C344 1.390 . S
C340 C347 1.506 . S
C341 C342 1.398 . S
C341 C344 1.392 . S
C342 C341 1.398 . S
C342 C345 1.372 . S
C342 H352 0.931 . S
C343 C340 1.382 . S
C343 C345 1.390 . S
C343 H353 0.931 . S
C344 C340 1.390 . S
C344 C341 1.392 . S
C344 H354 0.930 . S
C345 C342 1.372 . S
C345 C343 1.390 . S
C345 H355 0.929 . S
C346 O326 1.255 . S
C346 O327 1.257 . S
C347 Eu283 2.787 . S
C347 O322 1.252 . S
C347 O325 1.268 . S
C347 C340 1.506 . S
H348 C331 0.931 . S
H349 C332 0.931 . S
H350 C333 0.929 . S
H351 C334 0.930 . S
H352 C342 0.931 . S
H353 C343 0.931 . S
H354 C344 0.930 . S
H355 C345 0.929 . S
Eu356 N385 2.600 . S
Eu356 N391 2.562 . S
Eu356 O400 2.462 . S
Eu356 O401 2.373 . S
Eu356 O403 2.432 . S
Eu356 O404 2.291 . S
Eu356 O408 2.335 . S
Eu356 O411 2.372 . S
Eu356 C420 2.787 . S
C357 N358 1.365 . S
C357 C360 1.405 . S
C357 C364 1.448 . S
N358 C357 1.365 . S
N358 C361 1.319 . S
N358 Eu367 2.600 . S
C359 C361 1.397 . S
C359 C362 1.367 . S
C359 H379 0.931 . S
C360 C357 1.405 . S
C360 C362 1.403 . S
C360 C366 1.439 . S
C361 N358 1.319 . S
C361 C359 1.397 . S
C361 H372 0.930 . S
C362 C359 1.367 . S
C362 C360 1.403 . S
C362 H383 0.929 . S
C363 C364 1.430 . S
C363 C365 1.387 . S
C363 C369 1.404 . S
C364 C357 1.448 . S
C364 C363 1.430 . S
C364 N368 1.351 . S
C365 C363 1.387 . S
C365 C366 1.374 . S
C365 H380 0.931 . S
C366 C360 1.439 . S
C366 C365 1.374 . S
C366 H381 0.931 . S
Eu367 N358 2.600 . S
Eu367 N368 2.562 . S
Eu367 O402 2.335 . S
Eu367 O405 2.372 . S
Eu367 O406 2.462 . S
Eu367 O407 2.373 . S
Eu367 O409 2.432 . S
Eu367 O410 2.291 . S
Eu367 C431 2.787 . S
N368 C364 1.351 . S
N368 Eu367 2.562 . S
N368 C370 1.325 . S
C369 C363 1.404 . S
C369 C371 1.366 . S
C369 H377 0.930 . S
C370 N368 1.325 . S
C370 C371 1.416 . S
C370 H376 0.929 . S
C371 C369 1.366 . S
C371 C370 1.416 . S
C371 H373 0.930 . S
H372 C361 0.930 . S
H373 C371 0.930 . S
H374 C389 0.930 . S
H375 C396 0.930 . S
H376 C370 0.929 . S
H377 C369 0.930 . S
H378 C392 0.929 . S
H379 C359 0.931 . S
H380 C365 0.931 . S
H381 C366 0.931 . S
H382 C387 0.931 . S
H383 C362 0.929 . S
H384 C395 0.930 . S
N385 Eu356 2.600 . S
N385 C386 1.365 . S
N385 C389 1.319 . S
C386 N385 1.365 . S
C386 C388 1.405 . S
C386 C394 1.448 . S
C387 H382 0.931 . S
C387 C389 1.397 . S
C387 C390 1.367 . S
C388 C386 1.405 . S
C388 C390 1.403 . S
C388 C421 1.439 . S
C389 H374 0.930 . S
C389 N385 1.319 . S
C389 C387 1.397 . S
C390 C387 1.367 . S
C390 C388 1.403 . S
C390 H397 0.929 . S
N391 Eu356 2.562 . S
N391 C392 1.325 . S
N391 C394 1.351 . S
C392 H378 0.929 . S
C392 N391 1.325 . S
C392 C396 1.416 . S
C393 C394 1.430 . S
C393 C395 1.404 . S
C393 C422 1.387 . S
C394 C386 1.448 . S
C394 N391 1.351 . S
C394 C393 1.430 . S
C395 H384 0.930 . S
C395 C393 1.404 . S
C395 C396 1.366 . S
C396 H375 0.930 . S
C396 C392 1.416 . S
C396 C395 1.366 . S
H397 C390 0.929 . S
H398 C421 0.931 . S
H399 C422 0.931 . S
O400 Eu356 2.462 . S
O400 C420 1.252 . S
O401 Eu356 2.373 . S
O401 C412 1.249 . S
O402 Eu367 2.335 . S
O402 C412 1.264 . S
O403 Eu356 2.432 . S
O403 C420 1.268 . S
O404 Eu356 2.291 . S
O404 C419 1.255 . S
O405 Eu367 2.372 . S
O405 C419 1.257 . S
O406 Eu367 2.462 . S
O406 C431 1.252 . S
O407 Eu367 2.373 . S
O407 C423 1.249 . S
O408 Eu356 2.335 . S
O408 C423 1.264 . S
O409 Eu367 2.432 . S
O409 C431 1.268 . S
O410 Eu367 2.291 . S
O410 C430 1.255 . S
O411 Eu356 2.372 . S
O411 C430 1.257 . S
C412 O401 1.249 . S
C412 O402 1.264 . S
C413 C416 1.382 . S
C413 C418 1.390 . S
C413 C420 1.506 . S
C414 C415 1.398 . S
C414 C418 1.392 . S
C415 C414 1.398 . S
C415 C417 1.372 . S
C415 H432 0.931 . S
C416 C413 1.382 . S
C416 C417 1.390 . S
C416 H433 0.931 . S
C417 C415 1.372 . S
C417 C416 1.390 . S
C417 H434 0.929 . S
C418 C413 1.390 . S
C418 C414 1.392 . S
C418 H435 0.930 . S
C419 O404 1.255 . S
C419 O405 1.257 . S
C420 Eu356 2.787 . S
C420 O400 1.252 . S
C420 O403 1.268 . S
C420 C413 1.506 . S
C421 C388 1.439 . S
C421 H398 0.931 . S
C421 C422 1.374 . S
C422 C393 1.387 . S
C422 H399 0.931 . S
C422 C421 1.374 . S
C423 O407 1.249 . S
C423 O408 1.264 . S
C424 C427 1.382 . S
C424 C428 1.390 . S
C424 C431 1.506 . S
C425 C426 1.398 . S
C425 C428 1.392 . S
C426 C425 1.398 . S
C426 C429 1.372 . S
C426 H436 0.931 . S
C427 C424 1.382 . S
C427 C429 1.390 . S
C427 H437 0.931 . S
C428 C424 1.390 . S
C428 C425 1.392 . S
C428 H438 0.930 . S
C429 C426 1.372 . S
C429 C427 1.390 . S
C429 H439 0.929 . S
C430 O410 1.255 . S
C430 O411 1.257 . S
C431 Eu367 2.787 . S
C431 O406 1.252 . S
C431 O409 1.268 . S
C431 C424 1.506 . S
H432 C415 0.931 . S
H433 C416 0.931 . S
H434 C417 0.929 . S
H435 C418 0.930 . S
H436 C426 0.931 . S
H437 C427 0.931 . S
H438 C428 0.930 . S
H439 C429 0.929 . S
H440 C452 0.930 . S
H441 C454 0.930 . S
H442 C455 0.930 . S
H443 C459 0.959 . S
H444 C459 0.959 . S
H445 C459 0.961 . S
H446 C460 0.960 . S
H447 C460 0.961 . S
H448 C460 0.959 . S
H449 C463 0.929 . S
H450 C464 0.933 . S
H451 C466 0.930 . S
C452 H440 0.930 . S
C452 C453 1.399 . S
C452 C457 1.399 . S
C453 C452 1.399 . S
C453 C454 1.376 . S
C454 H441 0.930 . S
C454 C453 1.376 . S
C454 C455 1.388 . S
C455 H442 0.930 . S
C455 C454 1.388 . S
C455 C456 1.390 . S
C456 C455 1.390 . S
C456 C457 1.394 . S
C456 C462 1.465 . S
C457 C452 1.399 . S
C457 C456 1.394 . S
C457 C458 1.516 1_565 S
C458 C457 1.516 1_545 S
C458 C459 1.502 . S
C458 C460 1.561 . S
C458 C461 1.526 . S
C459 H443 0.959 . S
C459 H444 0.959 . S
C459 H445 0.961 . S
C459 C458 1.502 . S
C460 H446 0.960 . S
C460 H447 0.961 . S
C460 H448 0.959 . S
C460 C458 1.561 . S
C461 C458 1.526 . S
C461 C462 1.396 1_545 S
C461 C466 1.390 . S
C462 C456 1.465 . S
C462 C461 1.396 1_565 S
C462 C463 1.399 . S
C463 H449 0.929 . S
C463 C462 1.399 . S
C463 C464 1.385 1_565 S
C464 H450 0.933 . S
C464 C463 1.385 1_545 S
C464 C465 1.389 . S
C465 C464 1.389 . S
C465 C466 1.387 . S
C466 H451 0.930 . S
C466 C461 1.390 . S
C466 C465 1.387 . S
H467 C479 0.930 . S
H468 C481 0.930 . S
H469 C482 0.930 . S
H470 C486 0.959 . S
H471 C486 0.959 . S
H472 C486 0.961 . S
H473 C487 0.960 . S
H474 C487 0.961 . S
H475 C487 0.959 . S
H476 C490 0.929 . S
H477 C491 0.931 . S
H478 C493 0.930 . S
C479 H467 0.930 . S
C479 C480 1.399 . S
C479 C484 1.399 . S
C480 C479 1.399 . S
C480 C481 1.376 . S
C481 H468 0.930 . S
C481 C480 1.376 . S
C481 C482 1.388 . S
C482 H469 0.930 . S
C482 C481 1.388 . S
C482 C483 1.390 . S
C483 C482 1.390 . S
C483 C484 1.394 . S
C483 C489 1.465 . S
C484 C479 1.399 . S
C484 C483 1.394 . S
C484 C485 1.516 . S
C485 C484 1.516 . S
C485 C486 1.502 . S
C485 C487 1.561 . S
C485 C488 1.526 . S
C486 H470 0.959 . S
C486 H471 0.959 . S
C486 H472 0.961 . S
C486 C485 1.502 . S
C487 H473 0.960 . S
C487 H474 0.961 . S
C487 H475 0.959 . S
C487 C485 1.561 . S
C488 C485 1.526 . S
C488 C489 1.396 . S
C488 C493 1.390 . S
C489 C483 1.465 . S
C489 C488 1.396 . S
C489 C490 1.399 . S
C490 H476 0.929 . S
C490 C489 1.399 . S
C490 C491 1.385 . S
C491 H477 0.931 . S
C491 C490 1.385 . S
C491 C492 1.389 . S
C492 C491 1.389 . S
C492 C493 1.387 . S
C493 H478 0.930 . S
C493 C488 1.390 . S
C493 C492 1.387 . S
H494 C506 0.930 . S
H495 C508 0.930 . S
H496 C509 0.930 . S
H497 C513 0.959 . S
H498 C513 0.959 . S
H499 C513 0.961 . S
H500 C514 0.960 . S
H501 C514 0.961 . S
H502 C514 0.959 . S
H503 C517 0.929 . S
H504 C518 0.931 . S
H505 C520 0.930 . S
C506 H494 0.930 . S
C506 C507 1.399 . S
C506 C511 1.399 . S
C507 C506 1.399 . S
C507 C508 1.376 . S
C508 H495 0.930 . S
C508 C507 1.376 . S
C508 C509 1.388 . S
C509 H496 0.930 . S
C509 C508 1.388 . S
C509 C510 1.390 . S
C510 C509 1.390 . S
C510 C511 1.394 . S
C510 C516 1.465 . S
C511 C506 1.399 . S
C511 C510 1.394 . S
C511 C512 1.516 . S
C512 C511 1.516 . S
C512 C513 1.502 . S
C512 C514 1.561 . S
C512 C515 1.526 . S
C513 H497 0.959 . S
C513 H498 0.959 . S
C513 H499 0.961 . S
C513 C512 1.502 . S
C514 H500 0.960 . S
C514 H501 0.961 . S
C514 H502 0.959 . S
C514 C512 1.561 . S
C515 C512 1.526 . S
C515 C516 1.396 . S
C515 C520 1.390 . S
C516 C510 1.465 . S
C516 C515 1.396 . S
C516 C517 1.399 . S
C517 H503 0.929 . S
C517 C516 1.399 . S
C517 C518 1.385 . S
C518 H504 0.931 . S
C518 C517 1.385 . S
C518 C519 1.389 . S
C519 C518 1.389 . S
C519 C520 1.387 . S
C520 H505 0.930 . S
C520 C515 1.390 . S
C520 C519 1.387 . S
H521 C533 0.930 . S
H522 C535 0.930 . S
H523 C536 0.930 . S
H524 C540 0.959 . S
H525 C540 0.959 . S
H526 C540 0.961 . S
H527 C541 0.960 . S
H528 C541 0.961 . S
H529 C541 0.959 . S
H530 C544 0.929 . S
H531 C545 0.931 1_565 S
H532 C547 0.930 . S
C533 H521 0.930 . S
C533 C534 1.399 . S
C533 C538 1.399 . S
C534 C533 1.399 . S
C534 C535 1.376 . S
C535 H522 0.930 . S
C535 C534 1.376 . S
C535 C536 1.388 . S
C536 H523 0.930 . S
C536 C535 1.388 . S
C536 C537 1.390 . S
C537 C536 1.390 . S
C537 C538 1.394 . S
C537 C543 1.465 . S
C538 C533 1.399 . S
C538 C537 1.394 . S
C538 C539 1.516 1_565 S
C539 C538 1.516 1_545 S
C539 C540 1.502 . S
C539 C541 1.561 . S
C539 C542 1.526 . S
C540 H524 0.959 . S
C540 H525 0.959 . S
C540 H526 0.961 . S
C540 C539 1.502 . S
C541 H527 0.960 . S
C541 H528 0.961 . S
C541 H529 0.959 . S
C541 C539 1.561 . S
C542 C539 1.526 . S
C542 C543 1.396 1_545 S
C542 C547 1.390 . S
C543 C537 1.465 . S
C543 C542 1.396 1_565 S
C543 C544 1.399 . S
C544 H530 0.929 . S
C544 C543 1.399 . S
C544 C545 1.385 1_565 S
C545 H531 0.931 1_545 S
C545 C544 1.385 1_545 S
C545 C546 1.389 . S
C546 C545 1.389 . S
C546 C547 1.387 . S
C547 H532 0.930 . S
C547 C542 1.390 . S
C547 C546 1.387 . S
H548 C560 0.930 . S
H549 C562 0.930 . S
H550 C563 0.930 . S
H551 C567 0.959 . S
H552 C567 0.959 . S
H553 C567 0.961 . S
H554 C568 0.960 . S
H555 C568 0.961 . S
H556 C568 0.959 . S
H557 C571 0.929 . S
H558 C572 0.931 . S
H559 C574 0.930 1_545 S
C560 H548 0.930 . S
C560 C561 1.399 . S
C560 C565 1.399 . S
C561 C560 1.399 . S
C561 C562 1.376 . S
C562 H549 0.930 . S
C562 C561 1.376 . S
C562 C563 1.388 . S
C563 H550 0.930 . S
C563 C562 1.388 . S
C563 C564 1.390 . S
C564 C563 1.390 . S
C564 C565 1.394 . S
C564 C570 1.465 . S
C565 C560 1.399 . S
C565 C564 1.394 . S
C565 C566 1.516 . S
C566 C565 1.516 . S
C566 C567 1.502 . S
C566 C568 1.561 . S
C566 C569 1.526 . S
C567 H551 0.959 . S
C567 H552 0.959 . S
C567 H553 0.961 . S
C567 C566 1.502 . S
C568 H554 0.960 . S
C568 H555 0.961 . S
C568 H556 0.959 . S
C568 C566 1.561 . S
C569 C566 1.526 . S
C569 C570 1.396 . S
C569 C574 1.390 1_545 S
C570 C564 1.465 . S
C570 C569 1.396 . S
C570 C571 1.399 1_545 S
C571 H557 0.929 . S
C571 C570 1.399 1_565 S
C571 C572 1.385 . S
C572 H558 0.931 . S
C572 C571 1.385 . S
C572 C573 1.389 . S
C573 C572 1.389 . S
C573 C574 1.387 . S
C574 H559 0.930 1_565 S
C574 C569 1.390 1_565 S
C574 C573 1.387 . S
H575 C587 0.930 . S
H576 C589 0.930 . S
H577 C590 0.930 . S
H578 C594 0.959 . S
H579 C594 0.959 . S
H580 C594 0.961 . S
H581 C595 0.960 . S
H582 C595 0.961 . S
H583 C595 0.959 . S
H584 C598 0.929 . S
H585 C599 0.931 . S
H586 C601 0.930 . S
C587 H575 0.930 . S
C587 C588 1.399 . S
C587 C592 1.399 . S
C588 C587 1.399 . S
C588 C589 1.376 . S
C589 H576 0.930 . S
C589 C588 1.376 . S
C589 C590 1.388 . S
C590 H577 0.930 . S
C590 C589 1.388 . S
C590 C591 1.390 . S
C591 C590 1.390 . S
C591 C592 1.394 . S
C591 C597 1.465 . S
C592 C587 1.399 . S
C592 C591 1.394 . S
C592 C593 1.516 . S
C593 C592 1.516 . S
C593 C594 1.502 . S
C593 C595 1.561 . S
C593 C596 1.526 . S
C594 H578 0.959 . S
C594 H579 0.959 . S
C594 H580 0.961 . S
C594 C593 1.502 . S
C595 H581 0.960 . S
C595 H582 0.961 . S
C595 H583 0.959 . S
C595 C593 1.561 . S
C596 C593 1.526 . S
C596 C597 1.396 . S
C596 C601 1.390 . S
C597 C591 1.465 . S
C597 C596 1.396 . S
C597 C598 1.399 . S
C598 H584 0.929 . S
C598 C597 1.399 . S
C598 C599 1.385 . S
C599 H585 0.931 . S
C599 C598 1.385 . S
C599 C600 1.389 . S
C600 C599 1.389 . S
C600 C601 1.387 . S
C601 H586 0.930 . S
C601 C596 1.390 . S
C601 C600 1.387 . S
H602 C614 0.930 . S
H603 C616 0.930 . S
H604 C617 0.930 . S
H605 C621 0.959 . S
H606 C621 0.959 . S
H607 C621 0.961 . S
H608 C622 0.960 . S
H609 C622 0.961 . S
H610 C622 0.959 . S
H611 C625 0.929 . S
H612 C626 0.931 . S
H613 C628 0.930 . S
C614 H602 0.930 . S
C614 C615 1.399 . S
C614 C619 1.399 . S
C615 C614 1.399 . S
C615 C616 1.376 . S
C616 H603 0.930 . S
C616 C615 1.376 . S
C616 C617 1.388 . S
C617 H604 0.930 . S
C617 C616 1.388 . S
C617 C618 1.390 . S
C618 C617 1.390 . S
C618 C619 1.394 . S
C618 C624 1.465 . S
C619 C614 1.399 . S
C619 C618 1.394 . S
C619 C620 1.516 . S
C620 C619 1.516 . S
C620 C621 1.502 . S
C620 C622 1.561 . S
C620 C623 1.526 . S
C621 H605 0.959 . S
C621 H606 0.959 . S
C621 H607 0.961 . S
C621 C620 1.502 . S
C622 H608 0.960 . S
C622 H609 0.961 . S
C622 H610 0.959 . S
C622 C620 1.561 . S
C623 C620 1.526 . S
C623 C624 1.396 . S
C623 C628 1.390 . S
C624 C618 1.465 . S
C624 C623 1.396 . S
C624 C625 1.399 . S
C625 H611 0.929 . S
C625 C624 1.399 . S
C625 C626 1.385 . S
C626 H612 0.931 . S
C626 C625 1.385 . S
C626 C627 1.389 . S
C627 C626 1.389 . S
C627 C628 1.387 . S
C628 H613 0.930 . S
C628 C623 1.390 . S
C628 C627 1.387 . S
H629 C641 0.930 . S
H630 C643 0.930 . S
H631 C644 0.930 1_565 S
H632 C648 0.959 . S
H633 C648 0.959 . S
H634 C648 0.961 . S
H635 C649 0.960 . S
H636 C649 0.961 . S
H637 C649 0.959 . S
H638 C652 0.929 . S
H639 C653 0.931 . S
H640 C655 0.930 1_545 S
C641 H629 0.930 . S
C641 C642 1.399 . S
C641 C646 1.399 . S
C642 C641 1.399 . S
C642 C643 1.376 . S
C643 H630 0.930 . S
C643 C642 1.376 . S
C643 C644 1.388 . S
C644 H631 0.930 1_545 S
C644 C643 1.388 . S
C644 C645 1.390 . S
C645 C644 1.390 . S
C645 C646 1.394 . S
C645 C651 1.465 1_545 S
C646 C641 1.399 . S
C646 C645 1.394 . S
C646 C647 1.516 . S
C647 C646 1.516 . S
C647 C648 1.502 . S
C647 C649 1.561 . S
C647 C650 1.526 . S
C648 H632 0.959 . S
C648 H633 0.959 . S
C648 H634 0.961 . S
C648 C647 1.502 . S
C649 H635 0.960 . S
C649 H636 0.961 . S
C649 H637 0.959 . S
C649 C647 1.561 . S
C650 C647 1.526 . S
C650 C651 1.396 1_545 S
C650 C655 1.390 1_545 S
C651 C645 1.465 1_565 S
C651 C650 1.396 1_565 S
C651 C652 1.399 . S
C652 H638 0.929 . S
C652 C651 1.399 . S
C652 C653 1.385 . S
C653 H639 0.931 . S
C653 C652 1.385 . S
C653 C654 1.389 . S
C654 C653 1.389 . S
C654 C655 1.387 . S
C655 H640 0.930 1_565 S
C655 C650 1.390 1_565 S
C655 C654 1.387 . S
H656 C668 0.930 . S
H657 C670 0.930 . S
H658 C671 0.930 . S
H659 C675 0.959 . S
H660 C675 0.959 . S
H661 C675 0.961 . S
H662 C676 0.960 . S
H663 C676 0.961 . S
H664 C676 0.959 . S
H665 C679 0.929 . S
H666 C680 0.931 . S
H667 C682 0.930 . S
C668 H656 0.930 . S
C668 C669 1.399 . S
C668 C673 1.399 . S
C669 C668 1.399 . S
C669 C670 1.376 . S
C670 H657 0.930 . S
C670 C669 1.376 . S
C670 C671 1.388 . S
C671 H658 0.930 . S
C671 C670 1.388 . S
C671 C672 1.390 . S
C672 C671 1.390 . S
C672 C673 1.394 . S
C672 C678 1.465 1_556 S
C673 C668 1.399 . S
C673 C672 1.394 . S
C673 C674 1.516 1_556 S
C674 C673 1.516 1_554 S
C674 C675 1.502 . S
C674 C676 1.561 . S
C674 C677 1.526 . S
C675 H659 0.959 . S
C675 H660 0.959 . S
C675 H661 0.961 . S
C675 C674 1.502 . S
C676 H662 0.960 . S
C676 H663 0.961 . S
C676 H664 0.959 . S
C676 C674 1.561 . S
C677 C674 1.526 . S
C677 C678 1.396 . S
C677 C682 1.390 . S
C678 C672 1.465 1_554 S
C678 C677 1.396 . S
C678 C679 1.399 . S
C679 H665 0.929 . S
C679 C678 1.399 . S
C679 C680 1.385 . S
C680 H666 0.931 . S
C680 C679 1.385 . S
C680 C681 1.389 . S
C681 C680 1.389 . S
C681 C682 1.387 . S
C682 H667 0.930 . S
C682 C677 1.390 . S
C682 C681 1.387 . S
H683 C695 0.930 . S
H684 C697 0.930 . S
H685 C698 0.930 . S
H686 C702 0.959 . S
H687 C702 0.959 . S
H688 C702 0.961 . S
H689 C703 0.960 . S
H690 C703 0.961 . S
H691 C703 0.959 . S
H692 C706 0.929 . S
H693 C707 0.931 . S
H694 C709 0.930 . S
C695 H683 0.930 . S
C695 C696 1.399 . S
C695 C700 1.399 . S
C696 C695 1.399 . S
C696 C697 1.376 . S
C697 H684 0.930 . S
C697 C696 1.376 . S
C697 C698 1.388 . S
C698 H685 0.930 . S
C698 C697 1.388 . S
C698 C699 1.390 . S
C699 C698 1.390 . S
C699 C700 1.394 . S
C699 C705 1.465 . S
C700 C695 1.399 . S
C700 C699 1.394 . S
C700 C701 1.516 . S
C701 C700 1.516 . S
C701 C702 1.502 . S
C701 C703 1.561 . S
C701 C704 1.526 . S
C702 H686 0.959 . S
C702 H687 0.959 . S
C702 H688 0.961 . S
C702 C701 1.502 . S
C703 H689 0.960 . S
C703 H690 0.961 . S
C703 H691 0.959 . S
C703 C701 1.561 . S
C704 C701 1.526 . S
C704 C705 1.396 . S
C704 C709 1.390 . S
C705 C699 1.465 . S
C705 C704 1.396 . S
C705 C706 1.399 . S
C706 H692 0.929 . S
C706 C705 1.399 . S
C706 C707 1.385 . S
C707 H693 0.931 . S
C707 C706 1.385 . S
C707 C708 1.389 . S
C708 C707 1.389 . S
C708 C709 1.387 . S
C709 H694 0.930 . S
C709 C704 1.390 . S
C709 C708 1.387 . S
H710 C722 0.930 . S
H711 C724 0.930 . S
H712 C725 0.930 . S
H713 C729 0.969 . S
H714 C729 0.933 1_556 S
H715 C729 0.994 . S
H716 C730 0.960 . S
H717 C730 0.961 . S
H718 C730 0.959 . S
H719 C733 0.929 . S
H720 C734 0.931 . S
H721 C736 0.930 . S
C722 H710 0.930 . S
C722 C723 1.399 . S
C722 C727 1.399 . S
C723 C722 1.399 . S
C723 C724 1.376 . S
C724 H711 0.930 . S
C724 C723 1.376 . S
C724 C725 1.388 . S
C725 H712 0.930 . S
C725 C724 1.388 . S
C725 C726 1.390 1_554 S
C726 C725 1.390 1_556 S
C726 C727 1.394 1_556 S
C726 C732 1.465 . S
C727 C722 1.399 . S
C727 C726 1.394 1_554 S
C727 C728 1.516 1_554 S
C728 C727 1.516 1_556 S
C728 C729 1.487 1_556 S
C728 C730 1.561 . S
C728 C731 1.526 . S
C729 H713 0.969 . S
C729 H714 0.933 1_554 S
C729 H715 0.994 . S
C729 C728 1.487 1_554 S
C730 H716 0.960 . S
C730 H717 0.961 . S
C730 H718 0.959 . S
C730 C728 1.561 . S
C731 C728 1.526 . S
C731 C732 1.396 . S
C731 C736 1.390 . S
C732 C726 1.465 . S
C732 C731 1.396 . S
C732 C733 1.399 . S
C733 H719 0.929 . S
C733 C732 1.399 . S
C733 C734 1.385 . S
C734 H720 0.931 . S
C734 C733 1.385 . S
C734 C735 1.389 . S
C735 C734 1.389 . S
C735 C736 1.387 . S
C736 H721 0.930 . S
C736 C731 1.390 . S
C736 C735 1.387 . S
H737 C749 0.930 . S
H738 C751 0.930 . S
H739 C752 0.930 . S
H740 C756 0.959 . S
H741 C756 0.959 . S
H742 C756 0.961 . S
H743 C757 0.960 . S
H744 C757 0.961 . S
H745 C757 0.959 . S
H746 C760 0.929 . S
H747 C761 0.931 . S
H748 C763 0.930 . S
C749 H737 0.930 . S
C749 C750 1.399 . S
C749 C754 1.399 . S
C750 C749 1.399 . S
C750 C751 1.376 . S
C751 H738 0.930 . S
C751 C750 1.376 . S
C751 C752 1.388 . S
C752 H739 0.930 . S
C752 C751 1.388 . S
C752 C753 1.390 . S
C753 C752 1.390 . S
C753 C754 1.394 . S
C753 C759 1.465 . S
C754 C749 1.399 . S
C754 C753 1.394 . S
C754 C755 1.516 . S
C755 C754 1.516 . S
C755 C756 1.502 . S
C755 C757 1.561 . S
C755 C758 1.526 . S
C756 H740 0.959 . S
C756 H741 0.959 . S
C756 H742 0.961 . S
C756 C755 1.502 . S
C757 H743 0.960 . S
C757 H744 0.961 . S
C757 H745 0.959 . S
C757 C755 1.561 . S
C758 C755 1.526 . S
C758 C759 1.396 . S
C758 C763 1.390 . S
C759 C753 1.465 . S
C759 C758 1.396 . S
C759 C760 1.399 . S
C760 H746 0.929 . S
C760 C759 1.399 . S
C760 C761 1.385 . S
C761 H747 0.931 . S
C761 C760 1.385 . S
C761 C762 1.389 . S
C762 C761 1.389 . S
C762 C763 1.387 . S
C763 H748 0.930 . S
C763 C758 1.390 . S
C763 C762 1.387 . S
H764 C776 0.930 . S
H765 C778 0.930 . S
H766 C779 0.930 1_556 S
H767 C783 0.959 . S
H768 C783 0.959 . S
H769 C783 0.961 . S
H770 C784 0.960 . S
H771 C784 0.961 . S
H772 C784 0.959 . S
H773 C787 0.929 . S
H774 C788 0.931 . S
H775 C790 0.930 . S
C776 H764 0.930 . S
C776 C777 1.399 . S
C776 C781 1.399 1_554 S
C777 C776 1.399 . S
C777 C778 1.376 . S
C778 H765 0.930 . S
C778 C777 1.376 . S
C778 C779 1.388 . S
C779 H766 0.930 1_554 S
C779 C778 1.388 . S
C779 C780 1.390 1_554 S
C780 C779 1.390 1_556 S
C780 C781 1.394 . S
C780 C786 1.465 . S
C781 C776 1.399 1_556 S
C781 C780 1.394 . S
C781 C782 1.516 . S
C782 C781 1.516 . S
C782 C783 1.502 . S
C782 C784 1.561 . S
C782 C785 1.526 . S
C783 H767 0.959 . S
C783 H768 0.959 . S
C783 H769 0.961 . S
C783 C782 1.502 . S
C784 H770 0.960 . S
C784 H771 0.961 . S
C784 H772 0.959 . S
C784 C782 1.561 . S
C785 C782 1.526 . S
C785 C786 1.396 . S
C785 C790 1.390 . S
C786 C780 1.465 . S
C786 C785 1.396 . S
C786 C787 1.399 . S
C787 H773 0.929 . S
C787 C786 1.399 . S
C787 C788 1.385 . S
C788 H774 0.931 . S
C788 C787 1.385 . S
C788 C789 1.389 . S
C789 C788 1.389 . S
C789 C790 1.387 . S
C790 H775 0.930 . S
C790 C785 1.390 . S
C790 C789 1.387 . S
H791 C803 0.930 . S
H792 C805 0.930 . S
H793 C806 0.930 . S
H794 C810 0.959 . S
H795 C810 0.959 . S
H796 C810 0.961 . S
H797 C811 0.960 . S
H798 C811 0.961 . S
H799 C811 0.959 . S
H800 C814 0.929 . S
H801 C815 0.931 . S
H802 C817 0.930 . S
C803 H791 0.930 . S
C803 C804 1.399 . S
C803 C808 1.399 . S
C804 C803 1.399 . S
C804 C805 1.376 . S
C805 H792 0.930 . S
C805 C804 1.376 . S
C805 C806 1.388 . S
C806 H793 0.930 . S
C806 C805 1.388 . S
C806 C807 1.390 . S
C807 C806 1.390 . S
C807 C808 1.394 . S
C807 C813 1.465 . S
C808 C803 1.399 . S
C808 C807 1.394 . S
C808 C809 1.516 . S
C809 C808 1.516 . S
C809 C810 1.502 . S
C809 C811 1.561 . S
C809 C812 1.526 . S
C810 H794 0.959 . S
C810 H795 0.959 . S
C810 H796 0.961 . S
C810 C809 1.502 . S
C811 H797 0.960 . S
C811 H798 0.961 . S
C811 H799 0.959 . S
C811 C809 1.561 . S
C812 C809 1.526 . S
C812 C813 1.396 . S
C812 C817 1.390 . S
C813 C807 1.465 . S
C813 C812 1.396 . S
C813 C814 1.399 . S
C814 H800 0.929 . S
C814 C813 1.399 . S
C814 C815 1.385 . S
C815 H801 0.931 . S
C815 C814 1.385 . S
C815 C816 1.389 . S
C816 C815 1.389 . S
C816 C817 1.387 . S
C817 H802 0.930 . S
C817 C812 1.390 . S
C817 C816 1.387 . S
H818 C830 0.930 . S
H819 C832 0.930 . S
H820 C833 0.930 . S
H821 C837 0.959 . S
H822 C837 0.959 . S
H823 C837 0.961 . S
H824 C838 0.960 1_556 S
H825 C838 0.961 . S
H826 C838 0.959 . S
H827 C841 0.929 . S
H828 C842 0.931 . S
H829 C844 0.930 . S
C830 H818 0.930 . S
C830 C831 1.399 . S
C830 C835 1.399 1_556 S
C831 C830 1.399 . S
C831 C832 1.376 . S
C832 H819 0.930 . S
C832 C831 1.376 . S
C832 C833 1.388 . S
C833 H820 0.930 . S
C833 C832 1.388 . S
C833 C834 1.390 1_556 S
C834 C833 1.390 1_554 S
C834 C835 1.394 . S
C834 C840 1.465 . S
C835 C830 1.399 1_554 S
C835 C834 1.394 . S
C835 C836 1.516 . S
C836 C835 1.516 . S
C836 C837 1.502 . S
C836 C838 1.561 . S
C836 C839 1.526 . S
C837 H821 0.959 . S
C837 H822 0.959 . S
C837 H823 0.961 . S
C837 C836 1.502 . S
C838 H824 0.960 1_554 S
C838 H825 0.961 . S
C838 H826 0.959 . S
C838 C836 1.561 . S
C839 C836 1.526 . S
C839 C840 1.396 . S
C839 C844 1.390 . S
C840 C834 1.465 . S
C840 C839 1.396 . S
C840 C841 1.399 . S
C841 H827 0.929 . S
C841 C840 1.399 . S
C841 C842 1.385 . S
C842 H828 0.931 . S
C842 C841 1.385 . S
C842 C843 1.389 . S
C843 C842 1.389 . S
C843 C844 1.387 . S
C844 H829 0.930 . S
C844 C839 1.390 . S
C844 C843 1.387 . S
H845 C857 0.930 . S
H846 C859 0.930 . S
H847 C860 0.930 . S
H848 C864 0.959 . S
H849 C864 0.959 . S
H850 C864 0.961 . S
H851 C865 0.960 . S
H852 C865 0.961 . S
H853 C865 0.959 . S
H854 C868 0.929 . S
H855 C869 0.931 . S
H856 C871 0.930 . S
C857 H845 0.930 . S
C857 C858 1.399 . S
C857 C862 1.399 . S
C858 C857 1.399 . S
C858 C859 1.376 . S
C859 H846 0.930 . S
C859 C858 1.376 . S
C859 C860 1.388 . S
C860 H847 0.930 . S
C860 C859 1.388 . S
C860 C861 1.390 . S
C861 C860 1.390 . S
C861 C862 1.394 . S
C861 C867 1.465 . S
C862 C857 1.399 . S
C862 C861 1.394 . S
C862 C863 1.516 . S
C863 C862 1.516 . S
C863 C864 1.502 . S
C863 C865 1.561 . S
C863 C866 1.526 . S
C864 H848 0.959 . S
C864 H849 0.959 . S
C864 H850 0.961 . S
C864 C863 1.502 . S
C865 H851 0.960 . S
C865 H852 0.961 . S
C865 H853 0.959 . S
C865 C863 1.561 . S
C866 C863 1.526 . S
C866 C867 1.396 . S
C866 C871 1.390 . S
C867 C861 1.465 . S
C867 C866 1.396 . S
C867 C868 1.399 . S
C868 H854 0.929 . S
C868 C867 1.399 . S
C868 C869 1.385 . S
C869 H855 0.931 . S
C869 C868 1.385 . S
C869 C870 1.389 . S
C870 C869 1.389 . S
C870 C871 1.387 . S
C871 H856 0.930 . S
C871 C866 1.390 . S
C871 C870 1.387 . S
H872 C884 0.930 . S
H873 C886 0.930 . S
H874 C887 0.930 . S
H875 C891 0.959 . S
H876 C891 0.959 . S
H877 C891 0.961 . S
H878 C892 0.960 . S
H879 C892 0.961 . S
H880 C892 0.959 . S
H881 C895 0.929 . S
H882 C896 0.931 . S
H883 C898 0.930 . S
C884 H872 0.930 . S
C884 C885 1.399 . S
C884 C889 1.399 . S
C885 C884 1.399 . S
C885 C886 1.376 . S
C886 H873 0.930 . S
C886 C885 1.376 . S
C886 C887 1.388 . S
C887 H874 0.930 . S
C887 C886 1.388 . S
C887 C888 1.390 . S
C888 C887 1.390 . S
C888 C889 1.394 . S
C888 C894 1.465 . S
C889 C884 1.399 . S
C889 C888 1.394 . S
C889 C890 1.516 . S
C890 C889 1.516 . S
C890 C891 1.502 . S
C890 C892 1.561 . S
C890 C893 1.526 . S
C891 H875 0.959 . S
C891 H876 0.959 . S
C891 H877 0.961 . S
C891 C890 1.502 . S
C892 H878 0.960 . S
C892 H879 0.961 . S
C892 H880 0.959 . S
C892 C890 1.561 . S
C893 C890 1.526 . S
C893 C894 1.396 . S
C893 C898 1.390 . S
C894 C888 1.465 . S
C894 C893 1.396 . S
C894 C895 1.399 . S
C895 H881 0.929 . S
C895 C894 1.399 . S
C895 C896 1.385 . S
C896 H882 0.931 . S
C896 C895 1.385 . S
C896 C897 1.389 . S
C897 C896 1.389 . S
C897 C898 1.387 . S
C898 H883 0.930 . S
C898 C893 1.390 . S
C898 C897 1.387 . S
H899 C911 0.930 . S
H900 C913 0.930 . S
H901 C914 0.930 . S
H902 C918 0.959 . S
H903 C918 0.959 . S
H904 C918 0.961 . S
H905 C919 0.960 . S
H906 C919 0.961 . S
H907 C919 0.959 . S
H908 C922 0.929 . S
H909 C923 0.931 . S
H910 C925 0.930 . S
C911 H899 0.930 . S
C911 C912 1.399 . S
C911 C916 1.399 . S
C912 C911 1.399 . S
C912 C913 1.376 . S
C913 H900 0.930 . S
C913 C912 1.376 . S
C913 C914 1.388 . S
C914 H901 0.930 . S
C914 C913 1.388 . S
C914 C915 1.390 . S
C915 C914 1.390 . S
C915 C916 1.394 . S
C915 C921 1.465 . S
C916 C911 1.399 . S
C916 C915 1.394 . S
C916 C917 1.516 . S
C917 C916 1.516 . S
C917 C918 1.502 . S
C917 C919 1.561 . S
C917 C920 1.526 . S
C918 H902 0.959 . S
C918 H903 0.959 . S
C918 H904 0.961 . S
C918 C917 1.502 . S
C919 H905 0.960 . S
C919 H906 0.961 . S
C919 H907 0.959 . S
C919 C917 1.561 . S
C920 C917 1.526 . S
C920 C921 1.396 . S
C920 C925 1.390 . S
C921 C915 1.465 . S
C921 C920 1.396 . S
C921 C922 1.399 . S
C922 H908 0.929 . S
C922 C921 1.399 . S
C922 C923 1.385 . S
C923 H909 0.931 . S
C923 C922 1.385 . S
C923 C924 1.389 . S
C924 C923 1.389 . S
C924 C925 1.387 . S
C925 H910 0.930 . S
C925 C920 1.390 . S
C925 C924 1.387 . S
H926 C938 0.930 . S
H927 C940 0.930 . S
H928 C941 0.930 . S
H929 C945 0.959 . S
H930 C945 0.959 . S
H931 C945 0.961 . S
H932 C946 0.960 . S
H933 C946 0.961 . S
H934 C946 0.959 . S
H935 C949 0.929 . S
H936 C950 0.931 . S
H937 C952 0.930 . S
C938 H926 0.930 . S
C938 C939 1.399 . S
C938 C943 1.399 . S
C939 C938 1.399 . S
C939 C940 1.376 . S
C940 H927 0.930 . S
C940 C939 1.376 . S
C940 C941 1.388 . S
C941 H928 0.930 . S
C941 C940 1.388 . S
C941 C942 1.390 . S
C942 C941 1.390 . S
C942 C943 1.394 . S
C942 C948 1.465 . S
C943 C938 1.399 . S
C943 C942 1.394 . S
C943 C944 1.516 . S
C944 C943 1.516 . S
C944 C945 1.502 . S
C944 C946 1.561 . S
C944 C947 1.526 . S
C945 H929 0.959 . S
C945 H930 0.959 . S
C945 H931 0.961 . S
C945 C944 1.502 . S
C946 H932 0.960 . S
C946 H933 0.961 . S
C946 H934 0.959 . S
C946 C944 1.561 . S
C947 C944 1.526 . S
C947 C948 1.396 . S
C947 C952 1.390 . S
C948 C942 1.465 . S
C948 C947 1.396 . S
C948 C949 1.399 . S
C949 H935 0.929 . S
C949 C948 1.399 . S
C949 C950 1.385 . S
C950 H936 0.931 . S
C950 C949 1.385 . S
C950 C951 1.389 . S
C951 C950 1.389 . S
C951 C952 1.387 . S
C952 H937 0.930 . S
C952 C947 1.390 . S
C952 C951 1.387 . S
H953 C965 0.930 . S
H954 C967 0.930 . S
H955 C968 0.930 . S
H956 C972 0.959 . S
H957 C972 0.959 1_455 S
H958 C972 0.961 . S
H959 C973 0.960 . S
H960 C973 0.961 1_455 S
H961 C973 0.959 . S
H962 C976 0.929 . S
H963 C977 0.931 . S
H964 C979 0.930 . S
C965 H953 0.930 . S
C965 C966 1.399 . S
C965 C970 1.399 . S
C966 C965 1.399 . S
C966 C967 1.376 . S
C967 H954 0.930 . S
C967 C966 1.376 . S
C967 C968 1.388 . S
C968 H955 0.930 . S
C968 C967 1.388 . S
C968 C969 1.390 . S
C969 C968 1.390 . S
C969 C970 1.394 . S
C969 C975 1.465 . S
C970 C965 1.399 . S
C970 C969 1.394 . S
C970 C971 1.516 . S
C971 C970 1.516 . S
C971 C972 1.502 . S
C971 C973 1.561 . S
C971 C974 1.526 . S
C972 H956 0.959 . S
C972 H957 0.959 1_655 S
C972 H958 0.961 . S
C972 C971 1.502 . S
C973 H959 0.960 . S
C973 H960 0.961 1_655 S
C973 H961 0.959 . S
C973 C971 1.561 . S
C974 C971 1.526 . S
C974 C975 1.396 . S
C974 C979 1.390 . S
C975 C969 1.465 . S
C975 C974 1.396 . S
C975 C976 1.399 . S
C976 H962 0.929 . S
C976 C975 1.399 . S
C976 C977 1.385 . S
C977 H963 0.931 . S
C977 C976 1.385 . S
C977 C978 1.389 . S
C978 C977 1.389 . S
C978 C979 1.387 . S
C979 H964 0.930 . S
C979 C974 1.390 . S
C979 C978 1.387 . S
H980 C992 0.930 . S
H981 C994 0.930 . S
H982 C995 0.930 . S
H983 C999 0.959 . S
H984 C999 0.959 . S
H985 C999 0.961 . S
H986 C1000 0.960 . S
H987 C1000 0.961 . S
H988 C1000 0.959 . S
H989 C1003 0.929 . S
H990 C1004 0.931 . S
H991 C1006 0.930 . S
C992 H980 0.930 . S
C992 C993 1.399 . S
C992 C997 1.399 . S
C993 C992 1.399 . S
C993 C994 1.376 . S
C994 H981 0.930 . S
C994 C993 1.376 . S
C994 C995 1.388 . S
C995 H982 0.930 . S
C995 C994 1.388 . S
C995 C996 1.390 . S
C996 C995 1.390 . S
C996 C997 1.394 . S
C996 C1002 1.465 . S
C997 C992 1.399 . S
C997 C996 1.394 . S
C997 C998 1.516 . S
C998 C997 1.516 . S
C998 C999 1.502 . S
C998 C1000 1.561 . S
C998 C1001 1.526 . S
C999 H983 0.959 . S
C999 H984 0.959 . S
C999 H985 0.961 . S
C999 C998 1.502 . S
C1000 H986 0.960 . S
C1000 H987 0.961 . S
C1000 H988 0.959 . S
C1000 C998 1.561 . S
C1001 C998 1.526 . S
C1001 C1002 1.396 . S
C1001 C1006 1.390 . S
C1002 C996 1.465 . S
C1002 C1001 1.396 . S
C1002 C1003 1.399 . S
C1003 H989 0.929 . S
C1003 C1002 1.399 . S
C1003 C1004 1.385 . S
C1004 H990 0.931 . S
C1004 C1003 1.385 . S
C1004 C1005 1.389 . S
C1005 C1004 1.389 . S
C1005 C1006 1.387 . S
C1006 H991 0.930 . S
C1006 C1001 1.390 . S
C1006 C1005 1.387 . S
H1007 C1019 0.930 . S
H1008 C1021 0.930 . S
H1009 C1022 0.930 . S
H1010 C1026 0.959 . S
H1011 C1026 0.959 . S
H1012 C1026 0.961 . S
H1013 C1027 0.960 . S
H1014 C1027 0.961 . S
H1015 C1027 0.959 . S
H1016 C1030 0.929 . S
H1017 C1031 0.931 . S
H1018 C1033 0.930 . S
C1019 H1007 0.930 . S
C1019 C1020 1.399 . S
C1019 C1024 1.399 . S
C1020 C1019 1.399 . S
C1020 C1021 1.376 . S
C1021 H1008 0.930 . S
C1021 C1020 1.376 . S
C1021 C1022 1.388 . S
C1022 H1009 0.930 . S
C1022 C1021 1.388 . S
C1022 C1023 1.390 . S
C1023 C1022 1.390 . S
C1023 C1024 1.394 . S
C1023 C1029 1.465 . S
C1024 C1019 1.399 . S
C1024 C1023 1.394 . S
C1024 C1025 1.516 . S
C1025 C1024 1.516 . S
C1025 C1026 1.502 . S
C1025 C1027 1.561 . S
C1025 C1028 1.526 . S
C1026 H1010 0.959 . S
C1026 H1011 0.959 . S
C1026 H1012 0.961 . S
C1026 C1025 1.502 . S
C1027 H1013 0.960 . S
C1027 H1014 0.961 . S
C1027 H1015 0.959 . S
C1027 C1025 1.561 . S
C1028 C1025 1.526 . S
C1028 C1029 1.396 . S
C1028 C1033 1.390 . S
C1029 C1023 1.465 . S
C1029 C1028 1.396 . S
C1029 C1030 1.399 . S
C1030 H1016 0.929 . S
C1030 C1029 1.399 . S
C1030 C1031 1.385 . S
C1031 H1017 0.931 . S
C1031 C1030 1.385 . S
C1031 C1032 1.389 . S
C1032 C1031 1.389 . S
C1032 C1033 1.387 . S
C1033 H1018 0.930 . S
C1033 C1028 1.390 . S
C1033 C1032 1.387 . S
H1034 C1046 0.930 . S
H1035 C1048 0.930 . S
H1036 C1049 0.930 . S
H1037 C1053 0.959 . S
H1038 C1053 0.959 . S
H1039 C1053 0.961 . S
H1040 C1054 0.960 . S
H1041 C1054 0.961 . S
H1042 C1054 0.959 . S
H1043 C1057 0.929 . S
H1044 C1058 0.931 . S
H1045 C1060 0.930 . S
C1046 H1034 0.930 . S
C1046 C1047 1.399 . S
C1046 C1051 1.399 . S
C1047 C1046 1.399 . S
C1047 C1048 1.376 . S
C1048 H1035 0.930 . S
C1048 C1047 1.376 . S
C1048 C1049 1.388 . S
C1049 H1036 0.930 . S
C1049 C1048 1.388 . S
C1049 C1050 1.390 . S
C1050 C1049 1.390 . S
C1050 C1051 1.394 . S
C1050 C1056 1.465 . S
C1051 C1046 1.399 . S
C1051 C1050 1.394 . S
C1051 C1052 1.516 . S
C1052 C1051 1.516 . S
C1052 C1053 1.502 . S
C1052 C1054 1.561 . S
C1052 C1055 1.526 . S
C1053 H1037 0.959 . S
C1053 H1038 0.959 . S
C1053 H1039 0.961 . S
C1053 C1052 1.502 . S
C1054 H1040 0.960 . S
C1054 H1041 0.961 . S
C1054 H1042 0.959 . S
C1054 C1052 1.561 . S
C1055 C1052 1.526 . S
C1055 C1056 1.396 . S
C1055 C1060 1.390 . S
C1056 C1050 1.465 . S
C1056 C1055 1.396 . S
C1056 C1057 1.399 . S
C1057 H1043 0.929 . S
C1057 C1056 1.399 . S
C1057 C1058 1.385 . S
C1058 H1044 0.931 . S
C1058 C1057 1.385 . S
C1058 C1059 1.389 . S
C1059 C1058 1.389 . S
C1059 C1060 1.387 . S
C1060 H1045 0.930 . S
C1060 C1055 1.390 . S
C1060 C1059 1.387 . S
H1061 C1073 0.930 . S
H1062 C1075 0.930 . S
H1063 C1076 0.930 . S
H1064 C1080 0.959 . S
H1065 C1080 0.959 . S
H1066 C1080 0.961 . S
H1067 C1081 0.960 . S
H1068 C1081 0.961 . S
H1069 C1081 0.959 . S
H1070 C1084 0.929 . S
H1071 C1085 0.931 . S
H1072 C1087 0.930 . S
C1073 H1061 0.930 . S
C1073 C1074 1.399 . S
C1073 C1078 1.399 . S
C1074 C1073 1.399 . S
C1074 C1075 1.376 . S
C1075 H1062 0.930 . S
C1075 C1074 1.376 . S
C1075 C1076 1.388 . S
C1076 H1063 0.930 . S
C1076 C1075 1.388 . S
C1076 C1077 1.390 . S
C1077 C1076 1.390 . S
C1077 C1078 1.394 . S
C1077 C1083 1.465 . S
C1078 C1073 1.399 . S
C1078 C1077 1.394 . S
C1078 C1079 1.516 . S
C1079 C1078 1.516 . S
C1079 C1080 1.502 . S
C1079 C1081 1.561 . S
C1079 C1082 1.526 . S
C1080 H1064 0.959 . S
C1080 H1065 0.959 . S
C1080 H1066 0.961 . S
C1080 C1079 1.502 . S
C1081 H1067 0.960 . S
C1081 H1068 0.961 . S
C1081 H1069 0.959 . S
C1081 C1079 1.561 . S
C1082 C1079 1.526 . S
C1082 C1083 1.396 . S
C1082 C1087 1.390 . S
C1083 C1077 1.465 . S
C1083 C1082 1.396 . S
C1083 C1084 1.399 . S
C1084 H1070 0.929 . S
C1084 C1083 1.399 . S
C1084 C1085 1.385 . S
C1085 H1071 0.931 . S
C1085 C1084 1.385 . S
C1085 C1086 1.389 . S
C1086 C1085 1.389 . S
C1086 C1087 1.387 . S
C1087 H1072 0.930 . S
C1087 C1082 1.390 . S
C1087 C1086 1.387 . S
C453 C86 1.614 . S
C465 C178 1.597 . S
C492 C262 1.656 . S
C480 C100 1.705 . S
C519 C255 1.609 . S
C507 C60 1.619 . S
C534 C74 1.692 . S
C546 C171 1.696 . S
C573 C335 1.692 . S
C561 C35 1.694 . S
C600 C419 1.593 . S
C588 C47 1.619 . S
C615 C9 1.671 . S
C627 C412 1.693 . S
C642 C21 1.630 . S
C654 C328 1.601 . S
C681 C162 1.425 . S
C669 C22 1.557 . S
C708 C246 1.465 . S
C696 C8 1.572 . S
C735 C257 1.332 . S
C723 C48 1.606 . S
C762 C173 1.324 . S
C750 C34 1.602 . S
C789 C341 1.378 . S
C777 C73 1.592 . S
C804 C61 1.575 . S
C816 C425 1.394 . S
C843 C414 1.375 . S
C831 C99 1.591 . S
C858 C87 1.584 . S
C870 C330 1.413 . S
C897 C160 1.595 . S
C885 C4 1.548 . S
C924 C244 1.490 . S
C912 C17 1.499 . S
C939 C30 1.503 . S
C951 C251 1.548 . S
C978 C167 1.450 . S
C966 C43 1.493 . S
C1005 C339 1.493 . S
C993 C56 1.459 . S
C1020 C69 1.557 . S
C1032 C423 1.595 . S
C1047 C82 1.451 . S
C1059 C430 1.489 . S
C1074 C95 1.549 . S
C1086 C346 1.592 . S
