# Generated by pormake.
# Topology pyr, (3,6)-cn, num edge types: 1
# Building blocks:
#     Node 0, Type 0, BuildingBlock: CUQRIR_clean_linker_1, # of connection points: 3
#     Node 1, Type 0, BuildingBlock: CUQRIR_clean_linker_1, # of connection points: 3
#     Node 2, Type 0, BuildingBlock: CUQRIR_clean_linker_1, # of connection points: 3
#     Node 3, Type 0, BuildingBlock: CUQRIR_clean_linker_1, # of connection points: 3
#     Node 4, Type 0, BuildingBlock: CUQRIR_clean_linker_1, # of connection points: 3
#     Node 5, Type 0, BuildingBlock: CUQRIR_clean_linker_1, # of connection points: 3
#     Node 6, Type 0, BuildingBlock: CUQRIR_clean_linker_1, # of connection points: 3
#     Node 7, Type 0, BuildingBlock: CUQRIR_clean_linker_1, # of connection points: 3
#     Node 8, Type 1, BuildingBlock: BETDAH_clean_sbu_0, # of connection points: 6
#     Node 9, Type 1, BuildingBlock: BETDAH_clean_sbu_0, # of connection points: 6
#     Node 10, Type 1, BuildingBlock: BETDAH_clean_sbu_0, # of connection points: 6
#     Node 11, Type 1, BuildingBlock: BETDAH_clean_sbu_0, # of connection points: 6
#     Edge 12, Type (0, 1), BuildingBlock: XIVTED_clean_linker_0, # of connection points: 2
#     Edge 13, Type (0, 1), BuildingBlock: XIVTED_clean_linker_0, # of connection points: 2
#     Edge 14, Type (0, 1), BuildingBlock: XIVTED_clean_linker_0, # of connection points: 2
#     Edge 15, Type (0, 1), BuildingBlock: XIVTED_clean_linker_0, # of connection points: 2
#     Edge 16, Type (0, 1), BuildingBlock: XIVTED_clean_linker_0, # of connection points: 2
#     Edge 17, Type (0, 1), BuildingBlock: XIVTED_clean_linker_0, # of connection points: 2
#     Edge 18, Type (0, 1), BuildingBlock: XIVTED_clean_linker_0, # of connection points: 2
#     Edge 19, Type (0, 1), BuildingBlock: XIVTED_clean_linker_0, # of connection points: 2
#     Edge 20, Type (0, 1), BuildingBlock: XIVTED_clean_linker_0, # of connection points: 2
#     Edge 21, Type (0, 1), BuildingBlock: XIVTED_clean_linker_0, # of connection points: 2
#     Edge 22, Type (0, 1), BuildingBlock: XIVTED_clean_linker_0, # of connection points: 2
#     Edge 23, Type (0, 1), BuildingBlock: XIVTED_clean_linker_0, # of connection points: 2
#     Edge 24, Type (0, 1), BuildingBlock: XIVTED_clean_linker_0, # of connection points: 2
#     Edge 25, Type (0, 1), BuildingBlock: XIVTED_clean_linker_0, # of connection points: 2
#     Edge 26, Type (0, 1), BuildingBlock: XIVTED_clean_linker_0, # of connection points: 2
#     Edge 27, Type (0, 1), BuildingBlock: XIVTED_clean_linker_0, # of connection points: 2
#     Edge 28, Type (0, 1), BuildingBlock: XIVTED_clean_linker_0, # of connection points: 2
#     Edge 29, Type (0, 1), BuildingBlock: XIVTED_clean_linker_0, # of connection points: 2
#     Edge 30, Type (0, 1), BuildingBlock: XIVTED_clean_linker_0, # of connection points: 2
#     Edge 31, Type (0, 1), BuildingBlock: XIVTED_clean_linker_0, # of connection points: 2
#     Edge 32, Type (0, 1), BuildingBlock: XIVTED_clean_linker_0, # of connection points: 2
#     Edge 33, Type (0, 1), BuildingBlock: XIVTED_clean_linker_0, # of connection points: 2
#     Edge 34, Type (0, 1), BuildingBlock: XIVTED_clean_linker_0, # of connection points: 2
#     Edge 35, Type (0, 1), BuildingBlock: XIVTED_clean_linker_0, # of connection points: 2
# Relax obj value: 0.203
# Max RMSD: 0.259
# Mean RMSD: 0.169
data_MOF--net-pyr--node1-BETDAH_clean_sbu_0--node2-CUQRIR_clean_linker_1--edge1-XIVTED_clean_linker_0
_symmetry_space_group_name_H-M    P1
_symmetry_Int_Tables_number       1
_symmetry_cell_setting            triclinic
loop_
_symmetry_equiv_pos_as_xyz
'x, y, z'
_cell_length_a     35.835914
_cell_length_b     37.031745
_cell_length_c     32.66198
_cell_angle_alpha  90.008195
_cell_angle_beta   89.167705
_cell_angle_gamma 106.38292
loop_
_atom_site_label
_atom_site_type_symbol
_atom_site_fract_x
_atom_site_fract_y
_atom_site_fract_z
_atom_type_partial_charge
C0 C 0.35033 0.39037 0.24357 0.0
N1 N 0.36839 0.36332 0.25016 0.0
N2 N 0.36064 0.40702 0.20654 0.0
C3 C 0.31681 0.39568 0.26921 0.0
C4 C 0.38565 0.38899 0.19079 0.0
N5 N 0.39057 0.36268 0.21737 0.0
C6 C 0.40328 0.39555 0.14851 0.0
H7 H 0.29054 0.39104 0.25008 0.0
H8 H 0.32426 0.4251 0.28039 0.0
H9 H 0.3094 0.37666 0.29602 0.0
H10 H 0.4056 0.42462 0.13802 0.0
H11 H 0.38446 0.37552 0.12699 0.0
H12 H 0.43246 0.39067 0.14796 0.0
C13 C 0.36946 1.02591 0.58246 0.0
N14 N 0.35051 1.04141 0.61056 0.0
N15 N 0.3994 1.01605 0.59951 0.0
C16 C 0.3583 1.01923 0.53829 0.0
C17 C 0.39866 1.02732 0.63892 0.0
N18 N 0.36913 1.04278 0.64559 0.0
C19 C 0.42249 1.01722 0.67238 0.0
H20 H 0.33748 0.99093 0.53484 0.0
H21 H 0.3844 1.02028 0.51908 0.0
H22 H 0.34433 1.04057 0.52732 0.0
H23 H 0.45339 1.02371 0.66243 0.0
H24 H 0.41176 0.98653 0.67861 0.0
H25 H 0.42077 1.03271 0.70109 0.0
C26 C 0.6221 0.39664 0.88133 0.0
N27 N 0.64417 0.3926 0.91366 0.0
N28 N 0.633 0.43252 0.867 0.0
C29 C 0.58765 0.36648 0.86591 0.0
C30 C 0.66234 0.4503 0.89191 0.0
N31 N 0.66896 0.42631 0.92061 0.0
C32 C 0.68654 0.49045 0.886 0.0
H33 H 0.59784 0.3494 0.84269 0.0
H34 H 0.56633 0.37891 0.85135 0.0
H35 H 0.57291 0.34759 0.89122 0.0
H36 H 0.6747 0.50897 0.90595 0.0
H37 H 0.68578 0.49966 0.85378 0.0
H38 H 0.71722 0.49386 0.89443 0.0
C39 C 0.82791 0.71805 0.38009 0.0
N40 N 0.86265 0.74323 0.37017 0.0
N41 N 0.81108 0.72954 0.41323 0.0
C42 C 0.81146 0.68101 0.35885 0.0
C43 C 0.8368 0.76271 0.42322 0.0
N44 N 0.8683 0.77109 0.39756 0.0
C45 C 0.8304 0.78786 0.45732 0.0
H46 H 0.79476 0.68558 0.33195 0.0
H47 H 0.79167 0.66022 0.37953 0.0
H48 H 0.83505 0.6693 0.34779 0.0
H49 H 0.84464 0.78161 0.48532 0.0
H50 H 0.79896 0.78311 0.46407 0.0
H51 H 0.84339 0.81798 0.44949 0.0
C52 C 0.63623 0.83147 0.92154 0.0
N53 N 0.66529 0.81921 0.90493 0.0
N54 N 0.62939 0.85922 0.89843 0.0
C55 C 0.61666 0.81898 0.96223 0.0
C56 C 0.6548 0.86272 0.86659 0.0
N57 N 0.67658 0.8385 0.87043 0.0
C58 C 0.66269 0.89398 0.8354 0.0
H59 H 0.58543 0.8178 0.96092 0.0
H60 H 0.63022 0.83983 0.98595 0.0
H61 H 0.61928 0.79089 0.97111 0.0
H62 H 0.69013 0.91555 0.84307 0.0
H63 H 0.63861 0.90734 0.83473 0.0
H64 H 0.66651 0.88289 0.80455 0.0
C65 C 0.84147 0.33097 0.53912 0.0
N66 N 0.84961 0.3054 0.51329 0.0
N67 N 0.82504 0.35423 0.51867 0.0
C68 C 0.84941 0.33358 0.58421 0.0
C69 C 0.82311 0.34174 0.47959 0.0
N70 N 0.83847 0.31241 0.4762 0.0
C71 C 0.80106 0.35444 0.44603 0.0
H72 H 0.82378 0.31563 0.60108 0.0
H73 H 0.85429 0.36299 0.59488 0.0
H74 H 0.87516 0.3238 0.5913 0.0
H75 H 0.8222 0.37368 0.42508 0.0
H76 H 0.78052 0.36942 0.45808 0.0
H77 H 0.78426 0.3301 0.42787 0.0
C78 C 0.33461 0.73596 0.28101 0.0
N79 N 0.36832 0.76129 0.29217 0.0
N80 N 0.31501 0.75138 0.25411 0.0
C81 C 0.31983 0.69663 0.29801 0.0
C82 C 0.33785 0.78714 0.2494 0.0
N83 N 0.37016 0.79342 0.27264 0.0
C84 C 0.32914 0.81559 0.2208 0.0
H85 H 0.33281 0.6777 0.27997 0.0
H86 H 0.2877 0.68611 0.29615 0.0
H87 H 0.32846 0.69562 0.33039 0.0
H88 H 0.31102 0.83081 0.23742 0.0
H89 H 0.31275 0.80151 0.1939 0.0
H90 H 0.35595 0.83665 0.20983 0.0
C91 C 0.12053 0.41171 0.78456 0.0
N92 N 0.14413 0.40543 0.75387 0.0
N93 N 0.13386 0.44727 0.79957 0.0
C94 C 0.08307 0.38392 0.79808 0.0
C95 C 0.16663 0.46231 0.77677 0.0
N96 N 0.17284 0.43719 0.74899 0.0
C97 C 0.19301 0.50159 0.78205 0.0
H98 H 0.06977 0.36522 0.77248 0.0
H99 H 0.06206 0.39856 0.80985 0.0
H100 H 0.08924 0.36621 0.82305 0.0
H101 H 0.19143 0.51149 0.81391 0.0
H102 H 0.18372 0.52082 0.76101 0.0
H103 H 0.22364 0.50316 0.77436 0.0
Ho104 Ho 0.03517 0.10696 0.52359 0.0
Ho105 Ho 0.02174 0.06856 0.60502 0.0
C106 C 0.05756 0.15691 0.60577 0.0
C107 C 0.047 0.15031 0.46012 0.0
C108 C 0.08361 0.16667 0.43728 0.0
C109 C 0.09696 0.20571 0.43121 0.0
C110 C 0.134 0.22202 0.41445 0.0
C111 C 0.15822 0.19951 0.40337 0.0
C112 C 0.14444 0.16035 0.40859 0.0
C113 C 0.10759 0.1441 0.42556 0.0
C114 C 0.09408 0.08002 0.54871 0.0
C115 C 0.99489 1.01915 0.5216 0.0
C116 C 0.01845 1.0248 0.66749 0.0
C117 C 0.98765 0.99319 0.68436 0.0
C118 C 0.99448 0.97394 0.71905 0.0
C119 C 0.96385 0.94682 0.73802 0.0
C120 C 0.92586 0.93881 0.72267 0.0
C121 C 0.91969 0.9571 0.68668 0.0
C122 C 0.95035 0.984 0.66767 0.0
C123 C 0.96336 0.09708 0.58215 0.0
O124 O 0.04222 0.1552 0.56887 0.0
O125 O 0.05983 0.12561 0.62391 0.0
O126 O 0.03257 0.11384 0.45804 0.0
O127 O 0.04602 0.1628 0.49735 0.0
O128 O 0.08354 0.08027 0.5112 0.0
O129 O 0.07493 0.09633 0.57056 0.0
O130 O 1.00694 1.01952 0.55989 0.0
O131 O 0.99622 1.05112 0.50276 0.0
O132 O 1.01115 1.05736 0.66958 0.0
O133 O 0.03291 1.01919 0.63186 0.0
O134 O 0.9725 0.09345 0.61975 0.0
O135 O 0.98243 0.08139 0.55916 0.0
H136 H 0.07911 0.22364 0.44038 0.0
H137 H 0.1437 0.25226 0.41017 0.0
H138 H 0.16257 0.14236 0.40057 0.0
H139 H 0.09837 0.11393 0.43044 0.0
H140 H 0.02321 0.98068 0.73218 0.0
H141 H 0.96973 0.93285 0.76528 0.0
H142 H 0.89083 0.95211 0.67428 0.0
H143 H 0.94464 0.99873 0.64085 0.0
Ho144 Ho 0.5533 0.10509 0.12993 0.0
Ho145 Ho 0.47799 0.08874 0.0892 0.0
C146 C 0.4932 0.1439 0.16614 0.0
C147 C 0.62601 0.12124 0.14945 0.0
C148 C 0.65313 0.13899 0.18183 0.0
C149 C 0.65727 0.1761 0.19462 0.0
C150 C 0.6843 0.19231 0.22455 0.0
C151 C 0.7074 0.17162 0.24229 0.0
C152 C 0.70308 0.13451 0.22946 0.0
C153 C 0.67631 0.11844 0.19937 0.0
C154 C 0.49813 1.04784 0.16638 0.0
C155 C 0.53634 1.0502 1.05028 0.0
C156 C 0.40707 0.07396 0.06422 0.0
C157 C 0.38883 0.06611 1.02375 0.0
C158 C 0.39654 1.03876 0.99773 0.0
C159 C 0.38236 1.03455 0.95788 0.0
C160 C 0.3606 1.05788 0.9431 0.0
C161 C 0.352 0.08448 0.96953 0.0
C162 C 0.36583 0.0884 1.00957 0.0
C163 C 0.53483 0.14512 0.05294 0.0
O164 O 0.53089 0.14898 0.16073 0.0
O165 O 0.46796 0.11505 0.14898 0.0
O166 O 0.60038 0.08961 0.15906 0.0
O167 O 0.61163 0.14289 0.12665 0.0
O168 O 0.52261 0.0746 0.18597 0.0
O169 O 0.50364 1.05335 0.12824 0.0
O170 O 0.49904 1.04666 0.05491 0.0
O171 O 0.56251 0.07502 0.07177 0.0
O172 O 0.42969 0.10806 0.06894 0.0
O173 O 0.42182 1.04853 0.0797 0.0
O174 O 0.5096 0.11929 1.03318 0.0
O175 O 0.5281 0.14003 0.09075 0.0
H176 H 0.63971 0.19256 0.1816 0.0
H177 H 0.6867 0.22083 0.2343 0.0
H178 H 0.7207 0.11805 0.24238 0.0
H179 H 0.6738 0.08988 0.18964 0.0
H180 H 0.41454 1.0214 1.00765 0.0
H181 H 0.38991 1.01416 0.93803 0.0
H182 H 0.33513 0.10267 0.95901 0.0
H183 H 0.35959 0.1097 1.02909 0.0
Ho184 Ho 0.48955 0.55634 0.54898 0.0
Ho185 Ho 0.48912 0.61655 0.60654 0.0
C186 C 0.51945 0.55234 0.64188 0.0
C187 C 0.51161 0.50667 0.50717 0.0
C188 C 0.54422 0.4902 0.51333 0.0
C189 C 0.57589 0.49908 0.48568 0.0
C190 C 0.6092 0.48793 0.49361 0.0
C191 C 0.61142 0.46735 0.52919 0.0
C192 C 0.57923 0.45729 0.55617 0.0
C193 C 0.54599 0.46871 0.5484 0.0
C194 C 0.41953 0.54608 0.5877 0.0
C195 C 0.46288 0.62449 0.51179 0.0
C196 C 0.47159 0.66783 0.64978 0.0
C197 C 0.47003 0.70583 0.63946 0.0
C198 C 0.44709 0.72293 0.66323 0.0
C199 C 0.44334 0.75806 0.65192 0.0
C200 C 0.46253 0.77657 0.61665 0.0
C201 C 0.48609 0.75959 0.59328 0.0
C202 C 0.48963 0.72433 0.60448 0.0
C203 C 0.55906 0.62567 0.56813 0.0
O204 O 0.52539 0.54591 0.60276 0.0
O205 O 0.49869 0.57527 0.65192 0.0
O206 O 0.48296 0.49791 0.53392 0.0
O207 O 0.52187 0.54245 0.49788 0.0
O208 O 0.42389 0.53921 0.5492 0.0
O209 O 0.45265 0.55761 0.60385 0.0
O210 O 0.4644 0.63674 0.55 0.0
O211 O 0.47294 0.59372 0.50254 0.0
O212 O 0.50623 0.66273 0.64902 0.0
O213 O 0.44555 0.64065 0.63191 0.0
O214 O 0.55492 0.63395 0.60615 0.0
O215 O 0.52602 0.61479 0.55213 0.0
H216 H 0.57528 0.51557 0.45842 0.0
H217 H 0.63329 0.49548 0.47188 0.0
H218 H 0.58018 0.44155 0.58389 0.0
H219 H 0.52219 0.46155 0.57049 0.0
H220 H 0.43166 0.70889 0.69016 0.0
H221 H 0.42533 0.77074 0.67072 0.0
H222 H 0.50086 0.77308 0.56578 0.0
H223 H 0.50713 0.71121 0.58549 0.0
Ho224 Ho 0.99526 0.55351 0.11189 0.0
Ho225 Ho 0.9869 0.62531 0.06653 0.0
C226 C 0.06694 0.62701 0.11047 0.0
C227 C 1.01045 0.49214 0.1329 0.0
C228 C 0.04836 0.48375 0.13484 0.0
C229 C 0.07598 0.49472 0.10283 0.0
C230 C 0.11298 0.48963 0.10622 0.0
C231 C 0.12348 0.47429 0.14205 0.0
C232 C 0.09592 0.46327 0.17408 0.0
C233 C 0.0586 0.46776 0.17038 0.0
C234 C 0.97423 0.60517 0.16008 0.0
C235 C 0.9147 0.54865 0.06458 0.0
C236 C 0.97137 0.68726 1.048 0.0
C237 C 0.93637 0.69941 1.04133 0.0
C238 C 0.90066 0.68102 0.06037 0.0
C239 C 0.8668 0.69024 1.04954 0.0
C240 C 0.86823 0.71722 1.01888 0.0
C241 C 0.90411 0.73592 1.00047 0.0
C242 C 0.93793 0.7272 1.01178 0.0
C243 C 0.02401 0.58608 1.01605 0.0
O244 O 0.0568 0.58995 0.10724 0.0
O245 O 0.04256 0.6468 0.10151 0.0
O246 O 1.00523 0.51668 0.15953 0.0
O247 O 0.99844 0.49766 0.09639 0.0
O248 O 0.99579 0.58433 0.17155 0.0
O249 O 0.9625 0.59573 0.12406 0.0
O250 O 0.92748 0.58522 0.05626 0.0
O251 O 0.93548 0.53032 0.08509 0.0
O252 O 0.97711 0.66339 1.0209 0.0
O253 O 0.97841 0.67861 0.08546 0.0
O254 O 0.01703 0.61741 1.00644 0.0
O255 O 1.01167 0.57882 0.05231 0.0
H256 H 0.06945 0.50809 0.07552 0.0
H257 H 0.13381 0.49877 0.0813 0.0
H258 H 0.10328 0.45119 0.20197 0.0
H259 H 0.03801 0.45952 0.19565 0.0
H260 H 0.89874 0.65885 0.08255 0.0
H261 H 0.83934 0.67536 0.06393 0.0
H262 H 0.9059 0.75702 0.97697 0.0
H263 H 0.96517 0.74133 0.99646 0.0
H264 H 0.37239 0.36116 0.3327 0.0
H265 H 0.19278 0.1758 0.33749 0.0
H266 H 0.3266 0.29454 0.22733 0.0
H267 H 0.21329 0.2622 0.42991 0.0
H268 H 0.25542 0.2079 0.30544 0.0
H269 H 0.32838 0.3133 0.37691 0.0
C270 C 0.35422 0.33562 0.31923 0.0
C271 C 0.35274 0.33151 0.27663 0.0
C272 C 0.24643 0.21952 0.33308 0.0
C273 C 0.30261 0.27741 0.32611 0.0
C274 C 0.21075 0.20122 0.35139 0.0
C275 C 0.19757 0.21679 0.38594 0.0
C276 C 0.26911 0.25355 0.34948 0.0
C277 C 0.22201 0.2498 0.40268 0.0
C278 C 0.32896 0.30862 0.3442 0.0
C279 C 0.32866 0.29836 0.26013 0.0
N280 N 0.25649 0.26734 0.38404 0.0
N281 N 0.30407 0.27277 0.28486 0.0
H282 H 0.38483 0.10741 0.68783 0.0
H283 H 0.32885 0.99555 0.89646 0.0
H284 H 0.32207 0.99003 0.69373 0.0
H285 H 0.36858 0.11677 0.89008 0.0
H286 H 0.31988 0.99357 0.82233 0.0
H287 H 0.37239 0.11303 0.76139 0.0
C288 C 0.36734 0.08319 0.70466 0.0
C289 C 0.35411 1.04836 0.6853 0.0
C290 C 0.32997 1.02066 0.83718 0.0
C291 C 0.34093 1.05383 0.76908 0.0
C292 C 0.33526 1.02176 0.87946 0.0
C293 C 0.34982 1.05634 0.89934 0.0
C294 C 0.33992 1.05437 0.81451 0.0
C295 C 0.3572 0.0895 0.87597 0.0
C296 C 0.36044 0.0862 0.74654 0.0
C297 C 0.33229 1.01736 0.70801 0.0
N298 N 0.35274 0.08767 0.83471 0.0
N299 N 0.32687 1.02063 0.74894 0.0
H300 H 0.62446 0.40948 0.78795 0.0
H301 H 0.51832 0.56494 0.72445 0.0
H302 H 0.60371 0.49222 0.8709 0.0
H303 H 0.55916 0.4984 0.63524 0.0
H304 H 0.54562 0.53542 0.7787 0.0
H305 H 0.59686 0.43811 0.73206 0.0
C306 C 0.61392 0.43361 0.79429 0.0
C307 C 0.61635 0.44862 0.83394 0.0
C308 C 0.54869 0.52721 0.74729 0.0
C309 C 0.58476 0.48153 0.77046 0.0
C310 C 0.53299 0.54406 0.71614 0.0
C311 C 0.53631 0.53422 0.67496 0.0
C312 C 0.56777 0.49991 0.73757 0.0
C313 C 0.5558 0.50692 0.66643 0.0
C314 C 0.59836 0.45005 0.76246 0.0
C315 C 0.60255 0.48003 0.84067 0.0
N316 N 0.57066 0.49067 0.6974 0.0
N317 N 0.58729 0.49534 0.80938 0.0
H318 H 0.85009 0.74543 0.28911 0.0
H319 H 1.0018 0.62746 0.23609 0.0
H320 H 0.9299 0.72358 0.37605 0.0
H321 H 0.91825 0.64369 0.14974 0.0
H322 H 0.98052 0.66801 0.28479 0.0
H323 H 0.87996 0.71583 0.23524 0.0
C324 C 0.87508 0.73579 0.29642 0.0
C325 C 0.88814 0.73796 0.33703 0.0
C326 C 0.96688 0.66303 0.25517 0.0
C327 C 0.92167 0.70218 0.27562 0.0
C328 C 0.97902 0.63971 0.22716 0.0
C329 C 0.96183 0.63186 0.18846 0.0
C330 C 0.937 0.67901 0.2449 0.0
C331 C 0.93251 0.6489 0.17897 0.0
C332 C 0.89171 0.71824 0.26579 0.0
C333 C 0.9196 0.72353 0.34507 0.0
N334 N 0.92096 0.67141 0.20694 0.0
N335 N 0.93496 0.70604 0.31492 0.0
H336 H 0.37367 0.31106 0.15721 0.0
H337 H 0.53424 0.20925 0.20441 0.0
H338 H 0.44738 0.34695 0.26098 0.0
H339 H 0.4189 0.14919 0.16492 0.0
H340 H 0.51075 0.26445 0.21873 0.0
H341 H 0.39931 0.25655 0.14948 0.0
C342 C 0.39605 0.30783 0.17763 0.0
C343 C 0.4091 0.33357 0.20927 0.0
C344 C 0.49067 0.23887 0.20747 0.0
C345 C 0.43801 0.27139 0.20122 0.0
C346 C 0.50392 0.20735 0.19951 0.0
C347 C 0.47859 0.1745 0.18328 0.0
C348 C 0.45222 0.23766 0.19812 0.0
C349 C 0.43962 0.17378 0.17731 0.0
C350 C 0.4102 0.27658 0.17369 0.0
C351 C 0.43715 0.32769 0.23597 0.0
N352 N 0.42786 0.20506 0.18401 0.0
N353 N 0.451 0.29724 0.23124 0.0
H354 H 0.3272 0.10266 0.63054 0.0
H355 H 0.13072 1.03418 0.51085 0.0
H356 H 0.28657 0.99016 0.58291 0.0
H357 H 0.1391 0.1079 0.61466 0.0
H358 H 0.19249 1.02317 0.52997 0.0
H359 H 0.26208 0.11084 0.61963 0.0
C360 C 0.30449 0.07978 0.61789 0.0
C361 C 0.31226 1.04615 0.60646 0.0
C362 C 0.18064 1.04156 0.54869 0.0
C363 C 0.23876 1.05525 0.59347 0.0
C364 C 0.14559 1.0479 0.53774 0.0
C365 C 0.13004 0.07189 0.56128 0.0
C366 C 0.20061 0.06008 0.5828 0.0
C367 C 0.15024 0.08907 0.59588 0.0
C368 C 0.26757 0.08438 0.61169 0.0
C369 C 0.28203 1.01705 0.59049 0.0
N370 N 0.1849 0.08321 0.60539 0.0
N371 N 0.24673 1.02243 0.58386 0.0
H372 H 0.72752 0.39425 0.93252 0.0
H373 H 0.85366 0.57633 1.04609 0.0
H374 H 0.67974 0.48146 0.97682 0.0
H375 H 0.88628 0.47279 1.04865 0.0
H376 H 0.79077 0.54213 1.01797 0.0
H377 H 0.78613 0.42103 0.97354 0.0
C378 C 0.729 0.41842 0.95175 0.0
C379 C 0.69899 0.43588 0.95117 0.0
C380 C 0.8115 0.52675 1.02499 0.0
C381 C 0.7661 0.46736 0.99693 0.0
C382 C 0.84756 0.54634 1.04091 0.0
C383 C 0.87543 0.52748 1.0498 0.0
C384 C 0.80326 0.48801 1.01694 0.0
C385 C 0.86565 0.48848 1.04248 0.0
C386 C 0.76251 0.4339 0.97484 0.0
C387 C 0.70248 0.46746 0.97617 0.0
N388 N 0.83062 0.47013 1.026 0.0
N389 N 0.73559 0.48253 0.9974 0.0
H390 H 0.73938 0.70369 0.38003 0.0
H391 H 0.63221 0.65192 0.59883 0.0
H392 H 0.80001 0.71272 0.49401 0.0
H393 H 0.57164 0.62648 0.48469 0.0
H394 H 0.69374 0.67435 0.56067 0.0
H395 H 0.67765 0.67518 0.41694 0.0
C396 C 0.73964 0.69933 0.41279 0.0
C397 C 0.77477 0.71072 0.43406 0.0
C398 C 0.66708 0.66373 0.54386 0.0
C399 C 0.70433 0.67863 0.4767 0.0
C400 C 0.63188 0.65093 0.56569 0.0
C401 C 0.59666 0.63744 0.54497 0.0
C402 C 0.66727 0.6634 0.50078 0.0
C403 C 0.59809 0.63671 0.50194 0.0
C404 C 0.70446 0.68322 0.4339 0.0
C405 C 0.77352 0.70476 0.47657 0.0
N406 N 0.63271 0.64973 0.4813 0.0
N407 N 0.73899 0.68939 0.49646 0.0
H408 H 0.31736 0.38287 0.13977 0.0
H409 H 0.17321 0.49759 0.20549 0.0
H410 H 0.34926 0.47397 0.22586 0.0
H411 H 0.1644 0.4429 0.08804 0.0
H412 H 0.23825 0.48948 0.21304 0.0
H413 H 0.26333 0.40593 0.11722 0.0
C414 C 0.31391 0.40868 0.15266 0.0
C415 C 0.3377 0.42668 0.18462 0.0
C416 C 0.2223 0.47961 0.1854 0.0
C417 C 0.27495 0.45208 0.16064 0.0
C418 C 0.18506 0.48389 0.18131 0.0
C419 C 0.16335 0.47055 0.1463 0.0
C420 C 0.23766 0.4612 0.15461 0.0
C421 C 0.18024 0.45352 0.11554 0.0
C422 C 0.28276 0.42155 0.14024 0.0
C423 C 0.33135 0.45938 0.20121 0.0
N424 N 0.2162 0.44883 0.12065 0.0
N425 N 0.30002 0.47058 0.18974 0.0
H426 H 0.63068 0.38294 0.99564 0.0
H427 H 0.55387 0.1596 0.97221 0.0
H428 H 0.64482 0.3243 0.88541 0.0
H429 H 0.56794 0.21303 0.09045 0.0
H430 H 0.58753 0.2201 0.94041 0.0
H431 H 0.60944 0.32209 1.03218 0.0
C432 C 0.63017 0.35729 0.97945 0.0
C433 C 0.63926 0.35851 0.93745 0.0
C434 C 0.58362 0.21866 0.97336 0.0
C435 C 0.61407 0.28885 0.97848 0.0
C436 C 0.5643 0.18406 0.99152 0.0
C437 C 0.55796 0.18122 1.03402 0.0
C438 C 0.5963 0.25105 0.99772 0.0
C439 C 0.57221 0.21392 0.05754 0.0
C440 C 0.61775 0.32256 1.00014 0.0
C441 C 0.63766 0.32445 0.9177 0.0
N442 N 0.5903 0.24752 1.03908 0.0
N443 N 0.6248 0.29111 0.93814 0.0
H444 H 0.87871 0.83672 0.3565 0.0
H445 H 0.99474 0.94829 0.54759 0.0
H446 H 0.92634 0.78407 0.45175 0.0
H447 H 0.96242 1.00516 0.44455 0.0
H448 H 0.97232 0.88858 0.51103 0.0
H449 H 0.91357 0.89887 0.38391 0.0
C450 C 0.89823 0.83831 0.38186 0.0
C451 C 0.9004 0.80502 0.40113 0.0
C452 C 0.97021 0.91407 0.49623 0.0
C453 C 0.93871 0.87624 0.43454 0.0
C454 C 0.98287 0.94836 0.5173 0.0
C455 C 0.98043 0.98221 0.49947 0.0
C456 C 0.95453 0.91304 0.45682 0.0
C457 C 0.96487 0.98001 0.45982 0.0
C458 C 0.91745 0.87382 0.39818 0.0
C459 C 0.92469 0.8089 0.43525 0.0
N460 N 0.95238 0.9462 0.44007 0.0
N461 N 0.94224 0.84355 0.45117 0.0
H462 H 0.47407 1.01358 0.59195 0.0
H463 H 0.51772 0.8406 0.59082 0.0
H464 H 0.35505 0.94682 0.5814 0.0
H465 H 0.39436 0.79488 0.61264 0.0
H466 H 0.50736 0.90142 0.57405 0.0
H467 H 0.49492 0.95613 0.58697 0.0
C468 C 0.45257 0.98683 0.5872 0.0
C469 C 0.41294 0.98472 0.58688 0.0
C470 C 0.48256 0.87828 0.58276 0.0
C471 C 0.43602 0.91894 0.58095 0.0
C472 C 0.48845 0.84344 0.59195 0.0
C473 C 0.45691 0.81298 0.60394 0.0
C474 C 0.4448 0.88246 0.58562 0.0
C475 C 0.41959 0.81792 0.6046 0.0
C476 C 0.46435 0.95397 0.58421 0.0
C477 C 0.38592 0.94962 0.58101 0.0
N478 N 0.41465 0.85199 0.59579 0.0
N479 N 0.39792 0.91813 0.57881 0.0
H480 H 0.68983 0.822 0.79204 0.0
H481 H 0.91454 0.93458 0.80585 0.0
H482 H 0.7469 0.86735 0.90333 0.0
H483 H 0.85984 0.88828 0.69311 0.0
H484 H 0.85563 0.90179 0.84333 0.0
H485 H 0.75336 0.83842 0.75628 0.0
C486 C 0.716 0.83486 0.80888 0.0
C487 C 0.71364 0.84335 0.85039 0.0
C488 C 0.85659 0.89841 0.81043 0.0
C489 C 0.78583 0.86252 0.8103 0.0
C490 C 0.89046 0.91691 0.78895 0.0
C491 C 0.89215 0.91456 0.74609 0.0
C492 C 0.82389 0.87761 0.78898 0.0
C493 C 0.8596 0.8916 0.72602 0.0
C494 C 0.75212 0.84424 0.78868 0.0
C495 C 0.74794 0.86014 0.8713 0.0
N496 N 0.82664 0.87438 0.74758 0.0
N497 N 0.78264 0.86947 0.85097 0.0
H498 H 0.8646 0.32891 0.39875 0.0
H499 H 0.71866 0.13943 0.31466 0.0
H500 H 0.79718 0.23934 0.47603 0.0
H501 H 0.75927 0.24182 0.24395 0.0
H502 H 0.76104 0.16931 0.37047 0.0
H503 H 0.84054 0.29037 0.33827 0.0
C504 C 0.84561 0.30063 0.40279 0.0
C505 C 0.83262 0.2871 0.442 0.0
C506 C 0.76097 0.18507 0.34256 0.0
C507 C 0.80474 0.24327 0.37374 0.0
C508 C 0.73691 0.16803 0.31069 0.0
C509 C 0.73515 0.18839 0.27489 0.0
C510 C 0.78355 0.22264 0.33848 0.0
C511 C 0.75925 0.22541 0.27139 0.0
C512 C 0.83172 0.27881 0.3685 0.0
C513 C 0.80799 0.25046 0.44615 0.0
N514 N 0.78231 0.24145 0.30293 0.0
N515 N 0.79441 0.2299 0.41235 0.0
H516 H 0.37925 0.78568 0.37032 0.0
H517 H 0.46294 0.613 0.42842 0.0
H518 H 0.41409 0.71556 0.28144 0.0
H519 H 0.43974 0.68937 0.51861 0.0
H520 H 0.44789 0.65219 0.37436 0.0
H521 H 0.40612 0.75484 0.42487 0.0
C522 C 0.39413 0.76493 0.36219 0.0
C523 C 0.39521 0.75368 0.32128 0.0
C524 C 0.44614 0.66048 0.40595 0.0
C525 C 0.42431 0.71679 0.38353 0.0
C526 C 0.45454 0.6379 0.43698 0.0
C527 C 0.4524 0.64752 0.47842 0.0
C528 C 0.43527 0.6931 0.41608 0.0
C529 C 0.44161 0.6805 0.48724 0.0
C530 C 0.40883 0.74679 0.39334 0.0
C531 C 0.41345 0.72555 0.31252 0.0
N532 N 0.43332 0.7019 0.45649 0.0
N533 N 0.42675 0.7078 0.34326 0.0
H534 H 0.1175 0.51424 0.79373 0.0
H535 H 0.02751 0.51177 1.02177 0.0
H536 H 0.11034 0.42263 0.87729 0.0
H537 H 0.05824 0.60871 0.94231 0.0
H538 H 0.05421 0.47666 0.97011 0.0
H539 H 0.09165 0.54696 0.84746 0.0
C540 C 0.11059 0.50106 0.82352 0.0
C541 C 0.11654 0.46578 0.83099 0.0
C542 C 0.05534 0.50572 0.96417 0.0
C543 C 0.08608 0.50304 0.89324 0.0
C544 C 0.04043 0.52588 0.99393 0.0
C545 C 0.04118 0.56354 0.98693 0.0
C546 C 0.07065 0.52319 0.92678 0.0
C547 C 0.05711 0.57986 0.94939 0.0
C548 C 0.09567 0.5197 0.8543 0.0
C549 C 0.10613 0.44971 0.8701 0.0
N550 N 0.07097 0.55973 0.921 0.0
N551 N 0.09149 0.4684 0.8997 0.0
H552 H 0.67272 0.92703 0.92219 0.0
H553 H 0.4908 0.99073 1.00743 0.0
H554 H 0.55443 0.85829 0.91227 0.0
H555 H 0.61077 1.05125 1.02901 0.0
H556 H 0.51262 0.94566 0.96554 0.0
H557 H 0.64964 0.97656 0.95426 0.0
C558 C 0.64175 0.92281 0.92641 0.0
C559 C 0.61525 0.88902 0.91451 0.0
C560 C 0.53412 0.96894 0.97926 0.0
C561 C 0.58852 0.94491 0.95174 0.0
C562 C 0.52173 0.99477 1.00309 0.0
C563 C 0.54904 1.02469 1.02203 0.0
C564 C 0.57408 0.97315 0.97421 0.0
C565 C 0.58869 1.0285 1.01525 0.0
C566 C 0.62856 0.95085 0.94485 0.0
C567 C 0.5755 0.88421 0.92106 0.0
N568 N 0.59999 1.00293 0.99205 0.0
N569 N 0.56321 0.9119 0.93945 0.0
H570 H 0.82518 0.25427 0.57441 0.0
H571 H 0.96304 0.12822 0.50606 0.0
H572 H 0.907 0.28487 0.47372 0.0
H573 H 0.91683 0.12748 0.6288 0.0
H574 H 0.93386 0.17859 0.48795 0.0
H575 H 0.85052 0.20097 0.58987 0.0
C576 C 0.84894 0.25006 0.55602 0.0
C577 C 0.86477 0.2744 0.52341 0.0
C578 C 0.92995 0.16717 0.51874 0.0
C579 C 0.89276 0.21277 0.5397 0.0
C580 C 0.94634 0.13835 0.52898 0.0
C581 C 0.9424 0.12393 0.56899 0.0
C582 C 0.90899 0.18105 0.5486 0.0
C583 C 0.9206 0.13799 0.59763 0.0
C584 C 0.86308 0.21946 0.56451 0.0
C585 C 0.89432 0.26676 0.49929 0.0
N586 N 0.90468 0.16577 0.58689 0.0
N587 N 0.90739 0.23655 0.50786 0.0
H588 H 0.25075 0.77582 0.25035 0.0
H589 H 0.1283 0.59795 0.12343 0.0
H590 H 0.29787 0.68655 0.21085 0.0
H591 H 0.09329 0.69967 0.13813 0.0
H592 H 0.18918 0.62832 0.15788 0.0
H593 H 0.19113 0.74665 0.21266 0.0
C594 C 0.24844 0.75007 0.23362 0.0
C595 C 0.27915 0.73355 0.23354 0.0
C596 C 0.16831 0.64409 0.15331 0.0
C597 C 0.21106 0.69972 0.19072 0.0
C598 C 0.1335 0.62678 0.13357 0.0
C599 C 0.10553 0.64627 0.12776 0.0
C600 C 0.17515 0.68105 0.16785 0.0
C601 C 0.114 0.68357 0.1417 0.0
C602 C 0.21449 0.7334 0.21215 0.0
C603 C 0.27462 0.69989 0.21192 0.0
N604 N 0.14787 0.69961 0.16133 0.0
N605 N 0.2412 0.68403 0.19143 0.0
H606 H 0.17718 0.45964 0.6698 0.0
H607 H 0.40962 0.53198 0.67042 0.0
H608 H 0.24503 0.434 0.76718 0.0
H609 H 0.34516 0.52094 0.55852 0.0
H610 H 0.3491 0.50066 0.70761 0.0
H611 H 0.23726 0.48474 0.62882 0.0
C612 C 0.20468 0.45819 0.68192 0.0
C613 C 0.20613 0.4438 0.7214 0.0
C614 C 0.34815 0.50505 0.67491 0.0
C615 C 0.2753 0.47434 0.67582 0.0
C616 C 0.3827 0.52321 0.65368 0.0
C617 C 0.38258 0.52918 0.61119 0.0
C618 C 0.31284 0.49319 0.65378 0.0
C619 C 0.3467 0.51695 0.59121 0.0
C620 C 0.23903 0.47295 0.65882 0.0
C621 C 0.2427 0.44402 0.73647 0.0
N622 N 0.31336 0.4998 0.61262 0.0
N623 N 0.27577 0.45942 0.71397 0.0
H624 H 0.68742 0.7618 0.87171 0.0
H625 H 0.81356 0.73819 0.06495 0.0
H626 H 0.69435 0.82748 0.9816 0.0
H627 H 0.84202 0.7146 0.94095 0.0
H628 H 0.75751 0.75699 1.03947 0.0
H629 H 0.73254 0.73021 0.9016 0.0
C630 C 0.69778 0.76881 0.9025 0.0
C631 C 0.68676 0.79667 0.92455 0.0
C632 C 0.77587 0.74733 1.01798 0.0
C633 C 0.738 0.76109 0.9588 0.0
C634 C 0.80761 0.73653 1.03247 0.0
C635 C 0.83244 0.7253 1.00486 0.0
C636 C 0.76873 0.74622 0.97574 0.0
C637 C 0.82372 0.7236 0.96306 0.0
C638 C 0.72349 0.75101 0.91944 0.0
C639 C 0.70119 0.80531 0.96415 0.0
N640 N 0.79258 0.73404 0.94972 0.0
N641 N 0.72617 0.78763 0.98002 0.0
H642 H 0.37775 0.8559 0.31773 0.0
H643 H 0.4794 0.9791 0.12836 0.0
H644 H 0.43027 0.80991 0.21917 0.0
H645 H 0.47955 1.0299 0.24714 0.0
H646 H 0.45674 0.91671 0.1605 0.0
H647 H 0.41301 0.91978 0.29438 0.0
C648 C 0.39833 0.85934 0.29244 0.0
C649 C 0.40183 0.82762 0.27091 0.0
C650 C 0.46179 0.94149 0.17958 0.0
C651 C 0.44018 0.90046 0.24217 0.0
C652 C 0.47432 0.97716 0.16117 0.0
C653 C 0.48124 1.00986 0.18506 0.0
C654 C 0.4553 0.93826 0.22218 0.0
C655 C 0.47448 1.00546 0.22755 0.0
C656 C 0.41786 0.89575 0.27858 0.0
C657 C 0.42761 0.83362 0.23718 0.0
N658 N 0.46156 0.97041 0.24469 0.0
N659 N 0.445 0.8692 0.22324 0.0
H660 H 0.14274 0.33698 0.78373 0.0
H661 H 0.06253 0.22778 0.57561 0.0
H662 H 0.13014 0.39412 0.67248 0.0
H663 H 0.08772 0.17211 0.68337 0.0
H664 H 0.08726 0.28855 0.60996 0.0
H665 H 0.12378 0.27661 0.74724 0.0
C666 C 0.13664 0.33677 0.75135 0.0
C667 C 0.13861 0.37067 0.73098 0.0
C668 C 0.0875 0.26309 0.62611 0.0
C669 C 0.11582 0.30137 0.68885 0.0
C670 C 0.07325 0.2282 0.60649 0.0
C671 C 0.07284 0.19438 0.62647 0.0
C672 C 0.10142 0.26458 0.66633 0.0
C673 C 0.08731 0.19718 0.66656 0.0
C674 C 0.12559 0.3023 0.73051 0.0
C675 C 0.12979 0.36878 0.68912 0.0
N676 N 0.10078 0.23143 0.68506 0.0
N677 N 0.11855 0.33482 0.66957 0.0
H678 H 0.83697 0.42794 0.50333 0.0
H679 H 0.68694 0.51088 0.52291 0.0
H680 H 0.76257 0.33371 0.56896 0.0
H681 H 0.61745 0.39916 0.55603 0.0
H682 H 0.7456 0.49123 0.53243 0.0
H683 H 0.78937 0.46283 0.5144 0.0
C684 C 0.81113 0.41539 0.52165 0.0
C685 C 0.80348 0.37822 0.53542 0.0
C686 C 0.71772 0.47072 0.53725 0.0
C687 C 0.74821 0.41736 0.54809 0.0
C688 C 0.68411 0.48206 0.53193 0.0
C689 C 0.64727 0.45639 0.53784 0.0
C690 C 0.71444 0.43314 0.54792 0.0
C691 C 0.64526 0.41981 0.55087 0.0
C692 C 0.78367 0.43517 0.52795 0.0
C693 C 0.76944 0.36253 0.55828 0.0
N694 N 0.67835 0.40919 0.555 0.0
N695 N 0.74269 0.38193 0.56326 0.0
loop_
_geom_bond_atom_site_label_1
_geom_bond_atom_site_label_2
_geom_bond_distance
_geom_bond_site_symmetry_2
_ccdc_geom_bond_type
C0 N1 1.317 . S
C0 N2 1.348 . S
C0 C3 1.485 . S
N1 C0 1.317 . S
N1 N5 1.370 . S
N2 C0 1.348 . S
N2 C4 1.346 . S
C3 C0 1.485 . S
C3 H7 0.960 . S
C3 H8 0.961 . S
C3 H9 0.960 . S
C4 N2 1.346 . S
C4 N5 1.307 . S
C4 C6 1.486 . S
N5 N1 1.370 . S
N5 C4 1.307 . S
C6 C4 1.486 . S
C6 H10 0.960 . S
C6 H11 0.960 . S
C6 H12 0.959 . S
H7 C3 0.960 . S
H8 C3 0.961 . S
H9 C3 0.960 . S
H10 C6 0.960 . S
H11 C6 0.960 . S
H12 C6 0.959 . S
C13 N14 1.317 . S
C13 N15 1.348 . S
C13 C16 1.485 . S
N14 C13 1.317 . S
N14 N18 1.370 . S
N15 C13 1.348 . S
N15 C17 1.346 . S
C16 C13 1.485 . S
C16 H20 0.960 . S
C16 H21 0.961 . S
C16 H22 0.960 . S
C17 N15 1.346 . S
C17 N18 1.307 . S
C17 C19 1.486 . S
N18 N14 1.370 . S
N18 C17 1.307 . S
C19 C17 1.486 . S
C19 H23 0.960 . S
C19 H24 0.960 . S
C19 H25 0.959 . S
H20 C16 0.960 . S
H21 C16 0.961 . S
H22 C16 0.960 . S
H23 C19 0.960 . S
H24 C19 0.960 . S
H25 C19 0.959 . S
C26 N27 1.317 . S
C26 N28 1.348 . S
C26 C29 1.485 . S
N27 C26 1.317 . S
N27 N31 1.370 . S
N28 C26 1.348 . S
N28 C30 1.346 . S
C29 C26 1.485 . S
C29 H33 0.960 . S
C29 H34 0.961 . S
C29 H35 0.960 . S
C30 N28 1.346 . S
C30 N31 1.307 . S
C30 C32 1.486 . S
N31 N27 1.370 . S
N31 C30 1.307 . S
C32 C30 1.486 . S
C32 H36 0.960 . S
C32 H37 0.960 . S
C32 H38 0.959 . S
H33 C29 0.960 . S
H34 C29 0.961 . S
H35 C29 0.960 . S
H36 C32 0.960 . S
H37 C32 0.960 . S
H38 C32 0.959 . S
C39 N40 1.317 . S
C39 N41 1.348 . S
C39 C42 1.485 . S
N40 C39 1.317 . S
N40 N44 1.370 . S
N41 C39 1.348 . S
N41 C43 1.346 . S
C42 C39 1.485 . S
C42 H46 0.960 . S
C42 H47 0.961 . S
C42 H48 0.960 . S
C43 N41 1.346 . S
C43 N44 1.307 . S
C43 C45 1.486 . S
N44 N40 1.370 . S
N44 C43 1.307 . S
C45 C43 1.486 . S
C45 H49 0.960 . S
C45 H50 0.960 . S
C45 H51 0.959 . S
H46 C42 0.960 . S
H47 C42 0.961 . S
H48 C42 0.960 . S
H49 C45 0.960 . S
H50 C45 0.960 . S
H51 C45 0.959 . S
C52 N53 1.317 . S
C52 N54 1.348 . S
C52 C55 1.485 . S
N53 C52 1.317 . S
N53 N57 1.370 . S
N54 C52 1.348 . S
N54 C56 1.346 . S
C55 C52 1.485 . S
C55 H59 0.960 . S
C55 H60 0.961 . S
C55 H61 0.960 . S
C56 N54 1.346 . S
C56 N57 1.307 . S
C56 C58 1.486 . S
N57 N53 1.370 . S
N57 C56 1.307 . S
C58 C56 1.486 . S
C58 H62 0.960 . S
C58 H63 0.960 . S
C58 H64 0.959 . S
H59 C55 0.960 . S
H60 C55 0.961 . S
H61 C55 0.960 . S
H62 C58 0.960 . S
H63 C58 0.960 . S
H64 C58 0.959 . S
C65 N66 1.317 . S
C65 N67 1.348 . S
C65 C68 1.485 . S
N66 C65 1.317 . S
N66 N70 1.370 . S
N67 C65 1.348 . S
N67 C69 1.346 . S
C68 C65 1.485 . S
C68 H72 0.960 . S
C68 H73 0.961 . S
C68 H74 0.960 . S
C69 N67 1.346 . S
C69 N70 1.307 . S
C69 C71 1.486 . S
N70 N66 1.370 . S
N70 C69 1.307 . S
C71 C69 1.486 . S
C71 H75 0.960 . S
C71 H76 0.960 . S
C71 H77 0.959 . S
H72 C68 0.960 . S
H73 C68 0.961 . S
H74 C68 0.960 . S
H75 C71 0.960 . S
H76 C71 0.960 . S
H77 C71 0.959 . S
C78 N79 1.317 . S
C78 N80 1.348 . S
C78 C81 1.485 . S
N79 C78 1.317 . S
N79 N83 1.370 . S
N80 C78 1.348 . S
N80 C82 1.346 . S
C81 C78 1.485 . S
C81 H85 0.960 . S
C81 H86 0.961 . S
C81 H87 0.960 . S
C82 N80 1.346 . S
C82 N83 1.307 . S
C82 C84 1.486 . S
N83 N79 1.370 . S
N83 C82 1.307 . S
C84 C82 1.486 . S
C84 H88 0.960 . S
C84 H89 0.960 . S
C84 H90 0.959 . S
H85 C81 0.960 . S
H86 C81 0.961 . S
H87 C81 0.960 . S
H88 C84 0.960 . S
H89 C84 0.960 . S
H90 C84 0.959 . S
C91 N92 1.317 . S
C91 N93 1.348 . S
C91 C94 1.485 . S
N92 C91 1.317 . S
N92 N96 1.370 . S
N93 C91 1.348 . S
N93 C95 1.346 . S
C94 C91 1.485 . S
C94 H98 0.960 . S
C94 H99 0.961 . S
C94 H100 0.960 . S
C95 N93 1.346 . S
C95 N96 1.307 . S
C95 C97 1.486 . S
N96 N92 1.370 . S
N96 C95 1.307 . S
C97 C95 1.486 . S
C97 H101 0.960 . S
C97 H102 0.960 . S
C97 H103 0.959 . S
H98 C94 0.960 . S
H99 C94 0.961 . S
H100 C94 0.960 . S
H101 C97 0.960 . S
H102 C97 0.960 . S
H103 C97 0.959 . S
Ho104 C107 2.811 . S
Ho104 O124 2.322 . S
Ho104 O126 2.378 . S
Ho104 O127 2.524 . S
Ho104 O128 2.381 . S
Ho104 O129 2.669 . S
Ho104 O131 2.346 1_545 S
Ho104 O135 2.305 . S
Ho105 C116 2.811 1_445 S
Ho105 O125 2.346 . S
Ho105 O129 2.305 . S
Ho105 O130 2.322 1_445 S
Ho105 O132 2.378 1_445 S
Ho105 O133 2.524 1_445 S
Ho105 O134 2.381 1_455 S
Ho105 O135 2.669 . S
C106 O124 1.259 . S
C106 O125 1.268 . S
C107 Ho104 2.811 . S
C107 C108 1.488 . S
C107 O126 1.215 . S
C107 O127 1.289 . S
C108 C107 1.488 . S
C108 C109 1.348 . S
C108 C113 1.413 . S
C109 C108 1.348 . S
C109 C110 1.442 . S
C109 H136 0.930 . S
C110 C109 1.442 . S
C110 C111 1.381 . S
C110 H137 0.931 . S
C111 C110 1.381 . S
C111 C112 1.321 . S
C112 C111 1.321 . S
C112 C113 1.403 . S
C112 H138 0.934 . S
C113 C108 1.413 . S
C113 C112 1.403 . S
C113 H139 0.930 . S
C114 O128 1.275 1_565 S
C114 O129 1.256 1_565 S
C115 O130 1.259 . S
C115 O131 1.268 1_655 S
C116 Ho105 2.811 1_665 S
C116 C117 1.488 . S
C116 O132 1.215 . S
C116 O133 1.289 . S
C117 C116 1.488 . S
C117 C118 1.348 . S
C117 C122 1.413 . S
C118 C117 1.348 . S
C118 C119 1.442 . S
C118 H140 0.930 . S
C119 C118 1.442 . S
C119 C120 1.381 . S
C119 H141 0.931 . S
C120 C119 1.381 . S
C120 C121 1.321 . S
C121 C120 1.321 . S
C121 C122 1.403 . S
C121 H142 0.934 . S
C122 C117 1.413 . S
C122 C121 1.403 . S
C122 H143 0.930 . S
C123 O134 1.275 . S
C123 O135 1.256 1_655 S
O124 Ho104 2.322 . S
O124 C106 1.259 . S
O125 Ho105 2.346 . S
O125 C106 1.268 . S
O126 Ho104 2.378 . S
O126 C107 1.215 . S
O127 Ho104 2.524 . S
O127 C107 1.289 . S
O128 Ho104 2.381 . S
O128 C114 1.275 1_545 S
O129 Ho104 2.669 . S
O129 Ho105 2.305 . S
O129 C114 1.256 1_545 S
O130 Ho105 2.322 1_665 S
O130 C115 1.259 . S
O131 Ho104 2.346 1_565 S
O131 C115 1.268 1_455 S
O132 Ho105 2.378 1_665 S
O132 C116 1.215 . S
O133 Ho105 2.524 1_665 S
O133 C116 1.289 . S
O134 Ho105 2.381 1_655 S
O134 C123 1.275 . S
O135 Ho104 2.305 . S
O135 Ho105 2.669 . S
O135 C123 1.256 1_455 S
H136 C109 0.930 . S
H137 C110 0.931 . S
H138 C112 0.934 . S
H139 C113 0.930 . S
H140 C118 0.930 . S
H141 C119 0.931 . S
H142 C121 0.934 . S
H143 C122 0.930 . S
Ho144 C147 2.811 . S
Ho144 O164 2.322 . S
Ho144 O166 2.378 . S
Ho144 O167 2.524 . S
Ho144 O168 2.381 1_545 S
Ho144 O169 2.669 . S
Ho144 O171 2.346 . S
Ho144 O175 2.305 . S
Ho145 C156 2.811 1_554 S
Ho145 O165 2.346 . S
Ho145 O169 2.305 . S
Ho145 O170 2.322 1_554 S
Ho145 O172 2.378 1_554 S
Ho145 O173 2.524 1_544 S
Ho145 O174 2.381 1_554 S
Ho145 O175 2.669 . S
C146 O164 1.259 . S
C146 O165 1.268 . S
C147 Ho144 2.811 . S
C147 C148 1.488 . S
C147 O166 1.215 . S
C147 O167 1.289 . S
C148 C147 1.488 . S
C148 C149 1.348 . S
C148 C153 1.413 . S
C149 C148 1.348 . S
C149 C150 1.442 . S
C149 H176 0.930 . S
C150 C149 1.442 . S
C150 C151 1.381 . S
C150 H177 0.931 . S
C151 C150 1.381 . S
C151 C152 1.321 . S
C152 C151 1.321 . S
C152 C153 1.403 . S
C152 H178 0.934 . S
C153 C148 1.413 . S
C153 C152 1.403 . S
C153 H179 0.930 . S
C154 O168 1.275 . S
C154 O169 1.256 1_565 S
C155 O170 1.259 1_554 S
C155 O171 1.268 . S
C156 Ho145 2.811 1_556 S
C156 C157 1.488 1_545 S
C156 O172 1.215 . S
C156 O173 1.289 1_545 S
C157 C156 1.488 1_565 S
C157 C158 1.348 . S
C157 C162 1.413 1_565 S
C158 C157 1.348 . S
C158 C159 1.442 . S
C158 H180 0.930 . S
C159 C158 1.442 . S
C159 C160 1.381 . S
C159 H181 0.931 . S
C160 C159 1.381 . S
C160 C161 1.321 . S
C161 C160 1.321 . S
C161 C162 1.403 1_565 S
C161 H182 0.934 . S
C162 C157 1.413 1_545 S
C162 C161 1.403 1_545 S
C162 H183 0.930 . S
C163 O174 1.275 1_554 S
C163 O175 1.256 . S
O164 Ho144 2.322 . S
O164 C146 1.259 . S
O165 Ho145 2.346 . S
O165 C146 1.268 . S
O166 Ho144 2.378 . S
O166 C147 1.215 . S
O167 Ho144 2.524 . S
O167 C147 1.289 . S
O168 Ho144 2.381 1_565 S
O168 C154 1.275 . S
O169 Ho144 2.669 . S
O169 Ho145 2.305 . S
O169 C154 1.256 1_545 S
O170 Ho145 2.322 1_556 S
O170 C155 1.259 1_556 S
O171 Ho144 2.346 . S
O171 C155 1.268 . S
O172 Ho145 2.378 1_556 S
O172 C156 1.215 . S
O173 Ho145 2.524 1_566 S
O173 C156 1.289 1_565 S
O174 Ho145 2.381 1_556 S
O174 C163 1.275 1_556 S
O175 Ho144 2.305 . S
O175 Ho145 2.669 . S
O175 C163 1.256 . S
H176 C149 0.930 . S
H177 C150 0.931 . S
H178 C152 0.934 . S
H179 C153 0.930 . S
H180 C158 0.930 . S
H181 C159 0.931 . S
H182 C161 0.934 . S
H183 C162 0.930 . S
Ho184 C187 2.811 . S
Ho184 O204 2.322 . S
Ho184 O206 2.378 . S
Ho184 O207 2.524 . S
Ho184 O208 2.381 . S
Ho184 O209 2.669 . S
Ho184 O211 2.346 . S
Ho184 O215 2.305 . S
Ho185 C196 2.811 . S
Ho185 O205 2.346 . S
Ho185 O209 2.305 . S
Ho185 O210 2.322 . S
Ho185 O212 2.378 . S
Ho185 O213 2.524 . S
Ho185 O214 2.381 . S
Ho185 O215 2.669 . S
C186 O204 1.259 . S
C186 O205 1.268 . S
C187 Ho184 2.811 . S
C187 C188 1.488 . S
C187 O206 1.215 . S
C187 O207 1.289 . S
C188 C187 1.488 . S
C188 C189 1.348 . S
C188 C193 1.413 . S
C189 C188 1.348 . S
C189 C190 1.442 . S
C189 H216 0.930 . S
C190 C189 1.442 . S
C190 C191 1.381 . S
C190 H217 0.931 . S
C191 C190 1.381 . S
C191 C192 1.321 . S
C192 C191 1.321 . S
C192 C193 1.403 . S
C192 H218 0.934 . S
C193 C188 1.413 . S
C193 C192 1.403 . S
C193 H219 0.930 . S
C194 O208 1.275 . S
C194 O209 1.256 . S
C195 O210 1.259 . S
C195 O211 1.268 . S
C196 Ho185 2.811 . S
C196 C197 1.488 . S
C196 O212 1.215 . S
C196 O213 1.289 . S
C197 C196 1.488 . S
C197 C198 1.348 . S
C197 C202 1.413 . S
C198 C197 1.348 . S
C198 C199 1.442 . S
C198 H220 0.930 . S
C199 C198 1.442 . S
C199 C200 1.381 . S
C199 H221 0.931 . S
C200 C199 1.381 . S
C200 C201 1.321 . S
C201 C200 1.321 . S
C201 C202 1.403 . S
C201 H222 0.934 . S
C202 C197 1.413 . S
C202 C201 1.403 . S
C202 H223 0.930 . S
C203 O214 1.275 . S
C203 O215 1.256 . S
O204 Ho184 2.322 . S
O204 C186 1.259 . S
O205 Ho185 2.346 . S
O205 C186 1.268 . S
O206 Ho184 2.378 . S
O206 C187 1.215 . S
O207 Ho184 2.524 . S
O207 C187 1.289 . S
O208 Ho184 2.381 . S
O208 C194 1.275 . S
O209 Ho184 2.669 . S
O209 Ho185 2.305 . S
O209 C194 1.256 . S
O210 Ho185 2.322 . S
O210 C195 1.259 . S
O211 Ho184 2.346 . S
O211 C195 1.268 . S
O212 Ho185 2.378 . S
O212 C196 1.215 . S
O213 Ho185 2.524 . S
O213 C196 1.289 . S
O214 Ho185 2.381 . S
O214 C203 1.275 . S
O215 Ho184 2.305 . S
O215 Ho185 2.669 . S
O215 C203 1.256 . S
H216 C189 0.930 . S
H217 C190 0.931 . S
H218 C192 0.934 . S
H219 C193 0.930 . S
H220 C198 0.930 . S
H221 C199 0.931 . S
H222 C201 0.934 . S
H223 C202 0.930 . S
Ho224 C227 2.811 . S
Ho224 O244 2.322 . S
Ho224 O246 2.378 . S
Ho224 O247 2.524 . S
Ho224 O248 2.381 1_455 S
Ho224 O249 2.669 1_455 S
Ho224 O251 2.346 1_455 S
Ho224 O255 2.305 1_554 S
Ho225 C236 2.793 1_455 S
Ho225 O245 2.365 1_556 S
Ho225 O249 2.300 1_456 S
Ho225 O250 2.310 1_455 S
Ho225 O252 2.366 1_455 S
Ho225 O253 2.502 1_455 S
Ho225 O254 2.392 . S
Ho225 O255 2.682 . S
C226 O244 1.259 . S
C226 O245 1.268 . S
C227 Ho224 2.811 . S
C227 C228 1.488 . S
C227 O246 1.215 . S
C227 O247 1.289 . S
C228 C227 1.488 . S
C228 C229 1.348 . S
C228 C233 1.413 . S
C229 C228 1.348 . S
C229 C230 1.442 . S
C229 H256 0.930 . S
C230 C229 1.442 . S
C230 C231 1.381 . S
C230 H257 0.931 . S
C231 C230 1.381 . S
C231 C232 1.321 . S
C232 C231 1.321 . S
C232 C233 1.403 . S
C232 H258 0.934 . S
C233 C228 1.413 . S
C233 C232 1.403 . S
C233 H259 0.930 . S
C234 O248 1.275 . S
C234 O249 1.256 . S
C235 O250 1.259 . S
C235 O251 1.268 1_556 S
C236 Ho225 2.793 1_655 S
C236 C237 1.488 . S
C236 O252 1.215 . S
C236 O253 1.289 . S
C237 C236 1.488 . S
C237 C238 1.348 . S
C237 C242 1.413 . S
C238 C237 1.348 . S
C238 C239 1.442 . S
C238 H260 0.930 . S
C239 C238 1.442 . S
C239 C240 1.381 . S
C239 H261 0.931 . S
C240 C239 1.381 . S
C240 C241 1.321 . S
C241 C240 1.321 . S
C241 C242 1.403 . S
C241 H262 0.934 . S
C242 C237 1.413 . S
C242 C241 1.403 . S
C242 H263 0.930 . S
C243 O254 1.275 . S
C243 O255 1.256 . S
O244 Ho224 2.322 . S
O244 C226 1.259 . S
O245 Ho225 2.365 1_554 S
O245 C226 1.268 . S
O246 Ho224 2.378 . S
O246 C227 1.215 . S
O247 Ho224 2.524 . S
O247 C227 1.289 . S
O248 Ho224 2.381 1_655 S
O248 C234 1.275 . S
O249 Ho224 2.669 1_655 S
O249 Ho225 2.300 1_654 S
O249 C234 1.256 . S
O250 Ho225 2.310 1_655 S
O250 C235 1.259 . S
O251 Ho224 2.346 1_655 S
O251 C235 1.268 1_554 S
O252 Ho225 2.366 1_655 S
O252 C236 1.215 . S
O253 Ho225 2.502 1_655 S
O253 C236 1.289 . S
O254 Ho225 2.392 . S
O254 C243 1.275 . S
O255 Ho224 2.305 1_556 S
O255 Ho225 2.682 . S
O255 C243 1.256 . S
H256 C229 0.930 . S
H257 C230 0.931 . S
H258 C232 0.934 . S
H259 C233 0.930 . S
H260 C238 0.930 . S
H261 C239 0.931 . S
H262 C241 0.934 . S
H263 C242 0.930 . S
H264 C270 0.930 . S
H265 C274 0.930 . S
H266 C279 0.929 . S
H267 C277 0.929 . S
H268 C272 0.929 . S
H269 C278 0.929 . S
C270 H264 0.930 . S
C270 C271 1.367 . S
C270 C278 1.378 . S
C271 C270 1.367 . S
C271 C279 1.433 . S
C272 H268 0.929 . S
C272 C274 1.378 . S
C272 C276 1.350 . S
C273 C276 1.463 . S
C273 C278 1.350 . S
C273 N281 1.427 . S
C274 H265 0.930 . S
C274 C272 1.378 . S
C274 C275 1.367 . S
C275 C274 1.367 . S
C275 C277 1.433 . S
C276 C272 1.350 . S
C276 C273 1.463 . S
C276 N280 1.427 . S
C277 H267 0.929 . S
C277 C275 1.433 . S
C277 N280 1.384 . S
C278 H269 0.929 . S
C278 C270 1.378 . S
C278 C273 1.350 . S
C279 H266 0.929 . S
C279 C271 1.433 . S
C279 N281 1.384 . S
N280 C276 1.427 . S
N280 C277 1.384 . S
N281 C273 1.427 . S
N281 C279 1.384 . S
H282 C288 0.930 . S
H283 C292 0.930 . S
H284 C297 0.929 . S
H285 C295 0.929 . S
H286 C290 0.929 . S
H287 C296 0.929 . S
C288 H282 0.930 . S
C288 C289 1.367 . S
C288 C296 1.378 . S
C289 C288 1.367 . S
C289 C297 1.433 . S
C290 H286 0.929 . S
C290 C292 1.378 . S
C290 C294 1.350 . S
C291 C294 1.463 . S
C291 C296 1.350 . S
C291 N299 1.427 . S
C292 H283 0.930 . S
C292 C290 1.378 . S
C292 C293 1.367 . S
C293 C292 1.367 . S
C293 C295 1.433 . S
C294 C290 1.350 . S
C294 C291 1.463 . S
C294 N298 1.427 . S
C295 H285 0.929 . S
C295 C293 1.433 . S
C295 N298 1.384 . S
C296 H287 0.929 . S
C296 C288 1.378 . S
C296 C291 1.350 . S
C297 H284 0.929 . S
C297 C289 1.433 . S
C297 N299 1.384 . S
N298 C294 1.427 . S
N298 C295 1.384 . S
N299 C291 1.427 . S
N299 C297 1.384 . S
H300 C306 0.930 . S
H301 C310 0.930 . S
H302 C315 0.929 . S
H303 C313 0.929 . S
H304 C308 0.929 . S
H305 C314 0.929 . S
C306 H300 0.930 . S
C306 C307 1.367 . S
C306 C314 1.378 . S
C307 C306 1.367 . S
C307 C315 1.433 . S
C308 H304 0.929 . S
C308 C310 1.378 . S
C308 C312 1.350 . S
C309 C312 1.463 . S
C309 C314 1.350 . S
C309 N317 1.427 . S
C310 H301 0.930 . S
C310 C308 1.378 . S
C310 C311 1.367 . S
C311 C310 1.367 . S
C311 C313 1.433 . S
C312 C308 1.350 . S
C312 C309 1.463 . S
C312 N316 1.427 . S
C313 H303 0.929 . S
C313 C311 1.433 . S
C313 N316 1.384 . S
C314 H305 0.929 . S
C314 C306 1.378 . S
C314 C309 1.350 . S
C315 H302 0.929 . S
C315 C307 1.433 . S
C315 N317 1.384 . S
N316 C312 1.427 . S
N316 C313 1.384 . S
N317 C309 1.427 . S
N317 C315 1.384 . S
H318 C324 0.930 . S
H319 C328 0.930 . S
H320 C333 0.929 . S
H321 C331 0.929 . S
H322 C326 0.929 . S
H323 C332 0.929 . S
C324 H318 0.930 . S
C324 C325 1.367 . S
C324 C332 1.378 . S
C325 C324 1.367 . S
C325 C333 1.433 . S
C326 H322 0.929 . S
C326 C328 1.378 . S
C326 C330 1.350 . S
C327 C330 1.463 . S
C327 C332 1.350 . S
C327 N335 1.427 . S
C328 H319 0.930 . S
C328 C326 1.378 . S
C328 C329 1.367 . S
C329 C328 1.367 . S
C329 C331 1.433 . S
C330 C326 1.350 . S
C330 C327 1.463 . S
C330 N334 1.427 . S
C331 H321 0.929 . S
C331 C329 1.433 . S
C331 N334 1.384 . S
C332 H323 0.929 . S
C332 C324 1.378 . S
C332 C327 1.350 . S
C333 H320 0.929 . S
C333 C325 1.433 . S
C333 N335 1.384 . S
N334 C330 1.427 . S
N334 C331 1.384 . S
N335 C327 1.427 . S
N335 C333 1.384 . S
H336 C342 0.930 . S
H337 C346 0.930 . S
H338 C351 0.929 . S
H339 C349 0.929 . S
H340 C344 0.929 . S
H341 C350 0.929 . S
C342 H336 0.930 . S
C342 C343 1.367 . S
C342 C350 1.378 . S
C343 C342 1.367 . S
C343 C351 1.433 . S
C344 H340 0.929 . S
C344 C346 1.378 . S
C344 C348 1.350 . S
C345 C348 1.463 . S
C345 C350 1.350 . S
C345 N353 1.427 . S
C346 H337 0.930 . S
C346 C344 1.378 . S
C346 C347 1.367 . S
C347 C346 1.367 . S
C347 C349 1.433 . S
C348 C344 1.350 . S
C348 C345 1.463 . S
C348 N352 1.427 . S
C349 H339 0.929 . S
C349 C347 1.433 . S
C349 N352 1.384 . S
C350 H341 0.929 . S
C350 C342 1.378 . S
C350 C345 1.350 . S
C351 H338 0.929 . S
C351 C343 1.433 . S
C351 N353 1.384 . S
N352 C348 1.427 . S
N352 C349 1.384 . S
N353 C345 1.427 . S
N353 C351 1.384 . S
H354 C360 0.930 . S
H355 C364 0.930 . S
H356 C369 0.929 . S
H357 C367 0.929 1_545 S
H358 C362 0.929 . S
H359 C368 0.929 . S
C360 H354 0.930 . S
C360 C361 1.367 . S
C360 C368 1.378 . S
C361 C360 1.367 . S
C361 C369 1.433 . S
C362 H358 0.929 . S
C362 C364 1.378 . S
C362 C366 1.350 . S
C363 C366 1.463 . S
C363 C368 1.350 . S
C363 N371 1.427 . S
C364 H355 0.930 . S
C364 C362 1.378 . S
C364 C365 1.367 . S
C365 C364 1.367 . S
C365 C367 1.433 . S
C366 C362 1.350 . S
C366 C363 1.463 . S
C366 N370 1.427 . S
C367 H357 0.929 1_565 S
C367 C365 1.433 . S
C367 N370 1.384 . S
C368 H359 0.929 . S
C368 C360 1.378 . S
C368 C363 1.350 . S
C369 H356 0.929 . S
C369 C361 1.433 . S
C369 N371 1.384 . S
N370 C366 1.427 . S
N370 C367 1.384 . S
N371 C363 1.427 . S
N371 C369 1.384 . S
H372 C378 0.930 . S
H373 C382 0.930 . S
H374 C387 0.929 . S
H375 C385 0.929 . S
H376 C380 0.929 . S
H377 C386 0.929 . S
C378 H372 0.930 . S
C378 C379 1.367 . S
C378 C386 1.378 . S
C379 C378 1.367 . S
C379 C387 1.433 . S
C380 H376 0.929 . S
C380 C382 1.378 . S
C380 C384 1.350 . S
C381 C384 1.463 . S
C381 C386 1.350 . S
C381 N389 1.427 . S
C382 H373 0.930 . S
C382 C380 1.378 . S
C382 C383 1.367 . S
C383 C382 1.367 . S
C383 C385 1.433 . S
C384 C380 1.350 . S
C384 C381 1.463 . S
C384 N388 1.427 . S
C385 H375 0.929 . S
C385 C383 1.433 . S
C385 N388 1.384 . S
C386 H377 0.929 . S
C386 C378 1.378 . S
C386 C381 1.350 . S
C387 H374 0.929 . S
C387 C379 1.433 . S
C387 N389 1.384 . S
N388 C384 1.427 . S
N388 C385 1.384 . S
N389 C381 1.427 . S
N389 C387 1.384 . S
H390 C396 0.930 . S
H391 C400 0.930 . S
H392 C405 0.929 . S
H393 C403 0.929 . S
H394 C398 0.929 . S
H395 C404 0.929 . S
C396 H390 0.930 . S
C396 C397 1.367 . S
C396 C404 1.378 . S
C397 C396 1.367 . S
C397 C405 1.433 . S
C398 H394 0.929 . S
C398 C400 1.378 . S
C398 C402 1.350 . S
C399 C402 1.463 . S
C399 C404 1.350 . S
C399 N407 1.427 . S
C400 H391 0.930 . S
C400 C398 1.378 . S
C400 C401 1.367 . S
C401 C400 1.367 . S
C401 C403 1.433 . S
C402 C398 1.350 . S
C402 C399 1.463 . S
C402 N406 1.427 . S
C403 H393 0.929 . S
C403 C401 1.433 . S
C403 N406 1.384 . S
C404 H395 0.929 . S
C404 C396 1.378 . S
C404 C399 1.350 . S
C405 H392 0.929 . S
C405 C397 1.433 . S
C405 N407 1.384 . S
N406 C402 1.427 . S
N406 C403 1.384 . S
N407 C399 1.427 . S
N407 C405 1.384 . S
H408 C414 0.930 . S
H409 C418 0.930 . S
H410 C423 0.929 . S
H411 C421 0.929 . S
H412 C416 0.929 . S
H413 C422 0.929 . S
C414 H408 0.930 . S
C414 C415 1.367 . S
C414 C422 1.378 . S
C415 C414 1.367 . S
C415 C423 1.433 . S
C416 H412 0.929 . S
C416 C418 1.378 . S
C416 C420 1.350 . S
C417 C420 1.463 . S
C417 C422 1.350 . S
C417 N425 1.427 . S
C418 H409 0.930 . S
C418 C416 1.378 . S
C418 C419 1.367 . S
C419 C418 1.367 . S
C419 C421 1.433 . S
C420 C416 1.350 . S
C420 C417 1.463 . S
C420 N424 1.427 . S
C421 H411 0.929 . S
C421 C419 1.433 . S
C421 N424 1.384 . S
C422 H413 0.929 . S
C422 C414 1.378 . S
C422 C417 1.350 . S
C423 H410 0.929 . S
C423 C415 1.433 . S
C423 N425 1.384 . S
N424 C420 1.427 . S
N424 C421 1.384 . S
N425 C417 1.427 . S
N425 C423 1.384 . S
H426 C432 0.930 . S
H427 C436 0.930 . S
H428 C441 0.929 . S
H429 C439 0.929 . S
H430 C434 0.929 . S
H431 C440 0.929 . S
C432 H426 0.930 . S
C432 C433 1.367 . S
C432 C440 1.378 . S
C433 C432 1.367 . S
C433 C441 1.433 . S
C434 H430 0.929 . S
C434 C436 1.378 . S
C434 C438 1.350 . S
C435 C438 1.463 . S
C435 C440 1.350 . S
C435 N443 1.427 . S
C436 H427 0.930 . S
C436 C434 1.378 . S
C436 C437 1.367 . S
C437 C436 1.367 . S
C437 C439 1.433 1_556 S
C438 C434 1.350 . S
C438 C435 1.463 . S
C438 N442 1.427 . S
C439 H429 0.929 . S
C439 C437 1.433 1_554 S
C439 N442 1.384 1_554 S
C440 H431 0.929 . S
C440 C432 1.378 . S
C440 C435 1.350 . S
C441 H428 0.929 . S
C441 C433 1.433 . S
C441 N443 1.384 . S
N442 C438 1.427 . S
N442 C439 1.384 1_556 S
N443 C435 1.427 . S
N443 C441 1.384 . S
H444 C450 0.930 . S
H445 C454 0.930 1_455 S
H446 C459 0.929 . S
H447 C457 0.929 . S
H448 C452 0.929 . S
H449 C458 0.929 . S
C450 H444 0.930 . S
C450 C451 1.367 . S
C450 C458 1.378 . S
C451 C450 1.367 . S
C451 C459 1.433 . S
C452 H448 0.929 . S
C452 C454 1.378 . S
C452 C456 1.350 . S
C453 C456 1.463 . S
C453 C458 1.350 . S
C453 N461 1.427 . S
C454 H445 0.930 1_655 S
C454 C452 1.378 . S
C454 C455 1.367 . S
C455 C454 1.367 . S
C455 C457 1.433 . S
C456 C452 1.350 . S
C456 C453 1.463 . S
C456 N460 1.427 . S
C457 H447 0.929 . S
C457 C455 1.433 . S
C457 N460 1.384 . S
C458 H449 0.929 . S
C458 C450 1.378 . S
C458 C453 1.350 . S
C459 H446 0.929 . S
C459 C451 1.433 . S
C459 N461 1.384 . S
N460 C456 1.427 . S
N460 C457 1.384 . S
N461 C453 1.427 . S
N461 C459 1.384 . S
H462 C468 0.930 . S
H463 C472 0.930 . S
H464 C477 0.929 . S
H465 C475 0.929 . S
H466 C470 0.929 . S
H467 C476 0.929 . S
C468 H462 0.930 . S
C468 C469 1.367 . S
C468 C476 1.378 . S
C469 C468 1.367 . S
C469 C477 1.433 . S
C470 H466 0.929 . S
C470 C472 1.378 . S
C470 C474 1.350 . S
C471 C474 1.463 . S
C471 C476 1.350 . S
C471 N479 1.427 . S
C472 H463 0.930 . S
C472 C470 1.378 . S
C472 C473 1.367 . S
C473 C472 1.367 . S
C473 C475 1.433 . S
C474 C470 1.350 . S
C474 C471 1.463 . S
C474 N478 1.427 . S
C475 H465 0.929 . S
C475 C473 1.433 . S
C475 N478 1.384 . S
C476 H467 0.929 . S
C476 C468 1.378 . S
C476 C471 1.350 . S
C477 H464 0.929 . S
C477 C469 1.433 . S
C477 N479 1.384 . S
N478 C474 1.427 . S
N478 C475 1.384 . S
N479 C471 1.427 . S
N479 C477 1.384 . S
H480 C486 0.930 . S
H481 C490 0.930 . S
H482 C495 0.929 . S
H483 C493 0.929 . S
H484 C488 0.929 . S
H485 C494 0.929 . S
C486 H480 0.930 . S
C486 C487 1.367 . S
C486 C494 1.378 . S
C487 C486 1.367 . S
C487 C495 1.433 . S
C488 H484 0.929 . S
C488 C490 1.378 . S
C488 C492 1.350 . S
C489 C492 1.463 . S
C489 C494 1.350 . S
C489 N497 1.427 . S
C490 H481 0.930 . S
C490 C488 1.378 . S
C490 C491 1.367 . S
C491 C490 1.367 . S
C491 C493 1.433 . S
C492 C488 1.350 . S
C492 C489 1.463 . S
C492 N496 1.427 . S
C493 H483 0.929 . S
C493 C491 1.433 . S
C493 N496 1.384 . S
C494 H485 0.929 . S
C494 C486 1.378 . S
C494 C489 1.350 . S
C495 H482 0.929 . S
C495 C487 1.433 . S
C495 N497 1.384 . S
N496 C492 1.427 . S
N496 C493 1.384 . S
N497 C489 1.427 . S
N497 C495 1.384 . S
H498 C504 0.930 . S
H499 C508 0.930 . S
H500 C513 0.929 . S
H501 C511 0.929 . S
H502 C506 0.929 . S
H503 C512 0.929 . S
C504 H498 0.930 . S
C504 C505 1.367 . S
C504 C512 1.378 . S
C505 C504 1.367 . S
C505 C513 1.433 . S
C506 H502 0.929 . S
C506 C508 1.378 . S
C506 C510 1.350 . S
C507 C510 1.463 . S
C507 C512 1.350 . S
C507 N515 1.427 . S
C508 H499 0.930 . S
C508 C506 1.378 . S
C508 C509 1.367 . S
C509 C508 1.367 . S
C509 C511 1.433 . S
C510 C506 1.350 . S
C510 C507 1.463 . S
C510 N514 1.427 . S
C511 H501 0.929 . S
C511 C509 1.433 . S
C511 N514 1.384 . S
C512 H503 0.929 . S
C512 C504 1.378 . S
C512 C507 1.350 . S
C513 H500 0.929 . S
C513 C505 1.433 . S
C513 N515 1.384 . S
N514 C510 1.427 . S
N514 C511 1.384 . S
N515 C507 1.427 . S
N515 C513 1.384 . S
H516 C522 0.930 . S
H517 C526 0.930 . S
H518 C531 0.929 . S
H519 C529 0.929 . S
H520 C524 0.929 . S
H521 C530 0.929 . S
C522 H516 0.930 . S
C522 C523 1.367 . S
C522 C530 1.378 . S
C523 C522 1.367 . S
C523 C531 1.433 . S
C524 H520 0.929 . S
C524 C526 1.378 . S
C524 C528 1.350 . S
C525 C528 1.463 . S
C525 C530 1.350 . S
C525 N533 1.427 . S
C526 H517 0.930 . S
C526 C524 1.378 . S
C526 C527 1.367 . S
C527 C526 1.367 . S
C527 C529 1.433 . S
C528 C524 1.350 . S
C528 C525 1.463 . S
C528 N532 1.427 . S
C529 H519 0.929 . S
C529 C527 1.433 . S
C529 N532 1.384 . S
C530 H521 0.929 . S
C530 C522 1.378 . S
C530 C525 1.350 . S
C531 H518 0.929 . S
C531 C523 1.433 . S
C531 N533 1.384 . S
N532 C528 1.427 . S
N532 C529 1.384 . S
N533 C525 1.427 . S
N533 C531 1.384 . S
H534 C540 0.930 . S
H535 C544 0.930 . S
H536 C549 0.929 . S
H537 C547 0.929 . S
H538 C542 0.929 . S
H539 C548 0.929 . S
C540 H534 0.930 . S
C540 C541 1.367 . S
C540 C548 1.378 . S
C541 C540 1.367 . S
C541 C549 1.433 . S
C542 H538 0.929 . S
C542 C544 1.378 . S
C542 C546 1.350 . S
C543 C546 1.463 . S
C543 C548 1.350 . S
C543 N551 1.427 . S
C544 H535 0.930 . S
C544 C542 1.378 . S
C544 C545 1.367 . S
C545 C544 1.367 . S
C545 C547 1.433 . S
C546 C542 1.350 . S
C546 C543 1.463 . S
C546 N550 1.427 . S
C547 H537 0.929 . S
C547 C545 1.433 . S
C547 N550 1.384 . S
C548 H539 0.929 . S
C548 C540 1.378 . S
C548 C543 1.350 . S
C549 H536 0.929 . S
C549 C541 1.433 . S
C549 N551 1.384 . S
N550 C546 1.427 . S
N550 C547 1.384 . S
N551 C543 1.427 . S
N551 C549 1.384 . S
H552 C558 0.930 . S
H553 C562 0.930 1_554 S
H554 C567 0.929 . S
H555 C565 0.942 . S
H556 C560 0.929 . S
H557 C566 0.929 . S
C558 H552 0.930 . S
C558 C559 1.367 . S
C558 C566 1.378 . S
C559 C558 1.367 . S
C559 C567 1.433 . S
C560 H556 0.929 . S
C560 C562 1.378 . S
C560 C564 1.350 . S
C561 C564 1.463 . S
C561 C566 1.350 . S
C561 N569 1.427 . S
C562 H553 0.930 1_556 S
C562 C560 1.378 . S
C562 C563 1.367 . S
C563 C562 1.367 . S
C563 C565 1.433 . S
C564 C560 1.350 . S
C564 C561 1.463 . S
C564 N568 1.427 . S
C565 H555 0.942 . S
C565 C563 1.433 . S
C565 N568 1.384 . S
C566 H557 0.929 . S
C566 C558 1.378 . S
C566 C561 1.350 . S
C567 H554 0.929 . S
C567 C559 1.433 . S
C567 N569 1.384 . S
N568 C564 1.427 . S
N568 C565 1.384 . S
N569 C561 1.427 . S
N569 C567 1.384 . S
H570 C576 0.930 . S
H571 C580 0.930 . S
H572 C585 0.929 . S
H573 C583 0.929 . S
H574 C578 0.929 . S
H575 C584 0.929 . S
C576 H570 0.930 . S
C576 C577 1.367 . S
C576 C584 1.378 . S
C577 C576 1.367 . S
C577 C585 1.433 . S
C578 H574 0.929 . S
C578 C580 1.378 . S
C578 C582 1.350 . S
C579 C582 1.463 . S
C579 C584 1.350 . S
C579 N587 1.427 . S
C580 H571 0.930 . S
C580 C578 1.378 . S
C580 C581 1.367 . S
C581 C580 1.367 . S
C581 C583 1.433 . S
C582 C578 1.350 . S
C582 C579 1.463 . S
C582 N586 1.427 . S
C583 H573 0.929 . S
C583 C581 1.433 . S
C583 N586 1.384 . S
C584 H575 0.929 . S
C584 C576 1.378 . S
C584 C579 1.350 . S
C585 H572 0.929 . S
C585 C577 1.433 . S
C585 N587 1.384 . S
N586 C582 1.427 . S
N586 C583 1.384 . S
N587 C579 1.427 . S
N587 C585 1.384 . S
H588 C594 0.930 . S
H589 C598 0.930 . S
H590 C603 0.929 . S
H591 C601 0.929 . S
H592 C596 0.929 . S
H593 C602 0.929 . S
C594 H588 0.930 . S
C594 C595 1.367 . S
C594 C602 1.378 . S
C595 C594 1.367 . S
C595 C603 1.433 . S
C596 H592 0.929 . S
C596 C598 1.378 . S
C596 C600 1.350 . S
C597 C600 1.463 . S
C597 C602 1.350 . S
C597 N605 1.427 . S
C598 H589 0.930 . S
C598 C596 1.378 . S
C598 C599 1.367 . S
C599 C598 1.367 . S
C599 C601 1.433 . S
C600 C596 1.350 . S
C600 C597 1.463 . S
C600 N604 1.427 . S
C601 H591 0.929 . S
C601 C599 1.433 . S
C601 N604 1.384 . S
C602 H593 0.929 . S
C602 C594 1.378 . S
C602 C597 1.350 . S
C603 H590 0.929 . S
C603 C595 1.433 . S
C603 N605 1.384 . S
N604 C600 1.427 . S
N604 C601 1.384 . S
N605 C597 1.427 . S
N605 C603 1.384 . S
H606 C612 0.930 . S
H607 C616 0.930 . S
H608 C621 0.929 . S
H609 C619 0.929 . S
H610 C614 0.929 . S
H611 C620 0.929 . S
C612 H606 0.930 . S
C612 C613 1.367 . S
C612 C620 1.378 . S
C613 C612 1.367 . S
C613 C621 1.433 . S
C614 H610 0.929 . S
C614 C616 1.378 . S
C614 C618 1.350 . S
C615 C618 1.463 . S
C615 C620 1.350 . S
C615 N623 1.427 . S
C616 H607 0.930 . S
C616 C614 1.378 . S
C616 C617 1.367 . S
C617 C616 1.367 . S
C617 C619 1.433 . S
C618 C614 1.350 . S
C618 C615 1.463 . S
C618 N622 1.427 . S
C619 H609 0.929 . S
C619 C617 1.433 . S
C619 N622 1.384 . S
C620 H611 0.929 . S
C620 C612 1.378 . S
C620 C615 1.350 . S
C621 H608 0.929 . S
C621 C613 1.433 . S
C621 N623 1.384 . S
N622 C618 1.427 . S
N622 C619 1.384 . S
N623 C615 1.427 . S
N623 C621 1.384 . S
H624 C630 0.930 . S
H625 C634 0.930 . S
H626 C639 0.929 . S
H627 C637 0.929 . S
H628 C632 0.929 . S
H629 C638 0.929 . S
C630 H624 0.930 . S
C630 C631 1.367 . S
C630 C638 1.378 . S
C631 C630 1.367 . S
C631 C639 1.433 . S
C632 H628 0.929 . S
C632 C634 1.378 . S
C632 C636 1.350 . S
C633 C636 1.463 . S
C633 C638 1.350 . S
C633 N641 1.427 . S
C634 H625 0.930 . S
C634 C632 1.378 . S
C634 C635 1.367 . S
C635 C634 1.367 . S
C635 C637 1.433 . S
C636 C632 1.350 . S
C636 C633 1.463 . S
C636 N640 1.427 . S
C637 H627 0.929 . S
C637 C635 1.433 . S
C637 N640 1.384 . S
C638 H629 0.929 . S
C638 C630 1.378 . S
C638 C633 1.350 . S
C639 H626 0.929 . S
C639 C631 1.433 . S
C639 N641 1.384 . S
N640 C636 1.427 . S
N640 C637 1.384 . S
N641 C633 1.427 . S
N641 C639 1.384 . S
H642 C648 0.930 . S
H643 C652 0.930 . S
H644 C657 0.929 . S
H645 C655 0.929 . S
H646 C650 0.929 . S
H647 C656 0.929 . S
C648 H642 0.930 . S
C648 C649 1.367 . S
C648 C656 1.378 . S
C649 C648 1.367 . S
C649 C657 1.433 . S
C650 H646 0.929 . S
C650 C652 1.378 . S
C650 C654 1.350 . S
C651 C654 1.463 . S
C651 C656 1.350 . S
C651 N659 1.427 . S
C652 H643 0.930 . S
C652 C650 1.378 . S
C652 C653 1.367 . S
C653 C652 1.367 . S
C653 C655 1.433 . S
C654 C650 1.350 . S
C654 C651 1.463 . S
C654 N658 1.427 . S
C655 H645 0.929 . S
C655 C653 1.433 . S
C655 N658 1.384 . S
C656 H647 0.929 . S
C656 C648 1.378 . S
C656 C651 1.350 . S
C657 H644 0.929 . S
C657 C649 1.433 . S
C657 N659 1.384 . S
N658 C654 1.427 . S
N658 C655 1.384 . S
N659 C651 1.427 . S
N659 C657 1.384 . S
H660 C666 0.930 . S
H661 C670 0.930 . S
H662 C675 0.929 . S
H663 C673 0.929 . S
H664 C668 0.929 . S
H665 C674 0.929 . S
C666 H660 0.930 . S
C666 C667 1.367 . S
C666 C674 1.378 . S
C667 C666 1.367 . S
C667 C675 1.433 . S
C668 H664 0.929 . S
C668 C670 1.378 . S
C668 C672 1.350 . S
C669 C672 1.463 . S
C669 C674 1.350 . S
C669 N677 1.427 . S
C670 H661 0.930 . S
C670 C668 1.378 . S
C670 C671 1.367 . S
C671 C670 1.367 . S
C671 C673 1.433 . S
C672 C668 1.350 . S
C672 C669 1.463 . S
C672 N676 1.427 . S
C673 H663 0.929 . S
C673 C671 1.433 . S
C673 N676 1.384 . S
C674 H665 0.929 . S
C674 C666 1.378 . S
C674 C669 1.350 . S
C675 H662 0.929 . S
C675 C667 1.433 . S
C675 N677 1.384 . S
N676 C672 1.427 . S
N676 C673 1.384 . S
N677 C669 1.427 . S
N677 C675 1.384 . S
H678 C684 0.930 . S
H679 C688 0.930 . S
H680 C693 0.929 . S
H681 C691 0.929 . S
H682 C686 0.929 . S
H683 C692 0.929 . S
C684 H678 0.930 . S
C684 C685 1.367 . S
C684 C692 1.378 . S
C685 C684 1.367 . S
C685 C693 1.433 . S
C686 H682 0.929 . S
C686 C688 1.378 . S
C686 C690 1.350 . S
C687 C690 1.463 . S
C687 C692 1.350 . S
C687 N695 1.427 . S
C688 H679 0.930 . S
C688 C686 1.378 . S
C688 C689 1.367 . S
C689 C688 1.367 . S
C689 C691 1.433 . S
C690 C686 1.350 . S
C690 C687 1.463 . S
C690 N694 1.427 . S
C691 H681 0.929 . S
C691 C689 1.433 . S
C691 N694 1.384 . S
C692 H683 0.929 . S
C692 C684 1.378 . S
C692 C687 1.350 . S
C693 H680 0.929 . S
C693 C685 1.433 . S
C693 N695 1.384 . S
N694 C690 1.427 . S
N694 C691 1.384 . S
N695 C687 1.427 . S
N695 C693 1.384 . S
C271 N1 0.943 . S
C275 C111 0.965 . S
C289 N18 1.077 . S
C293 C160 1.123 . S
C311 C186 2.086 . S
C307 N28 2.128 . S
C325 N40 2.599 . S
C329 C234 2.603 . S
C347 C146 2.420 . S
C343 N5 2.363 . S
C365 C114 0.691 . S
C361 N14 0.697 . S
C383 C235 2.027 . S
C379 N31 2.029 . S
C401 C203 1.398 . S
C397 N41 1.425 . S
C415 N2 1.343 . S
C419 C231 1.371 . S
C437 C163 2.463 1_556 S
C433 N27 2.521 . S
C451 N44 2.407 . S
C455 C115 2.454 . S
C469 N15 0.695 . S
C473 C200 0.687 . S
C491 C120 1.455 . S
C487 N57 1.492 . S
C505 N70 0.913 . S
C509 C151 0.945 . S
C523 N79 2.298 . S
C527 C195 2.325 . S
C541 N93 2.399 . S
C545 C243 2.380 . S
C559 N54 1.919 . S
C563 C155 2.030 1_566 S
C581 C123 1.477 . S
C577 N66 1.547 . S
C599 C226 1.434 . S
C595 N80 1.473 . S
C617 C194 1.705 . S
C613 N96 1.707 . S
C631 N53 1.480 . S
C635 C240 1.499 . S
C653 C154 2.149 . S
C649 N83 2.143 . S
C671 C106 2.635 . S
C667 N92 2.617 . S
C685 N67 0.878 . S
C689 C191 0.896 . S
