# Generated by pormake.
# Topology zzz, (3,6)-cn, num edge types: 1
# Building blocks:
#     Node 0, Type 0, BuildingBlock: QEWDON_clean_linker_0, # of connection points: 3
#     Node 1, Type 0, BuildingBlock: QEWDON_clean_linker_0, # of connection points: 3
#     Node 2, Type 0, BuildingBlock: QEWDON_clean_linker_0, # of connection points: 3
#     Node 3, Type 0, BuildingBlock: QEWDON_clean_linker_0, # of connection points: 3
#     Node 4, Type 0, BuildingBlock: QEWDON_clean_linker_0, # of connection points: 3
#     Node 5, Type 0, BuildingBlock: QEWDON_clean_linker_0, # of connection points: 3
#     Node 6, Type 0, BuildingBlock: QEWDON_clean_linker_0, # of connection points: 3
#     Node 7, Type 0, BuildingBlock: QEWDON_clean_linker_0, # of connection points: 3
#     Node 8, Type 1, BuildingBlock: KUMBOL_clean_sbu_0, # of connection points: 6
#     Node 9, Type 1, BuildingBlock: KUMBOL_clean_sbu_0, # of connection points: 6
#     Node 10, Type 1, BuildingBlock: KUMBOL_clean_sbu_0, # of connection points: 6
#     Node 11, Type 1, BuildingBlock: KUMBOL_clean_sbu_0, # of connection points: 6
#     Edge 12, Type (0, 1), BuildingBlock: XUDNAN_clean_linker_2, # of connection points: 2
#     Edge 13, Type (0, 1), BuildingBlock: XUDNAN_clean_linker_2, # of connection points: 2
#     Edge 14, Type (0, 1), BuildingBlock: XUDNAN_clean_linker_2, # of connection points: 2
#     Edge 15, Type (0, 1), BuildingBlock: XUDNAN_clean_linker_2, # of connection points: 2
#     Edge 16, Type (0, 1), BuildingBlock: XUDNAN_clean_linker_2, # of connection points: 2
#     Edge 17, Type (0, 1), BuildingBlock: XUDNAN_clean_linker_2, # of connection points: 2
#     Edge 18, Type (0, 1), BuildingBlock: XUDNAN_clean_linker_2, # of connection points: 2
#     Edge 19, Type (0, 1), BuildingBlock: XUDNAN_clean_linker_2, # of connection points: 2
#     Edge 20, Type (0, 1), BuildingBlock: XUDNAN_clean_linker_2, # of connection points: 2
#     Edge 21, Type (0, 1), BuildingBlock: XUDNAN_clean_linker_2, # of connection points: 2
#     Edge 22, Type (0, 1), BuildingBlock: XUDNAN_clean_linker_2, # of connection points: 2
#     Edge 23, Type (0, 1), BuildingBlock: XUDNAN_clean_linker_2, # of connection points: 2
#     Edge 24, Type (0, 1), BuildingBlock: XUDNAN_clean_linker_2, # of connection points: 2
#     Edge 25, Type (0, 1), BuildingBlock: XUDNAN_clean_linker_2, # of connection points: 2
#     Edge 26, Type (0, 1), BuildingBlock: XUDNAN_clean_linker_2, # of connection points: 2
#     Edge 27, Type (0, 1), BuildingBlock: XUDNAN_clean_linker_2, # of connection points: 2
#     Edge 28, Type (0, 1), BuildingBlock: XUDNAN_clean_linker_2, # of connection points: 2
#     Edge 29, Type (0, 1), BuildingBlock: XUDNAN_clean_linker_2, # of connection points: 2
#     Edge 30, Type (0, 1), BuildingBlock: XUDNAN_clean_linker_2, # of connection points: 2
#     Edge 31, Type (0, 1), BuildingBlock: XUDNAN_clean_linker_2, # of connection points: 2
#     Edge 32, Type (0, 1), BuildingBlock: XUDNAN_clean_linker_2, # of connection points: 2
#     Edge 33, Type (0, 1), BuildingBlock: XUDNAN_clean_linker_2, # of connection points: 2
#     Edge 34, Type (0, 1), BuildingBlock: XUDNAN_clean_linker_2, # of connection points: 2
#     Edge 35, Type (0, 1), BuildingBlock: XUDNAN_clean_linker_2, # of connection points: 2
# Relax obj value: 0.114
# Max RMSD: 0.150
# Mean RMSD: 0.075
data_MOF--net-zzz--node1-KUMBOL_clean_sbu_0--node2-QEWDON_clean_linker_0--edge1-XUDNAN_clean_linker_2
_symmetry_space_group_name_H-M    P1
_symmetry_Int_Tables_number       1
_symmetry_cell_setting            triclinic
loop_
_symmetry_equiv_pos_as_xyz
'x, y, z'
_cell_length_a     54.069478
_cell_length_b     54.35704
_cell_length_c     14.271306
_cell_angle_alpha  91.44584
_cell_angle_beta   90.002769
_cell_angle_gamma 89.837661
loop_
_atom_site_label
_atom_site_type_symbol
_atom_site_fract_x
_atom_site_fract_y
_atom_site_fract_z
_atom_type_partial_charge
H0 H 0.76701 0.56741 0.11961 0.0
C1 C 0.77978 0.56196 0.17361 0.0
C2 C 0.80477 0.56764 0.16181 0.0
C3 C 0.77146 0.54976 0.25373 0.0
H4 H 0.84135 0.56531 0.21891 0.0
C5 C 0.82192 0.56176 0.23143 0.0
C6 C 0.81488 0.54992 0.31323 0.0
C7 C 0.78951 0.54348 0.3231 0.0
C8 C 0.74399 0.54455 0.26483 0.0
H9 H 0.78405 0.53363 0.38458 0.0
C10 C 0.72735 0.54287 0.1867 0.0
C11 C 0.70146 0.53967 0.19925 0.0
C12 C 0.7338 0.54254 0.35512 0.0
H13 H 0.74515 0.54445 0.41721 0.0
C14 C 0.7085 0.53888 0.36772 0.0
H15 H 0.7343 0.54371 0.11585 0.0
C16 C 0.69251 0.53756 0.29113 0.0
H17 H 0.6729 0.53553 0.3044 0.0
H18 H 0.7011 0.53758 0.43793 0.0
H19 H 0.9932 0.77038 0.0992 0.0
C20 C 0.99739 0.78261 0.15792 0.0
C21 C 0.99384 0.80791 0.14625 0.0
C22 C 1.00661 0.77339 0.24263 0.0
H23 H 0.99619 0.84405 0.21096 0.0
C24 C 0.99814 0.82442 0.2214 0.0
C25 C 1.00774 0.81658 0.30634 0.0
C26 C 1.01235 0.79098 0.31654 0.0
C27 C 1.01 0.74567 0.25254 0.0
H28 H 0.02095 0.78512 0.38067 0.0
C29 C 1.01246 0.72876 0.17381 0.0
C30 C 1.01428 0.70281 0.18572 0.0
C31 C 1.00956 0.73561 0.34246 0.0
H32 H 1.00692 0.74713 0.40451 0.0
C33 C 1.01167 0.7103 0.35456 0.0
H34 H 1.01341 0.7355 0.10333 0.0
C35 C 1.01391 0.69413 0.27766 0.0
H36 H 1.01474 0.6746 0.29057 0.0
H37 H 1.01109 0.70307 0.42452 0.0
H38 H 0.77913 0.01732 0.08579 0.0
C39 C 0.76514 0.01663 0.13968 0.0
C40 C 0.74033 0.0167 0.11157 0.0
C41 C 0.77192 0.01755 0.23485 0.0
H42 H 0.70241 0.01811 0.15829 0.0
C43 C 0.72161 0.01683 0.17966 0.0
C44 C 0.72716 0.0177 0.27545 0.0
C45 C 0.75242 0.01795 0.30314 0.0
C46 C 0.7991 0.02092 0.25955 0.0
H47 H 0.75659 0.0191 0.37721 0.0
C48 C 0.81869 1.0138 0.19654 0.0
C49 C 0.84374 0.01949 0.21691 0.0
C50 C 0.80574 0.03328 0.34374 0.0
H51 H 0.7919 0.03986 0.39299 0.0
C52 C 0.83047 0.0383 0.36486 0.0
H53 H 0.81483 1.00361 0.13219 0.0
C54 C 0.84925 0.03156 0.30225 0.0
H55 H 0.86823 0.03593 0.32032 0.0
H56 H 0.83509 0.04788 0.42993 0.0
H57 H 0.56499 0.78518 0.12461 0.0
C58 C 0.55967 0.77269 0.17881 0.0
C59 C 0.56596 0.74791 0.16666 0.0
C60 C 0.54697 0.78115 0.25981 0.0
H61 H 0.56459 0.71185 0.22288 0.0
C62 C 0.56026 0.73113 0.23602 0.0
C63 C 0.54805 0.73847 0.31882 0.0
C64 C 0.54103 0.76361 0.32951 0.0
C65 C 0.54076 0.80824 0.27133 0.0
H66 H 0.53098 0.76935 0.39185 0.0
C67 C 0.53756 0.8237 0.19283 0.0
C68 C 0.53354 0.84943 0.20429 0.0
C69 C 0.5392 0.81925 0.36148 0.0
H70 H 0.54216 0.80865 0.42363 0.0
C71 C 0.53443 0.84439 0.37332 0.0
H72 H 0.53842 0.8159 0.12253 0.0
C73 C 0.53163 0.85931 0.29592 0.0
H74 H 0.52765 0.87865 0.30807 0.0
H75 H 0.53314 0.85245 0.4433 0.0
H76 H 0.29072 0.48807 0.20751 0.0
C77 C 0.27771 0.49242 0.15265 0.0
C78 C 0.25279 0.48696 0.16638 0.0
C79 C 0.28578 0.50286 0.06875 0.0
H80 H 0.21609 0.48762 0.1101 0.0
C81 C 0.2354 0.49147 0.09619 0.0
C82 C 0.24224 0.50176 0.01093 0.0
C83 C 0.26763 0.50781 0.99817 0.0
C84 C 0.31319 0.50712 0.05461 0.0
H85 H 0.27314 0.51618 0.93346 0.0
C86 C 0.32976 0.51224 0.13094 0.0
C87 C 0.3556 0.51448 0.116 0.0
C88 C 0.32336 0.50453 0.9641 0.0
H89 H 0.31183 0.49997 0.90422 0.0
C90 C 0.34875 0.50697 0.94935 0.0
H91 H 0.32272 0.51491 0.20146 0.0
C92 C 0.36471 0.51188 0.02427 0.0
H93 H 0.38433 0.51369 0.01049 0.0
H94 H 0.35616 0.50486 0.87913 0.0
H95 H 0.06563 0.27534 0.22217 0.0
C96 C 0.05998 0.26215 0.16846 0.0
C97 C 0.0651 0.2373 0.18304 0.0
C98 C 0.04817 0.26986 0.08615 0.0
H99 H 0.06238 0.20023 0.12748 0.0
C100 C 0.05869 0.21948 0.11457 0.0
C101 C 0.04719 0.22581 0.03075 0.0
C102 C 0.04199 0.2512 0.01648 0.0
C103 C 0.04324 0.29729 0.07387 0.0
H104 H 0.03267 0.25606 0.95251 0.0
C105 C 0.0418 0.31474 0.15134 0.0
C106 C 0.03863 0.34047 0.13745 0.0
C107 C 0.04113 0.30661 0.98308 0.0
H108 H 0.04282 0.2947 0.92159 0.0
C109 C 0.03763 0.3317 0.96913 0.0
H110 H 0.04273 0.30855 0.22261 0.0
C111 C 0.03647 0.34839 0.04483 0.0
H112 H 0.03451 0.36776 0.03026 0.0
H113 H 0.03627 0.33837 0.89846 0.0
H114 H 0.26462 0.08097 0.12208 0.0
C115 C 0.2795 0.07249 0.08238 0.0
C116 C 0.30319 0.08242 0.095 0.0
C117 C 0.27575 0.05055 0.02962 0.0
H118 H 0.3412 0.0808 0.04952 0.0
C119 C 0.32277 0.07338 0.03938 0.0
C120 C 0.32001 0.0523 0.98218 0.0
C121 C 0.29664 0.04037 0.9801 0.0
C122 C 0.25059 0.03795 0.03219 0.0
H123 H 0.29523 0.02301 0.94186 0.0
C124 C 0.23266 0.04307 0.10435 0.0
C125 C 0.20928 0.03125 0.10495 0.0
C126 C 0.24403 0.02062 0.96148 0.0
H127 H 0.25623 0.01645 0.90321 0.0
C128 C 0.22128 1.00852 0.96327 0.0
H129 H 0.23663 0.05575 0.16179 0.0
C130 C 0.20413 1.01368 0.03417 0.0
H131 H 0.18644 1.00435 0.03218 0.0
H132 H 0.21674 0.99523 0.90819 0.0
H133 H 0.48295 0.27432 0.16832 0.0
C134 C 0.48672 0.28533 0.10804 0.0
C135 C 0.48275 0.31073 0.11726 0.0
C136 C 0.49543 0.27459 0.02284 0.0
H137 H 0.48465 0.34545 0.04968 0.0
C138 C 0.48657 0.32568 0.04031 0.0
C139 C 0.49475 0.31613 0.95402 0.0
C140 C 0.49982 0.29058 0.94622 0.0
C141 C 0.49985 0.24698 0.01457 0.0
H142 H 0.50733 0.28349 0.88074 0.0
C143 C 0.50345 0.23204 0.09448 0.0
C144 C 0.50698 0.20611 0.08575 0.0
C145 C 0.49987 0.23508 0.92575 0.0
H146 H 0.49621 0.24499 0.86255 0.0
C147 C 0.50424 0.20987 0.9162 0.0
H148 H 0.50341 0.2404 0.1637 0.0
C149 C 0.50795 0.19559 0.99467 0.0
H150 H 0.51175 0.17621 0.98299 0.0
H151 H 0.5046 0.20125 0.84699 0.0
Gd152 Gd 1.0051 0.03054 0.57204 0.0
Gd153 Gd 0.04913 1.01161 0.74006 0.0
C154 C 0.04834 0.03266 0.0514 0.0
C155 C 0.06711 0.07317 0.05333 0.0
C156 C 0.06203 0.05026 0.90566 0.0
C157 C 0.0509 0.03127 0.95298 0.0
C158 C 0.07102 0.07105 0.95614 0.0
C159 C 0.0557 0.05406 0.10083 0.0
C160 C 0.03971 1.01199 0.09782 0.0
C161 C 0.03534 0.99015 0.04697 0.0
N162 N 0.04479 1.01047 0.90393 0.0
C163 C 0.03861 0.98953 0.94973 0.0
H164 H 0.03537 0.9726 0.91038 0.0
C165 C 0.08119 0.06341 0.76688 0.0
N166 N 0.06614 0.04736 0.81195 0.0
C167 C 0.09044 0.08431 0.814 0.0
C168 C 0.08482 0.08848 0.90843 0.0
H169 H 0.08569 0.0608 0.69394 0.0
H170 H 0.05367 0.05555 0.17632 0.0
H171 H 0.0465 1.01016 0.40695 0.0
H172 H 0.03739 1.01243 0.17321 0.0
H173 H 0.02954 0.9738 0.08261 0.0
H174 H 0.07374 0.08908 0.09301 0.0
H175 H 0.94422 0.0286 0.63416 0.0
H176 H 1.01673 0.94796 0.26163 0.0
H177 H 0.05068 0.97753 0.28882 0.0
H178 H 0.93567 0.94036 0.38954 0.0
H179 H 0.10173 0.09732 0.77708 0.0
H180 H 0.092 0.10471 0.9446 0.0
H181 H 0.97398 0.93437 0.29937 0.0
H182 H 0.90843 1.0016 0.61232 0.0
N183 N 1.01093 0.99907 0.45512 0.0
C184 C 1.01486 0.96223 0.31562 0.0
C185 C 0.03403 0.97884 0.33081 0.0
C186 C 0.99328 0.96456 0.36882 0.0
C187 C 0.99176 0.98343 0.43874 0.0
C188 C 0.03161 0.99738 0.39982 0.0
N189 N 0.96896 1.00576 0.55319 0.0
C190 C 0.97028 0.98667 0.4901 0.0
C191 C 0.92581 0.99688 0.57867 0.0
C192 C 0.9275 0.97625 0.51932 0.0
C193 C 0.94648 1.01188 0.59242 0.0
C194 C 0.94963 0.97134 0.47192 0.0
H195 H 0.91131 0.96488 0.50736 0.0
O196 O 0.9742 0.05186 0.52021 0.0
O197 O 0.03276 0.0455 0.67736 0.0
O198 O 1.01191 1.00987 0.81474 0.0
O199 O 0.98332 0.02348 0.70585 0.0
O200 O 0.99775 0.06041 0.68223 0.0
O201 O 1.00932 0.05316 0.44984 0.0
O202 O 0.07508 0.98613 0.67331 0.0
O203 O 0.02775 0.99842 0.61445 0.0
O204 O 0.04288 0.04289 0.51726 0.0
O205 O 0.07134 0.02444 0.61617 0.0
O206 O 0.02496 0.97751 0.73119 0.0
O207 O 0.08081 0.99724 0.81645 0.0
C208 C 0.01949 0.0619 0.71905 0.0
C209 C 0.95131 0.95229 0.40411 0.0
C210 C 0.97308 0.94891 0.35264 0.0
C211 C 0.98729 0.06264 0.45755 0.0
C212 C 0.98541 0.08956 0.45888 0.0
C213 C 0.96321 0.10074 0.43254 0.0
C214 C 1.00542 0.10415 0.48838 0.0
C215 C 1.0039 0.12996 0.48781 0.0
C216 C 0.96118 0.12632 0.43407 0.0
C217 C 0.98138 0.14086 0.46045 0.0
C218 C 0.98901 1.01538 0.7898 0.0
C219 C 0.01923 0.97813 0.64337 0.0
C220 C 0.08783 0.98259 0.7485 0.0
C221 C 0.09217 0.95685 0.77276 0.0
C222 C 0.11532 0.94955 0.80617 0.0
C223 C 0.07285 0.93975 0.7675 0.0
C224 C 0.07577 0.91588 0.80106 0.0
C225 C 0.11888 0.9255 0.83577 0.0
C226 C 0.09921 0.90883 0.83456 0.0
C227 C 0.06584 0.03641 0.53949 0.0
H228 H 0.9475 0.08969 0.41063 0.0
H229 H 0.0223 0.09526 0.50982 0.0
H230 H 0.94407 0.13492 0.41275 0.0
H231 H 0.97947 0.16061 0.45559 0.0
H232 H 0.13049 0.96251 0.81051 0.0
H233 H 0.05531 0.94517 0.73912 0.0
H234 H 0.13674 0.91996 0.86241 0.0
H235 H 0.10224 0.89081 0.86305 0.0
Gd236 Gd 0.5135 1.01137 0.54201 0.0
Gd237 Gd 0.5364 0.0452 0.74452 0.0
C238 C 0.5137 0.03706 0.05181 0.0
C239 C 0.47667 0.0623 0.06209 0.0
C240 C 0.49913 0.05808 0.91472 0.0
C241 C 0.51585 0.04257 0.95596 0.0
C242 C 0.4801 0.06915 0.9688 0.0
C243 C 0.49339 0.04613 0.10349 0.0
C244 C 0.53267 0.02374 0.09395 0.0
C245 C 0.55364 0.01728 0.04186 0.0
N246 N 0.5355 0.03471 0.90452 0.0
C247 C 0.55493 0.02324 0.94718 0.0
H248 H 0.57108 0.01784 0.90684 0.0
C249 C 0.48932 0.08258 0.78572 0.0
N250 N 0.50289 0.06415 0.82418 0.0
C251 C 0.47109 0.09494 0.83806 0.0
C252 C 0.4661 0.08787 0.92939 0.0
H253 H 0.49247 0.08814 0.71493 0.0
H254 H 0.4912 0.04182 0.17677 0.0
H255 H 0.5446 0.05069 0.39666 0.0
H256 H 0.5317 0.01913 0.16729 0.0
H257 H 0.56874 1.00752 0.07427 0.0
H258 H 0.46174 0.07015 0.10381 0.0
H259 H 0.49577 0.95284 0.5552 0.0
H260 H 0.5972 1.00936 0.23756 0.0
H261 H 0.57711 0.04888 0.28014 0.0
H262 H 0.58155 0.92621 0.31897 0.0
H263 H 0.46096 0.10997 0.80778 0.0
H264 H 0.45207 0.09758 0.97005 0.0
H265 H 0.59862 0.96372 0.25219 0.0
H266 H 0.51115 0.91115 0.512 0.0
N267 N 0.54537 1.01217 0.42587 0.0
C268 C 0.5827 1.0099 0.28998 0.0
C269 C 0.57135 0.03219 0.31361 0.0
C270 C 0.57459 0.98845 0.33183 0.0
C271 C 0.55564 0.99016 0.40005 0.0
C272 C 0.55256 0.033 0.38092 0.0
N273 N 0.52624 0.97123 0.49489 0.0
C274 C 0.54592 0.96904 0.43664 0.0
C275 C 0.52136 0.92724 0.4914 0.0
C276 C 0.54278 0.92465 0.43766 0.0
C277 C 0.51294 0.95079 0.51703 0.0
C278 C 0.55481 0.94566 0.40662 0.0
H279 H 0.54922 0.90642 0.417 0.0
O280 O 0.48892 0.99171 0.44522 0.0
O281 O 0.50173 0.03348 0.67052 0.0
O282 O 0.53099 1.00606 0.79387 0.0
O283 O 0.5233 0.98351 0.6555 0.0
O284 O 0.48476 0.99969 0.64616 0.0
O285 O 0.48463 0.03063 0.46723 0.0
O286 O 0.54753 0.08376 0.74148 0.0
O287 O 0.54653 0.03013 0.60166 0.0
O288 O 0.51298 0.0513 0.50197 0.0
O289 O 0.52755 0.07303 0.63307 0.0
O290 O 0.56993 0.0215 0.70785 0.0
O291 O 0.57037 0.05746 0.81051 0.0
C292 C 0.48496 0.0191 0.69992 0.0
C293 C 0.57448 0.94398 0.34267 0.0
C294 C 0.58419 0.96534 0.30468 0.0
C295 C 0.47447 1.01051 0.43559 0.0
C296 C 0.44832 1.00753 0.4616 0.0
C297 C 0.44057 0.98778 0.51592 0.0
C298 C 0.43167 0.02654 0.44279 0.0
C299 C 0.40778 0.02698 0.48233 0.0
C300 C 0.41681 0.9876 0.55349 0.0
C301 C 0.40061 1.00708 0.53788 0.0
C302 C 0.5278 0.98491 0.74732 0.0
C303 C 0.56703 0.01969 0.61837 0.0
C304 C 0.56919 0.07939 0.77694 0.0
C305 C 0.59106 0.08721 0.72287 0.0
C306 C 0.58942 0.10546 0.65521 0.0
C307 C 0.61368 0.07506 0.73517 0.0
C308 C 0.63405 0.07937 0.67654 0.0
C309 C 0.60983 0.11067 0.59894 0.0
C310 C 0.63197 0.09762 0.60885 0.0
C311 C 0.51904 0.07208 0.54609 0.0
H312 H 0.45306 0.97286 0.53195 0.0
H313 H 0.43779 0.04113 0.39818 0.0
H314 H 0.41109 0.97256 0.59669 0.0
H315 H 0.38265 1.0065 0.57098 0.0
H316 H 0.57238 0.11546 0.64491 0.0
H317 H 0.61529 0.06207 0.7911 0.0
H318 H 0.60833 0.12457 0.54626 0.0
H319 H 0.64719 0.10151 0.5623 0.0
Gd320 Gd 0.50409 0.53445 0.75523 0.0
Gd321 Gd 0.549 0.52186 0.57144 0.0
C322 C 0.62791 0.50458 0.67479 0.0
C323 C 0.65161 0.53713 0.60477 0.0
C324 C 0.60697 0.53487 0.58126 0.0
C325 C 0.60593 0.51378 0.63407 0.0
C326 C 0.62996 0.54638 0.56462 0.0
C327 C 0.65057 0.51637 0.66001 0.0
C328 C 0.6266 0.48401 0.73088 0.0
C329 C 0.60381 0.47336 0.7475 0.0
N330 N 0.5836 0.50279 0.64838 0.0
C331 C 0.58255 0.48308 0.707 0.0
H332 H 0.56552 0.47531 0.73001 0.0
C333 C 0.58683 0.56265 0.48203 0.0
N334 N 0.58576 0.54393 0.54449 0.0
C335 C 0.60908 0.57456 0.4637 0.0
C336 C 0.63071 0.56663 0.50631 0.0
H337 H 0.57043 0.56861 0.44567 0.0
H338 H 0.66746 0.50951 0.69102 0.0
H339 H 0.46844 0.57339 0.63075 0.0
H340 H 0.643 0.47659 0.76359 0.0
H341 H 0.60246 0.45798 0.79395 0.0
H342 H 0.66931 0.54585 0.59306 0.0
H343 H 0.50209 0.49333 0.92483 0.0
H344 H 0.39521 0.54488 0.61443 0.0
H345 H 0.42598 0.57637 0.57352 0.0
H346 H 0.39692 0.47829 0.82736 0.0
H347 H 0.60958 0.58965 0.41577 0.0
H348 H 0.64799 0.57582 0.49165 0.0
H349 H 0.38459 0.50797 0.70848 0.0
H350 H 0.47197 0.46623 1.00022 0.0
N351 N 0.46285 0.53979 0.70183 0.0
C352 C 0.41403 0.54334 0.63973 0.0
C353 C 0.43131 0.56119 0.61691 0.0
C354 C 0.42098 0.5244 0.69869 0.0
C355 C 0.44581 0.52316 0.72907 0.0
C356 C 0.4556 0.55935 0.64995 0.0
N357 N 0.47646 0.50649 0.82422 0.0
C358 C 0.45277 0.50616 0.79375 0.0
C359 C 0.46636 0.47713 0.94141 0.0
C360 C 0.44222 0.47562 0.9071 0.0
C361 C 0.48334 0.49259 0.89871 0.0
C362 C 0.4351 0.49032 0.8327 0.0
H363 H 0.42911 0.4635 0.93993 0.0
O364 O 0.50318 0.54103 0.90562 0.0
O365 O 0.54433 0.53586 0.71751 0.0
O366 O 0.53703 0.48448 0.62075 0.0
O367 O 0.50455 0.49254 0.72628 0.0
O368 O 0.53545 0.51882 0.84013 0.0
O369 O 0.49896 0.57151 0.81455 0.0
O370 O 0.54252 0.5326 0.42769 0.0
O371 O 0.50956 0.53235 0.60161 0.0
O372 O 0.50958 0.57007 0.67668 0.0
O373 O 0.54523 0.56379 0.58771 0.0
O374 O 0.51479 0.50277 0.5127 0.0
O375 O 0.56775 0.5026 0.45735 0.0
C376 C 0.5534 0.52645 0.78998 0.0
C377 C 0.41068 0.49054 0.79926 0.0
C378 C 0.40366 0.50745 0.73171 0.0
C379 C 0.50463 0.56463 0.89849 0.0
C380 C 0.52659 0.57589 0.94359 0.0
C381 C 0.53626 0.5657 0.02548 0.0
C382 C 0.53942 0.59512 0.90109 0.0
C383 C 0.56127 0.60468 0.94117 0.0
C384 C 0.55837 0.57439 0.06361 0.0
C385 C 0.57077 0.59377 0.02228 0.0
C386 C 0.51937 0.47711 0.67854 0.0
C387 C 0.49824 0.5171 0.54878 0.0
C388 C 0.55532 0.51411 0.39313 0.0
C389 C 0.54231 0.4984 0.32375 0.0
C390 C 0.53699 0.50721 0.23454 0.0
C391 C 0.53348 0.47521 0.34905 0.0
C392 C 0.51885 0.46104 0.2873 0.0
C393 C 0.52283 0.49304 0.17169 0.0
C394 C 0.51369 0.47015 0.19782 0.0
C395 C 0.52774 0.57842 0.6236 0.0
H396 H 0.52694 0.55067 0.05912 0.0
H397 H 0.53232 0.60281 0.83714 0.0
H398 H 0.56569 0.56639 0.12656 0.0
H399 H 0.58719 0.60086 0.05678 0.0
H400 H 0.54355 0.52511 0.21402 0.0
H401 H 0.53736 0.4685 0.41837 0.0
H402 H 0.5188 0.49987 0.10272 0.0
H403 H 0.50295 0.45947 0.14742 0.0
Gd404 Gd 0.0219 0.50082 0.75397 0.0
Gd405 Gd 0.03458 0.54302 0.56739 0.0
C406 C 0.03261 0.62737 0.59523 0.0
C407 C 1.00141 0.63792 0.48046 0.0
C408 C 1.01219 0.59506 0.50524 0.0
C409 C 0.02919 0.60214 0.57266 0.0
C410 C 0.99848 0.61287 0.4568 0.0
C411 C 1.01837 0.64515 0.54988 0.0
C412 C 0.05059 0.63404 0.66135 0.0
C413 C 0.06512 0.61585 0.70107 0.0
N414 N 0.04291 0.58447 0.61402 0.0
C415 C 0.0613 0.59115 0.67552 0.0
H416 H 0.07268 0.57771 0.70874 0.0
C417 C 0.99497 0.56307 0.41137 0.0
N418 N 1.00982 0.57077 0.484 0.0
C419 C 0.98127 0.58002 0.36064 0.0
C420 C 0.98276 0.60503 0.38423 0.0
H421 H 0.99357 0.54371 0.39298 0.0
H422 H 0.02071 0.66456 0.56658 0.0
H423 H 0.98255 0.46703 0.61672 0.0
H424 H 0.05367 0.65317 0.68108 0.0
H425 H 0.07925 0.62082 0.75179 0.0
H426 H 0.99096 0.65185 0.44443 0.0
H427 H 0.06307 0.4989 0.92793 0.0
H428 H 1.00446 0.39176 0.6236 0.0
H429 H 0.9767 0.42421 0.56574 0.0
H430 H 0.06944 0.39174 0.85126 0.0
H431 H 0.96951 0.57378 0.30355 0.0
H432 H 0.97206 0.61813 0.34494 0.0
H433 H 0.03918 0.37985 0.72978 0.0
H434 H 0.08795 0.4682 0.01105 0.0
N435 N 1.01418 0.45984 0.70148 0.0
C436 C 1.00724 0.41071 0.64643 0.0
C437 C 0.99149 0.42896 0.61393 0.0
C438 C 0.02592 0.41705 0.71022 0.0
C439 C 0.02893 0.44207 0.73696 0.0
C440 C 0.99493 0.45342 0.64364 0.0
N441 N 0.04798 0.4728 0.83015 0.0
C442 C 0.04628 0.44875 0.80377 0.0
C443 C 0.07667 0.4625 0.95178 0.0
C444 C 0.07621 0.43788 0.92179 0.0
C445 C 0.06244 0.4798 0.90492 0.0
C446 C 0.06069 0.43066 0.84766 0.0
H447 H 0.08734 0.42451 0.95802 0.0
O448 O 1.0147 0.50153 0.90294 0.0
O449 O 0.02124 0.54035 0.71396 0.0
O450 O 0.06916 0.53727 0.65793 0.0
O451 O 0.06378 0.5003 0.73377 0.0
O452 O 0.03591 0.53303 0.84308 0.0
O453 O 0.98458 0.49504 0.80547 0.0
O454 O 0.04274 0.54024 0.41891 0.0
O455 O 0.03481 0.50347 0.60723 0.0
O456 O 0.98675 0.508 0.66715 0.0
O457 O 0.99289 0.54449 0.58843 0.0
O458 O 1.01884 0.51113 0.48073 0.0
O459 O 0.07254 0.5455 0.51843 0.0
C460 C 0.02993 0.55044 0.78795 0.0
C461 C 0.0584 0.40588 0.81891 0.0
C462 C 0.04114 0.3991 0.74991 0.0
C463 C 0.9909 0.5003 0.89196 0.0
C464 C 0.9768 0.51954 0.94312 0.0
C465 C 0.9822 0.52421 0.03803 0.0
C466 C 0.95861 0.53367 0.89864 0.0
C467 C 0.94507 0.55166 0.94966 0.0
C468 C 0.96956 0.54252 0.08826 0.0
C469 C 0.95098 0.55597 0.04513 0.0
C470 C 0.07809 0.51848 0.70567 0.0
C471 C 0.02538 0.49356 0.53424 0.0
C472 C 0.06637 0.53824 0.43373 0.0
C473 C 0.07797 0.51531 0.39673 0.0
C474 C 0.06707 0.50222 0.32125 0.0
C475 C 0.09903 0.50548 0.44006 0.0
C476 C 0.10981 0.48336 0.40643 0.0
C477 C 0.07695 0.47978 0.29011 0.0
C478 C 0.0982 0.47045 0.33168 0.0
C479 C 0.97824 0.52678 0.61806 0.0
H480 H 0.99628 0.51365 0.07338 0.0
H481 H 0.95472 0.53039 0.82496 0.0
H482 H 0.97373 0.54587 0.16163 0.0
H483 H 0.94059 0.56894 0.08846 0.0
H484 H 0.0507 0.50916 0.28688 0.0
H485 H 0.10724 0.51527 0.49925 0.0
H486 H 0.06843 0.46986 0.23194 0.0
H487 H 0.10609 0.45371 0.30179 0.0
H488 H 0.18339 1.00017 0.21969 0.0
H489 H 0.18961 0.07681 0.14747 0.0
H490 H 0.15338 0.0869 0.24826 0.0
H491 H 0.11749 0.99695 0.22709 0.0
H492 H 0.11635 0.97723 0.3266 0.0
H493 H 0.14273 0.97616 0.2495 0.0
H494 H 0.17187 0.98511 0.39039 0.0
H495 H 0.14558 0.98597 0.46795 0.0
H496 H 0.16635 1.01182 0.46498 0.0
H497 H 0.11321 0.08761 0.34828 0.0
H498 H 0.07776 0.07985 0.45463 0.0
H499 H 0.10043 1.00369 0.47287 0.0
C500 C 0.17732 0.01914 0.22609 0.0
C501 C 0.18949 0.03774 0.17563 0.0
C502 C 0.18085 0.06231 0.18602 0.0
C503 C 0.16011 0.06815 0.24264 0.0
C504 C 0.14829 0.04932 0.29026 0.0
C505 C 0.15698 0.02537 0.284 0.0
C506 C 0.14147 1.00858 0.34398 0.0
C507 C 0.12877 0.98855 0.28314 0.0
C508 C 0.15726 0.9972 0.42142 0.0
C509 C 0.12264 0.02669 0.38479 0.0
C510 C 0.1265 0.05005 0.35168 0.0
C511 C 0.11039 0.06944 0.37564 0.0
C512 C 0.09021 0.0649 0.43576 0.0
C513 C 0.08655 0.04132 0.47321 0.0
C514 C 0.10305 0.02206 0.44689 0.0
H515 H 0.49486 0.15642 0.10147 0.0
H516 H 0.52535 0.21802 0.26387 0.0
H517 H 0.52938 0.19133 0.3997 0.0
H518 H 0.46218 0.12706 0.28249 0.0
H519 H 0.47058 0.09616 0.24655 0.0
H520 H 0.46843 0.11984 0.16072 0.0
H521 H 0.51274 0.11097 0.1067 0.0
H522 H 0.51652 0.08738 0.19207 0.0
H523 H 0.53784 0.11267 0.18983 0.0
H524 H 0.52978 0.15741 0.52077 0.0
H525 H 0.52971 0.1191 0.60989 0.0
H526 H 0.50372 0.07873 0.36293 0.0
C527 C 0.50275 0.16454 0.16456 0.0
C528 C 0.50957 0.18985 0.17004 0.0
C529 C 0.51926 0.19914 0.25651 0.0
C530 C 0.52187 0.18396 0.33457 0.0
C531 C 0.51514 0.15924 0.32577 0.0
C532 C 0.50608 0.14954 0.2424 0.0
C533 C 0.5015 0.12205 0.24935 0.0
C534 C 0.47404 0.11593 0.23379 0.0
C535 C 0.51812 0.10742 0.18031 0.0
C536 C 0.50912 0.11781 0.35008 0.0
C537 C 0.51672 0.13954 0.39329 0.0
C538 C 0.52415 0.14028 0.48695 0.0
C539 C 0.52416 0.1183 0.53708 0.0
C540 C 0.51724 0.09558 0.49359 0.0
C541 C 0.50935 0.0956 0.39873 0.0
H542 H 0.37518 0.48434 0.2522 0.0
H543 H 0.37841 0.55829 0.14702 0.0
H544 H 0.41344 0.56779 0.2533 0.0
H545 H 0.39291 0.50057 0.49942 0.0
H546 H 0.41141 0.47324 0.51209 0.0
H547 H 0.38495 0.47272 0.43516 0.0
H548 H 0.41267 0.45781 0.29664 0.0
H549 H 0.43909 0.45802 0.37356 0.0
H550 H 0.43976 0.47528 0.26739 0.0
H551 H 0.45104 0.56806 0.35866 0.0
H552 H 0.48672 0.55972 0.46204 0.0
H553 H 0.45973 0.48585 0.50315 0.0
C554 C 0.38278 0.50275 0.25407 0.0
C555 C 0.3736 0.52083 0.19282 0.0
C556 C 0.38473 0.54439 0.19464 0.0
C557 C 0.40475 0.5499 0.25455 0.0
C558 C 0.41369 0.53164 0.31281 0.0
C559 C 0.40295 0.50858 0.31387 0.0
C560 C 0.41712 0.49194 0.37974 0.0
C561 C 0.40061 0.48415 0.46143 0.0
C562 C 0.42779 0.46943 0.32613 0.0
C563 C 0.43764 0.50907 0.41414 0.0
C564 C 0.43525 0.53192 0.37468 0.0
C565 C 0.45271 0.55041 0.39149 0.0
C566 C 0.4729 0.54556 0.45064 0.0
C567 C 0.47546 0.52254 0.49394 0.0
C568 C 0.45774 0.50395 0.47394 0.0
H569 H 1.00896 0.38204 0.15891 0.0
H570 H 0.06851 0.34321 0.29547 0.0
H571 H 0.07161 0.37727 0.41397 0.0
H572 H 0.03357 0.44186 0.18653 0.0
H573 H 1.00439 0.45701 0.20898 0.0
H574 H 1.00546 0.42905 0.13869 0.0
H575 H 0.97429 0.40821 0.2484 0.0
H576 H 0.97238 0.43623 0.31823 0.0
H577 H 0.98043 0.40773 0.37255 0.0
H578 H 0.07003 0.41864 0.51282 0.0
H579 H 0.06146 0.45985 0.58529 0.0
H580 H 1.0023 0.47052 0.38585 0.0
C581 C 0.0226 0.3805 0.21397 0.0
C582 C 0.03852 0.35963 0.21686 0.0
C583 C 0.05586 0.35863 0.29144 0.0
C584 C 0.05789 0.3781 0.35892 0.0
C585 C 0.0423 0.39861 0.35235 0.0
C586 C 0.02474 0.39967 0.28212 0.0
C587 C 1.0102 0.42365 0.28941 0.0
C588 C 1.01361 0.43879 0.20067 0.0
C589 C 0.9827 0.41865 0.30826 0.0
C590 C 0.02238 0.43616 0.37394 0.0
C591 C 0.04095 0.42156 0.40952 0.0
C592 C 0.0552 0.42987 0.48597 0.0
C593 C 0.05013 0.45331 0.52732 0.0
C594 C 0.03066 0.46823 0.49361 0.0
C595 C 1.01695 0.45943 0.41492 0.0
H596 H 0.85741 0.0402 0.04848 0.0
H597 H 0.8788 0.98457 0.24504 0.0
H598 H 0.91729 0.97671 0.1552 0.0
H599 H 0.88357 1.00964 0.83504 0.0
H600 H 0.89416 0.03807 0.78679 0.0
H601 H 0.86729 0.03797 0.8616 0.0
H602 H 0.88767 0.07085 0.97067 0.0
H603 H 0.91463 0.07093 0.89655 0.0
H604 H 0.91778 0.06491 0.0196 0.0
H605 H 0.95479 0.97645 0.04928 0.0
H606 H 0.98773 0.98282 0.93309 0.0
H607 H 0.94344 0.03935 0.80423 0.0
C608 C 0.8699 0.02587 0.07075 0.0
C609 C 0.86476 1.01251 0.15276 0.0
C610 C 0.88206 0.99461 0.18161 0.0
C611 C 0.90405 0.99013 0.13114 0.0
C612 C 0.9088 1.0038 0.0516 0.0
C613 C 0.89217 0.02125 0.02106 0.0
C614 C 0.9025 0.03418 0.93583 0.0
C615 C 0.88588 0.02969 0.84971 0.0
C616 C 0.90583 0.06186 0.95695 0.0
C617 C 0.92743 0.02133 0.92343 0.0
C618 C 0.93065 1.00389 0.99121 0.0
C619 C 0.95237 0.99004 0.99591 0.0
C620 C 0.9712 0.99399 0.92987 0.0
C621 C 0.96853 1.01171 0.85931 0.0
C622 C 0.94613 0.02547 0.85634 0.0
H623 H 0.55028 0.89747 0.18848 0.0
H624 H 0.51136 0.83982 0.03273 0.0
H625 H 0.50665 0.86762 0.89977 0.0
H626 H 0.51184 0.94769 0.10897 0.0
H627 H 0.53733 0.96893 0.1063 0.0
H628 H 0.53771 0.94405 0.18701 0.0
H629 H 0.58019 0.92999 0.1183 0.0
H630 H 0.57921 0.95478 0.037 0.0
H631 H 0.58286 0.92348 0.99421 0.0
H632 H 0.50454 0.90246 0.78523 0.0
H633 H 0.50607 0.94069 0.69804 0.0
H634 H 0.54722 0.97569 0.9243 0.0
C635 C 0.54063 0.8906 0.12676 0.0
C636 C 0.53127 0.86615 0.12194 0.0
C637 C 0.51911 0.85814 0.03856 0.0
C638 C 0.51616 0.87393 0.96259 0.0
C639 C 0.52542 0.89785 0.97028 0.0
C640 C 0.53745 0.90616 0.05025 0.0
C641 C 0.54532 0.93287 0.04113 0.0
C642 C 0.53227 0.94936 0.11522 0.0
C643 C 0.57358 0.93542 0.04804 0.0
C644 C 0.53609 0.9382 0.94291 0.0
C645 C 0.52453 0.91778 0.90376 0.0
C646 C 0.51391 0.9184 0.81493 0.0
C647 C 0.51517 0.94031 0.76484 0.0
C648 C 0.52724 0.96154 0.80199 0.0
C649 C 0.53778 0.96019 0.89292 0.0
H650 H 0.66034 0.51005 0.17193 0.0
H651 H 0.70057 0.56953 0.04504 0.0
H652 H 0.66796 0.57247 0.92362 0.0
H653 H 0.63783 0.48159 0.95394 0.0
H654 H 0.60839 0.47353 1.00358 0.0
H655 H 0.63544 0.47543 0.07714 0.0
H656 H 0.61288 0.50658 0.18755 0.0
H657 H 0.58579 0.50514 0.1143 0.0
H658 H 0.60021 0.53436 0.14046 0.0
H659 H 0.62795 0.57089 0.8216 0.0
H660 H 0.58744 0.56245 0.74518 0.0
H661 H 0.57467 0.50336 0.93701 0.0
C662 C 0.66247 0.52364 0.11839 0.0
C663 C 0.68326 0.53958 0.11882 0.0
C664 C 0.68515 0.55687 0.04627 0.0
C665 C 0.66653 0.55881 0.9772 0.0
C666 C 0.64605 0.54318 0.9804 0.0
C667 C 0.64416 0.52571 0.04878 0.0
C668 C 0.62033 0.51117 0.03791 0.0
C669 C 0.62584 0.48381 0.01689 0.0
C670 C 0.60383 0.51452 0.12523 0.0
C671 C 0.6089 0.52329 0.95355 0.0
C672 C 0.62387 0.54179 0.92111 0.0
C673 C 0.61644 0.55609 0.84573 0.0
C674 C 0.59343 0.55109 0.80217 0.0
C675 C 0.57823 0.53166 0.83265 0.0
C676 C 0.5861 0.51795 0.91039 0.0
H677 H 0.0427 0.66032 0.17074 0.0
H678 H 0.98842 0.70219 0.01748 0.0
H679 H 0.98691 0.66885 0.89546 0.0
H680 H 0.07543 0.63423 0.96764 0.0
H681 H 0.08059 0.60515 0.02249 0.0
H682 H 0.07815 0.63295 0.09338 0.0
H683 H 0.04283 0.61334 0.18918 0.0
H684 H 0.04514 0.5856 0.11809 0.0
H685 H 1.01594 0.60149 0.12876 0.0
H686 H 0.98894 0.62757 0.79512 0.0
H687 H 0.99691 0.58593 0.72524 0.0
H688 H 0.05092 0.57256 0.94217 0.0
C689 C 0.03056 0.6627 0.1113 0.0
C690 C 1.01563 0.68419 0.10472 0.0
C691 C 1.00029 0.68626 0.02451 0.0
C692 C 0.99916 0.66721 0.95494 0.0
C693 C 1.01367 0.64605 0.96522 0.0
C694 C 0.02932 0.64395 0.04125 0.0
C695 C 0.04283 0.61937 0.03773 0.0
C696 C 0.07092 0.62316 0.02984 0.0
C697 C 0.03629 0.60405 0.12352 0.0
C698 C 0.03238 0.60778 0.94824 0.0
C699 C 1.01543 0.62326 0.90723 0.0
C700 C 1.00257 0.61566 0.82625 0.0
C701 C 1.00731 0.59196 0.7864 0.0
C702 C 0.02518 0.57613 0.82591 0.0
C703 C 0.03759 0.58433 0.90853 0.0
H704 H 0.04544 0.24798 0.3526 0.0
H705 H 0.10388 0.20651 0.21608 0.0
H706 H 0.10568 0.17873 0.3483 0.0
H707 H 0.06472 0.22318 0.62087 0.0
H708 H 0.03219 0.22383 0.64798 0.0
H709 H 0.04578 0.24832 0.5824 0.0
H710 H 1.01332 0.24112 0.45224 0.0
H711 H 0.99994 0.21683 0.51617 0.0
H712 H 1.01043 0.21089 0.39764 0.0
H713 H 0.08614 0.14633 0.426 0.0
H714 H 0.05228 0.1179 0.44661 0.0
H715 H 1.00669 0.17712 0.56048 0.0
C716 C 0.05982 0.23413 0.35512 0.0
C717 C 0.07421 0.22897 0.2747 0.0
C718 C 0.09259 0.21055 0.27729 0.0
C719 C 0.09377 0.19475 0.3528 0.0
C720 C 0.07662 0.19779 0.42545 0.0
C721 C 0.06081 0.21799 0.43033 0.0
C722 C 0.04042 0.214 0.50157 0.0
C723 C 0.04613 0.22817 0.59363 0.0
C724 C 1.01455 0.22106 0.46439 0.0
C725 C 0.0433 0.18659 0.51512 0.0
C726 C 0.0654 0.17801 0.47703 0.0
C727 C 0.06936 0.15293 0.45958 0.0
C728 C 0.04973 0.13667 0.47162 0.0
C729 C 0.02641 0.14533 0.5035 0.0
C730 C 0.02413 0.17015 0.5338 0.0
H731 H 0.28776 0.06878 0.264 0.0
H732 H 0.33464 0.12168 0.13025 0.0
H733 H 0.36155 0.123 0.26892 0.0
H734 H 0.31007 0.08237 0.53114 0.0
H735 H 0.3092 0.04961 0.54729 0.0
H736 H 0.28588 0.0642 0.47711 0.0
H737 H 0.29617 0.03374 0.34078 0.0
H738 H 0.31973 0.01966 0.40805 0.0
H739 H 0.32739 0.03222 0.29589 0.0
H740 H 0.39125 0.10638 0.37941 0.0
H741 H 0.41917 0.0755 0.44294 0.0
H742 H 0.35684 0.02656 0.48107 0.0
C743 C 0.30267 0.08201 0.26701 0.0
C744 C 0.30948 0.09469 0.186 0.0
C745 C 0.32918 0.11168 0.19158 0.0
C746 C 0.34463 0.11243 0.27048 0.0
C747 C 0.34008 0.09607 0.34255 0.0
C748 C 0.31904 0.08146 0.34248 0.0
C749 C 0.32188 0.06016 0.40841 0.0
C750 C 0.30581 0.06435 0.49621 0.0
C751 C 0.31602 0.03502 0.36021 0.0
C752 C 0.34895 0.06265 0.43259 0.0
C753 C 0.35854 0.08446 0.40074 0.0
C754 C 0.38377 0.08943 0.40555 0.0
C755 C 0.39965 0.07131 0.43939 0.0
C756 C 0.3905 0.04785 0.4637 0.0
C757 C 0.36465 0.04414 0.46409 0.0
H758 H 0.44738 0.34434 0.16067 0.0
H759 H 0.51056 0.30677 0.27474 0.0
H760 H 0.51836 0.34193 0.38166 0.0
H761 H 0.47391 0.39134 0.1139 0.0
H762 H 0.45152 0.41512 0.14102 0.0
H763 H 0.44128 0.38443 0.11679 0.0
H764 H 0.41903 0.38279 0.27744 0.0
H765 H 0.42825 0.41421 0.29992 0.0
H766 H 0.43564 0.39095 0.38323 0.0
H767 H 0.53063 0.38394 0.41662 0.0
H768 H 0.54334 0.42641 0.38932 0.0
H769 H 0.47393 0.44 0.24743 0.0
C770 C 0.46162 0.34301 0.21363 0.0
C771 C 0.4785 0.32319 0.20932 0.0
C772 C 0.49731 0.32175 0.27753 0.0
C773 C 0.50197 0.34187 0.33818 0.0
C774 C 0.48749 0.36305 0.32998 0.0
C775 C 0.46703 0.36349 0.27132 0.0
C776 C 0.45842 0.38969 0.25589 0.0
C777 C 0.45621 0.39544 0.15077 0.0
C778 C 0.43389 0.39471 0.30726 0.0
C779 C 0.47934 0.40383 0.30225 0.0
C780 C 0.49514 0.38826 0.34905 0.0
C781 C 0.5179 0.39642 0.38352 0.0
C782 C 0.52505 0.42067 0.36714 0.0
C783 C 0.50962 0.43658 0.31583 0.0
C784 C 0.4861 0.42823 0.2866 0.0
H785 H 0.23946 0.51488 0.31436 0.0
H786 H 0.24331 0.43972 0.21203 0.0
H787 H 0.21318 0.4275 0.33129 0.0
H788 H 0.21481 0.4985 0.57751 0.0
H789 H 0.19538 0.52542 0.57348 0.0
H790 H 0.22614 0.52602 0.52452 0.0
H791 H 0.20806 0.53992 0.36652 0.0
H792 H 0.17775 0.53947 0.41476 0.0
H793 H 0.18442 0.5215 0.30961 0.0
H794 H 0.17344 0.42628 0.40816 0.0
H795 H 0.12926 0.43639 0.41876 0.0
H796 H 0.14773 0.51333 0.46274 0.0
C797 C 0.23513 0.49564 0.32284 0.0
C798 C 0.2438 0.4781 0.25664 0.0
C799 C 0.23721 0.45319 0.26437 0.0
C800 C 0.22011 0.44616 0.3323 0.0
C801 C 0.2097 0.46432 0.39128 0.0
C802 C 0.21747 0.48866 0.38878 0.0
C803 C 0.19919 0.50567 0.43864 0.0
C804 C 0.2095 0.5144 0.53419 0.0
C805 C 0.19191 0.52785 0.37861 0.0
C806 C 0.17797 0.48799 0.45211 0.0
C807 C 0.18513 0.46393 0.43242 0.0
C808 C 0.16781 0.44497 0.42541 0.0
C809 C 0.14262 0.45096 0.43008 0.0
C810 C 0.13494 0.47583 0.43818 0.0
C811 C 0.15288 0.49414 0.45715 0.0
H812 H 0.02225 0.79768 0.99516 0.0
H813 H 0.96091 0.84294 0.09038 0.0
H814 H 0.96956 0.87231 0.96638 0.0
H815 H 0.06167 0.83762 0.98308 0.0
H816 H 0.07839 0.82939 0.87751 0.0
H817 H 0.06143 0.80637 0.93717 0.0
H818 H 0.03597 0.79589 0.78802 0.0
H819 H 0.05362 0.81839 0.72578 0.0
H820 H 0.02033 0.82009 0.72716 0.0
H821 H 0.99374 0.90282 0.88624 0.0
H822 H 0.02778 0.92944 0.84136 0.0
H823 H 0.07409 0.86525 0.78728 0.0
C824 C 1.00955 0.8128 0.98483 0.0
C825 C 0.991 0.81817 0.05179 0.0
C826 C 0.97514 0.83852 0.03914 0.0
C827 C 0.97997 0.85531 0.96876 0.0
C828 C 1.00038 0.85114 0.91061 0.0
C829 C 1.0144 0.82981 0.91512 0.0
C830 C 0.0381 0.83198 0.85893 0.0
C831 C 0.06121 0.82602 0.91779 0.0
C832 C 0.03692 0.81561 0.76966 0.0
C833 C 0.03697 0.85889 0.83477 0.0
C834 C 1.01464 0.86932 0.86174 0.0
C835 C 1.01087 0.89467 0.86122 0.0
C836 C 0.0305 0.90974 0.83519 0.0
C837 C 0.05386 0.89952 0.81037 0.0
C838 C 0.05658 0.87367 0.80618 0.0
H839 H 0.70204 0.99605 0.01188 0.0
H840 H 0.76302 0.0472 0.9883 0.0
H841 H 0.7472 0.06012 0.83637 0.0
H842 H 0.69118 0.98336 0.74991 0.0
H843 H 0.65813 0.98371 0.77005 0.0
H844 H 0.67879 0.97276 0.85873 0.0
H845 H 0.65933 1.00383 0.97746 0.0
H846 H 0.63918 1.01516 0.88867 0.0
H847 H 0.6593 0.03614 0.95173 0.0
H848 H 0.71911 0.07706 0.72153 0.0
H849 H 0.68192 0.09558 0.65493 0.0
H850 H 0.63936 0.03172 0.73387 0.0
C851 C 0.71252 1.00932 0.97293 0.0
C852 C 0.73386 0.02039 0.0118 0.0
C853 C 0.74696 0.03791 0.95932 0.0
C854 C 0.73805 0.04545 0.87261 0.0
C855 C 0.71609 0.03527 0.83882 0.0
C856 C 0.70362 0.01732 0.88693 0.0
C857 C 0.67822 1.01275 0.84596 0.0
C858 C 0.67649 0.9866 0.80338 0.0
C859 C 0.65784 0.01727 0.92034 0.0
C860 C 0.67767 0.03216 0.77146 0.0
C861 C 0.69985 0.04472 0.76755 0.0
C862 C 0.70195 0.06686 0.72083 0.0
C863 C 0.6806 0.0773 0.68275 0.0
C864 C 0.65746 0.06544 0.69087 0.0
C865 C 0.65663 0.04162 0.72857 0.0
H866 H 0.54049 0.73689 0.01127 0.0
H867 H 0.61351 0.73439 0.13135 0.0
H868 H 0.62565 0.70219 0.01625 0.0
H869 H 0.52826 0.6837 0.01753 0.0
H870 H 0.51223 0.67719 0.90874 0.0
H871 H 0.51361 0.70799 0.95341 0.0
H872 H 0.53313 0.72192 0.79819 0.0
H873 H 0.5318 0.69066 0.75275 0.0
H874 H 0.56071 0.70704 0.75378 0.0
H875 H 0.62463 0.66162 0.94505 0.0
H876 H 0.61031 0.61881 0.93857 0.0
H877 H 0.53645 0.64396 0.87219 0.0
C878 C 0.55951 0.7307 1.00735 0.0
C879 C 0.57626 0.73817 0.07773 0.0
C880 C 0.60072 0.7292 0.07589 0.0
C881 C 0.6077 0.71087 0.01039 0.0
C882 C 0.5899 0.70158 0.94794 0.0
C883 C 0.5663 0.71173 0.94404 0.0
C884 C 0.54867 0.69458 0.89179 0.0
C885 C 0.52435 0.69061 0.94636 0.0
C886 C 0.54327 0.70412 0.79331 0.0
C887 C 0.5645 0.67158 0.8851 0.0
C888 C 0.58879 0.67657 0.9097 0.0
C889 C 0.60582 0.65765 0.92384 0.0
C890 C 0.59742 0.6333 0.92137 0.0
C891 C 0.57202 0.6281 0.90791 0.0
C892 C 0.55598 0.64731 0.88189 0.0
H893 H 0.83422 0.60704 0.13706 0.0
H894 H 0.79814 0.54715 0.98819 0.0
H895 H 0.82831 0.54987 0.86062 0.0
H896 H 0.86665 0.63568 0.90262 0.0
H897 H 0.89319 0.64282 0.97459 0.0
H898 H 0.86242 0.64667 0.02176 0.0
H899 H 0.87427 0.61902 0.15946 0.0
H900 H 0.90456 0.61483 0.1129 0.0
H901 H 0.88569 0.58827 0.13498 0.0
H902 H 0.86938 0.54388 0.80214 0.0
H903 H 0.91249 0.53183 0.81948 0.0
H904 H 0.92618 0.59759 0.98927 0.0
C905 C 0.83191 0.59583 0.07393 0.0
C906 C 0.81424 0.57685 0.07205 0.0
C907 C 0.81149 0.56198 0.99034 0.0
C908 C 0.82869 0.56344 0.91739 0.0
C909 C 0.84827 0.58006 0.92691 0.0
C910 C 0.8494 0.59688 1.00171 0.0
C911 C 0.87486 0.6084 0.00924 0.0
C912 C 0.87423 0.63496 0.97495 0.0
C913 C 0.88543 0.60748 0.10994 0.0
C914 C 0.88898 0.5919 0.94074 0.0
C915 C 0.87309 0.57678 0.88944 0.0
C916 C 0.88191 0.55619 0.83917 0.0
C917 C 0.90675 0.54942 0.84943 0.0
C918 C 0.92266 0.56338 0.90888 0.0
C919 C 0.91418 0.5862 0.94595 0.0
H920 H 0.02064 0.18318 0.05933 0.0
H921 H 0.0625 0.22028 0.84645 0.0
H922 H 0.06107 0.18238 0.74551 0.0
H923 H 0.04847 0.12536 0.03427 0.0
H924 H 0.02094 0.1072 0.04926 0.0
H925 H 0.02303 0.1375 0.10272 0.0
H926 H 0.98331 0.15153 0.01946 0.0
H927 H 0.98011 0.12104 0.96847 0.0
H928 H 0.98062 0.14736 0.89415 0.0
H929 H 0.05925 0.13769 0.67618 0.0
H930 H 0.05044 0.09419 0.63165 0.0
H931 H 1.00715 0.08681 0.88437 0.0
C932 C 0.029 0.18356 0.99043 0.0
C933 C 0.04156 0.20505 0.96095 0.0
C934 C 0.05245 0.20443 0.87053 0.0
C935 C 0.05197 0.18277 0.8131 0.0
C936 C 0.04023 0.16169 0.846 0.0
C937 C 0.02833 0.1622 0.9317 0.0
C938 C 1.01681 0.13722 0.9509 0.0
C939 C 0.02797 0.12616 0.03957 0.0
C940 C 0.98853 0.13942 0.95869 0.0
C941 C 0.0243 0.12233 0.86346 0.0
C942 C 0.03811 0.13668 0.80429 0.0
C943 C 0.04795 0.12661 0.72118 0.0
C944 C 0.04292 0.10176 0.69647 0.0
C945 C 0.02814 0.08684 0.75423 0.0
C946 C 1.01873 0.09751 0.83892 0.0
H947 H 0.35079 0.07309 0.85209 0.0
H948 H 0.34273 1.00849 0.02054 0.0
H949 H 0.38525 0.99531 0.97664 0.0
H950 H 0.38466 0.04307 0.66577 0.0
H951 H 0.40543 0.06826 0.64298 0.0
H952 H 0.37469 0.0742 0.68694 0.0
H953 H 0.39003 0.09807 0.82975 0.0
H954 H 0.42087 0.09488 0.78486 0.0
H955 H 0.41367 0.08531 0.90255 0.0
H956 H 0.4301 0.99081 0.92259 0.0
H957 H 0.47044 0.9908 0.84136 0.0
H958 H 0.44911 0.05658 0.69635 0.0
C959 C 0.35777 0.05582 0.87773 0.0
C960 C 0.34314 0.04159 0.93867 0.0
C961 C 0.35322 0.01939 0.97216 0.0
C962 C 0.37756 1.01197 0.94853 0.0
C963 C 0.39172 0.0268 0.89044 0.0
C964 C 0.38191 0.04794 0.85359 0.0
C965 C 0.4007 0.06029 0.79083 0.0
C966 C 0.39081 0.06152 0.69048 0.0
C967 C 0.40677 0.08616 0.82946 0.0
C968 C 0.42283 0.04278 0.79751 0.0
C969 C 0.41728 0.02389 0.85723 0.0
C970 C 0.43455 1.0055 0.87572 0.0
C971 C 0.45761 1.00578 0.82983 0.0
C972 C 0.46363 0.02419 0.7652 0.0
C973 C 0.44579 0.04297 0.74892 0.0
H974 H 0.46538 0.35493 0.90428 0.0
H975 H 0.53507 0.31936 0.83502 0.0
H976 H 0.54639 0.35493 0.73849 0.0
H977 H 0.45711 0.38922 0.67896 0.0
H978 H 0.44455 0.41559 0.74181 0.0
H979 H 0.43961 0.38509 0.78491 0.0
H980 H 0.45882 0.39809 0.94506 0.0
H981 H 0.46269 0.4283 0.90139 0.0
H982 H 0.48902 0.41224 0.94789 0.0
H983 H 0.55178 0.39693 0.6632 0.0
H984 H 0.55238 0.44083 0.62562 0.0
H985 H 0.48106 0.45092 0.76111 0.0
C986 C 0.48279 0.35426 0.86676 0.0
C987 C 0.4993 0.33415 0.87745 0.0
C988 C 0.52188 0.33419 0.82708 0.0
C989 C 0.52851 0.35448 0.77246 0.0
C990 C 0.51236 0.37462 0.76834 0.0
C991 C 0.48983 0.37448 0.81369 0.0
C992 C 0.47701 0.39933 0.80819 0.0
C993 C 0.45316 0.39717 0.74998 0.0
C994 C 0.47167 0.41012 0.90664 0.0
C995 C 0.49642 0.41411 0.75732 0.0
C996 C 0.51624 0.39924 0.73175 0.0
C997 C 0.53636 0.40864 0.68342 0.0
C998 C 0.53652 0.43381 0.66261 0.0
C999 C 0.51707 0.44985 0.69237 0.0
C1000 C 0.49651 0.43952 0.73886 0.0
H1001 H 0.20255 0.47215 0.96018 0.0
H1002 H 0.2352 0.54295 0.90301 0.0
H1003 H 0.19836 0.55356 0.8084 0.0
H1004 H 0.17083 0.46381 0.72839 0.0
H1005 H 0.14457 0.44911 0.78064 0.0
H1006 H 0.17483 0.44597 0.83218 0.0
H1007 H 0.15829 0.46345 0.99258 0.0
H1008 H 0.12832 0.4649 0.93935 0.0
H1009 H 0.14137 0.49212 0.99457 0.0
H1010 H 0.15539 0.55782 0.73144 0.0
H1011 H 0.11195 0.55546 0.67987 0.0
H1012 H 0.1065 0.48212 0.79114 0.0
C1013 C 0.2022 0.48982 0.92682 0.0
C1014 C 0.22206 0.50673 0.93995 0.0
C1015 C 0.22063 0.52949 0.89376 0.0
C1016 C 0.19958 0.53573 0.84017 0.0
C1017 C 0.18 0.51898 0.83205 0.0
C1018 C 0.18135 0.49631 0.87324 0.0
C1019 C 0.15745 0.48196 0.85781 0.0
C1020 C 0.16222 0.45884 0.79609 0.0
C1021 C 0.14567 0.47527 0.95177 0.0
C1022 C 0.14178 0.50054 0.80592 0.0
C1023 C 0.15534 0.52157 0.78984 0.0
C1024 C 0.14477 0.54138 0.74382 0.0
C1025 C 0.11985 0.53985 0.71483 0.0
C1026 C 0.10519 0.51878 0.73238 0.0
C1027 C 0.11673 0.49872 0.77756 0.0
H1028 H 0.98124 0.84145 0.44756 0.0
H1029 H 0.05222 0.83922 0.30731 0.0
H1030 H 0.0626 0.87987 0.37807 0.0
H1031 H 0.96767 0.90123 0.42392 0.0
H1032 H 0.95568 0.90961 0.53856 0.0
H1033 H 0.95365 0.87831 0.49486 0.0
H1034 H 0.97686 0.86092 0.63232 0.0
H1035 H 0.97831 0.89124 0.6863 0.0
H1036 H 1.00628 0.87362 0.66664 0.0
H1037 H 0.06309 0.92325 0.44635 0.0
H1038 H 0.0567 0.96339 0.52681 0.0
H1039 H 0.98673 0.93804 0.63606 0.0
C1040 C 0.99943 0.84902 0.43547 0.0
C1041 C 1.01627 0.83658 0.37375 0.0
C1042 C 0.0394 0.84781 0.35654 0.0
C1043 C 0.04531 0.87114 0.39561 0.0
C1044 C 0.02808 0.88322 0.45355 0.0
C1045 C 1.00592 0.87222 0.47611 0.0
C1046 C 0.99076 0.88942 0.54035 0.0
C1047 C 0.96544 0.89503 0.4969 0.0
C1048 C 0.98784 0.87815 0.63726 0.0
C1049 C 1.00719 0.9123 0.54593 0.0
C1050 C 0.02867 0.90814 0.49532 0.0
C1051 C 0.04648 0.9265 0.48717 0.0
C1052 C 0.0426 0.94944 0.53289 0.0
C1053 C 0.0211 0.95427 0.58722 0.0
C1054 C 1.00325 0.93517 0.59428 0.0
H1055 H 0.69952 0.9847 0.38005 0.0
H1056 H 0.70512 0.06161 0.31096 0.0
H1057 H 0.66444 0.06975 0.38481 0.0
H1058 H 0.63577 0.9781 0.33971 0.0
H1059 H 0.62863 0.95899 0.43772 0.0
H1060 H 0.65911 0.95821 0.38657 0.0
H1061 H 0.67938 0.96919 0.54372 0.0
H1062 H 0.64956 0.96961 0.60036 0.0
H1063 H 0.6694 0.99626 0.60853 0.0
H1064 H 0.62075 0.0685 0.44671 0.0
H1065 H 0.58167 0.06094 0.53087 0.0
H1066 H 0.60409 0.98546 0.57318 0.0
C1067 C 0.69251 1.00338 0.38337 0.0
C1068 C 0.70591 0.02269 0.34131 0.0
C1069 C 0.69559 0.04669 0.3445 0.0
C1070 C 0.67229 0.05141 0.38524 0.0
C1071 C 0.65924 0.03196 0.42347 0.0
C1072 C 0.66923 1.00854 0.42542 0.0
C1073 C 0.65133 0.99116 0.47323 0.0
C1074 C 0.64321 0.97036 0.4053 0.0
C1075 C 0.6631 0.98089 0.56183 0.0
C1076 C 0.62977 1.00841 0.49751 0.0
C1077 C 0.6346 0.03171 0.46577 0.0
C1078 C 0.61714 0.05055 0.47465 0.0
C1079 C 0.59481 0.04601 0.52172 0.0
C1080 C 0.58958 0.02262 0.55829 0.0
C1081 C 0.60743 1.00353 0.54573 0.0
H1082 H 0.57679 0.69884 0.36997 0.0
H1083 H 0.50561 0.73317 0.42619 0.0
H1084 H 0.49396 0.69771 0.52255 0.0
H1085 H 0.55412 0.63953 0.33339 0.0
H1086 H 0.57992 0.62398 0.38574 0.0
H1087 H 0.58432 0.65351 0.33418 0.0
H1088 H 0.60217 0.67113 0.49033 0.0
H1089 H 0.59835 0.64148 0.54211 0.0
H1090 H 0.58457 0.66844 0.59691 0.0
H1091 H 0.4888 0.65569 0.60179 0.0
H1092 H 0.49053 0.61265 0.65308 0.0
H1093 H 0.56462 0.60563 0.5393 0.0
C1094 C 0.55878 0.69916 0.40306 0.0
C1095 C 0.54212 0.71907 0.38947 0.0
C1096 C 0.51892 0.71853 0.43581 0.0
C1097 C 0.51207 0.69828 0.4904 0.0
C1098 C 0.52861 0.67859 0.49878 0.0
C1099 C 0.55159 0.67905 0.45671 0.0
C1100 C 0.56541 0.65501 0.47026 0.0
C1101 C 0.57128 0.64227 0.37526 0.0
C1102 C 0.58903 0.65928 0.52837 0.0
C1103 C 0.54646 0.64059 0.52465 0.0
C1104 C 0.52545 0.65455 0.54163 0.0
C1105 C 0.50525 0.64475 0.58878 0.0
C1106 C 0.50642 0.62012 0.61767 0.0
C1107 C 0.52754 0.60518 0.59883 0.0
C1108 C 0.54794 0.61601 0.5532 0.0
H1109 H 0.85532 0.57797 0.36836 0.0
H1110 H 0.82105 0.50724 0.41418 0.0
H1111 H 0.85757 0.49485 0.50714 0.0
H1112 H 0.91606 0.55611 0.32947 0.0
H1113 H 0.92992 0.5826 0.38696 0.0
H1114 H 0.89999 0.58525 0.33397 0.0
H1115 H 0.8839 0.60225 0.4957 0.0
H1116 H 0.91402 0.59795 0.54699 0.0
H1117 H 0.88732 0.5837 0.59791 0.0
H1118 H 0.90022 0.48914 0.58615 0.0
H1119 H 0.94357 0.49029 0.64001 0.0
H1120 H 0.95099 0.56408 0.53457 0.0
C1121 C 0.85525 0.5599 0.39856 0.0
C1122 C 0.83497 0.5436 0.38295 0.0
C1123 C 0.83591 0.5203 0.42542 0.0
C1124 C 0.85678 0.51303 0.478 0.0
C1125 C 0.87676 0.52924 0.48852 0.0
C1126 C 0.87598 0.55231 0.45041 0.0
C1127 C 0.90024 0.56591 0.4671 0.0
C1128 C 0.91225 0.57282 0.37374 0.0
C1129 C 0.89611 0.58881 0.5307 0.0
C1130 C 0.91533 0.54657 0.5173 0.0
C1131 C 0.90127 0.52573 0.53084 0.0
C1132 C 0.91125 0.50542 0.57564 0.0
C1133 C 0.93608 0.50626 0.60606 0.0
C1134 C 0.95122 0.52711 0.5909 0.0
C1135 C 0.94031 0.54765 0.54667 0.0
loop_
_geom_bond_atom_site_label_1
_geom_bond_atom_site_label_2
_geom_bond_distance
_geom_bond_site_symmetry_2
_ccdc_geom_bond_type
H0 C1 0.949 . S
C1 H0 0.949 . S
C1 C2 1.395 . S
C1 C3 1.391 . S
C2 C1 1.395 . S
C2 C5 1.390 . S
C3 C1 1.391 . S
C3 C7 1.387 . S
C3 C8 1.491 . S
H4 C5 0.950 . S
C5 C2 1.390 . S
C5 H4 0.950 . S
C5 C6 1.378 . S
C6 C5 1.378 . S
C6 C7 1.409 . S
C7 C3 1.387 . S
C7 C6 1.409 . S
C7 H9 0.951 . S
C8 C3 1.491 . S
C8 C10 1.382 . S
C8 C12 1.404 . S
H9 C7 0.951 . S
C10 C8 1.382 . S
C10 C11 1.390 . S
C10 H15 0.949 . S
C11 C10 1.390 . S
C11 C16 1.399 . S
C12 C8 1.404 . S
C12 H13 0.950 . S
C12 C14 1.375 . S
H13 C12 0.950 . S
C14 C12 1.375 . S
C14 C16 1.382 . S
C14 H18 0.950 . S
H15 C10 0.949 . S
C16 C11 1.399 . S
C16 C14 1.382 . S
C16 H17 0.952 . S
H17 C16 0.952 . S
H18 C14 0.950 . S
H19 C20 0.949 . S
C20 H19 0.949 . S
C20 C21 1.395 . S
C20 C22 1.391 . S
C21 C20 1.395 . S
C21 C24 1.390 . S
C22 C20 1.391 . S
C22 C26 1.387 . S
C22 C27 1.491 . S
H23 C24 0.950 . S
C24 C21 1.390 . S
C24 H23 0.950 . S
C24 C25 1.378 . S
C25 C24 1.378 . S
C25 C26 1.409 . S
C26 C22 1.387 . S
C26 C25 1.409 . S
C26 H28 0.951 . S
C27 C22 1.491 . S
C27 C29 1.382 . S
C27 C31 1.404 . S
H28 C26 0.951 . S
C29 C27 1.382 . S
C29 C30 1.390 . S
C29 H34 0.949 . S
C30 C29 1.390 . S
C30 C35 1.399 . S
C31 C27 1.404 . S
C31 H32 0.950 . S
C31 C33 1.375 . S
H32 C31 0.950 . S
C33 C31 1.375 . S
C33 C35 1.382 . S
C33 H37 0.950 . S
H34 C29 0.949 . S
C35 C30 1.399 . S
C35 C33 1.382 . S
C35 H36 0.952 . S
H36 C35 0.952 . S
H37 C33 0.950 . S
H38 C39 0.949 . S
C39 H38 0.949 . S
C39 C40 1.395 . S
C39 C41 1.391 . S
C40 C39 1.395 . S
C40 C43 1.390 . S
C41 C39 1.391 . S
C41 C45 1.387 . S
C41 C46 1.491 . S
H42 C43 0.950 . S
C43 C40 1.390 . S
C43 H42 0.950 . S
C43 C44 1.378 . S
C44 C43 1.378 . S
C44 C45 1.409 . S
C45 C41 1.387 . S
C45 C44 1.409 . S
C45 H47 0.951 . S
C46 C41 1.491 . S
C46 C48 1.382 . S
C46 C50 1.404 . S
H47 C45 0.951 . S
C48 C46 1.382 . S
C48 C49 1.390 . S
C48 H53 0.949 . S
C49 C48 1.390 . S
C49 C54 1.399 . S
C50 C46 1.404 . S
C50 H51 0.950 . S
C50 C52 1.375 . S
H51 C50 0.950 . S
C52 C50 1.375 . S
C52 C54 1.382 . S
C52 H56 0.950 . S
H53 C48 0.949 . S
C54 C49 1.399 . S
C54 C52 1.382 . S
C54 H55 0.952 . S
H55 C54 0.952 . S
H56 C52 0.950 . S
H57 C58 0.949 . S
C58 H57 0.949 . S
C58 C59 1.395 . S
C58 C60 1.391 . S
C59 C58 1.395 . S
C59 C62 1.390 . S
C60 C58 1.391 . S
C60 C64 1.387 . S
C60 C65 1.491 . S
H61 C62 0.950 . S
C62 C59 1.390 . S
C62 H61 0.950 . S
C62 C63 1.378 . S
C63 C62 1.378 . S
C63 C64 1.409 . S
C64 C60 1.387 . S
C64 C63 1.409 . S
C64 H66 0.951 . S
C65 C60 1.491 . S
C65 C67 1.382 . S
C65 C69 1.404 . S
H66 C64 0.951 . S
C67 C65 1.382 . S
C67 C68 1.390 . S
C67 H72 0.949 . S
C68 C67 1.390 . S
C68 C73 1.399 . S
C69 C65 1.404 . S
C69 H70 0.950 . S
C69 C71 1.375 . S
H70 C69 0.950 . S
C71 C69 1.375 . S
C71 C73 1.382 . S
C71 H75 0.950 . S
H72 C67 0.949 . S
C73 C68 1.399 . S
C73 C71 1.382 . S
C73 H74 0.952 . S
H74 C73 0.952 . S
H75 C71 0.950 . S
H76 C77 0.949 . S
C77 H76 0.949 . S
C77 C78 1.395 . S
C77 C79 1.391 1_554 S
C78 C77 1.395 . S
C78 C81 1.390 1_554 S
C79 C77 1.391 1_556 S
C79 C83 1.387 . S
C79 C84 1.491 . S
H80 C81 0.950 . S
C81 C78 1.390 1_556 S
C81 H80 0.950 . S
C81 C82 1.378 . S
C82 C81 1.378 . S
C82 C83 1.409 . S
C83 C79 1.387 . S
C83 C82 1.409 . S
C83 H85 0.951 . S
C84 C79 1.491 . S
C84 C86 1.382 1_556 S
C84 C88 1.404 . S
H85 C83 0.951 . S
C86 C84 1.382 1_554 S
C86 C87 1.390 . S
C86 H91 0.949 . S
C87 C86 1.390 . S
C87 C92 1.399 1_554 S
C88 C84 1.404 . S
C88 H89 0.950 . S
C88 C90 1.375 . S
H89 C88 0.950 . S
C90 C88 1.375 . S
C90 C92 1.382 . S
C90 H94 0.950 . S
H91 C86 0.949 . S
C92 C87 1.399 1_556 S
C92 C90 1.382 . S
C92 H93 0.952 . S
H93 C92 0.952 . S
H94 C90 0.950 . S
H95 C96 0.949 . S
C96 H95 0.949 . S
C96 C97 1.395 . S
C96 C98 1.391 1_554 S
C97 C96 1.395 . S
C97 C100 1.390 1_554 S
C98 C96 1.391 1_556 S
C98 C102 1.387 . S
C98 C103 1.491 . S
H99 C100 0.950 . S
C100 C97 1.390 1_556 S
C100 H99 0.950 . S
C100 C101 1.378 . S
C101 C100 1.378 . S
C101 C102 1.409 . S
C102 C98 1.387 . S
C102 C101 1.409 . S
C102 H104 0.951 . S
C103 C98 1.491 . S
C103 C105 1.382 1_556 S
C103 C107 1.404 . S
H104 C102 0.951 . S
C105 C103 1.382 1_554 S
C105 C106 1.390 . S
C105 H110 0.949 . S
C106 C105 1.390 . S
C106 C111 1.399 1_554 S
C107 C103 1.404 . S
C107 H108 0.950 . S
C107 C109 1.375 . S
H108 C107 0.950 . S
C109 C107 1.375 . S
C109 C111 1.382 . S
C109 H113 0.950 . S
H110 C105 0.949 . S
C111 C106 1.399 1_556 S
C111 C109 1.382 . S
C111 H112 0.952 . S
H112 C111 0.952 . S
H113 C109 0.950 . S
H114 C115 0.949 . S
C115 H114 0.949 . S
C115 C116 1.395 . S
C115 C117 1.391 1_554 S
C116 C115 1.395 . S
C116 C119 1.390 1_554 S
C117 C115 1.391 1_556 S
C117 C121 1.387 . S
C117 C122 1.491 . S
H118 C119 0.950 . S
C119 C116 1.390 1_556 S
C119 H118 0.950 . S
C119 C120 1.378 . S
C120 C119 1.378 . S
C120 C121 1.409 . S
C121 C117 1.387 . S
C121 C120 1.409 . S
C121 H123 0.951 . S
C122 C117 1.491 . S
C122 C124 1.382 1_556 S
C122 C126 1.404 . S
H123 C121 0.951 . S
C124 C122 1.382 1_554 S
C124 C125 1.390 . S
C124 H129 0.949 . S
C125 C124 1.390 . S
C125 C130 1.399 1_554 S
C126 C122 1.404 . S
C126 H127 0.950 . S
C126 C128 1.375 . S
H127 C126 0.950 . S
C128 C126 1.375 . S
C128 C130 1.382 . S
C128 H132 0.950 . S
H129 C124 0.949 . S
C130 C125 1.399 1_556 S
C130 C128 1.382 . S
C130 H131 0.952 . S
H131 C130 0.952 . S
H132 C128 0.950 . S
H133 C134 0.949 . S
C134 H133 0.949 . S
C134 C135 1.395 . S
C134 C136 1.391 1_554 S
C135 C134 1.395 . S
C135 C138 1.390 1_554 S
C136 C134 1.391 1_556 S
C136 C140 1.387 . S
C136 C141 1.491 . S
H137 C138 0.950 . S
C138 C135 1.390 1_556 S
C138 H137 0.950 . S
C138 C139 1.378 . S
C139 C138 1.378 . S
C139 C140 1.409 . S
C140 C136 1.387 . S
C140 C139 1.409 . S
C140 H142 0.951 . S
C141 C136 1.491 . S
C141 C143 1.382 1_556 S
C141 C145 1.404 . S
H142 C140 0.951 . S
C143 C141 1.382 1_554 S
C143 C144 1.390 . S
C143 H148 0.949 . S
C144 C143 1.390 . S
C144 C149 1.399 1_554 S
C145 C141 1.404 . S
C145 H146 0.950 . S
C145 C147 1.375 . S
H146 C145 0.950 . S
C147 C145 1.375 . S
C147 C149 1.382 . S
C147 H151 0.950 . S
H148 C143 0.949 . S
C149 C144 1.399 1_556 S
C149 C147 1.382 . S
C149 H150 0.952 . S
H150 C149 0.952 . S
H151 C147 0.950 . S
Gd152 N183 2.661 . S
Gd152 N189 2.601 . S
Gd152 O196 2.545 . S
Gd152 O197 2.606 1_655 S
Gd152 O199 2.429 . S
Gd152 O200 2.545 1_655 S
Gd152 O201 2.414 . S
Gd152 O203 2.362 1_545 S
Gd152 O204 2.324 1_655 S
Gd152 C211 2.828 . S
Gd153 N162 2.661 1_565 S
Gd153 N166 2.601 1_565 S
Gd153 O197 2.362 1_565 S
Gd153 O198 2.324 1_455 S
Gd153 O202 2.545 . S
Gd153 O203 2.606 1_455 S
Gd153 O205 2.436 . S
Gd153 O206 2.545 . S
Gd153 O207 2.412 . S
Gd153 C220 2.828 . S
C154 C157 1.417 1_554 S
C154 C159 1.431 . S
C154 C160 1.412 . S
C155 C158 1.437 1_554 S
C155 C159 1.317 . S
C155 H174 0.929 . S
C156 C157 1.426 . S
C156 C158 1.413 . S
C156 N166 1.359 . S
C157 C154 1.417 1_556 S
C157 C156 1.426 . S
C157 N162 1.350 . S
C158 C155 1.437 1_556 S
C158 C156 1.413 . S
C158 C168 1.391 . S
C159 C154 1.431 . S
C159 C155 1.317 . S
C159 H170 0.930 . S
C160 C154 1.412 . S
C160 C161 1.355 . S
C160 H172 0.930 . S
C161 C160 1.355 . S
C161 C163 1.402 1_554 S
C161 H173 0.930 1_455 S
N162 Gd153 2.661 1_545 S
N162 C157 1.350 . S
N162 C163 1.307 . S
C163 C161 1.402 1_556 S
C163 N162 1.307 . S
C163 H164 0.930 1_455 S
H164 C163 0.930 1_655 S
C165 N166 1.334 1_565 S
C165 C167 1.394 . S
C165 H169 0.930 . S
N166 Gd153 2.601 1_545 S
N166 C156 1.359 . S
N166 C165 1.334 1_545 S
C167 C165 1.394 . S
C167 C168 1.359 1_565 S
C167 H179 0.930 . S
C168 C158 1.391 . S
C168 C167 1.359 1_545 S
C168 H180 0.929 . S
H169 C165 0.930 . S
H170 C159 0.930 . S
H171 C188 0.930 . S
H172 C160 0.930 . S
H173 C161 0.930 1_655 S
H174 C155 0.929 . S
H175 C193 0.930 . S
H176 C184 0.930 . S
H177 C185 0.930 . S
H178 C209 0.929 . S
H179 C167 0.930 . S
H180 C168 0.929 . S
H181 C210 0.930 . S
H182 C191 0.930 . S
N183 Gd152 2.661 . S
N183 C187 1.350 1_545 S
N183 C188 1.307 1_645 S
C184 H176 0.930 . S
C184 C185 1.355 1_655 S
C184 C186 1.412 . S
C185 H177 0.930 . S
C185 C184 1.355 1_455 S
C185 C188 1.402 . S
C186 C184 1.412 . S
C186 C187 1.417 . S
C186 C210 1.431 . S
C187 N183 1.350 1_565 S
C187 C186 1.417 . S
C187 C190 1.426 1_565 S
C188 H171 0.930 . S
C188 N183 1.307 1_465 S
C188 C185 1.402 . S
N189 Gd152 2.601 . S
N189 C190 1.359 . S
N189 C193 1.334 . S
C190 C187 1.426 1_545 S
C190 N189 1.359 . S
C190 C194 1.413 . S
C191 H182 0.930 . S
C191 C192 1.359 . S
C191 C193 1.394 . S
C192 C191 1.359 . S
C192 C194 1.391 . S
C192 H195 0.929 . S
C193 H175 0.930 . S
C193 N189 1.334 . S
C193 C191 1.394 . S
C194 C190 1.413 . S
C194 C192 1.391 . S
C194 C209 1.437 1_545 S
H195 C192 0.929 . S
O196 Gd152 2.545 . S
O196 C211 1.258 . S
O197 Gd152 2.606 1_455 S
O197 Gd153 2.362 1_545 S
O197 C208 1.284 . S
O198 Gd153 2.324 1_655 S
O198 C218 1.253 1_565 S
O199 Gd152 2.429 . S
O199 C218 1.268 . S
O200 Gd152 2.545 1_455 S
O200 C208 1.250 . S
O201 Gd152 2.414 . S
O201 C211 1.258 . S
O202 Gd153 2.545 . S
O202 C220 1.258 . S
O203 Gd152 2.362 1_565 S
O203 Gd153 2.606 1_655 S
O203 C219 1.284 . S
O204 Gd152 2.324 1_455 S
O204 C227 1.254 . S
O205 Gd153 2.436 . S
O205 C227 1.241 1_565 S
O206 Gd153 2.545 . S
O206 C219 1.250 1_455 S
O207 Gd153 2.412 . S
O207 C220 1.252 . S
C208 O197 1.284 . S
C208 O200 1.250 . S
C209 H178 0.929 . S
C209 C194 1.437 1_565 S
C209 C210 1.317 . S
C210 H181 0.930 . S
C210 C186 1.431 . S
C210 C209 1.317 . S
C211 Gd152 2.828 . S
C211 O196 1.258 . S
C211 O201 1.258 . S
C211 C212 1.497 . S
C212 C211 1.497 . S
C212 C213 1.395 . S
C212 C214 1.380 1_655 S
C213 C212 1.395 . S
C213 C216 1.398 . S
C213 H228 0.930 . S
C214 C212 1.380 1_455 S
C214 C215 1.391 1_455 S
C214 H229 0.930 . S
C215 C214 1.391 1_655 S
C215 C217 1.387 . S
C216 C213 1.398 . S
C216 C217 1.380 . S
C216 H230 0.930 . S
C217 C215 1.387 . S
C217 C216 1.380 . S
C217 H231 0.930 . S
C218 O198 1.253 1_545 S
C218 O199 1.268 . S
C219 O203 1.284 . S
C219 O206 1.250 1_655 S
C220 Gd153 2.828 . S
C220 O202 1.258 . S
C220 O207 1.252 . S
C220 C221 1.497 . S
C221 C220 1.497 . S
C221 C222 1.395 . S
C221 C223 1.380 . S
C222 C221 1.395 . S
C222 C225 1.398 . S
C222 H232 0.930 . S
C223 C221 1.380 . S
C223 C224 1.391 . S
C223 H233 0.930 1_455 S
C224 C223 1.391 . S
C224 C226 1.387 1_556 S
C225 C222 1.398 . S
C225 C226 1.380 1_556 S
C225 H234 0.929 . S
C226 C224 1.387 1_554 S
C226 C225 1.380 1_554 S
C226 H235 0.930 . S
C227 O204 1.254 . S
C227 O205 1.241 1_545 S
H228 C213 0.930 . S
H229 C214 0.930 . S
H230 C216 0.930 . S
H231 C217 0.930 . S
H232 C222 0.930 . S
H233 C223 0.930 1_655 S
H234 C225 0.929 . S
H235 C226 0.930 . S
Gd236 N267 2.661 . S
Gd236 N273 2.601 . S
Gd236 O280 2.545 . S
Gd236 O281 2.606 1_565 S
Gd236 O283 2.429 . S
Gd236 O284 2.545 1_565 S
Gd236 O285 2.412 1_565 S
Gd236 O287 2.357 1_565 S
Gd236 O288 2.324 1_565 S
Gd236 C295 2.828 . S
Gd237 N246 2.661 . S
Gd237 N250 2.601 . S
Gd237 O281 2.362 . S
Gd237 O282 2.324 1_545 S
Gd237 O286 2.545 . S
Gd237 O287 2.625 . S
Gd237 O289 2.429 . S
Gd237 O290 2.545 . S
Gd237 O291 2.412 . S
Gd237 C304 2.828 . S
C238 C241 1.417 1_554 S
C238 C243 1.431 . S
C238 C244 1.412 . S
C239 C242 1.437 1_554 S
C239 C243 1.317 . S
C239 H258 0.929 . S
C240 C241 1.426 . S
C240 C242 1.413 . S
C240 N250 1.359 . S
C241 C238 1.417 1_556 S
C241 C240 1.426 . S
C241 N246 1.350 . S
C242 C239 1.437 1_556 S
C242 C240 1.413 . S
C242 C252 1.391 . S
C243 C238 1.431 . S
C243 C239 1.317 . S
C243 H254 0.930 . S
C244 C238 1.412 . S
C244 C245 1.355 . S
C244 H256 0.930 . S
C245 C244 1.355 . S
C245 C247 1.402 1_554 S
C245 H257 0.930 1_545 S
N246 Gd237 2.661 . S
N246 C241 1.350 . S
N246 C247 1.307 . S
C247 C245 1.402 1_556 S
C247 N246 1.307 . S
C247 H248 0.930 1_545 S
H248 C247 0.930 1_565 S
C249 N250 1.334 . S
C249 C251 1.394 . S
C249 H253 0.930 . S
N250 Gd237 2.601 . S
N250 C240 1.359 . S
N250 C249 1.334 . S
C251 C249 1.394 . S
C251 C252 1.359 . S
C251 H263 0.930 . S
C252 C242 1.391 . S
C252 C251 1.359 . S
C252 H264 0.929 . S
H253 C249 0.930 . S
H254 C243 0.930 . S
H255 C272 0.930 . S
H256 C244 0.930 . S
H257 C245 0.930 1_565 S
H258 C239 0.929 . S
H259 C277 0.930 . S
H260 C268 0.930 . S
H261 C269 0.930 . S
H262 C293 0.929 . S
H263 C251 0.930 . S
H264 C252 0.929 . S
H265 C294 0.930 . S
H266 C275 0.930 . S
N267 Gd236 2.661 . S
N267 C271 1.350 . S
N267 C272 1.307 1_565 S
C268 H260 0.930 . S
C268 C269 1.355 1_565 S
C268 C270 1.412 . S
C269 H261 0.930 . S
C269 C268 1.355 1_545 S
C269 C272 1.402 . S
C270 C268 1.412 . S
C270 C271 1.417 . S
C270 C294 1.431 . S
C271 N267 1.350 . S
C271 C270 1.417 . S
C271 C274 1.426 . S
C272 H255 0.930 . S
C272 N267 1.307 1_545 S
C272 C269 1.402 . S
N273 Gd236 2.601 . S
N273 C274 1.359 . S
N273 C277 1.334 . S
C274 C271 1.426 . S
C274 N273 1.359 . S
C274 C278 1.413 . S
C275 H266 0.930 . S
C275 C276 1.359 . S
C275 C277 1.394 . S
C276 C275 1.359 . S
C276 C278 1.391 . S
C276 H279 0.929 . S
C277 H259 0.930 . S
C277 N273 1.334 . S
C277 C275 1.394 . S
C278 C274 1.413 . S
C278 C276 1.391 . S
C278 C293 1.437 . S
H279 C276 0.929 . S
O280 Gd236 2.545 . S
O280 C295 1.258 . S
O281 Gd236 2.606 1_545 S
O281 Gd237 2.362 . S
O281 C292 1.284 . S
O282 Gd237 2.324 1_565 S
O282 C302 1.254 . S
O283 Gd236 2.429 . S
O283 C302 1.268 . S
O284 Gd236 2.545 1_545 S
O284 C292 1.250 . S
O285 Gd236 2.412 1_545 S
O285 C295 1.252 1_545 S
O286 Gd237 2.545 . S
O286 C304 1.258 . S
O287 Gd236 2.357 1_545 S
O287 Gd237 2.625 . S
O287 C303 1.286 . S
O288 Gd236 2.324 1_545 S
O288 C311 1.254 . S
O289 Gd237 2.429 . S
O289 C311 1.268 . S
O290 Gd237 2.545 . S
O290 C303 1.250 . S
O291 Gd237 2.412 . S
O291 C304 1.252 . S
C292 O281 1.284 . S
C292 O284 1.250 . S
C293 H262 0.929 . S
C293 C278 1.437 . S
C293 C294 1.317 . S
C294 H265 0.930 . S
C294 C270 1.431 . S
C294 C293 1.317 . S
C295 Gd236 2.828 . S
C295 O280 1.258 . S
C295 O285 1.252 1_565 S
C295 C296 1.497 . S
C296 C295 1.497 . S
C296 C297 1.395 . S
C296 C298 1.380 1_565 S
C297 C296 1.395 . S
C297 C300 1.398 . S
C297 H312 0.930 . S
C298 C296 1.380 1_545 S
C298 C299 1.394 . S
C298 H313 0.930 . S
C299 C298 1.394 . S
C299 C301 1.353 1_545 S
C300 C297 1.398 . S
C300 C301 1.380 . S
C300 H314 0.930 . S
C301 C299 1.353 1_565 S
C301 C300 1.380 . S
C301 H315 0.930 . S
C302 O282 1.254 . S
C302 O283 1.268 . S
C303 O287 1.286 . S
C303 O290 1.250 . S
C304 Gd237 2.828 . S
C304 O286 1.258 . S
C304 O291 1.252 . S
C304 C305 1.497 . S
C305 C304 1.497 . S
C305 C306 1.395 . S
C305 C307 1.380 . S
C306 C305 1.395 . S
C306 C309 1.398 . S
C306 H316 0.930 . S
C307 C305 1.380 . S
C307 C308 1.391 . S
C307 H317 0.930 . S
C308 C307 1.391 . S
C308 C310 1.387 1_556 S
C309 C306 1.398 . S
C309 C310 1.380 1_556 S
C309 H318 0.930 1_556 S
C310 C308 1.387 1_554 S
C310 C309 1.380 1_554 S
C310 H319 0.930 . S
C311 O288 1.254 . S
C311 O289 1.268 . S
H312 C297 0.930 . S
H313 C298 0.930 . S
H314 C300 0.930 . S
H315 C301 0.930 . S
H316 C306 0.930 . S
H317 C307 0.930 . S
H318 C309 0.930 1_554 S
H319 C310 0.930 . S
Gd320 N351 2.661 . S
Gd320 N357 2.601 . S
Gd320 O364 2.545 . S
Gd320 O365 2.606 . S
Gd320 O367 2.429 . S
Gd320 O368 2.545 . S
Gd320 O369 2.412 . S
Gd320 O371 2.362 . S
Gd320 O372 2.324 . S
Gd320 C379 2.828 . S
Gd321 N330 2.661 . S
Gd321 N334 2.601 . S
Gd321 O365 2.362 . S
Gd321 O366 2.324 . S
Gd321 O370 2.545 . S
Gd321 O371 2.606 . S
Gd321 O373 2.429 . S
Gd321 O374 2.545 . S
Gd321 O375 2.412 . S
Gd321 C388 2.828 . S
C322 C325 1.417 . S
C322 C327 1.431 . S
C322 C328 1.412 . S
C323 C326 1.437 . S
C323 C327 1.317 . S
C323 H342 0.929 . S
C324 C325 1.426 . S
C324 C326 1.413 . S
C324 N334 1.359 . S
C325 C322 1.417 . S
C325 C324 1.426 . S
C325 N330 1.350 . S
C326 C323 1.437 . S
C326 C324 1.413 . S
C326 C336 1.391 . S
C327 C322 1.431 . S
C327 C323 1.317 . S
C327 H338 0.930 . S
C328 C322 1.412 . S
C328 C329 1.355 . S
C328 H340 0.930 . S
C329 C328 1.355 . S
C329 C331 1.402 . S
C329 H341 0.930 . S
N330 Gd321 2.661 . S
N330 C325 1.350 . S
N330 C331 1.307 . S
C331 C329 1.402 . S
C331 N330 1.307 . S
C331 H332 0.930 . S
H332 C331 0.930 . S
C333 N334 1.334 . S
C333 C335 1.394 . S
C333 H337 0.930 . S
N334 Gd321 2.601 . S
N334 C324 1.359 . S
N334 C333 1.334 . S
C335 C333 1.394 . S
C335 C336 1.359 . S
C335 H347 0.930 . S
C336 C326 1.391 . S
C336 C335 1.359 . S
C336 H348 0.929 . S
H337 C333 0.930 . S
H338 C327 0.930 . S
H339 C356 0.930 . S
H340 C328 0.930 . S
H341 C329 0.930 . S
H342 C323 0.929 . S
H343 C361 0.930 . S
H344 C352 0.930 . S
H345 C353 0.930 . S
H346 C377 0.929 . S
H347 C335 0.930 . S
H348 C336 0.929 . S
H349 C378 0.930 . S
H350 C359 0.930 1_554 S
N351 Gd320 2.661 . S
N351 C355 1.350 . S
N351 C356 1.307 . S
C352 H344 0.930 . S
C352 C353 1.355 . S
C352 C354 1.412 . S
C353 H345 0.930 . S
C353 C352 1.355 . S
C353 C356 1.402 . S
C354 C352 1.412 . S
C354 C355 1.417 . S
C354 C378 1.431 . S
C355 N351 1.350 . S
C355 C354 1.417 . S
C355 C358 1.426 . S
C356 H339 0.930 . S
C356 N351 1.307 . S
C356 C353 1.402 . S
N357 Gd320 2.601 . S
N357 C358 1.359 . S
N357 C361 1.334 . S
C358 C355 1.426 . S
C358 N357 1.359 . S
C358 C362 1.413 . S
C359 H350 0.930 1_556 S
C359 C360 1.359 . S
C359 C361 1.394 . S
C360 C359 1.359 . S
C360 C362 1.391 . S
C360 H363 0.929 . S
C361 H343 0.930 . S
C361 N357 1.334 . S
C361 C359 1.394 . S
C362 C358 1.413 . S
C362 C360 1.391 . S
C362 C377 1.437 . S
H363 C360 0.929 . S
O364 Gd320 2.545 . S
O364 C379 1.258 . S
O365 Gd320 2.606 . S
O365 Gd321 2.362 . S
O365 C376 1.284 . S
O366 Gd321 2.324 . S
O366 C386 1.254 . S
O367 Gd320 2.429 . S
O367 C386 1.268 . S
O368 Gd320 2.545 . S
O368 C376 1.250 . S
O369 Gd320 2.412 . S
O369 C379 1.252 . S
O370 Gd321 2.545 . S
O370 C388 1.258 . S
O371 Gd320 2.362 . S
O371 Gd321 2.606 . S
O371 C387 1.284 . S
O372 Gd320 2.324 . S
O372 C395 1.254 . S
O373 Gd321 2.429 . S
O373 C395 1.268 . S
O374 Gd321 2.545 . S
O374 C387 1.250 . S
O375 Gd321 2.412 . S
O375 C388 1.252 . S
C376 O365 1.284 . S
C376 O368 1.250 . S
C377 H346 0.929 . S
C377 C362 1.437 . S
C377 C378 1.317 . S
C378 H349 0.930 . S
C378 C354 1.431 . S
C378 C377 1.317 . S
C379 Gd320 2.828 . S
C379 O364 1.258 . S
C379 O369 1.252 . S
C379 C380 1.497 . S
C380 C379 1.497 . S
C380 C381 1.395 1_556 S
C380 C382 1.380 . S
C381 C380 1.395 1_554 S
C381 C384 1.398 . S
C381 H396 0.930 . S
C382 C380 1.380 . S
C382 C383 1.391 1_556 S
C382 H397 0.930 . S
C383 C382 1.391 1_554 S
C383 C385 1.387 . S
C384 C381 1.398 . S
C384 C385 1.380 . S
C384 H398 0.930 . S
C385 C383 1.387 . S
C385 C384 1.380 . S
C385 H399 0.930 . S
C386 O366 1.254 . S
C386 O367 1.268 . S
C387 O371 1.284 . S
C387 O374 1.250 . S
C388 Gd321 2.828 . S
C388 O370 1.258 . S
C388 O375 1.252 . S
C388 C389 1.497 . S
C389 C388 1.497 . S
C389 C390 1.395 . S
C389 C391 1.380 . S
C390 C389 1.395 . S
C390 C393 1.398 . S
C390 H400 0.930 . S
C391 C389 1.380 . S
C391 C392 1.391 . S
C391 H401 0.930 . S
C392 C391 1.391 . S
C392 C394 1.387 . S
C393 C390 1.398 . S
C393 C394 1.380 . S
C393 H402 0.930 . S
C394 C392 1.387 . S
C394 C393 1.380 . S
C394 H403 0.930 . S
C395 O372 1.254 . S
C395 O373 1.268 . S
H396 C381 0.930 . S
H397 C382 0.930 . S
H398 C384 0.930 . S
H399 C385 0.930 . S
H400 C390 0.930 . S
H401 C391 0.930 . S
H402 C393 0.930 . S
H403 C394 0.930 . S
Gd404 N435 2.661 . S
Gd404 N441 2.601 . S
Gd404 O448 2.545 . S
Gd404 O449 2.606 1_655 S
Gd404 O451 2.429 1_655 S
Gd404 O452 2.545 . S
Gd404 O453 2.412 . S
Gd404 O455 2.362 1_655 S
Gd404 O456 2.324 . S
Gd404 C463 2.828 . S
Gd405 N414 2.661 . S
Gd405 N418 2.601 . S
Gd405 O449 2.362 . S
Gd405 O450 2.324 . S
Gd405 O454 2.545 . S
Gd405 O455 2.606 . S
Gd405 O457 2.429 1_455 S
Gd405 O458 2.545 . S
Gd405 O459 2.412 . S
Gd405 C472 2.828 . S
C406 C409 1.417 . S
C406 C411 1.431 . S
C406 C412 1.412 . S
C407 C410 1.437 . S
C407 C411 1.317 . S
C407 H426 0.929 . S
C408 C409 1.426 . S
C408 C410 1.413 . S
C408 N418 1.359 . S
C409 C406 1.417 . S
C409 C408 1.426 . S
C409 N414 1.350 . S
C410 C407 1.437 . S
C410 C408 1.413 . S
C410 C420 1.391 . S
C411 C406 1.431 . S
C411 C407 1.317 . S
C411 H422 0.930 . S
C412 C406 1.412 . S
C412 C413 1.355 . S
C412 H424 0.930 . S
C413 C412 1.355 . S
C413 C415 1.402 . S
C413 H425 0.930 . S
N414 Gd405 2.661 . S
N414 C409 1.350 . S
N414 C415 1.307 . S
C415 C413 1.402 . S
C415 N414 1.307 . S
C415 H416 0.930 . S
H416 C415 0.930 . S
C417 N418 1.334 . S
C417 C419 1.394 1_455 S
C417 H421 0.930 1_455 S
N418 Gd405 2.601 . S
N418 C408 1.359 . S
N418 C417 1.334 . S
C419 C417 1.394 1_655 S
C419 C420 1.359 1_655 S
C419 H431 0.930 . S
C420 C410 1.391 . S
C420 C419 1.359 1_455 S
C420 H432 0.929 . S
H421 C417 0.930 1_655 S
H422 C411 0.930 . S
H423 C440 0.930 . S
H424 C412 0.930 . S
H425 C413 0.930 . S
H426 C407 0.929 . S
H427 C445 0.930 . S
H428 C436 0.930 . S
H429 C437 0.930 . S
H430 C461 0.929 . S
H431 C419 0.930 . S
H432 C420 0.929 . S
H433 C462 0.930 . S
H434 C443 0.929 . S
N435 Gd404 2.661 . S
N435 C439 1.350 . S
N435 C440 1.307 . S
C436 H428 0.930 . S
C436 C437 1.355 . S
C436 C438 1.412 . S
C437 H429 0.930 . S
C437 C436 1.355 . S
C437 C440 1.402 . S
C438 C436 1.412 . S
C438 C439 1.417 . S
C438 C462 1.431 . S
C439 N435 1.350 . S
C439 C438 1.417 . S
C439 C442 1.426 . S
C440 H423 0.930 . S
C440 N435 1.307 . S
C440 C437 1.402 . S
N441 Gd404 2.601 . S
N441 C442 1.359 . S
N441 C445 1.334 1_655 S
C442 C439 1.426 . S
C442 N441 1.359 . S
C442 C446 1.413 . S
C443 H434 0.929 . S
C443 C444 1.359 . S
C443 C445 1.394 . S
C444 C443 1.359 . S
C444 C446 1.391 1_455 S
C444 H447 0.929 . S
C445 H427 0.930 . S
C445 N441 1.334 1_455 S
C445 C443 1.394 . S
C446 C442 1.413 . S
C446 C444 1.391 1_655 S
C446 C461 1.437 . S
H447 C444 0.929 . S
O448 Gd404 2.545 . S
O448 C463 1.258 . S
O449 Gd404 2.606 1_455 S
O449 Gd405 2.362 . S
O449 C460 1.284 1_455 S
O450 Gd405 2.324 . S
O450 C470 1.254 . S
O451 Gd404 2.429 1_455 S
O451 C470 1.268 . S
O452 Gd404 2.545 . S
O452 C460 1.250 . S
O453 Gd404 2.412 . S
O453 C463 1.252 . S
O454 Gd405 2.545 . S
O454 C472 1.258 . S
O455 Gd404 2.362 1_455 S
O455 Gd405 2.606 . S
O455 C471 1.284 . S
O456 Gd404 2.324 . S
O456 C479 1.254 . S
O457 Gd405 2.429 1_655 S
O457 C479 1.268 . S
O458 Gd405 2.545 . S
O458 C471 1.250 . S
O459 Gd405 2.412 . S
O459 C472 1.252 . S
C460 O449 1.284 1_655 S
C460 O452 1.250 . S
C461 H430 0.929 . S
C461 C446 1.437 . S
C461 C462 1.317 . S
C462 H433 0.930 . S
C462 C438 1.431 . S
C462 C461 1.317 . S
C463 Gd404 2.828 . S
C463 O448 1.258 . S
C463 O453 1.252 . S
C463 C464 1.497 . S
C464 C463 1.497 . S
C464 C465 1.395 1_556 S
C464 C466 1.380 . S
C465 C464 1.395 1_554 S
C465 C468 1.398 . S
C465 H480 0.930 . S
C466 C464 1.380 . S
C466 C467 1.391 1_556 S
C466 H481 0.930 . S
C467 C466 1.391 1_554 S
C467 C469 1.387 . S
C468 C465 1.398 . S
C468 C469 1.380 . S
C468 H482 0.930 . S
C469 C467 1.387 . S
C469 C468 1.380 . S
C469 H483 0.930 . S
C470 O450 1.254 . S
C470 O451 1.268 . S
C471 O455 1.284 . S
C471 O458 1.250 . S
C472 Gd405 2.828 . S
C472 O454 1.258 . S
C472 O459 1.252 . S
C472 C473 1.497 . S
C473 C472 1.497 . S
C473 C474 1.395 . S
C473 C475 1.380 . S
C474 C473 1.395 . S
C474 C477 1.398 . S
C474 H484 0.930 . S
C475 C473 1.380 . S
C475 C476 1.391 . S
C475 H485 0.930 . S
C476 C475 1.391 . S
C476 C478 1.387 . S
C477 C474 1.398 . S
C477 C478 1.380 . S
C477 H486 0.930 . S
C478 C476 1.387 . S
C478 C477 1.380 . S
C478 H487 0.930 . S
C479 O456 1.254 . S
C479 O457 1.268 . S
H480 C465 0.930 . S
H481 C466 0.930 . S
H482 C468 0.930 . S
H483 C469 0.930 . S
H484 C474 0.930 . S
H485 C475 0.930 . S
H486 C477 0.930 . S
H487 C478 0.930 . S
H488 C500 0.930 . S
H489 C502 0.930 . S
H490 C503 0.930 . S
H491 C507 0.959 . S
H492 C507 0.959 1_565 S
H493 C507 0.961 . S
H494 C508 0.960 . S
H495 C508 0.961 . S
H496 C508 0.959 . S
H497 C511 0.929 . S
H498 C512 0.931 . S
H499 C514 0.930 . S
C500 H488 0.930 . S
C500 C501 1.399 . S
C500 C505 1.399 . S
C501 C500 1.399 . S
C501 C502 1.376 . S
C502 H489 0.930 . S
C502 C501 1.376 . S
C502 C503 1.388 . S
C503 H490 0.930 . S
C503 C502 1.388 . S
C503 C504 1.390 . S
C504 C503 1.390 . S
C504 C505 1.394 . S
C504 C510 1.465 . S
C505 C500 1.399 . S
C505 C504 1.394 . S
C505 C506 1.516 . S
C506 C505 1.516 . S
C506 C507 1.502 . S
C506 C508 1.561 1_545 S
C506 C509 1.526 . S
C507 H491 0.959 . S
C507 H492 0.959 1_545 S
C507 H493 0.961 . S
C507 C506 1.502 . S
C508 H494 0.960 . S
C508 H495 0.961 . S
C508 H496 0.959 . S
C508 C506 1.561 1_565 S
C509 C506 1.526 . S
C509 C510 1.396 . S
C509 C514 1.390 . S
C510 C504 1.465 . S
C510 C509 1.396 . S
C510 C511 1.399 . S
C511 H497 0.929 . S
C511 C510 1.399 . S
C511 C512 1.385 . S
C512 H498 0.931 . S
C512 C511 1.385 . S
C512 C513 1.389 . S
C513 C512 1.389 . S
C513 C514 1.387 . S
C514 H499 0.930 . S
C514 C509 1.390 . S
C514 C513 1.387 . S
H515 C527 0.930 . S
H516 C529 0.930 . S
H517 C530 0.930 . S
H518 C534 0.959 . S
H519 C534 0.959 . S
H520 C534 0.961 . S
H521 C535 0.960 . S
H522 C535 0.961 . S
H523 C535 0.959 . S
H524 C538 0.929 . S
H525 C539 0.931 . S
H526 C541 0.930 . S
C527 H515 0.930 . S
C527 C528 1.399 . S
C527 C532 1.399 . S
C528 C527 1.399 . S
C528 C529 1.376 . S
C529 H516 0.930 . S
C529 C528 1.376 . S
C529 C530 1.388 . S
C530 H517 0.930 . S
C530 C529 1.388 . S
C530 C531 1.390 . S
C531 C530 1.390 . S
C531 C532 1.394 . S
C531 C537 1.465 . S
C532 C527 1.399 . S
C532 C531 1.394 . S
C532 C533 1.516 . S
C533 C532 1.516 . S
C533 C534 1.502 . S
C533 C535 1.561 . S
C533 C536 1.526 . S
C534 H518 0.959 . S
C534 H519 0.959 . S
C534 H520 0.961 . S
C534 C533 1.502 . S
C535 H521 0.960 . S
C535 H522 0.961 . S
C535 H523 0.959 . S
C535 C533 1.561 . S
C536 C533 1.526 . S
C536 C537 1.396 . S
C536 C541 1.390 . S
C537 C531 1.465 . S
C537 C536 1.396 . S
C537 C538 1.399 . S
C538 H524 0.929 . S
C538 C537 1.399 . S
C538 C539 1.385 . S
C539 H525 0.931 . S
C539 C538 1.385 . S
C539 C540 1.389 . S
C540 C539 1.389 . S
C540 C541 1.387 . S
C541 H526 0.930 . S
C541 C536 1.390 . S
C541 C540 1.387 . S
H542 C554 0.930 . S
H543 C556 0.930 . S
H544 C557 0.930 . S
H545 C561 0.959 . S
H546 C561 0.959 . S
H547 C561 0.961 . S
H548 C562 0.960 . S
H549 C562 0.961 . S
H550 C562 0.959 . S
H551 C565 0.929 . S
H552 C566 0.931 . S
H553 C568 0.930 . S
C554 H542 0.930 . S
C554 C555 1.399 . S
C554 C559 1.399 . S
C555 C554 1.399 . S
C555 C556 1.376 . S
C556 H543 0.930 . S
C556 C555 1.376 . S
C556 C557 1.388 . S
C557 H544 0.930 . S
C557 C556 1.388 . S
C557 C558 1.390 . S
C558 C557 1.390 . S
C558 C559 1.394 . S
C558 C564 1.465 . S
C559 C554 1.399 . S
C559 C558 1.394 . S
C559 C560 1.516 . S
C560 C559 1.516 . S
C560 C561 1.502 . S
C560 C562 1.561 . S
C560 C563 1.526 . S
C561 H545 0.959 . S
C561 H546 0.959 . S
C561 H547 0.961 . S
C561 C560 1.502 . S
C562 H548 0.960 . S
C562 H549 0.961 . S
C562 H550 0.959 . S
C562 C560 1.561 . S
C563 C560 1.526 . S
C563 C564 1.396 . S
C563 C568 1.390 . S
C564 C558 1.465 . S
C564 C563 1.396 . S
C564 C565 1.399 . S
C565 H551 0.929 . S
C565 C564 1.399 . S
C565 C566 1.385 . S
C566 H552 0.931 . S
C566 C565 1.385 . S
C566 C567 1.389 . S
C567 C566 1.389 . S
C567 C568 1.387 . S
C568 H553 0.930 . S
C568 C563 1.390 . S
C568 C567 1.387 . S
H569 C581 0.930 . S
H570 C583 0.930 . S
H571 C584 0.930 . S
H572 C588 0.959 1_655 S
H573 C588 0.959 . S
H574 C588 0.961 . S
H575 C589 0.960 . S
H576 C589 0.961 . S
H577 C589 0.959 . S
H578 C592 0.929 . S
H579 C593 0.931 . S
H580 C595 0.930 . S
C581 H569 0.930 . S
C581 C582 1.399 . S
C581 C586 1.399 . S
C582 C581 1.399 . S
C582 C583 1.376 . S
C583 H570 0.930 . S
C583 C582 1.376 . S
C583 C584 1.388 . S
C584 H571 0.930 . S
C584 C583 1.388 . S
C584 C585 1.390 . S
C585 C584 1.390 . S
C585 C586 1.394 . S
C585 C591 1.465 . S
C586 C581 1.399 . S
C586 C585 1.394 . S
C586 C587 1.516 . S
C587 C586 1.516 . S
C587 C588 1.502 . S
C587 C589 1.561 . S
C587 C590 1.526 . S
C588 H572 0.959 1_455 S
C588 H573 0.959 . S
C588 H574 0.961 . S
C588 C587 1.502 . S
C589 H575 0.960 . S
C589 H576 0.961 . S
C589 H577 0.959 . S
C589 C587 1.561 . S
C590 C587 1.526 . S
C590 C591 1.396 . S
C590 C595 1.390 . S
C591 C585 1.465 . S
C591 C590 1.396 . S
C591 C592 1.399 . S
C592 H578 0.929 . S
C592 C591 1.399 . S
C592 C593 1.385 . S
C593 H579 0.931 . S
C593 C592 1.385 . S
C593 C594 1.389 . S
C594 C593 1.389 . S
C594 C595 1.387 . S
C595 H580 0.930 . S
C595 C590 1.390 . S
C595 C594 1.387 . S
H596 C608 0.930 1_545 S
H597 C610 0.930 . S
H598 C611 0.930 . S
H599 C615 0.959 . S
H600 C615 0.959 . S
H601 C615 0.961 . S
H602 C616 0.960 . S
H603 C616 0.961 . S
H604 C616 0.959 . S
H605 C619 0.929 . S
H606 C620 0.931 . S
H607 C622 0.930 . S
C608 H596 0.930 1_565 S
C608 C609 1.399 . S
C608 C613 1.399 . S
C609 C608 1.399 . S
C609 C610 1.376 . S
C610 H597 0.930 . S
C610 C609 1.376 . S
C610 C611 1.388 . S
C611 H598 0.930 . S
C611 C610 1.388 . S
C611 C612 1.390 . S
C612 C611 1.390 . S
C612 C613 1.394 . S
C612 C618 1.465 1_554 S
C613 C608 1.399 . S
C613 C612 1.394 . S
C613 C614 1.516 1_564 S
C614 C613 1.516 1_546 S
C614 C615 1.502 . S
C614 C616 1.561 1_556 S
C614 C617 1.526 1_545 S
C615 H599 0.959 . S
C615 H600 0.959 . S
C615 H601 0.961 . S
C615 C614 1.502 . S
C616 H602 0.960 . S
C616 H603 0.961 . S
C616 H604 0.959 . S
C616 C614 1.561 1_554 S
C617 C614 1.526 1_565 S
C617 C618 1.396 . S
C617 C622 1.390 1_565 S
C618 C612 1.465 1_556 S
C618 C617 1.396 . S
C618 C619 1.399 . S
C619 H605 0.929 . S
C619 C618 1.399 . S
C619 C620 1.385 . S
C620 H606 0.931 . S
C620 C619 1.385 . S
C620 C621 1.389 . S
C621 C620 1.389 . S
C621 C622 1.387 1_565 S
C622 H607 0.930 . S
C622 C617 1.390 1_545 S
C622 C621 1.387 1_545 S
H623 C635 0.930 . S
H624 C637 0.930 . S
H625 C638 0.930 . S
H626 C642 0.959 . S
H627 C642 0.959 . S
H628 C642 0.961 . S
H629 C643 0.960 1_554 S
H630 C643 0.961 . S
H631 C643 0.959 . S
H632 C646 0.929 . S
H633 C647 0.931 . S
H634 C649 0.930 . S
C635 H623 0.930 . S
C635 C636 1.399 . S
C635 C640 1.399 . S
C636 C635 1.399 . S
C636 C637 1.376 . S
C637 H624 0.930 . S
C637 C636 1.376 . S
C637 C638 1.388 1_554 S
C638 H625 0.930 . S
C638 C637 1.388 1_556 S
C638 C639 1.390 . S
C639 C638 1.390 . S
C639 C640 1.394 1_556 S
C639 C645 1.465 . S
C640 C635 1.399 . S
C640 C639 1.394 1_554 S
C640 C641 1.516 . S
C641 C640 1.516 . S
C641 C642 1.502 . S
C641 C643 1.561 1_554 S
C641 C644 1.526 1_554 S
C642 H626 0.959 . S
C642 H627 0.959 . S
C642 H628 0.961 . S
C642 C641 1.502 . S
C643 H629 0.960 1_556 S
C643 H630 0.961 . S
C643 H631 0.959 . S
C643 C641 1.561 1_556 S
C644 C641 1.526 1_556 S
C644 C645 1.396 . S
C644 C649 1.390 . S
C645 C639 1.465 . S
C645 C644 1.396 . S
C645 C646 1.399 . S
C646 H632 0.929 . S
C646 C645 1.399 . S
C646 C647 1.385 . S
C647 H633 0.931 . S
C647 C646 1.385 . S
C647 C648 1.389 . S
C648 C647 1.389 . S
C648 C649 1.387 . S
C649 H634 0.930 . S
C649 C644 1.390 . S
C649 C648 1.387 . S
H650 C662 0.930 . S
H651 C664 0.930 . S
H652 C665 0.930 . S
H653 C669 0.959 . S
H654 C669 0.959 . S
H655 C669 0.961 . S
H656 C670 0.960 . S
H657 C670 0.961 . S
H658 C670 0.959 . S
H659 C673 0.929 . S
H660 C674 0.931 . S
H661 C676 0.930 . S
C662 H650 0.930 . S
C662 C663 1.399 . S
C662 C667 1.399 . S
C663 C662 1.399 . S
C663 C664 1.376 . S
C664 H651 0.930 . S
C664 C663 1.376 . S
C664 C665 1.388 1_554 S
C665 H652 0.930 . S
C665 C664 1.388 1_556 S
C665 C666 1.390 . S
C666 C665 1.390 . S
C666 C667 1.394 1_556 S
C666 C672 1.465 . S
C667 C662 1.399 . S
C667 C666 1.394 1_554 S
C667 C668 1.516 . S
C668 C667 1.516 . S
C668 C669 1.502 . S
C668 C670 1.561 . S
C668 C671 1.526 1_554 S
C669 H653 0.959 . S
C669 H654 0.959 . S
C669 H655 0.961 . S
C669 C668 1.502 . S
C670 H656 0.960 . S
C670 H657 0.961 . S
C670 H658 0.959 . S
C670 C668 1.561 . S
C671 C668 1.526 1_556 S
C671 C672 1.396 . S
C671 C676 1.390 . S
C672 C666 1.465 . S
C672 C671 1.396 . S
C672 C673 1.399 . S
C673 H659 0.929 . S
C673 C672 1.399 . S
C673 C674 1.385 . S
C674 H660 0.931 . S
C674 C673 1.385 . S
C674 C675 1.389 . S
C675 C674 1.389 . S
C675 C676 1.387 . S
C676 H661 0.930 . S
C676 C671 1.390 . S
C676 C675 1.387 . S
H677 C689 0.930 . S
H678 C691 0.930 . S
H679 C692 0.930 . S
H680 C696 0.959 . S
H681 C696 0.959 . S
H682 C696 0.961 . S
H683 C697 0.960 . S
H684 C697 0.961 . S
H685 C697 0.959 . S
H686 C700 0.929 . S
H687 C701 0.931 . S
H688 C703 0.930 . S
C689 H677 0.930 . S
C689 C690 1.399 . S
C689 C694 1.399 . S
C690 C689 1.399 . S
C690 C691 1.376 . S
C691 H678 0.930 . S
C691 C690 1.376 . S
C691 C692 1.388 1_554 S
C692 H679 0.930 . S
C692 C691 1.388 1_556 S
C692 C693 1.390 . S
C693 C692 1.390 . S
C693 C694 1.394 1_556 S
C693 C699 1.465 . S
C694 C689 1.399 . S
C694 C693 1.394 1_554 S
C694 C695 1.516 . S
C695 C694 1.516 . S
C695 C696 1.502 1_655 S
C695 C697 1.561 . S
C695 C698 1.526 1_554 S
C696 H680 0.959 . S
C696 H681 0.959 . S
C696 H682 0.961 . S
C696 C695 1.502 1_455 S
C697 H683 0.960 . S
C697 H684 0.961 . S
C697 H685 0.959 . S
C697 C695 1.561 . S
C698 C695 1.526 1_556 S
C698 C699 1.396 . S
C698 C703 1.390 . S
C699 C693 1.465 . S
C699 C698 1.396 . S
C699 C700 1.399 . S
C700 H686 0.929 . S
C700 C699 1.399 . S
C700 C701 1.385 . S
C701 H687 0.931 . S
C701 C700 1.385 . S
C701 C702 1.389 . S
C702 C701 1.389 . S
C702 C703 1.387 . S
C703 H688 0.930 . S
C703 C698 1.390 . S
C703 C702 1.387 . S
H704 C716 0.930 . S
H705 C718 0.930 . S
H706 C719 0.930 . S
H707 C723 0.959 1_455 S
H708 C723 0.959 . S
H709 C723 0.961 . S
H710 C724 0.960 . S
H711 C724 0.961 . S
H712 C724 0.959 . S
H713 C727 0.929 . S
H714 C728 0.931 . S
H715 C730 0.930 1_655 S
C716 H704 0.930 . S
C716 C717 1.399 . S
C716 C721 1.399 . S
C717 C716 1.399 . S
C717 C718 1.376 . S
C718 H705 0.930 . S
C718 C717 1.376 . S
C718 C719 1.388 . S
C719 H706 0.930 . S
C719 C718 1.388 . S
C719 C720 1.390 . S
C720 C719 1.390 . S
C720 C721 1.394 . S
C720 C726 1.465 . S
C721 C716 1.399 . S
C721 C720 1.394 . S
C721 C722 1.516 . S
C722 C721 1.516 . S
C722 C723 1.502 1_455 S
C722 C724 1.561 1_455 S
C722 C725 1.526 . S
C723 H707 0.959 1_655 S
C723 H708 0.959 . S
C723 H709 0.961 . S
C723 C722 1.502 1_655 S
C724 H710 0.960 . S
C724 H711 0.961 . S
C724 H712 0.959 . S
C724 C722 1.561 1_655 S
C725 C722 1.526 . S
C725 C726 1.396 . S
C725 C730 1.390 . S
C726 C720 1.465 . S
C726 C725 1.396 . S
C726 C727 1.399 . S
C727 H713 0.929 . S
C727 C726 1.399 . S
C727 C728 1.385 . S
C728 H714 0.931 . S
C728 C727 1.385 . S
C728 C729 1.389 . S
C729 C728 1.389 . S
C729 C730 1.387 . S
C730 H715 0.930 1_455 S
C730 C725 1.390 . S
C730 C729 1.387 . S
H731 C743 0.930 . S
H732 C745 0.930 . S
H733 C746 0.930 . S
H734 C750 0.959 . S
H735 C750 0.959 . S
H736 C750 0.961 . S
H737 C751 0.960 1_556 S
H738 C751 0.961 . S
H739 C751 0.959 . S
H740 C754 0.929 . S
H741 C755 0.931 . S
H742 C757 0.930 1_565 S
C743 H731 0.930 . S
C743 C744 1.399 . S
C743 C748 1.399 . S
C744 C743 1.399 . S
C744 C745 1.376 . S
C745 H732 0.930 . S
C745 C744 1.376 . S
C745 C746 1.388 . S
C746 H733 0.930 . S
C746 C745 1.388 . S
C746 C747 1.390 . S
C747 C746 1.390 . S
C747 C748 1.394 . S
C747 C753 1.465 . S
C748 C743 1.399 . S
C748 C747 1.394 . S
C748 C749 1.516 . S
C749 C748 1.516 . S
C749 C750 1.502 1_545 S
C749 C751 1.561 . S
C749 C752 1.526 . S
C750 H734 0.959 . S
C750 H735 0.959 . S
C750 H736 0.961 . S
C750 C749 1.502 1_565 S
C751 H737 0.960 1_554 S
C751 H738 0.961 . S
C751 H739 0.959 . S
C751 C749 1.561 . S
C752 C749 1.526 . S
C752 C753 1.396 . S
C752 C757 1.390 . S
C753 C747 1.465 . S
C753 C752 1.396 . S
C753 C754 1.399 . S
C754 H740 0.929 . S
C754 C753 1.399 . S
C754 C755 1.385 . S
C755 H741 0.931 . S
C755 C754 1.385 . S
C755 C756 1.389 . S
C756 C755 1.389 . S
C756 C757 1.387 . S
C757 H742 0.930 1_545 S
C757 C752 1.390 . S
C757 C756 1.387 . S
H758 C770 0.930 . S
H759 C772 0.930 1_556 S
H760 C773 0.930 . S
H761 C777 0.959 . S
H762 C777 0.959 . S
H763 C777 0.961 . S
H764 C778 0.960 . S
H765 C778 0.961 . S
H766 C778 0.959 . S
H767 C781 0.929 . S
H768 C782 0.931 . S
H769 C784 0.930 . S
C770 H758 0.930 . S
C770 C771 1.399 . S
C770 C775 1.399 . S
C771 C770 1.399 . S
C771 C772 1.376 . S
C772 H759 0.930 1_554 S
C772 C771 1.376 . S
C772 C773 1.388 . S
C773 H760 0.930 . S
C773 C772 1.388 . S
C773 C774 1.390 . S
C774 C773 1.390 . S
C774 C775 1.394 . S
C774 C780 1.465 . S
C775 C770 1.399 . S
C775 C774 1.394 . S
C775 C776 1.516 . S
C776 C775 1.516 . S
C776 C777 1.502 . S
C776 C778 1.561 . S
C776 C779 1.526 . S
C777 H761 0.959 . S
C777 H762 0.959 . S
C777 H763 0.961 . S
C777 C776 1.502 . S
C778 H764 0.960 . S
C778 H765 0.961 . S
C778 H766 0.959 . S
C778 C776 1.561 . S
C779 C776 1.526 . S
C779 C780 1.396 . S
C779 C784 1.390 . S
C780 C774 1.465 . S
C780 C779 1.396 . S
C780 C781 1.399 . S
C781 H767 0.929 . S
C781 C780 1.399 . S
C781 C782 1.385 . S
C782 H768 0.931 . S
C782 C781 1.385 . S
C782 C783 1.389 . S
C783 C782 1.389 . S
C783 C784 1.387 . S
C784 H769 0.930 . S
C784 C779 1.390 . S
C784 C783 1.387 . S
H785 C797 0.930 . S
H786 C799 0.930 . S
H787 C800 0.930 . S
H788 C804 0.959 . S
H789 C804 0.959 . S
H790 C804 0.961 . S
H791 C805 0.960 . S
H792 C805 0.961 . S
H793 C805 0.959 . S
H794 C808 0.929 . S
H795 C809 0.931 . S
H796 C811 0.930 . S
C797 H785 0.930 . S
C797 C798 1.399 . S
C797 C802 1.399 . S
C798 C797 1.399 . S
C798 C799 1.376 . S
C799 H786 0.930 . S
C799 C798 1.376 . S
C799 C800 1.388 . S
C800 H787 0.930 . S
C800 C799 1.388 . S
C800 C801 1.390 . S
C801 C800 1.390 . S
C801 C802 1.394 . S
C801 C807 1.465 . S
C802 C797 1.399 . S
C802 C801 1.394 . S
C802 C803 1.516 . S
C803 C802 1.516 . S
C803 C804 1.502 . S
C803 C805 1.561 . S
C803 C806 1.526 . S
C804 H788 0.959 . S
C804 H789 0.959 . S
C804 H790 0.961 . S
C804 C803 1.502 . S
C805 H791 0.960 . S
C805 H792 0.961 . S
C805 H793 0.959 . S
C805 C803 1.561 . S
C806 C803 1.526 . S
C806 C807 1.396 . S
C806 C811 1.390 . S
C807 C801 1.465 . S
C807 C806 1.396 . S
C807 C808 1.399 . S
C808 H794 0.929 . S
C808 C807 1.399 . S
C808 C809 1.385 . S
C809 H795 0.931 . S
C809 C808 1.385 . S
C809 C810 1.389 . S
C810 C809 1.389 . S
C810 C811 1.387 . S
C811 H796 0.930 . S
C811 C806 1.390 . S
C811 C810 1.387 . S
H812 C824 0.930 . S
H813 C826 0.930 . S
H814 C827 0.930 . S
H815 C831 0.959 . S
H816 C831 0.959 . S
H817 C831 0.961 . S
H818 C832 0.960 . S
H819 C832 0.961 1_455 S
H820 C832 0.959 . S
H821 C835 0.929 . S
H822 C836 0.931 . S
H823 C838 0.930 . S
C824 H812 0.930 . S
C824 C825 1.399 . S
C824 C829 1.399 . S
C825 C824 1.399 . S
C825 C826 1.376 . S
C826 H813 0.930 . S
C826 C825 1.376 . S
C826 C827 1.388 . S
C827 H814 0.930 . S
C827 C826 1.388 . S
C827 C828 1.390 . S
C828 C827 1.390 . S
C828 C829 1.394 . S
C828 C834 1.465 . S
C829 C824 1.399 . S
C829 C828 1.394 . S
C829 C830 1.516 . S
C830 C829 1.516 . S
C830 C831 1.502 1_655 S
C830 C832 1.561 1_554 S
C830 C833 1.526 . S
C831 H815 0.959 . S
C831 H816 0.959 . S
C831 H817 0.961 . S
C831 C830 1.502 1_455 S
C832 H818 0.960 . S
C832 H819 0.961 1_655 S
C832 H820 0.959 . S
C832 C830 1.561 1_556 S
C833 C830 1.526 . S
C833 C834 1.396 . S
C833 C838 1.390 1_654 S
C834 C828 1.465 . S
C834 C833 1.396 . S
C834 C835 1.399 . S
C835 H821 0.929 . S
C835 C834 1.399 . S
C835 C836 1.385 . S
C836 H822 0.931 . S
C836 C835 1.385 . S
C836 C837 1.392 1_655 S
C837 C836 1.392 1_455 S
C837 C838 1.386 1_554 S
C838 H823 0.930 . S
C838 C833 1.390 1_456 S
C838 C837 1.386 1_556 S
H839 C851 0.930 . S
H840 C853 0.930 . S
H841 C854 0.930 1_545 S
H842 C858 0.959 . S
H843 C858 0.959 . S
H844 C858 0.961 . S
H845 C859 0.960 . S
H846 C859 0.961 . S
H847 C859 0.959 . S
H848 C862 0.929 . S
H849 C863 0.931 . S
H850 C865 0.930 . S
C851 H839 0.930 . S
C851 C852 1.399 . S
C851 C856 1.399 . S
C852 C851 1.399 . S
C852 C853 1.376 . S
C853 H840 0.930 . S
C853 C852 1.376 . S
C853 C854 1.388 . S
C854 H841 0.930 1_565 S
C854 C853 1.388 . S
C854 C855 1.390 . S
C855 C854 1.390 . S
C855 C856 1.394 . S
C855 C861 1.462 1_565 S
C856 C851 1.399 . S
C856 C855 1.394 . S
C856 C857 1.516 . S
C857 C856 1.516 . S
C857 C858 1.502 1_554 S
C857 C859 1.561 . S
C857 C860 1.526 . S
C858 H842 0.959 . S
C858 H843 0.959 . S
C858 H844 0.961 . S
C858 C857 1.502 1_556 S
C859 H845 0.960 . S
C859 H846 0.961 . S
C859 H847 0.959 . S
C859 C857 1.561 . S
C860 C857 1.526 . S
C860 C861 1.392 1_565 S
C860 C865 1.390 1_554 S
C861 C855 1.462 1_545 S
C861 C860 1.392 1_545 S
C861 C862 1.405 . S
C862 H848 0.929 . S
C862 C861 1.405 . S
C862 C863 1.385 . S
C863 H849 0.931 . S
C863 C862 1.385 . S
C863 C864 1.389 . S
C864 C863 1.389 . S
C864 C865 1.387 1_544 S
C865 H850 0.930 . S
C865 C860 1.390 1_556 S
C865 C864 1.387 1_566 S
H866 C878 0.930 . S
H867 C880 0.930 . S
H868 C881 0.930 . S
H869 C885 0.959 1_554 S
H870 C885 0.959 . S
H871 C885 0.961 . S
H872 C886 0.960 . S
H873 C886 0.961 . S
H874 C886 0.959 . S
H875 C889 0.929 . S
H876 C890 0.931 . S
H877 C892 0.930 . S
C878 H866 0.930 . S
C878 C879 1.399 . S
C878 C883 1.399 . S
C879 C878 1.399 . S
C879 C880 1.376 . S
C880 H867 0.930 . S
C880 C879 1.376 . S
C880 C881 1.388 . S
C881 H868 0.930 . S
C881 C880 1.388 . S
C881 C882 1.390 . S
C882 C881 1.390 . S
C882 C883 1.394 . S
C882 C888 1.465 . S
C883 C878 1.399 . S
C883 C882 1.394 . S
C883 C884 1.516 . S
C884 C883 1.516 . S
C884 C885 1.502 1_554 S
C884 C886 1.561 1_554 S
C884 C887 1.526 . S
C885 H869 0.959 1_556 S
C885 H870 0.959 . S
C885 H871 0.961 . S
C885 C884 1.502 1_556 S
C886 H872 0.960 . S
C886 H873 0.961 . S
C886 H874 0.959 . S
C886 C884 1.561 1_556 S
C887 C884 1.526 . S
C887 C888 1.396 . S
C887 C892 1.390 1_554 S
C888 C882 1.465 . S
C888 C887 1.396 . S
C888 C889 1.399 . S
C889 H875 0.929 . S
C889 C888 1.399 . S
C889 C890 1.385 . S
C890 H876 0.931 . S
C890 C889 1.385 . S
C890 C891 1.389 . S
C891 C890 1.389 . S
C891 C892 1.387 1_554 S
C892 H877 0.930 . S
C892 C887 1.390 1_556 S
C892 C891 1.387 1_556 S
H893 C905 0.930 . S
H894 C907 0.930 . S
H895 C908 0.930 . S
H896 C912 0.959 1_556 S
H897 C912 0.959 . S
H898 C912 0.961 . S
H899 C913 0.960 . S
H900 C913 0.961 . S
H901 C913 0.959 . S
H902 C916 0.929 . S
H903 C917 0.931 . S
H904 C919 0.930 . S
C905 H893 0.930 . S
C905 C906 1.399 . S
C905 C910 1.399 . S
C906 C905 1.399 . S
C906 C907 1.376 . S
C907 H894 0.930 . S
C907 C906 1.376 . S
C907 C908 1.388 . S
C908 H895 0.930 . S
C908 C907 1.388 . S
C908 C909 1.390 . S
C909 C908 1.390 . S
C909 C910 1.394 . S
C909 C915 1.465 . S
C910 C905 1.399 . S
C910 C909 1.394 . S
C910 C911 1.516 . S
C911 C910 1.516 . S
C911 C912 1.502 . S
C911 C913 1.561 . S
C911 C914 1.526 . S
C912 H896 0.959 1_554 S
C912 H897 0.959 . S
C912 H898 0.961 . S
C912 C911 1.502 . S
C913 H899 0.960 . S
C913 H900 0.961 . S
C913 H901 0.959 . S
C913 C911 1.561 . S
C914 C911 1.526 . S
C914 C915 1.396 . S
C914 C919 1.390 . S
C915 C909 1.465 . S
C915 C914 1.396 . S
C915 C916 1.399 . S
C916 H902 0.929 . S
C916 C915 1.399 . S
C916 C917 1.385 . S
C917 H903 0.931 . S
C917 C916 1.385 . S
C917 C918 1.389 . S
C918 C917 1.389 . S
C918 C919 1.387 . S
C919 H904 0.930 . S
C919 C914 1.390 . S
C919 C918 1.387 . S
H920 C932 0.930 . S
H921 C934 0.930 . S
H922 C935 0.930 . S
H923 C939 0.959 . S
H924 C939 0.959 . S
H925 C939 0.961 . S
H926 C940 0.960 1_554 S
H927 C940 0.958 1_554 S
H928 C940 0.959 . S
H929 C943 0.929 . S
H930 C944 0.931 . S
H931 C946 0.930 . S
C932 H920 0.930 . S
C932 C933 1.399 . S
C932 C937 1.399 . S
C933 C932 1.399 . S
C933 C934 1.376 . S
C934 H921 0.930 . S
C934 C933 1.376 . S
C934 C935 1.388 . S
C935 H922 0.930 . S
C935 C934 1.388 . S
C935 C936 1.390 . S
C936 C935 1.390 . S
C936 C937 1.394 . S
C936 C942 1.465 . S
C937 C932 1.399 . S
C937 C936 1.394 . S
C937 C938 1.516 . S
C938 C937 1.516 . S
C938 C939 1.502 . S
C938 C940 1.561 . S
C938 C941 1.526 . S
C939 H923 0.959 . S
C939 H924 0.959 . S
C939 H925 0.961 . S
C939 C938 1.502 . S
C940 H926 0.960 1_556 S
C940 H927 0.958 1_556 S
C940 H928 0.959 . S
C940 C938 1.561 . S
C941 C938 1.526 . S
C941 C942 1.396 . S
C941 C946 1.390 . S
C942 C936 1.465 . S
C942 C941 1.396 . S
C942 C943 1.399 . S
C943 H929 0.929 . S
C943 C942 1.399 . S
C943 C944 1.385 . S
C944 H930 0.931 . S
C944 C943 1.385 . S
C944 C945 1.389 . S
C945 C944 1.389 . S
C945 C946 1.387 . S
C946 H931 0.930 . S
C946 C941 1.390 . S
C946 C945 1.387 . S
H947 C959 0.930 . S
H948 C961 0.930 . S
H949 C962 0.930 . S
H950 C966 0.959 . S
H951 C966 0.959 . S
H952 C966 0.961 . S
H953 C967 0.960 1_554 S
H954 C967 0.961 . S
H955 C967 0.959 . S
H956 C970 0.929 . S
H957 C971 0.931 . S
H958 C973 0.930 . S
C959 H947 0.930 . S
C959 C960 1.399 . S
C959 C964 1.399 . S
C960 C959 1.399 . S
C960 C961 1.376 . S
C961 H948 0.930 . S
C961 C960 1.376 . S
C961 C962 1.388 . S
C962 H949 0.930 . S
C962 C961 1.388 . S
C962 C963 1.390 . S
C963 C962 1.390 . S
C963 C964 1.394 . S
C963 C969 1.465 . S
C964 C959 1.399 . S
C964 C963 1.394 . S
C964 C965 1.516 . S
C965 C964 1.516 . S
C965 C966 1.502 . S
C965 C967 1.561 . S
C965 C968 1.526 . S
C966 H950 0.959 . S
C966 H951 0.959 . S
C966 H952 0.961 . S
C966 C965 1.502 . S
C967 H953 0.960 1_556 S
C967 H954 0.961 . S
C967 H955 0.959 . S
C967 C965 1.561 . S
C968 C965 1.526 . S
C968 C969 1.396 . S
C968 C973 1.390 . S
C969 C963 1.465 . S
C969 C968 1.396 . S
C969 C970 1.399 . S
C970 H956 0.929 . S
C970 C969 1.399 . S
C970 C971 1.385 . S
C971 H957 0.931 . S
C971 C970 1.385 . S
C971 C972 1.389 . S
C972 C971 1.389 . S
C972 C973 1.387 . S
C973 H958 0.930 . S
C973 C968 1.390 . S
C973 C972 1.387 . S
H974 C986 0.930 . S
H975 C988 0.930 . S
H976 C989 0.930 . S
H977 C993 0.959 . S
H978 C993 0.959 . S
H979 C993 0.961 . S
H980 C994 0.960 1_554 S
H981 C994 0.961 1_554 S
H982 C994 0.959 . S
H983 C997 0.929 . S
H984 C998 0.931 . S
H985 C1000 0.930 . S
C986 H974 0.930 . S
C986 C987 1.399 . S
C986 C991 1.399 . S
C987 C986 1.399 . S
C987 C988 1.376 . S
C988 H975 0.930 . S
C988 C987 1.376 . S
C988 C989 1.388 . S
C989 H976 0.930 . S
C989 C988 1.388 . S
C989 C990 1.390 . S
C990 C989 1.390 . S
C990 C991 1.394 . S
C990 C996 1.465 . S
C991 C986 1.399 . S
C991 C990 1.394 . S
C991 C992 1.516 . S
C992 C991 1.516 . S
C992 C993 1.502 . S
C992 C994 1.561 . S
C992 C995 1.526 . S
C993 H977 0.959 . S
C993 H978 0.959 . S
C993 H979 0.961 . S
C993 C992 1.502 . S
C994 H980 0.960 1_556 S
C994 H981 0.961 1_556 S
C994 H982 0.959 . S
C994 C992 1.561 . S
C995 C992 1.526 . S
C995 C996 1.396 . S
C995 C1000 1.390 . S
C996 C990 1.465 . S
C996 C995 1.396 . S
C996 C997 1.399 . S
C997 H983 0.929 . S
C997 C996 1.399 . S
C997 C998 1.385 . S
C998 H984 0.931 . S
C998 C997 1.385 . S
C998 C999 1.389 . S
C999 C998 1.389 . S
C999 C1000 1.387 . S
C1000 H985 0.930 . S
C1000 C995 1.390 . S
C1000 C999 1.387 . S
H1001 C1013 0.930 . S
H1002 C1015 0.930 . S
H1003 C1016 0.930 . S
H1004 C1020 0.959 . S
H1005 C1020 0.959 . S
H1006 C1020 0.961 . S
H1007 C1021 0.960 . S
H1008 C1021 0.961 . S
H1009 C1021 0.959 . S
H1010 C1024 0.929 . S
H1011 C1025 0.931 . S
H1012 C1027 0.930 . S
C1013 H1001 0.930 . S
C1013 C1014 1.399 . S
C1013 C1018 1.399 . S
C1014 C1013 1.399 . S
C1014 C1015 1.376 . S
C1015 H1002 0.930 . S
C1015 C1014 1.376 . S
C1015 C1016 1.388 . S
C1016 H1003 0.930 . S
C1016 C1015 1.388 . S
C1016 C1017 1.390 . S
C1017 C1016 1.390 . S
C1017 C1018 1.394 . S
C1017 C1023 1.465 . S
C1018 C1013 1.399 . S
C1018 C1017 1.394 . S
C1018 C1019 1.516 . S
C1019 C1018 1.516 . S
C1019 C1020 1.502 . S
C1019 C1021 1.561 . S
C1019 C1022 1.526 . S
C1020 H1004 0.959 . S
C1020 H1005 0.959 . S
C1020 H1006 0.961 . S
C1020 C1019 1.502 . S
C1021 H1007 0.960 . S
C1021 H1008 0.961 . S
C1021 H1009 0.959 . S
C1021 C1019 1.561 . S
C1022 C1019 1.526 . S
C1022 C1023 1.396 . S
C1022 C1027 1.390 . S
C1023 C1017 1.465 . S
C1023 C1022 1.396 . S
C1023 C1024 1.399 . S
C1024 H1010 0.929 . S
C1024 C1023 1.399 . S
C1024 C1025 1.385 . S
C1025 H1011 0.931 . S
C1025 C1024 1.385 . S
C1025 C1026 1.389 . S
C1026 C1025 1.389 . S
C1026 C1027 1.387 . S
C1027 H1012 0.930 . S
C1027 C1022 1.390 . S
C1027 C1026 1.387 . S
H1028 C1040 0.930 . S
H1029 C1042 0.930 . S
H1030 C1043 0.930 1_455 S
H1031 C1047 0.959 . S
H1032 C1047 0.959 . S
H1033 C1047 0.961 . S
H1034 C1048 0.960 . S
H1035 C1048 0.961 . S
H1036 C1048 0.959 . S
H1037 C1051 0.929 . S
H1038 C1052 0.931 . S
H1039 C1054 0.930 . S
C1040 H1028 0.930 . S
C1040 C1041 1.399 . S
C1040 C1045 1.399 . S
C1041 C1040 1.399 . S
C1041 C1042 1.376 . S
C1042 H1029 0.930 . S
C1042 C1041 1.376 . S
C1042 C1043 1.388 . S
C1043 H1030 0.930 1_655 S
C1043 C1042 1.388 . S
C1043 C1044 1.390 . S
C1044 C1043 1.390 . S
C1044 C1045 1.394 . S
C1044 C1050 1.465 . S
C1045 C1040 1.399 . S
C1045 C1044 1.394 . S
C1045 C1046 1.516 . S
C1046 C1045 1.516 . S
C1046 C1047 1.502 . S
C1046 C1048 1.561 . S
C1046 C1049 1.526 . S
C1047 H1031 0.959 . S
C1047 H1032 0.959 . S
C1047 H1033 0.961 . S
C1047 C1046 1.502 . S
C1048 H1034 0.960 . S
C1048 H1035 0.961 . S
C1048 H1036 0.959 . S
C1048 C1046 1.561 . S
C1049 C1046 1.526 . S
C1049 C1050 1.396 . S
C1049 C1054 1.390 . S
C1050 C1044 1.465 . S
C1050 C1049 1.396 . S
C1050 C1051 1.399 1_655 S
C1051 H1037 0.929 . S
C1051 C1050 1.399 1_455 S
C1051 C1052 1.385 . S
C1052 H1038 0.931 . S
C1052 C1051 1.385 . S
C1052 C1053 1.389 1_455 S
C1053 C1052 1.389 1_655 S
C1053 C1054 1.387 . S
C1054 H1039 0.930 . S
C1054 C1049 1.390 . S
C1054 C1053 1.387 . S
H1055 C1067 0.930 . S
H1056 C1069 0.930 1_545 S
H1057 C1070 0.930 . S
H1058 C1074 0.959 . S
H1059 C1074 0.959 . S
H1060 C1074 0.961 . S
H1061 C1075 0.960 . S
H1062 C1075 0.961 . S
H1063 C1075 0.959 . S
H1064 C1078 0.929 . S
H1065 C1079 0.931 . S
H1066 C1081 0.930 . S
C1067 H1055 0.930 . S
C1067 C1068 1.399 . S
C1067 C1072 1.399 . S
C1068 C1067 1.399 . S
C1068 C1069 1.376 . S
C1069 H1056 0.930 1_565 S
C1069 C1068 1.376 . S
C1069 C1070 1.388 1_565 S
C1070 H1057 0.930 . S
C1070 C1069 1.388 1_545 S
C1070 C1071 1.390 1_545 S
C1071 C1070 1.390 1_565 S
C1071 C1072 1.394 . S
C1071 C1077 1.465 . S
C1072 C1067 1.399 . S
C1072 C1071 1.394 . S
C1072 C1073 1.516 . S
C1073 C1072 1.516 . S
C1073 C1074 1.502 . S
C1073 C1075 1.561 . S
C1073 C1076 1.526 . S
C1074 H1058 0.959 . S
C1074 H1059 0.959 . S
C1074 H1060 0.961 . S
C1074 C1073 1.502 . S
C1075 H1061 0.960 . S
C1075 H1062 0.961 . S
C1075 H1063 0.959 . S
C1075 C1073 1.561 . S
C1076 C1073 1.526 . S
C1076 C1077 1.396 . S
C1076 C1081 1.390 . S
C1077 C1071 1.465 . S
C1077 C1076 1.396 . S
C1077 C1078 1.399 1_565 S
C1078 H1064 0.929 . S
C1078 C1077 1.399 1_545 S
C1078 C1079 1.385 . S
C1079 H1065 0.931 . S
C1079 C1078 1.385 . S
C1079 C1080 1.389 1_545 S
C1080 C1079 1.389 1_565 S
C1080 C1081 1.387 . S
C1081 H1066 0.930 . S
C1081 C1076 1.390 . S
C1081 C1080 1.387 . S
H1082 C1094 0.930 . S
H1083 C1096 0.930 . S
H1084 C1097 0.930 . S
H1085 C1101 0.959 . S
H1086 C1101 0.959 . S
H1087 C1101 0.961 . S
H1088 C1102 0.960 . S
H1089 C1102 0.961 . S
H1090 C1102 0.959 . S
H1091 C1105 0.929 . S
H1092 C1106 0.931 . S
H1093 C1108 0.930 . S
C1094 H1082 0.930 . S
C1094 C1095 1.399 . S
C1094 C1099 1.399 . S
C1095 C1094 1.399 . S
C1095 C1096 1.376 . S
C1096 H1083 0.930 . S
C1096 C1095 1.376 . S
C1096 C1097 1.388 . S
C1097 H1084 0.930 . S
C1097 C1096 1.388 . S
C1097 C1098 1.390 . S
C1098 C1097 1.390 . S
C1098 C1099 1.394 . S
C1098 C1104 1.465 . S
C1099 C1094 1.399 . S
C1099 C1098 1.394 . S
C1099 C1100 1.516 . S
C1100 C1099 1.516 . S
C1100 C1101 1.502 . S
C1100 C1102 1.561 . S
C1100 C1103 1.526 . S
C1101 H1085 0.959 . S
C1101 H1086 0.959 . S
C1101 H1087 0.961 . S
C1101 C1100 1.502 . S
C1102 H1088 0.960 . S
C1102 H1089 0.961 . S
C1102 H1090 0.959 . S
C1102 C1100 1.561 . S
C1103 C1100 1.526 . S
C1103 C1104 1.396 . S
C1103 C1108 1.390 . S
C1104 C1098 1.465 . S
C1104 C1103 1.396 . S
C1104 C1105 1.399 . S
C1105 H1091 0.929 . S
C1105 C1104 1.399 . S
C1105 C1106 1.385 . S
C1106 H1092 0.931 . S
C1106 C1105 1.385 . S
C1106 C1107 1.389 . S
C1107 C1106 1.389 . S
C1107 C1108 1.387 . S
C1108 H1093 0.930 . S
C1108 C1103 1.390 . S
C1108 C1107 1.387 . S
H1109 C1121 0.930 . S
H1110 C1123 0.930 . S
H1111 C1124 0.930 . S
H1112 C1128 0.959 . S
H1113 C1128 0.959 . S
H1114 C1128 0.961 . S
H1115 C1129 0.960 . S
H1116 C1129 0.961 . S
H1117 C1129 0.959 . S
H1118 C1132 0.929 . S
H1119 C1133 0.931 . S
H1120 C1135 0.930 . S
C1121 H1109 0.930 . S
C1121 C1122 1.399 . S
C1121 C1126 1.399 . S
C1122 C1121 1.399 . S
C1122 C1123 1.376 . S
C1123 H1110 0.930 . S
C1123 C1122 1.376 . S
C1123 C1124 1.388 . S
C1124 H1111 0.930 . S
C1124 C1123 1.388 . S
C1124 C1125 1.390 . S
C1125 C1124 1.390 . S
C1125 C1126 1.394 . S
C1125 C1131 1.465 . S
C1126 C1121 1.399 . S
C1126 C1125 1.394 . S
C1126 C1127 1.516 . S
C1127 C1126 1.516 . S
C1127 C1128 1.502 . S
C1127 C1129 1.561 . S
C1127 C1130 1.526 . S
C1128 H1112 0.959 . S
C1128 H1113 0.959 . S
C1128 H1114 0.961 . S
C1128 C1127 1.502 . S
C1129 H1115 0.960 . S
C1129 H1116 0.961 . S
C1129 H1117 0.959 . S
C1129 C1127 1.561 . S
C1130 C1127 1.526 . S
C1130 C1131 1.396 . S
C1130 C1135 1.390 . S
C1131 C1125 1.465 . S
C1131 C1130 1.396 . S
C1131 C1132 1.399 . S
C1132 H1118 0.929 . S
C1132 C1131 1.399 . S
C1132 C1133 1.385 . S
C1133 H1119 0.931 . S
C1133 C1132 1.385 . S
C1133 C1134 1.389 . S
C1134 C1133 1.389 . S
C1134 C1135 1.387 . S
C1135 H1120 0.930 . S
C1135 C1130 1.390 . S
C1135 C1134 1.387 . S
C501 C125 1.919 . S
C513 C227 1.962 . S
C540 C311 1.949 . S
C528 C144 1.870 . S
C567 C387 1.927 . S
C555 C87 1.959 . S
C594 C471 1.869 . S
C582 C106 2.006 . S
C621 C218 1.943 1_565 S
C609 C49 1.977 . S
C636 C68 2.015 . S
C648 C302 1.964 . S
C663 C11 2.097 . S
C675 C376 1.959 . S
C690 C30 2.079 . S
C702 C460 1.946 . S
C729 C215 0.770 1_455 S
C717 C97 0.693 . S
C756 C299 0.775 . S
C744 C116 0.755 . S
C783 C392 0.559 . S
C771 C135 0.569 . S
C798 C78 0.706 . S
C810 C476 0.717 . S
C825 C21 0.732 . S
C837 C224 0.762 1_554 S
C864 C308 0.595 1_554 S
C852 C40 0.572 . S
C891 C383 0.590 . S
C879 C59 0.616 . S
C906 C2 0.601 . S
C918 C467 0.627 . S
C933 C101 2.041 . S
C945 C208 2.023 . S
C960 C120 2.007 . S
C972 C292 1.992 . S
C999 C386 2.067 . S
C987 C139 1.921 . S
C1026 C470 2.098 . S
C1014 C82 1.888 . S
C1041 C25 2.010 . S
C1053 C219 2.055 . S
C1080 C303 1.996 1_565 S
C1068 C44 2.020 . S
C1107 C395 2.089 . S
C1095 C63 1.950 . S
C1122 C6 1.985 . S
C1134 C479 2.104 . S
