# Generated by pormake.
# Topology ctn, (3,4)-cn, num edge types: 1
# Building blocks:
#     Node 0, Type 0, BuildingBlock: VETTIZ_charged_linker_0, # of connection points: 3
#     Node 1, Type 0, BuildingBlock: VETTIZ_charged_linker_0, # of connection points: 3
#     Node 2, Type 0, BuildingBlock: VETTIZ_charged_linker_0, # of connection points: 3
#     Node 3, Type 0, BuildingBlock: VETTIZ_charged_linker_0, # of connection points: 3
#     Node 4, Type 0, BuildingBlock: VETTIZ_charged_linker_0, # of connection points: 3
#     Node 5, Type 0, BuildingBlock: VETTIZ_charged_linker_0, # of connection points: 3
#     Node 6, Type 0, BuildingBlock: VETTIZ_charged_linker_0, # of connection points: 3
#     Node 7, Type 0, BuildingBlock: VETTIZ_charged_linker_0, # of connection points: 3
#     Node 8, Type 0, BuildingBlock: VETTIZ_charged_linker_0, # of connection points: 3
#     Node 9, Type 0, BuildingBlock: VETTIZ_charged_linker_0, # of connection points: 3
#     Node 10, Type 0, BuildingBlock: VETTIZ_charged_linker_0, # of connection points: 3
#     Node 11, Type 0, BuildingBlock: VETTIZ_charged_linker_0, # of connection points: 3
#     Node 12, Type 0, BuildingBlock: VETTIZ_charged_linker_0, # of connection points: 3
#     Node 13, Type 0, BuildingBlock: VETTIZ_charged_linker_0, # of connection points: 3
#     Node 14, Type 0, BuildingBlock: VETTIZ_charged_linker_0, # of connection points: 3
#     Node 15, Type 0, BuildingBlock: VETTIZ_charged_linker_0, # of connection points: 3
#     Node 16, Type 1, BuildingBlock: TATPOV_clean_sbu_0, # of connection points: 4
#     Node 17, Type 1, BuildingBlock: TATPOV_clean_sbu_0, # of connection points: 4
#     Node 18, Type 1, BuildingBlock: TATPOV_clean_sbu_0, # of connection points: 4
#     Node 19, Type 1, BuildingBlock: TATPOV_clean_sbu_0, # of connection points: 4
#     Node 20, Type 1, BuildingBlock: TATPOV_clean_sbu_0, # of connection points: 4
#     Node 21, Type 1, BuildingBlock: TATPOV_clean_sbu_0, # of connection points: 4
#     Node 22, Type 1, BuildingBlock: TATPOV_clean_sbu_0, # of connection points: 4
#     Node 23, Type 1, BuildingBlock: TATPOV_clean_sbu_0, # of connection points: 4
#     Node 24, Type 1, BuildingBlock: TATPOV_clean_sbu_0, # of connection points: 4
#     Node 25, Type 1, BuildingBlock: TATPOV_clean_sbu_0, # of connection points: 4
#     Node 26, Type 1, BuildingBlock: TATPOV_clean_sbu_0, # of connection points: 4
#     Node 27, Type 1, BuildingBlock: TATPOV_clean_sbu_0, # of connection points: 4
#     Edge 28, Type (0, 1), BuildingBlock: XIVTED_clean_linker_0, # of connection points: 2
#     Edge 29, Type (0, 1), BuildingBlock: XIVTED_clean_linker_0, # of connection points: 2
#     Edge 30, Type (0, 1), BuildingBlock: XIVTED_clean_linker_0, # of connection points: 2
#     Edge 31, Type (0, 1), BuildingBlock: XIVTED_clean_linker_0, # of connection points: 2
#     Edge 32, Type (0, 1), BuildingBlock: XIVTED_clean_linker_0, # of connection points: 2
#     Edge 33, Type (0, 1), BuildingBlock: XIVTED_clean_linker_0, # of connection points: 2
#     Edge 34, Type (0, 1), BuildingBlock: XIVTED_clean_linker_0, # of connection points: 2
#     Edge 35, Type (0, 1), BuildingBlock: XIVTED_clean_linker_0, # of connection points: 2
#     Edge 36, Type (0, 1), BuildingBlock: XIVTED_clean_linker_0, # of connection points: 2
#     Edge 37, Type (0, 1), BuildingBlock: XIVTED_clean_linker_0, # of connection points: 2
#     Edge 38, Type (0, 1), BuildingBlock: XIVTED_clean_linker_0, # of connection points: 2
#     Edge 39, Type (0, 1), BuildingBlock: XIVTED_clean_linker_0, # of connection points: 2
#     Edge 40, Type (0, 1), BuildingBlock: XIVTED_clean_linker_0, # of connection points: 2
#     Edge 41, Type (0, 1), BuildingBlock: XIVTED_clean_linker_0, # of connection points: 2
#     Edge 42, Type (0, 1), BuildingBlock: XIVTED_clean_linker_0, # of connection points: 2
#     Edge 43, Type (0, 1), BuildingBlock: XIVTED_clean_linker_0, # of connection points: 2
#     Edge 44, Type (0, 1), BuildingBlock: XIVTED_clean_linker_0, # of connection points: 2
#     Edge 45, Type (0, 1), BuildingBlock: XIVTED_clean_linker_0, # of connection points: 2
#     Edge 46, Type (0, 1), BuildingBlock: XIVTED_clean_linker_0, # of connection points: 2
#     Edge 47, Type (0, 1), BuildingBlock: XIVTED_clean_linker_0, # of connection points: 2
#     Edge 48, Type (0, 1), BuildingBlock: XIVTED_clean_linker_0, # of connection points: 2
#     Edge 49, Type (0, 1), BuildingBlock: XIVTED_clean_linker_0, # of connection points: 2
#     Edge 50, Type (0, 1), BuildingBlock: XIVTED_clean_linker_0, # of connection points: 2
#     Edge 51, Type (0, 1), BuildingBlock: XIVTED_clean_linker_0, # of connection points: 2
#     Edge 52, Type (0, 1), BuildingBlock: XIVTED_clean_linker_0, # of connection points: 2
#     Edge 53, Type (0, 1), BuildingBlock: XIVTED_clean_linker_0, # of connection points: 2
#     Edge 54, Type (0, 1), BuildingBlock: XIVTED_clean_linker_0, # of connection points: 2
#     Edge 55, Type (0, 1), BuildingBlock: XIVTED_clean_linker_0, # of connection points: 2
#     Edge 56, Type (0, 1), BuildingBlock: XIVTED_clean_linker_0, # of connection points: 2
#     Edge 57, Type (0, 1), BuildingBlock: XIVTED_clean_linker_0, # of connection points: 2
#     Edge 58, Type (0, 1), BuildingBlock: XIVTED_clean_linker_0, # of connection points: 2
#     Edge 59, Type (0, 1), BuildingBlock: XIVTED_clean_linker_0, # of connection points: 2
#     Edge 60, Type (0, 1), BuildingBlock: XIVTED_clean_linker_0, # of connection points: 2
#     Edge 61, Type (0, 1), BuildingBlock: XIVTED_clean_linker_0, # of connection points: 2
#     Edge 62, Type (0, 1), BuildingBlock: XIVTED_clean_linker_0, # of connection points: 2
#     Edge 63, Type (0, 1), BuildingBlock: XIVTED_clean_linker_0, # of connection points: 2
#     Edge 64, Type (0, 1), BuildingBlock: XIVTED_clean_linker_0, # of connection points: 2
#     Edge 65, Type (0, 1), BuildingBlock: XIVTED_clean_linker_0, # of connection points: 2
#     Edge 66, Type (0, 1), BuildingBlock: XIVTED_clean_linker_0, # of connection points: 2
#     Edge 67, Type (0, 1), BuildingBlock: XIVTED_clean_linker_0, # of connection points: 2
#     Edge 68, Type (0, 1), BuildingBlock: XIVTED_clean_linker_0, # of connection points: 2
#     Edge 69, Type (0, 1), BuildingBlock: XIVTED_clean_linker_0, # of connection points: 2
#     Edge 70, Type (0, 1), BuildingBlock: XIVTED_clean_linker_0, # of connection points: 2
#     Edge 71, Type (0, 1), BuildingBlock: XIVTED_clean_linker_0, # of connection points: 2
#     Edge 72, Type (0, 1), BuildingBlock: XIVTED_clean_linker_0, # of connection points: 2
#     Edge 73, Type (0, 1), BuildingBlock: XIVTED_clean_linker_0, # of connection points: 2
#     Edge 74, Type (0, 1), BuildingBlock: XIVTED_clean_linker_0, # of connection points: 2
#     Edge 75, Type (0, 1), BuildingBlock: XIVTED_clean_linker_0, # of connection points: 2
# Relax obj value: 0.003
# Max RMSD: 0.048
# Mean RMSD: 0.021
data_MOF--net-ctn--node1-TATPOV_clean_sbu_0--node2-VETTIZ_charged_linker_0--edge1-XIVTED_clean_linker_0
_symmetry_space_group_name_H-M    P1
_symmetry_Int_Tables_number       1
_symmetry_cell_setting            triclinic
loop_
_symmetry_equiv_pos_as_xyz
'x, y, z'
_cell_length_a     67.156139
_cell_length_b     67.070152
_cell_length_c     67.090817
_cell_angle_alpha  91.00245
_cell_angle_beta   91.005958
_cell_angle_gamma 90.963722
loop_
_atom_site_label
_atom_site_type_symbol
_atom_site_fract_x
_atom_site_fract_y
_atom_site_fract_z
_atom_type_partial_charge
C0 C 0.02862 0.07661 0.97172 0.0
C1 C 0.01412 0.09155 0.97248 0.0
C2 C 0.00015 0.09114 0.98795 0.0
C3 C 0.01546 0.06182 0.0017 0.0
C4 C 0.02901 0.06197 0.98643 0.0
C5 C 0.04348 0.0451 0.988 0.0
H6 H 0.07608 0.96424 0.03771 0.0
C7 C 0.01997 0.04482 0.01468 0.0
C8 C 0.03634 0.03487 0.0067 0.0
H9 H 0.09987 0.98955 0.98409 0.0
H10 H 0.07489 0.015 0.98473 0.0
H11 H 0.0697 0.00573 0.06032 0.0
H12 H 0.02981 0.96804 0.02498 0.0
H13 H 0.01639 0.97685 0.04547 0.0
H14 H 0.03793 0.96164 0.04965 0.0
H15 H 0.06001 0.98248 0.06919 0.0
H16 H 0.04668 0.00541 0.0723 0.0
C17 C 0.06471 0.0542 0.99087 0.0
C18 C 0.04073 0.03153 0.96922 0.0
C19 C 0.97899 0.03336 0.07664 0.0
C20 C 0.97961 0.01894 0.09163 0.0
C21 C 0.99379 0.00371 0.09034 0.0
C22 C 0.00721 0.00296 0.07458 0.0
C23 C 0.00652 0.01759 0.05983 0.0
C24 C 0.99249 0.03238 0.06097 0.0
C25 C 0.9938 0.04654 0.04387 0.0
C26 C 0.01107 0.03794 0.03241 0.0
C27 C 0.0185 0.02103 0.04186 0.0
C28 C 0.99883 0.06762 0.05256 0.0
C29 C 0.97396 0.04502 0.03171 0.0
C30 C 0.07579 0.97512 0.02597 0.0
C31 C 0.09001 0.97481 0.01082 0.0
C32 C 0.08926 0.98953 0.99606 0.0
C33 C 0.07466 0.00426 0.9964 0.0
C34 C 0.06062 0.0044 0.0117 0.0
C35 C 0.06136 0.98997 0.02614 0.0
C36 C 0.04547 0.99257 0.04144 0.0
C37 C 0.03499 0.01087 0.03377 0.0
C38 C 0.0439 0.01776 0.01632 0.0
C39 C 0.05584 0.99663 0.06197 0.0
C40 C 0.03167 0.97381 0.04057 0.0
H41 H 0.98971 0.07706 0.01384 0.0
H42 H 0.03967 0.07651 0.96016 0.0
H43 H 0.02473 0.03024 0.9647 0.0
H44 H 0.0454 0.01605 0.97167 0.0
H45 H 0.04899 0.03766 0.95643 0.0
H46 H 0.06444 0.06795 0.00038 0.0
H47 H 0.07116 0.0583 0.97635 0.0
H48 H 0.07501 0.04421 0.9987 0.0
H49 H 0.96811 0.0451 0.07699 0.0
H50 H 0.99477 0.99254 0.10176 0.0
H51 H 0.0177 0.99108 0.07456 0.0
H52 H 0.00955 0.06676 0.06534 0.0
H53 H 0.98524 0.07501 0.05805 0.0
H54 H 0.00621 0.07744 0.04182 0.0
H55 H 0.96741 0.02969 0.03217 0.0
H56 H 0.97591 0.04784 0.01568 0.0
H57 H 0.96278 0.05543 0.03773 0.0
H58 H 0.98856 0.10215 0.98873 0.0
C59 C 0.00075 0.07644 0.0025 0.0
C60 C 0.22717 0.65362 0.25344 0.0
C61 C 0.20965 0.64872 0.24255 0.0
C62 C 0.20452 0.66027 0.2259 0.0
C63 C 0.23388 0.68141 0.23166 0.0
C64 C 0.23895 0.66989 0.24781 0.0
C65 C 0.25796 0.6769 0.25798 0.0
H66 H 0.33557 0.74225 0.26357 0.0
C67 C 0.24921 0.69743 0.23011 0.0
C68 C 0.26331 0.69481 0.24558 0.0
H69 H 0.32458 0.69153 0.301 0.0
H70 H 0.2942 0.68378 0.28239 0.0
H71 H 0.29243 0.75813 0.26339 0.0
H72 H 0.32292 0.72013 0.2223 0.0
H73 H 0.30951 0.73724 0.20806 0.0
H74 H 0.32837 0.74629 0.22552 0.0
H75 H 0.30888 0.76807 0.24514 0.0
H76 H 0.28266 0.7638 0.23978 0.0
C77 C 0.25321 0.68297 0.27975 0.0
C78 C 0.27344 0.66011 0.25599 0.0
C79 C 0.24633 0.74783 0.17385 0.0
C80 C 0.25894 0.76403 0.16908 0.0
C81 C 0.2746 0.76956 0.18242 0.0
C82 C 0.27843 0.75862 0.19953 0.0
C83 C 0.2665 0.74186 0.20355 0.0
C84 C 0.2504 0.73698 0.19118 0.0
C85 C 0.23909 0.71895 0.19849 0.0
C86 C 0.25152 0.71356 0.21677 0.0
C87 C 0.26764 0.727 0.21946 0.0
C88 C 0.21792 0.72557 0.20411 0.0
C89 C 0.23947 0.70245 0.1821 0.0
C90 C 0.32654 0.72959 0.26795 0.0
C91 C 0.33248 0.71756 0.28388 0.0
C92 C 0.32045 0.70096 0.28871 0.0
C93 C 0.30275 0.69655 0.27793 0.0
C94 C 0.29702 0.70881 0.26208 0.0
C95 C 0.3089 0.72498 0.25736 0.0
C96 C 0.30074 0.73627 0.23996 0.0
C97 C 0.28196 0.72419 0.23494 0.0
C98 C 0.27984 0.70815 0.2479 0.0
C99 C 0.29602 0.75774 0.24726 0.0
C100 C 0.31612 0.73514 0.22302 0.0
H101 H 0.2118 0.68486 0.20768 0.0
H102 H 0.2318 0.64484 0.26605 0.0
H103 H 0.27125 0.65162 0.2417 0.0
H104 H 0.28893 0.66586 0.25555 0.0
H105 H 0.27213 0.64933 0.2683 0.0
H106 H 0.23859 0.6905 0.28047 0.0
H107 H 0.25245 0.66971 0.28941 0.0
H108 H 0.26406 0.69386 0.28633 0.0
H109 H 0.23409 0.74328 0.16398 0.0
H110 H 0.28419 0.78227 0.17942 0.0
H111 H 0.29083 0.76346 0.20876 0.0
H112 H 0.21833 0.74082 0.21093 0.0
H113 H 0.20793 0.72586 0.19075 0.0
H114 H 0.21108 0.71604 0.21545 0.0
H115 H 0.25443 0.70181 0.17527 0.0
H116 H 0.23663 0.68739 0.18788 0.0
H117 H 0.22842 0.70535 0.17003 0.0
H118 H 0.19106 0.65687 0.21729 0.0
C119 C 0.21651 0.6766 0.22043 0.0
C120 C 0.98079 0.37583 0.01542 0.0
C121 C 0.9689 0.37319 0.99801 0.0
C122 C 0.95443 0.38758 0.99361 0.0
C123 C 0.9634 0.4063 0.02366 0.0
C124 C 0.97784 0.3925 0.02792 0.0
C125 C 0.98948 0.398 0.04669 0.0
H126 H 0.00534 0.46235 0.12471 0.0
C127 C 0.96407 0.42183 0.03951 0.0
C128 C 0.97939 0.41717 0.05304 0.0
H129 H 0.03768 0.40886 0.11064 0.0
H130 H 0.01647 0.40276 0.08164 0.0
H131 H 0.96293 0.4439 0.11634 0.0
H132 H 0.00153 0.47815 0.07891 0.0
H133 H 0.97731 0.48755 0.07651 0.0
H134 H 0.98975 0.48842 0.10052 0.0
H135 H 0.96564 0.47045 0.1192 0.0
H136 H 0.94751 0.4592 0.10207 0.0
C137 C 0.98631 0.38121 0.06192 0.0
C138 C 0.0115 0.40168 0.04105 0.0
C139 C 0.91457 0.47813 0.03741 0.0
C140 C 0.9108 0.49439 0.05026 0.0
C141 C 0.92268 0.49705 0.06769 0.0
C142 C 0.93803 0.48381 0.07216 0.0
C143 C 0.94155 0.46765 0.05911 0.0
C144 C 0.92978 0.46497 0.04217 0.0
C145 C 0.93528 0.44679 0.03022 0.0
C146 C 0.95237 0.43898 0.04275 0.0
C147 C 0.95607 0.45132 0.05955 0.0
C148 C 0.91709 0.43223 0.02967 0.0
C149 C 0.94223 0.45363 0.00945 0.0
C150 C 0.00806 0.44949 0.11521 0.0
C151 C 0.0233 0.43616 0.11987 0.0
C152 C 0.02598 0.41931 0.1074 0.0
C153 C 0.0137 0.41583 0.09053 0.0
C154 C 0.99851 0.42931 0.08609 0.0
C155 C 0.99589 0.44578 0.09838 0.0
C156 C 0.97878 0.4583 0.09165 0.0
C157 C 0.97177 0.44685 0.07308 0.0
C158 C 0.98336 0.42988 0.06987 0.0
C159 C 0.96286 0.45817 0.10813 0.0
C160 C 0.9871 0.47929 0.08672 0.0
H161 H 0.94034 0.41429 0.00201 0.0
H162 H 0.99207 0.36517 0.01933 0.0
H163 H 0.01251 0.40854 0.02611 0.0
H164 H 0.01939 0.41232 0.05127 0.0
H165 H 0.01978 0.38748 0.04052 0.0
H166 H 0.97063 0.37558 0.06128 0.0
H167 H 0.99611 0.36841 0.05876 0.0
H168 H 0.98885 0.3863 0.07751 0.0
H169 H 0.90607 0.47574 0.02369 0.0
H170 H 0.92001 0.50927 0.07801 0.0
H171 H 0.94653 0.48665 0.08563 0.0
H172 H 0.90918 0.43266 0.04411 0.0
H173 H 0.90623 0.43624 0.01779 0.0
H174 H 0.92122 0.41649 0.02757 0.0
H175 H 0.94952 0.46865 0.01043 0.0
H176 H 0.95366 0.44387 0.00303 0.0
H177 H 0.92947 0.45452 0.99877 0.0
H178 H 0.94545 0.38643 0.98006 0.0
C179 C 0.95158 0.40397 0.00632 0.0
C180 C 0.67626 0.76493 0.2669 0.0
C181 C 0.66246 0.74907 0.26431 0.0
C182 C 0.66633 0.73392 0.25013 0.0
C183 C 0.69644 0.75152 0.24033 0.0
C184 C 0.693 0.76587 0.25483 0.0
C185 C 0.7085 0.78229 0.25521 0.0
H186 H 0.78952 0.82567 0.21474 0.0
C187 C 0.71453 0.75769 0.22954 0.0
C188 C 0.72169 0.77565 0.23832 0.0
H189 H 0.75583 0.84587 0.2654 0.0
H190 H 0.73455 0.81676 0.2625 0.0
H191 H 0.75109 0.8113 0.18798 0.0
H192 H 0.79108 0.78029 0.22693 0.0
H193 H 0.78538 0.76391 0.20688 0.0
H194 H 0.798 0.78733 0.20229 0.0
H195 H 0.77651 0.80652 0.18191 0.0
H196 H 0.75685 0.78863 0.17611 0.0
C197 C 0.69797 0.80214 0.25062 0.0
C198 C 0.71961 0.78202 0.27566 0.0
C199 C 0.73689 0.7179 0.1688 0.0
C200 C 0.75255 0.72069 0.15538 0.0
C201 C 0.7661 0.73674 0.15876 0.0
C202 C 0.76386 0.75004 0.17482 0.0
C203 C 0.74785 0.7474 0.18775 0.0
C204 C 0.73484 0.73139 0.18482 0.0
C205 C 0.71879 0.73096 0.20023 0.0
C206 C 0.72427 0.74942 0.21274 0.0
C207 C 0.74124 0.75904 0.20524 0.0
C208 C 0.69842 0.73298 0.18936 0.0
C209 C 0.72091 0.7116 0.21228 0.0
C210 C 0.77748 0.82387 0.22511 0.0
C211 C 0.77444 0.83813 0.24035 0.0
C212 C 0.75873 0.83502 0.25371 0.0
C213 C 0.74627 0.81813 0.25192 0.0
C214 C 0.74937 0.80411 0.23655 0.0
C215 C 0.76484 0.80702 0.22354 0.0
C216 C 0.76592 0.79043 0.20823 0.0
C217 C 0.74851 0.77716 0.21417 0.0
C218 C 0.73883 0.78534 0.23068 0.0
C219 C 0.76257 0.79954 0.18739 0.0
C220 C 0.78616 0.77993 0.211 0.0
H221 H 0.68516 0.72331 0.2273 0.0
H222 H 0.67389 0.77665 0.27788 0.0
H223 H 0.72059 0.76657 0.28133 0.0
H224 H 0.73525 0.78729 0.27485 0.0
H225 H 0.7118 0.7911 0.28701 0.0
H226 H 0.68567 0.79969 0.23947 0.0
H227 H 0.69143 0.80872 0.26428 0.0
H228 H 0.70788 0.81334 0.24388 0.0
H229 H 0.72616 0.70578 0.16662 0.0
H230 H 0.77855 0.73901 0.14895 0.0
H231 H 0.77462 0.76198 0.17645 0.0
H232 H 0.69947 0.744 0.1772 0.0
H233 H 0.69337 0.7185 0.18256 0.0
H234 H 0.68665 0.73857 0.19914 0.0
H235 H 0.73685 0.70764 0.21419 0.0
H236 H 0.71531 0.7131 0.22761 0.0
H237 H 0.71312 0.69883 0.20459 0.0
H238 H 0.65588 0.72158 0.24783 0.0
C239 C 0.68324 0.73506 0.23813 0.0
C240 C 0.05221 0.91803 0.47646 0.0
C241 C 0.03398 0.90731 0.47578 0.0
C242 C 0.01937 0.91253 0.46151 0.0
C243 C 0.04102 0.9385 0.44906 0.0
C244 C 0.05534 0.93355 0.46306 0.0
C245 C 0.07352 0.94693 0.4622 0.0
H246 H 0.12121 0.02535 0.42085 0.0
C247 C 0.0488 0.95539 0.43752 0.0
C248 C 0.06782 0.96045 0.44514 0.0
H249 H 0.14037 0.99015 0.47083 0.0
H250 H 0.1107 0.96956 0.46741 0.0
H251 H 0.07514 0.02799 0.43394 0.0
H252 H 0.1047 0.98819 0.39332 0.0
H253 H 0.08146 0.99389 0.38261 0.0
H254 H 0.09974 0.01358 0.38715 0.0
H255 H 0.08542 0.0361 0.41084 0.0
H256 H 0.06066 0.02554 0.41189 0.0
C257 C 0.07568 0.95854 0.48236 0.0
C258 C 0.09157 0.93387 0.457 0.0
C259 C 0.0056 0.98488 0.38319 0.0
C260 C 0.00855 0.00034 0.36966 0.0
C261 C 0.02724 0.01017 0.36925 0.0
C262 C 0.04255 0.00512 0.3827 0.0
C263 C 0.03913 0.99 0.3966 0.0
C264 C 0.02101 0.97991 0.39635 0.0
C265 C 0.02012 0.96381 0.4116 0.0
C266 C 0.04053 0.96614 0.42143 0.0
C267 C 0.05156 0.98162 0.41276 0.0
C268 C 0.00322 0.9688 0.42624 0.0
C269 C 0.0175 0.94348 0.40041 0.0
C270 C 0.11905 0.01309 0.43094 0.0
C271 C 0.13309 0.0094 0.44619 0.0
C272 C 0.12964 0.99345 0.45915 0.0
C273 C 0.11243 0.98146 0.45709 0.0
C274 C 0.09838 0.98552 0.44201 0.0
C275 C 0.10181 0.00108 0.42921 0.0
C276 C 0.08495 0.00346 0.41439 0.0
C277 C 0.07078 0.9869 0.42058 0.0
C278 C 0.0788 0.9764 0.43671 0.0
C279 C 0.07604 0.02438 0.41773 0.0
C280 C 0.09301 -0.00025 0.39319 0.0
H281 H 0.01102 0.93114 0.43777 0.0
H282 H 0.06383 0.91446 0.48713 0.0
H283 H 0.08732 0.92245 0.4454 0.0
H284 H 0.10402 0.94246 0.45064 0.0
H285 H 0.09711 0.92592 0.47032 0.0
H286 H 0.06095 0.96066 0.48937 0.0
H287 H 0.08521 0.95046 0.49312 0.0
H288 H 0.08172 0.97384 0.48067 0.0
H289 H 0.99151 0.9768 0.38356 0.0
H290 H 0.02982 0.02209 0.35887 0.0
H291 H 0.05636 0.01332 0.38193 0.0
H292 H 0.00219 0.9852 0.42874 0.0
H293 H 0.98854 0.96333 0.42032 0.0
H294 H 0.00572 0.96274 0.44126 0.0
H295 H 0.02527 0.9436 0.38589 0.0
H296 H 0.0242 0.93101 0.40855 0.0
H297 H 0.00153 0.93995 0.39724 0.0
H298 H 0.00499 0.90498 0.46088 0.0
C299 C 0.02282 0.92792 0.44814 0.0
C300 C 0.2531 0.66813 0.75959 0.0
C301 C 0.25116 0.65581 0.74249 0.0
C302 C 0.23645 0.66004 0.72802 0.0
C303 C 0.22566 0.68827 0.74793 0.0
C304 C 0.24009 0.68405 0.76212 0.0
C305 C 0.23902 0.69751 0.78023 0.0
H306 H 0.19227 0.77119 0.8303 0.0
C307 C 0.21407 0.70531 0.75548 0.0
C308 C 0.22175 0.71067 0.77448 0.0
H309 H 0.24283 0.73697 0.84985 0.0
H310 H 0.2427 0.7192 0.81839 0.0
H311 H 0.16791 0.73492 0.80867 0.0
H312 H 0.20878 0.77934 0.7873 0.0
H313 H 0.1912 0.77507 0.76799 0.0
H314 H 0.18317 0.78479 0.79176 0.0
H315 H 0.16213 0.7609 0.80716 0.0
H316 H 0.15794 0.74404 0.78626 0.0
C317 C 0.23422 0.68444 0.79843 0.0
C318 C 0.25887 0.70954 0.78219 0.0
C319 C 0.15813 0.73381 0.71299 0.0
C320 C 0.14514 0.74979 0.71603 0.0
C321 C 0.14654 0.76083 0.7341 0.0
C322 C 0.16058 0.7561 0.74886 0.0
C323 C 0.17344 0.74012 0.74563 0.0
C324 C 0.17218 0.72933 0.7279 0.0
C325 C 0.18727 0.71298 0.72709 0.0
C326 C 0.19788 0.71593 0.74715 0.0
C327 C 0.18956 0.73174 0.75798 0.0
C328 C 0.17592 0.69269 0.72552 0.0
C329 C 0.20131 0.71713 0.70952 0.0
C330 C 0.20341 0.75997 0.82778 0.0
C331 C 0.2174 0.75535 0.8428 0.0
C332 C 0.23157 0.74055 0.8388 0.0
C333 C 0.23157 0.7303 0.82042 0.0
C334 C 0.21726 0.73481 0.80575 0.0
C335 C 0.20364 0.74958 0.80947 0.0
C336 C 0.18977 0.7526 0.79199 0.0
C337 C 0.19703 0.73691 0.77735 0.0
C338 C 0.2131 0.7265 0.78551 0.0
C339 C 0.16824 0.74804 0.79874 0.0
C340 C 0.19319 0.77407 0.78434 0.0
H341 H 0.21286 0.67869 0.71905 0.0
H342 H 0.26399 0.66492 0.77116 0.0
H343 H 0.26427 0.71387 0.76726 0.0
H344 H 0.25739 0.72375 0.79056 0.0
H345 H 0.27065 0.7006 0.78942 0.0
H346 H 0.22451 0.67145 0.79397 0.0
H347 H 0.24802 0.67853 0.80532 0.0
H348 H 0.22575 0.69241 0.80996 0.0
H349 H 0.15753 0.72512 0.69923 0.0
H350 H 0.13653 0.77301 0.73698 0.0
H351 H 0.16077 0.76503 0.76228 0.0
H352 H 0.16151 0.69331 0.73344 0.0
H353 H 0.17256 0.68843 0.70973 0.0
H354 H 0.18406 0.6805 0.73274 0.0
H355 H 0.20508 0.73332 0.70881 0.0
H356 H 0.21575 0.70963 0.71096 0.0
H357 H 0.19415 0.71256 0.69506 0.0
H358 H 0.23469 0.65065 0.71477 0.0
C359 C 0.2238 0.67628 0.73056 0.0
C360 C 0.87487 0.51059 0.48557 0.0
C361 C 0.87315 0.49241 0.47483 0.0
C362 C 0.88548 0.48913 0.45837 0.0
C363 C 0.90201 0.52103 0.46442 0.0
C364 C 0.88949 0.52462 0.48018 0.0
C365 C 0.89437 0.54421 0.49063 0.0
H366 H 0.95596 0.625 0.50127 0.0
C367 C 0.91643 0.53781 0.46347 0.0
C368 C 0.91205 0.55153 0.47873 0.0
H369 H 0.90391 0.6106 0.53559 0.0
H370 H 0.8977 0.58115 0.51504 0.0
H371 H 0.93621 0.61426 0.45854 0.0
H372 H 0.9725 0.58025 0.49867 0.0
H373 H 0.98107 0.576 0.47441 0.0
H374 H 0.98224 0.60088 0.48497 0.0
H375 H 0.96242 0.61916 0.462 0.0
H376 H 0.95308 0.60081 0.44402 0.0
C377 C 0.8762 0.55795 0.48828 0.0
C378 C 0.90029 0.53986 0.51253 0.0
C379 C 0.97267 0.53401 0.41425 0.0
C380 C 0.98954 0.54609 0.41092 0.0
C381 C 0.99165 0.56447 0.42132 0.0
C382 C 0.97761 0.57023 0.4355 0.0
C383 C 0.9613 0.55747 0.43932 0.0
C384 C 0.9589 0.53989 0.42846 0.0
C385 C 0.94098 0.52795 0.43459 0.0
C386 C 0.93305 0.54114 0.45111 0.0
C387 C 0.94501 0.55836 0.45389 0.0
C388 C 0.92631 0.52634 0.41651 0.0
C389 C 0.94828 0.50764 0.44246 0.0
C390 C 0.94334 0.61539 0.5045 0.0
C391 C 0.93052 0.62005 0.52019 0.0
C392 C 0.91397 0.6074 0.52355 0.0
C393 C 0.91044 0.59025 0.51166 0.0
C394 C 0.92359 0.58565 0.49623 0.0
C395 C 0.9396 0.59826 0.49275 0.0
C396 C 0.95187 0.59123 0.47556 0.0
C397 C 0.94064 0.57227 0.46931 0.0
C398 C 0.92417 0.56897 0.48156 0.0
C399 C 0.95107 0.60716 0.45913 0.0
C400 C 0.97311 0.58694 0.48363 0.0
H401 H 0.90884 0.49976 0.44054 0.0
H402 H 0.8656 0.51347 0.49832 0.0
H403 H 0.90943 0.5262 0.51334 0.0
H404 H 0.90962 0.55176 0.51961 0.0
H405 H 0.88689 0.53741 0.52171 0.0
H406 H 0.86862 0.55539 0.47355 0.0
H407 H 0.86507 0.55509 0.5 0.0
H408 H 0.88039 0.57395 0.48859 0.0
H409 H 0.9704 0.51997 0.40624 0.0
H410 H 0.00453 0.57404 0.41903 0.0
H411 H 0.98023 0.58418 0.44326 0.0
H412 H 0.9268 0.54017 0.40759 0.0
H413 H 0.93007 0.51369 0.40645 0.0
H414 H 0.9106 0.52477 0.42095 0.0
H415 H 0.96321 0.50927 0.44982 0.0
H416 H 0.93868 0.5014 0.45408 0.0
H417 H 0.94952 0.49649 0.43012 0.0
H418 H 0.88419 0.47536 0.44971 0.0
C419 C 0.89979 0.50334 0.45306 0.0
C420 C 0.85618 0.77667 0.87715 0.0
C421 C 0.84073 0.77395 0.89081 0.0
C422 C 0.82599 0.7886 0.89233 0.0
C423 C 0.84108 0.80711 0.86567 0.0
C424 C 0.85603 0.79325 0.86474 0.0
C425 C 0.87061 0.79773 0.84856 0.0
H426 H 0.89038 0.84689 0.76436 0.0
C427 C 0.84432 0.82165 0.84972 0.0
C428 C 0.86172 0.81639 0.83975 0.0
H429 H 0.92548 0.80124 0.79245 0.0
H430 H 0.90385 0.80182 0.82068 0.0
H431 H 0.88792 0.87341 0.80377 0.0
H432 H 0.84665 0.83122 0.77609 0.0
H433 H 0.83416 0.85346 0.78206 0.0
H434 H 0.85451 0.85428 0.76519 0.0
H435 H 0.87106 0.88067 0.78431 0.0
H436 H 0.86407 0.88141 0.81021 0.0
C437 C 0.89136 0.80198 0.85836 0.0
C438 C 0.87 0.77991 0.83354 0.0
C439 C 0.7916 0.87311 0.83547 0.0
C440 C 0.78986 0.88825 0.82128 0.0
C441 C 0.80578 0.89147 0.80816 0.0
C442 C 0.82263 0.87941 0.80867 0.0
C443 C 0.82373 0.86396 0.82249 0.0
C444 C 0.80864 0.86141 0.83595 0.0
C445 C 0.8127 0.84481 0.85015 0.0
C446 C 0.83268 0.8377 0.84286 0.0
C447 C 0.83884 0.84868 0.82639 0.0
C448 C 0.81427 0.85381 0.87158 0.0
C449 C 0.79605 0.8287 0.84703 0.0
C450 C 0.89373 0.83718 0.77664 0.0
C451 C 0.90948 0.82358 0.77569 0.0
C452 C 0.91309 0.81136 0.79227 0.0
C453 C 0.90055 0.81176 0.80876 0.0
C454 C 0.88421 0.82453 0.80881 0.0
C455 C 0.8815 0.83754 0.79332 0.0
C456 C 0.8641 0.851 0.79654 0.0
C457 C 0.85624 0.84319 0.81606 0.0
C458 C 0.86786 0.82743 0.82297 0.0
C459 C 0.87205 0.87279 0.79871 0.0
C460 C 0.849 0.84747 0.77907 0.0
H461 H 0.81424 0.81551 0.88154 0.0
H462 H 0.86793 0.76588 0.87583 0.0
H463 H 0.85433 0.77519 0.83011 0.0
H464 H 0.87656 0.78338 0.81907 0.0
H465 H 0.87784 0.76689 0.83977 0.0
H466 H 0.89001 0.80814 0.87377 0.0
H467 H 0.90019 0.78816 0.85928 0.0
H468 H 0.89999 0.81345 0.85039 0.0
H469 H 0.77974 0.86993 0.84572 0.0
H470 H 0.80523 0.9033 0.7974 0.0
H471 H 0.83405 0.8824 0.7981 0.0
H472 H 0.81994 0.8695 0.8715 0.0
H473 H 0.79952 0.85385 0.87882 0.0
H474 H 0.82504 0.84594 0.88115 0.0
H475 H 0.79211 0.82679 0.83092 0.0
H476 H 0.80046 0.81376 0.85187 0.0
H477 H 0.78232 0.83295 0.85494 0.0
H478 H 0.8138 0.78686 0.90255 0.0
C479 C 0.82614 0.80517 0.87993 0.0
C480 C 0.33996 0.27391 0.3728 0.0
C481 C 0.3253 0.27131 0.3873 0.0
C482 C 0.31119 0.2864 0.39012 0.0
C483 C 0.32506 0.30495 0.36276 0.0
C484 C 0.33945 0.29063 0.36063 0.0
C485 C 0.35279 0.29457 0.34331 0.0
H486 H 0.36703 0.34195 0.25705 0.0
C487 C 0.3274 0.31931 0.34646 0.0
C488 C 0.34366 0.31333 0.33503 0.0
H489 H 0.40367 0.29655 0.28355 0.0
H490 H 0.38388 0.29762 0.31309 0.0
H491 H 0.36723 0.36907 0.29679 0.0
H492 H 0.3248 0.32663 0.27149 0.0
H493 H 0.3118 0.34788 0.27926 0.0
H494 H 0.3305 0.35026 0.26057 0.0
H495 H 0.35034 0.37563 0.27707 0.0
H496 H 0.34364 0.3779 0.30298 0.0
C497 C 0.37429 0.29843 0.35143 0.0
C498 C 0.35063 0.27662 0.32852 0.0
C499 C 0.2761 0.37325 0.33668 0.0
C500 C 0.27268 0.38697 0.32139 0.0
C501 C 0.28659 0.38846 0.30595 0.0
C502 C 0.30313 0.37602 0.30534 0.0
C503 C 0.30577 0.36176 0.32022 0.0
C504 C 0.29256 0.36078 0.33572 0.0
C505 C 0.29733 0.34427 0.34985 0.0
C506 C 0.31577 0.3357 0.3404 0.0
C507 C 0.32052 0.3459 0.32297 0.0
C508 C 0.30209 0.3537 0.37065 0.0
C509 C 0.27954 0.32918 0.34936 0.0
C510 C 0.3711 0.33239 0.26924 0.0
C511 C 0.38675 0.31875 0.26753 0.0
C512 C 0.39131 0.3067 0.284 0.0
C513 C 0.37988 0.3074 0.30126 0.0
C514 C 0.36369 0.32033 0.30221 0.0
C515 C 0.36003 0.33309 0.2867 0.0
C516 C 0.34304 0.34679 0.29091 0.0
C517 C 0.33668 0.33961 0.3112 0.0
C518 C 0.34853 0.3238 0.31751 0.0
C519 C 0.35132 0.36852 0.29188 0.0
C520 C 0.32663 0.34289 0.27472 0.0
H521 H 0.29968 0.31396 0.38058 0.0
H522 H 0.35129 0.26284 0.37052 0.0
H523 H 0.33467 0.27223 0.32636 0.0
H524 H 0.3561 0.27979 0.31352 0.0
H525 H 0.35864 0.26348 0.33423 0.0
H526 H 0.37431 0.30444 0.36699 0.0
H527 H 0.38297 0.28448 0.35146 0.0
H528 H 0.38237 0.30987 0.34288 0.0
H529 H 0.2659 0.37184 0.34892 0.0
H530 H 0.28428 0.39869 0.29385 0.0
H531 H 0.31288 0.37757 0.29296 0.0
H532 H 0.31103 0.36771 0.36926 0.0
H533 H 0.28821 0.35744 0.37855 0.0
H534 H 0.31121 0.34402 0.38018 0.0
H535 H 0.27186 0.3288 0.33452 0.0
H536 H 0.28413 0.31364 0.35162 0.0
H537 H 0.26832 0.33319 0.36065 0.0
H538 H 0.29966 0.28481 0.40109 0.0
C539 C 0.31108 0.30324 0.37802 0.0
C540 C 0.48601 0.87758 0.52826 0.0
C541 C 0.47612 0.87668 0.50959 0.0
C542 C 0.4603 0.88971 0.50587 0.0
C543 C 0.46573 0.90563 0.53816 0.0
C544 C 0.4806 0.89223 0.54228 0.0
C545 C 0.49025 0.89628 0.56243 0.0
H546 H 0.5016 0.95708 0.64368 0.0
C547 C 0.46484 0.92002 0.55499 0.0
C548 C 0.47902 0.91458 0.56938 0.0
H549 H 0.53207 0.90218 0.63073 0.0
H550 H 0.51225 0.89737 0.60063 0.0
H551 H 0.45782 0.94056 0.63132 0.0
H552 H 0.50167 0.97347 0.59839 0.0
H553 H 0.47829 0.9842 0.59422 0.0
H554 H 0.48872 0.98411 0.6191 0.0
H555 H 0.46291 0.96658 0.63612 0.0
H556 H 0.44518 0.95826 0.61708 0.0
C557 C 0.48615 0.87806 0.57574 0.0
C558 C 0.51262 0.901 0.55929 0.0
C559 C 0.4209 0.98022 0.54837 0.0
C560 C 0.41797 0.99724 0.56036 0.0
C561 C 0.42712 0.99852 0.57941 0.0
C562 C 0.4398 0.98339 0.58597 0.0
C563 C 0.44329 0.96686 0.57334 0.0
C564 C 0.43352 0.96535 0.55508 0.0
C565 C 0.43883 0.9469 0.54351 0.0
C566 C 0.45367 0.93761 0.55769 0.0
C567 C 0.45638 0.94938 0.57507 0.0
C568 C 0.41972 0.93376 0.54064 0.0
C569 C 0.44862 0.95352 0.52385 0.0
C570 C 0.5041 0.9441 0.63427 0.0
C571 C 0.51852 0.93007 0.63951 0.0
C572 C 0.52098 0.91315 0.62709 0.0
C573 C 0.50954 0.91044 0.60955 0.0
C574 C 0.49549 0.92482 0.6043 0.0
C575 C 0.49276 0.94116 0.61673 0.0
C576 C 0.47689 0.95471 0.60895 0.0
C577 C 0.47065 0.94386 0.58975 0.0
C578 C 0.48175 0.92646 0.587 0.0
C579 C 0.45979 0.95527 0.62413 0.0
C580 C 0.48672 0.97529 0.60502 0.0
H581 H 0.44308 0.91374 0.51609 0.0
H582 H 0.4982 0.86772 0.53153 0.0
H583 H 0.51462 0.91061 0.54609 0.0
H584 H 0.51971 0.90941 0.57184 0.0
H585 H 0.52105 0.88712 0.55668 0.0
H586 H 0.47155 0.8708 0.57179 0.0
H587 H 0.49781 0.86665 0.57398 0.0
H588 H 0.48499 0.88222 0.59169 0.0
H589 H 0.41374 0.97865 0.53381 0.0
H590 H 0.42498 0.01149 0.58893 0.0
H591 H 0.4467 0.98535 0.60044 0.0
H592 H 0.40943 0.9358 0.55331 0.0
H593 H 0.41146 0.93761 0.52678 0.0
H594 H 0.42286 0.91762 0.54037 0.0
H595 H 0.4579 0.96727 0.52635 0.0
H596 H 0.45898 0.9425 0.51772 0.0
H597 H 0.43716 0.95681 0.51229 0.0
H598 H 0.45222 0.88901 0.49174 0.0
C599 C 0.455 0.90407 0.52005 0.0
C600 C 0.16747 0.2636 0.7569 0.0
C601 C 0.15323 0.24812 0.75449 0.0
C602 C 0.15626 0.23315 0.73987 0.0
C603 C 0.18644 0.25023 0.7294 0.0
C604 C 0.18374 0.26444 0.74423 0.0
C605 C 0.19938 0.28069 0.74425 0.0
H606 H 0.27995 0.32335 0.70233 0.0
C607 C 0.20427 0.25629 0.7181 0.0
C608 C 0.21185 0.27413 0.72679 0.0
H609 H 0.24783 0.34326 0.75412 0.0
H610 H 0.22569 0.31484 0.75098 0.0
H611 H 0.24075 0.31008 0.67602 0.0
H612 H 0.28072 0.27779 0.71385 0.0
H613 H 0.27459 0.26189 0.69355 0.0
H614 H 0.2874 0.28527 0.68928 0.0
H615 H 0.26577 0.30447 0.66915 0.0
H616 H 0.24536 0.28725 0.66391 0.0
C617 C 0.18891 0.30072 0.74031 0.0
C618 C 0.21122 0.28002 0.76428 0.0
C619 C 0.22595 0.21548 0.65771 0.0
C620 C 0.24136 0.21818 0.644 0.0
C621 C 0.25455 0.23464 0.64659 0.0
C622 C 0.25232 0.24833 0.66233 0.0
C623 C 0.2367 0.24565 0.6757 0.0
C624 C 0.22387 0.22941 0.67337 0.0
C625 C 0.20802 0.22922 0.68899 0.0
C626 C 0.21358 0.24793 0.70109 0.0
C627 C 0.23037 0.2575 0.69314 0.0
C628 C 0.18749 0.23096 0.67834 0.0
C629 C 0.21036 0.21013 0.70137 0.0
C630 C 0.26804 0.32162 0.71287 0.0
C631 C 0.26572 0.33555 0.72855 0.0
C632 C 0.25015 0.33262 0.74209 0.0
C633 C 0.23721 0.31612 0.74018 0.0
C634 C 0.23973 0.30229 0.72452 0.0
C635 C 0.25496 0.3051 0.71122 0.0
C636 C 0.25546 0.28862 0.69573 0.0
C637 C 0.23799 0.27555 0.70193 0.0
C638 C 0.22881 0.28372 0.71872 0.0
C639 C 0.2518 0.29794 0.67504 0.0
C640 C 0.27559 0.27782 0.69799 0.0
H641 H 0.17411 0.22252 0.71623 0.0
H642 H 0.1658 0.27515 0.7682 0.0
H643 H 0.21229 0.26447 0.76966 0.0
H644 H 0.22685 0.28519 0.763 0.0
H645 H 0.20389 0.28897 0.77606 0.0
H646 H 0.17597 0.2985 0.72987 0.0
H647 H 0.18326 0.30739 0.75435 0.0
H648 H 0.19856 0.31178 0.733 0.0
H649 H 0.21549 0.20307 0.65605 0.0
H650 H 0.26675 0.23688 0.63647 0.0
H651 H 0.26284 0.26052 0.66339 0.0
H652 H 0.18846 0.24121 0.66551 0.0
H653 H 0.18208 0.21621 0.67248 0.0
H654 H 0.17603 0.23739 0.688 0.0
H655 H 0.22638 0.20687 0.70398 0.0
H656 H 0.20401 0.21152 0.71639 0.0
H657 H 0.2034 0.197 0.69351 0.0
H658 H 0.14548 0.22109 0.73767 0.0
C659 C 0.1728 0.23412 0.72732 0.0
C660 C 0.72213 0.1442 0.73894 0.0
C661 C 0.70424 0.13894 0.72882 0.0
C662 C 0.69761 0.15093 0.71305 0.0
C663 C 0.72675 0.17257 0.71742 0.0
C664 C 0.73307 0.16094 0.73302 0.0
C665 C 0.75248 0.1683 0.74214 0.0
H666 H 0.83055 0.23309 0.74167 0.0
C667 C 0.74173 0.18873 0.71498 0.0
C668 C 0.75679 0.18632 0.72948 0.0
H669 H 0.82038 0.18416 0.78167 0.0
H670 H 0.78911 0.17647 0.76498 0.0
H671 H 0.78708 0.24975 0.74395 0.0
H672 H 0.8138 0.21041 0.70106 0.0
H673 H 0.80041 0.22862 0.68813 0.0
H674 H 0.82087 0.23622 0.70433 0.0
H675 H 0.80302 0.25902 0.72492 0.0
H676 H 0.77656 0.25536 0.72063 0.0
C677 C 0.74886 0.17427 0.7642 0.0
C678 C 0.76808 0.15177 0.73921 0.0
C679 C 0.73386 0.23805 0.65875 0.0
C680 C 0.74531 0.2546 0.65285 0.0
C681 C 0.76229 0.26039 0.66434 0.0
C682 C 0.76813 0.24951 0.68104 0.0
C683 C 0.75686 0.23266 0.68642 0.0
C684 C 0.7398 0.22744 0.6756 0.0
C685 C 0.7293 0.20951 0.68395 0.0
C686 C 0.74311 0.20459 0.70128 0.0
C687 C 0.75935 0.21807 0.70251 0.0
C688 C 0.70853 0.21601 0.69109 0.0
C689 C 0.72873 0.19278 0.66773 0.0
C690 C 0.82155 0.22081 0.74698 0.0
C691 C 0.82814 0.20916 0.76302 0.0
C692 C 0.81594 0.19317 0.76917 0.0
C693 C 0.79766 0.18881 0.75953 0.0
C694 C 0.79137 0.20054 0.74352 0.0
C695 C 0.8032 0.21631 0.73758 0.0
C696 C 0.79392 0.2274 0.72053 0.0
C697 C 0.77468 0.2155 0.71708 0.0
C698 C 0.77335 0.19975 0.73052 0.0
C699 C 0.79001 0.24907 0.72768 0.0
C700 C 0.80793 0.22577 0.70251 0.0
H701 H 0.70301 0.1761 0.69509 0.0
H702 H 0.72751 0.13554 0.75134 0.0
H703 H 0.76572 0.14389 0.7246 0.0
H704 H 0.78353 0.15762 0.73882 0.0
H705 H 0.76702 0.14045 0.75105 0.0
H706 H 0.7337 0.18043 0.76602 0.0
H707 H 0.75012 0.16121 0.77406 0.0
H708 H 0.75909 0.18626 0.76977 0.0
H709 H 0.7206 0.2334 0.65036 0.0
H710 H 0.77143 0.273 0.66001 0.0
H711 H 0.78138 0.25446 0.68894 0.0
H712 H 0.70899 0.23171 0.69677 0.0
H713 H 0.69731 0.21504 0.67872 0.0
H714 H 0.70315 0.20723 0.70375 0.0
H715 H 0.74303 0.19241 0.65962 0.0
H716 H 0.72688 0.17773 0.67389 0.0
H717 H 0.71661 0.19521 0.6566 0.0
H718 H 0.68396 0.14713 0.7049 0.0
C719 C 0.70875 0.16769 0.70731 0.0
C720 C 0.53015 0.57887 0.47639 0.0
C721 C 0.51631 0.59432 0.478 0.0
C722 C 0.50277 0.59406 0.49384 0.0
C723 C 0.517 0.56351 0.50607 0.0
C724 C 0.53025 0.56372 0.49053 0.0
C725 C 0.54413 0.54635 0.49112 0.0
H726 H 0.57574 0.46299 0.53674 0.0
C727 C 0.52108 0.54576 0.51819 0.0
C728 C 0.53696 0.53563 0.50949 0.0
H729 H 0.59857 0.48996 0.48347 0.0
H730 H 0.57415 0.51573 0.48575 0.0
H731 H 0.56978 0.50399 0.56133 0.0
H732 H 0.52944 0.46786 0.52483 0.0
H733 H 0.51608 0.47631 0.5455 0.0
H734 H 0.53728 0.46054 0.5493 0.0
H735 H 0.56064 0.48003 0.56887 0.0
H736 H 0.54696 0.50244 0.57369 0.0
C737 C 0.56568 0.55467 0.49396 0.0
C738 C 0.54058 0.53361 0.47185 0.0
C739 C 0.47983 0.53211 0.5795 0.0
C740 C 0.47993 0.51679 0.59358 0.0
C741 C 0.49378 0.50134 0.59153 0.0
C742 C 0.50734 0.50119 0.57586 0.0
C743 C 0.50709 0.51664 0.56197 0.0
C744 C 0.49343 0.5317 0.56389 0.0
C745 C 0.49514 0.54674 0.5476 0.0
C746 C 0.51214 0.53828 0.53565 0.0
C747 C 0.51914 0.52068 0.54417 0.0
C748 C 0.50077 0.56722 0.55737 0.0
C749 C 0.47529 0.54642 0.53546 0.0
C750 C 0.57537 0.47433 0.52545 0.0
C751 C 0.58926 0.47442 0.50996 0.0
C752 C 0.58832 0.48966 0.49575 0.0
C753 C 0.57402 0.50459 0.49702 0.0
C754 C 0.5604 0.50439 0.51268 0.0
C755 C 0.56116 0.48939 0.52652 0.0
C756 C 0.54547 0.4916 0.54212 0.0
C757 C 0.53527 0.51045 0.53542 0.0
C758 C 0.54409 0.51788 0.51818 0.0
C759 C 0.55611 0.49454 0.56267 0.0
C760 C 0.53132 0.47312 0.54058 0.0
H761 H 0.49232 0.57946 0.51948 0.0
H762 H 0.54092 0.57871 0.46456 0.0
H763 H 0.52456 0.53342 0.46731 0.0
H764 H 0.54428 0.51777 0.47372 0.0
H765 H 0.54919 0.5397 0.45927 0.0
H766 H 0.566 0.5682 0.50381 0.0
H767 H 0.57213 0.5589 0.47947 0.0
H768 H 0.57571 0.54416 0.50144 0.0
H769 H 0.46923 0.54406 0.58045 0.0
H770 H 0.49436 0.48948 0.60227 0.0
H771 H 0.51755 0.48907 0.57523 0.0
H772 H 0.51114 0.56538 0.57031 0.0
H773 H 0.48736 0.57489 0.56291 0.0
H774 H 0.50881 0.57722 0.54726 0.0
H775 H 0.46873 0.53108 0.53448 0.0
H776 H 0.47717 0.55081 0.5198 0.0
H777 H 0.46415 0.55622 0.54252 0.0
H778 H 0.49177 0.60559 0.49531 0.0
C779 C 0.50303 0.57878 0.50783 0.0
C780 C 0.55179 0.43344 0.98901 0.0
C781 C 0.53769 0.4179 0.98612 0.0
C782 C 0.52638 0.41677 0.96827 0.0
C783 C 0.54256 0.44691 0.95683 0.0
C784 C 0.55417 0.44758 0.97407 0.0
C785 C 0.56905 0.46461 0.97422 0.0
H786 H 0.60904 0.54432 0.92794 0.0
C787 C 0.54841 0.464 0.94452 0.0
C788 C 0.56414 0.47425 0.95444 0.0
H789 H 0.62757 0.51857 0.98382 0.0
H790 H 0.60086 0.49426 0.98095 0.0
H791 H 0.56069 0.54043 0.93618 0.0
H792 H 0.6022 0.50383 0.90447 0.0
H793 H 0.57989 0.50376 0.89039 0.0
H794 H 0.59348 0.52692 0.89471 0.0
H795 H 0.57192 0.54795 0.91335 0.0
H796 H 0.54949 0.53284 0.91335 0.0
C797 C 0.56456 0.47857 0.99216 0.0
C798 C 0.59025 0.45578 0.97461 0.0
C799 C 0.50819 0.47917 0.88205 0.0
C800 C 0.50975 0.4939 0.86741 0.0
C801 C 0.52599 0.50756 0.8687 0.0
C802 C 0.53994 0.5069 0.8845 0.0
C803 C 0.53781 0.49235 0.89918 0.0
C804 C 0.52236 0.47856 0.89754 0.0
C805 C 0.52284 0.46359 0.91396 0.0
C806 C 0.54068 0.47119 0.92622 0.0
C807 C 0.54931 0.48811 0.9176 0.0
C808 C 0.50323 0.46518 0.92564 0.0
C809 C 0.52643 0.44268 0.90455 0.0
C810 C 0.60736 0.53343 0.93955 0.0
C811 C 0.6205 0.53341 0.95613 0.0
C812 C 0.61755 0.51913 0.97102 0.0
C813 C 0.60213 0.50485 0.96923 0.0
C814 C 0.58947 0.50476 0.95234 0.0
C815 C 0.59205 0.51902 0.93795 0.0
C816 C 0.57717 0.5166 0.92101 0.0
C817 C 0.56554 0.49826 0.9274 0.0
C818 C 0.57281 0.49143 0.94578 0.0
C819 C 0.56413 0.53542 0.92074 0.0
C820 C 0.58864 0.5127 0.90152 0.0
H821 H 0.51936 0.42977 0.94054 0.0
H822 H 0.56081 0.43446 0.00255 0.0
H823 H 0.59046 0.44103 0.96675 0.0
H824 H 0.60121 0.46503 0.96667 0.0
H825 H 0.59566 0.45358 0.99014 0.0
H826 H 0.54821 0.48008 0.99396 0.0
H827 H 0.57077 0.4726 0.00626 0.0
H828 H 0.57029 0.49394 0.99031 0.0
H829 H 0.49592 0.46851 0.88188 0.0
H830 H 0.52798 0.5188 0.85749 0.0
H831 H 0.55183 0.5178 0.88469 0.0
H832 H 0.49957 0.48109 0.92848 0.0
H833 H 0.49059 0.45813 0.91709 0.0
H834 H 0.50404 0.45833 0.94044 0.0
H835 H 0.5339 0.44373 0.88992 0.0
H836 H 0.5366 0.43365 0.91376 0.0
H837 H 0.51219 0.43428 0.90199 0.0
H838 H 0.51537 0.40493 0.96587 0.0
C839 C 0.52866 0.43124 0.95365 0.0
C840 C 0.74969 0.1701 0.24639 0.0
C841 C 0.74658 0.15631 0.23059 0.0
C842 C 0.73035 0.15883 0.21732 0.0
C843 C 0.72038 0.18823 0.23597 0.0
C844 C 0.73635 0.18574 0.24891 0.0
C845 C 0.73665 0.20073 0.26585 0.0
H846 H 0.69411 0.27853 0.31353 0.0
C847 C 0.70888 0.20541 0.24334 0.0
C848 C 0.71826 0.21268 0.26093 0.0
H849 H 0.7471 0.2467 0.33049 0.0
H850 H 0.74348 0.22557 0.30132 0.0
H851 H 0.66812 0.23929 0.29977 0.0
H852 H 0.70404 0.28082 0.26718 0.0
H853 H 0.68283 0.27514 0.25237 0.0
H854 H 0.67999 0.28714 0.27641 0.0
H855 H 0.66068 0.26443 0.29538 0.0
H856 H 0.65514 0.24457 0.27757 0.0
C857 C 0.73448 0.18928 0.28562 0.0
C858 C 0.75599 0.2135 0.26451 0.0
C859 C 0.64746 0.22766 0.20484 0.0
C860 C 0.63362 0.24281 0.20822 0.0
C861 C 0.63608 0.25527 0.22527 0.0
C862 C 0.65196 0.25267 0.23874 0.0
C863 C 0.6656 0.23741 0.23522 0.0
C864 C 0.66323 0.22521 0.21849 0.0
C865 C 0.67899 0.20957 0.21737 0.0
C866 C 0.69139 0.21462 0.23599 0.0
C867 C 0.68344 0.23092 0.24641 0.0
C868 C 0.66867 0.18877 0.21856 0.0
C869 C 0.69092 0.21285 0.19813 0.0
C870 C 0.70482 0.2669 0.31101 0.0
C871 C 0.72099 0.26441 0.32433 0.0
C872 C 0.7347 0.2492 0.32034 0.0
C873 C 0.73251 0.23682 0.30342 0.0
C874 C 0.71638 0.23953 0.29022 0.0
C875 C 0.70287 0.25438 0.29408 0.0
C876 C 0.68677 0.2551 0.2782 0.0
C877 C 0.69279 0.23814 0.26435 0.0
C878 C 0.71013 0.22908 0.27151 0.0
C879 C 0.66653 0.25078 0.28811 0.0
C880 C 0.68826 0.27561 0.268 0.0
H881 H 0.70521 0.17584 0.2093 0.0
H882 H 0.76178 0.16828 0.25708 0.0
H883 H 0.75957 0.21648 0.2487 0.0
H884 H 0.75478 0.2284 0.27161 0.0
H885 H 0.76887 0.20574 0.27126 0.0
H886 H 0.72524 0.17546 0.28335 0.0
H887 H 0.74922 0.1848 0.29164 0.0
H888 H 0.72665 0.19786 0.2972 0.0
H889 H 0.64586 0.21766 0.19203 0.0
H890 H 0.62578 0.26721 0.22811 0.0
H891 H 0.65298 0.26266 0.25139 0.0
H892 H 0.65497 0.18946 0.22763 0.0
H893 H 0.66424 0.18294 0.2035 0.0
H894 H 0.67804 0.1777 0.2261 0.0
H895 H 0.69378 0.22903 0.19585 0.0
H896 H 0.70576 0.20606 0.19861 0.0
H897 H 0.68255 0.20689 0.18483 0.0
H898 H 0.72768 0.14834 0.20507 0.0
C899 C 0.71732 0.17478 0.21984 0.0
C900 C 0.3735 0.0144 0.97801 0.0
C901 C 0.37248 0.99538 0.96868 0.0
C902 C 0.38829 0.98951 0.95642 0.0
C903 C 0.40526 0.02117 0.96244 0.0
C904 C 0.39 0.027 0.97468 0.0
C905 C 0.39381 0.04754 0.98362 0.0
H906 H 0.45246 0.13102 0.98979 0.0
C907 C 0.42017 0.03755 0.96196 0.0
C908 C 0.41359 0.05312 0.97428 0.0
H909 H 0.3993 0.11815 0.02281 0.0
H910 H 0.39584 0.08591 0.00605 0.0
H911 H 0.43759 0.1114 0.94675 0.0
H912 H 0.47108 0.08912 0.99671 0.0
H913 H 0.48191 0.07942 0.9751 0.0
H914 H 0.48184 0.10605 0.97934 0.0
H915 H 0.4625 0.1198 0.95295 0.0
H916 H 0.45779 0.09799 0.93737 0.0
C917 C 0.37685 0.06123 0.97662 0.0
C918 C 0.39573 0.04566 0.00656 0.0
C919 C 0.48243 0.0288 0.92125 0.0
C920 C 0.4991 0.04111 0.91778 0.0
C921 C 0.49956 0.06074 0.92566 0.0
C922 C 0.48391 0.06774 0.93735 0.0
C923 C 0.46761 0.05498 0.94118 0.0
C924 C 0.46699 0.03597 0.93292 0.0
C925 C 0.44851 0.0245 0.93829 0.0
C926 C 0.43832 0.03957 0.95159 0.0
C927 C 0.44955 0.05735 0.95328 0.0
C928 C 0.43635 0.01994 0.91882 0.0
C929 C 0.45491 0.0058 0.94993 0.0
C930 C 0.43995 0.12131 0.99317 0.0
C931 C 0.42598 0.12706 0.00737 0.0
C932 C 0.41018 0.11392 0.01184 0.0
C933 C 0.40822 0.09527 0.00211 0.0
C934 C 0.42243 0.08961 0.98803 0.0
C935 C 0.43806 0.1025 0.98391 0.0
C936 C 0.45254 0.09351 0.96965 0.0
C937 C 0.44292 0.0732 0.96564 0.0
C938 C 0.42516 0.07104 0.97626 0.0
C939 C 0.45284 0.10632 0.95067 0.0
C940 C 0.47299 0.092 0.98057 0.0
H941 H 0.41596 0.99676 0.94371 0.0
H942 H 0.3617 0.01944 0.98756 0.0
H943 H 0.40174 0.03091 0.01073 0.0
H944 H 0.40637 0.05666 0.01335 0.0
H945 H 0.38104 0.04718 0.01375 0.0
H946 H 0.37361 0.05882 0.96043 0.0
H947 H 0.36294 0.05805 0.98478 0.0
H948 H 0.38062 0.07724 0.97844 0.0
H949 H 0.48141 0.01378 0.91506 0.0
H950 H 0.51225 0.07052 0.92319 0.0
H951 H 0.48522 0.08272 0.94315 0.0
H952 H 0.43833 0.03206 0.90786 0.0
H953 H 0.44116 0.00584 0.9116 0.0
H954 H 0.42012 0.01914 0.92119 0.0
H955 H 0.46839 0.00911 0.95937 0.0
H956 H 0.44359 0.00063 0.96049 0.0
H957 H 0.45852 0.99331 0.93959 0.0
H958 H 0.38834 0.9748 0.94949 0.0
C959 C 0.40452 0.00226 0.95319 0.0
Zn960 Zn 0.27259 0.84001 -0.00043 0.0
Zn961 Zn 0.24015 0.86033 0.00447 0.0
O962 O 0.24255 0.84544 0.03151 0.0
O963 O 0.27206 0.83211 0.02816 0.0
O964 O 0.21628 0.87817 0.00714 0.0
O965 O 0.28827 0.86409 0.99121 0.0
O966 O 0.26224 0.88165 -0.00043 0.0
C967 C 0.25692 0.83538 0.03863 0.0
C968 C 0.24211 0.82716 0.97223 0.0
O969 O 0.23308 0.84201 0.9798 0.0
O970 O 0.25908 0.82244 0.97892 0.0
C971 C 0.19824 0.87267 0.00923 0.0
O972 O 0.19383 0.85357 0.01029 0.0
C973 C 0.28014 0.88081 0.99363 0.0
Zn974 Zn 0.10024 0.45235 0.29288 0.0
Zn975 Zn 0.11593 0.4871 0.28164 0.0
O976 O 0.09653 0.49568 0.30377 0.0
O977 O 0.08369 0.46687 0.31282 0.0
O978 O 0.12815 0.51306 0.27253 0.0
O979 O 0.12718 0.44289 0.30108 0.0
O980 O 0.14044 0.47126 0.29136 0.0
C981 C 0.08483 0.48567 0.31473 0.0
C982 C 0.09259 0.45962 0.25175 0.0
O983 O 0.10212 0.4758 0.25599 0.0
O984 O 0.08982 0.44677 0.26505 0.0
C985 C 0.13551 0.52568 0.28507 0.0
O986 O 0.13492 0.52171 0.30417 0.0
C987 C 0.14236 0.45398 0.29875 0.0
Zn988 Zn 0.79302 0.60601 0.95914 0.0
Zn989 Zn 0.78551 0.62519 0.99362 0.0
O990 O 0.80522 0.60386 0.0027 0.0
O991 O 0.80958 0.58669 0.97484 0.0
O992 O 0.77987 0.64092 0.01868 0.0
O993 O 0.80542 0.631 0.94808 0.0
O994 O 0.79749 0.6468 0.97575 0.0
C995 C 0.81292 0.58927 0.99335 0.0
C996 C 0.75164 0.60477 0.96895 0.0
O997 O 0.75794 0.61388 0.98473 0.0
O998 O 0.76364 0.60038 0.95527 0.0
C999 C 0.77337 0.63326 0.03454 0.0
O1000 O 0.77005 0.61391 0.03505 0.0
C1001 C 0.80498 0.64694 0.95843 0.0
Zn1002 Zn 0.84653 0.00936 0.27626 0.0
Zn1003 Zn 0.86606 0.0085 0.24222 0.0
O1004 O 0.84694 0.03228 0.2387 0.0
O1005 O 0.82881 0.03077 0.26571 0.0
O1006 O 0.88149 0.00776 0.21661 0.0
O1007 O 0.87192 0.01615 0.29149 0.0
O1008 O 0.88838 0.01262 0.26363 0.0
C1009 C 0.83261 0.03863 0.24916 0.0
C1010 C 0.84228 0.97165 0.25597 0.0
O1011 O 0.85221 0.98058 0.24264 0.0
O1012 O 0.83842 0.98062 0.27217 0.0
C1013 C 0.89071 0.02324 0.21072 0.0
O1014 O 0.88972 0.03984 0.22131 0.0
C1015 C 0.88829 0.01582 0.28243 0.0
Zn1016 Zn 0.30089 0.09851 0.45773 0.0
Zn1017 Zn 0.28789 0.11664 0.49102 0.0
O1018 O 0.31084 0.09989 0.50214 0.0
O1019 O 0.32194 0.08557 0.4748 0.0
O1020 O 0.2782 0.13204 0.51486 0.0
O1021 O 0.30682 0.12495 0.44525 0.0
O1022 O 0.29629 0.13955 0.47262 0.0
C1023 C 0.32306 0.0884 0.49352 0.0
C1024 C 0.26011 0.08848 0.46638 0.0
O1025 O 0.26342 0.09996 0.48146 0.0
O1026 O 0.27369 0.0855 0.45385 0.0
C1027 C 0.27214 0.12443 0.53093 0.0
O1028 O 0.27191 0.10495 0.53272 0.0
C1029 C 0.30341 0.1407 0.45518 0.0
Zn1030 Zn 0.34525 0.50037 0.77624 0.0
Zn1031 Zn 0.36411 0.50236 0.74156 0.0
O1032 O 0.34622 0.52729 0.74104 0.0
O1033 O 0.32979 0.5248 0.76908 0.0
O1034 O 0.3792 0.50343 0.71575 0.0
O1035 O 0.37144 0.50176 0.79127 0.0
O1036 O 0.38695 0.50338 0.76266 0.0
C1037 C 0.33317 0.53378 0.75302 0.0
C1038 C 0.33804 0.46563 0.75176 0.0
O1039 O 0.34892 0.47502 0.7395 0.0
O1040 O 0.33434 0.47339 0.76858 0.0
C1041 C 0.3892 0.51895 0.71131 0.0
O1042 O 0.38906 0.53455 0.72342 0.0
C1043 C 0.38745 0.50279 0.78164 0.0
Zn1044 Zn 0.76966 0.33639 0.49222 0.0
Zn1045 Zn 0.73753 0.35856 0.49362 0.0
O1046 O 0.73508 0.34093 0.51873 0.0
O1047 O 0.76012 0.3204 0.51531 0.0
O1048 O 0.71394 0.37687 0.49494 0.0
O1049 O 0.7876 0.36046 0.49654 0.0
O1050 O 0.76096 0.379 0.49477 0.0
C1051 C 0.74498 0.32602 0.52471 0.0
C1052 C 0.74582 0.33255 0.45651 0.0
O1053 O 0.73403 0.34374 0.46616 0.0
O1054 O 0.76233 0.32775 0.46429 0.0
C1055 C 0.69646 0.37174 0.50003 0.0
O1056 O 0.69277 0.35309 0.50461 0.0
C1057 C 0.77983 0.37752 0.49631 0.0
Zn1058 Zn 0.61195 0.94373 0.80624 0.0
Zn1059 Zn 0.62585 0.97874 0.7919 0.0
O1060 O 0.60871 0.98807 0.81529 0.0
O1061 O 0.59724 0.95969 0.82696 0.0
O1062 O 0.63795 0.00399 0.78139 0.0
O1063 O 0.64006 0.93506 0.8123 0.0
O1064 O 0.65089 0.96297 0.79911 0.0
C1065 C 0.5982 0.97857 0.82773 0.0
C1066 C 0.59977 0.95097 0.76537 0.0
O1067 O 0.60942 0.9673 0.76832 0.0
O1068 O 0.59895 0.93815 0.77901 0.0
C1069 C 0.62806 0.01872 0.77523 0.0
O1070 O 0.60851 0.01793 0.77566 0.0
C1071 C 0.65434 0.94633 0.80723 0.0
Zn1072 Zn 0.98996 0.27499 0.84066 0.0
Zn1073 Zn 0.9938 0.24107 0.85953 0.0
O1074 O 0.01976 0.24246 0.84306 0.0
O1075 O 0.01711 0.27184 0.82923 0.0
O1076 O 0.99664 0.21635 0.87622 0.0
O1077 O 0.98593 0.29054 0.86589 0.0
O1078 O 0.99134 0.26272 0.88192 0.0
C1079 C 0.02684 0.25609 0.83204 0.0
C1080 C 0.9589 0.24703 0.82984 0.0
O1081 O 0.96777 0.23613 0.84254 0.0
O1082 O 0.96592 0.26413 0.82602 0.0
C1083 C 0.00302 0.19947 0.87054 0.0
O1084 O 0.00817 0.19682 0.85189 0.0
C1085 C 0.98772 0.28133 0.88208 0.0
Zn1086 Zn 0.49918 0.78147 0.34942 0.0
Zn1087 Zn 0.50382 0.74859 0.36983 0.0
O1088 O 0.5285 0.74853 0.35135 0.0
O1089 O 0.52365 0.77561 0.33399 0.0
O1090 O 0.50716 0.7245 0.38714 0.0
O1091 O 0.50125 0.79869 0.37404 0.0
O1092 O 0.50358 0.77125 0.39131 0.0
C1093 C 0.53398 0.7605 0.33782 0.0
C1094 C 0.4659 0.75453 0.34435 0.0
O1095 O 0.47647 0.74351 0.35552 0.0
O1096 O 0.47231 0.77164 0.33969 0.0
C1097 C 0.50931 0.7067 0.38082 0.0
O1098 O 0.50968 0.70309 0.36152 0.0
C1099 C 0.50272 0.79021 0.39068 0.0
Zn1100 Zn 0.95447 0.79179 0.59783 0.0
Zn1101 Zn 0.99082 0.77997 0.6101 0.0
O1102 O 0.99761 0.80116 0.58928 0.0
O1103 O 0.96797 0.80893 0.57743 0.0
O1104 O 0.01753 0.77148 0.6208 0.0
O1105 O 0.9491 0.80282 0.62549 0.0
O1106 O 0.97754 0.79022 0.63555 0.0
C1107 C 0.98677 0.81078 0.57713 0.0
C1108 C 0.96088 0.74978 0.5913 0.0
O1109 O 0.97829 0.75424 0.59805 0.0
O1110 O 0.94765 0.763 0.59047 0.0
C1111 C 0.02935 0.78476 0.62818 0.0
O1112 O 0.02405 0.80352 0.62778 0.0
C1113 C 0.96151 0.7993 0.63936 0.0
Zn1114 Zn 0.44537 0.29894 0.08978 0.0
Zn1115 Zn 0.47899 0.28354 0.10629 0.0
O1116 O 0.4899 0.30623 0.08895 0.0
O1117 O 0.46257 0.32033 0.07767 0.0
O1118 O 0.50312 0.27345 0.12099 0.0
O1119 O 0.43421 0.30423 0.11715 0.0
O1120 O 0.46178 0.29198 0.12982 0.0
C1121 C 0.48139 0.31982 0.07904 0.0
C1122 C 0.45267 0.25742 0.07866 0.0
O1123 O 0.4677 0.25947 0.09043 0.0
O1124 O 0.44126 0.27198 0.07556 0.0
C1125 C 0.52013 0.27032 0.11366 0.0
O1126 O 0.52287 0.27318 0.09457 0.0
C1127 C 0.4448 0.29976 0.13216 0.0
H1128 H 0.2103 0.79499 0.85117 0.0
H1129 H 0.24743 0.78804 0.96362 0.0
H1130 H 0.22414 0.73954 0.87964 0.0
H1131 H 0.21823 0.8402 0.94149 0.0
H1132 H 0.23811 0.77003 0.93296 0.0
H1133 H 0.21219 0.81194 0.88379 0.0
C1134 C 0.21352 0.78631 0.86426 0.0
C1135 C 0.21733 0.76581 0.86256 0.0
C1136 C 0.23348 0.78533 0.93482 0.0
C1137 C 0.21973 0.7852 0.8999 0.0
C1138 C 0.23881 0.79563 0.95234 0.0
C1139 C 0.23368 0.81566 0.95502 0.0
C1140 C 0.22325 0.79522 0.91959 0.0
C1141 C 0.22242 0.82474 0.93999 0.0
C1142 C 0.21463 0.79603 0.88288 0.0
C1143 C 0.2216 0.75543 0.88009 0.0
N1144 N 0.21784 0.81453 0.92272 0.0
N1145 N 0.22284 0.76526 0.89793 0.0
H1146 H 0.01062 0.5667 0.38266 0.0
H1147 H 0.06417 0.46802 0.34426 0.0
H1148 H 0.00458 0.50874 0.40904 0.0
H1149 H 0.07711 0.5258 0.31971 0.0
H1150 H 0.04262 0.48358 0.3683 0.0
H1151 H 0.03549 0.55305 0.35988 0.0
C1152 C 0.01461 0.55118 0.38374 0.0
C1153 C 0.00529 0.53875 0.39755 0.0
C1154 C 0.05017 0.49297 0.35775 0.0
C1155 C 0.03354 0.52311 0.37165 0.0
C1156 C 0.0625 0.48405 0.34392 0.0
C1157 C 0.0724 0.4956 0.32982 0.0
C1158 C 0.04747 0.51367 0.35754 0.0
C1159 C 0.06973 0.51634 0.3303 0.0
C1160 C 0.02873 0.5434 0.37072 0.0
C1161 C 0.01099 0.51876 0.39832 0.0
N1162 N 0.05738 0.52474 0.34388 0.0
N1163 N 0.02462 0.51159 0.38553 0.0
H1164 H 0.84796 0.73588 0.87788 0.0
H1165 H 0.80463 0.68464 0.97514 0.0
H1166 H 0.8291 0.76925 0.92962 0.0
H1167 H 0.82299 0.65219 0.92261 0.0
H1168 H 0.81601 0.71567 0.96004 0.0
H1169 H 0.84186 0.70502 0.89553 0.0
C1170 C 0.84284 0.73676 0.89308 0.0
C1171 C 0.83897 0.75524 0.90223 0.0
C1172 C 0.81764 0.70173 0.95189 0.0
C1173 C 0.8315 0.7198 0.92243 0.0
C1174 C 0.81114 0.68401 0.9605 0.0
C1175 C 0.81271 0.66577 0.95008 0.0
C1176 C 0.82575 0.70122 0.93272 0.0
C1177 C 0.82134 0.66588 0.93117 0.0
C1178 C 0.83918 0.71908 0.90311 0.0
C1179 C 0.83199 0.75534 0.92186 0.0
N1180 N 0.82743 0.68331 0.92308 0.0
N1181 N 0.82836 0.73789 0.93126 0.0
H1182 H 0.97076 0.00849 0.38053 0.0
H1183 H 0.92677 0.01156 0.26948 0.0
H1184 H 0.00829 0.00573 0.3291 0.0
H1185 H 0.89287 0.02408 0.32222 0.0
H1186 H 0.95716 0.01092 0.29031 0.0
H1187 H 0.94236 0.01556 0.35885 0.0
C1188 C 0.97299 0.00946 0.36461 0.0
C1189 C 0.99181 0.00635 0.35654 0.0
C1190 C 0.94307 0.01402 0.29724 0.0
C1191 C 0.9593 0.01436 0.33151 0.0
C1192 C 0.92573 0.01441 0.28537 0.0
C1193 C 0.90718 0.01766 0.29413 0.0
C1194 C 0.9418 0.01681 0.31799 0.0
C1195 C 0.90675 0.0213 0.31478 0.0
C1196 C 0.95679 0.01358 0.35223 0.0
C1197 C 0.99398 0.00805 0.33587 0.0
N1198 N 0.92373 0.0206 0.32598 0.0
N1199 N 0.97783 0.01172 0.32399 0.0
H1200 H 0.24923 0.22732 0.6054 0.0
H1201 H 0.25983 0.11389 0.56826 0.0
H1202 H 0.23892 0.17718 0.64354 0.0
H1203 H 0.27014 0.16508 0.53145 0.0
H1204 H 0.25057 0.13637 0.59564 0.0
H1205 H 0.25531 0.20432 0.57776 0.0
C1206 C 0.24828 0.21143 0.60797 0.0
C1207 C 0.24377 0.20416 0.62687 0.0
C1208 C 0.2548 0.14264 0.58154 0.0
C1209 C 0.25063 0.17762 0.59516 0.0
C1210 C 0.26009 0.12982 0.5659 0.0
C1211 C 0.26587 0.1376 0.54754 0.0
C1212 C 0.25529 0.16336 0.57877 0.0
C1213 C 0.26588 0.15838 0.54533 0.0
C1214 C 0.25167 0.19828 0.59214 0.0
C1215 C 0.2423 0.18342 0.62919 0.0
N1216 N 0.26074 0.17049 0.56075 0.0
N1217 N 0.24586 0.17085 0.61354 0.0
H1218 H 0.45875 0.48533 0.60876 0.0
H1219 H 0.41089 0.55016 0.69656 0.0
H1220 H 0.46888 0.5487 0.61678 0.0
H1221 H 0.39597 0.48814 0.68493 0.0
H1222 H 0.43234 0.54985 0.66753 0.0
H1223 H 0.43607 0.48593 0.63687 0.0
C1224 C 0.45626 0.49937 0.61647 0.0
C1225 C 0.46579 0.51699 0.61041 0.0
C1226 C 0.42432 0.53632 0.67127 0.0
C1227 C 0.4397 0.5178 0.64258 0.0
C1228 C 0.41206 0.53648 0.68788 0.0
C1229 C 0.40162 0.51914 0.69325 0.0
C1230 C 0.42628 0.51866 0.65996 0.0
C1231 C 0.40372 0.50187 0.68137 0.0
C1232 C 0.4432 0.49972 0.63246 0.0
C1233 C 0.46172 0.53478 0.62079 0.0
N1234 N 0.41587 0.50205 0.66536 0.0
N1235 N 0.44907 0.53472 0.63639 0.0
H1236 H 0.73622 0.23798 0.61636 0.0
H1237 H 0.7291 0.34138 0.55907 0.0
H1238 H 0.74361 0.29493 0.6467 0.0
H1239 H 0.74926 0.28667 0.53205 0.0
H1240 H 0.72527 0.3239 0.59082 0.0
H1241 H 0.73167 0.25526 0.58481 0.0
C1242 C 0.73654 0.25413 0.61642 0.0
C1243 C 0.74043 0.26505 0.63412 0.0
C1244 C 0.73027 0.31573 0.57782 0.0
C1245 C 0.73525 0.28487 0.59812 0.0
C1246 C 0.73232 0.32563 0.55973 0.0
C1247 C 0.73964 0.31544 0.54303 0.0
C1248 C 0.73517 0.29549 0.57895 0.0
C1249 C 0.74374 0.29509 0.54466 0.0
C1250 C 0.73407 0.26396 0.59842 0.0
C1251 C 0.74088 0.28597 0.63332 0.0
N1252 N 0.74147 0.28579 0.56229 0.0
N1253 N 0.73839 0.29524 0.61558 0.0
H1254 H 0.53668 0.96468 0.65306 0.0
H1255 H 0.58021 0.91674 0.75273 0.0
H1256 H 0.52909 0.90256 0.66735 0.0
H1257 H 0.59435 0.97669 0.7345 0.0
H1258 H 0.56103 0.91139 0.7218 0.0
H1259 H 0.55719 0.96959 0.68326 0.0
C1260 C 0.53926 0.95209 0.66261 0.0
C1261 C 0.53111 0.93319 0.65772 0.0
C1262 C 0.5684 0.92569 0.72453 0.0
C1263 C 0.55471 0.93867 0.69223 0.0
C1264 C 0.57935 0.92877 0.7422 0.0
C1265 C 0.58888 0.94722 0.74626 0.0
C1266 C 0.56683 0.9412 0.71083 0.0
C1267 C 0.58727 0.96223 0.73201 0.0
C1268 C 0.55108 0.95487 0.67977 0.0
C1269 C 0.53522 0.91734 0.67047 0.0
N1270 N 0.57637 0.95891 0.71498 0.0
N1271 N 0.54666 0.92045 0.68718 0.0
H1272 H 0.85558 0.18311 0.77843 0.0
H1273 H 0.93471 0.26935 0.80658 0.0
H1274 H 0.84489 0.24597 0.77156 0.0
H1275 H 0.93963 0.21018 0.8304 0.0
H1276 H 0.90321 0.25966 0.79081 0.0
H1277 H 0.88741 0.19152 0.79522 0.0
C1278 C 0.85981 0.19867 0.78053 0.0
C1279 C 0.84748 0.21385 0.77342 0.0
C1280 C 0.9111 0.24875 0.79949 0.0
C1281 C 0.88405 0.22347 0.79231 0.0
C1282 C 0.92922 0.25423 0.80848 0.0
C1283 C 0.93992 0.24056 0.81991 0.0
C1284 C 0.90349 0.22934 0.80171 0.0
C1285 C 0.93187 0.22121 0.82177 0.0
C1286 C 0.87803 0.20341 0.79004 0.0
C1287 C 0.85398 0.23371 0.77635 0.0
N1288 N 0.91412 0.21614 0.8127 0.0
N1289 N 0.87179 0.2379 0.78547 0.0
H1290 H 0.48461 0.83664 0.51101 0.0
H1291 H 0.5058 0.83065 0.39398 0.0
H1292 H 0.48328 0.88651 0.47131 0.0
H1293 H 0.49881 0.77803 0.42953 0.0
H1294 H 0.5021 0.85129 0.4237 0.0
H1295 H 0.49399 0.81492 0.48284 0.0
C1296 C 0.48644 0.84301 0.49642 0.0
C1297 C 0.4829 0.86331 0.49337 0.0
C1298 C 0.50145 0.83523 0.42511 0.0
C1299 C 0.49366 0.83877 0.46132 0.0
C1300 C 0.50358 0.8234 0.40809 0.0
C1301 C 0.50239 0.80254 0.40919 0.0
C1302 C 0.49797 0.82626 0.4435 0.0
C1303 C 0.49972 0.79405 0.42799 0.0
C1304 C 0.49171 0.83064 0.48038 0.0
C1305 C 0.48548 0.87086 0.47422 0.0
N1306 N 0.49743 0.80597 0.44442 0.0
N1307 N 0.49064 0.85861 0.45897 0.0
H1308 H 0.13063 0.28036 0.76293 0.0
H1309 H 0.05006 0.22254 0.82829 0.0
H1310 H 0.13349 0.21704 0.77275 0.0
H1311 H 0.04767 0.28465 0.81266 0.0
H1312 H 0.08124 0.21975 0.80973 0.0
H1313 H 0.1008 0.28175 0.78272 0.0
C1314 C 0.12505 0.26672 0.76941 0.0
C1315 C 0.13473 0.24859 0.76633 0.0
C1316 C 0.07384 0.23396 0.81045 0.0
C1317 C 0.10011 0.25001 0.78896 0.0
C1318 C 0.05611 0.23558 0.82108 0.0
C1319 C 0.04617 0.25384 0.82198 0.0
C1320 C 0.08164 0.25075 0.8008 0.0
C1321 C 0.05467 0.27023 0.81233 0.0
C1322 C 0.10788 0.2675 0.78064 0.0
C1323 C 0.12645 0.23133 0.77471 0.0
N1324 N 0.0718 0.26827 0.80219 0.0
N1325 N 0.10961 0.23246 0.78572 0.0
H1326 H 0.52053 0.59176 0.43735 0.0
H1327 H 0.50808 0.7091 0.42155 0.0
H1328 H 0.51138 0.63429 0.4852 0.0
H1329 H 0.51439 0.66676 0.37295 0.0
H1330 H 0.51033 0.68188 0.44505 0.0
H1331 H 0.51955 0.619 0.41357 0.0
C1332 C 0.51843 0.60684 0.44288 0.0
C1333 C 0.51597 0.61071 0.46333 0.0
C1334 C 0.51125 0.67851 0.42925 0.0
C1335 C 0.51469 0.64197 0.43614 0.0
C1336 C 0.50997 0.69408 0.41579 0.0
C1337 C 0.51101 0.69024 0.39519 0.0
C1338 C 0.5136 0.65888 0.42215 0.0
C1339 C 0.51348 0.67043 0.38867 0.0
C1340 C 0.51776 0.62237 0.42927 0.0
C1341 C 0.51305 0.63053 0.46957 0.0
N1342 N 0.51468 0.6555 0.4021 0.0
N1343 N 0.51249 0.64538 0.45605 0.0
H1344 H 0.92585 0.78941 0.76011 0.0
H1345 H 0.9375 0.8292 0.65218 0.0
H1346 H 0.91956 0.85219 0.74825 0.0
H1347 H 0.9748 0.78212 0.67366 0.0
H1348 H 0.92802 0.83671 0.68658 0.0
H1349 H 0.94176 0.78515 0.72803 0.0
C1350 C 0.92807 0.80242 0.75104 0.0
C1351 C 0.92109 0.82122 0.75705 0.0
C1352 C 0.93845 0.82489 0.68374 0.0
C1353 C 0.93872 0.81609 0.71983 0.0
C1354 C 0.94377 0.82053 0.66416 0.0
C1355 C 0.95688 0.80497 0.66011 0.0
C1356 C 0.94588 0.81326 0.69929 0.0
C1357 C 0.96467 0.79426 0.67617 0.0
C1358 C 0.93707 0.79988 0.73261 0.0
C1359 C 0.92411 0.8373 0.74417 0.0
N1360 N 0.95879 0.79839 0.69506 0.0
N1361 N 0.93239 0.8343 0.72605 0.0
H1362 H 0.01295 0.87233 0.46897 0.0
H1363 H 0.02313 0.83029 0.57894 0.0
H1364 H 0.04553 0.90513 0.51537 0.0
H1365 H 0.97108 0.82065 0.54114 0.0
H1366 H 0.03697 0.85268 0.55376 0.0
H1367 H 0.00313 0.84775 0.49342 0.0
C1368 C 0.01806 0.87443 0.48427 0.0
C1369 C 0.02978 0.89113 0.49013 0.0
C1370 C 0.02256 0.84556 0.55105 0.0
C1371 C 0.01898 0.86262 0.51808 0.0
C1372 C 0.01471 0.83278 0.56532 0.0
C1373 C 0.99588 0.82376 0.56214 0.0
C1374 C 0.01169 0.84883 0.53338 0.0
C1375 C 0.98555 0.82747 0.54427 0.0
C1376 C 0.01252 0.86029 0.49818 0.0
C1377 C 0.03652 0.89252 0.5101 0.0
N1378 N 0.99363 0.83964 0.53053 0.0
N1379 N 0.03095 0.87849 0.5234 0.0
H1380 H 0.13473 0.7869 0.70362 0.0
H1381 H 0.0437 0.74721 0.63433 0.0
H1382 H 0.12092 0.72444 0.69353 0.0
H1383 H 0.05756 0.8095 0.64573 0.0
H1384 H 0.0734 0.73842 0.6537 0.0
H1385 H 0.10799 0.7953 0.68032 0.0
C1386 C 0.12607 0.77494 0.69648 0.0
C1387 C 0.12994 0.75494 0.7007 0.0
C1388 C 0.07 0.75401 0.65185 0.0
C1389 C 0.09929 0.76444 0.67386 0.0
C1390 C 0.05306 0.75905 0.64077 0.0
C1391 C 0.04804 0.77914 0.63851 0.0
C1392 C 0.08201 0.76916 0.66075 0.0
C1393 C 0.06075 0.79382 0.64716 0.0
C1394 C 0.11084 0.77974 0.6831 0.0
C1395 C 0.1185 0.74005 0.69067 0.0
N1396 N 0.07706 0.78854 0.65797 0.0
N1397 N 0.10358 0.74511 0.67783 0.0
H1398 H 0.90357 0.64724 0.53356 0.0
H1399 H 0.9864 0.71859 0.58634 0.0
H1400 H 0.96624 0.63403 0.53558 0.0
H1401 H 0.92481 0.7346 0.57817 0.0
H1402 H 0.97872 0.68598 0.57094 0.0
H1403 H 0.91053 0.67775 0.5531 0.0
C1404 C 0.91877 0.65066 0.53828 0.0
C1405 C 0.93436 0.63813 0.53282 0.0
C1406 C 0.96688 0.69661 0.57261 0.0
C1407 C 0.94247 0.67311 0.55506 0.0
C1408 C 0.97124 0.71521 0.58146 0.0
C1409 C 0.95626 0.72943 0.58344 0.0
C1410 C 0.94739 0.69216 0.56574 0.0
C1411 C 0.93688 0.72418 0.57685 0.0
C1412 C 0.92275 0.66814 0.54933 0.0
C1413 C 0.95381 0.64343 0.53918 0.0
N1414 N 0.93303 0.70602 0.56823 0.0
N1415 N 0.95732 0.66053 0.54991 0.0
H1416 H 0.7895 0.85572 0.27461 0.0
H1417 H 0.83941 0.94949 0.22094 0.0
H1418 H 0.78875 0.86204 0.21069 0.0
H1419 H 0.82831 0.94642 0.28401 0.0
H1420 H 0.82511 0.91567 0.2166 0.0
H1421 H 0.80812 0.88711 0.278 0.0
C1422 C 0.79324 0.86373 0.26126 0.0
C1423 C 0.78729 0.85635 0.24235 0.0
C1424 C 0.82593 0.92243 0.23137 0.0
C1425 C 0.80883 0.89237 0.24612 0.0
C1426 C 0.83412 0.94168 0.23387 0.0
C1427 C 0.83491 0.95087 0.25284 0.0
C1428 C 0.8187 0.9123 0.24801 0.0
C1429 C 0.82785 0.94006 0.26907 0.0
C1430 C 0.80396 0.88164 0.2632 0.0
C1431 C 0.79306 0.86715 0.22556 0.0
N1432 N 0.82004 0.92142 0.26627 0.0
N1433 N 0.80339 0.8847 0.22784 0.0
H1434 H 0.73464 0.11737 0.22694 0.0
H1435 H 0.84368 0.0715 0.22781 0.0
H1436 H 0.78738 0.15492 0.23099 0.0
H1437 H 0.79316 0.04333 0.25528 0.0
H1438 H 0.82272 0.10027 0.21989 0.0
H1439 H 0.75572 0.08792 0.22797 0.0
C1440 C 0.75068 0.11939 0.22769 0.0
C1441 C 0.75932 0.13855 0.22898 0.0
C1442 C 0.81628 0.08765 0.22747 0.0
C1443 C 0.78343 0.10503 0.23009 0.0
C1444 C 0.82814 0.07126 0.23188 0.0
C1445 C 0.82012 0.05516 0.24232 0.0
C1446 C 0.79622 0.08756 0.2331 0.0
C1447 C 0.79995 0.05556 0.24738 0.0
C1448 C 0.76266 0.10262 0.22839 0.0
C1449 C 0.78018 0.14036 0.23013 0.0
N1450 N 0.78868 0.07147 0.24268 0.0
N1451 N 0.79157 0.12377 0.23068 0.0
H1452 H 0.35135 0.98904 0.00306 0.0
H1453 H 0.30892 0.88502 0.9661 0.0
H1454 H 0.35465 0.96948 0.94153 0.0
H1455 H 0.27735 0.91817 0.01088 0.0
H1456 H 0.32879 0.91485 0.95926 0.0
H1457 H 0.32624 0.96276 0.0085 0.0
C1458 C 0.34665 0.97947 0.99062 0.0
C1459 C 0.3555 0.98128 0.97188 0.0
C1460 C 0.31742 0.91565 0.97049 0.0
C1461 C 0.32721 0.95101 0.97821 0.0
C1462 C 0.30617 0.89862 0.97448 0.0
C1463 C 0.29151 0.89916 0.98909 0.0
C1464 C 0.31439 0.93327 0.98152 0.0
C1465 C 0.28848 0.91721 -0.00056 0.0
C1466 C 0.33238 0.96445 0.9938 0.0
C1467 C 0.34882 0.9683 0.9564 0.0
N1468 N 0.30006 0.93356 0.99566 0.0
N1469 N 0.33535 0.95355 0.96 0.0
H1470 H 0.23535 0.37422 0.33141 0.0
H1471 H 0.17948 0.47057 0.29193 0.0
H1472 H 0.26698 0.42564 0.30924 0.0
H1473 H 0.15045 0.41966 0.31811 0.0
H1474 H 0.21188 0.45569 0.29945 0.0
H1475 H 0.20436 0.39201 0.32822 0.0
C1476 C 0.23587 0.38939 0.32616 0.0
C1477 C 0.25391 0.39842 0.32065 0.0
C1478 C 0.19838 0.44789 0.30364 0.0
C1479 C 0.2181 0.41884 0.31641 0.0
C1480 C 0.1799 0.45638 0.29937 0.0
C1481 C 0.1622 0.44627 0.30422 0.0
C1482 C 0.19907 0.42922 0.31281 0.0
C1483 C 0.16364 0.42794 0.31389 0.0
C1484 C 0.21806 0.39953 0.32416 0.0
C1485 C 0.25341 0.41798 0.31343 0.0
N1486 N 0.18169 0.42001 0.31775 0.0
N1487 N 0.23578 0.42751 0.31141 0.0
H1488 H 0.15824 0.02248 0.41734 0.0
H1489 H 0.22975 0.08493 0.49306 0.0
H1490 H 0.14909 0.02542 0.48081 0.0
H1491 H 0.24595 0.06865 0.43301 0.0
H1492 H 0.19811 0.06664 0.48802 0.0
H1493 H 0.1885 0.043 0.42201 0.0
C1494 C 0.16255 0.02756 0.43224 0.0
C1495 C 0.15122 0.02217 0.44873 0.0
C1496 C 0.2086 0.06713 0.47596 0.0
C1497 C 0.18578 0.04561 0.4542 0.0
C1498 C 0.22662 0.07761 0.4788 0.0
C1499 C 0.24056 0.07824 0.46347 0.0
C1500 C 0.20443 0.0574 0.45761 0.0
C1501 C 0.23571 0.06846 0.4453 0.0
C1502 C 0.17986 0.03917 0.43492 0.0
C1503 C 0.15756 0.02902 0.46773 0.0
N1504 N 0.21806 0.05847 0.44288 0.0
N1505 N 0.17441 0.04041 0.46995 0.0
H1506 H 0.71877 0.10252 0.73878 0.0
H1507 H 0.61214 0.05365 0.76188 0.0
H1508 H 0.66365 0.13409 0.73199 0.0
H1509 H 0.66819 0.02432 0.7713 0.0
H1510 H 0.63031 0.08285 0.74971 0.0
H1511 H 0.70006 0.07332 0.74954 0.0
C1512 C 0.70271 0.10334 0.73963 0.0
C1513 C 0.69279 0.12086 0.73462 0.0
C1514 C 0.6386 0.07 0.75443 0.0
C1515 C 0.67117 0.08729 0.74678 0.0
C1516 C 0.62824 0.05333 0.76138 0.0
C1517 C 0.63865 0.03651 0.76766 0.0
C1518 C 0.6595 0.06983 0.75373 0.0
C1519 C 0.65951 0.03694 0.76666 0.0
C1520 C 0.69201 0.08661 0.74569 0.0
C1521 C 0.67191 0.12087 0.73559 0.0
N1522 N 0.66922 0.0533 0.75985 0.0
N1523 N 0.66179 0.10436 0.74163 0.0
H1524 H 0.42124 0.01398 0.52404 0.0
H1525 H 0.32556 0.08285 0.53413 0.0
H1526 H 0.38793 0.01817 0.57829 0.0
H1527 H 0.35573 0.06994 0.47921 0.0
H1528 H 0.35039 0.0631 0.55212 0.0
H1529 H 0.39976 0.03866 0.50909 0.0
C1530 C 0.40937 0.02018 0.53282 0.0
C1531 C 0.40612 0.01379 0.55229 0.0
C1532 C 0.35158 0.06475 0.53615 0.0
C1533 C 0.38133 0.04213 0.53524 0.0
C1534 C 0.33747 0.07603 0.5259 0.0
C1535 C 0.33847 0.07788 0.50511 0.0
C1536 C 0.36682 0.05546 0.52551 0.0
C1537 C 0.35421 0.06876 0.49519 0.0
C1538 C 0.39711 0.0343 0.5243 0.0
C1539 C 0.39084 0.02266 0.56318 0.0
N1540 N 0.36767 0.05794 0.50546 0.0
N1541 N 0.37881 0.03626 0.55442 0.0
H1542 H 0.58556 0.43424 0.51701 0.0
H1543 H 0.69935 0.41158 0.49205 0.0
H1544 H 0.62848 0.47916 0.5 0.0
H1545 H 0.65742 0.3664 0.51066 0.0
H1546 H 0.67331 0.43636 0.49447 0.0
H1547 H 0.61144 0.4091 0.51466 0.0
C1548 C 0.60043 0.43886 0.51288 0.0
C1549 C 0.6048 0.45889 0.50865 0.0
C1550 C 0.66976 0.42103 0.49802 0.0
C1551 C 0.63448 0.4301 0.50575 0.0
C1552 C 0.68466 0.40683 0.49662 0.0
C1553 C 0.68061 0.38683 0.50117 0.0
C1554 C 0.6506 0.41526 0.504 0.0
C1555 C 0.66124 0.38163 0.50701 0.0
C1556 C 0.61518 0.42446 0.51143 0.0
C1557 C 0.6243 0.46389 0.5031 0.0
N1558 N 0.64697 0.39575 0.50827 0.0
N1559 N 0.63838 0.44962 0.50182 0.0
H1560 H 0.75572 0.28104 0.33899 0.0
H1561 H 0.70906 0.32981 0.43723 0.0
H1562 H 0.69277 0.27771 0.3506 0.0
H1563 H 0.77149 0.31837 0.42913 0.0
H1564 H 0.70204 0.31547 0.4037 0.0
H1565 H 0.76096 0.29981 0.37005 0.0
C1566 C 0.74297 0.28424 0.3481 0.0
C1567 C 0.72383 0.27746 0.34233 0.0
C1568 C 0.71725 0.31623 0.40932 0.0
C1569 C 0.72971 0.2992 0.37803 0.0
C1570 C 0.72127 0.32444 0.42838 0.0
C1571 C 0.74087 0.32513 0.43606 0.0
C1572 C 0.73301 0.30897 0.39787 0.0
C1573 C 0.75612 0.31796 0.42397 0.0
C1574 C 0.74596 0.29505 0.36583 0.0
C1575 C 0.70779 0.28262 0.3545 0.0
N1576 N 0.75186 0.31022 0.40557 0.0
N1577 N 0.7111 0.29305 0.37189 0.0
H1578 H 0.51612 0.0047 0.92117 0.0
H1579 H 0.58991 0.01863 0.8298 0.0
H1580 H 0.52071 0.05941 0.88853 0.0
H1581 H 0.57919 0.96305 0.85964 0.0
H1582 H 0.56768 0.03521 0.85328 0.0
H1583 H 0.54225 0.99061 0.90086 0.0
C1584 C 0.52263 0.01375 0.90968 0.0
C1585 C 0.51602 0.03315 0.90634 0.0
C1586 C 0.57034 0.01942 0.85472 0.0
C1587 C 0.54615 0.01713 0.88302 0.0
C1588 C 0.58306 0.00996 0.84138 0.0
C1589 C 0.58629 0.98938 0.84265 0.0
C1590 C 0.56091 0.00821 0.86946 0.0
C1591 C 0.57702 0.97889 0.85795 0.0
C1592 C 0.53763 0.00573 0.89813 0.0
C1593 C 0.52537 0.04438 0.89158 0.0
N1594 N 0.56473 0.9884 0.87066 0.0
N1595 N 0.53987 0.03614 0.88033 0.0
H1596 H 0.3311 0.23361 0.37265 0.0
H1597 H 0.29807 0.17809 0.47164 0.0
H1598 H 0.31539 0.26531 0.42655 0.0
H1599 H 0.31826 0.14815 0.41837 0.0
H1600 H 0.30454 0.21024 0.45595 0.0
H1601 H 0.32702 0.20227 0.38981 0.0
C1602 C 0.32707 0.23403 0.3882 0.0
C1603 C 0.32372 0.25222 0.39817 0.0
C1604 C 0.3076 0.19661 0.44776 0.0
C1605 C 0.31851 0.2161 0.41789 0.0
C1606 C 0.30389 0.17826 0.45669 0.0
C1607 C 0.30756 0.16036 0.44629 0.0
C1608 C 0.31497 0.19705 0.42829 0.0
C1609 C 0.31514 0.16151 0.42697 0.0
C1610 C 0.32456 0.21605 0.39797 0.0
C1611 C 0.31796 0.25167 0.4182 0.0
N1612 N 0.31853 0.17949 0.41862 0.0
N1613 N 0.31549 0.23389 0.4274 0.0
H1614 H 0.49581 0.52762 0.8489 0.0
H1615 H 0.39534 0.48025 0.81375 0.0
H1616 H 0.48758 0.46352 0.84921 0.0
H1617 H 0.42291 0.52226 0.77435 0.0
H1618 H 0.42699 0.47766 0.83207 0.0
H1619 H 0.46763 0.52964 0.82543 0.0
C1620 C 0.4884 0.51393 0.84391 0.0
C1621 C 0.49406 0.49536 0.85147 0.0
C1622 C 0.42609 0.4874 0.81938 0.0
C1623 C 0.46141 0.49785 0.82516 0.0
C1624 C 0.40807 0.48901 0.80904 0.0
C1625 C 0.40658 0.50152 0.79258 0.0
C1626 C 0.44258 0.49883 0.81362 0.0
C1627 C 0.42355 0.51242 0.78696 0.0
C1628 C 0.47225 0.51518 0.83057 0.0
C1629 C 0.48348 0.47826 0.84449 0.0
N1630 N 0.44088 0.51107 0.79769 0.0
N1631 N 0.46745 0.47996 0.83207 0.0
H1632 H 0.74745 0.67988 0.15281 0.0
H1633 H 0.7777 0.67379 0.0379 0.0
H1634 H 0.76229 0.73102 0.11746 0.0
H1635 H 0.76068 0.62211 0.07152 0.0
H1636 H 0.77193 0.69483 0.06711 0.0
H1637 H 0.75173 0.65834 0.12337 0.0
C1638 C 0.7515 0.6866 0.13886 0.0
C1639 C 0.75465 0.7073 0.13767 0.0
C1640 C 0.76942 0.67889 0.06814 0.0
C1641 C 0.75973 0.68273 0.10398 0.0
C1642 C 0.77274 0.66684 0.05143 0.0
C1643 C 0.76971 0.64612 0.05223 0.0
C1644 C 0.76305 0.67022 0.08589 0.0
C1645 C 0.76322 0.63801 0.07021 0.0
C1646 C 0.75403 0.67428 0.12209 0.0
C1647 C 0.76007 0.71513 0.11922 0.0
N1648 N 0.76014 0.65008 0.08635 0.0
N1649 N 0.76246 0.70286 0.10317 0.0
H1650 H 0.96812 0.05199 0.11287 0.0
H1651 H 0.89822 0.99078 0.18668 0.0
H1652 H 0.95954 0.9881 0.1093 0.0
H1653 H 0.91109 0.05385 0.19328 0.0
H1654 H 0.9192 0.98975 0.15726 0.0
H1655 H 0.94576 0.05321 0.14119 0.0
C1656 C 0.96142 0.03822 0.11795 0.0
C1657 C 0.96575 0.01991 0.10867 0.0
C1658 C 0.91741 0.00382 0.16513 0.0
C1659 C 0.94022 0.02118 0.14128 0.0
C1660 C 0.9054 0.00443 0.18192 0.0
C1661 C 0.90291 0.02243 0.19252 0.0
C1662 C 0.92698 0.02134 0.15882 0.0
C1663 C 0.9126 0.03963 0.18563 0.0
C1664 C 0.94874 0.03892 0.13421 0.0
C1665 C 0.95684 0.00253 0.11613 0.0
N1666 N 0.9242 0.03865 0.16925 0.0
N1667 N 0.94451 0.00359 0.13196 0.0
H1668 H 0.22493 0.77728 0.14977 0.0
H1669 H 0.28825 0.82251 0.06054 0.0
H1670 H 0.28874 0.7744 0.14429 0.0
H1671 H 0.2244 0.82832 0.06265 0.0
H1672 H 0.28781 0.80555 0.09203 0.0
H1673 H 0.22338 0.79587 0.11839 0.0
C1674 C 0.23856 0.78048 0.14196 0.0
C1675 C 0.25702 0.7745 0.1498 0.0
C1676 C 0.27382 0.81052 0.08577 0.0
C1677 C 0.25538 0.79572 0.11416 0.0
C1678 C 0.27406 0.82028 0.06769 0.0
C1679 C 0.25631 0.82677 0.05882 0.0
C1680 C 0.25566 0.80698 0.09525 0.0
C1681 C 0.23844 0.82358 0.06899 0.0
C1682 C 0.23768 0.79117 0.12416 0.0
C1683 C 0.27422 0.77906 0.1391 0.0
N1684 N 0.23853 0.81375 0.08666 0.0
N1685 N 0.27295 0.78936 0.12195 0.0
H1686 H 0.04015 0.47131 0.13387 0.0
H1687 H 0.07662 0.42475 0.23662 0.0
H1688 H 0.03486 0.40879 0.14735 0.0
H1689 H 0.08981 0.48555 0.22054 0.0
H1690 H 0.0617 0.41872 0.2037 0.0
H1691 H 0.05875 0.47695 0.1652 0.0
C1692 C 0.04295 0.45876 0.14341 0.0
C1693 C 0.03586 0.43956 0.13805 0.0
C1694 C 0.06794 0.43336 0.20729 0.0
C1695 C 0.05714 0.44589 0.17387 0.0
C1696 C 0.07643 0.43685 0.22614 0.0
C1697 C 0.08439 0.45574 0.23141 0.0
C1698 C 0.0672 0.4489 0.19358 0.0
C1699 C 0.08383 0.47077 0.21712 0.0
C1700 C 0.05365 0.46197 0.16123 0.0
C1701 C 0.04017 0.4238 0.15081 0.0
N1702 N 0.07524 0.46707 0.19889 0.0
N1703 N 0.0504 0.42735 0.16819 0.0
H1704 H 0.34647 0.75438 0.29591 0.0
H1705 H 0.44856 0.71685 0.34476 0.0
H1706 H 0.36106 0.69201 0.29791 0.0
H1707 H 0.43745 0.7774 0.32736 0.0
H1708 H 0.4152 0.7071 0.33181 0.0
H1709 H 0.37834 0.76274 0.31202 0.0
C1710 C 0.35641 0.74242 0.2997 0.0
C1711 C 0.35118 0.72248 0.29524 0.0
C1712 C 0.42015 0.7225 0.3309 0.0
C1713 C 0.38778 0.73196 0.31397 0.0
C1714 C 0.43913 0.72807 0.3383 0.0
C1715 C 0.44587 0.74794 0.33705 0.0
C1716 C 0.40782 0.73698 0.32247 0.0
C1717 C 0.43302 0.76187 0.32853 0.0
C1718 C 0.3746 0.7472 0.30898 0.0
C1719 C 0.36446 0.70758 0.30108 0.0
N1720 N 0.41469 0.75613 0.32164 0.0
N1721 N 0.38224 0.71263 0.31005 0.0
H1722 H 0.00386 0.35473 0.98773 0.0
H1723 H 0.96005 0.30929 0.88871 0.0
H1724 H 0.94035 0.35223 0.97623 0.0
H1725 H 0.00772 0.27828 0.91806 0.0
H1726 H 0.95497 0.32873 0.91927 0.0
H1727 H 0.00808 0.32927 0.96151 0.0
C1728 C 0.99078 0.34868 0.97998 0.0
C1729 C 0.97173 0.35603 0.98399 0.0
C1730 C 0.96645 0.31757 0.91908 0.0
C1731 C 0.97663 0.32735 0.95375 0.0
C1732 C 0.96943 0.30658 0.90165 0.0
C1733 C 0.98433 0.29223 0.90094 0.0
C1734 C 0.97883 0.31462 0.93577 0.0
C1735 C 0.99603 0.28919 0.91813 0.0
C1736 C 0.99325 0.3342 0.96499 0.0
C1737 C 0.95539 0.34763 0.97326 0.0
N1738 N 0.99326 0.30058 0.93486 0.0
N1739 N 0.95826 0.33404 0.95842 0.0
H1740 H 0.64345 0.71822 0.2835 0.0
H1741 H 0.55037 0.78544 0.3109 0.0
H1742 H 0.63812 0.78056 0.26989 0.0
H1743 H 0.5602 0.72901 0.33921 0.0
H1744 H 0.58113 0.78167 0.29309 0.0
H1745 H 0.61183 0.71981 0.3015 0.0
C1746 C 0.63563 0.73219 0.28428 0.0
C1747 C 0.64348 0.74933 0.27533 0.0
C1748 C 0.57666 0.77006 0.30319 0.0
C1749 C 0.60747 0.75121 0.29567 0.0
C1750 C 0.55898 0.77216 0.31338 0.0
C1751 C 0.55264 0.75754 0.3267 0.0
C1752 C 0.58828 0.75315 0.30613 0.0
C1753 C 0.56455 0.74068 0.32915 0.0
C1754 C 0.61768 0.73311 0.29461 0.0
C1755 C 0.63281 0.76706 0.27683 0.0
N1756 N 0.58185 0.73892 0.31893 0.0
N1757 N 0.6154 0.7675 0.28672 0.0
H1758 H 0.00662 0.13119 0.97864 0.0
H1759 H 0.01495 0.16091 0.86383 0.0
H1760 H 0.02021 0.0887 0.93198 0.0
H1761 H 0.99574 0.20087 0.91054 0.0
H1762 H 0.01839 0.13453 0.88843 0.0
H1763 H 0.0041 0.15714 0.95382 0.0
C1764 C 0.00898 0.12727 0.96315 0.0
C1765 C 0.01345 0.10762 0.95743 0.0
C1766 C 0.01341 0.14908 0.89327 0.0
C1767 C 0.01082 0.13751 0.92879 0.0
C1768 C 0.01144 0.16415 0.87923 0.0
C1769 C 0.00502 0.18317 0.88509 0.0
C1770 C 0.009 0.15306 0.91333 0.0
C1771 C 0.00071 0.18647 0.90528 0.0
C1772 C 0.00763 0.14216 0.94896 0.0
C1773 C 0.01685 0.10363 0.93713 0.0
N1774 N 0.0028 0.17161 0.91862 0.0
N1775 N 0.01541 0.11842 0.92355 0.0
H1776 H 0.40252 0.28466 0.25115 0.0
H1777 H 0.41776 0.32734 0.14403 0.0
H1778 H 0.39559 0.34748 0.23984 0.0
H1779 H 0.45496 0.28055 0.16636 0.0
H1780 H 0.40529 0.33284 0.17777 0.0
H1781 H 0.41833 0.28082 0.21893 0.0
C1782 C 0.40452 0.29774 0.24214 0.0
C1783 C 0.39757 0.31646 0.24841 0.0
C1784 C 0.41626 0.32146 0.17525 0.0
C1785 C 0.41504 0.31183 0.21108 0.0
C1786 C 0.42328 0.31822 0.15603 0.0
C1787 C 0.43738 0.30345 0.15244 0.0
C1788 C 0.42304 0.30951 0.19083 0.0
C1789 C 0.44414 0.29214 0.16853 0.0
C1790 C 0.41344 0.29544 0.22364 0.0
C1791 C 0.40021 0.33265 0.23559 0.0
N1792 N 0.43672 0.29524 0.18702 0.0
N1793 N 0.40851 0.32991 0.21745 0.0
H1794 H 0.53979 0.37731 0.9837 0.0
H1795 H 0.47309 0.35901 0.07531 0.0
H1796 H 0.52653 0.42569 0.02419 0.0
H1797 H 0.51609 0.31492 0.05879 0.0
H1798 H 0.49056 0.38343 0.05497 0.0
H1799 H 0.52958 0.35344 0.00915 0.0
C1800 C 0.53496 0.38284 0.99807 0.0
C1801 C 0.53393 0.40339 0.00197 0.0
C1802 C 0.49633 0.36849 0.05602 0.0
C1803 C 0.52193 0.37642 0.03074 0.0
C1804 C 0.48635 0.35457 0.06752 0.0
C1805 C 0.49319 0.33498 0.06863 0.0
C1806 C 0.51289 0.36261 0.04506 0.0
C1807 C 0.51044 0.32993 0.05832 0.0
C1808 C 0.52925 0.36928 0.01255 0.0
C1809 C 0.52758 0.40992 0.02073 0.0
N1810 N 0.51952 0.34359 0.04659 0.0
N1811 N 0.52145 0.39646 0.03433 0.0
H1812 H 0.59481 0.25015 0.21718 0.0
H1813 H 0.55883 0.26258 0.10369 0.0
H1814 H 0.63363 0.24181 0.16726 0.0
H1815 H 0.51966 0.26516 0.15398 0.0
H1816 H 0.58645 0.25474 0.12641 0.0
H1817 H 0.56715 0.25572 0.19399 0.0
C1818 C 0.59753 0.24956 0.20132 0.0
C1819 C 0.61659 0.24562 0.19416 0.0
C1820 C 0.57178 0.25694 0.13244 0.0
C1821 C 0.5849 0.25185 0.16743 0.0
C1822 C 0.556 0.26142 0.11947 0.0
C1823 C 0.53689 0.26461 0.12693 0.0
C1824 C 0.56843 0.25573 0.15301 0.0
C1825 C 0.53412 0.26288 0.14753 0.0
C1826 C 0.58169 0.25262 0.18806 0.0
C1827 C 0.61914 0.24467 0.17343 0.0
N1828 N 0.54971 0.25865 0.15982 0.0
N1829 N 0.6035 0.24787 0.16078 0.0
H1830 H 0.42827 0.16391 0.99104 0.0
H1831 H 0.46406 0.22032 0.0903 0.0
H1832 H 0.42968 0.13411 0.04744 0.0
H1833 H 0.43163 0.25046 0.04395 0.0
H1834 H 0.45648 0.18835 0.07321 0.0
H1835 H 0.43419 0.19592 0.00867 0.0
C1836 C 0.42975 0.16419 0.00715 0.0
C1837 C 0.4284 0.1465 0.01789 0.0
C1838 C 0.45101 0.202 0.06687 0.0
C1839 C 0.43557 0.18275 0.03799 0.0
C1840 C 0.45541 0.22021 0.07651 0.0
C1841 C 0.44843 0.23804 0.06852 0.0
C1842 C 0.43998 0.2017 0.0489 0.0
C1843 C 0.43721 0.23705 0.05067 0.0
C1844 C 0.43308 0.18238 0.01717 0.0
C1845 C 0.43046 0.14753 0.03871 0.0
N1846 N 0.43348 0.21919 0.04134 0.0
N1847 N 0.43417 0.16537 0.04812 0.0
H1848 H 0.28269 0.35013 0.76312 0.0
H1849 H 0.33391 0.44636 0.71505 0.0
H1850 H 0.27996 0.36078 0.6999 0.0
H1851 H 0.3235 0.4388 0.77781 0.0
H1852 H 0.31854 0.41322 0.70841 0.0
H1853 H 0.30245 0.38061 0.76795 0.0
C1854 C 0.28626 0.35892 0.75023 0.0
C1855 C 0.27937 0.35308 0.73113 0.0
C1856 C 0.31975 0.41888 0.72361 0.0
C1857 C 0.30217 0.38812 0.73653 0.0
C1858 C 0.32853 0.43772 0.7274 0.0
C1859 C 0.32982 0.44544 0.74699 0.0
C1860 C 0.31251 0.40769 0.73957 0.0
C1861 C 0.32264 0.43362 0.76244 0.0
C1862 C 0.29761 0.37632 0.75298 0.0
C1863 C 0.28495 0.36478 0.7149 0.0
N1864 N 0.31433 0.41543 0.75839 0.0
N1865 N 0.29589 0.38189 0.71797 0.0
H1866 H 0.23828 0.6175 0.73624 0.0
H1867 H 0.34513 0.56774 0.73384 0.0
H1868 H 0.29182 0.65324 0.74469 0.0
H1869 H 0.29449 0.54012 0.76163 0.0
H1870 H 0.32531 0.59794 0.72868 0.0
H1871 H 0.2585 0.58737 0.73612 0.0
C1872 C 0.25433 0.61898 0.73774 0.0
C1873 C 0.26345 0.6378 0.74054 0.0
C1874 C 0.3186 0.58515 0.73576 0.0
C1875 C 0.28656 0.60356 0.74023 0.0
C1876 C 0.32981 0.56797 0.73861 0.0
C1877 C 0.32142 0.55154 0.74828 0.0
C1878 C 0.29878 0.58554 0.74211 0.0
C1879 C 0.30155 0.55255 0.75427 0.0
C1880 C 0.26581 0.60184 0.73778 0.0
C1881 C 0.28428 0.63894 0.74261 0.0
N1882 N 0.29087 0.56922 0.75099 0.0
N1883 N 0.2952 0.62202 0.74238 0.0
H1884 H 0.8819 0.45355 0.48046 0.0
H1885 H 0.76928 0.41692 0.49322 0.0
H1886 H 0.83333 0.49466 0.48351 0.0
H1887 H 0.82036 0.37919 0.49991 0.0
H1888 H 0.79186 0.44587 0.49067 0.0
H1889 H 0.85909 0.42636 0.48843 0.0
C1890 C 0.86637 0.45682 0.48285 0.0
C1891 C 0.85941 0.47631 0.48112 0.0
C1892 C 0.79807 0.43126 0.49289 0.0
C1893 C 0.83308 0.44519 0.49025 0.0
C1894 C 0.7852 0.41473 0.49435 0.0
C1895 C 0.79292 0.39554 0.4966 0.0
C1896 C 0.81877 0.42853 0.49359 0.0
C1897 C 0.81367 0.39363 0.49801 0.0
C1898 C 0.85335 0.44131 0.4875 0.0
C1899 C 0.83923 0.4798 0.4847 0.0
N1900 N 0.82582 0.40985 0.49633 0.0
N1901 N 0.82667 0.46432 0.4889 0.0
H1902 H 0.77206 0.90333 0.78752 0.0
H1903 H 0.66832 0.92138 0.83571 0.0
H1904 H 0.76468 0.89982 0.85127 0.0
H1905 H 0.68732 0.95654 0.78603 0.0
H1906 H 0.70246 0.90969 0.84001 0.0
H1907 H 0.74012 0.91999 0.78495 0.0
C1908 C 0.76398 0.90626 0.80104 0.0
C1909 C 0.77119 0.89991 0.81965 0.0
C1910 C 0.69915 0.92008 0.82828 0.0
C1911 C 0.73422 0.9184 0.81657 0.0
C1912 C 0.6797 0.92666 0.82574 0.0
C1913 C 0.67504 0.9399 0.81047 0.0
C1914 C 0.7139 0.92639 0.81513 0.0
C1915 C 0.69035 0.94637 0.79803 0.0
C1916 C 0.74566 0.91568 0.79949 0.0
C1917 C 0.75962 0.90387 0.83651 0.0
N1918 N 0.70909 0.93932 0.80044 0.0
N1919 N 0.7416 0.91258 0.83452 0.0
H1920 H 0.6448 0.54487 0.92594 0.0
H1921 H 0.72279 0.60407 0.99758 0.0
H1922 H 0.63612 0.55353 0.98909 0.0
H1923 H 0.7325 0.59016 0.93546 0.0
H1924 H 0.68912 0.58957 0.99411 0.0
H1925 H 0.67492 0.56553 0.92852 0.0
C1926 C 0.64906 0.55135 0.94032 0.0
C1927 C 0.63793 0.54734 0.95734 0.0
C1928 C 0.6986 0.58987 0.98122 0.0
C1929 C 0.67275 0.57079 0.96048 0.0
C1930 C 0.71778 0.59819 0.98317 0.0
C1931 C 0.73057 0.59814 0.96683 0.0
C1932 C 0.69217 0.58153 0.9628 0.0
C1933 C 0.72327 0.59034 0.94852 0.0
C1934 C 0.66638 0.56305 0.94181 0.0
C1935 C 0.64441 0.55594 0.97563 0.0
N1936 N 0.70464 0.58226 0.94705 0.0
N1937 N 0.66147 0.56716 0.97675 0.0
H1938 H 0.19951 0.63838 0.28037 0.0
H1939 H 0.14072 0.53809 0.24667 0.0
H1940 H 0.19078 0.62004 0.21881 0.0
H1941 H 0.15205 0.55601 0.308 0.0
H1942 H 0.15736 0.56874 0.23598 0.0
H1943 H 0.18051 0.60909 0.29053 0.0
C1944 C 0.19361 0.62816 0.26897 0.0
C1945 C 0.19693 0.6316 0.2487 0.0
C1946 C 0.15615 0.56598 0.25177 0.0
C1947 C 0.17495 0.59798 0.26027 0.0
C1948 C 0.14664 0.54848 0.2579 0.0
C1949 C 0.14504 0.54441 0.27828 0.0
C1950 C 0.1641 0.57954 0.26612 0.0
C1951 C 0.15298 0.55846 0.29213 0.0
C1952 C 0.18268 0.61146 0.27479 0.0
C1953 C 0.18852 0.61805 0.23459 0.0
N1954 N 0.16219 0.57534 0.2858 0.0
N1955 N 0.17802 0.60177 0.24065 0.0
H1956 H 0.91053 0.53519 0.05618 0.0
H1957 H 0.81931 0.55061 0.98306 0.0
H1958 H 0.87432 0.48604 0.03272 0.0
H1959 H 0.83556 0.59554 0.02751 0.0
H1960 H 0.84155 0.52737 -0.00058 0.0
H1961 H 0.88503 0.55829 0.04484 0.0
C1962 C 0.89716 0.52919 0.04891 0.0
C1963 C 0.89477 0.50858 0.04516 0.0
C1964 C 0.84016 0.54226 0.0057 0.0
C1965 C 0.86584 0.53501 0.03181 0.0
C1966 C 0.82756 0.55557 0.99631 0.0
C1967 C 0.82568 0.57504 0.00391 0.0
C1968 C 0.85131 0.54856 0.0226 0.0
C1969 C 0.83659 0.58062 0.02121 0.0
C1970 C 0.88266 0.54242 0.04239 0.0
C1971 C 0.87716 0.50179 0.03545 0.0
N1972 N 0.8492 0.5675 0.02987 0.0
N1973 N 0.86352 0.51498 0.0289 0.0
H1974 H 0.08616 0.93484 0.01853 0.0
H1975 H 0.20215 0.91307 0.00493 0.0
H1976 H 0.12969 0.97961 0.00264 0.0
H1977 H 0.1581 0.86685 0.01486 0.0
H1978 H 0.17589 0.93775 0.00533 0.0
H1979 H 0.11235 0.9099 0.01855 0.0
C1980 C 0.10124 0.93945 0.01511 0.0
C1981 C 0.1057 0.95939 0.01056 0.0
C1982 C 0.17194 0.92222 0.00743 0.0
C1983 C 0.13577 0.93084 0.01047 0.0
C1984 C 0.18696 0.90808 0.00724 0.0
C1985 C 0.18236 0.8878 0.00985 0.0
C1986 C 0.1521 0.91612 0.01032 0.0
C1987 C 0.16236 0.8823 0.01276 0.0
C1988 C 0.11616 0.92517 0.01502 0.0
C1989 C 0.12547 0.9644 0.00599 0.0
N1990 N 0.14798 0.89637 0.01293 0.0
N1991 N 0.13975 0.95026 0.00611 0.0
loop_
_geom_bond_atom_site_label_1
_geom_bond_atom_site_label_2
_geom_bond_distance
_geom_bond_site_symmetry_2
_ccdc_geom_bond_type
C0 C1 1.391 . S
C0 C4 1.391 1_556 S
C0 H42 0.948 . S
C1 C0 1.391 . S
C1 C2 1.391 1_556 S
C2 C1 1.391 1_554 S
C2 H58 0.970 . S
C2 C59 1.392 . S
C3 C4 1.391 . S
C3 C7 1.397 . S
C3 C59 1.419 . S
C4 C0 1.391 1_554 S
C4 C3 1.391 . S
C4 C5 1.399 . S
C5 C4 1.399 . S
C5 C8 1.396 . S
C5 C17 1.453 . S
C5 C18 1.684 1_554 S
H6 C30 0.948 . S
C7 C3 1.397 . S
C7 C8 1.394 . S
C7 C26 1.723 . S
C8 C5 1.396 . S
C8 C7 1.394 . S
C8 C38 1.723 . S
H9 C32 0.970 . S
H10 C33 0.948 . S
H11 C39 0.982 . S
H12 C40 0.979 . S
H13 C40 0.980 . S
H14 C40 0.983 . S
H15 C39 0.979 1_565 S
H16 C39 0.977 . S
C17 C5 1.453 . S
C17 H46 0.982 . S
C17 H47 0.979 1_554 S
C17 H48 0.977 . S
C18 C5 1.684 1_556 S
C18 H43 0.979 . S
C18 H44 0.980 . S
C18 H45 0.983 . S
C19 C20 1.391 . S
C19 C24 1.391 1_655 S
C19 H49 0.948 . S
C20 C19 1.391 . S
C20 C21 1.391 1_655 S
C21 C20 1.391 1_455 S
C21 C22 1.392 . S
C21 H50 0.970 . S
C22 C21 1.392 . S
C22 C23 1.419 . S
C22 H51 0.948 . S
C23 C22 1.419 . S
C23 C24 1.391 . S
C23 C27 1.397 . S
C24 C19 1.391 1_455 S
C24 C23 1.391 . S
C24 C25 1.399 . S
C25 C24 1.399 . S
C25 C26 1.396 . S
C25 C28 1.453 . S
C25 C29 1.684 1_455 S
C26 C7 1.723 . S
C26 C25 1.396 . S
C26 C27 1.394 . S
C27 C23 1.397 . S
C27 C26 1.394 . S
C27 C37 1.723 . S
C28 C25 1.453 . S
C28 H52 0.982 . S
C28 H53 0.979 1_455 S
C28 H54 0.977 . S
C29 C25 1.684 1_655 S
C29 H55 0.979 . S
C29 H56 0.980 . S
C29 H57 0.983 . S
C30 H6 0.948 . S
C30 C31 1.391 . S
C30 C35 1.391 1_565 S
C31 C30 1.391 . S
C31 C32 1.391 1_565 S
C32 H9 0.970 . S
C32 C31 1.391 1_545 S
C32 C33 1.392 . S
C33 H10 0.948 . S
C33 C32 1.392 . S
C33 C34 1.419 . S
C34 C33 1.419 . S
C34 C35 1.391 . S
C34 C38 1.397 . S
C35 C30 1.391 1_545 S
C35 C34 1.391 . S
C35 C36 1.399 . S
C36 C35 1.399 . S
C36 C37 1.396 . S
C36 C39 1.453 . S
C36 C40 1.684 1_545 S
C37 C27 1.723 . S
C37 C36 1.396 . S
C37 C38 1.394 . S
C38 C8 1.723 . S
C38 C34 1.397 . S
C38 C37 1.394 . S
C39 H11 0.982 . S
C39 H15 0.979 1_545 S
C39 H16 0.977 . S
C39 C36 1.453 . S
C40 H12 0.979 . S
C40 H13 0.980 . S
C40 H14 0.983 . S
C40 C36 1.684 1_565 S
H41 C59 0.948 . S
H42 C0 0.948 . S
H43 C18 0.979 . S
H44 C18 0.980 . S
H45 C18 0.983 . S
H46 C17 0.982 . S
H47 C17 0.979 1_556 S
H48 C17 0.977 . S
H49 C19 0.948 . S
H50 C21 0.970 . S
H51 C22 0.948 . S
H52 C28 0.982 . S
H53 C28 0.979 1_655 S
H54 C28 0.977 . S
H55 C29 0.979 . S
H56 C29 0.980 . S
H57 C29 0.983 . S
H58 C2 0.970 . S
C59 C2 1.392 . S
C59 C3 1.419 . S
C59 H41 0.948 . S
C60 C61 1.391 . S
C60 C64 1.391 . S
C60 H102 0.948 . S
C61 C60 1.391 . S
C61 C62 1.391 . S
C62 C61 1.391 . S
C62 H118 0.947 . S
C62 C119 1.392 . S
C63 C64 1.391 . S
C63 C67 1.397 . S
C63 C119 1.419 . S
C64 C60 1.391 . S
C64 C63 1.391 . S
C64 C65 1.399 . S
C65 C64 1.399 . S
C65 C68 1.396 . S
C65 C77 1.453 . S
C65 C78 1.684 . S
H66 C90 0.948 . S
C67 C63 1.397 . S
C67 C68 1.394 . S
C67 C86 1.723 . S
C68 C65 1.396 . S
C68 C67 1.394 . S
C68 C98 1.723 . S
H69 C92 0.947 . S
H70 C93 0.948 . S
H71 C99 0.982 . S
H72 C100 0.979 . S
H73 C100 0.980 . S
H74 C100 0.983 . S
H75 C99 0.979 . S
H76 C99 0.977 . S
C77 C65 1.453 . S
C77 H106 0.982 . S
C77 H107 0.979 . S
C77 H108 0.977 . S
C78 C65 1.684 . S
C78 H103 0.979 . S
C78 H104 0.980 . S
C78 H105 0.983 . S
C79 C80 1.391 . S
C79 C84 1.391 . S
C79 H109 0.948 . S
C80 C79 1.391 . S
C80 C81 1.391 . S
C81 C80 1.391 . S
C81 C82 1.392 . S
C81 H110 0.947 . S
C82 C81 1.392 . S
C82 C83 1.419 . S
C82 H111 0.948 . S
C83 C82 1.419 . S
C83 C84 1.391 . S
C83 C87 1.397 . S
C84 C79 1.391 . S
C84 C83 1.391 . S
C84 C85 1.399 . S
C85 C84 1.399 . S
C85 C86 1.396 . S
C85 C88 1.453 . S
C85 C89 1.684 . S
C86 C67 1.723 . S
C86 C85 1.396 . S
C86 C87 1.394 . S
C87 C83 1.397 . S
C87 C86 1.394 . S
C87 C97 1.723 . S
C88 C85 1.453 . S
C88 H112 0.982 . S
C88 H113 0.979 . S
C88 H114 0.977 . S
C89 C85 1.684 . S
C89 H115 0.979 . S
C89 H116 0.980 . S
C89 H117 0.983 . S
C90 H66 0.948 . S
C90 C91 1.391 . S
C90 C95 1.391 . S
C91 C90 1.391 . S
C91 C92 1.391 . S
C92 H69 0.947 . S
C92 C91 1.391 . S
C92 C93 1.392 . S
C93 H70 0.948 . S
C93 C92 1.392 . S
C93 C94 1.419 . S
C94 C93 1.419 . S
C94 C95 1.391 . S
C94 C98 1.397 . S
C95 C90 1.391 . S
C95 C94 1.391 . S
C95 C96 1.399 . S
C96 C95 1.399 . S
C96 C97 1.396 . S
C96 C99 1.453 . S
C96 C100 1.684 . S
C97 C87 1.723 . S
C97 C96 1.396 . S
C97 C98 1.394 . S
C98 C68 1.723 . S
C98 C94 1.397 . S
C98 C97 1.394 . S
C99 H71 0.982 . S
C99 H75 0.979 . S
C99 H76 0.977 . S
C99 C96 1.453 . S
C100 H72 0.979 . S
C100 H73 0.980 . S
C100 H74 0.983 . S
C100 C96 1.684 . S
H101 C119 0.948 . S
H102 C60 0.948 . S
H103 C78 0.979 . S
H104 C78 0.980 . S
H105 C78 0.983 . S
H106 C77 0.982 . S
H107 C77 0.979 . S
H108 C77 0.977 . S
H109 C79 0.948 . S
H110 C81 0.947 . S
H111 C82 0.948 . S
H112 C88 0.982 . S
H113 C88 0.979 . S
H114 C88 0.977 . S
H115 C89 0.979 . S
H116 C89 0.980 . S
H117 C89 0.983 . S
H118 C62 0.947 . S
C119 C62 1.392 . S
C119 C63 1.419 . S
C119 H101 0.948 . S
C120 C121 1.391 1_554 S
C120 C124 1.391 . S
C120 H162 0.948 . S
C121 C120 1.391 1_556 S
C121 C122 1.391 . S
C122 C121 1.391 . S
C122 H178 0.947 . S
C122 C179 1.392 1_556 S
C123 C124 1.391 . S
C123 C127 1.397 . S
C123 C179 1.419 . S
C124 C120 1.391 . S
C124 C123 1.391 . S
C124 C125 1.399 . S
C125 C124 1.399 . S
C125 C128 1.396 . S
C125 C137 1.453 . S
C125 C138 1.684 1_655 S
H126 C150 0.948 . S
C127 C123 1.397 . S
C127 C128 1.394 . S
C127 C146 1.723 . S
C128 C125 1.396 . S
C128 C127 1.394 . S
C128 C158 1.723 . S
H129 C152 0.947 . S
H130 C153 0.948 1_455 S
H131 C159 0.982 . S
H132 C160 0.979 . S
H133 C160 0.980 . S
H134 C160 0.983 . S
H135 C159 0.979 . S
H136 C159 0.977 . S
C137 C125 1.453 . S
C137 H166 0.982 . S
C137 H167 0.979 . S
C137 H168 0.977 . S
C138 C125 1.684 1_455 S
C138 H163 0.979 . S
C138 H164 0.980 . S
C138 H165 0.983 . S
C139 C140 1.391 . S
C139 C144 1.391 . S
C139 H169 0.948 . S
C140 C139 1.391 . S
C140 C141 1.391 . S
C141 C140 1.391 . S
C141 C142 1.392 . S
C141 H170 0.947 . S
C142 C141 1.392 . S
C142 C143 1.419 . S
C142 H171 0.948 . S
C143 C142 1.419 . S
C143 C144 1.391 . S
C143 C147 1.397 . S
C144 C139 1.391 . S
C144 C143 1.391 . S
C144 C145 1.399 . S
C145 C144 1.399 . S
C145 C146 1.396 . S
C145 C148 1.453 . S
C145 C149 1.710 . S
C146 C127 1.723 . S
C146 C145 1.396 . S
C146 C147 1.394 . S
C147 C143 1.397 . S
C147 C146 1.394 . S
C147 C157 1.723 . S
C148 C145 1.453 . S
C148 H172 0.982 . S
C148 H173 0.979 . S
C148 H174 0.977 . S
C149 C145 1.710 . S
C149 H175 0.971 1_554 S
C149 H176 0.972 1_554 S
C149 H177 0.974 1_554 S
C150 H126 0.948 . S
C150 C151 1.391 1_655 S
C150 C155 1.391 . S
C151 C150 1.391 1_455 S
C151 C152 1.391 . S
C152 H129 0.947 . S
C152 C151 1.391 . S
C152 C153 1.392 1_455 S
C153 H130 0.948 1_655 S
C153 C152 1.392 1_655 S
C153 C154 1.419 . S
C154 C153 1.419 . S
C154 C155 1.391 . S
C154 C158 1.397 . S
C155 C150 1.391 . S
C155 C154 1.391 . S
C155 C156 1.399 . S
C156 C155 1.399 . S
C156 C157 1.396 . S
C156 C159 1.453 . S
C156 C160 1.684 . S
C157 C147 1.723 . S
C157 C156 1.396 . S
C157 C158 1.394 . S
C158 C128 1.723 . S
C158 C154 1.397 . S
C158 C157 1.394 . S
C159 H131 0.982 . S
C159 H135 0.979 . S
C159 H136 0.977 . S
C159 C156 1.453 . S
C160 H132 0.979 . S
C160 H133 0.980 . S
C160 H134 0.983 . S
C160 C156 1.684 . S
H161 C179 0.948 . S
H162 C120 0.948 . S
H163 C138 0.979 . S
H164 C138 0.980 . S
H165 C138 0.983 . S
H166 C137 0.982 . S
H167 C137 0.979 . S
H168 C137 0.977 . S
H169 C139 0.948 . S
H170 C141 0.947 . S
H171 C142 0.948 . S
H172 C148 0.982 . S
H173 C148 0.979 . S
H174 C148 0.977 . S
H175 C149 0.971 1_556 S
H176 C149 0.972 1_556 S
H177 C149 0.974 1_556 S
H178 C122 0.947 . S
C179 C122 1.392 1_554 S
C179 C123 1.419 . S
C179 H161 0.948 . S
C180 C181 1.391 . S
C180 C184 1.391 . S
C180 H222 0.948 . S
C181 C180 1.391 . S
C181 C182 1.391 . S
C182 C181 1.391 . S
C182 H238 0.947 . S
C182 C239 1.392 . S
C183 C184 1.391 . S
C183 C187 1.397 . S
C183 C239 1.419 . S
C184 C180 1.391 . S
C184 C183 1.391 . S
C184 C185 1.399 . S
C185 C184 1.399 . S
C185 C188 1.396 . S
C185 C197 1.453 . S
C185 C198 1.684 . S
H186 C210 0.948 . S
C187 C183 1.397 . S
C187 C188 1.394 . S
C187 C206 1.723 . S
C188 C185 1.396 . S
C188 C187 1.394 . S
C188 C218 1.723 . S
H189 C212 0.947 . S
H190 C213 0.948 . S
H191 C219 0.982 . S
H192 C220 0.979 . S
H193 C220 0.980 . S
H194 C220 0.983 . S
H195 C219 0.979 . S
H196 C219 0.977 . S
C197 C185 1.453 . S
C197 H226 0.982 . S
C197 H227 0.979 . S
C197 H228 0.977 . S
C198 C185 1.684 . S
C198 H223 0.979 . S
C198 H224 0.980 . S
C198 H225 0.983 . S
C199 C200 1.391 . S
C199 C204 1.391 . S
C199 H229 0.948 . S
C200 C199 1.391 . S
C200 C201 1.391 . S
C201 C200 1.391 . S
C201 C202 1.392 . S
C201 H230 0.947 . S
C202 C201 1.392 . S
C202 C203 1.419 . S
C202 H231 0.948 . S
C203 C202 1.419 . S
C203 C204 1.391 . S
C203 C207 1.397 . S
C204 C199 1.391 . S
C204 C203 1.391 . S
C204 C205 1.399 . S
C205 C204 1.399 . S
C205 C206 1.396 . S
C205 C208 1.453 . S
C205 C209 1.684 . S
C206 C187 1.723 . S
C206 C205 1.396 . S
C206 C207 1.394 . S
C207 C203 1.397 . S
C207 C206 1.394 . S
C207 C217 1.723 . S
C208 C205 1.453 . S
C208 H232 0.982 . S
C208 H233 0.979 . S
C208 H234 0.977 . S
C209 C205 1.684 . S
C209 H235 0.979 . S
C209 H236 0.980 . S
C209 H237 0.983 . S
C210 H186 0.948 . S
C210 C211 1.391 . S
C210 C215 1.391 . S
C211 C210 1.391 . S
C211 C212 1.391 . S
C212 H189 0.947 . S
C212 C211 1.391 . S
C212 C213 1.392 . S
C213 H190 0.948 . S
C213 C212 1.392 . S
C213 C214 1.419 . S
C214 C213 1.419 . S
C214 C215 1.391 . S
C214 C218 1.397 . S
C215 C210 1.391 . S
C215 C214 1.391 . S
C215 C216 1.399 . S
C216 C215 1.399 . S
C216 C217 1.396 . S
C216 C219 1.453 . S
C216 C220 1.684 . S
C217 C207 1.723 . S
C217 C216 1.396 . S
C217 C218 1.394 . S
C218 C188 1.723 . S
C218 C214 1.397 . S
C218 C217 1.394 . S
C219 H191 0.982 . S
C219 H195 0.979 . S
C219 H196 0.977 . S
C219 C216 1.453 . S
C220 H192 0.979 . S
C220 H193 0.980 . S
C220 H194 0.983 . S
C220 C216 1.684 . S
H221 C239 0.948 . S
H222 C180 0.948 . S
H223 C198 0.979 . S
H224 C198 0.980 . S
H225 C198 0.983 . S
H226 C197 0.982 . S
H227 C197 0.979 . S
H228 C197 0.977 . S
H229 C199 0.948 . S
H230 C201 0.947 . S
H231 C202 0.948 . S
H232 C208 0.982 . S
H233 C208 0.979 . S
H234 C208 0.977 . S
H235 C209 0.979 . S
H236 C209 0.980 . S
H237 C209 0.983 . S
H238 C182 0.947 . S
C239 C182 1.392 . S
C239 C183 1.419 . S
C239 H221 0.948 . S
C240 C241 1.391 . S
C240 C244 1.391 . S
C240 H282 0.948 . S
C241 C240 1.391 . S
C241 C242 1.391 . S
C242 C241 1.391 . S
C242 H298 0.947 . S
C242 C299 1.392 . S
C243 C244 1.391 . S
C243 C247 1.397 . S
C243 C299 1.419 . S
C244 C240 1.391 . S
C244 C243 1.391 . S
C244 C245 1.399 . S
C245 C244 1.399 . S
C245 C248 1.396 . S
C245 C257 1.453 . S
C245 C258 1.684 . S
H246 C270 0.963 . S
C247 C243 1.397 . S
C247 C248 1.394 . S
C247 C266 1.723 . S
C248 C245 1.396 . S
C248 C247 1.394 . S
C248 C278 1.723 . S
H249 C272 0.947 . S
H250 C273 0.948 . S
H251 C279 0.982 . S
H252 C280 0.979 . S
H253 C280 0.980 . S
H254 C280 0.983 1_545 S
H255 C279 0.979 . S
H256 C279 0.970 1_565 S
C257 C245 1.453 . S
C257 H286 0.982 . S
C257 H287 0.979 . S
C257 H288 0.977 . S
C258 C245 1.684 . S
C258 H283 0.979 . S
C258 H284 0.980 . S
C258 H285 0.983 . S
C259 C260 1.391 . S
C259 C264 1.391 . S
C259 H289 0.948 1_455 S
C260 C259 1.391 . S
C260 C261 1.391 . S
C261 C260 1.391 . S
C261 C262 1.392 . S
C261 H290 0.947 . S
C262 C261 1.392 . S
C262 C263 1.419 . S
C262 H291 0.948 . S
C263 C262 1.419 . S
C263 C264 1.391 . S
C263 C267 1.397 . S
C264 C259 1.391 . S
C264 C263 1.391 . S
C264 C265 1.399 . S
C265 C264 1.399 . S
C265 C266 1.396 . S
C265 C268 1.453 . S
C265 C269 1.684 . S
C266 C247 1.723 . S
C266 C265 1.396 . S
C266 C267 1.394 . S
C267 C263 1.397 . S
C267 C266 1.394 . S
C267 C277 1.723 . S
C268 C265 1.453 . S
C268 H292 0.982 1_455 S
C268 H293 0.979 1_455 S
C268 H294 0.977 . S
C269 C265 1.684 . S
C269 H295 0.979 . S
C269 H296 0.980 . S
C269 H297 0.983 . S
C270 H246 0.963 . S
C270 C271 1.386 1_545 S
C270 C275 1.378 1_545 S
C271 C270 1.386 1_565 S
C271 C272 1.433 . S
C272 H249 0.947 . S
C272 C271 1.433 . S
C272 C273 1.392 . S
C273 H250 0.948 . S
C273 C272 1.392 . S
C273 C274 1.419 . S
C274 C273 1.419 . S
C274 C275 1.391 . S
C274 C278 1.397 . S
C275 C270 1.378 1_565 S
C275 C274 1.391 . S
C275 C276 1.399 . S
C276 C275 1.399 . S
C276 C277 1.396 . S
C276 C279 1.453 1_565 S
C276 C280 1.684 . S
C277 C267 1.723 . S
C277 C276 1.396 . S
C277 C278 1.394 . S
C278 C248 1.723 . S
C278 C274 1.397 . S
C278 C277 1.394 . S
C279 H251 0.982 . S
C279 H255 0.979 . S
C279 H256 0.970 1_545 S
C279 C276 1.453 1_545 S
C280 H252 0.979 . S
C280 H253 0.980 . S
C280 H254 0.983 1_565 S
C280 C276 1.684 . S
H281 C299 0.948 . S
H282 C240 0.948 . S
H283 C258 0.979 . S
H284 C258 0.980 . S
H285 C258 0.983 . S
H286 C257 0.982 . S
H287 C257 0.979 . S
H288 C257 0.977 . S
H289 C259 0.948 1_655 S
H290 C261 0.947 . S
H291 C262 0.948 . S
H292 C268 0.982 1_655 S
H293 C268 0.979 1_655 S
H294 C268 0.977 . S
H295 C269 0.979 . S
H296 C269 0.980 . S
H297 C269 0.983 . S
H298 C242 0.947 . S
C299 C242 1.392 . S
C299 C243 1.419 . S
C299 H281 0.948 . S
C300 C301 1.391 . S
C300 C304 1.391 . S
C300 H342 0.948 . S
C301 C300 1.391 . S
C301 C302 1.391 . S
C302 C301 1.391 . S
C302 H358 0.947 . S
C302 C359 1.392 . S
C303 C304 1.391 . S
C303 C307 1.397 . S
C303 C359 1.419 . S
C304 C300 1.391 . S
C304 C303 1.391 . S
C304 C305 1.399 . S
C305 C304 1.399 . S
C305 C308 1.396 . S
C305 C317 1.453 . S
C305 C318 1.684 . S
H306 C330 0.948 . S
C307 C303 1.397 . S
C307 C308 1.394 . S
C307 C326 1.723 . S
C308 C305 1.396 . S
C308 C307 1.394 . S
C308 C338 1.723 . S
H309 C332 0.947 . S
H310 C333 0.948 . S
H311 C339 0.982 . S
H312 C340 0.979 . S
H313 C340 0.980 . S
H314 C340 0.983 . S
H315 C339 0.979 . S
H316 C339 0.977 . S
C317 C305 1.453 . S
C317 H346 0.982 . S
C317 H347 0.979 . S
C317 H348 0.977 . S
C318 C305 1.684 . S
C318 H343 0.979 . S
C318 H344 0.980 . S
C318 H345 0.983 . S
C319 C320 1.391 . S
C319 C324 1.391 . S
C319 H349 0.948 . S
C320 C319 1.391 . S
C320 C321 1.391 . S
C321 C320 1.391 . S
C321 C322 1.392 . S
C321 H350 0.947 . S
C322 C321 1.392 . S
C322 C323 1.419 . S
C322 H351 0.948 . S
C323 C322 1.419 . S
C323 C324 1.391 . S
C323 C327 1.397 . S
C324 C319 1.391 . S
C324 C323 1.391 . S
C324 C325 1.399 . S
C325 C324 1.399 . S
C325 C326 1.396 . S
C325 C328 1.453 . S
C325 C329 1.684 . S
C326 C307 1.723 . S
C326 C325 1.396 . S
C326 C327 1.394 . S
C327 C323 1.397 . S
C327 C326 1.394 . S
C327 C337 1.723 . S
C328 C325 1.453 . S
C328 H352 0.982 . S
C328 H353 0.979 . S
C328 H354 0.977 . S
C329 C325 1.684 . S
C329 H355 0.979 . S
C329 H356 0.980 . S
C329 H357 0.983 . S
C330 H306 0.948 . S
C330 C331 1.391 . S
C330 C335 1.391 . S
C331 C330 1.391 . S
C331 C332 1.391 . S
C332 H309 0.947 . S
C332 C331 1.391 . S
C332 C333 1.392 . S
C333 H310 0.948 . S
C333 C332 1.392 . S
C333 C334 1.419 . S
C334 C333 1.419 . S
C334 C335 1.391 . S
C334 C338 1.397 . S
C335 C330 1.391 . S
C335 C334 1.391 . S
C335 C336 1.399 . S
C336 C335 1.399 . S
C336 C337 1.396 . S
C336 C339 1.453 . S
C336 C340 1.684 . S
C337 C327 1.723 . S
C337 C336 1.396 . S
C337 C338 1.394 . S
C338 C308 1.723 . S
C338 C334 1.397 . S
C338 C337 1.394 . S
C339 H311 0.982 . S
C339 H315 0.979 . S
C339 H316 0.977 . S
C339 C336 1.453 . S
C340 H312 0.979 . S
C340 H313 0.980 . S
C340 H314 0.983 . S
C340 C336 1.684 . S
H341 C359 0.948 . S
H342 C300 0.948 . S
H343 C318 0.979 . S
H344 C318 0.980 . S
H345 C318 0.983 . S
H346 C317 0.982 . S
H347 C317 0.979 . S
H348 C317 0.977 . S
H349 C319 0.948 . S
H350 C321 0.947 . S
H351 C322 0.948 . S
H352 C328 0.982 . S
H353 C328 0.979 . S
H354 C328 0.977 . S
H355 C329 0.979 . S
H356 C329 0.980 . S
H357 C329 0.983 . S
H358 C302 0.947 . S
C359 C302 1.392 . S
C359 C303 1.419 . S
C359 H341 0.948 . S
C360 C361 1.391 . S
C360 C364 1.391 . S
C360 H402 0.948 . S
C361 C360 1.391 . S
C361 C362 1.391 . S
C362 C361 1.391 . S
C362 H418 0.947 . S
C362 C419 1.392 . S
C363 C364 1.391 . S
C363 C367 1.397 . S
C363 C419 1.419 . S
C364 C360 1.391 . S
C364 C363 1.391 . S
C364 C365 1.399 . S
C365 C364 1.399 . S
C365 C368 1.396 . S
C365 C377 1.453 . S
C365 C378 1.684 . S
H366 C390 0.948 . S
C367 C363 1.397 . S
C367 C368 1.394 . S
C367 C386 1.723 . S
C368 C365 1.396 . S
C368 C367 1.394 . S
C368 C398 1.723 . S
H369 C392 0.947 . S
H370 C393 0.948 . S
H371 C399 0.982 . S
H372 C400 0.979 . S
H373 C400 0.980 . S
H374 C400 0.983 . S
H375 C399 0.979 . S
H376 C399 0.977 . S
C377 C365 1.453 . S
C377 H406 0.982 . S
C377 H407 0.979 . S
C377 H408 0.977 . S
C378 C365 1.684 . S
C378 H403 0.979 . S
C378 H404 0.980 . S
C378 H405 0.983 . S
C379 C380 1.391 1_655 S
C379 C384 1.391 . S
C379 H409 0.948 . S
C380 C379 1.391 1_455 S
C380 C381 1.391 . S
C381 C380 1.391 . S
C381 C382 1.392 . S
C381 H410 0.947 . S
C382 C381 1.392 . S
C382 C383 1.419 1_455 S
C382 H411 0.948 . S
C383 C382 1.419 1_655 S
C383 C384 1.391 . S
C383 C387 1.397 . S
C384 C379 1.391 . S
C384 C383 1.391 . S
C384 C385 1.399 . S
C385 C384 1.399 . S
C385 C386 1.396 . S
C385 C388 1.453 . S
C385 C389 1.684 . S
C386 C367 1.723 . S
C386 C385 1.396 . S
C386 C387 1.394 . S
C387 C383 1.397 . S
C387 C386 1.394 . S
C387 C397 1.723 . S
C388 C385 1.453 . S
C388 H412 0.982 . S
C388 H413 0.979 . S
C388 H414 0.977 . S
C389 C385 1.684 . S
C389 H415 0.979 . S
C389 H416 0.980 . S
C389 H417 0.983 . S
C390 H366 0.948 . S
C390 C391 1.391 . S
C390 C395 1.391 . S
C391 C390 1.391 . S
C391 C392 1.391 . S
C392 H369 0.947 . S
C392 C391 1.391 . S
C392 C393 1.392 . S
C393 H370 0.948 . S
C393 C392 1.392 . S
C393 C394 1.419 . S
C394 C393 1.419 . S
C394 C395 1.391 . S
C394 C398 1.397 . S
C395 C390 1.391 . S
C395 C394 1.391 . S
C395 C396 1.399 . S
C396 C395 1.399 . S
C396 C397 1.396 . S
C396 C399 1.453 . S
C396 C400 1.684 1_655 S
C397 C387 1.723 . S
C397 C396 1.396 . S
C397 C398 1.394 . S
C398 C368 1.723 . S
C398 C394 1.397 . S
C398 C397 1.394 . S
C399 H371 0.982 . S
C399 H375 0.979 . S
C399 H376 0.977 . S
C399 C396 1.453 . S
C400 H372 0.979 . S
C400 H373 0.980 . S
C400 H374 0.983 . S
C400 C396 1.684 1_455 S
H401 C419 0.948 . S
H402 C360 0.948 . S
H403 C378 0.979 . S
H404 C378 0.980 . S
H405 C378 0.983 . S
H406 C377 0.982 . S
H407 C377 0.979 . S
H408 C377 0.977 . S
H409 C379 0.948 . S
H410 C381 0.947 . S
H411 C382 0.948 . S
H412 C388 0.982 . S
H413 C388 0.979 . S
H414 C388 0.977 . S
H415 C389 0.979 . S
H416 C389 0.980 . S
H417 C389 0.983 . S
H418 C362 0.947 . S
C419 C362 1.392 . S
C419 C363 1.419 . S
C419 H401 0.948 . S
C420 C421 1.391 . S
C420 C424 1.391 . S
C420 H462 0.948 . S
C421 C420 1.391 . S
C421 C422 1.391 . S
C422 C421 1.391 . S
C422 H478 0.947 . S
C422 C479 1.392 . S
C423 C424 1.391 . S
C423 C427 1.397 . S
C423 C479 1.419 . S
C424 C420 1.391 . S
C424 C423 1.391 . S
C424 C425 1.399 . S
C425 C424 1.399 . S
C425 C428 1.396 . S
C425 C437 1.453 . S
C425 C438 1.684 . S
H426 C450 0.948 . S
C427 C423 1.397 . S
C427 C428 1.394 . S
C427 C446 1.723 . S
C428 C425 1.396 . S
C428 C427 1.394 . S
C428 C458 1.723 . S
H429 C452 0.947 . S
H430 C453 0.948 . S
H431 C459 0.982 . S
H432 C460 0.979 . S
H433 C460 0.980 . S
H434 C460 0.983 . S
H435 C459 0.979 . S
H436 C459 0.977 . S
C437 C425 1.453 . S
C437 H466 0.982 . S
C437 H467 0.979 . S
C437 H468 0.977 . S
C438 C425 1.684 . S
C438 H463 0.979 . S
C438 H464 0.980 . S
C438 H465 0.983 . S
C439 C440 1.391 . S
C439 C444 1.391 . S
C439 H469 0.948 . S
C440 C439 1.391 . S
C440 C441 1.391 . S
C441 C440 1.391 . S
C441 C442 1.392 . S
C441 H470 0.947 . S
C442 C441 1.392 . S
C442 C443 1.419 . S
C442 H471 0.948 . S
C443 C442 1.419 . S
C443 C444 1.391 . S
C443 C447 1.397 . S
C444 C439 1.391 . S
C444 C443 1.391 . S
C444 C445 1.399 . S
C445 C444 1.399 . S
C445 C446 1.396 . S
C445 C448 1.453 . S
C445 C449 1.684 . S
C446 C427 1.723 . S
C446 C445 1.396 . S
C446 C447 1.394 . S
C447 C443 1.397 . S
C447 C446 1.394 . S
C447 C457 1.723 . S
C448 C445 1.453 . S
C448 H472 0.982 . S
C448 H473 0.979 . S
C448 H474 0.977 . S
C449 C445 1.684 . S
C449 H475 0.979 . S
C449 H476 0.980 . S
C449 H477 0.983 . S
C450 H426 0.948 . S
C450 C451 1.391 . S
C450 C455 1.391 . S
C451 C450 1.391 . S
C451 C452 1.391 . S
C452 H429 0.947 . S
C452 C451 1.391 . S
C452 C453 1.392 . S
C453 H430 0.948 . S
C453 C452 1.392 . S
C453 C454 1.419 . S
C454 C453 1.419 . S
C454 C455 1.391 . S
C454 C458 1.397 . S
C455 C450 1.391 . S
C455 C454 1.391 . S
C455 C456 1.399 . S
C456 C455 1.399 . S
C456 C457 1.396 . S
C456 C459 1.453 . S
C456 C460 1.684 . S
C457 C447 1.723 . S
C457 C456 1.396 . S
C457 C458 1.394 . S
C458 C428 1.723 . S
C458 C454 1.397 . S
C458 C457 1.394 . S
C459 H431 0.982 . S
C459 H435 0.979 . S
C459 H436 0.977 . S
C459 C456 1.453 . S
C460 H432 0.979 . S
C460 H433 0.980 . S
C460 H434 0.983 . S
C460 C456 1.684 . S
H461 C479 0.948 . S
H462 C420 0.948 . S
H463 C438 0.979 . S
H464 C438 0.980 . S
H465 C438 0.983 . S
H466 C437 0.982 . S
H467 C437 0.979 . S
H468 C437 0.977 . S
H469 C439 0.948 . S
H470 C441 0.947 . S
H471 C442 0.948 . S
H472 C448 0.982 . S
H473 C448 0.979 . S
H474 C448 0.977 . S
H475 C449 0.979 . S
H476 C449 0.980 . S
H477 C449 0.983 . S
H478 C422 0.947 . S
C479 C422 1.392 . S
C479 C423 1.419 . S
C479 H461 0.948 . S
C480 C481 1.391 . S
C480 C484 1.391 . S
C480 H522 0.948 . S
C481 C480 1.391 . S
C481 C482 1.391 . S
C482 C481 1.391 . S
C482 H538 0.947 . S
C482 C539 1.392 . S
C483 C484 1.391 . S
C483 C487 1.397 . S
C483 C539 1.419 . S
C484 C480 1.391 . S
C484 C483 1.391 . S
C484 C485 1.399 . S
C485 C484 1.399 . S
C485 C488 1.396 . S
C485 C497 1.453 . S
C485 C498 1.684 . S
H486 C510 0.948 . S
C487 C483 1.397 . S
C487 C488 1.394 . S
C487 C506 1.723 . S
C488 C485 1.396 . S
C488 C487 1.394 . S
C488 C518 1.723 . S
H489 C512 0.947 . S
H490 C513 0.948 . S
H491 C519 0.982 . S
H492 C520 0.979 . S
H493 C520 0.980 . S
H494 C520 0.983 . S
H495 C519 0.979 . S
H496 C519 0.977 . S
C497 C485 1.453 . S
C497 H526 0.982 . S
C497 H527 0.979 . S
C497 H528 0.977 . S
C498 C485 1.684 . S
C498 H523 0.979 . S
C498 H524 0.980 . S
C498 H525 0.983 . S
C499 C500 1.391 . S
C499 C504 1.391 . S
C499 H529 0.948 . S
C500 C499 1.391 . S
C500 C501 1.391 . S
C501 C500 1.391 . S
C501 C502 1.392 . S
C501 H530 0.947 . S
C502 C501 1.392 . S
C502 C503 1.419 . S
C502 H531 0.948 . S
C503 C502 1.419 . S
C503 C504 1.391 . S
C503 C507 1.397 . S
C504 C499 1.391 . S
C504 C503 1.391 . S
C504 C505 1.399 . S
C505 C504 1.399 . S
C505 C506 1.396 . S
C505 C508 1.453 . S
C505 C509 1.684 . S
C506 C487 1.723 . S
C506 C505 1.396 . S
C506 C507 1.394 . S
C507 C503 1.397 . S
C507 C506 1.394 . S
C507 C517 1.723 . S
C508 C505 1.453 . S
C508 H532 0.982 . S
C508 H533 0.979 . S
C508 H534 0.977 . S
C509 C505 1.684 . S
C509 H535 0.979 . S
C509 H536 0.980 . S
C509 H537 0.983 . S
C510 H486 0.948 . S
C510 C511 1.391 . S
C510 C515 1.391 . S
C511 C510 1.391 . S
C511 C512 1.391 . S
C512 H489 0.947 . S
C512 C511 1.391 . S
C512 C513 1.392 . S
C513 H490 0.948 . S
C513 C512 1.392 . S
C513 C514 1.419 . S
C514 C513 1.419 . S
C514 C515 1.391 . S
C514 C518 1.397 . S
C515 C510 1.391 . S
C515 C514 1.391 . S
C515 C516 1.399 . S
C516 C515 1.399 . S
C516 C517 1.396 . S
C516 C519 1.453 . S
C516 C520 1.684 . S
C517 C507 1.723 . S
C517 C516 1.396 . S
C517 C518 1.394 . S
C518 C488 1.723 . S
C518 C514 1.397 . S
C518 C517 1.394 . S
C519 H491 0.982 . S
C519 H495 0.979 . S
C519 H496 0.977 . S
C519 C516 1.453 . S
C520 H492 0.979 . S
C520 H493 0.980 . S
C520 H494 0.983 . S
C520 C516 1.684 . S
H521 C539 0.948 . S
H522 C480 0.948 . S
H523 C498 0.979 . S
H524 C498 0.980 . S
H525 C498 0.983 . S
H526 C497 0.982 . S
H527 C497 0.979 . S
H528 C497 0.977 . S
H529 C499 0.948 . S
H530 C501 0.947 . S
H531 C502 0.948 . S
H532 C508 0.982 . S
H533 C508 0.979 . S
H534 C508 0.977 . S
H535 C509 0.979 . S
H536 C509 0.980 . S
H537 C509 0.983 . S
H538 C482 0.947 . S
C539 C482 1.392 . S
C539 C483 1.419 . S
C539 H521 0.948 . S
C540 C541 1.391 . S
C540 C544 1.391 . S
C540 H582 0.948 . S
C541 C540 1.391 . S
C541 C542 1.391 . S
C542 C541 1.391 . S
C542 H598 0.947 . S
C542 C599 1.392 . S
C543 C544 1.391 . S
C543 C547 1.397 . S
C543 C599 1.419 . S
C544 C540 1.391 . S
C544 C543 1.391 . S
C544 C545 1.399 . S
C545 C544 1.399 . S
C545 C548 1.396 . S
C545 C557 1.453 . S
C545 C558 1.684 . S
H546 C570 0.948 . S
C547 C543 1.397 . S
C547 C548 1.394 . S
C547 C566 1.723 . S
C548 C545 1.396 . S
C548 C547 1.394 . S
C548 C578 1.723 . S
H549 C572 0.947 . S
H550 C573 0.948 . S
H551 C579 0.982 . S
H552 C580 0.979 . S
H553 C580 0.980 . S
H554 C580 0.983 . S
H555 C579 0.979 . S
H556 C579 0.977 . S
C557 C545 1.453 . S
C557 H586 0.982 . S
C557 H587 0.979 . S
C557 H588 0.977 . S
C558 C545 1.684 . S
C558 H583 0.979 . S
C558 H584 0.980 . S
C558 H585 0.983 . S
C559 C560 1.391 1_565 S
C559 C564 1.391 . S
C559 H589 0.948 . S
C560 C559 1.391 1_545 S
C560 C561 1.391 . S
C561 C560 1.391 . S
C561 C562 1.392 . S
C561 H590 0.947 . S
C562 C561 1.392 . S
C562 C563 1.419 1_545 S
C562 H591 0.948 . S
C563 C562 1.419 1_565 S
C563 C564 1.391 . S
C563 C567 1.397 . S
C564 C559 1.391 . S
C564 C563 1.391 . S
C564 C565 1.399 . S
C565 C564 1.399 . S
C565 C566 1.396 . S
C565 C568 1.453 . S
C565 C569 1.684 . S
C566 C547 1.723 . S
C566 C565 1.396 . S
C566 C567 1.394 . S
C567 C563 1.397 . S
C567 C566 1.394 . S
C567 C577 1.723 . S
C568 C565 1.453 . S
C568 H592 0.982 . S
C568 H593 0.979 . S
C568 H594 0.977 . S
C569 C565 1.684 . S
C569 H595 0.979 . S
C569 H596 0.980 . S
C569 H597 0.983 . S
C570 H546 0.948 . S
C570 C571 1.391 . S
C570 C575 1.391 . S
C571 C570 1.391 . S
C571 C572 1.391 . S
C572 H549 0.947 . S
C572 C571 1.391 . S
C572 C573 1.392 . S
C573 H550 0.948 . S
C573 C572 1.392 . S
C573 C574 1.419 . S
C574 C573 1.419 . S
C574 C575 1.391 . S
C574 C578 1.397 . S
C575 C570 1.391 . S
C575 C574 1.391 . S
C575 C576 1.399 . S
C576 C575 1.399 . S
C576 C577 1.396 . S
C576 C579 1.453 . S
C576 C580 1.684 1_565 S
C577 C567 1.723 . S
C577 C576 1.396 . S
C577 C578 1.394 . S
C578 C548 1.723 . S
C578 C574 1.397 . S
C578 C577 1.394 . S
C579 H551 0.982 . S
C579 H555 0.979 . S
C579 H556 0.977 . S
C579 C576 1.453 . S
C580 H552 0.979 . S
C580 H553 0.980 . S
C580 H554 0.983 . S
C580 C576 1.684 1_545 S
H581 C599 0.948 . S
H582 C540 0.948 . S
H583 C558 0.979 . S
H584 C558 0.980 . S
H585 C558 0.983 . S
H586 C557 0.982 . S
H587 C557 0.979 . S
H588 C557 0.977 . S
H589 C559 0.948 . S
H590 C561 0.947 . S
H591 C562 0.948 . S
H592 C568 0.982 . S
H593 C568 0.979 . S
H594 C568 0.977 . S
H595 C569 0.979 . S
H596 C569 0.980 . S
H597 C569 0.983 . S
H598 C542 0.947 . S
C599 C542 1.392 . S
C599 C543 1.419 . S
C599 H581 0.948 . S
C600 C601 1.391 . S
C600 C604 1.391 . S
C600 H642 0.948 . S
C601 C600 1.391 . S
C601 C602 1.391 . S
C602 C601 1.391 . S
C602 H658 0.947 . S
C602 C659 1.392 . S
C603 C604 1.391 . S
C603 C607 1.397 . S
C603 C659 1.419 . S
C604 C600 1.391 . S
C604 C603 1.391 . S
C604 C605 1.399 . S
C605 C604 1.399 . S
C605 C608 1.396 . S
C605 C617 1.453 . S
C605 C618 1.684 . S
H606 C630 0.948 . S
C607 C603 1.397 . S
C607 C608 1.394 . S
C607 C626 1.723 . S
C608 C605 1.396 . S
C608 C607 1.394 . S
C608 C638 1.723 . S
H609 C632 0.947 . S
H610 C633 0.948 . S
H611 C639 0.982 . S
H612 C640 0.979 . S
H613 C640 0.980 . S
H614 C640 0.983 . S
H615 C639 0.979 . S
H616 C639 0.977 . S
C617 C605 1.453 . S
C617 H646 0.982 . S
C617 H647 0.979 . S
C617 H648 0.977 . S
C618 C605 1.684 . S
C618 H643 0.979 . S
C618 H644 0.980 . S
C618 H645 0.983 . S
C619 C620 1.391 . S
C619 C624 1.391 . S
C619 H649 0.948 . S
C620 C619 1.391 . S
C620 C621 1.391 . S
C621 C620 1.391 . S
C621 C622 1.392 . S
C621 H650 0.947 . S
C622 C621 1.392 . S
C622 C623 1.419 . S
C622 H651 0.948 . S
C623 C622 1.419 . S
C623 C624 1.391 . S
C623 C627 1.397 . S
C624 C619 1.391 . S
C624 C623 1.391 . S
C624 C625 1.399 . S
C625 C624 1.399 . S
C625 C626 1.396 . S
C625 C628 1.453 . S
C625 C629 1.684 . S
C626 C607 1.723 . S
C626 C625 1.396 . S
C626 C627 1.394 . S
C627 C623 1.397 . S
C627 C626 1.394 . S
C627 C637 1.723 . S
C628 C625 1.453 . S
C628 H652 0.982 . S
C628 H653 0.979 . S
C628 H654 0.977 . S
C629 C625 1.684 . S
C629 H655 0.979 . S
C629 H656 0.980 . S
C629 H657 0.983 . S
C630 H606 0.948 . S
C630 C631 1.391 . S
C630 C635 1.391 . S
C631 C630 1.391 . S
C631 C632 1.391 . S
C632 H609 0.947 . S
C632 C631 1.391 . S
C632 C633 1.392 . S
C633 H610 0.948 . S
C633 C632 1.392 . S
C633 C634 1.419 . S
C634 C633 1.419 . S
C634 C635 1.391 . S
C634 C638 1.397 . S
C635 C630 1.391 . S
C635 C634 1.391 . S
C635 C636 1.399 . S
C636 C635 1.399 . S
C636 C637 1.396 . S
C636 C639 1.453 . S
C636 C640 1.684 . S
C637 C627 1.723 . S
C637 C636 1.396 . S
C637 C638 1.394 . S
C638 C608 1.723 . S
C638 C634 1.397 . S
C638 C637 1.394 . S
C639 H611 0.982 . S
C639 H615 0.979 . S
C639 H616 0.977 . S
C639 C636 1.453 . S
C640 H612 0.979 . S
C640 H613 0.980 . S
C640 H614 0.983 . S
C640 C636 1.684 . S
H641 C659 0.948 . S
H642 C600 0.948 . S
H643 C618 0.979 . S
H644 C618 0.980 . S
H645 C618 0.983 . S
H646 C617 0.982 . S
H647 C617 0.979 . S
H648 C617 0.977 . S
H649 C619 0.948 . S
H650 C621 0.947 . S
H651 C622 0.948 . S
H652 C628 0.982 . S
H653 C628 0.979 . S
H654 C628 0.977 . S
H655 C629 0.979 . S
H656 C629 0.980 . S
H657 C629 0.983 . S
H658 C602 0.947 . S
C659 C602 1.392 . S
C659 C603 1.419 . S
C659 H641 0.948 . S
C660 C661 1.391 . S
C660 C664 1.391 . S
C660 H702 0.948 . S
C661 C660 1.391 . S
C661 C662 1.391 . S
C662 C661 1.391 . S
C662 H718 0.947 . S
C662 C719 1.392 . S
C663 C664 1.391 . S
C663 C667 1.397 . S
C663 C719 1.419 . S
C664 C660 1.391 . S
C664 C663 1.391 . S
C664 C665 1.399 . S
C665 C664 1.399 . S
C665 C668 1.396 . S
C665 C677 1.453 . S
C665 C678 1.684 . S
H666 C690 0.948 . S
C667 C663 1.397 . S
C667 C668 1.394 . S
C667 C686 1.723 . S
C668 C665 1.396 . S
C668 C667 1.394 . S
C668 C698 1.723 . S
H669 C692 0.947 . S
H670 C693 0.948 . S
H671 C699 0.982 . S
H672 C700 0.979 . S
H673 C700 0.980 . S
H674 C700 0.983 . S
H675 C699 0.979 . S
H676 C699 0.977 . S
C677 C665 1.453 . S
C677 H706 0.982 . S
C677 H707 0.979 . S
C677 H708 0.977 . S
C678 C665 1.684 . S
C678 H703 0.979 . S
C678 H704 0.980 . S
C678 H705 0.983 . S
C679 C680 1.391 . S
C679 C684 1.391 . S
C679 H709 0.948 . S
C680 C679 1.391 . S
C680 C681 1.391 . S
C681 C680 1.391 . S
C681 C682 1.392 . S
C681 H710 0.947 . S
C682 C681 1.392 . S
C682 C683 1.419 . S
C682 H711 0.948 . S
C683 C682 1.419 . S
C683 C684 1.391 . S
C683 C687 1.397 . S
C684 C679 1.391 . S
C684 C683 1.391 . S
C684 C685 1.399 . S
C685 C684 1.399 . S
C685 C686 1.396 . S
C685 C688 1.453 . S
C685 C689 1.684 . S
C686 C667 1.723 . S
C686 C685 1.396 . S
C686 C687 1.394 . S
C687 C683 1.397 . S
C687 C686 1.394 . S
C687 C697 1.723 . S
C688 C685 1.453 . S
C688 H712 0.982 . S
C688 H713 0.979 . S
C688 H714 0.977 . S
C689 C685 1.684 . S
C689 H715 0.979 . S
C689 H716 0.980 . S
C689 H717 0.983 . S
C690 H666 0.948 . S
C690 C691 1.391 . S
C690 C695 1.391 . S
C691 C690 1.391 . S
C691 C692 1.391 . S
C692 H669 0.947 . S
C692 C691 1.391 . S
C692 C693 1.392 . S
C693 H670 0.948 . S
C693 C692 1.392 . S
C693 C694 1.419 . S
C694 C693 1.419 . S
C694 C695 1.391 . S
C694 C698 1.397 . S
C695 C690 1.391 . S
C695 C694 1.391 . S
C695 C696 1.399 . S
C696 C695 1.399 . S
C696 C697 1.396 . S
C696 C699 1.453 . S
C696 C700 1.684 . S
C697 C687 1.723 . S
C697 C696 1.396 . S
C697 C698 1.394 . S
C698 C668 1.723 . S
C698 C694 1.397 . S
C698 C697 1.394 . S
C699 H671 0.982 . S
C699 H675 0.979 . S
C699 H676 0.977 . S
C699 C696 1.453 . S
C700 H672 0.979 . S
C700 H673 0.980 . S
C700 H674 0.983 . S
C700 C696 1.684 . S
H701 C719 0.948 . S
H702 C660 0.948 . S
H703 C678 0.979 . S
H704 C678 0.980 . S
H705 C678 0.983 . S
H706 C677 0.982 . S
H707 C677 0.979 . S
H708 C677 0.977 . S
H709 C679 0.948 . S
H710 C681 0.947 . S
H711 C682 0.948 . S
H712 C688 0.982 . S
H713 C688 0.979 . S
H714 C688 0.977 . S
H715 C689 0.979 . S
H716 C689 0.980 . S
H717 C689 0.983 . S
H718 C662 0.947 . S
C719 C662 1.392 . S
C719 C663 1.419 . S
C719 H701 0.948 . S
C720 C721 1.391 . S
C720 C724 1.391 . S
C720 H762 0.948 . S
C721 C720 1.391 . S
C721 C722 1.391 . S
C722 C721 1.391 . S
C722 H778 0.947 . S
C722 C779 1.392 . S
C723 C724 1.391 . S
C723 C727 1.397 . S
C723 C779 1.419 . S
C724 C720 1.391 . S
C724 C723 1.391 . S
C724 C725 1.399 . S
C725 C724 1.399 . S
C725 C728 1.396 . S
C725 C737 1.453 . S
C725 C738 1.684 . S
H726 C750 0.948 . S
C727 C723 1.397 . S
C727 C728 1.394 . S
C727 C746 1.723 . S
C728 C725 1.396 . S
C728 C727 1.394 . S
C728 C758 1.723 . S
H729 C752 0.947 . S
H730 C753 0.948 . S
H731 C759 0.982 . S
H732 C760 0.979 . S
H733 C760 0.980 . S
H734 C760 0.983 . S
H735 C759 0.979 . S
H736 C759 0.977 . S
C737 C725 1.453 . S
C737 H766 0.982 . S
C737 H767 0.979 . S
C737 H768 0.977 . S
C738 C725 1.684 . S
C738 H763 0.979 . S
C738 H764 0.980 . S
C738 H765 0.983 . S
C739 C740 1.391 . S
C739 C744 1.391 . S
C739 H769 0.948 . S
C740 C739 1.391 . S
C740 C741 1.391 . S
C741 C740 1.391 . S
C741 C742 1.392 . S
C741 H770 0.947 . S
C742 C741 1.392 . S
C742 C743 1.419 . S
C742 H771 0.948 . S
C743 C742 1.419 . S
C743 C744 1.391 . S
C743 C747 1.397 . S
C744 C739 1.391 . S
C744 C743 1.391 . S
C744 C745 1.399 . S
C745 C744 1.399 . S
C745 C746 1.396 . S
C745 C748 1.453 . S
C745 C749 1.684 . S
C746 C727 1.723 . S
C746 C745 1.396 . S
C746 C747 1.394 . S
C747 C743 1.397 . S
C747 C746 1.394 . S
C747 C757 1.723 . S
C748 C745 1.453 . S
C748 H772 0.982 . S
C748 H773 0.979 . S
C748 H774 0.977 . S
C749 C745 1.684 . S
C749 H775 0.979 . S
C749 H776 0.980 . S
C749 H777 0.983 . S
C750 H726 0.948 . S
C750 C751 1.391 . S
C750 C755 1.391 . S
C751 C750 1.391 . S
C751 C752 1.391 . S
C752 H729 0.947 . S
C752 C751 1.391 . S
C752 C753 1.392 . S
C753 H730 0.948 . S
C753 C752 1.392 . S
C753 C754 1.419 . S
C754 C753 1.419 . S
C754 C755 1.391 . S
C754 C758 1.397 . S
C755 C750 1.391 . S
C755 C754 1.391 . S
C755 C756 1.399 . S
C756 C755 1.399 . S
C756 C757 1.396 . S
C756 C759 1.453 . S
C756 C760 1.684 . S
C757 C747 1.723 . S
C757 C756 1.396 . S
C757 C758 1.394 . S
C758 C728 1.723 . S
C758 C754 1.397 . S
C758 C757 1.394 . S
C759 H731 0.982 . S
C759 H735 0.979 . S
C759 H736 0.977 . S
C759 C756 1.453 . S
C760 H732 0.979 . S
C760 H733 0.980 . S
C760 H734 0.983 . S
C760 C756 1.684 . S
H761 C779 0.948 . S
H762 C720 0.948 . S
H763 C738 0.979 . S
H764 C738 0.980 . S
H765 C738 0.983 . S
H766 C737 0.982 . S
H767 C737 0.979 . S
H768 C737 0.977 . S
H769 C739 0.948 . S
H770 C741 0.947 . S
H771 C742 0.948 . S
H772 C748 0.982 . S
H773 C748 0.979 . S
H774 C748 0.977 . S
H775 C749 0.979 . S
H776 C749 0.980 . S
H777 C749 0.983 . S
H778 C722 0.947 . S
C779 C722 1.392 . S
C779 C723 1.419 . S
C779 H761 0.948 . S
C780 C781 1.391 . S
C780 C784 1.391 1_554 S
C780 H822 0.948 . S
C781 C780 1.391 . S
C781 C782 1.391 1_554 S
C782 C781 1.391 1_556 S
C782 H838 0.947 . S
C782 C839 1.392 . S
C783 C784 1.391 . S
C783 C787 1.397 . S
C783 C839 1.419 . S
C784 C780 1.391 1_556 S
C784 C783 1.391 . S
C784 C785 1.399 . S
C785 C784 1.399 . S
C785 C788 1.396 . S
C785 C797 1.453 1_556 S
C785 C798 1.684 . S
H786 C810 0.948 . S
C787 C783 1.397 . S
C787 C788 1.394 . S
C787 C806 1.723 . S
C788 C785 1.396 . S
C788 C787 1.394 . S
C788 C818 1.723 . S
H789 C812 0.947 . S
H790 C813 0.948 . S
H791 C819 0.982 . S
H792 C820 0.979 . S
H793 C820 0.980 . S
H794 C820 0.983 . S
H795 C819 0.979 . S
H796 C819 0.977 . S
C797 C785 1.453 1_554 S
C797 H826 0.982 . S
C797 H827 0.979 . S
C797 H828 0.977 . S
C798 C785 1.684 . S
C798 H823 0.979 . S
C798 H824 0.980 . S
C798 H825 0.983 1_556 S
C799 C800 1.391 . S
C799 C804 1.391 . S
C799 H829 0.948 . S
C800 C799 1.391 . S
C800 C801 1.391 . S
C801 C800 1.391 . S
C801 C802 1.392 . S
C801 H830 0.947 . S
C802 C801 1.392 . S
C802 C803 1.419 . S
C802 H831 0.948 . S
C803 C802 1.419 . S
C803 C804 1.391 . S
C803 C807 1.397 . S
C804 C799 1.391 . S
C804 C803 1.391 . S
C804 C805 1.399 . S
C805 C804 1.399 . S
C805 C806 1.396 . S
C805 C808 1.453 . S
C805 C809 1.684 . S
C806 C787 1.723 . S
C806 C805 1.396 . S
C806 C807 1.394 . S
C807 C803 1.397 . S
C807 C806 1.394 . S
C807 C817 1.723 . S
C808 C805 1.453 . S
C808 H832 0.982 . S
C808 H833 0.979 . S
C808 H834 0.977 . S
C809 C805 1.684 . S
C809 H835 0.979 . S
C809 H836 0.980 . S
C809 H837 0.983 . S
C810 H786 0.948 . S
C810 C811 1.391 . S
C810 C815 1.391 . S
C811 C810 1.391 . S
C811 C812 1.391 . S
C812 H789 0.947 . S
C812 C811 1.391 . S
C812 C813 1.392 . S
C813 H790 0.948 . S
C813 C812 1.392 . S
C813 C814 1.419 . S
C814 C813 1.419 . S
C814 C815 1.391 . S
C814 C818 1.397 . S
C815 C810 1.391 . S
C815 C814 1.391 . S
C815 C816 1.399 . S
C816 C815 1.399 . S
C816 C817 1.396 . S
C816 C819 1.453 . S
C816 C820 1.684 . S
C817 C807 1.723 . S
C817 C816 1.396 . S
C817 C818 1.394 . S
C818 C788 1.723 . S
C818 C814 1.397 . S
C818 C817 1.394 . S
C819 H791 0.982 . S
C819 H795 0.979 . S
C819 H796 0.977 . S
C819 C816 1.453 . S
C820 H792 0.979 . S
C820 H793 0.980 . S
C820 H794 0.983 . S
C820 C816 1.684 . S
H821 C839 0.948 . S
H822 C780 0.948 . S
H823 C798 0.979 . S
H824 C798 0.980 . S
H825 C798 0.983 1_554 S
H826 C797 0.982 . S
H827 C797 0.979 . S
H828 C797 0.977 . S
H829 C799 0.948 . S
H830 C801 0.947 . S
H831 C802 0.948 . S
H832 C808 0.982 . S
H833 C808 0.979 . S
H834 C808 0.977 . S
H835 C809 0.979 . S
H836 C809 0.980 . S
H837 C809 0.983 . S
H838 C782 0.947 . S
C839 C782 1.392 . S
C839 C783 1.419 . S
C839 H821 0.948 . S
C840 C841 1.391 . S
C840 C844 1.391 . S
C840 H882 0.948 . S
C841 C840 1.391 . S
C841 C842 1.391 . S
C842 C841 1.391 . S
C842 H898 0.947 . S
C842 C899 1.392 . S
C843 C844 1.391 . S
C843 C847 1.397 . S
C843 C899 1.419 . S
C844 C840 1.391 . S
C844 C843 1.391 . S
C844 C845 1.399 . S
C845 C844 1.399 . S
C845 C848 1.396 . S
C845 C857 1.453 . S
C845 C858 1.684 . S
H846 C870 0.948 . S
C847 C843 1.397 . S
C847 C848 1.394 . S
C847 C866 1.723 . S
C848 C845 1.396 . S
C848 C847 1.394 . S
C848 C878 1.723 . S
H849 C872 0.947 . S
H850 C873 0.948 . S
H851 C879 0.982 . S
H852 C880 0.979 . S
H853 C880 0.980 . S
H854 C880 0.983 . S
H855 C879 0.979 . S
H856 C879 0.977 . S
C857 C845 1.453 . S
C857 H886 0.982 . S
C857 H887 0.979 . S
C857 H888 0.977 . S
C858 C845 1.684 . S
C858 H883 0.979 . S
C858 H884 0.980 . S
C858 H885 0.983 . S
C859 C860 1.391 . S
C859 C864 1.391 . S
C859 H889 0.948 . S
C860 C859 1.391 . S
C860 C861 1.391 . S
C861 C860 1.391 . S
C861 C862 1.392 . S
C861 H890 0.947 . S
C862 C861 1.392 . S
C862 C863 1.419 . S
C862 H891 0.948 . S
C863 C862 1.419 . S
C863 C864 1.391 . S
C863 C867 1.397 . S
C864 C859 1.391 . S
C864 C863 1.391 . S
C864 C865 1.399 . S
C865 C864 1.399 . S
C865 C866 1.396 . S
C865 C868 1.453 . S
C865 C869 1.684 . S
C866 C847 1.723 . S
C866 C865 1.396 . S
C866 C867 1.394 . S
C867 C863 1.397 . S
C867 C866 1.394 . S
C867 C877 1.723 . S
C868 C865 1.453 . S
C868 H892 0.982 . S
C868 H893 0.979 . S
C868 H894 0.977 . S
C869 C865 1.684 . S
C869 H895 0.979 . S
C869 H896 0.980 . S
C869 H897 0.983 . S
C870 H846 0.948 . S
C870 C871 1.391 . S
C870 C875 1.391 . S
C871 C870 1.391 . S
C871 C872 1.391 . S
C872 H849 0.947 . S
C872 C871 1.391 . S
C872 C873 1.392 . S
C873 H850 0.948 . S
C873 C872 1.392 . S
C873 C874 1.419 . S
C874 C873 1.419 . S
C874 C875 1.391 . S
C874 C878 1.397 . S
C875 C870 1.391 . S
C875 C874 1.391 . S
C875 C876 1.399 . S
C876 C875 1.399 . S
C876 C877 1.396 . S
C876 C879 1.453 . S
C876 C880 1.684 . S
C877 C867 1.723 . S
C877 C876 1.396 . S
C877 C878 1.394 . S
C878 C848 1.723 . S
C878 C874 1.397 . S
C878 C877 1.394 . S
C879 H851 0.982 . S
C879 H855 0.979 . S
C879 H856 0.977 . S
C879 C876 1.453 . S
C880 H852 0.979 . S
C880 H853 0.980 . S
C880 H854 0.983 . S
C880 C876 1.684 . S
H881 C899 0.948 . S
H882 C840 0.948 . S
H883 C858 0.979 . S
H884 C858 0.980 . S
H885 C858 0.983 . S
H886 C857 0.982 . S
H887 C857 0.979 . S
H888 C857 0.977 . S
H889 C859 0.948 . S
H890 C861 0.947 . S
H891 C862 0.948 . S
H892 C868 0.982 . S
H893 C868 0.979 . S
H894 C868 0.977 . S
H895 C869 0.979 . S
H896 C869 0.980 . S
H897 C869 0.983 . S
H898 C842 0.947 . S
C899 C842 1.392 . S
C899 C843 1.419 . S
C899 H881 0.948 . S
C900 C901 1.391 1_545 S
C900 C904 1.391 . S
C900 H942 0.948 . S
C901 C900 1.391 1_565 S
C901 C902 1.391 . S
C902 C901 1.391 . S
C902 H958 0.947 . S
C902 C959 1.392 1_565 S
C903 C904 1.391 . S
C903 C907 1.397 . S
C903 C959 1.419 . S
C904 C900 1.391 . S
C904 C903 1.391 . S
C904 C905 1.399 . S
C905 C904 1.399 . S
C905 C908 1.396 . S
C905 C917 1.453 . S
C905 C918 1.684 1_556 S
H906 C930 0.948 . S
C907 C903 1.397 . S
C907 C908 1.394 . S
C907 C926 1.723 . S
C908 C905 1.396 . S
C908 C907 1.394 . S
C908 C938 1.723 . S
H909 C932 0.947 . S
H910 C933 0.948 1_554 S
H911 C939 0.982 . S
H912 C940 0.979 . S
H913 C940 0.980 . S
H914 C940 0.983 . S
H915 C939 0.979 . S
H916 C939 0.977 . S
C917 C905 1.453 . S
C917 H946 0.982 . S
C917 H947 0.979 . S
C917 H948 0.977 . S
C918 C905 1.684 1_554 S
C918 H943 0.979 . S
C918 H944 0.980 . S
C918 H945 0.983 . S
C919 C920 1.391 . S
C919 C924 1.391 . S
C919 H949 0.948 . S
C920 C919 1.391 . S
C920 C921 1.391 . S
C921 C920 1.391 . S
C921 C922 1.392 . S
C921 H950 0.947 . S
C922 C921 1.392 . S
C922 C923 1.419 . S
C922 H951 0.948 . S
C923 C922 1.419 . S
C923 C924 1.391 . S
C923 C927 1.397 . S
C924 C919 1.391 . S
C924 C923 1.391 . S
C924 C925 1.399 . S
C925 C924 1.399 . S
C925 C926 1.396 . S
C925 C928 1.453 . S
C925 C929 1.710 . S
C926 C907 1.723 . S
C926 C925 1.396 . S
C926 C927 1.394 . S
C927 C923 1.397 . S
C927 C926 1.394 . S
C927 C937 1.723 . S
C928 C925 1.453 . S
C928 H952 0.982 . S
C928 H953 0.979 . S
C928 H954 0.977 . S
C929 C925 1.710 . S
C929 H955 0.971 1_545 S
C929 H956 0.972 1_545 S
C929 H957 0.974 1_545 S
C930 H906 0.948 . S
C930 C931 1.391 1_556 S
C930 C935 1.391 . S
C931 C930 1.391 1_554 S
C931 C932 1.391 . S
C932 H909 0.947 . S
C932 C931 1.391 . S
C932 C933 1.392 1_554 S
C933 H910 0.948 1_556 S
C933 C932 1.392 1_556 S
C933 C934 1.419 . S
C934 C933 1.419 . S
C934 C935 1.391 . S
C934 C938 1.397 . S
C935 C930 1.391 . S
C935 C934 1.391 . S
C935 C936 1.399 . S
C936 C935 1.399 . S
C936 C937 1.396 . S
C936 C939 1.453 . S
C936 C940 1.684 . S
C937 C927 1.723 . S
C937 C936 1.396 . S
C937 C938 1.394 . S
C938 C908 1.723 . S
C938 C934 1.397 . S
C938 C937 1.394 . S
C939 H911 0.982 . S
C939 H915 0.979 . S
C939 H916 0.977 . S
C939 C936 1.453 . S
C940 H912 0.979 . S
C940 H913 0.980 . S
C940 H914 0.983 . S
C940 C936 1.684 . S
H941 C959 0.948 . S
H942 C900 0.948 . S
H943 C918 0.979 . S
H944 C918 0.980 . S
H945 C918 0.983 . S
H946 C917 0.982 . S
H947 C917 0.979 . S
H948 C917 0.977 . S
H949 C919 0.948 . S
H950 C921 0.947 . S
H951 C922 0.948 . S
H952 C928 0.982 . S
H953 C928 0.979 . S
H954 C928 0.977 . S
H955 C929 0.971 1_565 S
H956 C929 0.972 1_565 S
H957 C929 0.974 1_565 S
H958 C902 0.947 . S
C959 C902 1.392 1_545 S
C959 C903 1.419 . S
C959 H941 0.948 . S
Zn960 O963 2.030 . S
Zn960 O965 2.050 1_554 S
Zn960 O970 2.069 1_554 S
Zn961 O962 1.962 . S
Zn961 O964 1.986 . S
Zn961 O966 1.996 . S
Zn961 O969 1.943 1_554 S
O962 Zn961 1.962 . S
O962 C967 1.254 . S
O963 Zn960 2.030 . S
O963 C967 1.269 . S
O964 Zn961 1.986 . S
O964 C971 1.262 . S
O965 Zn960 2.050 1_556 S
O965 C973 1.260 . S
O966 Zn961 1.996 . S
O966 C973 1.257 1_554 S
C967 O962 1.254 . S
C967 O963 1.269 . S
C968 O969 1.249 . S
C968 O970 1.270 . S
O969 Zn961 1.943 1_556 S
O969 C968 1.249 . S
O970 Zn960 2.069 1_556 S
O970 C968 1.270 . S
C971 O964 1.262 . S
C971 O972 1.232 . S
O972 C971 1.232 . S
C973 O965 1.260 . S
C973 O966 1.257 1_556 S
Zn974 O977 2.031 . S
Zn974 O979 2.049 . S
Zn974 O984 2.067 . S
Zn975 O976 1.962 . S
Zn975 O978 1.986 . S
Zn975 O980 1.996 . S
Zn975 O983 1.943 . S
O976 Zn975 1.962 . S
O976 C981 1.254 . S
O977 Zn974 2.031 . S
O977 C981 1.269 . S
O978 Zn975 1.986 . S
O978 C985 1.262 . S
O979 Zn974 2.049 . S
O979 C987 1.260 . S
O980 Zn975 1.996 . S
O980 C987 1.257 . S
C981 O976 1.254 . S
C981 O977 1.269 . S
C982 O983 1.249 . S
C982 O984 1.270 . S
O983 Zn975 1.943 . S
O983 C982 1.249 . S
O984 Zn974 2.067 . S
O984 C982 1.270 . S
C985 O978 1.262 . S
C985 O986 1.232 . S
O986 C985 1.232 . S
C987 O979 1.260 . S
C987 O980 1.257 . S
Zn988 O991 2.031 . S
Zn988 O993 2.049 . S
Zn988 O998 2.067 . S
Zn989 O990 1.962 . S
Zn989 O992 1.986 . S
Zn989 O994 1.996 1_554 S
Zn989 O997 1.943 . S
O990 Zn989 1.962 . S
O990 C995 1.254 . S
O991 Zn988 2.031 . S
O991 C995 1.269 1_556 S
O992 Zn989 1.986 . S
O992 C999 1.262 . S
O993 Zn988 2.049 . S
O993 C1001 1.260 . S
O994 Zn989 1.996 1_556 S
O994 C1001 1.257 . S
C995 O990 1.254 . S
C995 O991 1.269 1_554 S
C996 O997 1.249 1_556 S
C996 O998 1.270 . S
O997 Zn989 1.943 . S
O997 C996 1.249 1_554 S
O998 Zn988 2.067 . S
O998 C996 1.270 . S
C999 O992 1.262 . S
C999 O1000 1.232 . S
O1000 C999 1.232 . S
C1001 O993 1.260 . S
C1001 O994 1.257 . S
Zn1002 O1005 2.030 . S
Zn1002 O1007 2.050 1_545 S
Zn1002 O1012 2.069 1_545 S
Zn1003 O1004 1.962 . S
Zn1003 O1006 1.986 . S
Zn1003 O1008 1.996 . S
Zn1003 O1011 1.943 1_545 S
O1004 Zn1003 1.962 . S
O1004 C1009 1.254 . S
O1005 Zn1002 2.030 . S
O1005 C1009 1.269 . S
O1006 Zn1003 1.986 . S
O1006 C1013 1.262 . S
O1007 Zn1002 2.050 1_565 S
O1007 C1015 1.260 . S
O1008 Zn1003 1.996 . S
O1008 C1015 1.257 1_545 S
C1009 O1004 1.254 . S
C1009 O1005 1.269 . S
C1010 O1011 1.249 . S
C1010 O1012 1.270 . S
O1011 Zn1003 1.943 1_565 S
O1011 C1010 1.249 . S
O1012 Zn1002 2.069 1_565 S
O1012 C1010 1.270 . S
C1013 O1006 1.262 . S
C1013 O1014 1.232 . S
O1014 C1013 1.232 . S
C1015 O1007 1.260 . S
C1015 O1008 1.257 1_565 S
Zn1016 O1019 2.031 . S
Zn1016 O1021 2.049 . S
Zn1016 O1026 2.067 . S
Zn1017 O1018 1.962 . S
Zn1017 O1020 1.986 . S
Zn1017 O1022 1.996 . S
Zn1017 O1025 1.943 . S
O1018 Zn1017 1.962 . S
O1018 C1023 1.254 . S
O1019 Zn1016 2.031 . S
O1019 C1023 1.269 . S
O1020 Zn1017 1.986 . S
O1020 C1027 1.262 . S
O1021 Zn1016 2.049 . S
O1021 C1029 1.260 . S
O1022 Zn1017 1.996 . S
O1022 C1029 1.257 . S
C1023 O1018 1.254 . S
C1023 O1019 1.269 . S
C1024 O1025 1.249 . S
C1024 O1026 1.270 . S
O1025 Zn1017 1.943 . S
O1025 C1024 1.249 . S
O1026 Zn1016 2.067 . S
O1026 C1024 1.270 . S
C1027 O1020 1.262 . S
C1027 O1028 1.232 . S
O1028 C1027 1.232 . S
C1029 O1021 1.260 . S
C1029 O1022 1.257 . S
Zn1030 O1033 2.031 . S
Zn1030 O1035 2.049 . S
Zn1030 O1040 2.067 . S
Zn1031 O1032 1.962 . S
Zn1031 O1034 1.986 . S
Zn1031 O1036 1.996 . S
Zn1031 O1039 1.943 . S
O1032 Zn1031 1.962 . S
O1032 C1037 1.254 . S
O1033 Zn1030 2.031 . S
O1033 C1037 1.269 . S
O1034 Zn1031 1.986 . S
O1034 C1041 1.262 . S
O1035 Zn1030 2.049 . S
O1035 C1043 1.260 . S
O1036 Zn1031 1.996 . S
O1036 C1043 1.257 . S
C1037 O1032 1.254 . S
C1037 O1033 1.269 . S
C1038 O1039 1.249 . S
C1038 O1040 1.270 . S
O1039 Zn1031 1.943 . S
O1039 C1038 1.249 . S
O1040 Zn1030 2.067 . S
O1040 C1038 1.270 . S
C1041 O1034 1.262 . S
C1041 O1042 1.232 . S
O1042 C1041 1.232 . S
C1043 O1035 1.260 . S
C1043 O1036 1.257 . S
Zn1044 O1047 2.031 . S
Zn1044 O1049 2.049 . S
Zn1044 O1054 2.067 . S
Zn1045 O1046 1.962 . S
Zn1045 O1048 1.986 . S
Zn1045 O1050 1.996 . S
Zn1045 O1053 1.943 . S
O1046 Zn1045 1.962 . S
O1046 C1051 1.254 . S
O1047 Zn1044 2.031 . S
O1047 C1051 1.269 . S
O1048 Zn1045 1.986 . S
O1048 C1055 1.262 . S
O1049 Zn1044 2.049 . S
O1049 C1057 1.260 . S
O1050 Zn1045 1.996 . S
O1050 C1057 1.257 . S
C1051 O1046 1.254 . S
C1051 O1047 1.269 . S
C1052 O1053 1.249 . S
C1052 O1054 1.270 . S
O1053 Zn1045 1.943 . S
O1053 C1052 1.249 . S
O1054 Zn1044 2.067 . S
O1054 C1052 1.270 . S
C1055 O1048 1.262 . S
C1055 O1056 1.232 . S
O1056 C1055 1.232 . S
C1057 O1049 1.260 . S
C1057 O1050 1.257 . S
Zn1058 O1061 2.031 . S
Zn1058 O1063 2.049 . S
Zn1058 O1068 2.067 . S
Zn1059 O1060 1.962 . S
Zn1059 O1062 1.986 . S
Zn1059 O1064 1.996 1_545 S
Zn1059 O1067 1.943 . S
O1060 Zn1059 1.962 . S
O1060 C1065 1.254 . S
O1061 Zn1058 2.031 . S
O1061 C1065 1.269 1_565 S
O1062 Zn1059 1.986 . S
O1062 C1069 1.262 . S
O1063 Zn1058 2.049 . S
O1063 C1071 1.260 . S
O1064 Zn1059 1.996 1_565 S
O1064 C1071 1.257 . S
C1065 O1060 1.254 . S
C1065 O1061 1.269 1_545 S
C1066 O1067 1.249 1_565 S
C1066 O1068 1.270 . S
O1067 Zn1059 1.943 . S
O1067 C1066 1.249 1_545 S
O1068 Zn1058 2.067 . S
O1068 C1066 1.270 . S
C1069 O1062 1.262 . S
C1069 O1070 1.232 . S
O1070 C1069 1.232 . S
C1071 O1063 1.260 . S
C1071 O1064 1.257 . S
Zn1072 O1075 2.030 . S
Zn1072 O1077 2.050 1_455 S
Zn1072 O1082 2.069 1_455 S
Zn1073 O1074 1.962 . S
Zn1073 O1076 1.986 . S
Zn1073 O1078 1.996 . S
Zn1073 O1081 1.943 1_455 S
O1074 Zn1073 1.962 . S
O1074 C1079 1.254 . S
O1075 Zn1072 2.030 . S
O1075 C1079 1.269 . S
O1076 Zn1073 1.986 . S
O1076 C1083 1.262 . S
O1077 Zn1072 2.050 1_655 S
O1077 C1085 1.260 . S
O1078 Zn1073 1.996 . S
O1078 C1085 1.257 1_455 S
C1079 O1074 1.254 . S
C1079 O1075 1.269 . S
C1080 O1081 1.249 . S
C1080 O1082 1.270 . S
O1081 Zn1073 1.943 1_655 S
O1081 C1080 1.249 . S
O1082 Zn1072 2.069 1_655 S
O1082 C1080 1.270 . S
C1083 O1076 1.262 . S
C1083 O1084 1.232 . S
O1084 C1083 1.232 . S
C1085 O1077 1.260 . S
C1085 O1078 1.257 1_655 S
Zn1086 O1089 2.031 . S
Zn1086 O1091 2.049 . S
Zn1086 O1096 2.067 . S
Zn1087 O1088 1.962 . S
Zn1087 O1090 1.986 . S
Zn1087 O1092 1.996 . S
Zn1087 O1095 1.943 . S
O1088 Zn1087 1.962 . S
O1088 C1093 1.254 . S
O1089 Zn1086 2.031 . S
O1089 C1093 1.269 . S
O1090 Zn1087 1.986 . S
O1090 C1097 1.262 . S
O1091 Zn1086 2.049 . S
O1091 C1099 1.260 . S
O1092 Zn1087 1.996 . S
O1092 C1099 1.257 . S
C1093 O1088 1.254 . S
C1093 O1089 1.269 . S
C1094 O1095 1.249 . S
C1094 O1096 1.270 . S
O1095 Zn1087 1.943 . S
O1095 C1094 1.249 . S
O1096 Zn1086 2.067 . S
O1096 C1094 1.270 . S
C1097 O1090 1.262 . S
C1097 O1098 1.232 . S
O1098 C1097 1.232 . S
C1099 O1091 1.260 . S
C1099 O1092 1.257 . S
Zn1100 O1103 2.031 . S
Zn1100 O1105 2.049 . S
Zn1100 O1110 2.067 . S
Zn1101 O1102 1.962 . S
Zn1101 O1104 1.986 . S
Zn1101 O1106 1.996 1_455 S
Zn1101 O1109 1.943 . S
O1102 Zn1101 1.962 . S
O1102 C1107 1.254 . S
O1103 Zn1100 2.031 . S
O1103 C1107 1.269 1_655 S
O1104 Zn1101 1.986 . S
O1104 C1111 1.262 . S
O1105 Zn1100 2.049 . S
O1105 C1113 1.260 . S
O1106 Zn1101 1.996 1_655 S
O1106 C1113 1.257 . S
C1107 O1102 1.254 . S
C1107 O1103 1.269 1_455 S
C1108 O1109 1.249 1_655 S
C1108 O1110 1.270 . S
O1109 Zn1101 1.943 . S
O1109 C1108 1.249 1_455 S
O1110 Zn1100 2.067 . S
O1110 C1108 1.270 . S
C1111 O1104 1.262 . S
C1111 O1112 1.232 . S
O1112 C1111 1.232 . S
C1113 O1105 1.260 . S
C1113 O1106 1.257 . S
Zn1114 O1117 2.031 . S
Zn1114 O1119 2.049 . S
Zn1114 O1124 2.067 . S
Zn1115 O1116 1.962 . S
Zn1115 O1118 1.986 . S
Zn1115 O1120 1.996 . S
Zn1115 O1123 1.943 . S
O1116 Zn1115 1.962 . S
O1116 C1121 1.254 . S
O1117 Zn1114 2.031 . S
O1117 C1121 1.269 . S
O1118 Zn1115 1.986 . S
O1118 C1125 1.262 . S
O1119 Zn1114 2.049 . S
O1119 C1127 1.260 . S
O1120 Zn1115 1.996 . S
O1120 C1127 1.257 . S
C1121 O1116 1.254 . S
C1121 O1117 1.269 . S
C1122 O1123 1.249 . S
C1122 O1124 1.270 . S
O1123 Zn1115 1.943 . S
O1123 C1122 1.249 . S
O1124 Zn1114 2.067 . S
O1124 C1122 1.270 . S
C1125 O1118 1.262 . S
C1125 O1126 1.232 . S
O1126 C1125 1.232 . S
C1127 O1119 1.260 . S
C1127 O1120 1.257 . S
H1128 C1134 0.930 . S
H1129 C1138 0.930 . S
H1130 C1143 0.929 . S
H1131 C1141 0.929 . S
H1132 C1136 0.929 . S
H1133 C1142 0.929 . S
C1134 H1128 0.930 . S
C1134 C1135 1.367 . S
C1134 C1142 1.378 . S
C1135 C1134 1.367 . S
C1135 C1143 1.433 . S
C1136 H1132 0.929 . S
C1136 C1138 1.378 . S
C1136 C1140 1.350 . S
C1137 C1140 1.463 . S
C1137 C1142 1.350 . S
C1137 N1145 1.427 . S
C1138 H1129 0.930 . S
C1138 C1136 1.378 . S
C1138 C1139 1.367 . S
C1139 C1138 1.367 . S
C1139 C1141 1.433 . S
C1140 C1136 1.350 . S
C1140 C1137 1.463 . S
C1140 N1144 1.427 . S
C1141 H1131 0.929 . S
C1141 C1139 1.433 . S
C1141 N1144 1.384 . S
C1142 H1133 0.929 . S
C1142 C1134 1.378 . S
C1142 C1137 1.350 . S
C1143 H1130 0.929 . S
C1143 C1135 1.433 . S
C1143 N1145 1.384 . S
N1144 C1140 1.427 . S
N1144 C1141 1.384 . S
N1145 C1137 1.427 . S
N1145 C1143 1.384 . S
H1146 C1152 0.930 . S
H1147 C1156 0.930 . S
H1148 C1161 0.929 . S
H1149 C1159 0.929 . S
H1150 C1154 0.929 . S
H1151 C1160 0.929 . S
C1152 H1146 0.930 . S
C1152 C1153 1.367 . S
C1152 C1160 1.378 . S
C1153 C1152 1.367 . S
C1153 C1161 1.433 . S
C1154 H1150 0.929 . S
C1154 C1156 1.378 . S
C1154 C1158 1.350 . S
C1155 C1158 1.463 . S
C1155 C1160 1.350 . S
C1155 N1163 1.427 . S
C1156 H1147 0.930 . S
C1156 C1154 1.378 . S
C1156 C1157 1.367 . S
C1157 C1156 1.367 . S
C1157 C1159 1.433 . S
C1158 C1154 1.350 . S
C1158 C1155 1.463 . S
C1158 N1162 1.427 . S
C1159 H1149 0.929 . S
C1159 C1157 1.433 . S
C1159 N1162 1.384 . S
C1160 H1151 0.929 . S
C1160 C1152 1.378 . S
C1160 C1155 1.350 . S
C1161 H1148 0.929 . S
C1161 C1153 1.433 . S
C1161 N1163 1.384 . S
N1162 C1158 1.427 . S
N1162 C1159 1.384 . S
N1163 C1155 1.427 . S
N1163 C1161 1.384 . S
H1164 C1170 0.930 . S
H1165 C1174 0.930 . S
H1166 C1179 0.929 . S
H1167 C1177 0.929 . S
H1168 C1172 0.929 . S
H1169 C1178 0.929 . S
C1170 H1164 0.930 . S
C1170 C1171 1.367 . S
C1170 C1178 1.378 . S
C1171 C1170 1.367 . S
C1171 C1179 1.433 . S
C1172 H1168 0.929 . S
C1172 C1174 1.378 . S
C1172 C1176 1.350 . S
C1173 C1176 1.463 . S
C1173 C1178 1.350 . S
C1173 N1181 1.427 . S
C1174 H1165 0.930 . S
C1174 C1172 1.378 . S
C1174 C1175 1.367 . S
C1175 C1174 1.367 . S
C1175 C1177 1.433 . S
C1176 C1172 1.350 . S
C1176 C1173 1.463 . S
C1176 N1180 1.427 . S
C1177 H1167 0.929 . S
C1177 C1175 1.433 . S
C1177 N1180 1.384 . S
C1178 H1169 0.929 . S
C1178 C1170 1.378 . S
C1178 C1173 1.350 . S
C1179 H1166 0.929 . S
C1179 C1171 1.433 . S
C1179 N1181 1.384 . S
N1180 C1176 1.427 . S
N1180 C1177 1.384 . S
N1181 C1173 1.427 . S
N1181 C1179 1.384 . S
H1182 C1188 0.930 . S
H1183 C1192 0.930 . S
H1184 C1197 0.929 . S
H1185 C1195 0.929 . S
H1186 C1190 0.929 . S
H1187 C1196 0.956 . S
C1188 H1182 0.930 . S
C1188 C1189 1.367 . S
C1188 C1196 1.378 . S
C1189 C1188 1.367 . S
C1189 C1197 1.433 . S
C1190 H1186 0.929 . S
C1190 C1192 1.378 . S
C1190 C1194 1.350 . S
C1191 C1194 1.463 . S
C1191 C1196 1.350 . S
C1191 N1199 1.427 . S
C1192 H1183 0.930 . S
C1192 C1190 1.378 . S
C1192 C1193 1.367 . S
C1193 C1192 1.367 . S
C1193 C1195 1.433 1_565 S
C1194 C1190 1.350 . S
C1194 C1191 1.463 . S
C1194 N1198 1.427 . S
C1195 H1185 0.929 . S
C1195 C1193 1.433 1_545 S
C1195 N1198 1.384 1_545 S
C1196 H1187 0.956 . S
C1196 C1188 1.378 . S
C1196 C1191 1.350 . S
C1197 H1184 0.929 . S
C1197 C1189 1.433 . S
C1197 N1199 1.384 . S
N1198 C1194 1.427 . S
N1198 C1195 1.384 1_565 S
N1199 C1191 1.427 . S
N1199 C1197 1.384 . S
H1200 C1206 0.930 . S
H1201 C1210 0.930 . S
H1202 C1215 0.929 . S
H1203 C1213 0.929 . S
H1204 C1208 0.929 . S
H1205 C1214 0.929 . S
C1206 H1200 0.930 . S
C1206 C1207 1.367 . S
C1206 C1214 1.378 . S
C1207 C1206 1.367 . S
C1207 C1215 1.433 . S
C1208 H1204 0.929 . S
C1208 C1210 1.378 . S
C1208 C1212 1.350 . S
C1209 C1212 1.463 . S
C1209 C1214 1.350 . S
C1209 N1217 1.427 . S
C1210 H1201 0.930 . S
C1210 C1208 1.378 . S
C1210 C1211 1.367 . S
C1211 C1210 1.367 . S
C1211 C1213 1.433 . S
C1212 C1208 1.350 . S
C1212 C1209 1.463 . S
C1212 N1216 1.427 . S
C1213 H1203 0.929 . S
C1213 C1211 1.433 . S
C1213 N1216 1.384 . S
C1214 H1205 0.929 . S
C1214 C1206 1.378 . S
C1214 C1209 1.350 . S
C1215 H1202 0.929 . S
C1215 C1207 1.433 . S
C1215 N1217 1.384 . S
N1216 C1212 1.427 . S
N1216 C1213 1.384 . S
N1217 C1209 1.427 . S
N1217 C1215 1.384 . S
H1218 C1224 0.930 . S
H1219 C1228 0.930 . S
H1220 C1233 0.929 . S
H1221 C1231 0.929 . S
H1222 C1226 0.929 . S
H1223 C1232 0.929 . S
C1224 H1218 0.930 . S
C1224 C1225 1.367 . S
C1224 C1232 1.378 . S
C1225 C1224 1.367 . S
C1225 C1233 1.433 . S
C1226 H1222 0.929 . S
C1226 C1228 1.378 . S
C1226 C1230 1.350 . S
C1227 C1230 1.463 . S
C1227 C1232 1.350 . S
C1227 N1235 1.427 . S
C1228 H1219 0.930 . S
C1228 C1226 1.378 . S
C1228 C1229 1.367 . S
C1229 C1228 1.367 . S
C1229 C1231 1.433 . S
C1230 C1226 1.350 . S
C1230 C1227 1.463 . S
C1230 N1234 1.427 . S
C1231 H1221 0.929 . S
C1231 C1229 1.433 . S
C1231 N1234 1.384 . S
C1232 H1223 0.929 . S
C1232 C1224 1.378 . S
C1232 C1227 1.350 . S
C1233 H1220 0.929 . S
C1233 C1225 1.433 . S
C1233 N1235 1.384 . S
N1234 C1230 1.427 . S
N1234 C1231 1.384 . S
N1235 C1227 1.427 . S
N1235 C1233 1.384 . S
H1236 C1242 0.930 . S
H1237 C1246 0.930 . S
H1238 C1251 0.929 . S
H1239 C1249 0.929 . S
H1240 C1244 0.929 . S
H1241 C1250 0.929 . S
C1242 H1236 0.930 . S
C1242 C1243 1.367 . S
C1242 C1250 1.378 . S
C1243 C1242 1.367 . S
C1243 C1251 1.433 . S
C1244 H1240 0.929 . S
C1244 C1246 1.378 . S
C1244 C1248 1.350 . S
C1245 C1248 1.463 . S
C1245 C1250 1.350 . S
C1245 N1253 1.427 . S
C1246 H1237 0.930 . S
C1246 C1244 1.378 . S
C1246 C1247 1.367 . S
C1247 C1246 1.367 . S
C1247 C1249 1.433 . S
C1248 C1244 1.350 . S
C1248 C1245 1.463 . S
C1248 N1252 1.427 . S
C1249 H1239 0.929 . S
C1249 C1247 1.433 . S
C1249 N1252 1.384 . S
C1250 H1241 0.929 . S
C1250 C1242 1.378 . S
C1250 C1245 1.350 . S
C1251 H1238 0.929 . S
C1251 C1243 1.433 . S
C1251 N1253 1.384 . S
N1252 C1248 1.427 . S
N1252 C1249 1.384 . S
N1253 C1245 1.427 . S
N1253 C1251 1.384 . S
H1254 C1260 0.930 1_545 S
H1255 C1264 0.930 . S
H1256 C1269 0.929 . S
H1257 C1267 0.929 . S
H1258 C1262 0.929 . S
H1259 C1268 0.929 1_545 S
C1260 H1254 0.930 1_565 S
C1260 C1261 1.367 . S
C1260 C1268 1.378 . S
C1261 C1260 1.367 . S
C1261 C1269 1.433 . S
C1262 H1258 0.929 . S
C1262 C1264 1.378 . S
C1262 C1266 1.350 . S
C1263 C1266 1.463 . S
C1263 C1268 1.350 . S
C1263 N1271 1.427 . S
C1264 H1255 0.930 . S
C1264 C1262 1.378 . S
C1264 C1265 1.367 . S
C1265 C1264 1.367 . S
C1265 C1267 1.433 1_565 S
C1266 C1262 1.350 . S
C1266 C1263 1.463 . S
C1266 N1270 1.427 1_565 S
C1267 H1257 0.929 . S
C1267 C1265 1.433 1_545 S
C1267 N1270 1.384 . S
C1268 H1259 0.929 1_565 S
C1268 C1260 1.378 . S
C1268 C1263 1.350 . S
C1269 H1256 0.929 . S
C1269 C1261 1.433 . S
C1269 N1271 1.384 . S
N1270 C1266 1.427 1_545 S
N1270 C1267 1.384 . S
N1271 C1263 1.427 . S
N1271 C1269 1.384 . S
H1272 C1278 0.930 . S
H1273 C1282 0.930 . S
H1274 C1287 0.929 . S
H1275 C1285 0.929 . S
H1276 C1280 0.929 . S
H1277 C1286 0.929 . S
C1278 H1272 0.930 . S
C1278 C1279 1.367 . S
C1278 C1286 1.378 . S
C1279 C1278 1.367 . S
C1279 C1287 1.433 . S
C1280 H1276 0.929 . S
C1280 C1282 1.378 . S
C1280 C1284 1.350 . S
C1281 C1284 1.463 . S
C1281 C1286 1.350 . S
C1281 N1289 1.427 . S
C1282 H1273 0.930 . S
C1282 C1280 1.378 . S
C1282 C1283 1.367 . S
C1283 C1282 1.367 . S
C1283 C1285 1.433 . S
C1284 C1280 1.350 . S
C1284 C1281 1.463 . S
C1284 N1288 1.427 . S
C1285 H1275 0.929 . S
C1285 C1283 1.433 . S
C1285 N1288 1.384 . S
C1286 H1277 0.929 . S
C1286 C1278 1.378 . S
C1286 C1281 1.350 . S
C1287 H1274 0.929 . S
C1287 C1279 1.433 . S
C1287 N1289 1.384 . S
N1288 C1284 1.427 . S
N1288 C1285 1.384 . S
N1289 C1281 1.427 . S
N1289 C1287 1.384 . S
H1290 C1296 0.930 . S
H1291 C1300 0.930 . S
H1292 C1305 0.929 . S
H1293 C1303 0.929 . S
H1294 C1298 0.929 . S
H1295 C1304 0.929 . S
C1296 H1290 0.930 . S
C1296 C1297 1.367 . S
C1296 C1304 1.378 . S
C1297 C1296 1.367 . S
C1297 C1305 1.433 . S
C1298 H1294 0.929 . S
C1298 C1300 1.378 . S
C1298 C1302 1.350 . S
C1299 C1302 1.463 . S
C1299 C1304 1.350 . S
C1299 N1307 1.427 . S
C1300 H1291 0.930 . S
C1300 C1298 1.378 . S
C1300 C1301 1.367 . S
C1301 C1300 1.367 . S
C1301 C1303 1.433 . S
C1302 C1298 1.350 . S
C1302 C1299 1.463 . S
C1302 N1306 1.427 . S
C1303 H1293 0.929 . S
C1303 C1301 1.433 . S
C1303 N1306 1.384 . S
C1304 H1295 0.929 . S
C1304 C1296 1.378 . S
C1304 C1299 1.350 . S
C1305 H1292 0.929 . S
C1305 C1297 1.433 . S
C1305 N1307 1.384 . S
N1306 C1302 1.427 . S
N1306 C1303 1.384 . S
N1307 C1299 1.427 . S
N1307 C1305 1.384 . S
H1308 C1314 0.930 . S
H1309 C1318 0.930 . S
H1310 C1323 0.929 . S
H1311 C1321 0.929 . S
H1312 C1316 0.929 . S
H1313 C1322 0.929 . S
C1314 H1308 0.930 . S
C1314 C1315 1.367 . S
C1314 C1322 1.378 . S
C1315 C1314 1.367 . S
C1315 C1323 1.433 . S
C1316 H1312 0.929 . S
C1316 C1318 1.378 . S
C1316 C1320 1.350 . S
C1317 C1320 1.463 . S
C1317 C1322 1.350 . S
C1317 N1325 1.427 . S
C1318 H1309 0.930 . S
C1318 C1316 1.378 . S
C1318 C1319 1.367 . S
C1319 C1318 1.367 . S
C1319 C1321 1.433 . S
C1320 C1316 1.350 . S
C1320 C1317 1.463 . S
C1320 N1324 1.427 . S
C1321 H1311 0.929 . S
C1321 C1319 1.433 . S
C1321 N1324 1.384 . S
C1322 H1313 0.929 . S
C1322 C1314 1.378 . S
C1322 C1317 1.350 . S
C1323 H1310 0.929 . S
C1323 C1315 1.433 . S
C1323 N1325 1.384 . S
N1324 C1320 1.427 . S
N1324 C1321 1.384 . S
N1325 C1317 1.427 . S
N1325 C1323 1.384 . S
H1326 C1332 0.930 . S
H1327 C1336 0.930 . S
H1328 C1341 0.929 . S
H1329 C1339 0.929 . S
H1330 C1334 0.929 . S
H1331 C1340 0.929 . S
C1332 H1326 0.930 . S
C1332 C1333 1.367 . S
C1332 C1340 1.378 . S
C1333 C1332 1.367 . S
C1333 C1341 1.433 . S
C1334 H1330 0.929 . S
C1334 C1336 1.378 . S
C1334 C1338 1.350 . S
C1335 C1338 1.463 . S
C1335 C1340 1.350 . S
C1335 N1343 1.427 . S
C1336 H1327 0.930 . S
C1336 C1334 1.378 . S
C1336 C1337 1.367 . S
C1337 C1336 1.367 . S
C1337 C1339 1.433 . S
C1338 C1334 1.350 . S
C1338 C1335 1.463 . S
C1338 N1342 1.427 . S
C1339 H1329 0.929 . S
C1339 C1337 1.433 . S
C1339 N1342 1.384 . S
C1340 H1331 0.929 . S
C1340 C1332 1.378 . S
C1340 C1335 1.350 . S
C1341 H1328 0.929 . S
C1341 C1333 1.433 . S
C1341 N1343 1.384 . S
N1342 C1338 1.427 . S
N1342 C1339 1.384 . S
N1343 C1335 1.427 . S
N1343 C1341 1.384 . S
H1344 C1350 0.930 . S
H1345 C1354 0.930 . S
H1346 C1359 0.929 . S
H1347 C1357 0.929 . S
H1348 C1352 0.929 . S
H1349 C1358 0.929 . S
C1350 H1344 0.930 . S
C1350 C1351 1.367 . S
C1350 C1358 1.378 . S
C1351 C1350 1.367 . S
C1351 C1359 1.433 . S
C1352 H1348 0.929 . S
C1352 C1354 1.378 . S
C1352 C1356 1.350 . S
C1353 C1356 1.463 . S
C1353 C1358 1.350 . S
C1353 N1361 1.427 . S
C1354 H1345 0.930 . S
C1354 C1352 1.378 . S
C1354 C1355 1.367 . S
C1355 C1354 1.367 . S
C1355 C1357 1.433 . S
C1356 C1352 1.350 . S
C1356 C1353 1.463 . S
C1356 N1360 1.427 . S
C1357 H1347 0.929 . S
C1357 C1355 1.433 . S
C1357 N1360 1.384 . S
C1358 H1349 0.929 . S
C1358 C1350 1.378 . S
C1358 C1353 1.350 . S
C1359 H1346 0.929 . S
C1359 C1351 1.433 . S
C1359 N1361 1.384 . S
N1360 C1356 1.427 . S
N1360 C1357 1.384 . S
N1361 C1353 1.427 . S
N1361 C1359 1.384 . S
H1362 C1368 0.930 . S
H1363 C1372 0.930 . S
H1364 C1377 0.929 . S
H1365 C1375 0.929 . S
H1366 C1370 0.929 . S
H1367 C1376 0.929 . S
C1368 H1362 0.930 . S
C1368 C1369 1.367 . S
C1368 C1376 1.378 . S
C1369 C1368 1.367 . S
C1369 C1377 1.433 . S
C1370 H1366 0.929 . S
C1370 C1372 1.378 . S
C1370 C1374 1.350 . S
C1371 C1374 1.463 . S
C1371 C1376 1.350 . S
C1371 N1379 1.427 . S
C1372 H1363 0.930 . S
C1372 C1370 1.378 . S
C1372 C1373 1.367 . S
C1373 C1372 1.367 . S
C1373 C1375 1.433 . S
C1374 C1370 1.350 . S
C1374 C1371 1.463 . S
C1374 N1378 1.427 . S
C1375 H1365 0.929 . S
C1375 C1373 1.433 . S
C1375 N1378 1.384 . S
C1376 H1367 0.929 . S
C1376 C1368 1.378 . S
C1376 C1371 1.350 . S
C1377 H1364 0.929 . S
C1377 C1369 1.433 . S
C1377 N1379 1.384 . S
N1378 C1374 1.427 . S
N1378 C1375 1.384 . S
N1379 C1371 1.427 . S
N1379 C1377 1.384 . S
H1380 C1386 0.930 . S
H1381 C1390 0.930 . S
H1382 C1395 0.929 . S
H1383 C1393 0.929 . S
H1384 C1388 0.929 . S
H1385 C1394 0.929 . S
C1386 H1380 0.930 . S
C1386 C1387 1.367 . S
C1386 C1394 1.378 . S
C1387 C1386 1.367 . S
C1387 C1395 1.433 . S
C1388 H1384 0.929 . S
C1388 C1390 1.378 . S
C1388 C1392 1.350 . S
C1389 C1392 1.463 . S
C1389 C1394 1.350 . S
C1389 N1397 1.427 . S
C1390 H1381 0.930 . S
C1390 C1388 1.378 . S
C1390 C1391 1.367 . S
C1391 C1390 1.367 . S
C1391 C1393 1.433 . S
C1392 C1388 1.350 . S
C1392 C1389 1.463 . S
C1392 N1396 1.427 . S
C1393 H1383 0.929 . S
C1393 C1391 1.433 . S
C1393 N1396 1.384 . S
C1394 H1385 0.929 . S
C1394 C1386 1.378 . S
C1394 C1389 1.350 . S
C1395 H1382 0.929 . S
C1395 C1387 1.433 . S
C1395 N1397 1.384 . S
N1396 C1392 1.427 . S
N1396 C1393 1.384 . S
N1397 C1389 1.427 . S
N1397 C1395 1.384 . S
H1398 C1404 0.930 . S
H1399 C1408 0.930 . S
H1400 C1413 0.929 . S
H1401 C1411 0.929 . S
H1402 C1406 0.915 1_455 S
H1403 C1412 0.929 . S
C1404 H1398 0.930 . S
C1404 C1405 1.367 . S
C1404 C1412 1.378 . S
C1405 C1404 1.367 . S
C1405 C1413 1.433 . S
C1406 H1402 0.915 1_655 S
C1406 C1408 1.374 1_655 S
C1406 C1410 1.368 . S
C1407 C1410 1.463 . S
C1407 C1412 1.350 . S
C1407 N1415 1.427 . S
C1408 H1399 0.930 . S
C1408 C1406 1.374 1_455 S
C1408 C1409 1.367 1_455 S
C1409 C1408 1.367 1_655 S
C1409 C1411 1.433 . S
C1410 C1406 1.368 . S
C1410 C1407 1.463 . S
C1410 N1414 1.427 . S
C1411 H1401 0.929 . S
C1411 C1409 1.433 . S
C1411 N1414 1.384 . S
C1412 H1403 0.929 . S
C1412 C1404 1.378 . S
C1412 C1407 1.350 . S
C1413 H1400 0.929 . S
C1413 C1405 1.433 . S
C1413 N1415 1.384 . S
N1414 C1410 1.427 . S
N1414 C1411 1.384 . S
N1415 C1407 1.427 . S
N1415 C1413 1.384 . S
H1416 C1422 0.930 . S
H1417 C1426 0.930 . S
H1418 C1431 0.929 . S
H1419 C1429 0.929 . S
H1420 C1424 0.929 . S
H1421 C1430 0.929 . S
C1422 H1416 0.930 . S
C1422 C1423 1.367 . S
C1422 C1430 1.378 . S
C1423 C1422 1.367 . S
C1423 C1431 1.433 . S
C1424 H1420 0.929 . S
C1424 C1426 1.378 . S
C1424 C1428 1.350 . S
C1425 C1428 1.463 . S
C1425 C1430 1.350 . S
C1425 N1433 1.427 . S
C1426 H1417 0.930 . S
C1426 C1424 1.378 . S
C1426 C1427 1.367 . S
C1427 C1426 1.367 . S
C1427 C1429 1.433 . S
C1428 C1424 1.350 . S
C1428 C1425 1.463 . S
C1428 N1432 1.427 . S
C1429 H1419 0.929 . S
C1429 C1427 1.433 . S
C1429 N1432 1.384 . S
C1430 H1421 0.929 . S
C1430 C1422 1.378 . S
C1430 C1425 1.350 . S
C1431 H1418 0.929 . S
C1431 C1423 1.433 . S
C1431 N1433 1.384 . S
N1432 C1428 1.427 . S
N1432 C1429 1.384 . S
N1433 C1425 1.427 . S
N1433 C1431 1.384 . S
H1434 C1440 0.930 . S
H1435 C1444 0.930 . S
H1436 C1449 0.929 . S
H1437 C1447 0.929 . S
H1438 C1442 0.929 . S
H1439 C1448 0.929 . S
C1440 H1434 0.930 . S
C1440 C1441 1.367 . S
C1440 C1448 1.378 . S
C1441 C1440 1.367 . S
C1441 C1449 1.433 . S
C1442 H1438 0.929 . S
C1442 C1444 1.378 . S
C1442 C1446 1.350 . S
C1443 C1446 1.463 . S
C1443 C1448 1.350 . S
C1443 N1451 1.427 . S
C1444 H1435 0.930 . S
C1444 C1442 1.378 . S
C1444 C1445 1.367 . S
C1445 C1444 1.367 . S
C1445 C1447 1.433 . S
C1446 C1442 1.350 . S
C1446 C1443 1.463 . S
C1446 N1450 1.427 . S
C1447 H1437 0.929 . S
C1447 C1445 1.433 . S
C1447 N1450 1.384 . S
C1448 H1439 0.929 . S
C1448 C1440 1.378 . S
C1448 C1443 1.350 . S
C1449 H1436 0.929 . S
C1449 C1441 1.433 . S
C1449 N1451 1.384 . S
N1450 C1446 1.427 . S
N1450 C1447 1.384 . S
N1451 C1443 1.427 . S
N1451 C1449 1.384 . S
H1452 C1458 0.930 . S
H1453 C1462 0.930 . S
H1454 C1467 0.929 . S
H1455 C1465 0.929 . S
H1456 C1460 0.929 . S
H1457 C1466 0.929 1_554 S
C1458 H1452 0.930 . S
C1458 C1459 1.367 . S
C1458 C1466 1.378 . S
C1459 C1458 1.367 . S
C1459 C1467 1.433 . S
C1460 H1456 0.929 . S
C1460 C1462 1.378 . S
C1460 C1464 1.350 . S
C1461 C1464 1.463 . S
C1461 C1466 1.350 . S
C1461 N1469 1.427 . S
C1462 H1453 0.930 . S
C1462 C1460 1.378 . S
C1462 C1463 1.367 . S
C1463 C1462 1.367 . S
C1463 C1465 1.433 1_556 S
C1464 C1460 1.350 . S
C1464 C1461 1.463 . S
C1464 N1468 1.427 . S
C1465 H1455 0.929 . S
C1465 C1463 1.433 1_554 S
C1465 N1468 1.384 1_554 S
C1466 H1457 0.929 1_556 S
C1466 C1458 1.378 . S
C1466 C1461 1.350 . S
C1467 H1454 0.929 . S
C1467 C1459 1.433 . S
C1467 N1469 1.384 . S
N1468 C1464 1.427 . S
N1468 C1465 1.384 1_556 S
N1469 C1461 1.427 . S
N1469 C1467 1.384 . S
H1470 C1476 0.930 . S
H1471 C1480 0.930 . S
H1472 C1485 0.929 . S
H1473 C1483 0.929 . S
H1474 C1478 0.929 . S
H1475 C1484 0.929 . S
C1476 H1470 0.930 . S
C1476 C1477 1.367 . S
C1476 C1484 1.378 . S
C1477 C1476 1.367 . S
C1477 C1485 1.433 . S
C1478 H1474 0.929 . S
C1478 C1480 1.378 . S
C1478 C1482 1.350 . S
C1479 C1482 1.463 . S
C1479 C1484 1.350 . S
C1479 N1487 1.427 . S
C1480 H1471 0.930 . S
C1480 C1478 1.378 . S
C1480 C1481 1.367 . S
C1481 C1480 1.367 . S
C1481 C1483 1.433 . S
C1482 C1478 1.350 . S
C1482 C1479 1.463 . S
C1482 N1486 1.427 . S
C1483 H1473 0.929 . S
C1483 C1481 1.433 . S
C1483 N1486 1.384 . S
C1484 H1475 0.929 . S
C1484 C1476 1.378 . S
C1484 C1479 1.350 . S
C1485 H1472 0.929 . S
C1485 C1477 1.433 . S
C1485 N1487 1.384 . S
N1486 C1482 1.427 . S
N1486 C1483 1.384 . S
N1487 C1479 1.427 . S
N1487 C1485 1.384 . S
H1488 C1494 0.930 . S
H1489 C1498 0.930 . S
H1490 C1503 0.929 . S
H1491 C1501 0.929 . S
H1492 C1496 0.929 . S
H1493 C1502 0.929 . S
C1494 H1488 0.930 . S
C1494 C1495 1.367 . S
C1494 C1502 1.378 . S
C1495 C1494 1.367 . S
C1495 C1503 1.433 . S
C1496 H1492 0.929 . S
C1496 C1498 1.378 . S
C1496 C1500 1.350 . S
C1497 C1500 1.463 . S
C1497 C1502 1.350 . S
C1497 N1505 1.427 . S
C1498 H1489 0.930 . S
C1498 C1496 1.378 . S
C1498 C1499 1.367 . S
C1499 C1498 1.367 . S
C1499 C1501 1.433 . S
C1500 C1496 1.350 . S
C1500 C1497 1.463 . S
C1500 N1504 1.427 . S
C1501 H1491 0.929 . S
C1501 C1499 1.433 . S
C1501 N1504 1.384 . S
C1502 H1493 0.929 . S
C1502 C1494 1.378 . S
C1502 C1497 1.350 . S
C1503 H1490 0.929 . S
C1503 C1495 1.433 . S
C1503 N1505 1.384 . S
N1504 C1500 1.427 . S
N1504 C1501 1.384 . S
N1505 C1497 1.427 . S
N1505 C1503 1.384 . S
H1506 C1512 0.930 . S
H1507 C1516 0.930 . S
H1508 C1521 0.929 . S
H1509 C1519 0.929 . S
H1510 C1514 0.929 . S
H1511 C1520 0.929 . S
C1512 H1506 0.930 . S
C1512 C1513 1.367 . S
C1512 C1520 1.378 . S
C1513 C1512 1.367 . S
C1513 C1521 1.433 . S
C1514 H1510 0.929 . S
C1514 C1516 1.378 . S
C1514 C1518 1.350 . S
C1515 C1518 1.463 . S
C1515 C1520 1.350 . S
C1515 N1523 1.427 . S
C1516 H1507 0.930 . S
C1516 C1514 1.378 . S
C1516 C1517 1.367 . S
C1517 C1516 1.367 . S
C1517 C1519 1.433 . S
C1518 C1514 1.350 . S
C1518 C1515 1.463 . S
C1518 N1522 1.427 . S
C1519 H1509 0.929 . S
C1519 C1517 1.433 . S
C1519 N1522 1.384 . S
C1520 H1511 0.929 . S
C1520 C1512 1.378 . S
C1520 C1515 1.350 . S
C1521 H1508 0.929 . S
C1521 C1513 1.433 . S
C1521 N1523 1.384 . S
N1522 C1518 1.427 . S
N1522 C1519 1.384 . S
N1523 C1515 1.427 . S
N1523 C1521 1.384 . S
H1524 C1530 0.930 . S
H1525 C1534 0.930 . S
H1526 C1539 0.929 . S
H1527 C1537 0.929 . S
H1528 C1532 0.929 . S
H1529 C1538 0.929 . S
C1530 H1524 0.930 . S
C1530 C1531 1.367 . S
C1530 C1538 1.378 . S
C1531 C1530 1.367 . S
C1531 C1539 1.433 . S
C1532 H1528 0.929 . S
C1532 C1534 1.378 . S
C1532 C1536 1.350 . S
C1533 C1536 1.463 . S
C1533 C1538 1.350 . S
C1533 N1541 1.427 . S
C1534 H1525 0.930 . S
C1534 C1532 1.378 . S
C1534 C1535 1.367 . S
C1535 C1534 1.367 . S
C1535 C1537 1.433 . S
C1536 C1532 1.350 . S
C1536 C1533 1.463 . S
C1536 N1540 1.427 . S
C1537 H1527 0.929 . S
C1537 C1535 1.433 . S
C1537 N1540 1.384 . S
C1538 H1529 0.929 . S
C1538 C1530 1.378 . S
C1538 C1533 1.350 . S
C1539 H1526 0.929 . S
C1539 C1531 1.433 . S
C1539 N1541 1.384 . S
N1540 C1536 1.427 . S
N1540 C1537 1.384 . S
N1541 C1533 1.427 . S
N1541 C1539 1.384 . S
H1542 C1548 0.930 . S
H1543 C1552 0.930 . S
H1544 C1557 0.929 . S
H1545 C1555 0.929 . S
H1546 C1550 0.929 . S
H1547 C1556 0.929 . S
C1548 H1542 0.930 . S
C1548 C1549 1.367 . S
C1548 C1556 1.378 . S
C1549 C1548 1.367 . S
C1549 C1557 1.433 . S
C1550 H1546 0.929 . S
C1550 C1552 1.378 . S
C1550 C1554 1.350 . S
C1551 C1554 1.463 . S
C1551 C1556 1.350 . S
C1551 N1559 1.427 . S
C1552 H1543 0.930 . S
C1552 C1550 1.378 . S
C1552 C1553 1.367 . S
C1553 C1552 1.367 . S
C1553 C1555 1.433 . S
C1554 C1550 1.350 . S
C1554 C1551 1.463 . S
C1554 N1558 1.427 . S
C1555 H1545 0.929 . S
C1555 C1553 1.433 . S
C1555 N1558 1.384 . S
C1556 H1547 0.929 . S
C1556 C1548 1.378 . S
C1556 C1551 1.350 . S
C1557 H1544 0.929 . S
C1557 C1549 1.433 . S
C1557 N1559 1.384 . S
N1558 C1554 1.427 . S
N1558 C1555 1.384 . S
N1559 C1551 1.427 . S
N1559 C1557 1.384 . S
H1560 C1566 0.930 . S
H1561 C1570 0.930 . S
H1562 C1575 0.929 . S
H1563 C1573 0.929 . S
H1564 C1568 0.929 . S
H1565 C1574 0.929 . S
C1566 H1560 0.930 . S
C1566 C1567 1.367 . S
C1566 C1574 1.378 . S
C1567 C1566 1.367 . S
C1567 C1575 1.433 . S
C1568 H1564 0.929 . S
C1568 C1570 1.378 . S
C1568 C1572 1.350 . S
C1569 C1572 1.463 . S
C1569 C1574 1.350 . S
C1569 N1577 1.427 . S
C1570 H1561 0.930 . S
C1570 C1568 1.378 . S
C1570 C1571 1.367 . S
C1571 C1570 1.367 . S
C1571 C1573 1.433 . S
C1572 C1568 1.350 . S
C1572 C1569 1.463 . S
C1572 N1576 1.427 . S
C1573 H1563 0.929 . S
C1573 C1571 1.433 . S
C1573 N1576 1.384 . S
C1574 H1565 0.929 . S
C1574 C1566 1.378 . S
C1574 C1569 1.350 . S
C1575 H1562 0.929 . S
C1575 C1567 1.433 . S
C1575 N1577 1.384 . S
N1576 C1572 1.427 . S
N1576 C1573 1.384 . S
N1577 C1569 1.427 . S
N1577 C1575 1.384 . S
H1578 C1584 0.930 . S
H1579 C1588 0.930 . S
H1580 C1593 0.929 . S
H1581 C1591 0.895 1_565 S
H1582 C1586 0.929 . S
H1583 C1592 0.929 . S
C1584 H1578 0.930 . S
C1584 C1585 1.367 . S
C1584 C1592 1.378 . S
C1585 C1584 1.367 . S
C1585 C1593 1.433 . S
C1586 H1582 0.929 . S
C1586 C1588 1.378 . S
C1586 C1590 1.350 . S
C1587 C1590 1.463 . S
C1587 C1592 1.350 . S
C1587 N1595 1.427 . S
C1588 H1579 0.930 . S
C1588 C1586 1.378 . S
C1588 C1589 1.367 . S
C1589 C1588 1.367 . S
C1589 C1591 1.461 . S
C1590 C1586 1.350 . S
C1590 C1587 1.463 . S
C1590 N1594 1.427 . S
C1591 H1581 0.895 1_545 S
C1591 C1589 1.461 . S
C1591 N1594 1.392 . S
C1592 H1583 0.929 . S
C1592 C1584 1.378 . S
C1592 C1587 1.350 . S
C1593 H1580 0.929 . S
C1593 C1585 1.433 . S
C1593 N1595 1.384 . S
N1594 C1590 1.427 . S
N1594 C1591 1.392 . S
N1595 C1587 1.427 . S
N1595 C1593 1.384 . S
H1596 C1602 0.930 . S
H1597 C1606 0.930 . S
H1598 C1611 0.929 . S
H1599 C1609 0.929 . S
H1600 C1604 0.929 . S
H1601 C1610 0.929 . S
C1602 H1596 0.930 . S
C1602 C1603 1.367 . S
C1602 C1610 1.378 . S
C1603 C1602 1.367 . S
C1603 C1611 1.433 . S
C1604 H1600 0.929 . S
C1604 C1606 1.378 . S
C1604 C1608 1.350 . S
C1605 C1608 1.463 . S
C1605 C1610 1.350 . S
C1605 N1613 1.427 . S
C1606 H1597 0.930 . S
C1606 C1604 1.378 . S
C1606 C1607 1.367 . S
C1607 C1606 1.367 . S
C1607 C1609 1.433 . S
C1608 C1604 1.350 . S
C1608 C1605 1.463 . S
C1608 N1612 1.427 . S
C1609 H1599 0.929 . S
C1609 C1607 1.433 . S
C1609 N1612 1.384 . S
C1610 H1601 0.929 . S
C1610 C1602 1.378 . S
C1610 C1605 1.350 . S
C1611 H1598 0.929 . S
C1611 C1603 1.433 . S
C1611 N1613 1.384 . S
N1612 C1608 1.427 . S
N1612 C1609 1.384 . S
N1613 C1605 1.427 . S
N1613 C1611 1.384 . S
H1614 C1620 0.930 . S
H1615 C1624 0.930 . S
H1616 C1629 0.929 . S
H1617 C1627 0.929 . S
H1618 C1622 0.929 . S
H1619 C1628 0.929 . S
C1620 H1614 0.930 . S
C1620 C1621 1.367 . S
C1620 C1628 1.378 . S
C1621 C1620 1.367 . S
C1621 C1629 1.433 . S
C1622 H1618 0.929 . S
C1622 C1624 1.378 . S
C1622 C1626 1.350 . S
C1623 C1626 1.463 . S
C1623 C1628 1.350 . S
C1623 N1631 1.427 . S
C1624 H1615 0.930 . S
C1624 C1622 1.378 . S
C1624 C1625 1.367 . S
C1625 C1624 1.367 . S
C1625 C1627 1.433 . S
C1626 C1622 1.350 . S
C1626 C1623 1.463 . S
C1626 N1630 1.427 . S
C1627 H1617 0.929 . S
C1627 C1625 1.433 . S
C1627 N1630 1.384 . S
C1628 H1619 0.929 . S
C1628 C1620 1.378 . S
C1628 C1623 1.350 . S
C1629 H1616 0.929 . S
C1629 C1621 1.433 . S
C1629 N1631 1.384 . S
N1630 C1626 1.427 . S
N1630 C1627 1.384 . S
N1631 C1623 1.427 . S
N1631 C1629 1.384 . S
H1632 C1638 0.930 . S
H1633 C1642 0.930 . S
H1634 C1647 0.929 . S
H1635 C1645 0.929 . S
H1636 C1640 0.929 . S
H1637 C1646 0.929 . S
C1638 H1632 0.930 . S
C1638 C1639 1.367 . S
C1638 C1646 1.378 . S
C1639 C1638 1.367 . S
C1639 C1647 1.433 . S
C1640 H1636 0.929 . S
C1640 C1642 1.378 . S
C1640 C1644 1.350 . S
C1641 C1644 1.463 . S
C1641 C1646 1.350 . S
C1641 N1649 1.427 . S
C1642 H1633 0.930 . S
C1642 C1640 1.378 . S
C1642 C1643 1.367 . S
C1643 C1642 1.367 . S
C1643 C1645 1.433 . S
C1644 C1640 1.350 . S
C1644 C1641 1.463 . S
C1644 N1648 1.427 . S
C1645 H1635 0.929 . S
C1645 C1643 1.433 . S
C1645 N1648 1.384 . S
C1646 H1637 0.929 . S
C1646 C1638 1.378 . S
C1646 C1641 1.350 . S
C1647 H1634 0.929 . S
C1647 C1639 1.433 . S
C1647 N1649 1.384 . S
N1648 C1644 1.427 . S
N1648 C1645 1.384 . S
N1649 C1641 1.427 . S
N1649 C1647 1.384 . S
H1650 C1656 0.930 . S
H1651 C1660 0.930 . S
H1652 C1665 0.929 1_565 S
H1653 C1663 0.929 . S
H1654 C1658 0.929 . S
H1655 C1664 0.929 . S
C1656 H1650 0.930 . S
C1656 C1657 1.367 . S
C1656 C1664 1.378 . S
C1657 C1656 1.367 . S
C1657 C1665 1.433 . S
C1658 H1654 0.929 . S
C1658 C1660 1.378 . S
C1658 C1662 1.350 1_565 S
C1659 C1662 1.463 . S
C1659 C1664 1.350 . S
C1659 N1667 1.427 . S
C1660 H1651 0.930 . S
C1660 C1658 1.378 . S
C1660 C1661 1.367 1_565 S
C1661 C1660 1.367 1_545 S
C1661 C1663 1.433 . S
C1662 C1658 1.350 1_545 S
C1662 C1659 1.463 . S
C1662 N1666 1.427 . S
C1663 H1653 0.929 . S
C1663 C1661 1.433 . S
C1663 N1666 1.384 . S
C1664 H1655 0.929 . S
C1664 C1656 1.378 . S
C1664 C1659 1.350 . S
C1665 H1652 0.929 1_545 S
C1665 C1657 1.433 . S
C1665 N1667 1.384 . S
N1666 C1662 1.427 . S
N1666 C1663 1.384 . S
N1667 C1659 1.427 . S
N1667 C1665 1.384 . S
H1668 C1674 0.930 . S
H1669 C1678 0.930 . S
H1670 C1683 0.929 . S
H1671 C1681 0.929 . S
H1672 C1676 0.929 . S
H1673 C1682 0.929 . S
C1674 H1668 0.930 . S
C1674 C1675 1.367 . S
C1674 C1682 1.378 . S
C1675 C1674 1.367 . S
C1675 C1683 1.433 . S
C1676 H1672 0.929 . S
C1676 C1678 1.378 . S
C1676 C1680 1.350 . S
C1677 C1680 1.463 . S
C1677 C1682 1.350 . S
C1677 N1685 1.427 . S
C1678 H1669 0.930 . S
C1678 C1676 1.378 . S
C1678 C1679 1.367 . S
C1679 C1678 1.367 . S
C1679 C1681 1.433 . S
C1680 C1676 1.350 . S
C1680 C1677 1.463 . S
C1680 N1684 1.427 . S
C1681 H1671 0.929 . S
C1681 C1679 1.433 . S
C1681 N1684 1.384 . S
C1682 H1673 0.929 . S
C1682 C1674 1.378 . S
C1682 C1677 1.350 . S
C1683 H1670 0.929 . S
C1683 C1675 1.433 . S
C1683 N1685 1.384 . S
N1684 C1680 1.427 . S
N1684 C1681 1.384 . S
N1685 C1677 1.427 . S
N1685 C1683 1.384 . S
H1686 C1692 0.930 . S
H1687 C1696 0.930 . S
H1688 C1701 0.929 . S
H1689 C1699 0.929 . S
H1690 C1694 0.929 . S
H1691 C1700 0.929 . S
C1692 H1686 0.930 . S
C1692 C1693 1.367 . S
C1692 C1700 1.378 . S
C1693 C1692 1.367 . S
C1693 C1701 1.433 . S
C1694 H1690 0.929 . S
C1694 C1696 1.378 . S
C1694 C1698 1.350 . S
C1695 C1698 1.463 . S
C1695 C1700 1.350 . S
C1695 N1703 1.427 . S
C1696 H1687 0.930 . S
C1696 C1694 1.378 . S
C1696 C1697 1.367 . S
C1697 C1696 1.367 . S
C1697 C1699 1.433 . S
C1698 C1694 1.350 . S
C1698 C1695 1.463 . S
C1698 N1702 1.427 . S
C1699 H1689 0.929 . S
C1699 C1697 1.433 . S
C1699 N1702 1.384 . S
C1700 H1691 0.929 . S
C1700 C1692 1.378 . S
C1700 C1695 1.350 . S
C1701 H1688 0.929 . S
C1701 C1693 1.433 . S
C1701 N1703 1.384 . S
N1702 C1698 1.427 . S
N1702 C1699 1.384 . S
N1703 C1695 1.427 . S
N1703 C1701 1.384 . S
H1704 C1710 0.930 . S
H1705 C1714 0.930 . S
H1706 C1719 0.929 . S
H1707 C1717 0.929 . S
H1708 C1712 0.929 . S
H1709 C1718 0.929 . S
C1710 H1704 0.930 . S
C1710 C1711 1.367 . S
C1710 C1718 1.378 . S
C1711 C1710 1.367 . S
C1711 C1719 1.433 . S
C1712 H1708 0.929 . S
C1712 C1714 1.378 . S
C1712 C1716 1.350 . S
C1713 C1716 1.463 . S
C1713 C1718 1.350 . S
C1713 N1721 1.427 . S
C1714 H1705 0.930 . S
C1714 C1712 1.378 . S
C1714 C1715 1.367 . S
C1715 C1714 1.367 . S
C1715 C1717 1.433 . S
C1716 C1712 1.350 . S
C1716 C1713 1.463 . S
C1716 N1720 1.427 . S
C1717 H1707 0.929 . S
C1717 C1715 1.433 . S
C1717 N1720 1.384 . S
C1718 H1709 0.929 . S
C1718 C1710 1.378 . S
C1718 C1713 1.350 . S
C1719 H1706 0.929 . S
C1719 C1711 1.433 . S
C1719 N1721 1.384 . S
N1720 C1716 1.427 . S
N1720 C1717 1.384 . S
N1721 C1713 1.427 . S
N1721 C1719 1.384 . S
H1722 C1728 0.930 1_554 S
H1723 C1732 0.930 . S
H1724 C1737 0.929 . S
H1725 C1735 0.929 . S
H1726 C1730 0.929 . S
H1727 C1736 0.964 . S
C1728 H1722 0.930 1_556 S
C1728 C1729 1.367 . S
C1728 C1736 1.378 . S
C1729 C1728 1.367 . S
C1729 C1737 1.433 . S
C1730 H1726 0.929 . S
C1730 C1732 1.378 . S
C1730 C1734 1.350 . S
C1731 C1734 1.463 . S
C1731 C1736 1.350 . S
C1731 N1739 1.427 . S
C1732 H1723 0.930 . S
C1732 C1730 1.378 . S
C1732 C1733 1.367 . S
C1733 C1732 1.367 . S
C1733 C1735 1.433 1_655 S
C1734 C1730 1.350 . S
C1734 C1731 1.463 . S
C1734 N1738 1.427 . S
C1735 H1725 0.929 . S
C1735 C1733 1.433 1_455 S
C1735 N1738 1.384 1_455 S
C1736 H1727 0.964 . S
C1736 C1728 1.378 . S
C1736 C1731 1.350 . S
C1737 H1724 0.929 . S
C1737 C1729 1.433 . S
C1737 N1739 1.384 . S
N1738 C1734 1.427 . S
N1738 C1735 1.384 1_655 S
N1739 C1731 1.427 . S
N1739 C1737 1.384 . S
H1740 C1746 0.930 . S
H1741 C1750 0.930 . S
H1742 C1755 0.929 . S
H1743 C1753 0.929 . S
H1744 C1748 0.929 . S
H1745 C1754 0.929 . S
C1746 H1740 0.930 . S
C1746 C1747 1.367 . S
C1746 C1754 1.378 . S
C1747 C1746 1.367 . S
C1747 C1755 1.433 . S
C1748 H1744 0.929 . S
C1748 C1750 1.378 . S
C1748 C1752 1.350 . S
C1749 C1752 1.463 . S
C1749 C1754 1.350 . S
C1749 N1757 1.427 . S
C1750 H1741 0.930 . S
C1750 C1748 1.378 . S
C1750 C1751 1.367 . S
C1751 C1750 1.367 . S
C1751 C1753 1.433 . S
C1752 C1748 1.350 . S
C1752 C1749 1.463 . S
C1752 N1756 1.427 . S
C1753 H1743 0.929 . S
C1753 C1751 1.433 . S
C1753 N1756 1.384 . S
C1754 H1745 0.929 . S
C1754 C1746 1.378 . S
C1754 C1749 1.350 . S
C1755 H1742 0.929 . S
C1755 C1747 1.433 . S
C1755 N1757 1.384 . S
N1756 C1752 1.427 . S
N1756 C1753 1.384 . S
N1757 C1749 1.427 . S
N1757 C1755 1.384 . S
H1758 C1764 0.930 . S
H1759 C1768 0.910 1_655 S
H1760 C1773 0.929 . S
H1761 C1771 0.929 . S
H1762 C1766 0.929 . S
H1763 C1772 0.929 . S
C1764 H1758 0.930 . S
C1764 C1765 1.367 . S
C1764 C1772 1.378 . S
C1765 C1764 1.367 . S
C1765 C1773 1.433 . S
C1766 H1762 0.929 . S
C1766 C1768 1.378 . S
C1766 C1770 1.350 . S
C1767 C1770 1.463 . S
C1767 C1772 1.350 . S
C1767 N1775 1.427 . S
C1768 H1759 0.910 1_455 S
C1768 C1766 1.378 . S
C1768 C1769 1.367 . S
C1769 C1768 1.367 . S
C1769 C1771 1.433 . S
C1770 C1766 1.350 . S
C1770 C1767 1.463 . S
C1770 N1774 1.427 . S
C1771 H1761 0.929 . S
C1771 C1769 1.433 . S
C1771 N1774 1.384 . S
C1772 H1763 0.929 . S
C1772 C1764 1.378 . S
C1772 C1767 1.350 . S
C1773 H1760 0.929 . S
C1773 C1765 1.433 . S
C1773 N1775 1.384 . S
N1774 C1770 1.427 . S
N1774 C1771 1.384 . S
N1775 C1767 1.427 . S
N1775 C1773 1.384 . S
H1776 C1782 0.930 . S
H1777 C1786 0.930 . S
H1778 C1791 0.929 . S
H1779 C1789 0.929 . S
H1780 C1784 0.929 . S
H1781 C1790 0.929 . S
C1782 H1776 0.930 . S
C1782 C1783 1.367 . S
C1782 C1790 1.378 . S
C1783 C1782 1.367 . S
C1783 C1791 1.433 . S
C1784 H1780 0.929 . S
C1784 C1786 1.378 . S
C1784 C1788 1.350 . S
C1785 C1788 1.463 . S
C1785 C1790 1.350 . S
C1785 N1793 1.427 . S
C1786 H1777 0.930 . S
C1786 C1784 1.378 . S
C1786 C1787 1.367 . S
C1787 C1786 1.367 . S
C1787 C1789 1.433 . S
C1788 C1784 1.350 . S
C1788 C1785 1.463 . S
C1788 N1792 1.427 . S
C1789 H1779 0.929 . S
C1789 C1787 1.433 . S
C1789 N1792 1.384 . S
C1790 H1781 0.929 . S
C1790 C1782 1.378 . S
C1790 C1785 1.350 . S
C1791 H1778 0.929 . S
C1791 C1783 1.433 . S
C1791 N1793 1.384 . S
N1792 C1788 1.427 . S
N1792 C1789 1.384 . S
N1793 C1785 1.427 . S
N1793 C1791 1.384 . S
H1794 C1800 0.930 . S
H1795 C1804 0.930 . S
H1796 C1809 0.929 . S
H1797 C1807 0.929 . S
H1798 C1802 0.929 . S
H1799 C1808 0.929 . S
C1800 H1794 0.930 . S
C1800 C1801 1.367 . S
C1800 C1808 1.378 . S
C1801 C1800 1.367 . S
C1801 C1809 1.433 . S
C1802 H1798 0.929 . S
C1802 C1804 1.378 . S
C1802 C1806 1.350 . S
C1803 C1806 1.463 . S
C1803 C1808 1.350 . S
C1803 N1811 1.427 . S
C1804 H1795 0.930 . S
C1804 C1802 1.378 . S
C1804 C1805 1.367 . S
C1805 C1804 1.367 . S
C1805 C1807 1.433 . S
C1806 C1802 1.350 . S
C1806 C1803 1.463 . S
C1806 N1810 1.427 . S
C1807 H1797 0.929 . S
C1807 C1805 1.433 . S
C1807 N1810 1.384 . S
C1808 H1799 0.929 . S
C1808 C1800 1.378 . S
C1808 C1803 1.350 . S
C1809 H1796 0.929 . S
C1809 C1801 1.433 . S
C1809 N1811 1.384 . S
N1810 C1806 1.427 . S
N1810 C1807 1.384 . S
N1811 C1803 1.427 . S
N1811 C1809 1.384 . S
H1812 C1818 0.930 . S
H1813 C1822 0.930 . S
H1814 C1827 0.929 . S
H1815 C1825 0.929 . S
H1816 C1820 0.929 . S
H1817 C1826 0.929 . S
C1818 H1812 0.930 . S
C1818 C1819 1.367 . S
C1818 C1826 1.378 . S
C1819 C1818 1.367 . S
C1819 C1827 1.433 . S
C1820 H1816 0.929 . S
C1820 C1822 1.378 . S
C1820 C1824 1.350 . S
C1821 C1824 1.463 . S
C1821 C1826 1.350 . S
C1821 N1829 1.427 . S
C1822 H1813 0.930 . S
C1822 C1820 1.378 . S
C1822 C1823 1.367 . S
C1823 C1822 1.367 . S
C1823 C1825 1.433 . S
C1824 C1820 1.350 . S
C1824 C1821 1.463 . S
C1824 N1828 1.427 . S
C1825 H1815 0.929 . S
C1825 C1823 1.433 . S
C1825 N1828 1.384 . S
C1826 H1817 0.929 . S
C1826 C1818 1.378 . S
C1826 C1821 1.350 . S
C1827 H1814 0.929 . S
C1827 C1819 1.433 . S
C1827 N1829 1.384 . S
N1828 C1824 1.427 . S
N1828 C1825 1.384 . S
N1829 C1821 1.427 . S
N1829 C1827 1.384 . S
H1830 C1836 0.930 . S
H1831 C1840 0.930 . S
H1832 C1845 0.929 . S
H1833 C1843 0.929 . S
H1834 C1838 0.929 . S
H1835 C1844 0.929 . S
C1836 H1830 0.930 . S
C1836 C1837 1.367 . S
C1836 C1844 1.378 . S
C1837 C1836 1.367 . S
C1837 C1845 1.433 . S
C1838 H1834 0.929 . S
C1838 C1840 1.378 . S
C1838 C1842 1.350 . S
C1839 C1842 1.463 . S
C1839 C1844 1.350 . S
C1839 N1847 1.427 . S
C1840 H1831 0.930 . S
C1840 C1838 1.378 . S
C1840 C1841 1.367 . S
C1841 C1840 1.367 . S
C1841 C1843 1.433 . S
C1842 C1838 1.350 . S
C1842 C1839 1.463 . S
C1842 N1846 1.427 . S
C1843 H1833 0.929 . S
C1843 C1841 1.433 . S
C1843 N1846 1.384 . S
C1844 H1835 0.929 . S
C1844 C1836 1.378 . S
C1844 C1839 1.350 . S
C1845 H1832 0.929 . S
C1845 C1837 1.433 . S
C1845 N1847 1.384 . S
N1846 C1842 1.427 . S
N1846 C1843 1.384 . S
N1847 C1839 1.427 . S
N1847 C1845 1.384 . S
H1848 C1854 0.930 . S
H1849 C1858 0.930 . S
H1850 C1863 0.929 . S
H1851 C1861 0.929 . S
H1852 C1856 0.929 . S
H1853 C1862 0.929 . S
C1854 H1848 0.930 . S
C1854 C1855 1.367 . S
C1854 C1862 1.378 . S
C1855 C1854 1.367 . S
C1855 C1863 1.433 . S
C1856 H1852 0.929 . S
C1856 C1858 1.378 . S
C1856 C1860 1.350 . S
C1857 C1860 1.463 . S
C1857 C1862 1.350 . S
C1857 N1865 1.427 . S
C1858 H1849 0.930 . S
C1858 C1856 1.378 . S
C1858 C1859 1.367 . S
C1859 C1858 1.367 . S
C1859 C1861 1.433 . S
C1860 C1856 1.350 . S
C1860 C1857 1.463 . S
C1860 N1864 1.427 . S
C1861 H1851 0.929 . S
C1861 C1859 1.433 . S
C1861 N1864 1.384 . S
C1862 H1853 0.929 . S
C1862 C1854 1.378 . S
C1862 C1857 1.350 . S
C1863 H1850 0.929 . S
C1863 C1855 1.433 . S
C1863 N1865 1.384 . S
N1864 C1860 1.427 . S
N1864 C1861 1.384 . S
N1865 C1857 1.427 . S
N1865 C1863 1.384 . S
H1866 C1872 0.930 . S
H1867 C1876 0.930 . S
H1868 C1881 0.929 . S
H1869 C1879 0.929 . S
H1870 C1874 0.929 . S
H1871 C1880 0.929 . S
C1872 H1866 0.930 . S
C1872 C1873 1.367 . S
C1872 C1880 1.378 . S
C1873 C1872 1.367 . S
C1873 C1881 1.433 . S
C1874 H1870 0.929 . S
C1874 C1876 1.378 . S
C1874 C1878 1.350 . S
C1875 C1878 1.463 . S
C1875 C1880 1.350 . S
C1875 N1883 1.427 . S
C1876 H1867 0.930 . S
C1876 C1874 1.378 . S
C1876 C1877 1.367 . S
C1877 C1876 1.367 . S
C1877 C1879 1.433 . S
C1878 C1874 1.350 . S
C1878 C1875 1.463 . S
C1878 N1882 1.427 . S
C1879 H1869 0.929 . S
C1879 C1877 1.433 . S
C1879 N1882 1.384 . S
C1880 H1871 0.929 . S
C1880 C1872 1.378 . S
C1880 C1875 1.350 . S
C1881 H1868 0.929 . S
C1881 C1873 1.433 . S
C1881 N1883 1.384 . S
N1882 C1878 1.427 . S
N1882 C1879 1.384 . S
N1883 C1875 1.427 . S
N1883 C1881 1.384 . S
H1884 C1890 0.930 . S
H1885 C1894 0.930 . S
H1886 C1899 0.929 . S
H1887 C1897 0.929 . S
H1888 C1892 0.929 . S
H1889 C1898 0.929 . S
C1890 H1884 0.930 . S
C1890 C1891 1.367 . S
C1890 C1898 1.378 . S
C1891 C1890 1.367 . S
C1891 C1899 1.433 . S
C1892 H1888 0.929 . S
C1892 C1894 1.378 . S
C1892 C1896 1.350 . S
C1893 C1896 1.463 . S
C1893 C1898 1.350 . S
C1893 N1901 1.427 . S
C1894 H1885 0.930 . S
C1894 C1892 1.378 . S
C1894 C1895 1.367 . S
C1895 C1894 1.367 . S
C1895 C1897 1.433 . S
C1896 C1892 1.350 . S
C1896 C1893 1.463 . S
C1896 N1900 1.427 . S
C1897 H1887 0.929 . S
C1897 C1895 1.433 . S
C1897 N1900 1.384 . S
C1898 H1889 0.929 . S
C1898 C1890 1.378 . S
C1898 C1893 1.350 . S
C1899 H1886 0.929 . S
C1899 C1891 1.433 . S
C1899 N1901 1.384 . S
N1900 C1896 1.427 . S
N1900 C1897 1.384 . S
N1901 C1893 1.427 . S
N1901 C1899 1.384 . S
H1902 C1908 0.930 . S
H1903 C1912 0.930 . S
H1904 C1917 0.929 . S
H1905 C1915 0.929 . S
H1906 C1910 0.929 . S
H1907 C1916 0.929 . S
C1908 H1902 0.930 . S
C1908 C1909 1.367 . S
C1908 C1916 1.378 . S
C1909 C1908 1.367 . S
C1909 C1917 1.433 . S
C1910 H1906 0.929 . S
C1910 C1912 1.378 . S
C1910 C1914 1.350 . S
C1911 C1914 1.463 . S
C1911 C1916 1.350 . S
C1911 N1919 1.427 . S
C1912 H1903 0.930 . S
C1912 C1910 1.378 . S
C1912 C1913 1.367 . S
C1913 C1912 1.367 . S
C1913 C1915 1.433 . S
C1914 C1910 1.350 . S
C1914 C1911 1.463 . S
C1914 N1918 1.427 . S
C1915 H1905 0.929 . S
C1915 C1913 1.433 . S
C1915 N1918 1.384 . S
C1916 H1907 0.929 . S
C1916 C1908 1.378 . S
C1916 C1911 1.350 . S
C1917 H1904 0.929 . S
C1917 C1909 1.433 . S
C1917 N1919 1.384 . S
N1918 C1914 1.427 . S
N1918 C1915 1.384 . S
N1919 C1911 1.427 . S
N1919 C1917 1.384 . S
H1920 C1926 0.930 . S
H1921 C1930 0.930 . S
H1922 C1935 0.929 1_554 S
H1923 C1933 0.929 . S
H1924 C1928 0.929 . S
H1925 C1934 0.929 . S
C1926 H1920 0.930 . S
C1926 C1927 1.367 . S
C1926 C1934 1.378 . S
C1927 C1926 1.367 . S
C1927 C1935 1.433 . S
C1928 H1924 0.929 . S
C1928 C1930 1.378 . S
C1928 C1932 1.350 1_554 S
C1929 C1932 1.463 . S
C1929 C1934 1.350 . S
C1929 N1937 1.427 . S
C1930 H1921 0.930 . S
C1930 C1928 1.378 . S
C1930 C1931 1.367 1_554 S
C1931 C1930 1.367 1_556 S
C1931 C1933 1.433 . S
C1932 C1928 1.350 1_556 S
C1932 C1929 1.463 . S
C1932 N1936 1.427 . S
C1933 H1923 0.929 . S
C1933 C1931 1.433 . S
C1933 N1936 1.384 . S
C1934 H1925 0.929 . S
C1934 C1926 1.378 . S
C1934 C1929 1.350 . S
C1935 H1922 0.929 1_556 S
C1935 C1927 1.433 . S
C1935 N1937 1.384 . S
N1936 C1932 1.427 . S
N1936 C1933 1.384 . S
N1937 C1929 1.427 . S
N1937 C1935 1.384 . S
H1938 C1944 0.930 . S
H1939 C1948 0.930 . S
H1940 C1953 0.929 . S
H1941 C1951 0.929 . S
H1942 C1946 0.929 . S
H1943 C1952 0.929 . S
C1944 H1938 0.930 . S
C1944 C1945 1.367 . S
C1944 C1952 1.378 . S
C1945 C1944 1.367 . S
C1945 C1953 1.433 . S
C1946 H1942 0.929 . S
C1946 C1948 1.378 . S
C1946 C1950 1.350 . S
C1947 C1950 1.463 . S
C1947 C1952 1.350 . S
C1947 N1955 1.427 . S
C1948 H1939 0.930 . S
C1948 C1946 1.378 . S
C1948 C1949 1.367 . S
C1949 C1948 1.367 . S
C1949 C1951 1.433 . S
C1950 C1946 1.350 . S
C1950 C1947 1.463 . S
C1950 N1954 1.427 . S
C1951 H1941 0.929 . S
C1951 C1949 1.433 . S
C1951 N1954 1.384 . S
C1952 H1943 0.929 . S
C1952 C1944 1.378 . S
C1952 C1947 1.350 . S
C1953 H1940 0.929 . S
C1953 C1945 1.433 . S
C1953 N1955 1.384 . S
N1954 C1950 1.427 . S
N1954 C1951 1.384 . S
N1955 C1947 1.427 . S
N1955 C1953 1.384 . S
H1956 C1962 0.930 . S
H1957 C1966 0.930 . S
H1958 C1971 0.929 . S
H1959 C1969 0.929 . S
H1960 C1964 0.929 . S
H1961 C1970 0.929 . S
C1962 H1956 0.930 . S
C1962 C1963 1.367 . S
C1962 C1970 1.378 . S
C1963 C1962 1.367 . S
C1963 C1971 1.433 . S
C1964 H1960 0.929 . S
C1964 C1966 1.378 . S
C1964 C1968 1.350 . S
C1965 C1968 1.463 . S
C1965 C1970 1.350 . S
C1965 N1973 1.427 . S
C1966 H1957 0.930 . S
C1966 C1964 1.378 . S
C1966 C1967 1.367 . S
C1967 C1966 1.367 . S
C1967 C1969 1.433 . S
C1968 C1964 1.350 . S
C1968 C1965 1.463 . S
C1968 N1972 1.427 . S
C1969 H1959 0.929 . S
C1969 C1967 1.433 . S
C1969 N1972 1.384 . S
C1970 H1961 0.929 . S
C1970 C1962 1.378 . S
C1970 C1965 1.350 . S
C1971 H1958 0.929 . S
C1971 C1963 1.433 . S
C1971 N1973 1.384 . S
N1972 C1968 1.427 . S
N1972 C1969 1.384 . S
N1973 C1965 1.427 . S
N1973 C1971 1.384 . S
H1974 C1980 0.930 . S
H1975 C1984 0.930 . S
H1976 C1989 0.929 1_545 S
H1977 C1987 0.929 . S
H1978 C1982 0.929 . S
H1979 C1988 0.929 . S
C1980 H1974 0.930 . S
C1980 C1981 1.367 . S
C1980 C1988 1.378 . S
C1981 C1980 1.367 . S
C1981 C1989 1.433 . S
C1982 H1978 0.929 . S
C1982 C1984 1.378 . S
C1982 C1986 1.350 . S
C1983 C1986 1.463 . S
C1983 C1988 1.350 . S
C1983 N1991 1.427 . S
C1984 H1975 0.930 . S
C1984 C1982 1.378 . S
C1984 C1985 1.367 . S
C1985 C1984 1.367 . S
C1985 C1987 1.433 . S
C1986 C1982 1.350 . S
C1986 C1983 1.463 . S
C1986 N1990 1.427 . S
C1987 H1977 0.929 . S
C1987 C1985 1.433 . S
C1987 N1990 1.384 . S
C1988 H1979 0.929 . S
C1988 C1980 1.378 . S
C1988 C1983 1.350 . S
C1989 H1976 0.929 1_565 S
C1989 C1981 1.433 . S
C1989 N1991 1.384 . S
N1990 C1986 1.427 . S
N1990 C1987 1.384 . S
N1991 C1983 1.427 . S
N1991 C1989 1.384 . S
C1139 C968 1.490 . S
C1135 C331 1.499 . S
C1157 C981 1.479 . S
C1153 C380 1.457 . S
C1171 C421 1.645 . S
C1175 C1001 1.550 . S
C1193 C1015 1.379 . S
C1189 C260 1.424 1_655 S
C1211 C1027 1.514 . S
C1207 C620 1.488 . S
C1229 C1041 1.423 . S
C1225 C740 1.405 . S
C1243 C680 1.475 . S
C1247 C1051 1.483 . S
C1265 C1066 1.506 . S
C1261 C571 1.510 . S
C1279 C691 1.489 . S
C1283 C1080 1.488 . S
C1301 C1099 1.364 . S
C1297 C541 1.423 . S
C1315 C601 1.470 . S
C1319 C1079 1.486 . S
C1337 C1097 1.426 . S
C1333 C721 1.411 . S
C1351 C451 1.639 . S
C1355 C1113 1.535 . S
C1369 C241 1.466 . S
C1373 C1107 1.483 . S
C1387 C320 1.486 . S
C1391 C1111 1.517 . S
C1405 C391 1.511 . S
C1409 C1108 1.516 . S
C1423 C211 1.492 . S
C1427 C1010 1.496 . S
C1441 C841 1.462 . S
C1445 C1009 1.482 . S
C1463 C973 1.371 . S
C1459 C901 1.421 . S
C1481 C987 1.550 . S
C1477 C500 1.645 . S
C1495 C271 1.492 1_545 S
C1499 C1024 1.517 . S
C1517 C1069 1.513 . S
C1513 C661 1.500 . S
C1535 C1023 1.483 . S
C1531 C560 1.454 . S
C1553 C1055 1.426 . S
C1549 C751 1.411 . S
C1571 C1052 1.497 . S
C1567 C871 1.492 . S
C1585 C920 1.461 . S
C1589 C1065 1.485 . S
C1603 C481 1.646 . S
C1607 C1029 1.550 . S
C1625 C1043 1.372 . S
C1621 C800 1.421 . S
C1639 C200 1.493 . S
C1643 C999 1.516 . S
C1661 C1013 1.426 . S
C1657 C20 1.414 . S
C1679 C967 1.480 . S
C1675 C80 1.478 . S
C1697 C982 1.506 . S
C1693 C151 1.508 . S
C1711 C91 1.499 . S
C1715 C1094 1.497 . S
C1729 C121 1.421 . S
C1733 C1085 1.369 . S
C1747 C181 1.461 . S
C1751 C1093 1.481 . S
C1765 C1 1.411 . S
C1769 C1083 1.424 . S
C1787 C1127 1.542 . S
C1783 C511 1.640 . S
C1805 C1121 1.482 . S
C1801 C781 1.467 . S
C1823 C1125 1.513 . S
C1819 C860 1.492 . S
C1837 C931 1.511 . S
C1841 C1122 1.515 . S
C1855 C631 1.493 . S
C1859 C1038 1.497 . S
C1877 C1037 1.484 . S
C1873 C301 1.465 . S
C1895 C1057 1.381 . S
C1891 C361 1.413 . S
C1913 C1071 1.544 . S
C1909 C440 1.641 . S
C1927 C811 1.536 . S
C1931 C996 1.517 . S
C1949 C985 1.517 . S
C1945 C61 1.504 . S
C1963 C140 1.452 . S
C1967 C995 1.482 . S
C1985 C971 1.426 . S
C1981 C31 1.410 . S
