# Generated by pormake.
# Topology eea, (3,6)-cn, num edge types: 1
# Building blocks:
#     Node 0, Type 0, BuildingBlock: BETDIP_clean_linker_0, # of connection points: 3
#     Node 1, Type 0, BuildingBlock: BETDIP_clean_linker_0, # of connection points: 3
#     Node 2, Type 0, BuildingBlock: BETDIP_clean_linker_0, # of connection points: 3
#     Node 3, Type 0, BuildingBlock: BETDIP_clean_linker_0, # of connection points: 3
#     Node 4, Type 0, BuildingBlock: BETDIP_clean_linker_0, # of connection points: 3
#     Node 5, Type 0, BuildingBlock: BETDIP_clean_linker_0, # of connection points: 3
#     Node 6, Type 0, BuildingBlock: BETDIP_clean_linker_0, # of connection points: 3
#     Node 7, Type 0, BuildingBlock: BETDIP_clean_linker_0, # of connection points: 3
#     Node 8, Type 0, BuildingBlock: BETDIP_clean_linker_0, # of connection points: 3
#     Node 9, Type 0, BuildingBlock: BETDIP_clean_linker_0, # of connection points: 3
#     Node 10, Type 0, BuildingBlock: BETDIP_clean_linker_0, # of connection points: 3
#     Node 11, Type 0, BuildingBlock: BETDIP_clean_linker_0, # of connection points: 3
#     Node 12, Type 0, BuildingBlock: BETDIP_clean_linker_0, # of connection points: 3
#     Node 13, Type 0, BuildingBlock: BETDIP_clean_linker_0, # of connection points: 3
#     Node 14, Type 0, BuildingBlock: BETDIP_clean_linker_0, # of connection points: 3
#     Node 15, Type 0, BuildingBlock: BETDIP_clean_linker_0, # of connection points: 3
#     Node 16, Type 0, BuildingBlock: BETDIP_clean_linker_0, # of connection points: 3
#     Node 17, Type 0, BuildingBlock: BETDIP_clean_linker_0, # of connection points: 3
#     Node 18, Type 1, BuildingBlock: CIFDUS_clean_sbu_1, # of connection points: 6
#     Node 19, Type 1, BuildingBlock: CIFDUS_clean_sbu_1, # of connection points: 6
#     Node 20, Type 1, BuildingBlock: CIFDUS_clean_sbu_1, # of connection points: 6
#     Node 21, Type 1, BuildingBlock: CIFDUS_clean_sbu_1, # of connection points: 6
#     Node 22, Type 1, BuildingBlock: CIFDUS_clean_sbu_1, # of connection points: 6
#     Node 23, Type 1, BuildingBlock: CIFDUS_clean_sbu_1, # of connection points: 6
#     Node 24, Type 1, BuildingBlock: CIFDUS_clean_sbu_1, # of connection points: 6
#     Node 25, Type 1, BuildingBlock: CIFDUS_clean_sbu_1, # of connection points: 6
#     Node 26, Type 1, BuildingBlock: CIFDUS_clean_sbu_1, # of connection points: 6
#     Edge 27, Type (0, 1), BuildingBlock: TEMPAE_clean_linker_10, # of connection points: 2
#     Edge 28, Type (0, 1), BuildingBlock: TEMPAE_clean_linker_10, # of connection points: 2
#     Edge 29, Type (0, 1), BuildingBlock: TEMPAE_clean_linker_10, # of connection points: 2
#     Edge 30, Type (0, 1), BuildingBlock: TEMPAE_clean_linker_10, # of connection points: 2
#     Edge 31, Type (0, 1), BuildingBlock: TEMPAE_clean_linker_10, # of connection points: 2
#     Edge 32, Type (0, 1), BuildingBlock: TEMPAE_clean_linker_10, # of connection points: 2
#     Edge 33, Type (0, 1), BuildingBlock: TEMPAE_clean_linker_10, # of connection points: 2
#     Edge 34, Type (0, 1), BuildingBlock: TEMPAE_clean_linker_10, # of connection points: 2
#     Edge 35, Type (0, 1), BuildingBlock: TEMPAE_clean_linker_10, # of connection points: 2
#     Edge 36, Type (0, 1), BuildingBlock: TEMPAE_clean_linker_10, # of connection points: 2
#     Edge 37, Type (0, 1), BuildingBlock: TEMPAE_clean_linker_10, # of connection points: 2
#     Edge 38, Type (0, 1), BuildingBlock: TEMPAE_clean_linker_10, # of connection points: 2
#     Edge 39, Type (0, 1), BuildingBlock: TEMPAE_clean_linker_10, # of connection points: 2
#     Edge 40, Type (0, 1), BuildingBlock: TEMPAE_clean_linker_10, # of connection points: 2
#     Edge 41, Type (0, 1), BuildingBlock: TEMPAE_clean_linker_10, # of connection points: 2
#     Edge 42, Type (0, 1), BuildingBlock: TEMPAE_clean_linker_10, # of connection points: 2
#     Edge 43, Type (0, 1), BuildingBlock: TEMPAE_clean_linker_10, # of connection points: 2
#     Edge 44, Type (0, 1), BuildingBlock: TEMPAE_clean_linker_10, # of connection points: 2
#     Edge 45, Type (0, 1), BuildingBlock: TEMPAE_clean_linker_10, # of connection points: 2
#     Edge 46, Type (0, 1), BuildingBlock: TEMPAE_clean_linker_10, # of connection points: 2
#     Edge 47, Type (0, 1), BuildingBlock: TEMPAE_clean_linker_10, # of connection points: 2
#     Edge 48, Type (0, 1), BuildingBlock: TEMPAE_clean_linker_10, # of connection points: 2
#     Edge 49, Type (0, 1), BuildingBlock: TEMPAE_clean_linker_10, # of connection points: 2
#     Edge 50, Type (0, 1), BuildingBlock: TEMPAE_clean_linker_10, # of connection points: 2
#     Edge 51, Type (0, 1), BuildingBlock: TEMPAE_clean_linker_10, # of connection points: 2
#     Edge 52, Type (0, 1), BuildingBlock: TEMPAE_clean_linker_10, # of connection points: 2
#     Edge 53, Type (0, 1), BuildingBlock: TEMPAE_clean_linker_10, # of connection points: 2
#     Edge 54, Type (0, 1), BuildingBlock: TEMPAE_clean_linker_10, # of connection points: 2
#     Edge 55, Type (0, 1), BuildingBlock: TEMPAE_clean_linker_10, # of connection points: 2
#     Edge 56, Type (0, 1), BuildingBlock: TEMPAE_clean_linker_10, # of connection points: 2
#     Edge 57, Type (0, 1), BuildingBlock: TEMPAE_clean_linker_10, # of connection points: 2
#     Edge 58, Type (0, 1), BuildingBlock: TEMPAE_clean_linker_10, # of connection points: 2
#     Edge 59, Type (0, 1), BuildingBlock: TEMPAE_clean_linker_10, # of connection points: 2
#     Edge 60, Type (0, 1), BuildingBlock: TEMPAE_clean_linker_10, # of connection points: 2
#     Edge 61, Type (0, 1), BuildingBlock: TEMPAE_clean_linker_10, # of connection points: 2
#     Edge 62, Type (0, 1), BuildingBlock: TEMPAE_clean_linker_10, # of connection points: 2
#     Edge 63, Type (0, 1), BuildingBlock: TEMPAE_clean_linker_10, # of connection points: 2
#     Edge 64, Type (0, 1), BuildingBlock: TEMPAE_clean_linker_10, # of connection points: 2
#     Edge 65, Type (0, 1), BuildingBlock: TEMPAE_clean_linker_10, # of connection points: 2
#     Edge 66, Type (0, 1), BuildingBlock: TEMPAE_clean_linker_10, # of connection points: 2
#     Edge 67, Type (0, 1), BuildingBlock: TEMPAE_clean_linker_10, # of connection points: 2
#     Edge 68, Type (0, 1), BuildingBlock: TEMPAE_clean_linker_10, # of connection points: 2
#     Edge 69, Type (0, 1), BuildingBlock: TEMPAE_clean_linker_10, # of connection points: 2
#     Edge 70, Type (0, 1), BuildingBlock: TEMPAE_clean_linker_10, # of connection points: 2
#     Edge 71, Type (0, 1), BuildingBlock: TEMPAE_clean_linker_10, # of connection points: 2
#     Edge 72, Type (0, 1), BuildingBlock: TEMPAE_clean_linker_10, # of connection points: 2
#     Edge 73, Type (0, 1), BuildingBlock: TEMPAE_clean_linker_10, # of connection points: 2
#     Edge 74, Type (0, 1), BuildingBlock: TEMPAE_clean_linker_10, # of connection points: 2
#     Edge 75, Type (0, 1), BuildingBlock: TEMPAE_clean_linker_10, # of connection points: 2
#     Edge 76, Type (0, 1), BuildingBlock: TEMPAE_clean_linker_10, # of connection points: 2
#     Edge 77, Type (0, 1), BuildingBlock: TEMPAE_clean_linker_10, # of connection points: 2
#     Edge 78, Type (0, 1), BuildingBlock: TEMPAE_clean_linker_10, # of connection points: 2
#     Edge 79, Type (0, 1), BuildingBlock: TEMPAE_clean_linker_10, # of connection points: 2
#     Edge 80, Type (0, 1), BuildingBlock: TEMPAE_clean_linker_10, # of connection points: 2
# Relax obj value: 0.089
# Max RMSD: 0.118
# Mean RMSD: 0.103
data_MOF--net-eea--node1-CIFDUS_clean_sbu_1--node2-BETDIP_clean_linker_0--edge1-TEMPAE_clean_linker_10
_symmetry_space_group_name_H-M    P1
_symmetry_Int_Tables_number       1
_symmetry_cell_setting            triclinic
loop_
_symmetry_equiv_pos_as_xyz
'x, y, z'
_cell_length_a     58.822553
_cell_length_b     58.37502
_cell_length_c     45.057352
_cell_angle_alpha  90.16983
_cell_angle_beta   90.106646
_cell_angle_gamma 120.0061
loop_
_atom_site_label
_atom_site_type_symbol
_atom_site_fract_x
_atom_site_fract_y
_atom_site_fract_z
_atom_type_partial_charge
H0 H 0.23075 0.11314 0.32713 0.0
H1 H 0.25039 0.15947 0.40787 0.0
H2 H 0.25982 0.09182 0.40357 0.0
H3 H 0.25696 0.192 0.37607 0.0
C4 C 0.24034 0.1817 0.36111 0.0
C5 C 0.23821 0.11691 0.34967 0.0
C6 C 0.24547 0.09982 0.36332 0.0
C7 C 0.24074 0.1391 0.36519 0.0
C8 C 0.24972 0.1435 0.39494 0.0
C9 C 0.25641 0.1262 0.40872 0.0
C10 C 0.25466 0.10504 0.39256 0.0
N11 N 0.23248 0.15561 0.35126 0.0
H12 H 0.90811 0.11585 0.3264 0.0
H13 H 0.84888 0.10519 0.38919 0.0
H14 H 0.92834 0.169 0.40009 0.0
H15 H 0.82139 0.07332 0.35969 0.0
C16 C 0.8331 0.06517 0.35111 0.0
C17 C 0.90221 0.12237 0.34598 0.0
C18 C 0.92062 0.14494 0.36141 0.0
C19 C 0.87652 0.10737 0.35656 0.0
C20 C 0.86894 0.1161 0.38188 0.0
C21 C 0.88734 0.13827 0.39836 0.0
C22 C 0.9133 0.15237 0.38776 0.0
N23 N 0.85978 0.08228 0.34326 0.0
H24 H 0.89287 0.78403 0.32461 0.0
H25 H 0.90904 0.75331 0.40355 0.0
H26 H 0.83848 0.75824 0.39683 0.0
H27 H 0.95104 0.79739 0.39046 0.0
C28 C 0.95202 0.78925 0.36908 0.0
C29 C 0.88704 0.77527 0.34642 0.0
C30 C 0.86317 0.77056 0.35862 0.0
C31 C 0.90391 0.76963 0.36297 0.0
C32 C 0.89627 0.75837 0.39144 0.0
C33 C 0.87231 0.75358 0.40398 0.0
C34 C 0.85624 0.76018 0.38726 0.0
N35 N 0.92896 0.77639 0.35129 0.0
H36 H 0.11278 0.2244 0.69278 0.0
H37 H 0.17323 0.27046 0.62959 0.0
H38 H 0.09799 0.26528 0.62291 0.0
H39 H 0.18087 0.2374 0.6332 0.0
C40 C 0.17874 0.23245 0.65663 0.0
C41 C 0.11972 0.23758 0.67388 0.0
C42 C 0.10322 0.24535 0.66019 0.0
C43 C 0.14466 0.24564 0.66222 0.0
C44 C 0.15345 0.26279 0.63771 0.0
C45 C 0.13661 0.26933 0.62262 0.0
C46 C 0.11157 0.26092 0.63444 0.0
N47 N 0.15979 0.23486 0.67392 0.0
H48 H 0.79835 0.89118 0.68783 0.0
H49 H 0.75951 0.91472 0.62416 0.0
H50 H 0.74981 0.83663 0.62018 0.0
H51 H 0.75863 0.93762 0.67644 0.0
C52 C 0.77978 0.94684 0.67398 0.0
C53 C 0.78469 0.88624 0.66951 0.0
C54 C 0.77385 0.86135 0.65585 0.0
C55 C 0.77851 0.90506 0.65906 0.0
C56 C 0.76247 0.89939 0.63372 0.0
C57 C 0.75273 0.87499 0.61895 0.0
C58 C 0.75733 0.85561 0.63125 0.0
N59 N 0.79152 0.93081 0.67165 0.0
H60 H 0.12974 0.90108 0.69473 0.0
H61 H 0.10512 0.84976 0.61809 0.0
H62 H 0.18043 0.92056 0.61892 0.0
H63 H 0.06842 0.86176 0.63574 0.0
C64 C 0.06672 0.85153 0.65648 0.0
C65 C 0.134 0.89596 0.67312 0.0
C66 C 0.15772 0.91325 0.65885 0.0
C67 C 0.11501 0.87288 0.65862 0.0
C68 C 0.12001 0.86703 0.6298 0.0
C69 C 0.1438 0.88415 0.61574 0.0
C70 C 0.16258 0.90685 0.63049 0.0
N71 N 0.09003 0.85714 0.67193 0.0
H72 H 0.88199 0.43676 0.67264 0.0
H73 H 0.92273 0.49435 0.74198 0.0
H74 H 0.92774 0.42431 0.73879 0.0
H75 H 0.89249 0.50401 0.7365 0.0
C76 C 0.88538 0.5001 0.71381 0.0
C77 C 0.8951 0.44358 0.69162 0.0
C78 C 0.90526 0.42798 0.703 0.0
C79 C 0.90072 0.46742 0.70574 0.0
C80 C 0.91768 0.47612 0.73054 0.0
C81 C 0.92726 0.46046 0.74213 0.0
C82 C 0.92146 0.43689 0.72817 0.0
N83 N 0.88769 0.48115 0.696 0.0
H84 H 0.57489 0.45098 0.66115 0.0
H85 H 0.51554 0.43617 0.72584 0.0
H86 H 0.58781 0.51019 0.72652 0.0
H87 H 0.51081 0.3966 0.72631 0.0
C88 C 0.51262 0.3924 0.70323 0.0
C89 C 0.56788 0.45762 0.67965 0.0
C90 C 0.58323 0.48348 0.69087 0.0
C91 C 0.54394 0.43999 0.69305 0.0
C92 C 0.53483 0.4489 0.71673 0.0
C93 C 0.55091 0.4736 0.73003 0.0
C94 C 0.57485 0.49114 0.71638 0.0
N95 N 0.53012 0.41298 0.68395 0.0
H96 H 0.56086 0.12344 0.6666 0.0
H97 H 0.58068 0.0908 0.74123 0.0
H98 H 0.5087 0.09212 0.74101 0.0
H99 H 0.60772 0.08861 0.70674 0.0
C100 C 0.61588 0.10784 0.69621 0.0
C101 C 0.55579 0.11385 0.68804 0.0
C102 C 0.53151 0.10687 0.70119 0.0
C103 C 0.57387 0.10859 0.70249 0.0
C104 C 0.56709 0.09521 0.72996 0.0
C105 C 0.54292 0.0882 0.7434 0.0
C106 C 0.52605 0.09516 0.72932 0.0
N107 N 0.59917 0.11824 0.68968 0.0
H108 H 0.77625 0.56026 0.02724 0.0
H109 H 0.82724 0.58477 0.9521 0.0
H110 H 0.76169 0.59761 0.95302 0.0
H111 H 0.82635 0.54712 0.96236 0.0
C112 C 0.83021 0.5497 0.98609 0.0
C113 C 0.78135 0.56944 0.0056 0.0
C114 C 0.7657 0.57839 0.99181 0.0
C115 C 0.80313 0.57117 0.99098 0.0
C116 C 0.81033 0.58341 0.96306 0.0
C117 C 0.79562 0.59315 0.94893 0.0
C118 C 0.77343 0.5906 0.96375 0.0
N119 N 0.81711 0.5596 0.00396 0.0
H120 H 0.44618 0.21884 0.02637 0.0
H121 H 0.41304 0.24491 0.95832 0.0
H122 H 0.4232 0.1788 0.94163 0.0
H123 H 0.46274 0.27849 0.96685 0.0
C124 C 0.45747 0.28215 0.9888 0.0
C125 C 0.43715 0.21589 0.0047 0.0
C126 C 0.43342 0.19455 0.98633 0.0
C127 C 0.43071 0.23464 0.99406 0.0
C128 C 0.41823 0.23063 0.96639 0.0
C129 C 0.41591 0.21068 0.94753 0.0
C130 C 0.42402 0.19328 0.9573 0.0
N131 N 0.44192 0.2601 0.00734 0.0
H132 H 0.79663 0.22986 0.02352 0.0
H133 H 0.76661 0.17496 0.95011 0.0
H134 H 0.83952 0.24679 0.94134 0.0
H135 H 0.73311 0.18915 0.96583 0.0
C136 C 0.73117 0.18022 0.98754 0.0
C137 C 0.79915 0.22414 0.00143 0.0
C138 C 0.82151 0.24106 0.98454 0.0
C139 C 0.77904 0.20049 0.9889 0.0
C140 C 0.78208 0.19299 0.96008 0.0
C141 C 0.80425 0.20968 0.94348 0.0
C142 C 0.82347 0.23349 0.95556 0.0
N143 N 0.75442 0.18629 0.00344 0.0
H144 H 0.55661 0.7711 0.99869 0.0
H145 H 0.58954 0.82387 0.07332 0.0
H146 H 0.59941 0.75609 0.06599 0.0
H147 H 0.59413 0.85444 0.02992 0.0
C148 C 0.57318 0.84235 0.02564 0.0
C149 C 0.56858 0.77715 0.01865 0.0
C150 C 0.57837 0.76145 0.02996 0.0
C151 C 0.57349 0.80028 0.03345 0.0
C152 C 0.58741 0.80715 0.06052 0.0
C153 C 0.59688 0.7912 0.07211 0.0
C154 C 0.59308 0.76898 0.05627 0.0
N155 N 0.56173 0.81461 0.02244 0.0
H156 H 0.23744 0.78881 0.99025 0.0
H157 H 0.18665 0.76922 0.06525 0.0
H158 H 0.25499 0.84689 0.05878 0.0
H159 H 0.2035 0.73412 0.05477 0.0
C160 C 0.19105 0.72946 0.03522 0.0
C161 C 0.23205 0.7949 0.01055 0.0
C162 C 0.24862 0.82013 0.02254 0.0
C163 C 0.20958 0.7768 0.02592 0.0
C164 C 0.20344 0.78403 0.05312 0.0
C165 C 0.2195 0.80929 0.06542 0.0
C166 C 0.24195 0.82745 0.04956 0.0
N167 N 0.19483 0.75025 0.01595 0.0
H168 H 0.22862 0.46084 0.99831 0.0
H169 H 0.24473 0.42172 0.06946 0.0
H170 H 0.17291 0.42454 0.06821 0.0
H171 H 0.27064 0.41813 0.02916 0.0
C172 C 0.27972 0.43849 0.02164 0.0
C173 C 0.22251 0.44911 0.01838 0.0
C174 C 0.19855 0.44261 0.03142 0.0
C175 C 0.2392 0.44151 0.03177 0.0
C176 C 0.2316 0.42705 0.05862 0.0
C177 C 0.20733 0.42042 0.07194 0.0
C178 C 0.19111 0.42836 0.05789 0.0
N179 N 0.2644 0.45094 0.01905 0.0
H180 H 0.44633 0.89401 0.36382 0.0
H181 H 0.4989 0.92763 0.28989 0.0
H182 H 0.43007 0.93477 0.29471 0.0
H183 H 0.50433 0.89361 0.29677 0.0
C184 C 0.50548 0.89245 0.32073 0.0
C185 C 0.45179 0.90519 0.34336 0.0
C186 C 0.43581 0.91461 0.3316 0.0
C187 C 0.47434 0.90932 0.32816 0.0
C188 C 0.48133 0.92382 0.30158 0.0
C189 C 0.46526 0.93263 0.28913 0.0
C190 C 0.44275 0.92827 0.30447 0.0
N191 N 0.4892 0.89798 0.33926 0.0
H192 H 0.12752 0.55582 0.35768 0.0
H193 H 0.09357 0.58585 0.29479 0.0
H194 H 0.08787 0.51069 0.2798 0.0
H195 H 0.09069 0.60701 0.33912 0.0
C196 C 0.1112 0.61448 0.34468 0.0
C197 C 0.11583 0.55306 0.33796 0.0
C198 C 0.10792 0.53066 0.31991 0.0
C199 C 0.11006 0.5728 0.32954 0.0
C200 C 0.09647 0.57 0.30273 0.0
C201 C 0.08892 0.54784 0.28458 0.0
C202 C 0.09373 0.52785 0.29393 0.0
N203 N 0.12111 0.5968 0.34603 0.0
H204 H 0.45796 0.57791 0.34741 0.0
H205 H 0.43397 0.51263 0.28677 0.0
H206 H 0.51008 0.58134 0.27849 0.0
H207 H 0.41331 0.48937 0.33353 0.0
C208 C 0.4044 0.50143 0.3381 0.0
C209 C 0.46265 0.56855 0.3295 0.0
C210 C 0.48628 0.58285 0.31389 0.0
C211 C 0.44429 0.54256 0.32099 0.0
C212 C 0.44914 0.53139 0.29563 0.0
C213 C 0.47289 0.54566 0.28027 0.0
C214 C 0.49188 0.57042 0.29075 0.0
N215 N 0.41985 0.52937 0.336 0.0
O216 O 0.44948 0.97378 0.00487 0.0
Mn217 Mn 0.48704 0.00505 0.01384 0.0
O218 O 0.43401 0.97404 0.04846 0.0
Mn219 Mn 0.45772 0.00993 0.05151 0.0
O220 O 0.52571 0.0357 0.02077 0.0
O221 O 0.49898 0.9769 0.00725 0.0
Mn222 Mn 0.51544 0.99407 0.9749 0.0
O223 O 0.48807 0.01709 0.96853 0.0
O224 O 0.54205 0.02855 0.97983 0.0
O225 O 0.48796 0.99372 0.05922 0.0
O226 O 0.47932 0.02058 0.08311 0.0
O227 O 0.52682 0.97168 0.97627 0.0
O228 O 0.49117 0.98598 0.94616 0.0
C229 C 0.45605 0.03912 0.03119 0.0
C230 C 0.43157 0.96254 0.02407 0.0
C231 C 0.54494 0.04204 0.00303 0.0
C232 C 0.5104 0.96351 0.99825 0.0
C233 C 0.48616 0.0043 0.94454 0.0
C234 C 0.48891 0.00582 0.08348 0.0
O235 O 0.47338 0.03257 0.02113 0.0
O236 O 0.43903 0.02505 0.05119 0.0
O237 O 0.03763 0.47832 0.00422 0.0
Mn238 Mn 0.00692 0.48482 0.01496 0.0
O239 O 0.03781 0.46009 0.04665 0.0
Mn240 Mn 0.00343 0.45074 0.05396 0.0
O241 O 0.97646 0.49195 0.02431 0.0
O242 O 0.03236 0.52467 0.00534 0.0
Mn243 Mn 0.01382 0.526 0.97524 0.0
O244 O 0.99149 0.47239 0.97136 0.0
O245 O 0.98075 0.51901 0.98693 0.0
O246 O 0.02191 0.49926 0.05869 0.0
O247 O 0.99623 0.46537 0.08516 0.0
O248 O 0.03907 0.55937 0.97681 0.0
O249 O 0.0173 0.50719 0.94517 0.0
C250 C 0.97264 0.4199 0.0359 0.0
C251 C 0.04803 0.46912 0.02176 0.0
C252 C 0.96859 0.50535 0.00947 0.0
C253 C 0.04697 0.54969 0.99769 0.0
C254 C 0.00015 0.48322 0.94608 0.0
C255 C 0.01161 0.48962 0.08391 0.0
O256 O 0.98063 0.44365 0.02409 0.0
O257 O 0.98592 0.41681 0.05689 0.0
O258 O 0.56421 0.53201 0.01643 0.0
Mn259 Mn 0.52723 0.5265 0.00643 0.0
O260 O 0.58987 0.55668 0.97969 0.0
Mn261 Mn 0.56776 0.56825 0.96604 0.0
O262 O 0.48905 0.51917 -0.00063 0.0
O263 O 0.51301 0.48797 0.01969 0.0
Mn264 Mn 0.49692 0.4888 0.05202 0.0
O265 O 0.52607 0.54187 0.04912 0.0
O266 O 0.47103 0.49666 0.04129 0.0
O267 O 0.52788 0.513 0.96263 0.0
O268 O 0.54837 0.54937 0.93398 0.0
O269 O 0.48911 0.45512 0.05144 0.0
O270 O 0.52318 0.51056 0.07749 0.0
C271 C 0.5554 0.58841 0.99636 0.0
C272 C 0.58588 0.54259 0.00243 0.0
C273 C 0.46985 0.50819 0.01778 0.0
C274 C 0.50395 0.46351 0.02816 0.0
C275 C 0.52748 0.53374 0.0751 0.0
C276 C 0.53403 0.52444 0.93695 0.0
O277 O 0.54155 0.56349 0.99 0.0
O278 O 0.57653 0.60072 0.98069 0.0
O279 O 0.11787 0.30685 0.34289 0.0
Mn280 Mn 0.15585 0.34021 0.34607 0.0
O281 O 0.09376 0.31518 0.37514 0.0
Mn282 Mn 0.12022 0.34748 0.38836 0.0
O283 O 0.19404 0.37371 0.34936 0.0
O284 O 0.17199 0.31755 0.3355 0.0
Mn285 Mn 0.19675 0.33515 0.30905 0.0
O286 O 0.15266 0.3491 0.30126 0.0
O287 O 0.22182 0.36019 0.33349 0.0
O288 O 0.15926 0.33074 0.39052 0.0
O289 O 0.13999 0.34705 0.41949 0.0
O290 O 0.18514 0.29999 0.30293 0.0
O291 O 0.18685 0.34934 0.27919 0.0
C292 C 0.13242 0.38062 0.36187 0.0
C293 C 0.09588 0.30057 0.35558 0.0
C294 C 0.21739 0.3772 0.34602 0.0
C295 C 0.16885 0.29569 0.32426 0.0
C296 C 0.16716 0.35255 0.27847 0.0
C297 C 0.15412 0.33657 0.41622 0.0
O298 O 0.14054 0.36374 0.35765 0.0
O299 O 0.11645 0.37605 0.38375 0.0
O300 O 0.70504 0.81118 0.33824 0.0
Mn301 Mn 0.67431 0.81862 0.34593 0.0
O302 O 0.70366 0.79146 0.38033 0.0
Mn303 Mn 0.66814 0.77853 0.38629 0.0
O304 O 0.64185 0.82492 0.35475 0.0
O305 O 0.70326 0.85769 0.33416 0.0
Mn306 Mn 0.67521 0.8603 0.32406 0.0
O307 O 0.66304 0.8082 0.3015 0.0
O308 O 0.66188 0.86769 0.35645 0.0
O309 O 0.68543 0.83012 0.39148 0.0
O310 O 0.66132 0.79358 0.4174 0.0
O311 O 0.69935 0.88798 0.30584 0.0
O312 O 0.65162 0.83834 0.29571 0.0
C313 C 0.64215 0.75506 0.35337 0.0
C314 C 0.7154 0.80251 0.35664 0.0
C315 C 0.64232 0.84617 0.36341 0.0
C316 C 0.71386 0.88007 0.31887 0.0
C317 C 0.65242 0.81853 0.28584 0.0
C318 C 0.67516 0.8185 0.41637 0.0
O319 O 0.64805 0.77975 0.357 0.0
O320 O 0.65034 0.7452 0.37372 0.0
O321 O 0.23504 0.86719 0.35101 0.0
Mn322 Mn 0.19723 0.8601 0.34262 0.0
O323 O 0.25051 0.88056 0.30679 0.0
Mn324 Mn 0.22703 0.89262 0.30213 0.0
O325 O 0.15793 0.85069 0.33892 0.0
O326 O 0.18508 0.82209 0.35507 0.0
Mn327 Mn 0.16913 0.8194 0.38887 0.0
O328 O 0.19708 0.8742 0.38608 0.0
O329 O 0.14106 0.82423 0.37896 0.0
O330 O 0.19457 0.84448 0.29812 0.0
O331 O 0.20504 0.87919 0.2712 0.0
O332 O 0.16588 0.78716 0.38435 0.0
O333 O 0.19357 0.84263 0.41528 0.0
C334 C 0.22757 0.92396 0.31993 0.0
C335 C 0.25276 0.87264 0.33189 0.0
C336 C 0.13885 0.83682 0.35694 0.0
C337 C 0.17829 0.79749 0.35989 0.0
C338 C 0.19817 0.86597 0.41211 0.0
C339 C 0.19413 0.85463 0.27287 0.0
O340 O 0.21062 0.90032 0.33103 0.0
O341 O 0.24527 0.92668 0.30098 0.0
O342 O 0.78388 0.64162 0.67333 0.0
Mn343 Mn 0.82191 0.67429 0.6773 0.0
O344 O 0.76169 0.64621 0.71085 0.0
Mn345 Mn 0.78576 0.68061 0.72123 0.0
O346 O 0.86032 0.70871 0.68216 0.0
O347 O 0.83325 0.64706 0.66211 0.0
Mn348 Mn 0.86181 0.67498 0.64755 0.0
O349 O 0.81825 0.68482 0.6341 0.0
O350 O 0.88502 0.69119 0.67757 0.0
O351 O 0.82511 0.66379 0.72147 0.0
O352 O 0.80837 0.6831 0.75071 0.0
O353 O 0.86485 0.64977 0.63074 0.0
O354 O 0.85807 0.69561 0.61909 0.0
C355 C 0.79576 0.71002 0.68738 0.0
C356 C 0.76327 0.63297 0.68942 0.0
C357 C 0.88272 0.71032 0.68598 0.0
C358 C 0.84451 0.63571 0.64725 0.0
C359 C 0.83653 0.69494 0.61487 0.0
C360 C 0.8215 0.67132 0.74721 0.0
O361 O 0.8089 0.6982 0.693 0.0
O362 O 0.77748 0.70473 0.70656 0.0
O363 O 0.3743 0.14924 0.66686 0.0
Mn364 Mn 0.34076 0.15132 0.67697 0.0
O365 O 0.37406 0.11894 0.69687 0.0
Mn366 Mn 0.34053 0.10606 0.71074 0.0
O367 O 0.30647 0.15404 0.68845 0.0
O368 O 0.36573 0.19119 0.66471 0.0
Mn369 Mn 0.33554 0.18957 0.65413 0.0
O370 O 0.32887 0.1397 0.63359 0.0
O371 O 0.32249 0.19666 0.68672 0.0
O372 O 0.35244 0.16123 0.72164 0.0
O373 O 0.3394 0.12239 0.74497 0.0
O374 O 0.35749 0.21657 0.63307 0.0
O375 O 0.31108 0.16451 0.6286 0.0
C376 C 0.3075 0.0884 0.68027 0.0
C377 C 0.38503 0.13677 0.67762 0.0
C378 C 0.30528 0.17469 0.69634 0.0
C379 C 0.37408 0.21221 0.64738 0.0
C380 C 0.3141 0.14587 0.61943 0.0
C381 C 0.34773 0.14724 0.74548 0.0
O382 O 0.31893 0.11274 0.6894 0.0
O383 O 0.31717 0.07514 0.69248 0.0
O384 O 0.90196 0.20018 0.67735 0.0
Mn385 Mn 0.86321 0.19372 0.67222 0.0
O386 O 0.92813 0.23933 0.65763 0.0
Mn387 Mn 0.90093 0.23646 0.63578 0.0
O388 O 0.82441 0.18517 0.66862 0.0
O389 O 0.85103 0.15532 0.68474 0.0
Mn390 Mn 0.83376 0.15313 0.71749 0.0
O391 O 0.86389 0.20812 0.71578 0.0
O392 O 0.80599 0.15856 0.70786 0.0
O393 O 0.86088 0.1797 0.62882 0.0
O394 O 0.89093 0.21446 0.60347 0.0
O395 O 0.82942 0.12059 0.71459 0.0
O396 O 0.85859 0.17541 0.74408 0.0
C397 C 0.88221 0.25612 0.64777 0.0
C398 C 0.92503 0.21932 0.67154 0.0
C399 C 0.80496 0.17197 0.68612 0.0
C400 C 0.84399 0.13084 0.69138 0.0
C401 C 0.86371 0.19895 0.74166 0.0
C402 C 0.87304 0.19051 0.60477 0.0
O403 O 0.87401 0.232 0.65798 0.0
O404 O 0.90201 0.26665 0.62973 0.0
C405 C 0.29352 0.82913 0.01033 0.0
C406 C 0.2749 0.83741 0.0098 0.0
C407 C 0.32022 0.84722 0.00565 0.0
C408 C 0.32827 0.87406 0.0 0.0
C409 C 0.30907 0.88169 0.99597 0.0
C410 C 0.28257 0.86333 0.00144 0.0
C411 C 0.33996 0.8382 0.01016 0.0
C412 C 0.31676 0.90992 0.98899 0.0
C413 C 0.38833 0.92605 0.04055 0.0
C414 C 0.40665 0.93783 0.01764 0.0
C415 C 0.36315 0.90488 0.03501 0.0
C416 C 0.35597 0.89484 0.00577 0.0
C417 C 0.37471 0.90568 0.98266 0.0
C418 C 0.39995 0.92713 0.98889 0.0
C419 C 0.34388 0.89401 0.06042 0.0
C420 C 0.36792 0.89501 0.9514 0.0
H421 H 0.28751 0.80902 0.01685 0.0
H422 H 0.26805 0.86959 0.00078 0.0
H423 H 0.35612 0.84756 0.99383 0.0
H424 H 0.34875 0.84424 0.03265 0.0
H425 H 0.33071 0.81636 0.00829 0.0
H426 H 0.29966 0.91164 0.98153 0.0
H427 H 0.32517 0.92232 0.00918 0.0
H428 H 0.33202 0.91801 0.9715 0.0
H429 H 0.39338 0.93393 0.06292 0.0
H430 H 0.41409 0.93602 0.97112 0.0
H431 H 0.33585 0.87238 0.06243 0.0
H432 H 0.32713 0.89727 0.05609 0.0
H433 H 0.35293 0.90346 0.082 0.0
H434 H 0.36377 0.87427 0.95087 0.0
H435 H 0.38406 0.90679 0.93557 0.0
H436 H 0.34989 0.89481 0.94371 0.0
C437 C 0.16704 0.44185 0.99372 0.0
C438 C 0.18182 0.45256 0.01963 0.0
C439 C 0.14649 0.4466 0.98658 0.0
C440 C 0.14078 0.46218 0.00604 0.0
C441 C 0.1571 0.47458 0.03099 0.0
C442 C 0.1775 0.46967 0.03737 0.0
C443 C 0.12963 0.43329 0.95967 0.0
C444 C 0.15134 0.49069 0.05284 0.0
C445 C 0.09081 0.48445 0.99519 0.0
C446 C 0.07036 0.46593 0.01289 0.0
C447 C 0.11348 0.4825 0.99071 0.0
C448 C 0.11532 0.46154 0.00412 0.0
C449 C 0.09377 0.44177 0.02005 0.0
C450 C 0.07161 0.44424 0.02418 0.0
C451 C 0.13604 0.50364 0.97326 0.0
C452 C 0.09473 0.41894 0.03461 0.0
H453 H 0.17041 0.42843 0.98021 0.0
H454 H 0.18902 0.47777 0.05747 0.0
H455 H 0.11038 0.41667 0.96678 0.0
H456 H 0.12576 0.44737 0.94725 0.0
H457 H 0.13892 0.42531 0.94453 0.0
H458 H 0.16764 0.50148 0.06895 0.0
H459 H 0.1477 0.50523 0.0411 0.0
H460 H 0.13332 0.47734 0.06546 0.0
H461 H 0.08968 0.50107 0.98622 0.0
H462 H 0.05544 0.42948 0.0372 0.0
H463 H 0.14341 0.49452 0.9571 0.0
H464 H 0.15249 0.5161 0.98856 0.0
H465 H 0.13038 0.5166 0.96117 0.0
H466 H 0.09927 0.40784 0.01791 0.0
H467 H 0.07592 0.40494 0.04555 0.0
H468 H 0.11055 0.42654 0.0516 0.0
C469 C 0.54294 0.71649 0.0159 0.0
C470 C 0.5698 0.73496 0.01773 0.0
C471 C 0.53421 0.68958 0.01154 0.0
C472 C 0.55288 0.68122 0.00865 0.0
C473 C 0.58006 0.70015 0.00817 0.0
C474 C 0.5882 0.72685 0.01297 0.0
C475 C 0.50513 0.67002 0.0124 0.0
C476 C 0.60063 0.69213 0.00403 0.0
C477 C 0.5457 0.61568 0.03046 0.0
C478 C 0.54291 0.60413 0.00254 0.0
C479 C 0.54568 0.63964 0.03328 0.0
C480 C 0.54444 0.65271 0.00734 0.0
C481 C 0.53926 0.63982 0.97952 0.0
C482 C 0.5375 0.61509 0.97772 0.0
C483 C 0.54978 0.65229 0.06353 0.0
C484 C 0.53915 0.65356 0.95119 0.0
H485 H 0.52875 0.72283 0.01998 0.0
H486 H 0.60898 0.74128 0.01433 0.0
H487 H 0.49936 0.65479 0.99479 0.0
H488 H 0.50024 0.65964 0.03404 0.0
H489 H 0.49327 0.67989 0.00981 0.0
H490 H 0.62062 0.70949 0.00128 0.0
H491 H 0.60086 0.68079 0.02362 0.0
H492 H 0.59591 0.67908 0.9843 0.0
H493 H 0.55013 0.60729 0.04954 0.0
H494 H 0.53574 0.60615 0.95606 0.0
H495 H 0.53736 0.66152 0.0662 0.0
H496 H 0.57057 0.66813 0.06599 0.0
H497 H 0.54516 0.63769 0.08158 0.0
H498 H 0.52576 0.6617 0.95309 0.0
H499 H 0.53316 0.64012 0.93163 0.0
H500 H 0.55915 0.67047 0.94711 0.0
C501 C 0.83552 0.2841 0.0115 0.0
C502 C 0.842 0.26781 0.99488 0.0
C503 C 0.85447 0.31058 0.01758 0.0
C504 C 0.88004 0.32121 0.00565 0.0
C505 C 0.88658 0.30489 0.98881 0.0
C506 C 0.86791 0.27826 0.98478 0.0
C507 C 0.84728 0.32709 0.03699 0.0
C508 C 0.9136 0.31532 0.97563 0.0
C509 C 0.93161 0.39457 0.00418 0.0
C510 C 0.94751 0.39585 0.02804 0.0
C511 C 0.9085 0.37059 0.99729 0.0
C512 C 0.90143 0.34777 0.01474 0.0
C513 C 0.91692 0.34938 0.0394 0.0
C514 C 0.93955 0.3732 0.04567 0.0
C515 C 0.8922 0.36933 0.97082 0.0
C516 C 0.91029 0.32559 0.05859 0.0
H517 H 0.81561 0.27639 0.01931 0.0
H518 H 0.87357 0.26569 0.97299 0.0
H519 H 0.86053 0.33453 0.05657 0.0
H520 H 0.84993 0.34461 0.02452 0.0
H521 H 0.82669 0.31577 0.04493 0.0
H522 H 0.91422 0.30123 0.95948 0.0
H523 H 0.92 0.33439 0.96419 0.0
H524 H 0.92799 0.31903 0.99358 0.0
H525 H 0.93745 0.41194 0.99065 0.0
H526 H 0.95126 0.37373 0.06453 0.0
H527 H 0.87135 0.36085 0.97736 0.0
H528 H 0.89296 0.35603 0.95369 0.0
H529 H 0.89916 0.38911 0.96085 0.0
H530 H 0.88982 0.31659 0.06672 0.0
H531 H 0.9236 0.33067 0.07806 0.0
H532 H 0.91173 0.31032 0.04534 0.0
C533 C 0.72941 0.58908 0.9977 0.0
C534 C 0.73992 0.57278 0.00469 0.0
C535 C 0.70297 0.58086 0.00291 0.0
C536 C 0.68705 0.55681 0.018 0.0
C537 C 0.69828 0.54189 0.02857 0.0
C538 C 0.72433 0.5496 0.02107 0.0
C539 C 0.69171 0.59714 0.99044 0.0
C540 C 0.68239 0.51699 0.04633 0.0
C541 C 0.62236 0.55219 0.03726 0.0
C542 C 0.60755 0.53884 0.01217 0.0
C543 C 0.64773 0.55597 0.04128 0.0
C544 C 0.65825 0.54631 0.01954 0.0
C545 C 0.64212 0.53045 0.99585 0.0
C546 C 0.61697 0.52706 0.9924 0.0
C547 C 0.66404 0.57232 0.06727 0.0
C548 C 0.65238 0.51969 0.97211 0.0
H549 H 0.74144 0.60781 0.98671 0.0
H550 H 0.73185 0.53665 0.02691 0.0
H551 H 0.67509 0.58482 0.97525 0.0
H552 H 0.68396 0.60409 0.00862 0.0
H553 H 0.70649 0.61465 0.97793 0.0
H554 H 0.69516 0.51105 0.05827 0.0
H555 H 0.66986 0.5197 0.06273 0.0
H556 H 0.66924 0.50057 0.03127 0.0
H557 H 0.61505 0.56152 0.05233 0.0
H558 H 0.60538 0.51687 0.97292 0.0
H559 H 0.67781 0.59276 0.05979 0.0
H560 H 0.67592 0.56406 0.0765 0.0
H561 H 0.65161 0.57338 0.08515 0.0
H562 H 0.66615 0.53615 0.95763 0.0
H563 H 0.6363 0.50456 0.95803 0.0
H564 H 0.66333 0.51071 0.98202 0.0
C565 C 0.46025 0.17925 0.01612 0.0
C566 C 0.44018 0.17402 0.99555 0.0
C567 C 0.46705 0.15984 0.02282 0.0
C568 C 0.45474 0.13545 0.00717 0.0
C569 C 0.43495 0.13035 0.98613 0.0
C570 C 0.42696 0.1489 0.98199 0.0
C571 C 0.48691 0.16515 0.04698 0.0
C572 C 0.4212 0.10468 0.96878 0.0
C573 C 0.47631 0.08383 0.00583 0.0
C574 C 0.45728 0.06457 0.02432 0.0
C575 C 0.477 0.1081 0.00126 0.0
C576 C 0.45856 0.11312 0.01593 0.0
C577 C 0.44014 0.09417 0.03548 0.0
C578 C 0.43942 0.07016 0.03894 0.0
C579 C 0.49669 0.12793 0.97998 0.0
C580 C 0.42032 0.09872 0.05199 0.0
H581 H 0.47066 0.19835 0.02701 0.0
H582 H 0.41016 0.14344 0.96776 0.0
H583 H 0.47841 0.1492 0.06382 0.0
H584 H 0.50428 0.16517 0.03745 0.0
H585 H 0.4935 0.18441 0.05831 0.0
H586 H 0.41006 0.10596 0.94952 0.0
H587 H 0.43555 0.09913 0.96045 0.0
H588 H 0.40719 0.08854 0.98341 0.0
H589 H 0.49035 0.07987 0.99478 0.0
H590 H 0.42454 0.0557 0.05347 0.0
H591 H 0.50781 0.14758 0.99087 0.0
H592 H 0.48625 0.13015 0.96064 0.0
H593 H 0.51079 0.12194 0.97186 0.0
H594 H 0.43038 0.11796 0.06389 0.0
H595 H 0.40885 0.08288 0.06835 0.0
H596 H 0.40629 0.09947 0.03609 0.0
C597 C 0.68346 0.16162 0.98259 0.0
C598 C 0.70433 0.163 -0.00105 0.0
C599 C 0.6574 0.14376 0.98998 0.0
C600 C 0.65195 0.12665 0.01445 0.0
C601 C 0.67294 0.12897 0.03225 0.0
C602 C 0.69906 0.14716 0.02421 0.0
C603 C 0.63581 0.14179 0.97001 0.0
C604 C 0.6679 0.11118 0.05859 0.0
C605 C 0.57834 0.08478 0.02838 0.0
C606 C 0.5722 0.06299 0.01003 0.0
C607 C 0.60471 0.10511 0.03208 0.0
C608 C 0.62504 0.10338 0.01711 0.0
C609 C 0.61889 0.08053 0.00029 0.0
C610 C 0.59274 0.06076 0.9971 0.0
C611 C 0.61078 0.12894 0.05085 0.0
C612 C 0.63971 0.07766 0.98376 0.0
H613 H 0.68756 0.17395 0.96312 0.0
H614 H 0.71519 0.1482 0.03697 0.0
H615 H 0.62693 0.12283 0.95751 0.0
H616 H 0.62005 0.14191 0.98334 0.0
H617 H 0.64315 0.15824 0.95378 0.0
H618 H 0.68538 0.11874 0.07333 0.0
H619 H 0.65102 0.10911 0.07169 0.0
H620 H 0.66284 0.09114 0.05076 0.0
H621 H 0.56264 0.08639 0.03888 0.0
H622 H 0.58837 0.0436 0.98364 0.0
H623 H 0.61759 0.14656 0.03648 0.0
H624 H 0.62693 0.13318 0.06665 0.0
H625 H 0.59339 0.12612 0.06352 0.0
H626 H 0.64793 0.09255 0.96578 0.0
H627 H 0.63185 0.05771 0.97366 0.0
H628 H 0.65609 0.0813 -0.00115 0.0
C629 C 0.8499 0.53491 0.02591 0.0
C630 C 0.85106 0.54519 0.99756 0.0
C631 C 0.8682 0.52732 0.03453 0.0
C632 C 0.88829 0.5309 0.01456 0.0
C633 C 0.89036 0.54291 0.98667 0.0
C634 C 0.87144 0.54948 0.97838 0.0
C635 C 0.86537 0.51441 0.06429 0.0
C636 C 0.91191 0.54786 0.96498 0.0
C637 C 0.95085 0.531 0.0331 0.0
C638 C 0.94608 0.50745 0.01945 0.0
C639 C 0.93125 0.53793 0.03433 0.0
C640 C 0.90641 0.52081 0.02145 0.0
C641 C 0.90089 0.49587 0.00999 0.0
C642 C 0.92096 0.48954 0.00893 0.0
C643 C 0.93814 0.56482 0.04632 0.0
C644 C 0.87461 0.47705 0.99616 0.0
H645 H 0.834 0.53158 0.04066 0.0
H646 H 0.87236 0.55771 0.95656 0.0
H647 H 0.86098 0.49374 0.06099 0.0
H648 H 0.88406 0.52491 0.07693 0.0
H649 H 0.84946 0.51415 0.0778 0.0
H650 H 0.91234 0.55995 0.94577 0.0
H651 H 0.93135 0.55817 0.97614 0.0
H652 H 0.90894 0.5287 0.95645 0.0
H653 H 0.97056 0.54498 0.04068 0.0
H654 H 0.91759 0.47158 0.99785 0.0
H655 H 0.92196 0.56362 0.06005 0.0
H656 H 0.94113 0.57827 0.02751 0.0
H657 H 0.95641 0.57369 0.05986 0.0
H658 H 0.85842 0.47498 0.01058 0.0
H659 H 0.87219 0.45716 0.99219 0.0
H660 H 0.87274 0.48507 0.97456 0.0
C661 C 0.49367 0.32766 0.98494 0.0
C662 C 0.46978 0.30994 0.99819 0.0
C663 C 0.50464 0.35492 0.98841 0.0
C664 C 0.49108 0.3647 0.00517 0.0
C665 C 0.46743 0.34688 0.01993 0.0
C666 C 0.45699 0.31944 0.01632 0.0
C667 C 0.53007 0.37321 0.97287 0.0
C668 C 0.45264 0.35684 0.03825 0.0
C669 C 0.52299 0.43522 0.03246 0.0
C670 C 0.51075 0.44524 0.0142 0.0
C671 C 0.518 0.40932 0.02881 0.0
C672 C 0.50083 0.39351 0.0059 0.0
C673 C 0.49125 0.40482 0.98502 0.0
C674 C 0.49624 0.43071 0.98956 0.0
C675 C 0.52862 0.39812 0.05157 0.0
C676 C 0.47354 0.38874 0.95971 0.0
H677 H 0.50344 0.32009 0.97095 0.0
H678 H 0.4383 0.30564 0.02625 0.0
H679 H 0.52636 0.38405 0.95508 0.0
H680 H 0.54428 0.38814 0.98865 0.0
H681 H 0.53917 0.36235 0.96278 0.0
H682 H 0.43585 0.34063 0.05026 0.0
H683 H 0.46598 0.37177 0.05466 0.0
H684 H 0.44503 0.36675 0.02359 0.0
H685 H 0.53389 0.44652 0.05181 0.0
H686 H 0.48644 0.43842 0.97583 0.0
H687 H 0.53514 0.3852 0.04102 0.0
H688 H 0.51282 0.38585 0.06751 0.0
H689 H 0.54533 0.41399 0.06425 0.0
H690 H 0.48158 0.37752 0.9482 0.0
H691 H 0.47088 0.40135 0.94326 0.0
H692 H 0.45399 0.37416 0.96858 0.0
C693 C 0.17764 0.68226 0.03955 0.0
C694 C 0.17238 0.7015 0.02853 0.0
C695 C 0.15972 0.65529 0.03562 0.0
C696 C 0.13558 0.64745 0.02114 0.0
C697 C 0.13026 0.66687 0.00952 0.0
C698 C 0.14893 0.69381 0.01313 0.0
C699 C 0.16647 0.63521 0.04728 0.0
C700 C 0.10457 0.65919 0.99412 0.0
C701 C 0.09367 0.57851 0.98976 0.0
C702 C 0.07291 0.56764 0.01005 0.0
C703 C 0.11489 0.60417 0.99363 0.0
C704 C 0.11557 0.61894 0.01887 0.0
C705 C 0.09596 0.60699 0.04096 0.0
C706 C 0.07468 0.58136 0.03621 0.0
C707 C 0.13487 0.61632 0.96911 0.0
C708 C 0.09636 0.62211 0.06837 0.0
H709 H 0.1959 0.68838 0.05135 0.0
H710 H 0.14478 0.70879 0.00491 0.0
H711 H 0.15223 0.62305 0.06467 0.0
H712 H 0.16497 0.62159 0.02916 0.0
H713 H 0.18659 0.64463 0.05681 0.0
H714 H 0.10399 0.67659 0.98514 0.0
H715 H 0.10117 0.64521 0.97564 0.0
H716 H 0.08812 0.64885 0.00998 0.0
H717 H 0.0918 0.5681 0.96909 0.0
H718 H 0.0582 0.57325 0.05136 0.0
H719 H 0.15504 0.62804 0.97825 0.0
H720 H 0.13077 0.62999 0.95613 0.0
H721 H 0.13417 0.60109 0.95368 0.0
H722 H 0.11436 0.62759 0.08151 0.0
H723 H 0.07892 0.61055 0.08258 0.0
H724 H 0.09693 0.64075 0.06205 0.0
C725 C 0.32042 0.43802 0.00779 0.0
C726 C 0.3076 0.45244 0.01235 0.0
C727 C 0.34747 0.45087 0.00201 0.0
C728 C 0.36215 0.4789 0.00147 0.0
C729 C 0.34893 0.49349 0.004 0.0
C730 C 0.32175 0.48007 0.00934 0.0
C731 C 0.36063 0.43448 0.99872 0.0
C732 C 0.36378 0.52333 0.003 0.0
C733 C 0.42848 0.50372 0.03696 0.0
C734 C 0.44452 0.50721 0.0124 0.0
C735 C 0.40202 0.49606 0.03349 0.0
C736 C 0.39126 0.49241 0.00461 0.0
C737 C 0.40796 0.49867 0.97959 0.0
C738 C 0.43451 0.50583 0.98377 0.0
C739 C 0.38516 0.48974 0.06091 0.0
C740 C 0.39752 0.49608 0.94844 0.0
H741 H 0.30941 0.41664 0.00961 0.0
H742 H 0.31188 0.49136 0.01257 0.0
H743 H 0.37412 0.44132 0.97946 0.0
H744 H 0.37254 0.43687 0.01885 0.0
H745 H 0.34619 0.41312 0.9957 0.0
H746 H 0.3504 0.53157 0.00133 0.0
H747 H 0.37581 0.53131 0.02344 0.0
H748 H 0.37743 0.53037 0.98387 0.0
H749 H 0.43626 0.50543 0.05921 0.0
H750 H 0.44685 0.50872 0.96468 0.0
H751 H 0.37077 0.46822 0.06149 0.0
H752 H 0.37389 0.50031 0.06045 0.0
H753 H 0.39692 0.49519 0.08172 0.0
H754 H 0.38862 0.47519 0.94107 0.0
H755 H 0.41346 0.50854 0.9327 0.0
H756 H 0.38211 0.50173 0.94734 0.0
C757 C 0.56964 0.88162 0.01238 0.0
C758 C 0.5573 0.85514 0.02101 0.0
C759 C 0.55527 0.89469 0.00925 0.0
C760 C 0.52814 0.88117 0.01622 0.0
C761 C 0.51544 0.85417 0.02419 0.0
C762 C 0.53016 0.84132 0.02615 0.0
C763 C 0.56922 0.92307 -0.00119 0.0
C764 C 0.48652 0.83914 0.03137 0.0
C765 C 0.51144 0.93357 0.03621 0.0
C766 C 0.50259 0.93695 0.00874 0.0
C767 C 0.51656 0.91272 0.04032 0.0
C768 C 0.5137 0.89596 0.01599 0.0
C769 C 0.50159 0.89745 0.98952 0.0
C770 C 0.49546 0.91756 0.98663 0.0
C771 C 0.5281 0.9107 0.06942 0.0
C772 C 0.49885 0.8809 0.96246 0.0
H773 H 0.59056 0.8921 0.008 0.0
H774 H 0.52061 0.82074 0.03276 0.0
H775 H 0.55833 0.92543 0.98004 0.0
H776 H 0.56996 0.93623 0.01704 0.0
H777 H 0.58963 0.92976 0.99151 0.0
H778 H 0.47952 0.8181 0.03682 0.0
H779 H 0.48256 0.84863 0.05051 0.0
H780 H 0.4749 0.83982 0.01233 0.0
H781 H 0.51705 0.94866 0.05321 0.0
H782 H 0.48865 0.92042 0.96528 0.0
H783 H 0.54967 0.91964 0.06709 0.0
H784 H 0.51996 0.88967 0.07576 0.0
H785 H 0.52422 0.92123 0.08753 0.0
H786 H 0.51697 0.89147 0.94896 0.0
H787 H 0.48208 0.87798 0.94837 0.0
H788 H 0.4962 0.8613 0.96828 0.0
C789 C 0.96853 0.16444 0.36977 0.0
C790 C 0.94799 0.16078 0.35102 0.0
C791 C 0.99441 0.18418 0.36404 0.0
C792 C -0.00026 0.20087 0.33914 0.0
C793 C 0.97941 0.19539 0.31849 0.0
C794 C 0.95363 0.17529 0.3247 0.0
C795 C 0.0154 0.18914 0.3866 0.0
C796 C 0.98432 0.21247 0.29151 0.0
C797 C 0.0474 0.27197 0.35881 0.0
C798 C 0.07139 0.27561 0.34798 0.0
C799 C 0.02397 0.24814 0.35486 0.0
C800 C 0.02415 0.22719 0.33924 0.0
C801 C 0.0479 0.23104 0.32667 0.0
C802 C 0.07138 0.25525 0.33132 0.0
C803 C -0.00083 0.24508 0.36872 0.0
C804 C 0.04871 0.20932 0.30936 0.0
H805 H 0.96406 0.15296 0.38999 0.0
H806 H 0.93765 0.17233 0.31019 0.0
H807 H 0.03402 0.19373 0.37553 0.0
H808 H 0.01932 0.20647 0.40052 0.0
H809 H 0.00937 0.17187 0.40142 0.0
H810 H 0.96803 0.20294 0.27513 0.0
H811 H 0.98621 0.23162 0.29839 0.0
H812 H 0.00296 0.21685 0.28061 0.0
H813 H 0.04689 0.28764 0.3712 0.0
H814 H 0.08973 0.25793 0.32264 0.0
H815 H 0.99197 0.22949 0.38598 0.0
H816 H 0.98349 0.23884 0.35173 0.0
H817 H 0.00226 0.26368 0.37921 0.0
H818 H 0.0473 0.19396 0.3249 0.0
H819 H 0.06718 0.21686 0.29653 0.0
H820 H 0.03178 0.19963 0.29385 0.0
C821 C 0.85223 0.80458 0.34237 0.0
C822 C 0.84556 0.77798 0.34334 0.0
C823 C 0.8328 0.81157 0.33796 0.0
C824 C 0.80624 0.79141 0.33448 0.0
C825 C 0.8 0.76466 0.33231 0.0
C826 C 0.81976 0.75827 0.33694 0.0
C827 C 0.84033 0.84029 0.34046 0.0
C828 C 0.77202 0.74251 0.32856 0.0
C829 C 0.75393 0.79946 0.37395 0.0
C830 C 0.74057 0.80334 0.35042 0.0
C831 C 0.77574 0.79643 0.36898 0.0
C832 C 0.78473 0.79744 0.33963 0.0
C833 C 0.77215 0.80254 0.31578 0.0
C834 C 0.75018 0.80553 0.32146 0.0
C835 C 0.78845 0.791 0.39518 0.0
C836 C 0.78139 0.804 0.28429 0.0
H837 H 0.87214 0.81976 0.34779 0.0
H838 H 0.81465 0.73768 0.33801 0.0
H839 H 0.82928 0.84523 0.32418 0.0
H840 H 0.83534 0.84414 0.36298 0.0
H841 H 0.8617 0.85363 0.33695 0.0
H842 H 0.77095 0.72348 0.32278 0.0
H843 H 0.76121 0.73981 0.34962 0.0
H844 H 0.76185 0.74736 0.31105 0.0
H845 H 0.74687 0.79805 0.39646 0.0
H846 H 0.73997 0.80853 0.30318 0.0
H847 H 0.8098 0.80548 0.39582 0.0
H848 H 0.78616 0.77101 0.39292 0.0
H849 H 0.77976 0.79198 0.41668 0.0
H850 H 0.8023 0.81965 0.28249 0.0
H851 H 0.76964 0.80826 0.26823 0.0
H852 H 0.78016 0.78502 0.27797 0.0
C853 C 0.21923 0.05796 0.33337 0.0
C854 C 0.24199 0.07506 0.34944 0.0
C855 C 0.21325 0.0319 0.32685 0.0
C856 C 0.22933 0.02238 0.33864 0.0
C857 C 0.25253 0.03981 0.35422 0.0
C858 C 0.25946 0.06626 0.35736 0.0
C859 C 0.18963 0.01454 0.30782 0.0
C860 C 0.26999 0.03055 0.36805 0.0
C861 C 0.20974 0.94991 0.34676 0.0
C862 C 0.22513 0.9478 0.32444 0.0
C863 C 0.20938 0.97373 0.35069 0.0
C864 C 0.22448 0.99548 0.33163 0.0
C865 C 0.23874 0.99277 0.30814 0.0
C866 C 0.23901 0.96922 0.305 0.0
C867 C 0.19401 0.97615 0.37603 0.0
C868 C 0.25499 0.0153 0.28713 0.0
H869 H 0.20572 0.06454 0.32676 0.0
H870 H 0.27791 0.0797 0.36819 0.0
H871 H 0.19472 0.00421 0.29062 0.0
H872 H 0.17395 -0.0008 0.3218 0.0
H873 H 0.18174 0.02606 0.29666 0.0
H874 H 0.2844 0.04533 0.3839 0.0
H875 H 0.25802 0.01169 0.3801 0.0
H876 H 0.28099 0.02691 0.35049 0.0
H877 H 0.19873 0.9334 0.36158 0.0
H878 H 0.25063 0.96792 0.28715 0.0
H879 H 0.18098 0.98341 0.36781 0.0
H880 H 0.20774 0.99089 0.39235 0.0
H881 H 0.18187 0.95701 0.38755 0.0
H882 H 0.2436 0.02458 0.27927 0.0
H883 H 0.2617 0.00873 0.26752 0.0
H884 H 0.27264 0.03078 0.29887 0.0
C885 C 0.51388 0.62811 0.29364 0.0
C886 C 0.50398 0.6116 0.31852 0.0
C887 C 0.53405 0.65434 0.29641 0.0
C888 C 0.54411 0.66462 0.32487 0.0
C889 C 0.53236 0.64889 0.35039 0.0
C890 C 0.51244 0.62237 0.3469 0.0
C891 C 0.5462 0.67015 0.26861 0.0
C892 C 0.54221 0.65941 0.3812 0.0
C893 C 0.61716 0.71111 0.33069 0.0
C894 C 0.61865 0.73533 0.33719 0.0
C895 C 0.593 0.68811 0.32641 0.0
C896 C 0.56971 0.68953 0.3274 0.0
C897 C 0.5712 0.71438 0.33101 0.0
C898 C 0.5958 0.73715 0.33609 0.0
C899 C 0.59237 0.662 0.32298 0.0
C900 C 0.54673 0.7166 0.33122 0.0
H901 H 0.50669 0.62008 0.27167 0.0
H902 H 0.50457 0.60976 0.36618 0.0
H903 H 0.54993 0.69065 0.2711 0.0
H904 H 0.56539 0.67136 0.26465 0.0
H905 H 0.5336 0.66096 0.24876 0.0
H906 H 0.52878 0.64614 0.39864 0.0
H907 H 0.56181 0.6614 0.38456 0.0
H908 H 0.54449 0.67934 0.38402 0.0
H909 H 0.63487 0.70971 0.33162 0.0
H910 H 0.59688 0.75579 0.34139 0.0
H911 H 0.58141 0.65159 0.30261 0.0
H912 H 0.58198 0.64904 0.34212 0.0
H913 H 0.61234 0.66449 0.32183 0.0
H914 H 0.53546 0.70825 0.31038 0.0
H915 H 0.55125 0.73741 0.33359 0.0
H916 H 0.53385 0.70486 0.3498 0.0
C917 C 0.39217 0.88152 0.35248 0.0
C918 C 0.4102 0.90781 0.34516 0.0
C919 C 0.36566 0.87347 0.35761 0.0
C920 C 0.35712 0.89216 0.35513 0.0
C921 C 0.37581 0.91923 0.35093 0.0
C922 C 0.40217 0.92674 0.34613 0.0
C923 C 0.34645 0.84453 0.36256 0.0
C924 C 0.36762 0.93988 0.34835 0.0
C925 C 0.29307 0.87261 0.31605 0.0
C926 C 0.27744 0.87304 0.33923 0.0
C927 C 0.31856 0.87755 0.32131 0.0
C928 C 0.32879 0.88306 0.35058 0.0
C929 C 0.31261 0.88199 0.37441 0.0
C930 C 0.28696 0.87685 0.36846 0.0
C931 C 0.33504 0.87839 0.29518 0.0
C932 C 0.32278 0.88739 0.4059 0.0
H933 H 0.39824 0.86678 0.35182 0.0
H934 H 0.41621 0.9472 0.34108 0.0
H935 H 0.33137 0.84187 0.37908 0.0
H936 H 0.33615 0.83541 0.3414 0.0
H937 H 0.35648 0.83376 0.37024 0.0
H938 H 0.38472 0.96031 0.34886 0.0
H939 H 0.35693 0.93705 0.3271 0.0
H940 H 0.35407 0.93779 0.36657 0.0
H941 H 0.28566 0.86935 0.29346 0.0
H942 H 0.2749 0.87717 0.38645 0.0
H943 H 0.34344 0.86538 0.29919 0.0
H944 H 0.35169 0.89883 0.29231 0.0
H945 H 0.3236 0.8721 0.27414 0.0
H946 H 0.32993 0.87371 0.41211 0.0
H947 H 0.30752 0.88512 0.42202 0.0
H948 H 0.33972 0.90779 0.40778 0.0
C949 C 0.11044 0.49628 0.35078 0.0
C950 C 0.11718 0.51167 0.32509 0.0
C951 C 0.11626 0.47573 0.35336 0.0
C952 C 0.12932 0.47085 0.3298 0.0
C953 C 0.13696 0.48706 0.30437 0.0
C954 C 0.13081 0.50726 0.30235 0.0
C955 C 0.10756 0.45862 0.38074 0.0
C956 C 0.15071 0.48242 0.27876 0.0
C957 C 0.15842 0.42794 0.35075 0.0
C958 C 0.13801 0.40288 0.34258 0.0
C959 C 0.15669 0.45067 0.34497 0.0
C960 C 0.13384 0.44798 0.33113 0.0
C961 C 0.11437 0.42293 0.32033 0.0
C962 C 0.11687 0.4007 0.32598 0.0
C963 C 0.17813 0.47714 0.35615 0.0
C964 C 0.08955 0.41905 0.30571 0.0
H965 H 0.0997 0.4996 0.3682 0.0
H966 H 0.13607 0.51929 0.2825 0.0
H967 H 0.09334 0.43786 0.37445 0.0
H968 H 0.12462 0.45867 0.39134 0.0
H969 H 0.09817 0.46538 0.3973 0.0
H970 H 0.1571 0.49806 0.2616 0.0
H971 H 0.16813 0.48164 0.28684 0.0
H972 H 0.13729 0.46306 0.26818 0.0
H973 H 0.17439 0.42951 0.36434 0.0
H974 H 0.10072 0.38117 0.32047 0.0
H975 H 0.17098 0.48317 0.37579 0.0
H976 H 0.18344 0.49254 0.33894 0.0
H977 H 0.19604 0.47653 0.36266 0.0
H978 H 0.07677 0.42056 0.32278 0.0
H979 H 0.07838 0.39938 0.29475 0.0
H980 H 0.094 0.4346 0.28897 0.0
C981 C 0.36335 0.46143 0.35369 0.0
C982 C 0.37643 0.48836 0.34673 0.0
C983 C 0.33624 0.44761 0.35886 0.0
C984 C 0.32179 0.461 0.35655 0.0
C985 C 0.33517 0.48859 0.35129 0.0
C986 C 0.36243 0.50201 0.34646 0.0
C987 C 0.32281 0.41823 0.3647 0.0
C988 C 0.32047 0.50357 0.34913 0.0
C989 C 0.25556 0.41472 0.32377 0.0
C990 C 0.24051 0.40364 0.34925 0.0
C991 C 0.2816 0.43509 0.32576 0.0
C992 C 0.2927 0.44509 0.35404 0.0
C993 C 0.27658 0.43614 0.37966 0.0
C994 C 0.25053 0.41505 0.37703 0.0
C995 C 0.2979 0.44365 0.29781 0.0
C996 C 0.28737 0.44717 0.41002 0.0
H997 H 0.37424 0.45096 0.35418 0.0
H998 H 0.37251 0.5229 0.34122 0.0
H999 H 0.30983 0.41309 0.38432 0.0
H1000 H 0.31032 0.40726 0.34537 0.0
H1001 H 0.33708 0.41134 0.36861 0.0
H1002 H 0.33395 0.5253 0.34817 0.0
H1003 H 0.30803 0.49732 0.32887 0.0
H1004 H 0.30721 0.49895 0.36842 0.0
H1005 H 0.24756 0.40581 0.3023 0.0
H1006 H 0.23879 0.4064 0.39673 0.0
H1007 H 0.31209 0.43637 0.29828 0.0
H1008 H 0.30935 0.46552 0.29634 0.0
H1009 H 0.28567 0.4358 0.27745 0.0
H1010 H 0.29745 0.43695 0.41914 0.0
H1011 H 0.27145 0.44405 0.42558 0.0
H1012 H 0.30191 0.46862 0.40897 0.0
C1013 C 0.54486 0.88816 0.31427 0.0
C1014 C 0.52441 0.88521 0.33262 0.0
C1015 C 0.56286 0.8807 0.32389 0.0
C1016 C 0.55981 0.86917 0.35229 0.0
C1017 C 0.5393 0.8664 0.37109 0.0
C1018 C 0.52194 0.87477 0.36114 0.0
C1019 C 0.58502 0.88501 0.30349 0.0
C1020 C 0.53546 0.85417 0.40143 0.0
C1021 C 0.59418 0.82889 0.35687 0.0
C1022 C 0.61825 0.84739 0.36956 0.0
C1023 C 0.57402 0.83498 0.35314 0.0
C1024 C 0.57825 0.86016 0.36201 0.0
C1025 C 0.60168 0.87794 0.37707 0.0
C1026 C 0.62113 0.87109 0.38117 0.0
C1027 C 0.54909 0.81536 0.33741 0.0
C1028 C 0.60753 0.90535 0.38594 0.0
H1029 H 0.54684 0.89647 0.29229 0.0
H1030 H 0.50607 0.87247 0.37532 0.0
H1031 H 0.60411 0.89565 0.31537 0.0
H1032 H 0.58232 0.86564 0.2962 0.0
H1033 H 0.58605 0.89655 0.28346 0.0
H1034 H 0.51832 0.85301 0.41316 0.0
H1035 H 0.53258 0.83394 0.39937 0.0
H1036 H 0.55326 0.86589 0.41524 0.0
H1037 H 0.59189 0.81069 0.3476 0.0
H1038 H 0.63976 0.88549 0.39098 0.0
H1039 H 0.5489 0.82251 0.31467 0.0
H1040 H 0.5317 0.81349 0.34922 0.0
H1041 H 0.54723 0.79551 0.33565 0.0
H1042 H 0.61154 0.91759 0.36571 0.0
H1043 H 0.6249 0.91536 0.40084 0.0
H1044 H 0.59046 0.90467 0.39718 0.0
C1045 C 0.13354 0.65976 0.36603 0.0
C1046 C 0.12924 0.64306 0.34187 0.0
C1047 C 0.14762 0.68734 0.36259 0.0
C1048 C 0.15729 0.69828 0.33414 0.0
C1049 C 0.15426 0.68132 0.31009 0.0
C1050 C 0.14007 0.65378 0.31422 0.0
C1051 C 0.15058 0.70464 0.38899 0.0
C1052 C 0.16498 0.69224 0.27977 0.0
C1053 C 0.15545 0.76143 0.32528 0.0
C1054 C 0.17953 0.77959 0.33808 0.0
C1055 C 0.14853 0.73489 0.3216 0.0
C1056 C 0.16693 0.72689 0.32907 0.0
C1057 C 0.19295 0.74628 0.33678 0.0
C1058 C 0.19884 0.77249 0.34181 0.0
C1059 C 0.12033 0.71496 0.31415 0.0
C1060 C 0.21364 0.73895 0.34333 0.0
H1061 H 0.12506 0.65123 0.38736 0.0
H1062 H 0.13657 0.64061 0.29558 0.0
H1063 H 0.17137 0.72032 0.39181 0.0
H1064 H 0.13891 0.71455 0.38526 0.0
H1065 H 0.14389 0.69317 0.40993 0.0
H1066 H 0.1635 0.67668 0.26431 0.0
H1067 H 0.15398 0.70128 0.27006 0.0
H1068 H 0.18585 0.70807 0.28157 0.0
H1069 H 0.14046 0.76695 0.3228 0.0
H1070 H 0.21744 0.78649 0.35198 0.0
H1071 H 0.11042 0.70342 0.33433 0.0
H1072 H 0.11925 0.70079 0.29702 0.0
H1073 H 0.10928 0.72457 0.30608 0.0
H1074 H 0.21229 0.73306 0.36694 0.0
H1075 H 0.23365 0.75602 0.33962 0.0
H1076 H 0.21095 0.72207 0.32936 0.0
C1077 C 0.79421 0.02016 0.35486 0.0
C1078 C 0.82078 0.03614 0.34792 0.0
C1079 C 0.78158 0.99262 0.35125 0.0
C1080 C 0.79605 0.98076 0.34087 0.0
C1081 C 0.82321 0.99673 0.33511 0.0
C1082 C 0.83526 0.02432 0.33851 0.0
C1083 C 0.75251 0.97637 0.35758 0.0
C1084 C 0.83932 0.98475 0.32454 0.0
C1085 C 0.75444 0.90653 0.34871 0.0
C1086 C 0.74185 0.90019 0.32106 0.0
C1087 C 0.77478 0.93248 0.35467 0.0
C1088 C 0.78184 0.95223 0.33268 0.0
C1089 C 0.77144 0.94488 0.30364 0.0
C1090 C 0.75225 0.91866 0.29797 0.0
C1091 C 0.78657 0.93926 0.38538 0.0
C1092 C 0.7774 0.96522 0.27974 0.0
H1093 H 0.78313 0.02929 0.36257 0.0
H1094 H 0.85595 0.03657 0.33354 0.0
H1095 H 0.74184 0.96478 0.3376 0.0
H1096 H 0.74902 0.96208 0.37559 0.0
H1097 H 0.74399 0.9888 0.36438 0.0
H1098 H 0.86069 -0.0007 0.32484 0.0
H1099 H 0.83553 0.96763 0.33861 0.0
H1100 H 0.83354 0.97726 0.30152 0.0
H1101 H 0.74657 0.89224 0.36657 0.0
H1102 H 0.74266 0.91356 0.27642 0.0
H1103 H 0.77678 0.94794 0.39852 0.0
H1104 H 0.80782 0.95409 0.38442 0.0
H1105 H 0.78394 0.92142 0.3972 0.0
H1106 H 0.76726 0.97645 0.2851 0.0
H1107 H 0.77056 0.95597 0.25751 0.0
H1108 H 0.7987 0.97963 0.27857 0.0
C1109 C 0.99749 0.82468 0.35854 0.0
C1110 C 0.97835 0.79791 0.35681 0.0
C1111 C 0.02386 0.83324 0.35201 0.0
C1112 C 0.03144 0.81438 0.34483 0.0
C1113 C 0.01183 0.78739 0.34134 0.0
C1114 C 0.98536 0.77949 0.34705 0.0
C1115 C 0.04388 0.86224 0.35514 0.0
C1116 C 0.01905 0.76655 0.33426 0.0
C1117 C 0.10277 0.83592 0.32524 0.0
C1118 C 0.11259 0.8343 0.35307 0.0
C1119 C 0.07643 0.82987 0.322 0.0
C1120 C 0.0597 0.82198 0.34714 0.0
C1121 C 0.06994 0.82127 0.37534 0.0
C1122 C 0.09613 0.82759 0.37793 0.0
C1123 C 0.06632 0.83128 0.29167 0.0
C1124 C 0.05307 0.81318 0.40289 0.0
H1125 H 0.99192 0.83887 0.366 0.0
H1126 H 0.9705 0.75872 0.34598 0.0
H1127 H 0.05541 0.86551 0.37581 0.0
H1128 H 0.05783 0.8689 0.33629 0.0
H1129 H 0.03451 0.87469 0.35613 0.0
H1130 H 0.00161 0.74737 0.32798 0.0
H1131 H 0.0335 0.77311 0.31595 0.0
H1132 H 0.02838 0.76334 0.35405 0.0
H1133 H 0.11533 0.84101 0.30594 0.0
H1134 H 0.10361 0.82669 0.39965 0.0
H1135 H 0.05645 0.84324 0.29257 0.0
H1136 H 0.05148 0.81111 0.2842 0.0
H1137 H 0.08227 0.84 0.27495 0.0
H1138 H 0.04528 0.82676 0.40667 0.0
H1139 H 0.06404 0.81336 0.42308 0.0
H1140 H 0.036 0.79297 0.39993 0.0
C1141 C 0.20744 0.1922 0.38118 0.0
C1142 C 0.22291 0.19277 0.35736 0.0
C1143 C 0.19268 0.20504 0.37944 0.0
C1144 C 0.19423 0.21952 0.35364 0.0
C1145 C 0.20945 0.21953 0.32916 0.0
C1146 C 0.22346 0.2059 0.33127 0.0
C1147 C 0.17607 0.20377 0.40555 0.0
C1148 C 0.21241 0.23535 0.30151 0.0
C1149 C 0.15063 0.24804 0.33346 0.0
C1150 C 0.16607 0.27419 0.34343 0.0
C1151 C 0.15818 0.22907 0.33919 0.0
C1152 C 0.18252 0.23703 0.3535 0.0
C1153 C 0.19698 0.26287 0.36559 0.0
C1154 C 0.18775 0.28064 0.36176 0.0
C1155 C 0.14135 0.20126 0.32759 0.0
C1156 C 0.22381 0.27289 0.37932 0.0
H1157 H 0.20724 0.18205 0.40137 0.0
H1158 H 0.23576 0.20648 0.31306 0.0
H1159 H 0.1847 0.22346 0.41639 0.0
H1160 H 0.15605 0.19841 0.39791 0.0
H1161 H 0.1745 0.18919 0.42238 0.0
H1162 H 0.22257 0.23102 0.28346 0.0
H1163 H 0.193 0.23127 0.29316 0.0
H1164 H 0.22395 0.25677 0.3069 0.0
H1165 H 0.13409 0.24308 0.31888 0.0
H1166 H 0.20004 0.30103 0.36888 0.0
H1167 H 0.14054 0.18665 0.34389 0.0
H1168 H 0.14994 0.19868 0.30684 0.0
H1169 H 0.12103 0.19685 0.32266 0.0
H1170 H 0.22267 0.26027 0.39822 0.0
H1171 H 0.23267 0.29365 0.38731 0.0
H1172 H 0.2372 0.27193 0.36265 0.0
C1173 C 0.62883 0.4945 0.67768 0.0
C1174 C 0.60949 0.5018 0.67854 0.0
C1175 C 0.65528 0.51352 0.67281 0.0
C1176 C 0.66235 0.54031 0.66852 0.0
C1177 C 0.64241 0.5471 0.66622 0.0
C1178 C 0.61622 0.52779 0.67155 0.0
C1179 C 0.67582 0.50536 0.67542 0.0
C1180 C 0.64895 0.5753 0.66114 0.0
C1181 C 0.72263 0.59386 0.70725 0.0
C1182 C 0.73966 0.6069 0.68356 0.0
C1183 C 0.69799 0.57154 0.70259 0.0
C1184 C 0.68999 0.56173 0.67341 0.0
C1185 C 0.70763 0.57379 0.64948 0.0
C1186 C 0.73244 0.59629 0.65486 0.0
C1187 C 0.67996 0.55938 0.72888 0.0
C1188 C 0.69989 0.56353 0.61818 0.0
H1189 H 0.62362 0.47438 0.68311 0.0
H1190 H 0.60115 0.53332 0.67188 0.0
H1191 H 0.69175 0.51595 0.65906 0.0
H1192 H 0.68477 0.51058 0.6979 0.0
H1193 H 0.66724 0.48371 0.67215 0.0
H1194 H 0.63129 0.57657 0.65512 0.0
H1195 H 0.65756 0.58701 0.68173 0.0
H1196 H 0.66372 0.58453 0.64328 0.0
H1197 H 0.72826 0.60169 0.72959 0.0
H1198 H 0.74557 0.60628 0.6365 0.0
H1199 H 0.67272 0.53783 0.72985 0.0
H1200 H 0.66259 0.56196 0.72647 0.0
H1201 H 0.68978 0.56845 0.7503 0.0
H1202 H 0.69504 0.54258 0.61701 0.0
H1203 H 0.71572 0.57519 0.602 0.0
H1204 H 0.68199 0.56406 0.61151 0.0
C1205 C 0.48511 0.09641 0.69342 0.0
C1206 C 0.51196 0.11276 0.68724 0.0
C1207 C 0.46691 0.10444 0.68695 0.0
C1208 C 0.4752 0.12828 0.67129 0.0
C1209 C 0.50157 0.14334 0.66181 0.0
C1210 C 0.51984 0.13578 0.67053 0.0
C1211 C 0.43919 0.08811 0.69852 0.0
C1212 C 0.51076 0.16812 0.64374 0.0
C1213 C 0.41495 0.12976 0.64549 0.0
C1214 C 0.41158 0.14334 0.66911 0.0
C1215 C 0.43737 0.12713 0.64399 0.0
C1216 C 0.45637 0.13793 0.66699 0.0
C1217 C 0.45413 0.15384 0.6893 0.0
C1218 C 0.43168 0.15637 0.69002 0.0
C1219 C 0.43928 0.1104 0.61961 0.0
C1220 C 0.47351 0.16524 0.71468 0.0
H1221 H 0.47839 0.07782 0.70484 0.0
H1222 H 0.54038 0.14855 0.66531 0.0
H1223 H 0.43411 0.10058 0.71251 0.0
H1224 H 0.42505 0.08048 0.67978 0.0
H1225 H 0.4365 0.07103 0.71202 0.0
H1226 H 0.53027 0.17475 0.6336 0.0
H1227 H 0.49641 0.16483 0.62586 0.0
H1228 H 0.5123 0.18425 0.65819 0.0
H1229 H 0.39905 0.11922 0.62974 0.0
H1230 H 0.42863 0.16637 0.70863 0.0
H1231 H 0.43285 0.09028 0.62818 0.0
H1232 H 0.45985 0.11893 0.61193 0.0
H1233 H 0.42658 0.10846 0.60038 0.0
H1234 H 0.4699 0.14916 0.73039 0.0
H1235 H 0.47159 0.1807 0.727 0.0
H1236 H 0.49397 0.17392 0.70667 0.0
C1237 C 0.91421 0.39114 0.6927 0.0
C1238 C 0.89662 0.40079 0.69198 0.0
C1239 C 0.90564 0.36435 0.68789 0.0
C1240 C 0.87896 0.34681 0.68073 0.0
C1241 C 0.86123 0.3565 0.67886 0.0
C1242 C 0.87022 0.38335 0.68477 0.0
C1243 C 0.92532 0.35495 0.69009 0.0
C1244 C 0.83276 0.33841 0.67091 0.0
C1245 C 0.87287 0.29095 0.63357 0.0
C1246 C 0.87057 0.27265 0.6552 0.0
C1247 C 0.87405 0.31464 0.64141 0.0
C1248 C 0.87085 0.31931 0.67146 0.0
C1249 C 0.86431 0.29904 0.69274 0.0
C1250 C 0.86475 0.27593 0.68445 0.0
C1251 C 0.88225 0.33596 0.61815 0.0
C1252 C 0.85954 0.30285 0.72475 0.0
H1253 H 0.93476 0.40453 0.69771 0.0
H1254 H 0.85638 0.39047 0.68464 0.0
H1255 H 0.91796 0.33769 0.70511 0.0
H1256 H 0.92815 0.34849 0.66789 0.0
H1257 H 0.94471 0.37063 0.69853 0.0
H1258 H 0.82144 0.34897 0.67057 0.0
H1259 H 0.83114 0.32938 0.64876 0.0
H1260 H 0.82366 0.32202 0.68715 0.0
H1261 H 0.87697 0.2882 0.61077 0.0
H1262 H 0.86289 0.26181 0.70122 0.0
H1263 H 0.90273 0.35186 0.62263 0.0
H1264 H 0.86965 0.34508 0.61897 0.0
H1265 H 0.88144 0.32829 0.59535 0.0
H1266 H 0.87866 0.3145 0.73634 0.0
H1267 H 0.8482 0.28358 0.73628 0.0
H1268 H 0.84879 0.31392 0.72658 0.0
C1269 C 0.16743 0.9581 0.67497 0.0
C1270 C 0.17612 0.93997 0.67057 0.0
C1271 C 0.18544 0.98531 0.67781 0.0
C1272 C 0.21269 0.9944 0.67649 0.0
C1273 C 0.22149 0.97583 0.67424 0.0
C1274 C 0.20308 0.94887 0.67113 0.0
C1275 C 0.17524 0.00437 0.67991 0.0
C1276 C 0.25037 0.98451 0.67373 0.0
C1277 C 0.26745 0.06064 0.65017 0.0
C1278 C 0.27881 0.07271 0.67727 0.0
C1279 C 0.24367 0.03634 0.64952 0.0
C1280 C 0.2323 0.02322 0.67658 0.0
C1281 C 0.24262 0.0365 0.70382 0.0
C1282 C 0.26504 0.06168 0.70367 0.0
C1283 C 0.23222 0.0235 0.61996 0.0
C1284 C 0.23223 0.02281 0.73319 0.0
H1285 H 0.14657 0.95124 0.67402 0.0
H1286 H 0.20975 0.93479 0.6676 0.0
H1287 H 0.18575 0.01945 0.69741 0.0
H1288 H 0.17879 0.01503 0.65855 0.0
H1289 H 0.15386 0.99411 0.68467 0.0
H1290 H 0.25385 0.96748 0.67452 0.0
H1291 H 0.25938 0.9958 0.65316 0.0
H1292 H 0.26062 0.99781 0.69281 0.0
H1293 H 0.27814 0.06897 0.62977 0.0
H1294 H 0.27416 0.0709 0.72466 0.0
H1295 H 0.21047 0.01373 0.62034 0.0
H1296 H 0.23749 0.00808 0.61523 0.0
H1297 H 0.23978 0.03812 0.60163 0.0
H1298 H 0.21081 0.01506 0.73477 0.0
H1299 H 0.24207 0.03616 0.75241 0.0
H1300 H 0.23541 0.00564 0.73489 0.0
C1301 C 0.06988 0.25075 0.68841 0.0
C1302 C 0.0761 0.23505 0.67056 0.0
C1303 C 0.0436 0.24333 0.69386 0.0
C1304 C 0.02323 0.21989 0.68072 0.0
C1305 C 0.02959 0.20308 0.66439 0.0
C1306 C 0.05605 0.21092 0.65948 0.0
C1307 C 0.03767 0.26186 0.71126 0.0
C1308 C 0.00861 0.17824 0.64949 0.0
C1309 C 0.9527 0.2029 0.69719 0.0
C1310 C 0.94871 0.2167 0.67426 0.0
C1311 C 0.97666 0.20285 0.69929 0.0
C1312 C 0.9966 0.21669 0.67789 0.0
C1313 C 0.99184 0.22929 0.65394 0.0
C1314 C 0.96812 0.22908 0.65247 0.0
C1315 C 0.98101 0.18875 0.72473 0.0
C1316 C 0.01221 0.24405 0.63028 0.0
H1317 H 0.08555 0.26948 0.69679 0.0
H1318 H 0.06107 0.19897 0.64548 0.0
H1319 H 0.03095 0.27208 0.69583 0.0
H1320 H 0.02162 0.25066 0.72732 0.0
H1321 H 0.05517 0.2771 0.7235 0.0
H1322 H 0.01612 0.16488 0.6429 0.0
H1323 H 0.99145 0.16734 0.66428 0.0
H1324 H 0.00166 0.18364 0.62919 0.0
H1325 H 0.93759 0.19296 0.71378 0.0
H1326 H 0.96489 0.23905 0.63405 0.0
H1327 H 0.9961 0.2035 0.73997 0.0
H1328 H 0.98855 0.17589 0.71643 0.0
H1329 H 0.96274 0.17648 0.7375 0.0
H1330 H 0.02925 0.26169 0.64025 0.0
H1331 H 0.00442 0.25077 0.61184 0.0
H1332 H 0.01949 0.23138 0.62078 0.0
C1333 C 0.76567 0.8177 0.6743 0.0
C1334 C 0.78313 0.84284 0.66325 0.0
C1335 C 0.77309 0.79835 0.67641 0.0
C1336 C 0.79824 0.80413 0.66622 0.0
C1337 C 0.81604 0.82973 0.65557 0.0
C1338 C 0.80834 0.8489 0.65453 0.0
C1339 C 0.75379 0.77154 0.68885 0.0
C1340 C 0.84262 0.83643 0.64368 0.0
C1341 C 0.82019 0.75751 0.69484 0.0
C1342 C 0.80768 0.73653 0.67459 0.0
C1343 C 0.8185 0.78048 0.69171 0.0
C1344 C 0.80557 0.78316 0.6666 0.0
C1345 C 0.79663 0.76377 0.64376 0.0
C1346 C 0.79715 0.74023 0.64841 0.0
C1347 C 0.82731 0.79997 0.7172 0.0
C1348 C 0.78402 0.76655 0.61586 0.0
H1349 H 0.74604 0.81306 0.68064 0.0
H1350 H 0.82152 0.86825 0.64534 0.0
H1351 H 0.74745 0.75632 0.67113 0.0
H1352 H 0.76326 0.76601 0.70658 0.0
H1353 H 0.73607 0.77104 0.69814 0.0
H1354 H 0.85502 0.85785 0.63875 0.0
H1355 H 0.85322 0.8307 0.65968 0.0
H1356 H 0.83997 0.82504 0.62294 0.0
H1357 H 0.82781 0.75432 0.71542 0.0
H1358 H 0.78715 0.72387 0.63295 0.0
H1359 H 0.80977 0.79756 0.72917 0.0
H1360 H 0.83827 0.82062 0.7091 0.0
H1361 H 0.83988 0.79688 0.73324 0.0
H1362 H 0.76326 0.7606 0.62045 0.0
H1363 H 0.78427 0.75373 0.59774 0.0
H1364 H 0.79415 0.78737 0.60814 0.0
C1365 C 0.03433 0.81404 0.68847 0.0
C1366 C 0.04024 0.83514 0.66927 0.0
C1367 C 0.00814 0.79636 0.69666 0.0
C1368 C 0.98769 0.8003 0.6858 0.0
C1369 C 0.99406 0.82295 0.66858 0.0
C1370 C 0.02016 0.83978 0.66011 0.0
C1371 C 0.00216 0.77233 0.71485 0.0
C1372 C 0.97303 0.82827 0.65708 0.0
C1373 C 0.92457 0.73999 0.66177 0.0
C1374 C 0.90753 0.73591 0.68548 0.0
C1375 C 0.95061 0.76043 0.66217 0.0
C1376 C 0.95988 0.77829 0.6864 0.0
C1377 C 0.94242 0.77532 0.70979 0.0
C1378 C 0.91636 0.7538 0.70929 0.0
C1379 C 0.96837 0.76233 0.63689 0.0
C1380 C 0.95144 0.79423 0.73574 0.0
H1381 H 0.04987 0.81042 0.69558 0.0
H1382 H 0.0248 0.85628 0.64551 0.0
H1383 H 0.98793 0.7693 0.73263 0.0
H1384 H 0.99301 0.7545 0.70038 0.0
H1385 H 0.02013 0.77399 0.72508 0.0
H1386 H 0.98141 0.84869 0.64838 0.0
H1387 H 0.96204 0.81417 0.63886 0.0
H1388 H 0.9588 0.82525 0.67489 0.0
H1389 H 0.91773 0.72622 0.64322 0.0
H1390 H 0.90333 0.75049 0.72779 0.0
H1391 H 0.9856 0.76153 0.64565 0.0
H1392 H 0.97583 0.78149 0.62529 0.0
H1393 H 0.95821 0.74614 0.62036 0.0
H1394 H 0.96321 0.78939 0.75104 0.0
H1395 H 0.93458 0.79288 0.74832 0.0
H1396 H 0.96411 0.81494 0.72827 0.0
C1397 C 0.21676 0.22568 0.65211 0.0
C1398 C 0.19512 0.22205 0.66866 0.0
C1399 C 0.23254 0.21546 0.66175 0.0
C1400 C 0.22605 0.20055 0.68829 0.0
C1401 C 0.20425 0.19696 0.70525 0.0
C1402 C 0.18911 0.20801 0.69537 0.0
C1403 C 0.25608 0.22059 0.64336 0.0
C1404 C 0.19678 0.18117 0.73357 0.0
C1405 C 0.25754 0.15756 0.68936 0.0
C1406 C 0.28075 0.17395 0.70497 0.0
C1407 C 0.23819 0.16484 0.68595 0.0
C1408 C 0.24247 0.18913 0.69813 0.0
C1409 C 0.26466 0.2043 0.71637 0.0
C1410 C 0.28319 0.19614 0.72013 0.0
C1411 C 0.21452 0.14795 0.66676 0.0
C1412 C 0.27071 0.23087 0.72871 0.0
H1413 H 0.22143 0.23667 0.63151 0.0
H1414 H 0.1723 0.20513 0.70814 0.0
H1415 H 0.27397 0.22894 0.65745 0.0
H1416 H 0.25304 0.20171 0.63385 0.0
H1417 H 0.25964 0.2345 0.62482 0.0
H1418 H 0.17895 0.17969 0.74388 0.0
H1419 H 0.19316 0.16092 0.72898 0.0
H1420 H 0.21318 0.19043 0.74979 0.0
H1421 H 0.25574 0.14069 0.67716 0.0
H1422 H 0.30133 0.20902 0.7319 0.0
H1423 H 0.21682 0.15767 0.64497 0.0
H1424 H 0.19647 0.14576 0.6772 0.0
H1425 H 0.21194 0.12799 0.66278 0.0
H1426 H 0.27709 0.24543 0.71036 0.0
H1427 H 0.28662 0.23841 0.74564 0.0
H1428 H 0.25302 0.22981 0.73877 0.0
C1429 C 0.78814 0.99102 0.69059 0.0
C1430 C 0.79613 0.97593 0.67424 0.0
C1431 C 0.80258 0.01875 0.68978 0.0
C1432 C 0.82483 0.03158 0.67103 0.0
C1433 C 0.83319 0.01634 0.65483 0.0
C1434 C 0.81893 0.98862 0.657 0.0
C1435 C 0.7937 0.03429 0.70857 0.0
C1436 C 0.85662 0.02925 0.63452 0.0
C1437 C 0.83375 0.09836 0.65187 0.0
C1438 C 0.85092 0.11378 0.67452 0.0
C1439 C 0.82725 0.07186 0.64806 0.0
C1440 C 0.83818 0.06083 0.6675 0.0
C1441 C 0.85851 0.07758 0.68729 0.0
C1442 C 0.86493 0.10409 0.69018 0.0
C1443 C 0.80604 0.05484 0.62605 0.0
C1444 C 0.8707 0.06693 0.70869 0.0
H1445 H 0.77061 0.9811 0.7041 0.0
H1446 H 0.82498 0.97683 0.6442 0.0
H1447 H 0.81039 0.04953 0.72179 0.0
H1448 H 0.78658 0.04472 0.69403 0.0
H1449 H 0.77766 0.02144 0.72401 0.0
H1450 H 0.86083 0.01461 0.62382 0.0
H1451 H 0.85307 0.04038 0.61694 0.0
H1452 H 0.87427 0.04371 0.6471 0.0
H1453 H 0.82269 0.10574 0.63997 0.0
H1454 H 0.87803 0.116 0.70796 0.0
H1455 H 0.78719 0.04309 0.63796 0.0
H1456 H 0.81071 0.04076 0.61482 0.0
H1457 H 0.8033 0.06697 0.60899 0.0
H1458 H 0.85812 0.05936 0.72869 0.0
H1459 H 0.8905 0.08268 0.71595 0.0
H1460 H 0.87234 0.05038 0.6989 0.0
C1461 C 0.47096 0.35008 0.70628 0.0
C1462 C 0.49546 0.36512 0.69285 0.0
C1463 C 0.45393 0.32393 0.69743 0.0
C1464 C 0.46227 0.3122 0.67564 0.0
C1465 C 0.4874 0.32716 0.6626 0.0
C1466 C 0.50356 0.35376 0.67093 0.0
C1467 C 0.42683 0.30919 0.71093 0.0
C1468 C 0.49711 0.31504 0.63987 0.0
C1469 C 0.41772 0.23762 0.67335 0.0
C1470 C 0.40099 0.23513 0.64985 0.0
C1471 C 0.4394 0.26249 0.68058 0.0
C1472 C 0.4436 0.28518 0.6646 0.0
C1473 C 0.42786 0.2823 0.6396 0.0
C1474 C 0.40754 0.25718 0.63183 0.0
C1475 C 0.45671 0.26475 0.70647 0.0
C1476 C 0.43031 0.30596 0.62308 0.0
H1477 H 0.46485 0.35906 0.72327 0.0
H1478 H 0.52272 0.36542 0.66089 0.0
H1479 H 0.41164 0.30033 0.69326 0.0
H1480 H 0.4251 0.2928 0.72491 0.0
H1481 H 0.42249 0.32221 0.72495 0.0
H1482 H 0.51794 0.32857 0.63381 0.0
H1483 H 0.49513 0.29636 0.64858 0.0
H1484 H 0.48499 0.30997 0.61943 0.0
H1485 H 0.41303 0.22065 0.68716 0.0
H1486 H 0.3951 0.25535 0.61313 0.0
H1487 H 0.45227 0.27371 0.72573 0.0
H1488 H 0.47769 0.27787 0.70078 0.0
H1489 H 0.45369 0.24514 0.71327 0.0
H1490 H 0.42421 0.31714 0.63791 0.0
H1491 H 0.41781 0.30015 0.60283 0.0
H1492 H 0.45091 0.31961 0.61657 0.0
C1493 C 0.65775 0.14831 0.67972 0.0
C1494 C 0.64378 0.12134 0.68707 0.0
C1495 C 0.68496 0.16111 0.67414 0.0
C1496 C 0.69823 0.14648 0.6758 0.0
C1497 C 0.68372 0.11894 0.68136 0.0
C1498 C 0.65682 0.10685 0.68725 0.0
C1499 C 0.69972 0.19042 0.66795 0.0
C1500 C 0.69687 0.1024 0.68303 0.0
C1501 C 0.76827 0.16761 0.65367 0.0
C1502 C 0.77999 0.17174 0.68175 0.0
C1503 C 0.74197 0.16154 0.65079 0.0
C1504 C 0.72745 0.15997 0.67659 0.0
C1505 C 0.74022 0.16675 0.70456 0.0
C1506 C 0.76622 0.17231 0.7068 0.0
C1507 C 0.72916 0.15462 0.62057 0.0
C1508 C 0.72574 0.16579 0.73261 0.0
H1509 H 0.6477 0.15961 0.67952 0.0
H1510 H 0.646 0.08599 0.69273 0.0
H1511 H 0.71274 0.20112 0.68703 0.0
H1512 H 0.71245 0.19471 0.64822 0.0
H1513 H 0.68629 0.19837 0.66416 0.0
H1514 H 0.6824 0.08087 0.68346 0.0
H1515 H 0.7101 0.10645 0.66382 0.0
H1516 H 0.70901 0.1076 0.70349 0.0
H1517 H 0.77897 0.16721 0.63429 0.0
H1518 H 0.77545 0.17592 0.72849 0.0
H1519 H 0.71701 0.16404 0.61713 0.0
H1520 H 0.7159 0.1329 0.61898 0.0
H1521 H 0.74385 0.16081 0.60248 0.0
H1522 H 0.7148 0.17653 0.72955 0.0
H1523 H 0.73921 0.17452 0.75192 0.0
H1524 H 0.71121 0.14492 0.73786 0.0
C1525 C 0.85266 0.50563 0.68353 0.0
C1526 C 0.87472 0.51634 0.70213 0.0
C1527 C 0.84165 0.52107 0.67453 0.0
C1528 C 0.85383 0.54802 0.68324 0.0
C1529 C 0.87651 0.55891 0.70157 0.0
C1530 C 0.88617 0.54268 0.71145 0.0
C1531 C 0.81695 0.50858 0.65593 0.0
C1532 C 0.89099 0.58781 0.71035 0.0
C1533 C 0.85002 0.59783 0.63369 0.0
C1534 C 0.83835 0.60821 0.65257 0.0
C1535 C 0.8544 0.57758 0.643 0.0
C1536 C 0.84477 0.56569 0.67088 0.0
C1537 C 0.82964 0.57349 0.68825 0.0
C1538 C 0.82701 0.59514 0.67915 0.0
C1539 C 0.8722 0.57142 0.62461 0.0
C1540 C 0.81788 0.56025 0.71738 0.0
H1541 H 0.84359 0.48506 0.67681 0.0
H1542 H 0.90319 0.55078 0.72599 0.0
H1543 H 0.80205 0.51249 0.66612 0.0
H1544 H 0.8211 0.51747 0.63349 0.0
H1545 H 0.80848 0.48687 0.65349 0.0
H1546 H 0.91039 0.59385 0.72061 0.0
H1547 H 0.89413 0.60055 0.69077 0.0
H1548 H 0.87918 0.59167 0.72663 0.0
H1549 H 0.85836 0.60748 0.61275 0.0
H1550 H 0.8178 0.60289 0.69374 0.0
H1551 H 0.863 0.54989 0.62041 0.0
H1552 H 0.89074 0.57765 0.637 0.0
H1553 H 0.87722 0.58177 0.60291 0.0
H1554 H 0.80836 0.53844 0.71502 0.0
H1555 H 0.8032 0.56541 0.72559 0.0
H1556 H 0.83357 0.56653 0.73436 0.0
C1557 C 0.45059 0.93607 0.23796 0.0
C1558 C 0.4709 0.94428 0.25891 0.0
C1559 C 0.45571 0.94581 0.20888 0.0
C1560 C 0.48186 0.96387 0.20041 0.0
C1561 C 0.50246 0.97214 0.22137 0.0
C1562 C 0.49671 0.9624 0.25044 0.0
C1563 C 0.4331 0.93705 0.18737 0.0
C1564 C 0.53052 0.99161 0.2132 0.0
C1565 C 0.4938 0.97414 0.11718 0.0
C1566 C 0.49249 0.99723 0.11315 0.0
C1567 C 0.49157 0.96355 0.14579 0.0
C1568 C 0.48726 0.97603 0.1705 0.0
C1569 C 0.48701 -0.00013 0.16658 0.0
C1570 C 0.49036 0.0105 0.13818 0.0
C1571 C 0.49275 0.9385 0.14946 0.0
C1572 C 0.48144 0.01331 0.19203 0.0
H1573 H 0.43066 0.9217 0.24417 0.0
H1574 H 0.51244 0.96909 0.26661 0.0
H1575 H 0.43241 0.95451 0.17884 0.0
H1576 H 0.43593 0.92698 0.16801 0.0
H1577 H 0.41387 0.92334 0.19769 0.0
H1578 H 0.54455 0.99395 0.2311 0.0
H1579 H 0.53601 0.98512 0.19259 0.0
H1580 H 0.5326 0.01124 0.20874 0.0
H1581 H 0.49548 0.96383 0.09802 0.0
H1582 H 0.48963 0.02857 0.13543 0.0
H1583 H 0.47322 0.92213 0.1562 0.0
H1584 H 0.50687 0.94109 0.16731 0.0
H1585 H 0.49865 0.93265 0.12865 0.0
H1586 H 0.46137 2e-05 0.20061 0.0
H1587 H 0.48278 0.03225 0.18533 0.0
H1588 H 0.49534 0.01734 0.2106 0.0
C1589 C 0.05737 0.54871 0.24769 0.0
C1590 C 0.07974 0.54691 0.25388 0.0
C1591 C 0.04704 0.54423 0.21873 0.0
C1592 C 0.05948 0.53785 0.19585 0.0
C1593 C 0.08301 0.5377 0.20183 0.0
C1594 C 0.09292 0.54242 0.23074 0.0
C1595 C 0.02189 0.5445 0.21301 0.0
C1596 C 0.09664 0.5305 0.17827 0.0
C1597 C 0.01635 0.48813 0.13835 0.0
C1598 C 0.02247 0.50347 0.11244 0.0
C1599 C 0.02804 0.49924 0.16551 0.0
C1600 C 0.04571 0.52672 0.16733 0.0
C1601 C 0.0514 0.54266 0.14167 0.0
C1602 C 0.03984 0.53076 0.11429 0.0
C1603 C 0.02237 0.48121 0.19192 0.0
C1604 C 0.06983 0.57212 0.14319 0.0
H1605 H 0.04729 0.5523 0.26565 0.0
H1606 H 0.11054 0.54154 0.23558 0.0
H1607 H 0.0235 0.55553 0.19236 0.0
H1608 H 0.00553 0.52393 0.20982 0.0
H1609 H 0.01682 0.55355 0.23171 0.0
H1610 H 0.11577 0.53323 0.18608 0.0
H1611 H 0.08394 0.50947 0.17169 0.0
H1612 H 0.10006 0.54267 0.15814 0.0
H1613 H 0.00308 0.46694 0.13736 0.0
H1614 H 0.04454 0.54268 0.09443 0.0
H1615 H 0.01452 0.48761 0.21055 0.0
H1616 H 0.04081 0.48234 0.19977 0.0
H1617 H 0.00802 0.46021 0.18664 0.0
H1618 H 0.06061 0.58137 0.15638 0.0
H1619 H 0.07459 0.58118 0.12084 0.0
H1620 H 0.0884 0.57674 0.15457 0.0
C1621 C 0.49059 0.52793 0.24171 0.0
C1622 C 0.47569 0.5397 0.2492 0.0
C1623 C 0.49887 0.52863 0.21228 0.0
C1624 C 0.49305 0.54248 0.19047 0.0
C1625 C 0.47778 0.55412 0.19812 0.0
C1626 C 0.4689 0.55216 0.22727 0.0
C1627 C 0.51423 0.51505 0.20466 0.0
C1628 C 0.4715 0.5694 0.17574 0.0
C1629 C 0.53521 0.56157 0.12068 0.0
C1630 C 0.51802 0.54198 0.10096 0.0
C1631 C 0.52692 0.56297 0.14966 0.0
C1632 C 0.50148 0.54348 0.15921 0.0
C1633 C 0.4839 0.5244 0.13886 0.0
C1634 C 0.49215 0.52444 0.10988 0.0
C1635 C 0.54567 0.58451 0.17042 0.0
C1636 C 0.45714 0.50241 0.14825 0.0
H1637 H 0.4964 0.51898 0.25897 0.0
H1638 H 0.458 0.5619 0.23348 0.0
H1639 H 0.50511 0.50159 0.18538 0.0
H1640 H 0.5345 0.52998 0.19822 0.0
H1641 H 0.51529 0.50342 0.22355 0.0
H1642 H 0.46147 0.57928 0.18598 0.0
H1643 H 0.4898 0.58463 0.16497 0.0
H1644 H 0.45862 0.55588 0.15803 0.0
H1645 H 0.55531 0.57484 0.11401 0.0
H1646 H 0.47901 0.50885 0.09494 0.0
H1647 H 0.55262 0.5759 0.18766 0.0
H1648 H 0.53558 0.59374 0.18196 0.0
H1649 H 0.56302 0.60013 0.15854 0.0
H1650 H 0.4596 0.48933 0.16418 0.0
H1651 H 0.44522 0.49018 0.12916 0.0
H1652 H 0.44599 0.51047 0.15975 0.0
C1653 C 0.91872 0.45462 0.79555 0.0
C1654 C 0.93711 0.46449 0.77264 0.0
C1655 C 0.92646 0.45383 0.82465 0.0
C1656 C 0.95336 0.46386 0.83095 0.0
C1657 C 0.97215 0.47437 0.80782 0.0
C1658 C 0.96367 0.47413 0.77864 0.0
C1659 C 0.90585 0.44232 0.84861 0.0
C1660 C 0.00112 0.48609 0.81397 0.0
C1661 C 0.97646 0.49194 0.90731 0.0
C1662 C 0.98327 0.4741 0.9196 0.0
C1663 C 0.9667 0.48872 0.87855 0.0
C1664 C 0.96211 0.46619 0.86215 0.0
C1665 C 0.96661 0.44672 0.87531 0.0
C1666 C 0.97764 0.4511 0.90402 0.0
C1667 C 0.96301 0.51039 0.86515 0.0
C1668 C 0.96048 0.4218 0.8587 0.0
H1669 H 0.89809 0.44669 0.79041 0.0
H1670 H 0.97765 0.48127 0.76055 0.0
H1671 H 0.90826 0.42765 0.86181 0.0
H1672 H 0.9082 0.4582 0.86405 0.0
H1673 H 0.88561 0.43257 0.83937 0.0
H1674 H 0.01316 0.49394 0.79359 0.0
H1675 H 0.00775 0.5024 0.83043 0.0
H1676 H 0.00488 0.47087 0.82373 0.0
H1677 H 0.9805 0.50958 0.91965 0.0
H1678 H 0.98283 0.43732 0.91362 0.0
H1679 H 0.94252 0.50231 0.85733 0.0
H1680 H 0.97597 0.51883 0.84556 0.0
H1681 H 0.96762 0.5267 0.88112 0.0
H1682 H 0.93953 0.41117 0.85185 0.0
H1683 H 0.96444 0.40831 0.87227 0.0
H1684 H 0.97236 0.42682 0.83815 0.0
C1685 C 0.5507 0.5049 0.76878 0.0
C1686 C 0.54411 0.4792 0.76006 0.0
C1687 C 0.54631 0.51027 0.798 0.0
C1688 C 0.53471 0.48938 0.81884 0.0
C1689 C 0.52717 0.46333 0.80992 0.0
C1690 C 0.53226 0.45863 0.78088 0.0
C1691 C 0.55501 0.53844 0.80688 0.0
C1692 C 0.51454 0.44049 0.83137 0.0
C1693 C 0.55195 0.50717 0.89987 0.0
C1694 C 0.53047 0.50907 0.9099 0.0
C1695 C 0.55336 0.50041 0.87037 0.0
C1696 C 0.53253 0.49502 0.85059 0.0
C1697 C 0.51005 0.49548 0.8611 0.0
C1698 C 0.50947 0.50296 0.89068 0.0
C1699 C 0.57786 0.50057 0.86002 0.0
C1700 C 0.48727 0.48934 0.84078 0.0
H1701 H 0.55965 0.5209 0.75291 0.0
H1702 H 0.52769 0.43879 0.77487 0.0
H1703 H 0.53869 0.53957 0.81773 0.0
H1704 H 0.57127 0.54543 0.82326 0.0
H1705 H 0.5619 0.55207 0.7876 0.0
H1706 H 0.50814 0.42114 0.82038 0.0
H1707 H 0.52862 0.44322 0.84933 0.0
H1708 H 0.49724 0.43991 0.84196 0.0
H1709 H 0.5685 0.51276 0.91468 0.0
H1710 H 0.49327 0.50527 0.89834 0.0
H1711 H 0.58776 0.51596 0.84279 0.0
H1712 H 0.5727 0.48127 0.84975 0.0
H1713 H 0.59199 0.5046 0.87842 0.0
H1714 H 0.49345 0.50517 0.82393 0.0
H1715 H 0.47021 0.48781 0.85306 0.0
H1716 H 0.48094 0.47051 0.82867 0.0
C1717 C 0.50832 0.05655 0.77807 0.0
C1718 C 0.53497 0.0746 0.77265 0.0
C1719 C 0.49942 0.04652 0.80646 0.0
C1720 C 0.51776 0.05339 0.82983 0.0
C1721 C 0.5449 0.07013 0.82425 0.0
C1722 C 0.55317 0.08092 0.79579 0.0
C1723 C 0.4703 0.02877 0.81147 0.0
C1724 C 0.56521 0.07628 0.84814 0.0
C1725 C 0.49379 0.04154 0.90998 0.0
C1726 C 0.48948 0.01594 0.91452 0.0
C1727 C 0.50265 0.054 0.88225 0.0
C1728 C 0.50847 0.04099 0.85933 0.0
C1729 C 0.504 0.01518 0.86384 0.0
C1730 C 0.49341 0.00261 0.89068 0.0
C1731 C 0.50615 0.08114 0.87754 0.0
C1732 C 0.51111 0.00098 0.84071 0.0
H1733 H 0.49415 0.05064 0.76013 0.0
H1734 H 0.57377 0.09471 0.79192 0.0
H1735 H 0.46599 0.00855 0.81728 0.0
H1736 H 0.46381 0.0363 0.83038 0.0
H1737 H 0.45847 0.02736 0.79158 0.0
H1738 H 0.58541 0.09048 0.84055 0.0
H1739 H 0.56082 0.08461 0.86803 0.0
H1740 H 0.56458 0.05774 0.85508 0.0
H1741 H 0.49091 0.05201 0.92816 0.0
H1742 H 0.48986 0.98265 0.89354 0.0
H1743 H 0.49432 0.08075 0.85811 0.0
H1744 H 0.52698 0.09549 0.87252 0.0
H1745 H 0.50016 0.08831 0.89724 0.0
H1746 H 0.49728 0.995 0.82172 0.0
H1747 H 0.51046 0.98295 0.84968 0.0
H1748 H 0.53113 0.01424 0.832 0.0
C1749 C 0.13677 0.30026 0.58348 0.0
C1750 C 0.1441 0.28195 0.59281 0.0
C1751 C 0.14177 0.31015 0.55436 0.0
C1752 C 0.15454 0.30164 0.53417 0.0
C1753 C 0.16289 0.28402 0.54379 0.0
C1754 C 0.15739 0.27424 0.57282 0.0
C1755 C 0.13234 0.32878 0.54483 0.0
C1756 C 0.17672 0.27463 0.52304 0.0
C1757 C 0.13767 0.30103 0.45287 0.0
C1758 C 0.1584 0.32521 0.44314 0.0
C1759 C 0.13651 0.29288 0.4823 0.0
C1760 C 0.15691 0.30914 0.50231 0.0
C1761 C 0.1788 0.33284 0.49201 0.0
C1762 C 0.17906 0.34087 0.46254 0.0
C1763 C 0.11258 0.26774 0.49242 0.0
C1764 C 0.20119 0.35036 0.51251 0.0
H1765 H 0.12675 0.30654 0.5988 0.0
H1766 H 0.16269 0.25969 0.57945 0.0
H1767 H 0.14834 0.34639 0.53374 0.0
H1768 H 0.11613 0.31866 0.52849 0.0
H1769 H 0.1251 0.3355 0.56383 0.0
H1770 H 0.18395 0.26272 0.53466 0.0
H1771 H 0.16307 0.26232 0.50511 0.0
H1772 H 0.19361 0.29178 0.51235 0.0
H1773 H 0.12135 0.28939 0.43795 0.0
H1774 H 0.1947 0.35992 0.45509 0.0
H1775 H 0.10171 0.2726 0.50904 0.0
H1776 H 0.11848 0.25451 0.50335 0.0
H1777 H 0.09903 0.25679 0.47377 0.0
H1778 H 0.19441 0.35978 0.52898 0.0
H1779 H 0.21812 0.36618 0.50027 0.0
H1780 H 0.20792 0.33847 0.52502 0.0
C1781 C 0.74995 0.85986 0.56663 0.0
C1782 C 0.74141 0.87091 0.58859 0.0
C1783 C 0.73925 0.85476 0.538 0.0
C1784 C 0.71986 0.86141 0.53079 0.0
C1785 C 0.71182 0.87353 0.55246 0.0
C1786 C 0.72268 0.87813 0.58121 0.0
C1787 C 0.74813 0.84139 0.51583 0.0
C1788 C 0.69112 0.8808 0.54551 0.0
C1789 C 0.70548 0.858 0.44792 0.0
C1790 C 0.68392 0.83232 0.4454 0.0
C1791 C 0.71655 0.86856 0.47593 0.0
C1792 C 0.70607 0.85285 0.50171 0.0
C1793 C 0.68357 0.82747 0.49932 0.0
C1794 C 0.6725 0.81784 0.4714 0.0
C1795 C 0.74021 0.89596 0.47782 0.0
C1796 C 0.67236 0.80952 0.52592 0.0
H1797 H 0.76503 0.85499 0.5719 0.0
H1798 H 0.7161 0.88677 0.59805 0.0
H1799 H 0.7311 0.82247 0.5082 0.0
H1800 H 0.75657 0.8541 0.49604 0.0
H1801 H 0.7631 0.83713 0.52524 0.0
H1802 H 0.68908 0.89263 0.56358 0.0
H1803 H 0.69595 0.89222 0.52456 0.0
H1804 H 0.67188 0.86255 0.54218 0.0
H1805 H 0.7144 0.86937 0.42803 0.0
H1806 H 0.65563 0.79807 0.46988 0.0
H1807 H 0.75779 0.89462 0.48387 0.0
H1808 H 0.73741 0.90761 0.49548 0.0
H1809 H 0.74412 0.90675 0.45647 0.0
H1810 H 0.68683 0.80408 0.53418 0.0
H1811 H 0.65381 0.79101 0.52059 0.0
H1812 H 0.66854 0.81983 0.54427 0.0
C1813 C 0.14633 0.89731 0.56318 0.0
C1814 C 0.14843 0.88092 0.5843 0.0
C1815 C 0.15476 0.89813 0.53391 0.0
C1816 C 0.16549 0.8821 0.52566 0.0
C1817 C 0.16718 0.8651 0.54692 0.0
C1818 C 0.1587 0.86481 0.57613 0.0
C1819 C 0.15251 0.9164 0.51198 0.0
C1820 C 0.17826 0.8475 0.5389 0.0
C1821 C 0.16363 0.86189 0.44555 0.0
C1822 C 0.19023 0.87598 0.43775 0.0
C1823 C 0.1552 0.86432 0.47376 0.0
C1824 C 0.17378 0.88203 0.49448 0.0
C1825 C 0.20042 0.89807 0.4859 0.0
C1826 C 0.20851 0.89445 0.45767 0.0
C1827 C 0.1268 0.84627 0.48207 0.0
C1828 C 0.22049 0.91804 0.50706 0.0
H1829 H 0.13874 0.91006 0.56988 0.0
H1830 H 0.16077 0.85259 0.59279 0.0
H1831 H 0.1719 0.92963 0.5018 0.0
H1832 H 0.13887 0.90468 0.49376 0.0
H1833 H 0.14519 0.92873 0.52245 0.0
H1834 H 0.17743 0.83485 0.55771 0.0
H1835 H 0.16725 0.83457 0.51984 0.0
H1836 H 0.19902 0.85979 0.53192 0.0
H1837 H 0.14958 0.8473 0.43027 0.0
H1838 H 0.22911 0.90509 0.45174 0.0
H1839 H 0.11839 0.85772 0.49217 0.0
H1840 H 0.12557 0.83183 0.49888 0.0
H1841 H 0.11451 0.83511 0.46266 0.0
H1842 H 0.21344 0.9311 0.51607 0.0
H1843 H 0.2398 0.93049 0.49624 0.0
H1844 H 0.22325 0.9077 0.52614 0.0
C1845 C 0.58736 0.78489 0.12578 0.0
C1846 C 0.60598 0.79415 0.10306 0.0
C1847 C 0.59482 0.78485 0.15531 0.0
C1848 C 0.62165 0.79487 0.16229 0.0
C1849 C 0.64048 0.80377 0.13919 0.0
C1850 C 0.63233 0.80298 0.10968 0.0
C1851 C 0.57408 0.77491 0.17914 0.0
C1852 C 0.66929 0.81488 0.14578 0.0
C1853 C 0.64162 0.82928 0.23654 0.0
C1854 C 0.64426 0.81103 0.25445 0.0
C1855 C 0.63497 0.82436 0.20658 0.0
C1856 C 0.63029 0.80027 0.19383 0.0
C1857 C 0.63291 0.78159 0.21149 0.0
C1858 C 0.64008 0.78728 0.24171 0.0
C1859 C 0.63285 0.84507 0.18859 0.0
C1860 C 0.62759 0.75547 0.19863 0.0
H1861 H 0.56686 0.77735 0.1203 0.0
H1862 H 0.6465 0.80947 0.09181 0.0
H1863 H 0.57634 0.76113 0.19414 0.0
H1864 H 0.57643 0.79181 0.19281 0.0
H1865 H 0.55389 0.76459 0.16971 0.0
H1866 H 0.68128 0.82008 0.12526 0.0
H1867 H 0.67664 0.83291 0.15977 0.0
H1868 H 0.67222 0.80032 0.15852 0.0
H1869 H 0.64516 0.84794 0.24583 0.0
H1870 H 0.64213 0.77313 0.25533 0.0
H1871 H 0.61241 0.83702 0.18054 0.0
H1872 H 0.64571 0.85051 0.16882 0.0
H1873 H 0.63843 0.86335 0.20159 0.0
H1874 H 0.60627 0.74294 0.19403 0.0
H1875 H 0.63367 0.74463 0.21396 0.0
H1876 H 0.63798 0.75848 0.17722 0.0
C1877 C 0.23423 0.83052 0.11597 0.0
C1878 C 0.2138 0.81533 0.09587 0.0
C1879 C 0.22892 0.8346 0.14531 0.0
C1880 C 0.20257 0.82233 0.15525 0.0
C1881 C 0.18192 0.807 0.13517 0.0
C1882 C 0.18774 0.80425 0.10566 0.0
C1883 C 0.25155 0.85213 0.1656 0.0
C1884 C 0.15357 0.79348 0.14484 0.0
C1885 C 0.19335 0.81953 0.23939 0.0
C1886 C 0.18912 0.84085 0.24389 0.0
C1887 C 0.19654 0.81233 0.2104 0.0
C1888 C 0.19644 0.82744 0.18579 0.0
C1889 C 0.19095 0.84813 0.19029 0.0
C1890 C 0.18635 0.85381 0.21904 0.0
C1891 C 0.20124 0.78939 0.20622 0.0
C1892 C 0.19209 0.86579 0.16514 0.0
H1893 H 0.25446 0.8389 0.10902 0.0
H1894 H 0.17171 0.79313 0.09028 0.0
H1895 H 0.24803 0.86719 0.17639 0.0
H1896 H 0.25329 0.84006 0.18345 0.0
H1897 H 0.27053 0.86247 0.15357 0.0
H1898 H 0.14012 0.77943 0.12779 0.0
H1899 H 0.15101 0.78256 0.16583 0.0
H1900 H 0.14764 0.80847 0.14916 0.0
H1901 H 0.19567 0.80953 0.2584 0.0
H1902 H 0.18285 0.87021 0.22231 0.0
H1903 H 0.22192 0.79687 0.19964 0.0
H1904 H 0.18855 0.77623 0.18812 0.0
H1905 H 0.19734 0.7776 0.22682 0.0
H1906 H 0.21213 0.87597 0.15553 0.0
H1907 H 0.18729 0.88107 0.17248 0.0
H1908 H 0.17832 0.85394 0.14713 0.0
C1909 C 0.21711 0.41455 0.12504 0.0
C1910 C 0.1991 0.40734 0.10154 0.0
C1911 C 0.20864 0.4051 0.15398 0.0
C1912 C 0.18145 0.3886 0.15972 0.0
C1913 C 0.16327 0.38097 0.13605 0.0
C1914 C 0.17235 0.38983 0.10726 0.0
C1915 C 0.22881 0.41273 0.1784 0.0
C1916 C 0.13412 0.36387 0.14124 0.0
C1917 C 0.16246 0.34262 0.2255 0.0
C1918 C 0.16106 0.3581 0.24854 0.0
C1919 C 0.16892 0.35228 0.19659 0.0
C1920 C 0.17221 0.37739 0.1899 0.0
C1921 C 0.16771 0.39185 0.21231 0.0
C1922 C 0.16278 0.3823 0.24173 0.0
C1923 C 0.17466 0.33663 0.17402 0.0
C1924 C 0.1698 0.41814 0.20571 0.0
H1925 H 0.23774 0.42817 0.12105 0.0
H1926 H 0.15826 0.38353 0.0892 0.0
H1927 H 0.22488 0.42327 0.1964 0.0
H1928 H 0.22742 0.39466 0.18822 0.0
H1929 H 0.24916 0.42564 0.17032 0.0
H1930 H 0.12244 0.36088 0.12071 0.0
H1931 H 0.12956 0.34423 0.14973 0.0
H1932 H 0.12773 0.37313 0.15839 0.0
H1933 H 0.16138 0.32399 0.23089 0.0
H1934 H 0.16219 0.39453 0.25952 0.0
H1935 H 0.19549 0.34827 0.16703 0.0
H1936 H 0.1624 0.33277 0.15389 0.0
H1937 H 0.1711 0.31737 0.18288 0.0
H1938 H 0.19078 0.43363 0.20423 0.0
H1939 H 0.16052 0.42403 0.22334 0.0
H1940 H 0.1604 0.41747 0.18409 0.0
C1941 C 0.82873 0.61631 0.90781 0.0
C1942 C 0.80272 0.60472 0.91826 0.0
C1943 C 0.8353 0.62599 0.87876 0.0
C1944 C 0.81596 0.62608 0.86025 0.0
C1945 C 0.78992 0.61521 0.87063 0.0
C1946 C 0.78344 0.60381 0.89892 0.0
C1947 C 0.86305 0.63644 0.86799 0.0
C1948 C 0.76888 0.61597 0.85203 0.0
C1949 C 0.83381 0.67732 0.80031 0.0
C1950 C 0.82766 0.6618 0.77456 0.0
C1951 C 0.83165 0.66625 0.82839 0.0
C1952 C 0.82311 0.63895 0.83069 0.0
C1953 C 0.81893 0.62366 0.80462 0.0
C1954 C 0.82141 0.63535 0.77671 0.0
C1955 C 0.83614 0.68324 0.85557 0.0
C1956 C 0.81009 0.59456 0.80624 0.0
H1957 H 0.84428 0.61815 0.92222 0.0
H1958 H 0.76309 0.59415 0.90555 0.0
H1959 H 0.86292 0.62768 0.84604 0.0
H1960 H 0.87283 0.65817 0.86507 0.0
H1961 H 0.87491 0.632 0.88369 0.0
H1962 H 0.7499 0.60784 0.86394 0.0
H1963 H 0.77529 0.63665 0.84558 0.0
H1964 H 0.76563 0.60445 0.83128 0.0
H1965 H 0.83859 0.69778 0.79856 0.0
H1966 H 0.81632 0.62326 0.75681 0.0
H1967 H 0.84906 0.68088 0.87171 0.0
H1968 H 0.81709 0.67684 0.86673 0.0
H1969 H 0.84512 0.70455 0.84998 0.0
H1970 H 0.82352 0.59144 0.82082 0.0
H1971 H 0.8094 0.58591 0.78403 0.0
H1972 H 0.79023 0.58365 0.81617 0.0
C1973 C 0.42106 0.20599 0.89361 0.0
C1974 C 0.40662 0.2086 0.91673 0.0
C1975 C 0.41065 0.19935 0.86497 0.0
C1976 C 0.38544 0.19585 0.8593 0.0
C1977 C 0.3716 0.20039 0.88208 0.0
C1978 C 0.38239 0.20669 0.91073 0.0
C1979 C 0.42585 0.19426 0.84137 0.0
C1980 C 0.34466 0.19675 0.8767 0.0
C1981 C 0.36731 0.18782 0.77777 0.0
C1982 C 0.35419 0.16021 0.7749 0.0
C1983 C 0.37638 0.19989 0.80561 0.0
C1984 C 0.37235 0.1839 0.83081 0.0
C1985 C 0.35792 0.15604 0.82826 0.0
C1986 C 0.34879 0.14457 0.80042 0.0
C1987 C 0.39136 0.22967 0.80785 0.0
C1988 C 0.35368 0.13824 0.8545 0.0
H1989 H 0.44006 0.20799 0.8983 0.0
H1990 H 0.37128 0.2087 0.92872 0.0
H1991 H 0.41478 0.1732 0.83437 0.0
H1992 H 0.42831 0.20641 0.82147 0.0
H1993 H 0.44557 0.19876 0.84926 0.0
H1994 H 0.33835 0.20491 0.89518 0.0
H1995 H 0.34426 0.20642 0.8557 0.0
H1996 H 0.33018 0.17534 0.87446 0.0
H1997 H 0.37133 0.20001 0.75822 0.0
H1998 H 0.33833 0.12318 0.79859 0.0
H1999 H 0.41237 0.23663 0.8124 0.0
H2000 H 0.38388 0.23637 0.8266 0.0
H2001 H 0.38998 0.23916 0.78711 0.0
H2002 H 0.37274 0.14022 0.8613 0.0
H2003 H 0.33983 0.11708 0.84932 0.0
H2004 H 0.34599 0.14408 0.87377 0.0
C2005 C 0.82028 0.1916 0.90421 0.0
C2006 C 0.80693 0.20487 0.91208 0.0
C2007 C 0.82947 0.19315 0.87517 0.0
C2008 C 0.82559 0.2088 0.85397 0.0
C2009 C 0.81147 0.22165 0.8618 0.0
C2010 C 0.80214 0.21937 0.89081 0.0
C2011 C 0.84386 0.17858 0.86738 0.0
C2012 C 0.80691 0.23842 0.83981 0.0
C2013 C 0.87063 0.22686 0.78704 0.0
C2014 C 0.85389 0.20752 0.76683 0.0
C2015 C 0.86117 0.22886 0.81511 0.0
C2016 C 0.83491 0.21033 0.82312 0.0
C2017 C 0.81778 0.19176 0.8021 0.0
C2018 C 0.82737 0.19105 0.7741 0.0
C2019 C 0.87954 0.24975 0.83671 0.0
C2020 C 0.79002 0.17089 0.80991 0.0
H2021 H 0.82453 0.18105 0.92109 0.0
H2022 H 0.79236 0.23014 0.89742 0.0
H2023 H 0.83446 0.16551 0.84789 0.0
H2024 H 0.8644 0.19295 0.86119 0.0
H2025 H 0.84419 0.16638 0.88607 0.0
H2026 H 0.79706 0.24849 0.85005 0.0
H2027 H 0.82589 0.25361 0.83026 0.0
H2028 H 0.79454 0.22594 0.82116 0.0
H2029 H 0.89119 0.23937 0.78158 0.0
H2030 H 0.81454 0.17573 0.75877 0.0
H2031 H 0.88484 0.24036 0.85473 0.0
H2032 H 0.86975 0.25979 0.84715 0.0
H2033 H 0.89786 0.26484 0.82581 0.0
H2034 H 0.79063 0.15675 0.82587 0.0
H2035 H 0.77853 0.15959 0.79012 0.0
H2036 H 0.77946 0.17987 0.82083 0.0
C2037 C 0.25567 0.1058 0.45735 0.0
C2038 C 0.26462 0.1288 0.44024 0.0
C2039 C 0.26629 0.10654 0.48522 0.0
C2040 C 0.28462 0.1312 0.49759 0.0
C2041 C 0.29308 0.15476 0.48112 0.0
C2042 C 0.28329 0.15322 0.45227 0.0
C2043 C 0.25753 0.08091 0.50159 0.0
C2044 C 0.31242 0.18151 0.49391 0.0
C2045 C 0.28086 0.13443 0.58068 0.0
C2046 C 0.30421 0.13567 0.58968 0.0
C2047 C 0.27445 0.13306 0.5507 0.0
C2048 C 0.2916 0.13233 0.52926 0.0
C2049 C 0.31446 0.13187 0.53825 0.0
C2050 C 0.32052 0.13349 0.56863 0.0
C2051 C 0.24996 0.13372 0.54195 0.0
C2052 C 0.33274 0.13036 0.51588 0.0
H2053 H 0.24066 0.08688 0.44859 0.0
H2054 H 0.2905 0.17098 0.43903 0.0
H2055 H 0.27472 0.08038 0.51095 0.0
H2056 H 0.2447 0.07936 0.52039 0.0
H2057 H 0.24648 0.06335 0.48698 0.0
H2058 H 0.31443 0.19797 0.47976 0.0
H2059 H 0.30631 0.18389 0.51646 0.0
H2060 H 0.33198 0.18317 0.49599 0.0
H2061 H 0.26838 0.1362 0.59714 0.0
H2062 H 0.33877 0.13483 0.57572 0.0
H2063 H 0.23625 0.11532 0.52986 0.0
H2064 H 0.25512 0.15055 0.52677 0.0
H2065 H 0.23953 0.13571 0.56144 0.0
H2066 H 0.32248 0.11101 0.50419 0.0
H2067 H 0.35083 0.13257 0.5264 0.0
H2068 H 0.33846 0.14595 0.49884 0.0
C2069 C 0.89495 0.17115 0.43951 0.0
C2070 C 0.8801 0.14545 0.42757 0.0
C2071 C 0.89087 0.17697 0.4686 0.0
C2072 C 0.87022 0.15719 0.48558 0.0
C2073 C 0.85359 0.13209 0.47292 0.0
C2074 C 0.85922 0.12622 0.44463 0.0
C2075 C 0.90952 0.20388 0.48163 0.0
C2076 C 0.83035 0.11105 0.48974 0.0
C2077 C 0.87932 0.16215 0.56911 0.0
C2078 C 0.8663 0.17575 0.5769 0.0
C2079 C 0.88006 0.15525 0.53943 0.0
C2080 C 0.86727 0.16204 0.51733 0.0
C2081 C 0.85279 0.17444 0.52554 0.0
C2082 C 0.85273 0.18142 0.55531 0.0
C2083 C 0.89602 0.14238 0.53148 0.0
C2084 C 0.83868 0.18178 0.50278 0.0
H2085 H 0.91031 0.18679 0.42658 0.0
H2086 H 0.84758 0.10613 0.43668 0.0
H2087 H 0.89851 0.21324 0.49043 0.0
H2088 H 0.92036 0.20164 0.50055 0.0
H2089 H 0.92403 0.21741 0.46517 0.0
H2090 H 0.81759 0.09365 0.47559 0.0
H2091 H 0.83729 0.10428 0.50889 0.0
H2092 H 0.81836 0.11931 0.49871 0.0
H2093 H 0.89046 0.1586 0.58587 0.0
H2094 H 0.84333 0.19267 0.56147 0.0
H2095 H 0.91259 0.15579 0.51697 0.0
H2096 H 0.88382 0.12383 0.51885 0.0
H2097 H 0.9041 0.13771 0.55139 0.0
H2098 H 0.8532 0.19909 0.48989 0.0
H2099 H 0.82481 0.18705 0.51329 0.0
H2100 H 0.82766 0.16528 0.48688 0.0
C2101 C 0.883 0.74861 0.45718 0.0
C2102 C 0.86424 0.74292 0.43477 0.0
C2103 C 0.8754 0.73989 0.48645 0.0
C2104 C 0.84841 0.72605 0.4939 0.0
C2105 C 0.82937 0.72027 0.47159 0.0
C2106 C 0.83745 0.72804 0.44227 0.0
C2107 C 0.8963 0.74535 0.50938 0.0
C2108 C 0.80043 0.70612 0.47876 0.0
C2109 C 0.83056 0.68306 0.56228 0.0
C2110 C 0.83169 0.70041 0.5845 0.0
C2111 C 0.83495 0.6908 0.53252 0.0
C2112 C 0.84012 0.71642 0.52474 0.0
C2113 C 0.83916 0.73329 0.54688 0.0
C2114 C 0.83531 0.72519 0.57675 0.0
C2115 C 0.83629 0.67235 0.50991 0.0
C2116 C 0.84392 0.7605 0.53935 0.0
H2117 H 0.90371 0.76026 0.45211 0.0
H2118 H 0.82256 0.72249 0.42526 0.0
H2119 H 0.89515 0.75734 0.52783 0.0
H2120 H 0.89297 0.72644 0.519 0.0
H2121 H 0.91641 0.75602 0.49994 0.0
H2122 H 0.78814 0.70412 0.45909 0.0
H2123 H 0.79414 0.68609 0.48749 0.0
H2124 H 0.7966 0.71709 0.49637 0.0
H2125 H 0.82829 0.6641 0.56856 0.0
H2126 H 0.83674 0.73877 0.59411 0.0
H2127 H 0.85678 0.68088 0.50193 0.0
H2128 H 0.82385 0.67003 0.49035 0.0
H2129 H 0.82992 0.65244 0.51922 0.0
H2130 H 0.86512 0.77385 0.53498 0.0
H2131 H 0.83798 0.76912 0.55772 0.0
H2132 H 0.833 0.75983 0.51894 0.0
loop_
_geom_bond_atom_site_label_1
_geom_bond_atom_site_label_2
_geom_bond_distance
_geom_bond_site_symmetry_2
_ccdc_geom_bond_type
H0 C5 0.930 . S
H1 C8 0.930 . S
H2 C10 0.930 . S
H3 C4 1.016 . S
C4 H3 1.016 . S
C4 N11 1.286 . S
C5 H0 0.930 . S
C5 C6 1.397 . S
C5 C7 1.361 . S
C6 C5 1.397 . S
C6 C10 1.390 . S
C7 C5 1.361 . S
C7 C8 1.393 . S
C7 N11 1.413 . S
C8 H1 0.930 . S
C8 C7 1.393 . S
C8 C9 1.399 . S
C9 C8 1.399 . S
C9 C10 1.381 . S
C10 H2 0.930 . S
C10 C6 1.390 . S
C10 C9 1.381 . S
N11 C4 1.286 . S
N11 C7 1.413 . S
H12 C17 0.930 . S
H13 C20 0.930 . S
H14 C22 0.930 . S
H15 C16 1.016 . S
C16 H15 1.016 . S
C16 N23 1.286 . S
C17 H12 0.930 . S
C17 C18 1.397 . S
C17 C19 1.361 . S
C18 C17 1.397 . S
C18 C22 1.390 . S
C19 C17 1.361 . S
C19 C20 1.393 . S
C19 N23 1.413 . S
C20 H13 0.930 . S
C20 C19 1.393 . S
C20 C21 1.399 . S
C21 C20 1.399 . S
C21 C22 1.381 . S
C22 H14 0.930 . S
C22 C18 1.390 . S
C22 C21 1.381 . S
N23 C16 1.286 . S
N23 C19 1.413 . S
H24 C29 0.930 . S
H25 C32 0.930 . S
H26 C34 0.930 . S
H27 C28 1.016 . S
C28 H27 1.016 . S
C28 N35 1.286 . S
C29 H24 0.930 . S
C29 C30 1.397 . S
C29 C31 1.361 . S
C30 C29 1.397 . S
C30 C34 1.390 . S
C31 C29 1.361 . S
C31 C32 1.393 . S
C31 N35 1.413 . S
C32 H25 0.930 . S
C32 C31 1.393 . S
C32 C33 1.399 . S
C33 C32 1.399 . S
C33 C34 1.381 . S
C34 H26 0.930 . S
C34 C30 1.390 . S
C34 C33 1.381 . S
N35 C28 1.286 . S
N35 C31 1.413 . S
H36 C41 0.930 . S
H37 C44 0.930 . S
H38 C46 0.930 . S
H39 C40 1.016 . S
C40 H39 1.016 . S
C40 N47 1.286 . S
C41 H36 0.930 . S
C41 C42 1.397 . S
C41 C43 1.361 . S
C42 C41 1.397 . S
C42 C46 1.390 . S
C43 C41 1.361 . S
C43 C44 1.393 . S
C43 N47 1.413 . S
C44 H37 0.930 . S
C44 C43 1.393 . S
C44 C45 1.399 . S
C45 C44 1.399 . S
C45 C46 1.381 . S
C46 H38 0.930 . S
C46 C42 1.390 . S
C46 C45 1.381 . S
N47 C40 1.286 . S
N47 C43 1.413 . S
H48 C53 0.930 . S
H49 C56 0.930 . S
H50 C58 0.930 . S
H51 C52 1.016 . S
C52 H51 1.016 . S
C52 N59 1.286 . S
C53 H48 0.930 . S
C53 C54 1.397 . S
C53 C55 1.361 . S
C54 C53 1.397 . S
C54 C58 1.390 . S
C55 C53 1.361 . S
C55 C56 1.393 . S
C55 N59 1.413 . S
C56 H49 0.930 . S
C56 C55 1.393 . S
C56 C57 1.399 . S
C57 C56 1.399 . S
C57 C58 1.381 . S
C58 H50 0.930 . S
C58 C54 1.390 . S
C58 C57 1.381 . S
N59 C52 1.286 . S
N59 C55 1.413 . S
H60 C65 0.930 . S
H61 C68 0.930 . S
H62 C70 0.930 . S
H63 C64 1.016 . S
C64 H63 1.016 . S
C64 N71 1.286 . S
C65 H60 0.930 . S
C65 C66 1.397 . S
C65 C67 1.361 . S
C66 C65 1.397 . S
C66 C70 1.390 . S
C67 C65 1.361 . S
C67 C68 1.393 . S
C67 N71 1.413 . S
C68 H61 0.930 . S
C68 C67 1.393 . S
C68 C69 1.399 . S
C69 C68 1.399 . S
C69 C70 1.381 . S
C70 H62 0.930 . S
C70 C66 1.390 . S
C70 C69 1.381 . S
N71 C64 1.286 . S
N71 C67 1.413 . S
H72 C77 0.930 . S
H73 C80 0.930 . S
H74 C82 0.930 . S
H75 C76 1.016 . S
C76 H75 1.016 . S
C76 N83 1.286 . S
C77 H72 0.930 . S
C77 C78 1.397 . S
C77 C79 1.361 . S
C78 C77 1.397 . S
C78 C82 1.390 . S
C79 C77 1.361 . S
C79 C80 1.393 . S
C79 N83 1.413 . S
C80 H73 0.930 . S
C80 C79 1.393 . S
C80 C81 1.399 . S
C81 C80 1.399 . S
C81 C82 1.381 . S
C82 H74 0.930 . S
C82 C78 1.390 . S
C82 C81 1.381 . S
N83 C76 1.286 . S
N83 C79 1.413 . S
H84 C89 0.930 . S
H85 C92 0.930 . S
H86 C94 0.930 . S
H87 C88 1.016 . S
C88 H87 1.016 . S
C88 N95 1.286 . S
C89 H84 0.930 . S
C89 C90 1.397 . S
C89 C91 1.361 . S
C90 C89 1.397 . S
C90 C94 1.390 . S
C91 C89 1.361 . S
C91 C92 1.393 . S
C91 N95 1.413 . S
C92 H85 0.930 . S
C92 C91 1.393 . S
C92 C93 1.399 . S
C93 C92 1.399 . S
C93 C94 1.381 . S
C94 H86 0.930 . S
C94 C90 1.390 . S
C94 C93 1.381 . S
N95 C88 1.286 . S
N95 C91 1.413 . S
H96 C101 0.930 . S
H97 C104 0.930 . S
H98 C106 0.930 . S
H99 C100 1.016 . S
C100 H99 1.016 . S
C100 N107 1.286 . S
C101 H96 0.930 . S
C101 C102 1.397 . S
C101 C103 1.361 . S
C102 C101 1.397 . S
C102 C106 1.390 . S
C103 C101 1.361 . S
C103 C104 1.393 . S
C103 N107 1.413 . S
C104 H97 0.930 . S
C104 C103 1.393 . S
C104 C105 1.399 . S
C105 C104 1.399 . S
C105 C106 1.381 . S
C106 H98 0.930 . S
C106 C102 1.390 . S
C106 C105 1.381 . S
N107 C100 1.286 . S
N107 C103 1.413 . S
H108 C113 0.930 . S
H109 C116 0.930 . S
H110 C118 0.930 . S
H111 C112 1.016 1_556 S
C112 H111 1.016 1_554 S
C112 N119 1.286 . S
C113 H108 0.930 . S
C113 C114 1.397 1_554 S
C113 C115 1.361 . S
C114 C113 1.397 1_556 S
C114 C118 1.390 . S
C115 C113 1.361 . S
C115 C116 1.393 1_554 S
C115 N119 1.413 . S
C116 H109 0.930 . S
C116 C115 1.393 1_556 S
C116 C117 1.399 . S
C117 C116 1.399 . S
C117 C118 1.381 . S
C118 H110 0.930 . S
C118 C114 1.390 . S
C118 C117 1.381 . S
N119 C112 1.286 . S
N119 C115 1.413 . S
H120 C125 0.930 . S
H121 C128 0.930 . S
H122 C130 0.930 . S
H123 C124 1.016 1_556 S
C124 H123 1.016 1_554 S
C124 N131 1.286 . S
C125 H120 0.930 . S
C125 C126 1.395 . S
C125 C127 1.361 . S
C126 C125 1.395 . S
C126 C130 1.394 1_554 S
C127 C125 1.361 . S
C127 C128 1.393 1_554 S
C127 N131 1.413 . S
C128 H121 0.930 . S
C128 C127 1.393 1_556 S
C128 C129 1.399 . S
C129 C128 1.399 . S
C129 C130 1.381 . S
C130 H122 0.930 . S
C130 C126 1.394 1_556 S
C130 C129 1.381 . S
N131 C124 1.286 . S
N131 C127 1.413 . S
H132 C137 0.930 . S
H133 C140 0.930 . S
H134 C142 0.930 . S
H135 C136 1.016 1_556 S
C136 H135 1.016 1_554 S
C136 N143 1.286 . S
C137 H132 0.930 . S
C137 C138 1.397 1_554 S
C137 C139 1.361 1_554 S
C138 C137 1.397 1_556 S
C138 C142 1.390 . S
C139 C137 1.361 1_556 S
C139 C140 1.393 . S
C139 N143 1.413 1_556 S
C140 H133 0.930 . S
C140 C139 1.393 . S
C140 C141 1.399 . S
C141 C140 1.399 . S
C141 C142 1.381 . S
C142 H134 0.930 . S
C142 C138 1.390 . S
C142 C141 1.381 . S
N143 C136 1.286 . S
N143 C139 1.413 1_554 S
H144 C149 0.930 1_556 S
H145 C152 0.930 . S
H146 C154 0.930 . S
H147 C148 1.016 . S
C148 H147 1.016 . S
C148 N155 1.286 . S
C149 H144 0.930 1_554 S
C149 C150 1.397 . S
C149 C151 1.361 . S
C150 C149 1.397 . S
C150 C154 1.390 . S
C151 C149 1.361 . S
C151 C152 1.393 . S
C151 N155 1.413 . S
C152 H145 0.930 . S
C152 C151 1.393 . S
C152 C153 1.399 . S
C153 C152 1.399 . S
C153 C154 1.381 . S
C154 H146 0.930 . S
C154 C150 1.390 . S
C154 C153 1.381 . S
N155 C148 1.286 . S
N155 C151 1.413 . S
H156 C161 0.930 1_556 S
H157 C164 0.930 . S
H158 C166 0.930 . S
H159 C160 1.016 . S
C160 H159 1.016 . S
C160 N167 1.305 . S
C161 H156 0.930 1_554 S
C161 C162 1.397 . S
C161 C163 1.361 . S
C162 C161 1.397 . S
C162 C166 1.390 . S
C163 C161 1.361 . S
C163 C164 1.393 . S
C163 N167 1.435 . S
C164 H157 0.930 . S
C164 C163 1.393 . S
C164 C165 1.399 . S
C165 C164 1.399 . S
C165 C166 1.381 . S
C166 H158 0.930 . S
C166 C162 1.390 . S
C166 C165 1.381 . S
N167 C160 1.305 . S
N167 C163 1.435 . S
H168 C173 0.930 1_556 S
H169 C176 0.930 . S
H170 C178 0.930 . S
H171 C172 1.016 . S
C172 H171 1.016 . S
C172 N179 1.286 . S
C173 H168 0.930 1_554 S
C173 C174 1.397 . S
C173 C175 1.361 . S
C174 C173 1.397 . S
C174 C178 1.390 . S
C175 C173 1.361 . S
C175 C176 1.393 . S
C175 N179 1.413 . S
C176 H169 0.930 . S
C176 C175 1.393 . S
C176 C177 1.399 . S
C177 C176 1.399 . S
C177 C178 1.381 . S
C178 H170 0.930 . S
C178 C174 1.390 . S
C178 C177 1.381 . S
N179 C172 1.286 . S
N179 C175 1.413 . S
H180 C185 0.930 . S
H181 C188 0.930 . S
H182 C190 0.930 . S
H183 C184 1.016 . S
C184 H183 1.016 . S
C184 N191 1.286 . S
C185 H180 0.930 . S
C185 C186 1.397 . S
C185 C187 1.361 . S
C186 C185 1.397 . S
C186 C190 1.390 . S
C187 C185 1.361 . S
C187 C188 1.393 . S
C187 N191 1.413 . S
C188 H181 0.930 . S
C188 C187 1.393 . S
C188 C189 1.399 . S
C189 C188 1.399 . S
C189 C190 1.381 . S
C190 H182 0.930 . S
C190 C186 1.390 . S
C190 C189 1.381 . S
N191 C184 1.286 . S
N191 C187 1.413 . S
H192 C197 0.930 . S
H193 C200 0.930 . S
H194 C202 0.930 . S
H195 C196 1.016 . S
C196 H195 1.016 . S
C196 N203 1.286 . S
C197 H192 0.930 . S
C197 C198 1.397 . S
C197 C199 1.361 . S
C198 C197 1.397 . S
C198 C202 1.390 . S
C199 C197 1.361 . S
C199 C200 1.393 . S
C199 N203 1.413 . S
C200 H193 0.930 . S
C200 C199 1.393 . S
C200 C201 1.399 . S
C201 C200 1.399 . S
C201 C202 1.381 . S
C202 H194 0.930 . S
C202 C198 1.390 . S
C202 C201 1.381 . S
N203 C196 1.286 . S
N203 C199 1.413 . S
H204 C209 0.930 . S
H205 C212 0.930 . S
H206 C214 0.930 . S
H207 C208 1.016 . S
C208 H207 1.016 . S
C208 N215 1.286 . S
C209 H204 0.930 . S
C209 C210 1.397 . S
C209 C211 1.361 . S
C210 C209 1.397 . S
C210 C214 1.390 . S
C211 C209 1.361 . S
C211 C212 1.393 . S
C211 N215 1.413 . S
C212 H205 0.930 . S
C212 C211 1.393 . S
C212 C213 1.399 . S
C213 C212 1.399 . S
C213 C214 1.381 . S
C214 H206 0.930 . S
C214 C210 1.390 . S
C214 C213 1.381 . S
N215 C208 1.286 . S
N215 C211 1.413 . S
O216 Mn217 2.163 1_565 S
O216 C230 1.244 . S
Mn217 O216 2.163 1_545 S
Mn217 O220 2.160 . S
Mn217 O221 2.221 1_545 S
Mn217 O223 2.163 1_554 S
Mn217 O225 2.160 . S
Mn217 O235 2.221 . S
O218 Mn219 2.087 1_565 S
O218 C230 1.256 . S
Mn219 O218 2.087 1_545 S
Mn219 O226 2.089 1_545 S
Mn219 O235 2.290 . S
Mn219 O236 2.251 . S
O220 Mn217 2.160 . S
O220 C231 1.239 . S
O221 Mn217 2.221 1_565 S
O221 Mn222 2.290 1_564 S
O221 C232 1.278 1_554 S
Mn222 O221 2.290 1_546 S
Mn222 O224 2.089 . S
Mn222 O227 2.251 1_545 S
Mn222 O228 2.087 . S
O223 Mn217 2.163 1_556 S
O223 C233 1.244 . S
O224 Mn222 2.089 . S
O224 C231 1.256 1_556 S
O225 Mn217 2.160 . S
O225 C234 1.239 1_545 S
O226 Mn219 2.089 1_565 S
O226 C234 1.256 . S
O227 Mn222 2.251 1_565 S
O227 C232 1.241 . S
O228 Mn222 2.087 . S
O228 C233 1.256 . S
C229 O235 1.278 . S
C229 O236 1.241 . S
C230 O216 1.244 . S
C230 O218 1.256 . S
C231 O220 1.239 . S
C231 O224 1.256 1_554 S
C232 O221 1.278 1_556 S
C232 O227 1.241 . S
C233 O223 1.244 . S
C233 O228 1.256 . S
C234 O225 1.239 1_565 S
C234 O226 1.256 . S
O235 Mn217 2.221 . S
O235 Mn219 2.290 . S
O235 C229 1.278 . S
O236 Mn219 2.251 . S
O236 C229 1.241 . S
O237 Mn238 2.163 . S
O237 C251 1.244 . S
Mn238 O237 2.163 . S
Mn238 O241 2.160 1_455 S
Mn238 O242 2.221 . S
Mn238 O244 2.163 1_454 S
Mn238 O246 2.160 . S
Mn238 O256 2.221 1_455 S
O239 Mn240 2.087 . S
O239 C251 1.256 . S
Mn240 O239 2.087 . S
Mn240 O247 2.089 . S
Mn240 O256 2.290 1_455 S
Mn240 O257 2.251 1_455 S
O241 Mn238 2.160 1_655 S
O241 C252 1.239 . S
O242 Mn238 2.221 . S
O242 Mn243 2.290 1_554 S
O242 C253 1.278 1_554 S
Mn243 O242 2.290 1_556 S
Mn243 O245 2.089 1_455 S
Mn243 O248 2.251 . S
Mn243 O249 2.087 . S
O244 Mn238 2.163 1_656 S
O244 C254 1.244 . S
O245 Mn243 2.089 1_655 S
O245 C252 1.256 1_556 S
O246 Mn238 2.160 . S
O246 C255 1.239 . S
O247 Mn240 2.089 . S
O247 C255 1.256 . S
O248 Mn243 2.251 . S
O248 C253 1.241 . S
O249 Mn243 2.087 . S
O249 C254 1.256 1_455 S
C250 O256 1.278 . S
C250 O257 1.241 . S
C251 O237 1.244 . S
C251 O239 1.256 . S
C252 O241 1.239 . S
C252 O245 1.256 1_554 S
C253 O242 1.278 1_556 S
C253 O248 1.241 . S
C254 O244 1.244 . S
C254 O249 1.256 1_655 S
C255 O246 1.239 . S
C255 O247 1.256 . S
O256 Mn238 2.221 1_655 S
O256 Mn240 2.290 1_655 S
O256 C250 1.278 . S
O257 Mn240 2.251 1_655 S
O257 C250 1.241 . S
O258 Mn259 2.163 . S
O258 C272 1.244 . S
Mn259 O258 2.163 . S
Mn259 O262 2.160 . S
Mn259 O263 2.221 . S
Mn259 O265 2.163 . S
Mn259 O267 2.160 1_554 S
Mn259 O277 2.221 1_554 S
O260 Mn261 2.087 . S
O260 C272 1.256 1_556 S
Mn261 O260 2.087 . S
Mn261 O268 2.089 . S
Mn261 O277 2.290 . S
Mn261 O278 2.236 1_556 S
O262 Mn259 2.160 . S
O262 C273 1.239 . S
O263 Mn259 2.221 . S
O263 Mn264 2.290 . S
O263 C274 1.278 . S
Mn264 O263 2.290 . S
Mn264 O266 2.089 . S
Mn264 O269 2.251 . S
Mn264 O270 2.087 . S
O265 Mn259 2.163 . S
O265 C275 1.244 . S
O266 Mn264 2.089 . S
O266 C273 1.256 . S
O267 Mn259 2.160 1_556 S
O267 C276 1.239 . S
O268 Mn261 2.089 . S
O268 C276 1.256 . S
O269 Mn264 2.251 . S
O269 C274 1.241 . S
O270 Mn264 2.087 . S
O270 C275 1.256 . S
C271 O277 1.278 1_554 S
C271 O278 1.246 . S
C272 O258 1.244 . S
C272 O260 1.256 1_554 S
C273 O262 1.239 . S
C273 O266 1.256 . S
C274 O263 1.278 . S
C274 O269 1.241 . S
C275 O265 1.244 . S
C275 O270 1.256 . S
C276 O267 1.239 . S
C276 O268 1.256 . S
O277 Mn259 2.221 1_556 S
O277 Mn261 2.290 . S
O277 C271 1.278 1_556 S
O278 Mn261 2.236 1_554 S
O278 C271 1.246 . S
O279 Mn280 2.163 . S
O279 C293 1.244 . S
Mn280 O279 2.163 . S
Mn280 O283 2.160 . S
Mn280 O284 2.221 . S
Mn280 O286 2.163 . S
Mn280 O288 2.160 . S
Mn280 O298 2.221 . S
O281 Mn282 2.087 . S
O281 C293 1.256 . S
Mn282 O281 2.087 . S
Mn282 O289 2.089 . S
Mn282 O298 2.290 . S
Mn282 O299 2.251 . S
O283 Mn280 2.160 . S
O283 C294 1.239 . S
O284 Mn280 2.221 . S
O284 Mn285 2.290 . S
O284 C295 1.278 . S
Mn285 O284 2.290 . S
Mn285 O287 2.089 . S
Mn285 O290 2.251 . S
Mn285 O291 2.087 . S
O286 Mn280 2.163 . S
O286 C296 1.244 . S
O287 Mn285 2.089 . S
O287 C294 1.256 . S
O288 Mn280 2.160 . S
O288 C297 1.239 . S
O289 Mn282 2.089 . S
O289 C297 1.256 . S
O290 Mn285 2.251 . S
O290 C295 1.241 . S
O291 Mn285 2.087 . S
O291 C296 1.256 . S
C292 O298 1.278 . S
C292 O299 1.241 . S
C293 O279 1.244 . S
C293 O281 1.256 . S
C294 O283 1.239 . S
C294 O287 1.256 . S
C295 O284 1.278 . S
C295 O290 1.241 . S
C296 O286 1.244 . S
C296 O291 1.256 . S
C297 O288 1.239 . S
C297 O289 1.256 . S
O298 Mn280 2.221 . S
O298 Mn282 2.290 . S
O298 C292 1.278 . S
O299 Mn282 2.251 . S
O299 C292 1.241 . S
O300 Mn301 2.163 . S
O300 C314 1.244 . S
Mn301 O300 2.163 . S
Mn301 O304 2.160 . S
Mn301 O305 2.221 . S
Mn301 O307 2.163 . S
Mn301 O309 2.160 . S
Mn301 O319 2.221 . S
O302 Mn303 2.087 . S
O302 C314 1.256 . S
Mn303 O302 2.087 . S
Mn303 O310 2.089 . S
Mn303 O319 2.290 . S
Mn303 O320 2.251 . S
O304 Mn301 2.160 . S
O304 C315 1.239 . S
O305 Mn301 2.221 . S
O305 Mn306 2.290 . S
O305 C316 1.278 . S
Mn306 O305 2.290 . S
Mn306 O308 2.089 . S
Mn306 O311 2.251 . S
Mn306 O312 2.087 . S
O307 Mn301 2.163 . S
O307 C317 1.244 . S
O308 Mn306 2.089 . S
O308 C315 1.256 . S
O309 Mn301 2.160 . S
O309 C318 1.239 . S
O310 Mn303 2.089 . S
O310 C318 1.256 . S
O311 Mn306 2.251 . S
O311 C316 1.241 . S
O312 Mn306 2.087 . S
O312 C317 1.256 . S
C313 O319 1.278 . S
C313 O320 1.241 . S
C314 O300 1.244 . S
C314 O302 1.256 . S
C315 O304 1.239 . S
C315 O308 1.256 . S
C316 O305 1.278 . S
C316 O311 1.241 . S
C317 O307 1.244 . S
C317 O312 1.256 . S
C318 O309 1.239 . S
C318 O310 1.256 . S
O319 Mn301 2.221 . S
O319 Mn303 2.290 . S
O319 C313 1.278 . S
O320 Mn303 2.251 . S
O320 C313 1.241 . S
O321 Mn322 2.163 . S
O321 C335 1.244 . S
Mn322 O321 2.163 . S
Mn322 O325 2.160 . S
Mn322 O326 2.221 . S
Mn322 O328 2.163 . S
Mn322 O330 2.160 . S
Mn322 O340 2.221 . S
O323 Mn324 2.087 . S
O323 C335 1.256 . S
Mn324 O323 2.087 . S
Mn324 O331 2.089 . S
Mn324 O340 2.290 . S
Mn324 O341 2.251 . S
O325 Mn322 2.160 . S
O325 C336 1.239 . S
O326 Mn322 2.221 . S
O326 Mn327 2.290 . S
O326 C337 1.278 . S
Mn327 O326 2.290 . S
Mn327 O329 2.089 . S
Mn327 O332 2.251 . S
Mn327 O333 2.087 . S
O328 Mn322 2.163 . S
O328 C338 1.244 . S
O329 Mn327 2.089 . S
O329 C336 1.256 . S
O330 Mn322 2.160 . S
O330 C339 1.239 . S
O331 Mn324 2.089 . S
O331 C339 1.256 . S
O332 Mn327 2.251 . S
O332 C337 1.241 . S
O333 Mn327 2.087 . S
O333 C338 1.256 . S
C334 O340 1.278 . S
C334 O341 1.241 . S
C335 O321 1.244 . S
C335 O323 1.256 . S
C336 O325 1.239 . S
C336 O329 1.256 . S
C337 O326 1.278 . S
C337 O332 1.241 . S
C338 O328 1.244 . S
C338 O333 1.256 . S
C339 O330 1.239 . S
C339 O331 1.256 . S
O340 Mn322 2.221 . S
O340 Mn324 2.290 . S
O340 C334 1.278 . S
O341 Mn324 2.251 . S
O341 C334 1.241 . S
O342 Mn343 2.163 . S
O342 C356 1.244 . S
Mn343 O342 2.163 . S
Mn343 O346 2.160 . S
Mn343 O347 2.221 . S
Mn343 O349 2.163 . S
Mn343 O351 2.160 . S
Mn343 O361 2.221 . S
O344 Mn345 2.087 . S
O344 C356 1.256 . S
Mn345 O344 2.087 . S
Mn345 O352 2.089 . S
Mn345 O361 2.290 . S
Mn345 O362 2.251 . S
O346 Mn343 2.160 . S
O346 C357 1.239 . S
O347 Mn343 2.221 . S
O347 Mn348 2.290 . S
O347 C358 1.278 . S
Mn348 O347 2.290 . S
Mn348 O350 2.089 . S
Mn348 O353 2.251 . S
Mn348 O354 2.087 . S
O349 Mn343 2.163 . S
O349 C359 1.244 . S
O350 Mn348 2.089 . S
O350 C357 1.256 . S
O351 Mn343 2.160 . S
O351 C360 1.239 . S
O352 Mn345 2.089 . S
O352 C360 1.256 . S
O353 Mn348 2.251 . S
O353 C358 1.241 . S
O354 Mn348 2.087 . S
O354 C359 1.256 . S
C355 O361 1.278 . S
C355 O362 1.241 . S
C356 O342 1.244 . S
C356 O344 1.256 . S
C357 O346 1.239 . S
C357 O350 1.256 . S
C358 O347 1.278 . S
C358 O353 1.241 . S
C359 O349 1.244 . S
C359 O354 1.256 . S
C360 O351 1.239 . S
C360 O352 1.256 . S
O361 Mn343 2.221 . S
O361 Mn345 2.290 . S
O361 C355 1.278 . S
O362 Mn345 2.251 . S
O362 C355 1.241 . S
O363 Mn364 2.163 . S
O363 C377 1.244 . S
Mn364 O363 2.163 . S
Mn364 O367 2.160 . S
Mn364 O368 2.221 . S
Mn364 O370 2.163 . S
Mn364 O372 2.160 . S
Mn364 O382 2.221 . S
O365 Mn366 2.087 . S
O365 C377 1.256 . S
Mn366 O365 2.087 . S
Mn366 O373 2.089 . S
Mn366 O382 2.290 . S
Mn366 O383 2.251 . S
O367 Mn364 2.160 . S
O367 C378 1.239 . S
O368 Mn364 2.221 . S
O368 Mn369 2.290 . S
O368 C379 1.278 . S
Mn369 O368 2.290 . S
Mn369 O371 2.089 . S
Mn369 O374 2.251 . S
Mn369 O375 2.087 . S
O370 Mn364 2.163 . S
O370 C380 1.244 . S
O371 Mn369 2.089 . S
O371 C378 1.256 . S
O372 Mn364 2.160 . S
O372 C381 1.239 . S
O373 Mn366 2.089 . S
O373 C381 1.256 . S
O374 Mn369 2.251 . S
O374 C379 1.241 . S
O375 Mn369 2.087 . S
O375 C380 1.256 . S
C376 O382 1.278 . S
C376 O383 1.241 . S
C377 O363 1.244 . S
C377 O365 1.256 . S
C378 O367 1.239 . S
C378 O371 1.256 . S
C379 O368 1.278 . S
C379 O374 1.241 . S
C380 O370 1.244 . S
C380 O375 1.256 . S
C381 O372 1.239 . S
C381 O373 1.256 . S
O382 Mn364 2.221 . S
O382 Mn366 2.290 . S
O382 C376 1.278 . S
O383 Mn366 2.251 . S
O383 C376 1.241 . S
O384 Mn385 2.163 . S
O384 C398 1.244 . S
Mn385 O384 2.163 . S
Mn385 O388 2.160 . S
Mn385 O389 2.221 . S
Mn385 O391 2.163 . S
Mn385 O393 2.160 . S
Mn385 O403 2.221 . S
O386 Mn387 2.087 . S
O386 C398 1.256 . S
Mn387 O386 2.087 . S
Mn387 O394 2.089 . S
Mn387 O403 2.290 . S
Mn387 O404 2.251 . S
O388 Mn385 2.160 . S
O388 C399 1.239 . S
O389 Mn385 2.221 . S
O389 Mn390 2.290 . S
O389 C400 1.278 . S
Mn390 O389 2.290 . S
Mn390 O392 2.089 . S
Mn390 O395 2.251 . S
Mn390 O396 2.087 . S
O391 Mn385 2.163 . S
O391 C401 1.244 . S
O392 Mn390 2.089 . S
O392 C399 1.256 . S
O393 Mn385 2.160 . S
O393 C402 1.239 . S
O394 Mn387 2.089 . S
O394 C402 1.256 . S
O395 Mn390 2.251 . S
O395 C400 1.241 . S
O396 Mn390 2.087 . S
O396 C401 1.256 . S
C397 O403 1.278 . S
C397 O404 1.241 . S
C398 O384 1.244 . S
C398 O386 1.256 . S
C399 O388 1.239 . S
C399 O392 1.256 . S
C400 O389 1.278 . S
C400 O395 1.241 . S
C401 O391 1.244 . S
C401 O396 1.256 . S
C402 O393 1.239 . S
C402 O394 1.256 . S
O403 Mn385 2.221 . S
O403 Mn387 2.290 . S
O403 C397 1.278 . S
O404 Mn387 2.251 . S
O404 C397 1.241 . S
C405 C406 1.391 . S
C405 C407 1.394 . S
C405 H421 0.931 . S
C406 C405 1.391 . S
C406 C410 1.376 . S
C407 C405 1.394 . S
C407 C408 1.369 . S
C407 C411 1.531 . S
C408 C407 1.369 . S
C408 C409 1.410 . S
C408 C416 1.503 . S
C409 C408 1.410 . S
C409 C410 1.392 . S
C409 C412 1.511 1_554 S
C410 C406 1.376 . S
C410 C409 1.392 . S
C410 H422 0.928 . S
C411 C407 1.531 . S
C411 H423 0.960 . S
C411 H424 0.962 . S
C411 H425 0.960 . S
C412 C409 1.511 1_556 S
C412 H426 0.961 . S
C412 H427 0.949 1_556 S
C412 H428 0.961 . S
C413 C414 1.370 . S
C413 C415 1.363 . S
C413 H429 0.931 . S
C414 C413 1.370 . S
C414 C418 1.408 1_554 S
C415 C413 1.363 . S
C415 C416 1.370 . S
C415 C419 1.524 . S
C416 C408 1.503 . S
C416 C415 1.370 . S
C416 C417 1.403 1_554 S
C417 C416 1.403 1_556 S
C417 C418 1.404 . S
C417 C420 1.539 . S
C418 C414 1.408 1_556 S
C418 C417 1.404 . S
C418 H430 0.930 . S
C419 C415 1.524 . S
C419 H431 0.956 . S
C419 H432 0.961 . S
C419 H433 0.961 . S
C420 C417 1.539 . S
C420 H434 0.958 . S
C420 H435 0.961 . S
C420 H436 0.960 . S
H421 C405 0.931 . S
H422 C410 0.928 . S
H423 C411 0.960 . S
H424 C411 0.962 . S
H425 C411 0.960 . S
H426 C412 0.961 . S
H427 C412 0.949 1_554 S
H428 C412 0.961 . S
H429 C413 0.931 . S
H430 C418 0.930 . S
H431 C419 0.956 . S
H432 C419 0.961 . S
H433 C419 0.961 . S
H434 C420 0.958 . S
H435 C420 0.961 . S
H436 C420 0.960 . S
C437 C438 1.407 . S
C437 C439 1.394 . S
C437 H453 0.915 1_554 S
C438 C437 1.407 . S
C438 C442 1.376 . S
C439 C437 1.394 . S
C439 C440 1.382 . S
C439 C443 1.518 1_554 S
C440 C439 1.382 . S
C440 C441 1.410 . S
C440 C448 1.503 . S
C441 C440 1.410 . S
C441 C442 1.392 . S
C441 C444 1.511 . S
C442 C438 1.376 . S
C442 C441 1.392 . S
C442 H454 0.929 . S
C443 C439 1.518 1_556 S
C443 H455 0.960 . S
C443 H456 0.962 . S
C443 H457 0.960 . S
C444 C441 1.511 . S
C444 H458 0.961 . S
C444 H459 0.961 . S
C444 H460 0.961 . S
C445 C446 1.370 . S
C445 C447 1.363 . S
C445 H461 0.931 1_554 S
C446 C445 1.370 . S
C446 C450 1.408 . S
C447 C445 1.363 . S
C447 C448 1.370 . S
C447 C451 1.524 1_554 S
C448 C440 1.503 . S
C448 C447 1.370 . S
C448 C449 1.403 . S
C449 C448 1.403 . S
C449 C450 1.404 . S
C449 C452 1.539 . S
C450 C446 1.408 . S
C450 C449 1.404 . S
C450 H462 0.930 . S
C451 C447 1.524 1_556 S
C451 H463 0.956 . S
C451 H464 0.961 1_556 S
C451 H465 0.961 . S
C452 C449 1.539 . S
C452 H466 0.958 . S
C452 H467 0.961 . S
C452 H468 0.960 . S
H453 C437 0.915 1_556 S
H454 C442 0.929 . S
H455 C443 0.960 . S
H456 C443 0.962 . S
H457 C443 0.960 . S
H458 C444 0.961 . S
H459 C444 0.961 . S
H460 C444 0.961 . S
H461 C445 0.931 1_556 S
H462 C450 0.930 . S
H463 C451 0.956 . S
H464 C451 0.961 1_554 S
H465 C451 0.961 . S
H466 C452 0.958 . S
H467 C452 0.961 . S
H468 C452 0.960 . S
C469 C470 1.391 . S
C469 C471 1.394 . S
C469 H485 0.931 . S
C470 C469 1.391 . S
C470 C474 1.376 . S
C471 C469 1.394 . S
C471 C472 1.369 . S
C471 C475 1.531 . S
C472 C471 1.369 . S
C472 C473 1.410 . S
C472 C480 1.503 . S
C473 C472 1.410 . S
C473 C474 1.392 . S
C473 C476 1.511 . S
C474 C470 1.376 . S
C474 C473 1.392 . S
C474 H486 0.929 . S
C475 C471 1.531 . S
C475 H487 0.960 1_554 S
C475 H488 0.962 . S
C475 H489 0.960 1_554 S
C476 C473 1.511 . S
C476 H490 0.961 . S
C476 H491 0.961 . S
C476 H492 0.961 1_554 S
C477 C478 1.370 . S
C477 C479 1.363 . S
C477 H493 0.931 . S
C478 C477 1.370 . S
C478 C482 1.408 1_554 S
C479 C477 1.363 . S
C479 C480 1.370 . S
C479 C483 1.524 . S
C480 C472 1.503 . S
C480 C479 1.370 . S
C480 C481 1.403 1_554 S
C481 C480 1.403 1_556 S
C481 C482 1.404 . S
C481 C484 1.539 . S
C482 C478 1.408 1_556 S
C482 C481 1.404 . S
C482 H494 0.930 . S
C483 C479 1.524 . S
C483 H495 0.956 . S
C483 H496 0.961 . S
C483 H497 0.961 . S
C484 C481 1.539 . S
C484 H498 0.958 . S
C484 H499 0.961 . S
C484 H500 0.960 . S
H485 C469 0.931 . S
H486 C474 0.929 . S
H487 C475 0.960 1_556 S
H488 C475 0.962 . S
H489 C475 0.960 1_556 S
H490 C476 0.961 . S
H491 C476 0.961 . S
H492 C476 0.961 1_556 S
H493 C477 0.931 . S
H494 C482 0.930 . S
H495 C483 0.956 . S
H496 C483 0.961 . S
H497 C483 0.961 . S
H498 C484 0.958 . S
H499 C484 0.961 . S
H500 C484 0.960 . S
C501 C502 1.391 . S
C501 C503 1.394 . S
C501 H517 0.931 . S
C502 C501 1.391 . S
C502 C506 1.376 1_554 S
C503 C501 1.394 . S
C503 C504 1.369 . S
C503 C507 1.531 . S
C504 C503 1.369 . S
C504 C505 1.410 1_554 S
C504 C512 1.503 . S
C505 C504 1.410 1_556 S
C505 C506 1.392 . S
C505 C508 1.511 . S
C506 C502 1.376 1_556 S
C506 C505 1.392 . S
C506 H518 0.929 . S
C507 C503 1.531 . S
C507 H519 0.960 . S
C507 H520 0.962 . S
C507 H521 0.960 . S
C508 C505 1.511 . S
C508 H522 0.961 . S
C508 H523 0.961 . S
C508 H524 0.961 . S
C509 C510 1.370 1_556 S
C509 C511 1.363 . S
C509 H525 0.931 . S
C510 C509 1.370 1_554 S
C510 C514 1.408 . S
C511 C509 1.363 . S
C511 C512 1.370 1_556 S
C511 C515 1.524 . S
C512 C504 1.503 . S
C512 C511 1.370 1_554 S
C512 C513 1.403 . S
C513 C512 1.403 . S
C513 C514 1.404 . S
C513 C516 1.539 . S
C514 C510 1.408 . S
C514 C513 1.404 . S
C514 H526 0.930 . S
C515 C511 1.524 . S
C515 H527 0.956 . S
C515 H528 0.961 . S
C515 H529 0.961 . S
C516 C513 1.539 . S
C516 H530 0.958 . S
C516 H531 0.961 . S
C516 H532 0.960 . S
H517 C501 0.931 . S
H518 C506 0.929 . S
H519 C507 0.960 . S
H520 C507 0.962 . S
H521 C507 0.960 . S
H522 C508 0.961 . S
H523 C508 0.961 . S
H524 C508 0.961 . S
H525 C509 0.931 . S
H526 C514 0.930 . S
H527 C515 0.956 . S
H528 C515 0.961 . S
H529 C515 0.961 . S
H530 C516 0.958 . S
H531 C516 0.961 . S
H532 C516 0.960 . S
C533 C534 1.391 1_556 S
C533 C535 1.394 . S
C533 H549 0.931 . S
C534 C533 1.391 1_554 S
C534 C538 1.376 . S
C535 C533 1.394 . S
C535 C536 1.373 . S
C535 C539 1.531 . S
C536 C535 1.373 . S
C536 C537 1.405 1_556 S
C536 C544 1.503 1_556 S
C537 C536 1.405 1_554 S
C537 C538 1.392 . S
C537 C540 1.511 . S
C538 C534 1.376 . S
C538 C537 1.392 . S
C538 H550 0.929 . S
C539 C535 1.531 . S
C539 H551 0.960 . S
C539 H552 0.962 . S
C539 H553 0.960 . S
C540 C537 1.511 . S
C540 H554 0.961 . S
C540 H555 0.961 . S
C540 H556 0.961 . S
C541 C542 1.370 . S
C541 C543 1.363 . S
C541 H557 0.931 . S
C542 C541 1.370 . S
C542 C546 1.408 1_554 S
C543 C541 1.363 . S
C543 C544 1.370 . S
C543 C547 1.524 . S
C544 C536 1.503 1_554 S
C544 C543 1.370 . S
C544 C545 1.403 1_554 S
C545 C544 1.403 1_556 S
C545 C546 1.404 . S
C545 C548 1.539 . S
C546 C542 1.408 1_556 S
C546 C545 1.404 . S
C546 H558 0.930 . S
C547 C543 1.524 . S
C547 H559 0.956 . S
C547 H560 0.961 . S
C547 H561 0.961 . S
C548 C545 1.539 . S
C548 H562 0.958 . S
C548 H563 0.961 . S
C548 H564 0.960 . S
H549 C533 0.931 . S
H550 C538 0.929 . S
H551 C539 0.960 . S
H552 C539 0.962 . S
H553 C539 0.960 . S
H554 C540 0.961 . S
H555 C540 0.961 . S
H556 C540 0.961 . S
H557 C541 0.931 . S
H558 C546 0.930 . S
H559 C547 0.956 . S
H560 C547 0.961 . S
H561 C547 0.961 . S
H562 C548 0.958 . S
H563 C548 0.961 . S
H564 C548 0.960 . S
C565 C566 1.391 . S
C565 C567 1.394 . S
C565 H581 0.931 . S
C566 C565 1.391 . S
C566 C570 1.376 1_554 S
C567 C565 1.394 . S
C567 C568 1.369 . S
C567 C571 1.531 . S
C568 C567 1.369 . S
C568 C569 1.410 1_554 S
C568 C576 1.503 . S
C569 C568 1.410 1_556 S
C569 C570 1.392 . S
C569 C572 1.511 . S
C570 C566 1.376 1_556 S
C570 C569 1.392 . S
C570 H582 0.929 . S
C571 C567 1.531 . S
C571 H583 0.960 . S
C571 H584 0.962 . S
C571 H585 0.960 . S
C572 C569 1.511 . S
C572 H586 0.961 . S
C572 H587 0.961 . S
C572 H588 0.961 . S
C573 C574 1.370 1_556 S
C573 C575 1.363 . S
C573 H589 0.931 . S
C574 C573 1.370 1_554 S
C574 C578 1.408 . S
C575 C573 1.363 . S
C575 C576 1.370 1_556 S
C575 C579 1.524 . S
C576 C568 1.503 . S
C576 C575 1.370 1_554 S
C576 C577 1.403 . S
C577 C576 1.403 . S
C577 C578 1.404 . S
C577 C580 1.539 . S
C578 C574 1.408 . S
C578 C577 1.404 . S
C578 H590 0.930 . S
C579 C575 1.524 . S
C579 H591 0.956 . S
C579 H592 0.961 . S
C579 H593 0.961 . S
C580 C577 1.539 . S
C580 H594 0.958 . S
C580 H595 0.961 . S
C580 H596 0.960 . S
H581 C565 0.931 . S
H582 C570 0.929 . S
H583 C571 0.960 . S
H584 C571 0.962 . S
H585 C571 0.960 . S
H586 C572 0.961 . S
H587 C572 0.961 . S
H588 C572 0.961 . S
H589 C573 0.931 . S
H590 C578 0.930 . S
H591 C579 0.956 . S
H592 C579 0.961 . S
H593 C579 0.961 . S
H594 C580 0.958 . S
H595 C580 0.961 . S
H596 C580 0.960 . S
C597 C598 1.391 1_556 S
C597 C599 1.394 . S
C597 H613 0.931 . S
C598 C597 1.391 1_554 S
C598 C602 1.376 . S
C599 C597 1.394 . S
C599 C600 1.369 1_556 S
C599 C603 1.531 . S
C600 C599 1.369 1_554 S
C600 C601 1.410 . S
C600 C608 1.503 . S
C601 C600 1.410 . S
C601 C602 1.392 . S
C601 C604 1.511 . S
C602 C598 1.376 . S
C602 C601 1.392 . S
C602 H614 0.929 . S
C603 C599 1.531 . S
C603 H615 0.960 . S
C603 H616 0.962 . S
C603 H617 0.960 . S
C604 C601 1.511 . S
C604 H618 0.961 . S
C604 H619 0.961 . S
C604 H620 0.961 . S
C605 C606 1.370 . S
C605 C607 1.363 . S
C605 H621 0.931 . S
C606 C605 1.370 . S
C606 C610 1.408 1_554 S
C607 C605 1.363 . S
C607 C608 1.370 . S
C607 C611 1.524 . S
C608 C600 1.503 . S
C608 C607 1.370 . S
C608 C609 1.403 1_554 S
C609 C608 1.403 1_556 S
C609 C610 1.404 . S
C609 C612 1.539 . S
C610 C606 1.408 1_556 S
C610 C609 1.404 . S
C610 H622 0.930 . S
C611 C607 1.524 . S
C611 H623 0.956 . S
C611 H624 0.961 . S
C611 H625 0.961 . S
C612 C609 1.539 . S
C612 H626 0.958 . S
C612 H627 0.961 . S
C612 H628 0.960 . S
H613 C597 0.931 . S
H614 C602 0.929 . S
H615 C603 0.960 . S
H616 C603 0.962 . S
H617 C603 0.960 . S
H618 C604 0.961 . S
H619 C604 0.961 . S
H620 C604 0.961 . S
H621 C605 0.931 . S
H622 C610 0.930 . S
H623 C611 0.956 . S
H624 C611 0.961 . S
H625 C611 0.961 . S
H626 C612 0.958 . S
H627 C612 0.961 . S
H628 C612 0.960 . S
C629 C630 1.391 . S
C629 C631 1.394 . S
C629 H645 0.931 . S
C630 C629 1.391 . S
C630 C634 1.376 1_554 S
C631 C629 1.394 . S
C631 C632 1.369 . S
C631 C635 1.531 . S
C632 C631 1.369 . S
C632 C633 1.410 1_554 S
C632 C640 1.503 . S
C633 C632 1.410 1_556 S
C633 C634 1.392 . S
C633 C636 1.511 . S
C634 C630 1.376 1_556 S
C634 C633 1.392 . S
C634 H646 0.929 . S
C635 C631 1.531 . S
C635 H647 0.960 . S
C635 H648 0.962 . S
C635 H649 0.960 . S
C636 C633 1.511 . S
C636 H650 0.961 . S
C636 H651 0.961 . S
C636 H652 0.961 . S
C637 C638 1.370 . S
C637 C639 1.363 . S
C637 H653 0.931 . S
C638 C637 1.370 . S
C638 C642 1.423 . S
C639 C637 1.363 . S
C639 C640 1.370 . S
C639 C643 1.524 . S
C640 C632 1.503 . S
C640 C639 1.370 . S
C640 C641 1.403 . S
C641 C640 1.403 . S
C641 C642 1.405 . S
C641 C644 1.539 1_554 S
C642 C638 1.423 . S
C642 C641 1.405 . S
C642 H654 0.916 1_554 S
C643 C639 1.524 . S
C643 H655 0.956 . S
C643 H656 0.961 . S
C643 H657 0.961 . S
C644 C641 1.539 1_556 S
C644 H658 0.947 1_556 S
C644 H659 0.961 . S
C644 H660 0.960 . S
H645 C629 0.931 . S
H646 C634 0.929 . S
H647 C635 0.960 . S
H648 C635 0.962 . S
H649 C635 0.960 . S
H650 C636 0.961 . S
H651 C636 0.961 . S
H652 C636 0.961 . S
H653 C637 0.931 . S
H654 C642 0.916 1_556 S
H655 C643 0.956 . S
H656 C643 0.961 . S
H657 C643 0.961 . S
H658 C644 0.947 1_554 S
H659 C644 0.961 . S
H660 C644 0.960 . S
C661 C662 1.391 1_556 S
C661 C663 1.394 . S
C661 H677 0.931 . S
C662 C661 1.391 1_554 S
C662 C666 1.376 . S
C663 C661 1.394 . S
C663 C664 1.369 1_556 S
C663 C667 1.531 . S
C664 C663 1.369 1_554 S
C664 C665 1.410 . S
C664 C672 1.503 . S
C665 C664 1.410 . S
C665 C666 1.392 . S
C665 C668 1.511 . S
C666 C662 1.376 . S
C666 C665 1.392 . S
C666 H678 0.929 . S
C667 C663 1.531 . S
C667 H679 0.960 . S
C667 H680 0.962 . S
C667 H681 0.960 . S
C668 C665 1.511 . S
C668 H682 0.961 . S
C668 H683 0.961 . S
C668 H684 0.961 . S
C669 C670 1.370 . S
C669 C671 1.363 . S
C669 H685 0.931 . S
C670 C669 1.370 . S
C670 C674 1.408 1_554 S
C671 C669 1.363 . S
C671 C672 1.370 . S
C671 C675 1.524 . S
C672 C664 1.503 . S
C672 C671 1.370 . S
C672 C673 1.403 1_554 S
C673 C672 1.403 1_556 S
C673 C674 1.404 . S
C673 C676 1.539 . S
C674 C670 1.408 1_556 S
C674 C673 1.404 . S
C674 H686 0.930 . S
C675 C671 1.524 . S
C675 H687 0.956 . S
C675 H688 0.961 . S
C675 H689 0.961 . S
C676 C673 1.539 . S
C676 H690 0.958 . S
C676 H691 0.961 . S
C676 H692 0.960 . S
H677 C661 0.931 . S
H678 C666 0.929 . S
H679 C667 0.960 . S
H680 C667 0.962 . S
H681 C667 0.960 . S
H682 C668 0.961 . S
H683 C668 0.961 . S
H684 C668 0.961 . S
H685 C669 0.931 . S
H686 C674 0.930 . S
H687 C675 0.956 . S
H688 C675 0.961 . S
H689 C675 0.961 . S
H690 C676 0.958 . S
H691 C676 0.961 . S
H692 C676 0.960 . S
C693 C694 1.391 . S
C693 C695 1.394 . S
C693 H709 0.931 . S
C694 C693 1.391 . S
C694 C698 1.381 . S
C695 C693 1.394 . S
C695 C696 1.369 . S
C695 C699 1.531 . S
C696 C695 1.369 . S
C696 C697 1.410 . S
C696 C704 1.503 . S
C697 C696 1.410 . S
C697 C698 1.394 . S
C697 C700 1.511 1_554 S
C698 C694 1.381 . S
C698 C697 1.394 . S
C698 H710 0.922 1_554 S
C699 C695 1.531 . S
C699 H711 0.960 . S
C699 H712 0.962 . S
C699 H713 0.960 . S
C700 C697 1.511 1_556 S
C700 H714 0.961 . S
C700 H715 0.961 . S
C700 H716 0.961 1_556 S
C701 C702 1.370 1_556 S
C701 C703 1.363 . S
C701 H717 0.931 . S
C702 C701 1.370 1_554 S
C702 C706 1.408 . S
C703 C701 1.363 . S
C703 C704 1.370 1_556 S
C703 C707 1.524 . S
C704 C696 1.503 . S
C704 C703 1.370 1_554 S
C704 C705 1.403 . S
C705 C704 1.403 . S
C705 C706 1.404 . S
C705 C708 1.539 . S
C706 C702 1.408 . S
C706 C705 1.404 . S
C706 H718 0.930 . S
C707 C703 1.524 . S
C707 H719 0.956 . S
C707 H720 0.961 . S
C707 H721 0.961 . S
C708 C705 1.539 . S
C708 H722 0.958 . S
C708 H723 0.961 . S
C708 H724 0.960 . S
H709 C693 0.931 . S
H710 C698 0.922 1_556 S
H711 C699 0.960 . S
H712 C699 0.962 . S
H713 C699 0.960 . S
H714 C700 0.961 . S
H715 C700 0.961 . S
H716 C700 0.961 1_554 S
H717 C701 0.931 . S
H718 C706 0.930 . S
H719 C707 0.956 . S
H720 C707 0.961 . S
H721 C707 0.961 . S
H722 C708 0.958 . S
H723 C708 0.961 . S
H724 C708 0.960 . S
C725 C726 1.391 . S
C725 C727 1.394 . S
C725 H741 0.931 . S
C726 C725 1.391 . S
C726 C730 1.376 . S
C727 C725 1.394 . S
C727 C728 1.369 . S
C727 C731 1.531 1_554 S
C728 C727 1.369 . S
C728 C729 1.410 . S
C728 C736 1.503 . S
C729 C728 1.410 . S
C729 C730 1.392 . S
C729 C732 1.511 . S
C730 C726 1.376 . S
C730 C729 1.392 . S
C730 H742 0.929 . S
C731 C727 1.531 1_556 S
C731 H743 0.960 . S
C731 H744 0.962 1_556 S
C731 H745 0.960 . S
C732 C729 1.511 . S
C732 H746 0.961 . S
C732 H747 0.961 . S
C732 H748 0.961 1_554 S
C733 C734 1.370 . S
C733 C735 1.363 . S
C733 H749 0.931 . S
C734 C733 1.370 . S
C734 C738 1.408 1_554 S
C735 C733 1.363 . S
C735 C736 1.370 . S
C735 C739 1.524 . S
C736 C728 1.503 . S
C736 C735 1.370 . S
C736 C737 1.403 1_554 S
C737 C736 1.403 1_556 S
C737 C738 1.404 . S
C737 C740 1.539 . S
C738 C734 1.408 1_556 S
C738 C737 1.404 . S
C738 H750 0.930 . S
C739 C735 1.524 . S
C739 H751 0.956 . S
C739 H752 0.961 . S
C739 H753 0.961 . S
C740 C737 1.539 . S
C740 H754 0.958 . S
C740 H755 0.961 . S
C740 H756 0.960 . S
H741 C725 0.931 . S
H742 C730 0.929 . S
H743 C731 0.960 . S
H744 C731 0.962 1_554 S
H745 C731 0.960 . S
H746 C732 0.961 . S
H747 C732 0.961 . S
H748 C732 0.961 1_556 S
H749 C733 0.931 . S
H750 C738 0.930 . S
H751 C739 0.956 . S
H752 C739 0.961 . S
H753 C739 0.961 . S
H754 C740 0.958 . S
H755 C740 0.961 . S
H756 C740 0.960 . S
C757 C758 1.393 . S
C757 C759 1.393 1_554 S
C757 H773 0.930 1_554 S
C758 C757 1.393 . S
C758 C762 1.376 . S
C759 C757 1.393 1_556 S
C759 C760 1.369 1_556 S
C759 C763 1.531 . S
C760 C759 1.369 1_554 S
C760 C761 1.410 . S
C760 C768 1.503 . S
C761 C760 1.410 . S
C761 C762 1.392 . S
C761 C764 1.511 . S
C762 C758 1.376 . S
C762 C761 1.392 . S
C762 H774 0.929 . S
C763 C759 1.531 . S
C763 H775 0.960 . S
C763 H776 0.962 1_556 S
C763 H777 0.960 . S
C764 C761 1.511 . S
C764 H778 0.961 . S
C764 H779 0.961 . S
C764 H780 0.961 1_554 S
C765 C766 1.370 . S
C765 C767 1.363 . S
C765 H781 0.931 . S
C766 C765 1.370 . S
C766 C770 1.408 1_554 S
C767 C765 1.363 . S
C767 C768 1.370 . S
C767 C771 1.524 . S
C768 C760 1.503 . S
C768 C767 1.370 . S
C768 C769 1.403 1_554 S
C769 C768 1.403 1_556 S
C769 C770 1.404 . S
C769 C772 1.539 . S
C770 C766 1.408 1_556 S
C770 C769 1.404 . S
C770 H782 0.930 . S
C771 C767 1.524 . S
C771 H783 0.956 . S
C771 H784 0.961 . S
C771 H785 0.961 . S
C772 C769 1.539 . S
C772 H786 0.958 . S
C772 H787 0.961 . S
C772 H788 0.960 . S
H773 C757 0.930 1_556 S
H774 C762 0.929 . S
H775 C763 0.960 . S
H776 C763 0.962 1_554 S
H777 C763 0.960 . S
H778 C764 0.961 . S
H779 C764 0.961 . S
H780 C764 0.961 1_556 S
H781 C765 0.931 . S
H782 C770 0.930 . S
H783 C771 0.956 . S
H784 C771 0.961 . S
H785 C771 0.961 . S
H786 C772 0.958 . S
H787 C772 0.961 . S
H788 C772 0.960 . S
C789 C790 1.391 . S
C789 C791 1.394 . S
C789 H805 0.931 . S
C790 C789 1.391 . S
C790 C794 1.376 . S
C791 C789 1.394 . S
C791 C792 1.369 . S
C791 C795 1.531 1_655 S
C792 C791 1.369 . S
C792 C793 1.410 . S
C792 C800 1.503 1_655 S
C793 C792 1.410 . S
C793 C794 1.392 . S
C793 C796 1.511 . S
C794 C790 1.376 . S
C794 C793 1.392 . S
C794 H806 0.929 . S
C795 C791 1.531 1_455 S
C795 H807 0.960 . S
C795 H808 0.962 . S
C795 H809 0.960 . S
C796 C793 1.511 . S
C796 H810 0.961 . S
C796 H811 0.961 1_655 S
C796 H812 0.961 . S
C797 C798 1.370 . S
C797 C799 1.363 . S
C797 H813 0.931 . S
C798 C797 1.370 . S
C798 C802 1.408 . S
C799 C797 1.363 . S
C799 C800 1.370 . S
C799 C803 1.524 . S
C800 C792 1.503 1_455 S
C800 C799 1.370 . S
C800 C801 1.403 . S
C801 C800 1.403 . S
C801 C802 1.404 . S
C801 C804 1.539 . S
C802 C798 1.408 . S
C802 C801 1.404 . S
C802 H814 0.930 . S
C803 C799 1.524 . S
C803 H815 0.956 1_455 S
C803 H816 0.961 1_455 S
C803 H817 0.961 . S
C804 C801 1.539 . S
C804 H818 0.958 . S
C804 H819 0.961 . S
C804 H820 0.960 . S
H805 C789 0.931 . S
H806 C794 0.929 . S
H807 C795 0.960 . S
H808 C795 0.962 . S
H809 C795 0.960 . S
H810 C796 0.961 . S
H811 C796 0.961 1_455 S
H812 C796 0.961 . S
H813 C797 0.931 . S
H814 C802 0.930 . S
H815 C803 0.956 1_655 S
H816 C803 0.961 1_655 S
H817 C803 0.961 . S
H818 C804 0.958 . S
H819 C804 0.961 . S
H820 C804 0.960 . S
C821 C822 1.391 . S
C821 C823 1.394 . S
C821 H837 0.931 . S
C822 C821 1.391 . S
C822 C826 1.376 . S
C823 C821 1.394 . S
C823 C824 1.369 . S
C823 C827 1.531 . S
C824 C823 1.369 . S
C824 C825 1.410 . S
C824 C832 1.503 . S
C825 C824 1.410 . S
C825 C826 1.392 . S
C825 C828 1.511 . S
C826 C822 1.376 . S
C826 C825 1.392 . S
C826 H838 0.929 . S
C827 C823 1.531 . S
C827 H839 0.960 . S
C827 H840 0.962 . S
C827 H841 0.960 . S
C828 C825 1.511 . S
C828 H842 0.961 . S
C828 H843 0.961 . S
C828 H844 0.961 . S
C829 C830 1.370 . S
C829 C831 1.363 . S
C829 H845 0.931 . S
C830 C829 1.370 . S
C830 C834 1.408 . S
C831 C829 1.363 . S
C831 C832 1.370 . S
C831 C835 1.524 . S
C832 C824 1.503 . S
C832 C831 1.370 . S
C832 C833 1.403 . S
C833 C832 1.403 . S
C833 C834 1.404 . S
C833 C836 1.539 . S
C834 C830 1.408 . S
C834 C833 1.404 . S
C834 H846 0.930 . S
C835 C831 1.524 . S
C835 H847 0.956 . S
C835 H848 0.961 . S
C835 H849 0.961 . S
C836 C833 1.539 . S
C836 H850 0.958 . S
C836 H851 0.961 . S
C836 H852 0.960 . S
H837 C821 0.931 . S
H838 C826 0.929 . S
H839 C827 0.960 . S
H840 C827 0.962 . S
H841 C827 0.960 . S
H842 C828 0.961 . S
H843 C828 0.961 . S
H844 C828 0.961 . S
H845 C829 0.931 . S
H846 C834 0.930 . S
H847 C835 0.956 . S
H848 C835 0.961 . S
H849 C835 0.961 . S
H850 C836 0.958 . S
H851 C836 0.961 . S
H852 C836 0.960 . S
C853 C854 1.391 . S
C853 C855 1.394 . S
C853 H869 0.931 . S
C854 C853 1.391 . S
C854 C858 1.376 . S
C855 C853 1.394 . S
C855 C856 1.369 . S
C855 C859 1.531 . S
C856 C855 1.369 . S
C856 C857 1.410 . S
C856 C864 1.503 1_545 S
C857 C856 1.410 . S
C857 C858 1.392 . S
C857 C860 1.511 . S
C858 C854 1.376 . S
C858 C857 1.392 . S
C858 H870 0.929 . S
C859 C855 1.531 . S
C859 H871 0.960 . S
C859 H872 0.962 . S
C859 H873 0.960 . S
C860 C857 1.511 . S
C860 H874 0.961 . S
C860 H875 0.961 . S
C860 H876 0.961 . S
C861 C862 1.370 . S
C861 C863 1.363 . S
C861 H877 0.931 . S
C862 C861 1.370 . S
C862 C866 1.408 . S
C863 C861 1.363 . S
C863 C864 1.370 . S
C863 C867 1.524 . S
C864 C856 1.503 1_565 S
C864 C863 1.370 . S
C864 C865 1.403 . S
C865 C864 1.403 . S
C865 C866 1.404 . S
C865 C868 1.539 1_565 S
C866 C862 1.408 . S
C866 C865 1.404 . S
C866 H878 0.930 . S
C867 C863 1.524 . S
C867 H879 0.956 . S
C867 H880 0.961 1_565 S
C867 H881 0.961 . S
C868 C865 1.539 1_545 S
C868 H882 0.958 . S
C868 H883 0.961 . S
C868 H884 0.960 . S
H869 C853 0.931 . S
H870 C858 0.929 . S
H871 C859 0.960 . S
H872 C859 0.962 . S
H873 C859 0.960 . S
H874 C860 0.961 . S
H875 C860 0.961 . S
H876 C860 0.961 . S
H877 C861 0.931 . S
H878 C866 0.930 . S
H879 C867 0.956 . S
H880 C867 0.961 1_545 S
H881 C867 0.961 . S
H882 C868 0.958 . S
H883 C868 0.961 . S
H884 C868 0.960 . S
C885 C886 1.391 . S
C885 C887 1.394 . S
C885 H901 0.931 . S
C886 C885 1.391 . S
C886 C890 1.376 . S
C887 C885 1.394 . S
C887 C888 1.369 . S
C887 C891 1.531 . S
C888 C887 1.369 . S
C888 C889 1.410 . S
C888 C896 1.503 . S
C889 C888 1.410 . S
C889 C890 1.392 . S
C889 C892 1.511 . S
C890 C886 1.376 . S
C890 C889 1.392 . S
C890 H902 0.929 . S
C891 C887 1.531 . S
C891 H903 0.960 . S
C891 H904 0.962 . S
C891 H905 0.960 . S
C892 C889 1.511 . S
C892 H906 0.961 . S
C892 H907 0.961 . S
C892 H908 0.961 . S
C893 C894 1.370 . S
C893 C895 1.363 . S
C893 H909 0.931 . S
C894 C893 1.370 . S
C894 C898 1.408 . S
C895 C893 1.363 . S
C895 C896 1.370 . S
C895 C899 1.524 . S
C896 C888 1.503 . S
C896 C895 1.370 . S
C896 C897 1.403 . S
C897 C896 1.403 . S
C897 C898 1.404 . S
C897 C900 1.539 . S
C898 C894 1.408 . S
C898 C897 1.404 . S
C898 H910 0.930 . S
C899 C895 1.524 . S
C899 H911 0.956 . S
C899 H912 0.961 . S
C899 H913 0.961 . S
C900 C897 1.539 . S
C900 H914 0.958 . S
C900 H915 0.961 . S
C900 H916 0.960 . S
H901 C885 0.931 . S
H902 C890 0.929 . S
H903 C891 0.960 . S
H904 C891 0.962 . S
H905 C891 0.960 . S
H906 C892 0.961 . S
H907 C892 0.961 . S
H908 C892 0.961 . S
H909 C893 0.931 . S
H910 C898 0.930 . S
H911 C899 0.956 . S
H912 C899 0.961 . S
H913 C899 0.961 . S
H914 C900 0.958 . S
H915 C900 0.961 . S
H916 C900 0.960 . S
C917 C918 1.391 . S
C917 C919 1.394 . S
C917 H933 0.931 . S
C918 C917 1.391 . S
C918 C922 1.376 . S
C919 C917 1.394 . S
C919 C920 1.369 . S
C919 C923 1.531 . S
C920 C919 1.369 . S
C920 C921 1.410 . S
C920 C928 1.503 . S
C921 C920 1.410 . S
C921 C922 1.392 . S
C921 C924 1.511 . S
C922 C918 1.376 . S
C922 C921 1.392 . S
C922 H934 0.929 . S
C923 C919 1.531 . S
C923 H935 0.960 . S
C923 H936 0.962 . S
C923 H937 0.960 . S
C924 C921 1.511 . S
C924 H938 0.961 . S
C924 H939 0.961 . S
C924 H940 0.961 . S
C925 C926 1.370 . S
C925 C927 1.363 . S
C925 H941 0.931 . S
C926 C925 1.370 . S
C926 C930 1.408 . S
C927 C925 1.363 . S
C927 C928 1.370 . S
C927 C931 1.524 . S
C928 C920 1.503 . S
C928 C927 1.370 . S
C928 C929 1.403 . S
C929 C928 1.403 . S
C929 C930 1.404 . S
C929 C932 1.539 . S
C930 C926 1.408 . S
C930 C929 1.404 . S
C930 H942 0.930 . S
C931 C927 1.524 . S
C931 H943 0.956 . S
C931 H944 0.961 . S
C931 H945 0.961 . S
C932 C929 1.539 . S
C932 H946 0.958 . S
C932 H947 0.961 . S
C932 H948 0.960 . S
H933 C917 0.931 . S
H934 C922 0.929 . S
H935 C923 0.960 . S
H936 C923 0.962 . S
H937 C923 0.960 . S
H938 C924 0.961 . S
H939 C924 0.961 . S
H940 C924 0.961 . S
H941 C925 0.931 . S
H942 C930 0.930 . S
H943 C931 0.956 . S
H944 C931 0.961 . S
H945 C931 0.961 . S
H946 C932 0.958 . S
H947 C932 0.961 . S
H948 C932 0.960 . S
C949 C950 1.391 . S
C949 C951 1.394 . S
C949 H965 0.931 . S
C950 C949 1.391 . S
C950 C954 1.376 . S
C951 C949 1.394 . S
C951 C952 1.369 . S
C951 C955 1.531 . S
C952 C951 1.369 . S
C952 C953 1.410 . S
C952 C960 1.503 . S
C953 C952 1.410 . S
C953 C954 1.392 . S
C953 C956 1.511 . S
C954 C950 1.376 . S
C954 C953 1.392 . S
C954 H966 0.929 . S
C955 C951 1.531 . S
C955 H967 0.960 . S
C955 H968 0.962 . S
C955 H969 0.960 . S
C956 C953 1.511 . S
C956 H970 0.961 . S
C956 H971 0.961 . S
C956 H972 0.961 . S
C957 C958 1.370 . S
C957 C959 1.363 . S
C957 H973 0.931 . S
C958 C957 1.370 . S
C958 C962 1.408 . S
C959 C957 1.363 . S
C959 C960 1.370 . S
C959 C963 1.524 . S
C960 C952 1.503 . S
C960 C959 1.370 . S
C960 C961 1.403 . S
C961 C960 1.403 . S
C961 C962 1.404 . S
C961 C964 1.539 . S
C962 C958 1.408 . S
C962 C961 1.404 . S
C962 H974 0.930 . S
C963 C959 1.524 . S
C963 H975 0.956 . S
C963 H976 0.961 . S
C963 H977 0.961 . S
C964 C961 1.539 . S
C964 H978 0.958 . S
C964 H979 0.961 . S
C964 H980 0.960 . S
H965 C949 0.931 . S
H966 C954 0.929 . S
H967 C955 0.960 . S
H968 C955 0.962 . S
H969 C955 0.960 . S
H970 C956 0.961 . S
H971 C956 0.961 . S
H972 C956 0.961 . S
H973 C957 0.931 . S
H974 C962 0.930 . S
H975 C963 0.956 . S
H976 C963 0.961 . S
H977 C963 0.961 . S
H978 C964 0.958 . S
H979 C964 0.961 . S
H980 C964 0.960 . S
C981 C982 1.391 . S
C981 C983 1.394 . S
C981 H997 0.931 . S
C982 C981 1.391 . S
C982 C986 1.376 . S
C983 C981 1.394 . S
C983 C984 1.369 . S
C983 C987 1.531 . S
C984 C983 1.369 . S
C984 C985 1.410 . S
C984 C992 1.503 . S
C985 C984 1.410 . S
C985 C986 1.392 . S
C985 C988 1.511 . S
C986 C982 1.376 . S
C986 C985 1.392 . S
C986 H998 0.929 . S
C987 C983 1.531 . S
C987 H999 0.960 . S
C987 H1000 0.962 . S
C987 H1001 0.960 . S
C988 C985 1.511 . S
C988 H1002 0.961 . S
C988 H1003 0.961 . S
C988 H1004 0.961 . S
C989 C990 1.370 . S
C989 C991 1.363 . S
C989 H1005 0.931 . S
C990 C989 1.370 . S
C990 C994 1.408 . S
C991 C989 1.363 . S
C991 C992 1.370 . S
C991 C995 1.524 . S
C992 C984 1.503 . S
C992 C991 1.370 . S
C992 C993 1.403 . S
C993 C992 1.403 . S
C993 C994 1.404 . S
C993 C996 1.539 . S
C994 C990 1.408 . S
C994 C993 1.404 . S
C994 H1006 0.930 . S
C995 C991 1.524 . S
C995 H1007 0.956 . S
C995 H1008 0.961 . S
C995 H1009 0.961 . S
C996 C993 1.539 . S
C996 H1010 0.958 . S
C996 H1011 0.961 . S
C996 H1012 0.960 . S
H997 C981 0.931 . S
H998 C986 0.929 . S
H999 C987 0.960 . S
H1000 C987 0.962 . S
H1001 C987 0.960 . S
H1002 C988 0.961 . S
H1003 C988 0.961 . S
H1004 C988 0.961 . S
H1005 C989 0.931 . S
H1006 C994 0.930 . S
H1007 C995 0.956 . S
H1008 C995 0.961 . S
H1009 C995 0.961 . S
H1010 C996 0.958 . S
H1011 C996 0.961 . S
H1012 C996 0.960 . S
C1013 C1014 1.391 . S
C1013 C1015 1.394 . S
C1013 H1029 0.931 . S
C1014 C1013 1.391 . S
C1014 C1018 1.376 . S
C1015 C1013 1.394 . S
C1015 C1016 1.369 . S
C1015 C1019 1.531 . S
C1016 C1015 1.369 . S
C1016 C1017 1.410 . S
C1016 C1024 1.503 . S
C1017 C1016 1.410 . S
C1017 C1018 1.392 . S
C1017 C1020 1.511 . S
C1018 C1014 1.376 . S
C1018 C1017 1.392 . S
C1018 H1030 0.929 . S
C1019 C1015 1.531 . S
C1019 H1031 0.960 . S
C1019 H1032 0.962 . S
C1019 H1033 0.960 . S
C1020 C1017 1.511 . S
C1020 H1034 0.961 . S
C1020 H1035 0.961 . S
C1020 H1036 0.961 . S
C1021 C1022 1.370 . S
C1021 C1023 1.363 . S
C1021 H1037 0.931 . S
C1022 C1021 1.370 . S
C1022 C1026 1.408 . S
C1023 C1021 1.363 . S
C1023 C1024 1.370 . S
C1023 C1027 1.524 . S
C1024 C1016 1.503 . S
C1024 C1023 1.370 . S
C1024 C1025 1.403 . S
C1025 C1024 1.403 . S
C1025 C1026 1.404 . S
C1025 C1028 1.539 . S
C1026 C1022 1.408 . S
C1026 C1025 1.404 . S
C1026 H1038 0.930 . S
C1027 C1023 1.524 . S
C1027 H1039 0.956 . S
C1027 H1040 0.961 . S
C1027 H1041 0.961 . S
C1028 C1025 1.539 . S
C1028 H1042 0.958 . S
C1028 H1043 0.961 . S
C1028 H1044 0.960 . S
H1029 C1013 0.931 . S
H1030 C1018 0.929 . S
H1031 C1019 0.960 . S
H1032 C1019 0.962 . S
H1033 C1019 0.960 . S
H1034 C1020 0.961 . S
H1035 C1020 0.961 . S
H1036 C1020 0.961 . S
H1037 C1021 0.931 . S
H1038 C1026 0.930 . S
H1039 C1027 0.956 . S
H1040 C1027 0.961 . S
H1041 C1027 0.961 . S
H1042 C1028 0.958 . S
H1043 C1028 0.961 . S
H1044 C1028 0.960 . S
C1045 C1046 1.391 . S
C1045 C1047 1.394 . S
C1045 H1061 0.931 . S
C1046 C1045 1.391 . S
C1046 C1050 1.376 . S
C1047 C1045 1.394 . S
C1047 C1048 1.369 . S
C1047 C1051 1.531 . S
C1048 C1047 1.369 . S
C1048 C1049 1.410 . S
C1048 C1056 1.503 . S
C1049 C1048 1.410 . S
C1049 C1050 1.392 . S
C1049 C1052 1.511 . S
C1050 C1046 1.376 . S
C1050 C1049 1.392 . S
C1050 H1062 0.929 . S
C1051 C1047 1.531 . S
C1051 H1063 0.960 . S
C1051 H1064 0.962 . S
C1051 H1065 0.960 . S
C1052 C1049 1.511 . S
C1052 H1066 0.961 . S
C1052 H1067 0.961 . S
C1052 H1068 0.961 . S
C1053 C1054 1.370 . S
C1053 C1055 1.363 . S
C1053 H1069 0.931 . S
C1054 C1053 1.370 . S
C1054 C1058 1.408 . S
C1055 C1053 1.363 . S
C1055 C1056 1.370 . S
C1055 C1059 1.524 . S
C1056 C1048 1.503 . S
C1056 C1055 1.370 . S
C1056 C1057 1.403 . S
C1057 C1056 1.403 . S
C1057 C1058 1.404 . S
C1057 C1060 1.539 . S
C1058 C1054 1.408 . S
C1058 C1057 1.404 . S
C1058 H1070 0.930 . S
C1059 C1055 1.524 . S
C1059 H1071 0.956 . S
C1059 H1072 0.961 . S
C1059 H1073 0.961 . S
C1060 C1057 1.539 . S
C1060 H1074 0.958 . S
C1060 H1075 0.961 . S
C1060 H1076 0.960 . S
H1061 C1045 0.931 . S
H1062 C1050 0.929 . S
H1063 C1051 0.960 . S
H1064 C1051 0.962 . S
H1065 C1051 0.960 . S
H1066 C1052 0.961 . S
H1067 C1052 0.961 . S
H1068 C1052 0.961 . S
H1069 C1053 0.931 . S
H1070 C1058 0.930 . S
H1071 C1059 0.956 . S
H1072 C1059 0.961 . S
H1073 C1059 0.961 . S
H1074 C1060 0.958 . S
H1075 C1060 0.961 . S
H1076 C1060 0.960 . S
C1077 C1078 1.391 . S
C1077 C1079 1.401 . S
C1077 H1093 0.931 . S
C1078 C1077 1.391 . S
C1078 C1082 1.376 . S
C1079 C1077 1.401 . S
C1079 C1080 1.361 1_545 S
C1079 C1083 1.532 1_545 S
C1080 C1079 1.361 1_565 S
C1080 C1081 1.410 . S
C1080 C1088 1.503 . S
C1081 C1080 1.410 . S
C1081 C1082 1.392 1_565 S
C1081 C1084 1.511 . S
C1082 C1078 1.376 . S
C1082 C1081 1.392 1_545 S
C1082 H1094 0.929 . S
C1083 C1079 1.532 1_565 S
C1083 H1095 0.960 . S
C1083 H1096 0.962 . S
C1083 H1097 0.960 1_565 S
C1084 C1081 1.511 . S
C1084 H1098 0.961 . S
C1084 H1099 0.961 . S
C1084 H1100 0.961 . S
C1085 C1086 1.370 . S
C1085 C1087 1.363 . S
C1085 H1101 0.931 . S
C1086 C1085 1.370 . S
C1086 C1090 1.408 . S
C1087 C1085 1.363 . S
C1087 C1088 1.370 . S
C1087 C1091 1.524 . S
C1088 C1080 1.503 . S
C1088 C1087 1.370 . S
C1088 C1089 1.403 . S
C1089 C1088 1.403 . S
C1089 C1090 1.404 . S
C1089 C1092 1.539 . S
C1090 C1086 1.408 . S
C1090 C1089 1.404 . S
C1090 H1102 0.930 . S
C1091 C1087 1.524 . S
C1091 H1103 0.956 . S
C1091 H1104 0.961 . S
C1091 H1105 0.961 . S
C1092 C1089 1.539 . S
C1092 H1106 0.958 . S
C1092 H1107 0.961 . S
C1092 H1108 0.960 . S
H1093 C1077 0.931 . S
H1094 C1082 0.929 . S
H1095 C1083 0.960 . S
H1096 C1083 0.962 . S
H1097 C1083 0.960 1_545 S
H1098 C1084 0.961 . S
H1099 C1084 0.961 . S
H1100 C1084 0.961 . S
H1101 C1085 0.931 . S
H1102 C1090 0.930 . S
H1103 C1091 0.956 . S
H1104 C1091 0.961 . S
H1105 C1091 0.961 . S
H1106 C1092 0.958 . S
H1107 C1092 0.961 . S
H1108 C1092 0.960 . S
C1109 C1110 1.391 . S
C1109 C1111 1.394 1_655 S
C1109 H1125 0.931 . S
C1110 C1109 1.391 . S
C1110 C1114 1.376 . S
C1111 C1109 1.394 1_455 S
C1111 C1112 1.369 . S
C1111 C1115 1.531 . S
C1112 C1111 1.369 . S
C1112 C1113 1.410 . S
C1112 C1120 1.503 . S
C1113 C1112 1.410 . S
C1113 C1114 1.392 1_455 S
C1113 C1116 1.511 . S
C1114 C1110 1.376 . S
C1114 C1113 1.392 1_655 S
C1114 H1126 0.929 . S
C1115 C1111 1.531 . S
C1115 H1127 0.960 . S
C1115 H1128 0.962 . S
C1115 H1129 0.960 . S
C1116 C1113 1.511 . S
C1116 H1130 0.961 . S
C1116 H1131 0.961 . S
C1116 H1132 0.961 . S
C1117 C1118 1.370 . S
C1117 C1119 1.363 . S
C1117 H1133 0.931 . S
C1118 C1117 1.370 . S
C1118 C1122 1.408 . S
C1119 C1117 1.363 . S
C1119 C1120 1.370 . S
C1119 C1123 1.524 . S
C1120 C1112 1.503 . S
C1120 C1119 1.370 . S
C1120 C1121 1.403 . S
C1121 C1120 1.403 . S
C1121 C1122 1.404 . S
C1121 C1124 1.539 . S
C1122 C1118 1.408 . S
C1122 C1121 1.404 . S
C1122 H1134 0.930 . S
C1123 C1119 1.524 . S
C1123 H1135 0.956 . S
C1123 H1136 0.961 . S
C1123 H1137 0.961 . S
C1124 C1121 1.539 . S
C1124 H1138 0.958 . S
C1124 H1139 0.961 . S
C1124 H1140 0.960 . S
H1125 C1109 0.931 . S
H1126 C1114 0.929 . S
H1127 C1115 0.960 . S
H1128 C1115 0.962 . S
H1129 C1115 0.960 . S
H1130 C1116 0.961 . S
H1131 C1116 0.961 . S
H1132 C1116 0.961 . S
H1133 C1117 0.931 . S
H1134 C1122 0.930 . S
H1135 C1123 0.956 . S
H1136 C1123 0.961 . S
H1137 C1123 0.961 . S
H1138 C1124 0.958 . S
H1139 C1124 0.961 . S
H1140 C1124 0.960 . S
C1141 C1142 1.391 . S
C1141 C1143 1.394 . S
C1141 H1157 0.931 . S
C1142 C1141 1.391 . S
C1142 C1146 1.376 . S
C1143 C1141 1.394 . S
C1143 C1144 1.369 . S
C1143 C1147 1.531 . S
C1144 C1143 1.369 . S
C1144 C1145 1.410 . S
C1144 C1152 1.503 . S
C1145 C1144 1.410 . S
C1145 C1146 1.392 . S
C1145 C1148 1.511 . S
C1146 C1142 1.376 . S
C1146 C1145 1.392 . S
C1146 H1158 0.929 . S
C1147 C1143 1.531 . S
C1147 H1159 0.960 . S
C1147 H1160 0.962 . S
C1147 H1161 0.960 . S
C1148 C1145 1.511 . S
C1148 H1162 0.961 . S
C1148 H1163 0.961 . S
C1148 H1164 0.961 . S
C1149 C1150 1.370 . S
C1149 C1151 1.363 . S
C1149 H1165 0.931 . S
C1150 C1149 1.370 . S
C1150 C1154 1.408 . S
C1151 C1149 1.363 . S
C1151 C1152 1.370 . S
C1151 C1155 1.524 . S
C1152 C1144 1.503 . S
C1152 C1151 1.370 . S
C1152 C1153 1.403 . S
C1153 C1152 1.403 . S
C1153 C1154 1.404 . S
C1153 C1156 1.539 . S
C1154 C1150 1.408 . S
C1154 C1153 1.404 . S
C1154 H1166 0.930 . S
C1155 C1151 1.524 . S
C1155 H1167 0.956 . S
C1155 H1168 0.961 . S
C1155 H1169 0.961 . S
C1156 C1153 1.539 . S
C1156 H1170 0.958 . S
C1156 H1171 0.961 . S
C1156 H1172 0.960 . S
H1157 C1141 0.931 . S
H1158 C1146 0.929 . S
H1159 C1147 0.960 . S
H1160 C1147 0.962 . S
H1161 C1147 0.960 . S
H1162 C1148 0.961 . S
H1163 C1148 0.961 . S
H1164 C1148 0.961 . S
H1165 C1149 0.931 . S
H1166 C1154 0.930 . S
H1167 C1155 0.956 . S
H1168 C1155 0.961 . S
H1169 C1155 0.961 . S
H1170 C1156 0.958 . S
H1171 C1156 0.961 . S
H1172 C1156 0.960 . S
C1173 C1174 1.391 . S
C1173 C1175 1.394 . S
C1173 H1189 0.931 . S
C1174 C1173 1.391 . S
C1174 C1178 1.376 . S
C1175 C1173 1.394 . S
C1175 C1176 1.369 . S
C1175 C1179 1.531 . S
C1176 C1175 1.369 . S
C1176 C1177 1.410 . S
C1176 C1184 1.503 . S
C1177 C1176 1.410 . S
C1177 C1178 1.392 . S
C1177 C1180 1.511 . S
C1178 C1174 1.376 . S
C1178 C1177 1.392 . S
C1178 H1190 0.929 . S
C1179 C1175 1.531 . S
C1179 H1191 0.960 . S
C1179 H1192 0.962 . S
C1179 H1193 0.960 . S
C1180 C1177 1.511 . S
C1180 H1194 0.961 . S
C1180 H1195 0.961 . S
C1180 H1196 0.961 . S
C1181 C1182 1.370 . S
C1181 C1183 1.363 . S
C1181 H1197 0.931 . S
C1182 C1181 1.370 . S
C1182 C1186 1.408 . S
C1183 C1181 1.363 . S
C1183 C1184 1.370 . S
C1183 C1187 1.524 . S
C1184 C1176 1.503 . S
C1184 C1183 1.370 . S
C1184 C1185 1.403 . S
C1185 C1184 1.403 . S
C1185 C1186 1.404 . S
C1185 C1188 1.539 . S
C1186 C1182 1.408 . S
C1186 C1185 1.404 . S
C1186 H1198 0.930 . S
C1187 C1183 1.524 . S
C1187 H1199 0.956 . S
C1187 H1200 0.961 . S
C1187 H1201 0.961 . S
C1188 C1185 1.539 . S
C1188 H1202 0.958 . S
C1188 H1203 0.961 . S
C1188 H1204 0.960 . S
H1189 C1173 0.931 . S
H1190 C1178 0.929 . S
H1191 C1179 0.960 . S
H1192 C1179 0.962 . S
H1193 C1179 0.960 . S
H1194 C1180 0.961 . S
H1195 C1180 0.961 . S
H1196 C1180 0.961 . S
H1197 C1181 0.931 . S
H1198 C1186 0.930 . S
H1199 C1187 0.956 . S
H1200 C1187 0.961 . S
H1201 C1187 0.961 . S
H1202 C1188 0.958 . S
H1203 C1188 0.961 . S
H1204 C1188 0.960 . S
C1205 C1206 1.391 . S
C1205 C1207 1.394 . S
C1205 H1221 0.931 . S
C1206 C1205 1.391 . S
C1206 C1210 1.376 . S
C1207 C1205 1.394 . S
C1207 C1208 1.369 . S
C1207 C1211 1.531 . S
C1208 C1207 1.369 . S
C1208 C1209 1.410 . S
C1208 C1216 1.503 . S
C1209 C1208 1.410 . S
C1209 C1210 1.392 . S
C1209 C1212 1.511 . S
C1210 C1206 1.376 . S
C1210 C1209 1.392 . S
C1210 H1222 0.929 . S
C1211 C1207 1.531 . S
C1211 H1223 0.960 . S
C1211 H1224 0.962 . S
C1211 H1225 0.960 . S
C1212 C1209 1.511 . S
C1212 H1226 0.961 . S
C1212 H1227 0.961 . S
C1212 H1228 0.961 . S
C1213 C1214 1.370 . S
C1213 C1215 1.363 . S
C1213 H1229 0.931 . S
C1214 C1213 1.370 . S
C1214 C1218 1.408 . S
C1215 C1213 1.363 . S
C1215 C1216 1.370 . S
C1215 C1219 1.524 . S
C1216 C1208 1.503 . S
C1216 C1215 1.370 . S
C1216 C1217 1.403 . S
C1217 C1216 1.403 . S
C1217 C1218 1.404 . S
C1217 C1220 1.539 . S
C1218 C1214 1.408 . S
C1218 C1217 1.404 . S
C1218 H1230 0.930 . S
C1219 C1215 1.524 . S
C1219 H1231 0.956 . S
C1219 H1232 0.961 . S
C1219 H1233 0.961 . S
C1220 C1217 1.539 . S
C1220 H1234 0.958 . S
C1220 H1235 0.961 . S
C1220 H1236 0.960 . S
H1221 C1205 0.931 . S
H1222 C1210 0.929 . S
H1223 C1211 0.960 . S
H1224 C1211 0.962 . S
H1225 C1211 0.960 . S
H1226 C1212 0.961 . S
H1227 C1212 0.961 . S
H1228 C1212 0.961 . S
H1229 C1213 0.931 . S
H1230 C1218 0.930 . S
H1231 C1219 0.956 . S
H1232 C1219 0.961 . S
H1233 C1219 0.961 . S
H1234 C1220 0.958 . S
H1235 C1220 0.961 . S
H1236 C1220 0.960 . S
C1237 C1238 1.391 . S
C1237 C1239 1.394 . S
C1237 H1253 0.931 . S
C1238 C1237 1.391 . S
C1238 C1242 1.376 . S
C1239 C1237 1.394 . S
C1239 C1240 1.369 . S
C1239 C1243 1.531 . S
C1240 C1239 1.369 . S
C1240 C1241 1.410 . S
C1240 C1248 1.503 . S
C1241 C1240 1.410 . S
C1241 C1242 1.392 . S
C1241 C1244 1.511 . S
C1242 C1238 1.376 . S
C1242 C1241 1.392 . S
C1242 H1254 0.929 . S
C1243 C1239 1.531 . S
C1243 H1255 0.960 . S
C1243 H1256 0.962 . S
C1243 H1257 0.960 . S
C1244 C1241 1.511 . S
C1244 H1258 0.961 . S
C1244 H1259 0.961 . S
C1244 H1260 0.961 . S
C1245 C1246 1.370 . S
C1245 C1247 1.363 . S
C1245 H1261 0.931 . S
C1246 C1245 1.370 . S
C1246 C1250 1.408 . S
C1247 C1245 1.363 . S
C1247 C1248 1.370 . S
C1247 C1251 1.524 . S
C1248 C1240 1.503 . S
C1248 C1247 1.370 . S
C1248 C1249 1.403 . S
C1249 C1248 1.403 . S
C1249 C1250 1.404 . S
C1249 C1252 1.539 . S
C1250 C1246 1.408 . S
C1250 C1249 1.404 . S
C1250 H1262 0.930 . S
C1251 C1247 1.524 . S
C1251 H1263 0.956 . S
C1251 H1264 0.961 . S
C1251 H1265 0.961 . S
C1252 C1249 1.539 . S
C1252 H1266 0.958 . S
C1252 H1267 0.961 . S
C1252 H1268 0.960 . S
H1253 C1237 0.931 . S
H1254 C1242 0.929 . S
H1255 C1243 0.960 . S
H1256 C1243 0.962 . S
H1257 C1243 0.960 . S
H1258 C1244 0.961 . S
H1259 C1244 0.961 . S
H1260 C1244 0.961 . S
H1261 C1245 0.931 . S
H1262 C1250 0.930 . S
H1263 C1251 0.956 . S
H1264 C1251 0.961 . S
H1265 C1251 0.961 . S
H1266 C1252 0.958 . S
H1267 C1252 0.961 . S
H1268 C1252 0.960 . S
C1269 C1270 1.391 . S
C1269 C1271 1.394 . S
C1269 H1285 0.931 . S
C1270 C1269 1.391 . S
C1270 C1274 1.376 . S
C1271 C1269 1.394 . S
C1271 C1272 1.369 . S
C1271 C1275 1.531 1_565 S
C1272 C1271 1.369 . S
C1272 C1273 1.410 . S
C1272 C1280 1.503 1_565 S
C1273 C1272 1.410 . S
C1273 C1274 1.392 . S
C1273 C1276 1.511 . S
C1274 C1270 1.376 . S
C1274 C1273 1.392 . S
C1274 H1286 0.929 . S
C1275 C1271 1.531 1_545 S
C1275 H1287 0.960 . S
C1275 H1288 0.962 . S
C1275 H1289 0.961 1_545 S
C1276 C1273 1.511 . S
C1276 H1290 0.961 . S
C1276 H1291 0.961 . S
C1276 H1292 0.961 . S
C1277 C1278 1.370 . S
C1277 C1279 1.363 . S
C1277 H1293 0.931 . S
C1278 C1277 1.370 . S
C1278 C1282 1.408 . S
C1279 C1277 1.363 . S
C1279 C1280 1.370 . S
C1279 C1283 1.524 . S
C1280 C1272 1.503 1_545 S
C1280 C1279 1.370 . S
C1280 C1281 1.403 . S
C1281 C1280 1.403 . S
C1281 C1282 1.404 . S
C1281 C1284 1.539 . S
C1282 C1278 1.408 . S
C1282 C1281 1.404 . S
C1282 H1294 0.930 . S
C1283 C1279 1.524 . S
C1283 H1295 0.956 . S
C1283 H1296 0.961 . S
C1283 H1297 0.961 . S
C1284 C1281 1.539 . S
C1284 H1298 0.958 . S
C1284 H1299 0.961 . S
C1284 H1300 0.960 1_545 S
H1285 C1269 0.931 . S
H1286 C1274 0.929 . S
H1287 C1275 0.960 . S
H1288 C1275 0.962 . S
H1289 C1275 0.961 1_565 S
H1290 C1276 0.961 . S
H1291 C1276 0.961 . S
H1292 C1276 0.961 . S
H1293 C1277 0.931 . S
H1294 C1282 0.930 . S
H1295 C1283 0.956 . S
H1296 C1283 0.961 . S
H1297 C1283 0.961 . S
H1298 C1284 0.958 . S
H1299 C1284 0.961 . S
H1300 C1284 0.960 1_565 S
C1301 C1302 1.391 . S
C1301 C1303 1.394 . S
C1301 H1317 0.931 . S
C1302 C1301 1.391 . S
C1302 C1306 1.376 . S
C1303 C1301 1.394 . S
C1303 C1304 1.369 . S
C1303 C1307 1.531 . S
C1304 C1303 1.369 . S
C1304 C1305 1.410 . S
C1304 C1312 1.503 1_455 S
C1305 C1304 1.410 . S
C1305 C1306 1.392 . S
C1305 C1308 1.511 . S
C1306 C1302 1.376 . S
C1306 C1305 1.392 . S
C1306 H1318 0.929 . S
C1307 C1303 1.531 . S
C1307 H1319 0.960 . S
C1307 H1320 0.962 . S
C1307 H1321 0.960 . S
C1308 C1305 1.511 . S
C1308 H1322 0.961 . S
C1308 H1323 0.961 1_455 S
C1308 H1324 0.961 . S
C1309 C1310 1.370 . S
C1309 C1311 1.363 . S
C1309 H1325 0.931 . S
C1310 C1309 1.370 . S
C1310 C1314 1.408 . S
C1311 C1309 1.363 . S
C1311 C1312 1.370 . S
C1311 C1315 1.524 . S
C1312 C1304 1.503 1_655 S
C1312 C1311 1.370 . S
C1312 C1313 1.403 . S
C1313 C1312 1.403 . S
C1313 C1314 1.404 . S
C1313 C1316 1.539 1_655 S
C1314 C1310 1.408 . S
C1314 C1313 1.404 . S
C1314 H1326 0.930 . S
C1315 C1311 1.524 . S
C1315 H1327 0.956 1_655 S
C1315 H1328 0.961 1_655 S
C1315 H1329 0.961 . S
C1316 C1313 1.539 1_455 S
C1316 H1330 0.958 . S
C1316 H1331 0.961 1_455 S
C1316 H1332 0.960 . S
H1317 C1301 0.931 . S
H1318 C1306 0.929 . S
H1319 C1307 0.960 . S
H1320 C1307 0.962 . S
H1321 C1307 0.960 . S
H1322 C1308 0.961 . S
H1323 C1308 0.961 1_655 S
H1324 C1308 0.961 . S
H1325 C1309 0.931 . S
H1326 C1314 0.930 . S
H1327 C1315 0.956 1_455 S
H1328 C1315 0.961 1_455 S
H1329 C1315 0.961 . S
H1330 C1316 0.958 . S
H1331 C1316 0.961 1_655 S
H1332 C1316 0.960 . S
C1333 C1334 1.391 . S
C1333 C1335 1.394 . S
C1333 H1349 0.931 . S
C1334 C1333 1.391 . S
C1334 C1338 1.376 . S
C1335 C1333 1.394 . S
C1335 C1336 1.369 . S
C1335 C1339 1.531 . S
C1336 C1335 1.369 . S
C1336 C1337 1.410 . S
C1336 C1344 1.503 . S
C1337 C1336 1.410 . S
C1337 C1338 1.392 . S
C1337 C1340 1.511 . S
C1338 C1334 1.376 . S
C1338 C1337 1.392 . S
C1338 H1350 0.929 . S
C1339 C1335 1.531 . S
C1339 H1351 0.960 . S
C1339 H1352 0.962 . S
C1339 H1353 0.960 . S
C1340 C1337 1.511 . S
C1340 H1354 0.961 . S
C1340 H1355 0.961 . S
C1340 H1356 0.961 . S
C1341 C1342 1.370 . S
C1341 C1343 1.363 . S
C1341 H1357 0.931 . S
C1342 C1341 1.370 . S
C1342 C1346 1.408 . S
C1343 C1341 1.363 . S
C1343 C1344 1.370 . S
C1343 C1347 1.524 . S
C1344 C1336 1.503 . S
C1344 C1343 1.370 . S
C1344 C1345 1.403 . S
C1345 C1344 1.403 . S
C1345 C1346 1.404 . S
C1345 C1348 1.539 . S
C1346 C1342 1.408 . S
C1346 C1345 1.404 . S
C1346 H1358 0.930 . S
C1347 C1343 1.524 . S
C1347 H1359 0.956 . S
C1347 H1360 0.961 . S
C1347 H1361 0.961 . S
C1348 C1345 1.539 . S
C1348 H1362 0.958 . S
C1348 H1363 0.961 . S
C1348 H1364 0.960 . S
H1349 C1333 0.931 . S
H1350 C1338 0.929 . S
H1351 C1339 0.960 . S
H1352 C1339 0.962 . S
H1353 C1339 0.960 . S
H1354 C1340 0.961 . S
H1355 C1340 0.961 . S
H1356 C1340 0.961 . S
H1357 C1341 0.931 . S
H1358 C1346 0.930 . S
H1359 C1347 0.956 . S
H1360 C1347 0.961 . S
H1361 C1347 0.961 . S
H1362 C1348 0.958 . S
H1363 C1348 0.961 . S
H1364 C1348 0.960 . S
C1365 C1366 1.391 . S
C1365 C1367 1.394 . S
C1365 H1381 0.931 . S
C1366 C1365 1.391 . S
C1366 C1370 1.376 . S
C1367 C1365 1.394 . S
C1367 C1368 1.369 1_455 S
C1367 C1371 1.531 1_455 S
C1368 C1367 1.369 1_655 S
C1368 C1369 1.410 1_655 S
C1368 C1376 1.503 . S
C1369 C1368 1.410 1_455 S
C1369 C1370 1.392 . S
C1369 C1372 1.511 1_455 S
C1370 C1366 1.376 . S
C1370 C1369 1.392 . S
C1370 H1382 0.929 . S
C1371 C1367 1.531 1_655 S
C1371 H1383 0.960 . S
C1371 H1384 0.962 . S
C1371 H1385 0.960 1_655 S
C1372 C1369 1.511 1_655 S
C1372 H1386 0.961 . S
C1372 H1387 0.961 . S
C1372 H1388 0.961 . S
C1373 C1374 1.370 . S
C1373 C1375 1.363 . S
C1373 H1389 0.931 . S
C1374 C1373 1.370 . S
C1374 C1378 1.408 . S
C1375 C1373 1.363 . S
C1375 C1376 1.370 . S
C1375 C1379 1.524 . S
C1376 C1368 1.503 . S
C1376 C1375 1.370 . S
C1376 C1377 1.403 . S
C1377 C1376 1.403 . S
C1377 C1378 1.404 . S
C1377 C1380 1.539 . S
C1378 C1374 1.408 . S
C1378 C1377 1.404 . S
C1378 H1390 0.930 . S
C1379 C1375 1.524 . S
C1379 H1391 0.956 . S
C1379 H1392 0.961 . S
C1379 H1393 0.961 . S
C1380 C1377 1.539 . S
C1380 H1394 0.958 . S
C1380 H1395 0.961 . S
C1380 H1396 0.960 . S
H1381 C1365 0.931 . S
H1382 C1370 0.929 . S
H1383 C1371 0.960 . S
H1384 C1371 0.962 . S
H1385 C1371 0.960 1_455 S
H1386 C1372 0.961 . S
H1387 C1372 0.961 . S
H1388 C1372 0.961 . S
H1389 C1373 0.931 . S
H1390 C1378 0.930 . S
H1391 C1379 0.956 . S
H1392 C1379 0.961 . S
H1393 C1379 0.961 . S
H1394 C1380 0.958 . S
H1395 C1380 0.961 . S
H1396 C1380 0.960 . S
C1397 C1398 1.391 . S
C1397 C1399 1.394 . S
C1397 H1413 0.931 . S
C1398 C1397 1.391 . S
C1398 C1402 1.376 . S
C1399 C1397 1.394 . S
C1399 C1400 1.369 . S
C1399 C1403 1.531 . S
C1400 C1399 1.369 . S
C1400 C1401 1.410 . S
C1400 C1408 1.503 . S
C1401 C1400 1.410 . S
C1401 C1402 1.392 . S
C1401 C1404 1.511 . S
C1402 C1398 1.376 . S
C1402 C1401 1.392 . S
C1402 H1414 0.929 . S
C1403 C1399 1.531 . S
C1403 H1415 0.960 . S
C1403 H1416 0.962 . S
C1403 H1417 0.960 . S
C1404 C1401 1.511 . S
C1404 H1418 0.961 . S
C1404 H1419 0.961 . S
C1404 H1420 0.961 . S
C1405 C1406 1.370 . S
C1405 C1407 1.363 . S
C1405 H1421 0.931 . S
C1406 C1405 1.370 . S
C1406 C1410 1.408 . S
C1407 C1405 1.363 . S
C1407 C1408 1.370 . S
C1407 C1411 1.524 . S
C1408 C1400 1.503 . S
C1408 C1407 1.370 . S
C1408 C1409 1.403 . S
C1409 C1408 1.403 . S
C1409 C1410 1.404 . S
C1409 C1412 1.539 . S
C1410 C1406 1.408 . S
C1410 C1409 1.404 . S
C1410 H1422 0.930 . S
C1411 C1407 1.524 . S
C1411 H1423 0.956 . S
C1411 H1424 0.961 . S
C1411 H1425 0.961 . S
C1412 C1409 1.539 . S
C1412 H1426 0.958 . S
C1412 H1427 0.961 . S
C1412 H1428 0.960 . S
H1413 C1397 0.931 . S
H1414 C1402 0.929 . S
H1415 C1403 0.960 . S
H1416 C1403 0.962 . S
H1417 C1403 0.960 . S
H1418 C1404 0.961 . S
H1419 C1404 0.961 . S
H1420 C1404 0.961 . S
H1421 C1405 0.931 . S
H1422 C1410 0.930 . S
H1423 C1411 0.956 . S
H1424 C1411 0.961 . S
H1425 C1411 0.961 . S
H1426 C1412 0.958 . S
H1427 C1412 0.961 . S
H1428 C1412 0.960 . S
C1429 C1430 1.391 . S
C1429 C1431 1.394 1_565 S
C1429 H1445 0.931 . S
C1430 C1429 1.391 . S
C1430 C1434 1.376 . S
C1431 C1429 1.394 1_545 S
C1431 C1432 1.369 . S
C1431 C1435 1.531 . S
C1432 C1431 1.369 . S
C1432 C1433 1.410 . S
C1432 C1440 1.503 . S
C1433 C1432 1.410 . S
C1433 C1434 1.392 1_545 S
C1433 C1436 1.511 . S
C1434 C1430 1.376 . S
C1434 C1433 1.392 1_565 S
C1434 H1446 0.929 . S
C1435 C1431 1.531 . S
C1435 H1447 0.960 . S
C1435 H1448 0.962 . S
C1435 H1449 0.960 . S
C1436 C1433 1.511 . S
C1436 H1450 0.961 . S
C1436 H1451 0.961 . S
C1436 H1452 0.961 . S
C1437 C1438 1.370 . S
C1437 C1439 1.363 . S
C1437 H1453 0.931 . S
C1438 C1437 1.370 . S
C1438 C1442 1.408 . S
C1439 C1437 1.363 . S
C1439 C1440 1.370 . S
C1439 C1443 1.524 . S
C1440 C1432 1.503 . S
C1440 C1439 1.370 . S
C1440 C1441 1.403 . S
C1441 C1440 1.403 . S
C1441 C1442 1.404 . S
C1441 C1444 1.539 . S
C1442 C1438 1.408 . S
C1442 C1441 1.404 . S
C1442 H1454 0.930 . S
C1443 C1439 1.524 . S
C1443 H1455 0.956 . S
C1443 H1456 0.961 . S
C1443 H1457 0.961 . S
C1444 C1441 1.539 . S
C1444 H1458 0.958 . S
C1444 H1459 0.961 . S
C1444 H1460 0.960 . S
H1445 C1429 0.931 . S
H1446 C1434 0.929 . S
H1447 C1435 0.960 . S
H1448 C1435 0.962 . S
H1449 C1435 0.960 . S
H1450 C1436 0.961 . S
H1451 C1436 0.961 . S
H1452 C1436 0.961 . S
H1453 C1437 0.931 . S
H1454 C1442 0.930 . S
H1455 C1443 0.956 . S
H1456 C1443 0.961 . S
H1457 C1443 0.961 . S
H1458 C1444 0.958 . S
H1459 C1444 0.961 . S
H1460 C1444 0.960 . S
C1461 C1462 1.391 . S
C1461 C1463 1.394 . S
C1461 H1477 0.931 . S
C1462 C1461 1.391 . S
C1462 C1466 1.376 . S
C1463 C1461 1.394 . S
C1463 C1464 1.369 . S
C1463 C1467 1.531 . S
C1464 C1463 1.369 . S
C1464 C1465 1.410 . S
C1464 C1472 1.503 . S
C1465 C1464 1.410 . S
C1465 C1466 1.392 . S
C1465 C1468 1.511 . S
C1466 C1462 1.376 . S
C1466 C1465 1.392 . S
C1466 H1478 0.929 . S
C1467 C1463 1.531 . S
C1467 H1479 0.960 . S
C1467 H1480 0.962 . S
C1467 H1481 0.960 . S
C1468 C1465 1.511 . S
C1468 H1482 0.961 . S
C1468 H1483 0.961 . S
C1468 H1484 0.961 . S
C1469 C1470 1.370 . S
C1469 C1471 1.363 . S
C1469 H1485 0.931 . S
C1470 C1469 1.370 . S
C1470 C1474 1.408 . S
C1471 C1469 1.363 . S
C1471 C1472 1.370 . S
C1471 C1475 1.524 . S
C1472 C1464 1.503 . S
C1472 C1471 1.370 . S
C1472 C1473 1.403 . S
C1473 C1472 1.403 . S
C1473 C1474 1.404 . S
C1473 C1476 1.539 . S
C1474 C1470 1.408 . S
C1474 C1473 1.404 . S
C1474 H1486 0.930 . S
C1475 C1471 1.524 . S
C1475 H1487 0.956 . S
C1475 H1488 0.961 . S
C1475 H1489 0.961 . S
C1476 C1473 1.539 . S
C1476 H1490 0.958 . S
C1476 H1491 0.961 . S
C1476 H1492 0.960 . S
H1477 C1461 0.931 . S
H1478 C1466 0.929 . S
H1479 C1467 0.960 . S
H1480 C1467 0.962 . S
H1481 C1467 0.960 . S
H1482 C1468 0.961 . S
H1483 C1468 0.961 . S
H1484 C1468 0.961 . S
H1485 C1469 0.931 . S
H1486 C1474 0.930 . S
H1487 C1475 0.956 . S
H1488 C1475 0.961 . S
H1489 C1475 0.961 . S
H1490 C1476 0.958 . S
H1491 C1476 0.961 . S
H1492 C1476 0.960 . S
C1493 C1494 1.391 . S
C1493 C1495 1.394 . S
C1493 H1509 0.931 . S
C1494 C1493 1.391 . S
C1494 C1498 1.376 . S
C1495 C1493 1.394 . S
C1495 C1496 1.369 . S
C1495 C1499 1.531 . S
C1496 C1495 1.369 . S
C1496 C1497 1.410 . S
C1496 C1504 1.503 . S
C1497 C1496 1.410 . S
C1497 C1498 1.392 . S
C1497 C1500 1.511 . S
C1498 C1494 1.376 . S
C1498 C1497 1.392 . S
C1498 H1510 0.929 . S
C1499 C1495 1.531 . S
C1499 H1511 0.960 . S
C1499 H1512 0.962 . S
C1499 H1513 0.960 . S
C1500 C1497 1.511 . S
C1500 H1514 0.961 . S
C1500 H1515 0.961 . S
C1500 H1516 0.961 . S
C1501 C1502 1.370 . S
C1501 C1503 1.363 . S
C1501 H1517 0.931 . S
C1502 C1501 1.370 . S
C1502 C1506 1.408 . S
C1503 C1501 1.363 . S
C1503 C1504 1.370 . S
C1503 C1507 1.524 . S
C1504 C1496 1.503 . S
C1504 C1503 1.370 . S
C1504 C1505 1.403 . S
C1505 C1504 1.403 . S
C1505 C1506 1.404 . S
C1505 C1508 1.539 . S
C1506 C1502 1.408 . S
C1506 C1505 1.404 . S
C1506 H1518 0.930 . S
C1507 C1503 1.524 . S
C1507 H1519 0.956 . S
C1507 H1520 0.961 . S
C1507 H1521 0.961 . S
C1508 C1505 1.539 . S
C1508 H1522 0.958 . S
C1508 H1523 0.961 . S
C1508 H1524 0.960 . S
H1509 C1493 0.931 . S
H1510 C1498 0.929 . S
H1511 C1499 0.960 . S
H1512 C1499 0.962 . S
H1513 C1499 0.960 . S
H1514 C1500 0.961 . S
H1515 C1500 0.961 . S
H1516 C1500 0.961 . S
H1517 C1501 0.931 . S
H1518 C1506 0.930 . S
H1519 C1507 0.956 . S
H1520 C1507 0.961 . S
H1521 C1507 0.961 . S
H1522 C1508 0.958 . S
H1523 C1508 0.961 . S
H1524 C1508 0.960 . S
C1525 C1526 1.391 . S
C1525 C1527 1.394 . S
C1525 H1541 0.931 . S
C1526 C1525 1.391 . S
C1526 C1530 1.376 . S
C1527 C1525 1.394 . S
C1527 C1528 1.369 . S
C1527 C1531 1.531 . S
C1528 C1527 1.369 . S
C1528 C1529 1.410 . S
C1528 C1536 1.503 . S
C1529 C1528 1.410 . S
C1529 C1530 1.392 . S
C1529 C1532 1.511 . S
C1530 C1526 1.376 . S
C1530 C1529 1.392 . S
C1530 H1542 0.929 . S
C1531 C1527 1.531 . S
C1531 H1543 0.960 . S
C1531 H1544 0.962 . S
C1531 H1545 0.960 . S
C1532 C1529 1.511 . S
C1532 H1546 0.961 . S
C1532 H1547 0.961 . S
C1532 H1548 0.961 . S
C1533 C1534 1.370 . S
C1533 C1535 1.363 . S
C1533 H1549 0.931 . S
C1534 C1533 1.370 . S
C1534 C1538 1.408 . S
C1535 C1533 1.363 . S
C1535 C1536 1.370 . S
C1535 C1539 1.524 . S
C1536 C1528 1.503 . S
C1536 C1535 1.370 . S
C1536 C1537 1.403 . S
C1537 C1536 1.403 . S
C1537 C1538 1.404 . S
C1537 C1540 1.539 . S
C1538 C1534 1.408 . S
C1538 C1537 1.404 . S
C1538 H1550 0.930 . S
C1539 C1535 1.524 . S
C1539 H1551 0.956 . S
C1539 H1552 0.961 . S
C1539 H1553 0.961 . S
C1540 C1537 1.539 . S
C1540 H1554 0.958 . S
C1540 H1555 0.961 . S
C1540 H1556 0.960 . S
H1541 C1525 0.931 . S
H1542 C1530 0.929 . S
H1543 C1531 0.960 . S
H1544 C1531 0.962 . S
H1545 C1531 0.960 . S
H1546 C1532 0.961 . S
H1547 C1532 0.961 . S
H1548 C1532 0.961 . S
H1549 C1533 0.931 . S
H1550 C1538 0.930 . S
H1551 C1539 0.956 . S
H1552 C1539 0.961 . S
H1553 C1539 0.961 . S
H1554 C1540 0.958 . S
H1555 C1540 0.961 . S
H1556 C1540 0.960 . S
C1557 C1558 1.391 . S
C1557 C1559 1.394 . S
C1557 H1573 0.931 . S
C1558 C1557 1.391 . S
C1558 C1562 1.376 . S
C1559 C1557 1.394 . S
C1559 C1560 1.369 . S
C1559 C1563 1.531 . S
C1560 C1559 1.369 . S
C1560 C1561 1.410 . S
C1560 C1568 1.503 . S
C1561 C1560 1.410 . S
C1561 C1562 1.392 . S
C1561 C1564 1.527 . S
C1562 C1558 1.376 . S
C1562 C1561 1.392 . S
C1562 H1574 0.929 . S
C1563 C1559 1.531 . S
C1563 H1575 0.960 . S
C1563 H1576 0.962 . S
C1563 H1577 0.960 . S
C1564 C1561 1.527 . S
C1564 H1578 0.985 . S
C1564 H1579 0.968 . S
C1564 H1580 0.916 1_565 S
C1565 C1566 1.370 . S
C1565 C1567 1.363 . S
C1565 H1581 0.931 . S
C1566 C1565 1.370 . S
C1566 C1570 1.408 1_565 S
C1567 C1565 1.363 . S
C1567 C1568 1.370 . S
C1567 C1571 1.524 . S
C1568 C1560 1.503 . S
C1568 C1567 1.370 . S
C1568 C1569 1.403 . S
C1569 C1568 1.403 . S
C1569 C1570 1.404 1_565 S
C1569 C1572 1.539 1_565 S
C1570 C1566 1.408 1_545 S
C1570 C1569 1.404 1_545 S
C1570 H1582 0.930 . S
C1571 C1567 1.524 . S
C1571 H1583 0.956 . S
C1571 H1584 0.961 . S
C1571 H1585 0.961 . S
C1572 C1569 1.539 1_545 S
C1572 H1586 0.958 . S
C1572 H1587 0.961 . S
C1572 H1588 0.960 . S
H1573 C1557 0.931 . S
H1574 C1562 0.929 . S
H1575 C1563 0.960 . S
H1576 C1563 0.962 . S
H1577 C1563 0.960 . S
H1578 C1564 0.985 . S
H1579 C1564 0.968 . S
H1580 C1564 0.916 1_545 S
H1581 C1565 0.931 . S
H1582 C1570 0.930 . S
H1583 C1571 0.956 . S
H1584 C1571 0.961 . S
H1585 C1571 0.961 . S
H1586 C1572 0.958 . S
H1587 C1572 0.961 . S
H1588 C1572 0.960 . S
C1589 C1590 1.391 . S
C1589 C1591 1.394 . S
C1589 H1605 0.931 . S
C1590 C1589 1.391 . S
C1590 C1594 1.376 . S
C1591 C1589 1.394 . S
C1591 C1592 1.369 . S
C1591 C1595 1.531 . S
C1592 C1591 1.369 . S
C1592 C1593 1.410 . S
C1592 C1600 1.503 . S
C1593 C1592 1.410 . S
C1593 C1594 1.392 . S
C1593 C1596 1.511 . S
C1594 C1590 1.376 . S
C1594 C1593 1.392 . S
C1594 H1606 0.929 . S
C1595 C1591 1.531 . S
C1595 H1607 0.960 . S
C1595 H1608 0.962 . S
C1595 H1609 0.960 . S
C1596 C1593 1.511 . S
C1596 H1610 0.961 . S
C1596 H1611 0.961 . S
C1596 H1612 0.961 . S
C1597 C1598 1.370 . S
C1597 C1599 1.363 . S
C1597 H1613 0.931 . S
C1598 C1597 1.370 . S
C1598 C1602 1.408 . S
C1599 C1597 1.363 . S
C1599 C1600 1.370 . S
C1599 C1603 1.524 . S
C1600 C1592 1.503 . S
C1600 C1599 1.370 . S
C1600 C1601 1.403 . S
C1601 C1600 1.403 . S
C1601 C1602 1.404 . S
C1601 C1604 1.539 . S
C1602 C1598 1.408 . S
C1602 C1601 1.404 . S
C1602 H1614 0.930 . S
C1603 C1599 1.524 . S
C1603 H1615 0.956 . S
C1603 H1616 0.961 . S
C1603 H1617 0.961 . S
C1604 C1601 1.539 . S
C1604 H1618 0.958 . S
C1604 H1619 0.961 . S
C1604 H1620 0.960 . S
H1605 C1589 0.931 . S
H1606 C1594 0.929 . S
H1607 C1595 0.960 . S
H1608 C1595 0.962 . S
H1609 C1595 0.960 . S
H1610 C1596 0.961 . S
H1611 C1596 0.961 . S
H1612 C1596 0.961 . S
H1613 C1597 0.931 . S
H1614 C1602 0.930 . S
H1615 C1603 0.956 . S
H1616 C1603 0.961 . S
H1617 C1603 0.961 . S
H1618 C1604 0.958 . S
H1619 C1604 0.961 . S
H1620 C1604 0.960 . S
C1621 C1622 1.391 . S
C1621 C1623 1.394 . S
C1621 H1637 0.931 . S
C1622 C1621 1.391 . S
C1622 C1626 1.376 . S
C1623 C1621 1.394 . S
C1623 C1624 1.369 . S
C1623 C1627 1.531 . S
C1624 C1623 1.369 . S
C1624 C1625 1.410 . S
C1624 C1632 1.503 . S
C1625 C1624 1.410 . S
C1625 C1626 1.392 . S
C1625 C1628 1.511 . S
C1626 C1622 1.376 . S
C1626 C1625 1.392 . S
C1626 H1638 0.929 . S
C1627 C1623 1.531 . S
C1627 H1639 0.960 . S
C1627 H1640 0.962 . S
C1627 H1641 0.960 . S
C1628 C1625 1.511 . S
C1628 H1642 0.961 . S
C1628 H1643 0.961 . S
C1628 H1644 0.961 . S
C1629 C1630 1.370 . S
C1629 C1631 1.363 . S
C1629 H1645 0.931 . S
C1630 C1629 1.370 . S
C1630 C1634 1.408 . S
C1631 C1629 1.363 . S
C1631 C1632 1.370 . S
C1631 C1635 1.524 . S
C1632 C1624 1.503 . S
C1632 C1631 1.370 . S
C1632 C1633 1.403 . S
C1633 C1632 1.403 . S
C1633 C1634 1.404 . S
C1633 C1636 1.539 . S
C1634 C1630 1.408 . S
C1634 C1633 1.404 . S
C1634 H1646 0.930 . S
C1635 C1631 1.524 . S
C1635 H1647 0.956 . S
C1635 H1648 0.961 . S
C1635 H1649 0.961 . S
C1636 C1633 1.539 . S
C1636 H1650 0.958 . S
C1636 H1651 0.961 . S
C1636 H1652 0.960 . S
H1637 C1621 0.931 . S
H1638 C1626 0.929 . S
H1639 C1627 0.960 . S
H1640 C1627 0.962 . S
H1641 C1627 0.960 . S
H1642 C1628 0.961 . S
H1643 C1628 0.961 . S
H1644 C1628 0.961 . S
H1645 C1629 0.931 . S
H1646 C1634 0.930 . S
H1647 C1635 0.956 . S
H1648 C1635 0.961 . S
H1649 C1635 0.961 . S
H1650 C1636 0.958 . S
H1651 C1636 0.961 . S
H1652 C1636 0.960 . S
C1653 C1654 1.391 . S
C1653 C1655 1.394 . S
C1653 H1669 0.931 . S
C1654 C1653 1.391 . S
C1654 C1658 1.376 . S
C1655 C1653 1.394 . S
C1655 C1656 1.369 . S
C1655 C1659 1.531 . S
C1656 C1655 1.369 . S
C1656 C1657 1.410 . S
C1656 C1664 1.503 . S
C1657 C1656 1.410 . S
C1657 C1658 1.392 . S
C1657 C1660 1.511 1_655 S
C1658 C1654 1.376 . S
C1658 C1657 1.392 . S
C1658 H1670 0.929 . S
C1659 C1655 1.531 . S
C1659 H1671 0.960 . S
C1659 H1672 0.962 . S
C1659 H1673 0.960 . S
C1660 C1657 1.511 1_455 S
C1660 H1674 0.961 . S
C1660 H1675 0.961 . S
C1660 H1676 0.961 . S
C1661 C1662 1.370 . S
C1661 C1663 1.363 . S
C1661 H1677 0.931 . S
C1662 C1661 1.370 . S
C1662 C1666 1.408 . S
C1663 C1661 1.363 . S
C1663 C1664 1.370 . S
C1663 C1667 1.524 . S
C1664 C1656 1.503 . S
C1664 C1663 1.370 . S
C1664 C1665 1.403 . S
C1665 C1664 1.403 . S
C1665 C1666 1.404 . S
C1665 C1668 1.539 . S
C1666 C1662 1.408 . S
C1666 C1665 1.404 . S
C1666 H1678 0.930 . S
C1667 C1663 1.524 . S
C1667 H1679 0.956 . S
C1667 H1680 0.961 . S
C1667 H1681 0.961 . S
C1668 C1665 1.539 . S
C1668 H1682 0.958 . S
C1668 H1683 0.961 . S
C1668 H1684 0.960 . S
H1669 C1653 0.931 . S
H1670 C1658 0.929 . S
H1671 C1659 0.960 . S
H1672 C1659 0.962 . S
H1673 C1659 0.960 . S
H1674 C1660 0.961 . S
H1675 C1660 0.961 . S
H1676 C1660 0.961 . S
H1677 C1661 0.931 . S
H1678 C1666 0.930 . S
H1679 C1667 0.956 . S
H1680 C1667 0.961 . S
H1681 C1667 0.961 . S
H1682 C1668 0.958 . S
H1683 C1668 0.961 . S
H1684 C1668 0.960 . S
C1685 C1686 1.391 . S
C1685 C1687 1.394 . S
C1685 H1701 0.931 . S
C1686 C1685 1.391 . S
C1686 C1690 1.376 . S
C1687 C1685 1.394 . S
C1687 C1688 1.369 . S
C1687 C1691 1.531 . S
C1688 C1687 1.369 . S
C1688 C1689 1.410 . S
C1688 C1696 1.503 . S
C1689 C1688 1.410 . S
C1689 C1690 1.392 . S
C1689 C1692 1.511 . S
C1690 C1686 1.376 . S
C1690 C1689 1.392 . S
C1690 H1702 0.929 . S
C1691 C1687 1.531 . S
C1691 H1703 0.960 . S
C1691 H1704 0.962 . S
C1691 H1705 0.960 . S
C1692 C1689 1.511 . S
C1692 H1706 0.961 . S
C1692 H1707 0.961 . S
C1692 H1708 0.961 . S
C1693 C1694 1.370 . S
C1693 C1695 1.363 . S
C1693 H1709 0.931 . S
C1694 C1693 1.370 . S
C1694 C1698 1.408 . S
C1695 C1693 1.363 . S
C1695 C1696 1.370 . S
C1695 C1699 1.524 . S
C1696 C1688 1.503 . S
C1696 C1695 1.370 . S
C1696 C1697 1.403 . S
C1697 C1696 1.403 . S
C1697 C1698 1.404 . S
C1697 C1700 1.539 . S
C1698 C1694 1.408 . S
C1698 C1697 1.404 . S
C1698 H1710 0.930 . S
C1699 C1695 1.524 . S
C1699 H1711 0.956 . S
C1699 H1712 0.961 . S
C1699 H1713 0.961 . S
C1700 C1697 1.539 . S
C1700 H1714 0.958 . S
C1700 H1715 0.961 . S
C1700 H1716 0.960 . S
H1701 C1685 0.931 . S
H1702 C1690 0.929 . S
H1703 C1691 0.960 . S
H1704 C1691 0.962 . S
H1705 C1691 0.960 . S
H1706 C1692 0.961 . S
H1707 C1692 0.961 . S
H1708 C1692 0.961 . S
H1709 C1693 0.931 . S
H1710 C1698 0.930 . S
H1711 C1699 0.956 . S
H1712 C1699 0.961 . S
H1713 C1699 0.961 . S
H1714 C1700 0.958 . S
H1715 C1700 0.961 . S
H1716 C1700 0.960 . S
C1717 C1718 1.391 . S
C1717 C1719 1.394 . S
C1717 H1733 0.931 . S
C1718 C1717 1.391 . S
C1718 C1722 1.376 . S
C1719 C1717 1.394 . S
C1719 C1720 1.369 . S
C1719 C1723 1.531 . S
C1720 C1719 1.369 . S
C1720 C1721 1.410 . S
C1720 C1728 1.503 . S
C1721 C1720 1.410 . S
C1721 C1722 1.392 . S
C1721 C1724 1.511 . S
C1722 C1718 1.376 . S
C1722 C1721 1.392 . S
C1722 H1734 0.929 . S
C1723 C1719 1.531 . S
C1723 H1735 0.960 . S
C1723 H1736 0.962 . S
C1723 H1737 0.960 . S
C1724 C1721 1.511 . S
C1724 H1738 0.961 . S
C1724 H1739 0.961 . S
C1724 H1740 0.961 . S
C1725 C1726 1.370 . S
C1725 C1727 1.363 . S
C1725 H1741 0.931 . S
C1726 C1725 1.370 . S
C1726 C1730 1.408 . S
C1727 C1725 1.363 . S
C1727 C1728 1.370 . S
C1727 C1731 1.524 . S
C1728 C1720 1.503 . S
C1728 C1727 1.370 . S
C1728 C1729 1.403 . S
C1729 C1728 1.403 . S
C1729 C1730 1.404 . S
C1729 C1732 1.539 . S
C1730 C1726 1.408 . S
C1730 C1729 1.404 . S
C1730 H1742 0.930 1_545 S
C1731 C1727 1.524 . S
C1731 H1743 0.956 . S
C1731 H1744 0.961 . S
C1731 H1745 0.961 . S
C1732 C1729 1.539 . S
C1732 H1746 0.958 1_545 S
C1732 H1747 0.961 1_545 S
C1732 H1748 0.960 . S
H1733 C1717 0.931 . S
H1734 C1722 0.929 . S
H1735 C1723 0.960 . S
H1736 C1723 0.962 . S
H1737 C1723 0.960 . S
H1738 C1724 0.961 . S
H1739 C1724 0.961 . S
H1740 C1724 0.961 . S
H1741 C1725 0.931 . S
H1742 C1730 0.930 1_565 S
H1743 C1731 0.956 . S
H1744 C1731 0.961 . S
H1745 C1731 0.961 . S
H1746 C1732 0.958 1_565 S
H1747 C1732 0.961 1_565 S
H1748 C1732 0.960 . S
C1749 C1750 1.391 . S
C1749 C1751 1.394 . S
C1749 H1765 0.931 . S
C1750 C1749 1.391 . S
C1750 C1754 1.376 . S
C1751 C1749 1.394 . S
C1751 C1752 1.369 . S
C1751 C1755 1.531 . S
C1752 C1751 1.369 . S
C1752 C1753 1.410 . S
C1752 C1760 1.503 . S
C1753 C1752 1.410 . S
C1753 C1754 1.392 . S
C1753 C1756 1.511 . S
C1754 C1750 1.376 . S
C1754 C1753 1.392 . S
C1754 H1766 0.929 . S
C1755 C1751 1.531 . S
C1755 H1767 0.960 . S
C1755 H1768 0.962 . S
C1755 H1769 0.960 . S
C1756 C1753 1.511 . S
C1756 H1770 0.961 . S
C1756 H1771 0.961 . S
C1756 H1772 0.961 . S
C1757 C1758 1.370 . S
C1757 C1759 1.363 . S
C1757 H1773 0.931 . S
C1758 C1757 1.370 . S
C1758 C1762 1.408 . S
C1759 C1757 1.363 . S
C1759 C1760 1.370 . S
C1759 C1763 1.524 . S
C1760 C1752 1.503 . S
C1760 C1759 1.370 . S
C1760 C1761 1.403 . S
C1761 C1760 1.403 . S
C1761 C1762 1.404 . S
C1761 C1764 1.539 . S
C1762 C1758 1.408 . S
C1762 C1761 1.404 . S
C1762 H1774 0.930 . S
C1763 C1759 1.524 . S
C1763 H1775 0.956 . S
C1763 H1776 0.961 . S
C1763 H1777 0.961 . S
C1764 C1761 1.539 . S
C1764 H1778 0.958 . S
C1764 H1779 0.961 . S
C1764 H1780 0.960 . S
H1765 C1749 0.931 . S
H1766 C1754 0.929 . S
H1767 C1755 0.960 . S
H1768 C1755 0.962 . S
H1769 C1755 0.960 . S
H1770 C1756 0.961 . S
H1771 C1756 0.961 . S
H1772 C1756 0.961 . S
H1773 C1757 0.931 . S
H1774 C1762 0.930 . S
H1775 C1763 0.956 . S
H1776 C1763 0.961 . S
H1777 C1763 0.961 . S
H1778 C1764 0.958 . S
H1779 C1764 0.961 . S
H1780 C1764 0.960 . S
C1781 C1782 1.391 . S
C1781 C1783 1.394 . S
C1781 H1797 0.931 . S
C1782 C1781 1.391 . S
C1782 C1786 1.376 . S
C1783 C1781 1.394 . S
C1783 C1784 1.369 . S
C1783 C1787 1.531 . S
C1784 C1783 1.369 . S
C1784 C1785 1.410 . S
C1784 C1792 1.503 . S
C1785 C1784 1.410 . S
C1785 C1786 1.392 . S
C1785 C1788 1.511 . S
C1786 C1782 1.376 . S
C1786 C1785 1.392 . S
C1786 H1798 0.929 . S
C1787 C1783 1.531 . S
C1787 H1799 0.960 . S
C1787 H1800 0.962 . S
C1787 H1801 0.960 . S
C1788 C1785 1.511 . S
C1788 H1802 0.961 . S
C1788 H1803 0.961 . S
C1788 H1804 0.961 . S
C1789 C1790 1.370 . S
C1789 C1791 1.363 . S
C1789 H1805 0.931 . S
C1790 C1789 1.370 . S
C1790 C1794 1.408 . S
C1791 C1789 1.363 . S
C1791 C1792 1.370 . S
C1791 C1795 1.524 . S
C1792 C1784 1.503 . S
C1792 C1791 1.370 . S
C1792 C1793 1.403 . S
C1793 C1792 1.403 . S
C1793 C1794 1.404 . S
C1793 C1796 1.539 . S
C1794 C1790 1.408 . S
C1794 C1793 1.404 . S
C1794 H1806 0.930 . S
C1795 C1791 1.524 . S
C1795 H1807 0.956 . S
C1795 H1808 0.961 . S
C1795 H1809 0.961 . S
C1796 C1793 1.539 . S
C1796 H1810 0.958 . S
C1796 H1811 0.961 . S
C1796 H1812 0.960 . S
H1797 C1781 0.931 . S
H1798 C1786 0.929 . S
H1799 C1787 0.960 . S
H1800 C1787 0.962 . S
H1801 C1787 0.960 . S
H1802 C1788 0.961 . S
H1803 C1788 0.961 . S
H1804 C1788 0.961 . S
H1805 C1789 0.931 . S
H1806 C1794 0.930 . S
H1807 C1795 0.956 . S
H1808 C1795 0.961 . S
H1809 C1795 0.961 . S
H1810 C1796 0.958 . S
H1811 C1796 0.961 . S
H1812 C1796 0.960 . S
C1813 C1814 1.391 . S
C1813 C1815 1.394 . S
C1813 H1829 0.931 . S
C1814 C1813 1.391 . S
C1814 C1818 1.376 . S
C1815 C1813 1.394 . S
C1815 C1816 1.369 . S
C1815 C1819 1.531 . S
C1816 C1815 1.369 . S
C1816 C1817 1.410 . S
C1816 C1824 1.503 . S
C1817 C1816 1.410 . S
C1817 C1818 1.392 . S
C1817 C1820 1.511 . S
C1818 C1814 1.376 . S
C1818 C1817 1.392 . S
C1818 H1830 0.929 . S
C1819 C1815 1.531 . S
C1819 H1831 0.960 . S
C1819 H1832 0.962 . S
C1819 H1833 0.960 . S
C1820 C1817 1.511 . S
C1820 H1834 0.961 . S
C1820 H1835 0.961 . S
C1820 H1836 0.961 . S
C1821 C1822 1.370 . S
C1821 C1823 1.363 . S
C1821 H1837 0.931 . S
C1822 C1821 1.370 . S
C1822 C1826 1.408 . S
C1823 C1821 1.363 . S
C1823 C1824 1.370 . S
C1823 C1827 1.524 . S
C1824 C1816 1.503 . S
C1824 C1823 1.370 . S
C1824 C1825 1.403 . S
C1825 C1824 1.403 . S
C1825 C1826 1.404 . S
C1825 C1828 1.539 . S
C1826 C1822 1.408 . S
C1826 C1825 1.404 . S
C1826 H1838 0.930 . S
C1827 C1823 1.524 . S
C1827 H1839 0.956 . S
C1827 H1840 0.961 . S
C1827 H1841 0.961 . S
C1828 C1825 1.539 . S
C1828 H1842 0.958 . S
C1828 H1843 0.961 . S
C1828 H1844 0.960 . S
H1829 C1813 0.931 . S
H1830 C1818 0.929 . S
H1831 C1819 0.960 . S
H1832 C1819 0.962 . S
H1833 C1819 0.960 . S
H1834 C1820 0.961 . S
H1835 C1820 0.961 . S
H1836 C1820 0.961 . S
H1837 C1821 0.931 . S
H1838 C1826 0.930 . S
H1839 C1827 0.956 . S
H1840 C1827 0.961 . S
H1841 C1827 0.961 . S
H1842 C1828 0.958 . S
H1843 C1828 0.961 . S
H1844 C1828 0.960 . S
C1845 C1846 1.391 . S
C1845 C1847 1.394 . S
C1845 H1861 0.931 . S
C1846 C1845 1.391 . S
C1846 C1850 1.376 . S
C1847 C1845 1.394 . S
C1847 C1848 1.369 . S
C1847 C1851 1.531 . S
C1848 C1847 1.369 . S
C1848 C1849 1.410 . S
C1848 C1856 1.503 . S
C1849 C1848 1.410 . S
C1849 C1850 1.392 . S
C1849 C1852 1.511 . S
C1850 C1846 1.376 . S
C1850 C1849 1.392 . S
C1850 H1862 0.929 . S
C1851 C1847 1.531 . S
C1851 H1863 0.960 . S
C1851 H1864 0.962 . S
C1851 H1865 0.960 . S
C1852 C1849 1.511 . S
C1852 H1866 0.961 . S
C1852 H1867 0.961 . S
C1852 H1868 0.961 . S
C1853 C1854 1.370 . S
C1853 C1855 1.363 . S
C1853 H1869 0.931 . S
C1854 C1853 1.370 . S
C1854 C1858 1.408 . S
C1855 C1853 1.363 . S
C1855 C1856 1.370 . S
C1855 C1859 1.524 . S
C1856 C1848 1.503 . S
C1856 C1855 1.370 . S
C1856 C1857 1.403 . S
C1857 C1856 1.403 . S
C1857 C1858 1.404 . S
C1857 C1860 1.539 . S
C1858 C1854 1.408 . S
C1858 C1857 1.404 . S
C1858 H1870 0.930 . S
C1859 C1855 1.524 . S
C1859 H1871 0.956 . S
C1859 H1872 0.961 . S
C1859 H1873 0.961 . S
C1860 C1857 1.539 . S
C1860 H1874 0.958 . S
C1860 H1875 0.961 . S
C1860 H1876 0.960 . S
H1861 C1845 0.931 . S
H1862 C1850 0.929 . S
H1863 C1851 0.960 . S
H1864 C1851 0.962 . S
H1865 C1851 0.960 . S
H1866 C1852 0.961 . S
H1867 C1852 0.961 . S
H1868 C1852 0.961 . S
H1869 C1853 0.931 . S
H1870 C1858 0.930 . S
H1871 C1859 0.956 . S
H1872 C1859 0.961 . S
H1873 C1859 0.961 . S
H1874 C1860 0.958 . S
H1875 C1860 0.961 . S
H1876 C1860 0.960 . S
C1877 C1878 1.391 . S
C1877 C1879 1.394 . S
C1877 H1893 0.931 . S
C1878 C1877 1.391 . S
C1878 C1882 1.376 . S
C1879 C1877 1.394 . S
C1879 C1880 1.369 . S
C1879 C1883 1.531 . S
C1880 C1879 1.369 . S
C1880 C1881 1.410 . S
C1880 C1888 1.503 . S
C1881 C1880 1.410 . S
C1881 C1882 1.392 . S
C1881 C1884 1.511 . S
C1882 C1878 1.376 . S
C1882 C1881 1.392 . S
C1882 H1894 0.929 . S
C1883 C1879 1.531 . S
C1883 H1895 0.960 . S
C1883 H1896 0.962 . S
C1883 H1897 0.960 . S
C1884 C1881 1.511 . S
C1884 H1898 0.961 . S
C1884 H1899 0.961 . S
C1884 H1900 0.961 . S
C1885 C1886 1.370 . S
C1885 C1887 1.363 . S
C1885 H1901 0.931 . S
C1886 C1885 1.370 . S
C1886 C1890 1.408 . S
C1887 C1885 1.363 . S
C1887 C1888 1.370 . S
C1887 C1891 1.524 . S
C1888 C1880 1.503 . S
C1888 C1887 1.370 . S
C1888 C1889 1.403 . S
C1889 C1888 1.403 . S
C1889 C1890 1.404 . S
C1889 C1892 1.539 . S
C1890 C1886 1.408 . S
C1890 C1889 1.404 . S
C1890 H1902 0.930 . S
C1891 C1887 1.524 . S
C1891 H1903 0.956 . S
C1891 H1904 0.961 . S
C1891 H1905 0.961 . S
C1892 C1889 1.539 . S
C1892 H1906 0.958 . S
C1892 H1907 0.961 . S
C1892 H1908 0.960 . S
H1893 C1877 0.931 . S
H1894 C1882 0.929 . S
H1895 C1883 0.960 . S
H1896 C1883 0.962 . S
H1897 C1883 0.960 . S
H1898 C1884 0.961 . S
H1899 C1884 0.961 . S
H1900 C1884 0.961 . S
H1901 C1885 0.931 . S
H1902 C1890 0.930 . S
H1903 C1891 0.956 . S
H1904 C1891 0.961 . S
H1905 C1891 0.961 . S
H1906 C1892 0.958 . S
H1907 C1892 0.961 . S
H1908 C1892 0.960 . S
C1909 C1910 1.391 . S
C1909 C1911 1.394 . S
C1909 H1925 0.931 . S
C1910 C1909 1.391 . S
C1910 C1914 1.376 . S
C1911 C1909 1.394 . S
C1911 C1912 1.369 . S
C1911 C1915 1.531 . S
C1912 C1911 1.369 . S
C1912 C1913 1.410 . S
C1912 C1920 1.503 . S
C1913 C1912 1.410 . S
C1913 C1914 1.392 . S
C1913 C1916 1.511 . S
C1914 C1910 1.376 . S
C1914 C1913 1.392 . S
C1914 H1926 0.929 . S
C1915 C1911 1.531 . S
C1915 H1927 0.960 . S
C1915 H1928 0.962 . S
C1915 H1929 0.960 . S
C1916 C1913 1.511 . S
C1916 H1930 0.961 . S
C1916 H1931 0.961 . S
C1916 H1932 0.961 . S
C1917 C1918 1.370 . S
C1917 C1919 1.363 . S
C1917 H1933 0.931 . S
C1918 C1917 1.370 . S
C1918 C1922 1.408 . S
C1919 C1917 1.363 . S
C1919 C1920 1.370 . S
C1919 C1923 1.524 . S
C1920 C1912 1.503 . S
C1920 C1919 1.370 . S
C1920 C1921 1.403 . S
C1921 C1920 1.403 . S
C1921 C1922 1.404 . S
C1921 C1924 1.539 . S
C1922 C1918 1.408 . S
C1922 C1921 1.404 . S
C1922 H1934 0.930 . S
C1923 C1919 1.524 . S
C1923 H1935 0.956 . S
C1923 H1936 0.961 . S
C1923 H1937 0.961 . S
C1924 C1921 1.539 . S
C1924 H1938 0.958 . S
C1924 H1939 0.961 . S
C1924 H1940 0.960 . S
H1925 C1909 0.931 . S
H1926 C1914 0.929 . S
H1927 C1915 0.960 . S
H1928 C1915 0.962 . S
H1929 C1915 0.960 . S
H1930 C1916 0.961 . S
H1931 C1916 0.961 . S
H1932 C1916 0.961 . S
H1933 C1917 0.931 . S
H1934 C1922 0.930 . S
H1935 C1923 0.956 . S
H1936 C1923 0.961 . S
H1937 C1923 0.961 . S
H1938 C1924 0.958 . S
H1939 C1924 0.961 . S
H1940 C1924 0.960 . S
C1941 C1942 1.391 . S
C1941 C1943 1.394 . S
C1941 H1957 0.931 . S
C1942 C1941 1.391 . S
C1942 C1946 1.376 . S
C1943 C1941 1.394 . S
C1943 C1944 1.369 . S
C1943 C1947 1.531 . S
C1944 C1943 1.369 . S
C1944 C1945 1.410 . S
C1944 C1952 1.503 . S
C1945 C1944 1.410 . S
C1945 C1946 1.392 . S
C1945 C1948 1.511 . S
C1946 C1942 1.376 . S
C1946 C1945 1.392 . S
C1946 H1958 0.929 . S
C1947 C1943 1.531 . S
C1947 H1959 0.960 . S
C1947 H1960 0.962 . S
C1947 H1961 0.960 . S
C1948 C1945 1.511 . S
C1948 H1962 0.961 . S
C1948 H1963 0.961 . S
C1948 H1964 0.961 . S
C1949 C1950 1.370 . S
C1949 C1951 1.363 . S
C1949 H1965 0.931 . S
C1950 C1949 1.370 . S
C1950 C1954 1.408 . S
C1951 C1949 1.363 . S
C1951 C1952 1.370 . S
C1951 C1955 1.524 . S
C1952 C1944 1.503 . S
C1952 C1951 1.370 . S
C1952 C1953 1.403 . S
C1953 C1952 1.403 . S
C1953 C1954 1.404 . S
C1953 C1956 1.539 . S
C1954 C1950 1.408 . S
C1954 C1953 1.404 . S
C1954 H1966 0.930 . S
C1955 C1951 1.524 . S
C1955 H1967 0.956 . S
C1955 H1968 0.961 . S
C1955 H1969 0.961 . S
C1956 C1953 1.539 . S
C1956 H1970 0.958 . S
C1956 H1971 0.961 . S
C1956 H1972 0.960 . S
H1957 C1941 0.931 . S
H1958 C1946 0.929 . S
H1959 C1947 0.960 . S
H1960 C1947 0.962 . S
H1961 C1947 0.960 . S
H1962 C1948 0.961 . S
H1963 C1948 0.961 . S
H1964 C1948 0.961 . S
H1965 C1949 0.931 . S
H1966 C1954 0.930 . S
H1967 C1955 0.956 . S
H1968 C1955 0.961 . S
H1969 C1955 0.961 . S
H1970 C1956 0.958 . S
H1971 C1956 0.961 . S
H1972 C1956 0.960 . S
C1973 C1974 1.391 . S
C1973 C1975 1.394 . S
C1973 H1989 0.931 . S
C1974 C1973 1.391 . S
C1974 C1978 1.376 . S
C1975 C1973 1.394 . S
C1975 C1976 1.369 . S
C1975 C1979 1.531 . S
C1976 C1975 1.369 . S
C1976 C1977 1.410 . S
C1976 C1984 1.503 . S
C1977 C1976 1.410 . S
C1977 C1978 1.392 . S
C1977 C1980 1.511 . S
C1978 C1974 1.376 . S
C1978 C1977 1.392 . S
C1978 H1990 0.929 . S
C1979 C1975 1.531 . S
C1979 H1991 0.960 . S
C1979 H1992 0.962 . S
C1979 H1993 0.960 . S
C1980 C1977 1.511 . S
C1980 H1994 0.961 . S
C1980 H1995 0.961 . S
C1980 H1996 0.961 . S
C1981 C1982 1.370 . S
C1981 C1983 1.363 . S
C1981 H1997 0.931 . S
C1982 C1981 1.370 . S
C1982 C1986 1.408 . S
C1983 C1981 1.363 . S
C1983 C1984 1.370 . S
C1983 C1987 1.524 . S
C1984 C1976 1.503 . S
C1984 C1983 1.370 . S
C1984 C1985 1.403 . S
C1985 C1984 1.403 . S
C1985 C1986 1.404 . S
C1985 C1988 1.539 . S
C1986 C1982 1.408 . S
C1986 C1985 1.404 . S
C1986 H1998 0.930 . S
C1987 C1983 1.524 . S
C1987 H1999 0.956 . S
C1987 H2000 0.961 . S
C1987 H2001 0.961 . S
C1988 C1985 1.539 . S
C1988 H2002 0.958 . S
C1988 H2003 0.961 . S
C1988 H2004 0.960 . S
H1989 C1973 0.931 . S
H1990 C1978 0.929 . S
H1991 C1979 0.960 . S
H1992 C1979 0.962 . S
H1993 C1979 0.960 . S
H1994 C1980 0.961 . S
H1995 C1980 0.961 . S
H1996 C1980 0.961 . S
H1997 C1981 0.931 . S
H1998 C1986 0.930 . S
H1999 C1987 0.956 . S
H2000 C1987 0.961 . S
H2001 C1987 0.961 . S
H2002 C1988 0.958 . S
H2003 C1988 0.961 . S
H2004 C1988 0.960 . S
C2005 C2006 1.391 . S
C2005 C2007 1.394 . S
C2005 H2021 0.931 . S
C2006 C2005 1.391 . S
C2006 C2010 1.376 . S
C2007 C2005 1.394 . S
C2007 C2008 1.369 . S
C2007 C2011 1.531 . S
C2008 C2007 1.369 . S
C2008 C2009 1.410 . S
C2008 C2016 1.503 . S
C2009 C2008 1.410 . S
C2009 C2010 1.392 . S
C2009 C2012 1.511 . S
C2010 C2006 1.376 . S
C2010 C2009 1.392 . S
C2010 H2022 0.929 . S
C2011 C2007 1.531 . S
C2011 H2023 0.960 . S
C2011 H2024 0.962 . S
C2011 H2025 0.960 . S
C2012 C2009 1.511 . S
C2012 H2026 0.961 . S
C2012 H2027 0.961 . S
C2012 H2028 0.961 . S
C2013 C2014 1.370 . S
C2013 C2015 1.363 . S
C2013 H2029 0.931 . S
C2014 C2013 1.370 . S
C2014 C2018 1.408 . S
C2015 C2013 1.363 . S
C2015 C2016 1.370 . S
C2015 C2019 1.524 . S
C2016 C2008 1.503 . S
C2016 C2015 1.370 . S
C2016 C2017 1.403 . S
C2017 C2016 1.403 . S
C2017 C2018 1.404 . S
C2017 C2020 1.539 . S
C2018 C2014 1.408 . S
C2018 C2017 1.404 . S
C2018 H2030 0.930 . S
C2019 C2015 1.524 . S
C2019 H2031 0.956 . S
C2019 H2032 0.961 . S
C2019 H2033 0.961 . S
C2020 C2017 1.539 . S
C2020 H2034 0.958 . S
C2020 H2035 0.961 . S
C2020 H2036 0.960 . S
H2021 C2005 0.931 . S
H2022 C2010 0.929 . S
H2023 C2011 0.960 . S
H2024 C2011 0.962 . S
H2025 C2011 0.960 . S
H2026 C2012 0.961 . S
H2027 C2012 0.961 . S
H2028 C2012 0.961 . S
H2029 C2013 0.931 . S
H2030 C2018 0.930 . S
H2031 C2019 0.956 . S
H2032 C2019 0.961 . S
H2033 C2019 0.961 . S
H2034 C2020 0.958 . S
H2035 C2020 0.961 . S
H2036 C2020 0.960 . S
C2037 C2038 1.391 . S
C2037 C2039 1.394 . S
C2037 H2053 0.931 . S
C2038 C2037 1.391 . S
C2038 C2042 1.376 . S
C2039 C2037 1.394 . S
C2039 C2040 1.369 . S
C2039 C2043 1.531 . S
C2040 C2039 1.369 . S
C2040 C2041 1.410 . S
C2040 C2048 1.503 . S
C2041 C2040 1.410 . S
C2041 C2042 1.392 . S
C2041 C2044 1.511 . S
C2042 C2038 1.376 . S
C2042 C2041 1.392 . S
C2042 H2054 0.929 . S
C2043 C2039 1.531 . S
C2043 H2055 0.960 . S
C2043 H2056 0.962 . S
C2043 H2057 0.960 . S
C2044 C2041 1.511 . S
C2044 H2058 0.961 . S
C2044 H2059 0.961 . S
C2044 H2060 0.961 . S
C2045 C2046 1.370 . S
C2045 C2047 1.363 . S
C2045 H2061 0.931 . S
C2046 C2045 1.370 . S
C2046 C2050 1.408 . S
C2047 C2045 1.363 . S
C2047 C2048 1.370 . S
C2047 C2051 1.524 . S
C2048 C2040 1.503 . S
C2048 C2047 1.370 . S
C2048 C2049 1.403 . S
C2049 C2048 1.403 . S
C2049 C2050 1.404 . S
C2049 C2052 1.539 . S
C2050 C2046 1.408 . S
C2050 C2049 1.404 . S
C2050 H2062 0.930 . S
C2051 C2047 1.524 . S
C2051 H2063 0.956 . S
C2051 H2064 0.961 . S
C2051 H2065 0.961 . S
C2052 C2049 1.539 . S
C2052 H2066 0.958 . S
C2052 H2067 0.961 . S
C2052 H2068 0.960 . S
H2053 C2037 0.931 . S
H2054 C2042 0.929 . S
H2055 C2043 0.960 . S
H2056 C2043 0.962 . S
H2057 C2043 0.960 . S
H2058 C2044 0.961 . S
H2059 C2044 0.961 . S
H2060 C2044 0.961 . S
H2061 C2045 0.931 . S
H2062 C2050 0.930 . S
H2063 C2051 0.956 . S
H2064 C2051 0.961 . S
H2065 C2051 0.961 . S
H2066 C2052 0.958 . S
H2067 C2052 0.961 . S
H2068 C2052 0.960 . S
C2069 C2070 1.391 . S
C2069 C2071 1.394 . S
C2069 H2085 0.931 . S
C2070 C2069 1.391 . S
C2070 C2074 1.376 . S
C2071 C2069 1.394 . S
C2071 C2072 1.369 . S
C2071 C2075 1.531 . S
C2072 C2071 1.369 . S
C2072 C2073 1.410 . S
C2072 C2080 1.503 . S
C2073 C2072 1.410 . S
C2073 C2074 1.392 . S
C2073 C2076 1.511 . S
C2074 C2070 1.376 . S
C2074 C2073 1.392 . S
C2074 H2086 0.929 . S
C2075 C2071 1.531 . S
C2075 H2087 0.960 . S
C2075 H2088 0.962 . S
C2075 H2089 0.960 . S
C2076 C2073 1.511 . S
C2076 H2090 0.961 . S
C2076 H2091 0.961 . S
C2076 H2092 0.961 . S
C2077 C2078 1.370 . S
C2077 C2079 1.363 . S
C2077 H2093 0.931 . S
C2078 C2077 1.370 . S
C2078 C2082 1.408 . S
C2079 C2077 1.363 . S
C2079 C2080 1.370 . S
C2079 C2083 1.524 . S
C2080 C2072 1.503 . S
C2080 C2079 1.370 . S
C2080 C2081 1.403 . S
C2081 C2080 1.403 . S
C2081 C2082 1.404 . S
C2081 C2084 1.539 . S
C2082 C2078 1.408 . S
C2082 C2081 1.404 . S
C2082 H2094 0.930 . S
C2083 C2079 1.524 . S
C2083 H2095 0.956 . S
C2083 H2096 0.961 . S
C2083 H2097 0.961 . S
C2084 C2081 1.539 . S
C2084 H2098 0.958 . S
C2084 H2099 0.961 . S
C2084 H2100 0.960 . S
H2085 C2069 0.931 . S
H2086 C2074 0.929 . S
H2087 C2075 0.960 . S
H2088 C2075 0.962 . S
H2089 C2075 0.960 . S
H2090 C2076 0.961 . S
H2091 C2076 0.961 . S
H2092 C2076 0.961 . S
H2093 C2077 0.931 . S
H2094 C2082 0.930 . S
H2095 C2083 0.956 . S
H2096 C2083 0.961 . S
H2097 C2083 0.961 . S
H2098 C2084 0.958 . S
H2099 C2084 0.961 . S
H2100 C2084 0.960 . S
C2101 C2102 1.391 . S
C2101 C2103 1.394 . S
C2101 H2117 0.931 . S
C2102 C2101 1.391 . S
C2102 C2106 1.376 . S
C2103 C2101 1.394 . S
C2103 C2104 1.369 . S
C2103 C2107 1.531 . S
C2104 C2103 1.369 . S
C2104 C2105 1.410 . S
C2104 C2112 1.503 . S
C2105 C2104 1.410 . S
C2105 C2106 1.392 . S
C2105 C2108 1.511 . S
C2106 C2102 1.376 . S
C2106 C2105 1.392 . S
C2106 H2118 0.929 . S
C2107 C2103 1.531 . S
C2107 H2119 0.960 . S
C2107 H2120 0.962 . S
C2107 H2121 0.960 . S
C2108 C2105 1.511 . S
C2108 H2122 0.961 . S
C2108 H2123 0.961 . S
C2108 H2124 0.961 . S
C2109 C2110 1.370 . S
C2109 C2111 1.363 . S
C2109 H2125 0.931 . S
C2110 C2109 1.370 . S
C2110 C2114 1.408 . S
C2111 C2109 1.363 . S
C2111 C2112 1.370 . S
C2111 C2115 1.524 . S
C2112 C2104 1.503 . S
C2112 C2111 1.370 . S
C2112 C2113 1.403 . S
C2113 C2112 1.403 . S
C2113 C2114 1.404 . S
C2113 C2116 1.539 . S
C2114 C2110 1.408 . S
C2114 C2113 1.404 . S
C2114 H2126 0.930 . S
C2115 C2111 1.524 . S
C2115 H2127 0.956 . S
C2115 H2128 0.961 . S
C2115 H2129 0.961 . S
C2116 C2113 1.539 . S
C2116 H2130 0.958 . S
C2116 H2131 0.961 . S
C2116 H2132 0.960 . S
H2117 C2101 0.931 . S
H2118 C2106 0.929 . S
H2119 C2107 0.960 . S
H2120 C2107 0.962 . S
H2121 C2107 0.960 . S
H2122 C2108 0.961 . S
H2123 C2108 0.961 . S
H2124 C2108 0.961 . S
H2125 C2109 0.931 . S
H2126 C2114 0.930 . S
H2127 C2115 0.956 . S
H2128 C2115 0.961 . S
H2129 C2115 0.961 . S
H2130 C2116 0.958 . S
H2131 C2116 0.961 . S
H2132 C2116 0.960 . S
C406 C162 1.449 . S
C414 C230 1.414 . S
C438 C174 1.396 . S
C446 C251 1.371 . S
C470 C150 1.391 . S
C478 C271 1.208 . S
C502 C138 1.378 1_554 S
C510 C250 1.192 . S
C542 C272 1.406 . S
C534 C114 1.410 1_554 S
C566 C126 1.392 . S
C574 C229 1.212 . S
C606 C231 1.386 . S
C598 C136 1.414 . S
C638 C252 1.409 . S
C630 C112 1.399 . S
C662 C124 1.454 . S
C670 C274 1.273 . S
C694 C160 1.424 . S
C702 C253 1.266 1_554 S
C726 C172 1.439 . S
C734 C273 1.397 . S
C766 C232 1.268 1_554 S
C758 C148 1.506 . S
C798 C293 1.420 . S
C790 C18 1.442 . S
C822 C30 1.430 . S
C830 C314 1.388 . S
C854 C6 1.378 . S
C862 C334 1.205 . S
C886 C210 1.364 . S
C894 C313 1.239 . S
C918 C186 1.446 . S
C926 C335 1.399 . S
C950 C198 1.374 . S
C958 C292 1.227 . S
C982 C208 1.462 . S
C990 C294 1.416 . S
C1014 C184 1.431 . S
C1022 C315 1.395 . S
C1054 C337 1.298 . S
C1046 C196 1.481 . S
C1078 C16 1.486 . S
C1086 C316 1.241 . S
C1118 C336 1.373 . S
C1110 C28 1.374 . S
C1142 C4 1.469 . S
C1150 C295 1.256 . S
C1182 C356 1.413 . S
C1174 C90 1.449 . S
C1206 C102 1.396 . S
C1214 C377 1.391 . S
C1246 C397 1.255 . S
C1238 C78 1.354 . S
C1278 C376 1.194 . S
C1270 C66 1.387 . S
C1310 C398 1.388 . S
C1302 C42 1.407 . S
C1334 C54 1.362 . S
C1342 C355 1.250 . S
C1366 C64 1.457 . S
C1374 C357 1.419 . S
C1398 C40 1.434 . S
C1406 C378 1.396 . S
C1438 C400 1.283 . S
C1430 C52 1.503 . S
C1462 C88 1.482 . S
C1470 C379 1.238 . S
C1494 C100 1.373 . S
C1502 C399 1.377 . S
C1526 C76 1.448 . S
C1534 C358 1.298 . S
C1558 C189 1.494 . S
C1566 C234 1.480 . S
C1598 C255 1.522 . S
C1590 C201 1.532 . S
C1622 C213 1.564 . S
C1630 C275 1.489 . S
C1654 C81 1.605 . S
C1662 C254 1.574 . S
C1686 C93 1.569 . S
C1694 C276 1.553 . S
C1726 C233 1.520 . S
C1718 C105 1.595 . S
C1750 C45 1.507 . S
C1758 C297 1.490 . S
C1782 C57 1.525 . S
C1790 C318 1.512 . S
C1814 C69 1.544 . S
C1822 C338 1.512 . S
C1846 C153 1.605 . S
C1854 C317 1.574 . S
C1886 C339 1.545 . S
C1878 C165 1.560 . S
C1910 C177 1.571 . S
C1918 C296 1.543 . S
C1942 C117 1.489 . S
C1950 C360 1.483 . S
C1974 C129 1.521 . S
C1982 C381 1.510 . S
C2014 C401 1.489 . S
C2006 C141 1.564 . S
C2038 C9 1.618 . S
C2046 C380 1.562 . S
C2070 C21 1.565 . S
C2078 C402 1.548 . S
C2102 C33 1.572 . S
C2110 C359 1.542 . S
