# Generated by pormake.
# Topology bpr, (3,3)-cn, num edge types: 1
# Building blocks:
#     Node 0, Type 0, BuildingBlock: WUSLED_clean_sbu_0, # of connection points: 3
#     Node 1, Type 0, BuildingBlock: WUSLED_clean_sbu_0, # of connection points: 3
#     Node 2, Type 0, BuildingBlock: WUSLED_clean_sbu_0, # of connection points: 3
#     Node 3, Type 0, BuildingBlock: WUSLED_clean_sbu_0, # of connection points: 3
#     Node 4, Type 0, BuildingBlock: WUSLED_clean_sbu_0, # of connection points: 3
#     Node 5, Type 0, BuildingBlock: WUSLED_clean_sbu_0, # of connection points: 3
#     Node 6, Type 0, BuildingBlock: WUSLED_clean_sbu_0, # of connection points: 3
#     Node 7, Type 0, BuildingBlock: WUSLED_clean_sbu_0, # of connection points: 3
#     Node 8, Type 0, BuildingBlock: WUSLED_clean_sbu_0, # of connection points: 3
#     Node 9, Type 0, BuildingBlock: WUSLED_clean_sbu_0, # of connection points: 3
#     Node 10, Type 0, BuildingBlock: WUSLED_clean_sbu_0, # of connection points: 3
#     Node 11, Type 0, BuildingBlock: WUSLED_clean_sbu_0, # of connection points: 3
#     Node 12, Type 0, BuildingBlock: WUSLED_clean_sbu_0, # of connection points: 3
#     Node 13, Type 0, BuildingBlock: WUSLED_clean_sbu_0, # of connection points: 3
#     Node 14, Type 0, BuildingBlock: WUSLED_clean_sbu_0, # of connection points: 3
#     Node 15, Type 0, BuildingBlock: WUSLED_clean_sbu_0, # of connection points: 3
#     Node 16, Type 0, BuildingBlock: WUSLED_clean_sbu_0, # of connection points: 3
#     Node 17, Type 0, BuildingBlock: WUSLED_clean_sbu_0, # of connection points: 3
#     Node 18, Type 0, BuildingBlock: WUSLED_clean_sbu_0, # of connection points: 3
#     Node 19, Type 0, BuildingBlock: WUSLED_clean_sbu_0, # of connection points: 3
#     Node 20, Type 0, BuildingBlock: WUSLED_clean_sbu_0, # of connection points: 3
#     Node 21, Type 0, BuildingBlock: WUSLED_clean_sbu_0, # of connection points: 3
#     Node 22, Type 0, BuildingBlock: WUSLED_clean_sbu_0, # of connection points: 3
#     Node 23, Type 0, BuildingBlock: WUSLED_clean_sbu_0, # of connection points: 3
#     Node 24, Type 0, BuildingBlock: WUSLED_clean_sbu_0, # of connection points: 3
#     Node 25, Type 0, BuildingBlock: WUSLED_clean_sbu_0, # of connection points: 3
#     Node 26, Type 0, BuildingBlock: WUSLED_clean_sbu_0, # of connection points: 3
#     Node 27, Type 0, BuildingBlock: WUSLED_clean_sbu_0, # of connection points: 3
#     Node 28, Type 0, BuildingBlock: WUSLED_clean_sbu_0, # of connection points: 3
#     Node 29, Type 0, BuildingBlock: WUSLED_clean_sbu_0, # of connection points: 3
#     Node 30, Type 0, BuildingBlock: WUSLED_clean_sbu_0, # of connection points: 3
#     Node 31, Type 0, BuildingBlock: WUSLED_clean_sbu_0, # of connection points: 3
#     Node 32, Type 0, BuildingBlock: WUSLED_clean_sbu_0, # of connection points: 3
#     Node 33, Type 0, BuildingBlock: WUSLED_clean_sbu_0, # of connection points: 3
#     Node 34, Type 0, BuildingBlock: WUSLED_clean_sbu_0, # of connection points: 3
#     Node 35, Type 0, BuildingBlock: WUSLED_clean_sbu_0, # of connection points: 3
#     Node 36, Type 0, BuildingBlock: WUSLED_clean_sbu_0, # of connection points: 3
#     Node 37, Type 0, BuildingBlock: WUSLED_clean_sbu_0, # of connection points: 3
#     Node 38, Type 0, BuildingBlock: WUSLED_clean_sbu_0, # of connection points: 3
#     Node 39, Type 0, BuildingBlock: WUSLED_clean_sbu_0, # of connection points: 3
#     Node 40, Type 0, BuildingBlock: WUSLED_clean_sbu_0, # of connection points: 3
#     Node 41, Type 0, BuildingBlock: WUSLED_clean_sbu_0, # of connection points: 3
#     Node 42, Type 0, BuildingBlock: WUSLED_clean_sbu_0, # of connection points: 3
#     Node 43, Type 0, BuildingBlock: WUSLED_clean_sbu_0, # of connection points: 3
#     Node 44, Type 0, BuildingBlock: WUSLED_clean_sbu_0, # of connection points: 3
#     Node 45, Type 0, BuildingBlock: WUSLED_clean_sbu_0, # of connection points: 3
#     Node 46, Type 0, BuildingBlock: WUSLED_clean_sbu_0, # of connection points: 3
#     Node 47, Type 0, BuildingBlock: WUSLED_clean_sbu_0, # of connection points: 3
#     Node 48, Type 1, BuildingBlock: MIDCAF_clean_linker_0, # of connection points: 3
#     Node 49, Type 1, BuildingBlock: MIDCAF_clean_linker_0, # of connection points: 3
#     Node 50, Type 1, BuildingBlock: MIDCAF_clean_linker_0, # of connection points: 3
#     Node 51, Type 1, BuildingBlock: MIDCAF_clean_linker_0, # of connection points: 3
#     Node 52, Type 1, BuildingBlock: MIDCAF_clean_linker_0, # of connection points: 3
#     Node 53, Type 1, BuildingBlock: MIDCAF_clean_linker_0, # of connection points: 3
#     Node 54, Type 1, BuildingBlock: MIDCAF_clean_linker_0, # of connection points: 3
#     Node 55, Type 1, BuildingBlock: MIDCAF_clean_linker_0, # of connection points: 3
#     Node 56, Type 1, BuildingBlock: MIDCAF_clean_linker_0, # of connection points: 3
#     Node 57, Type 1, BuildingBlock: MIDCAF_clean_linker_0, # of connection points: 3
#     Node 58, Type 1, BuildingBlock: MIDCAF_clean_linker_0, # of connection points: 3
#     Node 59, Type 1, BuildingBlock: MIDCAF_clean_linker_0, # of connection points: 3
#     Node 60, Type 1, BuildingBlock: MIDCAF_clean_linker_0, # of connection points: 3
#     Node 61, Type 1, BuildingBlock: MIDCAF_clean_linker_0, # of connection points: 3
#     Node 62, Type 1, BuildingBlock: MIDCAF_clean_linker_0, # of connection points: 3
#     Node 63, Type 1, BuildingBlock: MIDCAF_clean_linker_0, # of connection points: 3
#     Node 64, Type 1, BuildingBlock: MIDCAF_clean_linker_0, # of connection points: 3
#     Node 65, Type 1, BuildingBlock: MIDCAF_clean_linker_0, # of connection points: 3
#     Node 66, Type 1, BuildingBlock: MIDCAF_clean_linker_0, # of connection points: 3
#     Node 67, Type 1, BuildingBlock: MIDCAF_clean_linker_0, # of connection points: 3
#     Node 68, Type 1, BuildingBlock: MIDCAF_clean_linker_0, # of connection points: 3
#     Node 69, Type 1, BuildingBlock: MIDCAF_clean_linker_0, # of connection points: 3
#     Node 70, Type 1, BuildingBlock: MIDCAF_clean_linker_0, # of connection points: 3
#     Node 71, Type 1, BuildingBlock: MIDCAF_clean_linker_0, # of connection points: 3
#     Node 72, Type 1, BuildingBlock: MIDCAF_clean_linker_0, # of connection points: 3
#     Node 73, Type 1, BuildingBlock: MIDCAF_clean_linker_0, # of connection points: 3
#     Node 74, Type 1, BuildingBlock: MIDCAF_clean_linker_0, # of connection points: 3
#     Node 75, Type 1, BuildingBlock: MIDCAF_clean_linker_0, # of connection points: 3
#     Node 76, Type 1, BuildingBlock: MIDCAF_clean_linker_0, # of connection points: 3
#     Node 77, Type 1, BuildingBlock: MIDCAF_clean_linker_0, # of connection points: 3
#     Node 78, Type 1, BuildingBlock: MIDCAF_clean_linker_0, # of connection points: 3
#     Node 79, Type 1, BuildingBlock: MIDCAF_clean_linker_0, # of connection points: 3
#     Node 80, Type 1, BuildingBlock: MIDCAF_clean_linker_0, # of connection points: 3
#     Node 81, Type 1, BuildingBlock: MIDCAF_clean_linker_0, # of connection points: 3
#     Node 82, Type 1, BuildingBlock: MIDCAF_clean_linker_0, # of connection points: 3
#     Node 83, Type 1, BuildingBlock: MIDCAF_clean_linker_0, # of connection points: 3
#     Node 84, Type 1, BuildingBlock: MIDCAF_clean_linker_0, # of connection points: 3
#     Node 85, Type 1, BuildingBlock: MIDCAF_clean_linker_0, # of connection points: 3
#     Node 86, Type 1, BuildingBlock: MIDCAF_clean_linker_0, # of connection points: 3
#     Node 87, Type 1, BuildingBlock: MIDCAF_clean_linker_0, # of connection points: 3
#     Node 88, Type 1, BuildingBlock: MIDCAF_clean_linker_0, # of connection points: 3
#     Node 89, Type 1, BuildingBlock: MIDCAF_clean_linker_0, # of connection points: 3
#     Node 90, Type 1, BuildingBlock: MIDCAF_clean_linker_0, # of connection points: 3
#     Node 91, Type 1, BuildingBlock: MIDCAF_clean_linker_0, # of connection points: 3
#     Node 92, Type 1, BuildingBlock: MIDCAF_clean_linker_0, # of connection points: 3
#     Node 93, Type 1, BuildingBlock: MIDCAF_clean_linker_0, # of connection points: 3
#     Node 94, Type 1, BuildingBlock: MIDCAF_clean_linker_0, # of connection points: 3
#     Node 95, Type 1, BuildingBlock: MIDCAF_clean_linker_0, # of connection points: 3
#     Edge 96, Type (0, 1), BuildingBlock: OJICUG_clean_linker_0, # of connection points: 2
#     Edge 97, Type (0, 1), BuildingBlock: OJICUG_clean_linker_0, # of connection points: 2
#     Edge 98, Type (0, 1), BuildingBlock: OJICUG_clean_linker_0, # of connection points: 2
#     Edge 99, Type (0, 1), BuildingBlock: OJICUG_clean_linker_0, # of connection points: 2
#     Edge 100, Type (0, 1), BuildingBlock: OJICUG_clean_linker_0, # of connection points: 2
#     Edge 101, Type (0, 1), BuildingBlock: OJICUG_clean_linker_0, # of connection points: 2
#     Edge 102, Type (0, 1), BuildingBlock: OJICUG_clean_linker_0, # of connection points: 2
#     Edge 103, Type (0, 1), BuildingBlock: OJICUG_clean_linker_0, # of connection points: 2
#     Edge 104, Type (0, 1), BuildingBlock: OJICUG_clean_linker_0, # of connection points: 2
#     Edge 105, Type (0, 1), BuildingBlock: OJICUG_clean_linker_0, # of connection points: 2
#     Edge 106, Type (0, 1), BuildingBlock: OJICUG_clean_linker_0, # of connection points: 2
#     Edge 107, Type (0, 1), BuildingBlock: OJICUG_clean_linker_0, # of connection points: 2
#     Edge 108, Type (0, 1), BuildingBlock: OJICUG_clean_linker_0, # of connection points: 2
#     Edge 109, Type (0, 1), BuildingBlock: OJICUG_clean_linker_0, # of connection points: 2
#     Edge 110, Type (0, 1), BuildingBlock: OJICUG_clean_linker_0, # of connection points: 2
#     Edge 111, Type (0, 1), BuildingBlock: OJICUG_clean_linker_0, # of connection points: 2
#     Edge 112, Type (0, 1), BuildingBlock: OJICUG_clean_linker_0, # of connection points: 2
#     Edge 113, Type (0, 1), BuildingBlock: OJICUG_clean_linker_0, # of connection points: 2
#     Edge 114, Type (0, 1), BuildingBlock: OJICUG_clean_linker_0, # of connection points: 2
#     Edge 115, Type (0, 1), BuildingBlock: OJICUG_clean_linker_0, # of connection points: 2
#     Edge 116, Type (0, 1), BuildingBlock: OJICUG_clean_linker_0, # of connection points: 2
#     Edge 117, Type (0, 1), BuildingBlock: OJICUG_clean_linker_0, # of connection points: 2
#     Edge 118, Type (0, 1), BuildingBlock: OJICUG_clean_linker_0, # of connection points: 2
#     Edge 119, Type (0, 1), BuildingBlock: OJICUG_clean_linker_0, # of connection points: 2
#     Edge 120, Type (0, 1), BuildingBlock: OJICUG_clean_linker_0, # of connection points: 2
#     Edge 121, Type (0, 1), BuildingBlock: OJICUG_clean_linker_0, # of connection points: 2
#     Edge 122, Type (0, 1), BuildingBlock: OJICUG_clean_linker_0, # of connection points: 2
#     Edge 123, Type (0, 1), BuildingBlock: OJICUG_clean_linker_0, # of connection points: 2
#     Edge 124, Type (0, 1), BuildingBlock: OJICUG_clean_linker_0, # of connection points: 2
#     Edge 125, Type (0, 1), BuildingBlock: OJICUG_clean_linker_0, # of connection points: 2
#     Edge 126, Type (0, 1), BuildingBlock: OJICUG_clean_linker_0, # of connection points: 2
#     Edge 127, Type (0, 1), BuildingBlock: OJICUG_clean_linker_0, # of connection points: 2
#     Edge 128, Type (0, 1), BuildingBlock: OJICUG_clean_linker_0, # of connection points: 2
#     Edge 129, Type (0, 1), BuildingBlock: OJICUG_clean_linker_0, # of connection points: 2
#     Edge 130, Type (0, 1), BuildingBlock: OJICUG_clean_linker_0, # of connection points: 2
#     Edge 131, Type (0, 1), BuildingBlock: OJICUG_clean_linker_0, # of connection points: 2
#     Edge 132, Type (0, 1), BuildingBlock: OJICUG_clean_linker_0, # of connection points: 2
#     Edge 133, Type (0, 1), BuildingBlock: OJICUG_clean_linker_0, # of connection points: 2
#     Edge 134, Type (0, 1), BuildingBlock: OJICUG_clean_linker_0, # of connection points: 2
#     Edge 135, Type (0, 1), BuildingBlock: OJICUG_clean_linker_0, # of connection points: 2
#     Edge 136, Type (0, 1), BuildingBlock: OJICUG_clean_linker_0, # of connection points: 2
#     Edge 137, Type (0, 1), BuildingBlock: OJICUG_clean_linker_0, # of connection points: 2
#     Edge 138, Type (0, 1), BuildingBlock: OJICUG_clean_linker_0, # of connection points: 2
#     Edge 139, Type (0, 1), BuildingBlock: OJICUG_clean_linker_0, # of connection points: 2
#     Edge 140, Type (0, 1), BuildingBlock: OJICUG_clean_linker_0, # of connection points: 2
#     Edge 141, Type (0, 1), BuildingBlock: OJICUG_clean_linker_0, # of connection points: 2
#     Edge 142, Type (0, 1), BuildingBlock: OJICUG_clean_linker_0, # of connection points: 2
#     Edge 143, Type (0, 1), BuildingBlock: OJICUG_clean_linker_0, # of connection points: 2
#     Edge 144, Type (0, 1), BuildingBlock: OJICUG_clean_linker_0, # of connection points: 2
#     Edge 145, Type (0, 1), BuildingBlock: OJICUG_clean_linker_0, # of connection points: 2
#     Edge 146, Type (0, 1), BuildingBlock: OJICUG_clean_linker_0, # of connection points: 2
#     Edge 147, Type (0, 1), BuildingBlock: OJICUG_clean_linker_0, # of connection points: 2
#     Edge 148, Type (0, 1), BuildingBlock: OJICUG_clean_linker_0, # of connection points: 2
#     Edge 149, Type (0, 1), BuildingBlock: OJICUG_clean_linker_0, # of connection points: 2
#     Edge 150, Type (0, 1), BuildingBlock: OJICUG_clean_linker_0, # of connection points: 2
#     Edge 151, Type (0, 1), BuildingBlock: OJICUG_clean_linker_0, # of connection points: 2
#     Edge 152, Type (0, 1), BuildingBlock: OJICUG_clean_linker_0, # of connection points: 2
#     Edge 153, Type (0, 1), BuildingBlock: OJICUG_clean_linker_0, # of connection points: 2
#     Edge 154, Type (0, 1), BuildingBlock: OJICUG_clean_linker_0, # of connection points: 2
#     Edge 155, Type (0, 1), BuildingBlock: OJICUG_clean_linker_0, # of connection points: 2
#     Edge 156, Type (0, 1), BuildingBlock: OJICUG_clean_linker_0, # of connection points: 2
#     Edge 157, Type (0, 1), BuildingBlock: OJICUG_clean_linker_0, # of connection points: 2
#     Edge 158, Type (0, 1), BuildingBlock: OJICUG_clean_linker_0, # of connection points: 2
#     Edge 159, Type (0, 1), BuildingBlock: OJICUG_clean_linker_0, # of connection points: 2
#     Edge 160, Type (0, 1), BuildingBlock: OJICUG_clean_linker_0, # of connection points: 2
#     Edge 161, Type (0, 1), BuildingBlock: OJICUG_clean_linker_0, # of connection points: 2
#     Edge 162, Type (0, 1), BuildingBlock: OJICUG_clean_linker_0, # of connection points: 2
#     Edge 163, Type (0, 1), BuildingBlock: OJICUG_clean_linker_0, # of connection points: 2
#     Edge 164, Type (0, 1), BuildingBlock: OJICUG_clean_linker_0, # of connection points: 2
#     Edge 165, Type (0, 1), BuildingBlock: OJICUG_clean_linker_0, # of connection points: 2
#     Edge 166, Type (0, 1), BuildingBlock: OJICUG_clean_linker_0, # of connection points: 2
#     Edge 167, Type (0, 1), BuildingBlock: OJICUG_clean_linker_0, # of connection points: 2
#     Edge 168, Type (0, 1), BuildingBlock: OJICUG_clean_linker_0, # of connection points: 2
#     Edge 169, Type (0, 1), BuildingBlock: OJICUG_clean_linker_0, # of connection points: 2
#     Edge 170, Type (0, 1), BuildingBlock: OJICUG_clean_linker_0, # of connection points: 2
#     Edge 171, Type (0, 1), BuildingBlock: OJICUG_clean_linker_0, # of connection points: 2
#     Edge 172, Type (0, 1), BuildingBlock: OJICUG_clean_linker_0, # of connection points: 2
#     Edge 173, Type (0, 1), BuildingBlock: OJICUG_clean_linker_0, # of connection points: 2
#     Edge 174, Type (0, 1), BuildingBlock: OJICUG_clean_linker_0, # of connection points: 2
#     Edge 175, Type (0, 1), BuildingBlock: OJICUG_clean_linker_0, # of connection points: 2
#     Edge 176, Type (0, 1), BuildingBlock: OJICUG_clean_linker_0, # of connection points: 2
#     Edge 177, Type (0, 1), BuildingBlock: OJICUG_clean_linker_0, # of connection points: 2
#     Edge 178, Type (0, 1), BuildingBlock: OJICUG_clean_linker_0, # of connection points: 2
#     Edge 179, Type (0, 1), BuildingBlock: OJICUG_clean_linker_0, # of connection points: 2
#     Edge 180, Type (0, 1), BuildingBlock: OJICUG_clean_linker_0, # of connection points: 2
#     Edge 181, Type (0, 1), BuildingBlock: OJICUG_clean_linker_0, # of connection points: 2
#     Edge 182, Type (0, 1), BuildingBlock: OJICUG_clean_linker_0, # of connection points: 2
#     Edge 183, Type (0, 1), BuildingBlock: OJICUG_clean_linker_0, # of connection points: 2
#     Edge 184, Type (0, 1), BuildingBlock: OJICUG_clean_linker_0, # of connection points: 2
#     Edge 185, Type (0, 1), BuildingBlock: OJICUG_clean_linker_0, # of connection points: 2
#     Edge 186, Type (0, 1), BuildingBlock: OJICUG_clean_linker_0, # of connection points: 2
#     Edge 187, Type (0, 1), BuildingBlock: OJICUG_clean_linker_0, # of connection points: 2
#     Edge 188, Type (0, 1), BuildingBlock: OJICUG_clean_linker_0, # of connection points: 2
#     Edge 189, Type (0, 1), BuildingBlock: OJICUG_clean_linker_0, # of connection points: 2
#     Edge 190, Type (0, 1), BuildingBlock: OJICUG_clean_linker_0, # of connection points: 2
#     Edge 191, Type (0, 1), BuildingBlock: OJICUG_clean_linker_0, # of connection points: 2
#     Edge 192, Type (0, 1), BuildingBlock: OJICUG_clean_linker_0, # of connection points: 2
#     Edge 193, Type (0, 1), BuildingBlock: OJICUG_clean_linker_0, # of connection points: 2
#     Edge 194, Type (0, 1), BuildingBlock: OJICUG_clean_linker_0, # of connection points: 2
#     Edge 195, Type (0, 1), BuildingBlock: OJICUG_clean_linker_0, # of connection points: 2
#     Edge 196, Type (0, 1), BuildingBlock: OJICUG_clean_linker_0, # of connection points: 2
#     Edge 197, Type (0, 1), BuildingBlock: OJICUG_clean_linker_0, # of connection points: 2
#     Edge 198, Type (0, 1), BuildingBlock: OJICUG_clean_linker_0, # of connection points: 2
#     Edge 199, Type (0, 1), BuildingBlock: OJICUG_clean_linker_0, # of connection points: 2
#     Edge 200, Type (0, 1), BuildingBlock: OJICUG_clean_linker_0, # of connection points: 2
#     Edge 201, Type (0, 1), BuildingBlock: OJICUG_clean_linker_0, # of connection points: 2
#     Edge 202, Type (0, 1), BuildingBlock: OJICUG_clean_linker_0, # of connection points: 2
#     Edge 203, Type (0, 1), BuildingBlock: OJICUG_clean_linker_0, # of connection points: 2
#     Edge 204, Type (0, 1), BuildingBlock: OJICUG_clean_linker_0, # of connection points: 2
#     Edge 205, Type (0, 1), BuildingBlock: OJICUG_clean_linker_0, # of connection points: 2
#     Edge 206, Type (0, 1), BuildingBlock: OJICUG_clean_linker_0, # of connection points: 2
#     Edge 207, Type (0, 1), BuildingBlock: OJICUG_clean_linker_0, # of connection points: 2
#     Edge 208, Type (0, 1), BuildingBlock: OJICUG_clean_linker_0, # of connection points: 2
#     Edge 209, Type (0, 1), BuildingBlock: OJICUG_clean_linker_0, # of connection points: 2
#     Edge 210, Type (0, 1), BuildingBlock: OJICUG_clean_linker_0, # of connection points: 2
#     Edge 211, Type (0, 1), BuildingBlock: OJICUG_clean_linker_0, # of connection points: 2
#     Edge 212, Type (0, 1), BuildingBlock: OJICUG_clean_linker_0, # of connection points: 2
#     Edge 213, Type (0, 1), BuildingBlock: OJICUG_clean_linker_0, # of connection points: 2
#     Edge 214, Type (0, 1), BuildingBlock: OJICUG_clean_linker_0, # of connection points: 2
#     Edge 215, Type (0, 1), BuildingBlock: OJICUG_clean_linker_0, # of connection points: 2
#     Edge 216, Type (0, 1), BuildingBlock: OJICUG_clean_linker_0, # of connection points: 2
#     Edge 217, Type (0, 1), BuildingBlock: OJICUG_clean_linker_0, # of connection points: 2
#     Edge 218, Type (0, 1), BuildingBlock: OJICUG_clean_linker_0, # of connection points: 2
#     Edge 219, Type (0, 1), BuildingBlock: OJICUG_clean_linker_0, # of connection points: 2
#     Edge 220, Type (0, 1), BuildingBlock: OJICUG_clean_linker_0, # of connection points: 2
#     Edge 221, Type (0, 1), BuildingBlock: OJICUG_clean_linker_0, # of connection points: 2
#     Edge 222, Type (0, 1), BuildingBlock: OJICUG_clean_linker_0, # of connection points: 2
#     Edge 223, Type (0, 1), BuildingBlock: OJICUG_clean_linker_0, # of connection points: 2
#     Edge 224, Type (0, 1), BuildingBlock: OJICUG_clean_linker_0, # of connection points: 2
#     Edge 225, Type (0, 1), BuildingBlock: OJICUG_clean_linker_0, # of connection points: 2
#     Edge 226, Type (0, 1), BuildingBlock: OJICUG_clean_linker_0, # of connection points: 2
#     Edge 227, Type (0, 1), BuildingBlock: OJICUG_clean_linker_0, # of connection points: 2
#     Edge 228, Type (0, 1), BuildingBlock: OJICUG_clean_linker_0, # of connection points: 2
#     Edge 229, Type (0, 1), BuildingBlock: OJICUG_clean_linker_0, # of connection points: 2
#     Edge 230, Type (0, 1), BuildingBlock: OJICUG_clean_linker_0, # of connection points: 2
#     Edge 231, Type (0, 1), BuildingBlock: OJICUG_clean_linker_0, # of connection points: 2
#     Edge 232, Type (0, 1), BuildingBlock: OJICUG_clean_linker_0, # of connection points: 2
#     Edge 233, Type (0, 1), BuildingBlock: OJICUG_clean_linker_0, # of connection points: 2
#     Edge 234, Type (0, 1), BuildingBlock: OJICUG_clean_linker_0, # of connection points: 2
#     Edge 235, Type (0, 1), BuildingBlock: OJICUG_clean_linker_0, # of connection points: 2
#     Edge 236, Type (0, 1), BuildingBlock: OJICUG_clean_linker_0, # of connection points: 2
#     Edge 237, Type (0, 1), BuildingBlock: OJICUG_clean_linker_0, # of connection points: 2
#     Edge 238, Type (0, 1), BuildingBlock: OJICUG_clean_linker_0, # of connection points: 2
#     Edge 239, Type (0, 1), BuildingBlock: OJICUG_clean_linker_0, # of connection points: 2
# Relax obj value: 0.091
# Max RMSD: 0.078
# Mean RMSD: 0.074
data_MOF--net-bpr--node1-WUSLED_clean_sbu_0--node2-MIDCAF_clean_linker_0--edge1-OJICUG_clean_linker_0
_symmetry_space_group_name_H-M    P1
_symmetry_Int_Tables_number       1
_symmetry_cell_setting            triclinic
loop_
_symmetry_equiv_pos_as_xyz
'x, y, z'
_cell_length_a     102.02882
_cell_length_b     102.0339
_cell_length_c     102.67411
_cell_angle_alpha  90.05894
_cell_angle_beta   90.126494
_cell_angle_gamma 90.143744
loop_
_atom_site_label
_atom_site_type_symbol
_atom_site_fract_x
_atom_site_fract_y
_atom_site_fract_z
_atom_type_partial_charge
C0 C 0.97584 0.3861 0.27531 0.0
C1 C 0.9746 0.39072 0.28812 0.0
C2 C 0.95084 0.38892 0.28665 0.0
C3 C 0.96222 0.39215 0.29373 0.0
C4 C 0.95214 0.38448 0.27373 0.0
C5 C 0.96455 0.38308 0.26811 0.0
U6 U 0.01216 0.38326 0.2807 0.0
O7 O 0.0268 0.3694 0.27325 0.0
O8 O 0.0292 0.39054 0.26972 0.0
C9 C 0.03375 0.37868 0.26765 0.0
C10 C 0.98892 0.38384 0.26977 0.0
C11 C 0.03905 0.37598 0.25457 0.0
C12 C 0.04034 0.36287 0.23477 0.0
C13 C 0.03384 0.36625 0.24632 0.0
C14 C 0.05699 0.37919 0.23942 0.0
C15 C 0.05219 0.36908 0.2314 0.0
C16 C 0.05051 0.38257 0.25086 0.0
C17 C 0.02541 0.38791 0.31484 0.0
C18 C 0.04838 0.38379 0.31948 0.0
C19 C 0.03447 0.39336 0.33605 0.0
C20 C 0.02383 0.39292 0.32745 0.0
C21 C 0.04686 0.38874 0.33218 0.0
C22 C 0.03775 0.38341 0.31088 0.0
C23 C 0.01422 0.38753 0.30583 0.0
O24 O 0.99686 0.39402 0.27005 0.0
O25 O 0.99457 0.37294 0.27361 0.0
O26 O 0.01159 0.37595 0.30083 0.0
O27 O 0.01398 0.39699 0.29716 0.0
H28 H 0.98323 0.39297 0.29388 0.0
H29 H 0.96161 0.39537 0.30376 0.0
H30 H 0.94356 0.382 0.26799 0.0
H31 H 0.96535 0.37947 0.25822 0.0
H32 H 0.03642 0.35505 0.22876 0.0
H33 H 0.025 0.36101 0.24899 0.0
H34 H 0.06596 0.38433 0.23696 0.0
H35 H 0.05471 0.39009 0.25707 0.0
H36 H 0.05782 0.38033 0.31614 0.0
H37 H 0.03297 0.39712 0.3458 0.0
H38 H 0.01436 0.39646 0.33064 0.0
H39 H 0.03916 0.37962 0.30112 0.0
C40 C 0.8807 0.74131 0.51944 0.0
C41 C 0.88407 0.7422 0.53267 0.0
C42 C 0.87467 0.72064 0.53667 0.0
C43 C 0.88115 0.73195 0.54118 0.0
C44 C 0.87109 0.71986 0.52345 0.0
C45 C 0.87413 0.73012 0.51488 0.0
U46 U 0.88865 0.77692 0.51601 0.0
O47 O 0.90337 0.7876 0.50447 0.0
O48 O 0.88242 0.79221 0.5023 0.0
C49 C 0.89444 0.79444 0.49823 0.0
C50 C 0.88373 0.75229 0.51064 0.0
C51 C 0.89642 0.79619 0.4841 0.0
C52 C 0.88835 0.7959 0.46177 0.0
C53 C 0.88703 0.79222 0.47486 0.0
C54 C 0.90874 0.80696 0.46693 0.0
C55 C 0.89903 0.80365 0.45776 0.0
C56 C 0.90743 0.80329 0.47995 0.0
C57 C 0.88983 0.79657 0.54786 0.0
C58 C 0.88504 0.81959 0.5517 0.0
C59 C 0.89897 0.80774 0.56673 0.0
C60 C 0.89755 0.79642 0.55917 0.0
C61 C 0.89259 0.8194 0.56316 0.0
C62 C 0.88372 0.8083 0.54407 0.0
C63 C 0.88794 0.7843 0.54048 0.0
O64 O 0.87472 0.76146 0.51011 0.0
O65 O 0.89568 0.75703 0.51175 0.0
O66 O 0.89848 0.77941 0.535 0.0
O67 O 0.87749 0.78367 0.53299 0.0
H68 H 0.88896 0.75085 0.53644 0.0
H69 H 0.88383 0.73296 0.55134 0.0
H70 H 0.86611 0.71125 0.51971 0.0
H71 H 0.87135 0.72932 0.50472 0.0
H72 H 0.88066 0.79326 0.45496 0.0
H73 H 0.87843 0.78673 0.47781 0.0
H74 H 0.91717 0.81277 0.4641 0.0
H75 H 0.91479 0.80645 0.4869 0.0
H76 H 0.88013 0.82848 0.54864 0.0
H77 H 0.90475 0.80726 0.57558 0.0
H78 H 0.90233 0.78748 0.56228 0.0
H79 H 0.87779 0.80872 0.53532 0.0
C80 C 0.48557 0.62534 0.74165 0.0
C81 C 0.47195 0.62379 0.74262 0.0
C82 C 0.46894 0.63398 0.72139 0.0
C83 C 0.46374 0.628 0.7326 0.0
C84 C 0.48264 0.63545 0.7204 0.0
C85 C 0.49089 0.63118 0.73048 0.0
U86 U 0.48727 0.61468 0.77629 0.0
O87 O 0.49844 0.59936 0.78653 0.0
O88 O 0.50014 0.61994 0.79266 0.0
C89 C 0.50423 0.60784 0.7943 0.0
C90 C 0.49397 0.62123 0.75256 0.0
C91 C 0.5184 0.6062 0.79621 0.0
C92 C 0.54102 0.61087 0.79044 0.0
C93 C 0.52759 0.61174 0.78768 0.0
C94 C 0.53613 0.59861 0.81004 0.0
C95 C 0.54544 0.60444 0.80177 0.0
C96 C 0.52277 0.59948 0.80727 0.0
C97 C 0.45416 0.61329 0.79378 0.0
C98 C 0.4509 0.60417 0.8154 0.0
C99 C 0.43403 0.61761 0.80552 0.0
C100 C 0.44179 0.61913 0.79444 0.0
C101 C 0.43852 0.61017 0.81615 0.0
C102 C 0.45871 0.60578 0.80431 0.0
C103 C 0.46227 0.61551 0.78219 0.0
O104 O 0.49432 0.6295 0.76238 0.0
O105 O 0.49234 0.609 0.75626 0.0
O106 O 0.46795 0.60512 0.77717 0.0
O107 O 0.47003 0.62578 0.7828 0.0
H108 H 0.46765 0.61934 0.75118 0.0
H109 H 0.45329 0.62645 0.7336 0.0
H110 H 0.48696 0.64009 0.71195 0.0
H111 H 0.50139 0.63254 0.72962 0.0
H112 H 0.54793 0.61536 0.7838 0.0
H113 H 0.52437 0.61694 0.77906 0.0
H114 H 0.53912 0.59379 0.81896 0.0
H115 H 0.51579 0.59519 0.81399 0.0
H116 H 0.45465 0.59848 0.82348 0.0
H117 H 0.42448 0.62221 0.80574 0.0
H118 H 0.43815 0.62497 0.7864 0.0
H119 H 0.46831 0.60128 0.80399 0.0
C120 C 0.62527 0.26205 0.01789 0.0
C121 C 0.62293 0.26089 0.03129 0.0
C122 C 0.63382 0.28177 0.03528 0.0
C123 C 0.62709 0.27066 0.03987 0.0
C124 C 0.6361 0.28295 0.0218 0.0
C125 C 0.63187 0.27313 0.01316 0.0
U126 U 0.61421 0.2274 0.01499 0.0
O127 O 0.59873 0.21764 0.0035 0.0
O128 O 0.61922 0.21121 0.00183 0.0
C129 C 0.60711 0.20989 0.9976 0.0
C130 C 0.62119 0.25138 0.00911 0.0
C131 C 0.60529 0.20802 0.98347 0.0
C132 C 0.61353 0.20852 0.96125 0.0
C133 C 0.61463 0.21226 0.97434 0.0
C134 C 0.59342 0.19688 0.96616 0.0
C135 C 0.60311 0.20044 0.95711 0.0
C136 C 0.59452 0.20062 0.97919 0.0
C137 C 0.61194 0.20907 0.04745 0.0
C138 C 0.6069 0.18585 0.04906 0.0
C139 C 0.61094 0.1986 0.06861 0.0
C140 C 0.6129 0.20978 0.06103 0.0
C141 C 0.60797 0.18648 0.06272 0.0
C142 C 0.60886 0.19708 0.04148 0.0
C143 C 0.61458 0.22086 0.03971 0.0
O144 O 0.62934 0.24143 0.00865 0.0
O145 O 0.60888 0.24773 0.01033 0.0
O146 O 0.60437 0.2262 0.03402 0.0
O147 O 0.62491 0.2202 0.03213 0.0
H148 H 0.6179 0.25238 0.03514 0.0
H149 H 0.62491 0.26952 0.05013 0.0
H150 H 0.64135 0.29133 0.01795 0.0
H151 H 0.63385 0.27413 0.00285 0.0
H152 H 0.62119 0.21136 0.95452 0.0
H153 H 0.62303 0.21801 0.9774 0.0
H154 H 0.58518 0.19083 0.96323 0.0
H155 H 0.5872 0.19727 0.98607 0.0
H156 H 0.60451 0.17671 0.04424 0.0
H157 H 0.61205 0.19939 0.07907 0.0
H158 H 0.61534 0.21896 0.06577 0.0
H159 H 0.60808 0.1964 0.03097 0.0
C160 C 0.97639 0.61395 0.22687 0.0
C161 C 0.97481 0.60896 0.21422 0.0
C162 C 0.95111 0.61118 0.21597 0.0
C163 C 0.9623 0.60756 0.20884 0.0
C164 C 0.95275 0.61592 0.22877 0.0
C165 C 0.9653 0.61729 0.23416 0.0
U166 U 0.01261 0.61602 0.22073 0.0
O167 O 0.02747 0.63049 0.22665 0.0
O168 O 0.02986 0.60979 0.23204 0.0
C169 C 0.03462 0.62175 0.23278 0.0
C170 C 0.98962 0.61641 0.23205 0.0
C171 C 0.04024 0.62576 0.24535 0.0
C172 C 0.03851 0.63444 0.26735 0.0
C173 C 0.03252 0.63023 0.25575 0.0
C174 C 0.05984 0.62963 0.25819 0.0
C175 C 0.05227 0.63432 0.26862 0.0
C176 C 0.05388 0.62541 0.2467 0.0
C177 C 0.02539 0.60924 0.18702 0.0
C178 C 0.04851 0.61278 0.18269 0.0
C179 C 0.0343 0.60439 0.16565 0.0
C180 C 0.02365 0.6048 0.17422 0.0
C181 C 0.04683 0.60848 0.16978 0.0
C182 C 0.03789 0.61314 0.19124 0.0
C183 C 0.0142 0.60998 0.19595 0.0
O184 O 0.99741 0.60615 0.23233 0.0
O185 O 0.99534 0.62697 0.2274 0.0
O186 O 0.01149 0.62184 0.20015 0.0
O187 O 0.01415 0.60116 0.20526 0.0
H188 H 0.98328 0.60645 0.2084 0.0
H189 H 0.96143 0.6041 0.1989 0.0
H190 H 0.94434 0.61869 0.23456 0.0
H191 H 0.96636 0.6212 0.24393 0.0
H192 H 0.03243 0.63801 0.27522 0.0
H193 H 0.02195 0.63056 0.25484 0.0
H194 H 0.07041 0.62912 0.25893 0.0
H195 H 0.05997 0.62195 0.23878 0.0
H196 H 0.05806 0.61581 0.18623 0.0
H197 H 0.03268 0.60113 0.15573 0.0
H198 H 0.01405 0.60176 0.17082 0.0
H199 H 0.0394 0.61653 0.20113 0.0
C200 C 0.62906 0.73955 0.4875 0.0
C201 C 0.62779 0.741 0.47398 0.0
C202 C 0.63772 0.71961 0.47048 0.0
C203 C 0.63201 0.73114 0.46557 0.0
C204 C 0.63898 0.71817 0.48408 0.0
C205 C 0.63469 0.72809 0.49252 0.0
U206 U 0.61753 0.77407 0.49014 0.0
O207 O 0.6017 0.78349 0.5013 0.0
O208 O 0.62207 0.79029 0.5035 0.0
C209 C 0.60986 0.79137 0.50743 0.0
C210 C 0.62469 0.75018 0.49614 0.0
C211 C 0.60764 0.79331 0.5215 0.0
C212 C 0.61566 0.79447 0.54382 0.0
C213 C 0.6173 0.79048 0.53086 0.0
C214 C 0.59443 0.80351 0.53835 0.0
C215 C 0.60438 0.8014 0.5476 0.0
C216 C 0.59607 0.79952 0.52545 0.0
C217 C 0.61533 0.79252 0.45749 0.0
C218 C 0.62008 0.81495 0.45091 0.0
C219 C 0.60417 0.80211 0.43886 0.0
C220 C 0.60625 0.79154 0.44725 0.0
C221 C 0.61122 0.81387 0.44044 0.0
C222 C 0.6221 0.8044 0.45936 0.0
C223 C 0.6181 0.78083 0.4655 0.0
O224 O 0.63271 0.76027 0.49677 0.0
O225 O 0.61237 0.75362 0.4946 0.0
O226 O 0.60792 0.77513 0.47092 0.0
O227 O 0.62838 0.78146 0.47322 0.0
H228 H 0.62348 0.74979 0.46991 0.0
H229 H 0.63062 0.7325 0.4552 0.0
H230 H 0.64341 0.70947 0.48818 0.0
H231 H 0.63581 0.72684 0.50294 0.0
H232 H 0.62354 0.79277 0.5507 0.0
H233 H 0.62634 0.78569 0.52808 0.0
H234 H 0.58555 0.80865 0.541 0.0
H235 H 0.58848 0.8018 0.5184 0.0
H236 H 0.62578 0.8238 0.45235 0.0
H237 H 0.59709 0.801 0.43105 0.0
H238 H 0.60092 0.78249 0.4456 0.0
H239 H 0.62918 0.80548 0.46717 0.0
C240 C 0.52643 0.38557 0.72904 0.0
C241 C 0.52757 0.39205 0.71705 0.0
C242 C 0.55125 0.38917 0.71749 0.0
C243 C 0.53986 0.39386 0.71134 0.0
C244 C 0.55007 0.38292 0.72966 0.0
C245 C 0.53775 0.38114 0.73538 0.0
U246 U 0.4899 0.38461 0.72427 0.0
O247 O 0.47522 0.36951 0.72895 0.0
O248 O 0.47331 0.38936 0.73705 0.0
C249 C 0.46853 0.3774 0.73654 0.0
C250 C 0.51341 0.38269 0.73444 0.0
C251 C 0.46379 0.37181 0.74884 0.0
C252 C 0.46656 0.36583 0.77161 0.0
C253 C 0.47176 0.37081 0.75996 0.0
C254 C 0.44556 0.36272 0.76097 0.0
C255 C 0.45336 0.36175 0.77224 0.0
C256 C 0.45073 0.36766 0.74942 0.0
C257 C 0.47577 0.39529 0.692 0.0
C258 C 0.45272 0.39143 0.68749 0.0
C259 C 0.46625 0.40256 0.67156 0.0
C260 C 0.47707 0.40148 0.67989 0.0
C261 C 0.45399 0.39739 0.67521 0.0
C262 C 0.46351 0.39041 0.69582 0.0
C263 C 0.48724 0.39357 0.70047 0.0
O264 O 0.5058 0.39292 0.73626 0.0
O265 O 0.50732 0.37282 0.72882 0.0
O266 O 0.49013 0.38132 0.70312 0.0
O267 O 0.48763 0.40122 0.71077 0.0
H268 H 0.5189 0.39542 0.71195 0.0
H269 H 0.54037 0.39852 0.70188 0.0
H270 H 0.55866 0.37929 0.7347 0.0
H271 H 0.53704 0.37607 0.74462 0.0
H272 H 0.47285 0.36516 0.78009 0.0
H273 H 0.4819 0.37397 0.75966 0.0
H274 H 0.4353 0.35999 0.76113 0.0
H275 H 0.44443 0.36843 0.74094 0.0
H276 H 0.44338 0.38751 0.69065 0.0
H277 H 0.46755 0.4071 0.66212 0.0
H278 H 0.48648 0.40529 0.67681 0.0
H279 H 0.46233 0.38566 0.70518 0.0
C280 C 0.88944 0.22681 0.02712 0.0
C281 C 0.89513 0.2144 0.02864 0.0
C282 C 0.89294 0.21607 0.0522 0.0
C283 C 0.8969 0.20909 0.04106 0.0
C284 C 0.88749 0.22864 0.05062 0.0
C285 C 0.88576 0.23395 0.03817 0.0
U286 U 0.88748 0.22069 0.99104 0.0
O287 O 0.87247 0.22579 0.97652 0.0
O288 O 0.89275 0.23266 0.97401 0.0
C289 C 0.88071 0.23265 0.96943 0.0
C290 C 0.88662 0.23188 0.01402 0.0
C291 C 0.87581 0.24509 0.96418 0.0
C292 C 0.86779 0.2674 0.96656 0.0
C293 C 0.87264 0.25582 0.97214 0.0
C294 C 0.86932 0.25752 0.94514 0.0
C295 C 0.86598 0.26831 0.95297 0.0
C296 C 0.87416 0.24605 0.9507 0.0
C297 C 0.89601 0.18725 0.97792 0.0
C298 C 0.89131 0.18216 0.95528 0.0
C299 C 0.90278 0.16639 0.96875 0.0
C300 C 0.90213 0.17505 0.97932 0.0
C301 C 0.89725 0.16981 0.95665 0.0
C302 C 0.89073 0.19081 0.96581 0.0
C303 C 0.89496 0.19619 0.98909 0.0
O304 O 0.89679 0.23281 0.00622 0.0
O305 O 0.87632 0.22657 0.00837 0.0
O306 O 0.88294 0.19965 0.99205 0.0
O307 O 0.90322 0.20609 0.98905 0.0
H308 H 0.89792 0.20869 0.02019 0.0
H309 H 0.90092 0.19931 0.04189 0.0
H310 H 0.88445 0.23431 0.05901 0.0
H311 H 0.88131 0.24353 0.03716 0.0
H312 H 0.8653 0.27555 0.97284 0.0
H313 H 0.87387 0.25521 0.98261 0.0
H314 H 0.86836 0.25796 0.93464 0.0
H315 H 0.87662 0.23788 0.94441 0.0
H316 H 0.88713 0.18515 0.94605 0.0
H317 H 0.90733 0.15691 0.97013 0.0
H318 H 0.90627 0.17217 0.98861 0.0
H319 H 0.88605 0.20025 0.96454 0.0
C320 C 0.24149 0.01639 0.37925 0.0
C321 C 0.24244 0.02963 0.38284 0.0
C322 C 0.22071 0.03382 0.374 0.0
C323 C 0.23215 0.03823 0.3803 0.0
C324 C 0.21984 0.02058 0.37021 0.0
C325 C 0.23016 0.01191 0.37287 0.0
U326 U 0.27728 0.0128 0.3862 0.0
O327 O 0.28829 0.0009 0.40034 0.0
O328 O 0.29234 0.99905 0.3794 0.0
C329 C 0.29489 0.99476 0.39121 0.0
C330 C 0.25252 0.00749 0.38186 0.0
C331 C 0.29614 0.9805 0.39274 0.0
C332 C 0.28902 0.95816 0.38841 0.0
C333 C 0.28696 0.97171 0.38745 0.0
C334 C 0.30921 0.96215 0.40025 0.0
C335 C 0.30027 0.95323 0.39469 0.0
C336 C 0.30715 0.97563 0.39928 0.0
C337 C 0.29693 0.04493 0.3873 0.0
C338 C 0.31985 0.04899 0.38216 0.0
C339 C 0.30809 0.06405 0.39612 0.0
C340 C 0.29682 0.05634 0.39492 0.0
C341 C 0.31968 0.06055 0.38962 0.0
C342 C 0.30859 0.0412 0.38106 0.0
C343 C 0.28467 0.03743 0.38564 0.0
O344 O 0.26146 0.00709 0.37267 0.0
O345 O 0.25756 0.00842 0.39363 0.0
O346 O 0.28006 0.03175 0.39617 0.0
O347 O 0.28382 0.03003 0.37518 0.0
H348 H 0.25119 0.03334 0.38758 0.0
H349 H 0.23321 0.04841 0.38312 0.0
H350 H 0.21114 0.0169 0.36537 0.0
H351 H 0.2293 0.00174 0.36993 0.0
H352 H 0.28189 0.95156 0.38412 0.0
H353 H 0.27836 0.97532 0.38241 0.0
H354 H 0.31809 0.95876 0.40494 0.0
H355 H 0.31435 0.98228 0.4034 0.0
H356 H 0.32868 0.04598 0.37715 0.0
H357 H 0.30761 0.07297 0.40182 0.0
H358 H 0.28792 0.0594 0.39979 0.0
H359 H 0.30898 0.03238 0.37519 0.0
C360 C 0.22843 0.97331 0.61722 0.0
C361 C 0.21584 0.97248 0.61173 0.0
C362 C 0.21594 0.94877 0.61435 0.0
C363 C 0.20968 0.96033 0.61026 0.0
C364 C 0.2286 0.94964 0.61977 0.0
C365 C 0.2348 0.96183 0.62117 0.0
U366 U 0.22485 0.00991 0.6196 0.0
O367 O 0.23329 0.02446 0.63306 0.0
O368 O 0.23672 0.02621 0.61201 0.0
C369 C 0.23945 0.03074 0.6237 0.0
C370 C 0.23461 0.98617 0.61932 0.0
C371 C 0.25322 0.03468 0.62611 0.0
C372 C 0.27215 0.03704 0.64045 0.0
C373 C 0.25971 0.03178 0.63786 0.0
C374 C 0.27196 0.04783 0.61946 0.0
C375 C 0.27834 0.04527 0.63134 0.0
C376 C 0.25955 0.04263 0.61691 0.0
C377 C 0.19087 0.02431 0.61486 0.0
C378 C 0.18653 0.04735 0.61889 0.0
C379 C 0.16979 0.03362 0.60904 0.0
C380 C 0.17826 0.02288 0.60964 0.0
C381 C 0.17382 0.04596 0.61372 0.0
C382 C 0.19501 0.03661 0.61941 0.0
C383 C 0.19965 0.01295 0.61545 0.0
O384 O 0.23472 0.99395 0.60911 0.0
O385 O 0.23107 0.99216 0.63009 0.0
O386 O 0.20466 0.01046 0.62699 0.0
O387 O 0.2083 0.01223 0.60602 0.0
H388 H 0.2107 0.98127 0.60876 0.0
H389 H 0.19985 0.96002 0.60626 0.0
H390 H 0.23371 0.94091 0.62293 0.0
H391 H 0.24449 0.9623 0.62547 0.0
H392 H 0.27685 0.03479 0.64964 0.0
H393 H 0.25507 0.02574 0.6452 0.0
H394 H 0.27631 0.05431 0.61232 0.0
H395 H 0.2547 0.04519 0.60786 0.0
H396 H 0.18998 0.05676 0.62241 0.0
H397 H 0.16002 0.03222 0.60513 0.0
H398 H 0.17493 0.01344 0.60606 0.0
H399 H 0.20478 0.0379 0.62338 0.0
C400 C 0.23029 0.02784 0.88831 0.0
C401 C 0.21782 0.02885 0.89396 0.0
C402 C 0.21825 0.05255 0.8912 0.0
C403 C 0.21187 0.04108 0.89542 0.0
C404 C 0.23083 0.0515 0.88568 0.0
C405 C 0.2368 0.03923 0.88426 0.0
U406 U 0.22574 0.99135 0.88669 0.0
O407 O 0.23265 0.97652 0.87278 0.0
O408 O 0.23767 0.97476 0.89356 0.0
C409 C 0.23897 0.96988 0.88178 0.0
C410 C 0.23611 0.01486 0.88604 0.0
C411 C 0.25194 0.96459 0.87836 0.0
C412 C 0.27188 0.9644 0.86535 0.0
C413 C 0.26033 0.97069 0.86935 0.0
C414 C 0.26684 0.94615 0.87957 0.0
C415 C 0.27506 0.95191 0.8702 0.0
C416 C 0.25543 0.95242 0.88358 0.0
C417 C 0.19196 0.97754 0.89363 0.0
C418 C 0.1868 0.95476 0.88902 0.0
C419 C 0.17138 0.96816 0.90099 0.0
C420 C 0.17996 0.97884 0.9001 0.0
C421 C 0.17466 0.95604 0.89535 0.0
C422 C 0.1954 0.9654 0.88821 0.0
C423 C 0.20083 0.98885 0.89254 0.0
O424 O 0.23673 0.00721 0.89633 0.0
O425 O 0.23174 0.00879 0.87559 0.0
O426 O 0.20505 0.99135 0.88071 0.0
O427 O 0.21015 0.98944 0.90137 0.0
H428 H 0.21257 0.02013 0.89701 0.0
H429 H 0.2021 0.0415 0.8995 0.0
H430 H 0.23604 0.06015 0.88241 0.0
H431 H 0.24641 0.03862 0.87983 0.0
H432 H 0.27805 0.96907 0.85814 0.0
H433 H 0.25781 0.9801 0.86519 0.0
H434 H 0.26915 0.93665 0.88367 0.0
H435 H 0.2491 0.94755 0.89054 0.0
H436 H 0.18968 0.9455 0.88473 0.0
H437 H 0.16205 0.96948 0.90584 0.0
H438 H 0.17718 0.98814 0.90437 0.0
H439 H 0.2047 0.96419 0.88328 0.0
C440 C 0.23787 0.98634 0.12687 0.0
C441 C 0.23817 0.97324 0.12271 0.0
C442 C 0.21693 0.96921 0.13268 0.0
C443 C 0.22779 0.96479 0.12552 0.0
C444 C 0.21673 0.98229 0.13704 0.0
C445 C 0.22712 0.99081 0.13411 0.0
U446 U 0.27345 0.98928 0.1188 0.0
O447 O 0.28431 0.00111 0.1045 0.0
O448 O 0.28915 0.00255 0.12533 0.0
C449 C 0.29146 0.00689 0.11349 0.0
C450 C 0.24903 0.99506 0.12403 0.0
C451 C 0.29335 0.02109 0.11205 0.0
C452 C 0.28751 0.04368 0.11678 0.0
C453 C 0.2848 0.03023 0.11769 0.0
C454 C 0.30707 0.0389 0.10433 0.0
C455 C 0.29878 0.04816 0.11021 0.0
C456 C 0.30436 0.02553 0.10524 0.0
C457 C 0.29247 0.95707 0.11656 0.0
C458 C 0.31542 0.95273 0.1213 0.0
C459 C 0.30352 0.9387 0.10631 0.0
C460 C 0.29226 0.94625 0.10813 0.0
C461 C 0.31517 0.94177 0.11299 0.0
C462 C 0.30419 0.96036 0.12302 0.0
C463 C 0.28029 0.96452 0.11873 0.0
O464 O 0.25832 0.99512 0.13293 0.0
O465 O 0.2536 0.99422 0.11209 0.0
O466 O 0.27539 0.97044 0.10845 0.0
O467 O 0.27986 0.97172 0.12935 0.0
H468 H 0.24648 0.96951 0.11731 0.0
H469 H 0.22835 0.95472 0.12223 0.0
H470 H 0.20848 0.98595 0.14256 0.0
H471 H 0.22678 0.00086 0.13751 0.0
H472 H 0.28086 0.05055 0.12132 0.0
H473 H 0.2762 0.02696 0.12295 0.0
H474 H 0.31595 0.04192 0.09941 0.0
H475 H 0.31108 0.01859 0.10086 0.0
H476 H 0.3243 0.95539 0.12646 0.0
H477 H 0.30302 0.93024 0.09994 0.0
H478 H 0.28333 0.94353 0.10307 0.0
H479 H 0.30467 0.96873 0.12949 0.0
C480 C 0.3799 0.24198 0.02138 0.0
C481 C 0.38173 0.24347 0.03484 0.0
C482 C 0.37194 0.22206 0.03875 0.0
C483 C 0.37787 0.23362 0.04342 0.0
C484 C 0.37019 0.22054 0.02522 0.0
C485 C 0.37413 0.23045 0.01659 0.0
U486 U 0.38835 0.27734 0.01829 0.0
O487 O 0.40344 0.28812 0.00726 0.0
O488 O 0.38257 0.29281 0.00462 0.0
C489 C 0.39469 0.29508 0.0009 0.0
C490 C 0.38353 0.25277 0.01259 0.0
C491 C 0.39686 0.29688 0.98684 0.0
C492 C 0.39019 0.29406 0.96424 0.0
C493 C 0.38908 0.29059 0.9774 0.0
C494 C 0.4073 0.30961 0.96979 0.0
C495 C 0.39906 0.3039 0.96036 0.0
C496 C 0.4062 0.30614 0.98288 0.0
C497 C 0.3876 0.2964 0.05049 0.0
C498 C 0.39561 0.31868 0.05333 0.0
C499 C 0.38221 0.30859 0.07003 0.0
C500 C 0.38138 0.29716 0.0626 0.0
C501 C 0.38931 0.31949 0.06549 0.0
C502 C 0.39471 0.30723 0.04585 0.0
C503 C 0.38632 0.28431 0.04281 0.0
O504 O 0.37466 0.26203 0.01154 0.0
O505 O 0.39546 0.25741 0.01429 0.0
O506 O 0.39717 0.27969 0.03772 0.0
O507 O 0.37631 0.28397 0.03476 0.0
H508 H 0.38612 0.25234 0.03874 0.0
H509 H 0.37962 0.23504 0.05373 0.0
H510 H 0.36557 0.21181 0.02131 0.0
H511 H 0.37254 0.22918 0.00623 0.0
H512 H 0.38367 0.28954 0.95721 0.0
H513 H 0.38181 0.28339 0.98025 0.0
H514 H 0.41436 0.31707 0.96708 0.0
H515 H 0.41231 0.31108 0.99001 0.0
H516 H 0.40106 0.32695 0.04953 0.0
H517 H 0.3774 0.30885 0.07943 0.0
H518 H 0.37586 0.28889 0.06631 0.0
H519 H 0.3995 0.30684 0.03645 0.0
C520 C 0.02526 0.88703 0.22778 0.0
C521 C 0.02664 0.89287 0.21549 0.0
C522 C 0.05034 0.89031 0.21668 0.0
C523 C 0.03906 0.89452 0.21001 0.0
C524 C 0.04891 0.88468 0.22912 0.0
C525 C 0.03645 0.88305 0.23462 0.0
U526 U 0.98886 0.88598 0.22225 0.0
O527 O 0.97393 0.87126 0.22731 0.0
O528 O 0.97199 0.89152 0.23436 0.0
C529 C 0.96705 0.8796 0.23425 0.0
C530 C 0.01211 0.88441 0.23303 0.0
C531 C 0.9617 0.87472 0.24659 0.0
C532 C 0.9639 0.86733 0.269 0.0
C533 C 0.96961 0.87192 0.25742 0.0
C534 C 0.94245 0.86833 0.25887 0.0
C535 C 0.95023 0.86545 0.26982 0.0
C536 C 0.94813 0.87289 0.2474 0.0
C537 C 0.97547 0.89535 0.18931 0.0
C538 C 0.95248 0.89141 0.18456 0.0
C539 C 0.9662 0.90236 0.16867 0.0
C540 C 0.97692 0.90139 0.17715 0.0
C541 C 0.9539 0.89724 0.17224 0.0
C542 C 0.96316 0.8905 0.19303 0.0
C543 C 0.98679 0.89388 0.19803 0.0
O544 O 0.00451 0.89473 0.23424 0.0
O545 O 0.0061 0.87431 0.22771 0.0
O546 O 0.9895 0.88173 0.20127 0.0
O547 O 0.98709 0.90199 0.20798 0.0
H548 H 0.01808 0.89589 0.21001 0.0
H549 H 0.03976 0.89868 0.20034 0.0
H550 H 0.0574 0.88143 0.23457 0.0
H551 H 0.03555 0.87849 0.2441 0.0
H552 H 0.97017 0.86517 0.27724 0.0
H553 H 0.98013 0.87328 0.25693 0.0
H554 H 0.93189 0.86731 0.25922 0.0
H555 H 0.94188 0.87507 0.23914 0.0
H556 H 0.94309 0.88754 0.18766 0.0
H557 H 0.96761 0.90681 0.15921 0.0
H558 H 0.98636 0.90519 0.17414 0.0
H559 H 0.96186 0.88589 0.20245 0.0
C560 C 0.12809 0.76132 0.51541 0.0
C561 C 0.12681 0.75967 0.5289 0.0
C562 C 0.13672 0.78105 0.53274 0.0
C563 C 0.13101 0.76943 0.53746 0.0
C564 C 0.13796 0.78271 0.51917 0.0
C565 C 0.13369 0.77288 0.51057 0.0
U566 U 0.11686 0.72678 0.51274 0.0
O567 O 0.10101 0.71705 0.50172 0.0
O568 O 0.12142 0.71051 0.49951 0.0
C569 C 0.10918 0.70922 0.49565 0.0
C570 C 0.12377 0.75073 0.50665 0.0
C571 C 0.10693 0.70717 0.4816 0.0
C572 C 0.11462 0.707 0.45919 0.0
C573 C 0.11613 0.71101 0.47217 0.0
C574 C 0.0944 0.69592 0.46482 0.0
C575 C 0.10395 0.69906 0.45547 0.0
C576 C 0.09589 0.69992 0.47774 0.0
C577 C 0.11533 0.70859 0.54529 0.0
C578 C 0.10897 0.68571 0.54719 0.0
C579 C 0.11534 0.69801 0.56641 0.0
C580 C 0.11743 0.7091 0.55875 0.0
C581 C 0.11108 0.68618 0.56074 0.0
C582 C 0.11107 0.69686 0.53952 0.0
C583 C 0.11788 0.72032 0.53746 0.0
O584 O 0.13186 0.74074 0.50596 0.0
O585 O 0.11148 0.74712 0.50817 0.0
O586 O 0.10756 0.72573 0.53203 0.0
O587 O 0.12799 0.71954 0.5296 0.0
H588 H 0.12252 0.7508 0.53283 0.0
H589 H 0.12963 0.7679 0.5478 0.0
H590 H 0.14239 0.7915 0.51522 0.0
H591 H 0.13482 0.77428 0.50017 0.0
H592 H 0.12218 0.70952 0.45223 0.0
H593 H 0.12473 0.71662 0.4749 0.0
H594 H 0.08597 0.68999 0.46222 0.0
H595 H 0.08868 0.69687 0.48486 0.0
H596 H 0.10559 0.67679 0.54254 0.0
H597 H 0.11729 0.69865 0.57677 0.0
H598 H 0.1208 0.71808 0.56333 0.0
H599 H 0.10941 0.69632 0.5291 0.0
C600 C 0.97567 0.63984 0.77802 0.0
C601 C 0.9634 0.64603 0.77819 0.0
C602 C 0.96195 0.64295 0.80166 0.0
C603 C 0.95664 0.64762 0.78989 0.0
C604 C 0.97442 0.63706 0.80149 0.0
C605 C 0.98121 0.6355 0.78974 0.0
U606 U 0.97311 0.63695 0.74165 0.0
O607 O 0.98094 0.6225 0.7278 0.0
O608 O 0.98592 0.64335 0.72567 0.0
C609 C 0.98793 0.63131 0.72153 0.0
C610 C 0.98219 0.63717 0.76555 0.0
C611 C 0.00159 0.62787 0.71811 0.0
C612 C 0.01896 0.61174 0.71535 0.0
C613 C 0.00666 0.61524 0.72029 0.0
C614 C 0.02147 0.63349 0.70631 0.0
C615 C 0.02642 0.62077 0.70814 0.0
C616 C 0.00921 0.63697 0.7112 0.0
C617 C 0.93987 0.64342 0.72617 0.0
C618 C 0.93552 0.63849 0.70343 0.0
C619 C 0.91952 0.65048 0.71613 0.0
C620 C 0.92775 0.64978 0.72701 0.0
C621 C 0.92328 0.64476 0.70424 0.0
C622 C 0.94377 0.63787 0.71429 0.0
C623 C 0.94834 0.64261 0.73772 0.0
O624 O 0.97819 0.62643 0.75966 0.0
O625 O 0.98318 0.64726 0.75764 0.0
O626 O 0.9576 0.65156 0.73844 0.0
O627 O 0.95248 0.63079 0.74067 0.0
H628 H 0.95894 0.64939 0.76921 0.0
H629 H 0.94716 0.65237 0.78969 0.0
H630 H 0.97872 0.63322 0.81034 0.0
H631 H 0.99062 0.63061 0.78977 0.0
H632 H 0.02253 0.60189 0.71701 0.0
H633 H 0.001 0.60794 0.72548 0.0
H634 H 0.0268 0.64064 0.70059 0.0
H635 H 0.00547 0.64669 0.70916 0.0
H636 H 0.93876 0.63415 0.69436 0.0
H637 H 0.91011 0.65526 0.71709 0.0
H638 H 0.92462 0.65413 0.73611 0.0
H639 H 0.95316 0.63301 0.71345 0.0
C640 C 0.14094 0.27412 0.47984 0.0
C641 C 0.14884 0.27462 0.46868 0.0
C642 C 0.14415 0.29785 0.46605 0.0
C643 C 0.1505 0.28636 0.46191 0.0
C644 C 0.13658 0.29742 0.4775 0.0
C645 C 0.13497 0.28563 0.48432 0.0
U646 U 0.1383 0.23783 0.47587 0.0
O647 O 0.12361 0.22337 0.48213 0.0
O648 O 0.14425 0.22102 0.48792 0.0
C649 C 0.13224 0.21638 0.48862 0.0
C650 C 0.13799 0.2614 0.48597 0.0
C651 C 0.12806 0.21102 0.50124 0.0
C652 C 0.11761 0.21279 0.52245 0.0
C653 C 0.12211 0.21868 0.51093 0.0
C654 C 0.12515 0.1917 0.51465 0.0
C655 C 0.1189 0.19917 0.52432 0.0
C656 C 0.12967 0.19756 0.50327 0.0
C657 C 0.14605 0.22426 0.44233 0.0
C658 C 0.1429 0.20117 0.4375 0.0
C659 C 0.15191 0.21566 0.42109 0.0
C660 C 0.15103 0.22618 0.42978 0.0
C661 C 0.1478 0.20303 0.42483 0.0
C662 C 0.14205 0.21169 0.44618 0.0
C663 C 0.14492 0.23541 0.45129 0.0
O664 O 0.12742 0.25558 0.48143 0.0
O665 O 0.14802 0.25341 0.48719 0.0
O666 O 0.1535 0.23563 0.46085 0.0
O667 O 0.13294 0.23808 0.45512 0.0
H668 H 0.15347 0.26583 0.46498 0.0
H669 H 0.15655 0.28637 0.45326 0.0
H670 H 0.13144 0.30605 0.48088 0.0
H671 H 0.12872 0.28541 0.49284 0.0
H672 H 0.11285 0.21879 0.52974 0.0
H673 H 0.12079 0.22911 0.5095 0.0
H674 H 0.12657 0.18125 0.5159 0.0
H675 H 0.13428 0.19151 0.49591 0.0
H676 H 0.13949 0.19163 0.44064 0.0
H677 H 0.15589 0.2174 0.41147 0.0
H678 H 0.1542 0.23583 0.42669 0.0
H679 H 0.13816 0.21006 0.45586 0.0
C680 C 0.49147 0.37849 0.23341 0.0
C681 C 0.49259 0.37689 0.21989 0.0
C682 C 0.47134 0.3872 0.21662 0.0
C683 C 0.48263 0.38113 0.2116 0.0
C684 C 0.47021 0.38872 0.23021 0.0
C685 C 0.48023 0.38441 0.23854 0.0
U686 U 0.52644 0.36827 0.23569 0.0
O687 O 0.54254 0.37338 0.24901 0.0
O688 O 0.53664 0.35278 0.24666 0.0
C689 C 0.54422 0.36119 0.25281 0.0
C690 C 0.50232 0.37434 0.24191 0.0
C691 C 0.54584 0.35919 0.26689 0.0
C692 C 0.53958 0.36331 0.28934 0.0
C693 C 0.53705 0.36446 0.27597 0.0
C694 C 0.55944 0.35126 0.28461 0.0
C695 C 0.55093 0.35685 0.29382 0.0
C696 C 0.55691 0.35242 0.2713 0.0
C697 C 0.54482 0.36788 0.20317 0.0
C698 C 0.56657 0.35877 0.20003 0.0
C699 C 0.55699 0.37275 0.1835 0.0
C700 C 0.54573 0.37411 0.19107 0.0
C701 C 0.56755 0.3651 0.18789 0.0
C702 C 0.5553 0.36021 0.20765 0.0
C703 C 0.53296 0.3698 0.21103 0.0
O704 O 0.50624 0.3622 0.24014 0.0
O705 O 0.51209 0.38274 0.24266 0.0
O706 O 0.53332 0.37986 0.219 0.0
O707 O 0.52787 0.35921 0.2163 0.0
H708 H 0.50123 0.37238 0.21573 0.0
H709 H 0.48374 0.37953 0.20123 0.0
H710 H 0.4617 0.39344 0.23439 0.0
H711 H 0.47925 0.38581 0.24896 0.0
H712 H 0.53275 0.36761 0.29617 0.0
H713 H 0.52842 0.3697 0.27272 0.0
H714 H 0.56838 0.34644 0.28764 0.0
H715 H 0.56382 0.34833 0.26441 0.0
H716 H 0.57459 0.3529 0.20371 0.0
H717 H 0.55738 0.3776 0.17412 0.0
H718 H 0.53773 0.38008 0.18748 0.0
H719 H 0.55479 0.3554 0.21704 0.0
C720 C 0.3653 0.72319 0.97499 0.0
C721 C 0.36001 0.72255 0.96238 0.0
C722 C 0.36246 0.69883 0.96226 0.0
C723 C 0.35856 0.7105 0.95611 0.0
C724 C 0.36738 0.69947 0.97507 0.0
C725 C 0.36883 0.71158 0.98138 0.0
U726 U 0.36885 0.75929 0.97016 0.0
O727 O 0.3622 0.7765 0.98128 0.0
O728 O 0.38319 0.77372 0.97726 0.0
C729 C 0.37419 0.78094 0.98293 0.0
C730 C 0.36797 0.73605 0.98093 0.0
C731 C 0.37741 0.78645 0.99578 0.0
C732 C 0.38858 0.78584 0.01675 0.0
C733 C 0.38469 0.77958 0.00518 0.0
C734 C 0.37768 0.80568 0.00966 0.0
C735 C 0.38534 0.79906 0.01894 0.0
C736 C 0.37377 0.79943 0.99823 0.0
C737 C 0.36389 0.77256 0.93618 0.0
C738 C 0.36725 0.79575 0.9321 0.0
C739 C 0.35931 0.7816 0.9148 0.0
C740 C 0.35973 0.77088 0.92328 0.0
C741 C 0.36306 0.79417 0.91912 0.0
C742 C 0.36764 0.78504 0.94055 0.0
C743 C 0.36418 0.76134 0.94511 0.0
O744 O 0.37895 0.74157 0.97706 0.0
O745 O 0.35799 0.74419 0.981 0.0
O746 O 0.35488 0.76125 0.95393 0.0
O747 O 0.37579 0.75854 0.94991 0.0
H748 H 0.35728 0.73142 0.95727 0.0
H749 H 0.35457 0.71034 0.94632 0.0
H750 H 0.37058 0.69067 0.98003 0.0
H751 H 0.37301 0.71192 0.99108 0.0
H752 H 0.39446 0.78052 0.02375 0.0
H753 H 0.3876 0.76952 0.00345 0.0
H754 H 0.37479 0.81577 0.0112 0.0
H755 H 0.36813 0.80488 0.99111 0.0
H756 H 0.37038 0.80524 0.93569 0.0
H757 H 0.35588 0.78008 0.90493 0.0
H758 H 0.35674 0.76131 0.91979 0.0
H759 H 0.37089 0.78649 0.95051 0.0
C760 C 0.00991 0.37594 0.76614 0.0
C761 C 0.0082 0.37391 0.77954 0.0
C762 C 0.02942 0.38391 0.78404 0.0
C763 C 0.01785 0.3778 0.78838 0.0
C764 C 0.03114 0.38588 0.77057 0.0
C765 C 0.02143 0.38193 0.76169 0.0
U766 U 0.97515 0.36543 0.76219 0.0
O767 O 0.9594 0.37109 0.74874 0.0
O768 O 0.96543 0.35044 0.75004 0.0
C769 C 0.95789 0.3591 0.74426 0.0
C770 C 0.99939 0.37215 0.75707 0.0
C771 C 0.95606 0.35765 0.73011 0.0
C772 C 0.95844 0.3656 0.70791 0.0
C773 C 0.962 0.36613 0.7211 0.0
C774 C 0.94349 0.34773 0.71258 0.0
C775 C 0.94883 0.35665 0.70362 0.0
C776 C 0.94707 0.34823 0.72568 0.0
C777 C 0.95548 0.3625 0.79379 0.0
C778 C 0.93221 0.36609 0.79742 0.0
C779 C 0.94459 0.35247 0.81231 0.0
C780 C 0.9559 0.35457 0.80493 0.0
C781 C 0.93268 0.35836 0.80873 0.0
C782 C 0.94349 0.36808 0.78996 0.0
C783 C 0.9677 0.36516 0.78662 0.0
O784 O 0.99553 0.35987 0.75801 0.0
O785 O 0.98957 0.38045 0.75652 0.0
O786 O 0.96783 0.37581 0.77941 0.0
O787 O 0.97316 0.35503 0.7809 0.0
H788 H 0.99934 0.36933 0.78317 0.0
H789 H 0.01628 0.37588 0.79863 0.0
H790 H 0.03989 0.39064 0.76691 0.0
H791 H 0.02287 0.38366 0.75138 0.0
H792 H 0.96266 0.37263 0.70122 0.0
H793 H 0.96898 0.37347 0.72433 0.0
H794 H 0.93619 0.34063 0.70951 0.0
H795 H 0.94241 0.34158 0.73248 0.0
H796 H 0.92313 0.37063 0.79436 0.0
H797 H 0.94527 0.34656 0.82105 0.0
H798 H 0.96504 0.35019 0.80805 0.0
H799 H 0.94285 0.37414 0.78133 0.0
C800 C 0.36542 0.27897 0.52674 0.0
C801 C 0.36016 0.2787 0.53935 0.0
C802 C 0.3622 0.30243 0.54093 0.0
C803 C 0.35851 0.29031 0.54635 0.0
C804 C 0.36715 0.30268 0.52814 0.0
C805 C 0.36877 0.29102 0.52111 0.0
U806 U 0.36937 0.24246 0.52846 0.0
O807 O 0.38377 0.22903 0.51981 0.0
O808 O 0.36279 0.22639 0.51572 0.0
C809 C 0.37482 0.22262 0.5131 0.0
C810 C 0.36814 0.26661 0.51988 0.0
C811 C 0.37775 0.21958 0.49929 0.0
C812 C 0.39334 0.21711 0.48149 0.0
C813 C 0.39029 0.22167 0.494 0.0
C814 C 0.37128 0.2086 0.47922 0.0
C815 C 0.38392 0.21033 0.47404 0.0
C816 C 0.36826 0.21312 0.4917 0.0
C817 C 0.3646 0.2265 0.56169 0.0
C818 C 0.37057 0.20393 0.56621 0.0
C819 C 0.35754 0.21613 0.58176 0.0
C820 C 0.35791 0.22706 0.57357 0.0
C821 C 0.36391 0.20446 0.57819 0.0
C822 C 0.37086 0.21485 0.558 0.0
C823 C 0.36488 0.23811 0.55324 0.0
O824 O 0.37919 0.26095 0.52327 0.0
O825 O 0.35823 0.25837 0.51919 0.0
O826 O 0.35553 0.23867 0.54445 0.0
O827 O 0.37646 0.24136 0.54865 0.0
H828 H 0.35755 0.26947 0.54388 0.0
H829 H 0.3545 0.28978 0.55609 0.0
H830 H 0.37022 0.31182 0.52373 0.0
H831 H 0.37292 0.29139 0.51142 0.0
H832 H 0.40313 0.21869 0.47775 0.0
H833 H 0.39789 0.2265 0.49962 0.0
H834 H 0.36385 0.20322 0.47388 0.0
H835 H 0.35859 0.21114 0.49558 0.0
H836 H 0.37543 0.19503 0.56313 0.0
H837 H 0.35245 0.21688 0.59097 0.0
H838 H 0.35301 0.23599 0.57655 0.0
H839 H 0.37598 0.21421 0.54878 0.0
C840 C 0.49037 0.62578 0.27219 0.0
C841 C 0.4914 0.62899 0.28544 0.0
C842 C 0.46986 0.6196 0.28955 0.0
C843 C 0.48124 0.62599 0.29402 0.0
C844 C 0.46893 0.61618 0.27629 0.0
C845 C 0.47911 0.6193 0.26766 0.0
U846 U 0.52571 0.63482 0.26854 0.0
O847 O 0.54119 0.62858 0.25506 0.0
O848 O 0.53594 0.64941 0.25645 0.0
C849 C 0.54313 0.64051 0.2506 0.0
C850 C 0.50124 0.62895 0.26331 0.0
C851 C 0.54455 0.64184 0.23642 0.0
C852 C 0.53789 0.63691 0.2142 0.0
C853 C 0.53561 0.63619 0.22765 0.0
C854 C 0.55783 0.64922 0.21826 0.0
C855 C 0.54915 0.64329 0.20935 0.0
C856 C 0.55553 0.6485 0.23163 0.0
C857 C 0.54522 0.63747 0.30056 0.0
C858 C 0.56767 0.63192 0.30639 0.0
C859 C 0.55614 0.6487 0.31846 0.0
C860 C 0.54512 0.64685 0.31056 0.0
C861 C 0.56748 0.6411 0.31662 0.0
C862 C 0.55667 0.63014 0.29842 0.0
C863 C 0.53309 0.63505 0.29304 0.0
O864 O 0.50559 0.64107 0.26411 0.0
O865 O 0.51072 0.62024 0.26304 0.0
O866 O 0.53278 0.62438 0.28586 0.0
O867 O 0.52793 0.64529 0.28722 0.0
H868 H 0.5001 0.63383 0.28917 0.0
H869 H 0.48237 0.62853 0.3042 0.0
H870 H 0.46026 0.61129 0.27257 0.0
H871 H 0.47819 0.61666 0.25747 0.0
H872 H 0.53094 0.63234 0.20761 0.0
H873 H 0.52703 0.63105 0.23119 0.0
H874 H 0.56671 0.65399 0.21495 0.0
H875 H 0.56255 0.65289 0.23828 0.0
H876 H 0.57617 0.6258 0.30476 0.0
H877 H 0.55572 0.65602 0.32609 0.0
H878 H 0.53642 0.65263 0.31239 0.0
H879 H 0.55707 0.62284 0.29077 0.0
C880 C 0.12849 0.77141 0.98964 0.0
C881 C 0.1299 0.78498 0.99128 0.0
C882 C 0.12086 0.78882 0.96965 0.0
C883 C 0.12621 0.79358 0.98139 0.0
C884 C 0.1195 0.77517 0.96801 0.0
C885 C 0.12328 0.76653 0.97795 0.0
U886 U 0.13642 0.76796 0.02495 0.0
O887 O 0.13082 0.75372 0.03998 0.0
O888 O 0.15167 0.75708 0.03565 0.0
C889 C 0.14302 0.75027 0.0423 0.0
C890 C 0.13212 0.76255 1.00036 0.0
C891 C 0.14566 0.73616 0.04401 0.0
C892 C 0.13852 0.71338 0.04365 0.0
C893 C 0.13677 0.72645 0.03987 0.0
C894 C 0.1584 0.71944 0.05512 0.0
C895 C 0.14914 0.70982 0.05167 0.0
C896 C 0.15666 0.73247 0.05134 0.0
C897 C 0.13482 0.79982 0.04462 0.0
C898 C 0.14289 0.80231 0.06678 0.0
C899 C 0.12911 0.81908 0.05724 0.0
C900 C 0.12835 0.81186 0.04571 0.0
C901 C 0.13639 0.8144 0.0679 0.0
C902 C 0.14206 0.79503 0.05523 0.0
C903 C 0.13374 0.79242 0.03239 0.0
O904 O 0.14392 0.76448 0.00519 0.0
O905 O 0.12311 0.76118 0.0094 0.0
O906 O 0.12392 0.78409 0.03179 0.0
O907 O 0.14474 0.78766 0.02772 0.0
H908 H 0.13387 0.78895 1.00026 0.0
H909 H 0.12766 0.80399 0.98292 0.0
H910 H 0.11532 0.77117 0.95915 0.0
H911 H 0.12203 0.75607 0.97656 0.0
H912 H 0.13117 0.70621 0.0409 0.0
H913 H 0.1282 0.72903 0.03421 0.0
H914 H 0.16678 0.71698 0.06112 0.0
H915 H 0.16364 0.73978 0.05465 0.0
H916 H 0.14848 0.79841 0.07487 0.0
H917 H 0.12414 0.82844 0.05773 0.0
H918 H 0.12272 0.81568 0.03761 0.0
H919 H 0.14704 0.78569 0.05459 0.0
C920 C 0.77898 0.97959 0.63633 0.0
C921 C 0.77988 0.96694 0.6416 0.0
C922 C 0.80362 0.96743 0.63923 0.0
C923 C 0.79208 0.96093 0.64308 0.0
C924 C 0.80267 0.98016 0.63405 0.0
C925 C 0.79043 0.9862 0.63262 0.0
U926 U 0.74233 0.97575 0.63437 0.0
O927 O 0.72766 0.98381 0.62087 0.0
O928 O 0.7261 0.98773 0.64187 0.0
C929 C 0.72141 0.99009 0.63016 0.0
C930 C 0.76607 0.98563 0.63423 0.0
C931 C 0.71725 0.00371 0.62753 0.0
C932 C 0.71548 0.02272 0.61329 0.0
C933 C 0.72091 0.01044 0.61615 0.0
C934 C 0.70296 0.02183 0.63328 0.0
C935 C 0.70631 0.02849 0.62176 0.0
C936 C 0.70835 0.0096 0.6361 0.0
C937 C 0.72775 0.94202 0.63999 0.0
C938 C 0.70441 0.93825 0.63718 0.0
C939 C 0.71831 0.92085 0.64533 0.0
C940 C 0.7292 0.92916 0.6445 0.0
C941 C 0.7058 0.92529 0.64162 0.0
C942 C 0.7153 0.94656 0.6364 0.0
C943 C 0.73923 0.95067 0.63911 0.0
O944 O 0.75997 0.98178 0.6236 0.0
O945 O 0.75842 0.98593 0.64451 0.0
O946 O 0.74015 0.95955 0.64834 0.0
O947 O 0.74164 0.95537 0.62744 0.0
H948 H 0.77111 0.96164 0.64439 0.0
H949 H 0.79244 0.95105 0.6469 0.0
H950 H 0.81138 0.98545 0.63108 0.0
H951 H 0.78991 0.99595 0.6285 0.0
H952 H 0.71834 0.02763 0.60439 0.0
H953 H 0.72771 0.00612 0.60931 0.0
H954 H 0.69576 0.02582 0.63991 0.0
H955 H 0.70522 0.00454 0.64484 0.0
H956 H 0.69489 0.94202 0.63442 0.0
H957 H 0.71972 0.91088 0.64866 0.0
H958 H 0.73876 0.92552 0.64732 0.0
H959 H 0.714 0.95652 0.63299 0.0
C960 C 0.72214 0.97418 0.36452 0.0
C961 C 0.72114 0.96158 0.35912 0.0
C962 C 0.69748 0.96182 0.36216 0.0
C963 C 0.70893 0.95547 0.35791 0.0
C964 C 0.69853 0.97451 0.36746 0.0
C965 C 0.71077 0.98064 0.36861 0.0
U966 U 0.75889 0.97079 0.36542 0.0
O967 O 0.77478 0.98334 0.35802 0.0
O968 O 0.77373 0.97868 0.37889 0.0
C969 C 0.77962 0.98548 0.36971 0.0
C970 C 0.73506 0.9803 0.36639 0.0
C971 C 0.78336 0.99916 0.37278 0.0
C972 C 0.78566 0.01731 0.38807 0.0
C973 C 0.78059 0.00493 0.38492 0.0
C974 C 0.796 0.01849 0.3669 0.0
C975 C 0.79357 0.02415 0.37915 0.0
C976 C 0.79098 0.00614 0.36378 0.0
C977 C 0.77389 0.93754 0.35886 0.0
C978 C 0.79732 0.93435 0.36144 0.0
C979 C 0.78363 0.91649 0.35373 0.0
C980 C 0.77261 0.92458 0.35454 0.0
C981 C 0.79609 0.92125 0.35728 0.0
C982 C 0.78631 0.94243 0.3622 0.0
C983 C 0.76226 0.94589 0.36001 0.0
O984 O 0.74147 0.97628 0.37676 0.0
O985 O 0.74243 0.98089 0.35591 0.0
O986 O 0.76111 0.95497 0.35101 0.0
O987 O 0.75989 0.95027 0.37181 0.0
H988 H 0.72985 0.95638 0.35602 0.0
H989 H 0.7085 0.94562 0.35398 0.0
H990 H 0.68989 0.97969 0.37073 0.0
H991 H 0.71138 0.99036 0.37284 0.0
H992 H 0.78353 0.02145 0.39755 0.0
H993 H 0.77478 0.99978 0.3921 0.0
H994 H 0.80224 0.02336 0.35988 0.0
H995 H 0.79344 0.00185 0.35444 0.0
H996 H 0.8068 0.93836 0.36408 0.0
H997 H 0.78235 0.90642 0.35062 0.0
H998 H 0.76308 0.92068 0.35192 0.0
H999 H 0.78747 0.95246 0.36548 0.0
C1000 C 0.76997 0.99265 0.12645 0.0
C1001 C 0.78351 0.9941 0.12842 0.0
C1002 C 0.78745 0.97273 0.11863 0.0
C1003 C 0.79214 0.98424 0.12462 0.0
C1004 C 0.77384 0.97126 0.11675 0.0
C1005 C 0.76517 0.98117 0.12061 0.0
U1006 U 0.76688 0.02785 0.13556 0.0
O1007 O 0.75343 0.04352 0.12965 0.0
O1008 O 0.75528 0.03833 0.15035 0.0
C1009 C 0.74921 0.04549 0.14159 0.0
C1010 C 0.76113 0.00343 0.13004 0.0
C1011 C 0.73496 0.04691 0.14314 0.0
C1012 C 0.71255 0.04128 0.13723 0.0
C1013 C 0.72603 0.03877 0.13653 0.0
C1014 C 0.71681 0.05974 0.15149 0.0
C1015 C 0.7078 0.05195 0.14454 0.0
C1016 C 0.73024 0.05724 0.15078 0.0
C1017 C 0.79956 0.04663 0.13621 0.0
C1018 C 0.80292 0.06845 0.14515 0.0
C1019 C 0.81931 0.05881 0.13104 0.0
C1020 C 0.81164 0.04753 0.12983 0.0
C1021 C 0.81504 0.06941 0.13868 0.0
C1022 C 0.7952 0.05716 0.14386 0.0
C1023 C 0.79167 0.03469 0.1345 0.0
O1024 O 0.76253 0.00776 0.14204 0.0
O1025 O 0.76043 0.01291 0.12142 0.0
O1026 O 0.7839 0.03462 0.12429 0.0
O1027 O 0.78613 0.02992 0.14504 0.0
H1028 H 0.78742 0.00292 0.13286 0.0
H1029 H 0.8025 0.98562 0.12647 0.0
H1030 H 0.76992 0.96257 0.11208 0.0
H1031 H 0.75475 0.97994 0.11892 0.0
H1032 H 0.70587 0.03499 0.13188 0.0
H1033 H 0.7295 0.0307 0.13062 0.0
H1034 H 0.71356 0.06815 0.15705 0.0
H1035 H 0.73699 0.06365 0.1559 0.0
H1036 H 0.79934 0.0765 0.15101 0.0
H1037 H 0.82867 0.05918 0.12609 0.0
H1038 H 0.81514 0.0395 0.12389 0.0
H1039 H 0.78582 0.05666 0.14878 0.0
C1040 C 0.73397 0.98709 0.87889 0.0
C1041 C 0.72043 0.98849 0.87703 0.0
C1042 C 0.71653 0.96711 0.88683 0.0
C1043 C 0.71181 0.9786 0.8809 0.0
C1044 C 0.73016 0.96571 0.88862 0.0
C1045 C 0.73881 0.97565 0.88469 0.0
U1046 U 0.73702 0.02211 0.86909 0.0
O1047 O 0.75037 0.03804 0.87481 0.0
O1048 O 0.74869 0.03239 0.85421 0.0
C1049 C 0.75459 0.03987 0.86286 0.0
C1050 C 0.74281 0.99787 0.87516 0.0
C1051 C 0.76881 0.04161 0.86133 0.0
C1052 C 0.79134 0.0357 0.86629 0.0
C1053 C 0.77788 0.03303 0.86706 0.0
C1054 C 0.78674 0.05528 0.85378 0.0
C1055 C 0.79593 0.04698 0.85979 0.0
C1056 C 0.77334 0.0526 0.85454 0.0
C1057 C 0.70447 0.0407 0.86762 0.0
C1058 C 0.7024 0.06318 0.86013 0.0
C1059 C 0.68408 0.05243 0.87071 0.0
C1060 C 0.69154 0.04107 0.8721 0.0
C1061 C 0.68944 0.06365 0.86479 0.0
C1062 C 0.70989 0.05179 0.86159 0.0
C1063 C 0.7122 0.02878 0.86971 0.0
O1064 O 0.74151 0.00192 0.86306 0.0
O1065 O 0.74339 0.00756 0.88359 0.0
O1066 O 0.71985 0.02898 0.88001 0.0
O1067 O 0.71788 0.0238 0.85935 0.0
H1068 H 0.71649 0.99728 0.87261 0.0
H1069 H 0.70144 0.97993 0.87913 0.0
H1070 H 0.73411 0.95704 0.89324 0.0
H1071 H 0.74924 0.97445 0.88628 0.0
H1072 H 0.79815 0.02903 0.87092 0.0
H1073 H 0.77454 0.02446 0.87232 0.0
H1074 H 0.78984 0.06417 0.8489 0.0
H1075 H 0.76647 0.05936 0.85011 0.0
H1076 H 0.70682 0.0717 0.85562 0.0
H1077 H 0.67408 0.05242 0.87422 0.0
H1078 H 0.68722 0.03258 0.87678 0.0
H1079 H 0.71992 0.05168 0.85815 0.0
C1080 C 0.64028 0.77258 0.9801 0.0
C1081 C 0.64659 0.77284 0.96797 0.0
C1082 C 0.64325 0.7964 0.96645 0.0
C1083 C 0.64811 0.78462 0.96124 0.0
C1084 C 0.6373 0.79618 0.97881 0.0
C1085 C 0.63579 0.78433 0.98556 0.0
U1086 U 0.63751 0.73628 0.97641 0.0
O1087 O 0.62286 0.72194 0.98301 0.0
O1088 O 0.64357 0.71953 0.98852 0.0
C1089 C 0.63155 0.71495 0.98942 0.0
C1090 C 0.63748 0.75992 0.98637 0.0
C1091 C 0.62753 0.70962 0.00209 0.0
C1092 C 0.61686 0.71128 0.02322 0.0
C1093 C 0.62134 0.71721 0.01169 0.0
C1094 C 0.62493 0.69032 0.0156 0.0
C1095 C 0.61842 0.69771 0.02515 0.0
C1096 C 0.62943 0.69622 0.00422 0.0
C1097 C 0.64444 0.7222 0.94297 0.0
C1098 C 0.63962 0.69939 0.93815 0.0
C1099 C 0.65094 0.7128 0.92225 0.0
C1100 C 0.6504 0.72349 0.93076 0.0
C1101 C 0.64546 0.70066 0.92581 0.0
C1102 C 0.63915 0.71006 0.94668 0.0
C1103 C 0.64365 0.73353 0.95176 0.0
O1104 O 0.62681 0.75408 0.9821 0.0
O1105 O 0.64754 0.75193 0.98736 0.0
O1106 O 0.65242 0.73379 0.96114 0.0
O1107 O 0.63179 0.73644 0.95577 0.0
H1108 H 0.65005 0.76385 0.96354 0.0
H1109 H 0.6529 0.78447 0.95184 0.0
H1110 H 0.63334 0.80505 0.98303 0.0
H1111 H 0.6308 0.78429 0.99486 0.0
H1112 H 0.6119 0.71721 0.03042 0.0
H1113 H 0.61978 0.7276 0.01019 0.0
H1114 H 0.62654 0.67991 0.01691 0.0
H1115 H 0.63422 0.69022 0.99694 0.0
H1116 H 0.63548 0.69012 0.94124 0.0
H1117 H 0.65539 0.71411 0.91277 0.0
H1118 H 0.65454 0.73281 0.92778 0.0
H1119 H 0.6346 0.70887 0.95613 0.0
C1120 C 0.99069 0.12574 0.77207 0.0
C1121 C 0.99238 0.12784 0.78547 0.0
C1122 C 0.97106 0.11802 0.78987 0.0
C1123 C 0.98266 0.12409 0.79426 0.0
C1124 C 0.96938 0.11598 0.77639 0.0
C1125 C 0.97914 0.1198 0.76757 0.0
U1126 U 0.02583 0.13518 0.76773 0.0
O1127 O 0.04099 0.12932 0.75375 0.0
O1128 O 0.0357 0.1501 0.75571 0.0
C1129 C 0.04279 0.14135 0.74952 0.0
C1130 C 0.00124 0.12938 0.76299 0.0
C1131 C 0.04401 0.143 0.73535 0.0
C1132 C 0.03782 0.13762 0.7131 0.0
C1133 C 0.03549 0.1368 0.72653 0.0
C1134 C 0.05692 0.15116 0.71724 0.0
C1135 C 0.04872 0.14462 0.7083 0.0
C1136 C 0.05457 0.15035 0.7306 0.0
C1137 C 0.04629 0.13678 0.79913 0.0
C1138 C 0.06937 0.13209 0.80281 0.0
C1139 C 0.05769 0.14631 0.81767 0.0
C1140 C 0.04629 0.14474 0.81027 0.0
C1141 C 0.06931 0.13986 0.81412 0.0
C1142 C 0.05799 0.13061 0.79533 0.0
C1143 C 0.03389 0.13464 0.792 0.0
O1144 O 0.00554 0.14149 0.76415 0.0
O1145 O 0.01075 0.12075 0.76209 0.0
O1146 O 0.03331 0.12419 0.78452 0.0
O1147 O 0.02862 0.14507 0.78664 0.0
H1148 H 0.00127 0.13237 0.78915 0.0
H1149 H 0.98421 0.12605 0.80452 0.0
H1150 H 0.96063 0.11122 0.77268 0.0
H1151 H 0.97772 0.11801 0.75726 0.0
H1152 H 0.03122 0.13258 0.70649 0.0
H1153 H 0.02724 0.13111 0.73003 0.0
H1154 H 0.06552 0.15644 0.71398 0.0
H1155 H 0.06128 0.15516 0.73728 0.0
H1156 H 0.07822 0.12711 0.79977 0.0
H1157 H 0.05731 0.15226 0.82641 0.0
H1158 H 0.03737 0.14956 0.81339 0.0
H1159 H 0.05831 0.12449 0.78671 0.0
C1160 C 0.86657 0.22161 0.47622 0.0
C1161 C 0.86204 0.22036 0.46337 0.0
C1162 C 0.86331 0.19658 0.46496 0.0
C1163 C 0.86039 0.20796 0.4578 0.0
C1164 C 0.86768 0.1979 0.47791 0.0
C1165 C 0.86929 0.21032 0.48349 0.0
U1166 U 0.86961 0.25814 0.47149 0.0
O1167 O 0.88365 0.27252 0.47936 0.0
O1168 O 0.86258 0.27483 0.48308 0.0
C1169 C 0.8745 0.27913 0.48553 0.0
C1170 C 0.86896 0.23466 0.48182 0.0
C1171 C 0.87722 0.28319 0.49911 0.0
C1172 C 0.89209 0.28581 0.51755 0.0
C1173 C 0.88924 0.28047 0.50528 0.0
C1174 C 0.87087 0.29636 0.51779 0.0
C1175 C 0.88299 0.29395 0.52387 0.0
C1176 C 0.86805 0.29108 0.50556 0.0
C1177 C 0.8646 0.27242 0.43782 0.0
C1178 C 0.86979 0.29521 0.43332 0.0
C1179 C 0.85761 0.28238 0.4175 0.0
C1180 C 0.85822 0.2715 0.42576 0.0
C1181 C 0.86344 0.29434 0.42117 0.0
C1182 C 0.87032 0.28436 0.44159 0.0
C1183 C 0.86506 0.261 0.4465 0.0
O1184 O 0.87985 0.24034 0.47794 0.0
O1185 O 0.85883 0.24259 0.48175 0.0
O1186 O 0.8557 0.2605 0.45525 0.0
O1187 O 0.87668 0.25819 0.45129 0.0
H1188 H 0.86 0.22899 0.45757 0.0
H1189 H 0.85722 0.20731 0.44775 0.0
H1190 H 0.86991 0.18933 0.48371 0.0
H1191 H 0.87281 0.21113 0.49342 0.0
H1192 H 0.90148 0.2837 0.52201 0.0
H1193 H 0.89657 0.27449 0.50054 0.0
H1194 H 0.86373 0.30279 0.52223 0.0
H1195 H 0.85881 0.29352 0.50095 0.0
H1196 H 0.87422 0.30434 0.43649 0.0
H1197 H 0.85274 0.28138 0.40817 0.0
H1198 H 0.85371 0.26236 0.42273 0.0
H1199 H 0.87517 0.28529 0.45095 0.0
C1200 C 0.47825 0.88909 0.77699 0.0
C1201 C 0.47682 0.89364 0.7898 0.0
C1202 C 0.45306 0.89202 0.78792 0.0
C1203 C 0.46435 0.89512 0.79521 0.0
C1204 C 0.45456 0.88771 0.77497 0.0
C1205 C 0.46707 0.88626 0.76956 0.0
U1206 U 0.5146 0.88648 0.78272 0.0
O1207 O 0.53175 0.89286 0.77135 0.0
O1208 O 0.52912 0.87203 0.77622 0.0
C1209 C 0.5363 0.88087 0.77023 0.0
C1210 C 0.4914 0.88662 0.77168 0.0
C1211 C 0.54176 0.87717 0.75751 0.0
C1212 C 0.54008 0.86749 0.73589 0.0
C1213 C 0.53413 0.87158 0.74754 0.0
C1214 C 0.56116 0.87473 0.74414 0.0
C1215 C 0.55371 0.86886 0.73417 0.0
C1216 C 0.55524 0.87883 0.75566 0.0
C1217 C 0.52796 0.89245 0.81653 0.0
C1218 C 0.55075 0.88754 0.82126 0.0
C1219 C 0.53737 0.89842 0.83746 0.0
C1220 C 0.52667 0.89809 0.8289 0.0
C1221 C 0.5495 0.89305 0.83376 0.0
C1222 C 0.54009 0.88728 0.81271 0.0
C1223 C 0.5167 0.89196 0.80761 0.0
O1224 O 0.49934 0.89679 0.77156 0.0
O1225 O 0.49702 0.8759 0.77604 0.0
O1226 O 0.51376 0.88022 0.80318 0.0
O1227 O 0.51664 0.90099 0.7985 0.0
H1228 H 0.48537 0.89577 0.79572 0.0
H1229 H 0.46358 0.89825 0.80526 0.0
H1230 H 0.44608 0.88535 0.76906 0.0
H1231 H 0.468 0.88271 0.75966 0.0
H1232 H 0.53409 0.863 0.72839 0.0
H1233 H 0.52368 0.87021 0.74883 0.0
H1234 H 0.57162 0.8762 0.74302 0.0
H1235 H 0.56127 0.88316 0.76323 0.0
H1236 H 0.56001 0.8835 0.81806 0.0
H1237 H 0.53608 0.90264 0.84705 0.0
H1238 H 0.51738 0.90215 0.83198 0.0
H1239 H 0.54128 0.88299 0.80313 0.0
C1240 C 0.98685 0.12744 0.24103 0.0
C1241 C 0.97331 0.12541 0.24219 0.0
C1242 C 0.96962 0.1355 0.22103 0.0
C1243 C 0.9648 0.12931 0.23229 0.0
C1244 C 0.98325 0.13746 0.21984 0.0
C1245 C 0.9918 0.13348 0.2298 0.0
U1246 U 0.98945 0.11839 0.27603 0.0
O1247 O 1.00043 0.10318 0.28663 0.0
O1248 O 0.00294 0.12395 0.2918 0.0
C1249 C 0.00666 0.1118 0.29389 0.0
C1250 C 0.99556 0.1237 0.25185 0.0
C1251 C 0.0208 0.10973 0.29568 0.0
C1252 C 0.04351 0.11378 0.28982 0.0
C1253 C 0.0301 0.11499 0.2871 0.0
C1254 C 0.03837 0.10171 0.30947 0.0
C1255 C 0.0478 0.10729 0.30117 0.0
C1256 C 0.02502 0.10292 0.30674 0.0
C1257 C 0.95684 0.11844 0.29443 0.0
C1258 C 0.95367 0.10942 0.31609 0.0
C1259 C 0.93715 0.12353 0.30659 0.0
C1260 C 0.94475 0.12481 0.29537 0.0
C1261 C 0.94151 0.11582 0.31707 0.0
C1262 C 0.96132 0.11077 0.30487 0.0
C1263 C 0.96466 0.1201 0.28256 0.0
O1264 O 0.99638 0.13241 0.26126 0.0
O1265 O 0.99387 0.11168 0.25616 0.0
O1266 O 0.96992 0.1094 0.27773 0.0
O1267 O 0.97269 0.13017 0.28261 0.0
H1268 H 0.96928 0.12082 0.25082 0.0
H1269 H 0.95443 0.12739 0.23345 0.0
H1270 H 0.98727 0.14228 0.21135 0.0
H1271 H 0.00222 0.13522 0.22879 0.0
H1272 H 0.05051 0.11808 0.28315 0.0
H1273 H 0.02699 0.12026 0.27848 0.0
H1274 H 0.04125 0.09686 0.3184 0.0
H1275 H 0.01797 0.09884 0.3135 0.0
H1276 H 0.95732 0.1035 0.32406 0.0
H1277 H 0.92775 0.12844 0.30697 0.0
H1278 H 0.94116 0.13077 0.2874 0.0
H1279 H 0.97071 0.10587 0.30435 0.0
C1280 C 0.47543 0.1167 0.72867 0.0
C1281 C 0.47411 0.11089 0.71635 0.0
C1282 C 0.45042 0.11361 0.71725 0.0
C1283 C 0.46173 0.10933 0.71071 0.0
C1284 C 0.45178 0.1192 0.72973 0.0
C1285 C 0.4642 0.12074 0.73539 0.0
U1286 U 0.51158 0.11863 0.72275 0.0
O1287 O 0.52649 0.1332 0.72832 0.0
O1288 O 0.52885 0.1126 0.73414 0.0
C1289 C 0.53365 0.12456 0.7346 0.0
C1290 C 0.48857 0.11932 0.73401 0.0
C1291 C 0.5394 0.12879 0.74704 0.0
C1292 C 0.53794 0.13793 0.76888 0.0
C1293 C 0.53182 0.13359 0.75739 0.0
C1294 C 0.55913 0.1326 0.7597 0.0
C1295 C 0.5517 0.1376 0.77008 0.0
C1296 C 0.55304 0.12826 0.74832 0.0
C1297 C 0.52407 0.11097 0.68904 0.0
C1298 C 0.5468 0.11548 0.68373 0.0
C1299 C 0.53287 0.10425 0.66813 0.0
C1300 C 0.52239 0.10496 0.67688 0.0
C1301 C 0.54515 0.10963 0.67142 0.0
C1302 C 0.53636 0.11611 0.69247 0.0
C1303 C 0.51303 0.11197 0.69812 0.0
O1304 O 0.49638 0.1091 0.73463 0.0
O1305 O 0.49433 0.12977 0.72917 0.0
O1306 O 0.51036 0.12393 0.70205 0.0
O1307 O 0.51306 0.10338 0.70764 0.0
H1308 H 0.48269 0.10786 0.71094 0.0
H1309 H 0.46109 0.1052 0.701 0.0
H1310 H 0.44326 0.12251 0.73507 0.0
H1311 H 0.46506 0.1253 0.74489 0.0
H1312 H 0.53196 0.14173 0.77671 0.0
H1313 H 0.52125 0.13406 0.75653 0.0
H1314 H 0.5697 0.13191 0.76039 0.0
H1315 H 0.55904 0.12454 0.74044 0.0
H1316 H 0.55619 0.11953 0.68661 0.0
H1317 H 0.53128 0.09976 0.65869 0.0
H1318 H 0.51295 0.10092 0.67411 0.0
H1319 H 0.53785 0.1207 0.70189 0.0
C1320 C 0.1279 0.24091 0.98584 0.0
C1321 C 0.12442 0.24148 0.97263 0.0
C1322 C 0.1354 0.2207 0.96859 0.0
C1323 C 0.12807 0.23147 0.96412 0.0
C1324 C 0.13872 0.22007 0.9819 0.0
C1325 C 0.13503 0.23013 0.99045 0.0
U1326 U 0.11705 0.27578 0.98882 0.0
O1327 O 0.10385 0.28604 0.00229 0.0
O1328 O 0.12439 0.29234 1.0005 0.0
C1329 C 0.11315 0.29392 0.00653 0.0
C1330 C 0.12473 0.25196 0.99448 0.0
C1331 C 0.11391 0.2962 0.02067 0.0
C1332 C 0.11069 0.28954 0.0432 0.0
C1333 C 0.11025 0.28666 0.02984 0.0
C1334 C 0.11851 0.31141 0.03828 0.0
C1335 C 0.11488 0.30196 0.04756 0.0
C1336 C 0.11803 0.30856 0.02501 0.0
C1337 C 0.11074 0.29403 0.95696 0.0
C1338 C 0.11302 0.31751 0.95364 0.0
C1339 C 0.10148 0.30427 0.93769 0.0
C1340 C 0.10373 0.2931 0.94525 0.0
C1341 C 0.10633 0.31655 0.94169 0.0
C1342 C 0.11514 0.30636 0.96125 0.0
C1343 C 0.11394 0.28202 0.96423 0.0
O1344 O 0.13285 0.26194 0.9936 0.0
O1345 O 0.11234 0.25551 0.9945 0.0
O1346 O 0.10447 0.27703 0.97135 0.0
O1347 O 0.12536 0.28207 0.97017 0.0
H1348 H 0.11897 0.24976 0.96887 0.0
H1349 H 0.12512 0.23217 0.95401 0.0
H1350 H 0.14444 0.21197 0.98565 0.0
H1351 H 0.1379 0.22959 1.0006 0.0
H1352 H 0.10791 0.28203 0.05012 0.0
H1353 H 0.10703 0.27704 0.02669 0.0
H1354 H 0.12156 0.32114 0.04127 0.0
H1355 H 0.12078 0.31608 0.01809 0.0
H1356 H 0.11673 0.32687 0.95703 0.0
H1357 H 0.09637 0.30323 0.92849 0.0
H1358 H 0.10025 0.28367 0.94179 0.0
H1359 H 0.12047 0.30734 0.97034 0.0
C1360 C 0.38839 0.72563 0.52718 0.0
C1361 C 0.39409 0.71322 0.52861 0.0
C1362 C 0.39183 0.71465 0.55217 0.0
C1363 C 0.39583 0.70779 0.54098 0.0
C1364 C 0.38633 0.72721 0.5507 0.0
C1365 C 0.38462 0.73265 0.53829 0.0
U1366 U 0.38629 0.71967 0.49112 0.0
O1367 O 0.37156 0.72528 0.47652 0.0
O1368 O 0.39208 0.73142 0.47409 0.0
C1369 C 0.38007 0.73181 0.46945 0.0
C1370 C 0.38568 0.73084 0.51411 0.0
C1371 C 0.37568 0.74437 0.46402 0.0
C1372 C 0.36621 0.76614 0.46596 0.0
C1373 C 0.37078 0.75457 0.47179 0.0
C1374 C 0.37154 0.75734 0.44469 0.0
C1375 C 0.36639 0.76756 0.45231 0.0
C1376 C 0.37611 0.74589 0.45049 0.0
C1377 C 0.39409 0.68601 0.47806 0.0
C1378 C 0.38942 0.68094 0.45541 0.0
C1379 C 0.40091 0.66518 0.46887 0.0
C1380 C 0.40022 0.67382 0.47945 0.0
C1381 C 0.3954 0.66861 0.45677 0.0
C1382 C 0.38881 0.68958 0.46595 0.0
C1383 C 0.39313 0.69498 0.48922 0.0
O1384 O 0.39587 0.73156 0.50631 0.0
O1385 O 0.37524 0.72583 0.50844 0.0
O1386 O 0.38117 0.69876 0.49205 0.0
O1387 O 0.40165 0.70466 0.48928 0.0
H1388 H 0.39693 0.70759 0.52011 0.0
H1389 H 0.39989 0.69802 0.54173 0.0
H1390 H 0.38325 0.73279 0.55912 0.0
H1391 H 0.38016 0.74223 0.53736 0.0
H1392 H 0.36231 0.77385 0.47207 0.0
H1393 H 0.37039 0.75353 0.48228 0.0
H1394 H 0.37211 0.75822 0.43419 0.0
H1395 H 0.37991 0.73814 0.44435 0.0
H1396 H 0.38525 0.68394 0.44617 0.0
H1397 H 0.40549 0.65572 0.47024 0.0
H1398 H 0.40437 0.67094 0.48874 0.0
H1399 H 0.38413 0.69902 0.46469 0.0
C1400 C 0.74152 0.51657 0.87701 0.0
C1401 C 0.74246 0.52977 0.88075 0.0
C1402 C 0.7213 0.53435 0.87075 0.0
C1403 C 0.73244 0.53854 0.87771 0.0
C1404 C 0.7203 0.52105 0.86717 0.0
C1405 C 0.73037 0.51224 0.87026 0.0
U1406 U 0.77694 0.51327 0.88552 0.0
O1407 O 0.78798 0.49985 0.89816 0.0
O1408 O 0.79289 0.50134 0.87737 0.0
C1409 C 0.79526 0.4955 0.88853 0.0
C1410 C 0.7526 0.5077 0.87947 0.0
C1411 C 0.79759 0.4813 0.88795 0.0
C1412 C 0.79066 0.45859 0.89036 0.0
C1413 C 0.78776 0.47203 0.89066 0.0
C1414 C 0.81312 0.46367 0.88459 0.0
C1415 C 0.80338 0.45428 0.88726 0.0
C1416 C 0.81024 0.47701 0.88493 0.0
C1417 C 0.79571 0.54538 0.89042 0.0
C1418 C 0.81879 0.54945 0.88611 0.0
C1419 C 0.80663 0.56428 0.9 0.0
C1420 C 0.79537 0.55661 0.8983 0.0
C1421 C 0.81838 0.5609 0.89373 0.0
C1422 C 0.80758 0.54171 0.88454 0.0
C1423 C 0.78352 0.53801 0.88798 0.0
O1424 O 0.762 0.50842 0.87078 0.0
O1425 O 0.75701 0.50765 0.89153 0.0
O1426 O 0.77908 0.53096 0.89774 0.0
O1427 O 0.7828 0.53194 0.87671 0.0
H1428 H 0.75104 0.53333 0.8859 0.0
H1429 H 0.73344 0.54864 0.88084 0.0
H1430 H 0.71191 0.51752 0.86171 0.0
H1431 H 0.72955 0.50211 0.86718 0.0
H1432 H 0.78293 0.45159 0.89238 0.0
H1433 H 0.77792 0.47517 0.89303 0.0
H1434 H 0.82307 0.46072 0.88242 0.0
H1435 H 0.81797 0.48402 0.88291 0.0
H1436 H 0.82776 0.54654 0.8813 0.0
H1437 H 0.80601 0.5731 0.90584 0.0
H1438 H 0.78632 0.5596 0.90292 0.0
H1439 H 0.80813 0.533 0.87852 0.0
C1440 C 0.72998 0.47365 0.11644 0.0
C1441 C 0.71738 0.47243 0.11107 0.0
C1442 C 0.71837 0.44871 0.11336 0.0
C1443 C 0.71165 0.46009 0.10949 0.0
C1444 C 0.73107 0.44997 0.11862 0.0
C1445 C 0.73683 0.46236 0.12013 0.0
U1446 U 0.72454 0.50987 0.11943 0.0
O1447 O 0.73205 0.52463 0.13318 0.0
O1448 O 0.73543 0.52699 0.11215 0.0
C1449 C 0.73764 0.53157 0.12393 0.0
C1450 C 0.7356 0.48673 0.11879 0.0
C1451 C 0.75086 0.5369 0.12648 0.0
C1452 C 0.77045 0.53909 0.13994 0.0
C1453 C 0.75878 0.53249 0.13682 0.0
C1454 C 0.76662 0.55421 0.12218 0.0
C1455 C 0.77429 0.55024 0.13285 0.0
C1456 C 0.75504 0.54764 0.11906 0.0
C1457 C 0.69006 0.52268 0.11478 0.0
C1458 C 0.68507 0.54554 0.11902 0.0
C1459 C 0.66873 0.53145 0.10903 0.0
C1460 C 0.67749 0.52094 0.10953 0.0
C1461 C 0.67241 0.54386 0.11382 0.0
C1462 C 0.69383 0.53505 0.11946 0.0
C1463 C 0.69924 0.51163 0.1152 0.0
O1464 O 0.73536 0.49469 0.10873 0.0
O1465 O 0.73174 0.49234 0.12965 0.0
O1466 O 0.7043 0.50914 0.12671 0.0
O1467 O 0.70795 0.51145 0.1058 0.0
H1468 H 0.71187 0.48106 0.1083 0.0
H1469 H 0.70178 0.45949 0.10563 0.0
H1470 H 0.73652 0.44139 0.12161 0.0
H1471 H 0.74654 0.46313 0.12435 0.0
H1472 H 0.77618 0.53582 0.14821 0.0
H1473 H 0.75576 0.52423 0.14272 0.0
H1474 H 0.76944 0.56262 0.11637 0.0
H1475 H 0.7491 0.55123 0.11107 0.0
H1476 H 0.68825 0.55501 0.12262 0.0
H1477 H 0.65901 0.52983 0.10507 0.0
H1478 H 0.67444 0.51145 0.10585 0.0
H1479 H 0.70356 0.53658 0.12343 0.0
C1480 C 0.72844 0.52629 0.38651 0.0
C1481 C 0.71615 0.52714 0.39255 0.0
C1482 C 0.71626 0.55086 0.38989 0.0
C1483 C 0.71013 0.53931 0.39427 0.0
C1484 C 0.72868 0.54996 0.38401 0.0
C1485 C 0.73471 0.53776 0.38234 0.0
U1486 U 0.72455 0.48962 0.38431 0.0
O1487 O 0.73132 0.47544 0.36959 0.0
O1488 O 0.7372 0.47324 0.39008 0.0
C1489 C 0.73843 0.46892 0.37807 0.0
C1490 C 0.73431 0.51341 0.38386 0.0
C1491 C 0.75169 0.46506 0.37387 0.0
C1492 C 0.77536 0.46476 0.37683 0.0
C1493 C 0.76305 0.46995 0.37994 0.0
C1494 C 0.76515 0.45019 0.36115 0.0
C1495 C 0.77651 0.45462 0.36758 0.0
C1496 C 0.75289 0.45535 0.36428 0.0
C1497 C 0.69136 0.47473 0.3919 0.0
C1498 C 0.68693 0.45178 0.3874 0.0
C1499 C 0.67076 0.46494 0.39866 0.0
C1500 C 0.67911 0.47581 0.39794 0.0
C1501 C 0.67454 0.45283 0.39329 0.0
C1502 C 0.69528 0.46263 0.38674 0.0
C1503 C 0.69994 0.48626 0.39089 0.0
O1504 O 0.73539 0.50559 0.39397 0.0
O1505 O 0.72968 0.50748 0.37345 0.0
O1506 O 0.70368 0.48922 0.37901 0.0
O1507 O 0.70954 0.48678 0.39942 0.0
H1508 H 0.71108 0.51835 0.3957 0.0
H1509 H 0.70049 0.53962 0.39864 0.0
H1510 H 0.7337 0.55867 0.38063 0.0
H1511 H 0.74418 0.53727 0.37761 0.0
H1512 H 0.78393 0.46849 0.38185 0.0
H1513 H 0.7624 0.47749 0.38734 0.0
H1514 H 0.76563 0.44229 0.35412 0.0
H1515 H 0.74424 0.45139 0.35953 0.0
H1516 H 0.69018 0.44255 0.38333 0.0
H1517 H 0.66124 0.46609 0.40315 0.0
H1518 H 0.67595 0.48509 0.40198 0.0
H1519 H 0.70477 0.46161 0.38213 0.0
C1520 C 0.73828 0.48675 0.62769 0.0
C1521 C 0.73947 0.47325 0.62539 0.0
C1522 C 0.71854 0.46922 0.63602 0.0
C1523 C 0.7297 0.4646 0.62945 0.0
C1524 C 0.71733 0.4828 0.63825 0.0
C1525 C 0.72716 0.4915 0.63413 0.0
U1526 U 0.77271 0.48955 0.61623 0.0
O1527 O 0.78237 0.50132 0.60104 0.0
O1528 O 0.78917 0.50249 0.62134 0.0
C1529 C 0.79044 0.5069 0.60937 0.0
C1530 C 0.74895 0.49558 0.62367 0.0
C1531 C 0.79238 0.52109 0.60798 0.0
C1532 C 0.78669 0.54366 0.61299 0.0
C1533 C 0.78389 0.53021 0.61372 0.0
C1534 C 0.80624 0.53889 0.60051 0.0
C1535 C 0.79802 0.54814 0.60651 0.0
C1536 C 0.80343 0.52553 0.60124 0.0
C1537 C 0.79069 0.45693 0.61287 0.0
C1538 C 0.81358 0.45554 0.60659 0.0
C1539 C 0.80141 0.4358 0.6118 0.0
C1540 C 0.79026 0.4433 0.6142 0.0
C1541 C 0.81323 0.44182 0.608 0.0
C1542 C 0.80238 0.46304 0.609 0.0
C1543 C 0.77897 0.46462 0.6159 0.0
O1544 O 0.75907 0.49579 0.63162 0.0
O1545 O 0.75233 0.49458 0.61136 0.0
O1546 O 0.77346 0.47062 0.60599 0.0
O1547 O 0.77987 0.47201 0.62635 0.0
H1548 H 0.74801 0.46939 0.62046 0.0
H1549 H 0.73087 0.45428 0.62731 0.0
H1550 H 0.70891 0.48667 0.64336 0.0
H1551 H 0.72613 0.50188 0.63606 0.0
H1552 H 0.78008 0.55051 0.61761 0.0
H1553 H 0.77527 0.52694 0.61895 0.0
H1554 H 0.81516 0.54191 0.59566 0.0
H1555 H 0.81011 0.5186 0.5968 0.0
H1556 H 0.82248 0.46046 0.60357 0.0
H1557 H 0.80085 0.42529 0.6132 0.0
H1558 H 0.78131 0.43846 0.61726 0.0
H1559 H 0.80285 0.4736 0.60794 0.0
C1560 C 0.47844 0.13595 0.27701 0.0
C1561 C 0.46612 0.14186 0.27834 0.0
C1562 C 0.46723 0.13927 0.3019 0.0
C1563 C 0.46058 0.14353 0.29066 0.0
C1564 C 0.47971 0.13357 0.30051 0.0
C1565 C 0.48526 0.13192 0.28816 0.0
U1566 U 0.47319 0.13519 0.24075 0.0
O1567 O 0.478 0.12034 0.22598 0.0
O1568 O 0.48575 0.14037 0.22414 0.0
C1569 C 0.48535 0.12847 0.21925 0.0
C1570 C 0.48375 0.13328 0.26397 0.0
C1571 C 0.49768 0.12319 0.21413 0.0
C1572 C 0.52041 0.11642 0.21645 0.0
C1573 C 0.5088 0.12126 0.22197 0.0
C1574 C 0.50975 0.11539 0.19536 0.0
C1575 C 0.52099 0.11341 0.20306 0.0
C1576 C 0.49824 0.12019 0.20085 0.0
C1577 C 0.44044 0.14529 0.22704 0.0
C1578 C 0.43582 0.14129 0.20417 0.0
C1579 C 0.41987 0.15254 0.21758 0.0
C1580 C 0.42828 0.15151 0.22832 0.0
C1581 C 0.42349 0.14729 0.20544 0.0
C1582 C 0.44423 0.14034 0.21487 0.0
C1583 C 0.44905 0.14368 0.2384 0.0
O1584 O 0.4782 0.12335 0.25792 0.0
O1585 O 0.48528 0.14361 0.25646 0.0
O1586 O 0.45927 0.15154 0.23877 0.0
O1587 O 0.45198 0.13147 0.24119 0.0
H1588 H 0.46066 0.14492 0.26981 0.0
H1589 H 0.45087 0.14775 0.29133 0.0
H1590 H 0.48514 0.13029 0.30897 0.0
H1591 H 0.49477 0.1273 0.28729 0.0
H1592 H 0.52888 0.11497 0.22265 0.0
H1593 H 0.50851 0.12353 0.23227 0.0
H1594 H 0.50989 0.11351 0.18498 0.0
H1595 H 0.48977 0.1217 0.19465 0.0
H1596 H 0.43895 0.13732 0.19491 0.0
H1597 H 0.41039 0.15712 0.21887 0.0
H1598 H 0.42523 0.15539 0.23766 0.0
H1599 H 0.45364 0.13558 0.2137 0.0
C1600 C 0.99376 0.87974 0.73387 0.0
C1601 C 0.99421 0.87671 0.72056 0.0
C1602 C 0.97321 0.88743 0.71711 0.0
C1603 C 0.98404 0.88045 0.71229 0.0
C1604 C 0.97269 0.89032 0.73052 0.0
C1605 C 0.98293 0.88653 0.73884 0.0
U1606 U 0.02839 0.8684 0.7355 0.0
O1607 O 0.04558 0.87498 0.74673 0.0
O1608 O 0.03893 0.85451 0.74808 0.0
C1609 C 0.04719 0.86349 0.75229 0.0
C1610 C 0.00496 0.87631 0.74224 0.0
C1611 C 0.04998 0.86371 0.76634 0.0
C1612 C 0.04346 0.86186 0.78905 0.0
C1613 C 0.04022 0.86168 0.77576 0.0
C1614 C 0.06615 0.86611 0.78353 0.0
C1615 C 0.05647 0.86418 0.79306 0.0
C1616 C 0.06293 0.86589 0.77033 0.0
C1617 C 0.04469 0.86273 0.70249 0.0
C1618 C 0.0675 0.85631 0.70036 0.0
C1619 C 0.05481 0.86183 0.68116 0.0
C1620 C 0.04387 0.8642 0.68897 0.0
C1621 C 0.06678 0.85793 0.68676 0.0
C1622 C 0.05653 0.85871 0.70817 0.0
C1623 C 0.0333 0.86605 0.71052 0.0
O1624 O 0.00833 0.86387 0.74195 0.0
O1625 O 0.01504 0.88429 0.74123 0.0
O1626 O 0.03427 0.87718 0.71688 0.0
O1627 O 0.02843 0.85649 0.7176 0.0
H1628 H 0.00252 0.87151 0.71653 0.0
H1629 H 0.98466 0.87782 0.70209 0.0
H1630 H 0.96453 0.89574 0.73453 0.0
H1631 H 0.98248 0.88904 0.74908 0.0
H1632 H 0.03578 0.86041 0.79617 0.0
H1633 H 0.03014 0.86 0.77285 0.0
H1634 H 0.07629 0.86771 0.78628 0.0
H1635 H 0.07061 0.86739 0.7632 0.0
H1636 H 0.07652 0.85319 0.70497 0.0
H1637 H 0.05395 0.86341 0.67077 0.0
H1638 H 0.03482 0.86741 0.68445 0.0
H1639 H 0.05732 0.85757 0.71864 0.0
C1640 C 0.50975 0.87834 0.26448 0.0
C1641 C 0.50693 0.88486 0.27618 0.0
C1642 C 0.52997 0.88429 0.28238 0.0
C1643 C 0.51693 0.88789 0.28499 0.0
C1644 C 0.53281 0.87805 0.27048 0.0
C1645 C 0.52277 0.87509 0.26161 0.0
U1646 U 0.47484 0.86745 0.26151 0.0
O1647 O 0.45892 0.87243 0.24799 0.0
O1648 O 0.46521 0.85194 0.24998 0.0
C1649 C 0.4576 0.8603 0.24385 0.0
C1650 C 0.499 0.874 0.25588 0.0
C1651 C 0.45643 0.85861 0.22969 0.0
C1652 C 0.46313 0.86365 0.20755 0.0
C1653 C 0.46528 0.86447 0.22102 0.0
C1654 C 0.44355 0.85075 0.21139 0.0
C1655 C 0.4521 0.85695 0.20259 0.0
C1656 C 0.44571 0.85157 0.22479 0.0
C1657 C 0.45556 0.86569 0.29353 0.0
C1658 C 0.43266 0.8701 0.29834 0.0
C1659 C 0.44497 0.85513 0.31194 0.0
C1660 C 0.45606 0.85715 0.30422 0.0
C1661 C 0.43321 0.86172 0.30918 0.0
C1662 C 0.44371 0.87203 0.29054 0.0
C1663 C 0.46762 0.86819 0.286 0.0
O1664 O 0.49528 0.86178 0.25759 0.0
O1665 O 0.4891 0.88218 0.25487 0.0
O1666 O 0.46756 0.87851 0.27834 0.0
O1667 O 0.47312 0.85787 0.28065 0.0
H1668 H 0.49693 0.88738 0.27868 0.0
H1669 H 0.51441 0.89289 0.29394 0.0
H1670 H 0.54272 0.87502 0.26822 0.0
H1671 H 0.52512 0.86994 0.25269 0.0
H1672 H 0.46997 0.86843 0.20105 0.0
H1673 H 0.47365 0.86992 0.22466 0.0
H1674 H 0.43484 0.8457 0.20797 0.0
H1675 H 0.43875 0.84703 0.23136 0.0
H1676 H 0.42368 0.8752 0.29592 0.0
H1677 H 0.44572 0.84872 0.32031 0.0
H1678 H 0.4651 0.8522 0.30672 0.0
H1679 H 0.443 0.8786 0.2823 0.0
C1680 C 0.86526 0.77853 0.02559 0.0
C1681 C 0.85813 0.77884 0.03725 0.0
C1682 C 0.86123 0.80245 0.03879 0.0
C1683 C 0.85607 0.79068 0.04374 0.0
C1684 C 0.86796 0.80218 0.02683 0.0
C1685 C 0.86999 0.79029 0.0203 0.0
U1686 U 0.86992 0.74263 0.03056 0.0
O1687 O 0.88542 0.72894 0.02465 0.0
O1688 O 0.86496 0.72514 0.01899 0.0
C1689 C 0.87721 0.72125 0.01836 0.0
C1690 C 0.86881 0.76584 0.01977 0.0
C1691 C 0.88166 0.71606 0.00579 0.0
C1692 C 0.8887 0.71855 0.98331 0.0
C1693 C 0.88433 0.72411 0.99504 0.0
C1694 C 0.88766 0.69697 0.99311 0.0
C1695 C 0.8905 0.70489 0.98227 0.0
C1696 C 0.88332 0.7025 0.00472 0.0
C1697 C 0.8634 0.72932 0.06431 0.0
C1698 C 0.86904 0.70684 0.0696 0.0
C1699 C 0.85695 0.72004 0.08509 0.0
C1700 C 0.85723 0.7306 0.07641 0.0
C1701 C 0.8629 0.70806 0.0818 0.0
C1702 C 0.86925 0.71736 0.06092 0.0
C1703 C 0.86368 0.74042 0.05523 0.0
O1704 O 0.87973 0.76081 0.02435 0.0
O1705 O 0.85922 0.75724 0.01894 0.0
O1706 O 0.855 0.73987 0.04578 0.0
O1707 O 0.87541 0.74388 0.05123 0.0
H1708 H 0.85447 0.76986 0.04156 0.0
H1709 H 0.85069 0.79056 0.05283 0.0
H1710 H 0.87217 0.81105 0.02283 0.0
H1711 H 0.87564 0.79021 0.01138 0.0
H1712 H 0.8908 0.72491 0.97514 0.0
H1713 H 0.88308 0.73463 0.99574 0.0
H1714 H 0.88861 0.68641 0.99258 0.0
H1715 H 0.88123 0.69614 0.01291 0.0
H1716 H 0.87353 0.69769 0.06671 0.0
H1717 H 0.85225 0.72132 0.09446 0.0
H1718 H 0.85267 0.73976 0.07916 0.0
H1719 H 0.87397 0.71619 0.05155 0.0
C1720 C 0.62828 0.27062 0.49033 0.0
C1721 C 0.62972 0.28423 0.49162 0.0
C1722 C 0.62036 0.28755 0.47005 0.0
C1723 C 0.62587 0.29259 0.48159 0.0
C1724 C 0.61896 0.27386 0.46876 0.0
C1725 C 0.62288 0.26546 0.47884 0.0
U1726 U 0.637 0.26809 0.52552 0.0
O1727 O 0.63144 0.25445 0.54108 0.0
O1728 O 0.65225 0.25718 0.53621 0.0
C1729 C 0.6436 0.25081 0.54327 0.0
C1730 C 0.63205 0.26202 0.5012 0.0
C1731 C 0.64587 0.2367 0.54523 0.0
C1732 C 0.63933 0.21388 0.54269 0.0
C1733 C 0.6382 0.22707 0.53903 0.0
C1734 C 0.65623 0.21978 0.55825 0.0
C1735 C 0.64808 0.21018 0.55264 0.0
C1736 C 0.65512 0.23289 0.55458 0.0
C1737 C 0.6362 0.3006 0.54425 0.0
C1738 C 0.64444 0.30366 0.56628 0.0
C1739 C 0.63069 0.32024 0.55636 0.0
C1740 C 0.62983 0.31271 0.54503 0.0
C1741 C 0.63798 0.3158 0.56712 0.0
C1742 C 0.6435 0.29607 0.55494 0.0
C1743 C 0.63486 0.29281 0.53228 0.0
O1744 O 0.64399 0.26393 0.5057 0.0
O1745 O 0.62325 0.26105 0.51048 0.0
O1746 O 0.6249 0.28464 0.53207 0.0
O1747 O 0.64571 0.28772 0.52762 0.0
H1748 H 0.63383 0.28841 0.50044 0.0
H1749 H 0.62735 0.30303 0.48285 0.0
H1750 H 0.61465 0.26965 0.46006 0.0
H1751 H 0.62161 0.25498 0.47772 0.0
H1752 H 0.63287 0.20671 0.53824 0.0
H1753 H 0.63099 0.2298 0.53176 0.0
H1754 H 0.66318 0.2172 0.56581 0.0
H1755 H 0.66115 0.24017 0.55945 0.0
H1756 H 0.65002 0.29993 0.57445 0.0
H1757 H 0.62576 0.32963 0.55664 0.0
H1758 H 0.62416 0.31634 0.53687 0.0
H1759 H 0.6484 0.28668 0.55452 0.0
C1760 C 0.27729 0.48074 0.13581 0.0
C1761 C 0.2787 0.46855 0.14197 0.0
C1762 C 0.30239 0.4697 0.13934 0.0
C1763 C 0.29112 0.46311 0.14376 0.0
C1764 C 0.30094 0.48204 0.13337 0.0
C1765 C 0.28848 0.48751 0.13162 0.0
U1766 U 0.24126 0.47412 0.13351 0.0
O1767 O 0.22639 0.4794 0.11891 0.0
O1768 O 0.22379 0.48528 0.13935 0.0
C1769 C 0.2191 0.48566 0.12743 0.0
C1770 C 0.26412 0.48586 0.13302 0.0
C1771 C 0.2134 0.49814 0.12316 0.0
C1772 C 0.21509 0.52054 0.11523 0.0
C1773 C 0.2211 0.50893 0.11947 0.0
C1774 C 0.19375 0.51059 0.11842 0.0
C1775 C 0.20132 0.52144 0.11456 0.0
C1776 C 0.19973 0.49908 0.12265 0.0
C1777 C 0.22945 0.43982 0.14126 0.0
C1778 C 0.20697 0.43345 0.1367 0.0
C1779 C 0.22124 0.41875 0.14861 0.0
C1780 C 0.23144 0.42789 0.14769 0.0
C1781 C 0.20892 0.4214 0.14305 0.0
C1782 C 0.21713 0.4426 0.13585 0.0
C1783 C 0.24021 0.44933 0.1402 0.0
O1784 O 0.25854 0.48082 0.12259 0.0
O1785 O 0.25618 0.48642 0.14309 0.0
O1786 O 0.23992 0.45896 0.1487 0.0
O1787 O 0.2428 0.45329 0.12831 0.0
H1788 H 0.27016 0.4631 0.14513 0.0
H1789 H 0.29184 0.4535 0.14818 0.0
H1790 H 0.30942 0.48741 0.12994 0.0
H1791 H 0.28755 0.49689 0.12679 0.0
H1792 H 0.22119 0.52872 0.1123 0.0
H1793 H 0.2317 0.50834 0.11982 0.0
H1794 H 0.18314 0.51102 0.11833 0.0
H1795 H 0.19364 0.49087 0.12552 0.0
H1796 H 0.19753 0.43586 0.13248 0.0
H1797 H 0.22306 0.40951 0.15347 0.0
H1798 H 0.2409 0.42561 0.15193 0.0
H1799 H 0.2154 0.45184 0.13094 0.0
C1800 C 0.2673 0.5087 0.87792 0.0
C1801 C 0.28071 0.50731 0.87533 0.0
C1802 C 0.28527 0.52832 0.88569 0.0
C1803 C 0.28958 0.51703 0.87911 0.0
C1804 C 0.27177 0.52972 0.8882 0.0
C1805 C 0.26286 0.51996 0.88435 0.0
U1806 U 0.26318 0.4738 0.86775 0.0
O1807 O 0.24969 0.45816 0.87384 0.0
O1808 O 0.25059 0.46398 0.85325 0.0
C1809 C 0.24489 0.45657 0.86204 0.0
C1810 C 0.25819 0.49808 0.87436 0.0
C1811 C 0.23058 0.45522 0.861 0.0
C1812 C 0.20841 0.46111 0.86729 0.0
C1813 C 0.22195 0.46343 0.8678 0.0
C1814 C 0.21206 0.44263 0.85292 0.0
C1815 C 0.20332 0.45057 0.85995 0.0
C1816 C 0.22553 0.44495 0.85344 0.0
C1817 C 0.29481 0.45398 0.86434 0.0
C1818 C 0.29852 0.43079 0.8683 0.0
C1819 C 0.31324 0.4429 0.85423 0.0
C1820 C 0.30585 0.45424 0.85623 0.0
C1821 C 0.30977 0.43112 0.86043 0.0
C1822 C 0.29106 0.44209 0.87018 0.0
C1823 C 0.28772 0.46627 0.867 0.0
O1824 O 0.25892 0.49416 0.86217 0.0
O1825 O 0.25784 0.48832 0.88269 0.0
O1826 O 0.28074 0.46654 0.87775 0.0
O1827 O 0.28174 0.47165 0.857 0.0
H1828 H 0.28434 0.49865 0.87041 0.0
H1829 H 0.29984 0.51571 0.87678 0.0
H1830 H 0.26813 0.53824 0.89333 0.0
H1831 H 0.25254 0.52114 0.88653 0.0
H1832 H 0.20194 0.46749 0.87272 0.0
H1833 H 0.22569 0.47145 0.87366 0.0
H1834 H 0.20856 0.43429 0.84737 0.0
H1835 H 0.23206 0.43848 0.84817 0.0
H1836 H 0.29556 0.4218 0.87308 0.0
H1837 H 0.32192 0.44345 0.8482 0.0
H1838 H 0.30891 0.4633 0.85164 0.0
H1839 H 0.2825 0.44157 0.87639 0.0
C1840 C 0.26916 0.4922 0.62577 0.0
C1841 C 0.28256 0.49371 0.62849 0.0
C1842 C 0.28716 0.47241 0.61885 0.0
C1843 C 0.29144 0.48391 0.62514 0.0
C1844 C 0.27369 0.47089 0.6162 0.0
C1845 C 0.26476 0.48073 0.61962 0.0
U1846 U 0.26501 0.52739 0.63478 0.0
O1847 O 0.25148 0.54276 0.62824 0.0
O1848 O 0.25249 0.53756 0.64899 0.0
C1849 C 0.24672 0.54466 0.63999 0.0
C1850 C 0.26004 0.50289 0.62891 0.0
C1851 C 0.2324 0.5459 0.64099 0.0
C1852 C 0.21023 0.53922 0.63529 0.0
C1853 C 0.2238 0.53711 0.63481 0.0
C1854 C 0.21382 0.55869 0.64836 0.0
C1855 C 0.20509 0.55014 0.64196 0.0
C1856 C 0.22732 0.55657 0.64787 0.0
C1857 C 0.29696 0.54716 0.63778 0.0
C1858 C 0.30096 0.5703 0.63366 0.0
C1859 C 0.3159 0.55802 0.64734 0.0
C1860 C 0.30825 0.54677 0.64558 0.0
C1861 C 0.31245 0.56985 0.64124 0.0
C1862 C 0.29324 0.55907 0.632 0.0
C1863 C 0.28961 0.53494 0.63538 0.0
O1864 O 0.26072 0.5072 0.64097 0.0
O1865 O 0.2597 0.51238 0.62027 0.0
O1866 O 0.28255 0.53452 0.62465 0.0
O1867 O 0.28362 0.52983 0.6455 0.0
H1868 H 0.28616 0.50254 0.63319 0.0
H1869 H 0.30168 0.48533 0.62757 0.0
H1870 H 0.27007 0.46221 0.61127 0.0
H1871 H 0.25446 0.47946 0.61734 0.0
H1872 H 0.20378 0.53238 0.63035 0.0
H1873 H 0.22757 0.52877 0.62947 0.0
H1874 H 0.21029 0.56732 0.65337 0.0
H1875 H 0.23383 0.56349 0.65265 0.0
H1876 H 0.298 0.57932 0.62896 0.0
H1877 H 0.32476 0.55734 0.65313 0.0
H1878 H 0.31129 0.53769 0.65011 0.0
H1879 H 0.2845 0.55967 0.62602 0.0
C1880 C 0.27676 0.5221 0.36415 0.0
C1881 C 0.27713 0.53429 0.35785 0.0
C1882 C 0.30071 0.53569 0.36128 0.0
C1883 C 0.28898 0.54099 0.35638 0.0
C1884 C 0.30037 0.52325 0.36721 0.0
C1885 C 0.28846 0.51653 0.36867 0.0
U1886 U 0.24048 0.52602 0.36644 0.0
O1887 O 0.226 0.51977 0.381 0.0
O1888 O 0.22365 0.51381 0.36052 0.0
C1889 C 0.21898 0.51321 0.37243 0.0
C1890 C 0.26403 0.51588 0.36691 0.0
C1891 C 0.21347 0.50061 0.37666 0.0
C1892 C 0.21513 0.47906 0.38668 0.0
C1893 C 0.22113 0.49059 0.38212 0.0
C1894 C 0.19393 0.48753 0.3802 0.0
C1895 C 0.20142 0.47753 0.38594 0.0
C1896 C 0.19989 0.49892 0.37563 0.0
C1897 C 0.22666 0.55953 0.35885 0.0
C1898 C 0.20349 0.56375 0.36207 0.0
C1899 C 0.2176 0.58083 0.35351 0.0
C1900 C 0.22831 0.57232 0.35419 0.0
C1901 C 0.20509 0.57666 0.35754 0.0
C1902 C 0.21419 0.55525 0.3627 0.0
C1903 C 0.23798 0.55074 0.35987 0.0
O1904 O 0.25816 0.52039 0.37738 0.0
O1905 O 0.2561 0.51475 0.35685 0.0
O1906 O 0.23823 0.54114 0.35133 0.0
O1907 O 0.24079 0.54689 0.37176 0.0
H1908 H 0.26819 0.53879 0.35435 0.0
H1909 H 0.28892 0.55045 0.35161 0.0
H1910 H 0.30921 0.51897 0.3712 0.0
H1911 H 0.28834 0.50718 0.37366 0.0
H1912 H 0.22114 0.47151 0.39104 0.0
H1913 H 0.23165 0.49176 0.383 0.0
H1914 H 0.1834 0.48656 0.37921 0.0
H1915 H 0.19384 0.50654 0.37141 0.0
H1916 H 0.19396 0.56018 0.36508 0.0
H1917 H 0.21916 0.59075 0.3501 0.0
H1918 H 0.23789 0.57576 0.35119 0.0
H1919 H 0.21276 0.54536 0.36627 0.0
C1920 C 0.12837 0.3195 0.10841 0.0
C1921 C 0.11645 0.31866 0.10157 0.0
C1922 C 0.10511 0.32399 0.1073 0.0
C1923 C 0.10591 0.33083 0.11915 0.0
H1924 H 0.08861 0.33937 0.15904 0.0
H1925 H 0.07327 0.34213 0.17723 0.0
H1926 H 0.09796 0.37267 0.19308 0.0
H1927 H 0.11315 0.36995 0.17529 0.0
H1928 H 0.14022 0.37614 0.16482 0.0
H1929 H 0.15902 0.39091 0.16422 0.0
H1930 H 0.17076 0.37437 0.12733 0.0
H1931 H 0.15193 0.35968 0.12779 0.0
H1932 H 0.13868 0.32746 0.12475 0.0
H1933 H 0.13722 0.31519 0.1045 0.0
H1934 H 0.09577 0.32356 0.10229 0.0
H1935 H 0.0972 0.33547 0.12299 0.0
N1936 N 0.11027 0.34356 0.14546 0.0
N1937 N 0.12325 0.35978 0.15546 0.0
N1938 N 0.13081 0.34926 0.13674 0.0
C1939 C 0.11208 0.35249 0.15521 0.0
C1940 C 0.13264 0.35828 0.14626 0.0
C1941 C 0.11973 0.34188 0.13625 0.0
C1942 C 0.10222 0.35433 0.16571 0.0
C1943 C 0.09072 0.34669 0.16639 0.0
C1944 C 0.08192 0.34829 0.17678 0.0
C1945 C 0.08452 0.35748 0.18668 0.0
C1946 C 0.09581 0.3653 0.18577 0.0
C1947 C 0.10452 0.36376 0.17546 0.0
C1948 C 0.14448 0.36674 0.14632 0.0
C1949 C 0.14683 0.37559 0.15659 0.0
C1950 C 0.15765 0.38401 0.1563 0.0
C1951 C 0.16633 0.38384 0.1457 0.0
C1952 C 0.16414 0.37485 0.13555 0.0
C1953 C 0.15337 0.36637 0.13587 0.0
C1954 C 0.11808 0.33256 0.12534 0.0
C1955 C 0.1292 0.32647 0.12007 0.0
C1956 C 0.90677 0.85569 0.31435 0.0
C1957 C 0.92027 0.85357 0.31597 0.0
C1958 C 0.9251 0.85063 0.32846 0.0
C1959 C 0.91658 0.84995 0.33914 0.0
H1960 H 0.90407 0.82569 0.37476 0.0
H1961 H 0.90779 0.81435 0.39556 0.0
H1962 H 0.88396 0.8431 0.41519 0.0
H1963 H 0.88016 0.85429 0.39466 0.0
H1964 H 0.85766 0.86693 0.3781 0.0
H1965 H 0.83864 0.88116 0.37738 0.0
H1966 H 0.84621 0.88947 0.33686 0.0
H1967 H 0.86525 0.87505 0.33746 0.0
H1968 H 0.888 0.85717 0.32341 0.0
H1969 H 0.90277 0.85812 0.30487 0.0
H1970 H 0.93547 0.84891 0.32997 0.0
H1971 H 0.92059 0.84786 0.34868 0.0
N1972 N 0.89705 0.84661 0.36016 0.0
N1973 N 0.87796 0.85507 0.36966 0.0
N1974 N 0.88307 0.86035 0.34812 0.0
C1975 C 0.88891 0.8476 0.3706 0.0
C1976 C 0.87492 0.86145 0.35849 0.0
C1977 C 0.89415 0.85299 0.34886 0.0
C1978 C 0.89182 0.84088 0.38306 0.0
C1979 C 0.89971 0.82961 0.38355 0.0
C1980 C 0.90177 0.82308 0.3954 0.0
C1981 C 0.8962 0.82789 0.40696 0.0
C1982 C 0.88848 0.83924 0.40645 0.0
C1983 C 0.88625 0.84561 0.39466 0.0
C1984 C 0.86307 0.86985 0.35785 0.0
C1985 C 0.8553 0.87172 0.36899 0.0
C1986 C 0.84441 0.87996 0.36862 0.0
C1987 C 0.84097 0.88652 0.35709 0.0
C1988 C 0.84857 0.88449 0.34587 0.0
C1989 C 0.85952 0.87627 0.34624 0.0
C1990 C 0.90312 0.85247 0.33754 0.0
C1991 C 0.89832 0.85523 0.325 0.0
C1992 C 0.41861 0.64133 0.68338 0.0
C1993 C 0.43124 0.64631 0.68109 0.0
C1994 C 0.43384 0.65256 0.66917 0.0
C1995 C 0.42395 0.65384 0.65975 0.0
H1996 H 0.41225 0.67441 0.62525 0.0
H1997 H 0.41287 0.68938 0.60665 0.0
H1998 H 0.37263 0.6797 0.59766 0.0
H1999 H 0.37191 0.66498 0.61616 0.0
H2000 H 0.35763 0.64191 0.63006 0.0
H2001 H 0.34012 0.62566 0.63025 0.0
H2002 H 0.36163 0.60294 0.65861 0.0
H2003 H 0.37889 0.61937 0.65877 0.0
H2004 H 0.39925 0.63837 0.67606 0.0
H2005 H 0.41635 0.63633 0.6924 0.0
H2006 H 0.44349 0.65653 0.66718 0.0
H2007 H 0.42622 0.65866 0.65064 0.0
N2008 N 0.40145 0.65825 0.64209 0.0
N2009 N 0.38132 0.65044 0.63405 0.0
N2010 N 0.3905 0.64105 0.65271 0.0
C2011 C 0.39162 0.65887 0.63311 0.0
C2012 C 0.3807 0.64148 0.64378 0.0
C2013 C 0.40088 0.64939 0.65199 0.0
C2014 C 0.39205 0.66842 0.62221 0.0
C2015 C 0.40351 0.67556 0.61936 0.0
C2016 C 0.40389 0.68409 0.60867 0.0
C2017 C 0.39279 0.68575 0.60069 0.0
C2018 C 0.3813 0.6788 0.6037 0.0
C2019 C 0.38093 0.67024 0.61429 0.0
C2020 C 0.36972 0.63194 0.64435 0.0
C2021 C 0.35859 0.63349 0.6364 0.0
C2022 C 0.34856 0.62413 0.63646 0.0
C2023 C 0.34946 0.61292 0.64439 0.0
C2024 C 0.36048 0.61152 0.65252 0.0
C2025 C 0.37045 0.62093 0.65255 0.0
C2026 C 0.41136 0.64867 0.662 0.0
C2027 C 0.40883 0.64243 0.67395 0.0
C2028 C 0.6151 0.16472 0.90618 0.0
C2029 C 0.60717 0.17593 0.90648 0.0
C2030 C 0.6015 0.18043 0.89482 0.0
C2031 C 0.60357 0.17365 0.8831 0.0
H2032 H 0.58273 0.15725 0.84813 0.0
H2033 H 0.5679 0.15656 0.82928 0.0
H2034 H 0.59949 0.14214 0.80536 0.0
H2035 H 0.61419 0.14278 0.82398 0.0
H2036 H 0.63323 0.12196 0.84 0.0
H2037 H 0.6495 0.10454 0.84103 0.0
H2038 H 0.66112 0.11761 0.87939 0.0
H2039 H 0.64477 0.13487 0.87851 0.0
H2040 H 0.62349 0.14948 0.89474 0.0
H2041 H 0.61971 0.16112 0.91499 0.0
H2042 H 0.59532 0.18904 0.89482 0.0
H2043 H 0.59904 0.17726 0.87426 0.0
N2044 N 0.60609 0.15636 0.86002 0.0
N2045 N 0.6188 0.14088 0.84875 0.0
N2046 N 0.62431 0.14666 0.87009 0.0
C2047 C 0.60846 0.14926 0.84903 0.0
C2048 C 0.62678 0.13952 0.85924 0.0
C2049 C 0.61407 0.15512 0.8706 0.0
C2050 C 0.59963 0.15003 0.83757 0.0
C2051 C 0.58652 0.15409 0.8388 0.0
C2052 C 0.57801 0.15362 0.82805 0.0
C2053 C 0.58254 0.14932 0.81585 0.0
C2054 C 0.59574 0.14564 0.81458 0.0
C2055 C 0.60415 0.14593 0.8253 0.0
C2056 C 0.63754 0.12975 0.85923 0.0
C2057 C 0.63933 0.12122 0.84861 0.0
C2058 C 0.64871 0.11126 0.84916 0.0
C2059 C 0.65651 0.10961 0.86035 0.0
C2060 C 0.6551 0.11847 0.87073 0.0
C2061 C 0.64574 0.12841 0.87019 0.0
C2062 C 0.61155 0.16242 0.88284 0.0
C2063 C 0.61732 0.1581 0.89452 0.0
C2064 C 0.11433 0.66201 0.40516 0.0
C2065 C 0.1066 0.67336 0.40535 0.0
C2066 C 0.10102 0.67785 0.39364 0.0
C2067 C 0.10307 0.67098 0.38197 0.0
H2068 H 0.08249 0.65365 0.34704 0.0
H2069 H 0.06773 0.65265 0.32816 0.0
H2070 H 0.09986 0.63962 0.30415 0.0
H2071 H 0.1145 0.6406 0.3228 0.0
H2072 H 0.13684 0.62377 0.33725 0.0
H2073 H 0.15564 0.60906 0.33697 0.0
H2074 H 0.16374 0.61852 0.37721 0.0
H2075 H 0.14491 0.63305 0.37761 0.0
H2076 H 0.12263 0.64663 0.3938 0.0
H2077 H 0.11887 0.65841 0.41401 0.0
H2078 H 0.09499 0.68657 0.39355 0.0
H2079 H 0.09869 0.67464 0.37308 0.0
N2080 N 0.10573 0.65347 0.35901 0.0
N2081 N 0.11947 0.63916 0.34743 0.0
N2082 N 0.12462 0.64489 0.36888 0.0
C2083 C 0.10854 0.64674 0.34789 0.0
C2084 C 0.12757 0.63817 0.35788 0.0
C2085 C 0.11381 0.65259 0.36954 0.0
C2086 C 0.09967 0.64717 0.33644 0.0
C2087 C 0.08641 0.65072 0.33769 0.0
C2088 C 0.07794 0.65007 0.32692 0.0
C2089 C 0.08265 0.64609 0.31468 0.0
C2090 C 0.09597 0.64288 0.31341 0.0
C2091 C 0.10434 0.64336 0.32414 0.0
C2092 C 0.13928 0.62958 0.35747 0.0
C2093 C 0.14263 0.62275 0.34604 0.0
C2094 C 0.15345 0.61436 0.34585 0.0
C2095 C 0.16114 0.61257 0.35709 0.0
C2096 C 0.1579 0.61953 0.36844 0.0
C2097 C 0.14712 0.62793 0.36863 0.0
C2098 C 0.11096 0.6597 0.38181 0.0
C2099 C 0.11654 0.65531 0.39354 0.0
C2100 C 0.61295 0.83995 0.59706 0.0
C2101 C 0.60606 0.82803 0.59729 0.0
C2102 C 0.60125 0.82333 0.60924 0.0
C2103 C 0.60329 0.83051 0.62075 0.0
H2104 H 0.58295 0.84783 0.65597 0.0
H2105 H 0.56866 0.84897 0.67511 0.0
H2106 H 0.60076 0.86473 0.69775 0.0
H2107 H 0.61495 0.86355 0.67887 0.0
H2108 H 0.63735 0.8791 0.66392 0.0
H2109 H 0.65627 0.89376 0.66361 0.0
H2110 H 0.66294 0.88418 0.6232 0.0
H2111 H 0.644 0.86969 0.62338 0.0
H2112 H 0.62064 0.85605 0.60793 0.0
H2113 H 0.61687 0.84374 0.58801 0.0
H2114 H 0.59588 0.81417 0.60966 0.0
H2115 H 0.59957 0.82667 0.62985 0.0
N2116 N 0.60566 0.8489 0.64328 0.0
N2117 N 0.61956 0.86365 0.65428 0.0
N2118 N 0.62421 0.85756 0.63284 0.0
C2119 C 0.60868 0.85592 0.6542 0.0
C2120 C 0.62738 0.86454 0.64364 0.0
C2121 C 0.61346 0.8497 0.63256 0.0
C2122 C 0.6001 0.85563 0.66585 0.0
C2123 C 0.58698 0.8514 0.66508 0.0
C2124 C 0.57877 0.85213 0.676 0.0
C2125 C 0.5836 0.85691 0.68795 0.0
C2126 C 0.59678 0.86084 0.68875 0.0
C2127 C 0.6049 0.86025 0.67786 0.0
C2128 C 0.63908 0.87322 0.64366 0.0
C2129 C 0.64284 0.8801 0.65496 0.0
C2130 C 0.65374 0.88845 0.65482 0.0
C2131 C 0.66107 0.89017 0.64337 0.0
C2132 C 0.65738 0.88322 0.63212 0.0
C2133 C 0.64654 0.87484 0.63226 0.0
C2134 C 0.61041 0.84233 0.62049 0.0
C2135 C 0.61516 0.84696 0.6085 0.0
C2136 C 0.38519 0.33501 0.90667 0.0
C2137 C 0.3948 0.32535 0.90835 0.0
C2138 C 0.40242 0.32156 0.8976 0.0
C2139 C 0.40067 0.32762 0.88546 0.0
H2140 H 0.42272 0.34599 0.85125 0.0
H2141 H 0.43839 0.34683 0.8331 0.0
H2142 H 0.40633 0.35202 0.80611 0.0
H2143 H 0.39082 0.35143 0.82408 0.0
H2144 H 0.37419 0.37951 0.84163 0.0
H2145 H 0.35716 0.39615 0.84148 0.0
H2146 H 0.33673 0.37543 0.87207 0.0
H2147 H 0.35408 0.35914 0.8726 0.0
H2148 H 0.37586 0.3484 0.89378 0.0
H2149 H 0.37906 0.338 0.91474 0.0
H2150 H 0.40992 0.31414 0.89867 0.0
H2151 H 0.40678 0.32465 0.87738 0.0
N2152 N 0.39798 0.34303 0.86129 0.0
N2153 N 0.38544 0.35751 0.84856 0.0
N2154 N 0.37859 0.35211 0.86959 0.0
C2155 C 0.39608 0.34962 0.8499 0.0
C2156 C 0.37666 0.35881 0.85836 0.0
C2157 C 0.38917 0.3442 0.87118 0.0
C2158 C 0.40556 0.34869 0.83907 0.0
C2159 C 0.41905 0.34713 0.84141 0.0
C2160 C 0.428 0.34768 0.83107 0.0
C2161 C 0.42355 0.34945 0.81822 0.0
C2162 C 0.41003 0.35052 0.8159 0.0
C2163 C 0.40116 0.35025 0.8262 0.0
C2164 C 0.36557 0.36808 0.85722 0.0
C2165 C 0.366 0.37844 0.84823 0.0
C2166 C 0.35617 0.38796 0.8481 0.0
C2167 C 0.34559 0.38725 0.85685 0.0
C2168 C 0.34488 0.37651 0.86541 0.0
C2169 C 0.3548 0.3671 0.86567 0.0
C2170 C 0.39112 0.33743 0.88384 0.0
C2171 C 0.38334 0.34093 0.89459 0.0
C2172 C 0.91861 0.14223 0.18337 0.0
C2173 C 0.93119 0.1474 0.1812 0.0
C2174 C 0.9337 0.15397 0.16943 0.0
C2175 C 0.92379 0.15537 0.16005 0.0
H2176 H 0.91266 0.17585 0.12552 0.0
H2177 H 0.91356 0.19082 0.10693 0.0
H2178 H 0.87329 0.18154 0.09767 0.0
H2179 H 0.87229 0.16683 0.11615 0.0
H2180 H 0.86007 0.14111 0.12661 0.0
H2181 H 0.84303 0.12441 0.12602 0.0
H2182 H 0.85933 0.10655 0.16054 0.0
H2183 H 0.87631 0.12337 0.1613 0.0
H2184 H 0.89926 0.13925 0.176 0.0
H2185 H 0.91642 0.13699 0.19228 0.0
H2186 H 0.9433 0.1581 0.16752 0.0
H2187 H 0.92602 0.16044 0.15106 0.0
N2188 N 0.90152 0.1598 0.14231 0.0
N2189 N 0.88149 0.1521 0.13398 0.0
N2190 N 0.89034 0.14262 0.15275 0.0
C2191 C 0.89181 0.16049 0.13321 0.0
C2192 C 0.88067 0.14312 0.14368 0.0
C2193 C 0.90078 0.15091 0.15218 0.0
C2194 C 0.89242 0.17007 0.12234 0.0
C2195 C 0.90397 0.17709 0.11958 0.0
C2196 C 0.90452 0.18562 0.10889 0.0
C2197 C 0.89348 0.1874 0.10084 0.0
C2198 C 0.8819 0.18056 0.10377 0.0
C2199 C 0.88138 0.172 0.11434 0.0
C2200 C 0.86968 0.13355 0.14394 0.0
C2201 C 0.86 0.13371 0.13416 0.0
C2202 C 0.85024 0.12409 0.13377 0.0
C2203 C 0.84989 0.11409 0.14316 0.0
C2204 C 0.85926 0.11419 0.15322 0.0
C2205 C 0.86906 0.1238 0.1536 0.0
C2206 C 0.91125 0.15002 0.16219 0.0
C2207 C 0.9088 0.14346 0.17398 0.0
C2208 C 0.10274 0.12131 0.32985 0.0
C2209 C 0.09999 0.10964 0.3231 0.0
C2210 C 0.10888 0.09916 0.32413 0.0
C2211 C 0.12013 0.10028 0.33193 0.0
H2212 H 0.15215 0.0791 0.34799 0.0
H2213 H 0.16775 0.06136 0.35188 0.0
H2214 H 0.19226 0.0879 0.37398 0.0
H2215 H 0.17669 0.10541 0.37041 0.0
H2216 H 0.16495 0.13131 0.38148 0.0
H2217 H 0.1662 0.15035 0.39575 0.0
H2218 H 0.13002 0.16498 0.37946 0.0
H2219 H 0.12887 0.14615 0.36499 0.0
H2220 H 0.11552 0.13155 0.34278 0.0
H2221 H 0.09603 0.12951 0.3295 0.0
H2222 H 0.10711 0.09006 0.31897 0.0
H2223 H 0.12668 0.09197 0.33264 0.0
N2224 N 0.14307 0.10321 0.34898 0.0
N2225 N 0.15456 0.11547 0.36468 0.0
N2226 N 0.13556 0.12401 0.35523 0.0
C2227 C 0.15336 0.1044 0.35738 0.0
C2228 C 0.1457 0.12531 0.36369 0.0
C2229 C 0.13415 0.11306 0.34781 0.0
C2230 C 0.16306 0.09368 0.35898 0.0
C2231 C 0.16089 0.08115 0.35364 0.0
C2232 C 0.16985 0.07098 0.35584 0.0
C2233 C 0.18118 0.07315 0.36339 0.0
C2234 C 0.18349 0.08577 0.3684 0.0
C2235 C 0.17455 0.09587 0.36627 0.0
C2236 C 0.14679 0.13713 0.37207 0.0
C2237 C 0.15728 0.1386 0.38087 0.0
C2238 C 0.15797 0.1495 0.38913 0.0
C2239 C 0.14819 0.15918 0.38878 0.0
C2240 C 0.13781 0.1578 0.37986 0.0
C2241 C 0.13712 0.14693 0.37161 0.0
C2242 C 0.1227 0.11189 0.3389 0.0
C2243 C 0.11392 0.12243 0.33761 0.0
C2244 C 0.17806 0.89774 0.62366 0.0
C2245 C 0.18552 0.90077 0.61258 0.0
C2246 C 0.18433 0.89274 0.60149 0.0
C2247 C 0.17583 0.88194 0.6015 0.0
H2248 H 0.15969 0.85105 0.57801 0.0
H2249 H 0.15808 0.83497 0.5603 0.0
H2250 H 0.13859 0.80798 0.58622 0.0
H2251 H 0.14011 0.8239 0.6038 0.0
H2252 H 0.12464 0.83612 0.62783 0.0
H2253 H 0.1075 0.83518 0.64426 0.0
H2254 H 0.11875 0.87367 0.65794 0.0
H2255 H 0.13611 0.87448 0.64179 0.0
H2256 H 0.16388 0.88511 0.63236 0.0
H2257 H 0.17861 0.90383 0.63229 0.0
H2258 H 0.19002 0.89478 0.59283 0.0
H2259 H 0.17511 0.87598 0.59279 0.0
N2260 N 0.15882 0.85885 0.60276 0.0
N2261 N 0.14173 0.84744 0.61305 0.0
N2262 N 0.15023 0.86651 0.62254 0.0
C2263 C 0.15028 0.84859 0.60298 0.0
C2264 C 0.14159 0.85638 0.62284 0.0
C2265 C 0.15891 0.86781 0.6126 0.0
C2266 C 0.15 0.83877 0.59232 0.0
C2267 C 0.15516 0.84164 0.57994 0.0
C2268 C 0.15418 0.83249 0.56979 0.0
C2269 C 0.14825 0.82022 0.57191 0.0
C2270 C 0.14334 0.8173 0.58434 0.0
C2271 C 0.14414 0.82647 0.59439 0.0
C2272 C 0.13172 0.85542 0.6334 0.0
C2273 C 0.12354 0.84435 0.6344 0.0
C2274 C 0.11365 0.84384 0.64379 0.0
C2275 C 0.11166 0.85439 0.65238 0.0
C2276 C 0.12009 0.86529 0.65161 0.0
C2277 C 0.13002 0.86578 0.64227 0.0
C2278 C 0.16824 0.87901 0.61255 0.0
C2279 C 0.16952 0.88704 0.62364 0.0
C2280 C 0.40132 0.87825 0.82218 0.0
C2281 C 0.40422 0.89042 0.8165 0.0
C2282 C 0.39617 0.90122 0.81942 0.0
C2283 C 0.3855 0.89984 0.82792 0.0
H2284 H 0.3493 0.91751 0.84153 0.0
H2285 H 0.33074 0.93261 0.84396 0.0
H2286 H 0.31262 0.90575 0.87096 0.0
H2287 H 0.33076 0.8908 0.86856 0.0
H2288 H 0.34336 0.86583 0.87744 0.0
H2289 H 0.34329 0.84654 0.89134 0.0
H2290 H 0.38057 0.8347 0.87535 0.0
H2291 H 0.38054 0.85383 0.86121 0.0
H2292 H 0.38901 0.86735 0.83495 0.0
H2293 H 0.40742 0.86978 0.82031 0.0
H2294 H 0.39814 0.91072 0.81514 0.0
H2295 H 0.37955 0.90834 0.83007 0.0
N2296 N 0.36231 0.89518 0.84458 0.0
N2297 N 0.3525 0.88238 0.86088 0.0
N2298 N 0.37176 0.8752 0.85099 0.0
C2299 C 0.35247 0.89333 0.85337 0.0
C2300 C 0.36208 0.87328 0.85981 0.0
C2301 C 0.37199 0.88606 0.84334 0.0
C2302 C 0.34155 0.90286 0.85477 0.0
C2303 C 0.34134 0.91485 0.84797 0.0
C2304 C 0.33075 0.92352 0.84939 0.0
C2305 C 0.32015 0.92028 0.85752 0.0
C2306 C 0.3205 0.90842 0.86441 0.0
C2307 C 0.33101 0.89986 0.86308 0.0
C2308 C 0.36198 0.86144 0.86819 0.0
C2309 C 0.35155 0.85912 0.87684 0.0
C2310 C 0.35153 0.84808 0.88488 0.0
C2311 C 0.36194 0.83909 0.8845 0.0
C2312 C 0.37231 0.84134 0.87578 0.0
C2313 C 0.37233 0.85237 0.86772 0.0
C2314 C 0.38279 0.88767 0.83378 0.0
C2315 C 0.39079 0.8769 0.83071 0.0
C2316 C 0.32782 0.10288 0.12434 0.0
C2317 C 0.32073 0.10035 0.11287 0.0
C2318 C 0.32151 0.10944 0.10259 0.0
C2319 C 0.32938 0.12067 0.10371 0.0
H2320 H 0.34665 0.15218 0.08245 0.0
H2321 H 0.34953 0.16843 0.06514 0.0
H2322 H 0.36906 0.19425 0.09233 0.0
H2323 H 0.36621 0.17818 0.10954 0.0
H2324 H 0.37854 0.16587 0.1354 0.0
H2325 H 0.39332 0.16659 0.15415 0.0
H2326 H 0.37865 0.12902 0.16689 0.0
H2327 H 0.364 0.12818 0.14823 0.0
H2328 H 0.34107 0.11547 0.13444 0.0
H2329 H 0.32768 0.096 0.13237 0.0
H2330 H 0.31609 0.10784 0.09364 0.0
H2331 H 0.32988 0.12739 0.09557 0.0
N2332 N 0.34657 0.14359 0.10666 0.0
N2333 N 0.36238 0.15509 0.11887 0.0
N2334 N 0.35315 0.13583 0.12714 0.0
C2335 C 0.35493 0.15395 0.10791 0.0
C2336 C 0.36157 0.14604 0.12852 0.0
C2337 C 0.34559 0.13451 0.11632 0.0
C2338 C 0.35621 0.16385 0.0974 0.0
C2339 C 0.35149 0.16135 0.08474 0.0
C2340 C 0.3532 0.17061 0.07481 0.0
C2341 C 0.35948 0.18262 0.07739 0.0
C2342 C 0.36404 0.18516 0.09007 0.0
C2343 C 0.36248 0.17588 0.09992 0.0
C2344 C 0.37011 0.14693 0.14022 0.0
C2345 C 0.37842 0.15778 0.14222 0.0
C2346 C 0.38684 0.15824 0.153 0.0
C2347 C 0.3872 0.14782 0.16193 0.0
C2348 C 0.37873 0.13711 0.16006 0.0
C2349 C 0.37027 0.13668 0.14937 0.0
C2350 C 0.33667 0.12303 0.11513 0.0
C2351 C 0.33565 0.11404 0.12547 0.0
C2352 C 0.17923 0.91763 0.13836 0.0
C2353 C 0.17738 0.93001 0.14405 0.0
C2354 C 0.16657 0.93187 0.15234 0.0
C2355 C 0.1576 0.92166 0.15453 0.0
H2356 H 0.12343 0.91016 0.1756 0.0
H2357 H 0.10505 0.91092 0.19085 0.0
H2358 H 0.09552 0.87073 0.18152 0.0
H2359 H 0.11382 0.86986 0.16654 0.0
H2360 H 0.12317 0.85842 0.13975 0.0
H2361 H 0.1225 0.8416 0.12289 0.0
H2362 H 0.15807 0.85723 0.1062 0.0
H2363 H 0.15889 0.87393 0.12311 0.0
H2364 H 0.17205 0.89817 0.13578 0.0
H2365 H 0.18762 0.91572 0.1322 0.0
H2366 H 0.16485 0.9413 0.15686 0.0
H2367 H 0.14922 0.92348 0.16072 0.0
N2368 N 0.13982 0.89931 0.15902 0.0
N2369 N 0.13142 0.87918 0.15158 0.0
N2370 N 0.14986 0.88832 0.14162 0.0
C2371 C 0.1308 0.88947 0.15998 0.0
C2372 C 0.14089 0.87852 0.14236 0.0
C2373 C 0.14945 0.89872 0.14987 0.0
C2374 C 0.12011 0.88997 0.16977 0.0
C2375 C 0.11748 0.90145 0.17689 0.0
C2376 C 0.10691 0.90192 0.18558 0.0
C2377 C 0.09883 0.89088 0.18742 0.0
C2378 C 0.10165 0.87935 0.1805 0.0
C2379 C 0.11211 0.8789 0.17179 0.0
C2380 C 0.14103 0.86764 0.13276 0.0
C2381 C 0.13093 0.85822 0.13257 0.0
C2382 C 0.1305 0.8486 0.12287 0.0
C2383 C 0.14018 0.84813 0.11316 0.0
C2384 C 0.15052 0.85725 0.11361 0.0
C2385 C 0.15093 0.86689 0.12328 0.0
C2386 C 0.15926 0.90941 0.14845 0.0
C2387 C 0.17029 0.9075 0.14049 0.0
C2388 C 0.32672 0.89774 0.38002 0.0
C2389 C 0.31988 0.90029 0.3916 0.0
C2390 C 0.3206 0.89109 0.40179 0.0
C2391 C 0.32822 0.87974 0.40049 0.0
H2392 H 0.3445 0.84533 0.42075 0.0
H2393 H 0.34579 0.82679 0.436 0.0
H2394 H 0.36198 0.80266 0.4055 0.0
H2395 H 0.36082 0.82093 0.39045 0.0
H2396 H 0.38299 0.84003 0.37348 0.0
H2397 H 0.39967 0.84116 0.35665 0.0
H2398 H 0.3779 0.87182 0.33732 0.0
H2399 H 0.36145 0.87102 0.35442 0.0
H2400 H 0.33959 0.88505 0.36971 0.0
H2401 H 0.32659 0.90468 0.37205 0.0
H2402 H 0.31537 0.89273 0.41082 0.0
H2403 H 0.32875 0.87296 0.40859 0.0
N2404 N 0.34424 0.85605 0.39657 0.0
N2405 N 0.36105 0.84559 0.38494 0.0
N2406 N 0.35279 0.86559 0.37758 0.0
C2407 C 0.35258 0.84574 0.39513 0.0
C2408 C 0.36125 0.85548 0.37614 0.0
C2409 C 0.34426 0.866 0.38771 0.0
C2410 C 0.35259 0.83461 0.4044 0.0
C2411 C 0.34823 0.83602 0.41732 0.0
C2412 C 0.34903 0.82546 0.42605 0.0
C2413 C 0.35391 0.81328 0.4219 0.0
C2414 C 0.35802 0.81187 0.40894 0.0
C2415 C 0.35744 0.8224 0.40033 0.0
C2416 C 0.37091 0.8555 0.36538 0.0
C2417 C 0.3817 0.84696 0.3656 0.0
C2418 C 0.39125 0.84755 0.35588 0.0
C2419 C 0.39019 0.85662 0.34562 0.0
C2420 C 0.37918 0.86489 0.3452 0.0
C2421 C 0.3697 0.86438 0.35499 0.0
C2422 C 0.33535 0.87742 0.38901 0.0
C2423 C 0.33432 0.88648 0.37874 0.0
C2424 C 0.40038 0.1255 0.67968 0.0
C2425 C 0.40273 0.11388 0.68662 0.0
C2426 C 0.39457 0.10298 0.68431 0.0
C2427 C 0.38441 0.10365 0.67511 0.0
H2428 H 0.34714 0.08698 0.66322 0.0
H2429 H 0.33006 0.07034 0.66013 0.0
H2430 H 0.32123 0.08649 0.62227 0.0
H2431 H 0.33818 0.10293 0.62523 0.0
H2432 H 0.34491 0.13309 0.62074 0.0
H2433 H 0.34514 0.15162 0.60579 0.0
H2434 H 0.38132 0.16534 0.62298 0.0
H2435 H 0.38122 0.14678 0.63788 0.0
H2436 H 0.38898 0.13525 0.66522 0.0
H2437 H 0.40657 0.13402 0.68106 0.0
H2438 H 0.39607 0.09391 0.68957 0.0
H2439 H 0.37841 0.09504 0.67345 0.0
N2440 N 0.36306 0.10616 0.65608 0.0
N2441 N 0.35406 0.11731 0.63818 0.0
N2442 N 0.37199 0.12625 0.64931 0.0
C2443 C 0.35398 0.10684 0.64635 0.0
C2444 C 0.36301 0.12706 0.63959 0.0
C2445 C 0.37211 0.11588 0.6576 0.0
C2446 C 0.34403 0.09634 0.6445 0.0
C2447 C 0.34162 0.08691 0.6542 0.0
C2448 C 0.3318 0.07741 0.65247 0.0
C2449 C 0.32434 0.07706 0.64093 0.0
C2450 C 0.32693 0.08636 0.63119 0.0
C2451 C 0.3366 0.09588 0.63295 0.0
C2452 C 0.36306 0.1384 0.63054 0.0
C2453 C 0.35293 0.14003 0.62135 0.0
C2454 C 0.35301 0.1507 0.61281 0.0
C2455 C 0.36325 0.15993 0.6132 0.0
C2456 C 0.37337 0.1583 0.62235 0.0
C2457 C 0.37326 0.1477 0.63095 0.0
C2458 C 0.38228 0.11521 0.66796 0.0
C2459 C 0.39032 0.12615 0.67048 0.0
C2460 C 0.14116 0.18228 0.91826 0.0
C2461 C 0.14713 0.18055 0.93046 0.0
C2462 C 0.15439 0.16907 0.93275 0.0
C2463 C 0.15568 0.15956 0.92296 0.0
H2464 H 0.17625 0.12499 0.91136 0.0
H2465 H 0.19168 0.10668 0.91184 0.0
H2466 H 0.1814 0.09703 0.87215 0.0
H2467 H 0.1662 0.11526 0.87157 0.0
H2468 H 0.14204 0.1282 0.85797 0.0
H2469 H 0.12547 0.12823 0.84085 0.0
H2470 H 0.10346 0.15738 0.86208 0.0
H2471 H 0.12017 0.15768 0.87892 0.0
H2472 H 0.13749 0.17448 0.89933 0.0
H2473 H 0.13535 0.19092 0.91624 0.0
H2474 H 0.15913 0.16751 0.94207 0.0
H2475 H 0.1613 0.1508 0.925 0.0
N2476 N 0.15948 0.14142 0.90085 0.0
N2477 N 0.15143 0.133 0.88107 0.0
N2478 N 0.14179 0.15158 0.89028 0.0
C2479 C 0.1601 0.13234 0.89113 0.0
C2480 C 0.14222 0.14256 0.88059 0.0
C2481 C 0.15036 0.15115 0.90041 0.0
C2482 C 0.16992 0.12161 0.89145 0.0
C2483 C 0.17736 0.11903 0.90271 0.0
C2484 C 0.18615 0.10849 0.90301 0.0
C2485 C 0.18779 0.10041 0.89203 0.0
C2486 C 0.18052 0.10316 0.88072 0.0
C2487 C 0.1717 0.11359 0.88044 0.0
C2488 C 0.13245 0.14291 0.86987 0.0
C2489 C 0.13371 0.13468 0.85895 0.0
C2490 C 0.12416 0.13465 0.84915 0.0
C2491 C 0.11308 0.14278 0.85008 0.0
C2492 C 0.11195 0.15114 0.86091 0.0
C2493 C 0.12152 0.15125 0.87064 0.0
C2494 C 0.14956 0.16127 0.91079 0.0
C2495 C 0.14232 0.17277 0.90858 0.0
C2496 C 0.82238 0.3933 0.87497 0.0
C2497 C 0.82024 0.39999 0.88675 0.0
C2498 C 0.8242 0.39399 0.89847 0.0
C2499 C 0.83089 0.38199 0.89829 0.0
H2500 H 0.8452 0.34611 0.92039 0.0
H2501 H 0.8467 0.32819 0.93639 0.0
H2502 H 0.85948 0.30195 0.90601 0.0
H2503 H 0.85821 0.31962 0.89024 0.0
H2504 H 0.88178 0.3384 0.87284 0.0
H2505 H 0.89858 0.33905 0.85614 0.0
H2506 H 0.87614 0.3679 0.83489 0.0
H2507 H 0.85954 0.36761 0.85187 0.0
H2508 H 0.83117 0.37689 0.86547 0.0
H2509 H 0.81913 0.3974 0.86579 0.0
H2510 H 0.82276 0.39887 0.90772 0.0
H2511 H 0.83438 0.37789 0.90738 0.0
N2512 N 0.84311 0.35527 0.89528 0.0
N2513 N 0.85978 0.34421 0.88398 0.0
N2514 N 0.85111 0.36355 0.87545 0.0
C2515 C 0.8515 0.34494 0.8943 0.0
C2516 C 0.85971 0.3535 0.87456 0.0
C2517 C 0.8428 0.36453 0.88573 0.0
C2518 C 0.85163 0.33428 0.90407 0.0
C2519 C 0.84824 0.33648 0.91717 0.0
C2520 C 0.84915 0.32628 0.92631 0.0
C2521 C 0.85313 0.3137 0.92239 0.0
C2522 C 0.85625 0.31151 0.90927 0.0
C2523 C 0.8556 0.32167 0.90025 0.0
C2524 C 0.86934 0.35304 0.86377 0.0
C2525 C 0.88035 0.34481 0.86456 0.0
C2526 C 0.88998 0.34513 0.85491 0.0
C2527 C 0.88879 0.35358 0.84416 0.0
C2528 C 0.87754 0.36147 0.84315 0.0
C2529 C 0.86797 0.36125 0.85287 0.0
C2530 C 0.83386 0.3759 0.88639 0.0
C2531 C 0.82922 0.38149 0.87478 0.0
C2532 C 0.90011 0.62523 0.1807 0.0
C2533 C 0.90259 0.61316 0.18677 0.0
C2534 C 0.8943 0.60246 0.18398 0.0
C2535 C 0.88384 0.60382 0.1752 0.0
H2536 H 0.84667 0.58746 0.16279 0.0
H2537 H 0.82808 0.57237 0.16015 0.0
H2538 H 0.81439 0.59509 0.1274 0.0
H2539 H 0.83257 0.61007 0.13002 0.0
H2540 H 0.84291 0.63744 0.12443 0.0
H2541 H 0.84327 0.65648 0.11018 0.0
H2542 H 0.88066 0.66812 0.1263 0.0
H2543 H 0.88044 0.649 0.14049 0.0
H2544 H 0.88833 0.63601 0.16734 0.0
H2545 H 0.90641 0.63361 0.18247 0.0
H2546 H 0.89593 0.59305 0.18856 0.0
H2547 H 0.87771 0.59538 0.17315 0.0
N2548 N 0.8614 0.60818 0.1576 0.0
N2549 N 0.85205 0.62068 0.14081 0.0
N2550 N 0.87098 0.62815 0.15129 0.0
C2551 C 0.85185 0.60981 0.14844 0.0
C2552 C 0.86156 0.62988 0.14213 0.0
C2553 C 0.87101 0.61738 0.15907 0.0
C2554 C 0.84109 0.6001 0.14672 0.0
C2555 C 0.8397 0.5892 0.15501 0.0
C2556 C 0.82909 0.58053 0.15348 0.0
C2557 C 0.81966 0.58266 0.14369 0.0
C2558 C 0.8213 0.59334 0.13523 0.0
C2559 C 0.83182 0.60192 0.13672 0.0
C2560 C 0.86166 0.64163 0.13362 0.0
C2561 C 0.85123 0.64404 0.12497 0.0
C2562 C 0.85138 0.65501 0.11684 0.0
C2563 C 0.86199 0.6638 0.11711 0.0
C2564 C 0.87241 0.66145 0.12577 0.0
C2565 C 0.87223 0.65051 0.13396 0.0
C2566 C 0.88156 0.61586 0.16894 0.0
C2567 C 0.88978 0.62656 0.1719 0.0
C2568 C 0.64414 0.68243 0.41961 0.0
C2569 C 0.64915 0.67975 0.43207 0.0
C2570 C 0.65506 0.66754 0.43439 0.0
C2571 C 0.65591 0.65818 0.42441 0.0
H2572 H 0.67589 0.6237 0.41158 0.0
H2573 H 0.6908 0.60496 0.41148 0.0
H2574 H 0.67864 0.59553 0.37226 0.0
H2575 H 0.66393 0.61418 0.37224 0.0
H2576 H 0.63905 0.62714 0.3602 0.0
H2577 H 0.62157 0.62759 0.34397 0.0
H2578 H 0.60397 0.66054 0.36365 0.0
H2579 H 0.62131 0.66008 0.37995 0.0
H2580 H 0.64069 0.67546 0.4003 0.0
H2581 H 0.6394 0.6917 0.41757 0.0
H2582 H 0.65904 0.66524 0.4439 0.0
H2583 H 0.66043 0.64882 0.42648 0.0
N2584 N 0.65934 0.64064 0.4017 0.0
N2585 N 0.65039 0.63271 0.38211 0.0
N2586 N 0.64193 0.65172 0.39161 0.0
C2587 C 0.65928 0.63159 0.39193 0.0
C2588 C 0.64166 0.64272 0.38189 0.0
C2589 C 0.65071 0.6508 0.40152 0.0
C2590 C 0.66866 0.62047 0.39193 0.0
C2591 C 0.67645 0.61767 0.40291 0.0
C2592 C 0.68495 0.6069 0.40289 0.0
C2593 C 0.68593 0.59878 0.39185 0.0
C2594 C 0.67826 0.60169 0.38085 0.0
C2595 C 0.66973 0.61236 0.3809 0.0
C2596 C 0.63156 0.64351 0.37148 0.0
C2597 C 0.63151 0.63454 0.36105 0.0
C2598 C 0.62153 0.63484 0.35169 0.0
C2599 C 0.61135 0.64405 0.35258 0.0
C2600 C 0.61158 0.65321 0.3628 0.0
C2601 C 0.62158 0.65297 0.37211 0.0
C2602 C 0.65063 0.66081 0.41201 0.0
C2603 C 0.6448 0.67307 0.40974 0.0
C2604 C 0.89964 0.37601 0.32211 0.0
C2605 C 0.90252 0.38801 0.31607 0.0
C2606 C 0.89467 0.39896 0.3189 0.0
C2607 C 0.88425 0.39793 0.32773 0.0
H2608 H 0.84768 0.41484 0.33963 0.0
H2609 H 0.83054 0.43129 0.34258 0.0
H2610 H 0.81742 0.41123 0.37722 0.0
H2611 H 0.8345 0.39499 0.37444 0.0
H2612 H 0.84311 0.36575 0.37934 0.0
H2613 H 0.84342 0.34677 0.39376 0.0
H2614 H 0.88028 0.33457 0.37717 0.0
H2615 H 0.8801 0.35353 0.36283 0.0
H2616 H 0.88758 0.3656 0.33554 0.0
H2617 H 0.9056 0.36743 0.3203 0.0
H2618 H 0.8966 0.40832 0.31433 0.0
H2619 H 0.87848 0.40657 0.32983 0.0
N2620 N 0.862 0.3944 0.34559 0.0
N2621 N 0.85253 0.38245 0.36272 0.0
N2622 N 0.87086 0.37417 0.3519 0.0
C2623 C 0.85261 0.39324 0.35495 0.0
C2624 C 0.86161 0.37288 0.36127 0.0
C2625 C 0.87116 0.38485 0.34401 0.0
C2626 C 0.8425 0.40354 0.35677 0.0
C2627 C 0.8412 0.41399 0.34792 0.0
C2628 C 0.83134 0.42339 0.34957 0.0
C2629 C 0.82265 0.4226 0.36017 0.0
C2630 C 0.82407 0.41226 0.36907 0.0
C2631 C 0.83384 0.40286 0.36739 0.0
C2632 C 0.8616 0.36123 0.36992 0.0
C2633 C 0.85129 0.35904 0.37874 0.0
C2634 C 0.85142 0.34811 0.38697 0.0
C2635 C 0.86189 0.3392 0.38662 0.0
C2636 C 0.87215 0.34135 0.37778 0.0
C2637 C 0.87199 0.3522 0.3695 0.0
C2638 C 0.88159 0.38597 0.33401 0.0
C2639 C 0.88934 0.37501 0.33097 0.0
C2640 C 0.60025 0.6193 0.83036 0.0
C2641 C 0.5977 0.60768 0.82345 0.0
C2642 C 0.60685 0.5974 0.8242 0.0
C2643 C 0.61818 0.59867 0.83187 0.0
H2644 H 0.65119 0.57829 0.84666 0.0
H2645 H 0.66785 0.56123 0.84896 0.0
H2646 H 0.69197 0.58785 0.87134 0.0
H2647 H 0.67553 0.60484 0.86901 0.0
H2648 H 0.66349 0.63071 0.88041 0.0
H2649 H 0.66422 0.64939 0.89527 0.0
H2650 H 0.62631 0.66194 0.88137 0.0
H2651 H 0.62545 0.6433 0.86663 0.0
H2652 H 0.61295 0.62964 0.8433 0.0
H2653 H 0.59334 0.62734 0.83022 0.0
H2654 H 0.60523 0.58836 0.81891 0.0
H2655 H 0.62494 0.59052 0.83235 0.0
N2656 N 0.64141 0.60201 0.84845 0.0
N2657 N 0.65281 0.61425 0.86424 0.0
N2658 N 0.63329 0.62232 0.85542 0.0
C2659 C 0.65183 0.60334 0.85667 0.0
C2660 C 0.64357 0.62378 0.8637 0.0
C2661 C 0.63211 0.61154 0.84774 0.0
C2662 C 0.66198 0.59297 0.85765 0.0
C2663 C 0.66007 0.58052 0.85201 0.0
C2664 C 0.66958 0.57072 0.85339 0.0
C2665 C 0.68124 0.5732 0.8603 0.0
C2666 C 0.68317 0.58567 0.86581 0.0
C2667 C 0.67367 0.5954 0.86454 0.0
C2668 C 0.64438 0.63542 0.87234 0.0
C2669 C 0.65532 0.63747 0.88048 0.0
C2670 C 0.65578 0.64821 0.88896 0.0
C2671 C 0.64529 0.65709 0.88954 0.0
C2672 C 0.63446 0.65516 0.88128 0.0
C2673 C 0.63402 0.64449 0.87277 0.0
C2674 C 0.62055 0.61022 0.83899 0.0
C2675 C 0.6115 0.62056 0.838 0.0
C2676 C 0.89806 0.66129 0.93827 0.0
C2677 C 0.90112 0.67455 0.93625 0.0
C2678 C 0.90446 0.67878 0.92366 0.0
C2679 C 0.90473 0.66983 0.91327 0.0
H2680 H 0.9261 0.65832 0.878 0.0
H2681 H 0.93942 0.65994 0.85826 0.0
H2682 H 0.92161 0.62444 0.84358 0.0
H2683 H 0.90827 0.62287 0.86298 0.0
H2684 H 0.89031 0.60557 0.88085 0.0
H2685 H 0.87373 0.58839 0.88124 0.0
H2686 H 0.85288 0.60934 0.91136 0.0
H2687 H 0.86974 0.62621 0.91135 0.0
H2688 H 0.89547 0.64234 0.92981 0.0
H2689 H 0.89532 0.6578 0.94785 0.0
H2690 H 0.90685 0.68897 0.92187 0.0
H2691 H 0.90722 0.67331 0.90362 0.0
N2692 N 0.90835 0.64842 0.89368 0.0
N2693 N 0.89897 0.62933 0.88483 0.0
N2694 N 0.89199 0.637 0.90511 0.0
C2695 C 0.90762 0.63944 0.88386 0.0
C2696 C 0.89109 0.62806 0.89538 0.0
C2697 C 0.90058 0.64717 0.90438 0.0
C2698 C 0.91602 0.64052 0.8721 0.0
C2699 C 0.92503 0.65087 0.87056 0.0
C2700 C 0.93271 0.65177 0.85928 0.0
C2701 C 0.93149 0.64238 0.8493 0.0
C2702 C 0.92262 0.63197 0.85095 0.0
C2703 C 0.915 0.63105 0.86217 0.0
C2704 C 0.88133 0.6173 0.89603 0.0
C2705 C 0.88223 0.60647 0.88762 0.0
C2706 C 0.87267 0.59664 0.88779 0.0
C2707 C 0.86187 0.59748 0.89626 0.0
C2708 C 0.86113 0.60822 0.90484 0.0
C2709 C 0.87078 0.61796 0.90478 0.0
C2710 C 0.90133 0.65662 0.91529 0.0
C2711 C 0.89807 0.65246 0.92791 0.0
C2712 C 0.1102 0.15572 0.56879 0.0
C2713 C 0.10585 0.16872 0.56979 0.0
C2714 C 0.10051 0.17303 0.58167 0.0
C2715 C 0.09949 0.16442 0.59229 0.0
H2716 H 0.07933 0.15654 0.62879 0.0
H2717 H 0.06551 0.15922 0.6481 0.0
H2718 H 0.07813 0.12139 0.66213 0.0
H2719 H 0.09155 0.11859 0.64301 0.0
H2720 H 0.11581 0.10523 0.63199 0.0
H2721 H 0.13069 0.08664 0.63207 0.0
H2722 H 0.14297 0.09622 0.59299 0.0
H2723 H 0.12796 0.11478 0.59278 0.0
H2724 H 0.11291 0.1373 0.57817 0.0
H2725 H 0.11453 0.15214 0.55984 0.0
H2726 H 0.09706 0.18301 0.5827 0.0
H2727 H 0.0954 0.168 0.60134 0.0
N2728 N 0.09563 0.1443 0.61285 0.0
N2729 N 0.10357 0.12508 0.62261 0.0
N2730 N 0.11171 0.13163 0.6024 0.0
C2731 C 0.09546 0.13562 0.62294 0.0
C2732 C 0.11173 0.12301 0.61243 0.0
C2733 C 0.10373 0.14229 0.6025 0.0
C2734 C 0.08663 0.13738 0.63432 0.0
C2735 C 0.07906 0.14876 0.63596 0.0
C2736 C 0.07117 0.15032 0.64704 0.0
C2737 C 0.07064 0.14049 0.65664 0.0
C2738 C 0.07807 0.12906 0.65485 0.0
C2739 C 0.08592 0.12753 0.64387 0.0
C2740 C 0.12067 0.11156 0.61238 0.0
C2741 C 0.12164 0.10339 0.62338 0.0
C2742 C 0.13024 0.09276 0.62347 0.0
C2743 C 0.13804 0.08999 0.61256 0.0
C2744 C 0.137 0.09804 0.60151 0.0
C2745 C 0.12844 0.10873 0.60143 0.0
C2746 C 0.10404 0.15145 0.59127 0.0
C2747 C 0.10935 0.14723 0.57937 0.0
C2748 C 0.61304 0.33813 0.43191 0.0
C2749 C 0.6086 0.3253 0.42957 0.0
C2750 C 0.60274 0.32237 0.4175 0.0
C2751 C 0.60135 0.3321 0.40798 0.0
H2752 H 0.58116 0.34215 0.37295 0.0
H2753 H 0.56775 0.34004 0.35326 0.0
H2754 H 0.57884 0.37926 0.34186 0.0
H2755 H 0.59187 0.3815 0.36142 0.0
H2756 H 0.61537 0.39506 0.37376 0.0
H2757 H 0.63022 0.4137 0.37456 0.0
H2758 H 0.64413 0.40126 0.41231 0.0
H2759 H 0.62915 0.38257 0.41164 0.0
H2760 H 0.61545 0.35753 0.42452 0.0
H2761 H 0.61773 0.34066 0.44105 0.0
H2762 H 0.59918 0.31257 0.41547 0.0
H2763 H 0.59685 0.32954 0.39875 0.0
N2764 N 0.597 0.35379 0.38964 0.0
N2765 N 0.60414 0.37406 0.38153 0.0
N2766 N 0.61276 0.36611 0.40108 0.0
C2767 C 0.5964 0.36328 0.38034 0.0
C2768 C 0.61235 0.37558 0.39182 0.0
C2769 C 0.60514 0.35519 0.40009 0.0
C2770 C 0.58768 0.36196 0.36879 0.0
C2771 C 0.58063 0.35036 0.36629 0.0
C2772 C 0.57298 0.34913 0.35499 0.0
C2773 C 0.57217 0.3595 0.34599 0.0
C2774 C 0.57902 0.37116 0.34866 0.0
C2775 C 0.58664 0.37238 0.35988 0.0
C2776 C 0.62107 0.38723 0.39262 0.0
C2777 C 0.62153 0.39627 0.38229 0.0
C2778 C 0.63011 0.40694 0.38269 0.0
C2779 C 0.63841 0.40889 0.39345 0.0
C2780 C 0.63779 0.40004 0.40392 0.0
C2781 C 0.62924 0.3893 0.40349 0.0
C2782 C 0.60599 0.34491 0.41027 0.0
C2783 C 0.61181 0.34779 0.42237 0.0
C2784 C 0.39082 0.84312 0.06337 0.0
C2785 C 0.3967 0.83072 0.0641 0.0
C2786 C 0.40312 0.82708 0.07568 0.0
C2787 C 0.40372 0.83578 0.08627 0.0
H2788 H 0.42274 0.84439 0.12279 0.0
H2789 H 0.43654 0.84209 0.14218 0.0
H2790 H 0.42392 0.88018 0.15552 0.0
H2791 H 0.4105 0.88262 0.13625 0.0
H2792 H 0.38795 0.89776 0.12262 0.0
H2793 H 0.3711 0.91459 0.12353 0.0
H2794 H 0.34985 0.89499 0.09265 0.0
H2795 H 0.36689 0.87848 0.09141 0.0
H2796 H 0.38657 0.86114 0.07291 0.0
H2797 H 0.38563 0.84614 0.05466 0.0
H2798 H 0.40774 0.81757 0.07649 0.0
H2799 H 0.4087 0.83275 0.09508 0.0
N2800 N 0.40634 0.85612 0.10675 0.0
N2801 N 0.39743 0.87487 0.11663 0.0
N2802 N 0.38897 0.86742 0.0968 0.0
C2803 C 0.40627 0.86491 0.11676 0.0
C2804 C 0.38873 0.87617 0.10673 0.0
C2805 C 0.39773 0.85741 0.09667 0.0
C2806 C 0.41541 0.86365 0.12797 0.0
C2807 C 0.42305 0.85233 0.12979 0.0
C2808 C 0.43091 0.85098 0.14093 0.0
C2809 C 0.43136 0.86096 0.15041 0.0
C2810 C 0.42401 0.87239 0.14835 0.0
C2811 C 0.41616 0.87372 0.1373 0.0
C2812 C 0.37877 0.88672 0.10697 0.0
C2813 C 0.37972 0.89708 0.11597 0.0
C2814 C 0.37001 0.90671 0.11654 0.0
C2815 C 0.35905 0.90615 0.10821 0.0
C2816 C 0.35823 0.89589 0.09908 0.0
C2817 C 0.36799 0.88634 0.09843 0.0
C2818 C 0.39771 0.84817 0.08551 0.0
C2819 C 0.39128 0.8517 0.07391 0.0
C2820 C 0.88275 0.33666 0.56977 0.0
C2821 C 0.89257 0.32718 0.56829 0.0
C2822 C 0.9038 0.3279 0.57623 0.0
C2823 C 0.90506 0.33785 0.5856 0.0
H2824 H 0.92422 0.34896 0.62183 0.0
H2825 H 0.9361 0.34626 0.64249 0.0
H2826 H 0.91497 0.37897 0.65874 0.0
H2827 H 0.90327 0.38181 0.63836 0.0
H2828 H 0.88279 0.39682 0.62329 0.0
H2829 H 0.86552 0.41318 0.62282 0.0
H2830 H 0.85492 0.40099 0.58387 0.0
H2831 H 0.87197 0.38437 0.58445 0.0
H2832 H 0.87624 0.35375 0.57973 0.0
H2833 H 0.87408 0.33649 0.56366 0.0
H2834 H 0.91153 0.3207 0.57526 0.0
H2835 H 0.91377 0.33816 0.59164 0.0
N2836 N 0.90449 0.35719 0.60717 0.0
N2837 N 0.89642 0.37718 0.61516 0.0
N2838 N 0.88819 0.3686 0.5957 0.0
C2839 C 0.90461 0.36677 0.61644 0.0
C2840 C 0.88823 0.37822 0.6048 0.0
C2841 C 0.89624 0.35808 0.59675 0.0
C2842 C 0.9127 0.36553 0.62842 0.0
C2843 C 0.92221 0.35565 0.62978 0.0
C2844 C 0.92905 0.35413 0.64155 0.0
C2845 C 0.92633 0.36234 0.6522 0.0
C2846 C 0.91714 0.37242 0.65071 0.0
C2847 C 0.91047 0.37405 0.63898 0.0
C2848 C 0.8787 0.38914 0.60397 0.0
C2849 C 0.87688 0.39769 0.61456 0.0
C2850 C 0.86701 0.40715 0.61426 0.0
C2851 C 0.85875 0.40834 0.60334 0.0
C2852 C 0.86094 0.40017 0.59254 0.0
C2853 C 0.87077 0.39067 0.59285 0.0
C2854 C 0.89521 0.34738 0.587 0.0
C2855 C 0.88407 0.34664 0.57894 0.0
C2856 C 0.38336 0.17169 0.42425 0.0
C2857 C 0.39387 0.17992 0.42768 0.0
C2858 C 0.40589 0.17848 0.42114 0.0
C2859 C 0.40737 0.16887 0.41147 0.0
H2860 H 0.42568 0.15981 0.37406 0.0
H2861 H 0.44128 0.16024 0.35602 0.0
H2862 H 0.43175 0.11996 0.34703 0.0
H2863 H 0.41643 0.11942 0.36504 0.0
H2864 H 0.39152 0.10604 0.37699 0.0
H2865 H 0.37533 0.08844 0.37729 0.0
H2866 H 0.35242 0.11011 0.40531 0.0
H2867 H 0.36869 0.12747 0.40531 0.0
H2868 H 0.37658 0.15577 0.41256 0.0
H2869 H 0.37404 0.17241 0.42922 0.0
H2870 H 0.41414 0.18472 0.42356 0.0
H2871 H 0.41678 0.16785 0.40672 0.0
N2872 N 0.40829 0.14957 0.38988 0.0
N2873 N 0.40085 0.12929 0.38184 0.0
N2874 N 0.38996 0.13931 0.39918 0.0
C2875 C 0.4095 0.13945 0.38129 0.0
C2876 C 0.39106 0.12914 0.39076 0.0
C2877 C 0.3985 0.14953 0.39888 0.0
C2878 C 0.41971 0.13961 0.371 0.0
C2879 C 0.42703 0.151 0.36833 0.0
C2880 C 0.43591 0.15128 0.35794 0.0
C2881 C 0.43776 0.14014 0.35007 0.0
C2882 C 0.43072 0.12866 0.35299 0.0
C2883 C 0.42182 0.1284 0.36329 0.0
C2884 C 0.38143 0.11822 0.39111 0.0
C2885 C 0.38306 0.10703 0.38326 0.0
C2886 C 0.37374 0.09695 0.38339 0.0
C2887 C 0.36255 0.09784 0.39132 0.0
C2888 C 0.36101 0.10897 0.39925 0.0
C2889 C 0.37034 0.119 0.39917 0.0
C2890 C 0.39693 0.16041 0.40834 0.0
C2891 C 0.38488 0.16205 0.41475 0.0
C2892 C 0.60948 0.654 0.06932 0.0
C2893 C 0.60512 0.66699 0.07037 0.0
C2894 C 0.59967 0.67123 0.08222 0.0
C2895 C 0.59855 0.66255 0.09277 0.0
H2896 H 0.57906 0.65512 0.12962 0.0
H2897 H 0.56559 0.65806 0.14913 0.0
H2898 H 0.57651 0.61937 0.16225 0.0
H2899 H 0.58957 0.61632 0.14291 0.0
H2900 H 0.61387 0.60274 0.132 0.0
H2901 H 0.62858 0.58402 0.13205 0.0
H2902 H 0.64124 0.59378 0.09314 0.0
H2903 H 0.62641 0.61248 0.09296 0.0
H2904 H 0.61207 0.63551 0.07859 0.0
H2905 H 0.61389 0.65048 0.06039 0.0
H2906 H 0.59622 0.6812 0.08328 0.0
H2907 H 0.59436 0.66606 0.1018 0.0
N2908 N 0.59455 0.64241 0.11323 0.0
N2909 N 0.6021 0.62294 0.12282 0.0
N2910 N 0.61035 0.6295 0.10266 0.0
C2911 C 0.59421 0.63364 0.12325 0.0
C2912 C 0.6102 0.62079 0.11261 0.0
C2913 C 0.60259 0.64032 0.10285 0.0
C2914 C 0.58549 0.63552 0.13468 0.0
C2915 C 0.57847 0.64721 0.13662 0.0
C2916 C 0.57079 0.64891 0.14782 0.0
C2917 C 0.56991 0.63893 0.15724 0.0
C2918 C 0.57673 0.62718 0.15512 0.0
C2919 C 0.58438 0.6255 0.14402 0.0
C2920 C 0.61895 0.60918 0.11249 0.0
C2921 C 0.61973 0.60091 0.12342 0.0
C2922 C 0.62823 0.5902 0.12349 0.0
C2923 C 0.63611 0.58745 0.11263 0.0
C2924 C 0.63521 0.59558 0.10162 0.0
C2925 C 0.62675 0.60635 0.10156 0.0
C2926 C 0.60308 0.64957 0.09171 0.0
C2927 C 0.60851 0.64543 0.07983 0.0
C2928 C 0.11388 0.84033 0.93267 0.0
C2929 C 0.10947 0.82756 0.92999 0.0
C2930 C 0.10358 0.82496 0.91786 0.0
C2931 C 0.10205 0.83499 0.90866 0.0
H2932 H 0.0877 0.8452 0.86945 0.0
H2933 H 0.07624 0.8444 0.84847 0.0
H2934 H 0.07267 0.88658 0.84899 0.0
H2935 H 0.08438 0.88739 0.86958 0.0
H2936 H 0.11364 0.89988 0.87712 0.0
H2937 H 0.12855 0.91845 0.87795 0.0
H2938 H 0.14434 0.90443 0.9144 0.0
H2939 H 0.1293 0.88576 0.91369 0.0
H2940 H 0.11609 0.85998 0.9259 0.0
H2941 H 0.11861 0.84261 0.94187 0.0
H2942 H 0.10005 0.81521 0.91556 0.0
H2943 H 0.09747 0.8327 0.8994 0.0
N2944 N 0.09704 0.85731 0.89123 0.0
N2945 N 0.10328 0.87827 0.88415 0.0
N2946 N 0.11266 0.86954 0.903 0.0
C2947 C 0.09589 0.86731 0.88254 0.0
C2948 C 0.11173 0.87947 0.89427 0.0
C2949 C 0.10535 0.85844 0.9016 0.0
C2950 C 0.08715 0.86637 0.87104 0.0
C2951 C 0.08427 0.85426 0.86516 0.0
C2952 C 0.07767 0.8538 0.85315 0.0
C2953 C 0.07376 0.86545 0.84692 0.0
C2954 C 0.07586 0.87745 0.85333 0.0
C2955 C 0.08254 0.87791 0.86517 0.0
C2956 C 0.12029 0.89122 0.89531 0.0
C2957 C 0.12021 0.90073 0.88538 0.0
C2958 C 0.12882 0.91136 0.8858 0.0
C2959 C 0.1377 0.91283 0.89617 0.0
C2960 C 0.13756 0.90358 0.9063 0.0
C2961 C 0.12898 0.89285 0.90586 0.0
C2962 C 0.10658 0.84776 0.91133 0.0
C2963 C 0.11251 0.85028 0.92346 0.0
C2964 C 0.93432 0.89245 0.66725 0.0
C2965 C 0.93242 0.89836 0.67945 0.0
C2966 C 0.9207 0.90521 0.68175 0.0
C2967 C 0.91113 0.9062 0.67197 0.0
H2968 H 0.87613 0.92598 0.66021 0.0
H2969 H 0.85761 0.94117 0.6605 0.0
H2970 H 0.84868 0.93109 0.62059 0.0
H2971 H 0.86712 0.91612 0.6202 0.0
H2972 H 0.8804 0.89204 0.60682 0.0
H2973 H 0.88065 0.87542 0.58978 0.0
H2974 H 0.90951 0.85346 0.6115 0.0
H2975 H 0.90961 0.87024 0.62828 0.0
H2976 H 0.9266 0.88854 0.64832 0.0
H2977 H 0.94316 0.88696 0.66523 0.0
H2978 H 0.919 0.90989 0.69107 0.0
H2979 H 0.9022 0.91152 0.67401 0.0
N2980 N 0.89304 0.90966 0.64975 0.0
N2981 N 0.88478 0.90137 0.63 0.0
N2982 N 0.90347 0.89205 0.63934 0.0
C2983 C 0.88397 0.91009 0.64 0.0
C2984 C 0.89446 0.8923 0.62962 0.0
C2985 C 0.9029 0.90068 0.64941 0.0
C2986 C 0.87312 0.91976 0.6402 0.0
C2987 C 0.87028 0.92708 0.65147 0.0
C2988 C 0.85963 0.93573 0.65166 0.0
C2989 C 0.85169 0.93735 0.64056 0.0
C2990 C 0.8547 0.93021 0.62925 0.0
C2991 C 0.86524 0.92152 0.62908 0.0
C2992 C 0.89495 0.88248 0.61896 0.0
C2993 C 0.88686 0.88371 0.60793 0.0
C2994 C 0.88695 0.87413 0.59817 0.0
C2995 C 0.89506 0.86305 0.59926 0.0
C2996 C 0.90329 0.86195 0.6102 0.0
C2997 C 0.90328 0.87156 0.6199 0.0
C2998 C 0.91303 0.90016 0.65979 0.0
C2999 C 0.92475 0.89329 0.65757 0.0
C3000 C 0.83431 0.07272 0.38053 0.0
C3001 C 0.82526 0.06976 0.39038 0.0
C3002 C 0.82598 0.07665 0.40223 0.0
C3003 C 0.83561 0.08629 0.40417 0.0
H3004 H 0.8435 0.12428 0.42241 0.0
H3005 H 0.84243 0.14243 0.43798 0.0
H3006 H 0.88356 0.15033 0.43183 0.0
H3007 H 0.8847 0.13227 0.41649 0.0
H3008 H 0.89581 0.12561 0.38826 0.0
H3009 H 0.91293 0.1271 0.37182 0.0
H3010 H 0.89739 0.09264 0.35276 0.0
H3011 H 0.88036 0.091 0.36924 0.0
H3012 H 0.85083 0.08409 0.37468 0.0
H3013 H 0.83416 0.06746 0.37136 0.0
H3014 H 0.8191 0.07458 0.40999 0.0
H3015 H 0.83598 0.09139 0.41343 0.0
N3016 N 0.85494 0.10774 0.40624 0.0
N3017 N 0.87503 0.11663 0.39939 0.0
N3018 N 0.86581 0.09898 0.38808 0.0
C3019 C 0.86476 0.11668 0.4078 0.0
C3020 C 0.87565 0.10782 0.38952 0.0
C3021 C 0.85545 0.09882 0.39637 0.0
C3022 C 0.86416 0.12686 0.41812 0.0
C3023 C 0.85235 0.12979 0.42451 0.0
C3024 C 0.85171 0.14022 0.43337 0.0
C3025 C 0.8629 0.14783 0.43613 0.0
C3026 C 0.87479 0.14458 0.43006 0.0
C3027 C 0.8754 0.13427 0.42116 0.0
C3028 C 0.88661 0.10824 0.38005 0.0
C3029 C 0.89608 0.11827 0.38064 0.0
C3030 C 0.90587 0.11917 0.37118 0.0
C3031 C 0.90647 0.11003 0.36096 0.0
C3032 C 0.89727 0.09976 0.36059 0.0
C3033 C 0.88744 0.09889 0.37 0.0
C3034 C 0.84481 0.08907 0.39436 0.0
C3035 C 0.84397 0.08221 0.3825 0.0
C3036 C 0.56449 0.10345 0.15931 0.0
C3037 C 0.56679 0.10142 0.17264 0.0
C3038 C 0.57963 0.09879 0.1769 0.0
C3039 C 0.58998 0.0983 0.16794 0.0
H3040 H 0.6267 0.07855 0.15757 0.0
H3041 H 0.64702 0.06599 0.15944 0.0
H3042 H 0.66041 0.08231 0.12301 0.0
H3043 H 0.64024 0.09457 0.12099 0.0
H3044 H 0.62637 0.11838 0.10872 0.0
H3045 H 0.62542 0.13569 0.0925 0.0
H3046 H 0.58528 0.14366 0.10315 0.0
H3047 H 0.58629 0.12654 0.11961 0.0
H3048 H 0.57273 0.10514 0.14027 0.0
H3049 H 0.55473 0.10563 0.15577 0.0
H3050 H 0.58163 0.09718 0.18714 0.0
H3051 H 0.59982 0.09646 0.17146 0.0
N3052 N 0.60972 0.09447 0.14671 0.0
N3053 N 0.61837 0.10404 0.12778 0.0
N3054 N 0.59753 0.11005 0.135 0.0
C3055 C 0.61963 0.09553 0.13788 0.0
C3056 C 0.6074 0.11135 0.12627 0.0
C3057 C 0.59859 0.10168 0.14523 0.0
C3058 C 0.63179 0.08762 0.13914 0.0
C3059 C 0.63395 0.07939 0.14992 0.0
C3060 C 0.64561 0.07223 0.15103 0.0
C3061 C 0.65532 0.07308 0.14134 0.0
C3062 C 0.65307 0.08121 0.13054 0.0
C3063 C 0.64149 0.08837 0.12945 0.0
C3064 C 0.60645 0.12111 0.1156 0.0
C3065 C 0.61729 0.12373 0.10756 0.0
C3066 C 0.61672 0.13362 0.09817 0.0
C3067 C 0.6053 0.14113 0.09656 0.0
C3068 C 0.59431 0.13822 0.10429 0.0
C3069 C 0.59488 0.12834 0.1137 0.0
C3070 C 0.58769 0.10078 0.15466 0.0
C3071 C 0.57482 0.10324 0.15045 0.0
C3072 C 0.66507 0.92971 0.89435 0.0
C3073 C 0.67782 0.92727 0.89889 0.0
C3074 C 0.68048 0.91521 0.90495 0.0
C3075 C 0.67056 0.90579 0.9064 0.0
H3076 H 0.65844 0.87247 0.92898 0.0
H3077 H 0.66014 0.85289 0.94268 0.0
H3078 H 0.62386 0.83828 0.92648 0.0
H3079 H 0.62216 0.85752 0.91282 0.0
H3080 H 0.60729 0.87187 0.89204 0.0
H3081 H 0.58852 0.87302 0.87747 0.0
H3082 H 0.60108 0.91125 0.86443 0.0
H3083 H 0.61989 0.91022 0.87913 0.0
H3084 H 0.64555 0.92252 0.89191 0.0
H3085 H 0.66274 0.93884 0.8895 0.0
H3086 H 0.69021 0.91308 0.90861 0.0
H3087 H 0.67293 0.89656 0.91104 0.0
N3088 N 0.64864 0.88753 0.91056 0.0
N3089 N 0.62828 0.87956 0.90341 0.0
N3090 N 0.63646 0.89919 0.89497 0.0
C3091 C 0.63905 0.87824 0.91109 0.0
C3092 C 0.62687 0.88996 0.89534 0.0
C3093 C 0.64737 0.89807 0.90252 0.0
C3094 C 0.64021 0.86659 0.91971 0.0
C3095 C 0.65083 0.86508 0.92835 0.0
C3096 C 0.65178 0.8539 0.93625 0.0
C3097 C 0.64219 0.84399 0.93558 0.0
C3098 C 0.63153 0.84562 0.92707 0.0
C3099 C 0.63054 0.85674 0.91927 0.0
C3100 C 0.61518 0.89094 0.88675 0.0
C3101 C 0.60608 0.88057 0.88613 0.0
C3102 C 0.59533 0.88118 0.87771 0.0
C3103 C 0.59336 0.89219 0.86974 0.0
C3104 C 0.60229 0.90267 0.87052 0.0
C3105 C 0.61311 0.90204 0.8789 0.0
C3106 C 0.65784 0.90818 0.90165 0.0
C3107 C 0.65523 0.92029 0.89566 0.0
C3108 C 0.85096 0.07535 0.87482 0.0
C3109 C 0.84837 0.06843 0.86325 0.0
C3110 C 0.85757 0.0691 0.85307 0.0
C3111 C 0.86898 0.07668 0.85438 0.0
H3112 H 0.90128 0.09297 0.8337 0.0
H3113 H 0.91762 0.0958 0.81651 0.0
H3114 H 0.94327 0.11545 0.84378 0.0
H3115 H 0.92712 0.11261 0.8609 0.0
H3116 H 0.91497 0.12466 0.88674 0.0
H3117 H 0.91588 0.13928 0.90557 0.0
H3118 H 0.87824 0.12482 0.91833 0.0
H3119 H 0.8772 0.11033 0.89956 0.0
H3120 H 0.86378 0.08818 0.88516 0.0
H3121 H 0.84402 0.07528 0.88278 0.0
H3122 H 0.85593 0.06381 0.84407 0.0
H3123 H 0.87579 0.0771 0.84631 0.0
N3124 N 0.8923 0.09328 0.85772 0.0
N3125 N 0.90408 0.10866 0.87019 0.0
N3126 N 0.88455 0.0998 0.87821 0.0
C3127 C 0.90286 0.10137 0.85914 0.0
C3128 C 0.89495 0.10795 0.87976 0.0
C3129 C 0.88312 0.0924 0.86729 0.0
C3130 C 0.91285 0.10257 0.8487 0.0
C3131 C 0.91044 0.09782 0.83605 0.0
C3132 C 0.91976 0.09951 0.82617 0.0
C3133 C 0.93175 0.10582 0.8288 0.0
C3134 C 0.93421 0.1104 0.84148 0.0
C3135 C 0.92488 0.10884 0.85128 0.0
C3136 C 0.89597 0.11635 0.89155 0.0
C3137 C 0.9069 0.12454 0.89358 0.0
C3138 C 0.90747 0.13288 0.90441 0.0
C3139 C 0.89709 0.13326 0.91338 0.0
C3140 C 0.8863 0.12489 0.91148 0.0
C3141 C 0.88576 0.11652 0.90073 0.0
C3142 C 0.87142 0.08379 0.8659 0.0
C3143 C 0.86231 0.08289 0.87613 0.0
C3144 C 0.63209 0.15716 0.5837 0.0
C3145 C 0.64271 0.15854 0.57517 0.0
C3146 C 0.65095 0.14775 0.57295 0.0
C3147 C 0.64884 0.1359 0.57958 0.0
H3148 H 0.66527 0.09755 0.5895 0.0
H3149 H 0.68215 0.08079 0.59295 0.0
H3150 H 0.66228 0.06809 0.62781 0.0
H3151 H 0.64556 0.08458 0.62445 0.0
H3152 H 0.61518 0.09075 0.62709 0.0
H3153 H 0.59601 0.09017 0.64124 0.0
H3154 H 0.58394 0.12793 0.62661 0.0
H3155 H 0.60308 0.12864 0.61258 0.0
H3156 H 0.62166 0.14483 0.59678 0.0
H3157 H 0.62553 0.16529 0.58547 0.0
H3158 H 0.65922 0.14861 0.56641 0.0
H3159 H 0.65549 0.12781 0.57793 0.0
N3160 N 0.64557 0.11304 0.59699 0.0
N3161 N 0.6323 0.10138 0.61169 0.0
N3162 N 0.62492 0.12115 0.60296 0.0
C3163 C 0.64366 0.10245 0.60486 0.0
C3164 C 0.62286 0.11065 0.61076 0.0
C3165 C 0.63617 0.12247 0.59603 0.0
C3166 C 0.65403 0.09242 0.60667 0.0
C3167 C 0.66454 0.09119 0.59791 0.0
C3168 C 0.67418 0.08159 0.59985 0.0
C3169 C 0.67359 0.07322 0.61071 0.0
C3170 C 0.66312 0.07452 0.61946 0.0
C3171 C 0.65345 0.08393 0.61745 0.0
C3172 C 0.61077 0.10979 0.61874 0.0
C3173 C 0.60841 0.09891 0.62682 0.0
C3174 C 0.59739 0.09853 0.63489 0.0
C3175 C 0.58852 0.10905 0.6351 0.0
C3176 C 0.5907 0.11976 0.6268 0.0
C3177 C 0.60166 0.12012 0.6187 0.0
C3178 C 0.63832 0.13462 0.58835 0.0
C3179 C 0.62988 0.14536 0.59014 0.0
C3180 C 0.57107 0.88091 0.33176 0.0
C3181 C 0.57044 0.89032 0.3218 0.0
C3182 C 0.57964 0.90062 0.32179 0.0
C3183 C 0.5891 0.90159 0.33167 0.0
H3184 H 0.62485 0.91988 0.34233 0.0
H3185 H 0.64317 0.93536 0.34195 0.0
H3186 H 0.65288 0.92498 0.38157 0.0
H3187 H 0.63461 0.90971 0.38206 0.0
H3188 H 0.62279 0.88435 0.39455 0.0
H3189 H 0.62291 0.86747 0.41134 0.0
H3190 H 0.59162 0.84709 0.39139 0.0
H3191 H 0.59154 0.86382 0.37452 0.0
H3192 H 0.58055 0.87443 0.3491 0.0
H3193 H 0.56433 0.87271 0.33194 0.0
H3194 H 0.57936 0.90807 0.31429 0.0
H3195 H 0.59594 0.90972 0.33146 0.0
N3196 N 0.60878 0.9027 0.35243 0.0
N3197 N 0.61696 0.89473 0.37229 0.0
N3198 N 0.59885 0.88462 0.36251 0.0
C3199 C 0.61764 0.90349 0.36234 0.0
C3200 C 0.60761 0.88526 0.37245 0.0
C3201 C 0.59931 0.89328 0.35248 0.0
C3202 C 0.62826 0.91348 0.3622 0.0
C3203 C 0.63082 0.92098 0.351 0.0
C3204 C 0.64136 0.9298 0.35075 0.0
C3205 C 0.64948 0.93139 0.36172 0.0
C3206 C 0.64672 0.92412 0.373 0.0
C3207 C 0.63628 0.91526 0.37324 0.0
C3208 C 0.60722 0.87543 0.3831 0.0
C3209 C 0.61589 0.87632 0.39375 0.0
C3210 C 0.61591 0.86668 0.40343 0.0
C3211 C 0.60732 0.85592 0.40265 0.0
C3212 C 0.59848 0.85517 0.39217 0.0
C3213 C 0.5984 0.86482 0.38252 0.0
C3214 C 0.58956 0.89227 0.34176 0.0
C3215 C 0.58047 0.88188 0.3416 0.0
C3216 C 0.87217 0.8516 0.07829 0.0
C3217 C 0.86166 0.8501 0.06956 0.0
C3218 C 0.85228 0.86013 0.06866 0.0
C3219 C 0.85326 0.87132 0.07657 0.0
H3220 H 0.83114 0.90254 0.09417 0.0
H3221 H 0.81386 0.91896 0.09669 0.0
H3222 H 0.84126 0.94472 0.11614 0.0
H3223 H 0.85846 0.92848 0.11364 0.0
H3224 H 0.88406 0.91598 0.12662 0.0
H3225 H 0.90275 0.91669 0.14153 0.0
H3226 H 0.91526 0.87877 0.12769 0.0
H3227 H 0.89665 0.87793 0.11293 0.0
H3228 H 0.88145 0.86341 0.09272 0.0
H3229 H 0.87968 0.84415 0.07906 0.0
H3230 H 0.84405 0.85921 0.06204 0.0
H3231 H 0.84581 0.87882 0.07577 0.0
N3232 N 0.85537 0.89362 0.09465 0.0
N3233 N 0.86756 0.90521 0.11037 0.0
N3234 N 0.87569 0.88564 0.10179 0.0
C3235 C 0.85666 0.90412 0.10278 0.0
C3236 C 0.87712 0.89599 0.10995 0.0
C3237 C 0.86493 0.88435 0.09408 0.0
C3238 C 0.8462 0.91417 0.10372 0.0
C3239 C 0.8335 0.91174 0.0989 0.0
C3240 C 0.82358 0.9211 0.10041 0.0
C3241 C 0.82622 0.93313 0.10658 0.0
C3242 C 0.83895 0.93561 0.1112 0.0
C3243 C 0.8488 0.92624 0.10984 0.0
C3244 C 0.88876 0.89686 0.1186 0.0
C3245 C 0.89081 0.90781 0.12672 0.0
C3246 C 0.90156 0.90826 0.13522 0.0
C3247 C 0.91041 0.89774 0.13584 0.0
C3248 C 0.90849 0.88694 0.12757 0.0
C3249 C 0.89783 0.88651 0.11904 0.0
C3250 C 0.86373 0.87271 0.08544 0.0
C3251 C 0.8732 0.86273 0.08609 0.0
C3252 C 0.13899 0.65853 0.0876 0.0
C3253 C 0.14689 0.65899 0.07644 0.0
C3254 C 0.15263 0.64734 0.07188 0.0
C3255 C 0.15053 0.63546 0.07845 0.0
H3256 H 0.17103 0.60032 0.09608 0.0
H3257 H 0.1859 0.58149 0.09728 0.0
H3258 H 0.15346 0.55666 0.10831 0.0
H3259 H 0.13871 0.57527 0.10715 0.0
H3260 H 0.11574 0.58935 0.12363 0.0
H3261 H 0.09655 0.5887 0.13774 0.0
H3262 H 0.08844 0.62919 0.12865 0.0
H3263 H 0.10765 0.62996 0.11472 0.0
H3264 H 0.13048 0.64677 0.10253 0.0
H3265 H 0.13433 0.66733 0.09126 0.0
H3266 H 0.15879 0.64744 0.0633 0.0
H3267 H 0.15501 0.62661 0.07472 0.0
N3268 N 0.14766 0.61205 0.09547 0.0
N3269 N 0.13352 0.6 0.10902 0.0
N3270 N 0.1284 0.62161 0.10353 0.0
C3271 C 0.14471 0.60072 0.10187 0.0
C3272 C 0.12531 0.6104 0.10991 0.0
C3273 C 0.13947 0.62254 0.09626 0.0
C3274 C 0.15368 0.58931 0.10155 0.0
C3275 C 0.16707 0.5908 0.09861 0.0
C3276 C 0.1756 0.58006 0.09938 0.0
C3277 C 0.17084 0.56761 0.10285 0.0
C3278 C 0.15741 0.56609 0.10545 0.0
C3279 C 0.14896 0.5768 0.10487 0.0
C3280 C 0.11333 0.60973 0.11807 0.0
C3281 C 0.10986 0.59811 0.1246 0.0
C3282 C 0.09881 0.5977 0.13264 0.0
C3283 C 0.09102 0.60891 0.13437 0.0
C3284 C 0.09436 0.62044 0.12768 0.0
C3285 C 0.10536 0.62085 0.11962 0.0
C3286 C 0.14244 0.63503 0.08952 0.0
C3287 C 0.13673 0.64672 0.09401 0.0
C3288 C 0.06534 0.38993 0.83616 0.0
C3289 C 0.06819 0.39507 0.8238 0.0
C3290 C 0.08034 0.40127 0.82179 0.0
C3291 C 0.08945 0.4023 0.83198 0.0
H3292 H 0.12272 0.4235 0.84534 0.0
H3293 H 0.14262 0.43679 0.84423 0.0
H3294 H 0.15506 0.42136 0.88142 0.0
H3295 H 0.13519 0.40844 0.88273 0.0
H3296 H 0.1163 0.38978 0.89884 0.0
H3297 H 0.11577 0.37326 0.9159 0.0
H3298 H 0.0894 0.34972 0.89253 0.0
H3299 H 0.08951 0.36649 0.87574 0.0
H3300 H 0.07194 0.38662 0.85561 0.0
H3301 H 0.05613 0.38497 0.83796 0.0
H3302 H 0.08276 0.40536 0.81237 0.0
H3303 H 0.09876 0.40707 0.83014 0.0
N3304 N 0.10678 0.4058 0.85467 0.0
N3305 N 0.11424 0.3976 0.8747 0.0
N3306 N 0.09517 0.38902 0.86526 0.0
C3307 C 0.11572 0.406 0.86454 0.0
C3308 C 0.10403 0.38907 0.87513 0.0
C3309 C 0.09642 0.39737 0.85503 0.0
C3310 C 0.12734 0.4148 0.86408 0.0
C3311 C 0.12964 0.42305 0.85335 0.0
C3312 C 0.14108 0.43064 0.85268 0.0
C3313 C 0.15048 0.43015 0.86273 0.0
C3314 C 0.14797 0.42218 0.8736 0.0
C3315 C 0.13657 0.41464 0.87428 0.0
C3316 C 0.10301 0.37943 0.88588 0.0
C3317 C 0.1103 0.38113 0.89739 0.0
C3318 C 0.11005 0.3716 0.90716 0.0
C3319 C 0.10264 0.36005 0.90559 0.0
C3320 C 0.09509 0.35853 0.8942 0.0
C3321 C 0.09521 0.36814 0.8845 0.0
C3322 C 0.08666 0.39695 0.8443 0.0
C3323 C 0.07447 0.39081 0.84626 0.0
C3324 C 0.37377 0.35216 0.57983 0.0
C3325 C 0.36272 0.34998 0.57194 0.0
C3326 C 0.35267 0.35939 0.57184 0.0
C3327 C 0.35354 0.3706 0.57973 0.0
H3328 H 0.33185 0.40248 0.59572 0.0
H3329 H 0.31453 0.4189 0.5978 0.0
H3330 H 0.34119 0.44431 0.61865 0.0
H3331 H 0.35845 0.42809 0.61657 0.0
H3332 H 0.38413 0.41586 0.62938 0.0
H3333 H 0.40269 0.41666 0.64446 0.0
H3334 H 0.41554 0.37884 0.63068 0.0
H3335 H 0.39707 0.37791 0.61575 0.0
H3336 H 0.38335 0.36451 0.59361 0.0
H3337 H 0.3818 0.34524 0.57995 0.0
H3338 H 0.34401 0.35795 0.56589 0.0
H3339 H 0.34556 0.37758 0.57957 0.0
N3340 N 0.35593 0.39343 0.59704 0.0
N3341 N 0.36787 0.40504 0.61294 0.0
N3342 N 0.37621 0.38555 0.60437 0.0
C3343 C 0.35706 0.40391 0.60521 0.0
C3344 C 0.37748 0.39588 0.61259 0.0
C3345 C 0.36556 0.38422 0.59654 0.0
C3346 C 0.34657 0.41394 0.60599 0.0
C3347 C 0.33404 0.41161 0.60068 0.0
C3348 C 0.32409 0.42096 0.60193 0.0
C3349 C 0.32651 0.4329 0.60836 0.0
C3350 C 0.33906 0.43528 0.6135 0.0
C3351 C 0.34894 0.42591 0.61238 0.0
C3352 C 0.38902 0.39679 0.62137 0.0
C3353 C 0.39093 0.40773 0.62953 0.0
C3354 C 0.40159 0.40823 0.63813 0.0
C3355 C 0.41051 0.39777 0.63882 0.0
C3356 C 0.40872 0.38696 0.63052 0.0
C3357 C 0.39815 0.38648 0.62189 0.0
C3358 C 0.36453 0.37263 0.5878 0.0
C3359 C 0.37467 0.3633 0.58764 0.0
C3360 C 0.07389 0.61945 0.6672 0.0
C3361 C 0.07117 0.60927 0.67597 0.0
C3362 C 0.07793 0.59734 0.67469 0.0
C3363 C 0.08728 0.59568 0.66482 0.0
H3364 H 0.12474 0.57776 0.65572 0.0
H3365 H 0.14444 0.5643 0.6574 0.0
H3366 H 0.15633 0.57702 0.61907 0.0
H3367 H 0.13666 0.59007 0.61722 0.0
H3368 H 0.12556 0.6163 0.60586 0.0
H3369 H 0.12543 0.63353 0.58947 0.0
H3370 H 0.08701 0.64562 0.60233 0.0
H3371 H 0.08727 0.62866 0.61893 0.0
H3372 H 0.08474 0.62582 0.65066 0.0
H3373 H 0.06871 0.62868 0.6678 0.0
H3374 H 0.07601 0.58932 0.68134 0.0
H3375 H 0.09232 0.58638 0.664 0.0
N3376 N 0.10898 0.59517 0.64553 0.0
N3377 N 0.11685 0.60263 0.62534 0.0
N3378 N 0.0984 0.61238 0.63462 0.0
C3379 C 0.11786 0.59432 0.63565 0.0
C3380 C 0.10712 0.61163 0.62472 0.0
C3381 C 0.09921 0.60423 0.64504 0.0
C3382 C 0.12912 0.58513 0.63638 0.0
C3383 C 0.13147 0.57754 0.64758 0.0
C3384 C 0.14281 0.56987 0.64857 0.0
C3385 C 0.15203 0.5696 0.6384 0.0
C3386 C 0.1494 0.57681 0.62704 0.0
C3387 C 0.13811 0.58443 0.62603 0.0
C3388 C 0.1065 0.62117 0.61385 0.0
C3389 C 0.11702 0.62254 0.60512 0.0
C3390 C 0.11692 0.63239 0.59566 0.0
C3391 C 0.10626 0.64105 0.59466 0.0
C3392 C 0.0955 0.6393 0.60301 0.0
C3393 C 0.09563 0.62952 0.61251 0.0
C3394 C 0.08979 0.60583 0.6559 0.0
C3395 C 0.08302 0.61774 0.65727 0.0
C3396 C 0.43339 0.39484 0.1663 0.0
C3397 C 0.43116 0.39987 0.17883 0.0
C3398 C 0.41925 0.40628 0.18139 0.0
C3399 C 0.40977 0.40762 0.17157 0.0
H3400 H 0.37554 0.42885 0.15977 0.0
H3401 H 0.35717 0.44422 0.16021 0.0
H3402 H 0.347 0.43322 0.12083 0.0
H3403 H 0.36527 0.41809 0.12028 0.0
H3404 H 0.37523 0.39144 0.10929 0.0
H3405 H 0.37477 0.3743 0.09278 0.0
H3406 H 0.41069 0.35827 0.1083 0.0
H3407 H 0.41131 0.37549 0.12472 0.0
H3408 H 0.42594 0.39189 0.14708 0.0
H3409 H 0.4424 0.38973 0.16407 0.0
H3410 H 0.4173 0.41028 0.19097 0.0
H3411 H 0.40065 0.41253 0.17383 0.0
N3412 N 0.39193 0.41199 0.14928 0.0
N3413 N 0.38335 0.40374 0.12967 0.0
N3414 N 0.40225 0.39445 0.13863 0.0
C3415 C 0.38271 0.41245 0.13967 0.0
C3416 C 0.39305 0.39469 0.12908 0.0
C3417 C 0.40179 0.40304 0.14875 0.0
C3418 C 0.3719 0.42217 0.14001 0.0
C3419 C 0.36944 0.42978 0.15117 0.0
C3420 C 0.35888 0.43855 0.15146 0.0
C3421 C 0.35065 0.43997 0.14054 0.0
C3422 C 0.35325 0.43252 0.12934 0.0
C3423 C 0.3637 0.42373 0.12908 0.0
C3424 C 0.39326 0.38482 0.11844 0.0
C3425 C 0.38311 0.38434 0.10915 0.0
C3426 C 0.3828 0.37448 0.0997 0.0
C3427 C 0.39264 0.36488 0.09928 0.0
C3428 C 0.40301 0.36559 0.10829 0.0
C3429 C 0.40331 0.37543 0.11777 0.0
C3430 C 0.41195 0.40236 0.15909 0.0
C3431 C 0.42389 0.39601 0.15658 0.0
C3432 C 0.68119 0.3978 0.12393 0.0
C3433 C 0.68829 0.40056 0.11255 0.0
C3434 C 0.68641 0.39253 0.10155 0.0
C3435 C 0.67751 0.38205 0.10191 0.0
H3436 H 0.66034 0.35106 0.07959 0.0
H3437 H 0.65782 0.33468 0.06229 0.0
H3438 H 0.6352 0.31032 0.08827 0.0
H3439 H 0.63764 0.32654 0.10546 0.0
H3440 H 0.6222 0.34136 0.12824 0.0
H3441 H 0.60504 0.34247 0.14467 0.0
H3442 H 0.62285 0.37737 0.16074 0.0
H3443 H 0.63992 0.37643 0.14425 0.0
H3444 H 0.66687 0.38575 0.13319 0.0
H3445 H 0.68226 0.40389 0.13251 0.0
H3446 H 0.6918 0.39436 0.09266 0.0
H3447 H 0.67619 0.37614 0.09324 0.0
N3448 N 0.65943 0.35976 0.10392 0.0
N3449 N 0.64165 0.34978 0.11452 0.0
N3450 N 0.65158 0.36834 0.12362 0.0
C3451 C 0.65019 0.35012 0.10438 0.0
C3452 C 0.64224 0.35887 0.12416 0.0
C3453 C 0.66023 0.36886 0.1136 0.0
C3454 C 0.64918 0.34013 0.09392 0.0
C3455 C 0.6549 0.34217 0.08162 0.0
C3456 C 0.6534 0.33284 0.07169 0.0
C3457 C 0.64635 0.32121 0.07395 0.0
C3458 C 0.64081 0.31912 0.08628 0.0
C3459 C 0.64214 0.32848 0.09612 0.0
C3460 C 0.63241 0.35888 0.13481 0.0
C3461 C 0.62254 0.34923 0.13532 0.0
C3462 C 0.61273 0.34981 0.1448 0.0
C3463 C 0.61254 0.36006 0.15395 0.0
C3464 C 0.62262 0.36946 0.1537 0.0
C3465 C 0.63245 0.36887 0.14426 0.0
C3466 C 0.67021 0.37948 0.11324 0.0
C3467 C 0.67225 0.38743 0.12426 0.0
C3468 C 0.82742 0.60237 0.62176 0.0
C3469 C 0.82045 0.60008 0.61016 0.0
C3470 C 0.8215 0.60928 0.6 0.0
C3471 C 0.82954 0.62036 0.60134 0.0
H3472 H 0.84667 0.65223 0.58081 0.0
H3473 H 0.85102 0.668 0.56342 0.0
H3474 H 0.87331 0.69184 0.59035 0.0
H3475 H 0.86929 0.67608 0.60752 0.0
H3476 H 0.87967 0.66393 0.63362 0.0
H3477 H 0.89438 0.66421 0.6524 0.0
H3478 H 0.87881 0.62692 0.66491 0.0
H3479 H 0.86421 0.62651 0.64616 0.0
H3480 H 0.84076 0.61463 0.63215 0.0
H3481 H 0.82707 0.59541 0.62971 0.0
H3482 H 0.81617 0.60786 0.59097 0.0
H3483 H 0.83027 0.62715 0.59327 0.0
N3484 N 0.84725 0.64283 0.60466 0.0
N3485 N 0.86336 0.6537 0.61703 0.0
N3486 N 0.85349 0.63469 0.62511 0.0
C3487 C 0.85593 0.65291 0.60603 0.0
C3488 C 0.86222 0.64462 0.6266 0.0
C3489 C 0.84593 0.6337 0.61424 0.0
C3490 C 0.85773 0.66279 0.59556 0.0
C3491 C 0.85246 0.66087 0.58302 0.0
C3492 C 0.85492 0.66993 0.57306 0.0
C3493 C 0.86267 0.68111 0.57543 0.0
C3494 C 0.86759 0.68318 0.58807 0.0
C3495 C 0.8652 0.67414 0.59797 0.0
C3496 C 0.87077 0.64517 0.63831 0.0
C3497 C 0.87934 0.6558 0.64038 0.0
C3498 C 0.88773 0.65601 0.65118 0.0
C3499 C 0.8878 0.64555 0.66008 0.0
C3500 C 0.87912 0.63503 0.65811 0.0
C3501 C 0.87068 0.63485 0.64739 0.0
C3502 C 0.83674 0.62246 0.61287 0.0
C3503 C 0.83542 0.61339 0.6231 0.0
C3504 C 0.6813 0.41777 0.64221 0.0
C3505 C 0.67905 0.43016 0.64772 0.0
C3506 C 0.66726 0.43237 0.65442 0.0
C3507 C 0.65791 0.42235 0.65559 0.0
H3508 H 0.62403 0.41002 0.67644 0.0
H3509 H 0.6057 0.41027 0.69176 0.0
H3510 H 0.59529 0.3709 0.68012 0.0
H3511 H 0.61354 0.37053 0.66504 0.0
H3512 H 0.62396 0.35949 0.63885 0.0
H3513 H 0.62359 0.34297 0.62173 0.0
H3514 H 0.65915 0.35918 0.60558 0.0
H3515 H 0.65968 0.37562 0.62279 0.0
H3516 H 0.674 0.39846 0.63875 0.0
H3517 H 0.69023 0.41581 0.63686 0.0
H3518 H 0.6653 0.44183 0.6588 0.0
H3519 H 0.64889 0.42435 0.66075 0.0
N3520 N 0.64023 0.39982 0.6594 0.0
N3521 N 0.63182 0.38007 0.65106 0.0
N3522 N 0.65063 0.38934 0.64187 0.0
C3523 C 0.6311 0.39007 0.65979 0.0
C3524 C 0.64152 0.37963 0.64205 0.0
C3525 C 0.65008 0.39945 0.65048 0.0
C3526 C 0.62028 0.39027 0.66945 0.0
C3527 C 0.61788 0.40139 0.67721 0.0
C3528 C 0.60734 0.40156 0.68595 0.0
C3529 C 0.59906 0.39059 0.68719 0.0
C3530 C 0.60159 0.37945 0.67956 0.0
C3531 C 0.61202 0.37929 0.67081 0.0
C3532 C 0.6418 0.369 0.63217 0.0
C3533 C 0.63178 0.3595 0.63173 0.0
C3534 C 0.63152 0.35005 0.62187 0.0
C3535 C 0.64128 0.34982 0.61224 0.0
C3536 C 0.65153 0.35902 0.61292 0.0
C3537 C 0.65178 0.36851 0.62275 0.0
C3538 C 0.66011 0.41 0.64988 0.0
C3539 C 0.67193 0.40784 0.64323 0.0
C3540 C 0.33722 0.56516 0.89177 0.0
C3541 C 0.32481 0.56751 0.89718 0.0
C3542 C 0.32264 0.57936 0.90382 0.0
C3543 C 0.33269 0.58869 0.90497 0.0
H3544 H 0.34508 0.62292 0.92564 0.0
H3545 H 0.34419 0.64262 0.93929 0.0
H3546 H 0.38262 0.65394 0.92578 0.0
H3547 H 0.38353 0.63458 0.91217 0.0
H3548 H 0.39558 0.62232 0.88824 0.0
H3549 H 0.41184 0.62292 0.87098 0.0
H3550 H 0.39533 0.58767 0.85432 0.0
H3551 H 0.37909 0.5869 0.8717 0.0
H3552 H 0.35655 0.57238 0.88834 0.0
H3553 H 0.33915 0.55619 0.88647 0.0
H3554 H 0.31318 0.5814 0.90814 0.0
H3555 H 0.33069 0.59778 0.91005 0.0
N3556 N 0.35506 0.60662 0.90841 0.0
N3557 N 0.37473 0.61492 0.89992 0.0
N3558 N 0.36569 0.59575 0.89123 0.0
C3559 C 0.36473 0.61586 0.90858 0.0
C3560 C 0.37531 0.60495 0.89122 0.0
C3561 C 0.35555 0.59647 0.89979 0.0
C3562 C 0.3643 0.6272 0.91766 0.0
C3563 C 0.35337 0.62958 0.92565 0.0
C3564 C 0.35287 0.64083 0.93351 0.0
C3565 C 0.36326 0.64991 0.93346 0.0
C3566 C 0.37433 0.64728 0.92582 0.0
C3567 C 0.37485 0.6361 0.91803 0.0
C3568 C 0.3859 0.60463 0.88133 0.0
C3569 C 0.39544 0.61461 0.88099 0.0
C3570 C 0.40474 0.615 0.87105 0.0
C3571 C 0.40479 0.60542 0.86122 0.0
C3572 C 0.3956 0.59515 0.86181 0.0
C3573 C 0.38624 0.59476 0.87174 0.0
C3574 C 0.34503 0.58642 0.89933 0.0
C3575 C 0.34717 0.57451 0.89277 0.0
C3576 C 0.15735 0.43332 0.39549 0.0
C3577 C 0.17052 0.43208 0.39929 0.0
C3578 C 0.17487 0.41998 0.40421 0.0
C3579 C 0.16617 0.40936 0.4053 0.0
H3580 H 0.15557 0.375 0.42904 0.0
H3581 H 0.15827 0.35569 0.44297 0.0
H3582 H 0.12648 0.33647 0.42268 0.0
H3583 H 0.12386 0.35543 0.40879 0.0
H3584 H 0.10667 0.36962 0.38939 0.0
H3585 H 0.08783 0.36971 0.37484 0.0
H3586 H 0.09702 0.40937 0.36333 0.0
H3587 H 0.11583 0.40941 0.37802 0.0
H3588 H 0.13871 0.42408 0.39324 0.0
H3589 H 0.15373 0.44245 0.39149 0.0
H3590 H 0.18497 0.41877 0.40724 0.0
H3591 H 0.1698 0.40012 0.40903 0.0
N3592 N 0.14606 0.38871 0.40929 0.0
N3593 N 0.12679 0.37887 0.40138 0.0
N3594 N 0.13303 0.39952 0.39376 0.0
C3595 C 0.13748 0.37845 0.40929 0.0
C3596 C 0.12447 0.38933 0.3936 0.0
C3597 C 0.14384 0.39931 0.40152 0.0
C3598 C 0.13952 0.36681 0.41774 0.0
C3599 C 0.14921 0.36663 0.42752 0.0
C3600 C 0.15071 0.35561 0.43556 0.0
C3601 C 0.14265 0.34452 0.43387 0.0
C3602 C 0.133 0.34475 0.4241 0.0
C3603 C 0.13145 0.35571 0.41617 0.0
C3604 C 0.11283 0.3895 0.38489 0.0
C3605 C 0.10469 0.3784 0.38381 0.0
C3606 C 0.09391 0.37841 0.3754 0.0
C3607 C 0.09096 0.38953 0.3679 0.0
C3608 C 0.09897 0.40069 0.36907 0.0
C3609 C 0.10981 0.40067 0.37744 0.0
C3610 C 0.15304 0.41059 0.40126 0.0
C3611 C 0.14876 0.42273 0.39641 0.0
C3612 C 0.35013 0.57477 0.37397 0.0
C3613 C 0.3485 0.56655 0.36312 0.0
C3614 C 0.35841 0.56618 0.35362 0.0
C3615 C 0.36959 0.57415 0.35484 0.0
H3616 H 0.40122 0.59193 0.33359 0.0
H3617 H 0.41702 0.59625 0.31622 0.0
H3618 H 0.44151 0.61742 0.34346 0.0
H3619 H 0.42575 0.61342 0.36062 0.0
H3620 H 0.4139 0.62399 0.38677 0.0
H3621 H 0.41453 0.63855 0.40565 0.0
H3622 H 0.37695 0.62366 0.41811 0.0
H3623 H 0.37619 0.60922 0.39927 0.0
H3624 H 0.36201 0.58887 0.38373 0.0
H3625 H 0.34278 0.57512 0.38156 0.0
H3626 H 0.35739 0.55995 0.34513 0.0
H3627 H 0.37697 0.57379 0.34729 0.0
N3628 N 0.39183 0.59243 0.3575 0.0
N3629 N 0.40324 0.60803 0.37005 0.0
N3630 N 0.38391 0.59873 0.378 0.0
C3631 C 0.4022 0.60077 0.35897 0.0
C3632 C 0.39413 0.60709 0.37961 0.0
C3633 C 0.38265 0.59134 0.36706 0.0
C3634 C 0.41211 0.60244 0.3485 0.0
C3635 C 0.41001 0.59745 0.33588 0.0
C3636 C 0.41908 0.5999 0.32592 0.0
C3637 C 0.43045 0.60735 0.32839 0.0
C3638 C 0.43271 0.61194 0.34111 0.0
C3639 C 0.42366 0.60956 0.351 0.0
C3640 C 0.39496 0.61546 0.39142 0.0
C3641 C 0.40579 0.62377 0.39355 0.0
C3642 C 0.40619 0.63207 0.40441 0.0
C3643 C 0.39575 0.6323 0.41332 0.0
C3644 C 0.38506 0.62384 0.41131 0.0
C3645 C 0.38468 0.6155 0.40053 0.0
C3646 C 0.37109 0.58254 0.36564 0.0
C3647 C 0.36125 0.58263 0.37523 0.0
C3648 C 0.19037 0.409 0.13272 0.0
C3649 C 0.19815 0.41162 0.14374 0.0
H3650 H 0.17423 0.39822 0.12473 0.0
C3651 C 0.19551 0.40491 0.15539 0.0
H3652 H 0.19225 0.41393 0.12357 0.0
C3653 C 0.1852 0.39586 0.15604 0.0
C3654 C 0.17741 0.39327 0.14503 0.0
H3655 H 0.20128 0.40679 0.16406 0.0
H3656 H 0.18339 0.39083 0.16515 0.0
C3657 C 0.18014 0.39991 0.13335 0.0
C3658 C 0.81677 0.9127 0.36735 0.0
C3659 C 0.80772 0.91252 0.35701 0.0
H3660 H 0.83438 0.90474 0.3754 0.0
C3661 C 0.80978 0.90384 0.34657 0.0
H3662 H 0.8154 0.91917 0.3756 0.0
C3663 C 0.82064 0.89549 0.3465 0.0
C3664 C 0.8296 0.89558 0.35692 0.0
H3665 H 0.80303 0.90355 0.33842 0.0
H3666 H 0.82189 0.88881 0.3384 0.0
C3667 C 0.82757 0.90432 0.3673 0.0
C3668 C 0.32671 0.58509 0.65428 0.0
C3669 C 0.32118 0.58146 0.64226 0.0
H3670 H 0.33964 0.59809 0.66447 0.0
C3671 C 0.32452 0.58862 0.63107 0.0
H3672 H 0.32418 0.57984 0.66309 0.0
C3673 C 0.3335 0.59896 0.63181 0.0
C3674 C 0.33926 0.60246 0.64379 0.0
H3675 H 0.32055 0.58593 0.62164 0.0
H3676 H 0.33623 0.60392 0.6229 0.0
C3677 C 0.3356 0.59552 0.65505 0.0
C3678 C 0.67389 0.07999 0.87428 0.0
C3679 C 0.68153 0.07579 0.86371 0.0
H3680 H 0.66 0.09384 0.88147 0.0
C3681 C 0.68127 0.08308 0.8521 0.0
H3682 H 0.674 0.07468 0.88341 0.0
C3683 C 0.67328 0.09416 0.85101 0.0
C3684 C 0.6655 0.09823 0.86154 0.0
H3685 H 0.687 0.08004 0.84377 0.0
H3686 H 0.67318 0.09954 0.84192 0.0
C3687 C 0.66598 0.09107 0.87322 0.0
C3688 C 0.18499 0.58624 0.36781 0.0
C3689 C 0.19379 0.58581 0.3573 0.0
H3690 H 0.16777 0.59491 0.37592 0.0
C3691 C 0.19174 0.59423 0.34666 0.0
H3692 H 0.18637 0.57998 0.37621 0.0
C3693 C 0.18111 0.60287 0.34653 0.0
C3694 C 0.17236 0.60333 0.35708 0.0
H3695 H 0.19829 0.59406 0.33837 0.0
H3696 H 0.17985 0.60931 0.33825 0.0
C3697 C 0.17442 0.5949 0.3677 0.0
C3698 C 0.69237 0.90802 0.65291 0.0
C3699 C 0.69427 0.91638 0.6422 0.0
H3700 H 0.68043 0.89316 0.66167 0.0
C3701 C 0.68511 0.91613 0.63196 0.0
H3702 H 0.6992 0.90807 0.661 0.0
C3703 C 0.67434 0.90767 0.63238 0.0
C3704 C 0.67246 0.89927 0.64306 0.0
H3705 H 0.68636 0.92236 0.62351 0.0
H3706 H 0.66743 0.90776 0.62435 0.0
C3707 C 0.68156 0.89958 0.65335 0.0
C3708 C 0.32202 0.4125 0.87051 0.0
C3709 C 0.31829 0.41942 0.8593 0.0
H3710 H 0.33373 0.39725 0.87861 0.0
C3711 C 0.32319 0.41541 0.84716 0.0
H3712 H 0.31855 0.4155 0.88003 0.0
C3713 C 0.33176 0.40477 0.84628 0.0
C3714 C 0.33575 0.39801 0.85756 0.0
H3715 H 0.32037 0.42051 0.83834 0.0
H3716 H 0.33527 0.40187 0.83676 0.0
C3717 C 0.33069 0.40198 0.86967 0.0
C3718 C 0.82943 0.08661 0.12875 0.0
C3719 C 0.82328 0.08137 0.13982 0.0
H3720 H 0.84265 0.10095 0.12114 0.0
C3721 C 0.82546 0.08735 0.15198 0.0
H3722 H 0.82782 0.08231 0.11922 0.0
C3723 C 0.83393 0.09811 0.15308 0.0
C3724 C 0.84029 0.10317 0.14202 0.0
H3725 H 0.82091 0.08348 0.16069 0.0
H3726 H 0.83555 0.10243 0.16259 0.0
C3727 C 0.83781 0.09739 0.12983 0.0
C3728 C 0.14488 0.19367 0.40235 0.0
C3729 C 0.14838 0.19189 0.41548 0.0
H3730 H 0.14226 0.18483 0.38361 0.0
C3731 C 0.15218 0.17934 0.41967 0.0
H3732 H 0.14178 0.20317 0.39882 0.0
C3733 C 0.15229 0.16879 0.41098 0.0
C3734 C 0.14862 0.17053 0.39789 0.0
H3735 H 0.15508 0.17766 0.42968 0.0
H3736 H 0.15501 0.1592 0.4146 0.0
C3737 C 0.14501 0.18312 0.39366 0.0
C3738 C 0.07735 0.85025 0.66604 0.0
C3739 C 0.07854 0.85606 0.67841 0.0
H3740 H 0.08675 0.84532 0.64812 0.0
C3741 C 0.09091 0.86062 0.68246 0.0
H3742 H 0.06802 0.84646 0.66267 0.0
C3743 C 0.10174 0.85977 0.67418 0.0
C3744 C 0.10045 0.85435 0.66163 0.0
H3745 H 0.09216 0.86523 0.69189 0.0
H3746 H 0.1111 0.86348 0.67756 0.0
C3747 C 0.08816 0.84944 0.65774 0.0
C3748 C 0.35819 0.81786 0.91462 0.0
C3749 C 0.36259 0.80561 0.91016 0.0
H3750 H 0.35468 0.83801 0.91012 0.0
C3751 C 0.36664 0.80441 0.89714 0.0
H3752 H 0.35485 0.8191 0.92455 0.0
C3753 C 0.36638 0.81523 0.8888 0.0
C3754 C 0.36206 0.82751 0.89329 0.0
H3755 H 0.3702 0.79515 0.89342 0.0
H3756 H 0.36949 0.81396 0.8788 0.0
C3757 C 0.35794 0.82868 0.9063 0.0
C3758 C 0.4125 0.13639 0.18646 0.0
C3759 C 0.41428 0.14761 0.19421 0.0
H3760 H 0.40265 0.12771 0.17018 0.0
C3761 C 0.40715 0.159 0.19123 0.0
H3762 H 0.41775 0.12743 0.18858 0.0
C3763 C 0.39844 0.15915 0.18067 0.0
C3764 C 0.3966 0.14787 0.173 0.0
H3765 H 0.40839 0.16782 0.19699 0.0
H3766 H 0.39301 0.16802 0.17863 0.0
C3767 C 0.40375 0.13651 0.176 0.0
C3768 C 0.12607 0.82848 0.08507 0.0
C3769 C 0.13726 0.82227 0.08006 0.0
H3770 H 0.11823 0.8415 0.09939 0.0
C3771 C 0.14933 0.82405 0.08645 0.0
H3772 H 0.1166 0.82717 0.08045 0.0
C3773 C 0.15026 0.83222 0.09737 0.0
C3774 C 0.13912 0.83869 0.10218 0.0
H3775 H 0.15814 0.81945 0.08278 0.0
H3776 H 0.15973 0.83355 0.10199 0.0
C3777 C 0.12698 0.83657 0.09601 0.0
C3778 C 0.4179 0.84788 0.32249 0.0
C3779 C 0.42175 0.86028 0.31793 0.0
H3780 H 0.4047 0.83693 0.33447 0.0
C3781 C 0.41487 0.87139 0.32216 0.0
H3782 H 0.42293 0.83913 0.31926 0.0
C3783 C 0.40455 0.87018 0.33099 0.0
C3784 C 0.40077 0.8578 0.33572 0.0
H3785 H 0.41774 0.8811 0.31896 0.0
H3786 H 0.39979 0.87901 0.33439 0.0
C3787 C 0.40748 0.84664 0.33123 0.0
C3788 C 0.37516 0.18567 0.5893 0.0
C3789 C 0.36369 0.19292 0.587 0.0
H3790 H 0.384 0.16956 0.59935 0.0
C3791 C 0.35204 0.18916 0.59328 0.0
H3792 H 0.3843 0.1884 0.58469 0.0
C3793 C 0.35188 0.17841 0.6017 0.0
C3794 C 0.36337 0.17123 0.60409 0.0
H3795 H 0.34302 0.19449 0.59161 0.0
H3796 H 0.34278 0.17582 0.60649 0.0
C3797 C 0.37501 0.17498 0.59779 0.0
C3798 C 0.08812 0.12944 0.82591 0.0
C3799 C 0.08111 0.14079 0.82254 0.0
H3800 H 0.10348 0.12111 0.83739 0.0
C3801 C 0.0851 0.15289 0.82776 0.0
H3802 H 0.08517 0.11995 0.82217 0.0
C3803 C 0.0957 0.1536 0.83638 0.0
C3804 C 0.10247 0.1422 0.8401 0.0
H3805 H 0.07999 0.16182 0.82519 0.0
H3806 H 0.09853 0.1631 0.84019 0.0
C3807 C 0.09864 0.13013 0.83462 0.0
C3808 C 0.91352 0.36798 0.82052 0.0
C3809 C 0.92095 0.35693 0.81712 0.0
H3810 H 0.89781 0.37566 0.83189 0.0
C3811 C 0.9174 0.34465 0.82221 0.0
H3812 H 0.91614 0.3776 0.81689 0.0
C3813 C 0.90676 0.34349 0.83069 0.0
C3814 C 0.89952 0.3546 0.83439 0.0
H3815 H 0.92287 0.33595 0.81962 0.0
H3816 H 0.90425 0.33387 0.83437 0.0
C3817 C 0.90298 0.36685 0.8291 0.0
C3818 C 0.87401 0.68927 0.093 0.0
C3819 C 0.86271 0.69686 0.09102 0.0
H3820 H 0.88263 0.67287 0.10276 0.0
C3821 C 0.8512 0.69361 0.09781 0.0
H3822 H 0.88305 0.6916 0.088 0.0
C3823 C 0.85098 0.68292 0.10631 0.0
C3824 C 0.86227 0.67529 0.10825 0.0
H3825 H 0.84231 0.69922 0.09641 0.0
H3826 H 0.84198 0.68066 0.11142 0.0
C3827 C 0.8738 0.67862 0.10155 0.0
C3828 C 0.57673 0.64418 0.33912 0.0
C3829 C 0.57883 0.64235 0.3257 0.0
H3830 H 0.58531 0.64605 0.35806 0.0
C3831 C 0.59179 0.64134 0.32115 0.0
H3832 H 0.5669 0.64471 0.34303 0.0
C3833 C 0.60237 0.64199 0.32983 0.0
C3834 C 0.60022 0.64375 0.34323 0.0
H3835 H 0.59378 0.64012 0.31087 0.0
H3836 H 0.61224 0.64121 0.32604 0.0
C3837 C 0.58729 0.64491 0.34776 0.0
C3838 C 0.85133 0.3092 0.40582 0.0
C3839 C 0.86298 0.30585 0.41235 0.0
H3840 H 0.84185 0.32237 0.39258 0.0
C3841 C 0.87422 0.31358 0.41039 0.0
H3842 H 0.84248 0.3035 0.40722 0.0
C3843 C 0.87385 0.32438 0.40205 0.0
C3844 C 0.86221 0.32775 0.39553 0.0
H3845 H 0.88337 0.31118 0.4152 0.0
H3846 H 0.88267 0.33017 0.40079 0.0
C3847 C 0.85094 0.32007 0.39754 0.0
C3848 C 0.63425 0.68169 0.91493 0.0
C3849 C 0.64554 0.68943 0.9166 0.0
H3850 H 0.62535 0.66541 0.90515 0.0
C3851 C 0.65682 0.68641 0.90935 0.0
H3852 H 0.62537 0.68384 0.92027 0.0
C3853 C 0.65679 0.67586 0.90063 0.0
C3854 C 0.64546 0.66819 0.8989 0.0
H3855 H 0.6657 0.69214 0.91051 0.0
H3856 H 0.66559 0.67382 0.89511 0.0
C3857 C 0.6342 0.67122 0.90616 0.0
C3858 C 0.83674 0.57323 0.88322 0.0
C3859 C 0.82997 0.56966 0.89457 0.0
H3860 H 0.85183 0.58499 0.87479 0.0
C3861 C 0.83401 0.57491 0.90657 0.0
H3862 H 0.83371 0.56948 0.87381 0.0
C3863 C 0.84456 0.58368 0.90719 0.0
C3864 C 0.85118 0.58752 0.89578 0.0
H3865 H 0.82904 0.57222 0.91548 0.0
H3866 H 0.8475 0.58745 0.91661 0.0
C3867 C 0.84717 0.5821 0.8838 0.0
C3868 C 0.15699 0.05974 0.60226 0.0
C3869 C 0.16475 0.05732 0.61333 0.0
H3870 H 0.14246 0.07193 0.59334 0.0
C3871 C 0.16371 0.06577 0.62409 0.0
H3872 H 0.15766 0.05346 0.59377 0.0
C3873 C 0.15506 0.07636 0.62383 0.0
C3874 C 0.14729 0.07877 0.61277 0.0
H3875 H 0.16947 0.0641 0.63281 0.0
H3876 H 0.15453 0.08273 0.63225 0.0
C3877 C 0.14839 0.07038 0.60196 0.0
C3878 C 0.66384 0.43361 0.38234 0.0
C3879 C 0.66545 0.44143 0.3935 0.0
H3880 H 0.65412 0.41719 0.37362 0.0
C3881 C 0.65822 0.43839 0.40474 0.0
H3882 H 0.66917 0.43577 0.37349 0.0
C3883 C 0.64953 0.42775 0.4048 0.0
C3884 C 0.64782 0.42002 0.39358 0.0
H3885 H 0.65933 0.44418 0.41353 0.0
H3886 H 0.644 0.4257 0.41356 0.0
C3887 C 0.65511 0.42305 0.38237 0.0
C3888 C 0.33376 0.92914 0.12277 0.0
C3889 C 0.32686 0.93327 0.11166 0.0
H3890 H 0.34908 0.91717 0.13044 0.0
C3891 C 0.33092 0.92886 0.09936 0.0
H3892 H 0.33074 0.93226 0.13239 0.0
C3893 C 0.34156 0.92033 0.0982 0.0
C3894 C 0.34828 0.91591 0.10934 0.0
H3895 H 0.32588 0.93203 0.09062 0.0
H3896 H 0.34449 0.9172 0.08856 0.0
C3897 C 0.34431 0.92052 0.12163 0.0
C3898 C 0.83743 0.43795 0.61057 0.0
C3899 C 0.82515 0.43376 0.60588 0.0
H3900 H 0.85771 0.43332 0.61329 0.0
C3901 C 0.82423 0.42152 0.59966 0.0
H3902 H 0.83846 0.44729 0.61549 0.0
C3903 C 0.8352 0.41346 0.59855 0.0
C3904 C 0.8474 0.41745 0.60359 0.0
H3905 H 0.81496 0.41808 0.59577 0.0
H3906 H 0.834 0.4039 0.5941 0.0
C3907 C 0.84843 0.42988 0.60944 0.0
C3908 C 0.33528 0.0749 0.4021 0.0
C3909 C 0.33134 0.06925 0.39024 0.0
H3910 H 0.34842 0.08803 0.41183 0.0
C3911 C 0.33823 0.07248 0.37884 0.0
H3912 H 0.33028 0.07243 0.41107 0.0
C3913 C 0.34854 0.08152 0.37923 0.0
C3914 C 0.35226 0.08746 0.39105 0.0
H3915 H 0.33532 0.0684 0.36953 0.0
H3916 H 0.35329 0.08418 0.37019 0.0
C3917 C 0.34565 0.08386 0.40252 0.0
C3918 C 0.66183 0.56336 0.12428 0.0
C3919 C 0.66307 0.55499 0.11347 0.0
H3920 H 0.65242 0.58018 0.13245 0.0
C3921 C 0.65535 0.55736 0.10237 0.0
H3922 H 0.66756 0.56172 0.13302 0.0
C3923 C 0.64663 0.56791 0.10206 0.0
C3924 C 0.64538 0.57626 0.11289 0.0
H3925 H 0.65617 0.55115 0.09385 0.0
H3926 H 0.64077 0.56946 0.09339 0.0
C3927 C 0.65307 0.57385 0.124 0.0
C3928 C 0.15854 0.94171 0.90722 0.0
C3929 C 0.16532 0.94486 0.89573 0.0
H3930 H 0.14451 0.92906 0.9164 0.0
C3931 C 0.16303 0.93734 0.88448 0.0
H3932 H 0.16017 0.94728 0.91606 0.0
C3933 C 0.1541 0.92695 0.88467 0.0
C3934 C 0.14729 0.9238 0.89614 0.0
H3935 H 0.16801 0.9396 0.87545 0.0
H3936 H 0.15259 0.92132 0.87585 0.0
C3937 C 0.14966 0.93122 0.90744 0.0
C3938 C 0.90544 0.83506 0.57711 0.0
C3939 C 0.89341 0.83112 0.57168 0.0
H3940 H 0.91549 0.84844 0.58973 0.0
C3941 C 0.88203 0.83813 0.5749 0.0
H3942 H 0.9144 0.82995 0.57467 0.0
C3943 C 0.8826 0.84862 0.58364 0.0
C3944 C 0.8946 0.85242 0.5893 0.0
H3945 H 0.87259 0.83522 0.57099 0.0
H3946 H 0.87356 0.85346 0.58628 0.0
C3947 C 0.90604 0.84563 0.58577 0.0
C3948 C 0.93126 0.10205 0.33459 0.0
C3949 C 0.93326 0.11441 0.32888 0.0
H3950 H 0.92128 0.09098 0.34928 0.0
C3951 C 0.92692 0.12537 0.33422 0.0
H3952 H 0.93596 0.09342 0.33064 0.0
C3953 C 0.9185 0.12397 0.34483 0.0
C3954 C 0.91619 0.11157 0.35032 0.0
H3955 H 0.92839 0.13504 0.33012 0.0
H3956 H 0.9135 0.13257 0.34849 0.0
C3957 C 0.92277 0.10064 0.34518 0.0
C3958 C 0.5998 0.1752 0.08286 0.0
C3959 C 0.60639 0.17454 0.07087 0.0
H3960 H 0.59439 0.16528 0.10037 0.0
C3961 C 0.61199 0.16257 0.06704 0.0
H3962 H 0.59523 0.18422 0.08602 0.0
C3963 C 0.61136 0.15162 0.07521 0.0
C3964 C 0.6051 0.1524 0.08738 0.0
H3965 H 0.61721 0.16175 0.05791 0.0
H3966 H 0.61589 0.14258 0.07204 0.0
C3967 C 0.59917 0.16427 0.09102 0.0
C3968 C 0.56849 0.88164 0.84429 0.0
C3969 C 0.56076 0.89295 0.84296 0.0
H3970 H 0.58484 0.87259 0.85371 0.0
C3971 C 0.56386 0.90406 0.85047 0.0
H3972 H 0.56628 0.87288 0.83873 0.0
C3973 C 0.57449 0.90388 0.8591 0.0
C3974 C 0.58216 0.89254 0.86048 0.0
H3975 H 0.55814 0.91295 0.84958 0.0
H3976 H 0.57661 0.91256 0.86482 0.0
C3977 C 0.57904 0.88143 0.85297 0.0
C3978 C 0.90865 0.15323 0.94252 0.0
C3979 C 0.89733 0.16043 0.94558 0.0
H3980 H 0.91747 0.139 0.92991 0.0
C3981 C 0.886 0.15862 0.93798 0.0
H3982 H 0.91756 0.15449 0.94814 0.0
C3983 C 0.88595 0.1498 0.92758 0.0
C3984 C 0.89726 0.14262 0.92448 0.0
H3985 H 0.87708 0.16392 0.94017 0.0
H3986 H 0.87708 0.14871 0.92187 0.0
C3987 C 0.90863 0.14446 0.93202 0.0
C3988 C 0.56394 0.12063 0.66018 0.0
C3989 C 0.55616 0.1094 0.662 0.0
H3990 H 0.58024 0.12928 0.65032 0.0
C3991 C 0.55903 0.09802 0.65483 0.0
H3992 H 0.56189 0.12958 0.66546 0.0
C3993 C 0.56954 0.09786 0.6461 0.0
C3994 C 0.5773 0.10911 0.64428 0.0
H3995 H 0.55326 0.08919 0.6561 0.0
H3996 H 0.57153 0.08897 0.64068 0.0
C3997 C 0.57436 0.1205 0.6514 0.0
C3998 C 0.60849 0.82196 0.41751 0.0
C3999 C 0.60977 0.82473 0.43087 0.0
H4000 H 0.60682 0.82958 0.39818 0.0
C4001 C 0.61002 0.83791 0.43492 0.0
H4002 H 0.60854 0.81195 0.414 0.0
C4003 C 0.60914 0.84805 0.42579 0.0
C4004 C 0.60791 0.84523 0.41244 0.0
H4005 H 0.61082 0.84041 0.44514 0.0
H4006 H 0.60932 0.8581 0.4292 0.0
C4007 C 0.60753 0.83208 0.40842 0.0
C4008 C 0.93985 0.90888 0.15575 0.0
C4009 C 0.94268 0.89756 0.16301 0.0
H4010 H 0.92739 0.91786 0.14148 0.0
C4011 C 0.93475 0.8864 0.16135 0.0
H4012 H 0.94574 0.91766 0.1569 0.0
C4013 C 0.92429 0.88652 0.15257 0.0
C4014 C 0.92146 0.89781 0.14528 0.0
H4015 H 0.93675 0.87748 0.1667 0.0
H4016 H 0.91834 0.87776 0.15155 0.0
C4017 C 0.92929 0.90903 0.14702 0.0
C4018 C 0.06022 0.59796 0.15209 0.0
C4019 C 0.05808 0.60853 0.16062 0.0
H4020 H 0.07229 0.58978 0.13709 0.0
C4021 C 0.06681 0.6192 0.16039 0.0
H4022 H 0.05371 0.58955 0.15211 0.0
C4023 C 0.07745 0.6193 0.15186 0.0
C4024 C 0.07963 0.60873 0.14337 0.0
H4025 H 0.06536 0.62755 0.16674 0.0
H4026 H 0.08406 0.62762 0.15204 0.0
C4027 C 0.07092 0.59803 0.14359 0.0
C4028 C 0.09313 0.33103 0.92689 0.0
C4029 C 0.10507 0.32814 0.93308 0.0
H4030 H 0.08286 0.34359 0.91371 0.0
C4031 C 0.11603 0.33609 0.93058 0.0
H4032 H 0.0845 0.32513 0.92875 0.0
C4033 C 0.11517 0.34652 0.92183 0.0
C4034 C 0.10329 0.34936 0.91546 0.0
H4035 H 0.12541 0.33397 0.93507 0.0
H4036 H 0.12397 0.35209 0.91977 0.0
C4037 C 0.09223 0.34157 0.91824 0.0
C4038 C 0.43481 0.38652 0.66439 0.0
C4039 C 0.4427 0.39771 0.66607 0.0
H4040 H 0.41846 0.37782 0.65456 0.0
C4041 C 0.43981 0.40904 0.65884 0.0
H4042 H 0.43686 0.3776 0.66971 0.0
C4043 C 0.42926 0.40916 0.6501 0.0
C4044 C 0.42149 0.3979 0.64833 0.0
H4045 H 0.44566 0.41784 0.66 0.0
H4046 H 0.42732 0.41798 0.64457 0.0
C4047 C 0.42436 0.38661 0.65561 0.0
C4048 C 0.11332 0.66197 0.56484 0.0
C4049 C 0.10906 0.67439 0.56899 0.0
H4050 H 0.11564 0.64166 0.56959 0.0
C4051 C 0.1033 0.67557 0.58135 0.0
H4052 H 0.11788 0.66073 0.5554 0.0
C4053 C 0.10216 0.66471 0.58952 0.0
C4054 C 0.10671 0.65235 0.58553 0.0
H4055 H 0.09974 0.68496 0.58478 0.0
H4056 H 0.09805 0.66611 0.59913 0.0
C4057 C 0.11217 0.65107 0.57302 0.0
C4058 C 0.40209 0.33819 0.07523 0.0
C4059 C 0.3901 0.3316 0.07349 0.0
H4060 H 0.4123 0.35394 0.0847 0.0
C4061 C 0.37888 0.3364 0.07981 0.0
H4062 H 0.41091 0.33469 0.07054 0.0
C4063 C 0.37969 0.34735 0.08793 0.0
C4064 C 0.39173 0.35376 0.08996 0.0
H4065 H 0.36947 0.33162 0.07854 0.0
H4066 H 0.37092 0.35058 0.09291 0.0
C4067 C 0.40291 0.34914 0.08343 0.0
C4068 C 0.58484 0.37487 0.17356 0.0
C4069 C 0.57952 0.36382 0.17979 0.0
H4070 H 0.59936 0.38232 0.16052 0.0
C4071 C 0.58547 0.35155 0.1779 0.0
H4072 H 0.58057 0.38447 0.17495 0.0
C4073 C 0.59631 0.35032 0.16966 0.0
C4074 C 0.60148 0.36135 0.16325 0.0
H4075 H 0.58154 0.34286 0.18252 0.0
H4076 H 0.60062 0.34073 0.16828 0.0
C4077 C 0.5957 0.37365 0.16541 0.0
C4078 C 0.91246 0.63381 0.68515 0.0
C4079 C 0.91435 0.64509 0.6928 0.0
H4080 H 0.90265 0.62515 0.66882 0.0
C4081 C 0.90754 0.6566 0.68953 0.0
H4082 H 0.91746 0.62477 0.68749 0.0
C4083 C 0.89901 0.6568 0.67885 0.0
C4084 C 0.89702 0.64548 0.67129 0.0
H4085 H 0.90889 0.66548 0.69518 0.0
H4086 H 0.89381 0.66578 0.67663 0.0
C4087 C 0.90387 0.63399 0.67455 0.0
C4088 C 0.65081 0.32582 0.58557 0.0
C4089 C 0.63878 0.32389 0.57913 0.0
H4090 H 0.66105 0.33548 0.60112 0.0
C4091 C 0.62754 0.3301 0.58401 0.0
H4092 H 0.65966 0.32122 0.58199 0.0
C4093 C 0.62833 0.33828 0.5949 0.0
C4094 C 0.6404 0.34047 0.60116 0.0
H4095 H 0.6181 0.32869 0.57936 0.0
H4096 H 0.61953 0.34315 0.59821 0.0
C4097 C 0.65163 0.33407 0.59644 0.0
C4098 C 0.4286 0.59672 0.83414 0.0
C4099 C 0.43033 0.60891 0.82801 0.0
H4100 H 0.41917 0.58603 0.84948 0.0
C4101 C 0.42393 0.61995 0.83313 0.0
H4102 H 0.43336 0.58803 0.83038 0.0
C4103 C 0.41583 0.61881 0.844 0.0
C4104 C 0.41389 0.60659 0.85001 0.0
H4105 H 0.42518 0.62951 0.8287 0.0
H4106 H 0.41085 0.62747 0.84753 0.0
C4107 C 0.42041 0.59555 0.845 0.0
C4108 C 0.06661 0.37819 0.34224 0.0
C4109 C 0.05813 0.38899 0.34135 0.0
H4110 H 0.08363 0.36993 0.35124 0.0
C4111 C 0.06053 0.39999 0.34927 0.0
H4112 H 0.06497 0.36952 0.33636 0.0
C4113 C 0.0712 0.40021 0.35785 0.0
C4114 C 0.07965 0.38938 0.35876 0.0
H4115 H 0.05423 0.40851 0.34873 0.0
H4116 H 0.07275 0.40879 0.36388 0.0
C4117 C 0.07723 0.37837 0.35086 0.0
C4118 C 0.40699 0.65219 0.44262 0.0
C4119 C 0.3956 0.65929 0.44566 0.0
H4120 H 0.41598 0.63809 0.42999 0.0
C4121 C 0.38432 0.65743 0.438 0.0
H4122 H 0.41585 0.65348 0.4483 0.0
C4123 C 0.3844 0.64867 0.42755 0.0
C4124 C 0.39578 0.64159 0.42447 0.0
H4125 H 0.37535 0.66266 0.44016 0.0
H4126 H 0.37556 0.64754 0.42178 0.0
C4127 C 0.40709 0.64347 0.43209 0.0
C4128 C 0.12626 0.3124 0.06653 0.0
C4129 C 0.11555 0.30522 0.06166 0.0
H4130 H 0.1348 0.32239 0.08269 0.0
C4131 C 0.10532 0.30185 0.07021 0.0
H4132 H 0.13437 0.31502 0.06025 0.0
C4133 C 0.10564 0.30596 0.08326 0.0
C4134 C 0.11624 0.31343 0.08801 0.0
H4135 H 0.0969 0.29639 0.06673 0.0
H4136 H 0.09756 0.30337 0.08958 0.0
C4137 C 0.12658 0.31648 0.07948 0.0
C4138 C 0.94767 0.86594 0.29424 0.0
C4139 C 0.94385 0.8609 0.28205 0.0
H4140 H 0.94318 0.86753 0.3146 0.0
C4141 C 0.9331 0.85224 0.28146 0.0
H4142 H 0.95584 0.87269 0.29503 0.0
C4143 C 0.92582 0.8494 0.29261 0.0
C4144 C 0.92918 0.85503 0.30464 0.0
H4145 H 0.93009 0.84791 0.27229 0.0
H4146 H 0.91735 0.84304 0.29175 0.0
C4147 C 0.94041 0.86301 0.30545 0.0
C4148 C 0.40369 0.70075 0.56865 0.0
C4149 C 0.39273 0.70835 0.56522 0.0
H4150 H 0.41233 0.68769 0.58254 0.0
C4151 C 0.38223 0.70923 0.57402 0.0
H4152 H 0.412 0.7 0.56215 0.0
C4153 C 0.38247 0.70226 0.58574 0.0
C4154 C 0.39321 0.69427 0.58895 0.0
H4155 H 0.3736 0.7149 0.57166 0.0
H4156 H 0.37411 0.70295 0.59219 0.0
C4157 C 0.40394 0.69381 0.5804 0.0
C4158 C 0.55394 0.13878 0.79452 0.0
C4159 C 0.55851 0.14224 0.78207 0.0
H4160 H 0.55801 0.13832 0.81504 0.0
C4161 C 0.57028 0.14937 0.78106 0.0
H4162 H 0.54494 0.13324 0.79563 0.0
C4163 C 0.57774 0.15221 0.79212 0.0
C4164 C 0.57359 0.14807 0.80448 0.0
H4165 H 0.57391 0.15247 0.77165 0.0
H4166 H 0.58696 0.15737 0.79095 0.0
C4167 C 0.56142 0.14168 0.80564 0.0
C4168 C 0.10655 0.70013 0.43106 0.0
C4169 C 0.10344 0.69296 0.44233 0.0
H4170 H 0.10979 0.69957 0.41039 0.0
C4171 C 0.10052 0.67953 0.44112 0.0
H4172 H 0.10878 0.7105 0.43168 0.0
C4173 C 0.10112 0.67333 0.42903 0.0
C4174 C 0.10458 0.68039 0.41783 0.0
H4175 H 0.09825 0.67368 0.44962 0.0
H4176 H 0.09913 0.66291 0.42848 0.0
C4177 C 0.10702 0.69392 0.41888 0.0
C4178 C 0.55527 0.86701 0.70972 0.0
C4179 C 0.56038 0.86424 0.72215 0.0
H4180 H 0.55865 0.86689 0.68909 0.0
C4181 C 0.57249 0.85775 0.72308 0.0
H4182 H 0.54598 0.87202 0.7087 0.0
C4183 C 0.5797 0.85483 0.71192 0.0
C4184 C 0.57499 0.85829 0.69953 0.0
H4185 H 0.57655 0.8552 0.73249 0.0
H4186 H 0.58915 0.85013 0.71302 0.0
C4187 C 0.56251 0.86406 0.69851 0.0
C4188 C 0.39816 0.30078 0.93597 0.0
C4189 C 0.39888 0.30914 0.94686 0.0
H4190 H 0.39653 0.29937 0.91513 0.0
C4191 C 0.39886 0.32276 0.94486 0.0
H4192 H 0.39821 0.29024 0.93721 0.0
C4193 C 0.39787 0.32793 0.93234 0.0
C4194 C 0.39692 0.31962 0.92146 0.0
H4195 H 0.39923 0.32948 0.95303 0.0
H4196 H 0.39769 0.33848 0.93116 0.0
C4197 C 0.3973 0.30599 0.92335 0.0
C4198 C 0.94806 0.14499 0.21398 0.0
C4199 C 0.96034 0.13975 0.21064 0.0
H4200 H 0.92933 0.15162 0.20732 0.0
C4201 C 0.96335 0.13806 0.19737 0.0
H4202 H 0.94552 0.14675 0.22407 0.0
C4203 C 0.95407 0.14102 0.18773 0.0
C4204 C 0.94159 0.14565 0.19118 0.0
H4205 H 0.97267 0.13397 0.19444 0.0
H4206 H 0.95647 0.13916 0.17763 0.0
C4207 C 0.93878 0.14784 0.20439 0.0
C4208 C 0.06736 0.09617 0.31126 0.0
C4209 C 0.06191 0.10714 0.30497 0.0
H4210 H 0.08357 0.08835 0.32195 0.0
C4211 C 0.0697 0.11841 0.30343 0.0
H4212 H 0.06172 0.08724 0.31241 0.0
C4213 C 0.08233 0.11896 0.30872 0.0
C4214 C 0.08746 0.1083 0.31573 0.0
H4215 H 0.06584 0.12706 0.29871 0.0
H4216 H 0.08793 0.12793 0.30765 0.0
C4217 C 0.07997 0.09675 0.3166 0.0
C4218 C 0.14694 0.78782 0.55399 0.0
C4219 C 0.14108 0.79137 0.54208 0.0
H4220 H 0.15389 0.79417 0.57265 0.0
C4221 C 0.13875 0.80472 0.5396 0.0
H4222 H 0.14919 0.77768 0.55611 0.0
C4223 C 0.14161 0.81421 0.54907 0.0
C4224 C 0.14679 0.81052 0.56122 0.0
H4225 H 0.13418 0.8078 0.53058 0.0
H4226 H 0.13921 0.82436 0.54712 0.0
C4227 C 0.14969 0.79727 0.56345 0.0
C4228 C 0.43083 0.88228 0.79206 0.0
C4229 C 0.43988 0.89248 0.79413 0.0
H4230 H 0.4124 0.87376 0.79732 0.0
C4231 C 0.43656 0.90263 0.80281 0.0
H4232 H 0.43308 0.87426 0.78553 0.0
C4233 C 0.42471 0.90229 0.80965 0.0
C4234 C 0.41595 0.89176 0.80801 0.0
H4235 H 0.44325 0.91072 0.8045 0.0
H4236 H 0.42267 0.90998 0.81663 0.0
C4237 C 0.41902 0.88192 0.79892 0.0
C4238 C 0.36211 0.21531 0.06013 0.0
C4239 C 0.36766 0.21175 0.04811 0.0
H4240 H 0.35505 0.20891 0.07868 0.0
C4241 C 0.3696 0.19837 0.04542 0.0
H4242 H 0.36016 0.22548 0.06241 0.0
C4243 C 0.36652 0.18883 0.05474 0.0
C4244 C 0.36152 0.1925 0.06696 0.0
H4245 H 0.37393 0.19528 0.0363 0.0
H4246 H 0.36854 0.17864 0.05259 0.0
C4247 C 0.35913 0.20581 0.06945 0.0
C4248 C 0.07219 0.88052 0.21106 0.0
C4249 C 0.06342 0.8911 0.21031 0.0
H4250 H 0.09031 0.87225 0.20462 0.0
C4251 C 0.06691 0.90207 0.20275 0.0
H4252 H 0.06978 0.87188 0.2167 0.0
C4253 C 0.07865 0.90222 0.19573 0.0
C4254 C 0.08714 0.8914 0.19605 0.0
H4255 H 0.06046 0.91045 0.20209 0.0
H4256 H 0.08081 0.91061 0.18963 0.0
C4257 C 0.0839 0.88067 0.20402 0.0
C4258 C 0.36477 0.79215 0.45031 0.0
C4259 C 0.3614 0.77957 0.44578 0.0
H4260 H 0.36498 0.81281 0.44626 0.0
C4261 C 0.35407 0.77844 0.43422 0.0
H4262 H 0.37043 0.79333 0.45917 0.0
C4263 C 0.35102 0.7895 0.42686 0.0
C4264 C 0.35515 0.80199 0.43092 0.0
H4265 H 0.35103 0.76891 0.43062 0.0
H4266 H 0.3458 0.78824 0.41774 0.0
C4267 C 0.36165 0.80329 0.44294 0.0
C4268 C 0.43395 0.10208 0.70295 0.0
C4269 C 0.43742 0.11296 0.71065 0.0
H4270 H 0.42029 0.09382 0.68934 0.0
C4271 C 0.42879 0.12366 0.71125 0.0
H4272 H 0.4403 0.09361 0.70241 0.0
C4273 C 0.41726 0.12372 0.70386 0.0
C4274 C 0.41408 0.11309 0.6957 0.0
H4275 H 0.43118 0.13224 0.717 0.0
H4276 H 0.41097 0.13225 0.70431 0.0
C4277 C 0.4224 0.10213 0.69557 0.0
C4278 C 0.1437 0.21371 0.94668 0.0
C4279 C 0.13956 0.21031 0.95929 0.0
H4280 H 0.14952 0.20701 0.92782 0.0
C4281 C 0.13897 0.19696 0.96268 0.0
H4282 H 0.14459 0.22389 0.94383 0.0
C4283 C 0.14192 0.18725 0.95348 0.0
C4284 C 0.14547 0.1907 0.94071 0.0
H4285 H 0.13576 0.194 0.97228 0.0
H4286 H 0.14091 0.17705 0.95621 0.0
C4287 C 0.14658 0.20404 0.93751 0.0
C4288 C 0.30122 0.06987 0.12155 0.0
C4289 C 0.30252 0.06228 0.1102 0.0
H4290 H 0.30565 0.08794 0.13121 0.0
C4291 C 0.30853 0.06796 0.09923 0.0
H4292 H 0.2967 0.06583 0.1302 0.0
C4293 C 0.31387 0.08058 0.09988 0.0
C4294 C 0.31328 0.08785 0.1115 0.0
H4295 H 0.30948 0.06248 0.09025 0.0
H4296 H 0.31904 0.08435 0.09147 0.0
C4297 C 0.30651 0.08251 0.12218 0.0
C4298 C 0.81488 0.43536 0.87682 0.0
C4299 C 0.8067 0.44009 0.88674 0.0
H4300 H 0.82572 0.41928 0.86921 0.0
C4301 C 0.80237 0.43133 0.8964 0.0
H4302 H 0.81826 0.44179 0.86913 0.0
C4303 C 0.80651 0.41823 0.89635 0.0
C4304 C 0.81501 0.41362 0.88658 0.0
H4305 H 0.79611 0.43469 0.90422 0.0
H4306 H 0.80314 0.41175 0.90399 0.0
C4307 C 0.81902 0.42236 0.87677 0.0
C4308 C 0.79793 0.55249 0.1399 0.0
C4309 C 0.78581 0.55826 0.13681 0.0
H4310 H 0.81826 0.55569 0.14445 0.0
C4311 C 0.78475 0.57198 0.1371 0.0
H4312 H 0.79902 0.54193 0.13978 0.0
C4313 C 0.79565 0.57978 0.1398 0.0
C4314 C 0.80793 0.5741 0.14225 0.0
H4315 H 0.77547 0.57672 0.1351 0.0
H4316 H 0.79448 0.59034 0.13979 0.0
C4317 C 0.80892 0.56035 0.14259 0.0
C4318 C 0.7022 0.56696 0.40208 0.0
C4319 C 0.70937 0.56366 0.39087 0.0
H4320 H 0.68921 0.58063 0.41121 0.0
C4321 C 0.70938 0.57241 0.3803 0.0
H4322 H 0.7021 0.56049 0.41044 0.0
C4323 C 0.70206 0.58396 0.38076 0.0
C4324 C 0.69459 0.58707 0.39183 0.0
H4325 H 0.71471 0.57013 0.37147 0.0
H4326 H 0.70213 0.59039 0.37238 0.0
C4327 C 0.69492 0.57855 0.40258 0.0
C4328 C 0.20118 0.95174 0.12565 0.0
C4329 C 0.20596 0.96004 0.1355 0.0
H4330 H 0.18824 0.93607 0.12054 0.0
C4331 C 0.20063 0.95903 0.14808 0.0
H4332 H 0.2049 0.95246 0.1158 0.0
C4333 C 0.1911 0.94951 0.15085 0.0
C4334 C 0.1867 0.94086 0.14108 0.0
H4335 H 0.20417 0.96527 0.15588 0.0
H4336 H 0.18753 0.94862 0.16074 0.0
C4337 C 0.19165 0.94232 0.12839 0.0
C4338 C 0.20927 0.92713 0.62392 0.0
C4339 C 0.209 0.93596 0.61343 0.0
H4340 H 0.20218 0.90905 0.63182 0.0
C4341 C 0.20154 0.93275 0.60234 0.0
H4342 H 0.21484 0.92935 0.63265 0.0
C4343 C 0.19424 0.92113 0.60189 0.0
C4344 C 0.19417 0.91252 0.61256 0.0
H4345 H 0.20124 0.93929 0.59404 0.0
H4346 H 0.18831 0.91912 0.59335 0.0
C4347 C 0.20192 0.91556 0.6235 0.0
C4348 C 0.79733 0.44463 0.376 0.0
C4349 C 0.78925 0.44789 0.36538 0.0
H4350 H 0.81429 0.43428 0.38265 0.0
C4351 C 0.79292 0.44371 0.35285 0.0
H4352 H 0.79476 0.44759 0.3858 0.0
C4353 C 0.80407 0.43595 0.35106 0.0
C4354 C 0.81178 0.43216 0.36178 0.0
H4355 H 0.787 0.44618 0.34444 0.0
H4356 H 0.80633 0.43246 0.34136 0.0
C4357 C 0.80845 0.43686 0.37422 0.0
C4358 C 0.69754 0.54066 0.86809 0.0
C4359 C 0.71091 0.54394 0.86718 0.0
H4360 H 0.67767 0.54734 0.86668 0.0
C4361 C 0.71435 0.55668 0.86319 0.0
H4362 H 0.69455 0.53097 0.87121 0.0
C4363 C 0.70472 0.56603 0.86066 0.0
C4364 C 0.69137 0.56289 0.86198 0.0
H4365 H 0.72454 0.55946 0.86207 0.0
H4366 H 0.70773 0.57577 0.85772 0.0
C4367 C 0.68787 0.55003 0.86549 0.0
C4368 C 0.90367 0.68799 0.97041 0.0
C4369 C 0.89496 0.69864 0.96995 0.0
H4370 H 0.91253 0.67212 0.96004 0.0
C4371 C 0.88969 0.70238 0.95784 0.0
H4372 H 0.90817 0.68505 0.97951 0.0
C4373 C 0.89236 0.69503 0.94661 0.0
C4374 C 0.90028 0.68381 0.94735 0.0
H4375 H 0.88292 0.71051 0.95716 0.0
H4376 H 0.88761 0.69766 0.93754 0.0
C4377 C 0.90624 0.68062 0.95926 0.0
C4378 C 0.05124 0.13252 0.68712 0.0
C4379 C 0.0523 0.14426 0.69423 0.0
H4380 H 0.05587 0.12222 0.66958 0.0
C4381 C 0.05802 0.15524 0.68815 0.0
H4382 H 0.04696 0.12385 0.69147 0.0
C4383 C 0.06335 0.15423 0.67564 0.0
C4384 C 0.06305 0.14224 0.6689 0.0
H4385 H 0.05878 0.16451 0.69324 0.0
H4386 H 0.06832 0.16267 0.67156 0.0
C4387 C 0.05651 0.13154 0.67461 0.0
C4388 C 0.61858 0.29364 0.44629 0.0
C4389 C 0.61623 0.29664 0.45946 0.0
H4390 H 0.61801 0.30036 0.4265 0.0
C4391 C 0.61041 0.30875 0.46253 0.0
H4392 H 0.62312 0.28446 0.44357 0.0
C4393 C 0.6076 0.31785 0.45279 0.0
C4394 C 0.61041 0.31506 0.43969 0.0
H4395 H 0.60815 0.31127 0.47253 0.0
H4396 H 0.60334 0.32717 0.45552 0.0
C4397 C 0.61566 0.30275 0.4365 0.0
C4398 C 0.45018 0.86895 0.18132 0.0
C4399 C 0.4488 0.85727 0.18845 0.0
H4400 H 0.44605 0.87918 0.16361 0.0
C4401 C 0.44306 0.84633 0.18231 0.0
H4402 H 0.45449 0.87759 0.18574 0.0
C4403 C 0.43802 0.84731 0.16967 0.0
C4404 C 0.43865 0.85924 0.16286 0.0
H4405 H 0.44204 0.83712 0.18744 0.0
H4406 H 0.43303 0.83891 0.16551 0.0
C4407 C 0.44519 0.86991 0.16867 0.0
C4408 C 0.87663 0.30233 0.54595 0.0
C4409 C 0.88627 0.30067 0.53633 0.0
H4410 H 0.87117 0.31186 0.5637 0.0
C4411 C 0.89864 0.30654 0.53821 0.0
H4412 H 0.86711 0.29772 0.54496 0.0
C4413 C 0.901 0.31458 0.54904 0.0
C4414 C 0.89102 0.31693 0.55814 0.0
H4415 H 0.90626 0.30554 0.53095 0.0
H4416 H 0.91036 0.31954 0.54989 0.0
C4417 C 0.87896 0.31039 0.5567 0.0
C4418 C 0.45327 0.15112 0.3183 0.0
C4419 C 0.46079 0.14011 0.31488 0.0
H4420 H 0.44012 0.15978 0.33206 0.0
C4421 C 0.46147 0.12955 0.32363 0.0
H4422 H 0.45267 0.1595 0.31185 0.0
C4423 C 0.45437 0.12976 0.33527 0.0
C4424 C 0.44644 0.14055 0.33845 0.0
H4425 H 0.46708 0.12087 0.32128 0.0
H4426 H 0.45492 0.12135 0.34167 0.0
C4427 C 0.44619 0.15135 0.32995 0.0
C4428 C 0.60677 0.67888 0.03556 0.0
C4429 C 0.61325 0.69098 0.03691 0.0
H4430 H 0.59889 0.66199 0.04508 0.0
C4431 C 0.61559 0.69592 0.04949 0.0
H4432 H 0.60455 0.67495 0.026 0.0
C4433 C 0.6123 0.68845 0.0605 0.0
C4434 C 0.60663 0.67595 0.05906 0.0
H4435 H 0.62057 0.70521 0.05082 0.0
H4436 H 0.61485 0.69214 0.07007 0.0
C4437 C 0.60351 0.67146 0.04649 0.0
C4438 C 0.05547 0.85543 0.81603 0.0
C4439 C 0.06009 0.8648 0.80708 0.0
H4440 H 0.05612 0.84826 0.83568 0.0
C4441 C 0.06875 0.87457 0.81149 0.0
H4442 H 0.04884 0.84774 0.8129 0.0
C4443 C 0.07297 0.87481 0.82441 0.0
C4444 C 0.0686 0.86532 0.83334 0.0
H4445 H 0.07237 0.88202 0.8049 0.0
H4446 H 0.07995 0.88229 0.8273 0.0
C4447 C 0.05973 0.85566 0.82903 0.0
C4448 C 0.9493 0.89044 0.7115 0.0
C4449 C 0.9626 0.89159 0.70804 0.0
H4450 H 0.92928 0.8917 0.70513 0.0
C4451 C 0.96575 0.89615 0.69551 0.0
H4452 H 0.94654 0.88691 0.72105 0.0
C4453 C 0.95592 0.89881 0.68643 0.0
C4454 C 0.94266 0.89706 0.68966 0.0
H4455 H 0.97587 0.89748 0.69262 0.0
H4456 H 0.9587 0.90203 0.67677 0.0
C4457 C 0.93942 0.89318 0.70239 0.0
C4458 C 0.852 0.1804 0.4502 0.0
C4459 C 0.86243 0.18347 0.45866 0.0
H4460 H 0.84393 0.16672 0.4365 0.0
C4461 C 0.87245 0.17421 0.46044 0.0
H4462 H 0.84404 0.18726 0.44874 0.0
C4463 C 0.87234 0.16241 0.45352 0.0
C4464 C 0.86218 0.15958 0.44467 0.0
H4465 H 0.88068 0.1763 0.46681 0.0
H4466 H 0.88036 0.15562 0.45488 0.0
C4467 C 0.85186 0.16857 0.44331 0.0
C4468 C 0.54549 0.1144 0.19991 0.0
C4469 C 0.53329 0.10873 0.19681 0.0
H4470 H 0.56576 0.11644 0.19469 0.0
C4471 C 0.53271 0.09934 0.18677 0.0
H4472 H 0.54628 0.12171 0.20753 0.0
C4473 C 0.54379 0.09645 0.17937 0.0
C4474 C 0.55577 0.10274 0.18194 0.0
H4475 H 0.52356 0.09452 0.18433 0.0
H4476 H 0.5429 0.0896 0.17135 0.0
C4477 C 0.55665 0.1114 0.19256 0.0
C4478 C 0.64061 0.80819 0.94522 0.0
C4479 C 0.64364 0.80864 0.95858 0.0
H4480 H 0.63799 0.8189 0.92753 0.0
C4481 C 0.64666 0.82083 0.96428 0.0
H4482 H 0.63807 0.79901 0.94053 0.0
C4483 C 0.64653 0.83231 0.95678 0.0
C4484 C 0.64324 0.83184 0.94348 0.0
H4485 H 0.64912 0.82149 0.97452 0.0
H4486 H 0.64868 0.84159 0.96146 0.0
C4487 C 0.64042 0.81962 0.93778 0.0
C4488 C 0.96446 0.10871 0.81156 0.0
C4489 C 0.96083 0.11395 0.7994 0.0
H4490 H 0.95816 0.1019 0.83024 0.0
C4491 C 0.94741 0.11568 0.79669 0.0
H4492 H 0.97466 0.10693 0.81388 0.0
C4493 C 0.93792 0.11267 0.80607 0.0
C4494 C 0.94164 0.10792 0.81838 0.0
H4495 H 0.94426 0.11979 0.78749 0.0
H4496 H 0.92771 0.11451 0.80386 0.0
C4497 C 0.955 0.10578 0.82093 0.0
C4498 C 0.64733 0.18555 0.55014 0.0
C4499 C 0.64775 0.19673 0.55817 0.0
H4500 H 0.64566 0.16453 0.54927 0.0
C4501 C 0.64724 0.19509 0.57175 0.0
H4502 H 0.64774 0.18653 0.53964 0.0
C4503 C 0.64598 0.18264 0.57718 0.0
C4504 C 0.6453 0.1715 0.56919 0.0
H4505 H 0.64738 0.2035 0.5782 0.0
H4506 H 0.64532 0.18173 0.58767 0.0
C4507 C 0.64623 0.173 0.55562 0.0
C4508 C 0.53756 0.88412 0.30562 0.0
C4509 C 0.54034 0.88636 0.29241 0.0
H4510 H 0.54471 0.88386 0.32518 0.0
C4511 C 0.55309 0.89029 0.28893 0.0
H4512 H 0.52792 0.88091 0.30867 0.0
C4513 C 0.56284 0.8918 0.29845 0.0
C4514 C 0.56006 0.88936 0.31164 0.0
H4515 H 0.55554 0.89221 0.27885 0.0
H4516 H 0.57262 0.89461 0.29545 0.0
C4517 C 0.54726 0.88564 0.3151 0.0
C4518 C 0.86285 0.81426 0.06011 0.0
C4519 C 0.86048 0.8147 0.04662 0.0
H4520 H 0.86486 0.82501 0.07787 0.0
C4521 C 0.8579 0.82689 0.04077 0.0
H4522 H 0.86503 0.80508 0.06492 0.0
C4523 C 0.85788 0.8384 0.04825 0.0
C4524 C 0.86058 0.83793 0.06167 0.0
H4525 H 0.85596 0.82753 0.03042 0.0
H4526 H 0.85612 0.84769 0.04346 0.0
C4527 C 0.86289 0.82571 0.06752 0.0
C4528 C 0.70997 0.94336 0.8891 0.0
C4529 C 0.70716 0.95671 0.89102 0.0
H4530 H 0.70288 0.92356 0.89005 0.0
C4531 C 0.695 0.96015 0.89648 0.0
H4532 H 0.71918 0.94036 0.88483 0.0
C4533 C 0.68567 0.95056 0.89938 0.0
C4534 C 0.68828 0.93726 0.89699 0.0
H4535 H 0.69262 0.9703 0.89842 0.0
H4536 H 0.67634 0.95357 0.90338 0.0
C4537 C 0.70063 0.93373 0.89208 0.0
C4538 C 0.19882 0.54603 0.11441 0.0
C4539 C 0.19465 0.5336 0.1101 0.0
H4540 H 0.19452 0.56659 0.11548 0.0
C4541 C 0.18339 0.53275 0.10222 0.0
H4542 H 0.20742 0.54702 0.12054 0.0
C4543 C 0.17601 0.54389 0.09939 0.0
C4544 C 0.17975 0.5562 0.1043 0.0
H4545 H 0.18008 0.52338 0.09847 0.0
H4546 H 0.16718 0.54283 0.0936 0.0
C4547 C 0.19144 0.55723 0.11152 0.0
C4548 C 0.18277 0.44239 0.84901 0.0
C4549 C 0.18911 0.4472 0.86024 0.0
H4550 H 0.16572 0.43318 0.841 0.0
C4551 C 0.18208 0.44765 0.87199 0.0
H4552 H 0.18782 0.44212 0.83975 0.0
C4553 C 0.16929 0.44272 0.87265 0.0
C4554 C 0.16325 0.43717 0.86161 0.0
H4555 H 0.18665 0.45122 0.88083 0.0
H4556 H 0.16428 0.44291 0.88194 0.0
C4557 C 0.17001 0.43741 0.84969 0.0
C4558 C 0.29392 0.44873 0.61676 0.0
C4559 C 0.29682 0.46212 0.61517 0.0
H4560 H 0.30104 0.42898 0.61589 0.0
C4561 C 0.30927 0.46569 0.61048 0.0
H4562 H 0.28447 0.44563 0.62044 0.0
C4563 C 0.31875 0.45618 0.60796 0.0
C4564 C 0.31601 0.44284 0.60997 0.0
H4565 H 0.31175 0.47588 0.60882 0.0
H4566 H 0.32829 0.45929 0.60451 0.0
C4567 C 0.30341 0.43918 0.61416 0.0
C4568 C 0.81592 0.05679 0.84918 0.0
C4569 C 0.81006 0.05071 0.86001 0.0
H4570 H 0.83251 0.06719 0.84169 0.0
C4571 C 0.8175 0.04928 0.87146 0.0
H4572 H 0.81056 0.05785 0.84012 0.0
C4573 C 0.83018 0.05445 0.87229 0.0
C4574 C 0.83573 0.06123 0.86171 0.0
H4575 H 0.81332 0.04473 0.88003 0.0
H4576 H 0.83551 0.05345 0.88137 0.0
C4577 C 0.82858 0.06201 0.85002 0.0
C4578 C 0.80598 0.03829 0.39508 0.0
C4579 C 0.80005 0.03672 0.38278 0.0
H4580 H 0.81862 0.04997 0.40712 0.0
C4581 C 0.80135 0.04683 0.37357 0.0
H4582 H 0.80527 0.03065 0.40236 0.0
C4583 C 0.80903 0.05785 0.37629 0.0
C4584 C 0.81556 0.05906 0.3883 0.0
H4585 H 0.7967 0.04606 0.36411 0.0
H4586 H 0.81012 0.06529 0.36885 0.0
C4587 C 0.81364 0.04936 0.39782 0.0
C4588 C 0.1836 0.55183 0.63002 0.0
C4589 C 0.19082 0.55322 0.64162 0.0
H4590 H 0.1656 0.5556 0.61998 0.0
C4591 C 0.1846 0.55868 0.65257 0.0
H4592 H 0.18808 0.54773 0.62138 0.0
C4593 C 0.17178 0.5634 0.6517 0.0
C4594 C 0.16482 0.56273 0.63988 0.0
H4595 H 0.18978 0.55968 0.66173 0.0
H4596 H 0.16758 0.56818 0.66014 0.0
C4597 C 0.17075 0.55651 0.62917 0.0
C4598 C 0.32412 0.4636 0.12965 0.0
C4599 C 0.31545 0.46329 0.14027 0.0
H4600 H 0.3421 0.45665 0.12149 0.0
C4601 C 0.31899 0.45607 0.1514 0.0
H4602 H 0.32167 0.46897 0.12089 0.0
C4603 C 0.33066 0.44891 0.1517 0.0
C4604 C 0.33904 0.44877 0.14086 0.0
H4605 H 0.3126 0.45576 0.15981 0.0
H4606 H 0.33286 0.44308 0.16024 0.0
C4607 C 0.33577 0.45642 0.12994 0.0
C4608 C 0.59947 0.82071 0.56179 0.0
C4609 C 0.60356 0.80761 0.56068 0.0
H4610 H 0.59694 0.83734 0.57424 0.0
C4611 C 0.60757 0.80093 0.57199 0.0
H4612 H 0.59647 0.8262 0.55326 0.0
C4613 C 0.60779 0.80735 0.58407 0.0
C4614 C 0.60419 0.82061 0.585 0.0
H4615 H 0.61071 0.79081 0.57145 0.0
H4616 H 0.61128 0.80213 0.59257 0.0
C4617 C 0.59982 0.82714 0.57378 0.0
C4618 C 0.43793 0.34702 0.78444 0.0
C4619 C 0.44738 0.35709 0.78463 0.0
H4620 H 0.42307 0.33665 0.79496 0.0
C4621 C 0.45009 0.36343 0.79652 0.0
H4622 H 0.43582 0.3417 0.77554 0.0
C4623 C 0.44289 0.36035 0.80773 0.0
C4624 C 0.4328 0.35096 0.80721 0.0
H4625 H 0.45724 0.37127 0.79702 0.0
H4626 H 0.44468 0.36587 0.81658 0.0
C4627 C 0.43067 0.34406 0.79557 0.0
C4628 C 0.88327 0.21089 0.07408 0.0
C4629 C 0.89377 0.20986 0.06529 0.0
H4630 H 0.87504 0.20479 0.09225 0.0
C4631 C 0.90466 0.20218 0.0688 0.0
H4632 H 0.87469 0.21663 0.07166 0.0
C4633 C 0.90481 0.19529 0.08058 0.0
C4634 C 0.89405 0.19589 0.08909 0.0
H4635 H 0.91298 0.2013 0.06232 0.0
H4636 H 0.91312 0.18909 0.08277 0.0
C4637 C 0.88341 0.20399 0.08582 0.0
C4638 C 0.07053 0.64633 0.27984 0.0
C4639 C 0.05893 0.6389 0.2807 0.0
H4640 H 0.08696 0.6546 0.28991 0.0
C4641 C 0.05441 0.63513 0.29308 0.0
H4642 H 0.07411 0.64967 0.27049 0.0
C4643 C 0.06177 0.63804 0.30426 0.0
C4644 C 0.07379 0.64475 0.30325 0.0
H4645 H 0.04554 0.62937 0.29406 0.0
H4646 H 0.05841 0.63445 0.3136 0.0
C4647 C 0.07787 0.64919 0.29096 0.0
C4648 C 0.60042 0.18118 0.94227 0.0
C4649 C 0.60303 0.19462 0.94383 0.0
H4650 H 0.59957 0.16483 0.92924 0.0
C4651 C 0.60621 0.20212 0.93277 0.0
H4652 H 0.59811 0.17508 0.95059 0.0
C4653 C 0.60702 0.19619 0.92047 0.0
C4654 C 0.60486 0.18265 0.91907 0.0
H4655 H 0.6082 0.21251 0.93366 0.0
H4656 H 0.6098 0.20208 0.91214 0.0
C4657 C 0.60136 0.17527 0.93006 0.0
C4658 C 0.07363 0.36311 0.2214 0.0
C4659 C 0.06003 0.36475 0.22001 0.0
H4660 H 0.09189 0.35923 0.21205 0.0
C4661 C 0.05428 0.36274 0.2077 0.0
H4662 H 0.0783 0.36425 0.23082 0.0
C4663 C 0.06213 0.35986 0.19686 0.0
C4664 C 0.07583 0.35893 0.19819 0.0
H4665 H 0.04382 0.36392 0.20637 0.0
H4666 H 0.05756 0.35891 0.18737 0.0
C4667 C 0.08141 0.36022 0.21065 0.0
C4668 C 0.9024 0.82275 0.44289 0.0
C4669 C 0.89942 0.80938 0.44446 0.0
H4670 H 0.90382 0.83899 0.4298 0.0
C4671 C 0.89619 0.8019 0.43339 0.0
H4672 H 0.90476 0.82884 0.45122 0.0
C4673 C 0.89569 0.80775 0.42105 0.0
C4674 C 0.89822 0.82122 0.41963 0.0
H4675 H 0.89391 0.79157 0.4343 0.0
H4676 H 0.89286 0.80187 0.41272 0.0
C4677 C 0.90176 0.8286 0.43064 0.0
C4678 C 0.46305 0.6365 0.69764 0.0
C4679 C 0.45997 0.6385 0.71085 0.0
H4680 H 0.45635 0.63744 0.67782 0.0
C4681 C 0.44786 0.64423 0.714 0.0
H4682 H 0.47226 0.63205 0.69487 0.0
C4683 C 0.43877 0.6472 0.70428 0.0
C4684 C 0.44158 0.64464 0.69115 0.0
H4685 H 0.44529 0.64623 0.72404 0.0
H4686 H 0.4294 0.65132 0.70707 0.0
C4687 C 0.45395 0.63958 0.68787 0.0
C4688 C 0.56709 0.61604 0.80411 0.0
C4689 C 0.55954 0.60458 0.80557 0.0
H4690 H 0.58513 0.6259 0.80834 0.0
C4691 C 0.56526 0.59367 0.81172 0.0
H4692 H 0.56301 0.62465 0.7995 0.0
C4693 C 0.57789 0.59446 0.81699 0.0
C4694 C 0.58513 0.60617 0.81619 0.0
H4695 H 0.55981 0.58462 0.81282 0.0
H4696 H 0.58171 0.58609 0.82223 0.0
C4697 C 0.57973 0.61681 0.80934 0.0
C4698 C 0.64315 0.28842 0.05696 0.0
C4699 C 0.63829 0.29202 0.04464 0.0
H4700 H 0.64961 0.2948 0.07577 0.0
C4701 C 0.63715 0.30544 0.04167 0.0
H4702 H 0.64449 0.2782 0.05947 0.0
C4703 C 0.64025 0.31498 0.05102 0.0
C4704 C 0.64448 0.31129 0.06352 0.0
H4705 H 0.63337 0.30857 0.03232 0.0
H4706 H 0.63881 0.32522 0.04864 0.0
C4707 C 0.64614 0.29792 0.06629 0.0
C4708 C 0.9346 0.39984 0.30154 0.0
C4709 C 0.93778 0.38949 0.29306 0.0
H4710 H 0.92097 0.40752 0.31541 0.0
C4711 C 0.92872 0.37922 0.2914 0.0
H4712 H 0.9413 0.40798 0.30291 0.0
C4713 C 0.91703 0.37901 0.29848 0.0
C4714 C 0.91412 0.38908 0.30737 0.0
H4715 H 0.93088 0.37105 0.28502 0.0
H4716 H 0.9104 0.37081 0.2972 0.0
C4717 C 0.92289 0.39965 0.30859 0.0
C4718 C 0.88132 0.70573 0.55485 0.0
C4719 C 0.87175 0.7098 0.54588 0.0
H4720 H 0.88607 0.69332 0.5709 0.0
C4721 C 0.85931 0.70383 0.54618 0.0
H4722 H 0.89107 0.70995 0.55469 0.0
C4723 C 0.85638 0.69433 0.5556 0.0
C4724 C 0.86586 0.69057 0.56485 0.0
H4725 H 0.85172 0.70683 0.53944 0.0
H4726 H 0.84658 0.69024 0.55588 0.0
C4727 C 0.87843 0.69622 0.56417 0.0
C4728 C 0.56765 0.40139 0.70377 0.0
C4729 C 0.56415 0.39009 0.71081 0.0
H4730 H 0.5814 0.41043 0.69081 0.0
C4731 C 0.57274 0.37934 0.71076 0.0
H4732 H 0.56133 0.40991 0.70372 0.0
C4733 C 0.58427 0.37968 0.70344 0.0
C4734 C 0.58752 0.39079 0.69602 0.0
H4735 H 0.57031 0.37044 0.71597 0.0
H4736 H 0.59055 0.37113 0.70343 0.0
C4737 C 0.57922 0.40175 0.69648 0.0
C4738 C 0.86567 0.29289 0.95029 0.0
C4739 C 0.86091 0.28044 0.9467 0.0
H4740 H 0.86682 0.31334 0.94537 0.0
C4741 C 0.85212 0.27947 0.93618 0.0
H4742 H 0.87247 0.29396 0.95833 0.0
C4743 C 0.84899 0.29048 0.92877 0.0
C4744 C 0.85446 0.30275 0.93178 0.0
H4745 H 0.84802 0.27009 0.93335 0.0
H4746 H 0.84267 0.28931 0.92035 0.0
C4747 C 0.86244 0.30398 0.94289 0.0
C4748 C 0.93435 0.6005 0.20133 0.0
C4749 C 0.93794 0.61083 0.20971 0.0
H4750 H 0.92035 0.59309 0.18756 0.0
C4751 C 0.92921 0.62134 0.21134 0.0
H4752 H 0.94077 0.59217 0.19999 0.0
C4753 C 0.91747 0.6218 0.20431 0.0
C4754 C 0.91417 0.61177 0.19549 0.0
H4755 H 0.93169 0.62952 0.21762 0.0
H4756 H 0.91112 0.6302 0.20556 0.0
C4757 C 0.92258 0.60095 0.19432 0.0
C4758 C 0.64786 0.7125 0.44936 0.0
C4759 C 0.64206 0.70915 0.46133 0.0
H4760 H 0.65478 0.70583 0.43084 0.0
C4761 C 0.63977 0.69583 0.46407 0.0
H4762 H 0.65009 0.72262 0.44705 0.0
C4763 C 0.64263 0.68617 0.4548 0.0
C4764 C 0.64776 0.68965 0.44258 0.0
H4765 H 0.63524 0.6929 0.47314 0.0
H4766 H 0.64026 0.67605 0.45694 0.0
C4767 C 0.65062 0.70288 0.44009 0.0
C4768 C 0.80055 0.56966 0.6182 0.0
C4769 C 0.80188 0.56223 0.60674 0.0
H4770 H 0.80505 0.58754 0.62816 0.0
C4771 C 0.80805 0.56802 0.59592 0.0
H4772 H 0.79592 0.56553 0.62675 0.0
C4773 C 0.81351 0.58057 0.59681 0.0
C4774 C 0.81288 0.58768 0.60853 0.0
H4775 H 0.80904 0.56267 0.58686 0.0
H4776 H 0.8188 0.58441 0.58851 0.0
C4777 C 0.80595 0.58224 0.61907 0.0
C4778 C 0.30132 0.9314 0.3834 0.0
C4779 C 0.30331 0.93895 0.39469 0.0
H4780 H 0.30469 0.91316 0.37367 0.0
C4781 C 0.30938 0.93306 0.40552 0.0
H4782 H 0.29673 0.9356 0.37485 0.0
C4783 C 0.31412 0.92023 0.40477 0.0
C4784 C 0.31288 0.91298 0.39319 0.0
H4785 H 0.31086 0.93852 0.41445 0.0
H4786 H 0.31938 0.91627 0.41305 0.0
C4787 C 0.30602 0.91856 0.38267 0.0
C4788 C 0.29321 0.0575 0.64675 0.0
C4789 C 0.291 0.05189 0.6344 0.0
H4790 H 0.30547 0.06989 0.65848 0.0
C4791 C 0.30054 0.05358 0.62468 0.0
H4792 H 0.28601 0.0565 0.65442 0.0
C4793 C 0.31164 0.06128 0.627 0.0
C4794 C 0.31351 0.06746 0.63911 0.0
H4795 H 0.29928 0.04917 0.61516 0.0
H4796 H 0.31864 0.06264 0.6192 0.0
C4797 C 0.30436 0.06519 0.64908 0.0
C4798 C 0.21185 0.07417 0.8814 0.0
C4799 C 0.21145 0.06542 0.89196 0.0
H4800 H 0.20484 0.09213 0.87321 0.0
C4801 C 0.20391 0.06875 0.90293 0.0
H4802 H 0.21747 0.07188 0.87276 0.0
C4803 C 0.1966 0.08033 0.90315 0.0
C4804 C 0.19661 0.08882 0.89238 0.0
H4805 H 0.20352 0.0623 0.91129 0.0
H4806 H 0.19057 0.08239 0.91157 0.0
C4807 C 0.2045 0.08572 0.8816 0.0
C4808 C 0.69485 0.46272 0.63897 0.0
C4809 C 0.70826 0.45979 0.64033 0.0
H4810 H 0.67507 0.45562 0.64025 0.0
C4811 C 0.71184 0.44743 0.64522 0.0
H4812 H 0.69175 0.47211 0.63516 0.0
C4813 C 0.70232 0.438 0.64802 0.0
C4814 C 0.68897 0.44072 0.64612 0.0
H4815 H 0.72204 0.44494 0.64671 0.0
H4816 H 0.70542 0.42848 0.6515 0.0
C4817 C 0.6853 0.45328 0.64187 0.0
C4818 C 0.71251 0.42686 0.12297 0.0
C4819 C 0.71179 0.43571 0.11251 0.0
H4820 H 0.70578 0.40874 0.13111 0.0
C4821 C 0.70407 0.43239 0.10162 0.0
H4822 H 0.71829 0.42915 0.13154 0.0
C4823 C 0.69684 0.42073 0.10141 0.0
C4824 C 0.69712 0.41216 0.11211 0.0
H4825 H 0.70344 0.43894 0.09335 0.0
H4826 H 0.69063 0.41869 0.09308 0.0
C4827 C 0.70524 0.41523 0.12278 0.0
C4828 C 0.29906 0.9502 0.8645 0.0
C4829 C 0.28654 0.94446 0.86531 0.0
H4830 H 0.31965 0.947 0.86141 0.0
C4831 C 0.28507 0.93114 0.86214 0.0
H4832 H 0.30047 0.96045 0.86687 0.0
C4833 C 0.29593 0.92353 0.859 0.0
C4834 C 0.30858 0.929 0.85897 0.0
H4835 H 0.27551 0.92652 0.86237 0.0
H4836 H 0.29446 0.91322 0.8569 0.0
C4837 C 0.31002 0.94252 0.86136 0.0
C4838 C 0.20595 0.05199 0.38118 0.0
C4839 C 0.20983 0.04313 0.37145 0.0
H4840 H 0.19371 0.0681 0.38638 0.0
C4841 C 0.20364 0.04366 0.35921 0.0
H4842 H 0.21035 0.05166 0.39079 0.0
C4843 C 0.19413 0.05321 0.35662 0.0
C4844 C 0.19059 0.06237 0.36624 0.0
H4845 H 0.20648 0.03701 0.3515 0.0
H4846 H 0.18988 0.05369 0.34696 0.0
C4847 C 0.19644 0.06145 0.37863 0.0
C4848 C 0.3783 0.20406 0.45101 0.0
C4849 C 0.38738 0.20422 0.46133 0.0
H4850 H 0.37336 0.19648 0.43217 0.0
C4851 C 0.39931 0.1975 0.4598 0.0
H4852 H 0.36914 0.20935 0.45175 0.0
C4853 C 0.40175 0.19017 0.44854 0.0
C4854 C 0.3923 0.18937 0.43859 0.0
H4855 H 0.40647 0.1973 0.4676 0.0
H4856 H 0.41072 0.18454 0.44795 0.0
C4857 C 0.38073 0.19672 0.43978 0.0
C4858 C 0.55866 0.65372 0.18923 0.0
C4859 C 0.55249 0.64296 0.19523 0.0
H4860 H 0.56902 0.66092 0.17258 0.0
C4861 C 0.55069 0.63141 0.18795 0.0
H4862 H 0.56 0.66286 0.19446 0.0
C4863 C 0.55567 0.63038 0.17532 0.0
C4864 C 0.56265 0.64084 0.16967 0.0
H4865 H 0.54604 0.6229 0.19223 0.0
H4866 H 0.55446 0.6212 0.17015 0.0
C4867 C 0.5637 0.65267 0.17661 0.0
C4868 C 0.11935 0.7955 0.94602 0.0
C4869 C 0.11686 0.79818 0.95924 0.0
H4870 H 0.11896 0.80271 0.92638 0.0
C4871 C 0.111 0.8102 0.96254 0.0
H4872 H 0.12393 0.7864 0.94312 0.0
C4873 C 0.10829 0.81954 0.953 0.0
C4874 C 0.11123 0.81708 0.93987 0.0
H4875 H 0.10862 0.81247 0.97257 0.0
H4876 H 0.10398 0.82878 0.95591 0.0
C4877 C 0.11652 0.80485 0.93642 0.0
C4878 C 0.9515 0.35838 0.67924 0.0
C4879 C 0.94336 0.35743 0.69024 0.0
H4880 H 0.95246 0.36044 0.6584 0.0
C4881 C 0.9297 0.35765 0.6885 0.0
H4882 H 0.96207 0.35821 0.68031 0.0
C4883 C 0.92428 0.35902 0.67611 0.0
C4884 C 0.93237 0.3601 0.66513 0.0
H4885 H 0.92317 0.35709 0.69679 0.0
H4886 H 0.91371 0.35934 0.67512 0.0
C4887 C 0.94604 0.35957 0.66674 0.0
C4888 C 0.38875 0.80099 0.04321 0.0
C4889 C 0.39005 0.80627 0.03063 0.0
H4890 H 0.38984 0.80466 0.0638 0.0
C4891 C 0.39507 0.81903 0.02924 0.0
H4892 H 0.38491 0.79118 0.04456 0.0
C4893 C 0.39789 0.82666 0.04015 0.0
C4894 C 0.39578 0.82175 0.05274 0.0
H4895 H 0.39648 0.82325 0.01966 0.0
H4896 H 0.40137 0.8366 0.03873 0.0
C4897 C 0.39159 0.80868 0.0542 0.0
C4898 C 0.94066 0.64069 0.81359 0.0
C4899 C 0.95415 0.64354 0.81388 0.0
H4900 H 0.92296 0.63834 0.82444 0.0
C4901 C 0.96007 0.64652 0.82592 0.0
H4902 H 0.93579 0.63819 0.80454 0.0
C4903 C 0.95269 0.64647 0.83741 0.0
C4904 C 0.93927 0.64334 0.83711 0.0
H4905 H 0.97042 0.64887 0.82646 0.0
H4906 H 0.95757 0.64854 0.84657 0.0
C4907 C 0.93332 0.64062 0.82504 0.0
C4908 C 0.10722 0.18044 0.53492 0.0
C4909 C 0.1138 0.19251 0.53615 0.0
H4910 H 0.09935 0.16364 0.54459 0.0
C4911 C 0.11629 0.19748 0.5487 0.0
H4912 H 0.10488 0.17649 0.5254 0.0
C4913 C 0.11306 0.19009 0.55976 0.0
C4914 C 0.10729 0.17762 0.55843 0.0
H4915 H 0.12135 0.20674 0.54994 0.0
H4916 H 0.11572 0.1938 0.56929 0.0
C4917 C 0.10403 0.17309 0.54591 0.0
C4918 C 0.55286 0.36808 0.31554 0.0
C4919 C 0.55453 0.35677 0.30789 0.0
H4920 H 0.55684 0.3777 0.33365 0.0
C4921 C 0.56075 0.34583 0.31349 0.0
H4922 H 0.54819 0.37671 0.31156 0.0
C4923 C 0.56591 0.34647 0.32611 0.0
C4924 C 0.56493 0.35807 0.33345 0.0
H4925 H 0.56199 0.33688 0.30796 0.0
H4926 H 0.57122 0.3381 0.32984 0.0
C4927 C 0.55798 0.3687 0.32817 0.0
C4928 C 0.44751 0.38993 0.21056 0.0
C4929 C 0.46085 0.39174 0.20757 0.0
H4930 H 0.42762 0.39111 0.20379 0.0
C4931 C 0.46417 0.39735 0.19551 0.0
H4932 H 0.4446 0.38557 0.21972 0.0
C4933 C 0.45448 0.4004 0.18639 0.0
C4934 C 0.44121 0.39805 0.18914 0.0
H4935 H 0.47431 0.39921 0.193 0.0
H4936 H 0.4574 0.40443 0.17708 0.0
C4937 C 0.43778 0.39309 0.20144 0.0
C4938 C 0.35801 0.67452 0.96085 0.0
C4939 C 0.36219 0.68624 0.95495 0.0
H4940 H 0.35497 0.65379 0.95865 0.0
C4941 C 0.36641 0.6859 0.94194 0.0
H4942 H 0.35463 0.67449 0.97084 0.0
C4943 C 0.36656 0.67415 0.93501 0.0
C4944 C 0.36251 0.6624 0.94089 0.0
H4945 H 0.36986 0.69471 0.93714 0.0
H4946 H 0.36986 0.67428 0.92499 0.0
C4947 C 0.35809 0.66271 0.95385 0.0
C4948 C 0.03983 0.6047 0.69519 0.0
C4949 C 0.03885 0.61683 0.70167 0.0
H4950 H 0.0509 0.59277 0.682 0.0
C4951 C 0.0494 0.62569 0.70086 0.0
H4952 H 0.03185 0.5977 0.69552 0.0
C4953 C 0.06023 0.62289 0.69306 0.0
C4954 C 0.06083 0.61114 0.68594 0.0
H4955 H 0.0491 0.63499 0.70594 0.0
H4956 H 0.06798 0.63013 0.69226 0.0
C4957 C 0.05074 0.60187 0.68743 0.0
C4958 C 0.14367 0.30893 0.44428 0.0
C4959 C 0.14467 0.30991 0.45791 0.0
H4960 H 0.14249 0.319 0.42608 0.0
C4961 C 0.14569 0.32245 0.46357 0.0
H4962 H 0.14269 0.29947 0.43958 0.0
C4963 C 0.14546 0.33372 0.45577 0.0
C4964 C 0.1441 0.33268 0.44218 0.0
H4965 H 0.14659 0.32354 0.47402 0.0
H4966 H 0.14595 0.34325 0.46041 0.0
C4967 C 0.1434 0.32015 0.43653 0.0
C4968 C 0.45292 0.60426 0.29893 0.0
C4969 C 0.45907 0.61661 0.29882 0.0
H4970 H 0.43919 0.59154 0.30846 0.0
C4971 C 0.45522 0.62604 0.30801 0.0
H4972 H 0.45574 0.59677 0.29201 0.0
C4973 C 0.44574 0.62309 0.31735 0.0
C4974 C 0.4399 0.6106 0.31781 0.0
H4975 H 0.45957 0.63574 0.30801 0.0
H4976 H 0.44301 0.63064 0.32425 0.0
C4977 C 0.44344 0.60128 0.30835 0.0
C4978 C 0.15257 0.69518 0.07091 0.0
C4979 C 0.14983 0.69652 0.05755 0.0
H4980 H 0.15391 0.68228 0.08726 0.0
C4981 C 0.14701 0.6852 0.05021 0.0
H4982 H 0.15461 0.7037 0.07689 0.0
C4983 C 0.14664 0.67286 0.0562 0.0
C4984 C 0.14888 0.67167 0.06966 0.0
H4985 H 0.14493 0.68591 0.03989 0.0
H4986 H 0.14409 0.66434 0.05042 0.0
C4987 C 0.15207 0.68292 0.07689 0.0
C4988 C 0.053 0.38613 0.79117 0.0
C4989 C 0.03958 0.38805 0.79365 0.0
H4990 H 0.07259 0.38685 0.79878 0.0
C4991 C 0.03584 0.39335 0.80574 0.0
H4992 H 0.05622 0.38198 0.78201 0.0
C4993 C 0.04518 0.39603 0.81533 0.0
C4994 C 0.05852 0.39358 0.81306 0.0
H4995 H 0.02563 0.39528 0.80787 0.0
H4996 H 0.04194 0.39986 0.82462 0.0
C4997 C 0.06238 0.3889 0.80077 0.0
C4998 C 0.35754 0.32658 0.5435 0.0
C4999 C 0.36163 0.3146 0.54891 0.0
H5000 H 0.3546 0.34719 0.54655 0.0
C5001 C 0.36557 0.31432 0.56204 0.0
H5002 H 0.35433 0.3271 0.53345 0.0
C5003 C 0.36563 0.32575 0.56951 0.0
C5004 C 0.36178 0.33778 0.56407 0.0
H5005 H 0.36893 0.30532 0.56649 0.0
H5006 H 0.36878 0.32516 0.57957 0.0
C5007 C 0.35756 0.33805 0.55103 0.0
C5008 C 0.19926 0.453 0.38819 0.0
C5009 C 0.19468 0.46567 0.39105 0.0
H5010 H 0.19516 0.43234 0.38857 0.0
C5011 C 0.1829 0.467 0.39801 0.0
H5012 H 0.20829 0.45166 0.38283 0.0
C5013 C 0.17543 0.45602 0.40126 0.0
C5014 C 0.17956 0.4434 0.39767 0.0
H5015 H 0.17926 0.47661 0.40063 0.0
H5016 H 0.1662 0.45743 0.40626 0.0
C5017 C 0.19176 0.44195 0.39149 0.0
C5018 C 0.69502 0.04331 0.60566 0.0
C5019 C 0.69959 0.04099 0.6184 0.0
H5020 H 0.6832 0.0554 0.59322 0.0
C5021 C 0.6967 0.05018 0.62818 0.0
H5022 H 0.69698 0.03639 0.59791 0.0
C5023 C 0.68875 0.06097 0.6255 0.0
C5024 C 0.68356 0.06289 0.61296 0.0
H5025 H 0.7003 0.04887 0.63802 0.0
H5026 H 0.68637 0.06766 0.63335 0.0
C5027 C 0.68711 0.05419 0.60296 0.0
C5028 C 0.67598 0.9554 0.37219 0.0
C5029 C 0.68463 0.95494 0.36155 0.0
H5030 H 0.65805 0.94844 0.38052 0.0
C5031 C 0.68119 0.94734 0.35063 0.0
H5032 H 0.67838 0.96108 0.38079 0.0
C5033 C 0.66957 0.94004 0.35051 0.0
C5034 C 0.66116 0.94013 0.36133 0.0
H5035 H 0.68757 0.9469 0.34223 0.0
H5036 H 0.66741 0.93397 0.34211 0.0
C5037 C 0.6644 0.94806 0.37209 0.0
C5038 C 0.80903 0.96591 0.10907 0.0
C5039 C 0.79685 0.96239 0.11446 0.0
H5040 H 0.82773 0.95944 0.10223 0.0
C5041 C 0.79404 0.94902 0.11633 0.0
H5042 H 0.81141 0.97608 0.10719 0.0
C5043 C 0.8034 0.93944 0.11335 0.0
C5044 C 0.81577 0.94306 0.10851 0.0
H5045 H 0.78481 0.94596 0.12054 0.0
H5046 H 0.80114 0.92926 0.11533 0.0
C5047 C 0.81838 0.95637 0.10619 0.0
C5048 C 0.32516 0.53783 0.35806 0.0
C5049 C 0.313 0.54357 0.36102 0.0
H5050 H 0.34596 0.54062 0.35627 0.0
C5051 C 0.31263 0.55698 0.36413 0.0
H5052 H 0.32576 0.52754 0.35553 0.0
C5053 C 0.32411 0.56442 0.36451 0.0
C5054 C 0.3363 0.55867 0.36178 0.0
H5055 H 0.30347 0.5617 0.36662 0.0
H5056 H 0.32345 0.57471 0.36704 0.0
C5057 C 0.3367 0.54533 0.35836 0.0
C5058 C 0.30731 0.53483 0.89454 0.0
C5059 C 0.29491 0.53851 0.8898 0.0
H5060 H 0.32636 0.54108 0.90074 0.0
C5061 C 0.29208 0.55194 0.8885 0.0
H5062 H 0.30972 0.5246 0.89598 0.0
C5063 C 0.30162 0.56142 0.89137 0.0
C5064 C 0.3142 0.55765 0.89553 0.0
H5065 H 0.28267 0.55513 0.88479 0.0
H5066 H 0.29933 0.57166 0.88981 0.0
C5067 C 0.31684 0.54427 0.89732 0.0
C5068 C 0.68668 0.0553 0.13239 0.0
C5069 C 0.69368 0.05565 0.14419 0.0
H5070 H 0.66901 0.06028 0.12229 0.0
C5071 C 0.68743 0.06062 0.15535 0.0
H5072 H 0.69119 0.05164 0.12358 0.0
C5073 C 0.67474 0.06575 0.15457 0.0
C5074 C 0.66802 0.06604 0.14261 0.0
H5075 H 0.69246 0.06085 0.16464 0.0
H5076 H 0.67045 0.07003 0.16322 0.0
C5077 C 0.67401 0.06042 0.13161 0.0
C5078 C 0.82543 0.96129 0.62973 0.0
C5079 C 0.81649 0.96065 0.64011 0.0
H5080 H 0.8436 0.95457 0.6218 0.0
C5081 C 0.81966 0.95295 0.65103 0.0
H5082 H 0.82325 0.96705 0.62114 0.0
C5083 C 0.8313 0.94575 0.65138 0.0
C5084 C 0.84 0.94602 0.64079 0.0
H5085 H 0.81305 0.95237 0.65925 0.0
H5086 H 0.83326 0.9396 0.65975 0.0
C5087 C 0.83703 0.95404 0.63006 0.0
loop_
_geom_bond_atom_site_label_1
_geom_bond_atom_site_label_2
_geom_bond_distance
_geom_bond_site_symmetry_2
_ccdc_geom_bond_type
C0 C1 1.264 . S
C0 C5 1.479 . S
C0 C10 1.465 . S
C1 C0 1.264 . S
C1 C3 1.339 . S
C1 H28 0.931 . S
C2 C3 1.395 . S
C2 C4 1.320 . S
C3 C1 1.339 . S
C3 C2 1.395 . S
C3 H29 0.929 . S
C4 C2 1.320 . S
C4 C5 1.405 . S
C4 H30 0.930 . S
C5 C0 1.479 . S
C5 C4 1.405 . S
C5 H31 0.931 . S
U6 O7 2.454 . S
U6 O8 2.458 . S
U6 C9 2.984 . S
U6 C10 2.847 1_455 S
U6 C23 2.882 . S
U6 O24 2.441 1_455 S
U6 O25 2.420 1_455 S
U6 O26 2.455 . S
U6 O27 2.449 . S
O7 U6 2.454 . S
O7 C9 1.353 . S
O8 U6 2.458 . S
O8 C9 1.286 . S
C9 U6 2.984 . S
C9 O7 1.353 . S
C9 O8 1.286 . S
C9 C11 1.363 . S
C10 C0 1.465 . S
C10 U6 2.847 1_655 S
C10 O24 1.249 . S
C10 O25 1.202 . S
C11 C9 1.363 . S
C11 C13 1.408 . S
C11 C16 1.342 . S
C12 C13 1.310 . S
C12 C15 1.461 . S
C12 H32 0.932 . S
C13 C11 1.408 . S
C13 C12 1.310 . S
C13 H33 0.930 . S
C14 C15 1.474 . S
C14 C16 1.285 . S
C14 H34 0.929 . S
C15 C12 1.461 . S
C15 C14 1.474 . S
C16 C11 1.342 . S
C16 C14 1.285 . S
C16 H35 0.930 . S
C17 C20 1.424 . S
C17 C22 1.245 . S
C17 C23 1.428 . S
C18 C21 1.260 . S
C18 C22 1.477 . S
C18 H36 0.932 . S
C19 C20 1.384 . S
C19 C21 1.479 . S
C19 H37 0.929 . S
C20 C17 1.424 . S
C20 C19 1.384 . S
C20 H38 0.928 . S
C21 C18 1.260 . S
C21 C19 1.479 . S
C22 C17 1.245 . S
C22 C18 1.477 . S
C22 H39 0.932 . S
C23 U6 2.882 . S
C23 C17 1.428 . S
C23 O26 1.301 . S
C23 O27 1.282 . S
O24 U6 2.441 1_655 S
O24 C10 1.249 . S
O25 U6 2.420 1_655 S
O25 C10 1.202 . S
O26 U6 2.455 . S
O26 C23 1.301 . S
O27 U6 2.449 . S
O27 C23 1.282 . S
H28 C1 0.931 . S
H29 C3 0.929 . S
H30 C4 0.930 . S
H31 C5 0.931 . S
H32 C12 0.932 . S
H33 C13 0.930 . S
H34 C14 0.929 . S
H35 C16 0.930 . S
H36 C18 0.932 . S
H37 C19 0.929 . S
H38 C20 0.928 . S
H39 C22 0.932 . S
C40 C41 1.264 . S
C40 C45 1.479 . S
C40 C50 1.465 . S
C41 C40 1.264 . S
C41 C43 1.339 . S
C41 H68 0.931 . S
C42 C43 1.395 . S
C42 C44 1.320 . S
C43 C41 1.339 . S
C43 C42 1.395 . S
C43 H69 0.929 . S
C44 C42 1.320 . S
C44 C45 1.405 . S
C44 H70 0.930 . S
C45 C40 1.479 . S
C45 C44 1.405 . S
C45 H71 0.931 . S
U46 O47 2.454 . S
U46 O48 2.458 . S
U46 C49 2.984 . S
U46 C50 2.847 . S
U46 C63 2.882 . S
U46 O64 2.441 . S
U46 O65 2.420 . S
U46 O66 2.455 . S
U46 O67 2.449 . S
O47 U46 2.454 . S
O47 C49 1.353 . S
O48 U46 2.458 . S
O48 C49 1.286 . S
C49 U46 2.984 . S
C49 O47 1.353 . S
C49 O48 1.286 . S
C49 C51 1.363 . S
C50 C40 1.465 . S
C50 U46 2.847 . S
C50 O64 1.249 . S
C50 O65 1.202 . S
C51 C49 1.363 . S
C51 C53 1.408 . S
C51 C56 1.342 . S
C52 C53 1.310 . S
C52 C55 1.461 . S
C52 H72 0.932 . S
C53 C51 1.408 . S
C53 C52 1.310 . S
C53 H73 0.930 . S
C54 C55 1.474 . S
C54 C56 1.285 . S
C54 H74 0.929 . S
C55 C52 1.461 . S
C55 C54 1.474 . S
C56 C51 1.342 . S
C56 C54 1.285 . S
C56 H75 0.930 . S
C57 C60 1.424 . S
C57 C62 1.245 . S
C57 C63 1.428 . S
C58 C61 1.260 . S
C58 C62 1.477 . S
C58 H76 0.932 . S
C59 C60 1.384 . S
C59 C61 1.479 . S
C59 H77 0.929 . S
C60 C57 1.424 . S
C60 C59 1.384 . S
C60 H78 0.928 . S
C61 C58 1.260 . S
C61 C59 1.479 . S
C62 C57 1.245 . S
C62 C58 1.477 . S
C62 H79 0.932 . S
C63 U46 2.882 . S
C63 C57 1.428 . S
C63 O66 1.301 . S
C63 O67 1.282 . S
O64 U46 2.441 . S
O64 C50 1.249 . S
O65 U46 2.420 . S
O65 C50 1.202 . S
O66 U46 2.455 . S
O66 C63 1.301 . S
O67 U46 2.449 . S
O67 C63 1.282 . S
H68 C41 0.931 . S
H69 C43 0.929 . S
H70 C44 0.930 . S
H71 C45 0.931 . S
H72 C52 0.932 . S
H73 C53 0.930 . S
H74 C54 0.929 . S
H75 C56 0.930 . S
H76 C58 0.932 . S
H77 C59 0.929 . S
H78 C60 0.928 . S
H79 C62 0.932 . S
C80 C81 1.264 . S
C80 C85 1.479 . S
C80 C90 1.465 . S
C81 C80 1.264 . S
C81 C83 1.339 . S
C81 H108 0.931 . S
C82 C83 1.395 . S
C82 C84 1.320 . S
C83 C81 1.339 . S
C83 C82 1.395 . S
C83 H109 0.929 . S
C84 C82 1.320 . S
C84 C85 1.405 . S
C84 H110 0.930 . S
C85 C80 1.479 . S
C85 C84 1.405 . S
C85 H111 0.931 . S
U86 O87 2.454 . S
U86 O88 2.458 . S
U86 C89 2.984 . S
U86 C90 2.847 . S
U86 C103 2.882 . S
U86 O104 2.441 . S
U86 O105 2.420 . S
U86 O106 2.455 . S
U86 O107 2.449 . S
O87 U86 2.454 . S
O87 C89 1.353 . S
O88 U86 2.458 . S
O88 C89 1.286 . S
C89 U86 2.984 . S
C89 O87 1.353 . S
C89 O88 1.286 . S
C89 C91 1.363 . S
C90 C80 1.465 . S
C90 U86 2.847 . S
C90 O104 1.249 . S
C90 O105 1.202 . S
C91 C89 1.363 . S
C91 C93 1.408 . S
C91 C96 1.342 . S
C92 C93 1.310 . S
C92 C95 1.461 . S
C92 H112 0.932 . S
C93 C91 1.408 . S
C93 C92 1.310 . S
C93 H113 0.930 . S
C94 C95 1.474 . S
C94 C96 1.285 . S
C94 H114 0.929 . S
C95 C92 1.461 . S
C95 C94 1.474 . S
C96 C91 1.342 . S
C96 C94 1.285 . S
C96 H115 0.930 . S
C97 C100 1.424 . S
C97 C102 1.245 . S
C97 C103 1.428 . S
C98 C101 1.260 . S
C98 C102 1.477 . S
C98 H116 0.932 . S
C99 C100 1.384 . S
C99 C101 1.479 . S
C99 H117 0.929 . S
C100 C97 1.424 . S
C100 C99 1.384 . S
C100 H118 0.928 . S
C101 C98 1.260 . S
C101 C99 1.479 . S
C102 C97 1.245 . S
C102 C98 1.477 . S
C102 H119 0.932 . S
C103 U86 2.882 . S
C103 C97 1.428 . S
C103 O106 1.301 . S
C103 O107 1.282 . S
O104 U86 2.441 . S
O104 C90 1.249 . S
O105 U86 2.420 . S
O105 C90 1.202 . S
O106 U86 2.455 . S
O106 C103 1.301 . S
O107 U86 2.449 . S
O107 C103 1.282 . S
H108 C81 0.931 . S
H109 C83 0.929 . S
H110 C84 0.930 . S
H111 C85 0.931 . S
H112 C92 0.932 . S
H113 C93 0.930 . S
H114 C94 0.929 . S
H115 C96 0.930 . S
H116 C98 0.932 . S
H117 C99 0.929 . S
H118 C100 0.928 . S
H119 C102 0.932 . S
C120 C121 1.264 . S
C120 C125 1.479 . S
C120 C130 1.465 . S
C121 C120 1.264 . S
C121 C123 1.339 . S
C121 H148 0.931 . S
C122 C123 1.395 . S
C122 C124 1.320 . S
C123 C121 1.339 . S
C123 C122 1.395 . S
C123 H149 0.929 . S
C124 C122 1.320 . S
C124 C125 1.405 . S
C124 H150 0.930 . S
C125 C120 1.479 . S
C125 C124 1.405 . S
C125 H151 0.931 . S
U126 O127 2.454 1_554 S
U126 O128 2.458 1_554 S
U126 C129 2.984 1_554 S
U126 C130 2.847 . S
U126 C143 2.882 . S
U126 O144 2.441 . S
U126 O145 2.420 . S
U126 O146 2.455 . S
U126 O147 2.449 . S
O127 U126 2.454 1_556 S
O127 C129 1.353 . S
O128 U126 2.458 1_556 S
O128 C129 1.286 . S
C129 U126 2.984 1_556 S
C129 O127 1.353 . S
C129 O128 1.286 . S
C129 C131 1.363 . S
C130 C120 1.465 . S
C130 U126 2.847 . S
C130 O144 1.249 . S
C130 O145 1.202 . S
C131 C129 1.363 . S
C131 C133 1.408 . S
C131 C136 1.342 . S
C132 C133 1.310 . S
C132 C135 1.461 . S
C132 H152 0.932 . S
C133 C131 1.408 . S
C133 C132 1.310 . S
C133 H153 0.930 . S
C134 C135 1.474 . S
C134 C136 1.285 . S
C134 H154 0.929 . S
C135 C132 1.461 . S
C135 C134 1.474 . S
C136 C131 1.342 . S
C136 C134 1.285 . S
C136 H155 0.930 . S
C137 C140 1.424 . S
C137 C142 1.245 . S
C137 C143 1.428 . S
C138 C141 1.260 . S
C138 C142 1.477 . S
C138 H156 0.932 . S
C139 C140 1.384 . S
C139 C141 1.479 . S
C139 H157 0.929 . S
C140 C137 1.424 . S
C140 C139 1.384 . S
C140 H158 0.928 . S
C141 C138 1.260 . S
C141 C139 1.479 . S
C142 C137 1.245 . S
C142 C138 1.477 . S
C142 H159 0.932 . S
C143 U126 2.882 . S
C143 C137 1.428 . S
C143 O146 1.301 . S
C143 O147 1.282 . S
O144 U126 2.441 . S
O144 C130 1.249 . S
O145 U126 2.420 . S
O145 C130 1.202 . S
O146 U126 2.455 . S
O146 C143 1.301 . S
O147 U126 2.449 . S
O147 C143 1.282 . S
H148 C121 0.931 . S
H149 C123 0.929 . S
H150 C124 0.930 . S
H151 C125 0.931 . S
H152 C132 0.932 . S
H153 C133 0.930 . S
H154 C134 0.929 . S
H155 C136 0.930 . S
H156 C138 0.932 . S
H157 C139 0.929 . S
H158 C140 0.928 . S
H159 C142 0.932 . S
C160 C161 1.264 . S
C160 C165 1.479 . S
C160 C170 1.465 . S
C161 C160 1.264 . S
C161 C163 1.339 . S
C161 H188 0.931 . S
C162 C163 1.395 . S
C162 C164 1.320 . S
C163 C161 1.339 . S
C163 C162 1.395 . S
C163 H189 0.929 . S
C164 C162 1.320 . S
C164 C165 1.405 . S
C164 H190 0.930 . S
C165 C160 1.479 . S
C165 C164 1.405 . S
C165 H191 0.931 . S
U166 O167 2.454 . S
U166 O168 2.458 . S
U166 C169 2.984 . S
U166 C170 2.847 1_455 S
U166 C183 2.882 . S
U166 O184 2.441 1_455 S
U166 O185 2.420 1_455 S
U166 O186 2.455 . S
U166 O187 2.449 . S
O167 U166 2.454 . S
O167 C169 1.353 . S
O168 U166 2.458 . S
O168 C169 1.286 . S
C169 U166 2.984 . S
C169 O167 1.353 . S
C169 O168 1.286 . S
C169 C171 1.363 . S
C170 C160 1.465 . S
C170 U166 2.847 1_655 S
C170 O184 1.249 . S
C170 O185 1.202 . S
C171 C169 1.363 . S
C171 C173 1.408 . S
C171 C176 1.342 . S
C172 C173 1.310 . S
C172 C175 1.461 . S
C172 H192 0.932 . S
C173 C171 1.408 . S
C173 C172 1.310 . S
C173 H193 0.930 . S
C174 C175 1.474 . S
C174 C176 1.285 . S
C174 H194 0.929 . S
C175 C172 1.461 . S
C175 C174 1.474 . S
C176 C171 1.342 . S
C176 C174 1.285 . S
C176 H195 0.930 . S
C177 C180 1.424 . S
C177 C182 1.245 . S
C177 C183 1.428 . S
C178 C181 1.260 . S
C178 C182 1.477 . S
C178 H196 0.932 . S
C179 C180 1.384 . S
C179 C181 1.479 . S
C179 H197 0.929 . S
C180 C177 1.424 . S
C180 C179 1.384 . S
C180 H198 0.928 . S
C181 C178 1.260 . S
C181 C179 1.479 . S
C182 C177 1.245 . S
C182 C178 1.477 . S
C182 H199 0.932 . S
C183 U166 2.882 . S
C183 C177 1.428 . S
C183 O186 1.301 . S
C183 O187 1.282 . S
O184 U166 2.441 1_655 S
O184 C170 1.249 . S
O185 U166 2.420 1_655 S
O185 C170 1.202 . S
O186 U166 2.455 . S
O186 C183 1.301 . S
O187 U166 2.449 . S
O187 C183 1.282 . S
H188 C161 0.931 . S
H189 C163 0.929 . S
H190 C164 0.930 . S
H191 C165 0.931 . S
H192 C172 0.932 . S
H193 C173 0.930 . S
H194 C174 0.929 . S
H195 C176 0.930 . S
H196 C178 0.932 . S
H197 C179 0.929 . S
H198 C180 0.928 . S
H199 C182 0.932 . S
C200 C201 1.264 . S
C200 C205 1.479 . S
C200 C210 1.465 . S
C201 C200 1.264 . S
C201 C203 1.339 . S
C201 H228 0.931 . S
C202 C203 1.395 . S
C202 C204 1.320 . S
C203 C201 1.339 . S
C203 C202 1.395 . S
C203 H229 0.929 . S
C204 C202 1.320 . S
C204 C205 1.405 . S
C204 H230 0.930 . S
C205 C200 1.479 . S
C205 C204 1.405 . S
C205 H231 0.931 . S
U206 O207 2.454 . S
U206 O208 2.458 . S
U206 C209 2.984 . S
U206 C210 2.847 . S
U206 C223 2.882 . S
U206 O224 2.441 . S
U206 O225 2.420 . S
U206 O226 2.455 . S
U206 O227 2.449 . S
O207 U206 2.454 . S
O207 C209 1.353 . S
O208 U206 2.458 . S
O208 C209 1.286 . S
C209 U206 2.984 . S
C209 O207 1.353 . S
C209 O208 1.286 . S
C209 C211 1.363 . S
C210 C200 1.465 . S
C210 U206 2.847 . S
C210 O224 1.249 . S
C210 O225 1.202 . S
C211 C209 1.363 . S
C211 C213 1.408 . S
C211 C216 1.342 . S
C212 C213 1.310 . S
C212 C215 1.461 . S
C212 H232 0.932 . S
C213 C211 1.408 . S
C213 C212 1.310 . S
C213 H233 0.930 . S
C214 C215 1.474 . S
C214 C216 1.285 . S
C214 H234 0.929 . S
C215 C212 1.461 . S
C215 C214 1.474 . S
C216 C211 1.342 . S
C216 C214 1.285 . S
C216 H235 0.930 . S
C217 C220 1.424 . S
C217 C222 1.245 . S
C217 C223 1.428 . S
C218 C221 1.260 . S
C218 C222 1.477 . S
C218 H236 0.932 . S
C219 C220 1.384 . S
C219 C221 1.479 . S
C219 H237 0.929 . S
C220 C217 1.424 . S
C220 C219 1.384 . S
C220 H238 0.928 . S
C221 C218 1.260 . S
C221 C219 1.479 . S
C222 C217 1.245 . S
C222 C218 1.477 . S
C222 H239 0.932 . S
C223 U206 2.882 . S
C223 C217 1.428 . S
C223 O226 1.301 . S
C223 O227 1.282 . S
O224 U206 2.441 . S
O224 C210 1.249 . S
O225 U206 2.420 . S
O225 C210 1.202 . S
O226 U206 2.455 . S
O226 C223 1.301 . S
O227 U206 2.449 . S
O227 C223 1.282 . S
H228 C201 0.931 . S
H229 C203 0.929 . S
H230 C204 0.930 . S
H231 C205 0.931 . S
H232 C212 0.932 . S
H233 C213 0.930 . S
H234 C214 0.929 . S
H235 C216 0.930 . S
H236 C218 0.932 . S
H237 C219 0.929 . S
H238 C220 0.928 . S
H239 C222 0.932 . S
C240 C241 1.264 . S
C240 C245 1.479 . S
C240 C250 1.465 . S
C241 C240 1.264 . S
C241 C243 1.339 . S
C241 H268 0.931 . S
C242 C243 1.395 . S
C242 C244 1.320 . S
C243 C241 1.339 . S
C243 C242 1.395 . S
C243 H269 0.929 . S
C244 C242 1.320 . S
C244 C245 1.405 . S
C244 H270 0.930 . S
C245 C240 1.479 . S
C245 C244 1.405 . S
C245 H271 0.931 . S
U246 O247 2.454 . S
U246 O248 2.458 . S
U246 C249 2.984 . S
U246 C250 2.847 . S
U246 C263 2.882 . S
U246 O264 2.441 . S
U246 O265 2.420 . S
U246 O266 2.455 . S
U246 O267 2.449 . S
O247 U246 2.454 . S
O247 C249 1.353 . S
O248 U246 2.458 . S
O248 C249 1.286 . S
C249 U246 2.984 . S
C249 O247 1.353 . S
C249 O248 1.286 . S
C249 C251 1.363 . S
C250 C240 1.465 . S
C250 U246 2.847 . S
C250 O264 1.249 . S
C250 O265 1.202 . S
C251 C249 1.363 . S
C251 C253 1.408 . S
C251 C256 1.342 . S
C252 C253 1.310 . S
C252 C255 1.461 . S
C252 H272 0.932 . S
C253 C251 1.408 . S
C253 C252 1.310 . S
C253 H273 0.930 . S
C254 C255 1.474 . S
C254 C256 1.285 . S
C254 H274 0.929 . S
C255 C252 1.461 . S
C255 C254 1.474 . S
C256 C251 1.342 . S
C256 C254 1.285 . S
C256 H275 0.930 . S
C257 C260 1.424 . S
C257 C262 1.245 . S
C257 C263 1.428 . S
C258 C261 1.260 . S
C258 C262 1.477 . S
C258 H276 0.932 . S
C259 C260 1.384 . S
C259 C261 1.479 . S
C259 H277 0.929 . S
C260 C257 1.424 . S
C260 C259 1.384 . S
C260 H278 0.928 . S
C261 C258 1.260 . S
C261 C259 1.479 . S
C262 C257 1.245 . S
C262 C258 1.477 . S
C262 H279 0.932 . S
C263 U246 2.882 . S
C263 C257 1.428 . S
C263 O266 1.301 . S
C263 O267 1.282 . S
O264 U246 2.441 . S
O264 C250 1.249 . S
O265 U246 2.420 . S
O265 C250 1.202 . S
O266 U246 2.455 . S
O266 C263 1.301 . S
O267 U246 2.449 . S
O267 C263 1.282 . S
H268 C241 0.931 . S
H269 C243 0.929 . S
H270 C244 0.930 . S
H271 C245 0.931 . S
H272 C252 0.932 . S
H273 C253 0.930 . S
H274 C254 0.929 . S
H275 C256 0.930 . S
H276 C258 0.932 . S
H277 C259 0.929 . S
H278 C260 0.928 . S
H279 C262 0.932 . S
C280 C281 1.264 . S
C280 C285 1.479 . S
C280 C290 1.465 . S
C281 C280 1.264 . S
C281 C283 1.339 . S
C281 H308 0.931 . S
C282 C283 1.395 . S
C282 C284 1.320 . S
C283 C281 1.339 . S
C283 C282 1.395 . S
C283 H309 0.929 . S
C284 C282 1.320 . S
C284 C285 1.405 . S
C284 H310 0.930 . S
C285 C280 1.479 . S
C285 C284 1.405 . S
C285 H311 0.931 . S
U286 O287 2.454 . S
U286 O288 2.458 . S
U286 C289 2.984 . S
U286 C290 2.847 1_556 S
U286 C303 2.882 . S
U286 O304 2.441 1_556 S
U286 O305 2.420 1_556 S
U286 O306 2.455 . S
U286 O307 2.449 . S
O287 U286 2.454 . S
O287 C289 1.353 . S
O288 U286 2.458 . S
O288 C289 1.286 . S
C289 U286 2.984 . S
C289 O287 1.353 . S
C289 O288 1.286 . S
C289 C291 1.363 . S
C290 C280 1.465 . S
C290 U286 2.847 1_554 S
C290 O304 1.249 . S
C290 O305 1.202 . S
C291 C289 1.363 . S
C291 C293 1.408 . S
C291 C296 1.342 . S
C292 C293 1.310 . S
C292 C295 1.461 . S
C292 H312 0.932 . S
C293 C291 1.408 . S
C293 C292 1.310 . S
C293 H313 0.930 . S
C294 C295 1.474 . S
C294 C296 1.285 . S
C294 H314 0.929 . S
C295 C292 1.461 . S
C295 C294 1.474 . S
C296 C291 1.342 . S
C296 C294 1.285 . S
C296 H315 0.930 . S
C297 C300 1.424 . S
C297 C302 1.245 . S
C297 C303 1.428 . S
C298 C301 1.260 . S
C298 C302 1.477 . S
C298 H316 0.932 . S
C299 C300 1.384 . S
C299 C301 1.479 . S
C299 H317 0.929 . S
C300 C297 1.424 . S
C300 C299 1.384 . S
C300 H318 0.928 . S
C301 C298 1.260 . S
C301 C299 1.479 . S
C302 C297 1.245 . S
C302 C298 1.477 . S
C302 H319 0.932 . S
C303 U286 2.882 . S
C303 C297 1.428 . S
C303 O306 1.301 . S
C303 O307 1.282 . S
O304 U286 2.441 1_554 S
O304 C290 1.249 . S
O305 U286 2.420 1_554 S
O305 C290 1.202 . S
O306 U286 2.455 . S
O306 C303 1.301 . S
O307 U286 2.449 . S
O307 C303 1.282 . S
H308 C281 0.931 . S
H309 C283 0.929 . S
H310 C284 0.930 . S
H311 C285 0.931 . S
H312 C292 0.932 . S
H313 C293 0.930 . S
H314 C294 0.929 . S
H315 C296 0.930 . S
H316 C298 0.932 . S
H317 C299 0.929 . S
H318 C300 0.928 . S
H319 C302 0.932 . S
C320 C321 1.264 . S
C320 C325 1.479 . S
C320 C330 1.465 . S
C321 C320 1.264 . S
C321 C323 1.339 . S
C321 H348 0.931 . S
C322 C323 1.395 . S
C322 C324 1.320 . S
C323 C321 1.339 . S
C323 C322 1.395 . S
C323 H349 0.929 . S
C324 C322 1.320 . S
C324 C325 1.405 . S
C324 H350 0.930 . S
C325 C320 1.479 . S
C325 C324 1.405 . S
C325 H351 0.931 . S
U326 O327 2.454 1_545 S
U326 O328 2.458 1_545 S
U326 C329 2.984 1_545 S
U326 C330 2.847 . S
U326 C343 2.882 . S
U326 O344 2.441 . S
U326 O345 2.420 . S
U326 O346 2.455 . S
U326 O347 2.449 . S
O327 U326 2.454 1_565 S
O327 C329 1.353 . S
O328 U326 2.458 1_565 S
O328 C329 1.286 . S
C329 U326 2.984 1_565 S
C329 O327 1.353 . S
C329 O328 1.286 . S
C329 C331 1.363 . S
C330 C320 1.465 . S
C330 U326 2.847 . S
C330 O344 1.249 . S
C330 O345 1.202 . S
C331 C329 1.363 . S
C331 C333 1.408 . S
C331 C336 1.342 . S
C332 C333 1.310 . S
C332 C335 1.461 . S
C332 H352 0.932 . S
C333 C331 1.408 . S
C333 C332 1.310 . S
C333 H353 0.930 . S
C334 C335 1.474 . S
C334 C336 1.285 . S
C334 H354 0.929 . S
C335 C332 1.461 . S
C335 C334 1.474 . S
C336 C331 1.342 . S
C336 C334 1.285 . S
C336 H355 0.930 . S
C337 C340 1.424 . S
C337 C342 1.245 . S
C337 C343 1.428 . S
C338 C341 1.260 . S
C338 C342 1.477 . S
C338 H356 0.932 . S
C339 C340 1.384 . S
C339 C341 1.479 . S
C339 H357 0.929 . S
C340 C337 1.424 . S
C340 C339 1.384 . S
C340 H358 0.928 . S
C341 C338 1.260 . S
C341 C339 1.479 . S
C342 C337 1.245 . S
C342 C338 1.477 . S
C342 H359 0.932 . S
C343 U326 2.882 . S
C343 C337 1.428 . S
C343 O346 1.301 . S
C343 O347 1.282 . S
O344 U326 2.441 . S
O344 C330 1.249 . S
O345 U326 2.420 . S
O345 C330 1.202 . S
O346 U326 2.455 . S
O346 C343 1.301 . S
O347 U326 2.449 . S
O347 C343 1.282 . S
H348 C321 0.931 . S
H349 C323 0.929 . S
H350 C324 0.930 . S
H351 C325 0.931 . S
H352 C332 0.932 . S
H353 C333 0.930 . S
H354 C334 0.929 . S
H355 C336 0.930 . S
H356 C338 0.932 . S
H357 C339 0.929 . S
H358 C340 0.928 . S
H359 C342 0.932 . S
C360 C361 1.264 . S
C360 C365 1.479 . S
C360 C370 1.465 . S
C361 C360 1.264 . S
C361 C363 1.339 . S
C361 H388 0.931 . S
C362 C363 1.395 . S
C362 C364 1.320 . S
C363 C361 1.339 . S
C363 C362 1.395 . S
C363 H389 0.929 . S
C364 C362 1.320 . S
C364 C365 1.405 . S
C364 H390 0.930 . S
C365 C360 1.479 . S
C365 C364 1.405 . S
C365 H391 0.931 . S
U366 O367 2.454 . S
U366 O368 2.458 . S
U366 C369 2.984 . S
U366 C370 2.847 1_545 S
U366 C383 2.882 . S
U366 O384 2.441 1_545 S
U366 O385 2.420 1_545 S
U366 O386 2.455 . S
U366 O387 2.449 . S
O367 U366 2.454 . S
O367 C369 1.353 . S
O368 U366 2.458 . S
O368 C369 1.286 . S
C369 U366 2.984 . S
C369 O367 1.353 . S
C369 O368 1.286 . S
C369 C371 1.363 . S
C370 C360 1.465 . S
C370 U366 2.847 1_565 S
C370 O384 1.249 . S
C370 O385 1.202 . S
C371 C369 1.363 . S
C371 C373 1.408 . S
C371 C376 1.342 . S
C372 C373 1.310 . S
C372 C375 1.461 . S
C372 H392 0.932 . S
C373 C371 1.408 . S
C373 C372 1.310 . S
C373 H393 0.930 . S
C374 C375 1.474 . S
C374 C376 1.285 . S
C374 H394 0.929 . S
C375 C372 1.461 . S
C375 C374 1.474 . S
C376 C371 1.342 . S
C376 C374 1.285 . S
C376 H395 0.930 . S
C377 C380 1.424 . S
C377 C382 1.245 . S
C377 C383 1.428 . S
C378 C381 1.260 . S
C378 C382 1.477 . S
C378 H396 0.932 . S
C379 C380 1.384 . S
C379 C381 1.479 . S
C379 H397 0.929 . S
C380 C377 1.424 . S
C380 C379 1.384 . S
C380 H398 0.928 . S
C381 C378 1.260 . S
C381 C379 1.479 . S
C382 C377 1.245 . S
C382 C378 1.477 . S
C382 H399 0.932 . S
C383 U366 2.882 . S
C383 C377 1.428 . S
C383 O386 1.301 . S
C383 O387 1.282 . S
O384 U366 2.441 1_565 S
O384 C370 1.249 . S
O385 U366 2.420 1_565 S
O385 C370 1.202 . S
O386 U366 2.455 . S
O386 C383 1.301 . S
O387 U366 2.449 . S
O387 C383 1.282 . S
H388 C361 0.931 . S
H389 C363 0.929 . S
H390 C364 0.930 . S
H391 C365 0.931 . S
H392 C372 0.932 . S
H393 C373 0.930 . S
H394 C374 0.929 . S
H395 C376 0.930 . S
H396 C378 0.932 . S
H397 C379 0.929 . S
H398 C380 0.928 . S
H399 C382 0.932 . S
C400 C401 1.264 . S
C400 C405 1.479 . S
C400 C410 1.465 . S
C401 C400 1.264 . S
C401 C403 1.339 . S
C401 H428 0.931 . S
C402 C403 1.395 . S
C402 C404 1.320 . S
C403 C401 1.339 . S
C403 C402 1.395 . S
C403 H429 0.929 . S
C404 C402 1.320 . S
C404 C405 1.405 . S
C404 H430 0.930 . S
C405 C400 1.479 . S
C405 C404 1.405 . S
C405 H431 0.931 . S
U406 O407 2.454 . S
U406 O408 2.458 . S
U406 C409 2.984 . S
U406 C410 2.847 1_565 S
U406 C423 2.882 . S
U406 O424 2.441 1_565 S
U406 O425 2.420 1_565 S
U406 O426 2.455 . S
U406 O427 2.449 . S
O407 U406 2.454 . S
O407 C409 1.353 . S
O408 U406 2.458 . S
O408 C409 1.286 . S
C409 U406 2.984 . S
C409 O407 1.353 . S
C409 O408 1.286 . S
C409 C411 1.363 . S
C410 C400 1.465 . S
C410 U406 2.847 1_545 S
C410 O424 1.249 . S
C410 O425 1.202 . S
C411 C409 1.363 . S
C411 C413 1.408 . S
C411 C416 1.342 . S
C412 C413 1.310 . S
C412 C415 1.461 . S
C412 H432 0.932 . S
C413 C411 1.408 . S
C413 C412 1.310 . S
C413 H433 0.930 . S
C414 C415 1.474 . S
C414 C416 1.285 . S
C414 H434 0.929 . S
C415 C412 1.461 . S
C415 C414 1.474 . S
C416 C411 1.342 . S
C416 C414 1.285 . S
C416 H435 0.930 . S
C417 C420 1.424 . S
C417 C422 1.245 . S
C417 C423 1.428 . S
C418 C421 1.260 . S
C418 C422 1.477 . S
C418 H436 0.932 . S
C419 C420 1.384 . S
C419 C421 1.479 . S
C419 H437 0.929 . S
C420 C417 1.424 . S
C420 C419 1.384 . S
C420 H438 0.928 . S
C421 C418 1.260 . S
C421 C419 1.479 . S
C422 C417 1.245 . S
C422 C418 1.477 . S
C422 H439 0.932 . S
C423 U406 2.882 . S
C423 C417 1.428 . S
C423 O426 1.301 . S
C423 O427 1.282 . S
O424 U406 2.441 1_545 S
O424 C410 1.249 . S
O425 U406 2.420 1_545 S
O425 C410 1.202 . S
O426 U406 2.455 . S
O426 C423 1.301 . S
O427 U406 2.449 . S
O427 C423 1.282 . S
H428 C401 0.931 . S
H429 C403 0.929 . S
H430 C404 0.930 . S
H431 C405 0.931 . S
H432 C412 0.932 . S
H433 C413 0.930 . S
H434 C414 0.929 . S
H435 C416 0.930 . S
H436 C418 0.932 . S
H437 C419 0.929 . S
H438 C420 0.928 . S
H439 C422 0.932 . S
C440 C441 1.264 . S
C440 C445 1.479 . S
C440 C450 1.465 . S
C441 C440 1.264 . S
C441 C443 1.339 . S
C441 H468 0.931 . S
C442 C443 1.395 . S
C442 C444 1.320 . S
C443 C441 1.339 . S
C443 C442 1.395 . S
C443 H469 0.929 . S
C444 C442 1.320 . S
C444 C445 1.405 . S
C444 H470 0.930 . S
C445 C440 1.479 . S
C445 C444 1.405 . S
C445 H471 0.931 . S
U446 O447 2.454 1_565 S
U446 O448 2.458 1_565 S
U446 C449 2.984 1_565 S
U446 C450 2.847 . S
U446 C463 2.882 . S
U446 O464 2.441 . S
U446 O465 2.420 . S
U446 O466 2.455 . S
U446 O467 2.449 . S
O447 U446 2.454 1_545 S
O447 C449 1.353 . S
O448 U446 2.458 1_545 S
O448 C449 1.286 . S
C449 U446 2.984 1_545 S
C449 O447 1.353 . S
C449 O448 1.286 . S
C449 C451 1.363 . S
C450 C440 1.465 . S
C450 U446 2.847 . S
C450 O464 1.249 . S
C450 O465 1.202 . S
C451 C449 1.363 . S
C451 C453 1.408 . S
C451 C456 1.342 . S
C452 C453 1.310 . S
C452 C455 1.461 . S
C452 H472 0.932 . S
C453 C451 1.408 . S
C453 C452 1.310 . S
C453 H473 0.930 . S
C454 C455 1.474 . S
C454 C456 1.285 . S
C454 H474 0.929 . S
C455 C452 1.461 . S
C455 C454 1.474 . S
C456 C451 1.342 . S
C456 C454 1.285 . S
C456 H475 0.930 . S
C457 C460 1.424 . S
C457 C462 1.245 . S
C457 C463 1.428 . S
C458 C461 1.260 . S
C458 C462 1.477 . S
C458 H476 0.932 . S
C459 C460 1.384 . S
C459 C461 1.479 . S
C459 H477 0.929 . S
C460 C457 1.424 . S
C460 C459 1.384 . S
C460 H478 0.928 . S
C461 C458 1.260 . S
C461 C459 1.479 . S
C462 C457 1.245 . S
C462 C458 1.477 . S
C462 H479 0.932 . S
C463 U446 2.882 . S
C463 C457 1.428 . S
C463 O466 1.301 . S
C463 O467 1.282 . S
O464 U446 2.441 . S
O464 C450 1.249 . S
O465 U446 2.420 . S
O465 C450 1.202 . S
O466 U446 2.455 . S
O466 C463 1.301 . S
O467 U446 2.449 . S
O467 C463 1.282 . S
H468 C441 0.931 . S
H469 C443 0.929 . S
H470 C444 0.930 . S
H471 C445 0.931 . S
H472 C452 0.932 . S
H473 C453 0.930 . S
H474 C454 0.929 . S
H475 C456 0.930 . S
H476 C458 0.932 . S
H477 C459 0.929 . S
H478 C460 0.928 . S
H479 C462 0.932 . S
C480 C481 1.264 . S
C480 C485 1.479 . S
C480 C490 1.465 . S
C481 C480 1.264 . S
C481 C483 1.339 . S
C481 H508 0.931 . S
C482 C483 1.395 . S
C482 C484 1.320 . S
C483 C481 1.339 . S
C483 C482 1.395 . S
C483 H509 0.929 . S
C484 C482 1.320 . S
C484 C485 1.405 . S
C484 H510 0.930 . S
C485 C480 1.479 . S
C485 C484 1.405 . S
C485 H511 0.931 . S
U486 O487 2.454 1_554 S
U486 O488 2.458 1_554 S
U486 C489 2.984 1_554 S
U486 C490 2.847 . S
U486 C503 2.882 . S
U486 O504 2.441 . S
U486 O505 2.420 . S
U486 O506 2.455 . S
U486 O507 2.449 . S
O487 U486 2.454 1_556 S
O487 C489 1.353 . S
O488 U486 2.458 1_556 S
O488 C489 1.286 . S
C489 U486 2.984 1_556 S
C489 O487 1.353 . S
C489 O488 1.286 . S
C489 C491 1.363 . S
C490 C480 1.465 . S
C490 U486 2.847 . S
C490 O504 1.249 . S
C490 O505 1.202 . S
C491 C489 1.363 . S
C491 C493 1.408 . S
C491 C496 1.342 . S
C492 C493 1.310 . S
C492 C495 1.461 . S
C492 H512 0.932 . S
C493 C491 1.408 . S
C493 C492 1.310 . S
C493 H513 0.930 . S
C494 C495 1.474 . S
C494 C496 1.285 . S
C494 H514 0.929 . S
C495 C492 1.461 . S
C495 C494 1.474 . S
C496 C491 1.342 . S
C496 C494 1.285 . S
C496 H515 0.930 . S
C497 C500 1.424 . S
C497 C502 1.245 . S
C497 C503 1.428 . S
C498 C501 1.260 . S
C498 C502 1.477 . S
C498 H516 0.932 . S
C499 C500 1.384 . S
C499 C501 1.479 . S
C499 H517 0.929 . S
C500 C497 1.424 . S
C500 C499 1.384 . S
C500 H518 0.928 . S
C501 C498 1.260 . S
C501 C499 1.479 . S
C502 C497 1.245 . S
C502 C498 1.477 . S
C502 H519 0.932 . S
C503 U486 2.882 . S
C503 C497 1.428 . S
C503 O506 1.301 . S
C503 O507 1.282 . S
O504 U486 2.441 . S
O504 C490 1.249 . S
O505 U486 2.420 . S
O505 C490 1.202 . S
O506 U486 2.455 . S
O506 C503 1.301 . S
O507 U486 2.449 . S
O507 C503 1.282 . S
H508 C481 0.931 . S
H509 C483 0.929 . S
H510 C484 0.930 . S
H511 C485 0.931 . S
H512 C492 0.932 . S
H513 C493 0.930 . S
H514 C494 0.929 . S
H515 C496 0.930 . S
H516 C498 0.932 . S
H517 C499 0.929 . S
H518 C500 0.928 . S
H519 C502 0.932 . S
C520 C521 1.264 . S
C520 C525 1.479 . S
C520 C530 1.465 . S
C521 C520 1.264 . S
C521 C523 1.339 . S
C521 H548 0.931 . S
C522 C523 1.395 . S
C522 C524 1.320 . S
C523 C521 1.339 . S
C523 C522 1.395 . S
C523 H549 0.929 . S
C524 C522 1.320 . S
C524 C525 1.405 . S
C524 H550 0.930 . S
C525 C520 1.479 . S
C525 C524 1.405 . S
C525 H551 0.931 . S
U526 O527 2.454 . S
U526 O528 2.458 . S
U526 C529 2.984 . S
U526 C530 2.847 1_655 S
U526 C543 2.882 . S
U526 O544 2.441 1_655 S
U526 O545 2.420 1_655 S
U526 O546 2.455 . S
U526 O547 2.449 . S
O527 U526 2.454 . S
O527 C529 1.353 . S
O528 U526 2.458 . S
O528 C529 1.286 . S
C529 U526 2.984 . S
C529 O527 1.353 . S
C529 O528 1.286 . S
C529 C531 1.363 . S
C530 C520 1.465 . S
C530 U526 2.847 1_455 S
C530 O544 1.249 . S
C530 O545 1.202 . S
C531 C529 1.363 . S
C531 C533 1.408 . S
C531 C536 1.342 . S
C532 C533 1.310 . S
C532 C535 1.461 . S
C532 H552 0.932 . S
C533 C531 1.408 . S
C533 C532 1.310 . S
C533 H553 0.930 . S
C534 C535 1.474 . S
C534 C536 1.285 . S
C534 H554 0.929 . S
C535 C532 1.461 . S
C535 C534 1.474 . S
C536 C531 1.342 . S
C536 C534 1.285 . S
C536 H555 0.930 . S
C537 C540 1.424 . S
C537 C542 1.245 . S
C537 C543 1.428 . S
C538 C541 1.260 . S
C538 C542 1.477 . S
C538 H556 0.932 . S
C539 C540 1.384 . S
C539 C541 1.479 . S
C539 H557 0.929 . S
C540 C537 1.424 . S
C540 C539 1.384 . S
C540 H558 0.928 . S
C541 C538 1.260 . S
C541 C539 1.479 . S
C542 C537 1.245 . S
C542 C538 1.477 . S
C542 H559 0.932 . S
C543 U526 2.882 . S
C543 C537 1.428 . S
C543 O546 1.301 . S
C543 O547 1.282 . S
O544 U526 2.441 1_455 S
O544 C530 1.249 . S
O545 U526 2.420 1_455 S
O545 C530 1.202 . S
O546 U526 2.455 . S
O546 C543 1.301 . S
O547 U526 2.449 . S
O547 C543 1.282 . S
H548 C521 0.931 . S
H549 C523 0.929 . S
H550 C524 0.930 . S
H551 C525 0.931 . S
H552 C532 0.932 . S
H553 C533 0.930 . S
H554 C534 0.929 . S
H555 C536 0.930 . S
H556 C538 0.932 . S
H557 C539 0.929 . S
H558 C540 0.928 . S
H559 C542 0.932 . S
C560 C561 1.264 . S
C560 C565 1.479 . S
C560 C570 1.465 . S
C561 C560 1.264 . S
C561 C563 1.339 . S
C561 H588 0.931 . S
C562 C563 1.395 . S
C562 C564 1.320 . S
C563 C561 1.339 . S
C563 C562 1.395 . S
C563 H589 0.929 . S
C564 C562 1.320 . S
C564 C565 1.405 . S
C564 H590 0.930 . S
C565 C560 1.479 . S
C565 C564 1.405 . S
C565 H591 0.931 . S
U566 O567 2.454 . S
U566 O568 2.458 . S
U566 C569 2.984 . S
U566 C570 2.847 . S
U566 C583 2.882 . S
U566 O584 2.441 . S
U566 O585 2.420 . S
U566 O586 2.455 . S
U566 O587 2.449 . S
O567 U566 2.454 . S
O567 C569 1.353 . S
O568 U566 2.458 . S
O568 C569 1.286 . S
C569 U566 2.984 . S
C569 O567 1.353 . S
C569 O568 1.286 . S
C569 C571 1.363 . S
C570 C560 1.465 . S
C570 U566 2.847 . S
C570 O584 1.249 . S
C570 O585 1.202 . S
C571 C569 1.363 . S
C571 C573 1.408 . S
C571 C576 1.342 . S
C572 C573 1.310 . S
C572 C575 1.461 . S
C572 H592 0.932 . S
C573 C571 1.408 . S
C573 C572 1.310 . S
C573 H593 0.930 . S
C574 C575 1.474 . S
C574 C576 1.285 . S
C574 H594 0.929 . S
C575 C572 1.461 . S
C575 C574 1.474 . S
C576 C571 1.342 . S
C576 C574 1.285 . S
C576 H595 0.930 . S
C577 C580 1.424 . S
C577 C582 1.245 . S
C577 C583 1.428 . S
C578 C581 1.260 . S
C578 C582 1.477 . S
C578 H596 0.932 . S
C579 C580 1.384 . S
C579 C581 1.479 . S
C579 H597 0.929 . S
C580 C577 1.424 . S
C580 C579 1.384 . S
C580 H598 0.928 . S
C581 C578 1.260 . S
C581 C579 1.479 . S
C582 C577 1.245 . S
C582 C578 1.477 . S
C582 H599 0.932 . S
C583 U566 2.882 . S
C583 C577 1.428 . S
C583 O586 1.301 . S
C583 O587 1.282 . S
O584 U566 2.441 . S
O584 C570 1.249 . S
O585 U566 2.420 . S
O585 C570 1.202 . S
O586 U566 2.455 . S
O586 C583 1.301 . S
O587 U566 2.449 . S
O587 C583 1.282 . S
H588 C561 0.931 . S
H589 C563 0.929 . S
H590 C564 0.930 . S
H591 C565 0.931 . S
H592 C572 0.932 . S
H593 C573 0.930 . S
H594 C574 0.929 . S
H595 C576 0.930 . S
H596 C578 0.932 . S
H597 C579 0.929 . S
H598 C580 0.928 . S
H599 C582 0.932 . S
C600 C601 1.264 . S
C600 C605 1.479 . S
C600 C610 1.465 . S
C601 C600 1.264 . S
C601 C603 1.339 . S
C601 H628 0.931 . S
C602 C603 1.395 . S
C602 C604 1.320 . S
C603 C601 1.339 . S
C603 C602 1.395 . S
C603 H629 0.929 . S
C604 C602 1.320 . S
C604 C605 1.405 . S
C604 H630 0.930 . S
C605 C600 1.479 . S
C605 C604 1.405 . S
C605 H631 0.931 . S
U606 O607 2.454 . S
U606 O608 2.458 . S
U606 C609 2.981 . S
U606 C610 2.847 . S
U606 C623 2.882 . S
U606 O624 2.441 . S
U606 O625 2.420 . S
U606 O626 2.455 . S
U606 O627 2.449 . S
O607 U606 2.454 . S
O607 C609 1.353 . S
O608 U606 2.458 . S
O608 C609 1.282 . S
C609 U606 2.981 . S
C609 O607 1.353 . S
C609 O608 1.282 . S
C609 C611 1.366 1_655 S
C610 C600 1.465 . S
C610 U606 2.847 . S
C610 O624 1.249 . S
C610 O625 1.202 . S
C611 C609 1.366 1_455 S
C611 C613 1.408 . S
C611 C616 1.342 . S
C612 C613 1.310 . S
C612 C615 1.461 . S
C612 H632 0.932 . S
C613 C611 1.408 . S
C613 C612 1.310 . S
C613 H633 0.930 . S
C614 C615 1.474 . S
C614 C616 1.285 . S
C614 H634 0.929 . S
C615 C612 1.461 . S
C615 C614 1.474 . S
C616 C611 1.342 . S
C616 C614 1.285 . S
C616 H635 0.930 . S
C617 C620 1.424 . S
C617 C622 1.245 . S
C617 C623 1.428 . S
C618 C621 1.260 . S
C618 C622 1.477 . S
C618 H636 0.932 . S
C619 C620 1.384 . S
C619 C621 1.479 . S
C619 H637 0.929 . S
C620 C617 1.424 . S
C620 C619 1.384 . S
C620 H638 0.928 . S
C621 C618 1.260 . S
C621 C619 1.479 . S
C622 C617 1.245 . S
C622 C618 1.477 . S
C622 H639 0.932 . S
C623 U606 2.882 . S
C623 C617 1.428 . S
C623 O626 1.301 . S
C623 O627 1.282 . S
O624 U606 2.441 . S
O624 C610 1.249 . S
O625 U606 2.420 . S
O625 C610 1.202 . S
O626 U606 2.455 . S
O626 C623 1.301 . S
O627 U606 2.449 . S
O627 C623 1.282 . S
H628 C601 0.931 . S
H629 C603 0.929 . S
H630 C604 0.930 . S
H631 C605 0.931 . S
H632 C612 0.932 . S
H633 C613 0.930 . S
H634 C614 0.929 . S
H635 C616 0.930 . S
H636 C618 0.932 . S
H637 C619 0.929 . S
H638 C620 0.928 . S
H639 C622 0.932 . S
C640 C641 1.264 . S
C640 C645 1.479 . S
C640 C650 1.465 . S
C641 C640 1.264 . S
C641 C643 1.339 . S
C641 H668 0.931 . S
C642 C643 1.395 . S
C642 C644 1.320 . S
C643 C641 1.339 . S
C643 C642 1.395 . S
C643 H669 0.929 . S
C644 C642 1.320 . S
C644 C645 1.405 . S
C644 H670 0.930 . S
C645 C640 1.479 . S
C645 C644 1.405 . S
C645 H671 0.931 . S
U646 O647 2.454 . S
U646 O648 2.458 . S
U646 C649 2.984 . S
U646 C650 2.847 . S
U646 C663 2.882 . S
U646 O664 2.441 . S
U646 O665 2.420 . S
U646 O666 2.455 . S
U646 O667 2.449 . S
O647 U646 2.454 . S
O647 C649 1.353 . S
O648 U646 2.458 . S
O648 C649 1.286 . S
C649 U646 2.984 . S
C649 O647 1.353 . S
C649 O648 1.286 . S
C649 C651 1.363 . S
C650 C640 1.465 . S
C650 U646 2.847 . S
C650 O664 1.249 . S
C650 O665 1.202 . S
C651 C649 1.363 . S
C651 C653 1.408 . S
C651 C656 1.342 . S
C652 C653 1.310 . S
C652 C655 1.461 . S
C652 H672 0.932 . S
C653 C651 1.408 . S
C653 C652 1.310 . S
C653 H673 0.930 . S
C654 C655 1.474 . S
C654 C656 1.285 . S
C654 H674 0.929 . S
C655 C652 1.461 . S
C655 C654 1.474 . S
C656 C651 1.342 . S
C656 C654 1.285 . S
C656 H675 0.930 . S
C657 C660 1.424 . S
C657 C662 1.245 . S
C657 C663 1.428 . S
C658 C661 1.260 . S
C658 C662 1.477 . S
C658 H676 0.932 . S
C659 C660 1.384 . S
C659 C661 1.479 . S
C659 H677 0.929 . S
C660 C657 1.424 . S
C660 C659 1.384 . S
C660 H678 0.928 . S
C661 C658 1.260 . S
C661 C659 1.479 . S
C662 C657 1.245 . S
C662 C658 1.477 . S
C662 H679 0.932 . S
C663 U646 2.882 . S
C663 C657 1.428 . S
C663 O666 1.301 . S
C663 O667 1.282 . S
O664 U646 2.441 . S
O664 C650 1.249 . S
O665 U646 2.420 . S
O665 C650 1.202 . S
O666 U646 2.455 . S
O666 C663 1.301 . S
O667 U646 2.449 . S
O667 C663 1.282 . S
H668 C641 0.931 . S
H669 C643 0.929 . S
H670 C644 0.930 . S
H671 C645 0.931 . S
H672 C652 0.932 . S
H673 C653 0.930 . S
H674 C654 0.929 . S
H675 C656 0.930 . S
H676 C658 0.932 . S
H677 C659 0.929 . S
H678 C660 0.928 . S
H679 C662 0.932 . S
C680 C681 1.264 . S
C680 C685 1.479 . S
C680 C690 1.465 . S
C681 C680 1.264 . S
C681 C683 1.339 . S
C681 H708 0.931 . S
C682 C683 1.395 . S
C682 C684 1.320 . S
C683 C681 1.339 . S
C683 C682 1.395 . S
C683 H709 0.929 . S
C684 C682 1.320 . S
C684 C685 1.405 . S
C684 H710 0.930 . S
C685 C680 1.479 . S
C685 C684 1.405 . S
C685 H711 0.931 . S
U686 O687 2.454 . S
U686 O688 2.458 . S
U686 C689 2.984 . S
U686 C690 2.847 . S
U686 C703 2.882 . S
U686 O704 2.441 . S
U686 O705 2.420 . S
U686 O706 2.455 . S
U686 O707 2.449 . S
O687 U686 2.454 . S
O687 C689 1.353 . S
O688 U686 2.458 . S
O688 C689 1.286 . S
C689 U686 2.984 . S
C689 O687 1.353 . S
C689 O688 1.286 . S
C689 C691 1.363 . S
C690 C680 1.465 . S
C690 U686 2.847 . S
C690 O704 1.249 . S
C690 O705 1.202 . S
C691 C689 1.363 . S
C691 C693 1.408 . S
C691 C696 1.342 . S
C692 C693 1.310 . S
C692 C695 1.461 . S
C692 H712 0.932 . S
C693 C691 1.408 . S
C693 C692 1.310 . S
C693 H713 0.930 . S
C694 C695 1.474 . S
C694 C696 1.285 . S
C694 H714 0.929 . S
C695 C692 1.461 . S
C695 C694 1.474 . S
C696 C691 1.342 . S
C696 C694 1.285 . S
C696 H715 0.930 . S
C697 C700 1.424 . S
C697 C702 1.245 . S
C697 C703 1.428 . S
C698 C701 1.260 . S
C698 C702 1.477 . S
C698 H716 0.932 . S
C699 C700 1.384 . S
C699 C701 1.479 . S
C699 H717 0.929 . S
C700 C697 1.424 . S
C700 C699 1.384 . S
C700 H718 0.928 . S
C701 C698 1.260 . S
C701 C699 1.479 . S
C702 C697 1.245 . S
C702 C698 1.477 . S
C702 H719 0.932 . S
C703 U686 2.882 . S
C703 C697 1.428 . S
C703 O706 1.301 . S
C703 O707 1.282 . S
O704 U686 2.441 . S
O704 C690 1.249 . S
O705 U686 2.420 . S
O705 C690 1.202 . S
O706 U686 2.455 . S
O706 C703 1.301 . S
O707 U686 2.449 . S
O707 C703 1.282 . S
H708 C681 0.931 . S
H709 C683 0.929 . S
H710 C684 0.930 . S
H711 C685 0.931 . S
H712 C692 0.932 . S
H713 C693 0.930 . S
H714 C694 0.929 . S
H715 C696 0.930 . S
H716 C698 0.932 . S
H717 C699 0.929 . S
H718 C700 0.928 . S
H719 C702 0.932 . S
C720 C721 1.264 . S
C720 C725 1.479 . S
C720 C730 1.465 . S
C721 C720 1.264 . S
C721 C723 1.339 . S
C721 H748 0.931 . S
C722 C723 1.395 . S
C722 C724 1.320 . S
C723 C721 1.339 . S
C723 C722 1.395 . S
C723 H749 0.929 . S
C724 C722 1.320 . S
C724 C725 1.405 . S
C724 H750 0.930 . S
C725 C720 1.479 . S
C725 C724 1.405 . S
C725 H751 0.931 . S
U726 O727 2.454 . S
U726 O728 2.458 . S
U726 C729 2.984 . S
U726 C730 2.847 . S
U726 C743 2.882 . S
U726 O744 2.441 . S
U726 O745 2.420 . S
U726 O746 2.455 . S
U726 O747 2.449 . S
O727 U726 2.454 . S
O727 C729 1.353 . S
O728 U726 2.458 . S
O728 C729 1.286 . S
C729 U726 2.984 . S
C729 O727 1.353 . S
C729 O728 1.286 . S
C729 C731 1.363 1_556 S
C730 C720 1.465 . S
C730 U726 2.847 . S
C730 O744 1.249 . S
C730 O745 1.202 . S
C731 C729 1.363 1_554 S
C731 C733 1.408 . S
C731 C736 1.342 . S
C732 C733 1.310 . S
C732 C735 1.461 . S
C732 H752 0.932 . S
C733 C731 1.408 . S
C733 C732 1.310 . S
C733 H753 0.930 . S
C734 C735 1.474 . S
C734 C736 1.285 . S
C734 H754 0.929 . S
C735 C732 1.461 . S
C735 C734 1.474 . S
C736 C731 1.342 . S
C736 C734 1.285 . S
C736 H755 0.930 . S
C737 C740 1.424 . S
C737 C742 1.245 . S
C737 C743 1.428 . S
C738 C741 1.260 . S
C738 C742 1.477 . S
C738 H756 0.932 . S
C739 C740 1.384 . S
C739 C741 1.479 . S
C739 H757 0.929 . S
C740 C737 1.424 . S
C740 C739 1.384 . S
C740 H758 0.928 . S
C741 C738 1.260 . S
C741 C739 1.479 . S
C742 C737 1.245 . S
C742 C738 1.477 . S
C742 H759 0.932 . S
C743 U726 2.882 . S
C743 C737 1.428 . S
C743 O746 1.301 . S
C743 O747 1.282 . S
O744 U726 2.441 . S
O744 C730 1.249 . S
O745 U726 2.420 . S
O745 C730 1.202 . S
O746 U726 2.455 . S
O746 C743 1.301 . S
O747 U726 2.449 . S
O747 C743 1.282 . S
H748 C721 0.931 . S
H749 C723 0.929 . S
H750 C724 0.930 . S
H751 C725 0.931 . S
H752 C732 0.932 . S
H753 C733 0.930 . S
H754 C734 0.929 . S
H755 C736 0.930 . S
H756 C738 0.932 . S
H757 C739 0.929 . S
H758 C740 0.928 . S
H759 C742 0.932 . S
C760 C761 1.264 . S
C760 C765 1.479 . S
C760 C770 1.465 1_455 S
C761 C760 1.264 . S
C761 C763 1.339 . S
C761 H788 0.883 1_455 S
C762 C763 1.395 . S
C762 C764 1.320 . S
C763 C761 1.339 . S
C763 C762 1.395 . S
C763 H789 0.929 . S
C764 C762 1.320 . S
C764 C765 1.405 . S
C764 H790 0.930 . S
C765 C760 1.479 . S
C765 C764 1.405 . S
C765 H791 0.931 . S
U766 O767 2.454 . S
U766 O768 2.458 . S
U766 C769 2.984 . S
U766 C770 2.847 . S
U766 C783 2.882 . S
U766 O784 2.441 . S
U766 O785 2.420 . S
U766 O786 2.455 . S
U766 O787 2.449 . S
O767 U766 2.454 . S
O767 C769 1.353 . S
O768 U766 2.458 . S
O768 C769 1.286 . S
C769 U766 2.984 . S
C769 O767 1.353 . S
C769 O768 1.286 . S
C769 C771 1.363 . S
C770 C760 1.465 1_655 S
C770 U766 2.847 . S
C770 O784 1.249 . S
C770 O785 1.202 . S
C771 C769 1.363 . S
C771 C773 1.408 . S
C771 C776 1.342 . S
C772 C773 1.310 . S
C772 C775 1.461 . S
C772 H792 0.932 . S
C773 C771 1.408 . S
C773 C772 1.310 . S
C773 H793 0.930 . S
C774 C775 1.474 . S
C774 C776 1.285 . S
C774 H794 0.929 . S
C775 C772 1.461 . S
C775 C774 1.474 . S
C776 C771 1.342 . S
C776 C774 1.285 . S
C776 H795 0.930 . S
C777 C780 1.424 . S
C777 C782 1.245 . S
C777 C783 1.428 . S
C778 C781 1.260 . S
C778 C782 1.477 . S
C778 H796 0.932 . S
C779 C780 1.384 . S
C779 C781 1.479 . S
C779 H797 0.929 . S
C780 C777 1.424 . S
C780 C779 1.384 . S
C780 H798 0.928 . S
C781 C778 1.260 . S
C781 C779 1.479 . S
C782 C777 1.245 . S
C782 C778 1.477 . S
C782 H799 0.932 . S
C783 U766 2.882 . S
C783 C777 1.428 . S
C783 O786 1.301 . S
C783 O787 1.282 . S
O784 U766 2.441 . S
O784 C770 1.249 . S
O785 U766 2.420 . S
O785 C770 1.202 . S
O786 U766 2.455 . S
O786 C783 1.301 . S
O787 U766 2.449 . S
O787 C783 1.282 . S
H788 C761 0.883 1_655 S
H789 C763 0.929 . S
H790 C764 0.930 . S
H791 C765 0.931 . S
H792 C772 0.932 . S
H793 C773 0.930 . S
H794 C774 0.929 . S
H795 C776 0.930 . S
H796 C778 0.932 . S
H797 C779 0.929 . S
H798 C780 0.928 . S
H799 C782 0.932 . S
C800 C801 1.264 . S
C800 C805 1.479 . S
C800 C810 1.465 . S
C801 C800 1.264 . S
C801 C803 1.339 . S
C801 H828 0.931 . S
C802 C803 1.395 . S
C802 C804 1.320 . S
C803 C801 1.339 . S
C803 C802 1.395 . S
C803 H829 0.929 . S
C804 C802 1.320 . S
C804 C805 1.405 . S
C804 H830 0.930 . S
C805 C800 1.479 . S
C805 C804 1.405 . S
C805 H831 0.931 . S
U806 O807 2.454 . S
U806 O808 2.458 . S
U806 C809 2.984 . S
U806 C810 2.847 . S
U806 C823 2.882 . S
U806 O824 2.441 . S
U806 O825 2.420 . S
U806 O826 2.455 . S
U806 O827 2.449 . S
O807 U806 2.454 . S
O807 C809 1.353 . S
O808 U806 2.458 . S
O808 C809 1.286 . S
C809 U806 2.984 . S
C809 O807 1.353 . S
C809 O808 1.286 . S
C809 C811 1.363 . S
C810 C800 1.465 . S
C810 U806 2.847 . S
C810 O824 1.249 . S
C810 O825 1.202 . S
C811 C809 1.363 . S
C811 C813 1.408 . S
C811 C816 1.342 . S
C812 C813 1.310 . S
C812 C815 1.461 . S
C812 H832 0.932 . S
C813 C811 1.408 . S
C813 C812 1.310 . S
C813 H833 0.930 . S
C814 C815 1.474 . S
C814 C816 1.285 . S
C814 H834 0.929 . S
C815 C812 1.461 . S
C815 C814 1.474 . S
C816 C811 1.342 . S
C816 C814 1.285 . S
C816 H835 0.930 . S
C817 C820 1.424 . S
C817 C822 1.245 . S
C817 C823 1.428 . S
C818 C821 1.260 . S
C818 C822 1.477 . S
C818 H836 0.932 . S
C819 C820 1.384 . S
C819 C821 1.479 . S
C819 H837 0.929 . S
C820 C817 1.424 . S
C820 C819 1.384 . S
C820 H838 0.928 . S
C821 C818 1.260 . S
C821 C819 1.479 . S
C822 C817 1.245 . S
C822 C818 1.477 . S
C822 H839 0.932 . S
C823 U806 2.882 . S
C823 C817 1.428 . S
C823 O826 1.301 . S
C823 O827 1.282 . S
O824 U806 2.441 . S
O824 C810 1.249 . S
O825 U806 2.420 . S
O825 C810 1.202 . S
O826 U806 2.455 . S
O826 C823 1.301 . S
O827 U806 2.449 . S
O827 C823 1.282 . S
H828 C801 0.931 . S
H829 C803 0.929 . S
H830 C804 0.930 . S
H831 C805 0.931 . S
H832 C812 0.932 . S
H833 C813 0.930 . S
H834 C814 0.929 . S
H835 C816 0.930 . S
H836 C818 0.932 . S
H837 C819 0.929 . S
H838 C820 0.928 . S
H839 C822 0.932 . S
C840 C841 1.264 . S
C840 C845 1.479 . S
C840 C850 1.465 . S
C841 C840 1.264 . S
C841 C843 1.339 . S
C841 H868 0.931 . S
C842 C843 1.395 . S
C842 C844 1.320 . S
C843 C841 1.339 . S
C843 C842 1.395 . S
C843 H869 0.929 . S
C844 C842 1.320 . S
C844 C845 1.405 . S
C844 H870 0.930 . S
C845 C840 1.479 . S
C845 C844 1.405 . S
C845 H871 0.931 . S
U846 O847 2.454 . S
U846 O848 2.458 . S
U846 C849 2.984 . S
U846 C850 2.847 . S
U846 C863 2.882 . S
U846 O864 2.441 . S
U846 O865 2.420 . S
U846 O866 2.455 . S
U846 O867 2.449 . S
O847 U846 2.454 . S
O847 C849 1.353 . S
O848 U846 2.458 . S
O848 C849 1.286 . S
C849 U846 2.984 . S
C849 O847 1.353 . S
C849 O848 1.286 . S
C849 C851 1.363 . S
C850 C840 1.465 . S
C850 U846 2.847 . S
C850 O864 1.249 . S
C850 O865 1.202 . S
C851 C849 1.363 . S
C851 C853 1.408 . S
C851 C856 1.342 . S
C852 C853 1.310 . S
C852 C855 1.461 . S
C852 H872 0.932 . S
C853 C851 1.408 . S
C853 C852 1.310 . S
C853 H873 0.930 . S
C854 C855 1.474 . S
C854 C856 1.285 . S
C854 H874 0.929 . S
C855 C852 1.461 . S
C855 C854 1.474 . S
C856 C851 1.342 . S
C856 C854 1.285 . S
C856 H875 0.930 . S
C857 C860 1.424 . S
C857 C862 1.245 . S
C857 C863 1.428 . S
C858 C861 1.260 . S
C858 C862 1.477 . S
C858 H876 0.932 . S
C859 C860 1.384 . S
C859 C861 1.479 . S
C859 H877 0.929 . S
C860 C857 1.424 . S
C860 C859 1.384 . S
C860 H878 0.928 . S
C861 C858 1.260 . S
C861 C859 1.479 . S
C862 C857 1.245 . S
C862 C858 1.477 . S
C862 H879 0.932 . S
C863 U846 2.882 . S
C863 C857 1.428 . S
C863 O866 1.301 . S
C863 O867 1.282 . S
O864 U846 2.441 . S
O864 C850 1.249 . S
O865 U846 2.420 . S
O865 C850 1.202 . S
O866 U846 2.455 . S
O866 C863 1.301 . S
O867 U846 2.449 . S
O867 C863 1.282 . S
H868 C841 0.931 . S
H869 C843 0.929 . S
H870 C844 0.930 . S
H871 C845 0.931 . S
H872 C852 0.932 . S
H873 C853 0.930 . S
H874 C854 0.929 . S
H875 C856 0.930 . S
H876 C858 0.932 . S
H877 C859 0.929 . S
H878 C860 0.928 . S
H879 C862 0.932 . S
C880 C881 1.264 . S
C880 C885 1.479 . S
C880 C890 1.465 1_556 S
C881 C880 1.264 . S
C881 C883 1.339 . S
C881 H908 0.922 1_556 S
C882 C883 1.395 . S
C882 C884 1.320 . S
C883 C881 1.339 . S
C883 C882 1.395 . S
C883 H909 0.929 . S
C884 C882 1.320 . S
C884 C885 1.405 . S
C884 H910 0.930 . S
C885 C880 1.479 . S
C885 C884 1.405 . S
C885 H911 0.931 . S
U886 O887 2.454 . S
U886 O888 2.458 . S
U886 C889 2.984 . S
U886 C890 2.847 . S
U886 C903 2.882 . S
U886 O904 2.441 . S
U886 O905 2.420 . S
U886 O906 2.455 . S
U886 O907 2.449 . S
O887 U886 2.454 . S
O887 C889 1.353 . S
O888 U886 2.458 . S
O888 C889 1.286 . S
C889 U886 2.984 . S
C889 O887 1.353 . S
C889 O888 1.286 . S
C889 C891 1.363 . S
C890 C880 1.465 1_554 S
C890 U886 2.847 . S
C890 O904 1.249 . S
C890 O905 1.202 . S
C891 C889 1.363 . S
C891 C893 1.408 . S
C891 C896 1.342 . S
C892 C893 1.310 . S
C892 C895 1.461 . S
C892 H912 0.932 . S
C893 C891 1.408 . S
C893 C892 1.310 . S
C893 H913 0.930 . S
C894 C895 1.474 . S
C894 C896 1.285 . S
C894 H914 0.929 . S
C895 C892 1.461 . S
C895 C894 1.474 . S
C896 C891 1.342 . S
C896 C894 1.285 . S
C896 H915 0.930 . S
C897 C900 1.424 . S
C897 C902 1.245 . S
C897 C903 1.428 . S
C898 C901 1.260 . S
C898 C902 1.477 . S
C898 H916 0.932 . S
C899 C900 1.384 . S
C899 C901 1.479 . S
C899 H917 0.929 . S
C900 C897 1.424 . S
C900 C899 1.384 . S
C900 H918 0.928 . S
C901 C898 1.260 . S
C901 C899 1.479 . S
C902 C897 1.245 . S
C902 C898 1.477 . S
C902 H919 0.932 . S
C903 U886 2.882 . S
C903 C897 1.428 . S
C903 O906 1.301 . S
C903 O907 1.282 . S
O904 U886 2.441 . S
O904 C890 1.249 . S
O905 U886 2.420 . S
O905 C890 1.202 . S
O906 U886 2.455 . S
O906 C903 1.301 . S
O907 U886 2.449 . S
O907 C903 1.282 . S
H908 C881 0.922 1_554 S
H909 C883 0.929 . S
H910 C884 0.930 . S
H911 C885 0.931 . S
H912 C892 0.932 . S
H913 C893 0.930 . S
H914 C894 0.929 . S
H915 C896 0.930 . S
H916 C898 0.932 . S
H917 C899 0.929 . S
H918 C900 0.928 . S
H919 C902 0.932 . S
C920 C921 1.264 . S
C920 C925 1.479 . S
C920 C930 1.465 . S
C921 C920 1.264 . S
C921 C923 1.339 . S
C921 H948 0.931 . S
C922 C923 1.395 . S
C922 C924 1.320 . S
C923 C921 1.339 . S
C923 C922 1.395 . S
C923 H949 0.929 . S
C924 C922 1.320 . S
C924 C925 1.405 . S
C924 H950 0.930 . S
C925 C920 1.479 . S
C925 C924 1.405 . S
C925 H951 0.931 . S
U926 O927 2.454 . S
U926 O928 2.458 . S
U926 C929 2.981 . S
U926 C930 2.847 . S
U926 C943 2.882 . S
U926 O944 2.441 . S
U926 O945 2.420 . S
U926 O946 2.455 . S
U926 O947 2.449 . S
O927 U926 2.454 . S
O927 C929 1.353 . S
O928 U926 2.458 . S
O928 C929 1.282 . S
C929 U926 2.981 . S
C929 O927 1.353 . S
C929 O928 1.282 . S
C929 C931 1.367 1_565 S
C930 C920 1.465 . S
C930 U926 2.847 . S
C930 O944 1.249 . S
C930 O945 1.202 . S
C931 C929 1.367 1_545 S
C931 C933 1.408 . S
C931 C936 1.342 . S
C932 C933 1.310 . S
C932 C935 1.461 . S
C932 H952 0.932 . S
C933 C931 1.408 . S
C933 C932 1.310 . S
C933 H953 0.930 . S
C934 C935 1.474 . S
C934 C936 1.285 . S
C934 H954 0.929 . S
C935 C932 1.461 . S
C935 C934 1.474 . S
C936 C931 1.342 . S
C936 C934 1.285 . S
C936 H955 0.930 . S
C937 C940 1.424 . S
C937 C942 1.245 . S
C937 C943 1.428 . S
C938 C941 1.260 . S
C938 C942 1.477 . S
C938 H956 0.932 . S
C939 C940 1.384 . S
C939 C941 1.479 . S
C939 H957 0.929 . S
C940 C937 1.424 . S
C940 C939 1.384 . S
C940 H958 0.928 . S
C941 C938 1.260 . S
C941 C939 1.479 . S
C942 C937 1.245 . S
C942 C938 1.477 . S
C942 H959 0.932 . S
C943 U926 2.882 . S
C943 C937 1.428 . S
C943 O946 1.301 . S
C943 O947 1.282 . S
O944 U926 2.441 . S
O944 C930 1.249 . S
O945 U926 2.420 . S
O945 C930 1.202 . S
O946 U926 2.455 . S
O946 C943 1.301 . S
O947 U926 2.449 . S
O947 C943 1.282 . S
H948 C921 0.931 . S
H949 C923 0.929 . S
H950 C924 0.930 . S
H951 C925 0.931 . S
H952 C932 0.932 . S
H953 C933 0.930 . S
H954 C934 0.929 . S
H955 C936 0.930 . S
H956 C938 0.932 . S
H957 C939 0.929 . S
H958 C940 0.928 . S
H959 C942 0.932 . S
C960 C961 1.264 . S
C960 C965 1.479 . S
C960 C970 1.465 . S
C961 C960 1.264 . S
C961 C963 1.339 . S
C961 H988 0.931 . S
C962 C963 1.395 . S
C962 C964 1.320 . S
C963 C961 1.339 . S
C963 C962 1.395 . S
C963 H989 0.929 . S
C964 C962 1.320 . S
C964 C965 1.405 . S
C964 H990 0.930 . S
C965 C960 1.479 . S
C965 C964 1.405 . S
C965 H991 0.931 . S
U966 O967 2.454 . S
U966 O968 2.458 . S
U966 C969 2.984 . S
U966 C970 2.847 . S
U966 C983 2.882 . S
U966 O984 2.441 . S
U966 O985 2.420 . S
U966 O986 2.455 . S
U966 O987 2.449 . S
O967 U966 2.454 . S
O967 C969 1.353 . S
O968 U966 2.458 . S
O968 C969 1.286 . S
C969 U966 2.984 . S
C969 O967 1.353 . S
C969 O968 1.286 . S
C969 C971 1.363 1_565 S
C970 C960 1.465 . S
C970 U966 2.847 . S
C970 O984 1.249 . S
C970 O985 1.202 . S
C971 C969 1.363 1_545 S
C971 C973 1.408 . S
C971 C976 1.342 . S
C972 C973 1.310 . S
C972 C975 1.461 . S
C972 H992 0.932 . S
C973 C971 1.408 . S
C973 C972 1.310 . S
C973 H993 0.930 . S
C974 C975 1.474 . S
C974 C976 1.285 . S
C974 H994 0.929 . S
C975 C972 1.461 . S
C975 C974 1.474 . S
C976 C971 1.342 . S
C976 C974 1.285 . S
C976 H995 0.930 . S
C977 C980 1.424 . S
C977 C982 1.245 . S
C977 C983 1.428 . S
C978 C981 1.260 . S
C978 C982 1.477 . S
C978 H996 0.932 . S
C979 C980 1.384 . S
C979 C981 1.479 . S
C979 H997 0.929 . S
C980 C977 1.424 . S
C980 C979 1.384 . S
C980 H998 0.928 . S
C981 C978 1.260 . S
C981 C979 1.479 . S
C982 C977 1.245 . S
C982 C978 1.477 . S
C982 H999 0.932 . S
C983 U966 2.882 . S
C983 C977 1.428 . S
C983 O986 1.301 . S
C983 O987 1.282 . S
O984 U966 2.441 . S
O984 C970 1.249 . S
O985 U966 2.420 . S
O985 C970 1.202 . S
O986 U966 2.455 . S
O986 C983 1.301 . S
O987 U966 2.449 . S
O987 C983 1.282 . S
H988 C961 0.931 . S
H989 C963 0.929 . S
H990 C964 0.930 . S
H991 C965 0.931 . S
H992 C972 0.932 . S
H993 C973 0.930 . S
H994 C974 0.929 . S
H995 C976 0.930 . S
H996 C978 0.932 . S
H997 C979 0.929 . S
H998 C980 0.928 . S
H999 C982 0.932 . S
C1000 C1001 1.264 . S
C1000 C1005 1.479 . S
C1000 C1010 1.465 1_565 S
C1001 C1000 1.264 . S
C1001 C1003 1.339 . S
C1001 H1028 0.912 1_565 S
C1002 C1003 1.395 . S
C1002 C1004 1.320 . S
C1003 C1001 1.339 . S
C1003 C1002 1.395 . S
C1003 H1029 0.929 . S
C1004 C1002 1.320 . S
C1004 C1005 1.405 . S
C1004 H1030 0.930 . S
C1005 C1000 1.479 . S
C1005 C1004 1.405 . S
C1005 H1031 0.931 . S
U1006 O1007 2.454 . S
U1006 O1008 2.458 . S
U1006 C1009 2.984 . S
U1006 C1010 2.847 . S
U1006 C1023 2.882 . S
U1006 O1024 2.441 . S
U1006 O1025 2.420 . S
U1006 O1026 2.455 . S
U1006 O1027 2.449 . S
O1007 U1006 2.454 . S
O1007 C1009 1.353 . S
O1008 U1006 2.458 . S
O1008 C1009 1.286 . S
C1009 U1006 2.984 . S
C1009 O1007 1.353 . S
C1009 O1008 1.286 . S
C1009 C1011 1.363 . S
C1010 C1000 1.465 1_545 S
C1010 U1006 2.847 . S
C1010 O1024 1.249 . S
C1010 O1025 1.202 . S
C1011 C1009 1.363 . S
C1011 C1013 1.408 . S
C1011 C1016 1.342 . S
C1012 C1013 1.310 . S
C1012 C1015 1.461 . S
C1012 H1032 0.932 . S
C1013 C1011 1.408 . S
C1013 C1012 1.310 . S
C1013 H1033 0.930 . S
C1014 C1015 1.474 . S
C1014 C1016 1.285 . S
C1014 H1034 0.929 . S
C1015 C1012 1.461 . S
C1015 C1014 1.474 . S
C1016 C1011 1.342 . S
C1016 C1014 1.285 . S
C1016 H1035 0.930 . S
C1017 C1020 1.424 . S
C1017 C1022 1.245 . S
C1017 C1023 1.428 . S
C1018 C1021 1.260 . S
C1018 C1022 1.477 . S
C1018 H1036 0.932 . S
C1019 C1020 1.384 . S
C1019 C1021 1.479 . S
C1019 H1037 0.929 . S
C1020 C1017 1.424 . S
C1020 C1019 1.384 . S
C1020 H1038 0.928 . S
C1021 C1018 1.260 . S
C1021 C1019 1.479 . S
C1022 C1017 1.245 . S
C1022 C1018 1.477 . S
C1022 H1039 0.932 . S
C1023 U1006 2.882 . S
C1023 C1017 1.428 . S
C1023 O1026 1.301 . S
C1023 O1027 1.282 . S
O1024 U1006 2.441 . S
O1024 C1010 1.249 . S
O1025 U1006 2.420 . S
O1025 C1010 1.202 . S
O1026 U1006 2.455 . S
O1026 C1023 1.301 . S
O1027 U1006 2.449 . S
O1027 C1023 1.282 . S
H1028 C1001 0.912 1_545 S
H1029 C1003 0.929 . S
H1030 C1004 0.930 . S
H1031 C1005 0.931 . S
H1032 C1012 0.932 . S
H1033 C1013 0.930 . S
H1034 C1014 0.929 . S
H1035 C1016 0.930 . S
H1036 C1018 0.932 . S
H1037 C1019 0.929 . S
H1038 C1020 0.928 . S
H1039 C1022 0.932 . S
C1040 C1041 1.264 . S
C1040 C1045 1.479 . S
C1040 C1050 1.465 1_565 S
C1041 C1040 1.264 . S
C1041 C1043 1.339 . S
C1041 H1068 0.931 . S
C1042 C1043 1.395 . S
C1042 C1044 1.320 . S
C1043 C1041 1.339 . S
C1043 C1042 1.395 . S
C1043 H1069 0.929 . S
C1044 C1042 1.320 . S
C1044 C1045 1.405 . S
C1044 H1070 0.930 . S
C1045 C1040 1.479 . S
C1045 C1044 1.405 . S
C1045 H1071 0.931 . S
U1046 O1047 2.454 . S
U1046 O1048 2.458 . S
U1046 C1049 2.984 . S
U1046 C1050 2.847 . S
U1046 C1063 2.882 . S
U1046 O1064 2.441 . S
U1046 O1065 2.420 . S
U1046 O1066 2.455 . S
U1046 O1067 2.449 . S
O1047 U1046 2.454 . S
O1047 C1049 1.353 . S
O1048 U1046 2.458 . S
O1048 C1049 1.286 . S
C1049 U1046 2.984 . S
C1049 O1047 1.353 . S
C1049 O1048 1.286 . S
C1049 C1051 1.363 . S
C1050 C1040 1.465 1_545 S
C1050 U1046 2.847 . S
C1050 O1064 1.249 . S
C1050 O1065 1.202 . S
C1051 C1049 1.363 . S
C1051 C1053 1.408 . S
C1051 C1056 1.342 . S
C1052 C1053 1.310 . S
C1052 C1055 1.461 . S
C1052 H1072 0.932 . S
C1053 C1051 1.408 . S
C1053 C1052 1.310 . S
C1053 H1073 0.930 . S
C1054 C1055 1.474 . S
C1054 C1056 1.285 . S
C1054 H1074 0.929 . S
C1055 C1052 1.461 . S
C1055 C1054 1.474 . S
C1056 C1051 1.342 . S
C1056 C1054 1.285 . S
C1056 H1075 0.930 . S
C1057 C1060 1.424 . S
C1057 C1062 1.245 . S
C1057 C1063 1.428 . S
C1058 C1061 1.260 . S
C1058 C1062 1.477 . S
C1058 H1076 0.932 . S
C1059 C1060 1.384 . S
C1059 C1061 1.479 . S
C1059 H1077 0.929 . S
C1060 C1057 1.424 . S
C1060 C1059 1.384 . S
C1060 H1078 0.928 . S
C1061 C1058 1.260 . S
C1061 C1059 1.479 . S
C1062 C1057 1.245 . S
C1062 C1058 1.477 . S
C1062 H1079 0.932 . S
C1063 U1046 2.882 . S
C1063 C1057 1.428 . S
C1063 O1066 1.301 . S
C1063 O1067 1.282 . S
O1064 U1046 2.441 . S
O1064 C1050 1.249 . S
O1065 U1046 2.420 . S
O1065 C1050 1.202 . S
O1066 U1046 2.455 . S
O1066 C1063 1.301 . S
O1067 U1046 2.449 . S
O1067 C1063 1.282 . S
H1068 C1041 0.931 . S
H1069 C1043 0.929 . S
H1070 C1044 0.930 . S
H1071 C1045 0.931 . S
H1072 C1052 0.932 . S
H1073 C1053 0.930 . S
H1074 C1054 0.929 . S
H1075 C1056 0.930 . S
H1076 C1058 0.932 . S
H1077 C1059 0.929 . S
H1078 C1060 0.928 . S
H1079 C1062 0.932 . S
C1080 C1081 1.264 . S
C1080 C1085 1.479 . S
C1080 C1090 1.465 . S
C1081 C1080 1.264 . S
C1081 C1083 1.339 . S
C1081 H1108 0.931 . S
C1082 C1083 1.395 . S
C1082 C1084 1.320 . S
C1083 C1081 1.339 . S
C1083 C1082 1.395 . S
C1083 H1109 0.929 . S
C1084 C1082 1.320 . S
C1084 C1085 1.405 . S
C1084 H1110 0.930 . S
C1085 C1080 1.479 . S
C1085 C1084 1.405 . S
C1085 H1111 0.931 . S
U1086 O1087 2.453 . S
U1086 O1088 2.458 . S
U1086 C1089 2.984 1_556 S
U1086 C1090 2.847 . S
U1086 C1103 2.882 . S
U1086 O1104 2.441 . S
U1086 O1105 2.420 . S
U1086 O1106 2.455 . S
U1086 O1107 2.449 . S
O1087 U1086 2.453 . S
O1087 C1089 1.354 1_556 S
O1088 U1086 2.458 . S
O1088 C1089 1.286 1_556 S
C1089 U1086 2.984 1_554 S
C1089 O1087 1.354 1_554 S
C1089 O1088 1.286 1_554 S
C1089 C1091 1.363 . S
C1090 C1080 1.465 . S
C1090 U1086 2.847 . S
C1090 O1104 1.249 . S
C1090 O1105 1.202 . S
C1091 C1089 1.363 . S
C1091 C1093 1.408 . S
C1091 C1096 1.342 . S
C1092 C1093 1.310 . S
C1092 C1095 1.461 . S
C1092 H1112 0.932 . S
C1093 C1091 1.408 . S
C1093 C1092 1.310 . S
C1093 H1113 0.930 . S
C1094 C1095 1.474 . S
C1094 C1096 1.285 . S
C1094 H1114 0.929 . S
C1095 C1092 1.461 . S
C1095 C1094 1.474 . S
C1096 C1091 1.342 . S
C1096 C1094 1.285 . S
C1096 H1115 0.930 . S
C1097 C1100 1.424 . S
C1097 C1102 1.245 . S
C1097 C1103 1.428 . S
C1098 C1101 1.260 . S
C1098 C1102 1.477 . S
C1098 H1116 0.932 . S
C1099 C1100 1.384 . S
C1099 C1101 1.479 . S
C1099 H1117 0.929 . S
C1100 C1097 1.424 . S
C1100 C1099 1.384 . S
C1100 H1118 0.928 . S
C1101 C1098 1.260 . S
C1101 C1099 1.479 . S
C1102 C1097 1.245 . S
C1102 C1098 1.477 . S
C1102 H1119 0.932 . S
C1103 U1086 2.882 . S
C1103 C1097 1.428 . S
C1103 O1106 1.301 . S
C1103 O1107 1.282 . S
O1104 U1086 2.441 . S
O1104 C1090 1.249 . S
O1105 U1086 2.420 . S
O1105 C1090 1.202 . S
O1106 U1086 2.455 . S
O1106 C1103 1.301 . S
O1107 U1086 2.449 . S
O1107 C1103 1.282 . S
H1108 C1081 0.931 . S
H1109 C1083 0.929 . S
H1110 C1084 0.930 . S
H1111 C1085 0.931 . S
H1112 C1092 0.932 . S
H1113 C1093 0.930 . S
H1114 C1094 0.929 . S
H1115 C1096 0.930 . S
H1116 C1098 0.932 . S
H1117 C1099 0.929 . S
H1118 C1100 0.928 . S
H1119 C1102 0.932 . S
C1120 C1121 1.264 . S
C1120 C1125 1.479 . S
C1120 C1130 1.465 1_655 S
C1121 C1120 1.264 . S
C1121 C1123 1.339 . S
C1121 H1148 0.931 1_655 S
C1122 C1123 1.395 . S
C1122 C1124 1.320 . S
C1123 C1121 1.339 . S
C1123 C1122 1.395 . S
C1123 H1149 0.929 . S
C1124 C1122 1.320 . S
C1124 C1125 1.405 . S
C1124 H1150 0.930 . S
C1125 C1120 1.479 . S
C1125 C1124 1.405 . S
C1125 H1151 0.931 . S
U1126 O1127 2.454 . S
U1126 O1128 2.458 . S
U1126 C1129 2.984 . S
U1126 C1130 2.847 . S
U1126 C1143 2.882 . S
U1126 O1144 2.441 . S
U1126 O1145 2.420 . S
U1126 O1146 2.455 . S
U1126 O1147 2.449 . S
O1127 U1126 2.454 . S
O1127 C1129 1.353 . S
O1128 U1126 2.458 . S
O1128 C1129 1.286 . S
C1129 U1126 2.984 . S
C1129 O1127 1.353 . S
C1129 O1128 1.286 . S
C1129 C1131 1.363 . S
C1130 C1120 1.465 1_455 S
C1130 U1126 2.847 . S
C1130 O1144 1.249 . S
C1130 O1145 1.202 . S
C1131 C1129 1.363 . S
C1131 C1133 1.408 . S
C1131 C1136 1.342 . S
C1132 C1133 1.310 . S
C1132 C1135 1.461 . S
C1132 H1152 0.932 . S
C1133 C1131 1.408 . S
C1133 C1132 1.310 . S
C1133 H1153 0.930 . S
C1134 C1135 1.474 . S
C1134 C1136 1.285 . S
C1134 H1154 0.929 . S
C1135 C1132 1.461 . S
C1135 C1134 1.474 . S
C1136 C1131 1.342 . S
C1136 C1134 1.285 . S
C1136 H1155 0.930 . S
C1137 C1140 1.424 . S
C1137 C1142 1.245 . S
C1137 C1143 1.428 . S
C1138 C1141 1.260 . S
C1138 C1142 1.477 . S
C1138 H1156 0.932 . S
C1139 C1140 1.384 . S
C1139 C1141 1.479 . S
C1139 H1157 0.929 . S
C1140 C1137 1.424 . S
C1140 C1139 1.384 . S
C1140 H1158 0.928 . S
C1141 C1138 1.260 . S
C1141 C1139 1.479 . S
C1142 C1137 1.245 . S
C1142 C1138 1.477 . S
C1142 H1159 0.932 . S
C1143 U1126 2.882 . S
C1143 C1137 1.428 . S
C1143 O1146 1.301 . S
C1143 O1147 1.282 . S
O1144 U1126 2.441 . S
O1144 C1130 1.249 . S
O1145 U1126 2.420 . S
O1145 C1130 1.202 . S
O1146 U1126 2.455 . S
O1146 C1143 1.301 . S
O1147 U1126 2.449 . S
O1147 C1143 1.282 . S
H1148 C1121 0.931 1_455 S
H1149 C1123 0.929 . S
H1150 C1124 0.930 . S
H1151 C1125 0.931 . S
H1152 C1132 0.932 . S
H1153 C1133 0.930 . S
H1154 C1134 0.929 . S
H1155 C1136 0.930 . S
H1156 C1138 0.932 . S
H1157 C1139 0.929 . S
H1158 C1140 0.928 . S
H1159 C1142 0.932 . S
C1160 C1161 1.264 . S
C1160 C1165 1.479 . S
C1160 C1170 1.465 . S
C1161 C1160 1.264 . S
C1161 C1163 1.339 . S
C1161 H1188 0.931 . S
C1162 C1163 1.395 . S
C1162 C1164 1.320 . S
C1163 C1161 1.339 . S
C1163 C1162 1.395 . S
C1163 H1189 0.929 . S
C1164 C1162 1.320 . S
C1164 C1165 1.405 . S
C1164 H1190 0.930 . S
C1165 C1160 1.479 . S
C1165 C1164 1.405 . S
C1165 H1191 0.931 . S
U1166 O1167 2.454 . S
U1166 O1168 2.458 . S
U1166 C1169 2.984 . S
U1166 C1170 2.847 . S
U1166 C1183 2.882 . S
U1166 O1184 2.441 . S
U1166 O1185 2.420 . S
U1166 O1186 2.455 . S
U1166 O1187 2.449 . S
O1167 U1166 2.454 . S
O1167 C1169 1.353 . S
O1168 U1166 2.458 . S
O1168 C1169 1.286 . S
C1169 U1166 2.984 . S
C1169 O1167 1.353 . S
C1169 O1168 1.286 . S
C1169 C1171 1.363 . S
C1170 C1160 1.465 . S
C1170 U1166 2.847 . S
C1170 O1184 1.249 . S
C1170 O1185 1.202 . S
C1171 C1169 1.363 . S
C1171 C1173 1.408 . S
C1171 C1176 1.342 . S
C1172 C1173 1.310 . S
C1172 C1175 1.461 . S
C1172 H1192 0.932 . S
C1173 C1171 1.408 . S
C1173 C1172 1.310 . S
C1173 H1193 0.930 . S
C1174 C1175 1.474 . S
C1174 C1176 1.285 . S
C1174 H1194 0.929 . S
C1175 C1172 1.461 . S
C1175 C1174 1.474 . S
C1176 C1171 1.342 . S
C1176 C1174 1.285 . S
C1176 H1195 0.930 . S
C1177 C1180 1.424 . S
C1177 C1182 1.245 . S
C1177 C1183 1.428 . S
C1178 C1181 1.260 . S
C1178 C1182 1.477 . S
C1178 H1196 0.932 . S
C1179 C1180 1.384 . S
C1179 C1181 1.479 . S
C1179 H1197 0.929 . S
C1180 C1177 1.424 . S
C1180 C1179 1.384 . S
C1180 H1198 0.928 . S
C1181 C1178 1.260 . S
C1181 C1179 1.479 . S
C1182 C1177 1.245 . S
C1182 C1178 1.477 . S
C1182 H1199 0.932 . S
C1183 U1166 2.882 . S
C1183 C1177 1.428 . S
C1183 O1186 1.301 . S
C1183 O1187 1.282 . S
O1184 U1166 2.441 . S
O1184 C1170 1.249 . S
O1185 U1166 2.420 . S
O1185 C1170 1.202 . S
O1186 U1166 2.455 . S
O1186 C1183 1.301 . S
O1187 U1166 2.449 . S
O1187 C1183 1.282 . S
H1188 C1161 0.931 . S
H1189 C1163 0.929 . S
H1190 C1164 0.930 . S
H1191 C1165 0.931 . S
H1192 C1172 0.932 . S
H1193 C1173 0.930 . S
H1194 C1174 0.929 . S
H1195 C1176 0.930 . S
H1196 C1178 0.932 . S
H1197 C1179 0.929 . S
H1198 C1180 0.928 . S
H1199 C1182 0.932 . S
C1200 C1201 1.264 . S
C1200 C1205 1.479 . S
C1200 C1210 1.465 . S
C1201 C1200 1.264 . S
C1201 C1203 1.339 . S
C1201 H1228 0.931 . S
C1202 C1203 1.395 . S
C1202 C1204 1.320 . S
C1203 C1201 1.339 . S
C1203 C1202 1.395 . S
C1203 H1229 0.929 . S
C1204 C1202 1.320 . S
C1204 C1205 1.405 . S
C1204 H1230 0.930 . S
C1205 C1200 1.479 . S
C1205 C1204 1.405 . S
C1205 H1231 0.931 . S
U1206 O1207 2.454 . S
U1206 O1208 2.458 . S
U1206 C1209 2.984 . S
U1206 C1210 2.847 . S
U1206 C1223 2.882 . S
U1206 O1224 2.441 . S
U1206 O1225 2.420 . S
U1206 O1226 2.455 . S
U1206 O1227 2.449 . S
O1207 U1206 2.454 . S
O1207 C1209 1.353 . S
O1208 U1206 2.458 . S
O1208 C1209 1.286 . S
C1209 U1206 2.984 . S
C1209 O1207 1.353 . S
C1209 O1208 1.286 . S
C1209 C1211 1.363 . S
C1210 C1200 1.465 . S
C1210 U1206 2.847 . S
C1210 O1224 1.249 . S
C1210 O1225 1.202 . S
C1211 C1209 1.363 . S
C1211 C1213 1.408 . S
C1211 C1216 1.342 . S
C1212 C1213 1.310 . S
C1212 C1215 1.461 . S
C1212 H1232 0.932 . S
C1213 C1211 1.408 . S
C1213 C1212 1.310 . S
C1213 H1233 0.930 . S
C1214 C1215 1.474 . S
C1214 C1216 1.285 . S
C1214 H1234 0.929 . S
C1215 C1212 1.461 . S
C1215 C1214 1.474 . S
C1216 C1211 1.342 . S
C1216 C1214 1.285 . S
C1216 H1235 0.930 . S
C1217 C1220 1.424 . S
C1217 C1222 1.245 . S
C1217 C1223 1.428 . S
C1218 C1221 1.260 . S
C1218 C1222 1.477 . S
C1218 H1236 0.932 . S
C1219 C1220 1.384 . S
C1219 C1221 1.479 . S
C1219 H1237 0.929 . S
C1220 C1217 1.424 . S
C1220 C1219 1.384 . S
C1220 H1238 0.928 . S
C1221 C1218 1.260 . S
C1221 C1219 1.479 . S
C1222 C1217 1.245 . S
C1222 C1218 1.477 . S
C1222 H1239 0.932 . S
C1223 U1206 2.882 . S
C1223 C1217 1.428 . S
C1223 O1226 1.301 . S
C1223 O1227 1.282 . S
O1224 U1206 2.441 . S
O1224 C1210 1.249 . S
O1225 U1206 2.420 . S
O1225 C1210 1.202 . S
O1226 U1206 2.455 . S
O1226 C1223 1.301 . S
O1227 U1206 2.449 . S
O1227 C1223 1.282 . S
H1228 C1201 0.931 . S
H1229 C1203 0.929 . S
H1230 C1204 0.930 . S
H1231 C1205 0.931 . S
H1232 C1212 0.932 . S
H1233 C1213 0.930 . S
H1234 C1214 0.929 . S
H1235 C1216 0.930 . S
H1236 C1218 0.932 . S
H1237 C1219 0.929 . S
H1238 C1220 0.928 . S
H1239 C1222 0.932 . S
C1240 C1241 1.264 . S
C1240 C1245 1.479 . S
C1240 C1250 1.465 . S
C1241 C1240 1.264 . S
C1241 C1243 1.339 . S
C1241 H1268 0.931 . S
C1242 C1243 1.395 . S
C1242 C1244 1.320 . S
C1243 C1241 1.339 . S
C1243 C1242 1.395 . S
C1243 H1269 0.929 . S
C1244 C1242 1.320 . S
C1244 C1245 1.405 . S
C1244 H1270 0.930 . S
C1245 C1240 1.479 . S
C1245 C1244 1.405 . S
C1245 H1271 0.931 . S
U1246 O1247 2.454 1_655 S
U1246 O1248 2.458 1_655 S
U1246 C1249 2.984 1_655 S
U1246 C1250 2.847 . S
U1246 C1263 2.882 . S
U1246 O1264 2.441 . S
U1246 O1265 2.420 . S
U1246 O1266 2.455 . S
U1246 O1267 2.449 . S
O1247 U1246 2.454 1_455 S
O1247 C1249 1.353 . S
O1248 U1246 2.458 1_455 S
O1248 C1249 1.286 . S
C1249 U1246 2.984 1_455 S
C1249 O1247 1.353 . S
C1249 O1248 1.286 . S
C1249 C1251 1.363 . S
C1250 C1240 1.465 . S
C1250 U1246 2.847 . S
C1250 O1264 1.249 . S
C1250 O1265 1.202 . S
C1251 C1249 1.363 . S
C1251 C1253 1.408 . S
C1251 C1256 1.342 . S
C1252 C1253 1.310 . S
C1252 C1255 1.461 . S
C1252 H1272 0.932 . S
C1253 C1251 1.408 . S
C1253 C1252 1.310 . S
C1253 H1273 0.930 . S
C1254 C1255 1.474 . S
C1254 C1256 1.285 . S
C1254 H1274 0.929 . S
C1255 C1252 1.461 . S
C1255 C1254 1.474 . S
C1256 C1251 1.342 . S
C1256 C1254 1.285 . S
C1256 H1275 0.930 . S
C1257 C1260 1.424 . S
C1257 C1262 1.245 . S
C1257 C1263 1.428 . S
C1258 C1261 1.260 . S
C1258 C1262 1.477 . S
C1258 H1276 0.932 . S
C1259 C1260 1.384 . S
C1259 C1261 1.479 . S
C1259 H1277 0.929 . S
C1260 C1257 1.424 . S
C1260 C1259 1.384 . S
C1260 H1278 0.928 . S
C1261 C1258 1.260 . S
C1261 C1259 1.479 . S
C1262 C1257 1.245 . S
C1262 C1258 1.477 . S
C1262 H1279 0.932 . S
C1263 U1246 2.882 . S
C1263 C1257 1.428 . S
C1263 O1266 1.301 . S
C1263 O1267 1.282 . S
O1264 U1246 2.441 . S
O1264 C1250 1.249 . S
O1265 U1246 2.420 . S
O1265 C1250 1.202 . S
O1266 U1246 2.455 . S
O1266 C1263 1.301 . S
O1267 U1246 2.449 . S
O1267 C1263 1.282 . S
H1268 C1241 0.931 . S
H1269 C1243 0.929 . S
H1270 C1244 0.930 . S
H1271 C1245 0.931 . S
H1272 C1252 0.932 . S
H1273 C1253 0.930 . S
H1274 C1254 0.929 . S
H1275 C1256 0.930 . S
H1276 C1258 0.932 . S
H1277 C1259 0.929 . S
H1278 C1260 0.928 . S
H1279 C1262 0.932 . S
C1280 C1281 1.264 . S
C1280 C1285 1.479 . S
C1280 C1290 1.465 . S
C1281 C1280 1.264 . S
C1281 C1283 1.339 . S
C1281 H1308 0.931 . S
C1282 C1283 1.395 . S
C1282 C1284 1.320 . S
C1283 C1281 1.339 . S
C1283 C1282 1.395 . S
C1283 H1309 0.929 . S
C1284 C1282 1.320 . S
C1284 C1285 1.405 . S
C1284 H1310 0.930 . S
C1285 C1280 1.479 . S
C1285 C1284 1.405 . S
C1285 H1311 0.931 . S
U1286 O1287 2.454 . S
U1286 O1288 2.458 . S
U1286 C1289 2.984 . S
U1286 C1290 2.847 . S
U1286 C1303 2.882 . S
U1286 O1304 2.441 . S
U1286 O1305 2.420 . S
U1286 O1306 2.455 . S
U1286 O1307 2.449 . S
O1287 U1286 2.454 . S
O1287 C1289 1.353 . S
O1288 U1286 2.458 . S
O1288 C1289 1.286 . S
C1289 U1286 2.984 . S
C1289 O1287 1.353 . S
C1289 O1288 1.286 . S
C1289 C1291 1.363 . S
C1290 C1280 1.465 . S
C1290 U1286 2.847 . S
C1290 O1304 1.249 . S
C1290 O1305 1.202 . S
C1291 C1289 1.363 . S
C1291 C1293 1.408 . S
C1291 C1296 1.342 . S
C1292 C1293 1.310 . S
C1292 C1295 1.461 . S
C1292 H1312 0.932 . S
C1293 C1291 1.408 . S
C1293 C1292 1.310 . S
C1293 H1313 0.930 . S
C1294 C1295 1.474 . S
C1294 C1296 1.285 . S
C1294 H1314 0.929 . S
C1295 C1292 1.461 . S
C1295 C1294 1.474 . S
C1296 C1291 1.342 . S
C1296 C1294 1.285 . S
C1296 H1315 0.930 . S
C1297 C1300 1.424 . S
C1297 C1302 1.245 . S
C1297 C1303 1.428 . S
C1298 C1301 1.260 . S
C1298 C1302 1.477 . S
C1298 H1316 0.932 . S
C1299 C1300 1.384 . S
C1299 C1301 1.479 . S
C1299 H1317 0.929 . S
C1300 C1297 1.424 . S
C1300 C1299 1.384 . S
C1300 H1318 0.928 . S
C1301 C1298 1.260 . S
C1301 C1299 1.479 . S
C1302 C1297 1.245 . S
C1302 C1298 1.477 . S
C1302 H1319 0.932 . S
C1303 U1286 2.882 . S
C1303 C1297 1.428 . S
C1303 O1306 1.301 . S
C1303 O1307 1.282 . S
O1304 U1286 2.441 . S
O1304 C1290 1.249 . S
O1305 U1286 2.420 . S
O1305 C1290 1.202 . S
O1306 U1286 2.455 . S
O1306 C1303 1.301 . S
O1307 U1286 2.449 . S
O1307 C1303 1.282 . S
H1308 C1281 0.931 . S
H1309 C1283 0.929 . S
H1310 C1284 0.930 . S
H1311 C1285 0.931 . S
H1312 C1292 0.932 . S
H1313 C1293 0.930 . S
H1314 C1294 0.929 . S
H1315 C1296 0.930 . S
H1316 C1298 0.932 . S
H1317 C1299 0.929 . S
H1318 C1300 0.928 . S
H1319 C1302 0.932 . S
C1320 C1321 1.264 . S
C1320 C1325 1.479 . S
C1320 C1330 1.465 . S
C1321 C1320 1.264 . S
C1321 C1323 1.339 . S
C1321 H1348 0.931 . S
C1322 C1323 1.395 . S
C1322 C1324 1.320 . S
C1323 C1321 1.339 . S
C1323 C1322 1.395 . S
C1323 H1349 0.929 . S
C1324 C1322 1.320 . S
C1324 C1325 1.405 . S
C1324 H1350 0.930 . S
C1325 C1320 1.479 . S
C1325 C1324 1.405 . S
C1325 H1351 0.931 . S
U1326 O1327 2.454 1_556 S
U1326 O1328 2.458 1_556 S
U1326 C1329 2.984 1_556 S
U1326 C1330 2.847 . S
U1326 C1343 2.882 . S
U1326 O1344 2.441 . S
U1326 O1345 2.420 . S
U1326 O1346 2.455 . S
U1326 O1347 2.449 . S
O1327 U1326 2.454 1_554 S
O1327 C1329 1.353 . S
O1328 U1326 2.458 1_554 S
O1328 C1329 1.286 . S
C1329 U1326 2.984 1_554 S
C1329 O1327 1.353 . S
C1329 O1328 1.286 . S
C1329 C1331 1.363 . S
C1330 C1320 1.465 . S
C1330 U1326 2.847 . S
C1330 O1344 1.249 . S
C1330 O1345 1.202 . S
C1331 C1329 1.363 . S
C1331 C1333 1.408 . S
C1331 C1336 1.342 . S
C1332 C1333 1.310 . S
C1332 C1335 1.461 . S
C1332 H1352 0.932 . S
C1333 C1331 1.408 . S
C1333 C1332 1.310 . S
C1333 H1353 0.930 . S
C1334 C1335 1.474 . S
C1334 C1336 1.285 . S
C1334 H1354 0.929 . S
C1335 C1332 1.461 . S
C1335 C1334 1.474 . S
C1336 C1331 1.342 . S
C1336 C1334 1.285 . S
C1336 H1355 0.930 . S
C1337 C1340 1.424 . S
C1337 C1342 1.245 . S
C1337 C1343 1.428 . S
C1338 C1341 1.260 . S
C1338 C1342 1.477 . S
C1338 H1356 0.932 . S
C1339 C1340 1.384 . S
C1339 C1341 1.479 . S
C1339 H1357 0.929 . S
C1340 C1337 1.424 . S
C1340 C1339 1.384 . S
C1340 H1358 0.928 . S
C1341 C1338 1.260 . S
C1341 C1339 1.479 . S
C1342 C1337 1.245 . S
C1342 C1338 1.477 . S
C1342 H1359 0.932 . S
C1343 U1326 2.882 . S
C1343 C1337 1.428 . S
C1343 O1346 1.301 . S
C1343 O1347 1.282 . S
O1344 U1326 2.441 . S
O1344 C1330 1.249 . S
O1345 U1326 2.420 . S
O1345 C1330 1.202 . S
O1346 U1326 2.455 . S
O1346 C1343 1.301 . S
O1347 U1326 2.449 . S
O1347 C1343 1.282 . S
H1348 C1321 0.931 . S
H1349 C1323 0.929 . S
H1350 C1324 0.930 . S
H1351 C1325 0.931 . S
H1352 C1332 0.932 . S
H1353 C1333 0.930 . S
H1354 C1334 0.929 . S
H1355 C1336 0.930 . S
H1356 C1338 0.932 . S
H1357 C1339 0.929 . S
H1358 C1340 0.928 . S
H1359 C1342 0.932 . S
C1360 C1361 1.264 . S
C1360 C1365 1.479 . S
C1360 C1370 1.465 . S
C1361 C1360 1.264 . S
C1361 C1363 1.339 . S
C1361 H1388 0.931 . S
C1362 C1363 1.395 . S
C1362 C1364 1.320 . S
C1363 C1361 1.339 . S
C1363 C1362 1.395 . S
C1363 H1389 0.929 . S
C1364 C1362 1.320 . S
C1364 C1365 1.405 . S
C1364 H1390 0.930 . S
C1365 C1360 1.479 . S
C1365 C1364 1.405 . S
C1365 H1391 0.931 . S
U1366 O1367 2.454 . S
U1366 O1368 2.458 . S
U1366 C1369 2.984 . S
U1366 C1370 2.847 . S
U1366 C1383 2.882 . S
U1366 O1384 2.441 . S
U1366 O1385 2.420 . S
U1366 O1386 2.455 . S
U1366 O1387 2.449 . S
O1367 U1366 2.454 . S
O1367 C1369 1.353 . S
O1368 U1366 2.458 . S
O1368 C1369 1.286 . S
C1369 U1366 2.984 . S
C1369 O1367 1.353 . S
C1369 O1368 1.286 . S
C1369 C1371 1.363 . S
C1370 C1360 1.465 . S
C1370 U1366 2.847 . S
C1370 O1384 1.249 . S
C1370 O1385 1.202 . S
C1371 C1369 1.363 . S
C1371 C1373 1.408 . S
C1371 C1376 1.342 . S
C1372 C1373 1.310 . S
C1372 C1375 1.461 . S
C1372 H1392 0.932 . S
C1373 C1371 1.408 . S
C1373 C1372 1.310 . S
C1373 H1393 0.930 . S
C1374 C1375 1.474 . S
C1374 C1376 1.285 . S
C1374 H1394 0.929 . S
C1375 C1372 1.461 . S
C1375 C1374 1.474 . S
C1376 C1371 1.342 . S
C1376 C1374 1.285 . S
C1376 H1395 0.930 . S
C1377 C1380 1.424 . S
C1377 C1382 1.245 . S
C1377 C1383 1.428 . S
C1378 C1381 1.260 . S
C1378 C1382 1.477 . S
C1378 H1396 0.932 . S
C1379 C1380 1.384 . S
C1379 C1381 1.479 . S
C1379 H1397 0.929 . S
C1380 C1377 1.424 . S
C1380 C1379 1.384 . S
C1380 H1398 0.928 . S
C1381 C1378 1.260 . S
C1381 C1379 1.479 . S
C1382 C1377 1.245 . S
C1382 C1378 1.477 . S
C1382 H1399 0.932 . S
C1383 U1366 2.882 . S
C1383 C1377 1.428 . S
C1383 O1386 1.301 . S
C1383 O1387 1.282 . S
O1384 U1366 2.441 . S
O1384 C1370 1.249 . S
O1385 U1366 2.420 . S
O1385 C1370 1.202 . S
O1386 U1366 2.455 . S
O1386 C1383 1.301 . S
O1387 U1366 2.449 . S
O1387 C1383 1.282 . S
H1388 C1361 0.931 . S
H1389 C1363 0.929 . S
H1390 C1364 0.930 . S
H1391 C1365 0.931 . S
H1392 C1372 0.932 . S
H1393 C1373 0.930 . S
H1394 C1374 0.929 . S
H1395 C1376 0.930 . S
H1396 C1378 0.932 . S
H1397 C1379 0.929 . S
H1398 C1380 0.928 . S
H1399 C1382 0.932 . S
C1400 C1401 1.264 . S
C1400 C1405 1.479 . S
C1400 C1410 1.465 . S
C1401 C1400 1.264 . S
C1401 C1403 1.339 . S
C1401 H1428 0.931 . S
C1402 C1403 1.395 . S
C1402 C1404 1.320 . S
C1403 C1401 1.339 . S
C1403 C1402 1.395 . S
C1403 H1429 0.929 . S
C1404 C1402 1.320 . S
C1404 C1405 1.405 . S
C1404 H1430 0.930 . S
C1405 C1400 1.479 . S
C1405 C1404 1.405 . S
C1405 H1431 0.931 . S
U1406 O1407 2.454 . S
U1406 O1408 2.458 . S
U1406 C1409 2.984 . S
U1406 C1410 2.847 . S
U1406 C1423 2.882 . S
U1406 O1424 2.441 . S
U1406 O1425 2.420 . S
U1406 O1426 2.455 . S
U1406 O1427 2.449 . S
O1407 U1406 2.454 . S
O1407 C1409 1.353 . S
O1408 U1406 2.458 . S
O1408 C1409 1.286 . S
C1409 U1406 2.984 . S
C1409 O1407 1.353 . S
C1409 O1408 1.286 . S
C1409 C1411 1.363 . S
C1410 C1400 1.465 . S
C1410 U1406 2.847 . S
C1410 O1424 1.249 . S
C1410 O1425 1.202 . S
C1411 C1409 1.363 . S
C1411 C1413 1.408 . S
C1411 C1416 1.342 . S
C1412 C1413 1.310 . S
C1412 C1415 1.461 . S
C1412 H1432 0.932 . S
C1413 C1411 1.408 . S
C1413 C1412 1.310 . S
C1413 H1433 0.930 . S
C1414 C1415 1.474 . S
C1414 C1416 1.285 . S
C1414 H1434 0.929 . S
C1415 C1412 1.461 . S
C1415 C1414 1.474 . S
C1416 C1411 1.342 . S
C1416 C1414 1.285 . S
C1416 H1435 0.930 . S
C1417 C1420 1.424 . S
C1417 C1422 1.245 . S
C1417 C1423 1.428 . S
C1418 C1421 1.260 . S
C1418 C1422 1.477 . S
C1418 H1436 0.932 . S
C1419 C1420 1.384 . S
C1419 C1421 1.479 . S
C1419 H1437 0.929 . S
C1420 C1417 1.424 . S
C1420 C1419 1.384 . S
C1420 H1438 0.928 . S
C1421 C1418 1.260 . S
C1421 C1419 1.479 . S
C1422 C1417 1.245 . S
C1422 C1418 1.477 . S
C1422 H1439 0.932 . S
C1423 U1406 2.882 . S
C1423 C1417 1.428 . S
C1423 O1426 1.301 . S
C1423 O1427 1.282 . S
O1424 U1406 2.441 . S
O1424 C1410 1.249 . S
O1425 U1406 2.420 . S
O1425 C1410 1.202 . S
O1426 U1406 2.455 . S
O1426 C1423 1.301 . S
O1427 U1406 2.449 . S
O1427 C1423 1.282 . S
H1428 C1401 0.931 . S
H1429 C1403 0.929 . S
H1430 C1404 0.930 . S
H1431 C1405 0.931 . S
H1432 C1412 0.932 . S
H1433 C1413 0.930 . S
H1434 C1414 0.929 . S
H1435 C1416 0.930 . S
H1436 C1418 0.932 . S
H1437 C1419 0.929 . S
H1438 C1420 0.928 . S
H1439 C1422 0.932 . S
C1440 C1441 1.264 . S
C1440 C1445 1.479 . S
C1440 C1450 1.465 . S
C1441 C1440 1.264 . S
C1441 C1443 1.339 . S
C1441 H1468 0.931 . S
C1442 C1443 1.395 . S
C1442 C1444 1.320 . S
C1443 C1441 1.339 . S
C1443 C1442 1.395 . S
C1443 H1469 0.929 . S
C1444 C1442 1.320 . S
C1444 C1445 1.405 . S
C1444 H1470 0.930 . S
C1445 C1440 1.479 . S
C1445 C1444 1.405 . S
C1445 H1471 0.931 . S
U1446 O1447 2.454 . S
U1446 O1448 2.458 . S
U1446 C1449 2.984 . S
U1446 C1450 2.847 . S
U1446 C1463 2.882 . S
U1446 O1464 2.441 . S
U1446 O1465 2.420 . S
U1446 O1466 2.455 . S
U1446 O1467 2.449 . S
O1447 U1446 2.454 . S
O1447 C1449 1.353 . S
O1448 U1446 2.458 . S
O1448 C1449 1.286 . S
C1449 U1446 2.984 . S
C1449 O1447 1.353 . S
C1449 O1448 1.286 . S
C1449 C1451 1.363 . S
C1450 C1440 1.465 . S
C1450 U1446 2.847 . S
C1450 O1464 1.249 . S
C1450 O1465 1.202 . S
C1451 C1449 1.363 . S
C1451 C1453 1.408 . S
C1451 C1456 1.342 . S
C1452 C1453 1.310 . S
C1452 C1455 1.461 . S
C1452 H1472 0.932 . S
C1453 C1451 1.408 . S
C1453 C1452 1.310 . S
C1453 H1473 0.930 . S
C1454 C1455 1.474 . S
C1454 C1456 1.285 . S
C1454 H1474 0.929 . S
C1455 C1452 1.461 . S
C1455 C1454 1.474 . S
C1456 C1451 1.342 . S
C1456 C1454 1.285 . S
C1456 H1475 0.930 . S
C1457 C1460 1.424 . S
C1457 C1462 1.245 . S
C1457 C1463 1.428 . S
C1458 C1461 1.260 . S
C1458 C1462 1.477 . S
C1458 H1476 0.932 . S
C1459 C1460 1.384 . S
C1459 C1461 1.479 . S
C1459 H1477 0.929 . S
C1460 C1457 1.424 . S
C1460 C1459 1.384 . S
C1460 H1478 0.928 . S
C1461 C1458 1.260 . S
C1461 C1459 1.479 . S
C1462 C1457 1.245 . S
C1462 C1458 1.477 . S
C1462 H1479 0.932 . S
C1463 U1446 2.882 . S
C1463 C1457 1.428 . S
C1463 O1466 1.301 . S
C1463 O1467 1.282 . S
O1464 U1446 2.441 . S
O1464 C1450 1.249 . S
O1465 U1446 2.420 . S
O1465 C1450 1.202 . S
O1466 U1446 2.455 . S
O1466 C1463 1.301 . S
O1467 U1446 2.449 . S
O1467 C1463 1.282 . S
H1468 C1441 0.931 . S
H1469 C1443 0.929 . S
H1470 C1444 0.930 . S
H1471 C1445 0.931 . S
H1472 C1452 0.932 . S
H1473 C1453 0.930 . S
H1474 C1454 0.929 . S
H1475 C1456 0.930 . S
H1476 C1458 0.932 . S
H1477 C1459 0.929 . S
H1478 C1460 0.928 . S
H1479 C1462 0.932 . S
C1480 C1481 1.264 . S
C1480 C1485 1.479 . S
C1480 C1490 1.465 . S
C1481 C1480 1.264 . S
C1481 C1483 1.339 . S
C1481 H1508 0.931 . S
C1482 C1483 1.395 . S
C1482 C1484 1.320 . S
C1483 C1481 1.339 . S
C1483 C1482 1.395 . S
C1483 H1509 0.929 . S
C1484 C1482 1.320 . S
C1484 C1485 1.405 . S
C1484 H1510 0.930 . S
C1485 C1480 1.479 . S
C1485 C1484 1.405 . S
C1485 H1511 0.931 . S
U1486 O1487 2.454 . S
U1486 O1488 2.458 . S
U1486 C1489 2.984 . S
U1486 C1490 2.847 . S
U1486 C1503 2.882 . S
U1486 O1504 2.441 . S
U1486 O1505 2.420 . S
U1486 O1506 2.455 . S
U1486 O1507 2.449 . S
O1487 U1486 2.454 . S
O1487 C1489 1.353 . S
O1488 U1486 2.458 . S
O1488 C1489 1.286 . S
C1489 U1486 2.984 . S
C1489 O1487 1.353 . S
C1489 O1488 1.286 . S
C1489 C1491 1.363 . S
C1490 C1480 1.465 . S
C1490 U1486 2.847 . S
C1490 O1504 1.249 . S
C1490 O1505 1.202 . S
C1491 C1489 1.363 . S
C1491 C1493 1.408 . S
C1491 C1496 1.342 . S
C1492 C1493 1.310 . S
C1492 C1495 1.461 . S
C1492 H1512 0.932 . S
C1493 C1491 1.408 . S
C1493 C1492 1.310 . S
C1493 H1513 0.930 . S
C1494 C1495 1.474 . S
C1494 C1496 1.285 . S
C1494 H1514 0.929 . S
C1495 C1492 1.461 . S
C1495 C1494 1.474 . S
C1496 C1491 1.342 . S
C1496 C1494 1.285 . S
C1496 H1515 0.930 . S
C1497 C1500 1.424 . S
C1497 C1502 1.245 . S
C1497 C1503 1.428 . S
C1498 C1501 1.260 . S
C1498 C1502 1.477 . S
C1498 H1516 0.932 . S
C1499 C1500 1.384 . S
C1499 C1501 1.479 . S
C1499 H1517 0.929 . S
C1500 C1497 1.424 . S
C1500 C1499 1.384 . S
C1500 H1518 0.928 . S
C1501 C1498 1.260 . S
C1501 C1499 1.479 . S
C1502 C1497 1.245 . S
C1502 C1498 1.477 . S
C1502 H1519 0.932 . S
C1503 U1486 2.882 . S
C1503 C1497 1.428 . S
C1503 O1506 1.301 . S
C1503 O1507 1.282 . S
O1504 U1486 2.441 . S
O1504 C1490 1.249 . S
O1505 U1486 2.420 . S
O1505 C1490 1.202 . S
O1506 U1486 2.455 . S
O1506 C1503 1.301 . S
O1507 U1486 2.449 . S
O1507 C1503 1.282 . S
H1508 C1481 0.931 . S
H1509 C1483 0.929 . S
H1510 C1484 0.930 . S
H1511 C1485 0.931 . S
H1512 C1492 0.932 . S
H1513 C1493 0.930 . S
H1514 C1494 0.929 . S
H1515 C1496 0.930 . S
H1516 C1498 0.932 . S
H1517 C1499 0.929 . S
H1518 C1500 0.928 . S
H1519 C1502 0.932 . S
C1520 C1521 1.264 . S
C1520 C1525 1.479 . S
C1520 C1530 1.465 . S
C1521 C1520 1.264 . S
C1521 C1523 1.339 . S
C1521 H1548 0.931 . S
C1522 C1523 1.395 . S
C1522 C1524 1.320 . S
C1523 C1521 1.339 . S
C1523 C1522 1.395 . S
C1523 H1549 0.929 . S
C1524 C1522 1.320 . S
C1524 C1525 1.405 . S
C1524 H1550 0.930 . S
C1525 C1520 1.479 . S
C1525 C1524 1.405 . S
C1525 H1551 0.931 . S
U1526 O1527 2.454 . S
U1526 O1528 2.458 . S
U1526 C1529 2.984 . S
U1526 C1530 2.847 . S
U1526 C1543 2.882 . S
U1526 O1544 2.441 . S
U1526 O1545 2.420 . S
U1526 O1546 2.455 . S
U1526 O1547 2.449 . S
O1527 U1526 2.454 . S
O1527 C1529 1.353 . S
O1528 U1526 2.458 . S
O1528 C1529 1.286 . S
C1529 U1526 2.984 . S
C1529 O1527 1.353 . S
C1529 O1528 1.286 . S
C1529 C1531 1.363 . S
C1530 C1520 1.465 . S
C1530 U1526 2.847 . S
C1530 O1544 1.249 . S
C1530 O1545 1.202 . S
C1531 C1529 1.363 . S
C1531 C1533 1.408 . S
C1531 C1536 1.342 . S
C1532 C1533 1.310 . S
C1532 C1535 1.461 . S
C1532 H1552 0.932 . S
C1533 C1531 1.408 . S
C1533 C1532 1.310 . S
C1533 H1553 0.930 . S
C1534 C1535 1.474 . S
C1534 C1536 1.285 . S
C1534 H1554 0.929 . S
C1535 C1532 1.461 . S
C1535 C1534 1.474 . S
C1536 C1531 1.342 . S
C1536 C1534 1.285 . S
C1536 H1555 0.930 . S
C1537 C1540 1.424 . S
C1537 C1542 1.245 . S
C1537 C1543 1.428 . S
C1538 C1541 1.260 . S
C1538 C1542 1.477 . S
C1538 H1556 0.932 . S
C1539 C1540 1.384 . S
C1539 C1541 1.479 . S
C1539 H1557 0.929 . S
C1540 C1537 1.424 . S
C1540 C1539 1.384 . S
C1540 H1558 0.928 . S
C1541 C1538 1.260 . S
C1541 C1539 1.479 . S
C1542 C1537 1.245 . S
C1542 C1538 1.477 . S
C1542 H1559 0.932 . S
C1543 U1526 2.882 . S
C1543 C1537 1.428 . S
C1543 O1546 1.301 . S
C1543 O1547 1.282 . S
O1544 U1526 2.441 . S
O1544 C1530 1.249 . S
O1545 U1526 2.420 . S
O1545 C1530 1.202 . S
O1546 U1526 2.455 . S
O1546 C1543 1.301 . S
O1547 U1526 2.449 . S
O1547 C1543 1.282 . S
H1548 C1521 0.931 . S
H1549 C1523 0.929 . S
H1550 C1524 0.930 . S
H1551 C1525 0.931 . S
H1552 C1532 0.932 . S
H1553 C1533 0.930 . S
H1554 C1534 0.929 . S
H1555 C1536 0.930 . S
H1556 C1538 0.932 . S
H1557 C1539 0.929 . S
H1558 C1540 0.928 . S
H1559 C1542 0.932 . S
C1560 C1561 1.264 . S
C1560 C1565 1.479 . S
C1560 C1570 1.465 . S
C1561 C1560 1.264 . S
C1561 C1563 1.339 . S
C1561 H1588 0.931 . S
C1562 C1563 1.395 . S
C1562 C1564 1.320 . S
C1563 C1561 1.339 . S
C1563 C1562 1.395 . S
C1563 H1589 0.929 . S
C1564 C1562 1.320 . S
C1564 C1565 1.405 . S
C1564 H1590 0.930 . S
C1565 C1560 1.479 . S
C1565 C1564 1.405 . S
C1565 H1591 0.931 . S
U1566 O1567 2.454 . S
U1566 O1568 2.458 . S
U1566 C1569 2.984 . S
U1566 C1570 2.847 . S
U1566 C1583 2.882 . S
U1566 O1584 2.441 . S
U1566 O1585 2.420 . S
U1566 O1586 2.455 . S
U1566 O1587 2.449 . S
O1567 U1566 2.454 . S
O1567 C1569 1.353 . S
O1568 U1566 2.458 . S
O1568 C1569 1.286 . S
C1569 U1566 2.984 . S
C1569 O1567 1.353 . S
C1569 O1568 1.286 . S
C1569 C1571 1.363 . S
C1570 C1560 1.465 . S
C1570 U1566 2.847 . S
C1570 O1584 1.249 . S
C1570 O1585 1.202 . S
C1571 C1569 1.363 . S
C1571 C1573 1.408 . S
C1571 C1576 1.342 . S
C1572 C1573 1.310 . S
C1572 C1575 1.461 . S
C1572 H1592 0.932 . S
C1573 C1571 1.408 . S
C1573 C1572 1.310 . S
C1573 H1593 0.930 . S
C1574 C1575 1.474 . S
C1574 C1576 1.285 . S
C1574 H1594 0.929 . S
C1575 C1572 1.461 . S
C1575 C1574 1.474 . S
C1576 C1571 1.342 . S
C1576 C1574 1.285 . S
C1576 H1595 0.930 . S
C1577 C1580 1.424 . S
C1577 C1582 1.245 . S
C1577 C1583 1.428 . S
C1578 C1581 1.260 . S
C1578 C1582 1.477 . S
C1578 H1596 0.932 . S
C1579 C1580 1.384 . S
C1579 C1581 1.479 . S
C1579 H1597 0.929 . S
C1580 C1577 1.424 . S
C1580 C1579 1.384 . S
C1580 H1598 0.928 . S
C1581 C1578 1.260 . S
C1581 C1579 1.479 . S
C1582 C1577 1.245 . S
C1582 C1578 1.477 . S
C1582 H1599 0.932 . S
C1583 U1566 2.882 . S
C1583 C1577 1.428 . S
C1583 O1586 1.301 . S
C1583 O1587 1.282 . S
O1584 U1566 2.441 . S
O1584 C1570 1.249 . S
O1585 U1566 2.420 . S
O1585 C1570 1.202 . S
O1586 U1566 2.455 . S
O1586 C1583 1.301 . S
O1587 U1566 2.449 . S
O1587 C1583 1.282 . S
H1588 C1561 0.931 . S
H1589 C1563 0.929 . S
H1590 C1564 0.930 . S
H1591 C1565 0.931 . S
H1592 C1572 0.932 . S
H1593 C1573 0.930 . S
H1594 C1574 0.929 . S
H1595 C1576 0.930 . S
H1596 C1578 0.932 . S
H1597 C1579 0.929 . S
H1598 C1580 0.928 . S
H1599 C1582 0.932 . S
C1600 C1601 1.264 . S
C1600 C1605 1.479 . S
C1600 C1610 1.465 1_655 S
C1601 C1600 1.264 . S
C1601 C1603 1.339 . S
C1601 H1628 0.916 1_655 S
C1602 C1603 1.395 . S
C1602 C1604 1.320 . S
C1603 C1601 1.339 . S
C1603 C1602 1.395 . S
C1603 H1629 0.929 . S
C1604 C1602 1.320 . S
C1604 C1605 1.405 . S
C1604 H1630 0.930 . S
C1605 C1600 1.479 . S
C1605 C1604 1.405 . S
C1605 H1631 0.931 . S
U1606 O1607 2.454 . S
U1606 O1608 2.458 . S
U1606 C1609 2.984 . S
U1606 C1610 2.847 . S
U1606 C1623 2.882 . S
U1606 O1624 2.441 . S
U1606 O1625 2.420 . S
U1606 O1626 2.455 . S
U1606 O1627 2.449 . S
O1607 U1606 2.454 . S
O1607 C1609 1.353 . S
O1608 U1606 2.458 . S
O1608 C1609 1.286 . S
C1609 U1606 2.984 . S
C1609 O1607 1.353 . S
C1609 O1608 1.286 . S
C1609 C1611 1.363 . S
C1610 C1600 1.465 1_455 S
C1610 U1606 2.847 . S
C1610 O1624 1.249 . S
C1610 O1625 1.202 . S
C1611 C1609 1.363 . S
C1611 C1613 1.408 . S
C1611 C1616 1.342 . S
C1612 C1613 1.310 . S
C1612 C1615 1.461 . S
C1612 H1632 0.932 . S
C1613 C1611 1.408 . S
C1613 C1612 1.310 . S
C1613 H1633 0.930 . S
C1614 C1615 1.474 . S
C1614 C1616 1.285 . S
C1614 H1634 0.929 . S
C1615 C1612 1.461 . S
C1615 C1614 1.474 . S
C1616 C1611 1.342 . S
C1616 C1614 1.285 . S
C1616 H1635 0.930 . S
C1617 C1620 1.424 . S
C1617 C1622 1.245 . S
C1617 C1623 1.428 . S
C1618 C1621 1.260 . S
C1618 C1622 1.477 . S
C1618 H1636 0.932 . S
C1619 C1620 1.384 . S
C1619 C1621 1.479 . S
C1619 H1637 0.929 . S
C1620 C1617 1.424 . S
C1620 C1619 1.384 . S
C1620 H1638 0.928 . S
C1621 C1618 1.260 . S
C1621 C1619 1.479 . S
C1622 C1617 1.245 . S
C1622 C1618 1.477 . S
C1622 H1639 0.932 . S
C1623 U1606 2.882 . S
C1623 C1617 1.428 . S
C1623 O1626 1.301 . S
C1623 O1627 1.282 . S
O1624 U1606 2.441 . S
O1624 C1610 1.249 . S
O1625 U1606 2.420 . S
O1625 C1610 1.202 . S
O1626 U1606 2.455 . S
O1626 C1623 1.301 . S
O1627 U1606 2.449 . S
O1627 C1623 1.282 . S
H1628 C1601 0.916 1_455 S
H1629 C1603 0.929 . S
H1630 C1604 0.930 . S
H1631 C1605 0.931 . S
H1632 C1612 0.932 . S
H1633 C1613 0.930 . S
H1634 C1614 0.929 . S
H1635 C1616 0.930 . S
H1636 C1618 0.932 . S
H1637 C1619 0.929 . S
H1638 C1620 0.928 . S
H1639 C1622 0.932 . S
C1640 C1641 1.264 . S
C1640 C1645 1.479 . S
C1640 C1650 1.465 . S
C1641 C1640 1.264 . S
C1641 C1643 1.339 . S
C1641 H1668 0.931 . S
C1642 C1643 1.395 . S
C1642 C1644 1.320 . S
C1643 C1641 1.339 . S
C1643 C1642 1.395 . S
C1643 H1669 0.929 . S
C1644 C1642 1.320 . S
C1644 C1645 1.405 . S
C1644 H1670 0.930 . S
C1645 C1640 1.479 . S
C1645 C1644 1.405 . S
C1645 H1671 0.931 . S
U1646 O1647 2.454 . S
U1646 O1648 2.458 . S
U1646 C1649 2.984 . S
U1646 C1650 2.847 . S
U1646 C1663 2.882 . S
U1646 O1664 2.441 . S
U1646 O1665 2.420 . S
U1646 O1666 2.455 . S
U1646 O1667 2.449 . S
O1647 U1646 2.454 . S
O1647 C1649 1.353 . S
O1648 U1646 2.458 . S
O1648 C1649 1.286 . S
C1649 U1646 2.984 . S
C1649 O1647 1.353 . S
C1649 O1648 1.286 . S
C1649 C1651 1.363 . S
C1650 C1640 1.465 . S
C1650 U1646 2.847 . S
C1650 O1664 1.249 . S
C1650 O1665 1.202 . S
C1651 C1649 1.363 . S
C1651 C1653 1.408 . S
C1651 C1656 1.342 . S
C1652 C1653 1.310 . S
C1652 C1655 1.461 . S
C1652 H1672 0.932 . S
C1653 C1651 1.408 . S
C1653 C1652 1.310 . S
C1653 H1673 0.930 . S
C1654 C1655 1.474 . S
C1654 C1656 1.285 . S
C1654 H1674 0.929 . S
C1655 C1652 1.461 . S
C1655 C1654 1.474 . S
C1656 C1651 1.342 . S
C1656 C1654 1.285 . S
C1656 H1675 0.930 . S
C1657 C1660 1.424 . S
C1657 C1662 1.245 . S
C1657 C1663 1.428 . S
C1658 C1661 1.260 . S
C1658 C1662 1.477 . S
C1658 H1676 0.932 . S
C1659 C1660 1.384 . S
C1659 C1661 1.479 . S
C1659 H1677 0.929 . S
C1660 C1657 1.424 . S
C1660 C1659 1.384 . S
C1660 H1678 0.928 . S
C1661 C1658 1.260 . S
C1661 C1659 1.479 . S
C1662 C1657 1.245 . S
C1662 C1658 1.477 . S
C1662 H1679 0.932 . S
C1663 U1646 2.882 . S
C1663 C1657 1.428 . S
C1663 O1666 1.301 . S
C1663 O1667 1.282 . S
O1664 U1646 2.441 . S
O1664 C1650 1.249 . S
O1665 U1646 2.420 . S
O1665 C1650 1.202 . S
O1666 U1646 2.455 . S
O1666 C1663 1.301 . S
O1667 U1646 2.449 . S
O1667 C1663 1.282 . S
H1668 C1641 0.931 . S
H1669 C1643 0.929 . S
H1670 C1644 0.930 . S
H1671 C1645 0.931 . S
H1672 C1652 0.932 . S
H1673 C1653 0.930 . S
H1674 C1654 0.929 . S
H1675 C1656 0.930 . S
H1676 C1658 0.932 . S
H1677 C1659 0.929 . S
H1678 C1660 0.928 . S
H1679 C1662 0.932 . S
C1680 C1681 1.264 . S
C1680 C1685 1.479 . S
C1680 C1690 1.465 . S
C1681 C1680 1.264 . S
C1681 C1683 1.339 . S
C1681 H1708 0.931 . S
C1682 C1683 1.395 . S
C1682 C1684 1.320 . S
C1683 C1681 1.339 . S
C1683 C1682 1.395 . S
C1683 H1709 0.929 . S
C1684 C1682 1.320 . S
C1684 C1685 1.405 . S
C1684 H1710 0.930 . S
C1685 C1680 1.479 . S
C1685 C1684 1.405 . S
C1685 H1711 0.931 . S
U1686 O1687 2.454 . S
U1686 O1688 2.458 . S
U1686 C1689 3.055 . S
U1686 C1690 2.847 . S
U1686 C1703 2.882 . S
U1686 O1704 2.441 . S
U1686 O1705 2.420 . S
U1686 O1706 2.455 . S
U1686 O1707 2.449 . S
O1687 U1686 2.454 . S
O1687 C1689 1.370 . S
O1688 U1686 2.458 . S
O1688 C1689 1.359 . S
C1689 U1686 3.055 . S
C1689 O1687 1.370 . S
C1689 O1688 1.359 . S
C1689 C1691 1.292 1_554 S
C1690 C1680 1.465 . S
C1690 U1686 2.847 . S
C1690 O1704 1.249 . S
C1690 O1705 1.202 . S
C1691 C1689 1.292 1_556 S
C1691 C1693 1.408 . S
C1691 C1696 1.342 . S
C1692 C1693 1.310 . S
C1692 C1695 1.461 . S
C1692 H1712 0.932 . S
C1693 C1691 1.408 . S
C1693 C1692 1.310 . S
C1693 H1713 0.930 . S
C1694 C1695 1.474 . S
C1694 C1696 1.285 . S
C1694 H1714 0.929 . S
C1695 C1692 1.461 . S
C1695 C1694 1.474 . S
C1696 C1691 1.342 . S
C1696 C1694 1.285 . S
C1696 H1715 0.930 . S
C1697 C1700 1.424 . S
C1697 C1702 1.245 . S
C1697 C1703 1.428 . S
C1698 C1701 1.260 . S
C1698 C1702 1.477 . S
C1698 H1716 0.932 . S
C1699 C1700 1.384 . S
C1699 C1701 1.479 . S
C1699 H1717 0.929 . S
C1700 C1697 1.424 . S
C1700 C1699 1.384 . S
C1700 H1718 0.928 . S
C1701 C1698 1.260 . S
C1701 C1699 1.479 . S
C1702 C1697 1.245 . S
C1702 C1698 1.477 . S
C1702 H1719 0.932 . S
C1703 U1686 2.882 . S
C1703 C1697 1.428 . S
C1703 O1706 1.301 . S
C1703 O1707 1.282 . S
O1704 U1686 2.441 . S
O1704 C1690 1.249 . S
O1705 U1686 2.420 . S
O1705 C1690 1.202 . S
O1706 U1686 2.455 . S
O1706 C1703 1.301 . S
O1707 U1686 2.449 . S
O1707 C1703 1.282 . S
H1708 C1681 0.931 . S
H1709 C1683 0.929 . S
H1710 C1684 0.930 . S
H1711 C1685 0.931 . S
H1712 C1692 0.932 . S
H1713 C1693 0.930 . S
H1714 C1694 0.929 . S
H1715 C1696 0.930 . S
H1716 C1698 0.932 . S
H1717 C1699 0.929 . S
H1718 C1700 0.928 . S
H1719 C1702 0.932 . S
C1720 C1721 1.264 . S
C1720 C1725 1.479 . S
C1720 C1730 1.465 . S
C1721 C1720 1.264 . S
C1721 C1723 1.339 . S
C1721 H1748 0.931 . S
C1722 C1723 1.395 . S
C1722 C1724 1.320 . S
C1723 C1721 1.339 . S
C1723 C1722 1.395 . S
C1723 H1749 0.929 . S
C1724 C1722 1.320 . S
C1724 C1725 1.405 . S
C1724 H1750 0.930 . S
C1725 C1720 1.479 . S
C1725 C1724 1.405 . S
C1725 H1751 0.931 . S
U1726 O1727 2.454 . S
U1726 O1728 2.458 . S
U1726 C1729 2.984 . S
U1726 C1730 2.847 . S
U1726 C1743 2.882 . S
U1726 O1744 2.441 . S
U1726 O1745 2.420 . S
U1726 O1746 2.455 . S
U1726 O1747 2.449 . S
O1727 U1726 2.454 . S
O1727 C1729 1.353 . S
O1728 U1726 2.458 . S
O1728 C1729 1.286 . S
C1729 U1726 2.984 . S
C1729 O1727 1.353 . S
C1729 O1728 1.286 . S
C1729 C1731 1.363 . S
C1730 C1720 1.465 . S
C1730 U1726 2.847 . S
C1730 O1744 1.249 . S
C1730 O1745 1.202 . S
C1731 C1729 1.363 . S
C1731 C1733 1.408 . S
C1731 C1736 1.342 . S
C1732 C1733 1.310 . S
C1732 C1735 1.461 . S
C1732 H1752 0.932 . S
C1733 C1731 1.408 . S
C1733 C1732 1.310 . S
C1733 H1753 0.930 . S
C1734 C1735 1.474 . S
C1734 C1736 1.285 . S
C1734 H1754 0.929 . S
C1735 C1732 1.461 . S
C1735 C1734 1.474 . S
C1736 C1731 1.342 . S
C1736 C1734 1.285 . S
C1736 H1755 0.930 . S
C1737 C1740 1.424 . S
C1737 C1742 1.245 . S
C1737 C1743 1.428 . S
C1738 C1741 1.260 . S
C1738 C1742 1.477 . S
C1738 H1756 0.932 . S
C1739 C1740 1.384 . S
C1739 C1741 1.479 . S
C1739 H1757 0.929 . S
C1740 C1737 1.424 . S
C1740 C1739 1.384 . S
C1740 H1758 0.928 . S
C1741 C1738 1.260 . S
C1741 C1739 1.479 . S
C1742 C1737 1.245 . S
C1742 C1738 1.477 . S
C1742 H1759 0.932 . S
C1743 U1726 2.882 . S
C1743 C1737 1.428 . S
C1743 O1746 1.301 . S
C1743 O1747 1.282 . S
O1744 U1726 2.441 . S
O1744 C1730 1.249 . S
O1745 U1726 2.420 . S
O1745 C1730 1.202 . S
O1746 U1726 2.455 . S
O1746 C1743 1.301 . S
O1747 U1726 2.449 . S
O1747 C1743 1.282 . S
H1748 C1721 0.931 . S
H1749 C1723 0.929 . S
H1750 C1724 0.930 . S
H1751 C1725 0.931 . S
H1752 C1732 0.932 . S
H1753 C1733 0.930 . S
H1754 C1734 0.929 . S
H1755 C1736 0.930 . S
H1756 C1738 0.932 . S
H1757 C1739 0.929 . S
H1758 C1740 0.928 . S
H1759 C1742 0.932 . S
C1760 C1761 1.264 . S
C1760 C1765 1.479 . S
C1760 C1770 1.465 . S
C1761 C1760 1.264 . S
C1761 C1763 1.339 . S
C1761 H1788 0.931 . S
C1762 C1763 1.395 . S
C1762 C1764 1.320 . S
C1763 C1761 1.339 . S
C1763 C1762 1.395 . S
C1763 H1789 0.929 . S
C1764 C1762 1.320 . S
C1764 C1765 1.405 . S
C1764 H1790 0.930 . S
C1765 C1760 1.479 . S
C1765 C1764 1.405 . S
C1765 H1791 0.931 . S
U1766 O1767 2.454 . S
U1766 O1768 2.458 . S
U1766 C1769 2.984 . S
U1766 C1770 2.847 . S
U1766 C1783 2.882 . S
U1766 O1784 2.441 . S
U1766 O1785 2.420 . S
U1766 O1786 2.455 . S
U1766 O1787 2.449 . S
O1767 U1766 2.454 . S
O1767 C1769 1.353 . S
O1768 U1766 2.458 . S
O1768 C1769 1.286 . S
C1769 U1766 2.984 . S
C1769 O1767 1.353 . S
C1769 O1768 1.286 . S
C1769 C1771 1.363 . S
C1770 C1760 1.465 . S
C1770 U1766 2.847 . S
C1770 O1784 1.249 . S
C1770 O1785 1.202 . S
C1771 C1769 1.363 . S
C1771 C1773 1.408 . S
C1771 C1776 1.342 . S
C1772 C1773 1.310 . S
C1772 C1775 1.461 . S
C1772 H1792 0.932 . S
C1773 C1771 1.408 . S
C1773 C1772 1.310 . S
C1773 H1793 0.930 . S
C1774 C1775 1.474 . S
C1774 C1776 1.285 . S
C1774 H1794 0.929 . S
C1775 C1772 1.461 . S
C1775 C1774 1.474 . S
C1776 C1771 1.342 . S
C1776 C1774 1.285 . S
C1776 H1795 0.930 . S
C1777 C1780 1.424 . S
C1777 C1782 1.245 . S
C1777 C1783 1.428 . S
C1778 C1781 1.260 . S
C1778 C1782 1.477 . S
C1778 H1796 0.932 . S
C1779 C1780 1.384 . S
C1779 C1781 1.479 . S
C1779 H1797 0.929 . S
C1780 C1777 1.424 . S
C1780 C1779 1.384 . S
C1780 H1798 0.928 . S
C1781 C1778 1.260 . S
C1781 C1779 1.479 . S
C1782 C1777 1.245 . S
C1782 C1778 1.477 . S
C1782 H1799 0.932 . S
C1783 U1766 2.882 . S
C1783 C1777 1.428 . S
C1783 O1786 1.301 . S
C1783 O1787 1.282 . S
O1784 U1766 2.441 . S
O1784 C1770 1.249 . S
O1785 U1766 2.420 . S
O1785 C1770 1.202 . S
O1786 U1766 2.455 . S
O1786 C1783 1.301 . S
O1787 U1766 2.449 . S
O1787 C1783 1.282 . S
H1788 C1761 0.931 . S
H1789 C1763 0.929 . S
H1790 C1764 0.930 . S
H1791 C1765 0.931 . S
H1792 C1772 0.932 . S
H1793 C1773 0.930 . S
H1794 C1774 0.929 . S
H1795 C1776 0.930 . S
H1796 C1778 0.932 . S
H1797 C1779 0.929 . S
H1798 C1780 0.928 . S
H1799 C1782 0.932 . S
C1800 C1801 1.264 . S
C1800 C1805 1.479 . S
C1800 C1810 1.465 . S
C1801 C1800 1.264 . S
C1801 C1803 1.339 . S
C1801 H1828 0.931 . S
C1802 C1803 1.395 . S
C1802 C1804 1.320 . S
C1803 C1801 1.339 . S
C1803 C1802 1.395 . S
C1803 H1829 0.929 . S
C1804 C1802 1.320 . S
C1804 C1805 1.405 . S
C1804 H1830 0.930 . S
C1805 C1800 1.479 . S
C1805 C1804 1.405 . S
C1805 H1831 0.931 . S
U1806 O1807 2.454 . S
U1806 O1808 2.458 . S
U1806 C1809 2.984 . S
U1806 C1810 2.847 . S
U1806 C1823 2.882 . S
U1806 O1824 2.441 . S
U1806 O1825 2.420 . S
U1806 O1826 2.455 . S
U1806 O1827 2.449 . S
O1807 U1806 2.454 . S
O1807 C1809 1.353 . S
O1808 U1806 2.458 . S
O1808 C1809 1.286 . S
C1809 U1806 2.984 . S
C1809 O1807 1.353 . S
C1809 O1808 1.286 . S
C1809 C1811 1.363 . S
C1810 C1800 1.465 . S
C1810 U1806 2.847 . S
C1810 O1824 1.249 . S
C1810 O1825 1.202 . S
C1811 C1809 1.363 . S
C1811 C1813 1.408 . S
C1811 C1816 1.342 . S
C1812 C1813 1.310 . S
C1812 C1815 1.461 . S
C1812 H1832 0.932 . S
C1813 C1811 1.408 . S
C1813 C1812 1.310 . S
C1813 H1833 0.930 . S
C1814 C1815 1.474 . S
C1814 C1816 1.285 . S
C1814 H1834 0.929 . S
C1815 C1812 1.461 . S
C1815 C1814 1.474 . S
C1816 C1811 1.342 . S
C1816 C1814 1.285 . S
C1816 H1835 0.930 . S
C1817 C1820 1.424 . S
C1817 C1822 1.245 . S
C1817 C1823 1.428 . S
C1818 C1821 1.260 . S
C1818 C1822 1.477 . S
C1818 H1836 0.932 . S
C1819 C1820 1.384 . S
C1819 C1821 1.479 . S
C1819 H1837 0.929 . S
C1820 C1817 1.424 . S
C1820 C1819 1.384 . S
C1820 H1838 0.928 . S
C1821 C1818 1.260 . S
C1821 C1819 1.479 . S
C1822 C1817 1.245 . S
C1822 C1818 1.477 . S
C1822 H1839 0.932 . S
C1823 U1806 2.882 . S
C1823 C1817 1.428 . S
C1823 O1826 1.301 . S
C1823 O1827 1.282 . S
O1824 U1806 2.441 . S
O1824 C1810 1.249 . S
O1825 U1806 2.420 . S
O1825 C1810 1.202 . S
O1826 U1806 2.455 . S
O1826 C1823 1.301 . S
O1827 U1806 2.449 . S
O1827 C1823 1.282 . S
H1828 C1801 0.931 . S
H1829 C1803 0.929 . S
H1830 C1804 0.930 . S
H1831 C1805 0.931 . S
H1832 C1812 0.932 . S
H1833 C1813 0.930 . S
H1834 C1814 0.929 . S
H1835 C1816 0.930 . S
H1836 C1818 0.932 . S
H1837 C1819 0.929 . S
H1838 C1820 0.928 . S
H1839 C1822 0.932 . S
C1840 C1841 1.264 . S
C1840 C1845 1.479 . S
C1840 C1850 1.465 . S
C1841 C1840 1.264 . S
C1841 C1843 1.339 . S
C1841 H1868 0.931 . S
C1842 C1843 1.395 . S
C1842 C1844 1.320 . S
C1843 C1841 1.339 . S
C1843 C1842 1.395 . S
C1843 H1869 0.929 . S
C1844 C1842 1.320 . S
C1844 C1845 1.405 . S
C1844 H1870 0.930 . S
C1845 C1840 1.479 . S
C1845 C1844 1.405 . S
C1845 H1871 0.931 . S
U1846 O1847 2.454 . S
U1846 O1848 2.458 . S
U1846 C1849 2.984 . S
U1846 C1850 2.847 . S
U1846 C1863 2.882 . S
U1846 O1864 2.441 . S
U1846 O1865 2.420 . S
U1846 O1866 2.455 . S
U1846 O1867 2.449 . S
O1847 U1846 2.454 . S
O1847 C1849 1.353 . S
O1848 U1846 2.458 . S
O1848 C1849 1.286 . S
C1849 U1846 2.984 . S
C1849 O1847 1.353 . S
C1849 O1848 1.286 . S
C1849 C1851 1.363 . S
C1850 C1840 1.465 . S
C1850 U1846 2.847 . S
C1850 O1864 1.249 . S
C1850 O1865 1.202 . S
C1851 C1849 1.363 . S
C1851 C1853 1.408 . S
C1851 C1856 1.342 . S
C1852 C1853 1.310 . S
C1852 C1855 1.461 . S
C1852 H1872 0.932 . S
C1853 C1851 1.408 . S
C1853 C1852 1.310 . S
C1853 H1873 0.930 . S
C1854 C1855 1.474 . S
C1854 C1856 1.285 . S
C1854 H1874 0.929 . S
C1855 C1852 1.461 . S
C1855 C1854 1.474 . S
C1856 C1851 1.342 . S
C1856 C1854 1.285 . S
C1856 H1875 0.930 . S
C1857 C1860 1.424 . S
C1857 C1862 1.245 . S
C1857 C1863 1.428 . S
C1858 C1861 1.260 . S
C1858 C1862 1.477 . S
C1858 H1876 0.932 . S
C1859 C1860 1.384 . S
C1859 C1861 1.479 . S
C1859 H1877 0.929 . S
C1860 C1857 1.424 . S
C1860 C1859 1.384 . S
C1860 H1878 0.928 . S
C1861 C1858 1.260 . S
C1861 C1859 1.479 . S
C1862 C1857 1.245 . S
C1862 C1858 1.477 . S
C1862 H1879 0.932 . S
C1863 U1846 2.882 . S
C1863 C1857 1.428 . S
C1863 O1866 1.301 . S
C1863 O1867 1.282 . S
O1864 U1846 2.441 . S
O1864 C1850 1.249 . S
O1865 U1846 2.420 . S
O1865 C1850 1.202 . S
O1866 U1846 2.455 . S
O1866 C1863 1.301 . S
O1867 U1846 2.449 . S
O1867 C1863 1.282 . S
H1868 C1841 0.931 . S
H1869 C1843 0.929 . S
H1870 C1844 0.930 . S
H1871 C1845 0.931 . S
H1872 C1852 0.932 . S
H1873 C1853 0.930 . S
H1874 C1854 0.929 . S
H1875 C1856 0.930 . S
H1876 C1858 0.932 . S
H1877 C1859 0.929 . S
H1878 C1860 0.928 . S
H1879 C1862 0.932 . S
C1880 C1881 1.264 . S
C1880 C1885 1.479 . S
C1880 C1890 1.465 . S
C1881 C1880 1.264 . S
C1881 C1883 1.339 . S
C1881 H1908 0.931 . S
C1882 C1883 1.395 . S
C1882 C1884 1.320 . S
C1883 C1881 1.339 . S
C1883 C1882 1.395 . S
C1883 H1909 0.929 . S
C1884 C1882 1.320 . S
C1884 C1885 1.405 . S
C1884 H1910 0.930 . S
C1885 C1880 1.479 . S
C1885 C1884 1.405 . S
C1885 H1911 0.931 . S
U1886 O1887 2.454 . S
U1886 O1888 2.458 . S
U1886 C1889 2.984 . S
U1886 C1890 2.847 . S
U1886 C1903 2.882 . S
U1886 O1904 2.441 . S
U1886 O1905 2.420 . S
U1886 O1906 2.455 . S
U1886 O1907 2.449 . S
O1887 U1886 2.454 . S
O1887 C1889 1.353 . S
O1888 U1886 2.458 . S
O1888 C1889 1.286 . S
C1889 U1886 2.984 . S
C1889 O1887 1.353 . S
C1889 O1888 1.286 . S
C1889 C1891 1.363 . S
C1890 C1880 1.465 . S
C1890 U1886 2.847 . S
C1890 O1904 1.249 . S
C1890 O1905 1.202 . S
C1891 C1889 1.363 . S
C1891 C1893 1.408 . S
C1891 C1896 1.342 . S
C1892 C1893 1.310 . S
C1892 C1895 1.461 . S
C1892 H1912 0.932 . S
C1893 C1891 1.408 . S
C1893 C1892 1.310 . S
C1893 H1913 0.930 . S
C1894 C1895 1.474 . S
C1894 C1896 1.285 . S
C1894 H1914 0.929 . S
C1895 C1892 1.461 . S
C1895 C1894 1.474 . S
C1896 C1891 1.342 . S
C1896 C1894 1.285 . S
C1896 H1915 0.930 . S
C1897 C1900 1.424 . S
C1897 C1902 1.245 . S
C1897 C1903 1.428 . S
C1898 C1901 1.260 . S
C1898 C1902 1.477 . S
C1898 H1916 0.932 . S
C1899 C1900 1.384 . S
C1899 C1901 1.479 . S
C1899 H1917 0.929 . S
C1900 C1897 1.424 . S
C1900 C1899 1.384 . S
C1900 H1918 0.928 . S
C1901 C1898 1.260 . S
C1901 C1899 1.479 . S
C1902 C1897 1.245 . S
C1902 C1898 1.477 . S
C1902 H1919 0.932 . S
C1903 U1886 2.882 . S
C1903 C1897 1.428 . S
C1903 O1906 1.301 . S
C1903 O1907 1.282 . S
O1904 U1886 2.441 . S
O1904 C1890 1.249 . S
O1905 U1886 2.420 . S
O1905 C1890 1.202 . S
O1906 U1886 2.455 . S
O1906 C1903 1.301 . S
O1907 U1886 2.449 . S
O1907 C1903 1.282 . S
H1908 C1881 0.931 . S
H1909 C1883 0.929 . S
H1910 C1884 0.930 . S
H1911 C1885 0.931 . S
H1912 C1892 0.932 . S
H1913 C1893 0.930 . S
H1914 C1894 0.929 . S
H1915 C1896 0.930 . S
H1916 C1898 0.932 . S
H1917 C1899 0.929 . S
H1918 C1900 0.928 . S
H1919 C1902 0.932 . S
C1920 C1921 1.384 . S
C1920 H1933 0.947 . S
C1920 C1955 1.382 . S
C1921 C1920 1.384 . S
C1921 C1922 1.378 . S
C1922 C1921 1.378 . S
C1922 C1923 1.378 . S
C1922 H1934 0.952 . S
C1923 C1922 1.378 . S
C1923 H1935 0.950 . S
C1923 C1954 1.383 . S
H1924 C1943 0.947 . S
H1925 C1944 0.946 . S
H1926 C1946 0.953 . S
H1927 C1947 0.945 . S
H1928 C1949 0.952 . S
H1929 C1950 0.949 . S
H1930 C1952 0.950 . S
H1931 C1953 0.948 . S
H1932 C1955 0.951 . S
H1933 C1920 0.947 . S
H1934 C1922 0.952 . S
H1935 C1923 0.950 . S
N1936 C1939 1.382 . S
N1936 C1941 1.363 . S
N1937 C1939 1.371 . S
N1937 C1940 1.372 . S
N1938 C1940 1.361 . S
N1938 C1941 1.377 . S
C1939 N1936 1.382 . S
C1939 N1937 1.371 . S
C1939 C1942 1.480 . S
C1940 N1937 1.372 . S
C1940 N1938 1.361 . S
C1940 C1948 1.457 . S
C1941 N1936 1.363 . S
C1941 N1938 1.377 . S
C1941 C1954 1.479 . S
C1942 C1939 1.480 . S
C1942 C1943 1.383 . S
C1942 C1947 1.385 . S
C1943 H1924 0.947 . S
C1943 C1942 1.383 . S
C1943 C1944 1.388 . S
C1944 H1925 0.946 . S
C1944 C1943 1.388 . S
C1944 C1945 1.384 . S
C1945 C1944 1.384 . S
C1945 C1946 1.377 . S
C1946 H1926 0.953 . S
C1946 C1945 1.377 . S
C1946 C1947 1.369 . S
C1947 H1927 0.945 . S
C1947 C1942 1.385 . S
C1947 C1946 1.369 . S
C1948 C1940 1.457 . S
C1948 C1949 1.372 . S
C1948 C1953 1.364 . S
C1949 H1928 0.952 . S
C1949 C1948 1.372 . S
C1949 C1950 1.389 . S
C1950 H1929 0.949 . S
C1950 C1949 1.389 . S
C1950 C1951 1.387 . S
C1951 C1950 1.387 . S
C1951 C1952 1.372 . S
C1952 H1930 0.950 . S
C1952 C1951 1.372 . S
C1952 C1953 1.379 . S
C1953 H1931 0.948 . S
C1953 C1948 1.364 . S
C1953 C1952 1.379 . S
C1954 C1923 1.383 . S
C1954 C1941 1.479 . S
C1954 C1955 1.398 . S
C1955 C1920 1.382 . S
C1955 H1932 0.951 . S
C1955 C1954 1.398 . S
C1956 C1957 1.384 . S
C1956 H1969 0.947 . S
C1956 C1991 1.382 . S
C1957 C1956 1.384 . S
C1957 C1958 1.378 . S
C1958 C1957 1.378 . S
C1958 C1959 1.378 . S
C1958 H1970 0.952 . S
C1959 C1958 1.378 . S
C1959 H1971 0.950 . S
C1959 C1990 1.383 . S
H1960 C1979 0.947 . S
H1961 C1980 0.946 . S
H1962 C1982 0.953 . S
H1963 C1983 0.945 . S
H1964 C1985 0.952 . S
H1965 C1986 0.949 . S
H1966 C1988 0.950 . S
H1967 C1989 0.948 . S
H1968 C1991 0.951 . S
H1969 C1956 0.947 . S
H1970 C1958 0.952 . S
H1971 C1959 0.950 . S
N1972 C1975 1.382 . S
N1972 C1977 1.363 . S
N1973 C1975 1.371 . S
N1973 C1976 1.372 . S
N1974 C1976 1.361 . S
N1974 C1977 1.377 . S
C1975 N1972 1.382 . S
C1975 N1973 1.371 . S
C1975 C1978 1.480 . S
C1976 N1973 1.372 . S
C1976 N1974 1.361 . S
C1976 C1984 1.457 . S
C1977 N1972 1.363 . S
C1977 N1974 1.377 . S
C1977 C1990 1.479 . S
C1978 C1975 1.480 . S
C1978 C1979 1.383 . S
C1978 C1983 1.385 . S
C1979 H1960 0.947 . S
C1979 C1978 1.383 . S
C1979 C1980 1.388 . S
C1980 H1961 0.946 . S
C1980 C1979 1.388 . S
C1980 C1981 1.384 . S
C1981 C1980 1.384 . S
C1981 C1982 1.377 . S
C1982 H1962 0.953 . S
C1982 C1981 1.377 . S
C1982 C1983 1.369 . S
C1983 H1963 0.945 . S
C1983 C1978 1.385 . S
C1983 C1982 1.369 . S
C1984 C1976 1.457 . S
C1984 C1985 1.372 . S
C1984 C1989 1.364 . S
C1985 H1964 0.952 . S
C1985 C1984 1.372 . S
C1985 C1986 1.389 . S
C1986 H1965 0.949 . S
C1986 C1985 1.389 . S
C1986 C1987 1.387 . S
C1987 C1986 1.387 . S
C1987 C1988 1.372 . S
C1988 H1966 0.950 . S
C1988 C1987 1.372 . S
C1988 C1989 1.379 . S
C1989 H1967 0.948 . S
C1989 C1984 1.364 . S
C1989 C1988 1.379 . S
C1990 C1959 1.383 . S
C1990 C1977 1.479 . S
C1990 C1991 1.398 . S
C1991 C1956 1.382 . S
C1991 H1968 0.951 . S
C1991 C1990 1.398 . S
C1992 C1993 1.384 . S
C1992 H2005 0.947 . S
C1992 C2027 1.382 . S
C1993 C1992 1.384 . S
C1993 C1994 1.378 . S
C1994 C1993 1.378 . S
C1994 C1995 1.378 . S
C1994 H2006 0.952 . S
C1995 C1994 1.378 . S
C1995 H2007 0.950 . S
C1995 C2026 1.383 . S
H1996 C2015 0.947 . S
H1997 C2016 0.946 . S
H1998 C2018 0.953 . S
H1999 C2019 0.945 . S
H2000 C2021 0.952 . S
H2001 C2022 0.949 . S
H2002 C2024 0.950 . S
H2003 C2025 0.948 . S
H2004 C2027 0.951 . S
H2005 C1992 0.947 . S
H2006 C1994 0.952 . S
H2007 C1995 0.950 . S
N2008 C2011 1.382 . S
N2008 C2013 1.363 . S
N2009 C2011 1.371 . S
N2009 C2012 1.372 . S
N2010 C2012 1.361 . S
N2010 C2013 1.377 . S
C2011 N2008 1.382 . S
C2011 N2009 1.371 . S
C2011 C2014 1.480 . S
C2012 N2009 1.372 . S
C2012 N2010 1.361 . S
C2012 C2020 1.457 . S
C2013 N2008 1.363 . S
C2013 N2010 1.377 . S
C2013 C2026 1.479 . S
C2014 C2011 1.480 . S
C2014 C2015 1.383 . S
C2014 C2019 1.385 . S
C2015 H1996 0.947 . S
C2015 C2014 1.383 . S
C2015 C2016 1.388 . S
C2016 H1997 0.946 . S
C2016 C2015 1.388 . S
C2016 C2017 1.384 . S
C2017 C2016 1.384 . S
C2017 C2018 1.377 . S
C2018 H1998 0.953 . S
C2018 C2017 1.377 . S
C2018 C2019 1.369 . S
C2019 H1999 0.945 . S
C2019 C2014 1.385 . S
C2019 C2018 1.369 . S
C2020 C2012 1.457 . S
C2020 C2021 1.372 . S
C2020 C2025 1.364 . S
C2021 H2000 0.952 . S
C2021 C2020 1.372 . S
C2021 C2022 1.389 . S
C2022 H2001 0.949 . S
C2022 C2021 1.389 . S
C2022 C2023 1.387 . S
C2023 C2022 1.387 . S
C2023 C2024 1.372 . S
C2024 H2002 0.950 . S
C2024 C2023 1.372 . S
C2024 C2025 1.379 . S
C2025 H2003 0.948 . S
C2025 C2020 1.364 . S
C2025 C2024 1.379 . S
C2026 C1995 1.383 . S
C2026 C2013 1.479 . S
C2026 C2027 1.398 . S
C2027 C1992 1.382 . S
C2027 H2004 0.951 . S
C2027 C2026 1.398 . S
C2028 C2029 1.384 . S
C2028 H2041 0.947 . S
C2028 C2063 1.382 . S
C2029 C2028 1.384 . S
C2029 C2030 1.378 . S
C2030 C2029 1.378 . S
C2030 C2031 1.378 . S
C2030 H2042 0.952 . S
C2031 C2030 1.378 . S
C2031 H2043 0.950 . S
C2031 C2062 1.383 . S
H2032 C2051 0.947 . S
H2033 C2052 0.946 . S
H2034 C2054 0.953 . S
H2035 C2055 0.945 . S
H2036 C2057 0.952 . S
H2037 C2058 0.949 . S
H2038 C2060 0.950 . S
H2039 C2061 0.948 . S
H2040 C2063 0.951 . S
H2041 C2028 0.947 . S
H2042 C2030 0.952 . S
H2043 C2031 0.950 . S
N2044 C2047 1.382 . S
N2044 C2049 1.363 . S
N2045 C2047 1.371 . S
N2045 C2048 1.372 . S
N2046 C2048 1.361 . S
N2046 C2049 1.377 . S
C2047 N2044 1.382 . S
C2047 N2045 1.371 . S
C2047 C2050 1.480 . S
C2048 N2045 1.372 . S
C2048 N2046 1.361 . S
C2048 C2056 1.457 . S
C2049 N2044 1.363 . S
C2049 N2046 1.377 . S
C2049 C2062 1.479 . S
C2050 C2047 1.480 . S
C2050 C2051 1.383 . S
C2050 C2055 1.385 . S
C2051 H2032 0.947 . S
C2051 C2050 1.383 . S
C2051 C2052 1.388 . S
C2052 H2033 0.946 . S
C2052 C2051 1.388 . S
C2052 C2053 1.384 . S
C2053 C2052 1.384 . S
C2053 C2054 1.377 . S
C2054 H2034 0.953 . S
C2054 C2053 1.377 . S
C2054 C2055 1.369 . S
C2055 H2035 0.945 . S
C2055 C2050 1.385 . S
C2055 C2054 1.369 . S
C2056 C2048 1.457 . S
C2056 C2057 1.372 . S
C2056 C2061 1.364 . S
C2057 H2036 0.952 . S
C2057 C2056 1.372 . S
C2057 C2058 1.389 . S
C2058 H2037 0.949 . S
C2058 C2057 1.389 . S
C2058 C2059 1.387 . S
C2059 C2058 1.387 . S
C2059 C2060 1.372 . S
C2060 H2038 0.950 . S
C2060 C2059 1.372 . S
C2060 C2061 1.379 . S
C2061 H2039 0.948 . S
C2061 C2056 1.364 . S
C2061 C2060 1.379 . S
C2062 C2031 1.383 . S
C2062 C2049 1.479 . S
C2062 C2063 1.398 . S
C2063 C2028 1.382 . S
C2063 H2040 0.951 . S
C2063 C2062 1.398 . S
C2064 C2065 1.384 . S
C2064 H2077 0.947 . S
C2064 C2099 1.382 . S
C2065 C2064 1.384 . S
C2065 C2066 1.378 . S
C2066 C2065 1.378 . S
C2066 C2067 1.378 . S
C2066 H2078 0.952 . S
C2067 C2066 1.378 . S
C2067 H2079 0.950 . S
C2067 C2098 1.383 . S
H2068 C2087 0.947 . S
H2069 C2088 0.946 . S
H2070 C2090 0.953 . S
H2071 C2091 0.945 . S
H2072 C2093 0.952 . S
H2073 C2094 0.949 . S
H2074 C2096 0.950 . S
H2075 C2097 0.948 . S
H2076 C2099 0.951 . S
H2077 C2064 0.947 . S
H2078 C2066 0.952 . S
H2079 C2067 0.950 . S
N2080 C2083 1.382 . S
N2080 C2085 1.363 . S
N2081 C2083 1.371 . S
N2081 C2084 1.372 . S
N2082 C2084 1.361 . S
N2082 C2085 1.377 . S
C2083 N2080 1.382 . S
C2083 N2081 1.371 . S
C2083 C2086 1.480 . S
C2084 N2081 1.372 . S
C2084 N2082 1.361 . S
C2084 C2092 1.457 . S
C2085 N2080 1.363 . S
C2085 N2082 1.377 . S
C2085 C2098 1.479 . S
C2086 C2083 1.480 . S
C2086 C2087 1.383 . S
C2086 C2091 1.385 . S
C2087 H2068 0.947 . S
C2087 C2086 1.383 . S
C2087 C2088 1.388 . S
C2088 H2069 0.946 . S
C2088 C2087 1.388 . S
C2088 C2089 1.384 . S
C2089 C2088 1.384 . S
C2089 C2090 1.377 . S
C2090 H2070 0.953 . S
C2090 C2089 1.377 . S
C2090 C2091 1.369 . S
C2091 H2071 0.945 . S
C2091 C2086 1.385 . S
C2091 C2090 1.369 . S
C2092 C2084 1.457 . S
C2092 C2093 1.372 . S
C2092 C2097 1.364 . S
C2093 H2072 0.952 . S
C2093 C2092 1.372 . S
C2093 C2094 1.389 . S
C2094 H2073 0.949 . S
C2094 C2093 1.389 . S
C2094 C2095 1.387 . S
C2095 C2094 1.387 . S
C2095 C2096 1.372 . S
C2096 H2074 0.950 . S
C2096 C2095 1.372 . S
C2096 C2097 1.379 . S
C2097 H2075 0.948 . S
C2097 C2092 1.364 . S
C2097 C2096 1.379 . S
C2098 C2067 1.383 . S
C2098 C2085 1.479 . S
C2098 C2099 1.398 . S
C2099 C2064 1.382 . S
C2099 H2076 0.951 . S
C2099 C2098 1.398 . S
C2100 C2101 1.384 . S
C2100 H2113 0.947 . S
C2100 C2135 1.382 . S
C2101 C2100 1.384 . S
C2101 C2102 1.378 . S
C2102 C2101 1.378 . S
C2102 C2103 1.378 . S
C2102 H2114 0.952 . S
C2103 C2102 1.378 . S
C2103 H2115 0.950 . S
C2103 C2134 1.383 . S
H2104 C2123 0.947 . S
H2105 C2124 0.946 . S
H2106 C2126 0.953 . S
H2107 C2127 0.945 . S
H2108 C2129 0.952 . S
H2109 C2130 0.949 . S
H2110 C2132 0.950 . S
H2111 C2133 0.948 . S
H2112 C2135 0.951 . S
H2113 C2100 0.947 . S
H2114 C2102 0.952 . S
H2115 C2103 0.950 . S
N2116 C2119 1.382 . S
N2116 C2121 1.363 . S
N2117 C2119 1.371 . S
N2117 C2120 1.372 . S
N2118 C2120 1.361 . S
N2118 C2121 1.377 . S
C2119 N2116 1.382 . S
C2119 N2117 1.371 . S
C2119 C2122 1.480 . S
C2120 N2117 1.372 . S
C2120 N2118 1.361 . S
C2120 C2128 1.457 . S
C2121 N2116 1.363 . S
C2121 N2118 1.377 . S
C2121 C2134 1.479 . S
C2122 C2119 1.480 . S
C2122 C2123 1.383 . S
C2122 C2127 1.385 . S
C2123 H2104 0.947 . S
C2123 C2122 1.383 . S
C2123 C2124 1.388 . S
C2124 H2105 0.946 . S
C2124 C2123 1.388 . S
C2124 C2125 1.384 . S
C2125 C2124 1.384 . S
C2125 C2126 1.377 . S
C2126 H2106 0.953 . S
C2126 C2125 1.377 . S
C2126 C2127 1.369 . S
C2127 H2107 0.945 . S
C2127 C2122 1.385 . S
C2127 C2126 1.369 . S
C2128 C2120 1.457 . S
C2128 C2129 1.372 . S
C2128 C2133 1.364 . S
C2129 H2108 0.952 . S
C2129 C2128 1.372 . S
C2129 C2130 1.389 . S
C2130 H2109 0.949 . S
C2130 C2129 1.389 . S
C2130 C2131 1.387 . S
C2131 C2130 1.387 . S
C2131 C2132 1.372 . S
C2132 H2110 0.950 . S
C2132 C2131 1.372 . S
C2132 C2133 1.379 . S
C2133 H2111 0.948 . S
C2133 C2128 1.364 . S
C2133 C2132 1.379 . S
C2134 C2103 1.383 . S
C2134 C2121 1.479 . S
C2134 C2135 1.398 . S
C2135 C2100 1.382 . S
C2135 H2112 0.951 . S
C2135 C2134 1.398 . S
C2136 C2137 1.384 . S
C2136 H2149 0.947 . S
C2136 C2171 1.382 . S
C2137 C2136 1.384 . S
C2137 C2138 1.378 . S
C2138 C2137 1.378 . S
C2138 C2139 1.378 . S
C2138 H2150 0.952 . S
C2139 C2138 1.378 . S
C2139 H2151 0.950 . S
C2139 C2170 1.383 . S
H2140 C2159 0.947 . S
H2141 C2160 0.946 . S
H2142 C2162 0.953 . S
H2143 C2163 0.945 . S
H2144 C2165 0.952 . S
H2145 C2166 0.949 . S
H2146 C2168 0.950 . S
H2147 C2169 0.948 . S
H2148 C2171 0.951 . S
H2149 C2136 0.947 . S
H2150 C2138 0.952 . S
H2151 C2139 0.950 . S
N2152 C2155 1.382 . S
N2152 C2157 1.363 . S
N2153 C2155 1.371 . S
N2153 C2156 1.372 . S
N2154 C2156 1.361 . S
N2154 C2157 1.377 . S
C2155 N2152 1.382 . S
C2155 N2153 1.371 . S
C2155 C2158 1.480 . S
C2156 N2153 1.372 . S
C2156 N2154 1.361 . S
C2156 C2164 1.457 . S
C2157 N2152 1.363 . S
C2157 N2154 1.377 . S
C2157 C2170 1.479 . S
C2158 C2155 1.480 . S
C2158 C2159 1.383 . S
C2158 C2163 1.385 . S
C2159 H2140 0.947 . S
C2159 C2158 1.383 . S
C2159 C2160 1.388 . S
C2160 H2141 0.946 . S
C2160 C2159 1.388 . S
C2160 C2161 1.384 . S
C2161 C2160 1.384 . S
C2161 C2162 1.377 . S
C2162 H2142 0.953 . S
C2162 C2161 1.377 . S
C2162 C2163 1.369 . S
C2163 H2143 0.945 . S
C2163 C2158 1.385 . S
C2163 C2162 1.369 . S
C2164 C2156 1.457 . S
C2164 C2165 1.372 . S
C2164 C2169 1.364 . S
C2165 H2144 0.952 . S
C2165 C2164 1.372 . S
C2165 C2166 1.389 . S
C2166 H2145 0.949 . S
C2166 C2165 1.389 . S
C2166 C2167 1.387 . S
C2167 C2166 1.387 . S
C2167 C2168 1.372 . S
C2168 H2146 0.950 . S
C2168 C2167 1.372 . S
C2168 C2169 1.379 . S
C2169 H2147 0.948 . S
C2169 C2164 1.364 . S
C2169 C2168 1.379 . S
C2170 C2139 1.383 . S
C2170 C2157 1.479 . S
C2170 C2171 1.398 . S
C2171 C2136 1.382 . S
C2171 H2148 0.951 . S
C2171 C2170 1.398 . S
C2172 C2173 1.384 . S
C2172 H2185 0.947 . S
C2172 C2207 1.382 . S
C2173 C2172 1.384 . S
C2173 C2174 1.378 . S
C2174 C2173 1.378 . S
C2174 C2175 1.378 . S
C2174 H2186 0.952 . S
C2175 C2174 1.378 . S
C2175 H2187 0.950 . S
C2175 C2206 1.383 . S
H2176 C2195 0.947 . S
H2177 C2196 0.946 . S
H2178 C2198 0.953 . S
H2179 C2199 0.945 . S
H2180 C2201 0.952 . S
H2181 C2202 0.949 . S
H2182 C2204 0.950 . S
H2183 C2205 0.948 . S
H2184 C2207 0.951 . S
H2185 C2172 0.947 . S
H2186 C2174 0.952 . S
H2187 C2175 0.950 . S
N2188 C2191 1.382 . S
N2188 C2193 1.363 . S
N2189 C2191 1.371 . S
N2189 C2192 1.372 . S
N2190 C2192 1.361 . S
N2190 C2193 1.377 . S
C2191 N2188 1.382 . S
C2191 N2189 1.371 . S
C2191 C2194 1.480 . S
C2192 N2189 1.372 . S
C2192 N2190 1.361 . S
C2192 C2200 1.457 . S
C2193 N2188 1.363 . S
C2193 N2190 1.377 . S
C2193 C2206 1.479 . S
C2194 C2191 1.480 . S
C2194 C2195 1.383 . S
C2194 C2199 1.385 . S
C2195 H2176 0.947 . S
C2195 C2194 1.383 . S
C2195 C2196 1.388 . S
C2196 H2177 0.946 . S
C2196 C2195 1.388 . S
C2196 C2197 1.384 . S
C2197 C2196 1.384 . S
C2197 C2198 1.377 . S
C2198 H2178 0.953 . S
C2198 C2197 1.377 . S
C2198 C2199 1.369 . S
C2199 H2179 0.945 . S
C2199 C2194 1.385 . S
C2199 C2198 1.369 . S
C2200 C2192 1.457 . S
C2200 C2201 1.372 . S
C2200 C2205 1.364 . S
C2201 H2180 0.952 . S
C2201 C2200 1.372 . S
C2201 C2202 1.389 . S
C2202 H2181 0.949 . S
C2202 C2201 1.389 . S
C2202 C2203 1.387 . S
C2203 C2202 1.387 . S
C2203 C2204 1.372 . S
C2204 H2182 0.950 . S
C2204 C2203 1.372 . S
C2204 C2205 1.379 . S
C2205 H2183 0.948 . S
C2205 C2200 1.364 . S
C2205 C2204 1.379 . S
C2206 C2175 1.383 . S
C2206 C2193 1.479 . S
C2206 C2207 1.398 . S
C2207 C2172 1.382 . S
C2207 H2184 0.951 . S
C2207 C2206 1.398 . S
C2208 C2209 1.384 . S
C2208 H2221 0.947 . S
C2208 C2243 1.382 . S
C2209 C2208 1.384 . S
C2209 C2210 1.378 . S
C2210 C2209 1.378 . S
C2210 C2211 1.378 . S
C2210 H2222 0.952 . S
C2211 C2210 1.378 . S
C2211 H2223 0.950 . S
C2211 C2242 1.383 . S
H2212 C2231 0.947 . S
H2213 C2232 0.946 . S
H2214 C2234 0.953 . S
H2215 C2235 0.945 . S
H2216 C2237 0.952 . S
H2217 C2238 0.949 . S
H2218 C2240 0.950 . S
H2219 C2241 0.948 . S
H2220 C2243 0.951 . S
H2221 C2208 0.947 . S
H2222 C2210 0.952 . S
H2223 C2211 0.950 . S
N2224 C2227 1.382 . S
N2224 C2229 1.363 . S
N2225 C2227 1.371 . S
N2225 C2228 1.372 . S
N2226 C2228 1.361 . S
N2226 C2229 1.377 . S
C2227 N2224 1.382 . S
C2227 N2225 1.371 . S
C2227 C2230 1.480 . S
C2228 N2225 1.372 . S
C2228 N2226 1.361 . S
C2228 C2236 1.457 . S
C2229 N2224 1.363 . S
C2229 N2226 1.377 . S
C2229 C2242 1.479 . S
C2230 C2227 1.480 . S
C2230 C2231 1.383 . S
C2230 C2235 1.385 . S
C2231 H2212 0.947 . S
C2231 C2230 1.383 . S
C2231 C2232 1.388 . S
C2232 H2213 0.946 . S
C2232 C2231 1.388 . S
C2232 C2233 1.384 . S
C2233 C2232 1.384 . S
C2233 C2234 1.377 . S
C2234 H2214 0.953 . S
C2234 C2233 1.377 . S
C2234 C2235 1.369 . S
C2235 H2215 0.945 . S
C2235 C2230 1.385 . S
C2235 C2234 1.369 . S
C2236 C2228 1.457 . S
C2236 C2237 1.372 . S
C2236 C2241 1.364 . S
C2237 H2216 0.952 . S
C2237 C2236 1.372 . S
C2237 C2238 1.389 . S
C2238 H2217 0.949 . S
C2238 C2237 1.389 . S
C2238 C2239 1.387 . S
C2239 C2238 1.387 . S
C2239 C2240 1.372 . S
C2240 H2218 0.950 . S
C2240 C2239 1.372 . S
C2240 C2241 1.379 . S
C2241 H2219 0.948 . S
C2241 C2236 1.364 . S
C2241 C2240 1.379 . S
C2242 C2211 1.383 . S
C2242 C2229 1.479 . S
C2242 C2243 1.398 . S
C2243 C2208 1.382 . S
C2243 H2220 0.951 . S
C2243 C2242 1.398 . S
C2244 C2245 1.384 . S
C2244 H2257 0.947 . S
C2244 C2279 1.382 . S
C2245 C2244 1.384 . S
C2245 C2246 1.378 . S
C2246 C2245 1.378 . S
C2246 C2247 1.378 . S
C2246 H2258 0.952 . S
C2247 C2246 1.378 . S
C2247 H2259 0.950 . S
C2247 C2278 1.383 . S
H2248 C2267 0.947 . S
H2249 C2268 0.946 . S
H2250 C2270 0.953 . S
H2251 C2271 0.945 . S
H2252 C2273 0.952 . S
H2253 C2274 0.949 . S
H2254 C2276 0.950 . S
H2255 C2277 0.948 . S
H2256 C2279 0.951 . S
H2257 C2244 0.947 . S
H2258 C2246 0.952 . S
H2259 C2247 0.950 . S
N2260 C2263 1.382 . S
N2260 C2265 1.363 . S
N2261 C2263 1.371 . S
N2261 C2264 1.372 . S
N2262 C2264 1.361 . S
N2262 C2265 1.377 . S
C2263 N2260 1.382 . S
C2263 N2261 1.371 . S
C2263 C2266 1.480 . S
C2264 N2261 1.372 . S
C2264 N2262 1.361 . S
C2264 C2272 1.457 . S
C2265 N2260 1.363 . S
C2265 N2262 1.377 . S
C2265 C2278 1.479 . S
C2266 C2263 1.480 . S
C2266 C2267 1.383 . S
C2266 C2271 1.385 . S
C2267 H2248 0.947 . S
C2267 C2266 1.383 . S
C2267 C2268 1.388 . S
C2268 H2249 0.946 . S
C2268 C2267 1.388 . S
C2268 C2269 1.384 . S
C2269 C2268 1.384 . S
C2269 C2270 1.377 . S
C2270 H2250 0.953 . S
C2270 C2269 1.377 . S
C2270 C2271 1.369 . S
C2271 H2251 0.945 . S
C2271 C2266 1.385 . S
C2271 C2270 1.369 . S
C2272 C2264 1.457 . S
C2272 C2273 1.372 . S
C2272 C2277 1.364 . S
C2273 H2252 0.952 . S
C2273 C2272 1.372 . S
C2273 C2274 1.389 . S
C2274 H2253 0.949 . S
C2274 C2273 1.389 . S
C2274 C2275 1.387 . S
C2275 C2274 1.387 . S
C2275 C2276 1.372 . S
C2276 H2254 0.950 . S
C2276 C2275 1.372 . S
C2276 C2277 1.379 . S
C2277 H2255 0.948 . S
C2277 C2272 1.364 . S
C2277 C2276 1.379 . S
C2278 C2247 1.383 . S
C2278 C2265 1.479 . S
C2278 C2279 1.398 . S
C2279 C2244 1.382 . S
C2279 H2256 0.951 . S
C2279 C2278 1.398 . S
C2280 C2281 1.384 . S
C2280 H2293 0.947 . S
C2280 C2315 1.382 . S
C2281 C2280 1.384 . S
C2281 C2282 1.378 . S
C2282 C2281 1.378 . S
C2282 C2283 1.378 . S
C2282 H2294 0.952 . S
C2283 C2282 1.378 . S
C2283 H2295 0.950 . S
C2283 C2314 1.383 . S
H2284 C2303 0.947 . S
H2285 C2304 0.946 . S
H2286 C2306 0.953 . S
H2287 C2307 0.945 . S
H2288 C2309 0.952 . S
H2289 C2310 0.949 . S
H2290 C2312 0.950 . S
H2291 C2313 0.948 . S
H2292 C2315 0.951 . S
H2293 C2280 0.947 . S
H2294 C2282 0.952 . S
H2295 C2283 0.950 . S
N2296 C2299 1.382 . S
N2296 C2301 1.363 . S
N2297 C2299 1.371 . S
N2297 C2300 1.372 . S
N2298 C2300 1.361 . S
N2298 C2301 1.377 . S
C2299 N2296 1.382 . S
C2299 N2297 1.371 . S
C2299 C2302 1.480 . S
C2300 N2297 1.372 . S
C2300 N2298 1.361 . S
C2300 C2308 1.457 . S
C2301 N2296 1.363 . S
C2301 N2298 1.377 . S
C2301 C2314 1.479 . S
C2302 C2299 1.480 . S
C2302 C2303 1.383 . S
C2302 C2307 1.385 . S
C2303 H2284 0.947 . S
C2303 C2302 1.383 . S
C2303 C2304 1.388 . S
C2304 H2285 0.946 . S
C2304 C2303 1.388 . S
C2304 C2305 1.384 . S
C2305 C2304 1.384 . S
C2305 C2306 1.377 . S
C2306 H2286 0.953 . S
C2306 C2305 1.377 . S
C2306 C2307 1.369 . S
C2307 H2287 0.945 . S
C2307 C2302 1.385 . S
C2307 C2306 1.369 . S
C2308 C2300 1.457 . S
C2308 C2309 1.372 . S
C2308 C2313 1.364 . S
C2309 H2288 0.952 . S
C2309 C2308 1.372 . S
C2309 C2310 1.389 . S
C2310 H2289 0.949 . S
C2310 C2309 1.389 . S
C2310 C2311 1.387 . S
C2311 C2310 1.387 . S
C2311 C2312 1.372 . S
C2312 H2290 0.950 . S
C2312 C2311 1.372 . S
C2312 C2313 1.379 . S
C2313 H2291 0.948 . S
C2313 C2308 1.364 . S
C2313 C2312 1.379 . S
C2314 C2283 1.383 . S
C2314 C2301 1.479 . S
C2314 C2315 1.398 . S
C2315 C2280 1.382 . S
C2315 H2292 0.951 . S
C2315 C2314 1.398 . S
C2316 C2317 1.384 . S
C2316 H2329 0.947 . S
C2316 C2351 1.382 . S
C2317 C2316 1.384 . S
C2317 C2318 1.378 . S
C2318 C2317 1.378 . S
C2318 C2319 1.378 . S
C2318 H2330 0.952 . S
C2319 C2318 1.378 . S
C2319 H2331 0.950 . S
C2319 C2350 1.383 . S
H2320 C2339 0.947 . S
H2321 C2340 0.946 . S
H2322 C2342 0.953 . S
H2323 C2343 0.945 . S
H2324 C2345 0.952 . S
H2325 C2346 0.949 . S
H2326 C2348 0.950 . S
H2327 C2349 0.948 . S
H2328 C2351 0.951 . S
H2329 C2316 0.947 . S
H2330 C2318 0.952 . S
H2331 C2319 0.950 . S
N2332 C2335 1.382 . S
N2332 C2337 1.363 . S
N2333 C2335 1.371 . S
N2333 C2336 1.372 . S
N2334 C2336 1.361 . S
N2334 C2337 1.377 . S
C2335 N2332 1.382 . S
C2335 N2333 1.371 . S
C2335 C2338 1.480 . S
C2336 N2333 1.372 . S
C2336 N2334 1.361 . S
C2336 C2344 1.457 . S
C2337 N2332 1.363 . S
C2337 N2334 1.377 . S
C2337 C2350 1.479 . S
C2338 C2335 1.480 . S
C2338 C2339 1.383 . S
C2338 C2343 1.385 . S
C2339 H2320 0.947 . S
C2339 C2338 1.383 . S
C2339 C2340 1.388 . S
C2340 H2321 0.946 . S
C2340 C2339 1.388 . S
C2340 C2341 1.384 . S
C2341 C2340 1.384 . S
C2341 C2342 1.377 . S
C2342 H2322 0.953 . S
C2342 C2341 1.377 . S
C2342 C2343 1.369 . S
C2343 H2323 0.945 . S
C2343 C2338 1.385 . S
C2343 C2342 1.369 . S
C2344 C2336 1.457 . S
C2344 C2345 1.372 . S
C2344 C2349 1.364 . S
C2345 H2324 0.952 . S
C2345 C2344 1.372 . S
C2345 C2346 1.389 . S
C2346 H2325 0.949 . S
C2346 C2345 1.389 . S
C2346 C2347 1.387 . S
C2347 C2346 1.387 . S
C2347 C2348 1.372 . S
C2348 H2326 0.950 . S
C2348 C2347 1.372 . S
C2348 C2349 1.379 . S
C2349 H2327 0.948 . S
C2349 C2344 1.364 . S
C2349 C2348 1.379 . S
C2350 C2319 1.383 . S
C2350 C2337 1.479 . S
C2350 C2351 1.398 . S
C2351 C2316 1.382 . S
C2351 H2328 0.951 . S
C2351 C2350 1.398 . S
C2352 C2353 1.384 . S
C2352 H2365 0.947 . S
C2352 C2387 1.382 . S
C2353 C2352 1.384 . S
C2353 C2354 1.378 . S
C2354 C2353 1.378 . S
C2354 C2355 1.378 . S
C2354 H2366 0.952 . S
C2355 C2354 1.378 . S
C2355 H2367 0.950 . S
C2355 C2386 1.383 . S
H2356 C2375 0.947 . S
H2357 C2376 0.946 . S
H2358 C2378 0.953 . S
H2359 C2379 0.945 . S
H2360 C2381 0.952 . S
H2361 C2382 0.949 . S
H2362 C2384 0.950 . S
H2363 C2385 0.948 . S
H2364 C2387 0.951 . S
H2365 C2352 0.947 . S
H2366 C2354 0.952 . S
H2367 C2355 0.950 . S
N2368 C2371 1.382 . S
N2368 C2373 1.363 . S
N2369 C2371 1.371 . S
N2369 C2372 1.372 . S
N2370 C2372 1.361 . S
N2370 C2373 1.377 . S
C2371 N2368 1.382 . S
C2371 N2369 1.371 . S
C2371 C2374 1.480 . S
C2372 N2369 1.372 . S
C2372 N2370 1.361 . S
C2372 C2380 1.457 . S
C2373 N2368 1.363 . S
C2373 N2370 1.377 . S
C2373 C2386 1.479 . S
C2374 C2371 1.480 . S
C2374 C2375 1.383 . S
C2374 C2379 1.385 . S
C2375 H2356 0.947 . S
C2375 C2374 1.383 . S
C2375 C2376 1.388 . S
C2376 H2357 0.946 . S
C2376 C2375 1.388 . S
C2376 C2377 1.384 . S
C2377 C2376 1.384 . S
C2377 C2378 1.377 . S
C2378 H2358 0.953 . S
C2378 C2377 1.377 . S
C2378 C2379 1.369 . S
C2379 H2359 0.945 . S
C2379 C2374 1.385 . S
C2379 C2378 1.369 . S
C2380 C2372 1.457 . S
C2380 C2381 1.372 . S
C2380 C2385 1.364 . S
C2381 H2360 0.952 . S
C2381 C2380 1.372 . S
C2381 C2382 1.389 . S
C2382 H2361 0.949 . S
C2382 C2381 1.389 . S
C2382 C2383 1.387 . S
C2383 C2382 1.387 . S
C2383 C2384 1.372 . S
C2384 H2362 0.950 . S
C2384 C2383 1.372 . S
C2384 C2385 1.379 . S
C2385 H2363 0.948 . S
C2385 C2380 1.364 . S
C2385 C2384 1.379 . S
C2386 C2355 1.383 . S
C2386 C2373 1.479 . S
C2386 C2387 1.398 . S
C2387 C2352 1.382 . S
C2387 H2364 0.951 . S
C2387 C2386 1.398 . S
C2388 C2389 1.384 . S
C2388 H2401 0.947 . S
C2388 C2423 1.382 . S
C2389 C2388 1.384 . S
C2389 C2390 1.378 . S
C2390 C2389 1.378 . S
C2390 C2391 1.378 . S
C2390 H2402 0.952 . S
C2391 C2390 1.378 . S
C2391 H2403 0.950 . S
C2391 C2422 1.383 . S
H2392 C2411 0.947 . S
H2393 C2412 0.946 . S
H2394 C2414 0.953 . S
H2395 C2415 0.945 . S
H2396 C2417 0.952 . S
H2397 C2418 0.949 . S
H2398 C2420 0.950 . S
H2399 C2421 0.948 . S
H2400 C2423 0.951 . S
H2401 C2388 0.947 . S
H2402 C2390 0.952 . S
H2403 C2391 0.950 . S
N2404 C2407 1.382 . S
N2404 C2409 1.363 . S
N2405 C2407 1.371 . S
N2405 C2408 1.372 . S
N2406 C2408 1.361 . S
N2406 C2409 1.377 . S
C2407 N2404 1.382 . S
C2407 N2405 1.371 . S
C2407 C2410 1.480 . S
C2408 N2405 1.372 . S
C2408 N2406 1.361 . S
C2408 C2416 1.457 . S
C2409 N2404 1.363 . S
C2409 N2406 1.377 . S
C2409 C2422 1.479 . S
C2410 C2407 1.480 . S
C2410 C2411 1.383 . S
C2410 C2415 1.385 . S
C2411 H2392 0.947 . S
C2411 C2410 1.383 . S
C2411 C2412 1.388 . S
C2412 H2393 0.946 . S
C2412 C2411 1.388 . S
C2412 C2413 1.384 . S
C2413 C2412 1.384 . S
C2413 C2414 1.377 . S
C2414 H2394 0.953 . S
C2414 C2413 1.377 . S
C2414 C2415 1.369 . S
C2415 H2395 0.945 . S
C2415 C2410 1.385 . S
C2415 C2414 1.369 . S
C2416 C2408 1.457 . S
C2416 C2417 1.372 . S
C2416 C2421 1.364 . S
C2417 H2396 0.952 . S
C2417 C2416 1.372 . S
C2417 C2418 1.389 . S
C2418 H2397 0.949 . S
C2418 C2417 1.389 . S
C2418 C2419 1.387 . S
C2419 C2418 1.387 . S
C2419 C2420 1.372 . S
C2420 H2398 0.950 . S
C2420 C2419 1.372 . S
C2420 C2421 1.379 . S
C2421 H2399 0.948 . S
C2421 C2416 1.364 . S
C2421 C2420 1.379 . S
C2422 C2391 1.383 . S
C2422 C2409 1.479 . S
C2422 C2423 1.398 . S
C2423 C2388 1.382 . S
C2423 H2400 0.951 . S
C2423 C2422 1.398 . S
C2424 C2425 1.384 . S
C2424 H2437 0.947 . S
C2424 C2459 1.382 . S
C2425 C2424 1.384 . S
C2425 C2426 1.378 . S
C2426 C2425 1.378 . S
C2426 C2427 1.378 . S
C2426 H2438 0.952 . S
C2427 C2426 1.378 . S
C2427 H2439 0.950 . S
C2427 C2458 1.383 . S
H2428 C2447 0.947 . S
H2429 C2448 0.946 . S
H2430 C2450 0.953 . S
H2431 C2451 0.945 . S
H2432 C2453 0.952 . S
H2433 C2454 0.949 . S
H2434 C2456 0.950 . S
H2435 C2457 0.948 . S
H2436 C2459 0.951 . S
H2437 C2424 0.947 . S
H2438 C2426 0.952 . S
H2439 C2427 0.950 . S
N2440 C2443 1.382 . S
N2440 C2445 1.363 . S
N2441 C2443 1.371 . S
N2441 C2444 1.372 . S
N2442 C2444 1.361 . S
N2442 C2445 1.377 . S
C2443 N2440 1.382 . S
C2443 N2441 1.371 . S
C2443 C2446 1.480 . S
C2444 N2441 1.372 . S
C2444 N2442 1.361 . S
C2444 C2452 1.457 . S
C2445 N2440 1.363 . S
C2445 N2442 1.377 . S
C2445 C2458 1.479 . S
C2446 C2443 1.480 . S
C2446 C2447 1.383 . S
C2446 C2451 1.385 . S
C2447 H2428 0.947 . S
C2447 C2446 1.383 . S
C2447 C2448 1.388 . S
C2448 H2429 0.946 . S
C2448 C2447 1.388 . S
C2448 C2449 1.384 . S
C2449 C2448 1.384 . S
C2449 C2450 1.377 . S
C2450 H2430 0.953 . S
C2450 C2449 1.377 . S
C2450 C2451 1.369 . S
C2451 H2431 0.945 . S
C2451 C2446 1.385 . S
C2451 C2450 1.369 . S
C2452 C2444 1.457 . S
C2452 C2453 1.372 . S
C2452 C2457 1.364 . S
C2453 H2432 0.952 . S
C2453 C2452 1.372 . S
C2453 C2454 1.389 . S
C2454 H2433 0.949 . S
C2454 C2453 1.389 . S
C2454 C2455 1.387 . S
C2455 C2454 1.387 . S
C2455 C2456 1.372 . S
C2456 H2434 0.950 . S
C2456 C2455 1.372 . S
C2456 C2457 1.379 . S
C2457 H2435 0.948 . S
C2457 C2452 1.364 . S
C2457 C2456 1.379 . S
C2458 C2427 1.383 . S
C2458 C2445 1.479 . S
C2458 C2459 1.398 . S
C2459 C2424 1.382 . S
C2459 H2436 0.951 . S
C2459 C2458 1.398 . S
C2460 C2461 1.384 . S
C2460 H2473 0.947 . S
C2460 C2495 1.382 . S
C2461 C2460 1.384 . S
C2461 C2462 1.378 . S
C2462 C2461 1.378 . S
C2462 C2463 1.378 . S
C2462 H2474 0.952 . S
C2463 C2462 1.378 . S
C2463 H2475 0.950 . S
C2463 C2494 1.383 . S
H2464 C2483 0.947 . S
H2465 C2484 0.946 . S
H2466 C2486 0.953 . S
H2467 C2487 0.945 . S
H2468 C2489 0.952 . S
H2469 C2490 0.949 . S
H2470 C2492 0.950 . S
H2471 C2493 0.948 . S
H2472 C2495 0.951 . S
H2473 C2460 0.947 . S
H2474 C2462 0.952 . S
H2475 C2463 0.950 . S
N2476 C2479 1.382 . S
N2476 C2481 1.363 . S
N2477 C2479 1.371 . S
N2477 C2480 1.372 . S
N2478 C2480 1.361 . S
N2478 C2481 1.377 . S
C2479 N2476 1.382 . S
C2479 N2477 1.371 . S
C2479 C2482 1.480 . S
C2480 N2477 1.372 . S
C2480 N2478 1.361 . S
C2480 C2488 1.457 . S
C2481 N2476 1.363 . S
C2481 N2478 1.377 . S
C2481 C2494 1.479 . S
C2482 C2479 1.480 . S
C2482 C2483 1.383 . S
C2482 C2487 1.385 . S
C2483 H2464 0.947 . S
C2483 C2482 1.383 . S
C2483 C2484 1.388 . S
C2484 H2465 0.946 . S
C2484 C2483 1.388 . S
C2484 C2485 1.384 . S
C2485 C2484 1.384 . S
C2485 C2486 1.377 . S
C2486 H2466 0.953 . S
C2486 C2485 1.377 . S
C2486 C2487 1.369 . S
C2487 H2467 0.945 . S
C2487 C2482 1.385 . S
C2487 C2486 1.369 . S
C2488 C2480 1.457 . S
C2488 C2489 1.372 . S
C2488 C2493 1.364 . S
C2489 H2468 0.952 . S
C2489 C2488 1.372 . S
C2489 C2490 1.389 . S
C2490 H2469 0.949 . S
C2490 C2489 1.389 . S
C2490 C2491 1.387 . S
C2491 C2490 1.387 . S
C2491 C2492 1.372 . S
C2492 H2470 0.950 . S
C2492 C2491 1.372 . S
C2492 C2493 1.379 . S
C2493 H2471 0.948 . S
C2493 C2488 1.364 . S
C2493 C2492 1.379 . S
C2494 C2463 1.383 . S
C2494 C2481 1.479 . S
C2494 C2495 1.398 . S
C2495 C2460 1.382 . S
C2495 H2472 0.951 . S
C2495 C2494 1.398 . S
C2496 C2497 1.384 . S
C2496 H2509 0.947 . S
C2496 C2531 1.382 . S
C2497 C2496 1.384 . S
C2497 C2498 1.378 . S
C2498 C2497 1.378 . S
C2498 C2499 1.378 . S
C2498 H2510 0.952 . S
C2499 C2498 1.378 . S
C2499 H2511 0.950 . S
C2499 C2530 1.383 . S
H2500 C2519 0.947 . S
H2501 C2520 0.946 . S
H2502 C2522 0.953 . S
H2503 C2523 0.945 . S
H2504 C2525 0.952 . S
H2505 C2526 0.949 . S
H2506 C2528 0.950 . S
H2507 C2529 0.948 . S
H2508 C2531 0.951 . S
H2509 C2496 0.947 . S
H2510 C2498 0.952 . S
H2511 C2499 0.950 . S
N2512 C2515 1.382 . S
N2512 C2517 1.363 . S
N2513 C2515 1.371 . S
N2513 C2516 1.372 . S
N2514 C2516 1.361 . S
N2514 C2517 1.377 . S
C2515 N2512 1.382 . S
C2515 N2513 1.371 . S
C2515 C2518 1.480 . S
C2516 N2513 1.372 . S
C2516 N2514 1.361 . S
C2516 C2524 1.457 . S
C2517 N2512 1.363 . S
C2517 N2514 1.377 . S
C2517 C2530 1.479 . S
C2518 C2515 1.480 . S
C2518 C2519 1.383 . S
C2518 C2523 1.385 . S
C2519 H2500 0.947 . S
C2519 C2518 1.383 . S
C2519 C2520 1.388 . S
C2520 H2501 0.946 . S
C2520 C2519 1.388 . S
C2520 C2521 1.384 . S
C2521 C2520 1.384 . S
C2521 C2522 1.377 . S
C2522 H2502 0.953 . S
C2522 C2521 1.377 . S
C2522 C2523 1.369 . S
C2523 H2503 0.945 . S
C2523 C2518 1.385 . S
C2523 C2522 1.369 . S
C2524 C2516 1.457 . S
C2524 C2525 1.372 . S
C2524 C2529 1.364 . S
C2525 H2504 0.952 . S
C2525 C2524 1.372 . S
C2525 C2526 1.389 . S
C2526 H2505 0.949 . S
C2526 C2525 1.389 . S
C2526 C2527 1.387 . S
C2527 C2526 1.387 . S
C2527 C2528 1.372 . S
C2528 H2506 0.950 . S
C2528 C2527 1.372 . S
C2528 C2529 1.379 . S
C2529 H2507 0.948 . S
C2529 C2524 1.364 . S
C2529 C2528 1.379 . S
C2530 C2499 1.383 . S
C2530 C2517 1.479 . S
C2530 C2531 1.398 . S
C2531 C2496 1.382 . S
C2531 H2508 0.951 . S
C2531 C2530 1.398 . S
C2532 C2533 1.384 . S
C2532 H2545 0.947 . S
C2532 C2567 1.382 . S
C2533 C2532 1.384 . S
C2533 C2534 1.378 . S
C2534 C2533 1.378 . S
C2534 C2535 1.378 . S
C2534 H2546 0.952 . S
C2535 C2534 1.378 . S
C2535 H2547 0.950 . S
C2535 C2566 1.383 . S
H2536 C2555 0.947 . S
H2537 C2556 0.946 . S
H2538 C2558 0.953 . S
H2539 C2559 0.945 . S
H2540 C2561 0.952 . S
H2541 C2562 0.949 . S
H2542 C2564 0.950 . S
H2543 C2565 0.948 . S
H2544 C2567 0.951 . S
H2545 C2532 0.947 . S
H2546 C2534 0.952 . S
H2547 C2535 0.950 . S
N2548 C2551 1.382 . S
N2548 C2553 1.363 . S
N2549 C2551 1.371 . S
N2549 C2552 1.372 . S
N2550 C2552 1.361 . S
N2550 C2553 1.377 . S
C2551 N2548 1.382 . S
C2551 N2549 1.371 . S
C2551 C2554 1.480 . S
C2552 N2549 1.372 . S
C2552 N2550 1.361 . S
C2552 C2560 1.457 . S
C2553 N2548 1.363 . S
C2553 N2550 1.377 . S
C2553 C2566 1.479 . S
C2554 C2551 1.480 . S
C2554 C2555 1.383 . S
C2554 C2559 1.385 . S
C2555 H2536 0.947 . S
C2555 C2554 1.383 . S
C2555 C2556 1.388 . S
C2556 H2537 0.946 . S
C2556 C2555 1.388 . S
C2556 C2557 1.384 . S
C2557 C2556 1.384 . S
C2557 C2558 1.377 . S
C2558 H2538 0.953 . S
C2558 C2557 1.377 . S
C2558 C2559 1.369 . S
C2559 H2539 0.945 . S
C2559 C2554 1.385 . S
C2559 C2558 1.369 . S
C2560 C2552 1.457 . S
C2560 C2561 1.372 . S
C2560 C2565 1.364 . S
C2561 H2540 0.952 . S
C2561 C2560 1.372 . S
C2561 C2562 1.389 . S
C2562 H2541 0.949 . S
C2562 C2561 1.389 . S
C2562 C2563 1.387 . S
C2563 C2562 1.387 . S
C2563 C2564 1.372 . S
C2564 H2542 0.950 . S
C2564 C2563 1.372 . S
C2564 C2565 1.379 . S
C2565 H2543 0.948 . S
C2565 C2560 1.364 . S
C2565 C2564 1.379 . S
C2566 C2535 1.383 . S
C2566 C2553 1.479 . S
C2566 C2567 1.398 . S
C2567 C2532 1.382 . S
C2567 H2544 0.951 . S
C2567 C2566 1.398 . S
C2568 C2569 1.384 . S
C2568 H2581 0.947 . S
C2568 C2603 1.382 . S
C2569 C2568 1.384 . S
C2569 C2570 1.378 . S
C2570 C2569 1.378 . S
C2570 C2571 1.378 . S
C2570 H2582 0.952 . S
C2571 C2570 1.378 . S
C2571 H2583 0.950 . S
C2571 C2602 1.383 . S
H2572 C2591 0.947 . S
H2573 C2592 0.946 . S
H2574 C2594 0.953 . S
H2575 C2595 0.945 . S
H2576 C2597 0.952 . S
H2577 C2598 0.949 . S
H2578 C2600 0.950 . S
H2579 C2601 0.948 . S
H2580 C2603 0.951 . S
H2581 C2568 0.947 . S
H2582 C2570 0.952 . S
H2583 C2571 0.950 . S
N2584 C2587 1.382 . S
N2584 C2589 1.363 . S
N2585 C2587 1.371 . S
N2585 C2588 1.372 . S
N2586 C2588 1.361 . S
N2586 C2589 1.377 . S
C2587 N2584 1.382 . S
C2587 N2585 1.371 . S
C2587 C2590 1.480 . S
C2588 N2585 1.372 . S
C2588 N2586 1.361 . S
C2588 C2596 1.457 . S
C2589 N2584 1.363 . S
C2589 N2586 1.377 . S
C2589 C2602 1.479 . S
C2590 C2587 1.480 . S
C2590 C2591 1.383 . S
C2590 C2595 1.385 . S
C2591 H2572 0.947 . S
C2591 C2590 1.383 . S
C2591 C2592 1.388 . S
C2592 H2573 0.946 . S
C2592 C2591 1.388 . S
C2592 C2593 1.384 . S
C2593 C2592 1.384 . S
C2593 C2594 1.377 . S
C2594 H2574 0.953 . S
C2594 C2593 1.377 . S
C2594 C2595 1.369 . S
C2595 H2575 0.945 . S
C2595 C2590 1.385 . S
C2595 C2594 1.369 . S
C2596 C2588 1.457 . S
C2596 C2597 1.372 . S
C2596 C2601 1.364 . S
C2597 H2576 0.952 . S
C2597 C2596 1.372 . S
C2597 C2598 1.389 . S
C2598 H2577 0.949 . S
C2598 C2597 1.389 . S
C2598 C2599 1.387 . S
C2599 C2598 1.387 . S
C2599 C2600 1.372 . S
C2600 H2578 0.950 . S
C2600 C2599 1.372 . S
C2600 C2601 1.379 . S
C2601 H2579 0.948 . S
C2601 C2596 1.364 . S
C2601 C2600 1.379 . S
C2602 C2571 1.383 . S
C2602 C2589 1.479 . S
C2602 C2603 1.398 . S
C2603 C2568 1.382 . S
C2603 H2580 0.951 . S
C2603 C2602 1.398 . S
C2604 C2605 1.384 . S
C2604 H2617 0.947 . S
C2604 C2639 1.382 . S
C2605 C2604 1.384 . S
C2605 C2606 1.378 . S
C2606 C2605 1.378 . S
C2606 C2607 1.378 . S
C2606 H2618 0.952 . S
C2607 C2606 1.378 . S
C2607 H2619 0.950 . S
C2607 C2638 1.383 . S
H2608 C2627 0.947 . S
H2609 C2628 0.946 . S
H2610 C2630 0.953 . S
H2611 C2631 0.945 . S
H2612 C2633 0.952 . S
H2613 C2634 0.949 . S
H2614 C2636 0.950 . S
H2615 C2637 0.948 . S
H2616 C2639 0.951 . S
H2617 C2604 0.947 . S
H2618 C2606 0.952 . S
H2619 C2607 0.950 . S
N2620 C2623 1.382 . S
N2620 C2625 1.363 . S
N2621 C2623 1.371 . S
N2621 C2624 1.372 . S
N2622 C2624 1.361 . S
N2622 C2625 1.377 . S
C2623 N2620 1.382 . S
C2623 N2621 1.371 . S
C2623 C2626 1.480 . S
C2624 N2621 1.372 . S
C2624 N2622 1.361 . S
C2624 C2632 1.457 . S
C2625 N2620 1.363 . S
C2625 N2622 1.377 . S
C2625 C2638 1.479 . S
C2626 C2623 1.480 . S
C2626 C2627 1.383 . S
C2626 C2631 1.385 . S
C2627 H2608 0.947 . S
C2627 C2626 1.383 . S
C2627 C2628 1.388 . S
C2628 H2609 0.946 . S
C2628 C2627 1.388 . S
C2628 C2629 1.384 . S
C2629 C2628 1.384 . S
C2629 C2630 1.377 . S
C2630 H2610 0.953 . S
C2630 C2629 1.377 . S
C2630 C2631 1.369 . S
C2631 H2611 0.945 . S
C2631 C2626 1.385 . S
C2631 C2630 1.369 . S
C2632 C2624 1.457 . S
C2632 C2633 1.372 . S
C2632 C2637 1.364 . S
C2633 H2612 0.952 . S
C2633 C2632 1.372 . S
C2633 C2634 1.389 . S
C2634 H2613 0.949 . S
C2634 C2633 1.389 . S
C2634 C2635 1.387 . S
C2635 C2634 1.387 . S
C2635 C2636 1.372 . S
C2636 H2614 0.950 . S
C2636 C2635 1.372 . S
C2636 C2637 1.379 . S
C2637 H2615 0.948 . S
C2637 C2632 1.364 . S
C2637 C2636 1.379 . S
C2638 C2607 1.383 . S
C2638 C2625 1.479 . S
C2638 C2639 1.398 . S
C2639 C2604 1.382 . S
C2639 H2616 0.951 . S
C2639 C2638 1.398 . S
C2640 C2641 1.384 . S
C2640 H2653 0.947 . S
C2640 C2675 1.382 . S
C2641 C2640 1.384 . S
C2641 C2642 1.378 . S
C2642 C2641 1.378 . S
C2642 C2643 1.378 . S
C2642 H2654 0.952 . S
C2643 C2642 1.378 . S
C2643 H2655 0.950 . S
C2643 C2674 1.383 . S
H2644 C2663 0.947 . S
H2645 C2664 0.946 . S
H2646 C2666 0.953 . S
H2647 C2667 0.945 . S
H2648 C2669 0.952 . S
H2649 C2670 0.949 . S
H2650 C2672 0.950 . S
H2651 C2673 0.948 . S
H2652 C2675 0.951 . S
H2653 C2640 0.947 . S
H2654 C2642 0.952 . S
H2655 C2643 0.950 . S
N2656 C2659 1.382 . S
N2656 C2661 1.363 . S
N2657 C2659 1.371 . S
N2657 C2660 1.372 . S
N2658 C2660 1.361 . S
N2658 C2661 1.377 . S
C2659 N2656 1.382 . S
C2659 N2657 1.371 . S
C2659 C2662 1.480 . S
C2660 N2657 1.372 . S
C2660 N2658 1.361 . S
C2660 C2668 1.457 . S
C2661 N2656 1.363 . S
C2661 N2658 1.377 . S
C2661 C2674 1.479 . S
C2662 C2659 1.480 . S
C2662 C2663 1.383 . S
C2662 C2667 1.385 . S
C2663 H2644 0.947 . S
C2663 C2662 1.383 . S
C2663 C2664 1.388 . S
C2664 H2645 0.946 . S
C2664 C2663 1.388 . S
C2664 C2665 1.384 . S
C2665 C2664 1.384 . S
C2665 C2666 1.377 . S
C2666 H2646 0.953 . S
C2666 C2665 1.377 . S
C2666 C2667 1.369 . S
C2667 H2647 0.945 . S
C2667 C2662 1.385 . S
C2667 C2666 1.369 . S
C2668 C2660 1.457 . S
C2668 C2669 1.372 . S
C2668 C2673 1.364 . S
C2669 H2648 0.952 . S
C2669 C2668 1.372 . S
C2669 C2670 1.389 . S
C2670 H2649 0.949 . S
C2670 C2669 1.389 . S
C2670 C2671 1.387 . S
C2671 C2670 1.387 . S
C2671 C2672 1.372 . S
C2672 H2650 0.950 . S
C2672 C2671 1.372 . S
C2672 C2673 1.379 . S
C2673 H2651 0.948 . S
C2673 C2668 1.364 . S
C2673 C2672 1.379 . S
C2674 C2643 1.383 . S
C2674 C2661 1.479 . S
C2674 C2675 1.398 . S
C2675 C2640 1.382 . S
C2675 H2652 0.951 . S
C2675 C2674 1.398 . S
C2676 C2677 1.384 . S
C2676 H2689 0.947 . S
C2676 C2711 1.382 . S
C2677 C2676 1.384 . S
C2677 C2678 1.378 . S
C2678 C2677 1.378 . S
C2678 C2679 1.378 . S
C2678 H2690 0.952 . S
C2679 C2678 1.378 . S
C2679 H2691 0.950 . S
C2679 C2710 1.383 . S
H2680 C2699 0.947 . S
H2681 C2700 0.946 . S
H2682 C2702 0.953 . S
H2683 C2703 0.945 . S
H2684 C2705 0.952 . S
H2685 C2706 0.949 . S
H2686 C2708 0.950 . S
H2687 C2709 0.948 . S
H2688 C2711 0.951 . S
H2689 C2676 0.947 . S
H2690 C2678 0.952 . S
H2691 C2679 0.950 . S
N2692 C2695 1.382 . S
N2692 C2697 1.363 . S
N2693 C2695 1.371 . S
N2693 C2696 1.372 . S
N2694 C2696 1.361 . S
N2694 C2697 1.377 . S
C2695 N2692 1.382 . S
C2695 N2693 1.371 . S
C2695 C2698 1.480 . S
C2696 N2693 1.372 . S
C2696 N2694 1.361 . S
C2696 C2704 1.457 . S
C2697 N2692 1.363 . S
C2697 N2694 1.377 . S
C2697 C2710 1.479 . S
C2698 C2695 1.480 . S
C2698 C2699 1.383 . S
C2698 C2703 1.385 . S
C2699 H2680 0.947 . S
C2699 C2698 1.383 . S
C2699 C2700 1.388 . S
C2700 H2681 0.946 . S
C2700 C2699 1.388 . S
C2700 C2701 1.384 . S
C2701 C2700 1.384 . S
C2701 C2702 1.377 . S
C2702 H2682 0.953 . S
C2702 C2701 1.377 . S
C2702 C2703 1.369 . S
C2703 H2683 0.945 . S
C2703 C2698 1.385 . S
C2703 C2702 1.369 . S
C2704 C2696 1.457 . S
C2704 C2705 1.372 . S
C2704 C2709 1.364 . S
C2705 H2684 0.952 . S
C2705 C2704 1.372 . S
C2705 C2706 1.389 . S
C2706 H2685 0.949 . S
C2706 C2705 1.389 . S
C2706 C2707 1.387 . S
C2707 C2706 1.387 . S
C2707 C2708 1.372 . S
C2708 H2686 0.950 . S
C2708 C2707 1.372 . S
C2708 C2709 1.379 . S
C2709 H2687 0.948 . S
C2709 C2704 1.364 . S
C2709 C2708 1.379 . S
C2710 C2679 1.383 . S
C2710 C2697 1.479 . S
C2710 C2711 1.398 . S
C2711 C2676 1.382 . S
C2711 H2688 0.951 . S
C2711 C2710 1.398 . S
C2712 C2713 1.384 . S
C2712 H2725 0.947 . S
C2712 C2747 1.382 . S
C2713 C2712 1.384 . S
C2713 C2714 1.378 . S
C2714 C2713 1.378 . S
C2714 C2715 1.378 . S
C2714 H2726 0.952 . S
C2715 C2714 1.378 . S
C2715 H2727 0.950 . S
C2715 C2746 1.383 . S
H2716 C2735 0.947 . S
H2717 C2736 0.946 . S
H2718 C2738 0.953 . S
H2719 C2739 0.945 . S
H2720 C2741 0.952 . S
H2721 C2742 0.949 . S
H2722 C2744 0.950 . S
H2723 C2745 0.948 . S
H2724 C2747 0.951 . S
H2725 C2712 0.947 . S
H2726 C2714 0.952 . S
H2727 C2715 0.950 . S
N2728 C2731 1.382 . S
N2728 C2733 1.363 . S
N2729 C2731 1.371 . S
N2729 C2732 1.372 . S
N2730 C2732 1.361 . S
N2730 C2733 1.377 . S
C2731 N2728 1.382 . S
C2731 N2729 1.371 . S
C2731 C2734 1.480 . S
C2732 N2729 1.372 . S
C2732 N2730 1.361 . S
C2732 C2740 1.457 . S
C2733 N2728 1.363 . S
C2733 N2730 1.377 . S
C2733 C2746 1.479 . S
C2734 C2731 1.480 . S
C2734 C2735 1.383 . S
C2734 C2739 1.385 . S
C2735 H2716 0.947 . S
C2735 C2734 1.383 . S
C2735 C2736 1.388 . S
C2736 H2717 0.946 . S
C2736 C2735 1.388 . S
C2736 C2737 1.384 . S
C2737 C2736 1.384 . S
C2737 C2738 1.377 . S
C2738 H2718 0.953 . S
C2738 C2737 1.377 . S
C2738 C2739 1.369 . S
C2739 H2719 0.945 . S
C2739 C2734 1.385 . S
C2739 C2738 1.369 . S
C2740 C2732 1.457 . S
C2740 C2741 1.372 . S
C2740 C2745 1.364 . S
C2741 H2720 0.952 . S
C2741 C2740 1.372 . S
C2741 C2742 1.389 . S
C2742 H2721 0.949 . S
C2742 C2741 1.389 . S
C2742 C2743 1.387 . S
C2743 C2742 1.387 . S
C2743 C2744 1.372 . S
C2744 H2722 0.950 . S
C2744 C2743 1.372 . S
C2744 C2745 1.379 . S
C2745 H2723 0.948 . S
C2745 C2740 1.364 . S
C2745 C2744 1.379 . S
C2746 C2715 1.383 . S
C2746 C2733 1.479 . S
C2746 C2747 1.398 . S
C2747 C2712 1.382 . S
C2747 H2724 0.951 . S
C2747 C2746 1.398 . S
C2748 C2749 1.384 . S
C2748 H2761 0.947 . S
C2748 C2783 1.382 . S
C2749 C2748 1.384 . S
C2749 C2750 1.378 . S
C2750 C2749 1.378 . S
C2750 C2751 1.378 . S
C2750 H2762 0.952 . S
C2751 C2750 1.378 . S
C2751 H2763 0.950 . S
C2751 C2782 1.383 . S
H2752 C2771 0.947 . S
H2753 C2772 0.946 . S
H2754 C2774 0.953 . S
H2755 C2775 0.945 . S
H2756 C2777 0.952 . S
H2757 C2778 0.949 . S
H2758 C2780 0.950 . S
H2759 C2781 0.948 . S
H2760 C2783 0.951 . S
H2761 C2748 0.947 . S
H2762 C2750 0.952 . S
H2763 C2751 0.950 . S
N2764 C2767 1.382 . S
N2764 C2769 1.363 . S
N2765 C2767 1.371 . S
N2765 C2768 1.372 . S
N2766 C2768 1.361 . S
N2766 C2769 1.377 . S
C2767 N2764 1.382 . S
C2767 N2765 1.371 . S
C2767 C2770 1.480 . S
C2768 N2765 1.372 . S
C2768 N2766 1.361 . S
C2768 C2776 1.457 . S
C2769 N2764 1.363 . S
C2769 N2766 1.377 . S
C2769 C2782 1.479 . S
C2770 C2767 1.480 . S
C2770 C2771 1.383 . S
C2770 C2775 1.385 . S
C2771 H2752 0.947 . S
C2771 C2770 1.383 . S
C2771 C2772 1.388 . S
C2772 H2753 0.946 . S
C2772 C2771 1.388 . S
C2772 C2773 1.384 . S
C2773 C2772 1.384 . S
C2773 C2774 1.377 . S
C2774 H2754 0.953 . S
C2774 C2773 1.377 . S
C2774 C2775 1.369 . S
C2775 H2755 0.945 . S
C2775 C2770 1.385 . S
C2775 C2774 1.369 . S
C2776 C2768 1.457 . S
C2776 C2777 1.372 . S
C2776 C2781 1.364 . S
C2777 H2756 0.952 . S
C2777 C2776 1.372 . S
C2777 C2778 1.389 . S
C2778 H2757 0.949 . S
C2778 C2777 1.389 . S
C2778 C2779 1.387 . S
C2779 C2778 1.387 . S
C2779 C2780 1.372 . S
C2780 H2758 0.950 . S
C2780 C2779 1.372 . S
C2780 C2781 1.379 . S
C2781 H2759 0.948 . S
C2781 C2776 1.364 . S
C2781 C2780 1.379 . S
C2782 C2751 1.383 . S
C2782 C2769 1.479 . S
C2782 C2783 1.398 . S
C2783 C2748 1.382 . S
C2783 H2760 0.951 . S
C2783 C2782 1.398 . S
C2784 C2785 1.384 . S
C2784 H2797 0.947 . S
C2784 C2819 1.382 . S
C2785 C2784 1.384 . S
C2785 C2786 1.378 . S
C2786 C2785 1.378 . S
C2786 C2787 1.378 . S
C2786 H2798 0.952 . S
C2787 C2786 1.378 . S
C2787 H2799 0.950 . S
C2787 C2818 1.383 . S
H2788 C2807 0.947 . S
H2789 C2808 0.946 . S
H2790 C2810 0.953 . S
H2791 C2811 0.945 . S
H2792 C2813 0.952 . S
H2793 C2814 0.949 . S
H2794 C2816 0.950 . S
H2795 C2817 0.948 . S
H2796 C2819 0.951 . S
H2797 C2784 0.947 . S
H2798 C2786 0.952 . S
H2799 C2787 0.950 . S
N2800 C2803 1.382 . S
N2800 C2805 1.363 . S
N2801 C2803 1.371 . S
N2801 C2804 1.372 . S
N2802 C2804 1.361 . S
N2802 C2805 1.377 . S
C2803 N2800 1.382 . S
C2803 N2801 1.371 . S
C2803 C2806 1.480 . S
C2804 N2801 1.372 . S
C2804 N2802 1.361 . S
C2804 C2812 1.457 . S
C2805 N2800 1.363 . S
C2805 N2802 1.377 . S
C2805 C2818 1.479 . S
C2806 C2803 1.480 . S
C2806 C2807 1.383 . S
C2806 C2811 1.385 . S
C2807 H2788 0.947 . S
C2807 C2806 1.383 . S
C2807 C2808 1.388 . S
C2808 H2789 0.946 . S
C2808 C2807 1.388 . S
C2808 C2809 1.384 . S
C2809 C2808 1.384 . S
C2809 C2810 1.377 . S
C2810 H2790 0.953 . S
C2810 C2809 1.377 . S
C2810 C2811 1.369 . S
C2811 H2791 0.945 . S
C2811 C2806 1.385 . S
C2811 C2810 1.369 . S
C2812 C2804 1.457 . S
C2812 C2813 1.372 . S
C2812 C2817 1.364 . S
C2813 H2792 0.952 . S
C2813 C2812 1.372 . S
C2813 C2814 1.389 . S
C2814 H2793 0.949 . S
C2814 C2813 1.389 . S
C2814 C2815 1.387 . S
C2815 C2814 1.387 . S
C2815 C2816 1.372 . S
C2816 H2794 0.950 . S
C2816 C2815 1.372 . S
C2816 C2817 1.379 . S
C2817 H2795 0.948 . S
C2817 C2812 1.364 . S
C2817 C2816 1.379 . S
C2818 C2787 1.383 . S
C2818 C2805 1.479 . S
C2818 C2819 1.398 . S
C2819 C2784 1.382 . S
C2819 H2796 0.951 . S
C2819 C2818 1.398 . S
C2820 C2821 1.384 . S
C2820 H2833 0.947 . S
C2820 C2855 1.382 . S
C2821 C2820 1.384 . S
C2821 C2822 1.378 . S
C2822 C2821 1.378 . S
C2822 C2823 1.378 . S
C2822 H2834 0.952 . S
C2823 C2822 1.378 . S
C2823 H2835 0.950 . S
C2823 C2854 1.383 . S
H2824 C2843 0.947 . S
H2825 C2844 0.946 . S
H2826 C2846 0.953 . S
H2827 C2847 0.945 . S
H2828 C2849 0.952 . S
H2829 C2850 0.949 . S
H2830 C2852 0.950 . S
H2831 C2853 0.948 . S
H2832 C2855 0.951 . S
H2833 C2820 0.947 . S
H2834 C2822 0.952 . S
H2835 C2823 0.950 . S
N2836 C2839 1.382 . S
N2836 C2841 1.363 . S
N2837 C2839 1.371 . S
N2837 C2840 1.372 . S
N2838 C2840 1.361 . S
N2838 C2841 1.377 . S
C2839 N2836 1.382 . S
C2839 N2837 1.371 . S
C2839 C2842 1.480 . S
C2840 N2837 1.372 . S
C2840 N2838 1.361 . S
C2840 C2848 1.457 . S
C2841 N2836 1.363 . S
C2841 N2838 1.377 . S
C2841 C2854 1.479 . S
C2842 C2839 1.480 . S
C2842 C2843 1.383 . S
C2842 C2847 1.385 . S
C2843 H2824 0.947 . S
C2843 C2842 1.383 . S
C2843 C2844 1.388 . S
C2844 H2825 0.946 . S
C2844 C2843 1.388 . S
C2844 C2845 1.384 . S
C2845 C2844 1.384 . S
C2845 C2846 1.377 . S
C2846 H2826 0.953 . S
C2846 C2845 1.377 . S
C2846 C2847 1.369 . S
C2847 H2827 0.945 . S
C2847 C2842 1.385 . S
C2847 C2846 1.369 . S
C2848 C2840 1.457 . S
C2848 C2849 1.372 . S
C2848 C2853 1.364 . S
C2849 H2828 0.952 . S
C2849 C2848 1.372 . S
C2849 C2850 1.389 . S
C2850 H2829 0.949 . S
C2850 C2849 1.389 . S
C2850 C2851 1.387 . S
C2851 C2850 1.387 . S
C2851 C2852 1.372 . S
C2852 H2830 0.950 . S
C2852 C2851 1.372 . S
C2852 C2853 1.379 . S
C2853 H2831 0.948 . S
C2853 C2848 1.364 . S
C2853 C2852 1.379 . S
C2854 C2823 1.383 . S
C2854 C2841 1.479 . S
C2854 C2855 1.398 . S
C2855 C2820 1.382 . S
C2855 H2832 0.951 . S
C2855 C2854 1.398 . S
C2856 C2857 1.384 . S
C2856 H2869 0.947 . S
C2856 C2891 1.382 . S
C2857 C2856 1.384 . S
C2857 C2858 1.378 . S
C2858 C2857 1.378 . S
C2858 C2859 1.378 . S
C2858 H2870 0.952 . S
C2859 C2858 1.378 . S
C2859 H2871 0.950 . S
C2859 C2890 1.383 . S
H2860 C2879 0.947 . S
H2861 C2880 0.946 . S
H2862 C2882 0.953 . S
H2863 C2883 0.945 . S
H2864 C2885 0.952 . S
H2865 C2886 0.949 . S
H2866 C2888 0.950 . S
H2867 C2889 0.948 . S
H2868 C2891 0.951 . S
H2869 C2856 0.947 . S
H2870 C2858 0.952 . S
H2871 C2859 0.950 . S
N2872 C2875 1.382 . S
N2872 C2877 1.363 . S
N2873 C2875 1.371 . S
N2873 C2876 1.372 . S
N2874 C2876 1.361 . S
N2874 C2877 1.377 . S
C2875 N2872 1.382 . S
C2875 N2873 1.371 . S
C2875 C2878 1.480 . S
C2876 N2873 1.372 . S
C2876 N2874 1.361 . S
C2876 C2884 1.457 . S
C2877 N2872 1.363 . S
C2877 N2874 1.377 . S
C2877 C2890 1.479 . S
C2878 C2875 1.480 . S
C2878 C2879 1.383 . S
C2878 C2883 1.385 . S
C2879 H2860 0.947 . S
C2879 C2878 1.383 . S
C2879 C2880 1.388 . S
C2880 H2861 0.946 . S
C2880 C2879 1.388 . S
C2880 C2881 1.384 . S
C2881 C2880 1.384 . S
C2881 C2882 1.377 . S
C2882 H2862 0.953 . S
C2882 C2881 1.377 . S
C2882 C2883 1.369 . S
C2883 H2863 0.945 . S
C2883 C2878 1.385 . S
C2883 C2882 1.369 . S
C2884 C2876 1.457 . S
C2884 C2885 1.372 . S
C2884 C2889 1.364 . S
C2885 H2864 0.952 . S
C2885 C2884 1.372 . S
C2885 C2886 1.389 . S
C2886 H2865 0.949 . S
C2886 C2885 1.389 . S
C2886 C2887 1.387 . S
C2887 C2886 1.387 . S
C2887 C2888 1.372 . S
C2888 H2866 0.950 . S
C2888 C2887 1.372 . S
C2888 C2889 1.379 . S
C2889 H2867 0.948 . S
C2889 C2884 1.364 . S
C2889 C2888 1.379 . S
C2890 C2859 1.383 . S
C2890 C2877 1.479 . S
C2890 C2891 1.398 . S
C2891 C2856 1.382 . S
C2891 H2868 0.951 . S
C2891 C2890 1.398 . S
C2892 C2893 1.384 . S
C2892 H2905 0.947 . S
C2892 C2927 1.382 . S
C2893 C2892 1.384 . S
C2893 C2894 1.378 . S
C2894 C2893 1.378 . S
C2894 C2895 1.378 . S
C2894 H2906 0.952 . S
C2895 C2894 1.378 . S
C2895 H2907 0.950 . S
C2895 C2926 1.383 . S
H2896 C2915 0.947 . S
H2897 C2916 0.946 . S
H2898 C2918 0.953 . S
H2899 C2919 0.945 . S
H2900 C2921 0.952 . S
H2901 C2922 0.949 . S
H2902 C2924 0.950 . S
H2903 C2925 0.948 . S
H2904 C2927 0.951 . S
H2905 C2892 0.947 . S
H2906 C2894 0.952 . S
H2907 C2895 0.950 . S
N2908 C2911 1.382 . S
N2908 C2913 1.363 . S
N2909 C2911 1.371 . S
N2909 C2912 1.372 . S
N2910 C2912 1.361 . S
N2910 C2913 1.377 . S
C2911 N2908 1.382 . S
C2911 N2909 1.371 . S
C2911 C2914 1.480 . S
C2912 N2909 1.372 . S
C2912 N2910 1.361 . S
C2912 C2920 1.457 . S
C2913 N2908 1.363 . S
C2913 N2910 1.377 . S
C2913 C2926 1.479 . S
C2914 C2911 1.480 . S
C2914 C2915 1.383 . S
C2914 C2919 1.385 . S
C2915 H2896 0.947 . S
C2915 C2914 1.383 . S
C2915 C2916 1.388 . S
C2916 H2897 0.946 . S
C2916 C2915 1.388 . S
C2916 C2917 1.384 . S
C2917 C2916 1.384 . S
C2917 C2918 1.377 . S
C2918 H2898 0.953 . S
C2918 C2917 1.377 . S
C2918 C2919 1.369 . S
C2919 H2899 0.945 . S
C2919 C2914 1.385 . S
C2919 C2918 1.369 . S
C2920 C2912 1.457 . S
C2920 C2921 1.372 . S
C2920 C2925 1.364 . S
C2921 H2900 0.952 . S
C2921 C2920 1.372 . S
C2921 C2922 1.389 . S
C2922 H2901 0.949 . S
C2922 C2921 1.389 . S
C2922 C2923 1.387 . S
C2923 C2922 1.387 . S
C2923 C2924 1.372 . S
C2924 H2902 0.950 . S
C2924 C2923 1.372 . S
C2924 C2925 1.379 . S
C2925 H2903 0.948 . S
C2925 C2920 1.364 . S
C2925 C2924 1.379 . S
C2926 C2895 1.383 . S
C2926 C2913 1.479 . S
C2926 C2927 1.398 . S
C2927 C2892 1.382 . S
C2927 H2904 0.951 . S
C2927 C2926 1.398 . S
C2928 C2929 1.384 . S
C2928 H2941 0.947 . S
C2928 C2963 1.382 . S
C2929 C2928 1.384 . S
C2929 C2930 1.378 . S
C2930 C2929 1.378 . S
C2930 C2931 1.378 . S
C2930 H2942 0.952 . S
C2931 C2930 1.378 . S
C2931 H2943 0.950 . S
C2931 C2962 1.383 . S
H2932 C2951 0.947 . S
H2933 C2952 0.946 . S
H2934 C2954 0.953 . S
H2935 C2955 0.945 . S
H2936 C2957 0.952 . S
H2937 C2958 0.949 . S
H2938 C2960 0.950 . S
H2939 C2961 0.948 . S
H2940 C2963 0.951 . S
H2941 C2928 0.947 . S
H2942 C2930 0.952 . S
H2943 C2931 0.950 . S
N2944 C2947 1.382 . S
N2944 C2949 1.363 . S
N2945 C2947 1.371 . S
N2945 C2948 1.372 . S
N2946 C2948 1.361 . S
N2946 C2949 1.377 . S
C2947 N2944 1.382 . S
C2947 N2945 1.371 . S
C2947 C2950 1.480 . S
C2948 N2945 1.372 . S
C2948 N2946 1.361 . S
C2948 C2956 1.457 . S
C2949 N2944 1.363 . S
C2949 N2946 1.377 . S
C2949 C2962 1.479 . S
C2950 C2947 1.480 . S
C2950 C2951 1.383 . S
C2950 C2955 1.385 . S
C2951 H2932 0.947 . S
C2951 C2950 1.383 . S
C2951 C2952 1.388 . S
C2952 H2933 0.946 . S
C2952 C2951 1.388 . S
C2952 C2953 1.384 . S
C2953 C2952 1.384 . S
C2953 C2954 1.377 . S
C2954 H2934 0.953 . S
C2954 C2953 1.377 . S
C2954 C2955 1.369 . S
C2955 H2935 0.945 . S
C2955 C2950 1.385 . S
C2955 C2954 1.369 . S
C2956 C2948 1.457 . S
C2956 C2957 1.372 . S
C2956 C2961 1.364 . S
C2957 H2936 0.952 . S
C2957 C2956 1.372 . S
C2957 C2958 1.389 . S
C2958 H2937 0.949 . S
C2958 C2957 1.389 . S
C2958 C2959 1.387 . S
C2959 C2958 1.387 . S
C2959 C2960 1.372 . S
C2960 H2938 0.950 . S
C2960 C2959 1.372 . S
C2960 C2961 1.379 . S
C2961 H2939 0.948 . S
C2961 C2956 1.364 . S
C2961 C2960 1.379 . S
C2962 C2931 1.383 . S
C2962 C2949 1.479 . S
C2962 C2963 1.398 . S
C2963 C2928 1.382 . S
C2963 H2940 0.951 . S
C2963 C2962 1.398 . S
C2964 C2965 1.384 . S
C2964 H2977 0.947 . S
C2964 C2999 1.382 . S
C2965 C2964 1.384 . S
C2965 C2966 1.378 . S
C2966 C2965 1.378 . S
C2966 C2967 1.378 . S
C2966 H2978 0.952 . S
C2967 C2966 1.378 . S
C2967 H2979 0.950 . S
C2967 C2998 1.383 . S
H2968 C2987 0.947 . S
H2969 C2988 0.946 . S
H2970 C2990 0.953 . S
H2971 C2991 0.945 . S
H2972 C2993 0.952 . S
H2973 C2994 0.949 . S
H2974 C2996 0.950 . S
H2975 C2997 0.948 . S
H2976 C2999 0.951 . S
H2977 C2964 0.947 . S
H2978 C2966 0.952 . S
H2979 C2967 0.950 . S
N2980 C2983 1.382 . S
N2980 C2985 1.363 . S
N2981 C2983 1.371 . S
N2981 C2984 1.372 . S
N2982 C2984 1.361 . S
N2982 C2985 1.377 . S
C2983 N2980 1.382 . S
C2983 N2981 1.371 . S
C2983 C2986 1.480 . S
C2984 N2981 1.372 . S
C2984 N2982 1.361 . S
C2984 C2992 1.457 . S
C2985 N2980 1.363 . S
C2985 N2982 1.377 . S
C2985 C2998 1.479 . S
C2986 C2983 1.480 . S
C2986 C2987 1.383 . S
C2986 C2991 1.385 . S
C2987 H2968 0.947 . S
C2987 C2986 1.383 . S
C2987 C2988 1.388 . S
C2988 H2969 0.946 . S
C2988 C2987 1.388 . S
C2988 C2989 1.384 . S
C2989 C2988 1.384 . S
C2989 C2990 1.377 . S
C2990 H2970 0.953 . S
C2990 C2989 1.377 . S
C2990 C2991 1.369 . S
C2991 H2971 0.945 . S
C2991 C2986 1.385 . S
C2991 C2990 1.369 . S
C2992 C2984 1.457 . S
C2992 C2993 1.372 . S
C2992 C2997 1.364 . S
C2993 H2972 0.952 . S
C2993 C2992 1.372 . S
C2993 C2994 1.389 . S
C2994 H2973 0.949 . S
C2994 C2993 1.389 . S
C2994 C2995 1.387 . S
C2995 C2994 1.387 . S
C2995 C2996 1.372 . S
C2996 H2974 0.950 . S
C2996 C2995 1.372 . S
C2996 C2997 1.379 . S
C2997 H2975 0.948 . S
C2997 C2992 1.364 . S
C2997 C2996 1.379 . S
C2998 C2967 1.383 . S
C2998 C2985 1.479 . S
C2998 C2999 1.398 . S
C2999 C2964 1.382 . S
C2999 H2976 0.951 . S
C2999 C2998 1.398 . S
C3000 C3001 1.384 . S
C3000 H3013 0.947 . S
C3000 C3035 1.382 . S
C3001 C3000 1.384 . S
C3001 C3002 1.378 . S
C3002 C3001 1.378 . S
C3002 C3003 1.378 . S
C3002 H3014 0.952 . S
C3003 C3002 1.378 . S
C3003 H3015 0.950 . S
C3003 C3034 1.383 . S
H3004 C3023 0.947 . S
H3005 C3024 0.946 . S
H3006 C3026 0.953 . S
H3007 C3027 0.945 . S
H3008 C3029 0.952 . S
H3009 C3030 0.949 . S
H3010 C3032 0.950 . S
H3011 C3033 0.948 . S
H3012 C3035 0.951 . S
H3013 C3000 0.947 . S
H3014 C3002 0.952 . S
H3015 C3003 0.950 . S
N3016 C3019 1.382 . S
N3016 C3021 1.363 . S
N3017 C3019 1.371 . S
N3017 C3020 1.372 . S
N3018 C3020 1.361 . S
N3018 C3021 1.377 . S
C3019 N3016 1.382 . S
C3019 N3017 1.371 . S
C3019 C3022 1.480 . S
C3020 N3017 1.372 . S
C3020 N3018 1.361 . S
C3020 C3028 1.457 . S
C3021 N3016 1.363 . S
C3021 N3018 1.377 . S
C3021 C3034 1.479 . S
C3022 C3019 1.480 . S
C3022 C3023 1.383 . S
C3022 C3027 1.385 . S
C3023 H3004 0.947 . S
C3023 C3022 1.383 . S
C3023 C3024 1.388 . S
C3024 H3005 0.946 . S
C3024 C3023 1.388 . S
C3024 C3025 1.384 . S
C3025 C3024 1.384 . S
C3025 C3026 1.377 . S
C3026 H3006 0.953 . S
C3026 C3025 1.377 . S
C3026 C3027 1.369 . S
C3027 H3007 0.945 . S
C3027 C3022 1.385 . S
C3027 C3026 1.369 . S
C3028 C3020 1.457 . S
C3028 C3029 1.372 . S
C3028 C3033 1.364 . S
C3029 H3008 0.952 . S
C3029 C3028 1.372 . S
C3029 C3030 1.389 . S
C3030 H3009 0.949 . S
C3030 C3029 1.389 . S
C3030 C3031 1.387 . S
C3031 C3030 1.387 . S
C3031 C3032 1.372 . S
C3032 H3010 0.950 . S
C3032 C3031 1.372 . S
C3032 C3033 1.379 . S
C3033 H3011 0.948 . S
C3033 C3028 1.364 . S
C3033 C3032 1.379 . S
C3034 C3003 1.383 . S
C3034 C3021 1.479 . S
C3034 C3035 1.398 . S
C3035 C3000 1.382 . S
C3035 H3012 0.951 . S
C3035 C3034 1.398 . S
C3036 C3037 1.384 . S
C3036 H3049 0.947 . S
C3036 C3071 1.382 . S
C3037 C3036 1.384 . S
C3037 C3038 1.378 . S
C3038 C3037 1.378 . S
C3038 C3039 1.378 . S
C3038 H3050 0.952 . S
C3039 C3038 1.378 . S
C3039 H3051 0.950 . S
C3039 C3070 1.383 . S
H3040 C3059 0.947 . S
H3041 C3060 0.946 . S
H3042 C3062 0.953 . S
H3043 C3063 0.945 . S
H3044 C3065 0.952 . S
H3045 C3066 0.949 . S
H3046 C3068 0.950 . S
H3047 C3069 0.948 . S
H3048 C3071 0.951 . S
H3049 C3036 0.947 . S
H3050 C3038 0.952 . S
H3051 C3039 0.950 . S
N3052 C3055 1.382 . S
N3052 C3057 1.363 . S
N3053 C3055 1.371 . S
N3053 C3056 1.372 . S
N3054 C3056 1.361 . S
N3054 C3057 1.377 . S
C3055 N3052 1.382 . S
C3055 N3053 1.371 . S
C3055 C3058 1.480 . S
C3056 N3053 1.372 . S
C3056 N3054 1.361 . S
C3056 C3064 1.457 . S
C3057 N3052 1.363 . S
C3057 N3054 1.377 . S
C3057 C3070 1.479 . S
C3058 C3055 1.480 . S
C3058 C3059 1.383 . S
C3058 C3063 1.385 . S
C3059 H3040 0.947 . S
C3059 C3058 1.383 . S
C3059 C3060 1.388 . S
C3060 H3041 0.946 . S
C3060 C3059 1.388 . S
C3060 C3061 1.384 . S
C3061 C3060 1.384 . S
C3061 C3062 1.377 . S
C3062 H3042 0.953 . S
C3062 C3061 1.377 . S
C3062 C3063 1.369 . S
C3063 H3043 0.945 . S
C3063 C3058 1.385 . S
C3063 C3062 1.369 . S
C3064 C3056 1.457 . S
C3064 C3065 1.372 . S
C3064 C3069 1.364 . S
C3065 H3044 0.952 . S
C3065 C3064 1.372 . S
C3065 C3066 1.389 . S
C3066 H3045 0.949 . S
C3066 C3065 1.389 . S
C3066 C3067 1.387 . S
C3067 C3066 1.387 . S
C3067 C3068 1.372 . S
C3068 H3046 0.950 . S
C3068 C3067 1.372 . S
C3068 C3069 1.379 . S
C3069 H3047 0.948 . S
C3069 C3064 1.364 . S
C3069 C3068 1.379 . S
C3070 C3039 1.383 . S
C3070 C3057 1.479 . S
C3070 C3071 1.398 . S
C3071 C3036 1.382 . S
C3071 H3048 0.951 . S
C3071 C3070 1.398 . S
C3072 C3073 1.384 . S
C3072 H3085 0.947 . S
C3072 C3107 1.382 . S
C3073 C3072 1.384 . S
C3073 C3074 1.378 . S
C3074 C3073 1.378 . S
C3074 C3075 1.378 . S
C3074 H3086 0.952 . S
C3075 C3074 1.378 . S
C3075 H3087 0.950 . S
C3075 C3106 1.383 . S
H3076 C3095 0.947 . S
H3077 C3096 0.946 . S
H3078 C3098 0.953 . S
H3079 C3099 0.945 . S
H3080 C3101 0.952 . S
H3081 C3102 0.949 . S
H3082 C3104 0.950 . S
H3083 C3105 0.948 . S
H3084 C3107 0.951 . S
H3085 C3072 0.947 . S
H3086 C3074 0.952 . S
H3087 C3075 0.950 . S
N3088 C3091 1.382 . S
N3088 C3093 1.363 . S
N3089 C3091 1.371 . S
N3089 C3092 1.372 . S
N3090 C3092 1.361 . S
N3090 C3093 1.377 . S
C3091 N3088 1.382 . S
C3091 N3089 1.371 . S
C3091 C3094 1.480 . S
C3092 N3089 1.372 . S
C3092 N3090 1.361 . S
C3092 C3100 1.457 . S
C3093 N3088 1.363 . S
C3093 N3090 1.377 . S
C3093 C3106 1.479 . S
C3094 C3091 1.480 . S
C3094 C3095 1.383 . S
C3094 C3099 1.385 . S
C3095 H3076 0.947 . S
C3095 C3094 1.383 . S
C3095 C3096 1.388 . S
C3096 H3077 0.946 . S
C3096 C3095 1.388 . S
C3096 C3097 1.384 . S
C3097 C3096 1.384 . S
C3097 C3098 1.377 . S
C3098 H3078 0.953 . S
C3098 C3097 1.377 . S
C3098 C3099 1.369 . S
C3099 H3079 0.945 . S
C3099 C3094 1.385 . S
C3099 C3098 1.369 . S
C3100 C3092 1.457 . S
C3100 C3101 1.372 . S
C3100 C3105 1.364 . S
C3101 H3080 0.952 . S
C3101 C3100 1.372 . S
C3101 C3102 1.389 . S
C3102 H3081 0.949 . S
C3102 C3101 1.389 . S
C3102 C3103 1.387 . S
C3103 C3102 1.387 . S
C3103 C3104 1.372 . S
C3104 H3082 0.950 . S
C3104 C3103 1.372 . S
C3104 C3105 1.379 . S
C3105 H3083 0.948 . S
C3105 C3100 1.364 . S
C3105 C3104 1.379 . S
C3106 C3075 1.383 . S
C3106 C3093 1.479 . S
C3106 C3107 1.398 . S
C3107 C3072 1.382 . S
C3107 H3084 0.951 . S
C3107 C3106 1.398 . S
C3108 C3109 1.384 . S
C3108 H3121 0.947 . S
C3108 C3143 1.382 . S
C3109 C3108 1.384 . S
C3109 C3110 1.378 . S
C3110 C3109 1.378 . S
C3110 C3111 1.378 . S
C3110 H3122 0.952 . S
C3111 C3110 1.378 . S
C3111 H3123 0.950 . S
C3111 C3142 1.383 . S
H3112 C3131 0.947 . S
H3113 C3132 0.946 . S
H3114 C3134 0.953 . S
H3115 C3135 0.945 . S
H3116 C3137 0.952 . S
H3117 C3138 0.949 . S
H3118 C3140 0.950 . S
H3119 C3141 0.948 . S
H3120 C3143 0.951 . S
H3121 C3108 0.947 . S
H3122 C3110 0.952 . S
H3123 C3111 0.950 . S
N3124 C3127 1.382 . S
N3124 C3129 1.363 . S
N3125 C3127 1.371 . S
N3125 C3128 1.372 . S
N3126 C3128 1.361 . S
N3126 C3129 1.377 . S
C3127 N3124 1.382 . S
C3127 N3125 1.371 . S
C3127 C3130 1.480 . S
C3128 N3125 1.372 . S
C3128 N3126 1.361 . S
C3128 C3136 1.457 . S
C3129 N3124 1.363 . S
C3129 N3126 1.377 . S
C3129 C3142 1.479 . S
C3130 C3127 1.480 . S
C3130 C3131 1.383 . S
C3130 C3135 1.385 . S
C3131 H3112 0.947 . S
C3131 C3130 1.383 . S
C3131 C3132 1.388 . S
C3132 H3113 0.946 . S
C3132 C3131 1.388 . S
C3132 C3133 1.384 . S
C3133 C3132 1.384 . S
C3133 C3134 1.377 . S
C3134 H3114 0.953 . S
C3134 C3133 1.377 . S
C3134 C3135 1.369 . S
C3135 H3115 0.945 . S
C3135 C3130 1.385 . S
C3135 C3134 1.369 . S
C3136 C3128 1.457 . S
C3136 C3137 1.372 . S
C3136 C3141 1.364 . S
C3137 H3116 0.952 . S
C3137 C3136 1.372 . S
C3137 C3138 1.389 . S
C3138 H3117 0.949 . S
C3138 C3137 1.389 . S
C3138 C3139 1.387 . S
C3139 C3138 1.387 . S
C3139 C3140 1.372 . S
C3140 H3118 0.950 . S
C3140 C3139 1.372 . S
C3140 C3141 1.379 . S
C3141 H3119 0.948 . S
C3141 C3136 1.364 . S
C3141 C3140 1.379 . S
C3142 C3111 1.383 . S
C3142 C3129 1.479 . S
C3142 C3143 1.398 . S
C3143 C3108 1.382 . S
C3143 H3120 0.951 . S
C3143 C3142 1.398 . S
C3144 C3145 1.384 . S
C3144 H3157 0.947 . S
C3144 C3179 1.382 . S
C3145 C3144 1.384 . S
C3145 C3146 1.378 . S
C3146 C3145 1.378 . S
C3146 C3147 1.378 . S
C3146 H3158 0.952 . S
C3147 C3146 1.378 . S
C3147 H3159 0.950 . S
C3147 C3178 1.383 . S
H3148 C3167 0.947 . S
H3149 C3168 0.946 . S
H3150 C3170 0.953 . S
H3151 C3171 0.945 . S
H3152 C3173 0.952 . S
H3153 C3174 0.949 . S
H3154 C3176 0.950 . S
H3155 C3177 0.948 . S
H3156 C3179 0.951 . S
H3157 C3144 0.947 . S
H3158 C3146 0.952 . S
H3159 C3147 0.950 . S
N3160 C3163 1.382 . S
N3160 C3165 1.363 . S
N3161 C3163 1.371 . S
N3161 C3164 1.372 . S
N3162 C3164 1.361 . S
N3162 C3165 1.377 . S
C3163 N3160 1.382 . S
C3163 N3161 1.371 . S
C3163 C3166 1.480 . S
C3164 N3161 1.372 . S
C3164 N3162 1.361 . S
C3164 C3172 1.457 . S
C3165 N3160 1.363 . S
C3165 N3162 1.377 . S
C3165 C3178 1.479 . S
C3166 C3163 1.480 . S
C3166 C3167 1.383 . S
C3166 C3171 1.385 . S
C3167 H3148 0.947 . S
C3167 C3166 1.383 . S
C3167 C3168 1.388 . S
C3168 H3149 0.946 . S
C3168 C3167 1.388 . S
C3168 C3169 1.384 . S
C3169 C3168 1.384 . S
C3169 C3170 1.377 . S
C3170 H3150 0.953 . S
C3170 C3169 1.377 . S
C3170 C3171 1.369 . S
C3171 H3151 0.945 . S
C3171 C3166 1.385 . S
C3171 C3170 1.369 . S
C3172 C3164 1.457 . S
C3172 C3173 1.372 . S
C3172 C3177 1.364 . S
C3173 H3152 0.952 . S
C3173 C3172 1.372 . S
C3173 C3174 1.389 . S
C3174 H3153 0.949 . S
C3174 C3173 1.389 . S
C3174 C3175 1.387 . S
C3175 C3174 1.387 . S
C3175 C3176 1.372 . S
C3176 H3154 0.950 . S
C3176 C3175 1.372 . S
C3176 C3177 1.379 . S
C3177 H3155 0.948 . S
C3177 C3172 1.364 . S
C3177 C3176 1.379 . S
C3178 C3147 1.383 . S
C3178 C3165 1.479 . S
C3178 C3179 1.398 . S
C3179 C3144 1.382 . S
C3179 H3156 0.951 . S
C3179 C3178 1.398 . S
C3180 C3181 1.384 . S
C3180 H3193 0.947 . S
C3180 C3215 1.382 . S
C3181 C3180 1.384 . S
C3181 C3182 1.378 . S
C3182 C3181 1.378 . S
C3182 C3183 1.378 . S
C3182 H3194 0.952 . S
C3183 C3182 1.378 . S
C3183 H3195 0.950 . S
C3183 C3214 1.383 . S
H3184 C3203 0.947 . S
H3185 C3204 0.946 . S
H3186 C3206 0.953 . S
H3187 C3207 0.945 . S
H3188 C3209 0.952 . S
H3189 C3210 0.949 . S
H3190 C3212 0.950 . S
H3191 C3213 0.948 . S
H3192 C3215 0.951 . S
H3193 C3180 0.947 . S
H3194 C3182 0.952 . S
H3195 C3183 0.950 . S
N3196 C3199 1.382 . S
N3196 C3201 1.363 . S
N3197 C3199 1.371 . S
N3197 C3200 1.372 . S
N3198 C3200 1.361 . S
N3198 C3201 1.377 . S
C3199 N3196 1.382 . S
C3199 N3197 1.371 . S
C3199 C3202 1.480 . S
C3200 N3197 1.372 . S
C3200 N3198 1.361 . S
C3200 C3208 1.457 . S
C3201 N3196 1.363 . S
C3201 N3198 1.377 . S
C3201 C3214 1.479 . S
C3202 C3199 1.480 . S
C3202 C3203 1.383 . S
C3202 C3207 1.385 . S
C3203 H3184 0.947 . S
C3203 C3202 1.383 . S
C3203 C3204 1.388 . S
C3204 H3185 0.946 . S
C3204 C3203 1.388 . S
C3204 C3205 1.384 . S
C3205 C3204 1.384 . S
C3205 C3206 1.377 . S
C3206 H3186 0.953 . S
C3206 C3205 1.377 . S
C3206 C3207 1.369 . S
C3207 H3187 0.945 . S
C3207 C3202 1.385 . S
C3207 C3206 1.369 . S
C3208 C3200 1.457 . S
C3208 C3209 1.372 . S
C3208 C3213 1.364 . S
C3209 H3188 0.952 . S
C3209 C3208 1.372 . S
C3209 C3210 1.389 . S
C3210 H3189 0.949 . S
C3210 C3209 1.389 . S
C3210 C3211 1.387 . S
C3211 C3210 1.387 . S
C3211 C3212 1.372 . S
C3212 H3190 0.950 . S
C3212 C3211 1.372 . S
C3212 C3213 1.379 . S
C3213 H3191 0.948 . S
C3213 C3208 1.364 . S
C3213 C3212 1.379 . S
C3214 C3183 1.383 . S
C3214 C3201 1.479 . S
C3214 C3215 1.398 . S
C3215 C3180 1.382 . S
C3215 H3192 0.951 . S
C3215 C3214 1.398 . S
C3216 C3217 1.384 . S
C3216 H3229 0.947 . S
C3216 C3251 1.382 . S
C3217 C3216 1.384 . S
C3217 C3218 1.378 . S
C3218 C3217 1.378 . S
C3218 C3219 1.378 . S
C3218 H3230 0.952 . S
C3219 C3218 1.378 . S
C3219 H3231 0.950 . S
C3219 C3250 1.383 . S
H3220 C3239 0.947 . S
H3221 C3240 0.946 . S
H3222 C3242 0.953 . S
H3223 C3243 0.945 . S
H3224 C3245 0.952 . S
H3225 C3246 0.949 . S
H3226 C3248 0.950 . S
H3227 C3249 0.948 . S
H3228 C3251 0.951 . S
H3229 C3216 0.947 . S
H3230 C3218 0.952 . S
H3231 C3219 0.950 . S
N3232 C3235 1.382 . S
N3232 C3237 1.363 . S
N3233 C3235 1.371 . S
N3233 C3236 1.372 . S
N3234 C3236 1.361 . S
N3234 C3237 1.377 . S
C3235 N3232 1.382 . S
C3235 N3233 1.371 . S
C3235 C3238 1.480 . S
C3236 N3233 1.372 . S
C3236 N3234 1.361 . S
C3236 C3244 1.457 . S
C3237 N3232 1.363 . S
C3237 N3234 1.377 . S
C3237 C3250 1.479 . S
C3238 C3235 1.480 . S
C3238 C3239 1.383 . S
C3238 C3243 1.385 . S
C3239 H3220 0.947 . S
C3239 C3238 1.383 . S
C3239 C3240 1.388 . S
C3240 H3221 0.946 . S
C3240 C3239 1.388 . S
C3240 C3241 1.384 . S
C3241 C3240 1.384 . S
C3241 C3242 1.377 . S
C3242 H3222 0.953 . S
C3242 C3241 1.377 . S
C3242 C3243 1.369 . S
C3243 H3223 0.945 . S
C3243 C3238 1.385 . S
C3243 C3242 1.369 . S
C3244 C3236 1.457 . S
C3244 C3245 1.372 . S
C3244 C3249 1.364 . S
C3245 H3224 0.952 . S
C3245 C3244 1.372 . S
C3245 C3246 1.389 . S
C3246 H3225 0.949 . S
C3246 C3245 1.389 . S
C3246 C3247 1.387 . S
C3247 C3246 1.387 . S
C3247 C3248 1.372 . S
C3248 H3226 0.950 . S
C3248 C3247 1.372 . S
C3248 C3249 1.379 . S
C3249 H3227 0.948 . S
C3249 C3244 1.364 . S
C3249 C3248 1.379 . S
C3250 C3219 1.383 . S
C3250 C3237 1.479 . S
C3250 C3251 1.398 . S
C3251 C3216 1.382 . S
C3251 H3228 0.951 . S
C3251 C3250 1.398 . S
C3252 C3253 1.384 . S
C3252 H3265 0.947 . S
C3252 C3287 1.382 . S
C3253 C3252 1.384 . S
C3253 C3254 1.378 . S
C3254 C3253 1.378 . S
C3254 C3255 1.378 . S
C3254 H3266 0.952 . S
C3255 C3254 1.378 . S
C3255 H3267 0.950 . S
C3255 C3286 1.383 . S
H3256 C3275 0.947 . S
H3257 C3276 0.946 . S
H3258 C3278 0.953 . S
H3259 C3279 0.945 . S
H3260 C3281 0.952 . S
H3261 C3282 0.949 . S
H3262 C3284 0.950 . S
H3263 C3285 0.948 . S
H3264 C3287 0.951 . S
H3265 C3252 0.947 . S
H3266 C3254 0.952 . S
H3267 C3255 0.950 . S
N3268 C3271 1.382 . S
N3268 C3273 1.363 . S
N3269 C3271 1.371 . S
N3269 C3272 1.372 . S
N3270 C3272 1.361 . S
N3270 C3273 1.377 . S
C3271 N3268 1.382 . S
C3271 N3269 1.371 . S
C3271 C3274 1.480 . S
C3272 N3269 1.372 . S
C3272 N3270 1.361 . S
C3272 C3280 1.457 . S
C3273 N3268 1.363 . S
C3273 N3270 1.377 . S
C3273 C3286 1.479 . S
C3274 C3271 1.480 . S
C3274 C3275 1.383 . S
C3274 C3279 1.385 . S
C3275 H3256 0.947 . S
C3275 C3274 1.383 . S
C3275 C3276 1.388 . S
C3276 H3257 0.946 . S
C3276 C3275 1.388 . S
C3276 C3277 1.384 . S
C3277 C3276 1.384 . S
C3277 C3278 1.377 . S
C3278 H3258 0.953 . S
C3278 C3277 1.377 . S
C3278 C3279 1.369 . S
C3279 H3259 0.945 . S
C3279 C3274 1.385 . S
C3279 C3278 1.369 . S
C3280 C3272 1.457 . S
C3280 C3281 1.372 . S
C3280 C3285 1.364 . S
C3281 H3260 0.952 . S
C3281 C3280 1.372 . S
C3281 C3282 1.389 . S
C3282 H3261 0.949 . S
C3282 C3281 1.389 . S
C3282 C3283 1.387 . S
C3283 C3282 1.387 . S
C3283 C3284 1.372 . S
C3284 H3262 0.950 . S
C3284 C3283 1.372 . S
C3284 C3285 1.379 . S
C3285 H3263 0.948 . S
C3285 C3280 1.364 . S
C3285 C3284 1.379 . S
C3286 C3255 1.383 . S
C3286 C3273 1.479 . S
C3286 C3287 1.398 . S
C3287 C3252 1.382 . S
C3287 H3264 0.951 . S
C3287 C3286 1.398 . S
C3288 C3289 1.384 . S
C3288 H3301 0.947 . S
C3288 C3323 1.382 . S
C3289 C3288 1.384 . S
C3289 C3290 1.378 . S
C3290 C3289 1.378 . S
C3290 C3291 1.378 . S
C3290 H3302 0.952 . S
C3291 C3290 1.378 . S
C3291 H3303 0.950 . S
C3291 C3322 1.383 . S
H3292 C3311 0.947 . S
H3293 C3312 0.946 . S
H3294 C3314 0.953 . S
H3295 C3315 0.945 . S
H3296 C3317 0.952 . S
H3297 C3318 0.949 . S
H3298 C3320 0.950 . S
H3299 C3321 0.948 . S
H3300 C3323 0.951 . S
H3301 C3288 0.947 . S
H3302 C3290 0.952 . S
H3303 C3291 0.950 . S
N3304 C3307 1.382 . S
N3304 C3309 1.363 . S
N3305 C3307 1.371 . S
N3305 C3308 1.372 . S
N3306 C3308 1.361 . S
N3306 C3309 1.377 . S
C3307 N3304 1.382 . S
C3307 N3305 1.371 . S
C3307 C3310 1.480 . S
C3308 N3305 1.372 . S
C3308 N3306 1.361 . S
C3308 C3316 1.457 . S
C3309 N3304 1.363 . S
C3309 N3306 1.377 . S
C3309 C3322 1.479 . S
C3310 C3307 1.480 . S
C3310 C3311 1.383 . S
C3310 C3315 1.385 . S
C3311 H3292 0.947 . S
C3311 C3310 1.383 . S
C3311 C3312 1.388 . S
C3312 H3293 0.946 . S
C3312 C3311 1.388 . S
C3312 C3313 1.384 . S
C3313 C3312 1.384 . S
C3313 C3314 1.377 . S
C3314 H3294 0.953 . S
C3314 C3313 1.377 . S
C3314 C3315 1.369 . S
C3315 H3295 0.945 . S
C3315 C3310 1.385 . S
C3315 C3314 1.369 . S
C3316 C3308 1.457 . S
C3316 C3317 1.372 . S
C3316 C3321 1.364 . S
C3317 H3296 0.952 . S
C3317 C3316 1.372 . S
C3317 C3318 1.389 . S
C3318 H3297 0.949 . S
C3318 C3317 1.389 . S
C3318 C3319 1.387 . S
C3319 C3318 1.387 . S
C3319 C3320 1.372 . S
C3320 H3298 0.950 . S
C3320 C3319 1.372 . S
C3320 C3321 1.379 . S
C3321 H3299 0.948 . S
C3321 C3316 1.364 . S
C3321 C3320 1.379 . S
C3322 C3291 1.383 . S
C3322 C3309 1.479 . S
C3322 C3323 1.398 . S
C3323 C3288 1.382 . S
C3323 H3300 0.951 . S
C3323 C3322 1.398 . S
C3324 C3325 1.384 . S
C3324 H3337 0.947 . S
C3324 C3359 1.382 . S
C3325 C3324 1.384 . S
C3325 C3326 1.378 . S
C3326 C3325 1.378 . S
C3326 C3327 1.378 . S
C3326 H3338 0.952 . S
C3327 C3326 1.378 . S
C3327 H3339 0.950 . S
C3327 C3358 1.383 . S
H3328 C3347 0.947 . S
H3329 C3348 0.946 . S
H3330 C3350 0.953 . S
H3331 C3351 0.945 . S
H3332 C3353 0.952 . S
H3333 C3354 0.949 . S
H3334 C3356 0.950 . S
H3335 C3357 0.948 . S
H3336 C3359 0.951 . S
H3337 C3324 0.947 . S
H3338 C3326 0.952 . S
H3339 C3327 0.950 . S
N3340 C3343 1.382 . S
N3340 C3345 1.363 . S
N3341 C3343 1.371 . S
N3341 C3344 1.372 . S
N3342 C3344 1.361 . S
N3342 C3345 1.377 . S
C3343 N3340 1.382 . S
C3343 N3341 1.371 . S
C3343 C3346 1.480 . S
C3344 N3341 1.372 . S
C3344 N3342 1.361 . S
C3344 C3352 1.457 . S
C3345 N3340 1.363 . S
C3345 N3342 1.377 . S
C3345 C3358 1.479 . S
C3346 C3343 1.480 . S
C3346 C3347 1.383 . S
C3346 C3351 1.385 . S
C3347 H3328 0.947 . S
C3347 C3346 1.383 . S
C3347 C3348 1.388 . S
C3348 H3329 0.946 . S
C3348 C3347 1.388 . S
C3348 C3349 1.384 . S
C3349 C3348 1.384 . S
C3349 C3350 1.377 . S
C3350 H3330 0.953 . S
C3350 C3349 1.377 . S
C3350 C3351 1.369 . S
C3351 H3331 0.945 . S
C3351 C3346 1.385 . S
C3351 C3350 1.369 . S
C3352 C3344 1.457 . S
C3352 C3353 1.372 . S
C3352 C3357 1.364 . S
C3353 H3332 0.952 . S
C3353 C3352 1.372 . S
C3353 C3354 1.389 . S
C3354 H3333 0.949 . S
C3354 C3353 1.389 . S
C3354 C3355 1.387 . S
C3355 C3354 1.387 . S
C3355 C3356 1.372 . S
C3356 H3334 0.950 . S
C3356 C3355 1.372 . S
C3356 C3357 1.379 . S
C3357 H3335 0.948 . S
C3357 C3352 1.364 . S
C3357 C3356 1.379 . S
C3358 C3327 1.383 . S
C3358 C3345 1.479 . S
C3358 C3359 1.398 . S
C3359 C3324 1.382 . S
C3359 H3336 0.951 . S
C3359 C3358 1.398 . S
C3360 C3361 1.384 . S
C3360 H3373 0.947 . S
C3360 C3395 1.382 . S
C3361 C3360 1.384 . S
C3361 C3362 1.378 . S
C3362 C3361 1.378 . S
C3362 C3363 1.378 . S
C3362 H3374 0.952 . S
C3363 C3362 1.378 . S
C3363 H3375 0.950 . S
C3363 C3394 1.383 . S
H3364 C3383 0.947 . S
H3365 C3384 0.946 . S
H3366 C3386 0.953 . S
H3367 C3387 0.945 . S
H3368 C3389 0.952 . S
H3369 C3390 0.949 . S
H3370 C3392 0.950 . S
H3371 C3393 0.948 . S
H3372 C3395 0.951 . S
H3373 C3360 0.947 . S
H3374 C3362 0.952 . S
H3375 C3363 0.950 . S
N3376 C3379 1.382 . S
N3376 C3381 1.363 . S
N3377 C3379 1.371 . S
N3377 C3380 1.372 . S
N3378 C3380 1.361 . S
N3378 C3381 1.377 . S
C3379 N3376 1.382 . S
C3379 N3377 1.371 . S
C3379 C3382 1.480 . S
C3380 N3377 1.372 . S
C3380 N3378 1.361 . S
C3380 C3388 1.457 . S
C3381 N3376 1.363 . S
C3381 N3378 1.377 . S
C3381 C3394 1.479 . S
C3382 C3379 1.480 . S
C3382 C3383 1.383 . S
C3382 C3387 1.385 . S
C3383 H3364 0.947 . S
C3383 C3382 1.383 . S
C3383 C3384 1.388 . S
C3384 H3365 0.946 . S
C3384 C3383 1.388 . S
C3384 C3385 1.384 . S
C3385 C3384 1.384 . S
C3385 C3386 1.377 . S
C3386 H3366 0.953 . S
C3386 C3385 1.377 . S
C3386 C3387 1.369 . S
C3387 H3367 0.945 . S
C3387 C3382 1.385 . S
C3387 C3386 1.369 . S
C3388 C3380 1.457 . S
C3388 C3389 1.372 . S
C3388 C3393 1.364 . S
C3389 H3368 0.952 . S
C3389 C3388 1.372 . S
C3389 C3390 1.389 . S
C3390 H3369 0.949 . S
C3390 C3389 1.389 . S
C3390 C3391 1.387 . S
C3391 C3390 1.387 . S
C3391 C3392 1.372 . S
C3392 H3370 0.950 . S
C3392 C3391 1.372 . S
C3392 C3393 1.379 . S
C3393 H3371 0.948 . S
C3393 C3388 1.364 . S
C3393 C3392 1.379 . S
C3394 C3363 1.383 . S
C3394 C3381 1.479 . S
C3394 C3395 1.398 . S
C3395 C3360 1.382 . S
C3395 H3372 0.951 . S
C3395 C3394 1.398 . S
C3396 C3397 1.384 . S
C3396 H3409 0.947 . S
C3396 C3431 1.382 . S
C3397 C3396 1.384 . S
C3397 C3398 1.378 . S
C3398 C3397 1.378 . S
C3398 C3399 1.378 . S
C3398 H3410 0.952 . S
C3399 C3398 1.378 . S
C3399 H3411 0.950 . S
C3399 C3430 1.383 . S
H3400 C3419 0.947 . S
H3401 C3420 0.946 . S
H3402 C3422 0.953 . S
H3403 C3423 0.945 . S
H3404 C3425 0.952 . S
H3405 C3426 0.949 . S
H3406 C3428 0.950 . S
H3407 C3429 0.948 . S
H3408 C3431 0.951 . S
H3409 C3396 0.947 . S
H3410 C3398 0.952 . S
H3411 C3399 0.950 . S
N3412 C3415 1.382 . S
N3412 C3417 1.363 . S
N3413 C3415 1.371 . S
N3413 C3416 1.372 . S
N3414 C3416 1.361 . S
N3414 C3417 1.377 . S
C3415 N3412 1.382 . S
C3415 N3413 1.371 . S
C3415 C3418 1.480 . S
C3416 N3413 1.372 . S
C3416 N3414 1.361 . S
C3416 C3424 1.457 . S
C3417 N3412 1.363 . S
C3417 N3414 1.377 . S
C3417 C3430 1.479 . S
C3418 C3415 1.480 . S
C3418 C3419 1.383 . S
C3418 C3423 1.385 . S
C3419 H3400 0.947 . S
C3419 C3418 1.383 . S
C3419 C3420 1.388 . S
C3420 H3401 0.946 . S
C3420 C3419 1.388 . S
C3420 C3421 1.384 . S
C3421 C3420 1.384 . S
C3421 C3422 1.377 . S
C3422 H3402 0.953 . S
C3422 C3421 1.377 . S
C3422 C3423 1.369 . S
C3423 H3403 0.945 . S
C3423 C3418 1.385 . S
C3423 C3422 1.369 . S
C3424 C3416 1.457 . S
C3424 C3425 1.372 . S
C3424 C3429 1.364 . S
C3425 H3404 0.952 . S
C3425 C3424 1.372 . S
C3425 C3426 1.389 . S
C3426 H3405 0.949 . S
C3426 C3425 1.389 . S
C3426 C3427 1.387 . S
C3427 C3426 1.387 . S
C3427 C3428 1.372 . S
C3428 H3406 0.950 . S
C3428 C3427 1.372 . S
C3428 C3429 1.379 . S
C3429 H3407 0.948 . S
C3429 C3424 1.364 . S
C3429 C3428 1.379 . S
C3430 C3399 1.383 . S
C3430 C3417 1.479 . S
C3430 C3431 1.398 . S
C3431 C3396 1.382 . S
C3431 H3408 0.951 . S
C3431 C3430 1.398 . S
C3432 C3433 1.384 . S
C3432 H3445 0.947 . S
C3432 C3467 1.382 . S
C3433 C3432 1.384 . S
C3433 C3434 1.378 . S
C3434 C3433 1.378 . S
C3434 C3435 1.378 . S
C3434 H3446 0.952 . S
C3435 C3434 1.378 . S
C3435 H3447 0.950 . S
C3435 C3466 1.383 . S
H3436 C3455 0.947 . S
H3437 C3456 0.946 . S
H3438 C3458 0.953 . S
H3439 C3459 0.945 . S
H3440 C3461 0.952 . S
H3441 C3462 0.949 . S
H3442 C3464 0.950 . S
H3443 C3465 0.948 . S
H3444 C3467 0.951 . S
H3445 C3432 0.947 . S
H3446 C3434 0.952 . S
H3447 C3435 0.950 . S
N3448 C3451 1.382 . S
N3448 C3453 1.363 . S
N3449 C3451 1.371 . S
N3449 C3452 1.372 . S
N3450 C3452 1.361 . S
N3450 C3453 1.377 . S
C3451 N3448 1.382 . S
C3451 N3449 1.371 . S
C3451 C3454 1.480 . S
C3452 N3449 1.372 . S
C3452 N3450 1.361 . S
C3452 C3460 1.457 . S
C3453 N3448 1.363 . S
C3453 N3450 1.377 . S
C3453 C3466 1.479 . S
C3454 C3451 1.480 . S
C3454 C3455 1.383 . S
C3454 C3459 1.385 . S
C3455 H3436 0.947 . S
C3455 C3454 1.383 . S
C3455 C3456 1.388 . S
C3456 H3437 0.946 . S
C3456 C3455 1.388 . S
C3456 C3457 1.384 . S
C3457 C3456 1.384 . S
C3457 C3458 1.377 . S
C3458 H3438 0.953 . S
C3458 C3457 1.377 . S
C3458 C3459 1.369 . S
C3459 H3439 0.945 . S
C3459 C3454 1.385 . S
C3459 C3458 1.369 . S
C3460 C3452 1.457 . S
C3460 C3461 1.372 . S
C3460 C3465 1.364 . S
C3461 H3440 0.952 . S
C3461 C3460 1.372 . S
C3461 C3462 1.389 . S
C3462 H3441 0.949 . S
C3462 C3461 1.389 . S
C3462 C3463 1.387 . S
C3463 C3462 1.387 . S
C3463 C3464 1.372 . S
C3464 H3442 0.950 . S
C3464 C3463 1.372 . S
C3464 C3465 1.379 . S
C3465 H3443 0.948 . S
C3465 C3460 1.364 . S
C3465 C3464 1.379 . S
C3466 C3435 1.383 . S
C3466 C3453 1.479 . S
C3466 C3467 1.398 . S
C3467 C3432 1.382 . S
C3467 H3444 0.951 . S
C3467 C3466 1.398 . S
C3468 C3469 1.384 . S
C3468 H3481 0.947 . S
C3468 C3503 1.382 . S
C3469 C3468 1.384 . S
C3469 C3470 1.378 . S
C3470 C3469 1.378 . S
C3470 C3471 1.378 . S
C3470 H3482 0.952 . S
C3471 C3470 1.378 . S
C3471 H3483 0.950 . S
C3471 C3502 1.383 . S
H3472 C3491 0.947 . S
H3473 C3492 0.946 . S
H3474 C3494 0.953 . S
H3475 C3495 0.945 . S
H3476 C3497 0.952 . S
H3477 C3498 0.949 . S
H3478 C3500 0.950 . S
H3479 C3501 0.948 . S
H3480 C3503 0.951 . S
H3481 C3468 0.947 . S
H3482 C3470 0.952 . S
H3483 C3471 0.950 . S
N3484 C3487 1.382 . S
N3484 C3489 1.363 . S
N3485 C3487 1.371 . S
N3485 C3488 1.372 . S
N3486 C3488 1.361 . S
N3486 C3489 1.377 . S
C3487 N3484 1.382 . S
C3487 N3485 1.371 . S
C3487 C3490 1.480 . S
C3488 N3485 1.372 . S
C3488 N3486 1.361 . S
C3488 C3496 1.457 . S
C3489 N3484 1.363 . S
C3489 N3486 1.377 . S
C3489 C3502 1.479 . S
C3490 C3487 1.480 . S
C3490 C3491 1.383 . S
C3490 C3495 1.385 . S
C3491 H3472 0.947 . S
C3491 C3490 1.383 . S
C3491 C3492 1.388 . S
C3492 H3473 0.946 . S
C3492 C3491 1.388 . S
C3492 C3493 1.384 . S
C3493 C3492 1.384 . S
C3493 C3494 1.377 . S
C3494 H3474 0.953 . S
C3494 C3493 1.377 . S
C3494 C3495 1.369 . S
C3495 H3475 0.945 . S
C3495 C3490 1.385 . S
C3495 C3494 1.369 . S
C3496 C3488 1.457 . S
C3496 C3497 1.372 . S
C3496 C3501 1.364 . S
C3497 H3476 0.952 . S
C3497 C3496 1.372 . S
C3497 C3498 1.389 . S
C3498 H3477 0.949 . S
C3498 C3497 1.389 . S
C3498 C3499 1.387 . S
C3499 C3498 1.387 . S
C3499 C3500 1.372 . S
C3500 H3478 0.950 . S
C3500 C3499 1.372 . S
C3500 C3501 1.379 . S
C3501 H3479 0.948 . S
C3501 C3496 1.364 . S
C3501 C3500 1.379 . S
C3502 C3471 1.383 . S
C3502 C3489 1.479 . S
C3502 C3503 1.398 . S
C3503 C3468 1.382 . S
C3503 H3480 0.951 . S
C3503 C3502 1.398 . S
C3504 C3505 1.384 . S
C3504 H3517 0.947 . S
C3504 C3539 1.382 . S
C3505 C3504 1.384 . S
C3505 C3506 1.378 . S
C3506 C3505 1.378 . S
C3506 C3507 1.378 . S
C3506 H3518 0.952 . S
C3507 C3506 1.378 . S
C3507 H3519 0.950 . S
C3507 C3538 1.383 . S
H3508 C3527 0.947 . S
H3509 C3528 0.946 . S
H3510 C3530 0.953 . S
H3511 C3531 0.945 . S
H3512 C3533 0.952 . S
H3513 C3534 0.949 . S
H3514 C3536 0.950 . S
H3515 C3537 0.948 . S
H3516 C3539 0.951 . S
H3517 C3504 0.947 . S
H3518 C3506 0.952 . S
H3519 C3507 0.950 . S
N3520 C3523 1.382 . S
N3520 C3525 1.363 . S
N3521 C3523 1.371 . S
N3521 C3524 1.372 . S
N3522 C3524 1.361 . S
N3522 C3525 1.377 . S
C3523 N3520 1.382 . S
C3523 N3521 1.371 . S
C3523 C3526 1.480 . S
C3524 N3521 1.372 . S
C3524 N3522 1.361 . S
C3524 C3532 1.457 . S
C3525 N3520 1.363 . S
C3525 N3522 1.377 . S
C3525 C3538 1.479 . S
C3526 C3523 1.480 . S
C3526 C3527 1.383 . S
C3526 C3531 1.385 . S
C3527 H3508 0.947 . S
C3527 C3526 1.383 . S
C3527 C3528 1.388 . S
C3528 H3509 0.946 . S
C3528 C3527 1.388 . S
C3528 C3529 1.384 . S
C3529 C3528 1.384 . S
C3529 C3530 1.377 . S
C3530 H3510 0.953 . S
C3530 C3529 1.377 . S
C3530 C3531 1.369 . S
C3531 H3511 0.945 . S
C3531 C3526 1.385 . S
C3531 C3530 1.369 . S
C3532 C3524 1.457 . S
C3532 C3533 1.372 . S
C3532 C3537 1.364 . S
C3533 H3512 0.952 . S
C3533 C3532 1.372 . S
C3533 C3534 1.389 . S
C3534 H3513 0.949 . S
C3534 C3533 1.389 . S
C3534 C3535 1.387 . S
C3535 C3534 1.387 . S
C3535 C3536 1.372 . S
C3536 H3514 0.950 . S
C3536 C3535 1.372 . S
C3536 C3537 1.379 . S
C3537 H3515 0.948 . S
C3537 C3532 1.364 . S
C3537 C3536 1.379 . S
C3538 C3507 1.383 . S
C3538 C3525 1.479 . S
C3538 C3539 1.398 . S
C3539 C3504 1.382 . S
C3539 H3516 0.951 . S
C3539 C3538 1.398 . S
C3540 C3541 1.384 . S
C3540 H3553 0.947 . S
C3540 C3575 1.382 . S
C3541 C3540 1.384 . S
C3541 C3542 1.378 . S
C3542 C3541 1.378 . S
C3542 C3543 1.378 . S
C3542 H3554 0.952 . S
C3543 C3542 1.378 . S
C3543 H3555 0.950 . S
C3543 C3574 1.383 . S
H3544 C3563 0.947 . S
H3545 C3564 0.946 . S
H3546 C3566 0.953 . S
H3547 C3567 0.945 . S
H3548 C3569 0.952 . S
H3549 C3570 0.949 . S
H3550 C3572 0.950 . S
H3551 C3573 0.948 . S
H3552 C3575 0.951 . S
H3553 C3540 0.947 . S
H3554 C3542 0.952 . S
H3555 C3543 0.950 . S
N3556 C3559 1.382 . S
N3556 C3561 1.363 . S
N3557 C3559 1.371 . S
N3557 C3560 1.372 . S
N3558 C3560 1.361 . S
N3558 C3561 1.377 . S
C3559 N3556 1.382 . S
C3559 N3557 1.371 . S
C3559 C3562 1.480 . S
C3560 N3557 1.372 . S
C3560 N3558 1.361 . S
C3560 C3568 1.457 . S
C3561 N3556 1.363 . S
C3561 N3558 1.377 . S
C3561 C3574 1.479 . S
C3562 C3559 1.480 . S
C3562 C3563 1.383 . S
C3562 C3567 1.385 . S
C3563 H3544 0.947 . S
C3563 C3562 1.383 . S
C3563 C3564 1.388 . S
C3564 H3545 0.946 . S
C3564 C3563 1.388 . S
C3564 C3565 1.384 . S
C3565 C3564 1.384 . S
C3565 C3566 1.377 . S
C3566 H3546 0.953 . S
C3566 C3565 1.377 . S
C3566 C3567 1.369 . S
C3567 H3547 0.945 . S
C3567 C3562 1.385 . S
C3567 C3566 1.369 . S
C3568 C3560 1.457 . S
C3568 C3569 1.372 . S
C3568 C3573 1.364 . S
C3569 H3548 0.952 . S
C3569 C3568 1.372 . S
C3569 C3570 1.389 . S
C3570 H3549 0.949 . S
C3570 C3569 1.389 . S
C3570 C3571 1.387 . S
C3571 C3570 1.387 . S
C3571 C3572 1.372 . S
C3572 H3550 0.950 . S
C3572 C3571 1.372 . S
C3572 C3573 1.379 . S
C3573 H3551 0.948 . S
C3573 C3568 1.364 . S
C3573 C3572 1.379 . S
C3574 C3543 1.383 . S
C3574 C3561 1.479 . S
C3574 C3575 1.398 . S
C3575 C3540 1.382 . S
C3575 H3552 0.951 . S
C3575 C3574 1.398 . S
C3576 C3577 1.384 . S
C3576 H3589 0.947 . S
C3576 C3611 1.382 . S
C3577 C3576 1.384 . S
C3577 C3578 1.378 . S
C3578 C3577 1.378 . S
C3578 C3579 1.378 . S
C3578 H3590 0.952 . S
C3579 C3578 1.378 . S
C3579 H3591 0.950 . S
C3579 C3610 1.383 . S
H3580 C3599 0.947 . S
H3581 C3600 0.946 . S
H3582 C3602 0.953 . S
H3583 C3603 0.945 . S
H3584 C3605 0.952 . S
H3585 C3606 0.949 . S
H3586 C3608 0.950 . S
H3587 C3609 0.948 . S
H3588 C3611 0.951 . S
H3589 C3576 0.947 . S
H3590 C3578 0.952 . S
H3591 C3579 0.950 . S
N3592 C3595 1.382 . S
N3592 C3597 1.363 . S
N3593 C3595 1.371 . S
N3593 C3596 1.372 . S
N3594 C3596 1.361 . S
N3594 C3597 1.377 . S
C3595 N3592 1.382 . S
C3595 N3593 1.371 . S
C3595 C3598 1.480 . S
C3596 N3593 1.372 . S
C3596 N3594 1.361 . S
C3596 C3604 1.457 . S
C3597 N3592 1.363 . S
C3597 N3594 1.377 . S
C3597 C3610 1.479 . S
C3598 C3595 1.480 . S
C3598 C3599 1.383 . S
C3598 C3603 1.385 . S
C3599 H3580 0.947 . S
C3599 C3598 1.383 . S
C3599 C3600 1.388 . S
C3600 H3581 0.946 . S
C3600 C3599 1.388 . S
C3600 C3601 1.384 . S
C3601 C3600 1.384 . S
C3601 C3602 1.377 . S
C3602 H3582 0.953 . S
C3602 C3601 1.377 . S
C3602 C3603 1.369 . S
C3603 H3583 0.945 . S
C3603 C3598 1.385 . S
C3603 C3602 1.369 . S
C3604 C3596 1.457 . S
C3604 C3605 1.372 . S
C3604 C3609 1.364 . S
C3605 H3584 0.952 . S
C3605 C3604 1.372 . S
C3605 C3606 1.389 . S
C3606 H3585 0.949 . S
C3606 C3605 1.389 . S
C3606 C3607 1.387 . S
C3607 C3606 1.387 . S
C3607 C3608 1.372 . S
C3608 H3586 0.950 . S
C3608 C3607 1.372 . S
C3608 C3609 1.379 . S
C3609 H3587 0.948 . S
C3609 C3604 1.364 . S
C3609 C3608 1.379 . S
C3610 C3579 1.383 . S
C3610 C3597 1.479 . S
C3610 C3611 1.398 . S
C3611 C3576 1.382 . S
C3611 H3588 0.951 . S
C3611 C3610 1.398 . S
C3612 C3613 1.384 . S
C3612 H3625 0.947 . S
C3612 C3647 1.382 . S
C3613 C3612 1.384 . S
C3613 C3614 1.378 . S
C3614 C3613 1.378 . S
C3614 C3615 1.378 . S
C3614 H3626 0.952 . S
C3615 C3614 1.378 . S
C3615 H3627 0.950 . S
C3615 C3646 1.383 . S
H3616 C3635 0.947 . S
H3617 C3636 0.946 . S
H3618 C3638 0.953 . S
H3619 C3639 0.945 . S
H3620 C3641 0.952 . S
H3621 C3642 0.949 . S
H3622 C3644 0.950 . S
H3623 C3645 0.948 . S
H3624 C3647 0.951 . S
H3625 C3612 0.947 . S
H3626 C3614 0.952 . S
H3627 C3615 0.950 . S
N3628 C3631 1.382 . S
N3628 C3633 1.363 . S
N3629 C3631 1.371 . S
N3629 C3632 1.372 . S
N3630 C3632 1.361 . S
N3630 C3633 1.377 . S
C3631 N3628 1.382 . S
C3631 N3629 1.371 . S
C3631 C3634 1.480 . S
C3632 N3629 1.372 . S
C3632 N3630 1.361 . S
C3632 C3640 1.457 . S
C3633 N3628 1.363 . S
C3633 N3630 1.377 . S
C3633 C3646 1.479 . S
C3634 C3631 1.480 . S
C3634 C3635 1.383 . S
C3634 C3639 1.385 . S
C3635 H3616 0.947 . S
C3635 C3634 1.383 . S
C3635 C3636 1.388 . S
C3636 H3617 0.946 . S
C3636 C3635 1.388 . S
C3636 C3637 1.384 . S
C3637 C3636 1.384 . S
C3637 C3638 1.377 . S
C3638 H3618 0.953 . S
C3638 C3637 1.377 . S
C3638 C3639 1.369 . S
C3639 H3619 0.945 . S
C3639 C3634 1.385 . S
C3639 C3638 1.369 . S
C3640 C3632 1.457 . S
C3640 C3641 1.372 . S
C3640 C3645 1.364 . S
C3641 H3620 0.952 . S
C3641 C3640 1.372 . S
C3641 C3642 1.389 . S
C3642 H3621 0.949 . S
C3642 C3641 1.389 . S
C3642 C3643 1.387 . S
C3643 C3642 1.387 . S
C3643 C3644 1.372 . S
C3644 H3622 0.950 . S
C3644 C3643 1.372 . S
C3644 C3645 1.379 . S
C3645 H3623 0.948 . S
C3645 C3640 1.364 . S
C3645 C3644 1.379 . S
C3646 C3615 1.383 . S
C3646 C3633 1.479 . S
C3646 C3647 1.398 . S
C3647 C3612 1.382 . S
C3647 H3624 0.951 . S
C3647 C3646 1.398 . S
C3648 C3649 1.387 . S
C3648 H3652 0.950 . S
C3648 C3657 1.390 . S
C3649 C3648 1.387 . S
C3649 C3651 1.387 . S
H3650 C3657 0.950 . S
C3651 C3649 1.387 . S
C3651 C3653 1.390 . S
C3651 H3655 0.950 . S
H3652 C3648 0.950 . S
C3653 C3651 1.390 . S
C3653 C3654 1.387 . S
C3653 H3656 0.950 . S
C3654 C3653 1.387 . S
C3654 C3657 1.387 . S
H3655 C3651 0.950 . S
H3656 C3653 0.950 . S
C3657 C3648 1.390 . S
C3657 H3650 0.950 . S
C3657 C3654 1.387 . S
C3658 C3659 1.387 . S
C3658 H3662 0.950 . S
C3658 C3667 1.390 . S
C3659 C3658 1.387 . S
C3659 C3661 1.387 . S
H3660 C3667 0.950 . S
C3661 C3659 1.387 . S
C3661 C3663 1.390 . S
C3661 H3665 0.950 . S
H3662 C3658 0.950 . S
C3663 C3661 1.390 . S
C3663 C3664 1.387 . S
C3663 H3666 0.950 . S
C3664 C3663 1.387 . S
C3664 C3667 1.387 . S
H3665 C3661 0.950 . S
H3666 C3663 0.950 . S
C3667 C3658 1.390 . S
C3667 H3660 0.950 . S
C3667 C3664 1.387 . S
C3668 C3669 1.387 . S
C3668 H3672 0.950 . S
C3668 C3677 1.390 . S
C3669 C3668 1.387 . S
C3669 C3671 1.387 . S
H3670 C3677 0.950 . S
C3671 C3669 1.387 . S
C3671 C3673 1.390 . S
C3671 H3675 0.950 . S
H3672 C3668 0.950 . S
C3673 C3671 1.390 . S
C3673 C3674 1.387 . S
C3673 H3676 0.950 . S
C3674 C3673 1.387 . S
C3674 C3677 1.387 . S
H3675 C3671 0.950 . S
H3676 C3673 0.950 . S
C3677 C3668 1.390 . S
C3677 H3670 0.950 . S
C3677 C3674 1.387 . S
C3678 C3679 1.387 . S
C3678 H3682 0.950 . S
C3678 C3687 1.390 . S
C3679 C3678 1.387 . S
C3679 C3681 1.387 . S
H3680 C3687 0.950 . S
C3681 C3679 1.387 . S
C3681 C3683 1.390 . S
C3681 H3685 0.950 . S
H3682 C3678 0.950 . S
C3683 C3681 1.390 . S
C3683 C3684 1.387 . S
C3683 H3686 0.950 . S
C3684 C3683 1.387 . S
C3684 C3687 1.387 . S
H3685 C3681 0.950 . S
H3686 C3683 0.950 . S
C3687 C3678 1.390 . S
C3687 H3680 0.950 . S
C3687 C3684 1.387 . S
C3688 C3689 1.387 . S
C3688 H3692 0.950 . S
C3688 C3697 1.390 . S
C3689 C3688 1.387 . S
C3689 C3691 1.387 . S
H3690 C3697 0.950 . S
C3691 C3689 1.387 . S
C3691 C3693 1.390 . S
C3691 H3695 0.950 . S
H3692 C3688 0.950 . S
C3693 C3691 1.390 . S
C3693 C3694 1.387 . S
C3693 H3696 0.950 . S
C3694 C3693 1.387 . S
C3694 C3697 1.387 . S
H3695 C3691 0.950 . S
H3696 C3693 0.950 . S
C3697 C3688 1.390 . S
C3697 H3690 0.950 . S
C3697 C3694 1.387 . S
C3698 C3699 1.387 . S
C3698 H3702 0.950 . S
C3698 C3707 1.390 . S
C3699 C3698 1.387 . S
C3699 C3701 1.387 . S
H3700 C3707 0.950 . S
C3701 C3699 1.387 . S
C3701 C3703 1.390 . S
C3701 H3705 0.950 . S
H3702 C3698 0.950 . S
C3703 C3701 1.390 . S
C3703 C3704 1.387 . S
C3703 H3706 0.950 . S
C3704 C3703 1.387 . S
C3704 C3707 1.387 . S
H3705 C3701 0.950 . S
H3706 C3703 0.950 . S
C3707 C3698 1.390 . S
C3707 H3700 0.950 . S
C3707 C3704 1.387 . S
C3708 C3709 1.387 . S
C3708 H3712 0.950 . S
C3708 C3717 1.390 . S
C3709 C3708 1.387 . S
C3709 C3711 1.387 . S
H3710 C3717 0.950 . S
C3711 C3709 1.387 . S
C3711 C3713 1.390 . S
C3711 H3715 0.950 . S
H3712 C3708 0.950 . S
C3713 C3711 1.390 . S
C3713 C3714 1.387 . S
C3713 H3716 0.950 . S
C3714 C3713 1.387 . S
C3714 C3717 1.387 . S
H3715 C3711 0.950 . S
H3716 C3713 0.950 . S
C3717 C3708 1.390 . S
C3717 H3710 0.950 . S
C3717 C3714 1.387 . S
C3718 C3719 1.387 . S
C3718 H3722 0.950 . S
C3718 C3727 1.390 . S
C3719 C3718 1.387 . S
C3719 C3721 1.387 . S
H3720 C3727 0.950 . S
C3721 C3719 1.387 . S
C3721 C3723 1.390 . S
C3721 H3725 0.950 . S
H3722 C3718 0.950 . S
C3723 C3721 1.390 . S
C3723 C3724 1.387 . S
C3723 H3726 0.950 . S
C3724 C3723 1.387 . S
C3724 C3727 1.387 . S
H3725 C3721 0.950 . S
H3726 C3723 0.950 . S
C3727 C3718 1.390 . S
C3727 H3720 0.950 . S
C3727 C3724 1.387 . S
C3728 C3729 1.387 . S
C3728 H3732 0.950 . S
C3728 C3737 1.390 . S
C3729 C3728 1.387 . S
C3729 C3731 1.387 . S
H3730 C3737 0.950 . S
C3731 C3729 1.387 . S
C3731 C3733 1.390 . S
C3731 H3735 0.950 . S
H3732 C3728 0.950 . S
C3733 C3731 1.390 . S
C3733 C3734 1.387 . S
C3733 H3736 0.950 . S
C3734 C3733 1.387 . S
C3734 C3737 1.387 . S
H3735 C3731 0.950 . S
H3736 C3733 0.950 . S
C3737 C3728 1.390 . S
C3737 H3730 0.950 . S
C3737 C3734 1.387 . S
C3738 C3739 1.387 . S
C3738 H3742 0.950 . S
C3738 C3747 1.390 . S
C3739 C3738 1.387 . S
C3739 C3741 1.387 . S
H3740 C3747 0.950 . S
C3741 C3739 1.387 . S
C3741 C3743 1.390 . S
C3741 H3745 0.950 . S
H3742 C3738 0.950 . S
C3743 C3741 1.390 . S
C3743 C3744 1.387 . S
C3743 H3746 0.950 . S
C3744 C3743 1.387 . S
C3744 C3747 1.387 . S
H3745 C3741 0.950 . S
H3746 C3743 0.950 . S
C3747 C3738 1.390 . S
C3747 H3740 0.950 . S
C3747 C3744 1.387 . S
C3748 C3749 1.387 . S
C3748 H3752 0.950 . S
C3748 C3757 1.390 . S
C3749 C3748 1.387 . S
C3749 C3751 1.387 . S
H3750 C3757 0.950 . S
C3751 C3749 1.387 . S
C3751 C3753 1.390 . S
C3751 H3755 0.950 . S
H3752 C3748 0.950 . S
C3753 C3751 1.390 . S
C3753 C3754 1.387 . S
C3753 H3756 0.950 . S
C3754 C3753 1.387 . S
C3754 C3757 1.387 . S
H3755 C3751 0.950 . S
H3756 C3753 0.950 . S
C3757 C3748 1.390 . S
C3757 H3750 0.950 . S
C3757 C3754 1.387 . S
C3758 C3759 1.387 . S
C3758 H3762 0.950 . S
C3758 C3767 1.390 . S
C3759 C3758 1.387 . S
C3759 C3761 1.387 . S
H3760 C3767 0.950 . S
C3761 C3759 1.387 . S
C3761 C3763 1.390 . S
C3761 H3765 0.950 . S
H3762 C3758 0.950 . S
C3763 C3761 1.390 . S
C3763 C3764 1.387 . S
C3763 H3766 0.950 . S
C3764 C3763 1.387 . S
C3764 C3767 1.387 . S
H3765 C3761 0.950 . S
H3766 C3763 0.950 . S
C3767 C3758 1.390 . S
C3767 H3760 0.950 . S
C3767 C3764 1.387 . S
C3768 C3769 1.387 . S
C3768 H3772 0.950 . S
C3768 C3777 1.390 . S
C3769 C3768 1.387 . S
C3769 C3771 1.387 . S
H3770 C3777 0.950 . S
C3771 C3769 1.387 . S
C3771 C3773 1.390 . S
C3771 H3775 0.950 . S
H3772 C3768 0.950 . S
C3773 C3771 1.390 . S
C3773 C3774 1.387 . S
C3773 H3776 0.950 . S
C3774 C3773 1.387 . S
C3774 C3777 1.387 . S
H3775 C3771 0.950 . S
H3776 C3773 0.950 . S
C3777 C3768 1.390 . S
C3777 H3770 0.950 . S
C3777 C3774 1.387 . S
C3778 C3779 1.387 . S
C3778 H3782 0.950 . S
C3778 C3787 1.390 . S
C3779 C3778 1.387 . S
C3779 C3781 1.387 . S
H3780 C3787 0.950 . S
C3781 C3779 1.387 . S
C3781 C3783 1.390 . S
C3781 H3785 0.950 . S
H3782 C3778 0.950 . S
C3783 C3781 1.390 . S
C3783 C3784 1.387 . S
C3783 H3786 0.950 . S
C3784 C3783 1.387 . S
C3784 C3787 1.387 . S
H3785 C3781 0.950 . S
H3786 C3783 0.950 . S
C3787 C3778 1.390 . S
C3787 H3780 0.950 . S
C3787 C3784 1.387 . S
C3788 C3789 1.387 . S
C3788 H3792 0.950 . S
C3788 C3797 1.390 . S
C3789 C3788 1.387 . S
C3789 C3791 1.387 . S
H3790 C3797 0.950 . S
C3791 C3789 1.387 . S
C3791 C3793 1.390 . S
C3791 H3795 0.950 . S
H3792 C3788 0.950 . S
C3793 C3791 1.390 . S
C3793 C3794 1.387 . S
C3793 H3796 0.950 . S
C3794 C3793 1.387 . S
C3794 C3797 1.387 . S
H3795 C3791 0.950 . S
H3796 C3793 0.950 . S
C3797 C3788 1.390 . S
C3797 H3790 0.950 . S
C3797 C3794 1.387 . S
C3798 C3799 1.387 . S
C3798 H3802 0.950 . S
C3798 C3807 1.390 . S
C3799 C3798 1.387 . S
C3799 C3801 1.387 . S
H3800 C3807 0.950 . S
C3801 C3799 1.387 . S
C3801 C3803 1.390 . S
C3801 H3805 0.950 . S
H3802 C3798 0.950 . S
C3803 C3801 1.390 . S
C3803 C3804 1.387 . S
C3803 H3806 0.950 . S
C3804 C3803 1.387 . S
C3804 C3807 1.387 . S
H3805 C3801 0.950 . S
H3806 C3803 0.950 . S
C3807 C3798 1.390 . S
C3807 H3800 0.950 . S
C3807 C3804 1.387 . S
C3808 C3809 1.387 . S
C3808 H3812 0.950 . S
C3808 C3817 1.390 . S
C3809 C3808 1.387 . S
C3809 C3811 1.387 . S
H3810 C3817 0.950 . S
C3811 C3809 1.387 . S
C3811 C3813 1.390 . S
C3811 H3815 0.950 . S
H3812 C3808 0.950 . S
C3813 C3811 1.390 . S
C3813 C3814 1.387 . S
C3813 H3816 0.950 . S
C3814 C3813 1.387 . S
C3814 C3817 1.387 . S
H3815 C3811 0.950 . S
H3816 C3813 0.950 . S
C3817 C3808 1.390 . S
C3817 H3810 0.950 . S
C3817 C3814 1.387 . S
C3818 C3819 1.387 . S
C3818 H3822 0.950 . S
C3818 C3827 1.390 . S
C3819 C3818 1.387 . S
C3819 C3821 1.387 . S
H3820 C3827 0.950 . S
C3821 C3819 1.387 . S
C3821 C3823 1.390 . S
C3821 H3825 0.950 . S
H3822 C3818 0.950 . S
C3823 C3821 1.390 . S
C3823 C3824 1.387 . S
C3823 H3826 0.950 . S
C3824 C3823 1.387 . S
C3824 C3827 1.387 . S
H3825 C3821 0.950 . S
H3826 C3823 0.950 . S
C3827 C3818 1.390 . S
C3827 H3820 0.950 . S
C3827 C3824 1.387 . S
C3828 C3829 1.387 . S
C3828 H3832 0.950 . S
C3828 C3837 1.390 . S
C3829 C3828 1.387 . S
C3829 C3831 1.387 . S
H3830 C3837 0.950 . S
C3831 C3829 1.387 . S
C3831 C3833 1.390 . S
C3831 H3835 0.950 . S
H3832 C3828 0.950 . S
C3833 C3831 1.390 . S
C3833 C3834 1.387 . S
C3833 H3836 0.950 . S
C3834 C3833 1.387 . S
C3834 C3837 1.387 . S
H3835 C3831 0.950 . S
H3836 C3833 0.950 . S
C3837 C3828 1.390 . S
C3837 H3830 0.950 . S
C3837 C3834 1.387 . S
C3838 C3839 1.387 . S
C3838 H3842 0.950 . S
C3838 C3847 1.390 . S
C3839 C3838 1.387 . S
C3839 C3841 1.387 . S
H3840 C3847 0.950 . S
C3841 C3839 1.387 . S
C3841 C3843 1.390 . S
C3841 H3845 0.950 . S
H3842 C3838 0.950 . S
C3843 C3841 1.390 . S
C3843 C3844 1.387 . S
C3843 H3846 0.950 . S
C3844 C3843 1.387 . S
C3844 C3847 1.387 . S
H3845 C3841 0.950 . S
H3846 C3843 0.950 . S
C3847 C3838 1.390 . S
C3847 H3840 0.950 . S
C3847 C3844 1.387 . S
C3848 C3849 1.387 . S
C3848 H3852 0.950 . S
C3848 C3857 1.390 . S
C3849 C3848 1.387 . S
C3849 C3851 1.387 . S
H3850 C3857 0.950 . S
C3851 C3849 1.387 . S
C3851 C3853 1.390 . S
C3851 H3855 0.950 . S
H3852 C3848 0.950 . S
C3853 C3851 1.390 . S
C3853 C3854 1.387 . S
C3853 H3856 0.950 . S
C3854 C3853 1.387 . S
C3854 C3857 1.387 . S
H3855 C3851 0.950 . S
H3856 C3853 0.950 . S
C3857 C3848 1.390 . S
C3857 H3850 0.950 . S
C3857 C3854 1.387 . S
C3858 C3859 1.387 . S
C3858 H3862 0.950 . S
C3858 C3867 1.390 . S
C3859 C3858 1.387 . S
C3859 C3861 1.387 . S
H3860 C3867 0.950 . S
C3861 C3859 1.387 . S
C3861 C3863 1.390 . S
C3861 H3865 0.950 . S
H3862 C3858 0.950 . S
C3863 C3861 1.390 . S
C3863 C3864 1.387 . S
C3863 H3866 0.950 . S
C3864 C3863 1.387 . S
C3864 C3867 1.387 . S
H3865 C3861 0.950 . S
H3866 C3863 0.950 . S
C3867 C3858 1.390 . S
C3867 H3860 0.950 . S
C3867 C3864 1.387 . S
C3868 C3869 1.387 . S
C3868 H3872 0.950 . S
C3868 C3877 1.390 . S
C3869 C3868 1.387 . S
C3869 C3871 1.387 . S
H3870 C3877 0.950 . S
C3871 C3869 1.387 . S
C3871 C3873 1.390 . S
C3871 H3875 0.950 . S
H3872 C3868 0.950 . S
C3873 C3871 1.390 . S
C3873 C3874 1.387 . S
C3873 H3876 0.950 . S
C3874 C3873 1.387 . S
C3874 C3877 1.387 . S
H3875 C3871 0.950 . S
H3876 C3873 0.950 . S
C3877 C3868 1.390 . S
C3877 H3870 0.950 . S
C3877 C3874 1.387 . S
C3878 C3879 1.387 . S
C3878 H3882 0.950 . S
C3878 C3887 1.390 . S
C3879 C3878 1.387 . S
C3879 C3881 1.387 . S
H3880 C3887 0.950 . S
C3881 C3879 1.387 . S
C3881 C3883 1.390 . S
C3881 H3885 0.950 . S
H3882 C3878 0.950 . S
C3883 C3881 1.390 . S
C3883 C3884 1.387 . S
C3883 H3886 0.950 . S
C3884 C3883 1.387 . S
C3884 C3887 1.387 . S
H3885 C3881 0.950 . S
H3886 C3883 0.950 . S
C3887 C3878 1.390 . S
C3887 H3880 0.950 . S
C3887 C3884 1.387 . S
C3888 C3889 1.387 . S
C3888 H3892 0.950 . S
C3888 C3897 1.390 . S
C3889 C3888 1.387 . S
C3889 C3891 1.387 . S
H3890 C3897 0.950 . S
C3891 C3889 1.387 . S
C3891 C3893 1.390 . S
C3891 H3895 0.950 . S
H3892 C3888 0.950 . S
C3893 C3891 1.390 . S
C3893 C3894 1.387 . S
C3893 H3896 0.950 . S
C3894 C3893 1.387 . S
C3894 C3897 1.387 . S
H3895 C3891 0.950 . S
H3896 C3893 0.950 . S
C3897 C3888 1.390 . S
C3897 H3890 0.950 . S
C3897 C3894 1.387 . S
C3898 C3899 1.387 . S
C3898 H3902 0.950 . S
C3898 C3907 1.390 . S
C3899 C3898 1.387 . S
C3899 C3901 1.387 . S
H3900 C3907 0.950 . S
C3901 C3899 1.387 . S
C3901 C3903 1.390 . S
C3901 H3905 0.950 . S
H3902 C3898 0.950 . S
C3903 C3901 1.390 . S
C3903 C3904 1.387 . S
C3903 H3906 0.950 . S
C3904 C3903 1.387 . S
C3904 C3907 1.387 . S
H3905 C3901 0.950 . S
H3906 C3903 0.950 . S
C3907 C3898 1.390 . S
C3907 H3900 0.950 . S
C3907 C3904 1.387 . S
C3908 C3909 1.387 . S
C3908 H3912 0.950 . S
C3908 C3917 1.390 . S
C3909 C3908 1.387 . S
C3909 C3911 1.387 . S
H3910 C3917 0.950 . S
C3911 C3909 1.387 . S
C3911 C3913 1.390 . S
C3911 H3915 0.950 . S
H3912 C3908 0.950 . S
C3913 C3911 1.390 . S
C3913 C3914 1.387 . S
C3913 H3916 0.950 . S
C3914 C3913 1.387 . S
C3914 C3917 1.387 . S
H3915 C3911 0.950 . S
H3916 C3913 0.950 . S
C3917 C3908 1.390 . S
C3917 H3910 0.950 . S
C3917 C3914 1.387 . S
C3918 C3919 1.387 . S
C3918 H3922 0.950 . S
C3918 C3927 1.390 . S
C3919 C3918 1.387 . S
C3919 C3921 1.387 . S
H3920 C3927 0.950 . S
C3921 C3919 1.387 . S
C3921 C3923 1.390 . S
C3921 H3925 0.950 . S
H3922 C3918 0.950 . S
C3923 C3921 1.390 . S
C3923 C3924 1.387 . S
C3923 H3926 0.950 . S
C3924 C3923 1.387 . S
C3924 C3927 1.387 . S
H3925 C3921 0.950 . S
H3926 C3923 0.950 . S
C3927 C3918 1.390 . S
C3927 H3920 0.950 . S
C3927 C3924 1.387 . S
C3928 C3929 1.387 . S
C3928 H3932 0.950 . S
C3928 C3937 1.390 . S
C3929 C3928 1.387 . S
C3929 C3931 1.387 . S
H3930 C3937 0.950 . S
C3931 C3929 1.387 . S
C3931 C3933 1.390 . S
C3931 H3935 0.950 . S
H3932 C3928 0.950 . S
C3933 C3931 1.390 . S
C3933 C3934 1.387 . S
C3933 H3936 0.950 . S
C3934 C3933 1.387 . S
C3934 C3937 1.387 . S
H3935 C3931 0.950 . S
H3936 C3933 0.950 . S
C3937 C3928 1.390 . S
C3937 H3930 0.950 . S
C3937 C3934 1.387 . S
C3938 C3939 1.387 . S
C3938 H3942 0.950 . S
C3938 C3947 1.390 . S
C3939 C3938 1.387 . S
C3939 C3941 1.387 . S
H3940 C3947 0.950 . S
C3941 C3939 1.387 . S
C3941 C3943 1.390 . S
C3941 H3945 0.950 . S
H3942 C3938 0.950 . S
C3943 C3941 1.390 . S
C3943 C3944 1.387 . S
C3943 H3946 0.950 . S
C3944 C3943 1.387 . S
C3944 C3947 1.387 . S
H3945 C3941 0.950 . S
H3946 C3943 0.950 . S
C3947 C3938 1.390 . S
C3947 H3940 0.950 . S
C3947 C3944 1.387 . S
C3948 C3949 1.387 . S
C3948 H3952 0.950 . S
C3948 C3957 1.390 . S
C3949 C3948 1.387 . S
C3949 C3951 1.387 . S
H3950 C3957 0.950 . S
C3951 C3949 1.387 . S
C3951 C3953 1.390 . S
C3951 H3955 0.950 . S
H3952 C3948 0.950 . S
C3953 C3951 1.390 . S
C3953 C3954 1.387 . S
C3953 H3956 0.950 . S
C3954 C3953 1.387 . S
C3954 C3957 1.387 . S
H3955 C3951 0.950 . S
H3956 C3953 0.950 . S
C3957 C3948 1.390 . S
C3957 H3950 0.950 . S
C3957 C3954 1.387 . S
C3958 C3959 1.387 . S
C3958 H3962 0.950 . S
C3958 C3967 1.390 . S
C3959 C3958 1.387 . S
C3959 C3961 1.387 . S
H3960 C3967 0.950 . S
C3961 C3959 1.387 . S
C3961 C3963 1.390 . S
C3961 H3965 0.950 . S
H3962 C3958 0.950 . S
C3963 C3961 1.390 . S
C3963 C3964 1.387 . S
C3963 H3966 0.950 . S
C3964 C3963 1.387 . S
C3964 C3967 1.387 . S
H3965 C3961 0.950 . S
H3966 C3963 0.950 . S
C3967 C3958 1.390 . S
C3967 H3960 0.950 . S
C3967 C3964 1.387 . S
C3968 C3969 1.387 . S
C3968 H3972 0.950 . S
C3968 C3977 1.390 . S
C3969 C3968 1.387 . S
C3969 C3971 1.387 . S
H3970 C3977 0.950 . S
C3971 C3969 1.387 . S
C3971 C3973 1.390 . S
C3971 H3975 0.950 . S
H3972 C3968 0.950 . S
C3973 C3971 1.390 . S
C3973 C3974 1.387 . S
C3973 H3976 0.950 . S
C3974 C3973 1.387 . S
C3974 C3977 1.387 . S
H3975 C3971 0.950 . S
H3976 C3973 0.950 . S
C3977 C3968 1.390 . S
C3977 H3970 0.950 . S
C3977 C3974 1.387 . S
C3978 C3979 1.387 . S
C3978 H3982 0.950 . S
C3978 C3987 1.390 . S
C3979 C3978 1.387 . S
C3979 C3981 1.387 . S
H3980 C3987 0.950 . S
C3981 C3979 1.387 . S
C3981 C3983 1.390 . S
C3981 H3985 0.950 . S
H3982 C3978 0.950 . S
C3983 C3981 1.390 . S
C3983 C3984 1.387 . S
C3983 H3986 0.950 . S
C3984 C3983 1.387 . S
C3984 C3987 1.387 . S
H3985 C3981 0.950 . S
H3986 C3983 0.950 . S
C3987 C3978 1.390 . S
C3987 H3980 0.950 . S
C3987 C3984 1.387 . S
C3988 C3989 1.387 . S
C3988 H3992 0.950 . S
C3988 C3997 1.390 . S
C3989 C3988 1.387 . S
C3989 C3991 1.387 . S
H3990 C3997 0.950 . S
C3991 C3989 1.387 . S
C3991 C3993 1.390 . S
C3991 H3995 0.950 . S
H3992 C3988 0.950 . S
C3993 C3991 1.390 . S
C3993 C3994 1.387 . S
C3993 H3996 0.950 . S
C3994 C3993 1.387 . S
C3994 C3997 1.387 . S
H3995 C3991 0.950 . S
H3996 C3993 0.950 . S
C3997 C3988 1.390 . S
C3997 H3990 0.950 . S
C3997 C3994 1.387 . S
C3998 C3999 1.387 . S
C3998 H4002 0.950 . S
C3998 C4007 1.390 . S
C3999 C3998 1.387 . S
C3999 C4001 1.387 . S
H4000 C4007 0.950 . S
C4001 C3999 1.387 . S
C4001 C4003 1.390 . S
C4001 H4005 0.950 . S
H4002 C3998 0.950 . S
C4003 C4001 1.390 . S
C4003 C4004 1.387 . S
C4003 H4006 0.950 . S
C4004 C4003 1.387 . S
C4004 C4007 1.387 . S
H4005 C4001 0.950 . S
H4006 C4003 0.950 . S
C4007 C3998 1.390 . S
C4007 H4000 0.950 . S
C4007 C4004 1.387 . S
C4008 C4009 1.387 . S
C4008 H4012 0.950 . S
C4008 C4017 1.390 . S
C4009 C4008 1.387 . S
C4009 C4011 1.387 . S
H4010 C4017 0.950 . S
C4011 C4009 1.387 . S
C4011 C4013 1.390 . S
C4011 H4015 0.950 . S
H4012 C4008 0.950 . S
C4013 C4011 1.390 . S
C4013 C4014 1.387 . S
C4013 H4016 0.950 . S
C4014 C4013 1.387 . S
C4014 C4017 1.387 . S
H4015 C4011 0.950 . S
H4016 C4013 0.950 . S
C4017 C4008 1.390 . S
C4017 H4010 0.950 . S
C4017 C4014 1.387 . S
C4018 C4019 1.387 . S
C4018 H4022 0.950 . S
C4018 C4027 1.390 . S
C4019 C4018 1.387 . S
C4019 C4021 1.387 . S
H4020 C4027 0.950 . S
C4021 C4019 1.387 . S
C4021 C4023 1.390 . S
C4021 H4025 0.950 . S
H4022 C4018 0.950 . S
C4023 C4021 1.390 . S
C4023 C4024 1.387 . S
C4023 H4026 0.950 . S
C4024 C4023 1.387 . S
C4024 C4027 1.387 . S
H4025 C4021 0.950 . S
H4026 C4023 0.950 . S
C4027 C4018 1.390 . S
C4027 H4020 0.950 . S
C4027 C4024 1.387 . S
C4028 C4029 1.387 . S
C4028 H4032 0.950 . S
C4028 C4037 1.390 . S
C4029 C4028 1.387 . S
C4029 C4031 1.387 . S
H4030 C4037 0.950 . S
C4031 C4029 1.387 . S
C4031 C4033 1.390 . S
C4031 H4035 0.950 . S
H4032 C4028 0.950 . S
C4033 C4031 1.390 . S
C4033 C4034 1.387 . S
C4033 H4036 0.950 . S
C4034 C4033 1.387 . S
C4034 C4037 1.387 . S
H4035 C4031 0.950 . S
H4036 C4033 0.950 . S
C4037 C4028 1.390 . S
C4037 H4030 0.950 . S
C4037 C4034 1.387 . S
C4038 C4039 1.387 . S
C4038 H4042 0.950 . S
C4038 C4047 1.390 . S
C4039 C4038 1.387 . S
C4039 C4041 1.387 . S
H4040 C4047 0.950 . S
C4041 C4039 1.387 . S
C4041 C4043 1.390 . S
C4041 H4045 0.950 . S
H4042 C4038 0.950 . S
C4043 C4041 1.390 . S
C4043 C4044 1.387 . S
C4043 H4046 0.950 . S
C4044 C4043 1.387 . S
C4044 C4047 1.387 . S
H4045 C4041 0.950 . S
H4046 C4043 0.950 . S
C4047 C4038 1.390 . S
C4047 H4040 0.950 . S
C4047 C4044 1.387 . S
C4048 C4049 1.387 . S
C4048 H4052 0.950 . S
C4048 C4057 1.390 . S
C4049 C4048 1.387 . S
C4049 C4051 1.387 . S
H4050 C4057 0.950 . S
C4051 C4049 1.387 . S
C4051 C4053 1.390 . S
C4051 H4055 0.950 . S
H4052 C4048 0.950 . S
C4053 C4051 1.390 . S
C4053 C4054 1.387 . S
C4053 H4056 0.950 . S
C4054 C4053 1.387 . S
C4054 C4057 1.387 . S
H4055 C4051 0.950 . S
H4056 C4053 0.950 . S
C4057 C4048 1.390 . S
C4057 H4050 0.950 . S
C4057 C4054 1.387 . S
C4058 C4059 1.387 . S
C4058 H4062 0.950 . S
C4058 C4067 1.390 . S
C4059 C4058 1.387 . S
C4059 C4061 1.387 . S
H4060 C4067 0.950 . S
C4061 C4059 1.387 . S
C4061 C4063 1.390 . S
C4061 H4065 0.950 . S
H4062 C4058 0.950 . S
C4063 C4061 1.390 . S
C4063 C4064 1.387 . S
C4063 H4066 0.950 . S
C4064 C4063 1.387 . S
C4064 C4067 1.387 . S
H4065 C4061 0.950 . S
H4066 C4063 0.950 . S
C4067 C4058 1.390 . S
C4067 H4060 0.950 . S
C4067 C4064 1.387 . S
C4068 C4069 1.387 . S
C4068 H4072 0.950 . S
C4068 C4077 1.390 . S
C4069 C4068 1.387 . S
C4069 C4071 1.387 . S
H4070 C4077 0.950 . S
C4071 C4069 1.387 . S
C4071 C4073 1.390 . S
C4071 H4075 0.950 . S
H4072 C4068 0.950 . S
C4073 C4071 1.390 . S
C4073 C4074 1.387 . S
C4073 H4076 0.950 . S
C4074 C4073 1.387 . S
C4074 C4077 1.387 . S
H4075 C4071 0.950 . S
H4076 C4073 0.950 . S
C4077 C4068 1.390 . S
C4077 H4070 0.950 . S
C4077 C4074 1.387 . S
C4078 C4079 1.387 . S
C4078 H4082 0.950 . S
C4078 C4087 1.390 . S
C4079 C4078 1.387 . S
C4079 C4081 1.387 . S
H4080 C4087 0.950 . S
C4081 C4079 1.387 . S
C4081 C4083 1.390 . S
C4081 H4085 0.950 . S
H4082 C4078 0.950 . S
C4083 C4081 1.390 . S
C4083 C4084 1.387 . S
C4083 H4086 0.950 . S
C4084 C4083 1.387 . S
C4084 C4087 1.387 . S
H4085 C4081 0.950 . S
H4086 C4083 0.950 . S
C4087 C4078 1.390 . S
C4087 H4080 0.950 . S
C4087 C4084 1.387 . S
C4088 C4089 1.387 . S
C4088 H4092 0.950 . S
C4088 C4097 1.390 . S
C4089 C4088 1.387 . S
C4089 C4091 1.387 . S
H4090 C4097 0.950 . S
C4091 C4089 1.387 . S
C4091 C4093 1.390 . S
C4091 H4095 0.950 . S
H4092 C4088 0.950 . S
C4093 C4091 1.390 . S
C4093 C4094 1.387 . S
C4093 H4096 0.950 . S
C4094 C4093 1.387 . S
C4094 C4097 1.387 . S
H4095 C4091 0.950 . S
H4096 C4093 0.950 . S
C4097 C4088 1.390 . S
C4097 H4090 0.950 . S
C4097 C4094 1.387 . S
C4098 C4099 1.387 . S
C4098 H4102 0.950 . S
C4098 C4107 1.390 . S
C4099 C4098 1.387 . S
C4099 C4101 1.387 . S
H4100 C4107 0.950 . S
C4101 C4099 1.387 . S
C4101 C4103 1.390 . S
C4101 H4105 0.950 . S
H4102 C4098 0.950 . S
C4103 C4101 1.390 . S
C4103 C4104 1.387 . S
C4103 H4106 0.950 . S
C4104 C4103 1.387 . S
C4104 C4107 1.387 . S
H4105 C4101 0.950 . S
H4106 C4103 0.950 . S
C4107 C4098 1.390 . S
C4107 H4100 0.950 . S
C4107 C4104 1.387 . S
C4108 C4109 1.387 . S
C4108 H4112 0.950 . S
C4108 C4117 1.390 . S
C4109 C4108 1.387 . S
C4109 C4111 1.387 . S
H4110 C4117 0.950 . S
C4111 C4109 1.387 . S
C4111 C4113 1.390 . S
C4111 H4115 0.950 . S
H4112 C4108 0.950 . S
C4113 C4111 1.390 . S
C4113 C4114 1.387 . S
C4113 H4116 0.950 . S
C4114 C4113 1.387 . S
C4114 C4117 1.387 . S
H4115 C4111 0.950 . S
H4116 C4113 0.950 . S
C4117 C4108 1.390 . S
C4117 H4110 0.950 . S
C4117 C4114 1.387 . S
C4118 C4119 1.387 . S
C4118 H4122 0.950 . S
C4118 C4127 1.390 . S
C4119 C4118 1.387 . S
C4119 C4121 1.387 . S
H4120 C4127 0.950 . S
C4121 C4119 1.387 . S
C4121 C4123 1.390 . S
C4121 H4125 0.950 . S
H4122 C4118 0.950 . S
C4123 C4121 1.390 . S
C4123 C4124 1.387 . S
C4123 H4126 0.950 . S
C4124 C4123 1.387 . S
C4124 C4127 1.387 . S
H4125 C4121 0.950 . S
H4126 C4123 0.950 . S
C4127 C4118 1.390 . S
C4127 H4120 0.950 . S
C4127 C4124 1.387 . S
C4128 C4129 1.387 . S
C4128 H4132 0.950 . S
C4128 C4137 1.390 . S
C4129 C4128 1.387 . S
C4129 C4131 1.387 . S
H4130 C4137 0.950 . S
C4131 C4129 1.387 . S
C4131 C4133 1.390 . S
C4131 H4135 0.950 . S
H4132 C4128 0.950 . S
C4133 C4131 1.390 . S
C4133 C4134 1.387 . S
C4133 H4136 0.950 . S
C4134 C4133 1.387 . S
C4134 C4137 1.387 . S
H4135 C4131 0.950 . S
H4136 C4133 0.950 . S
C4137 C4128 1.390 . S
C4137 H4130 0.950 . S
C4137 C4134 1.387 . S
C4138 C4139 1.387 . S
C4138 H4142 0.950 . S
C4138 C4147 1.390 . S
C4139 C4138 1.387 . S
C4139 C4141 1.387 . S
H4140 C4147 0.950 . S
C4141 C4139 1.387 . S
C4141 C4143 1.390 . S
C4141 H4145 0.950 . S
H4142 C4138 0.950 . S
C4143 C4141 1.390 . S
C4143 C4144 1.387 . S
C4143 H4146 0.950 . S
C4144 C4143 1.387 . S
C4144 C4147 1.387 . S
H4145 C4141 0.950 . S
H4146 C4143 0.950 . S
C4147 C4138 1.390 . S
C4147 H4140 0.950 . S
C4147 C4144 1.387 . S
C4148 C4149 1.387 . S
C4148 H4152 0.950 . S
C4148 C4157 1.390 . S
C4149 C4148 1.387 . S
C4149 C4151 1.387 . S
H4150 C4157 0.950 . S
C4151 C4149 1.387 . S
C4151 C4153 1.390 . S
C4151 H4155 0.950 . S
H4152 C4148 0.950 . S
C4153 C4151 1.390 . S
C4153 C4154 1.387 . S
C4153 H4156 0.950 . S
C4154 C4153 1.387 . S
C4154 C4157 1.387 . S
H4155 C4151 0.950 . S
H4156 C4153 0.950 . S
C4157 C4148 1.390 . S
C4157 H4150 0.950 . S
C4157 C4154 1.387 . S
C4158 C4159 1.387 . S
C4158 H4162 0.950 . S
C4158 C4167 1.390 . S
C4159 C4158 1.387 . S
C4159 C4161 1.387 . S
H4160 C4167 0.950 . S
C4161 C4159 1.387 . S
C4161 C4163 1.390 . S
C4161 H4165 0.950 . S
H4162 C4158 0.950 . S
C4163 C4161 1.390 . S
C4163 C4164 1.387 . S
C4163 H4166 0.950 . S
C4164 C4163 1.387 . S
C4164 C4167 1.387 . S
H4165 C4161 0.950 . S
H4166 C4163 0.950 . S
C4167 C4158 1.390 . S
C4167 H4160 0.950 . S
C4167 C4164 1.387 . S
C4168 C4169 1.387 . S
C4168 H4172 0.950 . S
C4168 C4177 1.390 . S
C4169 C4168 1.387 . S
C4169 C4171 1.387 . S
H4170 C4177 0.950 . S
C4171 C4169 1.387 . S
C4171 C4173 1.390 . S
C4171 H4175 0.950 . S
H4172 C4168 0.950 . S
C4173 C4171 1.390 . S
C4173 C4174 1.387 . S
C4173 H4176 0.950 . S
C4174 C4173 1.387 . S
C4174 C4177 1.387 . S
H4175 C4171 0.950 . S
H4176 C4173 0.950 . S
C4177 C4168 1.390 . S
C4177 H4170 0.950 . S
C4177 C4174 1.387 . S
C4178 C4179 1.387 . S
C4178 H4182 0.950 . S
C4178 C4187 1.390 . S
C4179 C4178 1.387 . S
C4179 C4181 1.387 . S
H4180 C4187 0.950 . S
C4181 C4179 1.387 . S
C4181 C4183 1.390 . S
C4181 H4185 0.950 . S
H4182 C4178 0.950 . S
C4183 C4181 1.390 . S
C4183 C4184 1.387 . S
C4183 H4186 0.950 . S
C4184 C4183 1.387 . S
C4184 C4187 1.387 . S
H4185 C4181 0.950 . S
H4186 C4183 0.950 . S
C4187 C4178 1.390 . S
C4187 H4180 0.950 . S
C4187 C4184 1.387 . S
C4188 C4189 1.387 . S
C4188 H4192 0.950 . S
C4188 C4197 1.390 . S
C4189 C4188 1.387 . S
C4189 C4191 1.387 . S
H4190 C4197 0.950 . S
C4191 C4189 1.387 . S
C4191 C4193 1.390 . S
C4191 H4195 0.950 . S
H4192 C4188 0.950 . S
C4193 C4191 1.390 . S
C4193 C4194 1.387 . S
C4193 H4196 0.950 . S
C4194 C4193 1.387 . S
C4194 C4197 1.387 . S
H4195 C4191 0.950 . S
H4196 C4193 0.950 . S
C4197 C4188 1.390 . S
C4197 H4190 0.950 . S
C4197 C4194 1.387 . S
C4198 C4199 1.387 . S
C4198 H4202 0.950 . S
C4198 C4207 1.390 . S
C4199 C4198 1.387 . S
C4199 C4201 1.387 . S
H4200 C4207 0.950 . S
C4201 C4199 1.387 . S
C4201 C4203 1.390 . S
C4201 H4205 0.950 . S
H4202 C4198 0.950 . S
C4203 C4201 1.390 . S
C4203 C4204 1.387 . S
C4203 H4206 0.950 . S
C4204 C4203 1.387 . S
C4204 C4207 1.387 . S
H4205 C4201 0.950 . S
H4206 C4203 0.950 . S
C4207 C4198 1.390 . S
C4207 H4200 0.950 . S
C4207 C4204 1.387 . S
C4208 C4209 1.387 . S
C4208 H4212 0.950 . S
C4208 C4217 1.390 . S
C4209 C4208 1.387 . S
C4209 C4211 1.387 . S
H4210 C4217 0.950 . S
C4211 C4209 1.387 . S
C4211 C4213 1.390 . S
C4211 H4215 0.950 . S
H4212 C4208 0.950 . S
C4213 C4211 1.390 . S
C4213 C4214 1.387 . S
C4213 H4216 0.950 . S
C4214 C4213 1.387 . S
C4214 C4217 1.387 . S
H4215 C4211 0.950 . S
H4216 C4213 0.950 . S
C4217 C4208 1.390 . S
C4217 H4210 0.950 . S
C4217 C4214 1.387 . S
C4218 C4219 1.387 . S
C4218 H4222 0.950 . S
C4218 C4227 1.390 . S
C4219 C4218 1.387 . S
C4219 C4221 1.387 . S
H4220 C4227 0.950 . S
C4221 C4219 1.387 . S
C4221 C4223 1.390 . S
C4221 H4225 0.950 . S
H4222 C4218 0.950 . S
C4223 C4221 1.390 . S
C4223 C4224 1.387 . S
C4223 H4226 0.950 . S
C4224 C4223 1.387 . S
C4224 C4227 1.387 . S
H4225 C4221 0.950 . S
H4226 C4223 0.950 . S
C4227 C4218 1.390 . S
C4227 H4220 0.950 . S
C4227 C4224 1.387 . S
C4228 C4229 1.387 . S
C4228 H4232 0.950 . S
C4228 C4237 1.390 . S
C4229 C4228 1.387 . S
C4229 C4231 1.387 . S
H4230 C4237 0.950 . S
C4231 C4229 1.387 . S
C4231 C4233 1.390 . S
C4231 H4235 0.950 . S
H4232 C4228 0.950 . S
C4233 C4231 1.390 . S
C4233 C4234 1.387 . S
C4233 H4236 0.950 . S
C4234 C4233 1.387 . S
C4234 C4237 1.387 . S
H4235 C4231 0.950 . S
H4236 C4233 0.950 . S
C4237 C4228 1.390 . S
C4237 H4230 0.950 . S
C4237 C4234 1.387 . S
C4238 C4239 1.387 . S
C4238 H4242 0.950 . S
C4238 C4247 1.390 . S
C4239 C4238 1.387 . S
C4239 C4241 1.387 . S
H4240 C4247 0.950 . S
C4241 C4239 1.387 . S
C4241 C4243 1.390 . S
C4241 H4245 0.950 . S
H4242 C4238 0.950 . S
C4243 C4241 1.390 . S
C4243 C4244 1.387 . S
C4243 H4246 0.950 . S
C4244 C4243 1.387 . S
C4244 C4247 1.387 . S
H4245 C4241 0.950 . S
H4246 C4243 0.950 . S
C4247 C4238 1.390 . S
C4247 H4240 0.950 . S
C4247 C4244 1.387 . S
C4248 C4249 1.387 . S
C4248 H4252 0.950 . S
C4248 C4257 1.390 . S
C4249 C4248 1.387 . S
C4249 C4251 1.387 . S
H4250 C4257 0.950 . S
C4251 C4249 1.387 . S
C4251 C4253 1.390 . S
C4251 H4255 0.950 . S
H4252 C4248 0.950 . S
C4253 C4251 1.390 . S
C4253 C4254 1.387 . S
C4253 H4256 0.950 . S
C4254 C4253 1.387 . S
C4254 C4257 1.387 . S
H4255 C4251 0.950 . S
H4256 C4253 0.950 . S
C4257 C4248 1.390 . S
C4257 H4250 0.950 . S
C4257 C4254 1.387 . S
C4258 C4259 1.387 . S
C4258 H4262 0.950 . S
C4258 C4267 1.390 . S
C4259 C4258 1.387 . S
C4259 C4261 1.387 . S
H4260 C4267 0.950 . S
C4261 C4259 1.387 . S
C4261 C4263 1.390 . S
C4261 H4265 0.950 . S
H4262 C4258 0.950 . S
C4263 C4261 1.390 . S
C4263 C4264 1.387 . S
C4263 H4266 0.950 . S
C4264 C4263 1.387 . S
C4264 C4267 1.387 . S
H4265 C4261 0.950 . S
H4266 C4263 0.950 . S
C4267 C4258 1.390 . S
C4267 H4260 0.950 . S
C4267 C4264 1.387 . S
C4268 C4269 1.387 . S
C4268 H4272 0.950 . S
C4268 C4277 1.390 . S
C4269 C4268 1.387 . S
C4269 C4271 1.387 . S
H4270 C4277 0.950 . S
C4271 C4269 1.387 . S
C4271 C4273 1.390 . S
C4271 H4275 0.950 . S
H4272 C4268 0.950 . S
C4273 C4271 1.390 . S
C4273 C4274 1.387 . S
C4273 H4276 0.950 . S
C4274 C4273 1.387 . S
C4274 C4277 1.387 . S
H4275 C4271 0.950 . S
H4276 C4273 0.950 . S
C4277 C4268 1.390 . S
C4277 H4270 0.950 . S
C4277 C4274 1.387 . S
C4278 C4279 1.387 . S
C4278 H4282 0.950 . S
C4278 C4287 1.390 . S
C4279 C4278 1.387 . S
C4279 C4281 1.387 . S
H4280 C4287 0.950 . S
C4281 C4279 1.387 . S
C4281 C4283 1.390 . S
C4281 H4285 0.950 . S
H4282 C4278 0.950 . S
C4283 C4281 1.390 . S
C4283 C4284 1.387 . S
C4283 H4286 0.950 . S
C4284 C4283 1.387 . S
C4284 C4287 1.387 . S
H4285 C4281 0.950 . S
H4286 C4283 0.950 . S
C4287 C4278 1.390 . S
C4287 H4280 0.950 . S
C4287 C4284 1.387 . S
C4288 C4289 1.387 . S
C4288 H4292 0.950 . S
C4288 C4297 1.390 . S
C4289 C4288 1.387 . S
C4289 C4291 1.387 . S
H4290 C4297 0.950 . S
C4291 C4289 1.387 . S
C4291 C4293 1.390 . S
C4291 H4295 0.950 . S
H4292 C4288 0.950 . S
C4293 C4291 1.390 . S
C4293 C4294 1.387 . S
C4293 H4296 0.950 . S
C4294 C4293 1.387 . S
C4294 C4297 1.387 . S
H4295 C4291 0.950 . S
H4296 C4293 0.950 . S
C4297 C4288 1.390 . S
C4297 H4290 0.950 . S
C4297 C4294 1.387 . S
C4298 C4299 1.387 . S
C4298 H4302 0.950 . S
C4298 C4307 1.390 . S
C4299 C4298 1.387 . S
C4299 C4301 1.387 . S
H4300 C4307 0.950 . S
C4301 C4299 1.387 . S
C4301 C4303 1.390 . S
C4301 H4305 0.950 . S
H4302 C4298 0.950 . S
C4303 C4301 1.390 . S
C4303 C4304 1.387 . S
C4303 H4306 0.950 . S
C4304 C4303 1.387 . S
C4304 C4307 1.387 . S
H4305 C4301 0.950 . S
H4306 C4303 0.950 . S
C4307 C4298 1.390 . S
C4307 H4300 0.950 . S
C4307 C4304 1.387 . S
C4308 C4309 1.387 . S
C4308 H4312 0.950 . S
C4308 C4317 1.390 . S
C4309 C4308 1.387 . S
C4309 C4311 1.387 . S
H4310 C4317 0.950 . S
C4311 C4309 1.387 . S
C4311 C4313 1.390 . S
C4311 H4315 0.950 . S
H4312 C4308 0.950 . S
C4313 C4311 1.390 . S
C4313 C4314 1.387 . S
C4313 H4316 0.950 . S
C4314 C4313 1.387 . S
C4314 C4317 1.387 . S
H4315 C4311 0.950 . S
H4316 C4313 0.950 . S
C4317 C4308 1.390 . S
C4317 H4310 0.950 . S
C4317 C4314 1.387 . S
C4318 C4319 1.387 . S
C4318 H4322 0.950 . S
C4318 C4327 1.390 . S
C4319 C4318 1.387 . S
C4319 C4321 1.387 . S
H4320 C4327 0.950 . S
C4321 C4319 1.387 . S
C4321 C4323 1.390 . S
C4321 H4325 0.950 . S
H4322 C4318 0.950 . S
C4323 C4321 1.390 . S
C4323 C4324 1.387 . S
C4323 H4326 0.950 . S
C4324 C4323 1.387 . S
C4324 C4327 1.387 . S
H4325 C4321 0.950 . S
H4326 C4323 0.950 . S
C4327 C4318 1.390 . S
C4327 H4320 0.950 . S
C4327 C4324 1.387 . S
C4328 C4329 1.387 . S
C4328 H4332 0.950 . S
C4328 C4337 1.390 . S
C4329 C4328 1.387 . S
C4329 C4331 1.387 . S
H4330 C4337 0.950 . S
C4331 C4329 1.387 . S
C4331 C4333 1.390 . S
C4331 H4335 0.950 . S
H4332 C4328 0.950 . S
C4333 C4331 1.390 . S
C4333 C4334 1.387 . S
C4333 H4336 0.950 . S
C4334 C4333 1.387 . S
C4334 C4337 1.387 . S
H4335 C4331 0.950 . S
H4336 C4333 0.950 . S
C4337 C4328 1.390 . S
C4337 H4330 0.950 . S
C4337 C4334 1.387 . S
C4338 C4339 1.387 . S
C4338 H4342 0.950 . S
C4338 C4347 1.390 . S
C4339 C4338 1.387 . S
C4339 C4341 1.387 . S
H4340 C4347 0.950 . S
C4341 C4339 1.387 . S
C4341 C4343 1.390 . S
C4341 H4345 0.950 . S
H4342 C4338 0.950 . S
C4343 C4341 1.390 . S
C4343 C4344 1.387 . S
C4343 H4346 0.950 . S
C4344 C4343 1.387 . S
C4344 C4347 1.387 . S
H4345 C4341 0.950 . S
H4346 C4343 0.950 . S
C4347 C4338 1.390 . S
C4347 H4340 0.950 . S
C4347 C4344 1.387 . S
C4348 C4349 1.387 . S
C4348 H4352 0.950 . S
C4348 C4357 1.390 . S
C4349 C4348 1.387 . S
C4349 C4351 1.387 . S
H4350 C4357 0.950 . S
C4351 C4349 1.387 . S
C4351 C4353 1.390 . S
C4351 H4355 0.950 . S
H4352 C4348 0.950 . S
C4353 C4351 1.390 . S
C4353 C4354 1.387 . S
C4353 H4356 0.950 . S
C4354 C4353 1.387 . S
C4354 C4357 1.387 . S
H4355 C4351 0.950 . S
H4356 C4353 0.950 . S
C4357 C4348 1.390 . S
C4357 H4350 0.950 . S
C4357 C4354 1.387 . S
C4358 C4359 1.387 . S
C4358 H4362 0.950 . S
C4358 C4367 1.390 . S
C4359 C4358 1.387 . S
C4359 C4361 1.387 . S
H4360 C4367 0.950 . S
C4361 C4359 1.387 . S
C4361 C4363 1.390 . S
C4361 H4365 0.950 . S
H4362 C4358 0.950 . S
C4363 C4361 1.390 . S
C4363 C4364 1.387 . S
C4363 H4366 0.950 . S
C4364 C4363 1.387 . S
C4364 C4367 1.387 . S
H4365 C4361 0.950 . S
H4366 C4363 0.950 . S
C4367 C4358 1.390 . S
C4367 H4360 0.950 . S
C4367 C4364 1.387 . S
C4368 C4369 1.387 . S
C4368 H4372 0.950 . S
C4368 C4377 1.390 . S
C4369 C4368 1.387 . S
C4369 C4371 1.387 . S
H4370 C4377 0.950 . S
C4371 C4369 1.387 . S
C4371 C4373 1.390 . S
C4371 H4375 0.950 . S
H4372 C4368 0.950 . S
C4373 C4371 1.390 . S
C4373 C4374 1.387 . S
C4373 H4376 0.950 . S
C4374 C4373 1.387 . S
C4374 C4377 1.387 . S
H4375 C4371 0.950 . S
H4376 C4373 0.950 . S
C4377 C4368 1.390 . S
C4377 H4370 0.950 . S
C4377 C4374 1.387 . S
C4378 C4379 1.387 . S
C4378 H4382 0.950 . S
C4378 C4387 1.390 . S
C4379 C4378 1.387 . S
C4379 C4381 1.387 . S
H4380 C4387 0.950 . S
C4381 C4379 1.387 . S
C4381 C4383 1.390 . S
C4381 H4385 0.950 . S
H4382 C4378 0.950 . S
C4383 C4381 1.390 . S
C4383 C4384 1.387 . S
C4383 H4386 0.950 . S
C4384 C4383 1.387 . S
C4384 C4387 1.387 . S
H4385 C4381 0.950 . S
H4386 C4383 0.950 . S
C4387 C4378 1.390 . S
C4387 H4380 0.950 . S
C4387 C4384 1.387 . S
C4388 C4389 1.387 . S
C4388 H4392 0.950 . S
C4388 C4397 1.390 . S
C4389 C4388 1.387 . S
C4389 C4391 1.387 . S
H4390 C4397 0.950 . S
C4391 C4389 1.387 . S
C4391 C4393 1.390 . S
C4391 H4395 0.950 . S
H4392 C4388 0.950 . S
C4393 C4391 1.390 . S
C4393 C4394 1.387 . S
C4393 H4396 0.950 . S
C4394 C4393 1.387 . S
C4394 C4397 1.387 . S
H4395 C4391 0.950 . S
H4396 C4393 0.950 . S
C4397 C4388 1.390 . S
C4397 H4390 0.950 . S
C4397 C4394 1.387 . S
C4398 C4399 1.387 . S
C4398 H4402 0.950 . S
C4398 C4407 1.390 . S
C4399 C4398 1.387 . S
C4399 C4401 1.387 . S
H4400 C4407 0.950 . S
C4401 C4399 1.387 . S
C4401 C4403 1.390 . S
C4401 H4405 0.950 . S
H4402 C4398 0.950 . S
C4403 C4401 1.390 . S
C4403 C4404 1.387 . S
C4403 H4406 0.950 . S
C4404 C4403 1.387 . S
C4404 C4407 1.387 . S
H4405 C4401 0.950 . S
H4406 C4403 0.950 . S
C4407 C4398 1.390 . S
C4407 H4400 0.950 . S
C4407 C4404 1.387 . S
C4408 C4409 1.387 . S
C4408 H4412 0.950 . S
C4408 C4417 1.390 . S
C4409 C4408 1.387 . S
C4409 C4411 1.387 . S
H4410 C4417 0.950 . S
C4411 C4409 1.387 . S
C4411 C4413 1.390 . S
C4411 H4415 0.950 . S
H4412 C4408 0.950 . S
C4413 C4411 1.390 . S
C4413 C4414 1.387 . S
C4413 H4416 0.950 . S
C4414 C4413 1.387 . S
C4414 C4417 1.387 . S
H4415 C4411 0.950 . S
H4416 C4413 0.950 . S
C4417 C4408 1.390 . S
C4417 H4410 0.950 . S
C4417 C4414 1.387 . S
C4418 C4419 1.387 . S
C4418 H4422 0.950 . S
C4418 C4427 1.390 . S
C4419 C4418 1.387 . S
C4419 C4421 1.387 . S
H4420 C4427 0.950 . S
C4421 C4419 1.387 . S
C4421 C4423 1.390 . S
C4421 H4425 0.950 . S
H4422 C4418 0.950 . S
C4423 C4421 1.390 . S
C4423 C4424 1.387 . S
C4423 H4426 0.950 . S
C4424 C4423 1.387 . S
C4424 C4427 1.387 . S
H4425 C4421 0.950 . S
H4426 C4423 0.950 . S
C4427 C4418 1.390 . S
C4427 H4420 0.950 . S
C4427 C4424 1.387 . S
C4428 C4429 1.387 . S
C4428 H4432 0.950 . S
C4428 C4437 1.390 . S
C4429 C4428 1.387 . S
C4429 C4431 1.387 . S
H4430 C4437 0.950 . S
C4431 C4429 1.387 . S
C4431 C4433 1.390 . S
C4431 H4435 0.950 . S
H4432 C4428 0.950 . S
C4433 C4431 1.390 . S
C4433 C4434 1.387 . S
C4433 H4436 0.950 . S
C4434 C4433 1.387 . S
C4434 C4437 1.387 . S
H4435 C4431 0.950 . S
H4436 C4433 0.950 . S
C4437 C4428 1.390 . S
C4437 H4430 0.950 . S
C4437 C4434 1.387 . S
C4438 C4439 1.387 . S
C4438 H4442 0.950 . S
C4438 C4447 1.390 . S
C4439 C4438 1.387 . S
C4439 C4441 1.387 . S
H4440 C4447 0.950 . S
C4441 C4439 1.387 . S
C4441 C4443 1.390 . S
C4441 H4445 0.950 . S
H4442 C4438 0.950 . S
C4443 C4441 1.390 . S
C4443 C4444 1.387 . S
C4443 H4446 0.950 . S
C4444 C4443 1.387 . S
C4444 C4447 1.387 . S
H4445 C4441 0.950 . S
H4446 C4443 0.950 . S
C4447 C4438 1.390 . S
C4447 H4440 0.950 . S
C4447 C4444 1.387 . S
C4448 C4449 1.387 . S
C4448 H4452 0.950 . S
C4448 C4457 1.390 . S
C4449 C4448 1.387 . S
C4449 C4451 1.387 . S
H4450 C4457 0.950 . S
C4451 C4449 1.387 . S
C4451 C4453 1.390 . S
C4451 H4455 0.950 . S
H4452 C4448 0.950 . S
C4453 C4451 1.390 . S
C4453 C4454 1.387 . S
C4453 H4456 0.950 . S
C4454 C4453 1.387 . S
C4454 C4457 1.387 . S
H4455 C4451 0.950 . S
H4456 C4453 0.950 . S
C4457 C4448 1.390 . S
C4457 H4450 0.950 . S
C4457 C4454 1.387 . S
C4458 C4459 1.387 . S
C4458 H4462 0.950 . S
C4458 C4467 1.390 . S
C4459 C4458 1.387 . S
C4459 C4461 1.387 . S
H4460 C4467 0.950 . S
C4461 C4459 1.387 . S
C4461 C4463 1.390 . S
C4461 H4465 0.950 . S
H4462 C4458 0.950 . S
C4463 C4461 1.390 . S
C4463 C4464 1.387 . S
C4463 H4466 0.950 . S
C4464 C4463 1.387 . S
C4464 C4467 1.387 . S
H4465 C4461 0.950 . S
H4466 C4463 0.950 . S
C4467 C4458 1.390 . S
C4467 H4460 0.950 . S
C4467 C4464 1.387 . S
C4468 C4469 1.387 . S
C4468 H4472 0.950 . S
C4468 C4477 1.390 . S
C4469 C4468 1.387 . S
C4469 C4471 1.387 . S
H4470 C4477 0.950 . S
C4471 C4469 1.387 . S
C4471 C4473 1.390 . S
C4471 H4475 0.950 . S
H4472 C4468 0.950 . S
C4473 C4471 1.390 . S
C4473 C4474 1.387 . S
C4473 H4476 0.950 . S
C4474 C4473 1.387 . S
C4474 C4477 1.387 . S
H4475 C4471 0.950 . S
H4476 C4473 0.950 . S
C4477 C4468 1.390 . S
C4477 H4470 0.950 . S
C4477 C4474 1.387 . S
C4478 C4479 1.387 . S
C4478 H4482 0.950 . S
C4478 C4487 1.390 . S
C4479 C4478 1.387 . S
C4479 C4481 1.387 . S
H4480 C4487 0.950 . S
C4481 C4479 1.387 . S
C4481 C4483 1.390 . S
C4481 H4485 0.950 . S
H4482 C4478 0.950 . S
C4483 C4481 1.390 . S
C4483 C4484 1.387 . S
C4483 H4486 0.950 . S
C4484 C4483 1.387 . S
C4484 C4487 1.387 . S
H4485 C4481 0.950 . S
H4486 C4483 0.950 . S
C4487 C4478 1.390 . S
C4487 H4480 0.950 . S
C4487 C4484 1.387 . S
C4488 C4489 1.387 . S
C4488 H4492 0.950 . S
C4488 C4497 1.390 . S
C4489 C4488 1.387 . S
C4489 C4491 1.387 . S
H4490 C4497 0.950 . S
C4491 C4489 1.387 . S
C4491 C4493 1.390 . S
C4491 H4495 0.950 . S
H4492 C4488 0.950 . S
C4493 C4491 1.390 . S
C4493 C4494 1.387 . S
C4493 H4496 0.950 . S
C4494 C4493 1.387 . S
C4494 C4497 1.387 . S
H4495 C4491 0.950 . S
H4496 C4493 0.950 . S
C4497 C4488 1.390 . S
C4497 H4490 0.950 . S
C4497 C4494 1.387 . S
C4498 C4499 1.387 . S
C4498 H4502 0.950 . S
C4498 C4507 1.390 . S
C4499 C4498 1.387 . S
C4499 C4501 1.387 . S
H4500 C4507 0.950 . S
C4501 C4499 1.387 . S
C4501 C4503 1.390 . S
C4501 H4505 0.950 . S
H4502 C4498 0.950 . S
C4503 C4501 1.390 . S
C4503 C4504 1.387 . S
C4503 H4506 0.950 . S
C4504 C4503 1.387 . S
C4504 C4507 1.387 . S
H4505 C4501 0.950 . S
H4506 C4503 0.950 . S
C4507 C4498 1.390 . S
C4507 H4500 0.950 . S
C4507 C4504 1.387 . S
C4508 C4509 1.387 . S
C4508 H4512 0.950 . S
C4508 C4517 1.390 . S
C4509 C4508 1.387 . S
C4509 C4511 1.387 . S
H4510 C4517 0.950 . S
C4511 C4509 1.387 . S
C4511 C4513 1.390 . S
C4511 H4515 0.950 . S
H4512 C4508 0.950 . S
C4513 C4511 1.390 . S
C4513 C4514 1.387 . S
C4513 H4516 0.950 . S
C4514 C4513 1.387 . S
C4514 C4517 1.387 . S
H4515 C4511 0.950 . S
H4516 C4513 0.950 . S
C4517 C4508 1.390 . S
C4517 H4510 0.950 . S
C4517 C4514 1.387 . S
C4518 C4519 1.387 . S
C4518 H4522 0.950 . S
C4518 C4527 1.390 . S
C4519 C4518 1.387 . S
C4519 C4521 1.387 . S
H4520 C4527 0.950 . S
C4521 C4519 1.387 . S
C4521 C4523 1.390 . S
C4521 H4525 0.950 . S
H4522 C4518 0.950 . S
C4523 C4521 1.390 . S
C4523 C4524 1.387 . S
C4523 H4526 0.950 . S
C4524 C4523 1.387 . S
C4524 C4527 1.387 . S
H4525 C4521 0.950 . S
H4526 C4523 0.950 . S
C4527 C4518 1.390 . S
C4527 H4520 0.950 . S
C4527 C4524 1.387 . S
C4528 C4529 1.387 . S
C4528 H4532 0.950 . S
C4528 C4537 1.390 . S
C4529 C4528 1.387 . S
C4529 C4531 1.387 . S
H4530 C4537 0.950 . S
C4531 C4529 1.387 . S
C4531 C4533 1.390 . S
C4531 H4535 0.950 . S
H4532 C4528 0.950 . S
C4533 C4531 1.390 . S
C4533 C4534 1.387 . S
C4533 H4536 0.950 . S
C4534 C4533 1.387 . S
C4534 C4537 1.387 . S
H4535 C4531 0.950 . S
H4536 C4533 0.950 . S
C4537 C4528 1.390 . S
C4537 H4530 0.950 . S
C4537 C4534 1.387 . S
C4538 C4539 1.387 . S
C4538 H4542 0.950 . S
C4538 C4547 1.390 . S
C4539 C4538 1.387 . S
C4539 C4541 1.387 . S
H4540 C4547 0.950 . S
C4541 C4539 1.387 . S
C4541 C4543 1.390 . S
C4541 H4545 0.950 . S
H4542 C4538 0.950 . S
C4543 C4541 1.390 . S
C4543 C4544 1.387 . S
C4543 H4546 0.950 . S
C4544 C4543 1.387 . S
C4544 C4547 1.387 . S
H4545 C4541 0.950 . S
H4546 C4543 0.950 . S
C4547 C4538 1.390 . S
C4547 H4540 0.950 . S
C4547 C4544 1.387 . S
C4548 C4549 1.387 . S
C4548 H4552 0.950 . S
C4548 C4557 1.390 . S
C4549 C4548 1.387 . S
C4549 C4551 1.387 . S
H4550 C4557 0.950 . S
C4551 C4549 1.387 . S
C4551 C4553 1.390 . S
C4551 H4555 0.950 . S
H4552 C4548 0.950 . S
C4553 C4551 1.390 . S
C4553 C4554 1.387 . S
C4553 H4556 0.950 . S
C4554 C4553 1.387 . S
C4554 C4557 1.387 . S
H4555 C4551 0.950 . S
H4556 C4553 0.950 . S
C4557 C4548 1.390 . S
C4557 H4550 0.950 . S
C4557 C4554 1.387 . S
C4558 C4559 1.387 . S
C4558 H4562 0.950 . S
C4558 C4567 1.390 . S
C4559 C4558 1.387 . S
C4559 C4561 1.387 . S
H4560 C4567 0.950 . S
C4561 C4559 1.387 . S
C4561 C4563 1.390 . S
C4561 H4565 0.950 . S
H4562 C4558 0.950 . S
C4563 C4561 1.390 . S
C4563 C4564 1.387 . S
C4563 H4566 0.950 . S
C4564 C4563 1.387 . S
C4564 C4567 1.387 . S
H4565 C4561 0.950 . S
H4566 C4563 0.950 . S
C4567 C4558 1.390 . S
C4567 H4560 0.950 . S
C4567 C4564 1.387 . S
C4568 C4569 1.387 . S
C4568 H4572 0.950 . S
C4568 C4577 1.390 . S
C4569 C4568 1.387 . S
C4569 C4571 1.387 . S
H4570 C4577 0.950 . S
C4571 C4569 1.387 . S
C4571 C4573 1.390 . S
C4571 H4575 0.950 . S
H4572 C4568 0.950 . S
C4573 C4571 1.390 . S
C4573 C4574 1.387 . S
C4573 H4576 0.950 . S
C4574 C4573 1.387 . S
C4574 C4577 1.387 . S
H4575 C4571 0.950 . S
H4576 C4573 0.950 . S
C4577 C4568 1.390 . S
C4577 H4570 0.950 . S
C4577 C4574 1.387 . S
C4578 C4579 1.387 . S
C4578 H4582 0.950 . S
C4578 C4587 1.390 . S
C4579 C4578 1.387 . S
C4579 C4581 1.387 . S
H4580 C4587 0.950 . S
C4581 C4579 1.387 . S
C4581 C4583 1.390 . S
C4581 H4585 0.950 . S
H4582 C4578 0.950 . S
C4583 C4581 1.390 . S
C4583 C4584 1.387 . S
C4583 H4586 0.950 . S
C4584 C4583 1.387 . S
C4584 C4587 1.387 . S
H4585 C4581 0.950 . S
H4586 C4583 0.950 . S
C4587 C4578 1.390 . S
C4587 H4580 0.950 . S
C4587 C4584 1.387 . S
C4588 C4589 1.387 . S
C4588 H4592 0.950 . S
C4588 C4597 1.390 . S
C4589 C4588 1.387 . S
C4589 C4591 1.387 . S
H4590 C4597 0.950 . S
C4591 C4589 1.387 . S
C4591 C4593 1.390 . S
C4591 H4595 0.950 . S
H4592 C4588 0.950 . S
C4593 C4591 1.390 . S
C4593 C4594 1.387 . S
C4593 H4596 0.950 . S
C4594 C4593 1.387 . S
C4594 C4597 1.387 . S
H4595 C4591 0.950 . S
H4596 C4593 0.950 . S
C4597 C4588 1.390 . S
C4597 H4590 0.950 . S
C4597 C4594 1.387 . S
C4598 C4599 1.387 . S
C4598 H4602 0.950 . S
C4598 C4607 1.390 . S
C4599 C4598 1.387 . S
C4599 C4601 1.387 . S
H4600 C4607 0.950 . S
C4601 C4599 1.387 . S
C4601 C4603 1.390 . S
C4601 H4605 0.950 . S
H4602 C4598 0.950 . S
C4603 C4601 1.390 . S
C4603 C4604 1.387 . S
C4603 H4606 0.950 . S
C4604 C4603 1.387 . S
C4604 C4607 1.387 . S
H4605 C4601 0.950 . S
H4606 C4603 0.950 . S
C4607 C4598 1.390 . S
C4607 H4600 0.950 . S
C4607 C4604 1.387 . S
C4608 C4609 1.387 . S
C4608 H4612 0.950 . S
C4608 C4617 1.390 . S
C4609 C4608 1.387 . S
C4609 C4611 1.387 . S
H4610 C4617 0.950 . S
C4611 C4609 1.387 . S
C4611 C4613 1.390 . S
C4611 H4615 0.950 . S
H4612 C4608 0.950 . S
C4613 C4611 1.390 . S
C4613 C4614 1.387 . S
C4613 H4616 0.950 . S
C4614 C4613 1.387 . S
C4614 C4617 1.387 . S
H4615 C4611 0.950 . S
H4616 C4613 0.950 . S
C4617 C4608 1.390 . S
C4617 H4610 0.950 . S
C4617 C4614 1.387 . S
C4618 C4619 1.387 . S
C4618 H4622 0.950 . S
C4618 C4627 1.390 . S
C4619 C4618 1.387 . S
C4619 C4621 1.387 . S
H4620 C4627 0.950 . S
C4621 C4619 1.387 . S
C4621 C4623 1.390 . S
C4621 H4625 0.950 . S
H4622 C4618 0.950 . S
C4623 C4621 1.390 . S
C4623 C4624 1.387 . S
C4623 H4626 0.950 . S
C4624 C4623 1.387 . S
C4624 C4627 1.387 . S
H4625 C4621 0.950 . S
H4626 C4623 0.950 . S
C4627 C4618 1.390 . S
C4627 H4620 0.950 . S
C4627 C4624 1.387 . S
C4628 C4629 1.387 . S
C4628 H4632 0.950 . S
C4628 C4637 1.390 . S
C4629 C4628 1.387 . S
C4629 C4631 1.387 . S
H4630 C4637 0.950 . S
C4631 C4629 1.387 . S
C4631 C4633 1.390 . S
C4631 H4635 0.950 . S
H4632 C4628 0.950 . S
C4633 C4631 1.390 . S
C4633 C4634 1.387 . S
C4633 H4636 0.950 . S
C4634 C4633 1.387 . S
C4634 C4637 1.387 . S
H4635 C4631 0.950 . S
H4636 C4633 0.950 . S
C4637 C4628 1.390 . S
C4637 H4630 0.950 . S
C4637 C4634 1.387 . S
C4638 C4639 1.387 . S
C4638 H4642 0.950 . S
C4638 C4647 1.390 . S
C4639 C4638 1.387 . S
C4639 C4641 1.387 . S
H4640 C4647 0.950 . S
C4641 C4639 1.387 . S
C4641 C4643 1.390 . S
C4641 H4645 0.950 . S
H4642 C4638 0.950 . S
C4643 C4641 1.390 . S
C4643 C4644 1.387 . S
C4643 H4646 0.950 . S
C4644 C4643 1.387 . S
C4644 C4647 1.387 . S
H4645 C4641 0.950 . S
H4646 C4643 0.950 . S
C4647 C4638 1.390 . S
C4647 H4640 0.950 . S
C4647 C4644 1.387 . S
C4648 C4649 1.387 . S
C4648 H4652 0.950 . S
C4648 C4657 1.390 . S
C4649 C4648 1.387 . S
C4649 C4651 1.387 . S
H4650 C4657 0.950 . S
C4651 C4649 1.387 . S
C4651 C4653 1.390 . S
C4651 H4655 0.950 . S
H4652 C4648 0.950 . S
C4653 C4651 1.390 . S
C4653 C4654 1.387 . S
C4653 H4656 0.950 . S
C4654 C4653 1.387 . S
C4654 C4657 1.387 . S
H4655 C4651 0.950 . S
H4656 C4653 0.950 . S
C4657 C4648 1.390 . S
C4657 H4650 0.950 . S
C4657 C4654 1.387 . S
C4658 C4659 1.387 . S
C4658 H4662 0.950 . S
C4658 C4667 1.390 . S
C4659 C4658 1.387 . S
C4659 C4661 1.387 . S
H4660 C4667 0.950 . S
C4661 C4659 1.387 . S
C4661 C4663 1.390 . S
C4661 H4665 0.950 . S
H4662 C4658 0.950 . S
C4663 C4661 1.390 . S
C4663 C4664 1.387 . S
C4663 H4666 0.950 . S
C4664 C4663 1.387 . S
C4664 C4667 1.387 . S
H4665 C4661 0.950 . S
H4666 C4663 0.950 . S
C4667 C4658 1.390 . S
C4667 H4660 0.950 . S
C4667 C4664 1.387 . S
C4668 C4669 1.387 . S
C4668 H4672 0.950 . S
C4668 C4677 1.390 . S
C4669 C4668 1.387 . S
C4669 C4671 1.387 . S
H4670 C4677 0.950 . S
C4671 C4669 1.387 . S
C4671 C4673 1.390 . S
C4671 H4675 0.950 . S
H4672 C4668 0.950 . S
C4673 C4671 1.390 . S
C4673 C4674 1.387 . S
C4673 H4676 0.950 . S
C4674 C4673 1.387 . S
C4674 C4677 1.387 . S
H4675 C4671 0.950 . S
H4676 C4673 0.950 . S
C4677 C4668 1.390 . S
C4677 H4670 0.950 . S
C4677 C4674 1.387 . S
C4678 C4679 1.387 . S
C4678 H4682 0.950 . S
C4678 C4687 1.390 . S
C4679 C4678 1.387 . S
C4679 C4681 1.387 . S
H4680 C4687 0.950 . S
C4681 C4679 1.387 . S
C4681 C4683 1.390 . S
C4681 H4685 0.950 . S
H4682 C4678 0.950 . S
C4683 C4681 1.390 . S
C4683 C4684 1.387 . S
C4683 H4686 0.950 . S
C4684 C4683 1.387 . S
C4684 C4687 1.387 . S
H4685 C4681 0.950 . S
H4686 C4683 0.950 . S
C4687 C4678 1.390 . S
C4687 H4680 0.950 . S
C4687 C4684 1.387 . S
C4688 C4689 1.387 . S
C4688 H4692 0.950 . S
C4688 C4697 1.390 . S
C4689 C4688 1.387 . S
C4689 C4691 1.387 . S
H4690 C4697 0.950 . S
C4691 C4689 1.387 . S
C4691 C4693 1.390 . S
C4691 H4695 0.950 . S
H4692 C4688 0.950 . S
C4693 C4691 1.390 . S
C4693 C4694 1.387 . S
C4693 H4696 0.950 . S
C4694 C4693 1.387 . S
C4694 C4697 1.387 . S
H4695 C4691 0.950 . S
H4696 C4693 0.950 . S
C4697 C4688 1.390 . S
C4697 H4690 0.950 . S
C4697 C4694 1.387 . S
C4698 C4699 1.387 . S
C4698 H4702 0.950 . S
C4698 C4707 1.390 . S
C4699 C4698 1.387 . S
C4699 C4701 1.387 . S
H4700 C4707 0.950 . S
C4701 C4699 1.387 . S
C4701 C4703 1.390 . S
C4701 H4705 0.950 . S
H4702 C4698 0.950 . S
C4703 C4701 1.390 . S
C4703 C4704 1.387 . S
C4703 H4706 0.950 . S
C4704 C4703 1.387 . S
C4704 C4707 1.387 . S
H4705 C4701 0.950 . S
H4706 C4703 0.950 . S
C4707 C4698 1.390 . S
C4707 H4700 0.950 . S
C4707 C4704 1.387 . S
C4708 C4709 1.387 . S
C4708 H4712 0.950 . S
C4708 C4717 1.390 . S
C4709 C4708 1.387 . S
C4709 C4711 1.387 . S
H4710 C4717 0.950 . S
C4711 C4709 1.387 . S
C4711 C4713 1.390 . S
C4711 H4715 0.950 . S
H4712 C4708 0.950 . S
C4713 C4711 1.390 . S
C4713 C4714 1.387 . S
C4713 H4716 0.950 . S
C4714 C4713 1.387 . S
C4714 C4717 1.387 . S
H4715 C4711 0.950 . S
H4716 C4713 0.950 . S
C4717 C4708 1.390 . S
C4717 H4710 0.950 . S
C4717 C4714 1.387 . S
C4718 C4719 1.387 . S
C4718 H4722 0.950 . S
C4718 C4727 1.390 . S
C4719 C4718 1.387 . S
C4719 C4721 1.387 . S
H4720 C4727 0.950 . S
C4721 C4719 1.387 . S
C4721 C4723 1.390 . S
C4721 H4725 0.950 . S
H4722 C4718 0.950 . S
C4723 C4721 1.390 . S
C4723 C4724 1.387 . S
C4723 H4726 0.950 . S
C4724 C4723 1.387 . S
C4724 C4727 1.387 . S
H4725 C4721 0.950 . S
H4726 C4723 0.950 . S
C4727 C4718 1.390 . S
C4727 H4720 0.950 . S
C4727 C4724 1.387 . S
C4728 C4729 1.387 . S
C4728 H4732 0.950 . S
C4728 C4737 1.390 . S
C4729 C4728 1.387 . S
C4729 C4731 1.387 . S
H4730 C4737 0.950 . S
C4731 C4729 1.387 . S
C4731 C4733 1.390 . S
C4731 H4735 0.950 . S
H4732 C4728 0.950 . S
C4733 C4731 1.390 . S
C4733 C4734 1.387 . S
C4733 H4736 0.950 . S
C4734 C4733 1.387 . S
C4734 C4737 1.387 . S
H4735 C4731 0.950 . S
H4736 C4733 0.950 . S
C4737 C4728 1.390 . S
C4737 H4730 0.950 . S
C4737 C4734 1.387 . S
C4738 C4739 1.387 . S
C4738 H4742 0.950 . S
C4738 C4747 1.390 . S
C4739 C4738 1.387 . S
C4739 C4741 1.387 . S
H4740 C4747 0.950 . S
C4741 C4739 1.387 . S
C4741 C4743 1.390 . S
C4741 H4745 0.950 . S
H4742 C4738 0.950 . S
C4743 C4741 1.390 . S
C4743 C4744 1.387 . S
C4743 H4746 0.950 . S
C4744 C4743 1.387 . S
C4744 C4747 1.387 . S
H4745 C4741 0.950 . S
H4746 C4743 0.950 . S
C4747 C4738 1.390 . S
C4747 H4740 0.950 . S
C4747 C4744 1.387 . S
C4748 C4749 1.387 . S
C4748 H4752 0.950 . S
C4748 C4757 1.390 . S
C4749 C4748 1.387 . S
C4749 C4751 1.387 . S
H4750 C4757 0.950 . S
C4751 C4749 1.387 . S
C4751 C4753 1.390 . S
C4751 H4755 0.950 . S
H4752 C4748 0.950 . S
C4753 C4751 1.390 . S
C4753 C4754 1.387 . S
C4753 H4756 0.950 . S
C4754 C4753 1.387 . S
C4754 C4757 1.387 . S
H4755 C4751 0.950 . S
H4756 C4753 0.950 . S
C4757 C4748 1.390 . S
C4757 H4750 0.950 . S
C4757 C4754 1.387 . S
C4758 C4759 1.387 . S
C4758 H4762 0.950 . S
C4758 C4767 1.390 . S
C4759 C4758 1.387 . S
C4759 C4761 1.387 . S
H4760 C4767 0.950 . S
C4761 C4759 1.387 . S
C4761 C4763 1.390 . S
C4761 H4765 0.950 . S
H4762 C4758 0.950 . S
C4763 C4761 1.390 . S
C4763 C4764 1.387 . S
C4763 H4766 0.950 . S
C4764 C4763 1.387 . S
C4764 C4767 1.387 . S
H4765 C4761 0.950 . S
H4766 C4763 0.950 . S
C4767 C4758 1.390 . S
C4767 H4760 0.950 . S
C4767 C4764 1.387 . S
C4768 C4769 1.387 . S
C4768 H4772 0.950 . S
C4768 C4777 1.390 . S
C4769 C4768 1.387 . S
C4769 C4771 1.387 . S
H4770 C4777 0.950 . S
C4771 C4769 1.387 . S
C4771 C4773 1.390 . S
C4771 H4775 0.950 . S
H4772 C4768 0.950 . S
C4773 C4771 1.390 . S
C4773 C4774 1.387 . S
C4773 H4776 0.950 . S
C4774 C4773 1.387 . S
C4774 C4777 1.387 . S
H4775 C4771 0.950 . S
H4776 C4773 0.950 . S
C4777 C4768 1.390 . S
C4777 H4770 0.950 . S
C4777 C4774 1.387 . S
C4778 C4779 1.387 . S
C4778 H4782 0.950 . S
C4778 C4787 1.390 . S
C4779 C4778 1.387 . S
C4779 C4781 1.387 . S
H4780 C4787 0.950 . S
C4781 C4779 1.387 . S
C4781 C4783 1.390 . S
C4781 H4785 0.950 . S
H4782 C4778 0.950 . S
C4783 C4781 1.390 . S
C4783 C4784 1.387 . S
C4783 H4786 0.950 . S
C4784 C4783 1.387 . S
C4784 C4787 1.387 . S
H4785 C4781 0.950 . S
H4786 C4783 0.950 . S
C4787 C4778 1.390 . S
C4787 H4780 0.950 . S
C4787 C4784 1.387 . S
C4788 C4789 1.387 . S
C4788 H4792 0.950 . S
C4788 C4797 1.390 . S
C4789 C4788 1.387 . S
C4789 C4791 1.387 . S
H4790 C4797 0.950 . S
C4791 C4789 1.387 . S
C4791 C4793 1.390 . S
C4791 H4795 0.950 . S
H4792 C4788 0.950 . S
C4793 C4791 1.390 . S
C4793 C4794 1.387 . S
C4793 H4796 0.950 . S
C4794 C4793 1.387 . S
C4794 C4797 1.387 . S
H4795 C4791 0.950 . S
H4796 C4793 0.950 . S
C4797 C4788 1.390 . S
C4797 H4790 0.950 . S
C4797 C4794 1.387 . S
C4798 C4799 1.387 . S
C4798 H4802 0.950 . S
C4798 C4807 1.390 . S
C4799 C4798 1.387 . S
C4799 C4801 1.387 . S
H4800 C4807 0.950 . S
C4801 C4799 1.387 . S
C4801 C4803 1.390 . S
C4801 H4805 0.950 . S
H4802 C4798 0.950 . S
C4803 C4801 1.390 . S
C4803 C4804 1.387 . S
C4803 H4806 0.950 . S
C4804 C4803 1.387 . S
C4804 C4807 1.387 . S
H4805 C4801 0.950 . S
H4806 C4803 0.950 . S
C4807 C4798 1.390 . S
C4807 H4800 0.950 . S
C4807 C4804 1.387 . S
C4808 C4809 1.387 . S
C4808 H4812 0.950 . S
C4808 C4817 1.390 . S
C4809 C4808 1.387 . S
C4809 C4811 1.387 . S
H4810 C4817 0.950 . S
C4811 C4809 1.387 . S
C4811 C4813 1.390 . S
C4811 H4815 0.950 . S
H4812 C4808 0.950 . S
C4813 C4811 1.390 . S
C4813 C4814 1.387 . S
C4813 H4816 0.950 . S
C4814 C4813 1.387 . S
C4814 C4817 1.387 . S
H4815 C4811 0.950 . S
H4816 C4813 0.950 . S
C4817 C4808 1.390 . S
C4817 H4810 0.950 . S
C4817 C4814 1.387 . S
C4818 C4819 1.387 . S
C4818 H4822 0.950 . S
C4818 C4827 1.390 . S
C4819 C4818 1.387 . S
C4819 C4821 1.387 . S
H4820 C4827 0.950 . S
C4821 C4819 1.387 . S
C4821 C4823 1.390 . S
C4821 H4825 0.950 . S
H4822 C4818 0.950 . S
C4823 C4821 1.390 . S
C4823 C4824 1.387 . S
C4823 H4826 0.950 . S
C4824 C4823 1.387 . S
C4824 C4827 1.387 . S
H4825 C4821 0.950 . S
H4826 C4823 0.950 . S
C4827 C4818 1.390 . S
C4827 H4820 0.950 . S
C4827 C4824 1.387 . S
C4828 C4829 1.387 . S
C4828 H4832 0.950 . S
C4828 C4837 1.390 . S
C4829 C4828 1.387 . S
C4829 C4831 1.387 . S
H4830 C4837 0.950 . S
C4831 C4829 1.387 . S
C4831 C4833 1.390 . S
C4831 H4835 0.950 . S
H4832 C4828 0.950 . S
C4833 C4831 1.390 . S
C4833 C4834 1.387 . S
C4833 H4836 0.950 . S
C4834 C4833 1.387 . S
C4834 C4837 1.387 . S
H4835 C4831 0.950 . S
H4836 C4833 0.950 . S
C4837 C4828 1.390 . S
C4837 H4830 0.950 . S
C4837 C4834 1.387 . S
C4838 C4839 1.387 . S
C4838 H4842 0.950 . S
C4838 C4847 1.390 . S
C4839 C4838 1.387 . S
C4839 C4841 1.387 . S
H4840 C4847 0.950 . S
C4841 C4839 1.387 . S
C4841 C4843 1.390 . S
C4841 H4845 0.950 . S
H4842 C4838 0.950 . S
C4843 C4841 1.390 . S
C4843 C4844 1.387 . S
C4843 H4846 0.950 . S
C4844 C4843 1.387 . S
C4844 C4847 1.387 . S
H4845 C4841 0.950 . S
H4846 C4843 0.950 . S
C4847 C4838 1.390 . S
C4847 H4840 0.950 . S
C4847 C4844 1.387 . S
C4848 C4849 1.387 . S
C4848 H4852 0.950 . S
C4848 C4857 1.390 . S
C4849 C4848 1.387 . S
C4849 C4851 1.387 . S
H4850 C4857 0.950 . S
C4851 C4849 1.387 . S
C4851 C4853 1.390 . S
C4851 H4855 0.950 . S
H4852 C4848 0.950 . S
C4853 C4851 1.390 . S
C4853 C4854 1.387 . S
C4853 H4856 0.950 . S
C4854 C4853 1.387 . S
C4854 C4857 1.387 . S
H4855 C4851 0.950 . S
H4856 C4853 0.950 . S
C4857 C4848 1.390 . S
C4857 H4850 0.950 . S
C4857 C4854 1.387 . S
C4858 C4859 1.387 . S
C4858 H4862 0.950 . S
C4858 C4867 1.390 . S
C4859 C4858 1.387 . S
C4859 C4861 1.387 . S
H4860 C4867 0.950 . S
C4861 C4859 1.387 . S
C4861 C4863 1.390 . S
C4861 H4865 0.950 . S
H4862 C4858 0.950 . S
C4863 C4861 1.390 . S
C4863 C4864 1.387 . S
C4863 H4866 0.950 . S
C4864 C4863 1.387 . S
C4864 C4867 1.387 . S
H4865 C4861 0.950 . S
H4866 C4863 0.950 . S
C4867 C4858 1.390 . S
C4867 H4860 0.950 . S
C4867 C4864 1.387 . S
C4868 C4869 1.387 . S
C4868 H4872 0.950 . S
C4868 C4877 1.390 . S
C4869 C4868 1.387 . S
C4869 C4871 1.387 . S
H4870 C4877 0.950 . S
C4871 C4869 1.387 . S
C4871 C4873 1.390 . S
C4871 H4875 0.950 . S
H4872 C4868 0.950 . S
C4873 C4871 1.390 . S
C4873 C4874 1.387 . S
C4873 H4876 0.950 . S
C4874 C4873 1.387 . S
C4874 C4877 1.387 . S
H4875 C4871 0.950 . S
H4876 C4873 0.950 . S
C4877 C4868 1.390 . S
C4877 H4870 0.950 . S
C4877 C4874 1.387 . S
C4878 C4879 1.387 . S
C4878 H4882 0.950 . S
C4878 C4887 1.390 . S
C4879 C4878 1.387 . S
C4879 C4881 1.387 . S
H4880 C4887 0.950 . S
C4881 C4879 1.387 . S
C4881 C4883 1.390 . S
C4881 H4885 0.950 . S
H4882 C4878 0.950 . S
C4883 C4881 1.390 . S
C4883 C4884 1.387 . S
C4883 H4886 0.950 . S
C4884 C4883 1.387 . S
C4884 C4887 1.387 . S
H4885 C4881 0.950 . S
H4886 C4883 0.950 . S
C4887 C4878 1.390 . S
C4887 H4880 0.950 . S
C4887 C4884 1.387 . S
C4888 C4889 1.387 . S
C4888 H4892 0.950 . S
C4888 C4897 1.390 . S
C4889 C4888 1.387 . S
C4889 C4891 1.387 . S
H4890 C4897 0.950 . S
C4891 C4889 1.387 . S
C4891 C4893 1.390 . S
C4891 H4895 0.950 . S
H4892 C4888 0.950 . S
C4893 C4891 1.390 . S
C4893 C4894 1.387 . S
C4893 H4896 0.950 . S
C4894 C4893 1.387 . S
C4894 C4897 1.387 . S
H4895 C4891 0.950 . S
H4896 C4893 0.950 . S
C4897 C4888 1.390 . S
C4897 H4890 0.950 . S
C4897 C4894 1.387 . S
C4898 C4899 1.387 . S
C4898 H4902 0.950 . S
C4898 C4907 1.390 . S
C4899 C4898 1.387 . S
C4899 C4901 1.387 . S
H4900 C4907 0.950 . S
C4901 C4899 1.387 . S
C4901 C4903 1.390 . S
C4901 H4905 0.950 . S
H4902 C4898 0.950 . S
C4903 C4901 1.390 . S
C4903 C4904 1.387 . S
C4903 H4906 0.950 . S
C4904 C4903 1.387 . S
C4904 C4907 1.387 . S
H4905 C4901 0.950 . S
H4906 C4903 0.950 . S
C4907 C4898 1.390 . S
C4907 H4900 0.950 . S
C4907 C4904 1.387 . S
C4908 C4909 1.387 . S
C4908 H4912 0.950 . S
C4908 C4917 1.390 . S
C4909 C4908 1.387 . S
C4909 C4911 1.387 . S
H4910 C4917 0.950 . S
C4911 C4909 1.387 . S
C4911 C4913 1.390 . S
C4911 H4915 0.950 . S
H4912 C4908 0.950 . S
C4913 C4911 1.390 . S
C4913 C4914 1.387 . S
C4913 H4916 0.950 . S
C4914 C4913 1.387 . S
C4914 C4917 1.387 . S
H4915 C4911 0.950 . S
H4916 C4913 0.950 . S
C4917 C4908 1.390 . S
C4917 H4910 0.950 . S
C4917 C4914 1.387 . S
C4918 C4919 1.387 . S
C4918 H4922 0.950 . S
C4918 C4927 1.390 . S
C4919 C4918 1.387 . S
C4919 C4921 1.387 . S
H4920 C4927 0.950 . S
C4921 C4919 1.387 . S
C4921 C4923 1.390 . S
C4921 H4925 0.950 . S
H4922 C4918 0.950 . S
C4923 C4921 1.390 . S
C4923 C4924 1.387 . S
C4923 H4926 0.950 . S
C4924 C4923 1.387 . S
C4924 C4927 1.387 . S
H4925 C4921 0.950 . S
H4926 C4923 0.950 . S
C4927 C4918 1.390 . S
C4927 H4920 0.950 . S
C4927 C4924 1.387 . S
C4928 C4929 1.387 . S
C4928 H4932 0.950 . S
C4928 C4937 1.390 . S
C4929 C4928 1.387 . S
C4929 C4931 1.387 . S
H4930 C4937 0.950 . S
C4931 C4929 1.387 . S
C4931 C4933 1.390 . S
C4931 H4935 0.950 . S
H4932 C4928 0.950 . S
C4933 C4931 1.390 . S
C4933 C4934 1.387 . S
C4933 H4936 0.950 . S
C4934 C4933 1.387 . S
C4934 C4937 1.387 . S
H4935 C4931 0.950 . S
H4936 C4933 0.950 . S
C4937 C4928 1.390 . S
C4937 H4930 0.950 . S
C4937 C4934 1.387 . S
C4938 C4939 1.387 . S
C4938 H4942 0.950 . S
C4938 C4947 1.390 . S
C4939 C4938 1.387 . S
C4939 C4941 1.387 . S
H4940 C4947 0.950 . S
C4941 C4939 1.387 . S
C4941 C4943 1.390 . S
C4941 H4945 0.950 . S
H4942 C4938 0.950 . S
C4943 C4941 1.390 . S
C4943 C4944 1.387 . S
C4943 H4946 0.950 . S
C4944 C4943 1.387 . S
C4944 C4947 1.387 . S
H4945 C4941 0.950 . S
H4946 C4943 0.950 . S
C4947 C4938 1.390 . S
C4947 H4940 0.950 . S
C4947 C4944 1.387 . S
C4948 C4949 1.387 . S
C4948 H4952 0.950 . S
C4948 C4957 1.390 . S
C4949 C4948 1.387 . S
C4949 C4951 1.387 . S
H4950 C4957 0.950 . S
C4951 C4949 1.387 . S
C4951 C4953 1.390 . S
C4951 H4955 0.950 . S
H4952 C4948 0.950 . S
C4953 C4951 1.390 . S
C4953 C4954 1.387 . S
C4953 H4956 0.950 . S
C4954 C4953 1.387 . S
C4954 C4957 1.387 . S
H4955 C4951 0.950 . S
H4956 C4953 0.950 . S
C4957 C4948 1.390 . S
C4957 H4950 0.950 . S
C4957 C4954 1.387 . S
C4958 C4959 1.387 . S
C4958 H4962 0.950 . S
C4958 C4967 1.390 . S
C4959 C4958 1.387 . S
C4959 C4961 1.387 . S
H4960 C4967 0.950 . S
C4961 C4959 1.387 . S
C4961 C4963 1.390 . S
C4961 H4965 0.950 . S
H4962 C4958 0.950 . S
C4963 C4961 1.390 . S
C4963 C4964 1.387 . S
C4963 H4966 0.950 . S
C4964 C4963 1.387 . S
C4964 C4967 1.387 . S
H4965 C4961 0.950 . S
H4966 C4963 0.950 . S
C4967 C4958 1.390 . S
C4967 H4960 0.950 . S
C4967 C4964 1.387 . S
C4968 C4969 1.387 . S
C4968 H4972 0.950 . S
C4968 C4977 1.390 . S
C4969 C4968 1.387 . S
C4969 C4971 1.387 . S
H4970 C4977 0.950 . S
C4971 C4969 1.387 . S
C4971 C4973 1.390 . S
C4971 H4975 0.950 . S
H4972 C4968 0.950 . S
C4973 C4971 1.390 . S
C4973 C4974 1.387 . S
C4973 H4976 0.950 . S
C4974 C4973 1.387 . S
C4974 C4977 1.387 . S
H4975 C4971 0.950 . S
H4976 C4973 0.950 . S
C4977 C4968 1.390 . S
C4977 H4970 0.950 . S
C4977 C4974 1.387 . S
C4978 C4979 1.387 . S
C4978 H4982 0.950 . S
C4978 C4987 1.390 . S
C4979 C4978 1.387 . S
C4979 C4981 1.387 . S
H4980 C4987 0.950 . S
C4981 C4979 1.387 . S
C4981 C4983 1.390 . S
C4981 H4985 0.950 . S
H4982 C4978 0.950 . S
C4983 C4981 1.390 . S
C4983 C4984 1.387 . S
C4983 H4986 0.950 . S
C4984 C4983 1.387 . S
C4984 C4987 1.387 . S
H4985 C4981 0.950 . S
H4986 C4983 0.950 . S
C4987 C4978 1.390 . S
C4987 H4980 0.950 . S
C4987 C4984 1.387 . S
C4988 C4989 1.387 . S
C4988 H4992 0.950 . S
C4988 C4997 1.390 . S
C4989 C4988 1.387 . S
C4989 C4991 1.387 . S
H4990 C4997 0.950 . S
C4991 C4989 1.387 . S
C4991 C4993 1.390 . S
C4991 H4995 0.950 . S
H4992 C4988 0.950 . S
C4993 C4991 1.390 . S
C4993 C4994 1.387 . S
C4993 H4996 0.950 . S
C4994 C4993 1.387 . S
C4994 C4997 1.387 . S
H4995 C4991 0.950 . S
H4996 C4993 0.950 . S
C4997 C4988 1.390 . S
C4997 H4990 0.950 . S
C4997 C4994 1.387 . S
C4998 C4999 1.387 . S
C4998 H5002 0.950 . S
C4998 C5007 1.390 . S
C4999 C4998 1.387 . S
C4999 C5001 1.387 . S
H5000 C5007 0.950 . S
C5001 C4999 1.387 . S
C5001 C5003 1.390 . S
C5001 H5005 0.950 . S
H5002 C4998 0.950 . S
C5003 C5001 1.390 . S
C5003 C5004 1.387 . S
C5003 H5006 0.950 . S
C5004 C5003 1.387 . S
C5004 C5007 1.387 . S
H5005 C5001 0.950 . S
H5006 C5003 0.950 . S
C5007 C4998 1.390 . S
C5007 H5000 0.950 . S
C5007 C5004 1.387 . S
C5008 C5009 1.387 . S
C5008 H5012 0.950 . S
C5008 C5017 1.390 . S
C5009 C5008 1.387 . S
C5009 C5011 1.387 . S
H5010 C5017 0.950 . S
C5011 C5009 1.387 . S
C5011 C5013 1.390 . S
C5011 H5015 0.950 . S
H5012 C5008 0.950 . S
C5013 C5011 1.390 . S
C5013 C5014 1.387 . S
C5013 H5016 0.950 . S
C5014 C5013 1.387 . S
C5014 C5017 1.387 . S
H5015 C5011 0.950 . S
H5016 C5013 0.950 . S
C5017 C5008 1.390 . S
C5017 H5010 0.950 . S
C5017 C5014 1.387 . S
C5018 C5019 1.387 . S
C5018 H5022 0.950 . S
C5018 C5027 1.390 . S
C5019 C5018 1.387 . S
C5019 C5021 1.387 . S
H5020 C5027 0.950 . S
C5021 C5019 1.387 . S
C5021 C5023 1.390 . S
C5021 H5025 0.950 . S
H5022 C5018 0.950 . S
C5023 C5021 1.390 . S
C5023 C5024 1.387 . S
C5023 H5026 0.950 . S
C5024 C5023 1.387 . S
C5024 C5027 1.387 . S
H5025 C5021 0.950 . S
H5026 C5023 0.950 . S
C5027 C5018 1.390 . S
C5027 H5020 0.950 . S
C5027 C5024 1.387 . S
C5028 C5029 1.387 . S
C5028 H5032 0.950 . S
C5028 C5037 1.390 . S
C5029 C5028 1.387 . S
C5029 C5031 1.387 . S
H5030 C5037 0.950 . S
C5031 C5029 1.387 . S
C5031 C5033 1.390 . S
C5031 H5035 0.950 . S
H5032 C5028 0.950 . S
C5033 C5031 1.390 . S
C5033 C5034 1.387 . S
C5033 H5036 0.950 . S
C5034 C5033 1.387 . S
C5034 C5037 1.387 . S
H5035 C5031 0.950 . S
H5036 C5033 0.950 . S
C5037 C5028 1.390 . S
C5037 H5030 0.950 . S
C5037 C5034 1.387 . S
C5038 C5039 1.387 . S
C5038 H5042 0.950 . S
C5038 C5047 1.390 . S
C5039 C5038 1.387 . S
C5039 C5041 1.387 . S
H5040 C5047 0.950 . S
C5041 C5039 1.387 . S
C5041 C5043 1.390 . S
C5041 H5045 0.950 . S
H5042 C5038 0.950 . S
C5043 C5041 1.390 . S
C5043 C5044 1.387 . S
C5043 H5046 0.950 . S
C5044 C5043 1.387 . S
C5044 C5047 1.387 . S
H5045 C5041 0.950 . S
H5046 C5043 0.950 . S
C5047 C5038 1.390 . S
C5047 H5040 0.950 . S
C5047 C5044 1.387 . S
C5048 C5049 1.387 . S
C5048 H5052 0.950 . S
C5048 C5057 1.390 . S
C5049 C5048 1.387 . S
C5049 C5051 1.387 . S
H5050 C5057 0.950 . S
C5051 C5049 1.387 . S
C5051 C5053 1.390 . S
C5051 H5055 0.950 . S
H5052 C5048 0.950 . S
C5053 C5051 1.390 . S
C5053 C5054 1.387 . S
C5053 H5056 0.950 . S
C5054 C5053 1.387 . S
C5054 C5057 1.387 . S
H5055 C5051 0.950 . S
H5056 C5053 0.950 . S
C5057 C5048 1.390 . S
C5057 H5050 0.950 . S
C5057 C5054 1.387 . S
C5058 C5059 1.387 . S
C5058 H5062 0.950 . S
C5058 C5067 1.390 . S
C5059 C5058 1.387 . S
C5059 C5061 1.387 . S
H5060 C5067 0.950 . S
C5061 C5059 1.387 . S
C5061 C5063 1.390 . S
C5061 H5065 0.950 . S
H5062 C5058 0.950 . S
C5063 C5061 1.390 . S
C5063 C5064 1.387 . S
C5063 H5066 0.950 . S
C5064 C5063 1.387 . S
C5064 C5067 1.387 . S
H5065 C5061 0.950 . S
H5066 C5063 0.950 . S
C5067 C5058 1.390 . S
C5067 H5060 0.950 . S
C5067 C5064 1.387 . S
C5068 C5069 1.387 . S
C5068 H5072 0.950 . S
C5068 C5077 1.390 . S
C5069 C5068 1.387 . S
C5069 C5071 1.387 . S
H5070 C5077 0.950 . S
C5071 C5069 1.387 . S
C5071 C5073 1.390 . S
C5071 H5075 0.950 . S
H5072 C5068 0.950 . S
C5073 C5071 1.390 . S
C5073 C5074 1.387 . S
C5073 H5076 0.950 . S
C5074 C5073 1.387 . S
C5074 C5077 1.387 . S
H5075 C5071 0.950 . S
H5076 C5073 0.950 . S
C5077 C5068 1.390 . S
C5077 H5070 0.950 . S
C5077 C5074 1.387 . S
C5078 C5079 1.387 . S
C5078 H5082 0.950 . S
C5078 C5087 1.390 . S
C5079 C5078 1.387 . S
C5079 C5081 1.387 . S
H5080 C5087 0.950 . S
C5081 C5079 1.387 . S
C5081 C5083 1.390 . S
C5081 H5085 0.950 . S
H5082 C5078 0.950 . S
C5083 C5081 1.390 . S
C5083 C5084 1.387 . S
C5083 H5086 0.950 . S
C5084 C5083 1.387 . S
C5084 C5087 1.387 . S
H5085 C5081 0.950 . S
H5086 C5083 0.950 . S
C5087 C5078 1.390 . S
C5087 H5080 0.950 . S
C5087 C5084 1.387 . S
C3649 C1781 1.780 . S
C3654 C1951 1.710 . S
C3659 C981 1.791 . S
C3664 C1987 1.758 . S
C3674 C2023 1.734 . S
C3669 C1861 1.696 . S
C3679 C1061 1.716 . S
C3684 C2059 1.714 . S
C3689 C1901 1.785 . S
C3694 C2095 1.714 . S
C3699 C941 1.777 . S
C3704 C2131 1.705 . S
C3709 C1821 1.715 . S
C3714 C2167 1.717 . S
C3719 C1021 1.700 . S
C3724 C2203 1.738 . S
C3729 C661 1.779 . S
C3734 C2239 1.711 . S
C3739 C1621 1.721 . S
C3744 C2275 1.722 . S
C3749 C741 1.774 . S
C3754 C2311 1.701 . S
C3759 C1581 1.790 . S
C3764 C2347 1.720 . S
C3769 C901 1.702 . S
C3774 C2383 1.739 . S
C3784 C2419 1.715 . S
C3779 C1661 1.712 . S
C3794 C2455 1.717 . S
C3789 C821 1.785 . S
C3799 C1141 1.703 . S
C3804 C2491 1.740 . S
C3814 C2527 1.714 . S
C3809 C781 1.710 . S
C3824 C2563 1.719 . S
C3819 C1701 1.787 . S
C3829 C861 1.707 . S
C3834 C2599 1.744 . S
C3839 C1181 1.769 . S
C3844 C2635 1.698 . S
C3854 C2671 1.715 . S
C3849 C1101 1.784 . S
C3859 C1421 1.761 . S
C3864 C2707 1.674 . S
C3874 C2743 1.691 . S
C3869 C381 1.705 . S
C3884 C2779 1.698 . S
C3879 C1501 1.709 . S
C3894 C2815 1.707 . S
C3889 C461 1.793 . S
C3904 C2851 1.704 . S
C3899 C1541 1.790 . S
C3909 C341 1.758 . S
C3914 C2887 1.673 . S
C3924 C2923 1.692 . S
C3919 C1461 1.708 . S
C3929 C421 1.713 . S
C3934 C2959 1.705 . S
C3944 C2995 1.697 . S
C3939 C61 1.783 . S
C3954 C3031 1.705 . S
C3949 C1261 1.788 . S
C3959 C141 1.788 . S
C3964 C3067 1.700 . S
C3974 C3103 1.688 . S
C3969 C1221 1.701 . S
C3984 C3139 1.783 . S
C3979 C301 1.729 . S
C3989 C1301 1.710 . S
C3994 C3175 1.761 . S
C4004 C3211 1.703 . S
C3999 C221 1.787 . S
C4014 C3247 1.748 . S
C4009 C541 1.695 . S
C4019 C181 1.707 . S
C4024 C3283 1.757 . S
C4034 C3319 1.718 . S
C4029 C1341 1.803 . S
C4039 C261 1.699 . S
C4044 C3355 1.752 . S
C4054 C3391 1.707 . S
C4049 C581 1.795 . S
C4059 C501 1.776 . S
C4064 C3427 1.690 . S
C4069 C701 1.723 . S
C4074 C3463 1.727 . S
C4084 C3499 1.718 . S
C4079 C621 1.789 . S
C4089 C1741 1.699 . S
C4094 C3535 1.735 . S
C4099 C101 1.792 . S
C4104 C3571 1.710 . S
C4114 C3607 1.684 . S
C4109 C21 1.699 . S
C4124 C3643 1.769 . S
C4119 C1381 1.715 . S
C4129 C1335 1.658 . S
C4134 C1921 1.617 . S
C4139 C535 2.278 . S
C4144 C1957 2.319 . S
C4149 C1362 1.597 . S
C4154 C2017 1.634 . S
C4164 C2053 2.155 . S
C4159 C1295 2.243 . S
C4169 C575 1.650 . S
C4174 C2065 1.609 . S
C4179 C1215 2.258 . S
C4184 C2125 2.166 . S
C4194 C2137 1.604 . S
C4189 C495 1.643 . S
C4199 C1242 2.354 . S
C4204 C2173 2.287 . S
C4209 C1255 1.641 . S
C4214 C2209 1.603 . S
C4224 C2269 2.176 . S
C4219 C562 2.373 . S
C4229 C1202 1.603 . S
C4234 C2281 1.595 . S
C4244 C2341 2.191 . S
C4239 C482 2.394 . S
C4249 C522 1.589 . S
C4254 C2377 1.622 . S
C4259 C1375 2.259 . S
C4264 C2413 2.171 . S
C4274 C2425 1.590 . S
C4269 C1282 1.590 . S
C4284 C2461 2.314 . S
C4279 C1322 2.384 . S
C4289 C455 1.664 . S
C4294 C2317 1.618 . S
C4299 C1415 1.639 . S
C4304 C2497 1.593 . S
C4309 C1455 2.259 . S
C4314 C2557 2.173 . S
C4324 C2593 1.625 . S
C4319 C1482 1.587 . S
C4334 C2353 2.274 . S
C4329 C442 2.341 . S
C4339 C362 1.592 . S
C4344 C2245 1.590 . S
C4349 C1495 2.271 . S
C4354 C2629 2.180 . S
C4364 C2665 2.150 . S
C4359 C1402 2.350 . S
C4374 C2677 2.184 . S
C4369 C1695 2.252 . S
C4379 C1135 1.648 . S
C4384 C2737 1.597 . S
C4394 C2749 2.201 . S
C4389 C1722 2.201 . S
C4404 C2809 1.594 . S
C4399 C1655 1.635 . S
C4409 C1175 2.262 . S
C4414 C2821 2.197 . S
C4419 C1562 1.642 . S
C4424 C2881 1.573 . S
C4429 C1095 2.289 . S
C4434 C2893 2.214 . S
C4444 C2953 1.613 . S
C4439 C1615 1.662 . S
C4454 C2965 2.219 . S
C4449 C1602 2.212 . S
C4459 C1162 1.633 . S
C4464 C3025 1.567 . S
C4474 C3037 2.204 . S
C4469 C1575 2.273 . S
C4479 C1082 1.662 . S
C4484 C3097 1.592 . S
C4494 C3133 2.319 . S
C4489 C1122 2.222 . S
C4499 C1735 1.633 . S
C4504 C3145 1.633 . S
C4514 C3181 2.208 . S
C4509 C1642 2.197 . S
C4519 C1682 1.658 . S
C4524 C3217 1.639 . S
C4529 C1042 2.198 . S
C4534 C3073 2.199 . S
C4539 C1775 2.284 . S
C4544 C3277 2.306 . S
C4549 C1815 1.638 . S
C4554 C3313 1.592 . S
C4564 C3349 2.300 . S
C4559 C1842 2.200 . S
C4569 C1055 1.656 . S
C4574 C3109 1.654 . S
C4579 C975 2.262 . S
C4584 C3001 2.199 . S
C4594 C3385 1.587 . S
C4589 C1855 1.631 . S
C4599 C1762 1.649 . S
C4604 C3421 1.580 . S
C4614 C2101 1.613 . S
C4609 C215 1.655 . S
C4624 C2161 2.162 . S
C4619 C255 2.248 . S
C4634 C2197 1.635 . S
C4629 C282 1.599 . S
C4644 C2089 2.184 . S
C4639 C175 2.273 . S
C4654 C2029 1.595 . S
C4649 C135 1.631 . S
C4659 C15 2.250 . S
C4664 C1945 2.159 . S
C4669 C55 1.660 . S
C4674 C1981 1.655 . S
C4679 C82 2.364 . S
C4684 C1993 2.295 . S
C4689 C95 1.651 . S
C4694 C2641 1.612 . S
C4699 C122 2.374 . S
C4704 C3457 2.178 . S
C4709 C2 1.594 . S
C4714 C2605 1.586 . S
C4719 C42 2.395 . S
C4724 C3493 2.190 . S
C4729 C242 1.580 . S
C4734 C3529 1.618 . S
C4744 C2521 2.188 . S
C4739 C295 2.278 . S
C4749 C162 1.594 . S
C4754 C2533 1.595 . S
C4759 C202 2.361 . S
C4764 C2569 2.293 . S
C4774 C3469 1.612 . S
C4769 C1535 1.659 . S
C4779 C335 1.627 . S
C4784 C2389 1.583 . S
C4789 C375 2.258 . S
C4794 C2449 2.173 . S
C4799 C402 1.602 . S
C4804 C2485 1.635 . S
C4814 C3505 2.271 . S
C4809 C1522 2.339 . S
C4824 C3433 1.593 . S
C4819 C1442 1.596 . S
C4834 C2305 2.185 . S
C4829 C415 2.275 . S
C4839 C322 2.347 . S
C4844 C2233 2.147 . S
C4849 C815 2.247 . S
C4854 C2857 2.179 . S
C4859 C855 1.649 . S
C4864 C2917 1.597 . S
C4869 C882 2.203 . S
C4874 C2929 2.203 . S
C4879 C775 1.636 . S
C4884 C2845 1.593 . S
C4894 C2785 2.193 . S
C4889 C735 2.257 . S
C4904 C2701 1.578 . S
C4899 C602 1.645 . S
C4914 C2713 2.217 . S
C4909 C655 2.293 . S
C4919 C695 1.660 . S
C4924 C2773 1.613 . S
C4934 C3397 2.214 . S
C4929 C682 2.207 . S
C4939 C722 1.643 . S
C4944 C3565 1.577 . S
C4949 C615 2.279 . S
C4954 C3361 2.209 . S
C4964 C3601 1.582 . S
C4959 C642 1.650 . S
C4969 C842 2.217 . S
C4974 C3637 2.314 . S
C4984 C3253 1.636 . S
C4979 C895 1.637 . S
C4989 C762 2.207 . S
C4994 C3289 2.216 . S
C4999 C802 1.655 . S
C5004 C3325 1.635 . S
C5009 C1895 2.271 . S
C5014 C3577 2.200 . S
C5024 C3169 2.307 . S
C5019 C935 2.284 . S
C5029 C962 1.656 . S
C5034 C3205 1.590 . S
C5039 C1002 2.199 . S
C5044 C3241 2.296 . S
C5049 C1882 1.669 . S
C5054 C3613 1.648 . S
C5059 C1802 2.180 . S
C5064 C3541 2.191 . S
C5074 C3061 1.583 . S
C5069 C1015 1.628 . S
C5084 C2989 1.584 . S
C5079 C922 1.653 . S
