# Generated by pormake.
# Topology tsx, (6,3)-cn, num edge types: 1
# Building blocks:
#     Node 0, Type 0, BuildingBlock: JUFBIX_clean_sbu_0, # of connection points: 6
#     Node 1, Type 0, BuildingBlock: JUFBIX_clean_sbu_0, # of connection points: 6
#     Node 2, Type 1, BuildingBlock: VETTIZ_charged_linker_0, # of connection points: 3
#     Node 3, Type 1, BuildingBlock: VETTIZ_charged_linker_0, # of connection points: 3
#     Node 4, Type 1, BuildingBlock: VETTIZ_charged_linker_0, # of connection points: 3
#     Node 5, Type 1, BuildingBlock: VETTIZ_charged_linker_0, # of connection points: 3
#     Edge 6, Type (0, 1), BuildingBlock: ZUJKAS_clean_linker_0, # of connection points: 2
#     Edge 7, Type (0, 1), BuildingBlock: ZUJKAS_clean_linker_0, # of connection points: 2
#     Edge 8, Type (0, 1), BuildingBlock: ZUJKAS_clean_linker_0, # of connection points: 2
#     Edge 9, Type (0, 1), BuildingBlock: ZUJKAS_clean_linker_0, # of connection points: 2
#     Edge 10, Type (0, 1), BuildingBlock: ZUJKAS_clean_linker_0, # of connection points: 2
#     Edge 11, Type (0, 1), BuildingBlock: ZUJKAS_clean_linker_0, # of connection points: 2
#     Edge 12, Type (0, 1), BuildingBlock: ZUJKAS_clean_linker_0, # of connection points: 2
#     Edge 13, Type (0, 1), BuildingBlock: ZUJKAS_clean_linker_0, # of connection points: 2
#     Edge 14, Type (0, 1), BuildingBlock: ZUJKAS_clean_linker_0, # of connection points: 2
#     Edge 15, Type (0, 1), BuildingBlock: ZUJKAS_clean_linker_0, # of connection points: 2
#     Edge 16, Type (0, 1), BuildingBlock: ZUJKAS_clean_linker_0, # of connection points: 2
#     Edge 17, Type (0, 1), BuildingBlock: ZUJKAS_clean_linker_0, # of connection points: 2
# Relax obj value: 0.163
# Max RMSD: 0.168
# Mean RMSD: 0.135
data_MOF--net-tsx--node1-JUFBIX_clean_sbu_0--node2-VETTIZ_charged_linker_0--edge1-ZUJKAS_clean_linker_0
_symmetry_space_group_name_H-M    P1
_symmetry_Int_Tables_number       1
_symmetry_cell_setting            triclinic
loop_
_symmetry_equiv_pos_as_xyz
'x, y, z'
_cell_length_a     29.153627
_cell_length_b     34.465876
_cell_length_c     54.742407
_cell_angle_alpha  92.264428
_cell_angle_beta   89.613382
_cell_angle_gamma 96.349818
loop_
_atom_site_label
_atom_site_type_symbol
_atom_site_fract_x
_atom_site_fract_y
_atom_site_fract_z
_atom_type_partial_charge
Co0 Co 0.05035 0.9941 0.00045 0.0
C1 C 1.00091 0.01975 0.96144 0.0
Co2 Co 0.99434 0.02995 0.01101 0.0
C3 C 0.11292 0.93331 -0.00159 0.0
C4 C 0.12691 0.97591 0.97115 0.0
N5 N 0.09829 0.96614 0.98989 0.0
N6 N 0.14975 0.92235 0.98573 0.0
C7 C 0.15834 0.94918 0.96853 0.0
H8 H 0.09719 0.91814 0.01381 0.0
H9 H 0.12502 1.00096 0.96005 0.0
C10 C 0.04285 0.00466 0.05017 0.0
N11 N 0.9467 0.05796 0.02176 0.0
C12 C 0.93244 0.09086 0.0132 0.0
C13 C 0.91887 0.0491 0.041 0.0
N14 N 0.89704 0.10296 0.0265 0.0
C15 C 0.88849 0.07667 0.04398 0.0
C16 C 0.96718 0.94948 0.00682 0.0
O17 O 0.06592 0.98788 0.03388 0.0
O18 O 0.01113 0.02441 0.04366 0.0
O19 O 0.95394 0.98277 0.01202 0.0
O20 O 0.00907 0.94725 0.00084 0.0
O21 O 0.97791 0.03539 0.97818 0.0
H22 H 0.92056 0.02409 0.05217 0.0
H23 H 0.94814 0.10587 -0.00227 0.0
O24 O 0.03384 1.00062 0.96727 0.0
O25 O 0.09119 0.04148 8e-05 0.0
O26 O 0.03514 0.07671 0.00996 0.0
C27 C 0.07737 0.07477 0.00463 0.0
H28 H 0.18503 0.94932 0.9547 0.0
H29 H 0.8616 0.0769 0.0577 0.0
Co30 Co 0.54509 0.49216 0.49822 0.0
C31 C 0.49814 0.51946 0.45879 0.0
Co32 Co 0.48918 0.52838 0.50828 0.0
C33 C 0.60748 0.43133 0.49682 0.0
C34 C 0.62286 0.47412 0.46979 0.0
N35 N 0.59323 0.46416 0.48808 0.0
N36 N 0.64506 0.42061 0.48474 0.0
C37 C 0.65455 0.44753 0.46768 0.0
H38 H 0.59108 0.41608 0.51203 0.0
H39 H 0.62162 0.49931 0.45873 0.0
C40 C 0.53533 0.50153 0.54787 0.0
N41 N 0.44137 0.55638 0.51876 0.0
C42 C 0.42848 0.59028 0.51096 0.0
C43 C 0.41223 0.54652 0.5373 0.0
N44 N 0.3927 0.60204 0.52411 0.0
C45 C 0.38245 0.57447 0.54066 0.0
C46 C 0.46139 0.44812 0.50317 0.0
O47 O 0.55889 0.4849 0.53175 0.0
O48 O 0.50432 0.52183 0.54112 0.0
O49 O 0.44843 0.48149 0.50839 0.0
O50 O 0.50342 0.44554 0.49765 0.0
O51 O 0.47441 0.53483 0.47532 0.0
H52 H 0.41276 0.52066 0.54783 0.0
H53 H 0.44554 0.60634 0.49624 0.0
O54 O 0.53041 0.4998 0.46492 0.0
O55 O 0.58634 0.53921 0.49887 0.0
O56 O 0.53039 0.57488 0.50812 0.0
C57 C 0.57278 0.57258 0.50342 0.0
H58 H 0.68218 0.44789 0.45437 0.0
H59 H 0.35493 0.57421 0.55405 0.0
C60 C 0.08621 0.91847 0.46892 0.0
C61 C 0.11141 0.88939 0.45841 0.0
C62 C 0.11508 0.88564 0.43282 0.0
C63 C 0.06891 0.93896 0.42833 0.0
C64 C 0.06482 0.94275 0.45345 0.0
C65 C 0.0343 0.97392 0.46093 0.0
H66 H 0.91101 0.11922 0.42567 0.0
C67 C 0.04298 0.96811 0.4173 0.0
C68 C 0.02216 0.9888 0.43617 0.0
H69 H 0.92578 0.08059 0.49897 0.0
H70 H 0.97246 0.03068 0.48363 0.0
H71 H 0.01559 0.11358 0.40812 0.0
H72 H 0.89106 0.03427 0.40142 0.0
H73 H 0.92101 0.03071 0.37365 0.0
H74 H 0.90139 0.07673 0.38338 0.0
H75 H 0.96919 0.12163 0.3882 0.0
H76 H 0.01424 0.09269 0.3783 0.0
C77 C 0.06313 0.00565 0.47676 0.0
C78 C 0.99154 0.95401 0.47416 0.0
C79 C 0.0476 0.97875 0.32522 0.0
C80 C 0.02867 1.00338 0.30912 0.0
C81 C 1.00211 0.03224 0.31878 0.0
C82 C 0.99448 0.03632 0.34404 0.0
C83 C 0.01364 0.01133 0.35989 0.0
C84 C 0.03967 0.98321 0.35033 0.0
C85 C 0.05763 0.95934 0.36971 0.0
C86 C 0.03797 0.97763 0.39258 0.0
C87 C 0.01226 0.00799 0.38678 0.0
C88 C 0.11115 0.96615 0.36903 0.0
C89 C 0.03686 0.91621 0.36515 0.0
C90 C 0.92473 0.10032 0.43849 0.0
C91 C 0.91546 0.10424 0.46361 0.0
C92 C 0.93276 0.07821 0.47956 0.0
C93 C 0.95989 0.04937 0.47061 0.0
C94 C 0.96933 0.04621 0.4454 0.0
C95 C 0.9512 0.07124 0.42983 0.0
C96 C 0.96263 0.06294 0.40351 0.0
C97 C 0.991 0.02903 0.40569 0.0
C98 C 0.9954 0.01938 0.43028 0.0
C99 C 0.99168 0.09954 0.39379 0.0
C100 C 0.91685 0.05076 0.38956 0.0
H101 H 0.0985 0.90564 0.39849 0.0
H102 H 0.08253 0.92164 0.48858 0.0
H103 H 0.98016 0.92484 0.46546 0.0
H104 H 0.96121 0.97038 0.47322 0.0
H105 H 0.99959 0.94964 0.49358 0.0
H106 H 0.0968 0.01448 0.46778 0.0
H107 H 0.07033 0.99441 0.4949 0.0
H108 H 0.04626 0.03255 0.47957 0.0
H109 H 0.06872 0.95665 0.31849 0.0
H110 H 0.9867 0.05136 0.30675 0.0
H111 H 0.97389 0.05874 0.35024 0.0
H112 H 0.12331 0.99657 0.36404 0.0
H113 H 0.12547 0.94609 0.35533 0.0
H114 H 0.12721 0.963 0.38696 0.0
H115 H 1.00235 0.91437 0.35633 0.0
H116 H 0.03045 0.90041 0.38225 0.0
H117 H 0.05938 0.90001 0.35296 0.0
H118 H 0.13471 0.86375 0.42437 0.0
C119 C 0.09412 0.91017 0.41779 0.0
C120 C 0.09123 0.11284 0.55419 0.0
C121 C 0.11615 0.14569 0.56594 0.0
C122 C 0.10371 0.15644 0.59003 0.0
C123 C 0.04603 0.1005 0.59108 0.0
C124 C 0.05622 0.09082 0.56708 0.0
C125 C 0.02531 0.05561 0.55746 0.0
H126 H 0.86634 0.90282 0.58264 0.0
C127 C 0.00955 0.07117 0.59971 0.0
C128 C 0.99657 0.0449 0.58003 0.0
H129 H 0.92347 0.93184 0.51196 0.0
H130 H 0.96712 0.99021 0.52993 0.0
H131 H 0.95811 0.92445 0.61362 0.0
H132 H 0.84386 0.98761 0.59704 0.0
H133 H 0.85922 1.00126 0.62736 0.0
H134 H 0.83979 0.95078 0.61945 0.0
H135 H 0.90198 0.91404 0.62703 0.0
H136 H 0.94484 0.94998 0.64064 0.0
C137 C 0.05592 0.02348 0.54955 0.0
C138 C 0.99569 0.06867 0.53661 0.0
C139 C 0.96848 0.07079 0.6901 0.0
C140 C 0.93978 0.04478 0.7042 0.0
C141 C 0.91249 0.01345 0.69224 0.0
C142 C 0.91483 0.00743 0.66684 0.0
C143 C 0.94504 0.03278 0.65314 0.0
C144 C 0.9707 0.06416 0.66474 0.0
C145 C 1.00139 0.08772 0.64729 0.0
C146 C 0.99026 0.06495 0.62331 0.0
C147 C 0.95748 0.03281 0.62692 0.0
C148 C 0.05206 0.08612 0.65527 0.0
C149 C 0.98624 0.12947 0.64713 0.0
C150 C 0.88864 0.92154 0.57106 0.0
C151 C 0.89264 0.91244 0.54601 0.0
C152 C 0.92065 0.93822 0.53139 0.0
C153 C 0.94579 0.97196 0.54187 0.0
C154 C 0.94213 0.98018 0.56719 0.0
C155 C 0.91309 0.95541 0.58113 0.0
C156 C 0.91116 0.96918 0.60738 0.0
C157 C 0.94396 0.00637 0.60712 0.0
C158 C 0.96276 0.01255 0.58367 0.0
C159 C 0.92961 0.93789 0.62318 0.0
C160 C 0.86097 0.97746 0.61336 0.0
H161 H 0.06165 0.14382 0.62088 0.0
H162 H 0.09923 0.10404 0.53559 0.0
H163 H 0.98739 0.09915 0.5401 0.0
H164 H 0.96179 0.05104 0.53494 0.0
H165 H 0.01427 0.06769 0.51886 0.0
H166 H 0.08 0.01859 0.56452 0.0
H167 H 0.07697 0.0322 0.53329 0.0
H168 H 0.036 0.99503 0.54519 0.0
H169 H 0.9894 0.0955 0.69864 0.0
H170 H 0.89047 0.99267 0.70261 0.0
H171 H 0.89379 0.98265 0.65897 0.0
H172 H 0.05744 0.05611 0.66057 0.0
H173 H 0.06097 0.10627 0.67129 0.0
H174 H 0.07744 0.0931 0.64065 0.0
H175 H 0.94926 0.12957 0.65228 0.0
H176 H 0.98879 0.14181 0.62874 0.0
H177 H 0.0068 0.14966 0.66026 0.0
H178 H 0.12076 0.18239 0.59928 0.0
C179 C 0.06899 0.13412 0.60258 0.0
C180 C 0.58884 0.4178 0.96682 0.0
C181 C 0.61393 0.38877 0.95612 0.0
C182 C 0.61755 0.38544 0.9305 0.0
C183 C 0.57136 0.43883 0.92638 0.0
C184 C 0.56746 0.44235 0.95152 0.0
C185 C 0.53731 0.47371 0.95921 0.0
H186 H 0.41519 0.62038 0.92483 0.0
C187 C 0.54545 0.46818 0.91553 0.0
C188 C 0.52504 0.48887 0.93454 0.0
H189 H 0.43014 0.58113 -0.00207 0.0
H190 H 0.47618 0.53086 0.98234 0.0
H191 H 0.51929 0.61359 0.90655 0.0
H192 H 0.39349 0.5357 0.90075 0.0
H193 H 0.42287 0.53116 0.87289 0.0
H194 H 0.40428 0.5777 0.88234 0.0
H195 H 0.47234 0.6223 0.88718 0.0
H196 H 0.51651 0.59291 0.87666 0.0
C197 C 0.56656 0.50515 0.97503 0.0
C198 C 0.49449 0.45403 0.9725 0.0
C199 C 0.54742 0.47838 0.82339 0.0
C200 C 0.52799 0.50293 0.80743 0.0
C201 C 0.50199 0.53202 0.8173 0.0
C202 C 0.49534 0.53638 0.84263 0.0
C203 C 0.5149 0.51142 0.85834 0.0
C204 C 0.54044 0.4831 0.84857 0.0
C205 C 0.55885 0.45924 0.86783 0.0
C206 C 0.53996 0.47772 0.89085 0.0
C207 C 0.51429 0.5082 0.88524 0.0
C208 C 0.61237 0.46584 0.86672 0.0
C209 C 0.53775 0.41616 0.86347 0.0
C210 C 0.42881 0.60124 0.93754 0.0
C211 C 0.4199 0.60512 0.96269 0.0
C212 C 0.43699 0.5788 0.9785 0.0
C213 C 0.46371 0.54975 0.9694 0.0
C214 C 0.47283 0.54665 0.94415 0.0
C215 C 0.45477 0.57191 0.92871 0.0
C216 C 0.46552 0.5635 0.90232 0.0
C217 C 0.4936 0.52936 0.9043 0.0
C218 C 0.49838 0.51963 0.92885 0.0
C219 C 0.49469 0.5999 0.89242 0.0
C220 C 0.41936 0.55163 0.88865 0.0
H221 H 0.60086 0.40591 0.89633 0.0
H222 H 0.58525 0.42074 0.98649 0.0
H223 H 0.48289 0.42486 0.96385 0.0
H224 H 0.46434 0.47061 0.9715 0.0
H225 H 0.50244 0.44969 0.99195 0.0
H226 H 0.60008 0.514 0.96589 0.0
H227 H 0.57408 0.49362 0.99304 0.0
H228 H 0.54985 0.53208 0.97812 0.0
H229 H 0.56814 0.45611 0.81649 0.0
H230 H 0.48621 0.55109 0.8054 0.0
H231 H 0.47513 0.55897 0.84898 0.0
H232 H 0.62455 0.496 0.86122 0.0
H233 H 0.62624 0.44522 0.85321 0.0
H234 H 0.62885 0.46333 0.88462 0.0
H235 H 0.50271 0.41449 0.85528 0.0
H236 H 0.53239 0.40026 0.88058 0.0
H237 H 0.55946 0.39999 0.85081 0.0
H238 H 0.63718 0.3637 0.92189 0.0
C239 C 0.59655 0.41019 0.91565 0.0
C240 C 0.59996 0.61028 0.05373 0.0
C241 C 0.62716 0.64118 0.0662 0.0
C242 C 0.61624 0.65046 0.09074 0.0
C243 C 0.55416 0.59777 0.09041 0.0
C244 C 0.56359 0.58911 0.06617 0.0
C245 C 0.53033 0.55595 0.0558 0.0
H246 H 0.34639 0.42068 0.07535 0.0
C247 C 0.51454 0.57066 0.09815 0.0
C248 C 0.49954 0.54642 0.07784 0.0
H249 H 0.42071 0.43933 0.00767 0.0
H250 H 0.47056 0.49279 0.02714 0.0
H251 H 0.43207 0.42637 0.1081 0.0
H252 H 0.34172 0.51153 0.09063 0.0
H253 H 0.35351 0.51802 0.12206 0.0
H254 H 0.3252 0.47191 0.1103 0.0
H255 H 0.37645 0.42737 0.12214 0.0
H256 H 0.42744 0.45496 0.13497 0.0
C257 C 0.55825 0.52186 0.04818 0.0
C258 C 0.50359 0.57136 0.03461 0.0
C259 C 0.46858 0.56908 0.18786 0.0
C260 C 0.43526 0.54538 0.20087 0.0
C261 C 0.40348 0.51869 0.18777 0.0
C262 C 0.40611 0.51442 0.16228 0.0
C263 C 0.44102 0.53693 0.14964 0.0
C264 C 0.47086 0.56431 0.16236 0.0
C265 C 0.50565 0.58569 0.14585 0.0
C266 C 0.49279 0.5655 0.12125 0.0
C267 C 0.45508 0.53699 0.12365 0.0
C268 C 0.55444 0.57801 0.15417 0.0
C269 C 0.49732 0.62944 0.1466 0.0
C270 C 0.3729 0.43665 0.06456 0.0
C271 C 0.37956 0.42606 0.0399 0.0
C272 C 0.4153 0.44695 0.02675 0.0
C273 C 0.44402 0.47794 0.0381 0.0
C274 C 0.43711 0.48787 0.06296 0.0
C275 C 0.40182 0.46723 0.07563 0.0
C276 C 0.39981 0.48041 0.10199 0.0
C277 C 0.43919 0.51292 0.10316 0.0
C278 C 0.46119 0.51738 0.08032 0.0
C279 C 0.40906 0.44564 0.11779 0.0
C280 C 0.35258 0.49609 0.10674 0.0
H281 H 0.57398 0.63762 0.12148 0.0
H282 H 0.60702 0.60247 0.03483 0.0
H283 H 0.4963 0.60197 0.03869 0.0
H284 H 0.46944 0.5547 0.03166 0.0
H285 H 0.52376 0.57098 0.01734 0.0
H286 H 0.58188 0.51607 0.06316 0.0
H287 H 0.57969 0.5291 0.03181 0.0
H288 H 0.53642 0.49414 0.04432 0.0
H289 H 0.49364 0.58975 0.19735 0.0
H290 H 0.3769 0.50064 0.1973 0.0
H291 H 0.38138 0.49313 0.15348 0.0
H292 H 0.5549 0.54677 0.15848 0.0
H293 H 0.56512 0.59598 0.17089 0.0
H294 H 0.58118 0.58372 0.14005 0.0
H295 H 0.46134 0.63353 0.15217 0.0
H296 H 0.50139 0.64237 0.1284 0.0
H297 H 0.52081 0.6469 0.15979 0.0
H298 H 0.63531 0.67481 0.10066 0.0
C299 C 0.58015 0.62901 0.10284 0.0
H300 H 0.0602 0.14995 0.01561 0.0
H301 H 0.11472 0.20908 0.0152 0.0
H302 H 0.22299 0.14068 0.99116 0.0
H303 H 0.16884 0.08117 0.99193 0.0
H304 H 0.24988 0.19128 0.0291 0.0
H305 H 0.16823 0.2701 0.95791 0.0
H306 H 0.12877 0.25498 0.98188 0.0
H307 H 0.15279 0.21874 0.96262 0.0
C308 C 0.09553 0.14745 0.01007 0.0
C309 C 0.11012 0.1108 0.00378 0.0
C310 C 0.12659 0.18137 0.00965 0.0
C311 C 0.17275 0.17944 0.00268 0.0
C312 C 0.18745 0.1429 -0.00361 0.0
H313 H 0.40669 0.36492 0.01191 0.0
H314 H 0.35895 0.30447 -0.00103 0.0
C315 C 0.15643 0.10892 -0.00313 0.0
C316 C 0.20619 0.21526 0.0034 0.0
H317 H 0.2239 0.30853 0.98356 0.0
C318 C 0.24464 0.21671 0.01885 0.0
C319 C 0.19937 0.24839 0.98994 0.0
C320 C 0.16031 0.24792 0.97197 0.0
C321 C 0.27518 0.25098 0.02212 0.0
C322 C 0.26738 0.28452 0.00935 0.0
C323 C 0.22978 0.28275 0.99332 0.0
C324 C 0.29555 0.32255 0.01409 0.0
C325 C 0.31435 0.2516 0.04008 0.0
C326 C 0.27531 0.35327 0.02589 0.0
C327 C 0.30233 0.38771 0.03317 0.0
C328 C 0.35014 0.3922 0.02868 0.0
C329 C 0.36994 0.36231 0.01555 0.0
C330 C 0.34282 0.32768 0.00835 0.0
H331 H 0.31096 0.22543 0.05145 0.0
H332 H 0.34749 0.25236 0.02993 0.0
H333 H 0.31598 0.27814 0.05236 0.0
H334 H 0.23885 0.34998 0.03036 0.0
H335 H 0.28604 0.41045 0.04298 0.0
H336 H 0.23811 0.91471 0.97226 0.0
H337 H 0.27921 0.8575 0.97549 0.0
H338 H 0.16195 0.79758 0.01188 0.0
H339 H 0.11946 0.85448 0.00771 0.0
H340 H 0.30511 0.81945 0.01482 0.0
H341 H 0.18414 0.71998 0.95656 0.0
H342 H 0.18182 0.77209 0.95859 0.0
H343 H 0.15884 0.7421 0.98289 0.0
C344 C 0.22062 0.88932 0.9807 0.0
C345 C 0.175 0.88916 0.98933 0.0
C346 C 0.24446 0.85665 0.98275 0.0
C347 C 0.22349 0.82291 0.99355 0.0
C348 C 0.17854 0.82296 0.003 0.0
H349 H 0.34634 0.59946 0.99443 0.0
H350 H 0.29745 0.65091 0.00637 0.0
C351 C 0.15445 0.85573 0.00085 0.0
C352 C 0.24906 0.78792 0.99435 0.0
H353 H 0.24959 0.69431 0.97126 0.0
C354 C 0.29269 0.79195 0.00552 0.0
C355 C 0.23287 0.75194 0.98227 0.0
C356 C 0.18705 0.74614 0.96921 0.0
C357 C 0.3211 0.76157 0.00424 0.0
C358 C 0.30567 0.72626 0.99133 0.0
C359 C 0.26124 0.72143 0.98118 0.0
C360 C 0.33684 0.69573 0.98596 0.0
C361 C 0.36788 0.76773 0.01626 0.0
C362 C 0.37513 0.70394 0.97062 0.0
C363 C 0.40273 0.67474 0.9637 0.0
C364 C 0.39272 0.63664 0.972 0.0
C365 C 0.35507 0.62863 0.98792 0.0
C366 C 0.32706 0.65789 0.99465 0.0
H367 H 0.36951 0.79129 0.03078 0.0
H368 H 0.37657 0.74043 0.02437 0.0
H369 H 0.39446 0.77636 0.0023 0.0
H370 H 0.38295 0.73278 0.96344 0.0
H371 H 0.43166 0.68182 0.95153 0.0
H372 H 0.9741 0.87697 0.98552 0.0
H373 H 0.91778 0.81876 0.98739 0.0
H374 H 0.83059 0.88315 0.03405 0.0
H375 H 0.88539 0.94153 0.03129 0.0
H376 H 0.888 0.77575 0.02291 0.0
H377 H 0.73688 0.83655 0.98636 0.0
H378 H 0.7942 0.86209 0.98482 0.0
H379 H 0.75932 0.8665 0.01194 0.0
C380 C 0.94267 0.87871 -0.00402 0.0
C381 C 0.93392 0.91392 0.00805 0.0
C382 C 0.91049 0.84545 -0.00298 0.0
C383 C 0.86921 0.84673 0.01032 0.0
C384 C 0.86117 0.88169 0.02287 0.0
H385 H 0.71027 0.67022 0.08617 0.0
H386 H 0.76983 0.71565 0.06861 0.0
C387 C 0.89281 0.91502 0.02148 0.0
C388 C 0.83556 0.81121 0.01231 0.0
H389 H 0.72007 0.78089 0.01206 0.0
C390 C 0.85135 0.77669 0.02009 0.0
C391 C 0.78779 0.81171 0.00793 0.0
C392 C 0.76872 0.84611 -0.00299 0.0
C393 C 0.82049 0.74372 0.02519 0.0
C394 C 0.77237 0.7458 0.02337 0.0
C395 C 0.75683 0.77935 0.01397 0.0
C396 C 0.73759 0.71526 0.03305 0.0
C397 C 0.84001 0.70717 0.03258 0.0
C398 C 0.69868 0.70029 0.01921 0.0
C399 C 0.66341 0.67513 0.02959 0.0
C400 C 0.66638 0.66445 0.05403 0.0
C401 C 0.70626 0.67833 0.06745 0.0
C402 C 0.741 0.70381 0.05723 0.0
H403 H 0.87388 0.70457 0.02359 0.0
H404 H 0.84589 0.70874 0.05262 0.0
H405 H 0.81638 0.68048 0.0278 0.0
H406 H 0.69502 0.70886 0.00056 0.0
H407 H 0.63308 0.66533 0.01875 0.0
H408 H 0.85605 0.14577 0.06104 0.0
H409 H 0.80887 0.19879 0.05445 0.0
H410 H 0.83414 0.18853 0.97688 0.0
H411 H 0.8818 0.13558 0.98341 0.0
H412 H 0.83938 0.26549 0.9944 0.0
H413 H 0.67882 0.18057 0.02664 0.0
H414 H 0.72519 0.18593 0.04835 0.0
H415 H 0.73102 0.15843 0.02011 0.0
C416 C 0.85148 0.15474 0.04257 0.0
C417 C 0.87218 0.13613 0.0227 0.0
C418 C 0.82448 0.18503 0.03884 0.0
C419 C 0.81716 0.19705 0.01514 0.0
C420 C 0.83917 0.17957 0.99533 0.0
H421 H 0.60622 0.30977 0.95096 0.0
H422 H 0.65533 0.26565 0.96903 0.0
C423 C 0.86649 0.14941 -0.00092 0.0
C424 C 0.78568 0.22714 0.01087 0.0
H425 H 0.67324 0.24568 0.01628 0.0
C426 C 0.80311 0.26133 -0.00069 0.0
C427 C 0.73827 0.22144 0.01715 0.0
C428 C 0.71698 0.18449 0.02855 0.0
C429 C 0.77431 0.28974 0.99352 0.0
C430 C 0.72694 0.28409 -0.00013 0.0
C431 C 0.70968 0.25019 0.01178 0.0
C432 C 0.6938 0.31063 0.9917 0.0
C433 C 0.79438 0.32471 0.97969 0.0
C434 C 0.69777 0.35034 -0.00076 0.0
C435 C 0.66952 0.3757 0.9889 0.0
C436 C 0.63708 0.3616 0.9709 0.0
C437 C 0.63125 0.32142 0.96465 0.0
C438 C 0.65925 0.2962 0.97498 0.0
H439 H 0.82921 0.32096 0.97221 0.0
H440 H 0.77148 0.33011 0.96434 0.0
H441 H 0.79749 0.351 0.99219 0.0
H442 H 0.72367 0.36191 0.01248 0.0
H443 H 0.67474 0.40657 0.99396 0.0
H444 H 0.66629 0.57731 0.49685 0.0
H445 H 0.72188 0.6359 0.49962 0.0
H446 H 0.61077 0.70698 0.51271 0.0
H447 H 0.55491 0.64853 0.51037 0.0
H448 H 0.73116 0.70575 0.47363 0.0
H449 H 0.69487 0.73233 0.5723 0.0
H450 H 0.67538 0.68692 0.55615 0.0
H451 H 0.64505 0.72908 0.5529 0.0
C452 C 0.65361 0.60541 0.50024 0.0
C453 C 0.6062 0.6082 0.5037 0.0
C454 C 0.68543 0.63886 0.50171 0.0
C455 C 0.67047 0.67566 0.50669 0.0
C456 C 0.62307 0.67874 0.50927 0.0
H457 H 0.83542 0.90384 0.50621 0.0
H458 H 0.78331 0.84549 0.49387 0.0
C459 C 0.59121 0.64531 0.50788 0.0
C460 C 0.70466 0.71052 0.51032 0.0
H461 H 0.74562 0.78004 0.55318 0.0
C462 C 0.73438 0.72209 0.49099 0.0
C463 C 0.70909 0.73141 0.53309 0.0
C464 C 0.67974 0.7192 0.5549 0.0
C465 C 0.76836 0.75423 0.49384 0.0
C466 C 0.77222 0.77544 0.51651 0.0
C467 C 0.74245 0.7638 0.53577 0.0
C468 C 0.80774 0.80907 0.52124 0.0
C469 C 0.80052 0.76466 0.47283 0.0
C470 C 0.83905 0.80777 0.54045 0.0
C471 C 0.86833 0.84094 0.54759 0.0
C472 C 0.86692 0.87613 0.53566 0.0
C473 C 0.83738 0.87695 0.51555 0.0
C474 C 0.80771 0.84366 0.50849 0.0
H475 H 0.80008 0.74037 0.45884 0.0
H476 H 0.78959 0.79048 0.46391 0.0
H477 H 0.83646 0.77231 0.4794 0.0
H478 H 0.83972 0.78136 0.55049 0.0
H479 H 0.89112 0.83947 0.56301 0.0
H480 H 0.61316 0.35168 0.50486 0.0
H481 H 0.65611 0.29517 0.50993 0.0
H482 H 0.77672 0.35805 0.47827 0.0
H483 H 0.73495 0.41465 0.47403 0.0
H484 H 0.69494 0.25179 0.47427 0.0
H485 H 0.83148 0.31605 0.53781 0.0
H486 H 0.77997 0.33915 0.53255 0.0
H487 H 0.8282 0.34554 0.51178 0.0
C488 C 0.64907 0.35371 0.49943 0.0
C489 C 0.67047 0.38777 0.48896 0.0
C490 C 0.67352 0.32131 0.50222 0.0
C491 C 0.71992 0.32254 0.49486 0.0
C492 C 0.74134 0.35662 0.48463 0.0
H493 H 0.92537 0.18072 0.4518 0.0
H494 H 0.87545 0.23098 0.46338 0.0
C495 C 0.71707 0.38887 0.48186 0.0
C496 C 0.74548 0.28763 0.49615 0.0
H497 H 0.84889 0.25938 0.51336 0.0
C498 C 0.72811 0.2531 0.48329 0.0
C499 C 0.78872 0.28926 0.50801 0.0
C500 C 0.80792 0.32439 0.52353 0.0
C501 C 0.75415 0.22119 0.48064 0.0
C502 C 0.79852 0.22383 0.49126 0.0
C503 C 0.81494 0.25754 0.50512 0.0
C504 C 0.83012 0.1936 0.48607 0.0
C505 C 0.73524 0.18569 0.46537 0.0
C506 C 0.82175 0.15613 0.49546 0.0
C507 C 0.85044 0.12728 0.48893 0.0
C508 C 0.88763 0.13545 0.47273 0.0
C509 C 0.89664 0.17341 0.46405 0.0
C510 C 0.8683 0.20219 0.47073 0.0
H511 H 0.70233 0.18992 0.45624 0.0
H512 H 0.76074 0.17856 0.45118 0.0
H513 H 0.72891 0.16024 0.47721 0.0
H514 H 0.79264 0.14906 0.5075 0.0
H515 H 0.84259 0.09827 0.49583 0.0
H516 H 0.37979 0.44111 0.52762 0.0
H517 H 0.32481 0.38301 0.53101 0.0
H518 H 0.41032 0.3177 0.48389 0.0
H519 H 0.46693 0.37566 0.48142 0.0
H520 H 0.2735 0.34072 0.49884 0.0
H521 H 0.39325 0.24662 0.53964 0.0
H522 H 0.40882 0.29807 0.5358 0.0
H523 H 0.41059 0.26396 0.51015 0.0
C524 C 0.38701 0.41437 0.518 0.0
C525 C 0.42781 0.41285 0.50438 0.0
C526 C 0.35546 0.38115 0.51991 0.0
C527 C 0.36361 0.34572 0.50799 0.0
C528 C 0.4038 0.34435 0.49379 0.0
H529 H 0.12438 0.16462 0.51742 0.0
H530 H 0.18641 0.20727 0.49862 0.0
C531 C 0.43598 0.37753 0.49227 0.0
C532 C 0.3297 0.31066 0.51085 0.0
H533 H 0.31682 0.21895 0.53316 0.0
C534 C 0.28298 0.31395 0.5062 0.0
C535 C 0.34212 0.27576 0.52047 0.0
C536 C 0.39132 0.27086 0.52703 0.0
C537 C 0.24813 0.28437 0.51214 0.0
C538 C 0.26048 0.24966 0.52207 0.0
C539 C 0.3074 0.24548 0.52545 0.0
C540 C 0.22543 0.21974 0.53208 0.0
C541 C 0.19843 0.29183 0.50917 0.0
C542 C 0.22811 0.21055 0.55672 0.0
C543 C 0.19361 0.18533 0.56729 0.0
C544 C 0.15502 0.16906 0.55361 0.0
C545 C 0.15342 0.17673 0.52857 0.0
C546 C 0.18857 0.20158 0.51786 0.0
H547 H 0.19506 0.32324 0.5067 0.0
H548 H 0.18374 0.27518 0.49276 0.0
H549 H 0.1775 0.28224 0.52531 0.0
H550 H 0.25636 0.2238 0.56807 0.0
H551 H 0.19692 0.17911 0.58639 0.0
H552 H 0.37977 0.63824 0.48203 0.0
H553 H 0.33421 0.69295 0.47684 0.0
H554 H 0.30716 0.69806 0.55441 0.0
H555 H 0.35215 0.64321 0.5596 0.0
H556 H 0.22927 0.69733 0.52873 0.0
H557 H 0.36083 0.80875 0.49251 0.0
H558 H 0.35759 0.76339 0.47505 0.0
H559 H 0.37587 0.76528 0.50646 0.0
C560 C 0.36481 0.65152 0.498 0.0
C561 C 0.36936 0.6363 0.52119 0.0
C562 C 0.33889 0.68287 0.49505 0.0
C563 C 0.31769 0.69996 0.51529 0.0
C564 C 0.32318 0.68538 0.53853 0.0
H565 H 0.17425 0.9082 0.49507 0.0
H566 H 0.22322 0.86377 0.51381 0.0
C567 C 0.34874 0.65392 0.54145 0.0
C568 C 0.28701 0.73102 0.51204 0.0
H569 H 0.2816 0.81951 0.4869 0.0
C570 C 0.24092 0.72428 0.51988 0.0
C571 C 0.3023 0.76651 0.50088 0.0
C572 C 0.35198 0.77665 0.49348 0.0
C573 C 0.20925 0.75118 0.51583 0.0
C574 C 0.22382 0.78543 0.50324 0.0
C575 C 0.27038 0.7931 0.49643 0.0
C576 C 0.19061 0.81171 0.49487 0.0
C577 C 0.16032 0.74243 0.52482 0.0
C578 C 0.15564 0.79706 0.47843 0.0
C579 C 0.12786 0.82221 0.46785 0.0
C580 C 0.13459 0.86257 0.4734 0.0
C581 C 0.16809 0.87712 0.49074 0.0
C582 C 0.1962 0.85186 0.50127 0.0
H583 H 0.15852 0.72298 0.5406 0.0
H584 H 0.1452 0.76964 0.53037 0.0
H585 H 0.13891 0.72719 0.50992 0.0
H586 H 0.15122 0.76637 0.47286 0.0
H587 H 0.10233 0.81032 0.45447 0.0
H588 H 0.10229 0.96004 0.07241 0.0
H589 H 0.10946 0.95105 0.1166 0.0
H590 H 0.00784 0.03087 0.13125 0.0
H591 H 1.00047 0.04011 0.08775 0.0
H592 H 0.12847 0.01417 0.15731 0.0
H593 H 0.95905 0.92428 0.16349 0.0
H594 H 0.99085 0.93 0.13516 0.0
H595 H 0.95798 0.96793 0.14669 0.0
C596 C 0.08179 0.97584 0.08511 0.0
C597 C 0.05059 1.00055 0.07656 0.0
C598 C 0.0859 0.97065 0.11026 0.0
C599 C 0.05864 0.98991 0.127 0.0
C600 C 0.02865 0.01537 0.11853 0.0
H601 H 0.04862 0.06097 0.27642 0.0
H602 H 0.06108 0.05314 0.23236 0.0
C603 C 0.02462 0.02064 0.09362 0.0
C604 C 0.06026 0.98363 0.15348 0.0
H605 H 0.9903 0.95396 0.2009 0.0
C606 C 0.09873 1.00034 0.1669 0.0
C607 C 0.02154 0.96523 0.1658 0.0
C608 C 0.98011 0.94549 0.15207 0.0
C609 C 0.09831 1.00115 0.19257 0.0
C610 C 0.05814 0.98533 0.20493 0.0
C611 C 0.02087 0.96648 0.1914 0.0
C612 C 0.0528 0.98991 0.23176 0.0
C613 C 0.1405 0.01951 0.20622 0.0
C614 C 0.0427 0.95698 0.2459 0.0
C615 C 0.03486 0.96137 0.271 0.0
C616 C 0.0367 0.99882 0.28241 0.0
C617 C 0.04662 0.03176 0.26816 0.0
C618 C 0.05446 0.02732 0.24305 0.0
H619 H 0.17214 0.01895 0.19484 0.0
H620 H 0.13632 0.0505 0.21102 0.0
H621 H 0.14535 1.00433 0.22338 0.0
H622 H 0.04062 0.92787 0.23747 0.0
H623 H 0.02663 0.93542 0.28141 0.0
H624 H 0.93731 0.06312 0.94271 0.0
H625 H 0.91936 0.07027 0.89959 0.0
H626 H 0.02132 0.9937 0.87841 0.0
H627 H 0.03946 0.98622 0.92138 0.0
H628 H 0.9819 0.0983 0.86192 0.0
H629 H 0.90227 0.94658 0.84209 0.0
H630 H 0.90995 0.96728 0.87282 0.0
H631 H 0.95783 0.94991 0.8565 0.0
C632 C 0.95577 0.04764 0.92888 0.0
C633 C 0.98968 0.02395 0.93546 0.0
C634 C 0.9455 0.05182 0.90429 0.0
C635 C 0.9686 0.0321 0.88592 0.0
C636 C 1.00258 0.00861 0.89239 0.0
H637 H 0.01466 0.06393 0.73377 0.0
H638 H 0.01711 0.06496 0.77832 0.0
C639 C 0.01304 1.00453 0.91694 0.0
C640 C 0.95821 0.03682 0.85989 0.0
H641 H 0.9216 0.98562 0.80772 0.0
C642 C 0.96828 0.0738 0.85008 0.0
C643 C 0.93985 0.00489 0.84464 0.0
C644 C 0.9264 0.96497 0.85454 0.0
C645 C 0.96224 0.07934 0.82509 0.0
C646 C 0.94611 0.04696 0.80962 0.0
C647 C 0.93426 0.01034 0.81964 0.0
C648 C 0.9436 0.04985 0.7828 0.0
C649 C 0.97341 0.11968 0.81542 0.0
C650 C 0.90143 0.04086 0.77057 0.0
C651 C 0.89983 0.04044 0.74504 0.0
C652 C 0.9405 0.04862 0.73132 0.0
C653 C 0.98256 0.05826 0.74374 0.0
C654 C 0.98408 0.05881 0.76923 0.0
H655 H 0.9729 0.14268 0.8302 0.0
H656 H 0.00854 0.12216 0.80729 0.0
H657 H 0.94863 0.12522 0.80098 0.0
H658 H 0.86985 0.03372 0.78077 0.0
H659 H 0.86683 0.03331 0.73606 0.0
H660 H 0.59669 0.45918 0.57047 0.0
H661 H 0.60366 0.45035 0.61467 0.0
H662 H 0.49595 0.52456 0.62875 0.0
H663 H 0.48867 0.53353 0.58522 0.0
H664 H 0.62053 0.51157 0.65429 0.0
H665 H 0.45268 0.42045 0.66287 0.0
H666 H 0.48241 0.42697 0.634 0.0
H667 H 0.44913 0.46407 0.6464 0.0
C668 C 0.57465 0.47365 0.58304 0.0
C669 C 0.54198 0.49686 0.57431 0.0
C670 C 0.57865 0.46857 0.6082 0.0
C671 C 0.54975 0.48632 0.62482 0.0
C672 C 0.51797 0.51008 0.61615 0.0
H673 H 0.54641 0.56005 0.77425 0.0
H674 H 0.55659 0.55165 0.73006 0.0
C675 C 0.51405 0.51527 0.59122 0.0
C676 C 0.55226 0.48082 0.65138 0.0
H677 H 0.48453 0.45185 0.69981 0.0
C678 C 0.59123 0.49788 0.66428 0.0
C679 C 0.51418 0.46253 0.66427 0.0
C680 C 0.47237 0.44211 0.65118 0.0
C681 C 0.59193 0.49917 0.68996 0.0
C682 C 0.55238 0.4835 0.70288 0.0
C683 C 0.5146 0.46431 0.68989 0.0
C684 C 0.54829 0.48843 0.72977 0.0
C685 C 0.63469 0.51781 0.703 0.0
C686 C 0.53894 0.4557 0.74416 0.0
C687 C 0.53239 0.46042 0.76936 0.0
C688 C 0.53481 0.49801 0.78063 0.0
C689 C 0.544 0.53074 0.76612 0.0
C690 C 0.55053 0.52598 0.74092 0.0
H691 H 0.66582 0.51709 0.69124 0.0
H692 H 0.63063 0.54887 0.70768 0.0
H693 H 0.64035 0.50296 0.72018 0.0
H694 H 0.53645 0.42648 0.73586 0.0
H695 H 0.52468 0.43462 0.77996 0.0
H696 H 0.43477 0.56249 0.43944 0.0
H697 H 0.42008 0.57152 0.39619 0.0
H698 H 0.52513 0.49737 0.37594 0.0
H699 H 0.54059 0.48861 0.41908 0.0
H700 H 0.53147 0.56654 0.35075 0.0
H701 H 0.35311 0.49037 0.34817 0.0
H702 H 0.36311 0.52915 0.37106 0.0
H703 H 0.39222 0.4861 0.3731 0.0
C704 C 0.45464 0.54797 0.42579 0.0
C705 C 0.4887 0.52465 0.43269 0.0
C706 C 0.44605 0.55305 0.40109 0.0
C707 C 0.4711 0.53469 0.38291 0.0
C708 C 0.50533 0.51168 0.38974 0.0
H709 H 0.42439 0.48342 0.23064 0.0
H710 H 0.43055 0.48433 0.27508 0.0
C711 C 0.51403 0.50665 0.41439 0.0
C712 C 0.46227 0.53971 0.3567 0.0
H713 H 0.38099 0.52006 0.312 0.0
C714 C 0.49853 0.55657 0.34226 0.0
C715 C 0.41932 0.52639 0.34573 0.0
C716 C 0.37975 0.50668 0.36021 0.0
C717 C 0.4932 0.56006 0.31702 0.0
C718 C 0.45019 0.5469 0.30606 0.0
C719 C 0.41376 0.53044 0.32055 0.0
C720 C 0.44344 0.54726 0.27931 0.0
C721 C 0.53412 0.57647 0.30216 0.0
C722 C 0.44766 0.58245 0.26702 0.0
C723 C 0.44402 0.58205 0.24154 0.0
C724 C 0.43572 0.54644 0.228 0.0
C725 C 0.43014 0.51136 0.24052 0.0
C726 C 0.43387 0.5118 0.26592 0.0
H727 H 0.56698 0.57749 0.31245 0.0
H728 H 0.53715 0.55878 0.28495 0.0
H729 H 0.52938 0.60671 0.29727 0.0
H730 H 0.45419 0.61016 0.2771 0.0
H731 H 0.44786 0.60956 0.23244 0.0
loop_
_geom_bond_atom_site_label_1
_geom_bond_atom_site_label_2
_geom_bond_distance
_geom_bond_site_symmetry_2
_ccdc_geom_bond_type
Co0 N5 2.057 . S
Co0 O17 2.021 . S
Co0 O20 2.062 1_455 S
Co0 O24 2.117 1_554 S
Co0 O25 2.020 1_565 S
C1 O21 1.259 1_455 S
C1 O24 1.258 1_545 S
Co2 N11 2.057 . S
Co2 O18 2.117 . S
Co2 O19 2.020 1_545 S
Co2 O21 2.021 1_554 S
Co2 O26 2.062 1_655 S
C3 N5 1.316 . S
C3 N6 1.347 . S
C3 H8 0.931 . S
C4 N5 1.375 1_556 S
C4 C7 1.350 . S
C4 H9 0.930 . S
N5 Co0 2.057 . S
N5 C3 1.316 . S
N5 C4 1.375 1_554 S
N6 C3 1.347 . S
N6 C7 1.373 1_554 S
C7 C4 1.350 . S
C7 N6 1.373 1_556 S
C7 H28 0.931 . S
H8 C3 0.931 . S
H9 C4 0.930 . S
C10 O17 1.259 1_545 S
C10 O18 1.258 1_455 S
N11 Co2 2.057 . S
N11 C12 1.316 . S
N11 C13 1.375 . S
C12 N11 1.316 . S
C12 N14 1.347 . S
C12 H23 0.931 1_554 S
C13 N11 1.375 . S
C13 C15 1.350 . S
C13 H22 0.930 . S
N14 C12 1.347 . S
N14 C15 1.373 . S
C15 C13 1.350 . S
C15 N14 1.373 . S
C15 H29 0.931 . S
C16 O19 1.256 . S
C16 O20 1.255 . S
O17 Co0 2.021 . S
O17 C10 1.259 1_565 S
O18 Co2 2.117 . S
O18 C10 1.258 1_655 S
O19 Co2 2.020 1_565 S
O19 C16 1.256 . S
O20 Co0 2.062 1_655 S
O20 C16 1.255 . S
O21 C1 1.259 1_655 S
O21 Co2 2.021 1_556 S
H22 C13 0.930 . S
H23 C12 0.931 1_556 S
O24 Co0 2.117 1_556 S
O24 C1 1.258 1_565 S
O25 Co0 2.020 1_545 S
O25 C27 1.256 . S
O26 Co2 2.062 1_455 S
O26 C27 1.255 . S
C27 O25 1.256 . S
C27 O26 1.255 . S
H28 C7 0.931 . S
H29 C15 0.931 . S
Co30 N35 2.057 . S
Co30 O47 2.021 . S
Co30 O50 2.062 . S
Co30 O54 2.117 . S
Co30 O55 2.020 . S
C31 O51 1.259 . S
C31 O54 1.258 . S
Co32 N41 2.057 . S
Co32 O48 2.117 . S
Co32 O49 2.020 . S
Co32 O51 2.021 . S
Co32 O56 2.062 . S
C33 N35 1.316 . S
C33 N36 1.347 . S
C33 H38 0.931 . S
C34 N35 1.375 . S
C34 C37 1.350 . S
C34 H39 0.930 . S
N35 Co30 2.057 . S
N35 C33 1.316 . S
N35 C34 1.375 . S
N36 C33 1.347 . S
N36 C37 1.373 . S
C37 C34 1.350 . S
C37 N36 1.373 . S
C37 H58 0.931 . S
H38 C33 0.931 . S
H39 C34 0.930 . S
C40 O47 1.259 . S
C40 O48 1.258 . S
N41 Co32 2.057 . S
N41 C42 1.316 . S
N41 C43 1.375 . S
C42 N41 1.316 . S
C42 N44 1.347 . S
C42 H53 0.931 . S
C43 N41 1.375 . S
C43 C45 1.350 . S
C43 H52 0.930 . S
N44 C42 1.347 . S
N44 C45 1.373 . S
C45 C43 1.350 . S
C45 N44 1.373 . S
C45 H59 0.931 . S
C46 O49 1.256 . S
C46 O50 1.255 . S
O47 Co30 2.021 . S
O47 C40 1.259 . S
O48 Co32 2.117 . S
O48 C40 1.258 . S
O49 Co32 2.020 . S
O49 C46 1.256 . S
O50 Co30 2.062 . S
O50 C46 1.255 . S
O51 C31 1.259 . S
O51 Co32 2.021 . S
H52 C43 0.930 . S
H53 C42 0.931 . S
O54 Co30 2.117 . S
O54 C31 1.258 . S
O55 Co30 2.020 . S
O55 C57 1.256 . S
O56 Co32 2.062 . S
O56 C57 1.255 . S
C57 O55 1.256 . S
C57 O56 1.255 . S
H58 C37 0.931 . S
H59 C45 0.931 . S
C60 C61 1.391 . S
C60 C64 1.391 . S
C60 H102 0.948 . S
C61 C60 1.391 . S
C61 C62 1.391 . S
C62 C61 1.391 . S
C62 H118 0.947 . S
C62 C119 1.392 . S
C63 C64 1.391 . S
C63 C67 1.397 . S
C63 C119 1.419 . S
C64 C60 1.391 . S
C64 C63 1.391 . S
C64 C65 1.399 . S
C65 C64 1.399 . S
C65 C68 1.396 . S
C65 C77 1.453 1_565 S
C65 C78 1.684 1_455 S
H66 C90 0.948 . S
C67 C63 1.397 . S
C67 C68 1.394 . S
C67 C86 1.723 . S
C68 C65 1.396 . S
C68 C67 1.394 . S
C68 C98 1.723 1_465 S
H69 C92 0.947 . S
H70 C93 0.948 . S
H71 C99 0.982 . S
H72 C100 0.979 . S
H73 C100 0.980 . S
H74 C100 0.983 . S
H75 C99 0.979 . S
H76 C99 0.977 . S
C77 C65 1.453 1_545 S
C77 H106 0.982 . S
C77 H107 0.979 1_545 S
C77 H108 0.977 . S
C78 C65 1.684 1_655 S
C78 H103 0.979 . S
C78 H104 0.980 . S
C78 H105 0.983 . S
C79 C80 1.391 1_465 S
C79 C84 1.391 . S
C79 H109 0.948 . S
C80 C79 1.391 1_645 S
C80 C81 1.391 . S
C81 C80 1.391 . S
C81 C82 1.392 . S
C81 H110 0.947 . S
C82 C81 1.392 . S
C82 C83 1.419 . S
C82 H111 0.948 . S
C83 C82 1.419 . S
C83 C84 1.391 1_645 S
C83 C87 1.397 . S
C84 C79 1.391 . S
C84 C83 1.391 1_465 S
C84 C85 1.399 . S
C85 C84 1.399 . S
C85 C86 1.396 . S
C85 C88 1.453 . S
C85 C89 1.684 . S
C86 C67 1.723 . S
C86 C85 1.396 . S
C86 C87 1.394 1_465 S
C87 C83 1.397 . S
C87 C86 1.394 1_645 S
C87 C97 1.723 . S
C88 C85 1.453 . S
C88 H112 0.982 . S
C88 H113 0.979 . S
C88 H114 0.977 . S
C89 C85 1.684 . S
C89 H115 0.979 . S
C89 H116 0.980 . S
C89 H117 0.983 . S
C90 H66 0.948 . S
C90 C91 1.391 . S
C90 C95 1.391 . S
C91 C90 1.391 . S
C91 C92 1.391 . S
C92 H69 0.947 . S
C92 C91 1.391 . S
C92 C93 1.392 . S
C93 H70 0.948 . S
C93 C92 1.392 . S
C93 C94 1.419 . S
C94 C93 1.419 . S
C94 C95 1.391 . S
C94 C98 1.397 . S
C95 C90 1.391 . S
C95 C94 1.391 . S
C95 C96 1.399 . S
C96 C95 1.399 . S
C96 C97 1.396 . S
C96 C99 1.453 . S
C96 C100 1.684 . S
C97 C87 1.723 . S
C97 C96 1.396 . S
C97 C98 1.394 . S
C98 C68 1.723 1_645 S
C98 C94 1.397 . S
C98 C97 1.394 . S
C99 H71 0.982 . S
C99 H75 0.979 . S
C99 H76 0.977 . S
C99 C96 1.453 . S
C100 H72 0.979 . S
C100 H73 0.980 . S
C100 H74 0.983 . S
C100 C96 1.684 . S
H101 C119 0.948 . S
H102 C60 0.948 . S
H103 C78 0.979 . S
H104 C78 0.980 . S
H105 C78 0.983 . S
H106 C77 0.982 . S
H107 C77 0.979 1_565 S
H108 C77 0.977 . S
H109 C79 0.948 . S
H110 C81 0.947 . S
H111 C82 0.948 . S
H112 C88 0.982 . S
H113 C88 0.979 . S
H114 C88 0.977 . S
H115 C89 0.979 . S
H116 C89 0.980 . S
H117 C89 0.983 . S
H118 C62 0.947 . S
C119 C62 1.392 . S
C119 C63 1.419 . S
C119 H101 0.948 . S
C120 C121 1.391 . S
C120 C124 1.391 . S
C120 H162 0.948 . S
C121 C120 1.391 . S
C121 C122 1.391 . S
C122 C121 1.391 . S
C122 H178 0.947 . S
C122 C179 1.392 . S
C123 C124 1.391 . S
C123 C127 1.397 . S
C123 C179 1.419 . S
C124 C120 1.391 . S
C124 C123 1.391 . S
C124 C125 1.399 . S
C125 C124 1.399 . S
C125 C128 1.396 . S
C125 C137 1.453 . S
C125 C138 1.684 1_455 S
H126 C150 0.948 . S
C127 C123 1.397 . S
C127 C128 1.394 . S
C127 C146 1.723 . S
C128 C125 1.396 . S
C128 C127 1.394 . S
C128 C158 1.723 1_445 S
H129 C152 0.947 . S
H130 C153 0.948 . S
H131 C159 0.982 . S
H132 C160 0.979 . S
H133 C160 0.980 . S
H134 C160 0.983 . S
H135 C159 0.979 . S
H136 C159 0.977 . S
C137 C125 1.453 . S
C137 H166 0.982 . S
C137 H167 0.979 . S
C137 H168 0.977 1_545 S
C138 C125 1.684 1_655 S
C138 H163 0.979 . S
C138 H164 0.980 . S
C138 H165 0.983 1_655 S
C139 C140 1.391 1_455 S
C139 C144 1.391 . S
C139 H169 0.948 . S
C140 C139 1.391 1_655 S
C140 C141 1.391 1_545 S
C141 C140 1.391 1_565 S
C141 C142 1.392 . S
C141 H170 0.947 . S
C142 C141 1.392 . S
C142 C143 1.419 1_565 S
C142 H171 0.948 . S
C143 C142 1.419 1_545 S
C143 C144 1.391 1_655 S
C143 C147 1.397 . S
C144 C139 1.391 . S
C144 C143 1.391 1_455 S
C144 C145 1.399 . S
C145 C144 1.399 . S
C145 C146 1.396 . S
C145 C148 1.453 . S
C145 C149 1.684 . S
C146 C127 1.723 . S
C146 C145 1.396 . S
C146 C147 1.394 1_455 S
C147 C143 1.397 . S
C147 C146 1.394 1_655 S
C147 C157 1.723 1_545 S
C148 C145 1.453 . S
C148 H172 0.982 . S
C148 H173 0.979 . S
C148 H174 0.977 . S
C149 C145 1.684 . S
C149 H175 0.979 . S
C149 H176 0.980 . S
C149 H177 0.983 . S
C150 H126 0.948 . S
C150 C151 1.391 . S
C150 C155 1.391 . S
C151 C150 1.391 . S
C151 C152 1.391 . S
C152 H129 0.947 . S
C152 C151 1.391 . S
C152 C153 1.392 . S
C153 H130 0.948 . S
C153 C152 1.392 . S
C153 C154 1.419 . S
C154 C153 1.419 . S
C154 C155 1.391 . S
C154 C158 1.397 . S
C155 C150 1.391 . S
C155 C154 1.391 . S
C155 C156 1.399 . S
C156 C155 1.399 . S
C156 C157 1.396 . S
C156 C159 1.453 . S
C156 C160 1.684 . S
C157 C147 1.723 1_565 S
C157 C156 1.396 . S
C157 C158 1.394 . S
C158 C128 1.723 1_665 S
C158 C154 1.397 . S
C158 C157 1.394 . S
C159 H131 0.982 . S
C159 H135 0.979 . S
C159 H136 0.977 . S
C159 C156 1.453 . S
C160 H132 0.979 . S
C160 H133 0.980 . S
C160 H134 0.983 . S
C160 C156 1.684 . S
H161 C179 0.948 . S
H162 C120 0.948 . S
H163 C138 0.979 . S
H164 C138 0.980 . S
H165 C138 0.983 1_455 S
H166 C137 0.982 . S
H167 C137 0.979 . S
H168 C137 0.977 1_565 S
H169 C139 0.948 . S
H170 C141 0.947 . S
H171 C142 0.948 . S
H172 C148 0.982 . S
H173 C148 0.979 . S
H174 C148 0.977 . S
H175 C149 0.979 . S
H176 C149 0.980 . S
H177 C149 0.983 . S
H178 C122 0.947 . S
C179 C122 1.392 . S
C179 C123 1.419 . S
C179 H161 0.948 . S
C180 C181 1.391 . S
C180 C184 1.391 . S
C180 H222 0.948 . S
C181 C180 1.391 . S
C181 C182 1.391 . S
C182 C181 1.391 . S
C182 H238 0.947 . S
C182 C239 1.392 . S
C183 C184 1.391 . S
C183 C187 1.397 . S
C183 C239 1.419 . S
C184 C180 1.391 . S
C184 C183 1.391 . S
C184 C185 1.399 . S
C185 C184 1.399 . S
C185 C188 1.396 . S
C185 C197 1.453 . S
C185 C198 1.684 . S
H186 C210 0.948 . S
C187 C183 1.397 . S
C187 C188 1.394 . S
C187 C206 1.723 . S
C188 C185 1.396 . S
C188 C187 1.394 . S
C188 C218 1.723 . S
H189 C212 0.947 1_554 S
H190 C213 0.948 . S
H191 C219 0.982 . S
H192 C220 0.979 . S
H193 C220 0.980 . S
H194 C220 0.983 . S
H195 C219 0.979 . S
H196 C219 0.977 . S
C197 C185 1.453 . S
C197 H226 0.982 . S
C197 H227 0.979 1_556 S
C197 H228 0.977 . S
C198 C185 1.684 . S
C198 H223 0.979 . S
C198 H224 0.986 . S
C198 H225 0.983 1_556 S
C199 C200 1.391 . S
C199 C204 1.391 . S
C199 H229 0.948 . S
C200 C199 1.391 . S
C200 C201 1.391 . S
C201 C200 1.391 . S
C201 C202 1.392 . S
C201 H230 0.947 . S
C202 C201 1.392 . S
C202 C203 1.419 . S
C202 H231 0.948 . S
C203 C202 1.419 . S
C203 C204 1.391 . S
C203 C207 1.397 . S
C204 C199 1.391 . S
C204 C203 1.391 . S
C204 C205 1.399 . S
C205 C204 1.399 . S
C205 C206 1.396 . S
C205 C208 1.453 . S
C205 C209 1.684 . S
C206 C187 1.723 . S
C206 C205 1.396 . S
C206 C207 1.394 . S
C207 C203 1.397 . S
C207 C206 1.394 . S
C207 C217 1.723 . S
C208 C205 1.453 . S
C208 H232 0.982 . S
C208 H233 0.979 . S
C208 H234 0.977 . S
C209 C205 1.684 . S
C209 H235 0.979 . S
C209 H236 0.980 . S
C209 H237 0.983 . S
C210 H186 0.948 . S
C210 C211 1.391 . S
C210 C215 1.391 . S
C211 C210 1.391 . S
C211 C212 1.391 . S
C212 H189 0.947 1_556 S
C212 C211 1.391 . S
C212 C213 1.392 . S
C213 H190 0.948 . S
C213 C212 1.392 . S
C213 C214 1.419 . S
C214 C213 1.419 . S
C214 C215 1.391 . S
C214 C218 1.397 . S
C215 C210 1.391 . S
C215 C214 1.391 . S
C215 C216 1.399 . S
C216 C215 1.399 . S
C216 C217 1.396 . S
C216 C219 1.453 . S
C216 C220 1.684 . S
C217 C207 1.723 . S
C217 C216 1.396 . S
C217 C218 1.394 . S
C218 C188 1.723 . S
C218 C214 1.397 . S
C218 C217 1.394 . S
C219 H191 0.982 . S
C219 H195 0.979 . S
C219 H196 0.977 . S
C219 C216 1.453 . S
C220 H192 0.979 . S
C220 H193 0.980 . S
C220 H194 0.983 . S
C220 C216 1.684 . S
H221 C239 0.948 . S
H222 C180 0.948 . S
H223 C198 0.979 . S
H224 C198 0.986 . S
H225 C198 0.983 1_554 S
H226 C197 0.982 . S
H227 C197 0.979 1_554 S
H228 C197 0.977 . S
H229 C199 0.948 . S
H230 C201 0.947 . S
H231 C202 0.948 . S
H232 C208 0.982 . S
H233 C208 0.979 . S
H234 C208 0.977 . S
H235 C209 0.979 . S
H236 C209 0.980 . S
H237 C209 0.983 . S
H238 C182 0.947 . S
C239 C182 1.392 . S
C239 C183 1.419 . S
C239 H221 0.948 . S
C240 C241 1.391 . S
C240 C244 1.391 . S
C240 H282 0.948 . S
C241 C240 1.391 . S
C241 C242 1.391 . S
C242 C241 1.391 . S
C242 H298 0.947 . S
C242 C299 1.392 . S
C243 C244 1.391 . S
C243 C247 1.397 . S
C243 C299 1.419 . S
C244 C240 1.391 . S
C244 C243 1.391 . S
C244 C245 1.399 . S
C245 C244 1.399 . S
C245 C248 1.396 . S
C245 C257 1.453 . S
C245 C258 1.684 . S
H246 C270 0.948 . S
C247 C243 1.397 . S
C247 C248 1.394 . S
C247 C266 1.723 . S
C248 C245 1.396 . S
C248 C247 1.394 . S
C248 C278 1.723 . S
H249 C272 0.947 . S
H250 C273 0.948 . S
H251 C279 0.982 . S
H252 C280 0.979 . S
H253 C280 0.980 . S
H254 C280 0.983 . S
H255 C279 0.979 . S
H256 C279 0.977 . S
C257 C245 1.453 . S
C257 H286 0.982 . S
C257 H287 0.979 . S
C257 H288 0.977 . S
C258 C245 1.684 . S
C258 H283 0.979 . S
C258 H284 0.980 . S
C258 H285 0.983 . S
C259 C260 1.391 . S
C259 C264 1.391 . S
C259 H289 0.948 . S
C260 C259 1.391 . S
C260 C261 1.391 . S
C261 C260 1.391 . S
C261 C262 1.392 . S
C261 H290 0.947 . S
C262 C261 1.392 . S
C262 C263 1.419 . S
C262 H291 0.948 . S
C263 C262 1.419 . S
C263 C264 1.391 . S
C263 C267 1.397 . S
C264 C259 1.391 . S
C264 C263 1.391 . S
C264 C265 1.399 . S
C265 C264 1.399 . S
C265 C266 1.396 . S
C265 C268 1.453 . S
C265 C269 1.684 . S
C266 C247 1.723 . S
C266 C265 1.396 . S
C266 C267 1.394 . S
C267 C263 1.397 . S
C267 C266 1.394 . S
C267 C277 1.723 . S
C268 C265 1.453 . S
C268 H292 0.982 . S
C268 H293 0.979 . S
C268 H294 0.977 . S
C269 C265 1.684 . S
C269 H295 0.979 . S
C269 H296 0.980 . S
C269 H297 0.983 . S
C270 H246 0.948 . S
C270 C271 1.391 . S
C270 C275 1.391 . S
C271 C270 1.391 . S
C271 C272 1.391 . S
C272 H249 0.947 . S
C272 C271 1.391 . S
C272 C273 1.392 . S
C273 H250 0.948 . S
C273 C272 1.392 . S
C273 C274 1.419 . S
C274 C273 1.419 . S
C274 C275 1.391 . S
C274 C278 1.397 . S
C275 C270 1.391 . S
C275 C274 1.391 . S
C275 C276 1.399 . S
C276 C275 1.399 . S
C276 C277 1.396 . S
C276 C279 1.453 . S
C276 C280 1.684 . S
C277 C267 1.723 . S
C277 C276 1.396 . S
C277 C278 1.394 . S
C278 C248 1.723 . S
C278 C274 1.397 . S
C278 C277 1.394 . S
C279 H251 0.982 . S
C279 H255 0.979 . S
C279 H256 0.977 . S
C279 C276 1.453 . S
C280 H252 0.979 . S
C280 H253 0.980 . S
C280 H254 0.983 . S
C280 C276 1.684 . S
H281 C299 0.948 . S
H282 C240 0.948 . S
H283 C258 0.979 . S
H284 C258 0.980 . S
H285 C258 0.983 . S
H286 C257 0.982 . S
H287 C257 0.979 . S
H288 C257 0.977 . S
H289 C259 0.948 . S
H290 C261 0.947 . S
H291 C262 0.948 . S
H292 C268 0.982 . S
H293 C268 0.979 . S
H294 C268 0.977 . S
H295 C269 0.979 . S
H296 C269 0.980 . S
H297 C269 0.983 . S
H298 C242 0.947 . S
C299 C242 1.392 . S
C299 C243 1.419 . S
C299 H281 0.948 . S
H300 C308 0.929 . S
H301 C310 0.930 . S
H302 C312 0.930 . S
H303 C315 0.929 . S
H304 C318 0.930 . S
H305 C320 0.960 1_556 S
H306 C320 0.960 . S
H307 C320 0.960 1_556 S
C308 H300 0.929 . S
C308 C309 1.377 . S
C308 C310 1.384 . S
C309 C308 1.377 . S
C309 C315 1.390 1_554 S
C310 H301 0.930 . S
C310 C308 1.384 . S
C310 C311 1.372 . S
C311 C310 1.372 . S
C311 C312 1.400 1_554 S
C311 C316 1.490 . S
C312 H302 0.930 . S
C312 C311 1.400 1_556 S
C312 C315 1.386 . S
H313 C329 0.930 . S
H314 C330 0.931 1_556 S
C315 H303 0.929 . S
C315 C309 1.390 1_556 S
C315 C312 1.386 . S
C316 C311 1.490 . S
C316 C318 1.395 . S
C316 C319 1.403 . S
H317 C323 0.930 . S
C318 H304 0.930 . S
C318 C316 1.395 . S
C318 C321 1.403 . S
C319 C316 1.403 . S
C319 C320 1.524 . S
C319 C323 1.400 . S
C320 H305 0.960 1_554 S
C320 H306 0.960 . S
C320 H307 0.960 1_554 S
C320 C319 1.524 . S
C321 C318 1.403 . S
C321 C322 1.392 . S
C321 C325 1.495 . S
C322 C321 1.392 . S
C322 C323 1.385 . S
C322 C324 1.478 . S
C323 H317 0.930 . S
C323 C319 1.400 . S
C323 C322 1.385 . S
C324 C322 1.478 . S
C324 C326 1.381 . S
C324 C330 1.383 . S
C325 C321 1.495 . S
C325 H331 0.959 . S
C325 H332 0.961 . S
C325 H333 0.960 . S
C326 C324 1.381 . S
C326 C327 1.394 . S
C326 H334 0.930 . S
C327 C326 1.394 . S
C327 C328 1.383 . S
C327 H335 0.929 . S
C328 C327 1.383 . S
C328 C329 1.377 . S
C329 H313 0.930 . S
C329 C328 1.377 . S
C329 C330 1.379 . S
C330 H314 0.931 1_554 S
C330 C324 1.383 . S
C330 C329 1.379 . S
H331 C325 0.959 . S
H332 C325 0.961 . S
H333 C325 0.960 . S
H334 C326 0.930 . S
H335 C327 0.929 . S
H336 C344 0.929 . S
H337 C346 0.930 . S
H338 C348 0.930 . S
H339 C351 0.929 . S
H340 C354 0.937 . S
H341 C356 0.960 . S
H342 C356 0.960 . S
H343 C356 0.960 1_554 S
C344 H336 0.929 . S
C344 C345 1.377 1_556 S
C344 C346 1.384 . S
C345 C344 1.377 1_554 S
C345 C351 1.390 . S
C346 H337 0.930 . S
C346 C344 1.384 . S
C346 C347 1.372 1_556 S
C347 C346 1.372 1_554 S
C347 C348 1.400 . S
C347 C352 1.490 1_554 S
C348 H338 0.930 . S
C348 C347 1.400 . S
C348 C351 1.386 . S
H349 C365 0.930 . S
H350 C366 0.931 . S
C351 H339 0.929 . S
C351 C345 1.390 . S
C351 C348 1.386 . S
C352 C347 1.490 1_556 S
C352 C354 1.394 1_556 S
C352 C355 1.403 . S
H353 C359 0.930 . S
C354 H340 0.937 . S
C354 C352 1.394 1_554 S
C354 C357 1.400 1_554 S
C355 C352 1.403 . S
C355 C356 1.524 . S
C355 C359 1.400 . S
C356 H341 0.960 . S
C356 H342 0.960 . S
C356 H343 0.960 1_556 S
C356 C355 1.524 . S
C357 C354 1.400 1_556 S
C357 C358 1.392 . S
C357 C361 1.495 . S
C358 C357 1.392 . S
C358 C359 1.385 . S
C358 C360 1.478 . S
C359 H353 0.930 . S
C359 C355 1.400 . S
C359 C358 1.385 . S
C360 C358 1.478 . S
C360 C362 1.381 . S
C360 C366 1.383 1_556 S
C361 C357 1.495 . S
C361 H367 0.959 1_556 S
C361 H368 0.960 1_556 S
C361 H369 0.960 . S
C362 C360 1.381 . S
C362 C363 1.394 . S
C362 H370 0.930 . S
C363 C362 1.394 . S
C363 C364 1.383 . S
C363 H371 0.929 . S
C364 C363 1.383 . S
C364 C365 1.377 1_556 S
C365 H349 0.930 . S
C365 C364 1.377 1_554 S
C365 C366 1.379 . S
C366 H350 0.931 . S
C366 C360 1.383 1_554 S
C366 C365 1.379 . S
H367 C361 0.959 1_554 S
H368 C361 0.960 1_554 S
H369 C361 0.960 . S
H370 C362 0.930 . S
H371 C363 0.929 . S
H372 C380 0.929 . S
H373 C382 0.930 . S
H374 C384 0.930 . S
H375 C387 0.929 . S
H376 C390 0.930 . S
H377 C392 0.960 . S
H378 C392 0.960 . S
H379 C392 0.960 . S
C380 H372 0.929 . S
C380 C381 1.377 1_556 S
C380 C382 1.384 . S
C381 C380 1.377 1_554 S
C381 C387 1.390 . S
C382 H373 0.930 . S
C382 C380 1.384 . S
C382 C383 1.372 1_556 S
C383 C382 1.372 1_554 S
C383 C384 1.400 . S
C383 C388 1.490 . S
C384 H374 0.930 . S
C384 C383 1.400 . S
C384 C387 1.386 . S
H385 C401 0.930 . S
H386 C402 0.931 . S
C387 H375 0.929 . S
C387 C381 1.390 . S
C387 C384 1.386 . S
C388 C383 1.490 . S
C388 C390 1.395 . S
C388 C391 1.403 . S
H389 C395 0.930 . S
C390 H376 0.930 . S
C390 C388 1.395 . S
C390 C393 1.403 . S
C391 C388 1.403 . S
C391 C392 1.524 . S
C391 C395 1.400 . S
C392 H377 0.960 . S
C392 H378 0.960 . S
C392 H379 0.960 . S
C392 C391 1.524 . S
C393 C390 1.403 . S
C393 C394 1.392 . S
C393 C397 1.495 . S
C394 C393 1.392 . S
C394 C395 1.385 . S
C394 C396 1.478 . S
C395 H389 0.930 . S
C395 C391 1.400 . S
C395 C394 1.385 . S
C396 C394 1.478 . S
C396 C398 1.381 . S
C396 C402 1.383 . S
C397 C393 1.495 . S
C397 H403 0.959 . S
C397 H404 0.961 . S
C397 H405 0.960 1_554 S
C398 C396 1.381 . S
C398 C399 1.394 . S
C398 H406 0.930 1_554 S
C399 C398 1.394 . S
C399 C400 1.383 . S
C399 H407 0.953 . S
C400 C399 1.383 . S
C400 C401 1.377 . S
C401 H385 0.930 . S
C401 C400 1.377 . S
C401 C402 1.379 . S
C402 H386 0.931 . S
C402 C396 1.383 . S
C402 C401 1.379 . S
H403 C397 0.959 . S
H404 C397 0.961 . S
H405 C397 0.960 1_556 S
H406 C398 0.930 1_556 S
H407 C399 0.953 . S
H408 C416 0.929 . S
H409 C418 0.930 . S
H410 C420 0.930 . S
H411 C423 0.936 . S
H412 C426 0.930 . S
H413 C428 0.960 . S
H414 C428 0.960 . S
H415 C428 0.960 . S
C416 H408 0.929 . S
C416 C417 1.377 . S
C416 C418 1.384 . S
C417 C416 1.377 . S
C417 C423 1.381 1_554 S
C418 H409 0.930 . S
C418 C416 1.384 . S
C418 C419 1.372 . S
C419 C418 1.372 . S
C419 C420 1.400 1_554 S
C419 C424 1.486 1_554 S
C420 H410 0.930 . S
C420 C419 1.400 1_556 S
C420 C423 1.389 . S
H421 C437 0.930 . S
H422 C438 0.931 . S
C423 H411 0.936 . S
C423 C417 1.381 1_556 S
C423 C420 1.389 . S
C424 C419 1.486 1_556 S
C424 C426 1.406 . S
C424 C427 1.395 1_556 S
H425 C431 0.930 . S
C426 H412 0.930 . S
C426 C424 1.406 . S
C426 C429 1.403 . S
C427 C424 1.395 1_554 S
C427 C428 1.524 . S
C427 C431 1.400 . S
C428 H413 0.960 . S
C428 H414 0.960 . S
C428 H415 0.960 . S
C428 C427 1.524 . S
C429 C426 1.403 . S
C429 C430 1.392 . S
C429 C433 1.495 . S
C430 C429 1.392 . S
C430 C431 1.385 1_556 S
C430 C432 1.478 . S
C431 H425 0.930 . S
C431 C427 1.400 . S
C431 C430 1.385 1_554 S
C432 C430 1.478 . S
C432 C434 1.381 . S
C432 C438 1.383 . S
C433 C429 1.495 . S
C433 H439 0.959 . S
C433 H440 0.961 . S
C433 H441 0.960 . S
C434 C432 1.381 . S
C434 C435 1.394 . S
C434 H442 0.930 1_556 S
C435 C434 1.394 . S
C435 C436 1.383 . S
C435 H443 0.930 . S
C436 C435 1.383 . S
C436 C437 1.377 . S
C437 H421 0.930 . S
C437 C436 1.377 . S
C437 C438 1.379 . S
C438 H422 0.931 . S
C438 C432 1.383 . S
C438 C437 1.379 . S
H439 C433 0.959 . S
H440 C433 0.961 . S
H441 C433 0.960 . S
H442 C434 0.930 1_554 S
H443 C435 0.930 . S
H444 C452 0.929 . S
H445 C454 0.930 . S
H446 C456 0.930 . S
H447 C459 0.929 . S
H448 C462 0.930 . S
H449 C464 0.960 . S
H450 C464 0.960 . S
H451 C464 0.960 . S
C452 H444 0.929 . S
C452 C453 1.377 . S
C452 C454 1.384 . S
C453 C452 1.377 . S
C453 C459 1.390 . S
C454 H445 0.930 . S
C454 C452 1.384 . S
C454 C455 1.372 . S
C455 C454 1.372 . S
C455 C456 1.400 . S
C455 C460 1.490 . S
C456 H446 0.930 . S
C456 C455 1.400 . S
C456 C459 1.386 . S
H457 C473 0.930 . S
H458 C474 0.931 . S
C459 H447 0.929 . S
C459 C453 1.390 . S
C459 C456 1.386 . S
C460 C455 1.490 . S
C460 C462 1.395 . S
C460 C463 1.403 . S
H461 C467 0.930 . S
C462 H448 0.930 . S
C462 C460 1.395 . S
C462 C465 1.403 . S
C463 C460 1.403 . S
C463 C464 1.524 . S
C463 C467 1.400 . S
C464 H449 0.960 . S
C464 H450 0.960 . S
C464 H451 0.960 . S
C464 C463 1.524 . S
C465 C462 1.403 . S
C465 C466 1.392 . S
C465 C469 1.495 . S
C466 C465 1.392 . S
C466 C467 1.385 . S
C466 C468 1.478 . S
C467 H461 0.930 . S
C467 C463 1.400 . S
C467 C466 1.385 . S
C468 C466 1.478 . S
C468 C470 1.381 . S
C468 C474 1.383 . S
C469 C465 1.495 . S
C469 H475 0.959 . S
C469 H476 0.961 . S
C469 H477 0.960 . S
C470 C468 1.381 . S
C470 C471 1.394 . S
C470 H478 0.930 . S
C471 C470 1.394 . S
C471 C472 1.383 . S
C471 H479 0.929 . S
C472 C471 1.383 . S
C472 C473 1.377 . S
C473 H457 0.930 . S
C473 C472 1.377 . S
C473 C474 1.379 . S
C474 H458 0.931 . S
C474 C468 1.383 . S
C474 C473 1.379 . S
H475 C469 0.959 . S
H476 C469 0.961 . S
H477 C469 0.960 . S
H478 C470 0.930 . S
H479 C471 0.929 . S
H480 C488 0.929 . S
H481 C490 0.930 . S
H482 C492 0.930 . S
H483 C495 0.929 . S
H484 C498 0.930 . S
H485 C500 0.960 . S
H486 C500 0.960 . S
H487 C500 0.960 . S
C488 H480 0.929 . S
C488 C489 1.377 . S
C488 C490 1.384 . S
C489 C488 1.377 . S
C489 C495 1.390 . S
C490 H481 0.930 . S
C490 C488 1.384 . S
C490 C491 1.372 . S
C491 C490 1.372 . S
C491 C492 1.400 . S
C491 C496 1.490 . S
C492 H482 0.930 . S
C492 C491 1.400 . S
C492 C495 1.386 . S
H493 C509 0.930 . S
H494 C510 0.931 . S
C495 H483 0.929 . S
C495 C489 1.390 . S
C495 C492 1.386 . S
C496 C491 1.490 . S
C496 C498 1.395 . S
C496 C499 1.403 . S
H497 C503 0.930 . S
C498 H484 0.930 . S
C498 C496 1.395 . S
C498 C501 1.403 . S
C499 C496 1.403 . S
C499 C500 1.524 . S
C499 C503 1.400 . S
C500 H485 0.960 . S
C500 H486 0.960 . S
C500 H487 0.960 . S
C500 C499 1.524 . S
C501 C498 1.403 . S
C501 C502 1.392 . S
C501 C505 1.495 . S
C502 C501 1.392 . S
C502 C503 1.385 . S
C502 C504 1.478 . S
C503 H497 0.930 . S
C503 C499 1.400 . S
C503 C502 1.385 . S
C504 C502 1.478 . S
C504 C506 1.381 . S
C504 C510 1.383 . S
C505 C501 1.495 . S
C505 H511 0.959 . S
C505 H512 0.961 . S
C505 H513 0.960 . S
C506 C504 1.381 . S
C506 C507 1.394 . S
C506 H514 0.930 . S
C507 C506 1.394 . S
C507 C508 1.383 . S
C507 H515 0.929 . S
C508 C507 1.383 . S
C508 C509 1.377 . S
C509 H493 0.930 . S
C509 C508 1.377 . S
C509 C510 1.379 . S
C510 H494 0.931 . S
C510 C504 1.383 . S
C510 C509 1.379 . S
H511 C505 0.959 . S
H512 C505 0.961 . S
H513 C505 0.960 . S
H514 C506 0.930 . S
H515 C507 0.929 . S
H516 C524 0.929 . S
H517 C526 0.930 . S
H518 C528 0.930 . S
H519 C531 0.929 . S
H520 C534 0.930 . S
H521 C536 0.960 . S
H522 C536 0.960 . S
H523 C536 0.960 . S
C524 H516 0.929 . S
C524 C525 1.377 . S
C524 C526 1.384 . S
C525 C524 1.377 . S
C525 C531 1.390 . S
C526 H517 0.930 . S
C526 C524 1.384 . S
C526 C527 1.372 . S
C527 C526 1.372 . S
C527 C528 1.400 . S
C527 C532 1.490 . S
C528 H518 0.930 . S
C528 C527 1.400 . S
C528 C531 1.386 . S
H529 C545 0.930 . S
H530 C546 0.931 . S
C531 H519 0.929 . S
C531 C525 1.390 . S
C531 C528 1.386 . S
C532 C527 1.490 . S
C532 C534 1.395 . S
C532 C535 1.403 . S
H533 C539 0.930 . S
C534 H520 0.930 . S
C534 C532 1.395 . S
C534 C537 1.403 . S
C535 C532 1.403 . S
C535 C536 1.524 . S
C535 C539 1.400 . S
C536 H521 0.960 . S
C536 H522 0.960 . S
C536 H523 0.960 . S
C536 C535 1.524 . S
C537 C534 1.403 . S
C537 C538 1.392 . S
C537 C541 1.495 . S
C538 C537 1.392 . S
C538 C539 1.385 . S
C538 C540 1.478 . S
C539 H533 0.930 . S
C539 C535 1.400 . S
C539 C538 1.385 . S
C540 C538 1.478 . S
C540 C542 1.381 . S
C540 C546 1.383 . S
C541 C537 1.495 . S
C541 H547 0.959 . S
C541 H548 0.961 . S
C541 H549 0.960 . S
C542 C540 1.381 . S
C542 C543 1.394 . S
C542 H550 0.930 . S
C543 C542 1.394 . S
C543 C544 1.383 . S
C543 H551 0.929 . S
C544 C543 1.383 . S
C544 C545 1.377 . S
C545 H529 0.930 . S
C545 C544 1.377 . S
C545 C546 1.379 . S
C546 H530 0.931 . S
C546 C540 1.383 . S
C546 C545 1.379 . S
H547 C541 0.959 . S
H548 C541 0.961 . S
H549 C541 0.960 . S
H550 C542 0.930 . S
H551 C543 0.929 . S
H552 C560 0.929 . S
H553 C562 0.930 . S
H554 C564 0.930 . S
H555 C567 0.929 . S
H556 C570 0.930 . S
H557 C572 0.960 . S
H558 C572 0.960 . S
H559 C572 0.960 . S
C560 H552 0.929 . S
C560 C561 1.377 . S
C560 C562 1.384 . S
C561 C560 1.377 . S
C561 C567 1.390 . S
C562 H553 0.930 . S
C562 C560 1.384 . S
C562 C563 1.372 . S
C563 C562 1.372 . S
C563 C564 1.400 . S
C563 C568 1.490 . S
C564 H554 0.930 . S
C564 C563 1.400 . S
C564 C567 1.386 . S
H565 C581 0.930 . S
H566 C582 0.931 . S
C567 H555 0.929 . S
C567 C561 1.390 . S
C567 C564 1.386 . S
C568 C563 1.490 . S
C568 C570 1.395 . S
C568 C571 1.403 . S
H569 C575 0.930 . S
C570 H556 0.930 . S
C570 C568 1.395 . S
C570 C573 1.403 . S
C571 C568 1.403 . S
C571 C572 1.524 . S
C571 C575 1.400 . S
C572 H557 0.960 . S
C572 H558 0.960 . S
C572 H559 0.960 . S
C572 C571 1.524 . S
C573 C570 1.403 . S
C573 C574 1.392 . S
C573 C577 1.495 . S
C574 C573 1.392 . S
C574 C575 1.385 . S
C574 C576 1.478 . S
C575 H569 0.930 . S
C575 C571 1.400 . S
C575 C574 1.385 . S
C576 C574 1.478 . S
C576 C578 1.381 . S
C576 C582 1.383 . S
C577 C573 1.495 . S
C577 H583 0.959 . S
C577 H584 0.961 . S
C577 H585 0.960 . S
C578 C576 1.381 . S
C578 C579 1.394 . S
C578 H586 0.930 . S
C579 C578 1.394 . S
C579 C580 1.383 . S
C579 H587 0.929 . S
C580 C579 1.383 . S
C580 C581 1.377 . S
C581 H565 0.930 . S
C581 C580 1.377 . S
C581 C582 1.379 . S
C582 H566 0.931 . S
C582 C576 1.383 . S
C582 C581 1.379 . S
H583 C577 0.959 . S
H584 C577 0.961 . S
H585 C577 0.960 . S
H586 C578 0.930 . S
H587 C579 0.929 . S
H588 C596 0.929 . S
H589 C598 0.930 . S
H590 C600 0.930 . S
H591 C603 0.929 . S
H592 C606 0.930 . S
H593 C608 0.960 . S
H594 C608 0.960 . S
H595 C608 0.960 . S
C596 H588 0.929 . S
C596 C597 1.377 1_665 S
C596 C598 1.384 . S
C597 C596 1.377 1_445 S
C597 C603 1.390 . S
C598 H589 0.930 . S
C598 C596 1.384 . S
C598 C599 1.372 1_665 S
C599 C598 1.372 1_445 S
C599 C600 1.400 . S
C599 C604 1.490 . S
C600 H590 0.930 . S
C600 C599 1.400 . S
C600 C603 1.386 . S
H601 C617 0.930 . S
H602 C618 0.931 . S
C603 H591 0.929 . S
C603 C597 1.390 . S
C603 C600 1.386 . S
C604 C599 1.490 . S
C604 C606 1.395 1_545 S
C604 C607 1.403 1_455 S
H605 C611 0.930 . S
C606 H592 0.930 . S
C606 C604 1.395 1_565 S
C606 C609 1.403 . S
C607 C604 1.403 1_655 S
C607 C608 1.524 . S
C607 C611 1.400 . S
C608 H593 0.960 . S
C608 H594 0.960 . S
C608 H595 0.960 . S
C608 C607 1.524 . S
C609 C606 1.403 . S
C609 C610 1.392 . S
C609 C613 1.495 . S
C610 C609 1.392 . S
C610 C611 1.385 1_465 S
C610 C612 1.478 . S
C611 H605 0.930 . S
C611 C607 1.400 . S
C611 C610 1.385 1_645 S
C612 C610 1.478 . S
C612 C614 1.381 1_455 S
C612 C618 1.383 1_565 S
C613 C609 1.495 . S
C613 H619 0.959 . S
C613 H620 0.961 . S
C613 H621 0.960 . S
C614 C612 1.381 1_655 S
C614 C615 1.394 . S
C614 H622 0.930 . S
C615 C614 1.394 . S
C615 C616 1.383 1_655 S
C615 H623 0.929 . S
C616 C615 1.383 1_455 S
C616 C617 1.377 1_565 S
C617 H601 0.930 . S
C617 C616 1.377 1_545 S
C617 C618 1.379 . S
C618 H602 0.931 . S
C618 C612 1.383 1_545 S
C618 C617 1.379 . S
H619 C613 0.959 . S
H620 C613 0.961 . S
H621 C613 0.960 . S
H622 C614 0.930 . S
H623 C615 0.929 . S
H624 C632 0.929 . S
H625 C634 0.930 . S
H626 C636 0.930 . S
H627 C639 0.929 . S
H628 C642 0.930 . S
H629 C644 0.960 . S
H630 C644 0.960 . S
H631 C644 0.960 . S
C632 H624 0.929 . S
C632 C633 1.377 1_655 S
C632 C634 1.384 . S
C633 C632 1.377 1_455 S
C633 C639 1.390 . S
C634 H625 0.930 . S
C634 C632 1.384 . S
C634 C635 1.372 1_655 S
C635 C634 1.372 1_455 S
C635 C636 1.400 . S
C635 C640 1.490 . S
C636 H626 0.930 . S
C636 C635 1.400 . S
C636 C639 1.386 . S
H637 C653 0.930 . S
H638 C654 0.931 . S
C639 H627 0.929 . S
C639 C633 1.390 . S
C639 C636 1.386 . S
C640 C635 1.490 . S
C640 C642 1.395 1_455 S
C640 C643 1.403 1_545 S
H641 C647 0.930 . S
C642 H628 0.930 . S
C642 C640 1.395 1_655 S
C642 C645 1.403 . S
C643 C640 1.403 1_565 S
C643 C644 1.524 . S
C643 C647 1.400 . S
C644 H629 0.960 . S
C644 H630 0.960 . S
C644 H631 0.960 . S
C644 C643 1.524 . S
C645 C642 1.403 . S
C645 C646 1.392 1_655 S
C645 C649 1.495 . S
C646 C645 1.392 1_455 S
C646 C647 1.385 1_545 S
C646 C648 1.478 . S
C647 H641 0.930 . S
C647 C643 1.400 . S
C647 C646 1.385 1_565 S
C648 C646 1.478 . S
C648 C650 1.381 1_455 S
C648 C654 1.383 . S
C649 C645 1.495 . S
C649 H655 0.959 . S
C649 H656 0.961 . S
C649 H657 0.960 . S
C650 C648 1.381 1_655 S
C650 C651 1.394 . S
C650 H658 0.930 . S
C651 C650 1.394 . S
C651 C652 1.383 1_655 S
C651 H659 0.929 . S
C652 C651 1.383 1_455 S
C652 C653 1.377 . S
C653 H637 0.930 . S
C653 C652 1.377 . S
C653 C654 1.379 . S
C654 H638 0.931 . S
C654 C648 1.383 . S
C654 C653 1.379 . S
H655 C649 0.959 . S
H656 C649 0.961 . S
H657 C649 0.960 . S
H658 C650 0.930 . S
H659 C651 0.929 . S
H660 C668 0.929 . S
H661 C670 0.930 . S
H662 C672 0.930 . S
H663 C675 0.929 . S
H664 C678 0.930 . S
H665 C680 0.960 . S
H666 C680 0.960 . S
H667 C680 0.960 . S
C668 H660 0.929 . S
C668 C669 1.377 . S
C668 C670 1.384 . S
C669 C668 1.377 . S
C669 C675 1.390 . S
C670 H661 0.930 . S
C670 C668 1.384 . S
C670 C671 1.372 . S
C671 C670 1.372 . S
C671 C672 1.400 . S
C671 C676 1.490 . S
C672 H662 0.930 . S
C672 C671 1.400 . S
C672 C675 1.386 . S
H673 C689 0.930 . S
H674 C690 0.931 . S
C675 H663 0.929 . S
C675 C669 1.390 . S
C675 C672 1.386 . S
C676 C671 1.490 . S
C676 C678 1.395 . S
C676 C679 1.403 . S
H677 C683 0.930 . S
C678 H664 0.930 . S
C678 C676 1.395 . S
C678 C681 1.403 . S
C679 C676 1.403 . S
C679 C680 1.524 . S
C679 C683 1.400 . S
C680 H665 0.960 . S
C680 H666 0.960 . S
C680 H667 0.960 . S
C680 C679 1.524 . S
C681 C678 1.403 . S
C681 C682 1.392 . S
C681 C685 1.495 . S
C682 C681 1.392 . S
C682 C683 1.385 . S
C682 C684 1.478 . S
C683 H677 0.930 . S
C683 C679 1.400 . S
C683 C682 1.385 . S
C684 C682 1.478 . S
C684 C686 1.381 . S
C684 C690 1.383 . S
C685 C681 1.495 . S
C685 H691 0.959 . S
C685 H692 0.961 . S
C685 H693 0.960 . S
C686 C684 1.381 . S
C686 C687 1.394 . S
C686 H694 0.930 . S
C687 C686 1.394 . S
C687 C688 1.383 . S
C687 H695 0.929 . S
C688 C687 1.383 . S
C688 C689 1.377 . S
C689 H673 0.930 . S
C689 C688 1.377 . S
C689 C690 1.379 . S
C690 H674 0.931 . S
C690 C684 1.383 . S
C690 C689 1.379 . S
H691 C685 0.959 . S
H692 C685 0.961 . S
H693 C685 0.960 . S
H694 C686 0.930 . S
H695 C687 0.929 . S
H696 C704 0.929 . S
H697 C706 0.930 . S
H698 C708 0.930 . S
H699 C711 0.929 . S
H700 C714 0.930 . S
H701 C716 0.960 . S
H702 C716 0.960 . S
H703 C716 0.960 . S
C704 H696 0.929 . S
C704 C705 1.377 . S
C704 C706 1.384 . S
C705 C704 1.377 . S
C705 C711 1.390 . S
C706 H697 0.930 . S
C706 C704 1.384 . S
C706 C707 1.372 . S
C707 C706 1.372 . S
C707 C708 1.400 . S
C707 C712 1.490 . S
C708 H698 0.930 . S
C708 C707 1.400 . S
C708 C711 1.386 . S
H709 C725 0.930 . S
H710 C726 0.931 . S
C711 H699 0.929 . S
C711 C705 1.390 . S
C711 C708 1.386 . S
C712 C707 1.490 . S
C712 C714 1.395 . S
C712 C715 1.403 . S
H713 C719 0.930 . S
C714 H700 0.930 . S
C714 C712 1.395 . S
C714 C717 1.403 . S
C715 C712 1.403 . S
C715 C716 1.524 . S
C715 C719 1.400 . S
C716 H701 0.960 . S
C716 H702 0.960 . S
C716 H703 0.960 . S
C716 C715 1.524 . S
C717 C714 1.403 . S
C717 C718 1.392 . S
C717 C721 1.495 . S
C718 C717 1.392 . S
C718 C719 1.385 . S
C718 C720 1.478 . S
C719 H713 0.930 . S
C719 C715 1.400 . S
C719 C718 1.385 . S
C720 C718 1.478 . S
C720 C722 1.381 . S
C720 C726 1.383 . S
C721 C717 1.495 . S
C721 H727 0.959 . S
C721 H728 0.961 . S
C721 H729 0.960 . S
C722 C720 1.381 . S
C722 C723 1.394 . S
C722 H730 0.930 . S
C723 C722 1.394 . S
C723 C724 1.383 . S
C723 H731 0.929 . S
C724 C723 1.383 . S
C724 C725 1.377 . S
C725 H709 0.930 . S
C725 C724 1.377 . S
C725 C726 1.379 . S
C726 H710 0.931 . S
C726 C720 1.383 . S
C726 C725 1.379 . S
H727 C721 0.959 . S
H728 C721 0.961 . S
H729 C721 0.960 . S
H730 C722 0.930 . S
H731 C723 0.929 . S
C328 C271 1.407 . S
C309 C27 1.409 . S
C345 N6 1.311 . S
C364 C211 1.367 . S
C381 C16 1.394 . S
C400 C241 1.326 . S
C417 N14 1.333 . S
C436 C181 1.254 . S
C453 C57 1.409 . S
C472 C151 1.411 . S
C489 N36 1.321 . S
C508 C91 1.348 . S
C544 C121 1.283 . S
C525 C46 1.392 . S
C580 C61 1.272 . S
C561 N44 1.339 . S
C597 C10 1.384 . S
C616 C80 1.379 1_465 S
C633 C1 1.523 . S
C652 C140 1.500 1_455 S
C688 C200 1.380 . S
C669 C40 1.384 . S
C705 C31 1.522 . S
C724 C260 1.516 . S
