# Generated by pormake.
# Topology pyr, (3,6)-cn, num edge types: 1
# Building blocks:
#     Node 0, Type 0, BuildingBlock: KAKCAD_clean_linker_0, # of connection points: 3
#     Node 1, Type 0, BuildingBlock: KAKCAD_clean_linker_0, # of connection points: 3
#     Node 2, Type 0, BuildingBlock: KAKCAD_clean_linker_0, # of connection points: 3
#     Node 3, Type 0, BuildingBlock: KAKCAD_clean_linker_0, # of connection points: 3
#     Node 4, Type 0, BuildingBlock: KAKCAD_clean_linker_0, # of connection points: 3
#     Node 5, Type 0, BuildingBlock: KAKCAD_clean_linker_0, # of connection points: 3
#     Node 6, Type 0, BuildingBlock: KAKCAD_clean_linker_0, # of connection points: 3
#     Node 7, Type 0, BuildingBlock: KAKCAD_clean_linker_0, # of connection points: 3
#     Node 8, Type 1, BuildingBlock: MIDCAF_clean_sbu_0, # of connection points: 6
#     Node 9, Type 1, BuildingBlock: MIDCAF_clean_sbu_0, # of connection points: 6
#     Node 10, Type 1, BuildingBlock: MIDCAF_clean_sbu_0, # of connection points: 6
#     Node 11, Type 1, BuildingBlock: MIDCAF_clean_sbu_0, # of connection points: 6
#     Edge 12, Type (0, 1), BuildingBlock: XIVTED_clean_linker_0, # of connection points: 2
#     Edge 13, Type (0, 1), BuildingBlock: XIVTED_clean_linker_0, # of connection points: 2
#     Edge 14, Type (0, 1), BuildingBlock: XIVTED_clean_linker_0, # of connection points: 2
#     Edge 15, Type (0, 1), BuildingBlock: XIVTED_clean_linker_0, # of connection points: 2
#     Edge 16, Type (0, 1), BuildingBlock: XIVTED_clean_linker_0, # of connection points: 2
#     Edge 17, Type (0, 1), BuildingBlock: XIVTED_clean_linker_0, # of connection points: 2
#     Edge 18, Type (0, 1), BuildingBlock: XIVTED_clean_linker_0, # of connection points: 2
#     Edge 19, Type (0, 1), BuildingBlock: XIVTED_clean_linker_0, # of connection points: 2
#     Edge 20, Type (0, 1), BuildingBlock: XIVTED_clean_linker_0, # of connection points: 2
#     Edge 21, Type (0, 1), BuildingBlock: XIVTED_clean_linker_0, # of connection points: 2
#     Edge 22, Type (0, 1), BuildingBlock: XIVTED_clean_linker_0, # of connection points: 2
#     Edge 23, Type (0, 1), BuildingBlock: XIVTED_clean_linker_0, # of connection points: 2
#     Edge 24, Type (0, 1), BuildingBlock: XIVTED_clean_linker_0, # of connection points: 2
#     Edge 25, Type (0, 1), BuildingBlock: XIVTED_clean_linker_0, # of connection points: 2
#     Edge 26, Type (0, 1), BuildingBlock: XIVTED_clean_linker_0, # of connection points: 2
#     Edge 27, Type (0, 1), BuildingBlock: XIVTED_clean_linker_0, # of connection points: 2
#     Edge 28, Type (0, 1), BuildingBlock: XIVTED_clean_linker_0, # of connection points: 2
#     Edge 29, Type (0, 1), BuildingBlock: XIVTED_clean_linker_0, # of connection points: 2
#     Edge 30, Type (0, 1), BuildingBlock: XIVTED_clean_linker_0, # of connection points: 2
#     Edge 31, Type (0, 1), BuildingBlock: XIVTED_clean_linker_0, # of connection points: 2
#     Edge 32, Type (0, 1), BuildingBlock: XIVTED_clean_linker_0, # of connection points: 2
#     Edge 33, Type (0, 1), BuildingBlock: XIVTED_clean_linker_0, # of connection points: 2
#     Edge 34, Type (0, 1), BuildingBlock: XIVTED_clean_linker_0, # of connection points: 2
#     Edge 35, Type (0, 1), BuildingBlock: XIVTED_clean_linker_0, # of connection points: 2
# Relax obj value: 0.019
# Max RMSD: 0.063
# Mean RMSD: 0.024
data_MOF--net-pry--node1-MIDCAF_clean_sbu_0--node2-KAKCAD_clean_linker_0--edge1-XIVTED_clean_linker_0
_symmetry_space_group_name_H-M    P1
_symmetry_Int_Tables_number       1
_symmetry_cell_setting            triclinic
loop_
_symmetry_equiv_pos_as_xyz
'x, y, z'
_cell_length_a     44.032461
_cell_length_b     44.042317
_cell_length_c     43.977651
_cell_angle_alpha  90.250666
_cell_angle_beta   89.90969
_cell_angle_gamma 90.317545
loop_
_atom_site_label
_atom_site_type_symbol
_atom_site_fract_x
_atom_site_fract_y
_atom_site_fract_z
_atom_type_partial_charge
C0 C 0.16711 0.21641 0.32579 0.0
C1 C 0.18244 0.19717 0.34603 0.0
C2 C 0.18233 0.22974 0.30129 0.0
C3 C 0.21361 0.22503 0.2967 0.0
C4 C 0.2292 0.2067 0.31759 0.0
C5 C 0.2138 0.19271 0.34164 0.0
C6 C 0.22961 0.2384 0.2698 0.0
C7 C 0.22019 0.2663 0.2575 0.0
C8 C 0.23345 0.27785 0.23084 0.0
C9 C 0.2575 0.26202 0.21724 0.0
C10 C 0.26761 0.23431 0.22916 0.0
C11 C 0.2534 0.2226 0.2553 0.0
C12 C 0.29221 0.21717 0.21349 0.0
C13 C 0.29329 0.21599 0.18155 0.0
C14 C 0.31489 0.20216 0.23011 0.0
C15 C 0.33838 0.18683 0.21508 0.0
C16 C 0.33976 0.18638 0.18314 0.0
C17 C 0.2206 0.30515 0.21587 0.0
C18 C 0.21559 0.30509 0.18431 0.0
C19 C 0.21156 0.33057 0.23299 0.0
C20 C 0.19699 0.35495 0.21898 0.0
C21 C 0.19103 0.3544 0.18754 0.0
C22 C 0.20098 0.32937 0.17033 0.0
C23 C 0.31679 0.2009 0.1666 0.0
H24 H 0.14317 0.22112 0.32857 0.0
H25 H 0.16918 0.2432 0.28561 0.0
H26 H 0.25336 0.20289 0.31534 0.0
H27 H 0.22655 0.17778 0.35627 0.0
H28 H 0.20189 0.27876 0.26814 0.0
H29 H 0.26013 0.20051 0.26354 0.0
H30 H 0.26836 0.27139 0.19722 0.0
H31 H 0.27582 0.22659 0.16799 0.0
H32 H 0.31485 0.20279 0.25473 0.0
H33 H 0.35583 0.17593 0.22843 0.0
H34 H 0.22183 0.28566 0.17051 0.0
H35 H 0.21547 0.33148 0.25729 0.0
H36 H 0.31681 0.20037 0.14197 0.0
H37 H 0.19634 0.32786 0.1462 0.0
H38 H 0.19006 0.37408 0.23285 0.0
C39 C 0.3221 0.84787 0.83932 0.0
C40 C 0.35348 0.84348 0.84352 0.0
C41 C 0.30652 0.8331 0.81579 0.0
C42 C 0.32193 0.81405 0.79521 0.0
C43 C 0.35321 0.80932 0.79969 0.0
C44 C 0.3686 0.82342 0.82369 0.0
C45 C 0.30578 0.80004 0.76866 0.0
C46 C 0.28208 0.81563 0.75403 0.0
C47 C 0.26778 0.80339 0.72814 0.0
C48 C 0.2777 0.77534 0.71659 0.0
C49 C 0.3017 0.75969 0.73031 0.0
C50 C 0.31504 0.77181 0.75674 0.0
C51 C 0.31448 0.73205 0.71563 0.0
C52 C 0.32396 0.70716 0.73307 0.0
C53 C 0.31908 0.73127 0.68399 0.0
C54 C 0.33371 0.70672 0.67024 0.0
C55 C 0.34415 0.68229 0.68776 0.0
C56 C 0.2434 0.82043 0.71228 0.0
C57 C 0.22087 0.83604 0.72875 0.0
C58 C 0.24253 0.82116 0.68034 0.0
C59 C 0.21947 0.83658 0.66524 0.0
C60 C 0.19672 0.85183 0.68163 0.0
C61 C 0.19781 0.85165 0.71358 0.0
C62 C 0.33862 0.68255 0.71929 0.0
H63 H 0.3095 0.86336 0.85366 0.0
H64 H 0.28236 0.83693 0.81366 0.0
H65 H 0.36622 0.7953 0.78424 0.0
H66 H 0.39254 0.81872 0.82639 0.0
H67 H 0.27553 0.83797 0.76193 0.0
H68 H 0.33332 0.75954 0.76748 0.0
H69 H 0.26675 0.76561 0.69673 0.0
H70 H 0.32037 0.70686 0.75744 0.0
H71 H 0.31253 0.75026 0.66992 0.0
H72 H 0.33802 0.70758 0.64601 0.0
H73 H 0.22075 0.83574 0.75337 0.0
H74 H 0.2599 0.81007 0.6669 0.0
H75 H 0.34596 0.66389 0.73339 0.0
H76 H 0.18051 0.86306 0.72683 0.0
H77 H 0.21968 0.83686 0.64061 0.0
C78 C 0.82437 0.36739 0.82316 0.0
C79 C 0.84386 0.35241 0.84344 0.0
C80 C 0.80085 0.35175 0.80854 0.0
C81 C 0.79656 0.32036 0.81294 0.0
C82 C 0.81682 0.30511 0.83225 0.0
C83 C 0.83985 0.32094 0.84754 0.0
C84 C 0.77053 0.30393 0.79831 0.0
C85 C 0.75917 0.31333 0.76994 0.0
C86 C 0.73313 0.29974 0.75727 0.0
C87 C 0.71933 0.27534 0.77245 0.0
C88 C 0.73025 0.26535 0.80066 0.0
C89 C 0.75574 0.27986 0.81347 0.0
C90 C 0.71399 0.24077 0.81731 0.0
C91 C 0.68207 0.23972 0.81744 0.0
C92 C 0.73002 0.21821 0.83307 0.0
C93 C 0.71444 0.19491 0.84822 0.0
C94 C 0.68253 0.19364 0.84775 0.0
C95 C 0.7188 0.31273 0.72963 0.0
C96 C 0.68714 0.31665 0.72858 0.0
C97 C 0.73648 0.32308 0.70509 0.0
C98 C 0.7229 0.33786 0.68054 0.0
C99 C 0.69133 0.34263 0.68002 0.0
C100 C 0.67359 0.33137 0.7041 0.0
C101 C 0.66657 0.21644 0.83238 0.0
H102 H 0.82695 0.3914 0.81866 0.0
H103 H 0.78561 0.36465 0.79435 0.0
H104 H 0.81481 0.28089 0.83587 0.0
H105 H 0.85395 0.30843 0.86318 0.0
H106 H 0.77 0.33191 0.75802 0.0
H107 H 0.76315 0.2732 0.83592 0.0
H108 H 0.6998 0.2642 0.76229 0.0
H109 H 0.66896 0.25712 0.80622 0.0
H110 H 0.75462 0.21824 0.83325 0.0
H111 H 0.72735 0.17758 0.85976 0.0
H112 H 0.67286 0.30946 0.74733 0.0
H113 H 0.76088 0.32005 0.70501 0.0
H114 H 0.64197 0.21652 0.83219 0.0
H115 H 0.64931 0.33511 0.70476 0.0
H116 H 0.73717 0.3459 0.66215 0.0
C117 C 0.81176 0.69105 0.19033 0.0
C118 C 0.84343 0.68698 0.18923 0.0
C119 C 0.79841 0.70739 0.21418 0.0
C120 C 0.81643 0.72008 0.23737 0.0
C121 C 0.8481 0.71639 0.23599 0.0
C122 C 0.86141 0.70005 0.21226 0.0
C123 C 0.80245 0.73626 0.26357 0.0
C124 C 0.77675 0.72418 0.27826 0.0
C125 C 0.76504 0.73793 0.30469 0.0
C126 C 0.77934 0.76423 0.31623 0.0
C127 C 0.80516 0.77656 0.30194 0.0
C128 C 0.81613 0.76269 0.2753 0.0
C129 C 0.82197 0.80257 0.31588 0.0
C130 C 0.80652 0.82661 0.33025 0.0
C131 C 0.85391 0.80295 0.31573 0.0
C132 C 0.86999 0.82668 0.32943 0.0
C133 C 0.85461 0.85055 0.34395 0.0
C134 C 0.73919 0.7237 0.32135 0.0
C135 C 0.71459 0.71053 0.3056 0.0
C136 C 0.73935 0.72251 0.3533 0.0
C137 C 0.71556 0.70863 0.36908 0.0
C138 C 0.69106 0.69536 0.35337 0.0
C139 C 0.69083 0.6964 0.32144 0.0
C140 C 0.8227 0.85028 0.34428 0.0
H141 H 0.79727 0.68159 0.17278 0.0
H142 H 0.77398 0.71011 0.21445 0.0
H143 H 0.8626 0.72538 0.25379 0.0
H144 H 0.88578 0.69686 0.21253 0.0
H145 H 0.7668 0.70317 0.26997 0.0
H146 H 0.83561 0.77235 0.26369 0.0
H147 H 0.77082 0.77465 0.33687 0.0
H148 H 0.78195 0.82723 0.33053 0.0
H149 H 0.86664 0.7845 0.30563 0.0
H150 H 0.89458 0.82594 0.32933 0.0
H151 H 0.71358 0.71129 0.28101 0.0
H152 H 0.75823 0.7317 0.3662 0.0
H153 H 0.81026 0.86849 0.35516 0.0
H154 H 0.67214 0.68656 0.30873 0.0
H155 H 0.71673 0.70766 0.39366 0.0
C156 C 0.95713 0.88742 0.79235 0.0
C157 C 0.96416 0.91801 0.78639 0.0
C158 C 0.93844 0.87959 0.81689 0.0
C159 C 0.92642 0.90215 0.83611 0.0
C160 C 0.93416 0.93264 0.83065 0.0
C161 C 0.95269 0.94047 0.80608 0.0
C162 C 0.90521 0.89407 0.86124 0.0
C163 C 0.91004 0.86796 0.87883 0.0
C164 C 0.88986 0.86003 0.90229 0.0
C165 C 0.86451 0.87833 0.90803 0.0
C166 C 0.85915 0.90434 0.89054 0.0
C167 C 0.87967 0.91219 0.86737 0.0
C168 C 0.83168 0.92286 0.89605 0.0
C169 C 0.80308 0.90879 0.89827 0.0
C170 C 0.83385 0.95453 0.89953 0.0
C171 C 0.80796 0.9717 0.90602 0.0
C172 C 0.77939 0.95753 0.90857 0.0
C173 C 0.89519 0.83246 0.92063 0.0
C174 C 0.90093 0.80457 0.90622 0.0
C175 C 0.89499 0.8339 0.95256 0.0
C176 C 0.90124 0.80803 0.96976 0.0
C177 C 0.9072 0.78017 0.95531 0.0
C178 C 0.90666 0.77864 0.92339 0.0
C179 C 0.77719 0.92596 0.90428 0.0
H180 H 0.96579 0.86949 0.77787 0.0
H181 H 0.93277 0.85588 0.82027 0.0
H182 H 0.92569 0.95057 0.84525 0.0
H183 H 0.9572 0.9643 0.80202 0.0
H184 H 0.92989 0.85407 0.87474 0.0
H185 H 0.8751 0.93189 0.85345 0.0
H186 H 0.84878 0.87218 0.92601 0.0
H187 H 0.80076 0.88444 0.89541 0.0
H188 H 0.85568 0.9659 0.89798 0.0
H189 H 0.81027 0.996 0.9092 0.0
H190 H 0.90101 0.80285 0.88164 0.0
H191 H 0.89073 0.8552 0.96418 0.0
H192 H 0.75554 0.91437 0.90651 0.0
H193 H 0.91156 0.75754 0.91166 0.0
H194 H 0.90152 0.8098 0.99434 0.0
C195 C 0.58461 0.09376 0.30684 0.0
C196 C 0.57367 0.11632 0.28717 0.0
C197 C 0.60259 0.10148 0.33186 0.0
C198 C 0.61034 0.13193 0.33778 0.0
C199 C 0.59887 0.15457 0.31853 0.0
C200 C 0.58069 0.14686 0.29359 0.0
C201 C 0.63098 0.13994 0.3634 0.0
C202 C 0.65618 0.12163 0.37009 0.0
C203 C 0.6763 0.12959 0.39358 0.0
C204 C 0.67088 0.15593 0.41081 0.0
C205 C 0.64591 0.17444 0.40447 0.0
C206 C 0.62607 0.16633 0.38078 0.0
C207 C 0.64075 0.20259 0.42219 0.0
C208 C 0.64031 0.20206 0.45414 0.0
C209 C 0.63585 0.23016 0.40713 0.0
C210 C 0.63025 0.25667 0.42366 0.0
C211 C 0.62903 0.25606 0.45558 0.0
C212 C 0.70357 0.11101 0.39954 0.0
C213 C 0.70125 0.07935 0.40285 0.0
C214 C 0.73215 0.12502 0.4023 0.0
C215 C 0.75787 0.10782 0.40869 0.0
C216 C 0.75551 0.07626 0.41276 0.0
C217 C 0.72697 0.06215 0.40967 0.0
C218 C 0.63421 0.22853 0.4707 0.0
H219 H 0.5801 0.06996 0.30244 0.0
H220 H 0.61063 0.08349 0.34645 0.0
H221 H 0.60457 0.17824 0.32222 0.0
H222 H 0.5724 0.16487 0.27917 0.0
H223 H 0.66087 0.10173 0.35632 0.0
H224 H 0.60649 0.18041 0.37627 0.0
H225 H 0.68634 0.16224 0.42897 0.0
H226 H 0.64395 0.18102 0.46624 0.0
H227 H 0.6363 0.23117 0.38252 0.0
H228 H 0.62596 0.27749 0.41141 0.0
H229 H 0.67943 0.06804 0.40088 0.0
H230 H 0.7346 0.14935 0.39957 0.0
H231 H 0.63338 0.22749 0.49529 0.0
H232 H 0.72454 0.03786 0.41266 0.0
H233 H 0.77949 0.11938 0.41133 0.0
C234 C 0.29145 0.58093 0.14937 0.0
C235 C 0.28462 0.57428 0.11882 0.0
C236 C 0.31715 0.59819 0.15689 0.0
C237 C 0.33672 0.60909 0.13404 0.0
C238 C 0.33045 0.60155 0.1036 0.0
C239 C 0.30469 0.58449 0.09608 0.0
C240 C 0.3629 0.62921 0.14175 0.0
C241 C 0.38035 0.624 0.16795 0.0
C242 C 0.40457 0.64344 0.17568 0.0
C243 C 0.41127 0.66836 0.15704 0.0
C244 C 0.39398 0.67401 0.1309 0.0
C245 C 0.37002 0.65429 0.12329 0.0
C246 C 0.40035 0.70115 0.11215 0.0
C247 C 0.40312 0.7298 0.126 0.0
C248 C 0.40392 0.69862 0.08048 0.0
C249 C 0.41093 0.72426 0.06307 0.0
C250 C 0.41391 0.75289 0.077 0.0
C251 C 0.42262 0.63792 0.20348 0.0
C252 C 0.40797 0.63274 0.23137 0.0
C253 C 0.45452 0.63761 0.20231 0.0
C254 C 0.47143 0.63148 0.22845 0.0
C255 C 0.45674 0.6261 0.25631 0.0
C256 C 0.42487 0.62708 0.25756 0.0
C257 C 0.40963 0.75544 0.10858 0.0
H258 H 0.27673 0.57315 0.16752 0.0
H259 H 0.32114 0.60374 0.18056 0.0
H260 H 0.34527 0.60914 0.08546 0.0
H261 H 0.30005 0.58023 0.07227 0.0
H262 H 0.37548 0.6045 0.18212 0.0
H263 H 0.35623 0.65921 0.10354 0.0
H264 H 0.42977 0.68357 0.16305 0.0
H265 H 0.40022 0.73237 0.15034 0.0
H266 H 0.40194 0.67673 0.06932 0.0
H267 H 0.41412 0.72171 0.03877 0.0
H268 H 0.38342 0.63309 0.2329 0.0
H269 H 0.46633 0.64145 0.18103 0.0
H270 H 0.41218 0.77717 0.11996 0.0
H271 H 0.41294 0.62263 0.27865 0.0
H272 H 0.49598 0.63085 0.22689 0.0
C273 C 0.13643 0.29686 0.58548 0.0
C274 C 0.10845 0.29715 0.56999 0.0
C275 C 0.14603 0.3221 0.60235 0.0
C276 C 0.12765 0.34792 0.60452 0.0
C277 C 0.10029 0.34881 0.58833 0.0
C278 C 0.09098 0.32386 0.5709 0.0
C279 C 0.13618 0.37314 0.62504 0.0
C280 C 0.16406 0.38824 0.62144 0.0
C281 C 0.17252 0.41177 0.64142 0.0
C282 C 0.15323 0.41939 0.66569 0.0
C283 C 0.12558 0.4039 0.66997 0.0
C284 C 0.11688 0.38126 0.64913 0.0
C285 C 0.1067 0.4102 0.69714 0.0
C286 C 0.12018 0.41111 0.72604 0.0
C287 C 0.07527 0.41496 0.69457 0.0
C288 C 0.05778 0.4212 0.72044 0.0
C289 C 0.07136 0.42222 0.74934 0.0
C290 C 0.20151 0.42832 0.63693 0.0
C291 C 0.2286 0.4123 0.63222 0.0
C292 C 0.20215 0.46022 0.63653 0.0
C293 C 0.22925 0.4758 0.63057 0.0
C294 C 0.25627 0.45974 0.62542 0.0
C295 C 0.25575 0.42786 0.62672 0.0
C296 C 0.10268 0.41691 0.75186 0.0
H297 H 0.15036 0.2767 0.5858 0.0
H298 H 0.16719 0.32096 0.61483 0.0
H299 H 0.08596 0.36871 0.58945 0.0
H300 H 0.06974 0.32538 0.55866 0.0
H301 H 0.17886 0.38206 0.60271 0.0
H302 H 0.09574 0.36895 0.65245 0.0
H303 H 0.15996 0.43711 0.68153 0.0
H304 H 0.1443 0.40718 0.72869 0.0
H305 H 0.06437 0.41438 0.67251 0.0
H306 H 0.03367 0.42522 0.71788 0.0
H307 H 0.22872 0.3877 0.63264 0.0
H308 H 0.18151 0.47307 0.63998 0.0
H309 H 0.11384 0.41797 0.77378 0.0
H310 H 0.27618 0.4149 0.62247 0.0
H311 H 0.22907 0.50037 0.62971 0.0
Zn312 Zn 0.98181 0.05232 0.55588 0.0
Zn313 Zn 0.05722 0.99062 0.48275 0.0
Zn314 Zn 0.01929 0.02213 0.51973 0.0
C315 C 0.07408 0.05191 0.47974 0.0
C316 C 0.99762 0.98128 0.46191 0.0
O317 O 0.02332 0.00406 0.56667 0.0
O318 O 0.99452 0.0342 0.59484 0.0
C319 C 0.02053 0.09501 0.52914 0.0
O320 O 0.05098 0.05444 0.49761 0.0
O321 O 0.08274 0.02611 0.47071 0.0
O322 O 0.02481 0.97566 0.45469 0.0
O323 O 0.99165 0.99793 0.48532 0.0
O324 O 0.99704 0.09335 0.54555 0.0
O325 O 0.03254 0.07073 0.51807 0.0
O326 O 0.97227 0.01716 0.50237 0.0
O327 O 0.94307 0.03887 0.53713 0.0
C328 C 0.94578 0.02478 0.51224 0.0
O329 O 0.0443 0.98896 0.5479 0.0
O330 O 0.0721 0.96289 0.51496 0.0
C331 C 0.01247 0.01205 0.59274 0.0
C332 C 0.06348 0.96771 0.54196 0.0
Zn333 Zn 0.47959 0.05201 0.98179 0.0
Zn334 Zn 0.55267 0.98378 0.05181 0.0
Zn335 Zn 0.51683 0.01846 0.01739 0.0
C336 C 0.58986 0.01212 0.00905 0.0
C337 C 0.5105 0.94515 0.0248 0.0
O338 O 0.49355 0.05199 0.04693 0.0
O339 O 0.46617 0.0795 0.01517 0.0
C340 C 0.53965 0.05923 0.96047 0.0
O341 O 0.56393 0.02192 0.99987 0.0
O342 O 0.59165 0.99609 0.0327 0.0
O343 O 0.53448 0.94398 0.04044 0.0
O344 O 0.50068 0.97082 0.015 0.0
O345 O 0.5126 0.06604 0.95396 0.0
O346 O 0.54535 0.04199 0.98335 0.0
O347 O 0.48362 0.98828 0.99445 0.0
O348 O 0.45246 0.01798 0.96874 0.0
C349 C 0.46047 0.99177 0.97692 0.0
O350 O 0.51413 0.03539 0.06475 0.0
O351 O 0.54099 0.0024 0.09126 0.0
C352 C 0.47499 0.07393 0.04188 0.0
C353 C 0.52461 0.02581 0.09031 0.0
Zn354 Zn 0.55773 0.55549 0.55666 0.0
Zn355 Zn 0.48772 0.48502 0.48363 0.0
Zn356 Zn 0.52264 0.52022 0.5195 0.0
C357 C 0.53211 0.44786 0.50846 0.0
C358 C 0.51328 0.5301 0.44705 0.0
O359 O 0.49323 0.54124 0.55453 0.0
O360 O 0.52414 0.56732 0.58472 0.0
C361 C 0.57998 0.49589 0.55899 0.0
O362 O 0.54096 0.47352 0.51966 0.0
O363 O 0.50813 0.44613 0.49284 0.0
O364 O 0.49778 0.50597 0.44506 0.0
O365 O 0.52388 0.539 0.47291 0.0
O366 O 0.5859 0.52233 0.56866 0.0
O367 O 0.55747 0.49125 0.54082 0.0
O368 O 0.54428 0.55572 0.4913 0.0
O369 O 0.57029 0.58413 0.52392 0.0
C370 C 0.56186 0.57853 0.49701 0.0
O371 O 0.47569 0.52038 0.53742 0.0
O372 O 0.44855 0.49412 0.50394 0.0
C373 C 0.49763 0.5586 0.57782 0.0
C374 C 0.45008 0.50942 0.52824 0.0
Zn375 Zn 0.04862 0.55524 0.98381 0.0
Zn376 Zn 0.98008 0.48017 0.05319 0.0
Zn377 Zn 0.01475 0.51856 0.01851 0.0
C378 C 0.04061 0.47728 0.07378 0.0
C379 C 0.97517 0.46128 0.99249 0.0
O380 O 0.9962 0.5651 0.02177 0.0
O381 O 0.02875 0.59368 0.99605 0.0
C382 C 0.08759 0.52845 0.02545 0.0
O383 O 0.04483 0.49611 0.05178 0.0
O384 O 0.01426 0.46752 0.07987 0.0
O385 O 0.96723 0.45317 0.01886 0.0
O386 O 0.99236 0.48475 0.9887 0.0
O387 O 0.08836 0.54483 0.00198 0.0
O388 O 0.06223 0.51728 0.03507 0.0
O389 O 0.0122 0.50247 0.97083 0.0
O390 O 0.03737 0.53688 0.94409 0.0
C391 C 0.02185 0.51273 0.94514 0.0
O392 O 0.98039 0.54605 0.04243 0.0
O393 O 0.95217 0.51284 0.06772 0.0
C394 C 0.00493 0.59124 0.01188 0.0
C395 C 0.95802 0.53997 0.06037 0.0
H396 H 0.20324 0.17921 0.40257 0.0
H397 H 0.04784 0.10248 0.45609 0.0
H398 H 0.1228 0.1773 0.34622 0.0
H399 H 0.13482 0.06196 0.4741 0.0
H400 H 0.07364 0.14297 0.42739 0.0
H401 H 0.1765 0.148 0.43995 0.0
C402 C 0.18005 0.17243 0.3979 0.0
C403 C 0.1656 0.18078 0.37067 0.0
C404 C 0.08702 0.12547 0.43813 0.0
C405 C 0.13457 0.14612 0.41427 0.0
C406 C 0.0724 0.10258 0.4546 0.0
C407 C 0.08934 0.07899 0.46734 0.0
C408 C 0.11874 0.12487 0.43489 0.0
C409 C 0.12105 0.0798 0.4645 0.0
C410 C 0.16476 0.15486 0.41949 0.0
C411 C 0.13503 0.17199 0.3668 0.0
N412 N 0.13479 0.10239 0.44852 0.0
N413 N 0.1206 0.15514 0.38829 0.0
H414 H 0.41312 0.86321 0.84227 0.0
H415 H 0.39946 0.98367 0.97076 0.0
H416 H 0.33322 0.86397 0.89964 0.0
H417 H 0.48529 0.94051 0.95283 0.0
H418 H 0.37363 0.94282 0.94258 0.0
H419 H 0.4396 0.89395 0.87997 0.0
C420 C 0.40113 0.86926 0.86289 0.0
C421 C 0.37057 0.86078 0.86742 0.0
C422 C 0.39806 0.94203 0.9453 0.0
C423 C 0.40087 0.89723 0.91027 0.0
C424 C 0.41275 0.96529 0.96125 0.0
C425 C 0.44444 0.96526 0.96408 0.0
C426 C 0.41534 0.91925 0.93125 0.0
C427 C 0.46077 0.94113 0.95127 0.0
C428 C 0.41637 0.88703 0.88437 0.0
C429 C 0.35639 0.87041 0.89451 0.0
N430 N 0.44607 0.91932 0.93487 0.0
N431 N 0.37148 0.88851 0.91464 0.0
H432 H 0.6365 0.33344 0.65136 0.0
H433 H 0.64052 0.49593 0.57099 0.0
H434 H 0.71339 0.39463 0.65382 0.0
H435 H 0.56094 0.43858 0.5738 0.0
H436 H 0.66979 0.45563 0.59502 0.0
H437 H 0.61079 0.36811 0.61668 0.0
C438 C 0.64808 0.35405 0.64446 0.0
C439 C 0.67705 0.36125 0.65583 0.0
C440 C 0.64604 0.45162 0.59001 0.0
C441 C 0.64777 0.401 0.61605 0.0
C442 C 0.62935 0.47462 0.5763 0.0
C443 C 0.59839 0.47039 0.57016 0.0
C444 C 0.63156 0.42431 0.59807 0.0
C445 C 0.58492 0.44247 0.5776 0.0
C446 C 0.63342 0.37378 0.62457 0.0
C447 C 0.69117 0.38798 0.64557 0.0
N448 N 0.60154 0.42053 0.59138 0.0
N449 N 0.67628 0.40699 0.62654 0.0
H450 H 0.82213 0.63363 0.1646 0.0
H451 H 0.97625 0.59748 0.07601 0.0
H452 H 0.89743 0.69659 0.15916 0.0
H453 H 0.89844 0.53763 0.07695 0.0
H454 H 0.94631 0.63613 0.10243 0.0
H455 H 0.84802 0.60033 0.12864 0.0
C456 C 0.84391 0.64071 0.15552 0.0
C457 C 0.85769 0.66791 0.16518 0.0
C458 C 0.93564 0.6147 0.09652 0.0
C459 C 0.88782 0.62946 0.12431 0.0
C460 C 0.95264 0.59277 0.08114 0.0
C461 C 0.93965 0.56454 0.07387 0.0
C462 C 0.90557 0.60811 0.10514 0.0
C463 C 0.90931 0.55916 0.08211 0.0
C464 C 0.85881 0.62154 0.13511 0.0
C465 C 0.88618 0.67558 0.15286 0.0
N466 N 0.89336 0.58066 0.09743 0.0
N467 N 0.90039 0.65637 0.13327 0.0
H468 H 0.36508 0.13053 0.1945 0.0
H469 H 0.46327 0.13421 0.04151 0.0
H470 H 0.37199 0.20751 0.13452 0.0
H471 H 0.4569 0.05511 0.09857 0.0
H472 H 0.43534 0.16326 0.07955 0.0
H473 H 0.40372 0.10437 0.16394 0.0
C474 C 0.37499 0.14206 0.17514 0.0
C475 C 0.36498 0.17107 0.16677 0.0
C476 C 0.44033 0.13966 0.08408 0.0
C477 C 0.40901 0.14132 0.13173 0.0
C478 C 0.45634 0.12311 0.06236 0.0
C479 C 0.46243 0.0923 0.067 0.0
C480 C 0.42978 0.12521 0.11051 0.0
C481 C 0.45295 0.07895 0.09435 0.0
C482 C 0.39694 0.12708 0.15766 0.0
C483 C 0.37852 0.18491 0.14143 0.0
N484 N 0.43674 0.09541 0.11499 0.0
N485 N 0.39963 0.16986 0.12476 0.0
H486 H 0.17244 0.90817 0.69344 0.0
H487 H 0.07639 0.90774 0.5394 0.0
H488 H 0.16481 0.83167 0.63225 0.0
H489 H 0.08136 0.9854 0.59919 0.0
H490 H 0.10415 0.87798 0.57665 0.0
H491 H 0.13476 0.93526 0.66291 0.0
C492 C 0.16258 0.89694 0.67381 0.0
C493 C 0.1721 0.86776 0.66513 0.0
C494 C 0.09891 0.90141 0.58193 0.0
C495 C 0.12919 0.89863 0.63008 0.0
C496 C 0.08303 0.91838 0.56065 0.0
C497 C 0.07653 0.94898 0.56634 0.0
C498 C 0.10891 0.91524 0.609 0.0
C499 C 0.08563 0.96172 0.59418 0.0
C500 C 0.14118 0.91245 0.65634 0.0
C501 C 0.15866 0.85436 0.63943 0.0
N502 N 0.10168 0.94486 0.61441 0.0
N503 N 0.13811 0.86995 0.62276 0.0
H504 H 0.84167 0.41183 0.86361 0.0
H505 H 0.9696 0.40015 0.98448 0.0
H506 H 0.89969 0.33289 0.86459 0.0
H507 H 0.95052 0.48568 0.94147 0.0
H508 H 0.94171 0.37385 0.94374 0.0
H509 H 0.87862 0.43878 0.89478 0.0
C510 C 0.86228 0.40015 0.86981 0.0
C511 C 0.86723 0.36974 0.86122 0.0
C512 C 0.94411 0.39833 0.94297 0.0
C513 C 0.90922 0.40056 0.89817 0.0
C514 C 0.95989 0.41328 0.96617 0.0
C515 C 0.96235 0.44502 0.96612 0.0
C516 C 0.92987 0.41537 0.92025 0.0
C517 C 0.94927 0.46113 0.94209 0.0
C518 C 0.88332 0.41565 0.88784 0.0
C519 C 0.89426 0.35594 0.87108 0.0
N520 N 0.93308 0.44617 0.92034 0.0
N521 N 0.91398 0.37129 0.8894 0.0
H522 H 0.66356 0.64053 0.34098 0.0
H523 H 0.57385 0.63901 0.49921 0.0
H524 H 0.66237 0.7151 0.40491 0.0
H525 H 0.57847 0.56141 0.43933 0.0
H526 H 0.60017 0.66945 0.46104 0.0
H527 H 0.62643 0.61355 0.37265 0.0
C528 C 0.65518 0.6514 0.36145 0.0
C529 C 0.66636 0.67995 0.37053 0.0
C530 C 0.5951 0.64588 0.45597 0.0
C531 C 0.62411 0.64917 0.40693 0.0
C532 C 0.58005 0.62852 0.47776 0.0
C533 C 0.57386 0.59774 0.4723 0.0
C534 C 0.60451 0.63226 0.42862 0.0
C535 C 0.58239 0.58522 0.44419 0.0
C536 C 0.6341 0.63593 0.37959 0.0
C537 C 0.65484 0.69288 0.39735 0.0
N538 N 0.59756 0.60247 0.42346 0.0
N539 N 0.63454 0.67733 0.41466 0.0
H540 H 0.14122 0.38349 0.21084 0.0
H541 H 0.0978 0.46294 0.05387 0.0
H542 H 0.19824 0.38013 0.13094 0.0
H543 H 0.04127 0.46381 0.13397 0.0
H544 H 0.1381 0.43856 0.08328 0.0
H545 H 0.10788 0.41882 0.18486 0.0
C546 C 0.14707 0.39055 0.188 0.0
C547 C 0.17253 0.37855 0.17303 0.0
C548 C 0.11704 0.44445 0.09454 0.0
C549 C 0.13387 0.41869 0.14277 0.0
C550 C 0.09419 0.45866 0.07783 0.0
C551 C 0.06638 0.46571 0.09165 0.0
C552 C 0.1118 0.43695 0.12516 0.0
C553 C 0.06243 0.45873 0.12248 0.0
C554 C 0.12783 0.4106 0.17305 0.0
C555 C 0.17856 0.38831 0.14321 0.0
N556 N 0.08479 0.44463 0.13814 0.0
N557 N 0.15924 0.40759 0.12897 0.0
H558 H 0.69273 0.16912 0.90426 0.0
H559 H 0.53906 0.07163 0.90009 0.0
H560 H 0.63374 0.16157 0.82631 0.0
H561 H 0.59591 0.07838 0.97958 0.0
H562 H 0.57713 0.09972 0.87113 0.0
H563 H 0.66138 0.13123 0.9306 0.0
C564 C 0.67342 0.15923 0.89256 0.0
C565 C 0.66559 0.16883 0.86319 0.0
C566 C 0.58157 0.09478 0.8948 0.0
C567 C 0.62958 0.12569 0.8932 0.0
C568 C 0.55982 0.07872 0.91132 0.0
C569 C 0.56444 0.0726 0.9422 0.0
C570 C 0.60802 0.10529 0.90935 0.0
C571 C 0.59171 0.08229 0.95568 0.0
C572 C 0.65547 0.13771 0.90764 0.0
C573 C 0.64025 0.15534 0.84917 0.0
N574 N 0.61239 0.09844 0.93924 0.0
N575 N 0.6231 0.13467 0.86435 0.0
H576 H 0.90411 0.88128 0.32234 0.0
H577 H 0.94217 0.96066 0.48156 0.0
H578 H 0.8452 0.87531 0.40057 0.0
H579 H 0.99779 0.96909 0.40125 0.0
H580 H 0.90372 0.93368 0.45141 0.0
H581 H 0.93613 0.91746 0.34982 0.0
C582 C 0.89785 0.88774 0.3453 0.0
C583 C 0.87216 0.87502 0.35932 0.0
C584 C 0.92415 0.94176 0.44029 0.0
C585 C 0.90879 0.91644 0.39107 0.0
C586 C 0.94596 0.95739 0.45744 0.0
C587 C 0.97297 0.96742 0.44375 0.0
C588 C 0.92968 0.93576 0.40936 0.0
C589 C 0.97724 0.96173 0.41266 0.0
C590 C 0.91608 0.90848 0.36097 0.0
C591 C 0.8648 0.88461 0.38891 0.0
N592 N 0.95592 0.94617 0.39657 0.0
N593 N 0.88322 0.9045 0.40395 0.0
H594 H 0.33596 0.65452 0.63213 0.0
H595 H 0.49617 0.57013 0.6386 0.0
H596 H 0.39497 0.65483 0.71043 0.0
H597 H 0.44115 0.57465 0.55779 0.0
H598 H 0.45569 0.59498 0.66731 0.0
H599 H 0.3705 0.61927 0.60663 0.0
C600 C 0.35606 0.64705 0.64406 0.0
C601 C 0.36268 0.65796 0.6734 0.0
C602 C 0.45222 0.59018 0.6434 0.0
C603 C 0.40227 0.61748 0.64435 0.0
C604 C 0.47532 0.57599 0.62703 0.0
C605 C 0.47183 0.57011 0.59588 0.0
C606 C 0.42554 0.59899 0.62842 0.0
C607 C 0.44447 0.57826 0.58191 0.0
C608 C 0.37571 0.62682 0.62951 0.0
C609 C 0.38876 0.64696 0.68793 0.0
N610 N 0.42243 0.5925 0.59823 0.0
N611 N 0.4077 0.6276 0.67316 0.0
H612 H 0.00655 0.9637 0.78028 0.0
H613 H 0.01168 0.95034 0.59901 0.0
H614 H 0.96164 0.89257 0.7292 0.0
H615 H 0.02482 0.03364 0.64919 0.0
H616 H 0.00904 0.92256 0.64734 0.0
H617 H 0.0284 0.98292 0.73298 0.0
C618 C 0.00146 0.95194 0.75921 0.0
C619 C 0.98162 0.92685 0.75874 0.0
C620 C 0.01319 0.94682 0.64768 0.0
C621 C 0.00706 0.94848 0.70458 0.0
C622 C 0.01494 0.96258 0.62018 0.0
C623 C 0.01829 0.99424 0.62033 0.0
C624 C 0.01501 0.96295 0.67528 0.0
C625 C 0.02203 0.0092 0.64826 0.0
C626 C 0.01412 0.96282 0.73225 0.0
C627 C 0.97673 0.91199 0.73079 0.0
N628 N 0.02003 0.99347 0.67465 0.0
N629 N 0.98904 0.92326 0.70478 0.0
H630 H 0.53148 0.07059 0.2796 0.0
H631 H 0.52685 0.08733 0.09869 0.0
H632 H 0.57727 0.14221 0.23047 0.0
H633 H 0.51327 0.00302 0.14638 0.0
H634 H 0.5302 0.11395 0.14785 0.0
H635 H 0.5102 0.05204 0.23167 0.0
C636 C 0.53691 0.08259 0.25883 0.0
C637 C 0.55678 0.10766 0.2591 0.0
C638 C 0.52586 0.08972 0.14747 0.0
C639 C 0.53195 0.08682 0.20425 0.0
C640 C 0.52373 0.07462 0.11951 0.0
C641 C 0.51998 0.043 0.11869 0.0
C642 C 0.52402 0.07299 0.17456 0.0
C643 C 0.5164 0.02743 0.14619 0.0
C644 C 0.52457 0.07208 0.23153 0.0
C645 C 0.56211 0.12283 0.23151 0.0
N646 N 0.51874 0.04254 0.17304 0.0
N647 N 0.55006 0.11196 0.20516 0.0
H648 H 0.50183 0.58401 0.26066 0.0
H649 H 0.50765 0.59165 0.44231 0.0
H650 H 0.45112 0.64853 0.31423 0.0
H651 H 0.52488 0.51082 0.38956 0.0
H652 H 0.50199 0.62036 0.39483 0.0
H653 H 0.52519 0.56499 0.30732 0.0
C654 C 0.49611 0.59459 0.28218 0.0
C655 C 0.47425 0.61759 0.2837 0.0
C656 C 0.50764 0.59648 0.39374 0.0
C657 C 0.50079 0.59598 0.33699 0.0
C658 C 0.51108 0.5802 0.42073 0.0
C659 C 0.51653 0.54889 0.41964 0.0
C660 C 0.50995 0.58125 0.36569 0.0
C661 C 0.52046 0.53494 0.39122 0.0
C662 C 0.50932 0.58365 0.30876 0.0
C663 C 0.46752 0.6304 0.31219 0.0
N664 N 0.51688 0.55117 0.36533 0.0
N665 N 0.48056 0.61926 0.33779 0.0
H666 H 0.03122 0.46892 0.75602 0.0
H667 H 0.02375 0.45123 0.93666 0.0
H668 H 0.07153 0.39478 0.80508 0.0
H669 H 0.01068 0.53548 0.88903 0.0
H670 H 0.02628 0.42455 0.8876 0.0
H671 H 0.00883 0.48735 0.8036 0.0
C672 C 0.03479 0.45615 0.77669 0.0
C673 C 0.05362 0.43057 0.77676 0.0
C674 C 0.02224 0.44878 0.88795 0.0
C675 C 0.0283 0.45158 0.83116 0.0
C676 C 0.02055 0.46393 0.91589 0.0
C677 C 0.01716 0.49555 0.91673 0.0
C678 C 0.02048 0.46547 0.86084 0.0
C679 C 0.01358 0.51108 0.88924 0.0
C680 C 0.02216 0.46676 0.80384 0.0
C681 C 0.05762 0.41495 0.80421 0.0
N682 N 0.0156 0.49594 0.86238 0.0
N683 N 0.04533 0.42587 0.83039 0.0
H684 H 0.72246 0.95538 0.88362 0.0
H685 H 0.64669 0.02454 0.0296 0.0
H686 H 0.77433 0.99897 0.95471 0.0
H687 H 0.59603 0.00793 0.94737 0.0
H688 H 0.69394 0.02014 0.00078 0.0
H689 H 0.67623 0.97835 0.90419 0.0
C690 C 0.72412 0.97014 0.90333 0.0
C691 C 0.75216 0.97501 0.91773 0.0
C692 C 0.67255 0.01812 0.98881 0.0
C693 C 0.69944 0.00113 0.94152 0.0
C694 C 0.6456 0.02065 0.00527 0.0
C695 C 0.61757 0.01648 0.99078 0.0
C696 C 0.67144 0.01046 0.9578 0.0
C697 C 0.61727 0.01139 0.95929 0.0
C698 C 0.69779 0.98337 0.91496 0.0
C699 C 0.75317 0.99461 0.94294 0.0
N700 N 0.64386 0.0079 0.9439 0.0
N701 N 0.72711 0.00652 0.95436 0.0
H702 H 0.75966 0.03442 0.4583 0.0
H703 H 0.94094 0.03005 0.45059 0.0
H704 H 0.81297 0.07868 0.38888 0.0
H705 H 0.88848 0.01139 0.5313 0.0
H706 H 0.89363 0.03365 0.42146 0.0
H707 H 0.80611 0.01197 0.47861 0.0
C708 C 0.78106 0.03888 0.44694 0.0
C709 C 0.78257 0.05877 0.42215 0.0
C710 C 0.89254 0.02817 0.44542 0.0
C711 C 0.83571 0.03337 0.44534 0.0
C712 C 0.91948 0.02588 0.46196 0.0
C713 C 0.91847 0.02053 0.49335 0.0
C714 C 0.86451 0.02513 0.46047 0.0
C715 C 0.89013 0.01573 0.50714 0.0
C716 C 0.80755 0.02621 0.45864 0.0
C717 C 0.81092 0.06391 0.4084 0.0
N718 N 0.86424 0.01841 0.49066 0.0
N719 N 0.83643 0.05153 0.42035 0.0
H720 H 0.22828 0.58024 0.14522 0.0
H721 H 0.14312 0.51531 0.00244 0.0
H722 H 0.27477 0.53278 0.07286 0.0
H723 H 0.0965 0.53355 0.08673 0.0
H724 H 0.19163 0.51805 0.02922 0.0
H725 H 0.18011 0.56003 0.12649 0.0
C726 C 0.22853 0.56509 0.12577 0.0
C727 C 0.25574 0.55866 0.11033 0.0
C728 C 0.17083 0.52087 0.04207 0.0
C729 C 0.20038 0.53599 0.08836 0.0
C730 C 0.14319 0.51933 0.02677 0.0
C731 C 0.11597 0.5243 0.04248 0.0
C732 C 0.17128 0.52833 0.07315 0.0
C733 C 0.11712 0.52951 0.07392 0.0
C734 C 0.20091 0.55364 0.11501 0.0
C735 C 0.25437 0.53912 0.08502 0.0
N736 N 0.14443 0.53196 0.08819 0.0
N737 N 0.22714 0.52889 0.07456 0.0
H738 H 0.26296 0.50392 0.58257 0.0
H739 H 0.44444 0.50342 0.58977 0.0
H740 H 0.31376 0.45172 0.64762 0.0
H741 H 0.39297 0.52095 0.50847 0.0
H742 H 0.39664 0.49907 0.61845 0.0
H743 H 0.31071 0.52483 0.56286 0.0
C744 C 0.28414 0.49737 0.59312 0.0
C745 C 0.28452 0.47582 0.6165 0.0
C746 C 0.39592 0.50442 0.59445 0.0
C747 C 0.33903 0.49953 0.59408 0.0
C748 C 0.42309 0.50708 0.57818 0.0
C749 C 0.42243 0.5124 0.54679 0.0
C750 C 0.36812 0.50734 0.57914 0.0
C751 C 0.39429 0.51665 0.53266 0.0
C752 C 0.31133 0.50916 0.58177 0.0
C753 C 0.31259 0.46794 0.62923 0.0
N754 N 0.36821 0.51387 0.54891 0.0
N755 N 0.33879 0.47963 0.61771 0.0
H756 H 0.94919 0.77672 0.0008 0.0
H757 H 0.94329 0.59532 0.00691 0.0
H758 H 0.88527 0.7221 0.94996 0.0
H759 H 0.02378 0.64882 0.02409 0.0
H760 H 0.9141 0.6424 0.00153 0.0
H761 H 0.96866 0.73051 0.02453 0.0
C762 C 0.93883 0.75506 0.99514 0.0
C763 C 0.91587 0.7531 0.97313 0.0
C764 C 0.93801 0.64375 0.00715 0.0
C765 C 0.93797 0.70036 1.00011 0.0
C766 C 0.95457 0.61698 0.01043 0.0
C767 C 0.98593 0.61838 0.01574 0.0
C768 C 0.953 0.67192 0.00942 0.0
C769 C 0.99963 0.64691 0.01978 0.0
C770 C 0.95002 0.72874 0.00857 0.0
C771 C 0.90334 0.72447 0.96649 0.0
N772 N 0.98313 0.67259 0.0163 0.0
N773 N 0.91471 0.69915 0.97975 0.0
H774 H 0.46038 0.75748 0.03601 0.0
H775 H 0.44883 0.93827 0.0265 0.0
H776 H 0.38908 0.80973 0.0781 0.0
H777 H 0.53193 0.88818 0.01499 0.0
H778 H 0.42081 0.89009 0.03006 0.0
H779 H 0.48052 0.80412 0.01322 0.0
C780 C 0.44859 0.77868 0.03989 0.0
C781 C 0.42329 0.77989 0.05927 0.0
C782 C 0.44509 0.8897 0.02612 0.0
C783 C 0.44619 0.83316 0.03343 0.0
C784 C 0.46101 0.91712 0.02383 0.0
C785 C 0.49268 0.91705 0.02057 0.0
C786 C 0.46104 0.86217 0.02507 0.0
C787 C 0.50751 0.8891 0.01773 0.0
C788 C 0.46017 0.80526 0.02703 0.0
C789 C 0.40896 0.80796 0.0637 0.0
N790 N 0.4916 0.86275 0.0203 0.0
N791 N 0.42076 0.83356 0.0511 0.0
H792 H 0.13989 0.2513 0.54043 0.0
H793 H 0.99103 0.14828 0.52277 0.0
H794 H 0.04913 0.27806 0.56642 0.0
H795 H 0.08104 0.11039 0.52592 0.0
H796 H 0.01305 0.19916 0.52465 0.0
H797 H 0.11936 0.20257 0.52255 0.0
C798 C 0.1157 0.24717 0.54224 0.0
C799 C 0.09634 0.26898 0.55532 0.0
C800 C 0.02807 0.17977 0.52445 0.0
C801 C 0.07278 0.21354 0.53417 0.0
C802 C 0.01552 0.15075 0.5233 0.0
C803 C 0.03428 0.12519 0.52432 0.0
C804 C 0.05965 0.18334 0.527 0.0
C805 C 0.06586 0.12959 0.52484 0.0
C806 C 0.10404 0.2194 0.53182 0.0
C807 C 0.06508 0.26243 0.55623 0.0
N808 N 0.07762 0.15821 0.52657 0.0
N809 N 0.05439 0.23534 0.54599 0.0
H810 H 0.58615 0.26137 0.50017 0.0
H811 H 0.59367 0.44286 0.50291 0.0
H812 H 0.65178 0.31369 0.44936 0.0
H813 H 0.51239 0.39054 0.51971 0.0
H814 H 0.62242 0.39535 0.49823 0.0
H815 H 0.56656 0.30852 0.52232 0.0
C816 C 0.59686 0.28274 0.4942 0.0
C817 C 0.62033 0.28375 0.47264 0.0
C818 C 0.59841 0.39437 0.50353 0.0
C819 C 0.59807 0.33757 0.49776 0.0
C820 C 0.5821 0.42138 0.50636 0.0
C821 C 0.55069 0.4204 0.51152 0.0
C822 C 0.58311 0.36641 0.50608 0.0
C823 C 0.53659 0.39211 0.51552 0.0
C824 C 0.58559 0.30959 0.50671 0.0
C825 C 0.6333 0.31204 0.46555 0.0
N826 N 0.55286 0.36619 0.51254 0.0
N827 N 0.62184 0.3379 0.4779 0.0
loop_
_geom_bond_atom_site_label_1
_geom_bond_atom_site_label_2
_geom_bond_distance
_geom_bond_site_symmetry_2
_ccdc_geom_bond_type
C0 C1 1.386 . S
C0 C2 1.397 . S
C0 H24 0.931 . S
C1 C0 1.386 . S
C1 C5 1.397 . S
C2 C0 1.397 . S
C2 C3 1.384 . S
C2 H25 0.930 . S
C3 C2 1.384 . S
C3 C4 1.377 . S
C3 C6 1.481 . S
C4 C3 1.377 . S
C4 C5 1.389 . S
C4 H26 0.929 . S
C5 C1 1.397 . S
C5 C4 1.389 . S
C5 H27 0.931 . S
C6 C3 1.481 . S
C6 C7 1.387 . S
C6 C11 1.390 . S
C7 C6 1.387 . S
C7 C8 1.401 . S
C7 H28 0.930 . S
C8 C7 1.401 . S
C8 C9 1.376 . S
C8 C17 1.511 . S
C9 C8 1.376 . S
C9 C10 1.392 . S
C9 H30 0.931 . S
C10 C9 1.392 . S
C10 C11 1.361 . S
C10 C12 1.500 . S
C11 C6 1.390 . S
C11 C10 1.361 . S
C11 H29 0.931 . S
C12 C10 1.500 . S
C12 C13 1.371 . S
C12 C14 1.365 . S
C13 C12 1.371 . S
C13 C23 1.386 . S
C13 H31 0.931 . S
C14 C12 1.365 . S
C14 C15 1.409 . S
C14 H32 0.929 . S
C15 C14 1.409 . S
C15 C16 1.380 . S
C15 H33 0.930 . S
C16 C15 1.380 . S
C16 C23 1.357 . S
C17 C8 1.511 . S
C17 C18 1.341 . S
C17 C19 1.371 . S
C18 C17 1.341 . S
C18 C22 1.394 . S
C18 H34 0.930 . S
C19 C17 1.371 . S
C19 C20 1.392 . S
C19 H35 0.931 . S
C20 C19 1.392 . S
C20 C21 1.331 . S
C20 H38 0.932 . S
C21 C20 1.331 . S
C21 C22 1.336 . S
C22 C18 1.394 . S
C22 C21 1.336 . S
C22 H37 0.929 . S
C23 C13 1.386 . S
C23 C16 1.357 . S
C23 H36 0.928 . S
H24 C0 0.931 . S
H25 C2 0.930 . S
H26 C4 0.929 . S
H27 C5 0.931 . S
H28 C7 0.930 . S
H29 C11 0.931 . S
H30 C9 0.931 . S
H31 C13 0.931 . S
H32 C14 0.929 . S
H33 C15 0.930 . S
H34 C18 0.930 . S
H35 C19 0.931 . S
H36 C23 0.928 . S
H37 C22 0.929 . S
H38 C20 0.932 . S
C39 C40 1.386 . S
C39 C41 1.397 . S
C39 H63 0.931 . S
C40 C39 1.386 . S
C40 C44 1.397 . S
C41 C39 1.397 . S
C41 C42 1.384 . S
C41 H64 0.930 . S
C42 C41 1.384 . S
C42 C43 1.377 . S
C42 C45 1.481 . S
C43 C42 1.377 . S
C43 C44 1.389 . S
C43 H65 0.929 . S
C44 C40 1.397 . S
C44 C43 1.389 . S
C44 H66 0.931 . S
C45 C42 1.481 . S
C45 C46 1.387 . S
C45 C50 1.390 . S
C46 C45 1.387 . S
C46 C47 1.401 . S
C46 H67 0.930 . S
C47 C46 1.401 . S
C47 C48 1.376 . S
C47 C56 1.511 . S
C48 C47 1.376 . S
C48 C49 1.392 . S
C48 H69 0.931 . S
C49 C48 1.392 . S
C49 C50 1.361 . S
C49 C51 1.500 . S
C50 C45 1.390 . S
C50 C49 1.361 . S
C50 H68 0.931 . S
C51 C49 1.500 . S
C51 C52 1.371 . S
C51 C53 1.365 . S
C52 C51 1.371 . S
C52 C62 1.386 . S
C52 H70 0.931 . S
C53 C51 1.365 . S
C53 C54 1.409 . S
C53 H71 0.929 . S
C54 C53 1.409 . S
C54 C55 1.380 . S
C54 H72 0.930 . S
C55 C54 1.380 . S
C55 C62 1.357 . S
C56 C47 1.511 . S
C56 C57 1.341 . S
C56 C58 1.371 . S
C57 C56 1.341 . S
C57 C61 1.394 . S
C57 H73 0.930 . S
C58 C56 1.371 . S
C58 C59 1.392 . S
C58 H74 0.931 . S
C59 C58 1.392 . S
C59 C60 1.331 . S
C59 H77 0.932 . S
C60 C59 1.331 . S
C60 C61 1.336 . S
C61 C57 1.394 . S
C61 C60 1.336 . S
C61 H76 0.929 . S
C62 C52 1.386 . S
C62 C55 1.357 . S
C62 H75 0.928 . S
H63 C39 0.931 . S
H64 C41 0.930 . S
H65 C43 0.929 . S
H66 C44 0.931 . S
H67 C46 0.930 . S
H68 C50 0.931 . S
H69 C48 0.931 . S
H70 C52 0.931 . S
H71 C53 0.929 . S
H72 C54 0.930 . S
H73 C57 0.930 . S
H74 C58 0.931 . S
H75 C62 0.928 . S
H76 C61 0.929 . S
H77 C59 0.932 . S
C78 C79 1.386 . S
C78 C80 1.397 . S
C78 H102 0.931 . S
C79 C78 1.386 . S
C79 C83 1.397 . S
C80 C78 1.397 . S
C80 C81 1.384 . S
C80 H103 0.930 . S
C81 C80 1.384 . S
C81 C82 1.377 . S
C81 C84 1.481 . S
C82 C81 1.377 . S
C82 C83 1.389 . S
C82 H104 0.929 . S
C83 C79 1.397 . S
C83 C82 1.389 . S
C83 H105 0.931 . S
C84 C81 1.481 . S
C84 C85 1.387 . S
C84 C89 1.390 . S
C85 C84 1.387 . S
C85 C86 1.401 . S
C85 H106 0.930 . S
C86 C85 1.401 . S
C86 C87 1.376 . S
C86 C95 1.511 . S
C87 C86 1.376 . S
C87 C88 1.392 . S
C87 H108 0.931 . S
C88 C87 1.392 . S
C88 C89 1.361 . S
C88 C90 1.500 . S
C89 C84 1.390 . S
C89 C88 1.361 . S
C89 H107 0.931 . S
C90 C88 1.500 . S
C90 C91 1.371 . S
C90 C92 1.365 . S
C91 C90 1.371 . S
C91 C101 1.386 . S
C91 H109 0.931 . S
C92 C90 1.365 . S
C92 C93 1.409 . S
C92 H110 0.929 . S
C93 C92 1.409 . S
C93 C94 1.380 . S
C93 H111 0.930 . S
C94 C93 1.380 . S
C94 C101 1.357 . S
C95 C86 1.511 . S
C95 C96 1.341 . S
C95 C97 1.371 . S
C96 C95 1.341 . S
C96 C100 1.394 . S
C96 H112 0.930 . S
C97 C95 1.371 . S
C97 C98 1.392 . S
C97 H113 0.931 . S
C98 C97 1.392 . S
C98 C99 1.331 . S
C98 H116 0.932 . S
C99 C98 1.331 . S
C99 C100 1.336 . S
C100 C96 1.394 . S
C100 C99 1.336 . S
C100 H115 0.929 . S
C101 C91 1.386 . S
C101 C94 1.357 . S
C101 H114 0.928 . S
H102 C78 0.931 . S
H103 C80 0.930 . S
H104 C82 0.929 . S
H105 C83 0.931 . S
H106 C85 0.930 . S
H107 C89 0.931 . S
H108 C87 0.931 . S
H109 C91 0.931 . S
H110 C92 0.929 . S
H111 C93 0.930 . S
H112 C96 0.930 . S
H113 C97 0.931 . S
H114 C101 0.928 . S
H115 C100 0.929 . S
H116 C98 0.932 . S
C117 C118 1.386 . S
C117 C119 1.397 . S
C117 H141 0.931 . S
C118 C117 1.386 . S
C118 C122 1.397 . S
C119 C117 1.397 . S
C119 C120 1.384 . S
C119 H142 0.930 . S
C120 C119 1.384 . S
C120 C121 1.377 . S
C120 C123 1.481 . S
C121 C120 1.377 . S
C121 C122 1.389 . S
C121 H143 0.929 . S
C122 C118 1.397 . S
C122 C121 1.389 . S
C122 H144 0.931 . S
C123 C120 1.481 . S
C123 C124 1.387 . S
C123 C128 1.390 . S
C124 C123 1.387 . S
C124 C125 1.401 . S
C124 H145 0.930 . S
C125 C124 1.401 . S
C125 C126 1.376 . S
C125 C134 1.511 . S
C126 C125 1.376 . S
C126 C127 1.392 . S
C126 H147 0.931 . S
C127 C126 1.392 . S
C127 C128 1.361 . S
C127 C129 1.500 . S
C128 C123 1.390 . S
C128 C127 1.361 . S
C128 H146 0.931 . S
C129 C127 1.500 . S
C129 C130 1.371 . S
C129 C131 1.365 . S
C130 C129 1.371 . S
C130 C140 1.386 . S
C130 H148 0.931 . S
C131 C129 1.365 . S
C131 C132 1.409 . S
C131 H149 0.929 . S
C132 C131 1.409 . S
C132 C133 1.380 . S
C132 H150 0.930 . S
C133 C132 1.380 . S
C133 C140 1.357 . S
C134 C125 1.511 . S
C134 C135 1.341 . S
C134 C136 1.371 . S
C135 C134 1.341 . S
C135 C139 1.394 . S
C135 H151 0.930 . S
C136 C134 1.371 . S
C136 C137 1.392 . S
C136 H152 0.931 . S
C137 C136 1.392 . S
C137 C138 1.331 . S
C137 H155 0.932 . S
C138 C137 1.331 . S
C138 C139 1.336 . S
C139 C135 1.394 . S
C139 C138 1.336 . S
C139 H154 0.929 . S
C140 C130 1.386 . S
C140 C133 1.357 . S
C140 H153 0.928 . S
H141 C117 0.931 . S
H142 C119 0.930 . S
H143 C121 0.929 . S
H144 C122 0.931 . S
H145 C124 0.930 . S
H146 C128 0.931 . S
H147 C126 0.931 . S
H148 C130 0.931 . S
H149 C131 0.929 . S
H150 C132 0.930 . S
H151 C135 0.930 . S
H152 C136 0.931 . S
H153 C140 0.928 . S
H154 C139 0.929 . S
H155 C137 0.932 . S
C156 C157 1.386 . S
C156 C158 1.397 . S
C156 H180 0.931 . S
C157 C156 1.386 . S
C157 C161 1.397 1_565 S
C158 C156 1.397 . S
C158 C159 1.384 . S
C158 H181 0.930 . S
C159 C158 1.384 . S
C159 C160 1.377 . S
C159 C162 1.481 . S
C160 C159 1.377 . S
C160 C161 1.389 1_565 S
C160 H182 0.929 1_565 S
C161 C157 1.397 1_545 S
C161 C160 1.389 1_545 S
C161 H183 0.931 . S
C162 C159 1.481 . S
C162 C163 1.387 . S
C162 C167 1.390 . S
C163 C162 1.387 . S
C163 C164 1.401 . S
C163 H184 0.930 . S
C164 C163 1.401 . S
C164 C165 1.376 . S
C164 C173 1.511 . S
C165 C164 1.376 . S
C165 C166 1.392 . S
C165 H186 0.931 . S
C166 C165 1.392 . S
C166 C167 1.361 . S
C166 C168 1.500 . S
C167 C162 1.390 . S
C167 C166 1.361 . S
C167 H185 0.931 . S
C168 C166 1.500 . S
C168 C169 1.371 . S
C168 C170 1.365 . S
C169 C168 1.371 . S
C169 C179 1.386 . S
C169 H187 0.931 . S
C170 C168 1.365 . S
C170 C171 1.399 1_565 S
C170 H188 0.914 1_565 S
C171 C170 1.399 1_545 S
C171 C172 1.365 1_545 S
C171 H189 0.955 . S
C172 C171 1.365 1_565 S
C172 C179 1.357 . S
C173 C164 1.511 . S
C173 C174 1.341 . S
C173 C175 1.371 . S
C174 C173 1.341 . S
C174 C178 1.394 . S
C174 H190 0.930 . S
C175 C173 1.371 . S
C175 C176 1.392 . S
C175 H191 0.931 . S
C176 C175 1.392 . S
C176 C177 1.331 . S
C176 H194 0.932 1_556 S
C177 C176 1.331 . S
C177 C178 1.336 . S
C178 C174 1.394 . S
C178 C177 1.336 . S
C178 H193 0.929 1_655 S
C179 C169 1.386 . S
C179 C172 1.357 . S
C179 H192 0.928 . S
H180 C156 0.931 . S
H181 C158 0.930 . S
H182 C160 0.929 1_545 S
H183 C161 0.931 . S
H184 C163 0.930 . S
H185 C167 0.931 . S
H186 C165 0.931 . S
H187 C169 0.931 . S
H188 C170 0.914 1_545 S
H189 C171 0.955 . S
H190 C174 0.930 . S
H191 C175 0.931 . S
H192 C179 0.928 . S
H193 C178 0.929 1_455 S
H194 C176 0.932 1_554 S
C195 C196 1.386 . S
C195 C197 1.397 . S
C195 H219 0.931 . S
C196 C195 1.386 . S
C196 C200 1.397 . S
C197 C195 1.397 . S
C197 C198 1.384 . S
C197 H220 0.930 . S
C198 C197 1.384 . S
C198 C199 1.377 . S
C198 C201 1.481 . S
C199 C198 1.377 . S
C199 C200 1.389 . S
C199 H221 0.929 . S
C200 C196 1.397 . S
C200 C199 1.389 . S
C200 H222 0.931 . S
C201 C198 1.481 . S
C201 C202 1.387 . S
C201 C206 1.390 . S
C202 C201 1.387 . S
C202 C203 1.401 . S
C202 H223 0.930 . S
C203 C202 1.401 . S
C203 C204 1.376 . S
C203 C212 1.511 . S
C204 C203 1.376 . S
C204 C205 1.392 . S
C204 H225 0.931 . S
C205 C204 1.392 . S
C205 C206 1.361 . S
C205 C207 1.500 . S
C206 C201 1.390 . S
C206 C205 1.361 . S
C206 H224 0.931 . S
C207 C205 1.500 . S
C207 C208 1.371 . S
C207 C209 1.365 . S
C208 C207 1.371 . S
C208 C218 1.386 . S
C208 H226 0.931 . S
C209 C207 1.365 . S
C209 C210 1.409 . S
C209 H227 0.929 . S
C210 C209 1.409 . S
C210 C211 1.380 . S
C210 H228 0.930 . S
C211 C210 1.380 . S
C211 C218 1.357 . S
C212 C203 1.511 . S
C212 C213 1.341 . S
C212 C214 1.371 . S
C213 C212 1.341 . S
C213 C217 1.394 . S
C213 H229 0.930 . S
C214 C212 1.371 . S
C214 C215 1.392 . S
C214 H230 0.931 . S
C215 C214 1.392 . S
C215 C216 1.331 . S
C215 H233 0.932 . S
C216 C215 1.331 . S
C216 C217 1.336 . S
C217 C213 1.394 . S
C217 C216 1.336 . S
C217 H232 0.929 . S
C218 C208 1.386 . S
C218 C211 1.357 . S
C218 H231 0.928 . S
H219 C195 0.931 . S
H220 C197 0.930 . S
H221 C199 0.929 . S
H222 C200 0.931 . S
H223 C202 0.930 . S
H224 C206 0.931 . S
H225 C204 0.931 . S
H226 C208 0.931 . S
H227 C209 0.929 . S
H228 C210 0.930 . S
H229 C213 0.930 . S
H230 C214 0.931 . S
H231 C218 0.928 . S
H232 C217 0.929 . S
H233 C215 0.932 . S
C234 C235 1.386 . S
C234 C236 1.397 . S
C234 H258 0.931 . S
C235 C234 1.386 . S
C235 C239 1.397 . S
C236 C234 1.397 . S
C236 C237 1.384 . S
C236 H259 0.930 . S
C237 C236 1.384 . S
C237 C238 1.377 . S
C237 C240 1.481 . S
C238 C237 1.377 . S
C238 C239 1.389 . S
C238 H260 0.929 . S
C239 C235 1.397 . S
C239 C238 1.389 . S
C239 H261 0.931 . S
C240 C237 1.481 . S
C240 C241 1.387 . S
C240 C245 1.390 . S
C241 C240 1.387 . S
C241 C242 1.401 . S
C241 H262 0.930 . S
C242 C241 1.401 . S
C242 C243 1.376 . S
C242 C251 1.511 . S
C243 C242 1.376 . S
C243 C244 1.392 . S
C243 H264 0.931 . S
C244 C243 1.392 . S
C244 C245 1.361 . S
C244 C246 1.500 . S
C245 C240 1.390 . S
C245 C244 1.361 . S
C245 H263 0.931 . S
C246 C244 1.500 . S
C246 C247 1.371 . S
C246 C248 1.365 . S
C247 C246 1.371 . S
C247 C257 1.386 . S
C247 H265 0.931 . S
C248 C246 1.365 . S
C248 C249 1.409 . S
C248 H266 0.929 . S
C249 C248 1.409 . S
C249 C250 1.380 . S
C249 H267 0.930 . S
C250 C249 1.380 . S
C250 C257 1.357 . S
C251 C242 1.511 . S
C251 C252 1.341 . S
C251 C253 1.371 . S
C252 C251 1.341 . S
C252 C256 1.394 . S
C252 H268 0.930 . S
C253 C251 1.371 . S
C253 C254 1.392 . S
C253 H269 0.931 . S
C254 C253 1.392 . S
C254 C255 1.331 . S
C254 H272 0.932 . S
C255 C254 1.331 . S
C255 C256 1.336 . S
C256 C252 1.394 . S
C256 C255 1.336 . S
C256 H271 0.929 . S
C257 C247 1.386 . S
C257 C250 1.357 . S
C257 H270 0.928 . S
H258 C234 0.931 . S
H259 C236 0.930 . S
H260 C238 0.929 . S
H261 C239 0.931 . S
H262 C241 0.930 . S
H263 C245 0.931 . S
H264 C243 0.931 . S
H265 C247 0.931 . S
H266 C248 0.929 . S
H267 C249 0.930 . S
H268 C252 0.930 . S
H269 C253 0.931 . S
H270 C257 0.928 . S
H271 C256 0.929 . S
H272 C254 0.932 . S
C273 C274 1.386 . S
C273 C275 1.397 . S
C273 H297 0.931 . S
C274 C273 1.386 . S
C274 C278 1.397 . S
C275 C273 1.397 . S
C275 C276 1.384 . S
C275 H298 0.930 . S
C276 C275 1.384 . S
C276 C277 1.377 . S
C276 C279 1.481 . S
C277 C276 1.377 . S
C277 C278 1.389 . S
C277 H299 0.929 . S
C278 C274 1.397 . S
C278 C277 1.389 . S
C278 H300 0.931 . S
C279 C276 1.481 . S
C279 C280 1.387 . S
C279 C284 1.390 . S
C280 C279 1.387 . S
C280 C281 1.401 . S
C280 H301 0.930 . S
C281 C280 1.401 . S
C281 C282 1.376 . S
C281 C290 1.511 . S
C282 C281 1.376 . S
C282 C283 1.392 . S
C282 H303 0.931 . S
C283 C282 1.392 . S
C283 C284 1.361 . S
C283 C285 1.500 . S
C284 C279 1.390 . S
C284 C283 1.361 . S
C284 H302 0.931 . S
C285 C283 1.500 . S
C285 C286 1.371 . S
C285 C287 1.365 . S
C286 C285 1.371 . S
C286 C296 1.386 . S
C286 H304 0.931 . S
C287 C285 1.365 . S
C287 C288 1.409 . S
C287 H305 0.929 . S
C288 C287 1.409 . S
C288 C289 1.380 . S
C288 H306 0.930 . S
C289 C288 1.380 . S
C289 C296 1.357 . S
C290 C281 1.511 . S
C290 C291 1.341 . S
C290 C292 1.371 . S
C291 C290 1.341 . S
C291 C295 1.394 . S
C291 H307 0.930 . S
C292 C290 1.371 . S
C292 C293 1.392 . S
C292 H308 0.931 . S
C293 C292 1.392 . S
C293 C294 1.331 . S
C293 H311 0.932 . S
C294 C293 1.331 . S
C294 C295 1.336 . S
C295 C291 1.394 . S
C295 C294 1.336 . S
C295 H310 0.929 . S
C296 C286 1.386 . S
C296 C289 1.357 . S
C296 H309 0.928 . S
H297 C273 0.931 . S
H298 C275 0.930 . S
H299 C277 0.929 . S
H300 C278 0.931 . S
H301 C280 0.930 . S
H302 C284 0.931 . S
H303 C282 0.931 . S
H304 C286 0.931 . S
H305 C287 0.929 . S
H306 C288 0.930 . S
H307 C291 0.930 . S
H308 C292 0.931 . S
H309 C296 0.928 . S
H310 C295 0.929 . S
H311 C293 0.932 . S
Zn312 O318 1.920 . S
Zn312 O324 1.898 . S
Zn312 O327 1.905 . S
Zn313 O321 1.905 1_565 S
Zn313 O322 1.898 . S
Zn313 O330 1.920 . S
Zn314 O317 2.080 1_455 S
Zn314 O320 2.114 . S
Zn314 O323 2.120 1_445 S
Zn314 O325 2.120 . S
Zn314 O326 2.114 1_455 S
Zn314 O329 2.080 . S
C315 O320 1.166 . S
C315 O321 1.182 . S
C316 O322 1.167 1_655 S
C316 O323 1.299 . S
O317 Zn314 2.080 1_655 S
O317 C331 1.305 . S
O318 Zn312 1.920 . S
O318 C331 1.234 . S
C319 O324 1.167 1_455 S
C319 O325 1.299 . S
O320 Zn314 2.114 . S
O320 C315 1.166 . S
O321 Zn313 1.905 1_545 S
O321 C315 1.182 . S
O322 Zn313 1.898 . S
O322 C316 1.167 1_455 S
O323 Zn314 2.120 1_665 S
O323 C316 1.299 . S
O324 Zn312 1.898 . S
O324 C319 1.167 1_655 S
O325 Zn314 2.120 . S
O325 C319 1.299 . S
O326 Zn314 2.114 1_655 S
O326 C328 1.166 . S
O327 Zn312 1.905 . S
O327 C328 1.182 . S
C328 O326 1.166 . S
C328 O327 1.182 . S
O329 Zn314 2.080 . S
O329 C332 1.305 1_545 S
O330 Zn313 1.920 . S
O330 C332 1.234 . S
C331 O317 1.305 . S
C331 O318 1.234 . S
C332 O329 1.305 1_565 S
C332 O330 1.234 . S
Zn333 O339 1.920 1_556 S
Zn333 O345 1.898 . S
Zn333 O348 1.905 . S
Zn334 O342 1.905 . S
Zn334 O343 1.898 . S
Zn334 O351 1.920 . S
Zn335 O338 2.080 . S
Zn335 O341 2.114 1_545 S
Zn335 O344 2.120 1_545 S
Zn335 O346 2.120 . S
Zn335 O347 2.114 1_544 S
Zn335 O350 2.080 . S
C336 O341 1.166 . S
C336 O342 1.182 . S
C337 O343 1.167 . S
C337 O344 1.299 . S
O338 Zn335 2.080 . S
O338 C352 1.305 . S
O339 Zn333 1.920 1_554 S
O339 C352 1.234 . S
C340 O345 1.167 . S
C340 O346 1.299 1_556 S
O341 Zn335 2.114 1_565 S
O341 C336 1.166 . S
O342 Zn334 1.905 . S
O342 C336 1.182 . S
O343 Zn334 1.898 . S
O343 C337 1.167 . S
O344 Zn335 2.120 1_565 S
O344 C337 1.299 . S
O345 Zn333 1.898 . S
O345 C340 1.167 . S
O346 Zn335 2.120 . S
O346 C340 1.299 1_554 S
O347 Zn335 2.114 1_566 S
O347 C349 1.166 . S
O348 Zn333 1.905 . S
O348 C349 1.182 1_545 S
C349 O347 1.166 . S
C349 O348 1.182 1_565 S
O350 Zn335 2.080 . S
O350 C353 1.305 . S
O351 Zn334 1.920 . S
O351 C353 1.234 1_565 S
C352 O338 1.305 . S
C352 O339 1.234 . S
C353 O350 1.305 . S
C353 O351 1.234 1_545 S
Zn354 O360 1.920 . S
Zn354 O366 1.898 . S
Zn354 O369 1.905 . S
Zn355 O363 1.905 . S
Zn355 O364 1.898 . S
Zn355 O372 1.920 . S
Zn356 O359 2.080 . S
Zn356 O362 2.114 . S
Zn356 O365 2.120 . S
Zn356 O367 2.120 . S
Zn356 O368 2.114 . S
Zn356 O371 2.080 . S
C357 O362 1.166 . S
C357 O363 1.182 . S
C358 O364 1.167 . S
C358 O365 1.299 . S
O359 Zn356 2.080 . S
O359 C373 1.305 . S
O360 Zn354 1.920 . S
O360 C373 1.234 . S
C361 O366 1.167 . S
C361 O367 1.299 . S
O362 Zn356 2.114 . S
O362 C357 1.166 . S
O363 Zn355 1.905 . S
O363 C357 1.182 . S
O364 Zn355 1.898 . S
O364 C358 1.167 . S
O365 Zn356 2.120 . S
O365 C358 1.299 . S
O366 Zn354 1.898 . S
O366 C361 1.167 . S
O367 Zn356 2.120 . S
O367 C361 1.299 . S
O368 Zn356 2.114 . S
O368 C370 1.166 . S
O369 Zn354 1.905 . S
O369 C370 1.182 . S
C370 O368 1.166 . S
C370 O369 1.182 . S
O371 Zn356 2.080 . S
O371 C374 1.305 . S
O372 Zn355 1.920 . S
O372 C374 1.234 . S
C373 O359 1.305 . S
C373 O360 1.234 . S
C374 O371 1.305 . S
C374 O372 1.234 . S
Zn375 O381 1.920 . S
Zn375 O387 1.898 . S
Zn375 O390 1.905 . S
Zn376 O384 1.905 1_655 S
Zn376 O385 1.898 . S
Zn376 O393 1.920 . S
Zn377 O380 2.080 1_554 S
Zn377 O383 2.114 . S
Zn377 O386 2.120 1_454 S
Zn377 O388 2.120 . S
Zn377 O389 2.114 1_554 S
Zn377 O392 2.080 . S
C378 O383 1.166 . S
C378 O384 1.182 . S
C379 O385 1.167 1_556 S
C379 O386 1.299 . S
O380 Zn377 2.080 1_556 S
O380 C394 1.305 . S
O381 Zn375 1.920 . S
O381 C394 1.234 . S
C382 O387 1.167 1_554 S
C382 O388 1.299 . S
O383 Zn377 2.114 . S
O383 C378 1.166 . S
O384 Zn376 1.905 1_455 S
O384 C378 1.182 . S
O385 Zn376 1.898 . S
O385 C379 1.167 1_554 S
O386 Zn377 2.120 1_656 S
O386 C379 1.299 . S
O387 Zn375 1.898 . S
O387 C382 1.167 1_556 S
O388 Zn377 2.120 . S
O388 C382 1.299 . S
O389 Zn377 2.114 1_556 S
O389 C391 1.166 . S
O390 Zn375 1.905 . S
O390 C391 1.182 . S
C391 O389 1.166 . S
C391 O390 1.182 . S
O392 Zn377 2.080 . S
O392 C395 1.305 1_455 S
O393 Zn376 1.920 . S
O393 C395 1.234 . S
C394 O380 1.305 . S
C394 O381 1.234 . S
C395 O392 1.305 1_655 S
C395 O393 1.234 . S
H396 C402 0.930 . S
H397 C406 0.930 . S
H398 C411 0.929 . S
H399 C409 0.929 . S
H400 C404 0.929 . S
H401 C410 0.929 . S
C402 H396 0.930 . S
C402 C403 1.367 . S
C402 C410 1.378 . S
C403 C402 1.367 . S
C403 C411 1.433 . S
C404 H400 0.929 . S
C404 C406 1.378 . S
C404 C408 1.350 . S
C405 C408 1.463 . S
C405 C410 1.350 . S
C405 N413 1.427 . S
C406 H397 0.930 . S
C406 C404 1.378 . S
C406 C407 1.367 . S
C407 C406 1.367 . S
C407 C409 1.433 . S
C408 C404 1.350 . S
C408 C405 1.463 . S
C408 N412 1.427 . S
C409 H399 0.929 . S
C409 C407 1.433 . S
C409 N412 1.384 . S
C410 H401 0.929 . S
C410 C402 1.378 . S
C410 C405 1.350 . S
C411 H398 0.929 . S
C411 C403 1.433 . S
C411 N413 1.384 . S
N412 C408 1.427 . S
N412 C409 1.384 . S
N413 C405 1.427 . S
N413 C411 1.384 . S
H414 C420 0.930 . S
H415 C424 0.930 . S
H416 C429 0.929 . S
H417 C427 0.929 1_545 S
H418 C422 0.929 . S
H419 C428 0.929 . S
C420 H414 0.930 . S
C420 C421 1.367 . S
C420 C428 1.378 . S
C421 C420 1.367 . S
C421 C429 1.433 . S
C422 H418 0.929 . S
C422 C424 1.378 . S
C422 C426 1.350 . S
C423 C426 1.463 . S
C423 C428 1.350 . S
C423 N431 1.427 . S
C424 H415 0.930 . S
C424 C422 1.378 . S
C424 C425 1.367 . S
C425 C424 1.367 . S
C425 C427 1.433 . S
C426 C422 1.350 . S
C426 C423 1.463 . S
C426 N430 1.427 . S
C427 H417 0.929 1_565 S
C427 C425 1.433 . S
C427 N430 1.384 . S
C428 H419 0.929 . S
C428 C420 1.378 . S
C428 C423 1.350 . S
C429 H416 0.929 . S
C429 C421 1.433 . S
C429 N431 1.384 . S
N430 C426 1.427 . S
N430 C427 1.384 . S
N431 C423 1.427 . S
N431 C429 1.384 . S
H432 C438 0.930 . S
H433 C442 0.930 . S
H434 C447 0.929 . S
H435 C445 0.929 . S
H436 C440 0.929 . S
H437 C446 0.929 . S
C438 H432 0.930 . S
C438 C439 1.367 . S
C438 C446 1.378 . S
C439 C438 1.367 . S
C439 C447 1.433 . S
C440 H436 0.929 . S
C440 C442 1.378 . S
C440 C444 1.350 . S
C441 C444 1.463 . S
C441 C446 1.350 . S
C441 N449 1.427 . S
C442 H433 0.930 . S
C442 C440 1.378 . S
C442 C443 1.367 . S
C443 C442 1.367 . S
C443 C445 1.433 . S
C444 C440 1.350 . S
C444 C441 1.463 . S
C444 N448 1.427 . S
C445 H435 0.929 . S
C445 C443 1.433 . S
C445 N448 1.384 . S
C446 H437 0.929 . S
C446 C438 1.378 . S
C446 C441 1.350 . S
C447 H434 0.929 . S
C447 C439 1.433 . S
C447 N449 1.384 . S
N448 C444 1.427 . S
N448 C445 1.384 . S
N449 C441 1.427 . S
N449 C447 1.384 . S
H450 C456 0.930 . S
H451 C460 0.930 . S
H452 C465 0.929 . S
H453 C463 0.929 . S
H454 C458 0.929 . S
H455 C464 0.929 . S
C456 H450 0.930 . S
C456 C457 1.367 . S
C456 C464 1.378 . S
C457 C456 1.367 . S
C457 C465 1.433 . S
C458 H454 0.929 . S
C458 C460 1.378 . S
C458 C462 1.350 . S
C459 C462 1.463 . S
C459 C464 1.350 . S
C459 N467 1.427 . S
C460 H451 0.930 . S
C460 C458 1.378 . S
C460 C461 1.367 . S
C461 C460 1.367 . S
C461 C463 1.433 . S
C462 C458 1.350 . S
C462 C459 1.463 . S
C462 N466 1.427 . S
C463 H453 0.929 . S
C463 C461 1.433 . S
C463 N466 1.384 . S
C464 H455 0.929 . S
C464 C456 1.378 . S
C464 C459 1.350 . S
C465 H452 0.929 . S
C465 C457 1.433 . S
C465 N467 1.384 . S
N466 C462 1.427 . S
N466 C463 1.384 . S
N467 C459 1.427 . S
N467 C465 1.384 . S
H468 C474 0.930 . S
H469 C478 0.930 . S
H470 C483 0.929 . S
H471 C481 0.929 . S
H472 C476 0.929 . S
H473 C482 0.929 . S
C474 H468 0.930 . S
C474 C475 1.367 . S
C474 C482 1.378 . S
C475 C474 1.367 . S
C475 C483 1.433 . S
C476 H472 0.929 . S
C476 C478 1.378 . S
C476 C480 1.350 . S
C477 C480 1.463 . S
C477 C482 1.350 . S
C477 N485 1.427 . S
C478 H469 0.930 . S
C478 C476 1.378 . S
C478 C479 1.367 . S
C479 C478 1.367 . S
C479 C481 1.433 . S
C480 C476 1.350 . S
C480 C477 1.463 . S
C480 N484 1.427 . S
C481 H471 0.929 . S
C481 C479 1.433 . S
C481 N484 1.384 . S
C482 H473 0.929 . S
C482 C474 1.378 . S
C482 C477 1.350 . S
C483 H470 0.929 . S
C483 C475 1.433 . S
C483 N485 1.384 . S
N484 C480 1.427 . S
N484 C481 1.384 . S
N485 C477 1.427 . S
N485 C483 1.384 . S
H486 C492 0.930 . S
H487 C496 0.930 . S
H488 C501 0.929 . S
H489 C499 0.929 . S
H490 C494 0.929 . S
H491 C500 0.929 . S
C492 H486 0.930 . S
C492 C493 1.367 . S
C492 C500 1.378 . S
C493 C492 1.367 . S
C493 C501 1.433 . S
C494 H490 0.929 . S
C494 C496 1.378 . S
C494 C498 1.350 . S
C495 C498 1.463 . S
C495 C500 1.350 . S
C495 N503 1.427 . S
C496 H487 0.930 . S
C496 C494 1.378 . S
C496 C497 1.367 . S
C497 C496 1.367 . S
C497 C499 1.433 1_565 S
C498 C494 1.350 . S
C498 C495 1.463 . S
C498 N502 1.427 . S
C499 H489 0.929 . S
C499 C497 1.433 1_545 S
C499 N502 1.384 1_545 S
C500 H491 0.929 . S
C500 C492 1.378 . S
C500 C495 1.350 . S
C501 H488 0.929 . S
C501 C493 1.433 . S
C501 N503 1.384 . S
N502 C498 1.427 . S
N502 C499 1.384 1_565 S
N503 C495 1.427 . S
N503 C501 1.384 . S
H504 C510 0.930 . S
H505 C514 0.930 . S
H506 C519 0.929 . S
H507 C517 0.929 . S
H508 C512 0.929 . S
H509 C518 0.929 . S
C510 H504 0.930 . S
C510 C511 1.367 . S
C510 C518 1.378 . S
C511 C510 1.367 . S
C511 C519 1.433 . S
C512 H508 0.929 . S
C512 C514 1.378 . S
C512 C516 1.350 . S
C513 C516 1.463 . S
C513 C518 1.350 . S
C513 N521 1.427 . S
C514 H505 0.930 . S
C514 C512 1.378 . S
C514 C515 1.367 . S
C515 C514 1.367 . S
C515 C517 1.433 . S
C516 C512 1.350 . S
C516 C513 1.463 . S
C516 N520 1.427 . S
C517 H507 0.929 . S
C517 C515 1.433 . S
C517 N520 1.384 . S
C518 H509 0.929 . S
C518 C510 1.378 . S
C518 C513 1.350 . S
C519 H506 0.929 . S
C519 C511 1.433 . S
C519 N521 1.384 . S
N520 C516 1.427 . S
N520 C517 1.384 . S
N521 C513 1.427 . S
N521 C519 1.384 . S
H522 C528 0.930 . S
H523 C532 0.930 . S
H524 C537 0.929 . S
H525 C535 0.929 . S
H526 C530 0.929 . S
H527 C536 0.929 . S
C528 H522 0.930 . S
C528 C529 1.367 . S
C528 C536 1.378 . S
C529 C528 1.367 . S
C529 C537 1.433 . S
C530 H526 0.929 . S
C530 C532 1.378 . S
C530 C534 1.350 . S
C531 C534 1.463 . S
C531 C536 1.350 . S
C531 N539 1.427 . S
C532 H523 0.930 . S
C532 C530 1.378 . S
C532 C533 1.367 . S
C533 C532 1.367 . S
C533 C535 1.433 . S
C534 C530 1.350 . S
C534 C531 1.463 . S
C534 N538 1.427 . S
C535 H525 0.929 . S
C535 C533 1.433 . S
C535 N538 1.384 . S
C536 H527 0.929 . S
C536 C528 1.378 . S
C536 C531 1.350 . S
C537 H524 0.929 . S
C537 C529 1.433 . S
C537 N539 1.384 . S
N538 C534 1.427 . S
N538 C535 1.384 . S
N539 C531 1.427 . S
N539 C537 1.384 . S
H540 C546 0.930 . S
H541 C550 0.930 . S
H542 C555 0.929 . S
H543 C553 0.929 . S
H544 C548 0.929 . S
H545 C554 0.929 . S
C546 H540 0.930 . S
C546 C547 1.367 . S
C546 C554 1.378 . S
C547 C546 1.367 . S
C547 C555 1.433 . S
C548 H544 0.929 . S
C548 C550 1.378 . S
C548 C552 1.350 . S
C549 C552 1.463 . S
C549 C554 1.350 . S
C549 N557 1.427 . S
C550 H541 0.930 . S
C550 C548 1.378 . S
C550 C551 1.367 . S
C551 C550 1.367 . S
C551 C553 1.433 . S
C552 C548 1.350 . S
C552 C549 1.463 . S
C552 N556 1.427 . S
C553 H543 0.929 . S
C553 C551 1.433 . S
C553 N556 1.384 . S
C554 H545 0.929 . S
C554 C546 1.378 . S
C554 C549 1.350 . S
C555 H542 0.929 . S
C555 C547 1.433 . S
C555 N557 1.384 . S
N556 C552 1.427 . S
N556 C553 1.384 . S
N557 C549 1.427 . S
N557 C555 1.384 . S
H558 C564 0.930 . S
H559 C568 0.930 . S
H560 C573 0.929 . S
H561 C571 0.899 1_554 S
H562 C566 0.929 . S
H563 C572 0.929 . S
C564 H558 0.930 . S
C564 C565 1.367 . S
C564 C572 1.378 . S
C565 C564 1.367 . S
C565 C573 1.433 . S
C566 H562 0.929 . S
C566 C568 1.378 . S
C566 C570 1.350 . S
C567 C570 1.463 . S
C567 C572 1.350 . S
C567 N575 1.427 . S
C568 H559 0.930 . S
C568 C566 1.378 . S
C568 C569 1.367 . S
C569 C568 1.367 . S
C569 C571 1.452 . S
C570 C566 1.350 . S
C570 C567 1.463 . S
C570 N574 1.427 . S
C571 H561 0.899 1_556 S
C571 C569 1.452 . S
C571 N574 1.397 . S
C572 H563 0.929 . S
C572 C564 1.378 . S
C572 C567 1.350 . S
C573 H560 0.929 . S
C573 C565 1.433 . S
C573 N575 1.384 . S
N574 C570 1.427 . S
N574 C571 1.397 . S
N575 C567 1.427 . S
N575 C573 1.384 . S
H576 C582 0.930 . S
H577 C586 0.930 . S
H578 C591 0.929 . S
H579 C589 0.929 . S
H580 C584 0.929 . S
H581 C590 0.929 . S
C582 H576 0.930 . S
C582 C583 1.367 . S
C582 C590 1.378 . S
C583 C582 1.367 . S
C583 C591 1.433 . S
C584 H580 0.929 . S
C584 C586 1.378 . S
C584 C588 1.350 . S
C585 C588 1.463 . S
C585 C590 1.350 . S
C585 N593 1.427 . S
C586 H577 0.930 . S
C586 C584 1.378 . S
C586 C587 1.367 . S
C587 C586 1.367 . S
C587 C589 1.433 . S
C588 C584 1.350 . S
C588 C585 1.463 . S
C588 N592 1.427 . S
C589 H579 0.929 . S
C589 C587 1.433 . S
C589 N592 1.384 . S
C590 H581 0.929 . S
C590 C582 1.378 . S
C590 C585 1.350 . S
C591 H578 0.929 . S
C591 C583 1.433 . S
C591 N593 1.384 . S
N592 C588 1.427 . S
N592 C589 1.384 . S
N593 C585 1.427 . S
N593 C591 1.384 . S
H594 C600 0.930 . S
H595 C604 0.930 . S
H596 C609 0.929 . S
H597 C607 0.929 . S
H598 C602 0.929 . S
H599 C608 0.929 . S
C600 H594 0.930 . S
C600 C601 1.367 . S
C600 C608 1.378 . S
C601 C600 1.367 . S
C601 C609 1.433 . S
C602 H598 0.929 . S
C602 C604 1.378 . S
C602 C606 1.350 . S
C603 C606 1.463 . S
C603 C608 1.350 . S
C603 N611 1.427 . S
C604 H595 0.930 . S
C604 C602 1.378 . S
C604 C605 1.367 . S
C605 C604 1.367 . S
C605 C607 1.433 . S
C606 C602 1.350 . S
C606 C603 1.463 . S
C606 N610 1.427 . S
C607 H597 0.929 . S
C607 C605 1.433 . S
C607 N610 1.384 . S
C608 H599 0.929 . S
C608 C600 1.378 . S
C608 C603 1.350 . S
C609 H596 0.929 . S
C609 C601 1.433 . S
C609 N611 1.384 . S
N610 C606 1.427 . S
N610 C607 1.384 . S
N611 C603 1.427 . S
N611 C609 1.384 . S
H612 C618 0.930 . S
H613 C622 0.930 . S
H614 C627 0.929 . S
H615 C625 0.929 . S
H616 C620 0.929 . S
H617 C626 0.929 . S
C618 H612 0.930 . S
C618 C619 1.366 . S
C618 C626 1.378 . S
C619 C618 1.366 . S
C619 C627 1.434 1_545 S
C620 H616 0.929 . S
C620 C622 1.378 . S
C620 C624 1.350 1_565 S
C621 C624 1.463 . S
C621 C626 1.350 . S
C621 N629 1.427 1_545 S
C622 H613 0.930 . S
C622 C620 1.378 . S
C622 C623 1.367 1_565 S
C623 C622 1.367 1_545 S
C623 C625 1.433 . S
C624 C620 1.350 1_545 S
C624 C621 1.463 . S
C624 N628 1.427 . S
C625 H615 0.929 . S
C625 C623 1.433 . S
C625 N628 1.384 . S
C626 H617 0.929 . S
C626 C618 1.378 . S
C626 C621 1.350 . S
C627 H614 0.929 . S
C627 C619 1.434 1_565 S
C627 N629 1.384 . S
N628 C624 1.427 . S
N628 C625 1.384 . S
N629 C621 1.427 1_565 S
N629 C627 1.384 . S
H630 C636 0.930 . S
H631 C640 0.930 . S
H632 C645 0.929 . S
H633 C643 0.929 1_565 S
H634 C638 0.929 . S
H635 C644 0.929 . S
C636 H630 0.930 . S
C636 C637 1.367 . S
C636 C644 1.378 . S
C637 C636 1.367 . S
C637 C645 1.433 . S
C638 H634 0.929 . S
C638 C640 1.378 . S
C638 C642 1.350 . S
C639 C642 1.463 . S
C639 C644 1.350 . S
C639 N647 1.427 . S
C640 H631 0.930 . S
C640 C638 1.378 . S
C640 C641 1.367 . S
C641 C640 1.367 . S
C641 C643 1.433 . S
C642 C638 1.350 . S
C642 C639 1.463 . S
C642 N646 1.427 . S
C643 H633 0.929 1_545 S
C643 C641 1.433 . S
C643 N646 1.384 . S
C644 H635 0.929 . S
C644 C636 1.378 . S
C644 C639 1.350 . S
C645 H632 0.929 . S
C645 C637 1.433 . S
C645 N647 1.384 . S
N646 C642 1.427 . S
N646 C643 1.384 . S
N647 C639 1.427 . S
N647 C645 1.384 . S
H648 C654 0.930 . S
H649 C658 0.930 . S
H650 C663 0.929 . S
H651 C661 0.929 . S
H652 C656 0.929 . S
H653 C662 0.929 . S
C654 H648 0.930 . S
C654 C655 1.367 . S
C654 C662 1.378 . S
C655 C654 1.367 . S
C655 C663 1.433 . S
C656 H652 0.929 . S
C656 C658 1.378 . S
C656 C660 1.350 . S
C657 C660 1.463 . S
C657 C662 1.350 . S
C657 N665 1.427 . S
C658 H649 0.930 . S
C658 C656 1.378 . S
C658 C659 1.367 . S
C659 C658 1.367 . S
C659 C661 1.433 . S
C660 C656 1.350 . S
C660 C657 1.463 . S
C660 N664 1.427 . S
C661 H651 0.929 . S
C661 C659 1.433 . S
C661 N664 1.384 . S
C662 H653 0.929 . S
C662 C654 1.378 . S
C662 C657 1.350 . S
C663 H650 0.929 . S
C663 C655 1.433 . S
C663 N665 1.384 . S
N664 C660 1.427 . S
N664 C661 1.384 . S
N665 C657 1.427 . S
N665 C663 1.384 . S
H666 C672 0.930 . S
H667 C676 0.930 . S
H668 C681 0.929 . S
H669 C679 0.929 . S
H670 C674 0.929 . S
H671 C680 0.929 . S
C672 H666 0.930 . S
C672 C673 1.367 . S
C672 C680 1.378 . S
C673 C672 1.367 . S
C673 C681 1.433 . S
C674 H670 0.929 . S
C674 C676 1.378 . S
C674 C678 1.350 . S
C675 C678 1.463 . S
C675 C680 1.350 . S
C675 N683 1.427 . S
C676 H667 0.930 . S
C676 C674 1.378 . S
C676 C677 1.367 . S
C677 C676 1.367 . S
C677 C679 1.433 . S
C678 C674 1.350 . S
C678 C675 1.463 . S
C678 N682 1.427 . S
C679 H669 0.929 . S
C679 C677 1.433 . S
C679 N682 1.384 . S
C680 H671 0.929 . S
C680 C672 1.378 . S
C680 C675 1.350 . S
C681 H668 0.929 . S
C681 C673 1.433 . S
C681 N683 1.384 . S
N682 C678 1.427 . S
N682 C679 1.384 . S
N683 C675 1.427 . S
N683 C681 1.384 . S
H684 C690 0.930 . S
H685 C694 0.930 . S
H686 C699 0.929 . S
H687 C697 0.929 . S
H688 C692 0.929 . S
H689 C698 0.928 . S
C690 H684 0.930 . S
C690 C691 1.367 . S
C690 C698 1.379 . S
C691 C690 1.367 . S
C691 C699 1.435 1_565 S
C692 H688 0.929 . S
C692 C694 1.378 . S
C692 C696 1.350 1_545 S
C693 C696 1.463 . S
C693 C698 1.349 1_554 S
C693 N701 1.427 1_565 S
C694 H685 0.930 . S
C694 C692 1.378 . S
C694 C695 1.367 1_545 S
C695 C694 1.367 1_565 S
C695 C697 1.433 . S
C696 C692 1.350 1_565 S
C696 C693 1.463 . S
C696 N700 1.427 . S
C697 H687 0.929 . S
C697 C695 1.433 . S
C697 N700 1.384 . S
C698 H689 0.928 . S
C698 C690 1.379 . S
C698 C693 1.349 1_556 S
C699 H686 0.929 . S
C699 C691 1.435 1_545 S
C699 N701 1.382 1_556 S
N700 C696 1.427 . S
N700 C697 1.384 . S
N701 C693 1.427 1_545 S
N701 C699 1.382 1_554 S
H702 C708 0.930 . S
H703 C712 0.930 . S
H704 C717 0.929 . S
H705 C715 0.929 . S
H706 C710 0.929 . S
H707 C716 0.929 . S
C708 H702 0.930 . S
C708 C709 1.367 . S
C708 C716 1.378 . S
C709 C708 1.367 . S
C709 C717 1.433 . S
C710 H706 0.929 . S
C710 C712 1.378 . S
C710 C714 1.350 . S
C711 C714 1.463 . S
C711 C716 1.350 . S
C711 N719 1.427 . S
C712 H703 0.930 . S
C712 C710 1.378 . S
C712 C713 1.367 . S
C713 C712 1.367 . S
C713 C715 1.433 . S
C714 C710 1.350 . S
C714 C711 1.463 . S
C714 N718 1.427 . S
C715 H705 0.929 . S
C715 C713 1.433 . S
C715 N718 1.384 . S
C716 H707 0.929 . S
C716 C708 1.378 . S
C716 C711 1.350 . S
C717 H704 0.929 . S
C717 C709 1.433 . S
C717 N719 1.384 . S
N718 C714 1.427 . S
N718 C715 1.384 . S
N719 C711 1.427 . S
N719 C717 1.384 . S
H720 C726 0.930 . S
H721 C730 0.930 1_556 S
H722 C735 0.929 . S
H723 C733 0.929 . S
H724 C728 0.929 1_556 S
H725 C734 0.929 . S
C726 H720 0.930 . S
C726 C727 1.367 . S
C726 C734 1.378 . S
C727 C726 1.367 . S
C727 C735 1.433 . S
C728 H724 0.929 1_554 S
C728 C730 1.378 . S
C728 C732 1.350 . S
C729 C732 1.463 . S
C729 C734 1.350 . S
C729 N737 1.427 . S
C730 H721 0.930 1_554 S
C730 C728 1.378 . S
C730 C731 1.367 . S
C731 C730 1.367 . S
C731 C733 1.433 . S
C732 C728 1.350 . S
C732 C729 1.463 . S
C732 N736 1.427 . S
C733 H723 0.929 . S
C733 C731 1.433 . S
C733 N736 1.384 . S
C734 H725 0.929 . S
C734 C726 1.378 . S
C734 C729 1.350 . S
C735 H722 0.929 . S
C735 C727 1.433 . S
C735 N737 1.384 . S
N736 C732 1.427 . S
N736 C733 1.384 . S
N737 C729 1.427 . S
N737 C735 1.384 . S
H738 C744 0.930 . S
H739 C748 0.930 . S
H740 C753 0.929 . S
H741 C751 0.929 . S
H742 C746 0.929 . S
H743 C752 0.929 . S
C744 H738 0.930 . S
C744 C745 1.367 . S
C744 C752 1.378 . S
C745 C744 1.367 . S
C745 C753 1.433 . S
C746 H742 0.929 . S
C746 C748 1.378 . S
C746 C750 1.350 . S
C747 C750 1.463 . S
C747 C752 1.350 . S
C747 N755 1.427 . S
C748 H739 0.930 . S
C748 C746 1.378 . S
C748 C749 1.367 . S
C749 C748 1.367 . S
C749 C751 1.433 . S
C750 C746 1.350 . S
C750 C747 1.463 . S
C750 N754 1.427 . S
C751 H741 0.929 . S
C751 C749 1.433 . S
C751 N754 1.384 . S
C752 H743 0.929 . S
C752 C744 1.378 . S
C752 C747 1.350 . S
C753 H740 0.929 . S
C753 C745 1.433 . S
C753 N755 1.384 . S
N754 C750 1.427 . S
N754 C751 1.384 . S
N755 C747 1.427 . S
N755 C753 1.384 . S
H756 C762 0.930 . S
H757 C766 0.930 . S
H758 C771 0.929 . S
H759 C769 0.929 . S
H760 C764 0.929 . S
H761 C770 0.929 . S
C762 H756 0.930 . S
C762 C763 1.367 1_455 S
C762 C770 1.378 . S
C763 C762 1.367 1_655 S
C763 C771 1.433 1_556 S
C764 H760 0.929 . S
C764 C766 1.378 . S
C764 C768 1.350 1_654 S
C765 C768 1.463 . S
C765 C770 1.350 . S
C765 N773 1.427 1_456 S
C766 H757 0.930 . S
C766 C764 1.378 . S
C766 C767 1.367 1_654 S
C767 C766 1.367 1_456 S
C767 C769 1.433 . S
C768 C764 1.350 1_456 S
C768 C765 1.463 . S
C768 N772 1.427 . S
C769 H759 0.929 . S
C769 C767 1.433 . S
C769 N772 1.384 . S
C770 H761 0.929 . S
C770 C762 1.378 . S
C770 C765 1.350 . S
C771 H758 0.929 . S
C771 C763 1.433 1_554 S
C771 N773 1.384 . S
N772 C768 1.427 . S
N772 C769 1.384 . S
N773 C765 1.427 1_654 S
N773 C771 1.384 . S
H774 C780 0.930 1_556 S
H775 C784 0.930 . S
H776 C789 0.929 . S
H777 C787 0.929 1_556 S
H778 C782 0.929 . S
H779 C788 0.901 1_556 S
C780 H774 0.930 1_554 S
C780 C781 1.367 . S
C780 C788 1.378 . S
C781 C780 1.367 . S
C781 C789 1.433 . S
C782 H778 0.929 . S
C782 C784 1.378 . S
C782 C786 1.350 . S
C783 C786 1.463 . S
C783 C788 1.350 . S
C783 N791 1.427 . S
C784 H775 0.930 . S
C784 C782 1.378 . S
C784 C785 1.367 . S
C785 C784 1.367 . S
C785 C787 1.433 . S
C786 C782 1.350 . S
C786 C783 1.463 . S
C786 N790 1.427 . S
C787 H777 0.929 1_554 S
C787 C785 1.433 . S
C787 N790 1.384 . S
C788 H779 0.901 1_554 S
C788 C780 1.378 . S
C788 C783 1.350 . S
C789 H776 0.929 . S
C789 C781 1.433 . S
C789 N791 1.384 . S
N790 C786 1.427 . S
N790 C787 1.384 . S
N791 C783 1.427 . S
N791 C789 1.384 . S
H792 C798 0.930 . S
H793 C802 0.930 . S
H794 C807 0.929 1_655 S
H795 C805 0.929 . S
H796 C800 0.930 1_655 S
H797 C806 0.929 . S
C798 H792 0.930 . S
C798 C799 1.367 . S
C798 C806 1.378 . S
C799 C798 1.367 . S
C799 C807 1.433 . S
C800 H796 0.930 1_455 S
C800 C802 1.378 1_455 S
C800 C804 1.348 . S
C801 C804 1.463 . S
C801 C806 1.350 . S
C801 N809 1.427 . S
C802 H793 0.930 . S
C802 C800 1.378 1_655 S
C802 C803 1.367 1_655 S
C803 C802 1.367 1_455 S
C803 C805 1.433 . S
C804 C800 1.348 . S
C804 C801 1.463 . S
C804 N808 1.427 . S
C805 H795 0.929 . S
C805 C803 1.433 . S
C805 N808 1.384 . S
C806 H797 0.929 . S
C806 C798 1.378 . S
C806 C801 1.350 . S
C807 H794 0.929 1_455 S
C807 C799 1.433 . S
C807 N809 1.384 . S
N808 C804 1.427 . S
N808 C805 1.384 . S
N809 C801 1.427 . S
N809 C807 1.384 . S
H810 C816 0.930 . S
H811 C820 0.930 . S
H812 C825 0.929 . S
H813 C823 0.929 . S
H814 C818 0.929 . S
H815 C824 0.929 . S
C816 H810 0.930 . S
C816 C817 1.367 . S
C816 C824 1.378 . S
C817 C816 1.367 . S
C817 C825 1.433 . S
C818 H814 0.929 . S
C818 C820 1.378 . S
C818 C822 1.350 . S
C819 C822 1.463 . S
C819 C824 1.350 . S
C819 N827 1.427 . S
C820 H811 0.930 . S
C820 C818 1.378 . S
C820 C821 1.367 . S
C821 C820 1.367 . S
C821 C823 1.433 . S
C822 C818 1.350 . S
C822 C819 1.463 . S
C822 N826 1.427 . S
C823 H813 0.929 . S
C823 C821 1.433 . S
C823 N826 1.384 . S
C824 H815 0.929 . S
C824 C816 1.378 . S
C824 C819 1.350 . S
C825 H812 0.929 . S
C825 C817 1.433 . S
C825 N827 1.384 . S
N826 C822 1.427 . S
N826 C823 1.384 . S
N827 C819 1.427 . S
N827 C825 1.384 . S
C403 C1 1.549 . S
C407 C315 1.432 . S
C421 C40 1.513 . S
C425 C349 1.419 . S
C443 C361 1.397 . S
C439 C99 1.502 . S
C457 C118 1.504 . S
C461 C395 1.412 . S
C479 C352 1.424 . S
C475 C16 1.540 . S
C497 C332 1.396 . S
C493 C60 1.511 . S
C515 C379 1.399 . S
C511 C79 1.507 . S
C533 C370 1.385 . S
C529 C138 1.493 . S
C547 C21 1.534 . S
C551 C378 1.420 . S
C569 C340 1.405 . S
C565 C94 1.517 . S
C583 C133 1.498 . S
C587 C316 1.379 . S
C601 C55 1.519 . S
C605 C373 1.414 . S
C623 C331 1.646 . S
C619 C157 1.730 1_545 S
C637 C196 1.720 . S
C641 C353 1.626 . S
C655 C255 1.729 . S
C659 C358 1.643 . S
C673 C289 1.738 . S
C677 C391 1.656 . S
C691 C172 1.736 . S
C695 C336 1.661 . S
C713 C328 1.661 . S
C709 C216 1.751 . S
C731 C382 1.659 . S
C727 C235 1.742 . S
C749 C374 1.620 . S
C745 C294 1.688 . S
C763 C177 1.695 . S
C767 C394 1.628 . S
C785 C337 1.655 . S
C781 C250 1.755 . S
C803 C319 1.602 . S
C799 C274 1.698 . S
C817 C211 1.720 . S
C821 C357 1.644 . S
