# Generated by pormake.
# Topology ctn, (3,4)-cn, num edge types: 1
# Building blocks:
#     Node 0, Type 0, BuildingBlock: BELTOD_clean_linker_0, # of connection points: 3
#     Node 1, Type 0, BuildingBlock: BELTOD_clean_linker_0, # of connection points: 3
#     Node 2, Type 0, BuildingBlock: BELTOD_clean_linker_0, # of connection points: 3
#     Node 3, Type 0, BuildingBlock: BELTOD_clean_linker_0, # of connection points: 3
#     Node 4, Type 0, BuildingBlock: BELTOD_clean_linker_0, # of connection points: 3
#     Node 5, Type 0, BuildingBlock: BELTOD_clean_linker_0, # of connection points: 3
#     Node 6, Type 0, BuildingBlock: BELTOD_clean_linker_0, # of connection points: 3
#     Node 7, Type 0, BuildingBlock: BELTOD_clean_linker_0, # of connection points: 3
#     Node 8, Type 0, BuildingBlock: BELTOD_clean_linker_0, # of connection points: 3
#     Node 9, Type 0, BuildingBlock: BELTOD_clean_linker_0, # of connection points: 3
#     Node 10, Type 0, BuildingBlock: BELTOD_clean_linker_0, # of connection points: 3
#     Node 11, Type 0, BuildingBlock: BELTOD_clean_linker_0, # of connection points: 3
#     Node 12, Type 0, BuildingBlock: BELTOD_clean_linker_0, # of connection points: 3
#     Node 13, Type 0, BuildingBlock: BELTOD_clean_linker_0, # of connection points: 3
#     Node 14, Type 0, BuildingBlock: BELTOD_clean_linker_0, # of connection points: 3
#     Node 15, Type 0, BuildingBlock: BELTOD_clean_linker_0, # of connection points: 3
#     Node 16, Type 1, BuildingBlock: NAHDIM_clean_sbu_0, # of connection points: 4
#     Node 17, Type 1, BuildingBlock: NAHDIM_clean_sbu_0, # of connection points: 4
#     Node 18, Type 1, BuildingBlock: NAHDIM_clean_sbu_0, # of connection points: 4
#     Node 19, Type 1, BuildingBlock: NAHDIM_clean_sbu_0, # of connection points: 4
#     Node 20, Type 1, BuildingBlock: NAHDIM_clean_sbu_0, # of connection points: 4
#     Node 21, Type 1, BuildingBlock: NAHDIM_clean_sbu_0, # of connection points: 4
#     Node 22, Type 1, BuildingBlock: NAHDIM_clean_sbu_0, # of connection points: 4
#     Node 23, Type 1, BuildingBlock: NAHDIM_clean_sbu_0, # of connection points: 4
#     Node 24, Type 1, BuildingBlock: NAHDIM_clean_sbu_0, # of connection points: 4
#     Node 25, Type 1, BuildingBlock: NAHDIM_clean_sbu_0, # of connection points: 4
#     Node 26, Type 1, BuildingBlock: NAHDIM_clean_sbu_0, # of connection points: 4
#     Node 27, Type 1, BuildingBlock: NAHDIM_clean_sbu_0, # of connection points: 4
#     Edge 28, Type (0, 1), BuildingBlock: MIFKUJ_clean_linker_0, # of connection points: 2
#     Edge 29, Type (0, 1), BuildingBlock: MIFKUJ_clean_linker_0, # of connection points: 2
#     Edge 30, Type (0, 1), BuildingBlock: MIFKUJ_clean_linker_0, # of connection points: 2
#     Edge 31, Type (0, 1), BuildingBlock: MIFKUJ_clean_linker_0, # of connection points: 2
#     Edge 32, Type (0, 1), BuildingBlock: MIFKUJ_clean_linker_0, # of connection points: 2
#     Edge 33, Type (0, 1), BuildingBlock: MIFKUJ_clean_linker_0, # of connection points: 2
#     Edge 34, Type (0, 1), BuildingBlock: MIFKUJ_clean_linker_0, # of connection points: 2
#     Edge 35, Type (0, 1), BuildingBlock: MIFKUJ_clean_linker_0, # of connection points: 2
#     Edge 36, Type (0, 1), BuildingBlock: MIFKUJ_clean_linker_0, # of connection points: 2
#     Edge 37, Type (0, 1), BuildingBlock: MIFKUJ_clean_linker_0, # of connection points: 2
#     Edge 38, Type (0, 1), BuildingBlock: MIFKUJ_clean_linker_0, # of connection points: 2
#     Edge 39, Type (0, 1), BuildingBlock: MIFKUJ_clean_linker_0, # of connection points: 2
#     Edge 40, Type (0, 1), BuildingBlock: MIFKUJ_clean_linker_0, # of connection points: 2
#     Edge 41, Type (0, 1), BuildingBlock: MIFKUJ_clean_linker_0, # of connection points: 2
#     Edge 42, Type (0, 1), BuildingBlock: MIFKUJ_clean_linker_0, # of connection points: 2
#     Edge 43, Type (0, 1), BuildingBlock: MIFKUJ_clean_linker_0, # of connection points: 2
#     Edge 44, Type (0, 1), BuildingBlock: MIFKUJ_clean_linker_0, # of connection points: 2
#     Edge 45, Type (0, 1), BuildingBlock: MIFKUJ_clean_linker_0, # of connection points: 2
#     Edge 46, Type (0, 1), BuildingBlock: MIFKUJ_clean_linker_0, # of connection points: 2
#     Edge 47, Type (0, 1), BuildingBlock: MIFKUJ_clean_linker_0, # of connection points: 2
#     Edge 48, Type (0, 1), BuildingBlock: MIFKUJ_clean_linker_0, # of connection points: 2
#     Edge 49, Type (0, 1), BuildingBlock: MIFKUJ_clean_linker_0, # of connection points: 2
#     Edge 50, Type (0, 1), BuildingBlock: MIFKUJ_clean_linker_0, # of connection points: 2
#     Edge 51, Type (0, 1), BuildingBlock: MIFKUJ_clean_linker_0, # of connection points: 2
#     Edge 52, Type (0, 1), BuildingBlock: MIFKUJ_clean_linker_0, # of connection points: 2
#     Edge 53, Type (0, 1), BuildingBlock: MIFKUJ_clean_linker_0, # of connection points: 2
#     Edge 54, Type (0, 1), BuildingBlock: MIFKUJ_clean_linker_0, # of connection points: 2
#     Edge 55, Type (0, 1), BuildingBlock: MIFKUJ_clean_linker_0, # of connection points: 2
#     Edge 56, Type (0, 1), BuildingBlock: MIFKUJ_clean_linker_0, # of connection points: 2
#     Edge 57, Type (0, 1), BuildingBlock: MIFKUJ_clean_linker_0, # of connection points: 2
#     Edge 58, Type (0, 1), BuildingBlock: MIFKUJ_clean_linker_0, # of connection points: 2
#     Edge 59, Type (0, 1), BuildingBlock: MIFKUJ_clean_linker_0, # of connection points: 2
#     Edge 60, Type (0, 1), BuildingBlock: MIFKUJ_clean_linker_0, # of connection points: 2
#     Edge 61, Type (0, 1), BuildingBlock: MIFKUJ_clean_linker_0, # of connection points: 2
#     Edge 62, Type (0, 1), BuildingBlock: MIFKUJ_clean_linker_0, # of connection points: 2
#     Edge 63, Type (0, 1), BuildingBlock: MIFKUJ_clean_linker_0, # of connection points: 2
#     Edge 64, Type (0, 1), BuildingBlock: MIFKUJ_clean_linker_0, # of connection points: 2
#     Edge 65, Type (0, 1), BuildingBlock: MIFKUJ_clean_linker_0, # of connection points: 2
#     Edge 66, Type (0, 1), BuildingBlock: MIFKUJ_clean_linker_0, # of connection points: 2
#     Edge 67, Type (0, 1), BuildingBlock: MIFKUJ_clean_linker_0, # of connection points: 2
#     Edge 68, Type (0, 1), BuildingBlock: MIFKUJ_clean_linker_0, # of connection points: 2
#     Edge 69, Type (0, 1), BuildingBlock: MIFKUJ_clean_linker_0, # of connection points: 2
#     Edge 70, Type (0, 1), BuildingBlock: MIFKUJ_clean_linker_0, # of connection points: 2
#     Edge 71, Type (0, 1), BuildingBlock: MIFKUJ_clean_linker_0, # of connection points: 2
#     Edge 72, Type (0, 1), BuildingBlock: MIFKUJ_clean_linker_0, # of connection points: 2
#     Edge 73, Type (0, 1), BuildingBlock: MIFKUJ_clean_linker_0, # of connection points: 2
#     Edge 74, Type (0, 1), BuildingBlock: MIFKUJ_clean_linker_0, # of connection points: 2
#     Edge 75, Type (0, 1), BuildingBlock: MIFKUJ_clean_linker_0, # of connection points: 2
# Relax obj value: 0.002
# Max RMSD: 0.036
# Mean RMSD: 0.022
data_MOF--net-ctn--node1-NAHDIM_clean_sbu_0--node2-BELTOD_clean_linker_0--edge1-MIFKUJ_clean_linker_0
_symmetry_space_group_name_H-M    P1
_symmetry_Int_Tables_number       1
_symmetry_cell_setting            triclinic
loop_
_symmetry_equiv_pos_as_xyz
'x, y, z'
_cell_length_a     78.756828
_cell_length_b     79.662133
_cell_length_c     78.24618
_cell_angle_alpha  90.427021
_cell_angle_beta   90.122149
_cell_angle_gamma 92.725892
loop_
_atom_site_label
_atom_site_type_symbol
_atom_site_fract_x
_atom_site_fract_y
_atom_site_fract_z
_atom_type_partial_charge
P0 P 0.06 0.0685 0.07679 0.0
H1 H 0.06034 0.0498 0.10839 0.0
H2 H 0.03806 0.0406 0.1284 0.0
H3 H 0.00024 0.06069 0.09514 0.0
H4 H 0.02252 0.06938 0.07499 0.0
H5 H 0.09615 0.06656 0.06976 0.0
H6 H 0.11354 0.04365 0.06038 0.0
H7 H 0.06857 0.01049 0.05729 0.0
H8 H 0.0512 0.03362 0.06655 0.0
H9 H 0.04605 0.10151 0.07598 0.0
H10 H 0.05648 0.06239 0.03962 0.0
O11 O 0.07253 0.08127 0.08884 0.0
H12 H 0.03615 0.11904 0.05284 0.0
H13 H 0.04648 0.07983 0.01638 0.0
C14 C 0.04312 0.06041 0.09032 0.0
C15 C 0.04722 0.05206 0.10535 0.0
C16 C 0.03448 0.04691 0.11682 0.0
C17 C 0.01737 0.05009 0.11348 0.0
C18 C 0.01326 0.05796 0.09806 0.0
C19 C 0.02604 0.06306 0.08657 0.0
C20 C 0.07247 0.05165 0.0692 0.0
C21 C 0.09004 0.05435 0.0671 0.0
C22 C 0.09997 0.04123 0.06179 0.0
C23 C 0.09246 0.0252 0.05831 0.0
C24 C 0.07472 0.0227 0.05985 0.0
C25 C 0.0648 0.03586 0.06525 0.0
C26 C 0.05219 0.08077 0.05949 0.0
C27 C 0.04615 0.09669 0.063 0.0
C28 C 0.04038 0.10663 0.04978 0.0
C29 C 0.04056 0.10083 0.03277 0.0
C30 C 0.04638 0.08472 0.02933 0.0
C31 C 0.05206 0.07472 0.04262 0.0
P32 P 0.31254 0.68765 0.19266 0.0
H33 H 0.32793 0.70649 0.16447 0.0
H34 H 0.31905 0.7304 0.14798 0.0
H35 H 0.27406 0.73289 0.17932 0.0
H36 H 0.28283 0.70856 0.19541 0.0
H37 H 0.34135 0.67327 0.20959 0.0
H38 H 0.35874 0.68214 0.23414 0.0
H39 H 0.3274 0.72467 0.24179 0.0
H40 H 0.31041 0.71597 0.21679 0.0
H41 H 0.29577 0.65848 0.17612 0.0
H42 H 0.28931 0.6877 0.22207 0.0
O43 O 0.3249 0.67663 0.17991 0.0
H44 H 0.27158 0.63986 0.18409 0.0
H45 H 0.26503 0.66907 0.23014 0.0
C46 C 0.30588 0.70554 0.18093 0.0
C47 C 0.31611 0.71212 0.16773 0.0
C48 C 0.31108 0.72592 0.15842 0.0
C49 C 0.2958 0.73358 0.16228 0.0
C50 C 0.28574 0.72713 0.1758 0.0
C51 C 0.29077 0.71324 0.18505 0.0
C52 C 0.32484 0.69416 0.21116 0.0
C53 C 0.33827 0.68455 0.21651 0.0
C54 C 0.3481 0.68955 0.23069 0.0
C55 C 0.34453 0.70417 0.23996 0.0
C56 C 0.33071 0.71352 0.23478 0.0
C57 C 0.32094 0.70854 0.22051 0.0
C58 C 0.29454 0.67425 0.19868 0.0
C59 C 0.28921 0.66083 0.18798 0.0
C60 C 0.2754 0.65018 0.19256 0.0
C61 C 0.26653 0.65291 0.20782 0.0
C62 C 0.27162 0.66668 0.2183 0.0
C63 C 0.28555 0.67725 0.21376 0.0
P64 P 0.98805 0.48794 0.01625 0.0
H65 H 0.99718 0.47876 0.98137 0.0
H66 H 0.99778 0.45177 0.96634 0.0
H67 H 0.97755 0.4266 0.01112 0.0
H68 H 0.97703 0.45369 0.02612 0.0
H69 H 0.97771 0.522 0.00971 0.0
H70 H 0.9502 0.53481 0.00989 0.0
H71 H 0.9258 0.48698 0.0233 0.0
H72 H 0.95344 0.47418 0.02281 0.0
H73 H 0.01584 0.46944 0.03 0.0
H74 H 0.97707 0.50073 0.04972 0.0
O75 O 0.00217 0.50098 0.00666 0.0
H76 H 0.02742 0.46672 0.0588 0.0
H77 H 0.98873 0.49829 0.07849 0.0
C78 C 0.98728 0.46817 0.00492 0.0
C79 C 0.99284 0.46745 0.98795 0.0
C80 C 0.99323 0.45202 0.97939 0.0
C81 C 0.98784 0.43707 0.98761 0.0
C82 C 0.98169 0.43792 0.00444 0.0
C83 C 0.98145 0.45337 0.01303 0.0
C84 C 0.96758 0.49707 0.01592 0.0
C85 C 0.96644 0.51422 0.01255 0.0
C86 C 0.9507 0.52158 0.01282 0.0
C87 C 0.93579 0.51192 0.01661 0.0
C88 C 0.93701 0.49471 0.0201 0.0
C89 C 0.9528 0.48737 0.01984 0.0
C90 C 0.99545 0.48505 0.03776 0.0
C91 C 0.00972 0.47559 0.04057 0.0
C92 C 0.01641 0.47416 0.05701 0.0
C93 C 0.009 0.4823 0.07094 0.0
C94 C 0.99457 0.49167 0.06808 0.0
C95 C 0.98791 0.4931 0.0516 0.0
P96 P 0.68011 0.82137 0.17982 0.0
H97 H 0.70306 0.84602 0.16373 0.0
H98 H 0.72675 0.86407 0.17451 0.0
H99 H 0.72026 0.84215 0.22456 0.0
H100 H 0.69655 0.82413 0.21367 0.0
H101 H 0.67737 0.81313 0.14343 0.0
H102 H 0.6899 0.79165 0.12567 0.0
H103 H 0.7139 0.77157 0.17023 0.0
H104 H 0.70161 0.79346 0.18802 0.0
H105 H 0.66032 0.83959 0.20417 0.0
H106 H 0.66931 0.78764 0.19304 0.0
O107 O 0.66877 0.8335 0.16729 0.0
H108 H 0.64097 0.83088 0.2272 0.0
H109 H 0.65014 0.77889 0.21619 0.0
C110 C 0.69783 0.83406 0.18799 0.0
C111 C 0.70675 0.84511 0.17702 0.0
C112 C 0.72036 0.85532 0.18317 0.0
C113 C 0.7253 0.85459 0.20042 0.0
C114 C 0.71657 0.84316 0.21128 0.0
C115 C 0.70302 0.83287 0.20507 0.0
C116 C 0.68836 0.80472 0.16709 0.0
C117 C 0.68523 0.80408 0.14945 0.0
C118 C 0.69247 0.79186 0.13928 0.0
C119 C 0.70283 0.77998 0.14661 0.0
C120 C 0.70583 0.78052 0.16432 0.0
C121 C 0.69881 0.79296 0.17446 0.0
C122 C 0.66632 0.81431 0.19692 0.0
C123 C 0.65817 0.82631 0.20672 0.0
C124 C 0.64709 0.82132 0.21983 0.0
C125 C 0.64404 0.8042 0.22346 0.0
C126 C 0.6524 0.79218 0.21376 0.0
C127 C 0.66337 0.79719 0.20051 0.0
P128 P 0.05537 0.94677 0.44308 0.0
H129 H 0.09228 0.95166 0.44252 0.0
H130 H 0.11174 0.97414 0.45287 0.0
H131 H 0.06915 0.00055 0.47265 0.0
H132 H 0.04969 0.97825 0.46142 0.0
H133 H 0.04598 0.91104 0.44226 0.0
H134 H 0.03723 0.89093 0.46433 0.0
H135 H 0.04225 0.93035 0.5025 0.0
H136 H 0.05118 0.95036 0.48036 0.0
H137 H 0.05155 0.97149 0.41643 0.0
H138 H 0.0185 0.94029 0.44813 0.0
O139 O 0.06539 0.93642 0.42779 0.0
H140 H 0.02689 0.98065 0.40058 0.0
H141 H 0.99383 0.94957 0.43256 0.0
C142 C 0.06955 0.96342 0.45102 0.0
C143 C 0.08712 0.96234 0.44898 0.0
C144 C 0.09827 0.97516 0.4551 0.0
C145 C 0.09207 0.98921 0.46367 0.0
C146 C 0.07439 0.99009 0.46588 0.0
C147 C 0.06323 0.97731 0.45956 0.0
C148 C 0.0496 0.9321 0.45971 0.0
C149 C 0.04536 0.91532 0.45541 0.0
C150 C 0.0402 0.90387 0.46801 0.0
C151 C 0.03909 0.90904 0.48518 0.0
C152 C 0.04323 0.92593 0.48943 0.0
C153 C 0.04833 0.93739 0.47677 0.0
C154 C 0.03689 0.95522 0.43342 0.0
C155 C 0.03896 0.96686 0.42018 0.0
C156 C 0.02484 0.97214 0.41118 0.0
C157 C 0.00839 0.96577 0.41526 0.0
C158 C 0.00635 0.95453 0.42896 0.0
C159 C 0.02048 0.94927 0.43794 0.0
P160 P 0.23163 0.74335 0.77549 0.0
H161 H 0.25722 0.76307 0.79472 0.0
H162 H 0.25673 0.77766 0.82227 0.0
H163 H 0.20469 0.75954 0.82966 0.0
H164 H 0.20537 0.74478 0.8021 0.0
H165 H 0.25019 0.72394 0.75081 0.0
H166 H 0.2628 0.69655 0.75202 0.0
H167 H 0.24427 0.69007 0.80361 0.0
H168 H 0.2315 0.7175 0.80222 0.0
H169 H 0.21285 0.76811 0.7573 0.0
H170 H 0.20437 0.71674 0.77336 0.0
O171 O 0.24435 0.75529 0.76302 0.0
H172 H 0.18481 0.76727 0.74386 0.0
H173 H 0.17631 0.71571 0.7597 0.0
C174 C 0.23122 0.7532 0.79622 0.0
C175 C 0.24571 0.76225 0.80226 0.0
C176 C 0.24539 0.77062 0.81798 0.0
C177 C 0.23059 0.76995 0.82803 0.0
C178 C 0.21628 0.76029 0.82222 0.0
C179 C 0.21661 0.75195 0.80642 0.0
C180 C 0.24027 0.72289 0.77655 0.0
C181 C 0.24889 0.71665 0.7624 0.0
C182 C 0.25613 0.70102 0.76313 0.0
C183 C 0.25473 0.69125 0.778 0.0
C184 C 0.24555 0.6973 0.79198 0.0
C185 C 0.23836 0.71302 0.79125 0.0
C186 C 0.21081 0.74239 0.76596 0.0
C187 C 0.20498 0.75661 0.75781 0.0
C188 C 0.18897 0.75609 0.75009 0.0
C189 C 0.17843 0.74135 0.75051 0.0
C190 C 0.18413 0.72724 0.75917 0.0
C191 C 0.20021 0.72778 0.76687 0.0
P192 P 0.98624 0.51931 0.49523 0.0
H193 H 0.00772 0.49586 0.47806 0.0
H194 H 0.02119 0.49573 0.44996 0.0
H195 H 0.99957 0.54319 0.43846 0.0
H196 H 0.98593 0.54315 0.46664 0.0
H197 H 0.96087 0.53292 0.5181 0.0
H198 H 0.95894 0.56 0.53254 0.0
H199 H 0.00568 0.57767 0.50844 0.0
H200 H 0.00741 0.55055 0.49382 0.0
H201 H 0.97426 0.48518 0.50405 0.0
H202 H 0.95381 0.52878 0.48077 0.0
O203 O 0.9983 0.50886 0.50866 0.0
H204 H 0.94659 0.4702 0.50159 0.0
H205 H 0.92599 0.51377 0.47811 0.0
C206 C 0.99629 0.51976 0.47461 0.0
C207 C 0.00596 0.5063 0.46955 0.0
C208 C 0.01353 0.50616 0.45343 0.0
C209 C 0.01151 0.5195 0.44207 0.0
C210 C 0.00154 0.53287 0.44707 0.0
C211 C 0.99379 0.53288 0.46316 0.0
C212 C 0.98396 0.5399 0.50438 0.0
C213 C 0.97051 0.54272 0.5156 0.0
C214 C 0.96952 0.55816 0.52402 0.0
C215 C 0.98212 0.57102 0.52158 0.0
C216 C 0.9956 0.56814 0.51033 0.0
C217 C 0.99659 0.55265 0.50195 0.0
C218 C 0.96595 0.50819 0.49291 0.0
C219 C 0.9638 0.49153 0.49839 0.0
C220 C 0.948 0.48292 0.49684 0.0
C221 C 0.93408 0.49082 0.48971 0.0
C222 C 0.93641 0.50743 0.48387 0.0
C223 C 0.95227 0.516 0.48534 0.0
P224 P 0.80991 0.82098 0.81949 0.0
H225 H 0.83759 0.83792 0.80083 0.0
H226 H 0.85537 0.82928 0.77709 0.0
H227 H 0.82743 0.78129 0.77488 0.0
H228 H 0.8095 0.79015 0.79854 0.0
H229 H 0.78613 0.84074 0.83821 0.0
H230 H 0.76156 0.85628 0.82961 0.0
H231 H 0.76819 0.83982 0.77738 0.0
H232 H 0.79295 0.82452 0.78608 0.0
H233 H 0.82758 0.80377 0.84638 0.0
H234 H 0.779 0.79883 0.82089 0.0
O235 O 0.82181 0.8344 0.83146 0.0
H236 H 0.81924 0.78038 0.86505 0.0
H237 H 0.77062 0.77519 0.83933 0.0
C238 C 0.82252 0.81453 0.80168 0.0
C239 C 0.83533 0.82552 0.79527 0.0
C240 C 0.84551 0.82055 0.78174 0.0
C241 C 0.84296 0.80451 0.77425 0.0
C242 C 0.8297 0.79373 0.78036 0.0
C243 C 0.81953 0.79872 0.79396 0.0
C244 C 0.79148 0.8317 0.81277 0.0
C245 C 0.78227 0.84048 0.82491 0.0
C246 C 0.76814 0.84924 0.81999 0.0
C247 C 0.76292 0.84933 0.80279 0.0
C248 C 0.77203 0.8402 0.79068 0.0
C249 C 0.78616 0.8314 0.79565 0.0
C250 C 0.80377 0.80324 0.83255 0.0
C251 C 0.81512 0.7976 0.84479 0.0
C252 C 0.81038 0.78414 0.85536 0.0
C253 C 0.79421 0.77597 0.85376 0.0
C254 C 0.78304 0.7814 0.8411 0.0
C255 C 0.78782 0.79488 0.83052 0.0
P256 P 0.31235 0.3184 0.31965 0.0
H257 H 0.33251 0.33598 0.29374 0.0
H258 H 0.34963 0.32628 0.2699 0.0
H259 H 0.33255 0.27502 0.28031 0.0
H260 H 0.31579 0.28476 0.30425 0.0
H261 H 0.29394 0.34199 0.33993 0.0
H262 H 0.27075 0.36024 0.33349 0.0
H263 H 0.26898 0.34109 0.28164 0.0
H264 H 0.292 0.32256 0.28836 0.0
H265 H 0.32667 0.30306 0.34986 0.0
H266 H 0.28217 0.29548 0.31805 0.0
O267 O 0.32645 0.33034 0.33082 0.0
H268 H 0.31712 0.27948 0.36763 0.0
H269 H 0.27273 0.27138 0.33543 0.0
C270 C 0.32303 0.31111 0.30088 0.0
C271 C 0.33234 0.32267 0.29076 0.0
C272 C 0.34204 0.31711 0.27707 0.0
C273 C 0.34256 0.29985 0.27328 0.0
C274 C 0.33264 0.28837 0.28307 0.0
C275 C 0.32296 0.29395 0.29675 0.0
C276 C 0.29489 0.33122 0.31454 0.0
C277 C 0.28856 0.34174 0.32718 0.0
C278 C 0.27535 0.35221 0.32345 0.0
C279 C 0.26816 0.35229 0.30698 0.0
C280 C 0.27421 0.3413 0.29446 0.0
C281 C 0.28746 0.3308 0.29824 0.0
C282 C 0.30497 0.30117 0.33284 0.0
C283 C 0.3148 0.29631 0.34671 0.0
C284 C 0.3094 0.28268 0.35676 0.0
C285 C 0.29415 0.27346 0.35297 0.0
C286 C 0.2844 0.27833 0.3389 0.0
C287 C 0.28978 0.29207 0.32892 0.0
P288 P 0.4876 0.99263 0.51368 0.0
H289 H 0.49573 0.98208 0.47895 0.0
H290 H 0.49548 0.95472 0.46485 0.0
H291 H 0.4759 0.93137 0.51098 0.0
H292 H 0.47702 0.95883 0.52524 0.0
H293 H 0.47779 0.02737 0.51382 0.0
H294 H 0.45031 0.04032 0.51424 0.0
H295 H 0.42493 0.99105 0.51617 0.0
H296 H 0.45247 0.97821 0.51534 0.0
H297 H 0.52139 0.98559 0.52545 0.0
H298 H 0.47282 0.99453 0.54827 0.0
O299 O 0.50095 0.00546 0.5028 0.0
H300 H 0.53395 0.98306 0.55384 0.0
H301 H 0.48536 0.99238 0.57674 0.0
C302 C 0.48658 0.97243 0.50318 0.0
C303 C 0.49144 0.97106 0.48605 0.0
C304 C 0.49112 0.95537 0.47794 0.0
C305 C 0.48566 0.94074 0.48674 0.0
C306 C 0.48047 0.94228 0.50388 0.0
C307 C 0.48098 0.95799 0.51202 0.0
C308 C 0.46717 0.00184 0.51415 0.0
C309 C 0.4663 0.01936 0.51423 0.0
C310 C 0.45057 0.02675 0.51464 0.0
C311 C 0.43539 0.01672 0.51516 0.0
C312 C 0.43635 0.99913 0.51546 0.0
C313 C 0.45212 0.99176 0.51502 0.0
C314 C 0.49629 0.99051 0.53477 0.0
C315 C 0.51346 0.9871 0.5366 0.0
C316 C 0.52063 0.98573 0.55283 0.0
C317 C 0.5107 0.9877 0.56757 0.0
C318 C 0.49333 0.99072 0.56566 0.0
C319 C 0.48618 0.99208 0.54937 0.0
P320 P 0.17893 0.32378 0.68094 0.0
H321 H 0.19238 0.35588 0.66761 0.0
H322 H 0.21498 0.37581 0.67737 0.0
H323 H 0.22568 0.34316 0.71944 0.0
H324 H 0.20281 0.32338 0.70985 0.0
H325 H 0.16583 0.30389 0.65205 0.0
H326 H 0.17685 0.28056 0.63586 0.0
H327 H 0.22043 0.28053 0.66956 0.0
H328 H 0.20956 0.30427 0.68534 0.0
H329 H 0.14781 0.33617 0.6953 0.0
H330 H 0.18211 0.29703 0.70631 0.0
O331 O 0.16662 0.33389 0.66743 0.0
H332 H 0.13038 0.32772 0.71971 0.0
H333 H 0.16512 0.28889 0.73129 0.0
C334 C 0.1958 0.3382 0.68809 0.0
C335 C 0.1995 0.35302 0.67899 0.0
C336 C 0.2124 0.36441 0.68457 0.0
C337 C 0.22201 0.36102 0.69918 0.0
C338 C 0.2185 0.34602 0.7081 0.0
C339 C 0.2054 0.33475 0.70265 0.0
C340 C 0.18704 0.30608 0.66968 0.0
C341 C 0.1778 0.29891 0.65593 0.0
C342 C 0.18404 0.28543 0.64677 0.0
C343 C 0.19958 0.27867 0.65135 0.0
C344 C 0.20859 0.28561 0.66548 0.0
C345 C 0.20235 0.29918 0.67457 0.0
C346 C 0.16609 0.31705 0.69883 0.0
C347 C 0.15159 0.32572 0.70299 0.0
C348 C 0.14172 0.32098 0.7171 0.0
C349 C 0.14634 0.30763 0.72756 0.0
C350 C 0.16102 0.29905 0.7234 0.0
C351 C 0.17081 0.30374 0.70915 0.0
P352 P 0.81063 0.19179 0.69267 0.0
H353 H 0.8259 0.21275 0.66596 0.0
H354 H 0.81575 0.23643 0.64977 0.0
H355 H 0.76962 0.23484 0.67966 0.0
H356 H 0.77982 0.21103 0.69569 0.0
H357 H 0.83866 0.17528 0.70857 0.0
H358 H 0.8575 0.18288 0.73249 0.0
H359 H 0.832 0.22935 0.73913 0.0
H360 H 0.81291 0.2214 0.71539 0.0
H361 H 0.78187 0.17581 0.67469 0.0
H362 H 0.80028 0.17901 0.72663 0.0
O363 O 0.82138 0.18044 0.67874 0.0
H364 H 0.7582 0.15699 0.68378 0.0
H365 H 0.77661 0.16035 0.73582 0.0
C366 C 0.80343 0.20991 0.6817 0.0
C367 C 0.81361 0.21753 0.66904 0.0
C368 C 0.80785 0.23115 0.65989 0.0
C369 C 0.79181 0.23743 0.66334 0.0
C370 C 0.7819 0.23009 0.67649 0.0
C371 C 0.78772 0.21651 0.68568 0.0
C372 C 0.82469 0.19796 0.70998 0.0
C373 C 0.83723 0.18716 0.71509 0.0
C374 C 0.84802 0.19155 0.72875 0.0
C375 C 0.8464 0.20682 0.73761 0.0
C376 C 0.83355 0.21748 0.73262 0.0
C377 C 0.82273 0.21303 0.71895 0.0
C378 C 0.79282 0.17879 0.69995 0.0
C379 C 0.78072 0.17256 0.68807 0.0
C380 C 0.76717 0.16189 0.69331 0.0
C381 C 0.76554 0.15717 0.71053 0.0
C382 C 0.77762 0.16361 0.72244 0.0
C383 C 0.79114 0.17435 0.71719 0.0
P384 P 0.56059 0.56983 0.57386 0.0
H385 H 0.55972 0.56532 0.61071 0.0
H386 H 0.53749 0.55541 0.63039 0.0
H387 H 0.50308 0.54668 0.58779 0.0
H388 H 0.52542 0.55687 0.56817 0.0
H389 H 0.59694 0.56786 0.56783 0.0
H390 H 0.61465 0.54483 0.55963 0.0
H391 H 0.57002 0.51113 0.55741 0.0
H392 H 0.55232 0.53441 0.56523 0.0
H393 H 0.5339 0.59368 0.57073 0.0
H394 H 0.56929 0.57007 0.5373 0.0
O395 O 0.57289 0.58398 0.58454 0.0
H396 H 0.52431 0.6106 0.54696 0.0
H397 H 0.55966 0.58683 0.51345 0.0
C398 C 0.54406 0.56221 0.58806 0.0
C399 C 0.54737 0.56134 0.60561 0.0
C400 C 0.53468 0.55552 0.61683 0.0
C401 C 0.51848 0.55031 0.61066 0.0
C402 C 0.51534 0.55086 0.59297 0.0
C403 C 0.52808 0.55666 0.58174 0.0
C404 C 0.57339 0.55275 0.56752 0.0
C405 C 0.59097 0.5555 0.56564 0.0
C406 C 0.60109 0.5423 0.56101 0.0
C407 C 0.59379 0.52606 0.55808 0.0
C408 C 0.57605 0.52347 0.55951 0.0
C409 C 0.56592 0.53674 0.56412 0.0
C410 C 0.55207 0.58039 0.55573 0.0
C411 C 0.53934 0.59187 0.55818 0.0
C412 C 0.53385 0.60152 0.54458 0.0
C413 C 0.5412 0.60003 0.5283 0.0
C414 C 0.55383 0.58834 0.52585 0.0
C415 C 0.55925 0.57865 0.53947 0.0
P416 P 0.55878 0.44701 0.94534 0.0
H417 H 0.58041 0.45117 0.97551 0.0
H418 H 0.59852 0.47461 0.98622 0.0
H419 H 0.58006 0.5061 0.94614 0.0
H420 H 0.56232 0.48239 0.93521 0.0
H421 H 0.56182 0.41078 0.94868 0.0
H422 H 0.55261 0.39075 0.97061 0.0
H423 H 0.53076 0.43085 0.99941 0.0
H424 H 0.53992 0.45086 0.97722 0.0
H425 H 0.54679 0.43604 0.91162 0.0
H426 H 0.53078 0.46929 0.95157 0.0
O427 O 0.57277 0.43795 0.93268 0.0
H428 H 0.5223 0.44288 0.89438 0.0
H429 H 0.5059 0.47601 0.93444 0.0
C430 C 0.56968 0.46514 0.95483 0.0
C431 C 0.57994 0.46322 0.96927 0.0
C432 C 0.59029 0.47668 0.97541 0.0
C433 C 0.59072 0.49229 0.96708 0.0
C434 C 0.58013 0.49423 0.95278 0.0
C435 C 0.56983 0.48073 0.94663 0.0
C436 C 0.55174 0.43232 0.96147 0.0
C437 C 0.5551 0.41529 0.95973 0.0
C438 C 0.54988 0.40385 0.97232 0.0
C439 C 0.54109 0.40923 0.98683 0.0
C440 C 0.53743 0.4263 0.98834 0.0
C441 C 0.54272 0.43775 0.97573 0.0
C442 C 0.54073 0.45238 0.93274 0.0
C443 C 0.538 0.44485 0.91668 0.0
C444 C 0.52388 0.44866 0.90689 0.0
C445 C 0.51212 0.45997 0.91305 0.0
C446 C 0.51483 0.4674 0.92926 0.0
C447 C 0.52899 0.46354 0.93908 0.0
P448 P 0.72309 0.24087 0.28105 0.0
H449 H 0.74799 0.24747 0.30804 0.0
H450 H 0.747 0.26261 0.33534 0.0
H451 H 0.69386 0.27101 0.32691 0.0
H452 H 0.69489 0.25585 0.29974 0.0
H453 H 0.73915 0.22019 0.25564 0.0
H454 H 0.75246 0.19313 0.25707 0.0
H455 H 0.7386 0.18905 0.31033 0.0
H456 H 0.72528 0.21615 0.30879 0.0
H457 H 0.70551 0.26588 0.26192 0.0
H458 H 0.6961 0.21426 0.27675 0.0
O459 O 0.73667 0.253 0.2697 0.0
H460 H 0.67802 0.26546 0.24737 0.0
H461 H 0.66845 0.21375 0.26223 0.0
C462 C 0.72154 0.25047 0.30187 0.0
C463 C 0.73608 0.25238 0.3122 0.0
C464 C 0.73548 0.26098 0.3278 0.0
C465 C 0.72036 0.26802 0.33323 0.0
C466 C 0.70573 0.26585 0.32297 0.0
C467 C 0.70631 0.25712 0.30744 0.0
C468 C 0.73161 0.22034 0.28219 0.0
C469 C 0.73892 0.21343 0.2676 0.0
C470 C 0.74642 0.19791 0.26841 0.0
C471 C 0.7467 0.18902 0.28386 0.0
C472 C 0.73882 0.19574 0.29833 0.0
C473 C 0.73121 0.21123 0.29746 0.0
C474 C 0.70296 0.24002 0.2701 0.0
C475 C 0.69755 0.25442 0.26195 0.0
C476 C 0.68177 0.25421 0.25377 0.0
C477 C 0.67108 0.23956 0.25363 0.0
C478 C 0.67651 0.22515 0.26194 0.0
C479 C 0.69229 0.22543 0.27024 0.0
P480 P 0.48119 0.0137 0.99063 0.0
H481 H 0.51618 0.0081 0.98094 0.0
H482 H 0.53134 0.0101 0.95382 0.0
H483 H 0.48595 0.02663 0.92922 0.0
H484 H 0.47076 0.02436 0.95648 0.0
H485 H 0.49784 0.02757 0.02143 0.0
H486 H 0.49706 0.05481 0.03577 0.0
H487 H 0.46328 0.07187 0.99662 0.0
H488 H 0.46432 0.04452 0.98217 0.0
H489 H 0.46595 0.9893 0.96621 0.0
H490 H 0.44991 0.01756 0.01003 0.0
O491 O 0.49146 0.0006 0.00308 0.0
H492 H 0.43772 0.97534 0.96419 0.0
H493 H 0.42185 0.00333 0.00844 0.0
C494 C 0.49226 0.01571 0.97061 0.0
C495 C 0.50947 0.01211 0.96971 0.0
C496 C 0.51817 0.01341 0.95422 0.0
C497 C 0.50983 0.01847 0.93933 0.0
C498 C 0.49265 0.02246 0.94039 0.0
C499 C 0.48397 0.02122 0.95595 0.0
C500 C 0.48104 0.03401 0.00081 0.0
C501 C 0.49028 0.03715 0.0159 0.0
C502 C 0.48975 0.05272 0.02414 0.0
C503 C 0.48 0.06547 0.01741 0.0
C504 C 0.47101 0.06236 0.00206 0.0
C505 C 0.47153 0.04674 0.99383 0.0
C506 C 0.45988 0.00485 0.98794 0.0
C507 C 0.45627 0.99272 0.97522 0.0
C508 C 0.44016 0.9846 0.9742 0.0
C509 C 0.42746 0.98825 0.98611 0.0
C510 C 0.43118 0.00047 0.99883 0.0
C511 C 0.44726 0.00861 0.99978 0.0
C512 C 0.20503 0.89446 0.01445 0.0
O513 O 0.20208 0.88381 0.00178 0.0
O514 O 0.2327 0.86507 0.99567 0.0
Zn515 Zn 0.2381 0.87909 0.01677 0.0
O516 O 0.25924 0.89373 0.0122 0.0
C517 C 0.25528 0.86449 0.04579 0.0
O518 O 0.26697 0.8764 0.04277 0.0
O519 O 0.21909 0.89433 0.02246 0.0
C520 C 0.27236 0.88779 0.00545 0.0
O521 O 0.27224 0.8717 0.0016 0.0
C522 C 0.2348 0.87134 0.98089 0.0
O523 O 0.23982 0.88724 0.97956 0.0
O524 O 0.24194 0.86345 0.03658 0.0
C525 C 0.14788 0.47766 0.27133 0.0
O526 O 0.15107 0.49246 0.27848 0.0
O527 O 0.10657 0.50005 0.27671 0.0
Zn528 Zn 0.12159 0.49589 0.25632 0.0
O529 O 0.13793 0.5156 0.25184 0.0
C530 C 0.09155 0.48868 0.23499 0.0
O531 O 0.08338 0.48797 0.2496 0.0
O532 O 0.13538 0.47577 0.26108 0.0
C533 C 0.13342 0.5305 0.2494 0.0
O534 O 0.11722 0.53369 0.25015 0.0
C535 C 0.11008 0.5111 0.28816 0.0
O536 O 0.12408 0.52064 0.28685 0.0
O537 O 0.10755 0.49167 0.235 0.0
C538 C 0.78071 0.59949 0.00513 0.0
O539 O 0.76813 0.59368 0.99538 0.0
O540 O 0.76449 0.6425 0.98672 0.0
Zn541 Zn 0.75977 0.62811 0.00735 0.0
O542 O 0.7388 0.61337 0.00257 0.0
C543 C 0.76334 0.65762 0.02859 0.0
O544 O 0.77461 0.66199 0.01688 0.0
O545 O 0.7799 0.61401 0.01186 0.0
C546 C 0.72988 0.60655 0.01436 0.0
O547 O 0.73446 0.60906 0.03037 0.0
C548 C 0.75299 0.65188 0.98146 0.0
O549 O 0.73832 0.6516 0.98944 0.0
O550 O 0.75553 0.64331 0.02747 0.0
C551 C 0.85081 0.04564 0.27941 0.0
O552 O 0.86304 0.04372 0.29057 0.0
O553 O 0.87687 0.01083 0.28543 0.0
Zn554 Zn 0.86278 0.01471 0.26429 0.0
O555 O 0.84688 0.99456 0.25951 0.0
C556 C 0.89338 0.02535 0.24654 0.0
O557 O 0.89802 0.03025 0.262 0.0
O558 O 0.8486 0.03496 0.26736 0.0
C559 C 0.85024 0.98346 0.24842 0.0
O560 O 0.86456 0.98499 0.23987 0.0
C561 C 0.87889 0.99624 0.29134 0.0
O562 O 0.87115 0.98318 0.28387 0.0
O563 O 0.87861 0.01855 0.24428 0.0
C564 C 0.27893 0.1024 0.5033 0.0
O565 O 0.26725 0.09722 0.4922 0.0
O566 O 0.26005 0.14238 0.48572 0.0
Zn567 Zn 0.25602 0.12899 0.50738 0.0
O568 O 0.23571 0.11262 0.50483 0.0
C569 C 0.24595 0.15893 0.52503 0.0
O570 O 0.24135 0.16308 0.50954 0.0
O571 O 0.27688 0.11588 0.51168 0.0
C572 C 0.22045 0.11656 0.50733 0.0
O573 O 0.21737 0.13203 0.51183 0.0
C574 C 0.24843 0.14573 0.47512 0.0
O575 O 0.23277 0.14004 0.47789 0.0
O576 O 0.25256 0.14485 0.52731 0.0
C577 C 0.34075 0.53588 0.77523 0.0
O578 O 0.33382 0.52167 0.78092 0.0
O579 O 0.38067 0.50922 0.78554 0.0
Zn580 Zn 0.36728 0.51439 0.76419 0.0
O581 O 0.34984 0.49584 0.75818 0.0
C582 C 0.39785 0.51159 0.74377 0.0
O583 O 0.40268 0.50237 0.75658 0.0
O584 O 0.35512 0.5358 0.76786 0.0
C585 C 0.35362 0.48259 0.75017 0.0
O586 O 0.36952 0.48053 0.74591 0.0
C587 C 0.38188 0.49445 0.79133 0.0
O588 O 0.37365 0.48182 0.78364 0.0
O589 O 0.38333 0.51791 0.74428 0.0
C590 C 0.70867 0.39638 0.51749 0.0
O591 O 0.70456 0.3832 0.5079 0.0
O592 O 0.73797 0.36928 0.49618 0.0
Zn593 Zn 0.74331 0.38413 0.51663 0.0
O594 O 0.76397 0.39909 0.51153 0.0
C595 C 0.73797 0.35807 0.54156 0.0
O596 O 0.7233 0.35606 0.53359 0.0
O597 O 0.72396 0.39885 0.52251 0.0
C598 C 0.77697 0.39316 0.50454 0.0
O599 O 0.77674 0.3771 0.50058 0.0
C600 C 0.73414 0.37523 0.48173 0.0
O601 O 0.73315 0.39156 0.48011 0.0
O602 O 0.74858 0.36953 0.53664 0.0
C603 C 0.63343 0.96557 0.76882 0.0
O604 O 0.62077 0.967 0.77954 0.0
O605 O 0.60612 0.99987 0.77421 0.0
Zn606 Zn 0.62199 0.99695 0.75432 0.0
O607 O 0.63838 0.01704 0.75283 0.0
C608 C 0.59441 0.98701 0.73114 0.0
O609 O 0.58781 0.97974 0.74477 0.0
O610 O 0.6359 0.97655 0.75727 0.0
C611 C 0.63446 0.03062 0.74572 0.0
O612 O 0.6191 0.03176 0.73937 0.0
C613 C 0.61166 0.0066 0.78804 0.0
O614 O 0.6278 0.01149 0.78915 0.0
O615 O 0.60878 0.9949 0.73231 0.0
C616 C 0.99867 0.22602 0.91045 0.0
O617 O 0.98515 0.23475 0.913 0.0
O618 O 0.98366 0.24296 0.86753 0.0
Zn619 Zn 0.00361 0.24927 0.88276 0.0
O620 O 0.99887 0.26981 0.89694 0.0
C621 C 0.02509 0.26815 0.85953 0.0
O622 O 0.01345 0.27923 0.86183 0.0
O623 O 0.00854 0.22994 0.89814 0.0
C624 C 0.0111 0.27881 0.90328 0.0
O625 O 0.02676 0.27438 0.90075 0.0
C626 C 0.96851 0.24706 0.87035 0.0
O627 O 0.96519 0.25569 0.88422 0.0
O628 O 0.02372 0.25425 0.8674 0.0
C629 C 0.49683 0.7249 0.40632 0.0
O630 O 0.48095 0.72904 0.40485 0.0
O631 O 0.48026 0.74552 0.36998 0.0
Zn632 Zn 0.50219 0.75206 0.38254 0.0
O633 O 0.49965 0.77295 0.39714 0.0
C634 C 0.51809 0.76164 0.35048 0.0
O635 O 0.5024 0.76479 0.34633 0.0
O636 O 0.50826 0.73303 0.3979 0.0
C637 C 0.50173 0.78767 0.39107 0.0
O638 O 0.50561 0.78949 0.37486 0.0
C639 C 0.46917 0.75599 0.3662 0.0
O640 O 0.4716 0.77176 0.37094 0.0
O641 O 0.52113 0.75606 0.36531 0.0
C642 C 0.99275 0.77855 0.60462 0.0
O643 O 0.98045 0.76747 0.60068 0.0
O644 O 0.97826 0.76059 0.6493 0.0
Zn645 Zn 0.99745 0.75627 0.63308 0.0
O646 O 0.99247 0.73576 0.6183 0.0
C647 C 0.01884 0.74651 0.6613 0.0
O648 O 0.00431 0.74132 0.66811 0.0
O649 O 0.00157 0.7764 0.61798 0.0
C650 C 0.98783 0.72156 0.62446 0.0
O651 O 0.98574 0.72016 0.64105 0.0
C652 C 0.96265 0.75729 0.64598 0.0
O653 O 0.95834 0.75046 0.63116 0.0
O654 O 0.01888 0.75314 0.64657 0.0
C655 C 0.4904 0.28197 0.1085 0.0
O656 O 0.47468 0.28026 0.11403 0.0
O657 O 0.47442 0.25659 0.14242 0.0
Zn658 Zn 0.49465 0.25143 0.12776 0.0
O659 O 0.48925 0.23129 0.11259 0.0
C660 C 0.51978 0.25737 0.15406 0.0
O661 O 0.51179 0.2714 0.15576 0.0
O662 O 0.50103 0.27125 0.11283 0.0
C663 C 0.48862 0.2165 0.11861 0.0
O664 O 0.49121 0.21444 0.13503 0.0
C665 C 0.47177 0.24935 0.15666 0.0
O666 O 0.4823 0.23812 0.16181 0.0
O667 O 0.51468 0.24672 0.14278 0.0
H668 H 0.24245 0.8022 0.83374 0.0
H669 H 0.24218 0.81824 0.86041 0.0
H670 H 0.21715 0.77599 0.8857 0.0
H671 H 0.21728 0.75984 0.85889 0.0
H672 H 0.20329 0.80476 0.89498 0.0
H673 H 0.2594 0.78508 0.89187 0.0
H674 H 0.28711 0.77991 0.87873 0.0
H675 H 0.29764 0.83305 0.87404 0.0
H676 H 0.26987 0.83854 0.88693 0.0
H677 H 0.22198 0.83881 0.97873 0.0
H678 H 0.22004 0.82076 0.95326 0.0
H679 H 0.24113 0.86146 0.92272 0.0
H680 H 0.24311 0.87957 0.94806 0.0
H681 H 0.257 0.83168 0.91742 0.0
H682 H 0.19983 0.85079 0.91999 0.0
H683 H 0.17224 0.85527 0.9337 0.0
H684 H 0.16411 0.80205 0.94044 0.0
H685 H 0.19178 0.79727 0.92697 0.0
C686 C 0.23701 0.79626 0.84501 0.0
C687 C 0.23005 0.77969 0.84426 0.0
C688 C 0.23684 0.80545 0.86025 0.0
C689 C 0.22991 0.79822 0.87514 0.0
C690 C 0.22261 0.7818 0.87437 0.0
C691 C 0.22268 0.7726 0.85906 0.0
C692 C 0.23038 0.80789 0.89144 0.0
C693 C 0.21507 0.81042 0.90004 0.0
C694 C 0.24572 0.81545 0.89794 0.0
C695 C 0.26248 0.81221 0.89023 0.0
C696 C 0.26756 0.79566 0.88792 0.0
C697 C 0.28329 0.79267 0.88053 0.0
C698 C 0.29411 0.80614 0.87552 0.0
C699 C 0.28924 0.82263 0.87791 0.0
C700 C 0.27351 0.82569 0.88527 0.0
C701 C 0.2261 0.84395 0.96657 0.0
C702 C 0.23271 0.86063 0.96542 0.0
C703 C 0.22493 0.83364 0.95203 0.0
C704 C 0.23039 0.83981 0.93611 0.0
C705 C 0.23686 0.85647 0.9349 0.0
C706 C 0.23792 0.86681 0.94939 0.0
C707 C 0.2299 0.82878 0.92075 0.0
C708 C 0.24524 0.82595 0.91238 0.0
C709 C 0.21462 0.82084 0.91459 0.0
C710 C 0.19796 0.82369 0.92264 0.0
C711 C 0.19223 0.84005 0.92453 0.0
C712 C 0.17656 0.84264 0.93223 0.0
C713 C 0.16645 0.82896 0.93799 0.0
C714 C 0.17197 0.81264 0.93601 0.0
C715 C 0.18764 0.80999 0.92833 0.0
H716 H 0.15432 0.83099 0.94394 0.0
H717 H 0.30628 0.8038 0.8698 0.0
H718 H 0.03004 0.54517 0.42699 0.0
H719 H 0.04553 0.5444 0.39994 0.0
H720 H 0.02738 0.49297 0.39187 0.0
H721 H 0.01222 0.49359 0.4191 0.0
H722 H 0.05959 0.49551 0.38548 0.0
H723 H 0.01198 0.52667 0.36873 0.0
H724 H 0.99165 0.54923 0.37034 0.0
H725 H 0.03241 0.58631 0.36365 0.0
H726 H 0.05303 0.56398 0.36223 0.0
H727 H 0.08419 0.48942 0.29838 0.0
H728 H 0.06641 0.49165 0.32382 0.0
H729 H 0.09247 0.53878 0.3371 0.0
H730 H 0.11047 0.53659 0.31176 0.0
H731 H 0.05608 0.53855 0.34026 0.0
H732 H 0.10351 0.5064 0.35747 0.0
H733 H 0.12307 0.48324 0.35496 0.0
H734 H 0.08111 0.44718 0.35982 0.0
H735 H 0.06126 0.47015 0.3621 0.0
C736 C 0.0292 0.53378 0.41932 0.0
C737 C 0.01995 0.51943 0.42514 0.0
C738 C 0.03803 0.53335 0.40385 0.0
C739 C 0.03751 0.51867 0.39375 0.0
C740 C 0.02803 0.50442 0.39945 0.0
C741 C 0.01937 0.50479 0.415 0.0
C742 C 0.04742 0.51789 0.37762 0.0
C743 C 0.05859 0.5048 0.37551 0.0
C744 C 0.04643 0.53018 0.3647 0.0
C745 C 0.03407 0.54365 0.36554 0.0
C746 C 0.01663 0.53964 0.36774 0.0
C747 C 0.00505 0.55239 0.36859 0.0
C748 C 0.01074 0.56919 0.36714 0.0
C749 C 0.02803 0.57329 0.36479 0.0
C750 C 0.03966 0.56059 0.36395 0.0
C751 C 0.0861 0.50031 0.30665 0.0
C752 C 0.09881 0.51279 0.30311 0.0
C753 C 0.07595 0.50154 0.32119 0.0
C754 C 0.07822 0.51533 0.33236 0.0
C755 C 0.09055 0.52805 0.32862 0.0
C756 C 0.10085 0.52673 0.31419 0.0
C757 C 0.06808 0.51619 0.34823 0.0
C758 C 0.05695 0.52928 0.35028 0.0
C759 C 0.06895 0.50381 0.36102 0.0
C760 C 0.08088 0.48999 0.35978 0.0
C761 C 0.09844 0.49353 0.35785 0.0
C762 C 0.10958 0.48044 0.3565 0.0
C763 C 0.10333 0.46375 0.35718 0.0
C764 C 0.08593 0.46012 0.35927 0.0
C765 C 0.07473 0.47317 0.36061 0.0
H766 H 0.11198 0.45363 0.35612 0.0
H767 H 0.00176 0.57905 0.3678 0.0
H768 H 0.81319 0.75029 0.86501 0.0
H769 H 0.80499 0.72851 0.88562 0.0
H770 H 0.75507 0.74827 0.88952 0.0
H771 H 0.76338 0.77046 0.86933 0.0
H772 H 0.76776 0.74213 0.9205 0.0
H773 H 0.76127 0.71182 0.86765 0.0
H774 H 0.76998 0.70138 0.8394 0.0
H775 H 0.8107 0.67573 0.8627 0.0
H776 H 0.80238 0.68621 0.89107 0.0
H777 H 0.73135 0.67392 0.96758 0.0
H778 H 0.73731 0.69406 0.94472 0.0
H779 H 0.78816 0.67667 0.94014 0.0
H780 H 0.78224 0.65631 0.96286 0.0
H781 H 0.77389 0.68137 0.90904 0.0
H782 H 0.78103 0.71255 0.96165 0.0
H783 H 0.77224 0.72277 0.98996 0.0
H784 H 0.73023 0.74674 0.96704 0.0
H785 H 0.73863 0.73644 0.9386 0.0
C786 C 0.80048 0.75004 0.87029 0.0
C787 C 0.78894 0.76213 0.86553 0.0
C788 C 0.79575 0.73748 0.88195 0.0
C789 C 0.77936 0.73666 0.889 0.0
C790 C 0.76777 0.74864 0.8842 0.0
C791 C 0.77249 0.76122 0.87255 0.0
C792 C 0.7745 0.72363 0.90178 0.0
C793 C 0.76884 0.72883 0.91789 0.0
C794 C 0.77627 0.7063 0.89851 0.0
C795 C 0.78128 0.69993 0.88147 0.0
C796 C 0.77216 0.70406 0.86673 0.0
C797 C 0.77702 0.69812 0.8507 0.0
C798 C 0.79091 0.68793 0.84925 0.0
C799 C 0.79995 0.68364 0.86384 0.0
C800 C 0.79516 0.68956 0.8799 0.0
C801 C 0.74378 0.67431 0.96167 0.0
C802 C 0.75635 0.66357 0.96711 0.0
C803 C 0.74718 0.68587 0.94863 0.0
C804 C 0.76325 0.687 0.94088 0.0
C805 C 0.77568 0.67601 0.94597 0.0
C806 C 0.77229 0.66443 0.959 0.0
C807 C 0.76723 0.6999 0.92773 0.0
C808 C 0.77274 0.69468 0.91158 0.0
C809 C 0.76533 0.71721 0.93095 0.0
C810 C 0.76037 0.72359 0.94801 0.0
C811 C 0.76985 0.7199 0.96266 0.0
C812 C 0.76495 0.72572 0.97872 0.0
C813 C 0.75067 0.73537 0.98029 0.0
C814 C 0.74128 0.73925 0.9658 0.0
C815 C 0.74611 0.73343 0.9497 0.0
H816 H 0.74692 0.73988 0.99273 0.0
H817 H 0.79465 0.68334 0.83683 0.0
H818 H 0.98254 0.94447 0.40389 0.0
H819 H 0.95937 0.95073 0.38454 0.0
H820 H 0.97786 0.0025 0.38234 0.0
H821 H 0.00092 0.99643 0.40212 0.0
H822 H 0.94269 0.99926 0.38434 0.0
H823 H 0.98731 0.9767 0.35082 0.0
H824 H 0.00845 0.95607 0.34316 0.0
H825 H 0.96859 0.91786 0.33665 0.0
H826 H 0.94723 0.93822 0.34451 0.0
H827 H 0.89957 0.02004 0.30747 0.0
H828 H 0.92033 0.01565 0.33007 0.0
H829 H 0.90558 0.9628 0.33061 0.0
H830 H 0.88504 0.96702 0.3078 0.0
H831 H 0.93904 0.96721 0.32973 0.0
H832 H 0.89425 0.98981 0.36299 0.0
H833 H 0.87312 0.01041 0.37077 0.0
H834 H 0.91302 0.04849 0.37776 0.0
H835 H 0.93438 0.02817 0.36979 0.0
C836 C 0.98152 0.95727 0.39957 0.0
C837 C 0.99361 0.96995 0.40451 0.0
C838 C 0.96834 0.96079 0.38839 0.0
C839 C 0.96704 0.97703 0.38184 0.0
C840 C 0.97869 0.98987 0.38721 0.0
C841 C 0.99192 0.98635 0.39839 0.0
C842 C 0.95394 0.98035 0.36881 0.0
C843 C 0.94198 0.99242 0.3723 0.0
C844 C 0.95287 0.97119 0.35326 0.0
C845 C 0.96569 0.95895 0.34842 0.0
C846 C 0.98307 0.96387 0.34788 0.0
C847 C 0.99509 0.95223 0.34348 0.0
C848 C 0.98987 0.93566 0.33946 0.0
C849 C 0.97262 0.9307 0.33979 0.0
C850 C 0.96054 0.94228 0.3442 0.0
C851 C 0.90064 0.0075 0.3125 0.0
C852 C 0.89067 0.99387 0.30581 0.0
C853 C 0.91247 0.00503 0.32548 0.0
C854 C 0.91443 0.98891 0.33214 0.0
C855 C 0.9043 0.97534 0.32566 0.0
C856 C 0.89253 0.97778 0.31264 0.0
C857 C 0.92758 0.98601 0.34528 0.0
C858 C 0.93965 0.97404 0.34178 0.0
C859 C 0.92871 0.99527 0.3608 0.0
C860 C 0.9159 0.00751 0.36563 0.0
C861 C 0.89851 0.00261 0.36605 0.0
C862 C 0.88649 0.01423 0.37052 0.0
C863 C 0.89172 0.03076 0.37471 0.0
C864 C 0.90899 0.03569 0.37449 0.0
C865 C 0.92105 0.02412 0.37001 0.0
H866 H 0.8824 0.03974 0.37817 0.0
H867 H 0.9992 0.92667 0.33606 0.0
H868 H 0.18214 0.25144 0.63702 0.0
H869 H 0.19317 0.23007 0.61815 0.0
H870 H 0.24382 0.25249 0.62404 0.0
H871 H 0.23273 0.27447 0.64224 0.0
H872 H 0.23815 0.2463 0.59209 0.0
H873 H 0.2318 0.21416 0.64259 0.0
H874 H 0.2175 0.20241 0.66815 0.0
H875 H 0.17982 0.17687 0.6364 0.0
H876 H 0.19375 0.18865 0.61065 0.0
H877 H 0.25572 0.15548 0.55846 0.0
H878 H 0.25124 0.17491 0.58227 0.0
H879 H 0.22516 0.20756 0.54835 0.0
H880 H 0.22988 0.18849 0.52453 0.0
H881 H 0.22352 0.18527 0.59711 0.0
H882 H 0.23238 0.24782 0.55933 0.0
H883 H 0.24937 0.25917 0.53523 0.0
H884 H 0.28724 0.22325 0.54448 0.0
H885 H 0.27061 0.21184 0.56878 0.0
C886 C 0.19563 0.25188 0.63428 0.0
C887 C 0.20652 0.26476 0.6411 0.0
C888 C 0.20196 0.23949 0.62365 0.0
C889 C 0.21937 0.23954 0.6198 0.0
C890 C 0.23034 0.25216 0.62687 0.0
C891 C 0.224 0.26464 0.63741 0.0
C892 C 0.22587 0.22704 0.60755 0.0
C893 C 0.23504 0.23295 0.59326 0.0
C894 C 0.22219 0.20956 0.60924 0.0
C895 C 0.21377 0.20239 0.62469 0.0
C896 C 0.2204 0.20613 0.64106 0.0
C897 C 0.21237 0.19945 0.65558 0.0
C898 C 0.19775 0.18892 0.6539 0.0
C899 C 0.19115 0.18503 0.63768 0.0
C900 C 0.19912 0.19169 0.62312 0.0
C901 C 0.24909 0.16684 0.55607 0.0
C902 C 0.24324 0.17048 0.53957 0.0
C903 C 0.24651 0.1779 0.5697 0.0
C904 C 0.23808 0.19281 0.56706 0.0
C905 C 0.23202 0.19632 0.55064 0.0
C906 C 0.23467 0.18534 0.53703 0.0
C907 C 0.23527 0.20463 0.58142 0.0
C908 C 0.22679 0.1986 0.59607 0.0
C909 C 0.23997 0.22197 0.58029 0.0
C910 C 0.25016 0.22889 0.5658 0.0
C911 C 0.24437 0.2424 0.55628 0.0
C912 C 0.25393 0.24883 0.54257 0.0
C913 C 0.26935 0.24191 0.5383 0.0
C914 C 0.27527 0.22857 0.54776 0.0
C915 C 0.26576 0.2221 0.56149 0.0
H916 H 0.27672 0.2469 0.52767 0.0
H917 H 0.19155 0.18376 0.66516 0.0
H918 H 0.48493 0.55795 0.61023 0.0
H919 H 0.463 0.55003 0.63115 0.0
H920 H 0.4994 0.52254 0.65961 0.0
H921 H 0.52125 0.52998 0.63847 0.0
H922 H 0.46884 0.50547 0.65784 0.0
H923 H 0.48965 0.56182 0.67187 0.0
H924 H 0.49653 0.59175 0.66604 0.0
H925 H 0.44417 0.59909 0.65412 0.0
H926 H 0.43702 0.56913 0.65966 0.0
H927 H 0.43003 0.50093 0.73928 0.0
H928 H 0.44898 0.50641 0.71511 0.0
H929 H 0.41042 0.53443 0.69044 0.0
H930 H 0.39145 0.52924 0.71474 0.0
H931 H 0.44058 0.55093 0.68886 0.0
H932 H 0.41934 0.49494 0.67655 0.0
H933 H 0.41243 0.46504 0.68247 0.0
H934 H 0.46526 0.4569 0.69109 0.0
H935 H 0.47247 0.48682 0.68545 0.0
C936 C 0.4882 0.54999 0.62079 0.0
C937 C 0.50487 0.54469 0.62276 0.0
C938 C 0.47569 0.5456 0.63282 0.0
C939 C 0.47963 0.53589 0.64707 0.0
C940 C 0.4961 0.53011 0.64875 0.0
C941 C 0.50861 0.53449 0.63674 0.0
C942 C 0.4668 0.53221 0.66055 0.0
C943 C 0.46276 0.5154 0.66474 0.0
C944 C 0.45857 0.54517 0.66925 0.0
C945 C 0.46284 0.5632 0.666 0.0
C946 C 0.47963 0.56979 0.66788 0.0
C947 C 0.48357 0.58676 0.66465 0.0
C948 C 0.4708 0.5973 0.65967 0.0
C949 C 0.45405 0.5909 0.65795 0.0
C950 C 0.45004 0.57393 0.66115 0.0
C951 C 0.42553 0.50821 0.7287 0.0
C952 C 0.40921 0.51463 0.72894 0.0
C953 C 0.43636 0.51126 0.71483 0.0
C954 C 0.43104 0.52065 0.70086 0.0
C955 C 0.41477 0.52711 0.70107 0.0
C956 C 0.40394 0.52411 0.71496 0.0
C957 C 0.44268 0.52417 0.68628 0.0
C958 C 0.44652 0.54097 0.68188 0.0
C959 C 0.45071 0.51119 0.67739 0.0
C960 C 0.44643 0.49316 0.68072 0.0
C961 C 0.42948 0.4868 0.67983 0.0
C962 C 0.42551 0.46984 0.68312 0.0
C963 C 0.43839 0.45908 0.68719 0.0
C964 C 0.45529 0.46526 0.68795 0.0
C965 C 0.45933 0.48221 0.68469 0.0
H966 H 0.4353 0.44596 0.68973 0.0
H967 H 0.47388 0.61044 0.65717 0.0
H968 H 0.75978 0.23966 0.6503 0.0
H969 H 0.74944 0.26122 0.63135 0.0
H970 H 0.79864 0.28739 0.63306 0.0
H971 H 0.80897 0.26607 0.65237 0.0
H972 H 0.77262 0.30907 0.635 0.0
H973 H 0.78823 0.26262 0.59967 0.0
H974 H 0.7878 0.23297 0.59036 0.0
H975 H 0.73411 0.23367 0.58094 0.0
H976 H 0.73418 0.26329 0.59044 0.0
H977 H 0.76753 0.35829 0.56 0.0
H978 H 0.77524 0.33875 0.58231 0.0
H979 H 0.7262 0.31264 0.57734 0.0
H980 H 0.71846 0.332 0.55483 0.0
H981 H 0.75108 0.29103 0.57778 0.0
H982 H 0.73564 0.33798 0.61189 0.0
H983 H 0.73614 0.36764 0.62118 0.0
H984 H 0.78935 0.36615 0.63285 0.0
H985 H 0.78922 0.33653 0.6234 0.0
C986 C 0.76832 0.25015 0.64688 0.0
C987 C 0.78523 0.25112 0.65277 0.0
C988 C 0.76243 0.26238 0.63594 0.0
C989 C 0.77334 0.27578 0.63063 0.0
C990 C 0.79004 0.27711 0.63695 0.0
C991 C 0.79596 0.26486 0.64787 0.0
C992 C 0.76753 0.28806 0.61799 0.0
C993 C 0.76807 0.30517 0.62242 0.0
C994 C 0.76124 0.2829 0.60173 0.0
C995 C 0.76118 0.26511 0.59594 0.0
C996 C 0.77631 0.25641 0.59575 0.0
C997 C 0.77614 0.23962 0.59041 0.0
C998 C 0.76093 0.23143 0.5851 0.0
C999 C 0.74587 0.24003 0.58508 0.0
C1000 C 0.74597 0.25682 0.59043 0.0
C1001 C 0.75833 0.34846 0.56372 0.0
C1002 C 0.74237 0.3467 0.55562 0.0
C1003 C 0.76273 0.33734 0.57654 0.0
C1004 C 0.75123 0.32433 0.58162 0.0
C1005 C 0.73526 0.32261 0.57364 0.0
C1006 C 0.73085 0.33371 0.5608 0.0
C1007 C 0.75615 0.3121 0.59475 0.0
C1008 C 0.7555 0.29496 0.5904 0.0
C1009 C 0.76233 0.31726 0.61107 0.0
C1010 C 0.76245 0.33507 0.61679 0.0
C1011 C 0.74748 0.34401 0.6163 0.0
C1012 C 0.74769 0.36081 0.62162 0.0
C1013 C 0.76278 0.36879 0.62756 0.0
C1014 C 0.77767 0.35996 0.62823 0.0
C1015 C 0.77754 0.34316 0.62291 0.0
H1016 H 0.76291 0.3818 0.63167 0.0
H1017 H 0.76082 0.21843 0.58097 0.0
H1018 H 0.5415 0.00141 0.57792 0.0
H1019 H 0.55474 0.99975 0.60604 0.0
H1020 H 0.51096 0.9708 0.6245 0.0
H1021 H 0.49762 0.97232 0.59627 0.0
H1022 H 0.52149 0.99499 0.64725 0.0
H1023 H 0.54715 0.95156 0.61536 0.0
H1024 H 0.56206 0.93921 0.59097 0.0
H1025 H 0.60517 0.9732 0.59988 0.0
H1026 H 0.59042 0.98593 0.62419 0.0
H1027 H 0.56326 0.97169 0.72412 0.0
H1028 H 0.54817 0.97059 0.69673 0.0
H1029 H 0.58955 0.9995 0.67347 0.0
H1030 H 0.60478 0.0005 0.70068 0.0
H1031 H 0.57916 0.97326 0.65354 0.0
H1032 H 0.55285 0.01767 0.68436 0.0
H1033 H 0.53789 0.03021 0.70862 0.0
H1034 H 0.49598 0.9943 0.70168 0.0
H1035 H 0.51081 0.9814 0.67751 0.0
C1036 C 0.53474 0.99453 0.5879 0.0
C1037 C 0.51856 0.98687 0.58481 0.0
C1038 C 0.54232 0.99363 0.60398 0.0
C1039 C 0.53394 0.98495 0.6173 0.0
C1040 C 0.51766 0.97754 0.61439 0.0
C1041 C 0.51004 0.97846 0.59827 0.0
C1042 C 0.54223 0.98374 0.63426 0.0
C1043 C 0.53397 0.98998 0.64869 0.0
C1044 C 0.55866 0.97747 0.63607 0.0
C1045 C 0.56761 0.96979 0.62151 0.0
C1046 C 0.55976 0.95648 0.61204 0.0
C1047 C 0.56819 0.9494 0.59824 0.0
C1048 C 0.58454 0.95544 0.59386 0.0
C1049 C 0.5925 0.96855 0.60329 0.0
C1050 C 0.58412 0.97569 0.61709 0.0
C1051 C 0.56915 0.97781 0.71317 0.0
C1052 C 0.58521 0.98621 0.7146 0.0
C1053 C 0.56048 0.97722 0.69754 0.0
C1054 C 0.56767 0.98509 0.68309 0.0
C1055 C 0.58377 0.99333 0.68445 0.0
C1056 C 0.59243 0.99393 0.70005 0.0
C1057 C 0.55852 0.98473 0.66649 0.0
C1058 C 0.56662 0.97817 0.65213 0.0
C1059 C 0.54196 0.99069 0.66475 0.0
C1060 C 0.53302 0.99845 0.67926 0.0
C1061 C 0.54051 0.01236 0.6881 0.0
C1062 C 0.53204 0.01955 0.70181 0.0
C1063 C 0.51602 0.01302 0.70672 0.0
C1064 C 0.50841 0.99932 0.69789 0.0
C1065 C 0.51683 0.99207 0.68418 0.0
H1066 H 0.50948 0.01861 0.71734 0.0
H1067 H 0.59105 0.94994 0.58317 0.0
H1068 H 0.88063 0.20278 0.73941 0.0
H1069 H 0.89976 0.20951 0.76333 0.0
H1070 H 0.85809 0.2285 0.79215 0.0
H1071 H 0.83874 0.22159 0.76829 0.0
H1072 H 0.88694 0.24921 0.7945 0.0
H1073 H 0.87202 0.19075 0.80148 0.0
H1074 H 0.86804 0.1611 0.79246 0.0
H1075 H 0.92133 0.15949 0.78144 0.0
H1076 H 0.92559 0.18922 0.79016 0.0
H1077 H 0.93467 0.25349 0.87227 0.0
H1078 H 0.91254 0.24662 0.851 0.0
H1079 H 0.94956 0.22402 0.81864 0.0
H1080 H 0.97164 0.23056 0.83989 0.0
H1081 H 0.92102 0.20479 0.8198 0.0
H1082 H 0.93569 0.2635 0.81085 0.0
H1083 H 0.93989 0.29329 0.81931 0.0
H1084 H 0.88736 0.29452 0.83364 0.0
H1085 H 0.8829 0.26465 0.82547 0.0
C1086 C 0.87547 0.20825 0.75088 0.0
C1087 C 0.85811 0.21151 0.75199 0.0
C1088 C 0.88644 0.21213 0.76452 0.0
C1089 C 0.8803 0.21929 0.7796 0.0
C1090 C 0.86307 0.22295 0.78063 0.0
C1091 C 0.85206 0.21905 0.76697 0.0
C1092 C 0.89193 0.22286 0.79424 0.0
C1093 C 0.89418 0.23946 0.80024 0.0
C1094 C 0.90159 0.21018 0.80151 0.0
C1095 C 0.89909 0.19226 0.79635 0.0
C1096 C 0.88287 0.18411 0.79702 0.0
C1097 C 0.88056 0.16728 0.79197 0.0
C1098 C 0.89441 0.15843 0.78635 0.0
C1099 C 0.91061 0.16637 0.78579 0.0
C1100 C 0.91298 0.1832 0.7908 0.0
C1101 C 0.93809 0.24702 0.86065 0.0
C1102 C 0.95494 0.24262 0.85776 0.0
C1103 C 0.92544 0.24316 0.84847 0.0
C1104 C 0.92943 0.23497 0.83314 0.0
C1105 C 0.94618 0.23035 0.83037 0.0
C1106 C 0.9588 0.23414 0.84253 0.0
C1107 C 0.91626 0.2312 0.81989 0.0
C1108 C 0.91368 0.21453 0.81416 0.0
C1109 C 0.90635 0.24383 0.81285 0.0
C1110 C 0.90901 0.26179 0.81773 0.0
C1111 C 0.92507 0.27008 0.81594 0.0
C1112 C 0.92749 0.28699 0.82065 0.0
C1113 C 0.91391 0.29578 0.82706 0.0
C1114 C 0.89787 0.28768 0.82871 0.0
C1115 C 0.89539 0.27077 0.82403 0.0
H1116 H 0.91581 0.30887 0.8307 0.0
H1117 H 0.8926 0.1454 0.78245 0.0
H1118 H 0.47778 0.93301 0.45332 0.0
H1119 H 0.47948 0.90603 0.43879 0.0
H1120 H 0.49419 0.8832 0.48607 0.0
H1121 H 0.49366 0.91045 0.50049 0.0
H1122 H 0.51316 0.87256 0.46196 0.0
H1123 H 0.4534 0.87649 0.46794 0.0
H1124 H 0.42562 0.8894 0.46611 0.0
H1125 H 0.43007 0.89179 0.41149 0.0
H1126 H 0.458 0.87911 0.413 0.0
H1127 H 0.50047 0.78941 0.42602 0.0
H1128 H 0.49659 0.81441 0.44381 0.0
H1129 H 0.49322 0.84456 0.3985 0.0
H1130 H 0.49732 0.81975 0.38065 0.0
H1131 H 0.46731 0.84971 0.42358 0.0
H1132 H 0.52851 0.84697 0.41905 0.0
H1133 H 0.55572 0.83313 0.42191 0.0
H1134 H 0.54712 0.82709 0.47574 0.0
H1135 H 0.51973 0.84069 0.47314 0.0
C1136 C 0.48154 0.92231 0.46064 0.0
C1137 C 0.48563 0.924 0.47811 0.0
C1138 C 0.48225 0.90679 0.45235 0.0
C1139 C 0.48669 0.89246 0.46137 0.0
C1140 C 0.49064 0.89403 0.47883 0.0
C1141 C 0.49015 0.90962 0.48711 0.0
C1142 C 0.48787 0.87603 0.45238 0.0
C1143 C 0.50297 0.86744 0.45383 0.0
C1144 C 0.47469 0.86936 0.44159 0.0
C1145 C 0.45787 0.87697 0.4406 0.0
C1146 C 0.44852 0.87988 0.45554 0.0
C1147 C 0.43273 0.88714 0.45456 0.0
C1148 C 0.4261 0.89144 0.43869 0.0
C1149 C 0.43523 0.88846 0.42377 0.0
C1150 C 0.45103 0.88122 0.42468 0.0
C1151 C 0.49889 0.80136 0.41986 0.0
C1152 C 0.49925 0.80263 0.40194 0.0
C1153 C 0.49671 0.81561 0.43003 0.0
C1154 C 0.49466 0.8313 0.42243 0.0
C1155 C 0.49476 0.83254 0.40457 0.0
C1156 C 0.49718 0.81837 0.39441 0.0
C1157 C 0.4926 0.84652 0.43306 0.0
C1158 C 0.47735 0.85483 0.43188 0.0
C1159 C 0.50551 0.85279 0.44429 0.0
C1160 C 0.52199 0.84466 0.44586 0.0
C1161 C 0.53235 0.84255 0.43146 0.0
C1162 C 0.54782 0.83478 0.43305 0.0
C1163 C 0.55312 0.82919 0.44899 0.0
C1164 C 0.54298 0.8314 0.46339 0.0
C1165 C 0.52749 0.83915 0.46187 0.0
H1166 H 0.5651 0.82318 0.45019 0.0
H1167 H 0.41388 0.89706 0.43796 0.0
H1168 H 0.13029 0.3283 0.74984 0.0
H1169 H 0.11164 0.32028 0.77348 0.0
H1170 H 0.1205 0.26801 0.76393 0.0
H1171 H 0.13841 0.27589 0.73953 0.0
H1172 H 0.08832 0.27135 0.76894 0.0
H1173 H 0.13835 0.29018 0.79898 0.0
H1174 H 0.16269 0.30933 0.80677 0.0
H1175 H 0.12854 0.34686 0.82265 0.0
H1176 H 0.10398 0.32801 0.81472 0.0
H1177 H 0.04731 0.24596 0.84658 0.0
H1178 H 0.06986 0.25161 0.82561 0.0
H1179 H 0.05758 0.30377 0.82445 0.0
H1180 H 0.03493 0.29823 0.8453 0.0
H1181 H 0.09301 0.29854 0.82612 0.0
H1182 H 0.0432 0.27946 0.79373 0.0
H1183 H 0.01935 0.25953 0.78636 0.0
H1184 H 0.05444 0.22118 0.7757 0.0
H1185 H 0.0785 0.24084 0.78324 0.0
C1186 C 0.12819 0.31507 0.75264 0.0
C1187 C 0.13582 0.30274 0.74268 0.0
C1188 C 0.1177 0.31051 0.76636 0.0
C1189 C 0.11484 0.29354 0.77068 0.0
C1190 C 0.12258 0.28119 0.7609 0.0
C1191 C 0.13295 0.28574 0.74704 0.0
C1192 C 0.10315 0.28871 0.78489 0.0
C1193 C 0.08958 0.27707 0.78153 0.0
C1194 C 0.10458 0.29634 0.80129 0.0
C1195 C 0.11932 0.30772 0.80612 0.0
C1196 C 0.13602 0.30256 0.80401 0.0
C1197 C 0.14986 0.31336 0.80848 0.0
C1198 C 0.14716 0.32931 0.81517 0.0
C1199 C 0.13061 0.3345 0.81745 0.0
C1200 C 0.11672 0.32375 0.81299 0.0
C1201 C 0.04947 0.25866 0.84195 0.0
C1202 C 0.03928 0.27164 0.84752 0.0
C1203 C 0.06233 0.26185 0.82995 0.0
C1204 C 0.06529 0.27808 0.82343 0.0
C1205 C 0.05547 0.29116 0.82934 0.0
C1206 C 0.0425 0.28795 0.84119 0.0
C1207 C 0.07823 0.28138 0.81002 0.0
C1208 C 0.09196 0.29273 0.81356 0.0
C1209 C 0.07708 0.27335 0.79385 0.0
C1210 C 0.06263 0.26156 0.78924 0.0
C1211 C 0.04582 0.26674 0.78996 0.0
C1212 C 0.03227 0.2555 0.78572 0.0
C1213 C 0.03537 0.23908 0.78062 0.0
C1214 C 0.05205 0.23389 0.77969 0.0
C1215 C 0.06565 0.24508 0.78393 0.0
H1216 H 0.02486 0.2304 0.77734 0.0
H1217 H 0.15789 0.33766 0.81861 0.0
H1218 H 0.56222 0.61664 0.50566 0.0
H1219 H 0.55451 0.6366 0.48373 0.0
H1220 H 0.50168 0.62937 0.4975 0.0
H1221 H 0.50927 0.60906 0.51926 0.0
H1222 H 0.50623 0.63068 0.46258 0.0
H1223 H 0.52387 0.66301 0.51211 0.0
H1224 H 0.54323 0.67196 0.53561 0.0
H1225 H 0.58153 0.68746 0.49928 0.0
H1226 H 0.56247 0.67836 0.47555 0.0
H1227 H 0.47546 0.70471 0.42559 0.0
H1228 H 0.48307 0.68239 0.44503 0.0
H1229 H 0.53601 0.69145 0.43251 0.0
H1230 H 0.52854 0.71393 0.41317 0.0
H1231 H 0.53157 0.68883 0.46641 0.0
H1232 H 0.51373 0.65714 0.41677 0.0
H1233 H 0.49442 0.6481 0.39326 0.0
H1234 H 0.45659 0.63141 0.42957 0.0
H1235 H 0.47558 0.64056 0.45332 0.0
C1236 C 0.54893 0.61907 0.50384 0.0
C1237 C 0.53635 0.6113 0.51424 0.0
C1238 C 0.54456 0.6306 0.4914 0.0
C1239 C 0.52755 0.63462 0.48914 0.0
C1240 C 0.51489 0.62648 0.49909 0.0
C1241 C 0.51926 0.61499 0.51159 0.0
C1242 C 0.52305 0.64774 0.47678 0.0
C1243 C 0.5116 0.64345 0.46352 0.0
C1244 C 0.53035 0.66429 0.47782 0.0
C1245 C 0.54181 0.66984 0.49206 0.0
C1246 C 0.53647 0.66819 0.50913 0.0
C1247 C 0.54738 0.67332 0.5225 0.0
C1248 C 0.56362 0.68023 0.51894 0.0
C1249 C 0.56896 0.68208 0.50201 0.0
C1250 C 0.5581 0.67695 0.4886 0.0
C1251 C 0.48872 0.70193 0.42692 0.0
C1252 C 0.50139 0.71111 0.41782 0.0
C1253 C 0.49304 0.68911 0.43798 0.0
C1254 C 0.5101 0.68514 0.4401 0.0
C1255 C 0.52277 0.69429 0.43104 0.0
C1256 C 0.51847 0.70711 0.41997 0.0
C1257 C 0.51477 0.67179 0.45214 0.0
C1258 C 0.52623 0.67605 0.4654 0.0
C1259 C 0.50748 0.65522 0.45108 0.0
C1260 C 0.49602 0.64969 0.43683 0.0
C1261 C 0.50123 0.65167 0.41975 0.0
C1262 C 0.49036 0.6465 0.40638 0.0
C1263 C 0.47427 0.63923 0.40992 0.0
C1264 C 0.46904 0.63707 0.42685 0.0
C1265 C 0.47987 0.64223 0.44027 0.0
H1266 H 0.46587 0.63523 0.39955 0.0
H1267 H 0.57204 0.68419 0.5293 0.0
H1268 H 0.87747 0.80899 0.77261 0.0
H1269 H 0.89629 0.80058 0.74969 0.0
H1270 H 0.85324 0.7791 0.72162 0.0
H1271 H 0.83425 0.78748 0.74464 0.0
H1272 H 0.87947 0.75868 0.72057 0.0
H1273 H 0.8717 0.81672 0.70995 0.0
H1274 H 0.87091 0.8469 0.71696 0.0
H1275 H 0.92406 0.84837 0.72951 0.0
H1276 H 0.92512 0.81812 0.72282 0.0
H1277 H 0.92814 0.75125 0.64363 0.0
H1278 H 0.90654 0.75873 0.66444 0.0
H1279 H 0.94575 0.78015 0.69767 0.0
H1280 H 0.96737 0.77285 0.67696 0.0
H1281 H 0.91957 0.80083 0.69421 0.0
H1282 H 0.92662 0.7422 0.70614 0.0
H1283 H 0.92713 0.71204 0.69894 0.0
H1284 H 0.87484 0.7119 0.68324 0.0
H1285 H 0.87409 0.74214 0.69014 0.0
C1286 C 0.87197 0.80261 0.7615 0.0
C1287 C 0.85434 0.79905 0.76037 0.0
C1288 C 0.88275 0.79779 0.74841 0.0
C1289 C 0.87615 0.78946 0.7338 0.0
C1290 C 0.8586 0.78556 0.73276 0.0
C1291 C 0.84778 0.79032 0.74593 0.0
C1292 C 0.88766 0.78485 0.7197 0.0
C1293 C 0.88803 0.76794 0.71459 0.0
C1294 C 0.89901 0.79689 0.71206 0.0
C1295 C 0.89845 0.81512 0.71601 0.0
C1296 C 0.88319 0.82345 0.71433 0.0
C1297 C 0.8827 0.84057 0.71822 0.0
C1298 C 0.89741 0.84954 0.72371 0.0
C1299 C 0.91267 0.8414 0.72527 0.0
C1300 C 0.91323 0.82427 0.72141 0.0
C1301 C 0.93217 0.75752 0.65538 0.0
C1302 C 0.94949 0.76145 0.65862 0.0
C1303 C 0.91981 0.76173 0.66728 0.0
C1304 C 0.92455 0.76991 0.68265 0.0
C1305 C 0.94181 0.77387 0.68588 0.0
C1306 C 0.95416 0.76963 0.67404 0.0
C1307 C 0.91158 0.77463 0.69531 0.0
C1308 C 0.91091 0.79159 0.7001 0.0
C1309 C 0.89993 0.76265 0.70258 0.0
C1310 C 0.90035 0.74447 0.69848 0.0
C1311 C 0.91527 0.73577 0.70102 0.0
C1312 C 0.9156 0.71866 0.69702 0.0
C1313 C 0.90104 0.71007 0.69059 0.0
C1314 C 0.88612 0.71858 0.68819 0.0
C1315 C 0.88573 0.7357 0.69216 0.0
H1316 H 0.90132 0.69682 0.6875 0.0
H1317 H 0.89701 0.86279 0.72672 0.0
H1318 H 0.01314 0.88502 0.48346 0.0
H1319 H 0.00486 0.86415 0.50501 0.0
H1320 H 0.04409 0.88466 0.53876 0.0
H1321 H 0.05273 0.90534 0.51706 0.0
H1322 H 0.04415 0.8507 0.53695 0.0
H1323 H 0.00292 0.89197 0.54642 0.0
H1324 H 0.98061 0.91115 0.5384 0.0
H1325 H 0.94873 0.86921 0.52101 0.0
H1326 H 0.97096 0.84979 0.5287 0.0
H1327 H 0.01696 0.80394 0.60938 0.0
H1328 H 0.0242 0.82725 0.59021 0.0
H1329 H 0.98509 0.8092 0.55506 0.0
H1330 H 0.97756 0.78597 0.57429 0.0
H1331 H 0.98514 0.84285 0.55857 0.0
H1332 H 0.02671 0.80179 0.54776 0.0
H1333 H 0.04903 0.78249 0.5554 0.0
H1334 H 0.08026 0.82395 0.57496 0.0
H1335 H 0.05801 0.84349 0.56764 0.0
C1336 C 0.02005 0.88505 0.49545 0.0
C1337 C 0.03362 0.89681 0.49855 0.0
C1338 C 0.0152 0.87323 0.50781 0.0
C1339 C 0.02376 0.87296 0.52355 0.0
C1340 C 0.03728 0.88469 0.52672 0.0
C1341 C 0.04211 0.89657 0.51436 0.0
C1342 C 0.01894 0.86005 0.53646 0.0
C1343 C 0.03131 0.84916 0.5419 0.0
C1344 C 0.0021 0.8578 0.54259 0.0
C1345 C 0.98867 0.86944 0.53799 0.0
C1346 C 0.99121 0.88685 0.54075 0.0
C1347 C 0.97856 0.89776 0.53629 0.0
C1348 C 0.96328 0.8914 0.52916 0.0
C1349 C 0.96059 0.87412 0.52652 0.0
C1350 C 0.9732 0.86315 0.53094 0.0
C1351 C 0.00984 0.80495 0.5976 0.0
C1352 C 0.99674 0.79303 0.59332 0.0
C1353 C 0.01405 0.81826 0.58663 0.0
C1354 C 0.00534 0.81984 0.57109 0.0
C1355 C 0.99199 0.8082 0.56697 0.0
C1356 C 0.98774 0.7949 0.57796 0.0
C1357 C 0.01033 0.83345 0.559 0.0
C1358 C 0.99799 0.84446 0.55369 0.0
C1359 C 0.0272 0.83579 0.55295 0.0
C1360 C 0.04062 0.82408 0.55732 0.0
C1361 C 0.03828 0.80678 0.55382 0.0
C1362 C 0.05093 0.7958 0.55806 0.0
C1363 C 0.06604 0.80198 0.5657 0.0
C1364 C 0.06854 0.81918 0.56907 0.0
C1365 C 0.05592 0.83021 0.56486 0.0
H1366 H 0.07582 0.79346 0.56898 0.0
H1367 H 0.9535 0.89987 0.52572 0.0
H1368 H 0.17102 0.75349 0.71899 0.0
H1369 H 0.14337 0.75352 0.70487 0.0
H1370 H 0.12022 0.72779 0.74785 0.0
H1371 H 0.14797 0.72771 0.76211 0.0
H1372 H 0.10823 0.7148 0.71787 0.0
H1373 H 0.11592 0.76953 0.74295 0.0
H1374 H 0.131 0.79667 0.74942 0.0
H1375 H 0.13169 0.80882 0.69605 0.0
H1376 H 0.11682 0.78163 0.68922 0.0
H1377 H 0.02346 0.73239 0.69268 0.0
H1378 H 0.05012 0.73058 0.70853 0.0
H1379 H 0.07732 0.75537 0.66733 0.0
H1380 H 0.05076 0.75736 0.65146 0.0
H1381 H 0.08637 0.76876 0.69809 0.0
H1382 H 0.07939 0.7134 0.67313 0.0
H1383 H 0.06421 0.68624 0.66692 0.0
H1384 H 0.06179 0.67544 0.72056 0.0
H1385 H 0.07676 0.70265 0.72711 0.0
C1386 C 0.16003 0.74793 0.7255 0.0
C1387 C 0.16165 0.74076 0.74175 0.0
C1388 C 0.14424 0.74793 0.7174 0.0
C1389 C 0.12968 0.7409 0.72543 0.0
C1390 C 0.13129 0.73332 0.74145 0.0
C1391 C 0.14715 0.73326 0.74956 0.0
C1392 C 0.1128 0.74166 0.71707 0.0
C1393 C 0.10331 0.72662 0.71378 0.0
C1394 C 0.10652 0.75706 0.7115 0.0
C1395 C 0.11538 0.77347 0.71557 0.0
C1396 C 0.1194 0.77793 0.73258 0.0
C1397 C 0.12789 0.79333 0.73631 0.0
C1398 C 0.13234 0.80444 0.72315 0.0
C1399 C 0.12826 0.80019 0.70623 0.0
C1400 C 0.11978 0.7848 0.70242 0.0
C1401 C 0.03512 0.73741 0.68696 0.0
C1402 C 0.03498 0.74502 0.6708 0.0
C1403 C 0.05035 0.73631 0.69602 0.0
C1404 C 0.06572 0.74273 0.68905 0.0
C1405 C 0.0656 0.75033 0.67294 0.0
C1406 C 0.05041 0.75142 0.66387 0.0
C1407 C 0.08191 0.74189 0.69867 0.0
C1408 C 0.09125 0.75694 0.70224 0.0
C1409 C 0.08799 0.72652 0.70454 0.0
C1410 C 0.07903 0.71014 0.70062 0.0
C1411 C 0.07549 0.70529 0.68361 0.0
C1412 C 0.06695 0.68988 0.68003 0.0
C1413 C 0.06199 0.67914 0.69334 0.0
C1414 C 0.06561 0.68378 0.71026 0.0
C1415 C 0.07414 0.69919 0.71392 0.0
H1416 H 0.05538 0.66722 0.69054 0.0
H1417 H 0.13892 0.81636 0.72607 0.0
H1418 H 0.97448 0.57534 0.55532 0.0
H1419 H 0.974 0.60163 0.57148 0.0
H1420 H 0.98815 0.62937 0.52614 0.0
H1421 H 0.98872 0.60301 0.50986 0.0
H1422 H 0.00647 0.64052 0.55283 0.0
H1423 H 0.94735 0.62901 0.54176 0.0
H1424 H 0.92035 0.61203 0.54103 0.0
H1425 H 0.92163 0.60755 0.59566 0.0
H1426 H 0.94877 0.6243 0.59671 0.0
H1427 H 0.99157 0.72013 0.58972 0.0
H1428 H 0.98922 0.69526 0.57125 0.0
H1429 H 0.97696 0.66435 0.61496 0.0
H1430 H 0.97907 0.6892 0.63352 0.0
H1431 H 0.9569 0.65571 0.58776 0.0
H1432 H 0.0168 0.66605 0.59842 0.0
H1433 H 0.0438 0.68305 0.59903 0.0
H1434 H 0.04079 0.68987 0.54473 0.0
H1435 H 0.01365 0.67308 0.54385 0.0
C1436 C 0.97727 0.58704 0.54872 0.0
C1437 C 0.98154 0.58709 0.53128 0.0
C1438 C 0.977 0.60208 0.55799 0.0
C1439 C 0.9808 0.61751 0.54998 0.0
C1440 C 0.98515 0.61761 0.53258 0.0
C1441 C 0.9855 0.60255 0.52331 0.0
C1442 C 0.98071 0.63346 0.55992 0.0
C1443 C 0.99552 0.64398 0.56023 0.0
C1444 C 0.96655 0.63782 0.56986 0.0
C1445 C 0.95018 0.6278 0.56929 0.0
C1446 C 0.94194 0.6243 0.55361 0.0
C1447 C 0.9266 0.61473 0.55314 0.0
C1448 C 0.9193 0.60868 0.56828 0.0
C1449 C 0.92731 0.61223 0.58394 0.0
C1450 C 0.94266 0.62177 0.58448 0.0
C1451 C 0.98829 0.70806 0.59542 0.0
C1452 C 0.98562 0.70664 0.61313 0.0
C1453 C 0.98701 0.69385 0.58483 0.0
C1454 C 0.98314 0.67792 0.59176 0.0
C1455 C 0.98 0.67652 0.60935 0.0
C1456 C 0.98126 0.69073 0.61995 0.0
C1457 C 0.98269 0.66266 0.58074 0.0
C1458 C 0.96779 0.65228 0.58025 0.0
C1459 C 0.99675 0.65844 0.57059 0.0
C1460 C 0.01311 0.66846 0.5711 0.0
C1461 C 0.02183 0.67128 0.58663 0.0
C1462 C 0.03717 0.68086 0.58702 0.0
C1463 C 0.04398 0.68758 0.57194 0.0
C1464 C 0.03549 0.68468 0.55642 0.0
C1465 C 0.02014 0.67513 0.55596 0.0
H1466 H 0.05586 0.69499 0.57226 0.0
H1467 H 0.90742 0.60128 0.56789 0.0
H1468 H 0.72573 0.87282 0.23015 0.0
H1469 H 0.74773 0.89332 0.24016 0.0
H1470 H 0.77795 0.88322 0.19567 0.0
H1471 H 0.7561 0.8625 0.18571 0.0
H1472 H 0.79722 0.88617 0.2255 0.0
H1473 H 0.75468 0.91663 0.19598 0.0
H1474 H 0.72557 0.92524 0.1902 0.0
H1475 H 0.72217 0.94476 0.24132 0.0
H1476 H 0.75119 0.93604 0.24748 0.0
H1477 H 0.85204 0.95932 0.22356 0.0
H1478 H 0.83144 0.93619 0.21737 0.0
H1479 H 0.80043 0.95173 0.25948 0.0
H1480 H 0.8208 0.97514 0.26553 0.0
H1481 H 0.78139 0.9454 0.23235 0.0
H1482 H 0.82426 0.91642 0.26177 0.0
H1483 H 0.85323 0.90766 0.26799 0.0
H1484 H 0.85603 0.8852 0.21808 0.0
H1485 H 0.82716 0.89403 0.21146 0.0
C1486 C 0.73718 0.87477 0.22264 0.0
C1487 C 0.73915 0.86612 0.20709 0.0
C1488 C 0.74968 0.88656 0.22831 0.0
C1489 C 0.76437 0.8899 0.21856 0.0
C1490 C 0.76667 0.88085 0.20336 0.0
C1491 C 0.75414 0.86913 0.19762 0.0
C1492 C 0.777 0.90334 0.22381 0.0
C1493 C 0.79384 0.89916 0.22685 0.0
C1494 C 0.77244 0.92019 0.22596 0.0
C1495 C 0.75503 0.92552 0.22225 0.0
C1496 C 0.74767 0.92263 0.20603 0.0
C1497 C 0.7312 0.92756 0.20268 0.0
C1498 C 0.72201 0.9355 0.2154 0.0
C1499 C 0.72929 0.93858 0.23149 0.0
C1500 C 0.74575 0.93366 0.23491 0.0
C1501 C 0.84088 0.95778 0.23157 0.0
C1502 C 0.83806 0.96909 0.24504 0.0
C1503 C 0.82915 0.94448 0.22807 0.0
C1504 C 0.81448 0.94209 0.23809 0.0
C1505 C 0.81167 0.95332 0.25159 0.0
C1506 C 0.82334 0.96668 0.25505 0.0
C1507 C 0.80172 0.92829 0.23404 0.0
C1508 C 0.78482 0.93241 0.23116 0.0
C1509 C 0.80623 0.91138 0.23213 0.0
C1510 C 0.8236 0.90602 0.23607 0.0
C1511 C 0.8311 0.90973 0.25207 0.0
C1512 C 0.8475 0.90473 0.25567 0.0
C1513 C 0.85648 0.89592 0.24342 0.0
C1514 C 0.84907 0.89205 0.22755 0.0
C1515 C 0.83268 0.89703 0.22387 0.0
H1516 H 0.86917 0.89206 0.24624 0.0
H1517 H 0.70926 0.9393 0.21278 0.0
H1518 H 0.76829 0.17958 0.30904 0.0
H1519 H 0.78496 0.15445 0.30981 0.0
H1520 H 0.76282 0.13774 0.2618 0.0
H1521 H 0.74588 0.16273 0.26109 0.0
H1522 H 0.76512 0.11184 0.285 0.0
H1523 H 0.8012 0.15667 0.26207 0.0
H1524 H 0.81553 0.18488 0.26206 0.0
H1525 H 0.84167 0.17357 0.30849 0.0
H1526 H 0.82729 0.14537 0.30891 0.0
H1527 H 0.82483 0.05354 0.25812 0.0
H1528 H 0.80639 0.07721 0.26052 0.0
H1529 H 0.8327 0.09383 0.30648 0.0
H1530 H 0.85141 0.07029 0.30402 0.0
H1531 H 0.82801 0.11964 0.28578 0.0
H1532 H 0.79305 0.07441 0.30828 0.0
H1533 H 0.77871 0.04623 0.30858 0.0
H1534 H 0.75043 0.05809 0.26364 0.0
H1535 H 0.76479 0.08628 0.26292 0.0
C1536 C 0.76676 0.17042 0.29879 0.0
C1537 C 0.75583 0.17317 0.28496 0.0
C1538 C 0.77639 0.15614 0.29918 0.0
C1539 C 0.77527 0.14434 0.28576 0.0
C1540 C 0.76391 0.14673 0.27225 0.0
C1541 C 0.75434 0.16106 0.2718 0.0
C1542 C 0.78639 0.12984 0.28548 0.0
C1543 C 0.77887 0.11352 0.28499 0.0
C1544 C 0.80432 0.13206 0.28589 0.0
C1545 C 0.81303 0.14898 0.28562 0.0
C1546 C 0.8099 0.16025 0.27236 0.0
C1547 C 0.81804 0.17623 0.27226 0.0
C1548 C 0.82946 0.18103 0.28529 0.0
C1549 C 0.8328 0.16985 0.29842 0.0
C1550 C 0.82466 0.15386 0.29859 0.0
C1551 C 0.8267 0.0622 0.26876 0.0
C1552 C 0.83959 0.05999 0.2809 0.0
C1553 C 0.81607 0.07569 0.27017 0.0
C1554 C 0.818 0.08717 0.28381 0.0
C1555 C 0.83094 0.08509 0.29587 0.0
C1556 C 0.84161 0.07161 0.29446 0.0
C1557 C 0.80677 0.10157 0.28524 0.0
C1558 C 0.81427 0.1179 0.2859 0.0
C1559 C 0.78882 0.09934 0.28505 0.0
C1560 C 0.78012 0.08241 0.28545 0.0
C1561 C 0.78388 0.07097 0.29838 0.0
C1562 C 0.77572 0.055 0.29864 0.0
C1563 C 0.76369 0.05035 0.28611 0.0
C1564 C 0.75976 0.06169 0.27332 0.0
C1565 C 0.76789 0.07768 0.27299 0.0
H1566 H 0.75739 0.03798 0.28634 0.0
H1567 H 0.83576 0.1934 0.2852 0.0
H1568 H 0.39592 0.00031 0.99196 0.0
H1569 H 0.36874 0.98422 0.99367 0.0
H1570 H 0.39385 0.93875 0.98134 0.0
H1571 H 0.42109 0.95465 0.97988 0.0
H1572 H 0.36342 0.94082 0.96419 0.0
H1573 H 0.38452 0.94739 0.02193 0.0
H1574 H 0.39533 0.96351 0.04703 0.0
H1575 H 0.34917 0.99005 0.04907 0.0
H1576 H 0.33819 0.97424 0.02381 0.0
H1577 H 0.30315 0.87874 0.99323 0.0
H1578 H 0.3285 0.89689 0.98833 0.0
H1579 H 0.30156 0.93993 0.00508 0.0
H1580 H 0.27622 0.9218 0.01035 0.0
H1581 H 0.33209 0.94041 0.01915 0.0
H1582 H 0.31011 0.93312 0.96253 0.0
H1583 H 0.29909 0.91739 0.93727 0.0
H1584 H 0.34626 0.89286 0.9327 0.0
H1585 H 0.35749 0.90827 0.95808 0.0
C1586 C 0.39567 0.98688 0.98965 0.0
C1587 C 0.41072 0.97877 0.98588 0.0
C1588 C 0.38012 0.97772 0.99057 0.0
C1589 C 0.37932 0.96027 0.9878 0.0
C1590 C 0.39419 0.95222 0.98348 0.0
C1591 C 0.40975 0.96135 0.9826 0.0
C1592 C 0.36312 0.95027 0.99003 0.0
C1593 C 0.35663 0.94059 0.97624 0.0
C1594 C 0.35407 0.95033 0.00563 0.0
C1595 C 0.36061 0.95976 0.02088 0.0
C1596 C 0.37673 0.95675 0.02765 0.0
C1597 C 0.38288 0.96582 0.04192 0.0
C1598 C 0.37296 0.97783 0.04961 0.0
C1599 C 0.35685 0.98076 0.04308 0.0
C1600 C 0.35065 0.97175 0.0288 0.0
C1601 C 0.30258 0.89207 0.99583 0.0
C1602 C 0.28765 0.89882 0.00218 0.0
C1603 C 0.31707 0.90246 0.99293 0.0
C1604 C 0.31688 0.91982 0.99612 0.0
C1605 C 0.302 0.92658 0.00249 0.0
C1606 C 0.28752 0.9162 0.00547 0.0
C1607 C 0.33236 0.93083 0.99333 0.0
C1608 C 0.33876 0.94071 0.00703 0.0
C1609 C 0.34127 0.931 0.97762 0.0
C1610 C 0.33458 0.92174 0.96231 0.0
C1611 C 0.31809 0.92427 0.95622 0.0
C1612 C 0.31181 0.91543 0.94187 0.0
C1613 C 0.32196 0.90411 0.93341 0.0
C1614 C 0.33841 0.90163 0.93927 0.0
C1615 C 0.34474 0.91042 0.95363 0.0
H1616 H 0.31707 0.89727 0.9223 0.0
H1617 H 0.37774 0.98484 0.06065 0.0
H1618 H 0.23909 0.34622 0.28801 0.0
H1619 H 0.217 0.3659 0.28161 0.0
H1620 H 0.24477 0.4047 0.3103 0.0
H1621 H 0.26686 0.3852 0.31665 0.0
H1622 H 0.21156 0.40366 0.3183 0.0
H1623 H 0.24511 0.40393 0.26662 0.0
H1624 H 0.25853 0.391 0.24163 0.0
H1625 H 0.20962 0.3723 0.22365 0.0
H1626 H 0.19593 0.38494 0.24866 0.0
H1627 H 0.1765 0.47839 0.29107 0.0
H1628 H 0.19503 0.45543 0.29681 0.0
H1629 H 0.1629 0.42201 0.26581 0.0
H1630 H 0.14438 0.4451 0.25971 0.0
H1631 H 0.19578 0.41801 0.25893 0.0
H1632 H 0.16189 0.41957 0.30932 0.0
H1633 H 0.14834 0.43264 0.33415 0.0
H1634 H 0.19741 0.44758 0.35465 0.0
H1635 H 0.21127 0.43482 0.32982 0.0
C1636 C 0.24055 0.35898 0.29283 0.0
C1637 C 0.25472 0.36413 0.30288 0.0
C1638 C 0.2279 0.37021 0.28919 0.0
C1639 C 0.22928 0.3868 0.29542 0.0
C1640 C 0.24339 0.39193 0.30545 0.0
C1641 C 0.25599 0.38075 0.30911 0.0
C1642 C 0.21607 0.39893 0.2916 0.0
C1643 C 0.20821 0.40691 0.30532 0.0
C1644 C 0.21131 0.40276 0.27466 0.0
C1645 C 0.21952 0.39521 0.2596 0.0
C1646 C 0.23724 0.39694 0.25741 0.0
C1647 C 0.24489 0.38969 0.24323 0.0
C1648 C 0.23494 0.38079 0.23109 0.0
C1649 C 0.21731 0.37917 0.23308 0.0
C1650 C 0.2096 0.38638 0.24725 0.0
C1651 C 0.17331 0.46616 0.28549 0.0
C1652 C 0.15892 0.46357 0.27498 0.0
C1653 C 0.18389 0.45301 0.28886 0.0
C1654 C 0.18022 0.43692 0.28195 0.0
C1655 C 0.16594 0.4343 0.27133 0.0
C1656 C 0.15535 0.4475 0.26789 0.0
C1657 C 0.19153 0.423 0.28565 0.0
C1658 C 0.199 0.41465 0.27192 0.0
C1659 C 0.1959 0.41878 0.30259 0.0
C1660 C 0.18762 0.42634 0.31763 0.0
C1661 C 0.1698 0.42574 0.31907 0.0
C1662 C 0.16206 0.43308 0.33315 0.0
C1663 C 0.17201 0.44096 0.34595 0.0
C1664 C 0.18972 0.44148 0.34472 0.0
C1665 C 0.19753 0.43418 0.33065 0.0
H1666 H 0.16599 0.44665 0.35684 0.0
H1667 H 0.24089 0.37518 0.22012 0.0
H1668 H 0.08766 0.02325 0.46418 0.0
H1669 H 0.1078 0.04559 0.47376 0.0
H1670 H 0.14415 0.00871 0.48628 0.0
H1671 H 0.12369 0.98626 0.47784 0.0
H1672 H 0.14532 0.0318 0.50965 0.0
H1673 H 0.14591 0.0322 0.44825 0.0
H1674 H 0.13359 0.03362 0.41932 0.0
H1675 H 0.11577 0.08259 0.43058 0.0
H1676 H 0.12781 0.08136 0.45967 0.0
H1677 H 0.2222 0.08249 0.50444 0.0
H1678 H 0.19881 0.06179 0.49905 0.0
H1679 H 0.16339 0.10141 0.49808 0.0
H1680 H 0.18668 0.12222 0.50369 0.0
H1681 H 0.16055 0.07838 0.46995 0.0
H1682 H 0.16265 0.07796 0.53128 0.0
H1683 H 0.17653 0.07595 0.55941 0.0
H1684 H 0.19118 0.02605 0.54712 0.0
H1685 H 0.17759 0.02786 0.51879 0.0
C1686 C 0.09981 0.01984 0.46926 0.0
C1687 C 0.10406 0.00289 0.47006 0.0
C1688 C 0.11142 0.03267 0.47453 0.0
C1689 C 0.12765 0.02888 0.48041 0.0
C1690 C 0.13176 0.01199 0.48168 0.0
C1691 C 0.12009 0.99914 0.47663 0.0
C1692 C 0.14052 0.04246 0.48495 0.0
C1693 C 0.14874 0.04188 0.50088 0.0
C1694 C 0.14481 0.05583 0.47367 0.0
C1695 C 0.13759 0.05661 0.45619 0.0
C1696 C 0.13925 0.04321 0.44459 0.0
C1697 C 0.13234 0.04399 0.42817 0.0
C1698 C 0.12386 0.05816 0.42313 0.0
C1699 C 0.12231 0.07161 0.43451 0.0
C1700 C 0.12919 0.07088 0.45096 0.0
C1701 C 0.20943 0.0868 0.50316 0.0
C1702 C 0.20628 0.10399 0.5045 0.0
C1703 C 0.19608 0.07496 0.50014 0.0
C1704 C 0.17939 0.08009 0.49826 0.0
C1705 C 0.17619 0.09722 0.49953 0.0
C1706 C 0.1895 0.10907 0.50279 0.0
C1707 C 0.16537 0.06756 0.4945 0.0
C1708 C 0.15698 0.06834 0.47873 0.0
C1709 C 0.16111 0.05426 0.50579 0.0
C1710 C 0.16923 0.05311 0.52285 0.0
C1711 C 0.16896 0.06661 0.53451 0.0
C1712 C 0.17675 0.0655 0.55051 0.0
C1713 C 0.18477 0.0509 0.55503 0.0
C1714 C 0.18497 0.03736 0.54359 0.0
C1715 C 0.17722 0.03842 0.52757 0.0
H1716 H 0.19079 0.05006 0.56743 0.0
H1717 H 0.11852 0.05874 0.41041 0.0
H1718 H 0.73206 0.15659 0.70097 0.0
H1719 H 0.70949 0.13587 0.70868 0.0
H1720 H 0.74486 0.11005 0.74006 0.0
H1721 H 0.76757 0.1305 0.73209 0.0
H1722 H 0.72665 0.08856 0.71942 0.0
H1723 H 0.71495 0.13329 0.75829 0.0
H1724 H 0.70935 0.1624 0.7667 0.0
H1725 H 0.66437 0.16061 0.73551 0.0
H1726 H 0.66983 0.13155 0.72671 0.0
H1727 H 0.6667 0.03284 0.75881 0.0
H1728 H 0.68848 0.05523 0.75447 0.0
H1729 H 0.65343 0.0823 0.72388 0.0
H1730 H 0.63143 0.06008 0.72843 0.0
H1731 H 0.67157 0.10333 0.74478 0.0
H1732 H 0.68369 0.0592 0.70511 0.0
H1733 H 0.68922 0.03017 0.69633 0.0
H1734 H 0.73342 0.03101 0.7286 0.0
H1735 H 0.72802 0.05998 0.73775 0.0
C1736 C 0.73502 0.14649 0.7095 0.0
C1737 C 0.7516 0.14518 0.71592 0.0
C1738 C 0.72209 0.13475 0.71401 0.0
C1739 C 0.72547 0.1215 0.72505 0.0
C1740 C 0.74197 0.12022 0.73157 0.0
C1741 C 0.7549 0.13198 0.7271 0.0
C1742 C 0.71197 0.10859 0.72927 0.0
C1743 C 0.71471 0.09176 0.72522 0.0
C1744 C 0.69623 0.11284 0.73641 0.0
C1745 C 0.69289 0.1303 0.74171 0.0
C1746 C 0.70394 0.13915 0.7531 0.0
C1747 C 0.70078 0.15563 0.75797 0.0
C1748 C 0.68654 0.16336 0.75161 0.0
C1749 C 0.67541 0.15461 0.74041 0.0
C1750 C 0.67852 0.13813 0.73549 0.0
C1751 C 0.66357 0.04359 0.75123 0.0
C1752 C 0.64736 0.04461 0.74384 0.0
C1753 C 0.67606 0.05636 0.74871 0.0
C1754 C 0.67267 0.07031 0.73862 0.0
C1755 C 0.65634 0.07162 0.73167 0.0
C1756 C 0.6438 0.05888 0.73424 0.0
C1757 C 0.68627 0.0833 0.73495 0.0
C1758 C 0.68354 0.10014 0.73905 0.0
C1759 C 0.70202 0.07908 0.72779 0.0
C1760 C 0.70535 0.06169 0.72224 0.0
C1761 C 0.69452 0.05315 0.71043 0.0
C1762 C 0.69764 0.03671 0.70537 0.0
C1763 C 0.71164 0.02874 0.71193 0.0
C1764 C 0.72257 0.0372 0.72354 0.0
C1765 C 0.7195 0.05363 0.72865 0.0
H1766 H 0.71403 0.01601 0.708 0.0
H1767 H 0.68411 0.17612 0.75539 0.0
H1768 H 0.42636 0.04498 0.53248 0.0
H1769 H 0.3993 0.05869 0.53123 0.0
H1770 H 0.3793 0.01992 0.49695 0.0
H1771 H 0.40655 0.00647 0.49762 0.0
H1772 H 0.37211 0.05023 0.48566 0.0
H1773 H 0.36717 0.02138 0.53914 0.0
H1774 H 0.37616 0.01319 0.56799 0.0
H1775 H 0.37622 0.06469 0.58459 0.0
H1776 H 0.36745 0.07323 0.55576 0.0
H1777 H 0.28628 0.07234 0.48869 0.0
H1778 H 0.31227 0.0571 0.49171 0.0
H1779 H 0.33293 0.09572 0.52581 0.0
H1780 H 0.3068 0.11092 0.52311 0.0
H1781 H 0.33954 0.0651 0.53738 0.0
H1782 H 0.3452 0.09404 0.4839 0.0
H1783 H 0.3364 0.10242 0.45504 0.0
H1784 H 0.33521 0.05087 0.43847 0.0
H1785 H 0.34379 0.04216 0.46731 0.0
C1786 C 0.41624 0.0394 0.52461 0.0
C1787 C 0.41864 0.02462 0.51513 0.0
C1788 C 0.4007 0.04716 0.52405 0.0
C1789 C 0.3872 0.04024 0.51414 0.0
C1790 C 0.38952 0.02545 0.50474 0.0
C1791 C 0.40506 0.0177 0.50526 0.0
C1792 C 0.37085 0.04873 0.51311 0.0
C1793 C 0.36485 0.05324 0.49696 0.0
C1794 C 0.3616 0.05306 0.52788 0.0
C1795 C 0.36681 0.04796 0.54524 0.0
C1796 C 0.36923 0.03098 0.54891 0.0
C1797 C 0.37426 0.02627 0.56526 0.0
C1798 C 0.3768 0.03842 0.5781 0.0
C1799 C 0.37427 0.0553 0.57462 0.0
C1800 C 0.36925 0.06007 0.55828 0.0
C1801 C 0.29632 0.07759 0.49687 0.0
C1802 C 0.2945 0.09291 0.50558 0.0
C1803 C 0.31121 0.06888 0.49854 0.0
C1804 C 0.32466 0.07539 0.50879 0.0
C1805 C 0.32273 0.09048 0.5178 0.0
C1806 C 0.3078 0.09917 0.51621 0.0
C1807 C 0.34081 0.06656 0.50993 0.0
C1808 C 0.34677 0.06203 0.52609 0.0
C1809 C 0.35006 0.06222 0.49517 0.0
C1810 C 0.34498 0.06744 0.47781 0.0
C1811 C 0.34294 0.08448 0.47413 0.0
C1812 C 0.33802 0.08929 0.45778 0.0
C1813 C 0.33521 0.07718 0.44495 0.0
C1814 C 0.33737 0.06023 0.44843 0.0
C1815 C 0.34228 0.05535 0.46477 0.0
H1816 H 0.33139 0.08092 0.43229 0.0
H1817 H 0.3807 0.03475 0.59076 0.0
H1818 H 0.58776 0.50072 0.53454 0.0
H1819 H 0.60618 0.47779 0.52735 0.0
H1820 H 0.64296 0.4966 0.56457 0.0
H1821 H 0.6246 0.51938 0.57196 0.0
H1822 H 0.65775 0.4895 0.53436 0.0
H1823 H 0.61748 0.462 0.57258 0.0
H1824 H 0.58886 0.45287 0.58257 0.0
H1825 H 0.57985 0.42527 0.53582 0.0
H1826 H 0.60835 0.43444 0.52545 0.0
H1827 H 0.71186 0.42234 0.54042 0.0
H1828 H 0.69127 0.44341 0.54683 0.0
H1829 H 0.65605 0.41977 0.51072 0.0
H1830 H 0.67648 0.39832 0.50454 0.0
H1831 H 0.63967 0.42916 0.53859 0.0
H1832 H 0.67978 0.45572 0.50046 0.0
H1833 H 0.70819 0.46487 0.4899 0.0
H1834 H 0.71715 0.49442 0.53542 0.0
H1835 H 0.68888 0.48527 0.54637 0.0
C1836 C 0.59968 0.49986 0.54133 0.0
C1837 C 0.60473 0.51192 0.55379 0.0
C1838 C 0.6102 0.48676 0.53718 0.0
C1839 C 0.6259 0.48544 0.54548 0.0
C1840 C 0.63093 0.49742 0.55795 0.0
C1841 C 0.62044 0.51048 0.5621 0.0
C1842 C 0.63734 0.47182 0.541 0.0
C1843 C 0.65386 0.4763 0.53547 0.0
C1844 C 0.63208 0.45461 0.54192 0.0
C1845 C 0.61497 0.44905 0.54817 0.0
C1846 C 0.60934 0.4541 0.56438 0.0
C1847 C 0.59315 0.4489 0.57012 0.0
C1848 C 0.58252 0.43854 0.55982 0.0
C1849 C 0.58808 0.43332 0.54377 0.0
C1850 C 0.60426 0.4385 0.53796 0.0
C1851 C 0.69972 0.42157 0.53386 0.0
C1852 C 0.69586 0.40872 0.52187 0.0
C1853 C 0.68798 0.43368 0.53749 0.0
C1854 C 0.67223 0.43338 0.52901 0.0
C1855 C 0.66815 0.4203 0.51736 0.0
C1856 C 0.67985 0.40807 0.51383 0.0
C1857 C 0.66018 0.44684 0.5322 0.0
C1858 C 0.64354 0.44235 0.53741 0.0
C1859 C 0.66529 0.46408 0.53088 0.0
C1860 C 0.68226 0.46969 0.52429 0.0
C1861 C 0.68786 0.46408 0.50827 0.0
C1862 C 0.70393 0.46928 0.50221 0.0
C1863 C 0.71449 0.48019 0.512 0.0
C1864 C 0.70897 0.48596 0.52786 0.0
C1865 C 0.69291 0.48078 0.53399 0.0
H1866 H 0.72693 0.4842 0.50728 0.0
H1867 H 0.56999 0.43452 0.56429 0.0
H1868 H 0.70649 0.29847 0.33779 0.0
H1869 H 0.70737 0.31616 0.36351 0.0
H1870 H 0.73469 0.27866 0.3902 0.0
H1871 H 0.73374 0.26081 0.3645 0.0
H1872 H 0.70849 0.29249 0.40975 0.0
H1873 H 0.75638 0.31108 0.37537 0.0
H1874 H 0.77043 0.32111 0.34897 0.0
H1875 H 0.74023 0.36459 0.34915 0.0
H1876 H 0.72581 0.35468 0.37543 0.0
H1877 H 0.74056 0.34189 0.47933 0.0
H1878 H 0.73674 0.32342 0.45446 0.0
H1879 H 0.71703 0.36422 0.42567 0.0
H1880 H 0.72132 0.38293 0.45038 0.0
H1881 H 0.73858 0.34857 0.40698 0.0
H1882 H 0.69096 0.33093 0.44134 0.0
H1883 H 0.67611 0.32111 0.46738 0.0
H1884 H 0.70438 0.27633 0.46701 0.0
H1885 H 0.71958 0.28599 0.44108 0.0
C1886 C 0.71248 0.29389 0.34921 0.0
C1887 C 0.72008 0.27827 0.34914 0.0
C1888 C 0.71307 0.30405 0.36384 0.0
C1889 C 0.72122 0.29876 0.37869 0.0
C1890 C 0.72837 0.28296 0.37884 0.0
C1891 C 0.72792 0.27285 0.36415 0.0
C1892 C 0.72276 0.30997 0.39386 0.0
C1893 C 0.71523 0.30468 0.40924 0.0
C1894 C 0.73117 0.32603 0.39301 0.0
C1895 C 0.7399 0.33205 0.37727 0.0
C1896 C 0.75264 0.32271 0.3697 0.0
C1897 C 0.76069 0.32838 0.35477 0.0
C1898 C 0.75619 0.34345 0.34736 0.0
C1899 C 0.74368 0.3529 0.35489 0.0
C1900 C 0.73557 0.34727 0.36981 0.0
C1901 C 0.73532 0.34692 0.46774 0.0
C1902 C 0.73122 0.36388 0.46684 0.0
C1903 C 0.73306 0.33631 0.45354 0.0
C1904 C 0.72636 0.34234 0.43824 0.0
C1905 C 0.7222 0.35927 0.43734 0.0
C1906 C 0.72463 0.36994 0.45149 0.0
C1907 C 0.72427 0.33117 0.42301 0.0
C1908 C 0.73175 0.33643 0.40756 0.0
C1909 C 0.71567 0.31515 0.42379 0.0
C1910 C 0.70652 0.30927 0.43935 0.0
C1911 C 0.6941 0.31905 0.44688 0.0
C1912 C 0.68561 0.3135 0.46161 0.0
C1913 C 0.68933 0.29813 0.46887 0.0
C1914 C 0.70153 0.28825 0.46138 0.0
C1915 C 0.71007 0.29375 0.44666 0.0
H1916 H 0.68274 0.29385 0.48027 0.0
H1917 H 0.76244 0.34782 0.3358 0.0
H1918 H 0.49815 0.00765 0.90796 0.0
H1919 H 0.51394 0.00713 0.88108 0.0
H1920 H 0.55812 0.02975 0.90642 0.0
H1921 H 0.54228 0.03074 0.93323 0.0
H1922 H 0.55361 0.04323 0.8751 0.0
H1923 H 0.55479 0.98784 0.89926 0.0
H1924 H 0.54222 0.96148 0.91109 0.0
H1925 H 0.51513 0.95164 0.86411 0.0
H1926 H 0.52737 0.97808 0.85209 0.0
H1927 H 0.61943 0.02095 0.81908 0.0
H1928 H 0.60058 0.02423 0.84348 0.0
H1929 H 0.55902 0.0006 0.81481 0.0
H1930 H 0.57787 0.99707 0.79035 0.0
H1931 H 0.56057 0.98813 0.8466 0.0
H1932 H 0.56089 0.04276 0.82173 0.0
H1933 H 0.57369 0.06904 0.80996 0.0
H1934 H 0.59807 0.08033 0.8581 0.0
H1935 H 0.58561 0.05399 0.8701 0.0
C1936 C 0.51114 0.01276 0.90775 0.0
C1937 C 0.519 0.01914 0.92276 0.0
C1938 C 0.52019 0.01232 0.89241 0.0
C1939 C 0.53727 0.01819 0.89181 0.0
C1940 C 0.54497 0.02509 0.90662 0.0
C1941 C 0.53594 0.02552 0.92195 0.0
C1942 C 0.54735 0.01664 0.87592 0.0
C1943 C 0.55527 0.03117 0.86894 0.0
C1944 C 0.54917 0.00095 0.86767 0.0
C1945 C 0.54185 0.98502 0.87485 0.0
C1946 C 0.54604 0.98012 0.89151 0.0
C1947 C 0.539 0.96516 0.89823 0.0
C1948 C 0.52784 0.95491 0.88838 0.0
C1949 C 0.52375 0.9596 0.87175 0.0
C1950 C 0.53074 0.97457 0.86497 0.0
C1951 C 0.60628 0.01648 0.81792 0.0
C1952 C 0.60016 0.00877 0.80275 0.0
C1953 C 0.59549 0.01845 0.83186 0.0
C1954 C 0.57834 0.01284 0.8309 0.0
C1955 C 0.5722 0.00506 0.81581 0.0
C1956 C 0.58299 0.00309 0.80184 0.0
C1957 C 0.56696 0.0147 0.84583 0.0
C1958 C 0.55881 0.00022 0.85265 0.0
C1959 C 0.56495 0.03043 0.85393 0.0
C1960 C 0.57243 0.04632 0.84677 0.0
C1961 C 0.56909 0.05078 0.82977 0.0
C1962 C 0.57627 0.0657 0.82306 0.0
C1963 C 0.58672 0.07633 0.83326 0.0
C1964 C 0.58999 0.07207 0.85021 0.0
C1965 C 0.58285 0.05716 0.85697 0.0
H1966 H 0.59226 0.08787 0.82804 0.0
H1967 H 0.5224 0.94333 0.8936 0.0
H1968 H 0.26169 0.2642 0.36305 0.0
H1969 H 0.25266 0.24095 0.3816 0.0
H1970 H 0.30472 0.22708 0.38654 0.0
H1971 H 0.31374 0.2497 0.36726 0.0
H1972 H 0.28487 0.19988 0.38366 0.0
H1973 H 0.28472 0.2502 0.41779 0.0
H1974 H 0.27697 0.27896 0.42529 0.0
H1975 H 0.22421 0.26273 0.42655 0.0
H1976 H 0.23163 0.2339 0.41884 0.0
H1977 H 0.27968 0.15586 0.46276 0.0
H1978 H 0.28601 0.17597 0.43989 0.0
H1979 H 0.23238 0.18169 0.43209 0.0
H1980 H 0.22591 0.16149 0.45486 0.0
H1981 H 0.25142 0.21226 0.43553 0.0
H1982 H 0.25283 0.1609 0.40328 0.0
H1983 H 0.26176 0.13228 0.3969 0.0
H1984 H 0.31374 0.15076 0.39348 0.0
H1985 H 0.30515 0.17947 0.40009 0.0
C1986 C 0.2712 0.25605 0.36784 0.0
C1987 C 0.28848 0.25895 0.36376 0.0
C1988 C 0.26603 0.24286 0.37861 0.0
C1989 C 0.27805 0.23244 0.38573 0.0
C1990 C 0.29522 0.235 0.38129 0.0
C1991 C 0.30038 0.24808 0.37041 0.0
C1992 C 0.27284 0.21913 0.39812 0.0
C1993 C 0.27769 0.20263 0.39507 0.0
C1994 C 0.26321 0.22262 0.41289 0.0
C1995 C 0.25872 0.23994 0.41755 0.0
C1996 C 0.27145 0.2528 0.41953 0.0
C1997 C 0.26712 0.26911 0.42385 0.0
C1998 C 0.25011 0.27269 0.42634 0.0
C1999 C 0.23739 0.25995 0.42458 0.0
C2000 C 0.24165 0.24362 0.42025 0.0
C2001 C 0.26923 0.16129 0.45609 0.0
C2002 C 0.25229 0.15709 0.46063 0.0
C2003 C 0.27286 0.17273 0.44299 0.0
C2004 C 0.25965 0.18025 0.43428 0.0
C2005 C 0.24274 0.17599 0.43867 0.0
C2006 C 0.23908 0.16441 0.45163 0.0
C2007 C 0.26354 0.1931 0.42109 0.0
C2008 C 0.25848 0.20951 0.42403 0.0
C2009 C 0.27315 0.18956 0.40636 0.0
C2010 C 0.27835 0.17232 0.40233 0.0
C2011 C 0.26618 0.15884 0.40131 0.0
C2012 C 0.27118 0.14261 0.39763 0.0
C2013 C 0.28831 0.1397 0.39483 0.0
C2014 C 0.30047 0.15303 0.39567 0.0
C2015 C 0.29554 0.16929 0.39937 0.0
H2016 H 0.29215 0.12712 0.39198 0.0
H2017 H 0.24678 0.28532 0.42969 0.0
H2018 H 0.49161 0.43825 0.89419 0.0
H2019 H 0.46849 0.44504 0.87498 0.0
H2020 H 0.47552 0.49745 0.8887 0.0
H2021 H 0.49883 0.49076 0.90792 0.0
H2022 H 0.44172 0.48751 0.88635 0.0
H2023 H 0.49156 0.48406 0.8521 0.0
H2024 H 0.51728 0.47134 0.84096 0.0
H2025 H 0.48685 0.42945 0.82113 0.0
H2026 H 0.46095 0.4418 0.83239 0.0
H2027 H 0.39843 0.51762 0.81229 0.0
H2028 H 0.41922 0.51231 0.83471 0.0
H2029 H 0.41284 0.45903 0.82498 0.0
H2030 H 0.39202 0.46418 0.80266 0.0
H2031 H 0.4466 0.47069 0.82542 0.0
H2032 H 0.39659 0.47467 0.86009 0.0
H2033 H 0.37118 0.48805 0.87108 0.0
H2034 H 0.40236 0.53 0.88962 0.0
H2035 H 0.42796 0.51698 0.87852 0.0
C2036 C 0.48828 0.45124 0.8931 0.0
C2037 C 0.4972 0.464 0.90242 0.0
C2038 C 0.47503 0.45509 0.88216 0.0
C2039 C 0.47047 0.47178 0.88021 0.0
C2040 C 0.47887 0.48449 0.88999 0.0
C2041 C 0.49215 0.48064 0.90099 0.0
C2042 C 0.45736 0.47594 0.86748 0.0
C2043 C 0.44288 0.48405 0.87298 0.0
C2044 C 0.4588 0.47124 0.85008 0.0
C2045 C 0.47433 0.46378 0.84324 0.0
C2046 C 0.49036 0.47207 0.84549 0.0
C2047 C 0.50497 0.46494 0.83913 0.0
C2048 C 0.5037 0.44957 0.83038 0.0
C2049 C 0.48781 0.44133 0.82793 0.0
C2050 C 0.47316 0.4484 0.83429 0.0
C2051 C 0.40134 0.50476 0.81503 0.0
C2052 C 0.39359 0.49132 0.80567 0.0
C2053 C 0.41318 0.50175 0.82787 0.0
C2054 C 0.41752 0.48527 0.83151 0.0
C2055 C 0.40965 0.47184 0.82235 0.0
C2056 C 0.39771 0.47481 0.80963 0.0
C2057 C 0.43084 0.48203 0.84432 0.0
C2058 C 0.44543 0.47416 0.83879 0.0
C2059 C 0.42954 0.48708 0.86162 0.0
C2060 C 0.41417 0.49494 0.8683 0.0
C2061 C 0.39802 0.48683 0.86637 0.0
C2062 C 0.38358 0.49433 0.87265 0.0
C2063 C 0.38515 0.50989 0.881 0.0
C2064 C 0.40117 0.51796 0.88313 0.0
C2065 C 0.41564 0.51052 0.87685 0.0
H2066 H 0.37396 0.51568 0.88586 0.0
H2067 H 0.51503 0.44408 0.82547 0.0
H2068 H 0.70186 0.74598 0.15088 0.0
H2069 H 0.71341 0.72487 0.13179 0.0
H2070 H 0.73335 0.76434 0.09888 0.0
H2071 H 0.72117 0.78534 0.11758 0.0
H2072 H 0.71959 0.74136 0.08014 0.0
H2073 H 0.75898 0.74085 0.12659 0.0
H2074 H 0.76834 0.73885 0.15657 0.0
H2075 H 0.74623 0.68862 0.15927 0.0
H2076 H 0.73653 0.69041 0.12936 0.0
H2077 H 0.77321 0.69087 0.03103 0.0
H2078 H 0.76429 0.71129 0.05227 0.0
H2079 H 0.73458 0.6723 0.07798 0.0
H2080 H 0.74338 0.65173 0.05672 0.0
H2081 H 0.75384 0.69469 0.10033 0.0
H2082 H 0.71488 0.69657 0.05248 0.0
H2083 H 0.70787 0.69941 0.02194 0.0
H2084 H 0.73216 0.74882 0.02163 0.0
H2085 H 0.73959 0.74615 0.0521 0.0
C2086 C 0.70883 0.75009 0.13963 0.0
C2087 C 0.71063 0.76724 0.13566 0.0
C2088 C 0.7155 0.73805 0.12876 0.0
C2089 C 0.72447 0.74299 0.11396 0.0
C2090 C 0.72645 0.76018 0.11016 0.0
C2091 C 0.71952 0.77217 0.12085 0.0
C2092 C 0.73123 0.73027 0.10206 0.0
C2093 C 0.72729 0.73133 0.08459 0.0
C2094 C 0.74107 0.71696 0.1078 0.0
C2095 C 0.74689 0.71583 0.12578 0.0
C2096 C 0.756 0.72943 0.13362 0.0
C2097 C 0.76138 0.72832 0.15059 0.0
C2098 C 0.75784 0.71363 0.15983 0.0
C2099 C 0.74894 0.7 0.1521 0.0
C2100 C 0.74351 0.70105 0.13513 0.0
C2101 C 0.7649 0.68658 0.04128 0.0
C2102 C 0.75892 0.66969 0.04214 0.0
C2103 C 0.7598 0.69828 0.05338 0.0
C2104 C 0.74868 0.6933 0.06658 0.0
C2105 C 0.74317 0.67636 0.06786 0.0
C2106 C 0.74815 0.66466 0.05567 0.0
C2107 C 0.74222 0.70594 0.07859 0.0
C2108 C 0.74618 0.70481 0.09601 0.0
C2109 C 0.73267 0.71937 0.07279 0.0
C2110 C 0.72793 0.72109 0.05454 0.0
C2111 C 0.71884 0.70799 0.04587 0.0
C2112 C 0.71478 0.70957 0.02857 0.0
C2113 C 0.71962 0.72426 0.01983 0.0
C2114 C 0.72846 0.73743 0.0284 0.0
C2115 C 0.73259 0.73589 0.04569 0.0
H2116 H 0.71648 0.72546 0.00643 0.0
H2117 H 0.76202 0.7128 0.17297 0.0
H2118 H 0.01951 0.05427 0.1481 0.0
H2119 H 0.99758 0.04809 0.16938 0.0
H2120 H 0.9629 0.03077 0.12957 0.0
H2121 H 0.98492 0.03681 0.1081 0.0
H2122 H 0.94779 0.05134 0.15196 0.0
H2123 H 0.98057 0.00274 0.15551 0.0
H2124 H 0.00654 0.98685 0.1581 0.0
H2125 H 0.0166 0.00905 0.20748 0.0
H2126 H 0.99081 0.02528 0.20508 0.0
H2127 H 0.88755 0.01774 0.21275 0.0
H2128 H 0.90773 0.02051 0.18908 0.0
H2129 H 0.94648 0.04001 0.2239 0.0
H2130 H 0.92647 0.03721 0.24763 0.0
H2131 H 0.95832 0.01605 0.20253 0.0
H2132 H 0.9264 0.06605 0.19776 0.0
H2133 H 0.90038 0.08185 0.19495 0.0
H2134 H 0.88851 0.05642 0.14753 0.0
H2135 H 0.91437 0.04029 0.15017 0.0
C2136 C 0.00732 0.04889 0.14385 0.0
C2137 C 0.00403 0.04591 0.12639 0.0
C2138 C 0.99477 0.04541 0.15605 0.0
C2139 C 0.97867 0.03877 0.15109 0.0
C2140 C 0.97526 0.03587 0.13368 0.0
C2141 C 0.98784 0.03937 0.12143 0.0
C2142 C 0.96536 0.03529 0.16416 0.0
C2143 C 0.94996 0.04337 0.16285 0.0
C2144 C 0.9683 0.02511 0.17852 0.0
C2145 C 0.98381 0.01533 0.18005 0.0
C2146 C 0.98839 0.00434 0.16687 0.0
C2147 C 0.00307 0.99525 0.16831 0.0
C2148 C 0.01324 0.99696 0.18293 0.0
C2149 C 0.00872 0.00775 0.19616 0.0
C2150 C 0.99406 0.01688 0.19477 0.0
C2151 C 0.90036 0.02266 0.21537 0.0
C2152 C 0.90539 0.0273 0.23208 0.0
C2153 C 0.91186 0.02427 0.20181 0.0
C2154 C 0.92858 0.03056 0.20472 0.0
C2155 C 0.93364 0.03512 0.22139 0.0
C2156 C 0.92216 0.03357 0.23492 0.0
C2157 C 0.9409 0.03233 0.19046 0.0
C2158 C 0.9561 0.02389 0.19154 0.0
C2159 C 0.93774 0.04212 0.17588 0.0
C2160 C 0.92221 0.05183 0.17426 0.0
C2161 C 0.91817 0.06372 0.18681 0.0
C2162 C 0.90346 0.07275 0.18523 0.0
C2163 C 0.89277 0.0701 0.17109 0.0
C2164 C 0.89679 0.05843 0.15848 0.0
C2165 C 0.91147 0.04935 0.16001 0.0
H2166 H 0.88139 0.07711 0.16989 0.0
H2167 H 0.0246 0.98992 0.18402 0.0
H2168 H 0.31562 0.7599 0.14977 0.0
H2169 H 0.30691 0.78269 0.13159 0.0
H2170 H 0.25486 0.76339 0.13394 0.0
H2171 H 0.2636 0.74003 0.15148 0.0
H2172 H 0.26312 0.77112 0.10217 0.0
H2173 H 0.26882 0.79931 0.15632 0.0
H2174 H 0.28326 0.80822 0.18311 0.0
H2175 H 0.32304 0.83365 0.15446 0.0
H2176 H 0.30896 0.8247 0.12748 0.0
H2177 H 0.23195 0.84192 0.05962 0.0
H2178 H 0.23692 0.82068 0.08125 0.0
H2179 H 0.28991 0.83707 0.08351 0.0
H2180 H 0.28489 0.85869 0.0624 0.0
H2181 H 0.27895 0.83105 0.11432 0.0
H2182 H 0.27472 0.80103 0.06044 0.0
H2183 H 0.26083 0.7918 0.03346 0.0
H2184 H 0.2188 0.76959 0.06151 0.0
H2185 H 0.23235 0.77887 0.08866 0.0
C2186 C 0.30232 0.76042 0.14636 0.0
C2187 C 0.29033 0.74807 0.15207 0.0
C2188 C 0.29733 0.7736 0.13612 0.0
C2189 C 0.28019 0.7749 0.13157 0.0
C2190 C 0.26815 0.7627 0.13736 0.0
C2191 C 0.27315 0.74943 0.14752 0.0
C2192 C 0.27499 0.7886 0.12019 0.0
C2193 C 0.26632 0.78426 0.10498 0.0
C2194 C 0.27946 0.80571 0.12366 0.0
C2195 C 0.28789 0.81123 0.13988 0.0
C2196 C 0.28071 0.80671 0.15573 0.0
C2197 C 0.28882 0.81178 0.17095 0.0
C2198 C 0.30408 0.82147 0.17048 0.0
C2199 C 0.31123 0.82614 0.1548 0.0
C2200 C 0.30317 0.82109 0.13954 0.0
C2201 C 0.24464 0.84103 0.06478 0.0
C2202 C 0.25804 0.85194 0.05924 0.0
C2203 C 0.24749 0.82883 0.07709 0.0
C2204 C 0.26386 0.82706 0.08382 0.0
C2205 C 0.27717 0.83817 0.07852 0.0
C2206 C 0.27429 0.85051 0.06641 0.0
C2207 C 0.26729 0.81355 0.09619 0.0
C2208 C 0.27562 0.81793 0.11159 0.0
C2209 C 0.26257 0.79645 0.09287 0.0
C2210 C 0.25447 0.79079 0.07656 0.0
C2211 C 0.26246 0.79428 0.06084 0.0
C2212 C 0.25466 0.78902 0.04552 0.0
C2213 C 0.23892 0.78016 0.04577 0.0
C2214 C 0.23098 0.77648 0.06134 0.0
C2215 C 0.23872 0.78172 0.07669 0.0
H2216 H 0.23289 0.77611 0.03389 0.0
H2217 H 0.31034 0.82537 0.18228 0.0
H2218 H 0.99266 0.478 0.10163 0.0
H2219 H 0.00546 0.47744 0.13015 0.0
H2220 H 0.05536 0.48432 0.10792 0.0
H2221 H 0.04269 0.4849 0.07944 0.0
H2222 H 0.05512 0.46082 0.1322 0.0
H2223 H 0.03556 0.51698 0.1268 0.0
H2224 H 0.01435 0.53817 0.12157 0.0
H2225 H 0.98452 0.51918 0.16369 0.0
H2226 H 0.00545 0.49771 0.16902 0.0
H2227 H 0.1047 0.48967 0.2027 0.0
H2228 H 0.08934 0.48672 0.17566 0.0
H2229 H 0.04203 0.47961 0.20294 0.0
H2230 H 0.05731 0.48278 0.23014 0.0
H2231 H 0.03923 0.50147 0.17708 0.0
H2232 H 0.06003 0.44648 0.18369 0.0
H2233 H 0.08148 0.42554 0.1889 0.0
H2234 H 0.10919 0.44243 0.14456 0.0
H2235 H 0.08803 0.46364 0.13921 0.0
C2236 C 0.00636 0.47947 0.10284 0.0
C2237 C 0.01666 0.48151 0.08827 0.0
C2238 C 0.01365 0.47913 0.11914 0.0
C2239 C 0.03136 0.48099 0.12118 0.0
C2240 C 0.04167 0.4828 0.10664 0.0
C2241 C 0.03441 0.48308 0.09036 0.0
C2242 C 0.03923 0.48126 0.13844 0.0
C2243 C 0.05176 0.46981 0.14197 0.0
C2244 C 0.03452 0.49269 0.15133 0.0
C2245 C 0.02197 0.50563 0.14818 0.0
C2246 C 0.02441 0.51724 0.13486 0.0
C2247 C 0.01245 0.52931 0.13189 0.0
C2248 C 0.99807 0.52999 0.14226 0.0
C2249 C 0.99565 0.51862 0.15565 0.0
C2250 C 0.00756 0.5065 0.15865 0.0
C2251 C 0.09104 0.48741 0.20299 0.0
C2252 C 0.08224 0.48643 0.2186 0.0
C2253 C 0.08228 0.48565 0.1875 0.0
C2254 C 0.06456 0.48274 0.18728 0.0
C2255 C 0.05572 0.4818 0.20283 0.0
C2256 C 0.06448 0.48357 0.21836 0.0
C2257 C 0.05528 0.48118 0.17077 0.0
C2258 C 0.04249 0.49238 0.16738 0.0
C2259 C 0.05977 0.46954 0.15799 0.0
C2260 C 0.0725 0.45675 0.16113 0.0
C2261 C 0.07076 0.44582 0.17512 0.0
C2262 C 0.08286 0.43388 0.17809 0.0
C2263 C 0.09671 0.43268 0.16709 0.0
C2264 C 0.09847 0.44338 0.15308 0.0
C2265 C 0.08641 0.45535 0.15006 0.0
H2266 H 0.10606 0.42343 0.16941 0.0
H2267 H 0.98883 0.53935 0.13995 0.0
H2268 H 0.35515 0.73638 0.24869 0.0
H2269 H 0.37437 0.74546 0.27182 0.0
H2270 H 0.37869 0.69391 0.28706 0.0
H2271 H 0.35877 0.68477 0.2645 0.0
H2272 H 0.37722 0.71336 0.31444 0.0
H2273 H 0.40943 0.71433 0.26263 0.0
H2274 H 0.41619 0.72189 0.23283 0.0
H2275 H 0.4191 0.7742 0.24672 0.0
H2276 H 0.41212 0.76695 0.27658 0.0
H2277 H 0.45738 0.72403 0.3581 0.0
H2278 H 0.43427 0.71568 0.33835 0.0
H2279 H 0.42505 0.76781 0.32936 0.0
H2280 H 0.44799 0.77628 0.34919 0.0
H2281 H 0.42869 0.74843 0.29935 0.0
H2282 H 0.39752 0.74631 0.3521 0.0
H2283 H 0.39183 0.73757 0.38178 0.0
H2284 H 0.38845 0.68583 0.36582 0.0
H2285 H 0.39437 0.69425 0.33606 0.0
C2286 C 0.35991 0.72697 0.25715 0.0
C2287 C 0.35549 0.70981 0.25462 0.0
C2288 C 0.37107 0.73218 0.27026 0.0
C2289 C 0.37824 0.72034 0.28098 0.0
C2290 C 0.37341 0.70327 0.27888 0.0
C2291 C 0.36216 0.69805 0.26585 0.0
C2292 C 0.39114 0.7257 0.29403 0.0
C2293 C 0.38856 0.72088 0.3111 0.0
C2294 C 0.40586 0.7357 0.28974 0.0
C2295 C 0.41007 0.74011 0.2718 0.0
C2296 C 0.41138 0.72745 0.2593 0.0
C2297 C 0.41527 0.73168 0.24241 0.0
C2298 C 0.41803 0.74852 0.23788 0.0
C2299 C 0.41694 0.76117 0.25025 0.0
C2300 C 0.41302 0.757 0.26716 0.0
C2301 C 0.45034 0.73371 0.35204 0.0
C2302 C 0.45452 0.75082 0.35519 0.0
C2303 C 0.43711 0.72892 0.34081 0.0
C2304 C 0.42796 0.74114 0.33245 0.0
C2305 C 0.43198 0.7582 0.33571 0.0
C2306 C 0.44504 0.763 0.34709 0.0
C2307 C 0.41471 0.73614 0.31969 0.0
C2308 C 0.41729 0.74099 0.30267 0.0
C2309 C 0.40015 0.726 0.324 0.0
C2310 C 0.39656 0.72091 0.34188 0.0
C2311 C 0.39572 0.73306 0.35494 0.0
C2312 C 0.39242 0.72817 0.37178 0.0
C2313 C 0.38983 0.71116 0.3757 0.0
C2314 C 0.39048 0.699 0.36277 0.0
C2315 C 0.39379 0.70383 0.34592 0.0
H2316 H 0.38727 0.70739 0.38874 0.0
H2317 H 0.42105 0.75177 0.22479 0.0
H2318 H 0.96409 0.41085 0.98601 0.0
H2319 H 0.96667 0.38364 0.9717 0.0
H2320 H 0.0174 0.39888 0.95549 0.0
H2321 H 0.01473 0.42615 0.96946 0.0
H2322 H 0.00132 0.38381 0.93024 0.0
H2323 H 0.00939 0.37151 0.98957 0.0
H2324 H 0.0021 0.37076 0.02019 0.0
H2325 H 0.95678 0.34059 0.00887 0.0
H2326 H 0.96369 0.34136 0.97812 0.0
H2327 H 0.03398 0.30438 0.91155 0.0
H2328 H 0.02843 0.33093 0.92587 0.0
H2329 H 0.97544 0.3155 0.93051 0.0
H2330 H 0.98082 0.2889 0.91597 0.0
H2331 H 0.99092 0.33012 0.9611 0.0
H2332 H 0.98453 0.34177 0.90128 0.0
H2333 H 0.99337 0.34213 0.87107 0.0
H2334 H 0.03751 0.37337 0.88409 0.0
H2335 H 0.02907 0.37298 0.91444 0.0
C2336 C 0.9758 0.40834 0.97943 0.0
C2337 C 0.98921 0.42061 0.97884 0.0
C2338 C 0.97728 0.39279 0.97129 0.0
C2339 C 0.99232 0.38911 0.96268 0.0
C2340 C 0.00566 0.40142 0.962 0.0
C2341 C 0.00412 0.41701 0.96997 0.0
C2342 C 0.99422 0.3725 0.95429 0.0
C2343 C 0.99921 0.3721 0.93707 0.0
C2344 C 0.99114 0.35715 0.96306 0.0
C2345 C 0.98697 0.35665 0.98153 0.0
C2346 C 0.9978 0.36483 0.99359 0.0
C2347 C 0.99375 0.36438 0.01097 0.0
C2348 C 0.97896 0.35567 0.01647 0.0
C2349 C 0.96821 0.34736 0.00459 0.0
C2350 C 0.9722 0.34778 0.98719 0.0
C2351 C 0.02115 0.30657 0.91568 0.0
C2352 C 0.00782 0.29456 0.91258 0.0
C2353 C 0.01801 0.32177 0.92381 0.0
C2354 C 0.00152 0.32518 0.92913 0.0
C2355 C 0.98824 0.31307 0.92647 0.0
C2356 C 0.99133 0.29793 0.91811 0.0
C2357 C 0.99817 0.34156 0.93721 0.0
C2358 C 0.99292 0.34188 0.95431 0.0
C2359 C 0.00121 0.35684 0.92842 0.0
C2360 C 0.00625 0.35721 0.91016 0.0
C2361 C 0.9962 0.3486 0.89772 0.0
C2362 C 0.00112 0.34883 0.88057 0.0
C2363 C 0.01601 0.35773 0.87567 0.0
C2364 C 0.02599 0.36646 0.88791 0.0
C2365 C 0.02113 0.36625 0.90509 0.0
H2366 H 0.01981 0.3579 0.86238 0.0
H2367 H 0.97584 0.35534 0.02993 0.0
H2368 H 0.64835 0.78125 0.24878 0.0
H2369 H 0.62839 0.77324 0.27163 0.0
H2370 H 0.59234 0.80717 0.25146 0.0
H2371 H 0.61237 0.81546 0.22892 0.0
H2372 H 0.59376 0.81052 0.28444 0.0
H2373 H 0.58841 0.76331 0.24571 0.0
H2374 H 0.59863 0.73983 0.22843 0.0
H2375 H 0.61729 0.71677 0.27375 0.0
H2376 H 0.60738 0.74024 0.29128 0.0
H2377 H 0.51676 0.77953 0.32101 0.0
H2378 H 0.5398 0.78599 0.30093 0.0
H2379 H 0.57399 0.75827 0.33183 0.0
H2380 H 0.55096 0.75184 0.35219 0.0
H2381 H 0.57537 0.7512 0.29569 0.0
H2382 H 0.57833 0.79818 0.33442 0.0
H2383 H 0.56684 0.82146 0.35103 0.0
H2384 H 0.55136 0.84484 0.30462 0.0
H2385 H 0.56253 0.82155 0.28773 0.0
C2386 C 0.63611 0.78689 0.2492 0.0
C2387 C 0.6319 0.79898 0.2371 0.0
C2388 C 0.62471 0.7823 0.26223 0.0
C2389 C 0.60877 0.78947 0.26319 0.0
C2390 C 0.60457 0.80151 0.25105 0.0
C2391 C 0.61602 0.80624 0.23817 0.0
C2392 C 0.59647 0.7847 0.2769 0.0
C2393 C 0.58964 0.79755 0.28676 0.0
C2394 C 0.59138 0.76775 0.28029 0.0
C2395 C 0.59733 0.75362 0.26978 0.0
C2396 C 0.59482 0.7533 0.25197 0.0
C2397 C 0.60053 0.73998 0.24214 0.0
C2398 C 0.60865 0.72685 0.24998 0.0
C2399 C 0.61103 0.72697 0.26769 0.0
C2400 C 0.60536 0.74027 0.27758 0.0
C2401 C 0.52915 0.77476 0.32355 0.0
C2402 C 0.53205 0.76521 0.33822 0.0
C2403 C 0.54232 0.77851 0.31208 0.0
C2404 C 0.5586 0.77269 0.31498 0.0
C2405 C 0.5615 0.76288 0.32942 0.0
C2406 C 0.54836 0.75929 0.34104 0.0
C2407 C 0.57253 0.77704 0.30288 0.0
C2408 C 0.57965 0.76414 0.2934 0.0
C2409 C 0.57777 0.79394 0.2997 0.0
C2410 C 0.57114 0.80804 0.30982 0.0
C2411 C 0.57235 0.80821 0.32776 0.0
C2412 C 0.56592 0.82143 0.33722 0.0
C2413 C 0.55834 0.83461 0.32889 0.0
C2414 C 0.55722 0.83462 0.31106 0.0
C2415 C 0.56361 0.82142 0.30154 0.0
H2416 H 0.55337 0.84483 0.33624 0.0
H2417 H 0.61306 0.71655 0.24235 0.0
H2418 H 0.05609 0.10624 0.00193 0.0
H2419 H 0.04829 0.12584 0.97963 0.0
H2420 H 0.00537 0.14015 0.00966 0.0
H2421 H 0.01289 0.12032 0.03186 0.0
H2422 H 0.99737 0.13654 0.97555 0.0
H2423 H 0.04109 0.16441 0.01007 0.0
H2424 H 0.06919 0.16737 0.02402 0.0
H2425 H 0.09362 0.16479 0.97513 0.0
H2426 H 0.06565 0.16157 0.9609 0.0
H2427 H 0.9808 0.2151 0.93851 0.0
H2428 H 0.98745 0.19228 0.95771 0.0
H2429 H 0.03159 0.18211 0.92748 0.0
H2430 H 0.02519 0.20512 0.90835 0.0
H2431 H 0.03925 0.18257 0.96056 0.0
H2432 H 0.99565 0.1561 0.92574 0.0
H2433 H 0.96763 0.153 0.91166 0.0
H2434 H 0.94304 0.15271 0.96058 0.0
H2435 H 0.97092 0.15605 0.97497 0.0
C2436 C 0.04484 0.11336 0.00366 0.0
C2437 C 0.03517 0.11181 0.0187 0.0
C2438 C 0.04048 0.12465 0.99097 0.0
C2439 C 0.02638 0.1346 0.99309 0.0
C2440 C 0.01634 0.13263 0.0078 0.0
C2441 C 0.02073 0.1214 0.02052 0.0
C2442 C 0.02246 0.14753 0.98032 0.0
C2443 C 0.00645 0.14671 0.97237 0.0
C2444 C 0.03446 0.16055 0.97591 0.0
C2445 C 0.05129 0.16256 0.98444 0.0
C2446 C 0.05246 0.16433 0.0023 0.0
C2447 C 0.06836 0.16608 0.01026 0.0
C2448 C 0.08318 0.16622 0.00047 0.0
C2449 C 0.08213 0.16465 0.9827 0.0
C2450 C 0.06626 0.16287 0.97468 0.0
C2451 C 0.99189 0.20798 0.93589 0.0
C2452 C 0.00246 0.21194 0.92188 0.0
C2453 C 0.99563 0.19487 0.94684 0.0
C2454 C 0.00991 0.18534 0.94392 0.0
C2455 C 0.02048 0.18927 0.92996 0.0
C2456 C 0.01679 0.20241 0.91902 0.0
C2457 C 0.01411 0.17166 0.95577 0.0
C2458 C 0.03018 0.17235 0.9636 0.0
C2459 C 0.00217 0.15851 0.96002 0.0
C2460 C 0.98538 0.15648 0.95142 0.0
C2461 C 0.98426 0.15551 0.9335 0.0
C2462 C 0.96841 0.15369 0.92546 0.0
C2463 C 0.95356 0.1527 0.93522 0.0
C2464 C 0.95455 0.1535 0.95304 0.0
C2465 C 0.97038 0.15534 0.96114 0.0
H2466 H 0.9413 0.15129 0.92897 0.0
H2467 H 0.09548 0.16758 0.00666 0.0
H2468 H 0.3627 0.27292 0.27484 0.0
H2469 H 0.38325 0.26396 0.25375 0.0
H2470 H 0.37 0.30439 0.22065 0.0
H2471 H 0.34898 0.31319 0.24155 0.0
H2472 H 0.37428 0.27492 0.20283 0.0
H2473 H 0.40496 0.30877 0.24459 0.0
H2474 H 0.41403 0.31743 0.27365 0.0
H2475 H 0.43515 0.26936 0.28141 0.0
H2476 H 0.42598 0.26032 0.25247 0.0
H2477 H 0.44877 0.27345 0.15092 0.0
H2478 H 0.42567 0.28155 0.16964 0.0
H2479 H 0.43892 0.24358 0.2057 0.0
H2480 H 0.46219 0.23561 0.18723 0.0
H2481 H 0.43435 0.27258 0.22156 0.0
H2482 H 0.40359 0.23858 0.17985 0.0
H2483 H 0.39437 0.22982 0.15086 0.0
H2484 H 0.37348 0.27797 0.14292 0.0
H2485 H 0.38278 0.2871 0.1718 0.0
C2486 C 0.3639 0.27974 0.26295 0.0
C2487 C 0.35422 0.29381 0.2599 0.0
C2488 C 0.37578 0.27469 0.25097 0.0
C2489 C 0.37832 0.28366 0.23575 0.0
C2490 C 0.36829 0.29735 0.23237 0.0
C2491 C 0.35639 0.30243 0.24437 0.0
C2492 C 0.39187 0.27905 0.2237 0.0
C2493 C 0.38746 0.27461 0.20683 0.0
C2494 C 0.40901 0.27838 0.22904 0.0
C2495 C 0.41464 0.28382 0.24642 0.0
C2496 C 0.41142 0.3 0.25254 0.0
C2497 C 0.4166 0.30499 0.26899 0.0
C2498 C 0.42513 0.29394 0.27939 0.0
C2499 C 0.42853 0.27789 0.27334 0.0
C2500 C 0.42335 0.27284 0.25692 0.0
C2501 C 0.44671 0.26676 0.1628 0.0
C2502 C 0.45734 0.25388 0.16759 0.0
C2503 C 0.43345 0.27136 0.17345 0.0
C2504 C 0.43046 0.26308 0.18901 0.0
C2505 C 0.44099 0.25015 0.19376 0.0
C2506 C 0.45427 0.24558 0.18315 0.0
C2507 C 0.41678 0.26823 0.20068 0.0
C2508 C 0.42119 0.27286 0.21751 0.0
C2509 C 0.39966 0.26906 0.19528 0.0
C2510 C 0.39404 0.26358 0.17792 0.0
C2511 C 0.39715 0.24735 0.17187 0.0
C2512 C 0.39189 0.24231 0.15547 0.0
C2513 C 0.38339 0.25334 0.14504 0.0
C2514 C 0.38009 0.26944 0.15101 0.0
C2515 C 0.38534 0.27455 0.1674 0.0
H2516 H 0.37932 0.24941 0.13235 0.0
H2517 H 0.42913 0.29782 0.29211 0.0
H2518 H 0.5107 0.40643 0.00383 0.0
H2519 H 0.50196 0.38568 0.0254 0.0
H2520 H 0.55088 0.36376 0.02183 0.0
H2521 H 0.55968 0.38442 0.00029 0.0
H2522 H 0.52605 0.34003 0.0209 0.0
H2523 H 0.54033 0.38825 0.05616 0.0
H2524 H 0.53905 0.41771 0.06577 0.0
H2525 H 0.48569 0.41009 0.07591 0.0
H2526 H 0.4866 0.38062 0.06614 0.0
H2527 H 0.52148 0.28827 0.09376 0.0
H2528 H 0.5297 0.31069 0.07387 0.0
H2529 H 0.47937 0.32958 0.07699 0.0
H2530 H 0.47105 0.30726 0.09704 0.0
H2531 H 0.5041 0.35495 0.07816 0.0
H2532 H 0.49003 0.30664 0.04301 0.0
H2533 H 0.49149 0.27714 0.03355 0.0
H2534 H 0.5448 0.28506 0.02329 0.0
H2535 H 0.54371 0.31456 0.03292 0.0
C2536 C 0.51966 0.39731 0.0078 0.0
C2537 C 0.53587 0.39704 0.00032 0.0
C2538 C 0.51464 0.38546 0.02012 0.0
C2539 C 0.52581 0.37323 0.02532 0.0
C2540 C 0.54203 0.37303 0.01796 0.0
C2541 C 0.54702 0.38481 0.00562 0.0
C2542 C 0.52047 0.36031 0.03805 0.0
C2543 C 0.52148 0.34331 0.0335 0.0
C2544 C 0.51407 0.36458 0.05433 0.0
C2545 C 0.5135 0.38228 0.06025 0.0
C2546 C 0.52829 0.39289 0.06031 0.0
C2547 C 0.52764 0.40959 0.06581 0.0
C2548 C 0.51229 0.41578 0.0714 0.0
C2549 C 0.49757 0.40528 0.07155 0.0
C2550 C 0.49814 0.38858 0.06604 0.0
C2551 C 0.51215 0.29721 0.09027 0.0
C2552 C 0.49556 0.2959 0.09691 0.0
C2553 C 0.51687 0.30999 0.07886 0.0
C2554 C 0.50508 0.32167 0.07379 0.0
C2555 C 0.48864 0.32067 0.08071 0.0
C2556 C 0.4839 0.30786 0.09212 0.0
C2557 C 0.50985 0.33472 0.06103 0.0
C2558 C 0.50869 0.35171 0.06555 0.0
C2559 C 0.51614 0.33047 0.04471 0.0
C2560 C 0.51682 0.31276 0.03884 0.0
C2561 C 0.50209 0.30205 0.03886 0.0
C2562 C 0.50285 0.28534 0.03345 0.0
C2563 C 0.51823 0.27922 0.02787 0.0
C2564 C 0.53289 0.28981 0.02764 0.0
C2565 C 0.53221 0.30653 0.03306 0.0
H2566 H 0.51879 0.26628 0.02369 0.0
H2567 H 0.51181 0.42871 0.07566 0.0
H2568 H 0.64756 0.26367 0.25467 0.0
H2569 H 0.62091 0.26428 0.2387 0.0
H2570 H 0.63006 0.21576 0.21665 0.0
H2571 H 0.65698 0.21521 0.2324 0.0
H2572 H 0.62096 0.23814 0.19261 0.0
H2573 H 0.59989 0.21916 0.2466 0.0
H2574 H 0.5964 0.21951 0.2779 0.0
H2575 H 0.57474 0.26787 0.27524 0.0
H2576 H 0.57832 0.26793 0.24393 0.0
H2577 H 0.53923 0.22978 0.15372 0.0
H2578 H 0.56398 0.22472 0.17154 0.0
H2579 H 0.55866 0.27241 0.19694 0.0
H2580 H 0.53378 0.27749 0.17934 0.0
H2581 H 0.56532 0.24809 0.21954 0.0
H2582 H 0.58833 0.26798 0.16603 0.0
H2583 H 0.59206 0.26795 0.13474 0.0
H2584 H 0.61026 0.21804 0.13665 0.0
H2585 H 0.60642 0.21768 0.16794 0.0
C2586 C 0.6439 0.25312 0.24643 0.0
C2587 C 0.65439 0.23941 0.24475 0.0
C2588 C 0.62859 0.25342 0.23742 0.0
C2589 C 0.62343 0.24001 0.22659 0.0
C2590 C 0.63379 0.22622 0.22499 0.0
C2591 C 0.64909 0.22587 0.23407 0.0
C2592 C 0.60759 0.24079 0.21639 0.0
C2593 C 0.60873 0.23999 0.19851 0.0
C2594 C 0.59171 0.24359 0.22408 0.0
C2595 C 0.58952 0.24361 0.24292 0.0
C2596 C 0.59451 0.22993 0.2527 0.0
C2597 C 0.59249 0.23005 0.27044 0.0
C2598 C 0.58539 0.24372 0.27856 0.0
C2599 C 0.58025 0.2573 0.26894 0.0
C2600 C 0.58226 0.25725 0.25119 0.0
C2601 C 0.54329 0.23919 0.16312 0.0
C2602 C 0.53458 0.25409 0.16504 0.0
C2603 C 0.55748 0.23629 0.17326 0.0
C2604 C 0.56328 0.24827 0.18545 0.0
C2605 C 0.55441 0.263 0.18762 0.0
C2606 C 0.54022 0.26591 0.17749 0.0
C2607 C 0.57874 0.24561 0.19577 0.0
C2608 C 0.57752 0.24608 0.21366 0.0
C2609 C 0.59456 0.24253 0.1881 0.0
C2610 C 0.59691 0.24273 0.16929 0.0
C2611 C 0.593 0.25694 0.15976 0.0
C2612 C 0.59515 0.25701 0.14203 0.0
C2613 C 0.60134 0.24298 0.1337 0.0
C2614 C 0.60543 0.22888 0.14311 0.0
C2615 C 0.60328 0.22874 0.16084 0.0
H2616 H 0.60301 0.24306 0.11998 0.0
H2617 H 0.58383 0.24378 0.2923 0.0
H2618 H 0.47664 0.07071 0.05175 0.0
H2619 H 0.47607 0.09749 0.06702 0.0
H2620 H 0.48023 0.124 0.01922 0.0
H2621 H 0.4813 0.09715 0.00383 0.0
H2622 H 0.50168 0.13777 0.04281 0.0
H2623 H 0.44276 0.12158 0.04042 0.0
H2624 H 0.41718 0.1028 0.04352 0.0
H2625 H 0.42609 0.09985 0.09755 0.0
H2626 H 0.45188 0.11843 0.09474 0.0
H2627 H 0.48638 0.21604 0.08365 0.0
H2628 H 0.48289 0.19142 0.06485 0.0
H2629 H 0.48095 0.15903 0.1088 0.0
H2630 H 0.48436 0.18353 0.12769 0.0
H2631 H 0.45665 0.14974 0.08484 0.0
H2632 H 0.51696 0.16405 0.08637 0.0
H2633 H 0.54249 0.18288 0.08305 0.0
H2634 H 0.53044 0.1896 0.03006 0.0
H2635 H 0.50469 0.17097 0.03314 0.0
C2636 C 0.47752 0.08223 0.04447 0.0
C2637 C 0.47907 0.0818 0.02657 0.0
C2638 C 0.47701 0.09754 0.05321 0.0
C2639 C 0.4779 0.11275 0.04425 0.0
C2640 C 0.47944 0.1124 0.02638 0.0
C2641 C 0.47993 0.09706 0.0176 0.0
C2642 C 0.47781 0.12897 0.0537 0.0
C2643 C 0.49166 0.14054 0.05175 0.0
C2644 C 0.46487 0.13246 0.06557 0.0
C2645 C 0.44934 0.1213 0.06734 0.0
C2646 C 0.43935 0.11682 0.05295 0.0
C2647 C 0.42479 0.10623 0.05465 0.0
C2648 C 0.42003 0.10011 0.07072 0.0
C2649 C 0.4298 0.1046 0.08511 0.0
C2650 C 0.44438 0.11517 0.08347 0.0
C2651 C 0.48512 0.20368 0.08933 0.0
C2652 C 0.48574 0.20174 0.10718 0.0
C2653 C 0.48318 0.18963 0.07856 0.0
C2654 C 0.48182 0.1734 0.08544 0.0
C2655 C 0.48198 0.17145 0.10324 0.0
C2656 C 0.484 0.18547 0.11401 0.0
C2657 C 0.48063 0.15836 0.07413 0.0
C2658 C 0.46654 0.14704 0.07574 0.0
C2659 C 0.49331 0.15513 0.06191 0.0
C2660 C 0.5088 0.16628 0.06003 0.0
C2661 C 0.51968 0.16965 0.07405 0.0
C2662 C 0.5342 0.18027 0.0722 0.0
C2663 C 0.53805 0.18747 0.05636 0.0
C2664 C 0.52742 0.18403 0.04233 0.0
C2665 C 0.51287 0.17344 0.04411 0.0
H2666 H 0.5493 0.19568 0.05496 0.0
H2667 H 0.40876 0.09191 0.07201 0.0
H2668 H 0.25478 0.35473 0.70741 0.0
H2669 H 0.27738 0.37502 0.71652 0.0
H2670 H 0.24224 0.41491 0.71388 0.0
H2671 H 0.21983 0.39472 0.70416 0.0
H2672 H 0.27044 0.42536 0.70062 0.0
H2673 H 0.2558 0.39732 0.7528 0.0
H2674 H 0.25055 0.37317 0.77191 0.0
H2675 H 0.30221 0.3593 0.76566 0.0
H2676 H 0.3077 0.38325 0.74631 0.0
H2677 H 0.31925 0.48584 0.75002 0.0
H2678 H 0.29719 0.46467 0.74168 0.0
H2679 H 0.33554 0.42896 0.73195 0.0
H2680 H 0.35775 0.45014 0.74003 0.0
H2681 H 0.30631 0.41641 0.75165 0.0
H2682 H 0.32011 0.44566 0.6993 0.0
H2683 H 0.3245 0.47079 0.68135 0.0
H2684 H 0.27279 0.48352 0.68978 0.0
H2685 H 0.26817 0.45857 0.708 0.0
C2686 C 0.25191 0.36783 0.70888 0.0
C2687 C 0.23559 0.37319 0.70511 0.0
C2688 C 0.26479 0.37941 0.71414 0.0
C2689 C 0.26148 0.3965 0.71615 0.0
C2690 C 0.24514 0.40182 0.71241 0.0
C2691 C 0.23234 0.39029 0.70688 0.0
C2692 C 0.2751 0.40892 0.72173 0.0
C2693 C 0.27809 0.42346 0.71193 0.0
C2694 C 0.28536 0.40638 0.73631 0.0
C2695 C 0.28211 0.39198 0.74797 0.0
C2696 C 0.266 0.38905 0.7554 0.0
C2697 C 0.26299 0.37541 0.76629 0.0
C2698 C 0.27603 0.36468 0.76996 0.0
C2699 C 0.29212 0.3676 0.76278 0.0
C2700 C 0.29519 0.38122 0.75186 0.0
C2701 C 0.323 0.47347 0.74616 0.0
C2702 C 0.34025 0.46967 0.74562 0.0
C2703 C 0.31039 0.46142 0.74137 0.0
C2704 C 0.31478 0.44531 0.73615 0.0
C2705 C 0.33193 0.44134 0.73595 0.0
C2706 C 0.34459 0.45347 0.7405 0.0
C2707 C 0.30145 0.43273 0.7306 0.0
C2708 C 0.29858 0.4182 0.74038 0.0
C2709 C 0.29111 0.43539 0.71618 0.0
C2710 C 0.29385 0.45034 0.70515 0.0
C2711 C 0.30972 0.4539 0.69745 0.0
C2712 C 0.31224 0.46809 0.6872 0.0
C2713 C 0.29895 0.47877 0.68446 0.0
C2714 C 0.28309 0.47525 0.69193 0.0
C2715 C 0.28051 0.46107 0.70221 0.0
H2716 H 0.30092 0.48975 0.67652 0.0
H2717 H 0.27367 0.35412 0.7784 0.0
H2718 H 0.28664 0.68446 0.76736 0.0
H2719 H 0.30025 0.65758 0.76786 0.0
H2720 H 0.25558 0.63432 0.79124 0.0
H2721 H 0.24187 0.66132 0.79084 0.0
H2722 H 0.28419 0.62388 0.80597 0.0
H2723 H 0.26321 0.62859 0.74891 0.0
H2724 H 0.25893 0.64229 0.72118 0.0
H2725 H 0.31277 0.64426 0.71232 0.0
H2726 H 0.3174 0.63078 0.74012 0.0
H2727 H 0.30917 0.5402 0.7887 0.0
H2728 H 0.29385 0.56616 0.79019 0.0
H2729 H 0.33644 0.59324 0.76693 0.0
H2730 H 0.35173 0.56733 0.76515 0.0
H2731 H 0.30717 0.60084 0.75213 0.0
H2732 H 0.32802 0.59681 0.80985 0.0
H2733 H 0.33201 0.58303 0.8376 0.0
H2734 H 0.27796 0.57939 0.84504 0.0
H2735 H 0.27363 0.59296 0.81722 0.0
C2736 C 0.27966 0.6736 0.77251 0.0
C2737 C 0.26311 0.67496 0.77889 0.0
C2738 C 0.28747 0.65825 0.77281 0.0
C2739 C 0.27883 0.64387 0.77931 0.0
C2740 C 0.26246 0.64525 0.78611 0.0
C2741 C 0.25465 0.66067 0.7859 0.0
C2742 C 0.28691 0.62741 0.77883 0.0
C2743 C 0.28899 0.6187 0.79416 0.0
C2744 C 0.2934 0.62078 0.76346 0.0
C2745 C 0.29066 0.6288 0.74667 0.0
C2746 C 0.27415 0.63205 0.74111 0.0
C2747 C 0.27166 0.63976 0.72537 0.0
C2748 C 0.28557 0.64417 0.71501 0.0
C2749 C 0.30201 0.64084 0.72036 0.0
C2750 C 0.30457 0.63315 0.7361 0.0
C2751 C 0.31532 0.5517 0.78397 0.0
C2752 C 0.33168 0.55169 0.7768 0.0
C2753 C 0.30656 0.56654 0.7849 0.0
C2754 C 0.31405 0.58168 0.77879 0.0
C2755 C 0.33041 0.5817 0.77171 0.0
C2756 C 0.33915 0.56688 0.77074 0.0
C2757 C 0.30471 0.59743 0.77931 0.0
C2758 C 0.30234 0.60598 0.76394 0.0
C2759 C 0.29791 0.60385 0.79463 0.0
C2760 C 0.3005 0.59574 0.81138 0.0
C2761 C 0.31698 0.59295 0.81734 0.0
C2762 C 0.3193 0.5852 0.83309 0.0
C2763 C 0.30525 0.5803 0.84305 0.0
C2764 C 0.28884 0.58318 0.8373 0.0
C2765 C 0.28644 0.59091 0.82155 0.0
H2766 H 0.30707 0.5743 0.85524 0.0
H2767 H 0.28362 0.65014 0.70283 0.0
H2768 H 0.90321 0.50311 0.49767 0.0
H2769 H 0.87556 0.48775 0.49814 0.0
H2770 H 0.89902 0.44288 0.48076 0.0
H2771 H 0.92666 0.45825 0.47992 0.0
H2772 H 0.86836 0.44725 0.46481 0.0
H2773 H 0.89075 0.44787 0.52219 0.0
H2774 H 0.90261 0.46118 0.54844 0.0
H2775 H 0.85755 0.48893 0.55445 0.0
H2776 H 0.84552 0.47595 0.52808 0.0
H2777 H 0.8071 0.38434 0.49055 0.0
H2778 H 0.83272 0.40227 0.48615 0.0
H2779 H 0.80725 0.44473 0.50664 0.0
H2780 H 0.78163 0.42683 0.51132 0.0
H2781 H 0.83812 0.44291 0.52028 0.0
H2782 H 0.81489 0.44119 0.46382 0.0
H2783 H 0.80295 0.42798 0.43756 0.0
H2784 H 0.84918 0.40256 0.42962 0.0
H2785 H 0.86132 0.41544 0.45598 0.0
C2786 C 0.90244 0.49004 0.49368 0.0
C2787 C 0.91713 0.48185 0.48886 0.0
C2788 C 0.88665 0.48126 0.49408 0.0
C2789 C 0.88528 0.46413 0.48968 0.0
C2790 C 0.89981 0.45608 0.48426 0.0
C2791 C 0.9156 0.46484 0.48392 0.0
C2792 C 0.86886 0.4544 0.49139 0.0
C2793 C 0.86181 0.44615 0.47695 0.0
C2794 C 0.86014 0.45332 0.50717 0.0
C2795 C 0.86732 0.46108 0.52307 0.0
C2796 C 0.88343 0.45691 0.52903 0.0
C2797 C 0.89017 0.46438 0.54394 0.0
C2798 C 0.88086 0.47593 0.55308 0.0
C2799 C 0.86476 0.48 0.54734 0.0
C2800 C 0.85797 0.47259 0.53242 0.0
C2801 C 0.8069 0.39751 0.49405 0.0
C2802 C 0.79231 0.40414 0.5013 0.0
C2803 C 0.82154 0.40777 0.49144 0.0
C2804 C 0.82185 0.42489 0.4959 0.0
C2805 C 0.80729 0.43156 0.50308 0.0
C2806 C 0.79265 0.42131 0.50571 0.0
C2807 C 0.83759 0.43566 0.4937 0.0
C2808 C 0.84456 0.44409 0.50808 0.0
C2809 C 0.84619 0.43692 0.47785 0.0
C2810 C 0.83895 0.42917 0.46197 0.0
C2811 C 0.82246 0.43268 0.45655 0.0
C2812 C 0.81567 0.42527 0.44164 0.0
C2813 C 0.82529 0.41441 0.43195 0.0
C2814 C 0.84174 0.41096 0.43715 0.0
C2815 C 0.84859 0.41833 0.45207 0.0
H2816 H 0.82001 0.40868 0.4204 0.0
H2817 H 0.8861 0.4817 0.56462 0.0
H2818 H 0.73256 0.85249 0.81925 0.0
H2819 H 0.70964 0.8707 0.81168 0.0
H2820 H 0.73726 0.88684 0.76669 0.0
H2821 H 0.76049 0.86906 0.77448 0.0
H2822 H 0.72602 0.91307 0.78395 0.0
H2823 H 0.70181 0.86036 0.7637 0.0
H2824 H 0.69257 0.83042 0.76551 0.0
H2825 H 0.65782 0.84179 0.80571 0.0
H2826 H 0.66701 0.87179 0.80431 0.0
H2827 H 0.66013 0.95849 0.74813 0.0
H2828 H 0.68096 0.93714 0.75227 0.0
H2829 H 0.65498 0.92056 0.79805 0.0
H2830 H 0.63388 0.94173 0.79385 0.0
H2831 H 0.66523 0.89414 0.77935 0.0
H2832 H 0.69041 0.94646 0.80051 0.0
H2833 H 0.69965 0.97642 0.79888 0.0
H2834 H 0.73274 0.96561 0.75708 0.0
H2835 H 0.72352 0.9356 0.75832 0.0
C2836 C 0.73376 0.85991 0.80774 0.0
C2837 C 0.74838 0.85935 0.79749 0.0
C2838 C 0.72057 0.87019 0.80333 0.0
C2839 C 0.72167 0.88003 0.78853 0.0
C2840 C 0.73612 0.87931 0.77814 0.0
C2841 C 0.74933 0.86903 0.78254 0.0
C2842 C 0.70816 0.89174 0.78439 0.0
C2843 C 0.71277 0.90887 0.78265 0.0
C2844 C 0.69081 0.88634 0.78314 0.0
C2845 C 0.68522 0.86831 0.784 0.0
C2846 C 0.69229 0.85646 0.77302 0.0
C2847 C 0.68705 0.83948 0.77396 0.0
C2848 C 0.67465 0.8342 0.78575 0.0
C2849 C 0.66743 0.8459 0.7966 0.0
C2850 C 0.67265 0.8629 0.79572 0.0
C2851 C 0.65876 0.95025 0.75903 0.0
C2852 C 0.64541 0.95192 0.77075 0.0
C2853 C 0.67072 0.93807 0.7614 0.0
C2854 C 0.66968 0.92744 0.77562 0.0
C2855 C 0.65605 0.92867 0.78702 0.0
C2856 C 0.64403 0.94082 0.78462 0.0
C2857 C 0.68313 0.91542 0.7789 0.0
C2858 C 0.67851 0.89828 0.78054 0.0
C2859 C 0.7005 0.92079 0.78008 0.0
C2860 C 0.70614 0.93882 0.77939 0.0
C2861 C 0.69956 0.95049 0.79089 0.0
C2862 C 0.70481 0.96748 0.79005 0.0
C2863 C 0.71674 0.97292 0.77786 0.0
C2864 C 0.72348 0.96138 0.76651 0.0
C2865 C 0.71826 0.94438 0.76728 0.0
H2866 H 0.72078 0.98608 0.77722 0.0
H2867 H 0.6706 0.82105 0.78645 0.0
H2868 H 0.60997 0.51347 0.94675 0.0
H2869 H 0.63206 0.53425 0.95554 0.0
H2870 H 0.62234 0.52243 0.00843 0.0
H2871 H 0.59968 0.50201 0.99976 0.0
H2872 H 0.6285 0.55602 0.00407 0.0
H2873 H 0.65487 0.50525 0.98784 0.0
H2874 H 0.66088 0.4814 0.96888 0.0
H2875 H 0.68054 0.51559 0.93079 0.0
H2876 H 0.67442 0.53967 0.94944 0.0
H2877 H 0.70826 0.58948 0.03624 0.0
H2878 H 0.68341 0.57127 0.02882 0.0
H2879 H 0.69203 0.5812 0.97534 0.0
H2880 H 0.71698 0.59921 0.9826 0.0
H2881 H 0.6862 0.5484 0.98075 0.0
H2882 H 0.65993 0.59929 0.99725 0.0
H2883 H 0.65394 0.623 0.01639 0.0
H2884 H 0.63434 0.58854 0.05426 0.0
H2885 H 0.64043 0.5646 0.03543 0.0
C2886 C 0.61223 0.51552 0.96027 0.0
C2887 C 0.60309 0.50598 0.97254 0.0
C2888 C 0.625 0.5273 0.96527 0.0
C2889 C 0.62905 0.52967 0.98263 0.0
C2890 C 0.61949 0.52072 0.99496 0.0
C2891 C 0.60665 0.50896 0.98997 0.0
C2892 C 0.64376 0.5409 0.9878 0.0
C2893 C 0.64117 0.55426 0.99914 0.0
C2894 C 0.66023 0.53872 0.98117 0.0
C2895 C 0.66404 0.52426 0.96998 0.0
C2896 C 0.66036 0.50768 0.97537 0.0
C2897 C 0.6638 0.49413 0.96469 0.0
C2898 C 0.67105 0.49698 0.94863 0.0
C2899 C 0.67491 0.5134 0.94323 0.0
C2900 C 0.67147 0.52701 0.95386 0.0
C2901 C 0.70484 0.58784 0.0229 0.0
C2902 C 0.71462 0.59579 0.01002 0.0
C2903 C 0.69058 0.57748 0.01869 0.0
C2904 C 0.68577 0.575 0.00153 0.0
C2905 C 0.6955 0.58295 0.98866 0.0
C2906 C 0.70975 0.59327 0.99285 0.0
C2907 C 0.67095 0.56368 0.99687 0.0
C2908 C 0.67354 0.55022 0.98567 0.0
C2909 C 0.65452 0.56577 0.00367 0.0
C2910 C 0.6508 0.58014 0.015 0.0
C2911 C 0.65447 0.59676 0.00971 0.0
C2912 C 0.65103 0.61024 0.0205 0.0
C2913 C 0.6438 0.60728 0.03655 0.0
C2914 C 0.63996 0.59082 0.04183 0.0
C2915 C 0.64339 0.57729 0.0311 0.0
H2916 H 0.64115 0.61773 0.04488 0.0
H2917 H 0.6737 0.48647 0.94037 0.0
H2918 H 0.26546 0.61869 0.207 0.0
H2919 H 0.24166 0.59935 0.21431 0.0
H2920 H 0.21131 0.64133 0.22713 0.0
H2921 H 0.23529 0.6608 0.22005 0.0
H2922 H 0.20652 0.61711 0.24995 0.0
H2923 H 0.20539 0.61985 0.1892 0.0
H2924 H 0.21691 0.61901 0.15995 0.0
H2925 H 0.22926 0.56756 0.16672 0.0
H2926 H 0.21803 0.56816 0.19612 0.0
H2927 H 0.12939 0.56448 0.24872 0.0
H2928 H 0.151 0.58664 0.24205 0.0
H2929 H 0.18815 0.54921 0.23466 0.0
H2930 H 0.16677 0.52705 0.2414 0.0
H2931 H 0.1874 0.57286 0.20828 0.0
H2932 H 0.1894 0.57139 0.27004 0.0
H2933 H 0.1771 0.5728 0.29894 0.0
H2934 H 0.1617 0.62287 0.28935 0.0
H2935 H 0.1737 0.62165 0.26028 0.0
C2936 C 0.25369 0.62381 0.2113 0.0
C2937 C 0.25217 0.64126 0.21279 0.0
C2938 C 0.24009 0.61274 0.21546 0.0
C2939 C 0.22457 0.61889 0.22095 0.0
C2940 C 0.22314 0.63631 0.22286 0.0
C2941 C 0.23683 0.64741 0.21883 0.0
C2942 C 0.20992 0.60704 0.2246 0.0
C2943 C 0.20215 0.60762 0.24072 0.0
C2944 C 0.2043 0.59455 0.21263 0.0
C2945 C 0.21099 0.5941 0.19492 0.0
C2946 C 0.21067 0.60839 0.1845 0.0
C2947 C 0.21713 0.60796 0.16788 0.0
C2948 C 0.22384 0.59325 0.16149 0.0
C2949 C 0.22407 0.57894 0.17169 0.0
C2950 C 0.21764 0.57932 0.18833 0.0
C2951 C 0.14217 0.56098 0.2457 0.0
C2952 C 0.14637 0.54401 0.24559 0.0
C2953 C 0.15449 0.57365 0.24195 0.0
C2954 C 0.17116 0.56953 0.23792 0.0
C2955 C 0.17534 0.55262 0.23772 0.0
C2956 C 0.16312 0.53999 0.24164 0.0
C2957 C 0.18428 0.58277 0.23368 0.0
C2958 C 0.19171 0.58246 0.21742 0.0
C2959 C 0.18943 0.5956 0.24544 0.0
C2960 C 0.18227 0.59635 0.26292 0.0
C2961 C 0.18325 0.58264 0.27404 0.0
C2962 C 0.17636 0.58342 0.29046 0.0
C2963 C 0.16858 0.59789 0.29596 0.0
C2964 C 0.16771 0.61165 0.28506 0.0
C2965 C 0.17456 0.61092 0.26862 0.0
H2966 H 0.16325 0.59847 0.30868 0.0
H2967 H 0.22884 0.59294 0.14862 0.0
H2968 H 0.90538 0.49918 0.00383 0.0
H2969 H 0.87816 0.51275 0.00332 0.0
H2970 H 0.90126 0.55623 0.02894 0.0
H2971 H 0.92836 0.54254 0.02998 0.0
H2972 H 0.87015 0.5481 0.04184 0.0
H2973 H 0.89481 0.5562 0.98605 0.0
H2974 H 0.90742 0.54716 0.95887 0.0
H2975 H 0.862 0.51733 0.94708 0.0
H2976 H 0.84921 0.52602 0.97432 0.0
H2977 H 0.81018 0.60888 0.02201 0.0
H2978 H 0.83557 0.59271 0.02519 0.0
H2979 H 0.81093 0.55127 0.99753 0.0
H2980 H 0.78561 0.56749 0.99398 0.0
H2981 H 0.84214 0.55719 0.98604 0.0
H2982 H 0.81686 0.55003 0.04125 0.0
H2983 H 0.80423 0.55907 0.06842 0.0
H2984 H 0.85052 0.58697 0.08139 0.0
H2985 H 0.86336 0.57828 0.05418 0.0
C2986 C 0.90461 0.51154 0.00956 0.0
C2987 C 0.91907 0.51983 0.01684 0.0
C2988 C 0.88908 0.51934 0.00913 0.0
C2989 C 0.88774 0.5356 0.01589 0.0
C2990 C 0.90202 0.54371 0.02359 0.0
C2991 C 0.91754 0.53593 0.02402 0.0
C2992 C 0.87157 0.54435 0.01461 0.0
C2993 C 0.86409 0.55024 0.02964 0.0
C2994 C 0.86348 0.5468 0.99871 0.0
C2995 C 0.87113 0.54162 0.9823 0.0
C2996 C 0.88757 0.54761 0.97772 0.0
C2997 C 0.89474 0.54257 0.9623 0.0
C2998 C 0.88554 0.53164 0.95128 0.0
C2999 C 0.86912 0.52577 0.95564 0.0
C3000 C 0.8619 0.53076 0.97107 0.0
C3001 C 0.81011 0.59629 0.01668 0.0
C3002 C 0.79586 0.58948 0.00773 0.0
C3003 C 0.82462 0.58702 0.01859 0.0
C3004 C 0.8251 0.57069 0.01176 0.0
C3005 C 0.81085 0.56384 0.00291 0.0
C3006 C 0.79637 0.57312 0.00093 0.0
C3007 C 0.84068 0.561 0.01328 0.0
C3008 C 0.84809 0.55496 0.99828 0.0
C3009 C 0.84868 0.55841 0.02921 0.0
C3010 C 0.84102 0.56362 0.0456 0.0
C3011 C 0.8243 0.5582 0.04984 0.0
C3012 C 0.81712 0.56324 0.06525 0.0
C3013 C 0.82655 0.57362 0.0766 0.0
C3014 C 0.84322 0.57894 0.07257 0.0
C3015 C 0.85046 0.57395 0.05717 0.0
H3016 H 0.82097 0.57751 0.08853 0.0
H3017 H 0.89111 0.52775 0.93934 0.0
H3018 H 0.08663 0.00146 0.03313 0.0
H3019 H 0.10479 0.97859 0.02502 0.0
H3020 H 0.1406 0.99423 0.06449 0.0
H3021 H 0.1226 0.0171 0.07256 0.0
H3022 H 0.15671 0.98822 0.03562 0.0
H3023 H 0.11308 0.95931 0.0688 0.0
H3024 H 0.08363 0.95045 0.07636 0.0
H3025 H 0.07669 0.92695 0.02711 0.0
H3026 H 0.10604 0.93587 0.01917 0.0
H3027 H 0.20699 0.91773 0.04031 0.0
H3028 H 0.18689 0.93921 0.04698 0.0
H3029 H 0.15463 0.92139 0.0054 0.0
H3030 H 0.1746 0.89963 0.99877 0.0
H3031 H 0.13617 0.92839 0.03353 0.0
H3032 H 0.18012 0.95647 0.00076 0.0
H3033 H 0.20962 0.9652 0.99327 0.0
H3034 H 0.21592 0.99031 0.04178 0.0
H3035 H 0.18653 0.98152 0.04966 0.0
C3036 C 0.09831 0.99992 0.04015 0.0
C3037 C 0.10321 0.01111 0.05345 0.0
C3038 C 0.10867 0.98685 0.03552 0.0
C3039 C 0.12401 0.9846 0.04424 0.0
C3040 C 0.12887 0.99574 0.05754 0.0
C3041 C 0.11859 0.00884 0.0621 0.0
C3042 C 0.13523 0.97088 0.03938 0.0
C3043 C 0.15225 0.97512 0.03537 0.0
C3044 C 0.12931 0.95383 0.03855 0.0
C3045 C 0.11169 0.94841 0.04333 0.0
C3046 C 0.10523 0.95237 0.05953 0.0
C3047 C 0.08856 0.94732 0.0639 0.0
C3048 C 0.07828 0.93818 0.05221 0.0
C3049 C 0.08466 0.93404 0.03615 0.0
C3050 C 0.10131 0.93908 0.03171 0.0
C3051 C 0.1956 0.91831 0.0326 0.0
C3052 C 0.19246 0.90702 0.01893 0.0
C3053 C 0.18415 0.93065 0.03639 0.0
C3054 C 0.16939 0.93207 0.02651 0.0
C3055 C 0.16598 0.92055 0.01314 0.0
C3056 C 0.17742 0.90816 0.00935 0.0
C3057 C 0.15768 0.94573 0.03005 0.0
C3058 C 0.14059 0.9415 0.03375 0.0
C3059 C 0.16352 0.96281 0.0306 0.0
C3060 C 0.18117 0.96821 0.02585 0.0
C3061 C 0.18784 0.96375 0.00988 0.0
C3062 C 0.20453 0.96873 0.00556 0.0
C3063 C 0.21465 0.97827 0.01706 0.0
C3064 C 0.20808 0.9829 0.03289 0.0
C3065 C 0.1914 0.97794 0.03728 0.0
H3066 H 0.22757 0.98211 0.01369 0.0
H3067 H 0.06538 0.93428 0.05561 0.0
loop_
_geom_bond_atom_site_label_1
_geom_bond_atom_site_label_2
_geom_bond_distance
_geom_bond_site_symmetry_2
_ccdc_geom_bond_type
P0 O11 1.490 . S
P0 C14 1.812 . S
P0 C20 1.803 . S
P0 C26 1.819 . S
H1 C15 0.941 . S
H2 C16 0.939 . S
H3 C18 0.940 1_655 S
H4 C19 0.940 . S
H5 C21 0.939 . S
H6 C22 0.942 . S
H7 C24 0.940 . S
H8 C25 0.939 . S
H9 C27 0.941 . S
H10 C31 0.939 . S
O11 P0 1.490 . S
H12 C28 0.939 . S
H13 C30 0.940 . S
C14 P0 1.812 . S
C14 C15 1.389 . S
C14 C19 1.391 . S
C15 H1 0.941 . S
C15 C14 1.389 . S
C15 C16 1.397 . S
C16 H2 0.939 . S
C16 C15 1.397 . S
C16 C17 1.378 . S
C17 C16 1.378 . S
C17 C18 1.378 . S
C18 H3 0.940 1_455 S
C18 C17 1.378 . S
C18 C19 1.396 . S
C19 H4 0.940 . S
C19 C14 1.391 . S
C19 C18 1.396 . S
C20 P0 1.803 . S
C20 C21 1.378 . S
C20 C25 1.400 . S
C21 H5 0.939 . S
C21 C20 1.378 . S
C21 C22 1.361 . S
C22 H6 0.942 . S
C22 C21 1.361 . S
C22 C23 1.369 . S
C23 C22 1.369 . S
C23 C24 1.404 . S
C24 H7 0.940 . S
C24 C23 1.404 . S
C24 C25 1.389 . S
C25 H8 0.939 . S
C25 C20 1.400 . S
C25 C24 1.389 . S
C26 P0 1.819 . S
C26 C27 1.391 . S
C26 C31 1.391 . S
C27 H9 0.941 . S
C27 C26 1.391 . S
C27 C28 1.396 . S
C28 H12 0.939 . S
C28 C27 1.396 . S
C28 C29 1.397 . S
C29 C28 1.397 . S
C29 C30 1.385 . S
C30 H13 0.940 . S
C30 C29 1.385 . S
C30 C31 1.388 . S
C31 H10 0.939 . S
C31 C26 1.391 . S
C31 C30 1.388 . S
P32 O43 1.490 . S
P32 C46 1.812 . S
P32 C52 1.803 . S
P32 C58 1.819 . S
H33 C47 0.941 . S
H34 C48 0.939 . S
H35 C50 0.940 . S
H36 C51 0.940 . S
H37 C53 0.939 . S
H38 C54 0.942 . S
H39 C56 0.940 . S
H40 C57 0.939 . S
H41 C59 0.941 . S
H42 C63 0.939 . S
O43 P32 1.490 . S
H44 C60 0.939 . S
H45 C62 0.940 . S
C46 P32 1.812 . S
C46 C47 1.389 . S
C46 C51 1.391 . S
C47 H33 0.941 . S
C47 C46 1.389 . S
C47 C48 1.397 . S
C48 H34 0.939 . S
C48 C47 1.397 . S
C48 C49 1.378 . S
C49 C48 1.378 . S
C49 C50 1.378 . S
C50 H35 0.940 . S
C50 C49 1.378 . S
C50 C51 1.396 . S
C51 H36 0.940 . S
C51 C46 1.391 . S
C51 C50 1.396 . S
C52 P32 1.803 . S
C52 C53 1.378 . S
C52 C57 1.400 . S
C53 H37 0.939 . S
C53 C52 1.378 . S
C53 C54 1.361 . S
C54 H38 0.942 . S
C54 C53 1.361 . S
C54 C55 1.369 . S
C55 C54 1.369 . S
C55 C56 1.404 . S
C56 H39 0.940 . S
C56 C55 1.404 . S
C56 C57 1.389 . S
C57 H40 0.939 . S
C57 C52 1.400 . S
C57 C56 1.389 . S
C58 P32 1.819 . S
C58 C59 1.391 . S
C58 C63 1.391 . S
C59 H41 0.941 . S
C59 C58 1.391 . S
C59 C60 1.396 . S
C60 H44 0.939 . S
C60 C59 1.396 . S
C60 C61 1.397 . S
C61 C60 1.397 . S
C61 C62 1.385 . S
C62 H45 0.940 . S
C62 C61 1.385 . S
C62 C63 1.388 . S
C63 H42 0.939 . S
C63 C58 1.391 . S
C63 C62 1.388 . S
P64 O75 1.490 . S
P64 C78 1.812 . S
P64 C84 1.803 . S
P64 C90 1.819 . S
H65 C79 0.941 . S
H66 C80 0.939 . S
H67 C82 0.940 . S
H68 C83 0.940 . S
H69 C85 0.939 . S
H70 C86 0.942 . S
H71 C88 0.940 . S
H72 C89 0.939 . S
H73 C91 0.941 . S
H74 C95 0.939 . S
O75 P64 1.490 . S
H76 C92 0.939 . S
H77 C94 0.940 . S
C78 P64 1.812 . S
C78 C79 1.389 1_554 S
C78 C83 1.391 . S
C79 H65 0.941 . S
C79 C78 1.389 1_556 S
C79 C80 1.397 . S
C80 H66 0.939 . S
C80 C79 1.397 . S
C80 C81 1.378 1_556 S
C81 C80 1.378 1_554 S
C81 C82 1.378 . S
C82 H67 0.940 . S
C82 C81 1.378 . S
C82 C83 1.396 . S
C83 H68 0.940 . S
C83 C78 1.391 . S
C83 C82 1.396 . S
C84 P64 1.803 . S
C84 C85 1.378 . S
C84 C89 1.400 . S
C85 H69 0.939 . S
C85 C84 1.378 . S
C85 C86 1.361 . S
C86 H70 0.942 . S
C86 C85 1.361 . S
C86 C87 1.369 . S
C87 C86 1.369 . S
C87 C88 1.404 . S
C88 H71 0.940 . S
C88 C87 1.404 . S
C88 C89 1.389 . S
C89 H72 0.939 . S
C89 C84 1.400 . S
C89 C88 1.389 . S
C90 P64 1.819 . S
C90 C91 1.391 1_655 S
C90 C95 1.391 . S
C91 H73 0.941 . S
C91 C90 1.391 1_455 S
C91 C92 1.396 . S
C92 H76 0.939 . S
C92 C91 1.396 . S
C92 C93 1.399 1_455 S
C93 C92 1.399 1_655 S
C93 C94 1.382 . S
C94 H77 0.940 . S
C94 C93 1.382 . S
C94 C95 1.388 . S
C95 H74 0.939 . S
C95 C90 1.391 . S
C95 C94 1.388 . S
P96 O107 1.490 . S
P96 C110 1.812 . S
P96 C116 1.803 . S
P96 C122 1.819 . S
H97 C111 0.941 . S
H98 C112 0.939 . S
H99 C114 0.940 . S
H100 C115 0.940 . S
H101 C117 0.939 . S
H102 C118 0.942 . S
H103 C120 0.940 . S
H104 C121 0.939 . S
H105 C123 0.941 . S
H106 C127 0.939 . S
O107 P96 1.490 . S
H108 C124 0.939 . S
H109 C126 0.940 . S
C110 P96 1.812 . S
C110 C111 1.389 . S
C110 C115 1.391 . S
C111 H97 0.941 . S
C111 C110 1.389 . S
C111 C112 1.397 . S
C112 H98 0.939 . S
C112 C111 1.397 . S
C112 C113 1.378 . S
C113 C112 1.378 . S
C113 C114 1.378 . S
C114 H99 0.940 . S
C114 C113 1.378 . S
C114 C115 1.396 . S
C115 H100 0.940 . S
C115 C110 1.391 . S
C115 C114 1.396 . S
C116 P96 1.803 . S
C116 C117 1.378 . S
C116 C121 1.400 . S
C117 H101 0.939 . S
C117 C116 1.378 . S
C117 C118 1.361 . S
C118 H102 0.942 . S
C118 C117 1.361 . S
C118 C119 1.369 . S
C119 C118 1.369 . S
C119 C120 1.404 . S
C120 H103 0.940 . S
C120 C119 1.404 . S
C120 C121 1.389 . S
C121 H104 0.939 . S
C121 C116 1.400 . S
C121 C120 1.389 . S
C122 P96 1.819 . S
C122 C123 1.391 . S
C122 C127 1.391 . S
C123 H105 0.941 . S
C123 C122 1.391 . S
C123 C124 1.396 . S
C124 H108 0.939 . S
C124 C123 1.396 . S
C124 C125 1.397 . S
C125 C124 1.397 . S
C125 C126 1.385 . S
C126 H109 0.940 . S
C126 C125 1.385 . S
C126 C127 1.388 . S
C127 H106 0.939 . S
C127 C122 1.391 . S
C127 C126 1.388 . S
P128 O139 1.490 . S
P128 C142 1.812 . S
P128 C148 1.803 . S
P128 C154 1.819 . S
H129 C143 0.941 . S
H130 C144 0.939 . S
H131 C146 0.940 . S
H132 C147 0.940 . S
H133 C149 0.939 . S
H134 C150 0.942 . S
H135 C152 0.940 . S
H136 C153 0.939 . S
H137 C155 0.941 . S
H138 C159 0.939 . S
O139 P128 1.490 . S
H140 C156 0.939 . S
H141 C158 0.940 1_655 S
C142 P128 1.812 . S
C142 C143 1.389 . S
C142 C147 1.391 . S
C143 H129 0.941 . S
C143 C142 1.389 . S
C143 C144 1.397 . S
C144 H130 0.939 . S
C144 C143 1.397 . S
C144 C145 1.378 1_565 S
C145 C144 1.378 1_545 S
C145 C146 1.378 . S
C146 H131 0.940 . S
C146 C145 1.378 . S
C146 C147 1.396 1_545 S
C147 H132 0.940 . S
C147 C142 1.391 . S
C147 C146 1.396 1_565 S
C148 P128 1.803 . S
C148 C149 1.378 . S
C148 C153 1.400 . S
C149 H133 0.939 . S
C149 C148 1.378 . S
C149 C150 1.361 . S
C150 H134 0.942 . S
C150 C149 1.361 . S
C150 C151 1.369 . S
C151 C150 1.369 . S
C151 C152 1.404 . S
C152 H135 0.940 . S
C152 C151 1.404 . S
C152 C153 1.389 . S
C153 H136 0.939 . S
C153 C148 1.400 . S
C153 C152 1.389 . S
C154 P128 1.819 . S
C154 C155 1.391 . S
C154 C159 1.391 . S
C155 H137 0.941 . S
C155 C154 1.391 . S
C155 C156 1.396 . S
C156 H140 0.939 . S
C156 C155 1.396 . S
C156 C157 1.397 . S
C157 C156 1.397 . S
C157 C158 1.385 . S
C158 H141 0.940 1_455 S
C158 C157 1.385 . S
C158 C159 1.388 . S
C159 H138 0.939 . S
C159 C154 1.391 . S
C159 C158 1.388 . S
P160 O171 1.490 . S
P160 C174 1.812 . S
P160 C180 1.803 . S
P160 C186 1.819 . S
H161 C175 0.941 . S
H162 C176 0.939 . S
H163 C178 0.940 . S
H164 C179 0.940 . S
H165 C181 0.939 . S
H166 C182 0.942 . S
H167 C184 0.940 . S
H168 C185 0.939 . S
H169 C187 0.941 . S
H170 C191 0.939 . S
O171 P160 1.490 . S
H172 C188 0.939 . S
H173 C190 0.940 . S
C174 P160 1.812 . S
C174 C175 1.389 . S
C174 C179 1.391 . S
C175 H161 0.941 . S
C175 C174 1.389 . S
C175 C176 1.397 . S
C176 H162 0.939 . S
C176 C175 1.397 . S
C176 C177 1.378 . S
C177 C176 1.378 . S
C177 C178 1.378 . S
C178 H163 0.940 . S
C178 C177 1.378 . S
C178 C179 1.396 . S
C179 H164 0.940 . S
C179 C174 1.391 . S
C179 C178 1.396 . S
C180 P160 1.803 . S
C180 C181 1.378 . S
C180 C185 1.400 . S
C181 H165 0.939 . S
C181 C180 1.378 . S
C181 C182 1.361 . S
C182 H166 0.942 . S
C182 C181 1.361 . S
C182 C183 1.369 . S
C183 C182 1.369 . S
C183 C184 1.404 . S
C184 H167 0.940 . S
C184 C183 1.404 . S
C184 C185 1.389 . S
C185 H168 0.939 . S
C185 C180 1.400 . S
C185 C184 1.389 . S
C186 P160 1.819 . S
C186 C187 1.391 . S
C186 C191 1.391 . S
C187 H169 0.941 . S
C187 C186 1.391 . S
C187 C188 1.396 . S
C188 H172 0.939 . S
C188 C187 1.396 . S
C188 C189 1.397 . S
C189 C188 1.397 . S
C189 C190 1.385 . S
C190 H173 0.940 . S
C190 C189 1.385 . S
C190 C191 1.388 . S
C191 H170 0.939 . S
C191 C186 1.391 . S
C191 C190 1.388 . S
P192 O203 1.490 . S
P192 C206 1.812 . S
P192 C212 1.803 . S
P192 C218 1.819 . S
H193 C207 0.941 . S
H194 C208 0.939 . S
H195 C210 0.940 . S
H196 C211 0.940 . S
H197 C213 0.939 . S
H198 C214 0.942 . S
H199 C216 0.940 . S
H200 C217 0.939 . S
H201 C219 0.941 . S
H202 C223 0.939 . S
O203 P192 1.490 . S
H204 C220 0.939 . S
H205 C222 0.940 . S
C206 P192 1.812 . S
C206 C207 1.389 1_655 S
C206 C211 1.391 . S
C207 H193 0.941 . S
C207 C206 1.389 1_455 S
C207 C208 1.397 . S
C208 H194 0.939 . S
C208 C207 1.397 . S
C208 C209 1.378 1_455 S
C209 C208 1.378 1_655 S
C209 C210 1.378 . S
C210 H195 0.940 . S
C210 C209 1.378 . S
C210 C211 1.396 . S
C211 H196 0.940 . S
C211 C206 1.391 . S
C211 C210 1.396 . S
C212 P192 1.803 . S
C212 C213 1.378 . S
C212 C217 1.400 . S
C213 H197 0.939 . S
C213 C212 1.378 . S
C213 C214 1.361 . S
C214 H198 0.942 . S
C214 C213 1.361 . S
C214 C215 1.369 . S
C215 C214 1.369 . S
C215 C216 1.404 . S
C216 H199 0.940 . S
C216 C215 1.404 . S
C216 C217 1.389 . S
C217 H200 0.939 . S
C217 C212 1.400 . S
C217 C216 1.389 . S
C218 P192 1.819 . S
C218 C219 1.391 . S
C218 C223 1.391 . S
C219 H201 0.941 . S
C219 C218 1.391 . S
C219 C220 1.396 . S
C220 H204 0.939 . S
C220 C219 1.396 . S
C220 C221 1.397 . S
C221 C220 1.397 . S
C221 C222 1.385 . S
C222 H205 0.940 . S
C222 C221 1.385 . S
C222 C223 1.388 . S
C223 H202 0.939 . S
C223 C218 1.391 . S
C223 C222 1.388 . S
P224 O235 1.490 . S
P224 C238 1.812 . S
P224 C244 1.803 . S
P224 C250 1.819 . S
H225 C239 0.941 . S
H226 C240 0.939 . S
H227 C242 0.940 . S
H228 C243 0.940 . S
H229 C245 0.939 . S
H230 C246 0.942 . S
H231 C248 0.940 . S
H232 C249 0.939 . S
H233 C251 0.941 . S
H234 C255 0.939 . S
O235 P224 1.490 . S
H236 C252 0.939 . S
H237 C254 0.940 . S
C238 P224 1.812 . S
C238 C239 1.389 . S
C238 C243 1.391 . S
C239 H225 0.941 . S
C239 C238 1.389 . S
C239 C240 1.397 . S
C240 H226 0.939 . S
C240 C239 1.397 . S
C240 C241 1.378 . S
C241 C240 1.378 . S
C241 C242 1.378 . S
C242 H227 0.940 . S
C242 C241 1.378 . S
C242 C243 1.396 . S
C243 H228 0.940 . S
C243 C238 1.391 . S
C243 C242 1.396 . S
C244 P224 1.803 . S
C244 C245 1.378 . S
C244 C249 1.400 . S
C245 H229 0.939 . S
C245 C244 1.378 . S
C245 C246 1.361 . S
C246 H230 0.942 . S
C246 C245 1.361 . S
C246 C247 1.369 . S
C247 C246 1.369 . S
C247 C248 1.404 . S
C248 H231 0.940 . S
C248 C247 1.404 . S
C248 C249 1.389 . S
C249 H232 0.939 . S
C249 C244 1.400 . S
C249 C248 1.389 . S
C250 P224 1.819 . S
C250 C251 1.391 . S
C250 C255 1.391 . S
C251 H233 0.941 . S
C251 C250 1.391 . S
C251 C252 1.396 . S
C252 H236 0.939 . S
C252 C251 1.396 . S
C252 C253 1.397 . S
C253 C252 1.397 . S
C253 C254 1.385 . S
C254 H237 0.940 . S
C254 C253 1.385 . S
C254 C255 1.388 . S
C255 H234 0.939 . S
C255 C250 1.391 . S
C255 C254 1.388 . S
P256 O267 1.490 . S
P256 C270 1.812 . S
P256 C276 1.803 . S
P256 C282 1.819 . S
H257 C271 0.941 . S
H258 C272 0.939 . S
H259 C274 0.940 . S
H260 C275 0.940 . S
H261 C277 0.939 . S
H262 C278 0.942 . S
H263 C280 0.940 . S
H264 C281 0.939 . S
H265 C283 0.941 . S
H266 C287 0.939 . S
O267 P256 1.490 . S
H268 C284 0.939 . S
H269 C286 0.940 . S
C270 P256 1.812 . S
C270 C271 1.389 . S
C270 C275 1.391 . S
C271 H257 0.941 . S
C271 C270 1.389 . S
C271 C272 1.397 . S
C272 H258 0.939 . S
C272 C271 1.397 . S
C272 C273 1.378 . S
C273 C272 1.378 . S
C273 C274 1.378 . S
C274 H259 0.940 . S
C274 C273 1.378 . S
C274 C275 1.396 . S
C275 H260 0.940 . S
C275 C270 1.391 . S
C275 C274 1.396 . S
C276 P256 1.803 . S
C276 C277 1.378 . S
C276 C281 1.400 . S
C277 H261 0.939 . S
C277 C276 1.378 . S
C277 C278 1.361 . S
C278 H262 0.942 . S
C278 C277 1.361 . S
C278 C279 1.369 . S
C279 C278 1.369 . S
C279 C280 1.404 . S
C280 H263 0.940 . S
C280 C279 1.404 . S
C280 C281 1.389 . S
C281 H264 0.939 . S
C281 C276 1.400 . S
C281 C280 1.389 . S
C282 P256 1.819 . S
C282 C283 1.391 . S
C282 C287 1.391 . S
C283 H265 0.941 . S
C283 C282 1.391 . S
C283 C284 1.396 . S
C284 H268 0.939 . S
C284 C283 1.396 . S
C284 C285 1.397 . S
C285 C284 1.397 . S
C285 C286 1.385 . S
C286 H269 0.940 . S
C286 C285 1.385 . S
C286 C287 1.388 . S
C287 H266 0.939 . S
C287 C282 1.391 . S
C287 C286 1.388 . S
P288 O299 1.490 . S
P288 C302 1.812 . S
P288 C308 1.803 . S
P288 C314 1.819 . S
H289 C303 0.941 . S
H290 C304 0.939 . S
H291 C306 0.940 . S
H292 C307 0.940 . S
H293 C309 0.939 . S
H294 C310 0.942 . S
H295 C312 0.940 . S
H296 C313 0.939 . S
H297 C315 0.941 . S
H298 C319 0.939 . S
O299 P288 1.490 . S
H300 C316 0.939 . S
H301 C318 0.940 . S
C302 P288 1.812 . S
C302 C303 1.389 . S
C302 C307 1.391 . S
C303 H289 0.941 . S
C303 C302 1.389 . S
C303 C304 1.397 . S
C304 H290 0.939 . S
C304 C303 1.397 . S
C304 C305 1.378 . S
C305 C304 1.378 . S
C305 C306 1.378 . S
C306 H291 0.940 . S
C306 C305 1.378 . S
C306 C307 1.396 . S
C307 H292 0.940 . S
C307 C302 1.391 . S
C307 C306 1.396 . S
C308 P288 1.803 . S
C308 C309 1.378 1_565 S
C308 C313 1.400 . S
C309 H293 0.939 . S
C309 C308 1.378 1_545 S
C309 C310 1.361 . S
C310 H294 0.942 . S
C310 C309 1.361 . S
C310 C311 1.369 . S
C311 C310 1.369 . S
C311 C312 1.404 1_545 S
C312 H295 0.940 . S
C312 C311 1.404 1_565 S
C312 C313 1.389 . S
C313 H296 0.939 . S
C313 C308 1.400 . S
C313 C312 1.389 . S
C314 P288 1.819 . S
C314 C315 1.391 . S
C314 C319 1.391 . S
C315 H297 0.941 . S
C315 C314 1.391 . S
C315 C316 1.396 . S
C316 H300 0.939 . S
C316 C315 1.396 . S
C316 C317 1.397 . S
C317 C316 1.397 . S
C317 C318 1.385 . S
C318 H301 0.940 . S
C318 C317 1.385 . S
C318 C319 1.388 . S
C319 H298 0.939 . S
C319 C314 1.391 . S
C319 C318 1.388 . S
P320 O331 1.490 . S
P320 C334 1.812 . S
P320 C340 1.803 . S
P320 C346 1.819 . S
H321 C335 0.941 . S
H322 C336 0.939 . S
H323 C338 0.940 . S
H324 C339 0.940 . S
H325 C341 0.939 . S
H326 C342 0.942 . S
H327 C344 0.940 . S
H328 C345 0.939 . S
H329 C347 0.941 . S
H330 C351 0.939 . S
O331 P320 1.490 . S
H332 C348 0.939 . S
H333 C350 0.940 . S
C334 P320 1.812 . S
C334 C335 1.389 . S
C334 C339 1.391 . S
C335 H321 0.941 . S
C335 C334 1.389 . S
C335 C336 1.397 . S
C336 H322 0.939 . S
C336 C335 1.397 . S
C336 C337 1.378 . S
C337 C336 1.378 . S
C337 C338 1.378 . S
C338 H323 0.940 . S
C338 C337 1.378 . S
C338 C339 1.396 . S
C339 H324 0.940 . S
C339 C334 1.391 . S
C339 C338 1.396 . S
C340 P320 1.803 . S
C340 C341 1.378 . S
C340 C345 1.400 . S
C341 H325 0.939 . S
C341 C340 1.378 . S
C341 C342 1.361 . S
C342 H326 0.942 . S
C342 C341 1.361 . S
C342 C343 1.369 . S
C343 C342 1.369 . S
C343 C344 1.404 . S
C344 H327 0.940 . S
C344 C343 1.404 . S
C344 C345 1.389 . S
C345 H328 0.939 . S
C345 C340 1.400 . S
C345 C344 1.389 . S
C346 P320 1.819 . S
C346 C347 1.391 . S
C346 C351 1.391 . S
C347 H329 0.941 . S
C347 C346 1.391 . S
C347 C348 1.396 . S
C348 H332 0.939 . S
C348 C347 1.396 . S
C348 C349 1.397 . S
C349 C348 1.397 . S
C349 C350 1.385 . S
C350 H333 0.940 . S
C350 C349 1.385 . S
C350 C351 1.388 . S
C351 H330 0.939 . S
C351 C346 1.391 . S
C351 C350 1.388 . S
P352 O363 1.490 . S
P352 C366 1.812 . S
P352 C372 1.803 . S
P352 C378 1.819 . S
H353 C367 0.941 . S
H354 C368 0.939 . S
H355 C370 0.940 . S
H356 C371 0.940 . S
H357 C373 0.939 . S
H358 C374 0.942 . S
H359 C376 0.940 . S
H360 C377 0.939 . S
H361 C379 0.941 . S
H362 C383 0.939 . S
O363 P352 1.490 . S
H364 C380 0.939 . S
H365 C382 0.940 . S
C366 P352 1.812 . S
C366 C367 1.389 . S
C366 C371 1.391 . S
C367 H353 0.941 . S
C367 C366 1.389 . S
C367 C368 1.397 . S
C368 H354 0.939 . S
C368 C367 1.397 . S
C368 C369 1.378 . S
C369 C368 1.378 . S
C369 C370 1.378 . S
C370 H355 0.940 . S
C370 C369 1.378 . S
C370 C371 1.396 . S
C371 H356 0.940 . S
C371 C366 1.391 . S
C371 C370 1.396 . S
C372 P352 1.803 . S
C372 C373 1.378 . S
C372 C377 1.400 . S
C373 H357 0.939 . S
C373 C372 1.378 . S
C373 C374 1.361 . S
C374 H358 0.942 . S
C374 C373 1.361 . S
C374 C375 1.369 . S
C375 C374 1.369 . S
C375 C376 1.404 . S
C376 H359 0.940 . S
C376 C375 1.404 . S
C376 C377 1.389 . S
C377 H360 0.939 . S
C377 C372 1.400 . S
C377 C376 1.389 . S
C378 P352 1.819 . S
C378 C379 1.391 . S
C378 C383 1.391 . S
C379 H361 0.941 . S
C379 C378 1.391 . S
C379 C380 1.396 . S
C380 H364 0.939 . S
C380 C379 1.396 . S
C380 C381 1.397 . S
C381 C380 1.397 . S
C381 C382 1.385 . S
C382 H365 0.940 . S
C382 C381 1.385 . S
C382 C383 1.388 . S
C383 H362 0.939 . S
C383 C378 1.391 . S
C383 C382 1.388 . S
P384 O395 1.490 . S
P384 C398 1.812 . S
P384 C404 1.803 . S
P384 C410 1.819 . S
H385 C399 0.941 . S
H386 C400 0.939 . S
H387 C402 0.940 . S
H388 C403 0.940 . S
H389 C405 0.939 . S
H390 C406 0.942 . S
H391 C408 0.940 . S
H392 C409 0.939 . S
H393 C411 0.941 . S
H394 C415 0.939 . S
O395 P384 1.490 . S
H396 C412 0.939 . S
H397 C414 0.940 . S
C398 P384 1.812 . S
C398 C399 1.389 . S
C398 C403 1.391 . S
C399 H385 0.941 . S
C399 C398 1.389 . S
C399 C400 1.397 . S
C400 H386 0.939 . S
C400 C399 1.397 . S
C400 C401 1.378 . S
C401 C400 1.378 . S
C401 C402 1.378 . S
C402 H387 0.940 . S
C402 C401 1.378 . S
C402 C403 1.396 . S
C403 H388 0.940 . S
C403 C398 1.391 . S
C403 C402 1.396 . S
C404 P384 1.803 . S
C404 C405 1.378 . S
C404 C409 1.400 . S
C405 H389 0.939 . S
C405 C404 1.378 . S
C405 C406 1.361 . S
C406 H390 0.942 . S
C406 C405 1.361 . S
C406 C407 1.369 . S
C407 C406 1.369 . S
C407 C408 1.404 . S
C408 H391 0.940 . S
C408 C407 1.404 . S
C408 C409 1.389 . S
C409 H392 0.939 . S
C409 C404 1.400 . S
C409 C408 1.389 . S
C410 P384 1.819 . S
C410 C411 1.391 . S
C410 C415 1.391 . S
C411 H393 0.941 . S
C411 C410 1.391 . S
C411 C412 1.396 . S
C412 H396 0.939 . S
C412 C411 1.396 . S
C412 C413 1.397 . S
C413 C412 1.397 . S
C413 C414 1.385 . S
C414 H397 0.940 . S
C414 C413 1.385 . S
C414 C415 1.388 . S
C415 H394 0.939 . S
C415 C410 1.391 . S
C415 C414 1.388 . S
P416 O427 1.490 . S
P416 C430 1.812 . S
P416 C436 1.803 . S
P416 C442 1.819 . S
H417 C431 0.941 . S
H418 C432 0.939 . S
H419 C434 0.940 . S
H420 C435 0.940 . S
H421 C437 0.939 . S
H422 C438 0.942 . S
H423 C440 0.901 1_554 S
H424 C441 0.939 . S
H425 C443 0.941 . S
H426 C447 0.939 . S
O427 P416 1.490 . S
H428 C444 0.939 . S
H429 C446 0.940 . S
C430 P416 1.812 . S
C430 C431 1.389 . S
C430 C435 1.391 . S
C431 H417 0.941 . S
C431 C430 1.389 . S
C431 C432 1.397 . S
C432 H418 0.939 . S
C432 C431 1.397 . S
C432 C433 1.378 . S
C433 C432 1.378 . S
C433 C434 1.378 . S
C434 H419 0.940 . S
C434 C433 1.378 . S
C434 C435 1.396 . S
C435 H420 0.940 . S
C435 C430 1.391 . S
C435 C434 1.396 . S
C436 P416 1.803 . S
C436 C437 1.378 . S
C436 C441 1.400 . S
C437 H421 0.939 . S
C437 C436 1.378 . S
C437 C438 1.361 . S
C438 H422 0.942 . S
C438 C437 1.361 . S
C438 C439 1.369 . S
C439 C438 1.369 . S
C439 C440 1.409 . S
C440 H423 0.901 1_556 S
C440 C439 1.409 . S
C440 C441 1.425 . S
C441 H424 0.939 . S
C441 C436 1.400 . S
C441 C440 1.425 . S
C442 P416 1.819 . S
C442 C443 1.391 . S
C442 C447 1.391 . S
C443 H425 0.941 . S
C443 C442 1.391 . S
C443 C444 1.396 . S
C444 H428 0.939 . S
C444 C443 1.396 . S
C444 C445 1.397 . S
C445 C444 1.397 . S
C445 C446 1.385 . S
C446 H429 0.940 . S
C446 C445 1.385 . S
C446 C447 1.388 . S
C447 H426 0.939 . S
C447 C442 1.391 . S
C447 C446 1.388 . S
P448 O459 1.490 . S
P448 C462 1.812 . S
P448 C468 1.803 . S
P448 C474 1.819 . S
H449 C463 0.941 . S
H450 C464 0.939 . S
H451 C466 0.940 . S
H452 C467 0.940 . S
H453 C469 0.939 . S
H454 C470 0.942 . S
H455 C472 0.940 . S
H456 C473 0.939 . S
H457 C475 0.941 . S
H458 C479 0.939 . S
O459 P448 1.490 . S
H460 C476 0.939 . S
H461 C478 0.940 . S
C462 P448 1.812 . S
C462 C463 1.389 . S
C462 C467 1.391 . S
C463 H449 0.941 . S
C463 C462 1.389 . S
C463 C464 1.397 . S
C464 H450 0.939 . S
C464 C463 1.397 . S
C464 C465 1.378 . S
C465 C464 1.378 . S
C465 C466 1.378 . S
C466 H451 0.940 . S
C466 C465 1.378 . S
C466 C467 1.396 . S
C467 H452 0.940 . S
C467 C462 1.391 . S
C467 C466 1.396 . S
C468 P448 1.803 . S
C468 C469 1.378 . S
C468 C473 1.400 . S
C469 H453 0.939 . S
C469 C468 1.378 . S
C469 C470 1.361 . S
C470 H454 0.942 . S
C470 C469 1.361 . S
C470 C471 1.369 . S
C471 C470 1.369 . S
C471 C472 1.404 . S
C472 H455 0.940 . S
C472 C471 1.404 . S
C472 C473 1.389 . S
C473 H456 0.939 . S
C473 C468 1.400 . S
C473 C472 1.389 . S
C474 P448 1.819 . S
C474 C475 1.391 . S
C474 C479 1.391 . S
C475 H457 0.941 . S
C475 C474 1.391 . S
C475 C476 1.396 . S
C476 H460 0.939 . S
C476 C475 1.396 . S
C476 C477 1.397 . S
C477 C476 1.397 . S
C477 C478 1.385 . S
C478 H461 0.940 . S
C478 C477 1.385 . S
C478 C479 1.388 . S
C479 H458 0.939 . S
C479 C474 1.391 . S
C479 C478 1.388 . S
P480 O491 1.490 . S
P480 C494 1.812 . S
P480 C500 1.803 . S
P480 C506 1.819 . S
H481 C495 0.941 . S
H482 C496 0.939 . S
H483 C498 0.940 . S
H484 C499 0.940 . S
H485 C501 0.939 . S
H486 C502 0.942 . S
H487 C504 0.940 . S
H488 C505 0.939 . S
H489 C507 0.941 1_565 S
H490 C511 0.939 . S
O491 P480 1.490 . S
H492 C508 0.939 . S
H493 C510 0.940 . S
C494 P480 1.812 . S
C494 C495 1.389 . S
C494 C499 1.391 . S
C495 H481 0.941 . S
C495 C494 1.389 . S
C495 C496 1.397 . S
C496 H482 0.939 . S
C496 C495 1.397 . S
C496 C497 1.378 . S
C497 C496 1.378 . S
C497 C498 1.378 . S
C498 H483 0.940 . S
C498 C497 1.378 . S
C498 C499 1.396 . S
C499 H484 0.940 . S
C499 C494 1.391 . S
C499 C498 1.396 . S
C500 P480 1.803 . S
C500 C501 1.378 1_556 S
C500 C505 1.400 . S
C501 H485 0.939 . S
C501 C500 1.378 1_554 S
C501 C502 1.361 . S
C502 H486 0.942 . S
C502 C501 1.361 . S
C502 C503 1.369 . S
C503 C502 1.369 . S
C503 C504 1.404 1_554 S
C504 H487 0.940 . S
C504 C503 1.404 1_556 S
C504 C505 1.389 . S
C505 H488 0.939 . S
C505 C500 1.400 . S
C505 C504 1.389 . S
C506 P480 1.819 . S
C506 C507 1.391 . S
C506 C511 1.391 . S
C507 H489 0.941 1_545 S
C507 C506 1.391 . S
C507 C508 1.396 1_545 S
C508 H492 0.939 . S
C508 C507 1.396 1_565 S
C508 C509 1.397 1_565 S
C509 C508 1.397 1_545 S
C509 C510 1.385 . S
C510 H493 0.940 . S
C510 C509 1.385 . S
C510 C511 1.388 . S
C511 H490 0.939 . S
C511 C506 1.391 . S
C511 C510 1.388 . S
C512 O513 1.160 1_554 S
C512 O519 1.185 . S
O513 C512 1.160 1_556 S
O514 Zn515 1.899 1_556 S
O514 C522 1.284 . S
Zn515 O514 1.899 1_554 S
Zn515 O516 2.032 . S
Zn515 O519 2.086 . S
Zn515 O524 1.977 . S
O516 Zn515 2.032 . S
O516 C520 1.278 . S
C517 O518 1.203 . S
C517 O524 1.267 . S
O518 C517 1.203 . S
O519 C512 1.185 . S
O519 Zn515 2.086 . S
C520 O516 1.278 . S
C520 O521 1.211 . S
O521 C520 1.211 . S
C522 O514 1.284 . S
C522 O523 1.273 . S
O523 C522 1.273 . S
O524 Zn515 1.977 . S
O524 C517 1.267 . S
C525 O526 1.160 . S
C525 O532 1.185 . S
O526 C525 1.160 . S
O527 Zn528 1.899 . S
O527 C535 1.284 . S
Zn528 O527 1.899 . S
Zn528 O529 2.032 . S
Zn528 O532 2.086 . S
Zn528 O537 1.977 . S
O529 Zn528 2.032 . S
O529 C533 1.278 . S
C530 O531 1.203 . S
C530 O537 1.267 . S
O531 C530 1.203 . S
O532 C525 1.185 . S
O532 Zn528 2.086 . S
C533 O529 1.278 . S
C533 O534 1.211 . S
O534 C533 1.211 . S
C535 O527 1.284 . S
C535 O536 1.273 . S
O536 C535 1.273 . S
O537 Zn528 1.977 . S
O537 C530 1.267 . S
C538 O539 1.160 1_554 S
C538 O545 1.185 . S
O539 C538 1.160 1_556 S
O540 Zn541 1.899 1_556 S
O540 C548 1.284 . S
Zn541 O540 1.899 1_554 S
Zn541 O542 2.032 1_554 S
Zn541 O545 2.086 . S
Zn541 O550 1.977 . S
O542 Zn541 2.032 1_556 S
O542 C546 1.278 1_556 S
C543 O544 1.203 . S
C543 O550 1.267 . S
O544 C543 1.203 . S
O545 C538 1.185 . S
O545 Zn541 2.086 . S
C546 O542 1.278 1_554 S
C546 O547 1.209 . S
O547 C546 1.209 . S
C548 O540 1.284 . S
C548 O549 1.273 . S
O549 C548 1.273 . S
O550 Zn541 1.977 . S
O550 C543 1.267 . S
C551 O552 1.160 . S
C551 O558 1.185 . S
O552 C551 1.160 . S
O553 Zn554 1.899 . S
O553 C561 1.284 . S
Zn554 O553 1.899 . S
Zn554 O555 2.032 . S
Zn554 O558 2.086 . S
Zn554 O563 1.977 . S
O555 Zn554 2.032 . S
O555 C559 1.278 1_545 S
C556 O557 1.203 . S
C556 O563 1.267 . S
O557 C556 1.203 . S
O558 C551 1.185 . S
O558 Zn554 2.086 . S
C559 O555 1.278 1_565 S
C559 O560 1.211 . S
O560 C559 1.211 . S
C561 O553 1.284 . S
C561 O562 1.273 1_545 S
O562 C561 1.273 1_565 S
O563 Zn554 1.977 . S
O563 C556 1.267 . S
C564 O565 1.160 . S
C564 O571 1.185 . S
O565 C564 1.160 . S
O566 Zn567 1.899 . S
O566 C574 1.284 . S
Zn567 O566 1.899 . S
Zn567 O568 2.032 . S
Zn567 O571 2.086 . S
Zn567 O576 1.977 . S
O568 Zn567 2.032 . S
O568 C572 1.278 . S
C569 O570 1.203 . S
C569 O576 1.267 . S
O570 C569 1.203 . S
O571 C564 1.185 . S
O571 Zn567 2.086 . S
C572 O568 1.278 . S
C572 O573 1.211 . S
O573 C572 1.211 . S
C574 O566 1.284 . S
C574 O575 1.273 . S
O575 C574 1.273 . S
O576 Zn567 1.977 . S
O576 C569 1.267 . S
C577 O578 1.160 . S
C577 O584 1.185 . S
O578 C577 1.160 . S
O579 Zn580 1.899 . S
O579 C587 1.284 . S
Zn580 O579 1.899 . S
Zn580 O581 2.032 . S
Zn580 O584 2.086 . S
Zn580 O589 1.977 . S
O581 Zn580 2.032 . S
O581 C585 1.278 . S
C582 O583 1.203 . S
C582 O589 1.267 . S
O583 C582 1.203 . S
O584 C577 1.185 . S
O584 Zn580 2.086 . S
C585 O581 1.278 . S
C585 O586 1.211 . S
O586 C585 1.211 . S
C587 O579 1.284 . S
C587 O588 1.273 . S
O588 C587 1.273 . S
O589 Zn580 1.977 . S
O589 C582 1.267 . S
C590 O591 1.160 . S
C590 O597 1.185 . S
O591 C590 1.160 . S
O592 Zn593 1.899 . S
O592 C600 1.284 . S
Zn593 O592 1.899 . S
Zn593 O594 2.032 . S
Zn593 O597 2.086 . S
Zn593 O602 1.977 . S
O594 Zn593 2.032 . S
O594 C598 1.278 . S
C595 O596 1.203 . S
C595 O602 1.267 . S
O596 C595 1.203 . S
O597 C590 1.185 . S
O597 Zn593 2.086 . S
C598 O594 1.278 . S
C598 O599 1.211 . S
O599 C598 1.211 . S
C600 O592 1.284 . S
C600 O601 1.273 . S
O601 C600 1.273 . S
O602 Zn593 1.977 . S
O602 C595 1.267 . S
C603 O604 1.160 . S
C603 O610 1.185 . S
O604 C603 1.160 . S
O605 Zn606 1.899 . S
O605 C613 1.284 1_565 S
Zn606 O605 1.899 . S
Zn606 O607 2.032 1_565 S
Zn606 O610 2.086 . S
Zn606 O615 1.977 . S
O607 Zn606 2.032 1_545 S
O607 C611 1.278 . S
C608 O609 1.168 1_565 S
C608 O615 1.296 . S
O609 C608 1.168 1_545 S
O610 C603 1.185 . S
O610 Zn606 2.086 . S
C611 O607 1.278 . S
C611 O612 1.211 . S
O612 C611 1.211 . S
C613 O605 1.284 1_545 S
C613 O614 1.273 . S
O614 C613 1.273 . S
O615 Zn606 1.977 . S
O615 C608 1.296 . S
C616 O617 1.160 1_455 S
C616 O623 1.185 . S
O617 C616 1.160 1_655 S
O618 Zn619 1.899 1_655 S
O618 C626 1.284 . S
Zn619 O618 1.899 1_455 S
Zn619 O620 2.032 . S
Zn619 O623 2.086 . S
Zn619 O628 1.977 . S
O620 Zn619 2.032 . S
O620 C624 1.278 . S
C621 O622 1.203 . S
C621 O628 1.267 . S
O622 C621 1.203 . S
O623 C616 1.185 . S
O623 Zn619 2.086 . S
C624 O620 1.278 . S
C624 O625 1.211 . S
O625 C624 1.211 . S
C626 O618 1.284 . S
C626 O627 1.273 . S
O627 C626 1.273 . S
O628 Zn619 1.977 . S
O628 C621 1.267 . S
C629 O630 1.160 . S
C629 O636 1.185 . S
O630 C629 1.160 . S
O631 Zn632 1.899 . S
O631 C639 1.284 . S
Zn632 O631 1.899 . S
Zn632 O633 2.032 . S
Zn632 O636 2.086 . S
Zn632 O641 1.977 . S
O633 Zn632 2.032 . S
O633 C637 1.278 . S
C634 O635 1.203 . S
C634 O641 1.267 . S
O635 C634 1.203 . S
O636 C629 1.185 . S
O636 Zn632 2.086 . S
C637 O633 1.278 . S
C637 O638 1.211 . S
O638 C637 1.211 . S
C639 O631 1.284 . S
C639 O640 1.273 . S
O640 C639 1.273 . S
O641 Zn632 1.977 . S
O641 C634 1.267 . S
C642 O643 1.160 1_455 S
C642 O649 1.185 . S
O643 C642 1.160 1_655 S
O644 Zn645 1.899 1_655 S
O644 C652 1.284 . S
Zn645 O644 1.899 1_455 S
Zn645 O646 2.032 1_455 S
Zn645 O649 2.086 . S
Zn645 O654 1.977 . S
O646 Zn645 2.032 1_655 S
O646 C650 1.278 . S
C647 O648 1.203 . S
C647 O654 1.267 . S
O648 C647 1.203 . S
O649 C642 1.185 . S
O649 Zn645 2.086 . S
C650 O646 1.278 . S
C650 O651 1.211 1_655 S
O651 C650 1.211 1_455 S
C652 O644 1.284 . S
C652 O653 1.273 . S
O653 C652 1.273 . S
O654 Zn645 1.977 . S
O654 C647 1.267 . S
C655 O656 1.160 . S
C655 O662 1.185 . S
O656 C655 1.160 . S
O657 Zn658 1.899 . S
O657 C665 1.284 . S
Zn658 O657 1.899 . S
Zn658 O659 2.032 . S
Zn658 O662 2.086 . S
Zn658 O667 1.977 . S
O659 Zn658 2.032 . S
O659 C663 1.278 . S
C660 O661 1.203 . S
C660 O667 1.267 . S
O661 C660 1.203 . S
O662 C655 1.185 . S
O662 Zn658 2.086 . S
C663 O659 1.278 . S
C663 O664 1.211 . S
O664 C663 1.211 . S
C665 O657 1.284 . S
C665 O666 1.273 . S
O666 C665 1.273 . S
O667 Zn658 1.977 . S
O667 C660 1.267 . S
H668 C686 0.951 . S
H669 C688 0.951 . S
H670 C690 0.950 . S
H671 C691 0.950 . S
H672 C693 0.950 . S
H673 C696 0.950 . S
H674 C697 0.950 . S
H675 C699 0.950 . S
H676 C700 0.950 . S
H677 C701 0.951 . S
H678 C703 0.951 . S
H679 C705 0.950 . S
H680 C706 0.950 . S
H681 C708 0.950 . S
H682 C711 0.950 . S
H683 C712 0.950 . S
H684 C714 0.950 . S
H685 C715 0.950 . S
C686 H668 0.951 . S
C686 C687 1.366 . S
C686 C688 1.388 . S
C687 C686 1.366 . S
C687 C691 1.385 . S
C688 H669 0.951 . S
C688 C686 1.388 . S
C688 C689 1.366 . S
C689 C688 1.366 . S
C689 C690 1.414 . S
C689 C692 1.499 . S
C690 H670 0.950 . S
C690 C689 1.414 . S
C690 C691 1.374 . S
C691 H671 0.950 . S
C691 C687 1.385 . S
C691 C690 1.374 . S
C692 C689 1.499 . S
C692 C693 1.373 . S
C692 C694 1.389 . S
C693 H672 0.950 . S
C693 C692 1.373 . S
C693 C709 1.377 . S
C694 C692 1.389 . S
C694 C695 1.524 . S
C694 C708 1.377 . S
C695 C694 1.524 . S
C695 C696 1.397 . S
C695 C700 1.363 . S
C696 H673 0.950 . S
C696 C695 1.397 . S
C696 C697 1.334 . S
C697 H674 0.950 . S
C697 C696 1.334 . S
C697 C698 1.287 . S
C698 C697 1.287 . S
C698 C699 1.524 . S
C698 H717 0.913 . S
C699 H675 0.950 . S
C699 C698 1.524 . S
C699 C700 1.415 . S
C700 H676 0.950 . S
C700 C695 1.363 . S
C700 C699 1.415 . S
C701 H677 0.951 . S
C701 C702 1.366 . S
C701 C703 1.388 . S
C702 C701 1.366 . S
C702 C706 1.385 . S
C703 H678 0.951 . S
C703 C701 1.388 . S
C703 C704 1.366 . S
C704 C703 1.366 . S
C704 C705 1.414 . S
C704 C707 1.499 . S
C705 H679 0.950 . S
C705 C704 1.414 . S
C705 C706 1.374 . S
C706 H680 0.950 . S
C706 C702 1.385 . S
C706 C705 1.374 . S
C707 C704 1.499 . S
C707 C708 1.373 . S
C707 C709 1.389 . S
C708 H681 0.950 . S
C708 C694 1.377 . S
C708 C707 1.373 . S
C709 C693 1.377 . S
C709 C707 1.389 . S
C709 C710 1.524 . S
C710 C709 1.524 . S
C710 C711 1.397 . S
C710 C715 1.363 . S
C711 H682 0.950 . S
C711 C710 1.397 . S
C711 C712 1.334 . S
C712 H683 0.950 . S
C712 C711 1.334 . S
C712 C713 1.287 . S
C713 C712 1.287 . S
C713 C714 1.524 . S
C713 H716 0.999 . S
C714 H684 0.950 . S
C714 C713 1.524 . S
C714 C715 1.415 . S
C715 H685 0.950 . S
C715 C710 1.363 . S
C715 C714 1.415 . S
H716 C713 0.999 . S
H717 C698 0.913 . S
H718 C736 0.951 . S
H719 C738 0.951 . S
H720 C740 0.950 . S
H721 C741 0.950 . S
H722 C743 0.950 . S
H723 C746 0.950 . S
H724 C747 0.950 . S
H725 C749 0.950 . S
H726 C750 0.950 . S
H727 C751 0.951 . S
H728 C753 0.951 . S
H729 C755 0.950 . S
H730 C756 0.950 . S
H731 C758 0.950 . S
H732 C761 0.950 . S
H733 C762 0.950 . S
H734 C764 0.950 . S
H735 C765 0.950 . S
C736 H718 0.951 . S
C736 C737 1.366 . S
C736 C738 1.388 . S
C737 C736 1.366 . S
C737 C741 1.385 . S
C738 H719 0.951 . S
C738 C736 1.388 . S
C738 C739 1.366 . S
C739 C738 1.366 . S
C739 C740 1.414 . S
C739 C742 1.499 . S
C740 H720 0.950 . S
C740 C739 1.414 . S
C740 C741 1.374 . S
C741 H721 0.950 . S
C741 C737 1.385 . S
C741 C740 1.374 . S
C742 C739 1.499 . S
C742 C743 1.373 . S
C742 C744 1.389 . S
C743 H722 0.950 . S
C743 C742 1.373 . S
C743 C759 1.377 . S
C744 C742 1.389 . S
C744 C745 1.524 . S
C744 C758 1.377 . S
C745 C744 1.524 . S
C745 C746 1.397 . S
C745 C750 1.363 . S
C746 H723 0.950 . S
C746 C745 1.397 . S
C746 C747 1.334 1_455 S
C747 H724 0.950 . S
C747 C746 1.334 1_655 S
C747 C748 1.287 . S
C748 C747 1.287 . S
C748 C749 1.524 1_655 S
C748 H767 0.913 . S
C749 H725 0.950 . S
C749 C748 1.524 1_455 S
C749 C750 1.415 . S
C750 H726 0.950 . S
C750 C745 1.363 . S
C750 C749 1.415 . S
C751 H727 0.951 . S
C751 C752 1.366 . S
C751 C753 1.388 . S
C752 C751 1.366 . S
C752 C756 1.385 . S
C753 H728 0.951 . S
C753 C751 1.388 . S
C753 C754 1.366 . S
C754 C753 1.366 . S
C754 C755 1.414 . S
C754 C757 1.499 . S
C755 H729 0.950 . S
C755 C754 1.414 . S
C755 C756 1.374 . S
C756 H730 0.950 . S
C756 C752 1.385 . S
C756 C755 1.374 . S
C757 C754 1.499 . S
C757 C758 1.373 . S
C757 C759 1.389 . S
C758 H731 0.950 . S
C758 C744 1.377 . S
C758 C757 1.373 . S
C759 C743 1.377 . S
C759 C757 1.389 . S
C759 C760 1.524 . S
C760 C759 1.524 . S
C760 C761 1.397 . S
C760 C765 1.363 . S
C761 H732 0.950 . S
C761 C760 1.397 . S
C761 C762 1.334 . S
C762 H733 0.950 . S
C762 C761 1.334 . S
C762 C763 1.287 . S
C763 C762 1.287 . S
C763 C764 1.524 . S
C763 H766 0.999 . S
C764 H734 0.950 . S
C764 C763 1.524 . S
C764 C765 1.415 . S
C765 H735 0.950 . S
C765 C760 1.363 . S
C765 C764 1.415 . S
H766 C763 0.999 . S
H767 C748 0.913 . S
H768 C786 0.951 . S
H769 C788 0.951 . S
H770 C790 0.950 . S
H771 C791 0.950 . S
H772 C793 0.950 . S
H773 C796 0.950 . S
H774 C797 0.950 . S
H775 C799 0.950 . S
H776 C800 0.950 . S
H777 C801 0.951 . S
H778 C803 0.951 . S
H779 C805 0.950 . S
H780 C806 0.950 . S
H781 C808 0.950 . S
H782 C811 0.950 . S
H783 C812 0.950 . S
H784 C814 0.950 . S
H785 C815 0.950 . S
C786 H768 0.951 . S
C786 C787 1.366 . S
C786 C788 1.388 . S
C787 C786 1.366 . S
C787 C791 1.385 . S
C788 H769 0.951 . S
C788 C786 1.388 . S
C788 C789 1.366 . S
C789 C788 1.366 . S
C789 C790 1.414 . S
C789 C792 1.499 . S
C790 H770 0.950 . S
C790 C789 1.414 . S
C790 C791 1.374 . S
C791 H771 0.950 . S
C791 C787 1.385 . S
C791 C790 1.374 . S
C792 C789 1.499 . S
C792 C793 1.373 . S
C792 C794 1.389 . S
C793 H772 0.950 . S
C793 C792 1.373 . S
C793 C809 1.377 . S
C794 C792 1.389 . S
C794 C795 1.524 . S
C794 C808 1.377 . S
C795 C794 1.524 . S
C795 C796 1.397 . S
C795 C800 1.363 . S
C796 H773 0.950 . S
C796 C795 1.397 . S
C796 C797 1.334 . S
C797 H774 0.950 . S
C797 C796 1.334 . S
C797 C798 1.287 . S
C798 C797 1.287 . S
C798 C799 1.524 . S
C798 H817 0.913 . S
C799 H775 0.950 . S
C799 C798 1.524 . S
C799 C800 1.415 . S
C800 H776 0.950 . S
C800 C795 1.363 . S
C800 C799 1.415 . S
C801 H777 0.951 . S
C801 C802 1.366 . S
C801 C803 1.388 . S
C802 C801 1.366 . S
C802 C806 1.385 . S
C803 H778 0.951 . S
C803 C801 1.388 . S
C803 C804 1.366 . S
C804 C803 1.366 . S
C804 C805 1.414 . S
C804 C807 1.499 . S
C805 H779 0.950 . S
C805 C804 1.414 . S
C805 C806 1.374 . S
C806 H780 0.950 . S
C806 C802 1.385 . S
C806 C805 1.374 . S
C807 C804 1.499 . S
C807 C808 1.373 . S
C807 C809 1.389 . S
C808 H781 0.950 . S
C808 C794 1.377 . S
C808 C807 1.373 . S
C809 C793 1.377 . S
C809 C807 1.389 . S
C809 C810 1.524 . S
C810 C809 1.524 . S
C810 C811 1.397 . S
C810 C815 1.363 . S
C811 H782 0.950 . S
C811 C810 1.397 . S
C811 C812 1.334 . S
C812 H783 0.950 . S
C812 C811 1.334 . S
C812 C813 1.287 . S
C813 C812 1.287 . S
C813 C814 1.524 . S
C813 H816 0.999 . S
C814 H784 0.950 . S
C814 C813 1.524 . S
C814 C815 1.415 . S
C815 H785 0.950 . S
C815 C810 1.363 . S
C815 C814 1.415 . S
H816 C813 0.999 . S
H817 C798 0.913 . S
H818 C836 0.951 . S
H819 C838 0.951 . S
H820 C840 0.950 . S
H821 C841 0.955 1_545 S
H822 C843 0.950 . S
H823 C846 0.950 . S
H824 C847 0.950 . S
H825 C849 0.950 . S
H826 C850 0.950 . S
H827 C851 0.951 . S
H828 C853 0.951 . S
H829 C855 0.950 . S
H830 C856 0.950 . S
H831 C858 0.950 . S
H832 C861 0.900 1_565 S
H833 C862 0.950 . S
H834 C864 0.950 . S
H835 C865 0.950 . S
C836 H818 0.951 . S
C836 C837 1.366 . S
C836 C838 1.388 . S
C837 C836 1.366 . S
C837 C841 1.379 . S
C838 H819 0.951 . S
C838 C836 1.388 . S
C838 C839 1.366 . S
C839 C838 1.366 . S
C839 C840 1.414 1_565 S
C839 C842 1.499 . S
C840 H820 0.950 . S
C840 C839 1.414 1_545 S
C840 C841 1.375 1_545 S
C841 H821 0.955 1_565 S
C841 C837 1.379 . S
C841 C840 1.375 1_565 S
C842 C839 1.499 . S
C842 C843 1.373 1_565 S
C842 C844 1.389 . S
C843 H822 0.950 . S
C843 C842 1.373 1_545 S
C843 C859 1.377 . S
C844 C842 1.389 . S
C844 C845 1.524 . S
C844 C858 1.377 . S
C845 C844 1.524 . S
C845 C846 1.397 . S
C845 C850 1.363 . S
C846 H823 0.950 . S
C846 C845 1.397 . S
C846 C847 1.334 1_655 S
C847 H824 0.950 . S
C847 C846 1.334 1_455 S
C847 C848 1.287 . S
C848 C847 1.287 . S
C848 C849 1.524 1_455 S
C848 H867 0.913 . S
C849 H825 0.950 . S
C849 C848 1.524 1_655 S
C849 C850 1.415 . S
C850 H826 0.950 . S
C850 C845 1.363 . S
C850 C849 1.415 . S
C851 H827 0.951 . S
C851 C852 1.366 . S
C851 C853 1.388 . S
C852 C851 1.366 . S
C852 C856 1.385 1_545 S
C853 H828 0.951 . S
C853 C851 1.388 . S
C853 C854 1.419 . S
C854 C853 1.419 . S
C854 C855 1.373 1_545 S
C854 C857 1.487 1_545 S
C855 H829 0.950 . S
C855 C854 1.373 1_565 S
C855 C856 1.374 . S
C856 H830 0.950 . S
C856 C852 1.385 1_565 S
C856 C855 1.374 . S
C857 C854 1.487 1_565 S
C857 C858 1.373 . S
C857 C859 1.389 1_565 S
C858 H831 0.950 . S
C858 C844 1.377 . S
C858 C857 1.373 . S
C859 C843 1.377 . S
C859 C857 1.389 1_545 S
C859 C860 1.524 . S
C860 C859 1.524 . S
C860 C861 1.397 . S
C860 C865 1.363 . S
C861 H832 0.900 1_545 S
C861 C860 1.397 . S
C861 C862 1.334 . S
C862 H833 0.950 . S
C862 C861 1.334 . S
C862 C863 1.287 . S
C863 C862 1.287 . S
C863 C864 1.524 . S
C863 H866 0.999 . S
C864 H834 0.950 . S
C864 C863 1.524 . S
C864 C865 1.415 . S
C865 H835 0.950 . S
C865 C860 1.363 . S
C865 C864 1.415 . S
H866 C863 0.999 . S
H867 C848 0.913 . S
H868 C886 0.951 . S
H869 C888 0.951 . S
H870 C890 0.950 . S
H871 C891 0.950 . S
H872 C893 0.950 . S
H873 C896 0.950 . S
H874 C897 0.950 . S
H875 C899 0.950 . S
H876 C900 0.950 . S
H877 C901 0.951 . S
H878 C903 0.951 . S
H879 C905 0.950 . S
H880 C906 0.950 . S
H881 C908 0.950 . S
H882 C911 0.950 . S
H883 C912 0.950 . S
H884 C914 0.950 . S
H885 C915 0.950 . S
C886 H868 0.951 . S
C886 C887 1.366 . S
C886 C888 1.388 . S
C887 C886 1.366 . S
C887 C891 1.385 . S
C888 H869 0.951 . S
C888 C886 1.388 . S
C888 C889 1.366 . S
C889 C888 1.366 . S
C889 C890 1.414 . S
C889 C892 1.499 . S
C890 H870 0.950 . S
C890 C889 1.414 . S
C890 C891 1.374 . S
C891 H871 0.950 . S
C891 C887 1.385 . S
C891 C890 1.374 . S
C892 C889 1.499 . S
C892 C893 1.373 . S
C892 C894 1.389 . S
C893 H872 0.950 . S
C893 C892 1.373 . S
C893 C909 1.377 . S
C894 C892 1.389 . S
C894 C895 1.524 . S
C894 C908 1.377 . S
C895 C894 1.524 . S
C895 C896 1.397 . S
C895 C900 1.363 . S
C896 H873 0.950 . S
C896 C895 1.397 . S
C896 C897 1.334 . S
C897 H874 0.950 . S
C897 C896 1.334 . S
C897 C898 1.287 . S
C898 C897 1.287 . S
C898 C899 1.524 . S
C898 H917 0.913 . S
C899 H875 0.950 . S
C899 C898 1.524 . S
C899 C900 1.415 . S
C900 H876 0.950 . S
C900 C895 1.363 . S
C900 C899 1.415 . S
C901 H877 0.951 . S
C901 C902 1.366 . S
C901 C903 1.388 . S
C902 C901 1.366 . S
C902 C906 1.385 . S
C903 H878 0.951 . S
C903 C901 1.388 . S
C903 C904 1.366 . S
C904 C903 1.366 . S
C904 C905 1.414 . S
C904 C907 1.499 . S
C905 H879 0.950 . S
C905 C904 1.414 . S
C905 C906 1.374 . S
C906 H880 0.950 . S
C906 C902 1.385 . S
C906 C905 1.374 . S
C907 C904 1.499 . S
C907 C908 1.373 . S
C907 C909 1.389 . S
C908 H881 0.950 . S
C908 C894 1.377 . S
C908 C907 1.373 . S
C909 C893 1.377 . S
C909 C907 1.389 . S
C909 C910 1.524 . S
C910 C909 1.524 . S
C910 C911 1.397 . S
C910 C915 1.363 . S
C911 H882 0.950 . S
C911 C910 1.397 . S
C911 C912 1.334 . S
C912 H883 0.950 . S
C912 C911 1.334 . S
C912 C913 1.287 . S
C913 C912 1.287 . S
C913 C914 1.524 . S
C913 H916 0.999 . S
C914 H884 0.950 . S
C914 C913 1.524 . S
C914 C915 1.415 . S
C915 H885 0.950 . S
C915 C910 1.363 . S
C915 C914 1.415 . S
H916 C913 0.999 . S
H917 C898 0.913 . S
H918 C936 0.951 . S
H919 C938 0.951 . S
H920 C940 0.950 . S
H921 C941 0.950 . S
H922 C943 0.950 . S
H923 C946 0.950 . S
H924 C947 0.950 . S
H925 C949 0.950 . S
H926 C950 0.950 . S
H927 C951 0.951 . S
H928 C953 0.951 . S
H929 C955 0.950 . S
H930 C956 0.950 . S
H931 C958 0.950 . S
H932 C961 0.950 . S
H933 C962 0.950 . S
H934 C964 0.950 . S
H935 C965 0.950 . S
C936 H918 0.951 . S
C936 C937 1.366 . S
C936 C938 1.388 . S
C937 C936 1.366 . S
C937 C941 1.385 . S
C938 H919 0.951 . S
C938 C936 1.388 . S
C938 C939 1.366 . S
C939 C938 1.366 . S
C939 C940 1.414 . S
C939 C942 1.499 . S
C940 H920 0.950 . S
C940 C939 1.414 . S
C940 C941 1.374 . S
C941 H921 0.950 . S
C941 C937 1.385 . S
C941 C940 1.374 . S
C942 C939 1.499 . S
C942 C943 1.373 . S
C942 C944 1.389 . S
C943 H922 0.950 . S
C943 C942 1.373 . S
C943 C959 1.377 . S
C944 C942 1.389 . S
C944 C945 1.524 . S
C944 C958 1.377 . S
C945 C944 1.524 . S
C945 C946 1.397 . S
C945 C950 1.363 . S
C946 H923 0.950 . S
C946 C945 1.397 . S
C946 C947 1.334 . S
C947 H924 0.950 . S
C947 C946 1.334 . S
C947 C948 1.287 . S
C948 C947 1.287 . S
C948 C949 1.524 . S
C948 H967 0.913 . S
C949 H925 0.950 . S
C949 C948 1.524 . S
C949 C950 1.415 . S
C950 H926 0.950 . S
C950 C945 1.363 . S
C950 C949 1.415 . S
C951 H927 0.951 . S
C951 C952 1.366 . S
C951 C953 1.388 . S
C952 C951 1.366 . S
C952 C956 1.385 . S
C953 H928 0.951 . S
C953 C951 1.388 . S
C953 C954 1.366 . S
C954 C953 1.366 . S
C954 C955 1.414 . S
C954 C957 1.499 . S
C955 H929 0.950 . S
C955 C954 1.414 . S
C955 C956 1.374 . S
C956 H930 0.950 . S
C956 C952 1.385 . S
C956 C955 1.374 . S
C957 C954 1.499 . S
C957 C958 1.373 . S
C957 C959 1.389 . S
C958 H931 0.950 . S
C958 C944 1.377 . S
C958 C957 1.373 . S
C959 C943 1.377 . S
C959 C957 1.389 . S
C959 C960 1.524 . S
C960 C959 1.524 . S
C960 C961 1.397 . S
C960 C965 1.363 . S
C961 H932 0.950 . S
C961 C960 1.397 . S
C961 C962 1.334 . S
C962 H933 0.950 . S
C962 C961 1.334 . S
C962 C963 1.287 . S
C963 C962 1.287 . S
C963 C964 1.524 . S
C963 H966 0.999 . S
C964 H934 0.950 . S
C964 C963 1.524 . S
C964 C965 1.415 . S
C965 H935 0.950 . S
C965 C960 1.363 . S
C965 C964 1.415 . S
H966 C963 0.999 . S
H967 C948 0.913 . S
H968 C986 0.951 . S
H969 C988 0.951 . S
H970 C990 0.950 . S
H971 C991 0.950 . S
H972 C993 0.950 . S
H973 C996 0.950 . S
H974 C997 0.950 . S
H975 C999 0.950 . S
H976 C1000 0.950 . S
H977 C1001 0.951 . S
H978 C1003 0.951 . S
H979 C1005 0.950 . S
H980 C1006 0.950 . S
H981 C1008 0.950 . S
H982 C1011 0.950 . S
H983 C1012 0.950 . S
H984 C1014 0.950 . S
H985 C1015 0.950 . S
C986 H968 0.951 . S
C986 C987 1.366 . S
C986 C988 1.388 . S
C987 C986 1.366 . S
C987 C991 1.385 . S
C988 H969 0.951 . S
C988 C986 1.388 . S
C988 C989 1.366 . S
C989 C988 1.366 . S
C989 C990 1.414 . S
C989 C992 1.499 . S
C990 H970 0.950 . S
C990 C989 1.414 . S
C990 C991 1.374 . S
C991 H971 0.950 . S
C991 C987 1.385 . S
C991 C990 1.374 . S
C992 C989 1.499 . S
C992 C993 1.373 . S
C992 C994 1.389 . S
C993 H972 0.950 . S
C993 C992 1.373 . S
C993 C1009 1.377 . S
C994 C992 1.389 . S
C994 C995 1.524 . S
C994 C1008 1.377 . S
C995 C994 1.524 . S
C995 C996 1.397 . S
C995 C1000 1.363 . S
C996 H973 0.950 . S
C996 C995 1.397 . S
C996 C997 1.334 . S
C997 H974 0.950 . S
C997 C996 1.334 . S
C997 C998 1.287 . S
C998 C997 1.287 . S
C998 C999 1.524 . S
C998 H1017 0.913 . S
C999 H975 0.950 . S
C999 C998 1.524 . S
C999 C1000 1.415 . S
C1000 H976 0.950 . S
C1000 C995 1.363 . S
C1000 C999 1.415 . S
C1001 H977 0.951 . S
C1001 C1002 1.366 . S
C1001 C1003 1.388 . S
C1002 C1001 1.366 . S
C1002 C1006 1.385 . S
C1003 H978 0.951 . S
C1003 C1001 1.388 . S
C1003 C1004 1.366 . S
C1004 C1003 1.366 . S
C1004 C1005 1.414 . S
C1004 C1007 1.499 . S
C1005 H979 0.950 . S
C1005 C1004 1.414 . S
C1005 C1006 1.374 . S
C1006 H980 0.950 . S
C1006 C1002 1.385 . S
C1006 C1005 1.374 . S
C1007 C1004 1.499 . S
C1007 C1008 1.373 . S
C1007 C1009 1.389 . S
C1008 H981 0.950 . S
C1008 C994 1.377 . S
C1008 C1007 1.373 . S
C1009 C993 1.377 . S
C1009 C1007 1.389 . S
C1009 C1010 1.524 . S
C1010 C1009 1.524 . S
C1010 C1011 1.397 . S
C1010 C1015 1.363 . S
C1011 H982 0.950 . S
C1011 C1010 1.397 . S
C1011 C1012 1.334 . S
C1012 H983 0.950 . S
C1012 C1011 1.334 . S
C1012 C1013 1.287 . S
C1013 C1012 1.287 . S
C1013 C1014 1.524 . S
C1013 H1016 0.999 . S
C1014 H984 0.950 . S
C1014 C1013 1.524 . S
C1014 C1015 1.415 . S
C1015 H985 0.950 . S
C1015 C1010 1.363 . S
C1015 C1014 1.415 . S
H1016 C1013 0.999 . S
H1017 C998 0.913 . S
H1018 C1036 0.951 . S
H1019 C1038 0.951 . S
H1020 C1040 0.950 . S
H1021 C1041 0.950 . S
H1022 C1043 0.950 . S
H1023 C1046 0.950 . S
H1024 C1047 0.950 . S
H1025 C1049 0.950 . S
H1026 C1050 0.950 . S
H1027 C1051 0.951 . S
H1028 C1053 0.951 . S
H1029 C1055 0.950 . S
H1030 C1056 0.950 . S
H1031 C1058 0.950 . S
H1032 C1061 0.950 . S
H1033 C1062 0.950 . S
H1034 C1064 0.950 . S
H1035 C1065 0.950 . S
C1036 H1018 0.951 . S
C1036 C1037 1.366 . S
C1036 C1038 1.388 . S
C1037 C1036 1.366 . S
C1037 C1041 1.385 . S
C1038 H1019 0.951 . S
C1038 C1036 1.388 . S
C1038 C1039 1.366 . S
C1039 C1038 1.366 . S
C1039 C1040 1.414 . S
C1039 C1042 1.499 . S
C1040 H1020 0.950 . S
C1040 C1039 1.414 . S
C1040 C1041 1.374 . S
C1041 H1021 0.950 . S
C1041 C1037 1.385 . S
C1041 C1040 1.374 . S
C1042 C1039 1.499 . S
C1042 C1043 1.373 . S
C1042 C1044 1.389 . S
C1043 H1022 0.950 . S
C1043 C1042 1.373 . S
C1043 C1059 1.377 . S
C1044 C1042 1.389 . S
C1044 C1045 1.524 . S
C1044 C1058 1.377 . S
C1045 C1044 1.524 . S
C1045 C1046 1.397 . S
C1045 C1050 1.363 . S
C1046 H1023 0.950 . S
C1046 C1045 1.397 . S
C1046 C1047 1.334 . S
C1047 H1024 0.950 . S
C1047 C1046 1.334 . S
C1047 C1048 1.287 . S
C1048 C1047 1.287 . S
C1048 C1049 1.524 . S
C1048 H1067 0.913 . S
C1049 H1025 0.950 . S
C1049 C1048 1.524 . S
C1049 C1050 1.415 . S
C1050 H1026 0.950 . S
C1050 C1045 1.363 . S
C1050 C1049 1.415 . S
C1051 H1027 0.951 . S
C1051 C1052 1.366 . S
C1051 C1053 1.388 . S
C1052 C1051 1.366 . S
C1052 C1056 1.385 1_565 S
C1053 H1028 0.951 . S
C1053 C1051 1.388 . S
C1053 C1054 1.366 . S
C1054 C1053 1.366 . S
C1054 C1055 1.414 1_565 S
C1054 C1057 1.499 . S
C1055 H1029 0.950 . S
C1055 C1054 1.414 1_545 S
C1055 C1056 1.374 . S
C1056 H1030 0.950 . S
C1056 C1052 1.385 1_545 S
C1056 C1055 1.374 . S
C1057 C1054 1.499 . S
C1057 C1058 1.373 . S
C1057 C1059 1.389 . S
C1058 H1031 0.950 . S
C1058 C1044 1.377 . S
C1058 C1057 1.373 . S
C1059 C1043 1.377 . S
C1059 C1057 1.389 . S
C1059 C1060 1.524 . S
C1060 C1059 1.524 . S
C1060 C1061 1.397 1_565 S
C1060 C1065 1.363 . S
C1061 H1032 0.950 . S
C1061 C1060 1.397 1_545 S
C1061 C1062 1.334 . S
C1062 H1033 0.950 . S
C1062 C1061 1.334 . S
C1062 C1063 1.287 . S
C1063 C1062 1.287 . S
C1063 C1064 1.524 1_545 S
C1063 H1066 0.999 . S
C1064 H1034 0.950 . S
C1064 C1063 1.524 1_565 S
C1064 C1065 1.415 . S
C1065 H1035 0.950 . S
C1065 C1060 1.363 . S
C1065 C1064 1.415 . S
H1066 C1063 0.999 . S
H1067 C1048 0.913 . S
H1068 C1086 0.951 . S
H1069 C1088 0.951 . S
H1070 C1090 0.950 . S
H1071 C1091 0.950 . S
H1072 C1093 0.950 . S
H1073 C1096 0.950 . S
H1074 C1097 0.950 . S
H1075 C1099 0.950 . S
H1076 C1100 0.950 . S
H1077 C1101 0.951 . S
H1078 C1103 0.951 . S
H1079 C1105 0.950 . S
H1080 C1106 0.950 . S
H1081 C1108 0.950 . S
H1082 C1111 0.950 . S
H1083 C1112 0.950 . S
H1084 C1114 0.950 . S
H1085 C1115 0.950 . S
C1086 H1068 0.951 . S
C1086 C1087 1.366 . S
C1086 C1088 1.388 . S
C1087 C1086 1.366 . S
C1087 C1091 1.385 . S
C1088 H1069 0.951 . S
C1088 C1086 1.388 . S
C1088 C1089 1.366 . S
C1089 C1088 1.366 . S
C1089 C1090 1.414 . S
C1089 C1092 1.499 . S
C1090 H1070 0.950 . S
C1090 C1089 1.414 . S
C1090 C1091 1.374 . S
C1091 H1071 0.950 . S
C1091 C1087 1.385 . S
C1091 C1090 1.374 . S
C1092 C1089 1.499 . S
C1092 C1093 1.373 . S
C1092 C1094 1.389 . S
C1093 H1072 0.950 . S
C1093 C1092 1.373 . S
C1093 C1109 1.377 . S
C1094 C1092 1.389 . S
C1094 C1095 1.524 . S
C1094 C1108 1.377 . S
C1095 C1094 1.524 . S
C1095 C1096 1.397 . S
C1095 C1100 1.363 . S
C1096 H1073 0.950 . S
C1096 C1095 1.397 . S
C1096 C1097 1.334 . S
C1097 H1074 0.950 . S
C1097 C1096 1.334 . S
C1097 C1098 1.287 . S
C1098 C1097 1.287 . S
C1098 C1099 1.524 . S
C1098 H1117 0.913 . S
C1099 H1075 0.950 . S
C1099 C1098 1.524 . S
C1099 C1100 1.415 . S
C1100 H1076 0.950 . S
C1100 C1095 1.363 . S
C1100 C1099 1.415 . S
C1101 H1077 0.951 . S
C1101 C1102 1.366 . S
C1101 C1103 1.388 . S
C1102 C1101 1.366 . S
C1102 C1106 1.385 . S
C1103 H1078 0.951 . S
C1103 C1101 1.388 . S
C1103 C1104 1.366 . S
C1104 C1103 1.366 . S
C1104 C1105 1.414 . S
C1104 C1107 1.499 . S
C1105 H1079 0.950 . S
C1105 C1104 1.414 . S
C1105 C1106 1.374 . S
C1106 H1080 0.950 . S
C1106 C1102 1.385 . S
C1106 C1105 1.374 . S
C1107 C1104 1.499 . S
C1107 C1108 1.373 . S
C1107 C1109 1.389 . S
C1108 H1081 0.950 . S
C1108 C1094 1.377 . S
C1108 C1107 1.373 . S
C1109 C1093 1.377 . S
C1109 C1107 1.389 . S
C1109 C1110 1.524 . S
C1110 C1109 1.524 . S
C1110 C1111 1.397 . S
C1110 C1115 1.363 . S
C1111 H1082 0.950 . S
C1111 C1110 1.397 . S
C1111 C1112 1.334 . S
C1112 H1083 0.950 . S
C1112 C1111 1.334 . S
C1112 C1113 1.287 . S
C1113 C1112 1.287 . S
C1113 C1114 1.524 . S
C1113 H1116 0.999 . S
C1114 H1084 0.950 . S
C1114 C1113 1.524 . S
C1114 C1115 1.415 . S
C1115 H1085 0.950 . S
C1115 C1110 1.363 . S
C1115 C1114 1.415 . S
H1116 C1113 0.999 . S
H1117 C1098 0.913 . S
H1118 C1136 0.951 . S
H1119 C1138 0.951 . S
H1120 C1140 0.950 . S
H1121 C1141 0.950 . S
H1122 C1143 0.950 . S
H1123 C1146 0.950 . S
H1124 C1147 0.950 . S
H1125 C1149 0.950 . S
H1126 C1150 0.950 . S
H1127 C1151 0.951 . S
H1128 C1153 0.951 . S
H1129 C1155 0.950 . S
H1130 C1156 0.950 . S
H1131 C1158 0.950 . S
H1132 C1161 0.950 . S
H1133 C1162 0.950 . S
H1134 C1164 0.950 . S
H1135 C1165 0.950 . S
C1136 H1118 0.951 . S
C1136 C1137 1.366 . S
C1136 C1138 1.388 . S
C1137 C1136 1.366 . S
C1137 C1141 1.385 . S
C1138 H1119 0.951 . S
C1138 C1136 1.388 . S
C1138 C1139 1.366 . S
C1139 C1138 1.366 . S
C1139 C1140 1.414 . S
C1139 C1142 1.499 . S
C1140 H1120 0.950 . S
C1140 C1139 1.414 . S
C1140 C1141 1.374 . S
C1141 H1121 0.950 . S
C1141 C1137 1.385 . S
C1141 C1140 1.374 . S
C1142 C1139 1.499 . S
C1142 C1143 1.373 . S
C1142 C1144 1.389 . S
C1143 H1122 0.950 . S
C1143 C1142 1.373 . S
C1143 C1159 1.377 . S
C1144 C1142 1.389 . S
C1144 C1145 1.524 . S
C1144 C1158 1.377 . S
C1145 C1144 1.524 . S
C1145 C1146 1.397 . S
C1145 C1150 1.363 . S
C1146 H1123 0.950 . S
C1146 C1145 1.397 . S
C1146 C1147 1.334 . S
C1147 H1124 0.950 . S
C1147 C1146 1.334 . S
C1147 C1148 1.287 . S
C1148 C1147 1.287 . S
C1148 C1149 1.524 . S
C1148 H1167 0.913 . S
C1149 H1125 0.950 . S
C1149 C1148 1.524 . S
C1149 C1150 1.415 . S
C1150 H1126 0.950 . S
C1150 C1145 1.363 . S
C1150 C1149 1.415 . S
C1151 H1127 0.951 . S
C1151 C1152 1.366 . S
C1151 C1153 1.388 . S
C1152 C1151 1.366 . S
C1152 C1156 1.385 . S
C1153 H1128 0.951 . S
C1153 C1151 1.388 . S
C1153 C1154 1.366 . S
C1154 C1153 1.366 . S
C1154 C1155 1.414 . S
C1154 C1157 1.499 . S
C1155 H1129 0.950 . S
C1155 C1154 1.414 . S
C1155 C1156 1.374 . S
C1156 H1130 0.950 . S
C1156 C1152 1.385 . S
C1156 C1155 1.374 . S
C1157 C1154 1.499 . S
C1157 C1158 1.373 . S
C1157 C1159 1.389 . S
C1158 H1131 0.950 . S
C1158 C1144 1.377 . S
C1158 C1157 1.373 . S
C1159 C1143 1.377 . S
C1159 C1157 1.389 . S
C1159 C1160 1.524 . S
C1160 C1159 1.524 . S
C1160 C1161 1.397 . S
C1160 C1165 1.363 . S
C1161 H1132 0.950 . S
C1161 C1160 1.397 . S
C1161 C1162 1.334 . S
C1162 H1133 0.950 . S
C1162 C1161 1.334 . S
C1162 C1163 1.287 . S
C1163 C1162 1.287 . S
C1163 C1164 1.524 . S
C1163 H1166 0.999 . S
C1164 H1134 0.950 . S
C1164 C1163 1.524 . S
C1164 C1165 1.415 . S
C1165 H1135 0.950 . S
C1165 C1160 1.363 . S
C1165 C1164 1.415 . S
H1166 C1163 0.999 . S
H1167 C1148 0.913 . S
H1168 C1186 0.951 . S
H1169 C1188 0.951 . S
H1170 C1190 0.950 . S
H1171 C1191 0.950 . S
H1172 C1193 0.950 . S
H1173 C1196 0.950 . S
H1174 C1197 0.950 . S
H1175 C1199 0.950 . S
H1176 C1200 0.950 . S
H1177 C1201 0.951 . S
H1178 C1203 0.951 . S
H1179 C1205 0.950 . S
H1180 C1206 0.950 . S
H1181 C1208 0.950 . S
H1182 C1211 0.950 . S
H1183 C1212 0.950 . S
H1184 C1214 0.950 . S
H1185 C1215 0.950 . S
C1186 H1168 0.951 . S
C1186 C1187 1.366 . S
C1186 C1188 1.388 . S
C1187 C1186 1.366 . S
C1187 C1191 1.385 . S
C1188 H1169 0.951 . S
C1188 C1186 1.388 . S
C1188 C1189 1.366 . S
C1189 C1188 1.366 . S
C1189 C1190 1.414 . S
C1189 C1192 1.499 . S
C1190 H1170 0.950 . S
C1190 C1189 1.414 . S
C1190 C1191 1.374 . S
C1191 H1171 0.950 . S
C1191 C1187 1.385 . S
C1191 C1190 1.374 . S
C1192 C1189 1.499 . S
C1192 C1193 1.373 . S
C1192 C1194 1.389 . S
C1193 H1172 0.950 . S
C1193 C1192 1.373 . S
C1193 C1209 1.377 . S
C1194 C1192 1.389 . S
C1194 C1195 1.524 . S
C1194 C1208 1.377 . S
C1195 C1194 1.524 . S
C1195 C1196 1.397 . S
C1195 C1200 1.363 . S
C1196 H1173 0.950 . S
C1196 C1195 1.397 . S
C1196 C1197 1.334 . S
C1197 H1174 0.950 . S
C1197 C1196 1.334 . S
C1197 C1198 1.287 . S
C1198 C1197 1.287 . S
C1198 C1199 1.524 . S
C1198 H1217 0.913 . S
C1199 H1175 0.950 . S
C1199 C1198 1.524 . S
C1199 C1200 1.415 . S
C1200 H1176 0.950 . S
C1200 C1195 1.363 . S
C1200 C1199 1.415 . S
C1201 H1177 0.951 . S
C1201 C1202 1.366 . S
C1201 C1203 1.388 . S
C1202 C1201 1.366 . S
C1202 C1206 1.385 . S
C1203 H1178 0.951 . S
C1203 C1201 1.388 . S
C1203 C1204 1.366 . S
C1204 C1203 1.366 . S
C1204 C1205 1.414 . S
C1204 C1207 1.499 . S
C1205 H1179 0.950 . S
C1205 C1204 1.414 . S
C1205 C1206 1.374 . S
C1206 H1180 0.950 . S
C1206 C1202 1.385 . S
C1206 C1205 1.374 . S
C1207 C1204 1.499 . S
C1207 C1208 1.373 . S
C1207 C1209 1.389 . S
C1208 H1181 0.950 . S
C1208 C1194 1.377 . S
C1208 C1207 1.373 . S
C1209 C1193 1.377 . S
C1209 C1207 1.389 . S
C1209 C1210 1.524 . S
C1210 C1209 1.524 . S
C1210 C1211 1.397 . S
C1210 C1215 1.363 . S
C1211 H1182 0.950 . S
C1211 C1210 1.397 . S
C1211 C1212 1.334 . S
C1212 H1183 0.950 . S
C1212 C1211 1.334 . S
C1212 C1213 1.287 . S
C1213 C1212 1.287 . S
C1213 C1214 1.524 . S
C1213 H1216 0.999 . S
C1214 H1184 0.950 . S
C1214 C1213 1.524 . S
C1214 C1215 1.415 . S
C1215 H1185 0.950 . S
C1215 C1210 1.363 . S
C1215 C1214 1.415 . S
H1216 C1213 0.999 . S
H1217 C1198 0.913 . S
H1218 C1236 0.951 . S
H1219 C1238 0.951 . S
H1220 C1240 0.950 . S
H1221 C1241 0.950 . S
H1222 C1243 0.950 . S
H1223 C1246 0.950 . S
H1224 C1247 0.950 . S
H1225 C1249 0.950 . S
H1226 C1250 0.950 . S
H1227 C1251 0.951 . S
H1228 C1253 0.951 . S
H1229 C1255 0.950 . S
H1230 C1256 0.950 . S
H1231 C1258 0.950 . S
H1232 C1261 0.950 . S
H1233 C1262 0.950 . S
H1234 C1264 0.950 . S
H1235 C1265 0.950 . S
C1236 H1218 0.951 . S
C1236 C1237 1.366 . S
C1236 C1238 1.388 . S
C1237 C1236 1.366 . S
C1237 C1241 1.385 . S
C1238 H1219 0.951 . S
C1238 C1236 1.388 . S
C1238 C1239 1.366 . S
C1239 C1238 1.366 . S
C1239 C1240 1.414 . S
C1239 C1242 1.499 . S
C1240 H1220 0.950 . S
C1240 C1239 1.414 . S
C1240 C1241 1.374 . S
C1241 H1221 0.950 . S
C1241 C1237 1.385 . S
C1241 C1240 1.374 . S
C1242 C1239 1.499 . S
C1242 C1243 1.373 . S
C1242 C1244 1.389 . S
C1243 H1222 0.950 . S
C1243 C1242 1.373 . S
C1243 C1259 1.377 . S
C1244 C1242 1.389 . S
C1244 C1245 1.524 . S
C1244 C1258 1.377 . S
C1245 C1244 1.524 . S
C1245 C1246 1.397 . S
C1245 C1250 1.363 . S
C1246 H1223 0.950 . S
C1246 C1245 1.397 . S
C1246 C1247 1.334 . S
C1247 H1224 0.950 . S
C1247 C1246 1.334 . S
C1247 C1248 1.287 . S
C1248 C1247 1.287 . S
C1248 C1249 1.524 . S
C1248 H1267 0.913 . S
C1249 H1225 0.950 . S
C1249 C1248 1.524 . S
C1249 C1250 1.415 . S
C1250 H1226 0.950 . S
C1250 C1245 1.363 . S
C1250 C1249 1.415 . S
C1251 H1227 0.951 . S
C1251 C1252 1.366 . S
C1251 C1253 1.388 . S
C1252 C1251 1.366 . S
C1252 C1256 1.385 . S
C1253 H1228 0.951 . S
C1253 C1251 1.388 . S
C1253 C1254 1.366 . S
C1254 C1253 1.366 . S
C1254 C1255 1.414 . S
C1254 C1257 1.499 . S
C1255 H1229 0.950 . S
C1255 C1254 1.414 . S
C1255 C1256 1.374 . S
C1256 H1230 0.950 . S
C1256 C1252 1.385 . S
C1256 C1255 1.374 . S
C1257 C1254 1.499 . S
C1257 C1258 1.373 . S
C1257 C1259 1.389 . S
C1258 H1231 0.950 . S
C1258 C1244 1.377 . S
C1258 C1257 1.373 . S
C1259 C1243 1.377 . S
C1259 C1257 1.389 . S
C1259 C1260 1.524 . S
C1260 C1259 1.524 . S
C1260 C1261 1.397 . S
C1260 C1265 1.363 . S
C1261 H1232 0.950 . S
C1261 C1260 1.397 . S
C1261 C1262 1.334 . S
C1262 H1233 0.950 . S
C1262 C1261 1.334 . S
C1262 C1263 1.287 . S
C1263 C1262 1.287 . S
C1263 C1264 1.524 . S
C1263 H1266 0.999 . S
C1264 H1234 0.950 . S
C1264 C1263 1.524 . S
C1264 C1265 1.415 . S
C1265 H1235 0.950 . S
C1265 C1260 1.363 . S
C1265 C1264 1.415 . S
H1266 C1263 0.999 . S
H1267 C1248 0.913 . S
H1268 C1286 0.951 . S
H1269 C1288 0.951 . S
H1270 C1290 0.950 . S
H1271 C1291 0.950 . S
H1272 C1293 0.950 . S
H1273 C1296 0.950 . S
H1274 C1297 0.950 . S
H1275 C1299 0.950 . S
H1276 C1300 0.950 . S
H1277 C1301 0.951 . S
H1278 C1303 0.951 . S
H1279 C1305 0.950 . S
H1280 C1306 0.950 . S
H1281 C1308 0.950 . S
H1282 C1311 0.950 . S
H1283 C1312 0.950 . S
H1284 C1314 0.950 . S
H1285 C1315 0.950 . S
C1286 H1268 0.951 . S
C1286 C1287 1.366 . S
C1286 C1288 1.388 . S
C1287 C1286 1.366 . S
C1287 C1291 1.385 . S
C1288 H1269 0.951 . S
C1288 C1286 1.388 . S
C1288 C1289 1.366 . S
C1289 C1288 1.366 . S
C1289 C1290 1.414 . S
C1289 C1292 1.499 . S
C1290 H1270 0.950 . S
C1290 C1289 1.414 . S
C1290 C1291 1.374 . S
C1291 H1271 0.950 . S
C1291 C1287 1.385 . S
C1291 C1290 1.374 . S
C1292 C1289 1.499 . S
C1292 C1293 1.373 . S
C1292 C1294 1.389 . S
C1293 H1272 0.950 . S
C1293 C1292 1.373 . S
C1293 C1309 1.377 . S
C1294 C1292 1.389 . S
C1294 C1295 1.524 . S
C1294 C1308 1.377 . S
C1295 C1294 1.524 . S
C1295 C1296 1.397 . S
C1295 C1300 1.363 . S
C1296 H1273 0.950 . S
C1296 C1295 1.397 . S
C1296 C1297 1.334 . S
C1297 H1274 0.950 . S
C1297 C1296 1.334 . S
C1297 C1298 1.287 . S
C1298 C1297 1.287 . S
C1298 C1299 1.524 . S
C1298 H1317 0.913 . S
C1299 H1275 0.950 . S
C1299 C1298 1.524 . S
C1299 C1300 1.415 . S
C1300 H1276 0.950 . S
C1300 C1295 1.363 . S
C1300 C1299 1.415 . S
C1301 H1277 0.951 . S
C1301 C1302 1.366 . S
C1301 C1303 1.388 . S
C1302 C1301 1.366 . S
C1302 C1306 1.385 . S
C1303 H1278 0.951 . S
C1303 C1301 1.388 . S
C1303 C1304 1.366 . S
C1304 C1303 1.366 . S
C1304 C1305 1.414 . S
C1304 C1307 1.499 . S
C1305 H1279 0.950 . S
C1305 C1304 1.414 . S
C1305 C1306 1.374 . S
C1306 H1280 0.950 . S
C1306 C1302 1.385 . S
C1306 C1305 1.374 . S
C1307 C1304 1.499 . S
C1307 C1308 1.373 . S
C1307 C1309 1.389 . S
C1308 H1281 0.950 . S
C1308 C1294 1.377 . S
C1308 C1307 1.373 . S
C1309 C1293 1.377 . S
C1309 C1307 1.389 . S
C1309 C1310 1.524 . S
C1310 C1309 1.524 . S
C1310 C1311 1.397 . S
C1310 C1315 1.363 . S
C1311 H1282 0.950 . S
C1311 C1310 1.397 . S
C1311 C1312 1.334 . S
C1312 H1283 0.950 . S
C1312 C1311 1.334 . S
C1312 C1313 1.287 . S
C1313 C1312 1.287 . S
C1313 C1314 1.524 . S
C1313 H1316 0.999 . S
C1314 H1284 0.950 . S
C1314 C1313 1.524 . S
C1314 C1315 1.415 . S
C1315 H1285 0.950 . S
C1315 C1310 1.363 . S
C1315 C1314 1.415 . S
H1316 C1313 0.999 . S
H1317 C1298 0.913 . S
H1318 C1336 0.951 . S
H1319 C1338 0.951 . S
H1320 C1340 0.950 . S
H1321 C1341 0.950 . S
H1322 C1343 0.950 . S
H1323 C1346 0.950 . S
H1324 C1347 0.950 . S
H1325 C1349 0.950 . S
H1326 C1350 0.950 . S
H1327 C1351 0.951 . S
H1328 C1353 0.951 . S
H1329 C1355 0.948 1_655 S
H1330 C1356 0.950 . S
H1331 C1358 0.950 1_655 S
H1332 C1361 0.950 . S
H1333 C1362 0.950 . S
H1334 C1364 0.950 . S
H1335 C1365 0.950 . S
C1336 H1318 0.951 . S
C1336 C1337 1.366 . S
C1336 C1338 1.388 . S
C1337 C1336 1.366 . S
C1337 C1341 1.385 . S
C1338 H1319 0.951 . S
C1338 C1336 1.388 . S
C1338 C1339 1.366 . S
C1339 C1338 1.366 . S
C1339 C1340 1.414 . S
C1339 C1342 1.499 . S
C1340 H1320 0.950 . S
C1340 C1339 1.414 . S
C1340 C1341 1.374 . S
C1341 H1321 0.950 . S
C1341 C1337 1.385 . S
C1341 C1340 1.374 . S
C1342 C1339 1.499 . S
C1342 C1343 1.373 . S
C1342 C1344 1.389 . S
C1343 H1322 0.950 . S
C1343 C1342 1.373 . S
C1343 C1359 1.377 . S
C1344 C1342 1.389 . S
C1344 C1345 1.524 1_455 S
C1344 C1358 1.377 . S
C1345 C1344 1.524 1_655 S
C1345 C1346 1.397 . S
C1345 C1350 1.363 . S
C1346 H1323 0.950 . S
C1346 C1345 1.397 . S
C1346 C1347 1.334 . S
C1347 H1324 0.950 . S
C1347 C1346 1.334 . S
C1347 C1348 1.287 . S
C1348 C1347 1.287 . S
C1348 C1349 1.524 . S
C1348 H1367 0.913 . S
C1349 H1325 0.950 . S
C1349 C1348 1.524 . S
C1349 C1350 1.415 . S
C1350 H1326 0.950 . S
C1350 C1345 1.363 . S
C1350 C1349 1.415 . S
C1351 H1327 0.951 . S
C1351 C1352 1.366 . S
C1351 C1353 1.388 . S
C1352 C1351 1.366 . S
C1352 C1356 1.385 1_455 S
C1353 H1328 0.951 . S
C1353 C1351 1.388 . S
C1353 C1354 1.366 . S
C1354 C1353 1.366 . S
C1354 C1355 1.417 . S
C1354 C1357 1.499 . S
C1355 H1329 0.948 1_455 S
C1355 C1354 1.417 . S
C1355 C1356 1.373 1_455 S
C1356 H1330 0.950 . S
C1356 C1352 1.385 1_655 S
C1356 C1355 1.373 1_655 S
C1357 C1354 1.499 . S
C1357 C1358 1.373 . S
C1357 C1359 1.389 . S
C1358 H1331 0.950 1_455 S
C1358 C1344 1.377 . S
C1358 C1357 1.373 . S
C1359 C1343 1.377 . S
C1359 C1357 1.389 . S
C1359 C1360 1.524 . S
C1360 C1359 1.524 . S
C1360 C1361 1.397 . S
C1360 C1365 1.363 . S
C1361 H1332 0.950 . S
C1361 C1360 1.397 . S
C1361 C1362 1.334 . S
C1362 H1333 0.950 . S
C1362 C1361 1.334 . S
C1362 C1363 1.287 . S
C1363 C1362 1.287 . S
C1363 C1364 1.524 . S
C1363 H1366 0.999 . S
C1364 H1334 0.950 . S
C1364 C1363 1.524 . S
C1364 C1365 1.415 . S
C1365 H1335 0.950 . S
C1365 C1360 1.363 . S
C1365 C1364 1.415 . S
H1366 C1363 0.999 . S
H1367 C1348 0.913 . S
H1368 C1386 0.951 . S
H1369 C1388 0.951 . S
H1370 C1390 0.950 . S
H1371 C1391 0.950 . S
H1372 C1393 0.950 . S
H1373 C1396 0.950 . S
H1374 C1397 0.950 . S
H1375 C1399 0.950 . S
H1376 C1400 0.950 . S
H1377 C1401 0.951 . S
H1378 C1403 0.951 . S
H1379 C1405 0.950 . S
H1380 C1406 0.950 . S
H1381 C1408 0.950 . S
H1382 C1411 0.950 . S
H1383 C1412 0.950 . S
H1384 C1414 0.950 . S
H1385 C1415 0.950 . S
C1386 H1368 0.951 . S
C1386 C1387 1.366 . S
C1386 C1388 1.388 . S
C1387 C1386 1.366 . S
C1387 C1391 1.385 . S
C1388 H1369 0.951 . S
C1388 C1386 1.388 . S
C1388 C1389 1.366 . S
C1389 C1388 1.366 . S
C1389 C1390 1.414 . S
C1389 C1392 1.499 . S
C1390 H1370 0.950 . S
C1390 C1389 1.414 . S
C1390 C1391 1.374 . S
C1391 H1371 0.950 . S
C1391 C1387 1.385 . S
C1391 C1390 1.374 . S
C1392 C1389 1.499 . S
C1392 C1393 1.373 . S
C1392 C1394 1.389 . S
C1393 H1372 0.950 . S
C1393 C1392 1.373 . S
C1393 C1409 1.377 . S
C1394 C1392 1.389 . S
C1394 C1395 1.524 . S
C1394 C1408 1.377 . S
C1395 C1394 1.524 . S
C1395 C1396 1.397 . S
C1395 C1400 1.363 . S
C1396 H1373 0.950 . S
C1396 C1395 1.397 . S
C1396 C1397 1.334 . S
C1397 H1374 0.950 . S
C1397 C1396 1.334 . S
C1397 C1398 1.287 . S
C1398 C1397 1.287 . S
C1398 C1399 1.524 . S
C1398 H1417 0.913 . S
C1399 H1375 0.950 . S
C1399 C1398 1.524 . S
C1399 C1400 1.415 . S
C1400 H1376 0.950 . S
C1400 C1395 1.363 . S
C1400 C1399 1.415 . S
C1401 H1377 0.951 . S
C1401 C1402 1.366 . S
C1401 C1403 1.388 . S
C1402 C1401 1.366 . S
C1402 C1406 1.385 . S
C1403 H1378 0.951 . S
C1403 C1401 1.388 . S
C1403 C1404 1.366 . S
C1404 C1403 1.366 . S
C1404 C1405 1.414 . S
C1404 C1407 1.499 . S
C1405 H1379 0.950 . S
C1405 C1404 1.414 . S
C1405 C1406 1.374 . S
C1406 H1380 0.950 . S
C1406 C1402 1.385 . S
C1406 C1405 1.374 . S
C1407 C1404 1.499 . S
C1407 C1408 1.373 . S
C1407 C1409 1.389 . S
C1408 H1381 0.950 . S
C1408 C1394 1.377 . S
C1408 C1407 1.373 . S
C1409 C1393 1.377 . S
C1409 C1407 1.389 . S
C1409 C1410 1.524 . S
C1410 C1409 1.524 . S
C1410 C1411 1.397 . S
C1410 C1415 1.363 . S
C1411 H1382 0.950 . S
C1411 C1410 1.397 . S
C1411 C1412 1.334 . S
C1412 H1383 0.950 . S
C1412 C1411 1.334 . S
C1412 C1413 1.287 . S
C1413 C1412 1.287 . S
C1413 C1414 1.524 . S
C1413 H1416 0.999 . S
C1414 H1384 0.950 . S
C1414 C1413 1.524 . S
C1414 C1415 1.415 . S
C1415 H1385 0.950 . S
C1415 C1410 1.363 . S
C1415 C1414 1.415 . S
H1416 C1413 0.999 . S
H1417 C1398 0.913 . S
H1418 C1436 0.951 . S
H1419 C1438 0.951 . S
H1420 C1440 0.950 . S
H1421 C1441 0.950 . S
H1422 C1443 0.950 . S
H1423 C1446 0.950 . S
H1424 C1447 0.950 . S
H1425 C1449 0.950 . S
H1426 C1450 0.950 . S
H1427 C1451 0.951 . S
H1428 C1453 0.951 . S
H1429 C1455 0.950 . S
H1430 C1456 0.968 . S
H1431 C1458 0.950 . S
H1432 C1461 0.950 . S
H1433 C1462 0.950 . S
H1434 C1464 0.950 . S
H1435 C1465 0.950 1_655 S
C1436 H1418 0.951 . S
C1436 C1437 1.366 . S
C1436 C1438 1.388 . S
C1437 C1436 1.366 . S
C1437 C1441 1.385 . S
C1438 H1419 0.951 . S
C1438 C1436 1.388 . S
C1438 C1439 1.366 . S
C1439 C1438 1.366 . S
C1439 C1440 1.414 . S
C1439 C1442 1.499 . S
C1440 H1420 0.950 . S
C1440 C1439 1.414 . S
C1440 C1441 1.374 . S
C1441 H1421 0.950 . S
C1441 C1437 1.385 . S
C1441 C1440 1.374 . S
C1442 C1439 1.499 . S
C1442 C1443 1.373 . S
C1442 C1444 1.389 . S
C1443 H1422 0.950 . S
C1443 C1442 1.373 . S
C1443 C1459 1.377 . S
C1444 C1442 1.389 . S
C1444 C1445 1.524 . S
C1444 C1458 1.377 . S
C1445 C1444 1.524 . S
C1445 C1446 1.397 . S
C1445 C1450 1.363 . S
C1446 H1423 0.950 . S
C1446 C1445 1.397 . S
C1446 C1447 1.334 . S
C1447 H1424 0.950 . S
C1447 C1446 1.334 . S
C1447 C1448 1.287 . S
C1448 C1447 1.287 . S
C1448 C1449 1.524 . S
C1448 H1467 0.913 . S
C1449 H1425 0.950 . S
C1449 C1448 1.524 . S
C1449 C1450 1.415 . S
C1450 H1426 0.950 . S
C1450 C1445 1.363 . S
C1450 C1449 1.415 . S
C1451 H1427 0.951 . S
C1451 C1452 1.366 . S
C1451 C1453 1.388 . S
C1452 C1451 1.366 . S
C1452 C1456 1.385 . S
C1453 H1428 0.951 . S
C1453 C1451 1.388 . S
C1453 C1454 1.366 . S
C1454 C1453 1.366 . S
C1454 C1455 1.414 . S
C1454 C1457 1.499 . S
C1455 H1429 0.950 . S
C1455 C1454 1.414 . S
C1455 C1456 1.374 . S
C1456 H1430 0.968 . S
C1456 C1452 1.385 . S
C1456 C1455 1.374 . S
C1457 C1454 1.499 . S
C1457 C1458 1.373 . S
C1457 C1459 1.389 . S
C1458 H1431 0.950 . S
C1458 C1444 1.377 . S
C1458 C1457 1.373 . S
C1459 C1443 1.377 . S
C1459 C1457 1.389 . S
C1459 C1460 1.524 1_655 S
C1460 C1459 1.524 1_455 S
C1460 C1461 1.397 . S
C1460 C1465 1.363 . S
C1461 H1432 0.950 . S
C1461 C1460 1.397 . S
C1461 C1462 1.334 . S
C1462 H1433 0.950 . S
C1462 C1461 1.334 . S
C1462 C1463 1.287 . S
C1463 C1462 1.287 . S
C1463 C1464 1.524 . S
C1463 H1466 0.999 . S
C1464 H1434 0.950 . S
C1464 C1463 1.524 . S
C1464 C1465 1.415 . S
C1465 H1435 0.950 1_455 S
C1465 C1460 1.363 . S
C1465 C1464 1.415 . S
H1466 C1463 0.999 . S
H1467 C1448 0.913 . S
H1468 C1486 0.951 . S
H1469 C1488 0.951 . S
H1470 C1490 0.950 . S
H1471 C1491 0.950 . S
H1472 C1493 0.950 . S
H1473 C1496 0.950 . S
H1474 C1497 0.950 . S
H1475 C1499 0.950 . S
H1476 C1500 0.950 . S
H1477 C1501 0.951 . S
H1478 C1503 0.951 . S
H1479 C1505 0.950 . S
H1480 C1506 0.950 . S
H1481 C1508 0.950 . S
H1482 C1511 0.950 . S
H1483 C1512 0.950 . S
H1484 C1514 0.950 . S
H1485 C1515 0.950 . S
C1486 H1468 0.951 . S
C1486 C1487 1.366 . S
C1486 C1488 1.388 . S
C1487 C1486 1.366 . S
C1487 C1491 1.385 . S
C1488 H1469 0.951 . S
C1488 C1486 1.388 . S
C1488 C1489 1.366 . S
C1489 C1488 1.366 . S
C1489 C1490 1.414 . S
C1489 C1492 1.499 . S
C1490 H1470 0.950 . S
C1490 C1489 1.414 . S
C1490 C1491 1.374 . S
C1491 H1471 0.950 . S
C1491 C1487 1.385 . S
C1491 C1490 1.374 . S
C1492 C1489 1.499 . S
C1492 C1493 1.373 . S
C1492 C1494 1.389 . S
C1493 H1472 0.950 . S
C1493 C1492 1.373 . S
C1493 C1509 1.377 . S
C1494 C1492 1.389 . S
C1494 C1495 1.524 . S
C1494 C1508 1.377 . S
C1495 C1494 1.524 . S
C1495 C1496 1.397 . S
C1495 C1500 1.363 . S
C1496 H1473 0.950 . S
C1496 C1495 1.397 . S
C1496 C1497 1.334 . S
C1497 H1474 0.950 . S
C1497 C1496 1.334 . S
C1497 C1498 1.287 . S
C1498 C1497 1.287 . S
C1498 C1499 1.524 . S
C1498 H1517 0.913 . S
C1499 H1475 0.950 . S
C1499 C1498 1.524 . S
C1499 C1500 1.415 . S
C1500 H1476 0.950 . S
C1500 C1495 1.363 . S
C1500 C1499 1.415 . S
C1501 H1477 0.951 . S
C1501 C1502 1.366 . S
C1501 C1503 1.388 . S
C1502 C1501 1.366 . S
C1502 C1506 1.385 . S
C1503 H1478 0.951 . S
C1503 C1501 1.388 . S
C1503 C1504 1.366 . S
C1504 C1503 1.366 . S
C1504 C1505 1.414 . S
C1504 C1507 1.499 . S
C1505 H1479 0.950 . S
C1505 C1504 1.414 . S
C1505 C1506 1.374 . S
C1506 H1480 0.950 . S
C1506 C1502 1.385 . S
C1506 C1505 1.374 . S
C1507 C1504 1.499 . S
C1507 C1508 1.373 . S
C1507 C1509 1.389 . S
C1508 H1481 0.950 . S
C1508 C1494 1.377 . S
C1508 C1507 1.373 . S
C1509 C1493 1.377 . S
C1509 C1507 1.389 . S
C1509 C1510 1.524 . S
C1510 C1509 1.524 . S
C1510 C1511 1.397 . S
C1510 C1515 1.363 . S
C1511 H1482 0.950 . S
C1511 C1510 1.397 . S
C1511 C1512 1.334 . S
C1512 H1483 0.950 . S
C1512 C1511 1.334 . S
C1512 C1513 1.287 . S
C1513 C1512 1.287 . S
C1513 C1514 1.524 . S
C1513 H1516 0.999 . S
C1514 H1484 0.950 . S
C1514 C1513 1.524 . S
C1514 C1515 1.415 . S
C1515 H1485 0.950 . S
C1515 C1510 1.363 . S
C1515 C1514 1.415 . S
H1516 C1513 0.999 . S
H1517 C1498 0.913 . S
H1518 C1536 0.951 . S
H1519 C1538 0.951 . S
H1520 C1540 0.950 . S
H1521 C1541 0.950 . S
H1522 C1543 0.950 . S
H1523 C1546 0.950 . S
H1524 C1547 0.950 . S
H1525 C1549 0.950 . S
H1526 C1550 0.950 . S
H1527 C1551 0.951 . S
H1528 C1553 0.951 . S
H1529 C1555 0.950 . S
H1530 C1556 0.950 . S
H1531 C1558 0.950 . S
H1532 C1561 0.950 . S
H1533 C1562 0.950 . S
H1534 C1564 0.950 . S
H1535 C1565 0.950 . S
C1536 H1518 0.951 . S
C1536 C1537 1.366 . S
C1536 C1538 1.388 . S
C1537 C1536 1.366 . S
C1537 C1541 1.385 . S
C1538 H1519 0.951 . S
C1538 C1536 1.388 . S
C1538 C1539 1.366 . S
C1539 C1538 1.366 . S
C1539 C1540 1.414 . S
C1539 C1542 1.499 . S
C1540 H1520 0.950 . S
C1540 C1539 1.414 . S
C1540 C1541 1.374 . S
C1541 H1521 0.950 . S
C1541 C1537 1.385 . S
C1541 C1540 1.374 . S
C1542 C1539 1.499 . S
C1542 C1543 1.373 . S
C1542 C1544 1.389 . S
C1543 H1522 0.950 . S
C1543 C1542 1.373 . S
C1543 C1559 1.377 . S
C1544 C1542 1.389 . S
C1544 C1545 1.524 . S
C1544 C1558 1.377 . S
C1545 C1544 1.524 . S
C1545 C1546 1.397 . S
C1545 C1550 1.363 . S
C1546 H1523 0.950 . S
C1546 C1545 1.397 . S
C1546 C1547 1.334 . S
C1547 H1524 0.950 . S
C1547 C1546 1.334 . S
C1547 C1548 1.287 . S
C1548 C1547 1.287 . S
C1548 C1549 1.524 . S
C1548 H1567 0.913 . S
C1549 H1525 0.950 . S
C1549 C1548 1.524 . S
C1549 C1550 1.415 . S
C1550 H1526 0.950 . S
C1550 C1545 1.363 . S
C1550 C1549 1.415 . S
C1551 H1527 0.951 . S
C1551 C1552 1.366 . S
C1551 C1553 1.388 . S
C1552 C1551 1.366 . S
C1552 C1556 1.385 . S
C1553 H1528 0.951 . S
C1553 C1551 1.388 . S
C1553 C1554 1.366 . S
C1554 C1553 1.366 . S
C1554 C1555 1.414 . S
C1554 C1557 1.499 . S
C1555 H1529 0.950 . S
C1555 C1554 1.414 . S
C1555 C1556 1.374 . S
C1556 H1530 0.950 . S
C1556 C1552 1.385 . S
C1556 C1555 1.374 . S
C1557 C1554 1.499 . S
C1557 C1558 1.373 . S
C1557 C1559 1.389 . S
C1558 H1531 0.950 . S
C1558 C1544 1.377 . S
C1558 C1557 1.373 . S
C1559 C1543 1.377 . S
C1559 C1557 1.389 . S
C1559 C1560 1.524 . S
C1560 C1559 1.524 . S
C1560 C1561 1.397 . S
C1560 C1565 1.363 . S
C1561 H1532 0.950 . S
C1561 C1560 1.397 . S
C1561 C1562 1.334 . S
C1562 H1533 0.950 . S
C1562 C1561 1.334 . S
C1562 C1563 1.287 . S
C1563 C1562 1.287 . S
C1563 C1564 1.524 . S
C1563 H1566 0.999 . S
C1564 H1534 0.950 . S
C1564 C1563 1.524 . S
C1564 C1565 1.415 . S
C1565 H1535 0.950 . S
C1565 C1560 1.363 . S
C1565 C1564 1.415 . S
H1566 C1563 0.999 . S
H1567 C1548 0.913 . S
H1568 C1586 0.951 . S
H1569 C1588 0.951 . S
H1570 C1590 0.950 . S
H1571 C1591 0.950 . S
H1572 C1593 0.950 . S
H1573 C1596 0.950 . S
H1574 C1597 0.948 1_545 S
H1575 C1599 0.950 . S
H1576 C1600 0.950 . S
H1577 C1601 0.951 . S
H1578 C1603 0.955 . S
H1579 C1605 0.950 . S
H1580 C1606 0.953 . S
H1581 C1608 0.950 . S
H1582 C1611 0.950 . S
H1583 C1612 0.950 . S
H1584 C1614 0.950 . S
H1585 C1615 0.950 . S
C1586 H1568 0.951 . S
C1586 C1587 1.366 1_545 S
C1586 C1588 1.388 1_545 S
C1587 C1586 1.366 1_565 S
C1587 C1591 1.385 . S
C1588 H1569 0.951 . S
C1588 C1586 1.388 1_565 S
C1588 C1589 1.366 . S
C1589 C1588 1.366 . S
C1589 C1590 1.414 . S
C1589 C1592 1.499 . S
C1590 H1570 0.950 . S
C1590 C1589 1.414 . S
C1590 C1591 1.374 . S
C1591 H1571 0.950 . S
C1591 C1587 1.385 . S
C1591 C1590 1.374 . S
C1592 C1589 1.499 . S
C1592 C1593 1.373 . S
C1592 C1594 1.362 1_556 S
C1593 H1572 0.950 . S
C1593 C1592 1.373 . S
C1593 C1609 1.377 . S
C1594 C1592 1.362 1_554 S
C1594 C1595 1.551 . S
C1594 C1608 1.382 . S
C1595 C1594 1.551 . S
C1595 C1596 1.397 . S
C1595 C1600 1.363 . S
C1596 H1573 0.950 . S
C1596 C1595 1.397 . S
C1596 C1597 1.334 . S
C1597 H1574 0.948 1_565 S
C1597 C1596 1.334 . S
C1597 C1598 1.287 1_565 S
C1598 C1597 1.287 1_545 S
C1598 C1599 1.524 . S
C1598 H1617 0.913 . S
C1599 H1575 0.950 . S
C1599 C1598 1.524 . S
C1599 C1600 1.415 1_545 S
C1600 H1576 0.950 . S
C1600 C1595 1.363 . S
C1600 C1599 1.415 1_565 S
C1601 H1577 0.951 . S
C1601 C1602 1.366 . S
C1601 C1603 1.399 . S
C1602 C1601 1.366 . S
C1602 C1606 1.375 1_554 S
C1603 H1578 0.955 . S
C1603 C1601 1.399 . S
C1603 C1604 1.353 1_554 S
C1604 C1603 1.353 1_556 S
C1604 C1605 1.414 . S
C1604 C1607 1.499 . S
C1605 H1579 0.950 . S
C1605 C1604 1.414 . S
C1605 C1606 1.383 . S
C1606 H1580 0.953 . S
C1606 C1602 1.375 1_556 S
C1606 C1605 1.383 . S
C1607 C1604 1.499 . S
C1607 C1608 1.373 1_556 S
C1607 C1609 1.389 . S
C1608 H1581 0.950 . S
C1608 C1594 1.382 . S
C1608 C1607 1.373 1_554 S
C1609 C1593 1.377 . S
C1609 C1607 1.389 . S
C1609 C1610 1.524 . S
C1610 C1609 1.524 . S
C1610 C1611 1.397 . S
C1610 C1615 1.363 . S
C1611 H1582 0.950 . S
C1611 C1610 1.397 . S
C1611 C1612 1.334 . S
C1612 H1583 0.950 . S
C1612 C1611 1.334 . S
C1612 C1613 1.287 . S
C1613 C1612 1.287 . S
C1613 C1614 1.524 . S
C1613 H1616 0.999 . S
C1614 H1584 0.950 . S
C1614 C1613 1.524 . S
C1614 C1615 1.415 . S
C1615 H1585 0.950 . S
C1615 C1610 1.363 . S
C1615 C1614 1.415 . S
H1616 C1613 0.999 . S
H1617 C1598 0.913 . S
H1618 C1636 0.951 . S
H1619 C1638 0.951 . S
H1620 C1640 0.950 . S
H1621 C1641 0.950 . S
H1622 C1643 0.950 . S
H1623 C1646 0.950 . S
H1624 C1647 0.950 . S
H1625 C1649 0.950 . S
H1626 C1650 0.950 . S
H1627 C1651 0.951 . S
H1628 C1653 0.951 . S
H1629 C1655 0.950 . S
H1630 C1656 0.950 . S
H1631 C1658 0.950 . S
H1632 C1661 0.950 . S
H1633 C1662 0.950 . S
H1634 C1664 0.950 . S
H1635 C1665 0.950 . S
C1636 H1618 0.951 . S
C1636 C1637 1.366 . S
C1636 C1638 1.388 . S
C1637 C1636 1.366 . S
C1637 C1641 1.385 . S
C1638 H1619 0.951 . S
C1638 C1636 1.388 . S
C1638 C1639 1.366 . S
C1639 C1638 1.366 . S
C1639 C1640 1.414 . S
C1639 C1642 1.499 . S
C1640 H1620 0.950 . S
C1640 C1639 1.414 . S
C1640 C1641 1.374 . S
C1641 H1621 0.950 . S
C1641 C1637 1.385 . S
C1641 C1640 1.374 . S
C1642 C1639 1.499 . S
C1642 C1643 1.373 . S
C1642 C1644 1.389 . S
C1643 H1622 0.950 . S
C1643 C1642 1.373 . S
C1643 C1659 1.377 . S
C1644 C1642 1.389 . S
C1644 C1645 1.524 . S
C1644 C1658 1.377 . S
C1645 C1644 1.524 . S
C1645 C1646 1.397 . S
C1645 C1650 1.363 . S
C1646 H1623 0.950 . S
C1646 C1645 1.397 . S
C1646 C1647 1.334 . S
C1647 H1624 0.950 . S
C1647 C1646 1.334 . S
C1647 C1648 1.287 . S
C1648 C1647 1.287 . S
C1648 C1649 1.524 . S
C1648 H1667 0.913 . S
C1649 H1625 0.950 . S
C1649 C1648 1.524 . S
C1649 C1650 1.415 . S
C1650 H1626 0.950 . S
C1650 C1645 1.363 . S
C1650 C1649 1.415 . S
C1651 H1627 0.951 . S
C1651 C1652 1.366 . S
C1651 C1653 1.388 . S
C1652 C1651 1.366 . S
C1652 C1656 1.385 . S
C1653 H1628 0.951 . S
C1653 C1651 1.388 . S
C1653 C1654 1.366 . S
C1654 C1653 1.366 . S
C1654 C1655 1.414 . S
C1654 C1657 1.499 . S
C1655 H1629 0.950 . S
C1655 C1654 1.414 . S
C1655 C1656 1.374 . S
C1656 H1630 0.950 . S
C1656 C1652 1.385 . S
C1656 C1655 1.374 . S
C1657 C1654 1.499 . S
C1657 C1658 1.373 . S
C1657 C1659 1.389 . S
C1658 H1631 0.950 . S
C1658 C1644 1.377 . S
C1658 C1657 1.373 . S
C1659 C1643 1.377 . S
C1659 C1657 1.389 . S
C1659 C1660 1.524 . S
C1660 C1659 1.524 . S
C1660 C1661 1.397 . S
C1660 C1665 1.363 . S
C1661 H1632 0.950 . S
C1661 C1660 1.397 . S
C1661 C1662 1.334 . S
C1662 H1633 0.950 . S
C1662 C1661 1.334 . S
C1662 C1663 1.287 . S
C1663 C1662 1.287 . S
C1663 C1664 1.524 . S
C1663 H1666 0.999 . S
C1664 H1634 0.950 . S
C1664 C1663 1.524 . S
C1664 C1665 1.415 . S
C1665 H1635 0.950 . S
C1665 C1660 1.363 . S
C1665 C1664 1.415 . S
H1666 C1663 0.999 . S
H1667 C1648 0.913 . S
H1668 C1686 0.951 . S
H1669 C1688 0.951 . S
H1670 C1690 0.950 . S
H1671 C1691 0.914 1_565 S
H1672 C1693 0.950 . S
H1673 C1696 0.950 . S
H1674 C1697 0.950 . S
H1675 C1699 0.950 . S
H1676 C1700 0.950 . S
H1677 C1701 0.951 . S
H1678 C1703 0.951 . S
H1679 C1705 0.950 . S
H1680 C1706 0.950 . S
H1681 C1708 0.950 . S
H1682 C1711 0.950 . S
H1683 C1712 0.950 . S
H1684 C1714 0.950 . S
H1685 C1715 0.950 . S
C1686 H1668 0.951 . S
C1686 C1687 1.366 . S
C1686 C1688 1.388 . S
C1687 C1686 1.366 . S
C1687 C1691 1.385 . S
C1688 H1669 0.951 . S
C1688 C1686 1.388 . S
C1688 C1689 1.366 . S
C1689 C1688 1.366 . S
C1689 C1690 1.414 . S
C1689 C1692 1.499 . S
C1690 H1670 0.950 . S
C1690 C1689 1.414 . S
C1690 C1691 1.374 . S
C1691 H1671 0.914 1_545 S
C1691 C1687 1.385 . S
C1691 C1690 1.374 . S
C1692 C1689 1.499 . S
C1692 C1693 1.373 . S
C1692 C1694 1.389 . S
C1693 H1672 0.950 . S
C1693 C1692 1.373 . S
C1693 C1709 1.377 . S
C1694 C1692 1.389 . S
C1694 C1695 1.524 . S
C1694 C1708 1.377 . S
C1695 C1694 1.524 . S
C1695 C1696 1.397 . S
C1695 C1700 1.363 . S
C1696 H1673 0.950 . S
C1696 C1695 1.397 . S
C1696 C1697 1.334 . S
C1697 H1674 0.950 . S
C1697 C1696 1.334 . S
C1697 C1698 1.287 . S
C1698 C1697 1.287 . S
C1698 C1699 1.524 . S
C1698 H1717 0.913 . S
C1699 H1675 0.950 . S
C1699 C1698 1.524 . S
C1699 C1700 1.415 . S
C1700 H1676 0.950 . S
C1700 C1695 1.363 . S
C1700 C1699 1.415 . S
C1701 H1677 0.951 . S
C1701 C1702 1.366 . S
C1701 C1703 1.388 . S
C1702 C1701 1.366 . S
C1702 C1706 1.385 . S
C1703 H1678 0.951 . S
C1703 C1701 1.388 . S
C1703 C1704 1.366 . S
C1704 C1703 1.366 . S
C1704 C1705 1.414 . S
C1704 C1707 1.499 . S
C1705 H1679 0.950 . S
C1705 C1704 1.414 . S
C1705 C1706 1.374 . S
C1706 H1680 0.950 . S
C1706 C1702 1.385 . S
C1706 C1705 1.374 . S
C1707 C1704 1.499 . S
C1707 C1708 1.373 . S
C1707 C1709 1.389 . S
C1708 H1681 0.950 . S
C1708 C1694 1.377 . S
C1708 C1707 1.373 . S
C1709 C1693 1.377 . S
C1709 C1707 1.389 . S
C1709 C1710 1.524 . S
C1710 C1709 1.524 . S
C1710 C1711 1.397 . S
C1710 C1715 1.363 . S
C1711 H1682 0.950 . S
C1711 C1710 1.397 . S
C1711 C1712 1.334 . S
C1712 H1683 0.950 . S
C1712 C1711 1.334 . S
C1712 C1713 1.287 . S
C1713 C1712 1.287 . S
C1713 C1714 1.524 . S
C1713 H1716 0.999 . S
C1714 H1684 0.950 . S
C1714 C1713 1.524 . S
C1714 C1715 1.415 . S
C1715 H1685 0.950 . S
C1715 C1710 1.363 . S
C1715 C1714 1.415 . S
H1716 C1713 0.999 . S
H1717 C1698 0.913 . S
H1718 C1736 0.951 . S
H1719 C1738 0.951 . S
H1720 C1740 0.950 . S
H1721 C1741 0.950 . S
H1722 C1743 0.950 . S
H1723 C1746 0.950 . S
H1724 C1747 0.950 . S
H1725 C1749 0.950 . S
H1726 C1750 0.950 . S
H1727 C1751 0.951 . S
H1728 C1753 0.951 . S
H1729 C1755 0.950 . S
H1730 C1756 0.950 . S
H1731 C1758 0.950 . S
H1732 C1761 0.950 . S
H1733 C1762 0.950 . S
H1734 C1764 0.950 . S
H1735 C1765 0.950 . S
C1736 H1718 0.951 . S
C1736 C1737 1.366 . S
C1736 C1738 1.388 . S
C1737 C1736 1.366 . S
C1737 C1741 1.385 . S
C1738 H1719 0.951 . S
C1738 C1736 1.388 . S
C1738 C1739 1.366 . S
C1739 C1738 1.366 . S
C1739 C1740 1.414 . S
C1739 C1742 1.499 . S
C1740 H1720 0.950 . S
C1740 C1739 1.414 . S
C1740 C1741 1.374 . S
C1741 H1721 0.950 . S
C1741 C1737 1.385 . S
C1741 C1740 1.374 . S
C1742 C1739 1.499 . S
C1742 C1743 1.373 . S
C1742 C1744 1.389 . S
C1743 H1722 0.950 . S
C1743 C1742 1.373 . S
C1743 C1759 1.377 . S
C1744 C1742 1.389 . S
C1744 C1745 1.524 . S
C1744 C1758 1.377 . S
C1745 C1744 1.524 . S
C1745 C1746 1.397 . S
C1745 C1750 1.363 . S
C1746 H1723 0.950 . S
C1746 C1745 1.397 . S
C1746 C1747 1.334 . S
C1747 H1724 0.950 . S
C1747 C1746 1.334 . S
C1747 C1748 1.287 . S
C1748 C1747 1.287 . S
C1748 C1749 1.524 . S
C1748 H1767 0.913 . S
C1749 H1725 0.950 . S
C1749 C1748 1.524 . S
C1749 C1750 1.415 . S
C1750 H1726 0.950 . S
C1750 C1745 1.363 . S
C1750 C1749 1.415 . S
C1751 H1727 0.951 . S
C1751 C1752 1.366 . S
C1751 C1753 1.388 . S
C1752 C1751 1.366 . S
C1752 C1756 1.385 . S
C1753 H1728 0.951 . S
C1753 C1751 1.388 . S
C1753 C1754 1.366 . S
C1754 C1753 1.366 . S
C1754 C1755 1.414 . S
C1754 C1757 1.499 . S
C1755 H1729 0.950 . S
C1755 C1754 1.414 . S
C1755 C1756 1.374 . S
C1756 H1730 0.950 . S
C1756 C1752 1.385 . S
C1756 C1755 1.374 . S
C1757 C1754 1.499 . S
C1757 C1758 1.373 . S
C1757 C1759 1.389 . S
C1758 H1731 0.950 . S
C1758 C1744 1.377 . S
C1758 C1757 1.373 . S
C1759 C1743 1.377 . S
C1759 C1757 1.389 . S
C1759 C1760 1.524 . S
C1760 C1759 1.524 . S
C1760 C1761 1.397 . S
C1760 C1765 1.363 . S
C1761 H1732 0.950 . S
C1761 C1760 1.397 . S
C1761 C1762 1.334 . S
C1762 H1733 0.950 . S
C1762 C1761 1.334 . S
C1762 C1763 1.287 . S
C1763 C1762 1.287 . S
C1763 C1764 1.524 . S
C1763 H1766 0.999 . S
C1764 H1734 0.950 . S
C1764 C1763 1.524 . S
C1764 C1765 1.415 . S
C1765 H1735 0.950 . S
C1765 C1760 1.363 . S
C1765 C1764 1.415 . S
H1766 C1763 0.999 . S
H1767 C1748 0.913 . S
H1768 C1786 0.951 . S
H1769 C1788 0.951 . S
H1770 C1790 0.950 . S
H1771 C1791 0.950 1_565 S
H1772 C1793 0.950 . S
H1773 C1796 0.950 . S
H1774 C1797 0.950 . S
H1775 C1799 0.950 . S
H1776 C1800 0.950 . S
H1777 C1801 0.951 . S
H1778 C1803 0.951 . S
H1779 C1805 0.950 . S
H1780 C1806 0.950 . S
H1781 C1808 0.950 . S
H1782 C1811 0.950 . S
H1783 C1812 0.950 . S
H1784 C1814 0.950 . S
H1785 C1815 0.950 . S
C1786 H1768 0.951 . S
C1786 C1787 1.366 . S
C1786 C1788 1.388 . S
C1787 C1786 1.366 . S
C1787 C1791 1.385 . S
C1788 H1769 0.951 . S
C1788 C1786 1.388 . S
C1788 C1789 1.366 . S
C1789 C1788 1.366 . S
C1789 C1790 1.414 . S
C1789 C1792 1.499 . S
C1790 H1770 0.950 . S
C1790 C1789 1.414 . S
C1790 C1791 1.374 . S
C1791 H1771 0.950 1_545 S
C1791 C1787 1.385 . S
C1791 C1790 1.374 . S
C1792 C1789 1.499 . S
C1792 C1793 1.373 . S
C1792 C1794 1.389 . S
C1793 H1772 0.950 . S
C1793 C1792 1.373 . S
C1793 C1809 1.377 . S
C1794 C1792 1.389 . S
C1794 C1795 1.524 . S
C1794 C1808 1.377 . S
C1795 C1794 1.524 . S
C1795 C1796 1.397 . S
C1795 C1800 1.363 . S
C1796 H1773 0.950 . S
C1796 C1795 1.397 . S
C1796 C1797 1.334 . S
C1797 H1774 0.950 . S
C1797 C1796 1.334 . S
C1797 C1798 1.287 . S
C1798 C1797 1.287 . S
C1798 C1799 1.524 . S
C1798 H1817 0.913 . S
C1799 H1775 0.950 . S
C1799 C1798 1.524 . S
C1799 C1800 1.415 . S
C1800 H1776 0.950 . S
C1800 C1795 1.363 . S
C1800 C1799 1.415 . S
C1801 H1777 0.951 . S
C1801 C1802 1.366 . S
C1801 C1803 1.388 . S
C1802 C1801 1.366 . S
C1802 C1806 1.385 . S
C1803 H1778 0.951 . S
C1803 C1801 1.388 . S
C1803 C1804 1.366 . S
C1804 C1803 1.366 . S
C1804 C1805 1.414 . S
C1804 C1807 1.499 . S
C1805 H1779 0.950 . S
C1805 C1804 1.414 . S
C1805 C1806 1.374 . S
C1806 H1780 0.950 . S
C1806 C1802 1.385 . S
C1806 C1805 1.374 . S
C1807 C1804 1.499 . S
C1807 C1808 1.373 . S
C1807 C1809 1.389 . S
C1808 H1781 0.950 . S
C1808 C1794 1.377 . S
C1808 C1807 1.373 . S
C1809 C1793 1.377 . S
C1809 C1807 1.389 . S
C1809 C1810 1.524 . S
C1810 C1809 1.524 . S
C1810 C1811 1.397 . S
C1810 C1815 1.363 . S
C1811 H1782 0.950 . S
C1811 C1810 1.397 . S
C1811 C1812 1.334 . S
C1812 H1783 0.950 . S
C1812 C1811 1.334 . S
C1812 C1813 1.287 . S
C1813 C1812 1.287 . S
C1813 C1814 1.524 . S
C1813 H1816 0.999 . S
C1814 H1784 0.950 . S
C1814 C1813 1.524 . S
C1814 C1815 1.415 . S
C1815 H1785 0.950 . S
C1815 C1810 1.363 . S
C1815 C1814 1.415 . S
H1816 C1813 0.999 . S
H1817 C1798 0.913 . S
H1818 C1836 0.951 . S
H1819 C1838 0.951 . S
H1820 C1840 0.950 . S
H1821 C1841 0.950 . S
H1822 C1843 0.950 . S
H1823 C1846 0.950 . S
H1824 C1847 0.950 . S
H1825 C1849 0.950 . S
H1826 C1850 0.950 . S
H1827 C1851 0.951 . S
H1828 C1853 0.951 . S
H1829 C1855 0.950 . S
H1830 C1856 0.950 . S
H1831 C1858 0.950 . S
H1832 C1861 0.950 . S
H1833 C1862 0.950 . S
H1834 C1864 0.950 . S
H1835 C1865 0.950 . S
C1836 H1818 0.951 . S
C1836 C1837 1.366 . S
C1836 C1838 1.388 . S
C1837 C1836 1.366 . S
C1837 C1841 1.385 . S
C1838 H1819 0.951 . S
C1838 C1836 1.388 . S
C1838 C1839 1.366 . S
C1839 C1838 1.366 . S
C1839 C1840 1.414 . S
C1839 C1842 1.499 . S
C1840 H1820 0.950 . S
C1840 C1839 1.414 . S
C1840 C1841 1.374 . S
C1841 H1821 0.950 . S
C1841 C1837 1.385 . S
C1841 C1840 1.374 . S
C1842 C1839 1.499 . S
C1842 C1843 1.373 . S
C1842 C1844 1.389 . S
C1843 H1822 0.950 . S
C1843 C1842 1.373 . S
C1843 C1859 1.377 . S
C1844 C1842 1.389 . S
C1844 C1845 1.524 . S
C1844 C1858 1.377 . S
C1845 C1844 1.524 . S
C1845 C1846 1.397 . S
C1845 C1850 1.363 . S
C1846 H1823 0.950 . S
C1846 C1845 1.397 . S
C1846 C1847 1.334 . S
C1847 H1824 0.950 . S
C1847 C1846 1.334 . S
C1847 C1848 1.287 . S
C1848 C1847 1.287 . S
C1848 C1849 1.524 . S
C1848 H1867 0.913 . S
C1849 H1825 0.950 . S
C1849 C1848 1.524 . S
C1849 C1850 1.415 . S
C1850 H1826 0.950 . S
C1850 C1845 1.363 . S
C1850 C1849 1.415 . S
C1851 H1827 0.951 . S
C1851 C1852 1.366 . S
C1851 C1853 1.388 . S
C1852 C1851 1.366 . S
C1852 C1856 1.385 . S
C1853 H1828 0.951 . S
C1853 C1851 1.388 . S
C1853 C1854 1.366 . S
C1854 C1853 1.366 . S
C1854 C1855 1.414 . S
C1854 C1857 1.499 . S
C1855 H1829 0.950 . S
C1855 C1854 1.414 . S
C1855 C1856 1.374 . S
C1856 H1830 0.950 . S
C1856 C1852 1.385 . S
C1856 C1855 1.374 . S
C1857 C1854 1.499 . S
C1857 C1858 1.373 . S
C1857 C1859 1.389 . S
C1858 H1831 0.950 . S
C1858 C1844 1.377 . S
C1858 C1857 1.373 . S
C1859 C1843 1.377 . S
C1859 C1857 1.389 . S
C1859 C1860 1.524 . S
C1860 C1859 1.524 . S
C1860 C1861 1.397 . S
C1860 C1865 1.363 . S
C1861 H1832 0.950 . S
C1861 C1860 1.397 . S
C1861 C1862 1.334 . S
C1862 H1833 0.950 . S
C1862 C1861 1.334 . S
C1862 C1863 1.287 . S
C1863 C1862 1.287 . S
C1863 C1864 1.524 . S
C1863 H1866 0.999 . S
C1864 H1834 0.950 . S
C1864 C1863 1.524 . S
C1864 C1865 1.415 . S
C1865 H1835 0.950 . S
C1865 C1860 1.363 . S
C1865 C1864 1.415 . S
H1866 C1863 0.999 . S
H1867 C1848 0.913 . S
H1868 C1886 0.951 . S
H1869 C1888 0.951 . S
H1870 C1890 0.950 . S
H1871 C1891 0.950 . S
H1872 C1893 0.950 . S
H1873 C1896 0.950 . S
H1874 C1897 0.950 . S
H1875 C1899 0.950 . S
H1876 C1900 0.950 . S
H1877 C1901 0.951 . S
H1878 C1903 0.951 . S
H1879 C1905 0.950 . S
H1880 C1906 0.950 . S
H1881 C1908 0.950 . S
H1882 C1911 0.950 . S
H1883 C1912 0.950 . S
H1884 C1914 0.950 . S
H1885 C1915 0.950 . S
C1886 H1868 0.951 . S
C1886 C1887 1.366 . S
C1886 C1888 1.388 . S
C1887 C1886 1.366 . S
C1887 C1891 1.385 . S
C1888 H1869 0.951 . S
C1888 C1886 1.388 . S
C1888 C1889 1.366 . S
C1889 C1888 1.366 . S
C1889 C1890 1.414 . S
C1889 C1892 1.499 . S
C1890 H1870 0.950 . S
C1890 C1889 1.414 . S
C1890 C1891 1.374 . S
C1891 H1871 0.950 . S
C1891 C1887 1.385 . S
C1891 C1890 1.374 . S
C1892 C1889 1.499 . S
C1892 C1893 1.373 . S
C1892 C1894 1.389 . S
C1893 H1872 0.950 . S
C1893 C1892 1.373 . S
C1893 C1909 1.377 . S
C1894 C1892 1.389 . S
C1894 C1895 1.524 . S
C1894 C1908 1.377 . S
C1895 C1894 1.524 . S
C1895 C1896 1.397 . S
C1895 C1900 1.363 . S
C1896 H1873 0.950 . S
C1896 C1895 1.397 . S
C1896 C1897 1.334 . S
C1897 H1874 0.950 . S
C1897 C1896 1.334 . S
C1897 C1898 1.287 . S
C1898 C1897 1.287 . S
C1898 C1899 1.524 . S
C1898 H1917 0.913 . S
C1899 H1875 0.950 . S
C1899 C1898 1.524 . S
C1899 C1900 1.415 . S
C1900 H1876 0.950 . S
C1900 C1895 1.363 . S
C1900 C1899 1.415 . S
C1901 H1877 0.951 . S
C1901 C1902 1.366 . S
C1901 C1903 1.388 . S
C1902 C1901 1.366 . S
C1902 C1906 1.385 . S
C1903 H1878 0.951 . S
C1903 C1901 1.388 . S
C1903 C1904 1.366 . S
C1904 C1903 1.366 . S
C1904 C1905 1.414 . S
C1904 C1907 1.499 . S
C1905 H1879 0.950 . S
C1905 C1904 1.414 . S
C1905 C1906 1.374 . S
C1906 H1880 0.950 . S
C1906 C1902 1.385 . S
C1906 C1905 1.374 . S
C1907 C1904 1.499 . S
C1907 C1908 1.373 . S
C1907 C1909 1.389 . S
C1908 H1881 0.950 . S
C1908 C1894 1.377 . S
C1908 C1907 1.373 . S
C1909 C1893 1.377 . S
C1909 C1907 1.389 . S
C1909 C1910 1.524 . S
C1910 C1909 1.524 . S
C1910 C1911 1.397 . S
C1910 C1915 1.363 . S
C1911 H1882 0.950 . S
C1911 C1910 1.397 . S
C1911 C1912 1.334 . S
C1912 H1883 0.950 . S
C1912 C1911 1.334 . S
C1912 C1913 1.287 . S
C1913 C1912 1.287 . S
C1913 C1914 1.524 . S
C1913 H1916 0.999 . S
C1914 H1884 0.950 . S
C1914 C1913 1.524 . S
C1914 C1915 1.415 . S
C1915 H1885 0.950 . S
C1915 C1910 1.363 . S
C1915 C1914 1.415 . S
H1916 C1913 0.999 . S
H1917 C1898 0.913 . S
H1918 C1936 0.951 . S
H1919 C1938 0.951 . S
H1920 C1940 0.950 . S
H1921 C1941 0.950 . S
H1922 C1943 0.950 . S
H1923 C1946 0.950 . S
H1924 C1947 0.950 . S
H1925 C1949 0.950 . S
H1926 C1950 0.950 . S
H1927 C1951 0.951 . S
H1928 C1953 0.951 . S
H1929 C1955 0.950 . S
H1930 C1956 0.950 1_565 S
H1931 C1958 0.950 1_565 S
H1932 C1961 0.950 . S
H1933 C1962 0.950 . S
H1934 C1964 0.950 . S
H1935 C1965 0.950 . S
C1936 H1918 0.951 . S
C1936 C1937 1.366 . S
C1936 C1938 1.388 . S
C1937 C1936 1.366 . S
C1937 C1941 1.385 . S
C1938 H1919 0.951 . S
C1938 C1936 1.388 . S
C1938 C1939 1.366 . S
C1939 C1938 1.366 . S
C1939 C1940 1.414 . S
C1939 C1942 1.499 . S
C1940 H1920 0.950 . S
C1940 C1939 1.414 . S
C1940 C1941 1.374 . S
C1941 H1921 0.950 . S
C1941 C1937 1.385 . S
C1941 C1940 1.374 . S
C1942 C1939 1.499 . S
C1942 C1943 1.373 . S
C1942 C1944 1.389 . S
C1943 H1922 0.950 . S
C1943 C1942 1.373 . S
C1943 C1959 1.377 . S
C1944 C1942 1.389 . S
C1944 C1945 1.524 1_545 S
C1944 C1958 1.377 . S
C1945 C1944 1.524 1_565 S
C1945 C1946 1.397 . S
C1945 C1950 1.363 . S
C1946 H1923 0.950 . S
C1946 C1945 1.397 . S
C1946 C1947 1.334 . S
C1947 H1924 0.950 . S
C1947 C1946 1.334 . S
C1947 C1948 1.287 . S
C1948 C1947 1.287 . S
C1948 C1949 1.524 . S
C1948 H1967 0.913 . S
C1949 H1925 0.950 . S
C1949 C1948 1.524 . S
C1949 C1950 1.415 . S
C1950 H1926 0.950 . S
C1950 C1945 1.363 . S
C1950 C1949 1.415 . S
C1951 H1927 0.951 . S
C1951 C1952 1.366 . S
C1951 C1953 1.388 . S
C1952 C1951 1.366 . S
C1952 C1956 1.385 . S
C1953 H1928 0.951 . S
C1953 C1951 1.388 . S
C1953 C1954 1.366 . S
C1954 C1953 1.366 . S
C1954 C1955 1.414 . S
C1954 C1957 1.499 . S
C1955 H1929 0.950 . S
C1955 C1954 1.414 . S
C1955 C1956 1.374 . S
C1956 H1930 0.950 1_545 S
C1956 C1952 1.385 . S
C1956 C1955 1.374 . S
C1957 C1954 1.499 . S
C1957 C1958 1.373 . S
C1957 C1959 1.389 . S
C1958 H1931 0.950 1_545 S
C1958 C1944 1.377 . S
C1958 C1957 1.373 . S
C1959 C1943 1.377 . S
C1959 C1957 1.389 . S
C1959 C1960 1.524 . S
C1960 C1959 1.524 . S
C1960 C1961 1.397 . S
C1960 C1965 1.363 . S
C1961 H1932 0.950 . S
C1961 C1960 1.397 . S
C1961 C1962 1.334 . S
C1962 H1933 0.950 . S
C1962 C1961 1.334 . S
C1962 C1963 1.287 . S
C1963 C1962 1.287 . S
C1963 C1964 1.524 . S
C1963 H1966 0.999 . S
C1964 H1934 0.950 . S
C1964 C1963 1.524 . S
C1964 C1965 1.415 . S
C1965 H1935 0.950 . S
C1965 C1960 1.363 . S
C1965 C1964 1.415 . S
H1966 C1963 0.999 . S
H1967 C1948 0.913 . S
H1968 C1986 0.951 . S
H1969 C1988 0.951 . S
H1970 C1990 0.950 . S
H1971 C1991 0.950 . S
H1972 C1993 0.950 . S
H1973 C1996 0.950 . S
H1974 C1997 0.950 . S
H1975 C1999 0.950 . S
H1976 C2000 0.950 . S
H1977 C2001 0.951 . S
H1978 C2003 0.951 . S
H1979 C2005 0.950 . S
H1980 C2006 0.950 . S
H1981 C2008 0.950 . S
H1982 C2011 0.950 . S
H1983 C2012 0.950 . S
H1984 C2014 0.950 . S
H1985 C2015 0.950 . S
C1986 H1968 0.951 . S
C1986 C1987 1.366 . S
C1986 C1988 1.388 . S
C1987 C1986 1.366 . S
C1987 C1991 1.385 . S
C1988 H1969 0.951 . S
C1988 C1986 1.388 . S
C1988 C1989 1.366 . S
C1989 C1988 1.366 . S
C1989 C1990 1.414 . S
C1989 C1992 1.499 . S
C1990 H1970 0.950 . S
C1990 C1989 1.414 . S
C1990 C1991 1.374 . S
C1991 H1971 0.950 . S
C1991 C1987 1.385 . S
C1991 C1990 1.374 . S
C1992 C1989 1.499 . S
C1992 C1993 1.373 . S
C1992 C1994 1.389 . S
C1993 H1972 0.950 . S
C1993 C1992 1.373 . S
C1993 C2009 1.377 . S
C1994 C1992 1.389 . S
C1994 C1995 1.524 . S
C1994 C2008 1.377 . S
C1995 C1994 1.524 . S
C1995 C1996 1.397 . S
C1995 C2000 1.363 . S
C1996 H1973 0.950 . S
C1996 C1995 1.397 . S
C1996 C1997 1.334 . S
C1997 H1974 0.950 . S
C1997 C1996 1.334 . S
C1997 C1998 1.287 . S
C1998 C1997 1.287 . S
C1998 C1999 1.524 . S
C1998 H2017 0.913 . S
C1999 H1975 0.950 . S
C1999 C1998 1.524 . S
C1999 C2000 1.415 . S
C2000 H1976 0.950 . S
C2000 C1995 1.363 . S
C2000 C1999 1.415 . S
C2001 H1977 0.951 . S
C2001 C2002 1.366 . S
C2001 C2003 1.388 . S
C2002 C2001 1.366 . S
C2002 C2006 1.385 . S
C2003 H1978 0.951 . S
C2003 C2001 1.388 . S
C2003 C2004 1.366 . S
C2004 C2003 1.366 . S
C2004 C2005 1.414 . S
C2004 C2007 1.499 . S
C2005 H1979 0.950 . S
C2005 C2004 1.414 . S
C2005 C2006 1.374 . S
C2006 H1980 0.950 . S
C2006 C2002 1.385 . S
C2006 C2005 1.374 . S
C2007 C2004 1.499 . S
C2007 C2008 1.373 . S
C2007 C2009 1.389 . S
C2008 H1981 0.950 . S
C2008 C1994 1.377 . S
C2008 C2007 1.373 . S
C2009 C1993 1.377 . S
C2009 C2007 1.389 . S
C2009 C2010 1.524 . S
C2010 C2009 1.524 . S
C2010 C2011 1.397 . S
C2010 C2015 1.363 . S
C2011 H1982 0.950 . S
C2011 C2010 1.397 . S
C2011 C2012 1.334 . S
C2012 H1983 0.950 . S
C2012 C2011 1.334 . S
C2012 C2013 1.287 . S
C2013 C2012 1.287 . S
C2013 C2014 1.524 . S
C2013 H2016 0.999 . S
C2014 H1984 0.950 . S
C2014 C2013 1.524 . S
C2014 C2015 1.415 . S
C2015 H1985 0.950 . S
C2015 C2010 1.363 . S
C2015 C2014 1.415 . S
H2016 C2013 0.999 . S
H2017 C1998 0.913 . S
H2018 C2036 0.951 . S
H2019 C2038 0.951 . S
H2020 C2040 0.950 . S
H2021 C2041 0.950 . S
H2022 C2043 0.950 . S
H2023 C2046 0.950 . S
H2024 C2047 0.950 . S
H2025 C2049 0.950 . S
H2026 C2050 0.950 . S
H2027 C2051 0.951 . S
H2028 C2053 0.951 . S
H2029 C2055 0.950 . S
H2030 C2056 0.950 . S
H2031 C2058 0.950 . S
H2032 C2061 0.950 . S
H2033 C2062 0.950 . S
H2034 C2064 0.950 . S
H2035 C2065 0.950 . S
C2036 H2018 0.951 . S
C2036 C2037 1.366 . S
C2036 C2038 1.388 . S
C2037 C2036 1.366 . S
C2037 C2041 1.385 . S
C2038 H2019 0.951 . S
C2038 C2036 1.388 . S
C2038 C2039 1.366 . S
C2039 C2038 1.366 . S
C2039 C2040 1.414 . S
C2039 C2042 1.499 . S
C2040 H2020 0.950 . S
C2040 C2039 1.414 . S
C2040 C2041 1.374 . S
C2041 H2021 0.950 . S
C2041 C2037 1.385 . S
C2041 C2040 1.374 . S
C2042 C2039 1.499 . S
C2042 C2043 1.373 . S
C2042 C2044 1.389 . S
C2043 H2022 0.950 . S
C2043 C2042 1.373 . S
C2043 C2059 1.377 . S
C2044 C2042 1.389 . S
C2044 C2045 1.524 . S
C2044 C2058 1.377 . S
C2045 C2044 1.524 . S
C2045 C2046 1.397 . S
C2045 C2050 1.363 . S
C2046 H2023 0.950 . S
C2046 C2045 1.397 . S
C2046 C2047 1.334 . S
C2047 H2024 0.950 . S
C2047 C2046 1.334 . S
C2047 C2048 1.287 . S
C2048 C2047 1.287 . S
C2048 C2049 1.524 . S
C2048 H2067 0.913 . S
C2049 H2025 0.950 . S
C2049 C2048 1.524 . S
C2049 C2050 1.415 . S
C2050 H2026 0.950 . S
C2050 C2045 1.363 . S
C2050 C2049 1.415 . S
C2051 H2027 0.951 . S
C2051 C2052 1.366 . S
C2051 C2053 1.388 . S
C2052 C2051 1.366 . S
C2052 C2056 1.385 . S
C2053 H2028 0.951 . S
C2053 C2051 1.388 . S
C2053 C2054 1.366 . S
C2054 C2053 1.366 . S
C2054 C2055 1.414 . S
C2054 C2057 1.499 . S
C2055 H2029 0.950 . S
C2055 C2054 1.414 . S
C2055 C2056 1.374 . S
C2056 H2030 0.950 . S
C2056 C2052 1.385 . S
C2056 C2055 1.374 . S
C2057 C2054 1.499 . S
C2057 C2058 1.373 . S
C2057 C2059 1.389 . S
C2058 H2031 0.950 . S
C2058 C2044 1.377 . S
C2058 C2057 1.373 . S
C2059 C2043 1.377 . S
C2059 C2057 1.389 . S
C2059 C2060 1.524 . S
C2060 C2059 1.524 . S
C2060 C2061 1.397 . S
C2060 C2065 1.363 . S
C2061 H2032 0.950 . S
C2061 C2060 1.397 . S
C2061 C2062 1.334 . S
C2062 H2033 0.950 . S
C2062 C2061 1.334 . S
C2062 C2063 1.287 . S
C2063 C2062 1.287 . S
C2063 C2064 1.524 . S
C2063 H2066 0.999 . S
C2064 H2034 0.950 . S
C2064 C2063 1.524 . S
C2064 C2065 1.415 . S
C2065 H2035 0.950 . S
C2065 C2060 1.363 . S
C2065 C2064 1.415 . S
H2066 C2063 0.999 . S
H2067 C2048 0.913 . S
H2068 C2086 0.951 . S
H2069 C2088 0.951 . S
H2070 C2090 0.950 . S
H2071 C2091 0.950 . S
H2072 C2093 0.950 . S
H2073 C2096 0.950 . S
H2074 C2097 0.950 . S
H2075 C2099 0.950 . S
H2076 C2100 0.950 . S
H2077 C2101 0.951 . S
H2078 C2103 0.951 . S
H2079 C2105 0.950 . S
H2080 C2106 0.950 . S
H2081 C2108 0.950 . S
H2082 C2111 0.950 . S
H2083 C2112 0.950 . S
H2084 C2114 0.950 . S
H2085 C2115 0.950 . S
C2086 H2068 0.951 . S
C2086 C2087 1.366 . S
C2086 C2088 1.388 . S
C2087 C2086 1.366 . S
C2087 C2091 1.385 . S
C2088 H2069 0.951 . S
C2088 C2086 1.388 . S
C2088 C2089 1.366 . S
C2089 C2088 1.366 . S
C2089 C2090 1.414 . S
C2089 C2092 1.499 . S
C2090 H2070 0.950 . S
C2090 C2089 1.414 . S
C2090 C2091 1.374 . S
C2091 H2071 0.950 . S
C2091 C2087 1.385 . S
C2091 C2090 1.374 . S
C2092 C2089 1.499 . S
C2092 C2093 1.373 . S
C2092 C2094 1.389 . S
C2093 H2072 0.950 . S
C2093 C2092 1.373 . S
C2093 C2109 1.377 . S
C2094 C2092 1.389 . S
C2094 C2095 1.524 . S
C2094 C2108 1.377 . S
C2095 C2094 1.524 . S
C2095 C2096 1.397 . S
C2095 C2100 1.363 . S
C2096 H2073 0.950 . S
C2096 C2095 1.397 . S
C2096 C2097 1.334 . S
C2097 H2074 0.950 . S
C2097 C2096 1.334 . S
C2097 C2098 1.287 . S
C2098 C2097 1.287 . S
C2098 C2099 1.524 . S
C2098 H2117 0.913 . S
C2099 H2075 0.950 . S
C2099 C2098 1.524 . S
C2099 C2100 1.415 . S
C2100 H2076 0.950 . S
C2100 C2095 1.363 . S
C2100 C2099 1.415 . S
C2101 H2077 0.951 . S
C2101 C2102 1.366 . S
C2101 C2103 1.388 . S
C2102 C2101 1.366 . S
C2102 C2106 1.385 . S
C2103 H2078 0.951 . S
C2103 C2101 1.388 . S
C2103 C2104 1.366 . S
C2104 C2103 1.366 . S
C2104 C2105 1.414 . S
C2104 C2107 1.499 . S
C2105 H2079 0.950 . S
C2105 C2104 1.414 . S
C2105 C2106 1.374 . S
C2106 H2080 0.950 . S
C2106 C2102 1.385 . S
C2106 C2105 1.374 . S
C2107 C2104 1.499 . S
C2107 C2108 1.373 . S
C2107 C2109 1.389 . S
C2108 H2081 0.950 . S
C2108 C2094 1.377 . S
C2108 C2107 1.373 . S
C2109 C2093 1.377 . S
C2109 C2107 1.389 . S
C2109 C2110 1.524 . S
C2110 C2109 1.524 . S
C2110 C2111 1.397 . S
C2110 C2115 1.363 . S
C2111 H2082 0.950 . S
C2111 C2110 1.397 . S
C2111 C2112 1.334 . S
C2112 H2083 0.950 . S
C2112 C2111 1.334 . S
C2112 C2113 1.287 . S
C2113 C2112 1.287 . S
C2113 C2114 1.524 . S
C2113 H2116 0.999 . S
C2114 H2084 0.950 . S
C2114 C2113 1.524 . S
C2114 C2115 1.415 . S
C2115 H2085 0.950 . S
C2115 C2110 1.363 . S
C2115 C2114 1.415 . S
H2116 C2113 0.999 . S
H2117 C2098 0.913 . S
H2118 C2136 0.900 1_455 S
H2119 C2138 0.951 . S
H2120 C2140 0.950 . S
H2121 C2141 0.950 . S
H2122 C2143 0.950 . S
H2123 C2146 0.950 . S
H2124 C2147 0.950 . S
H2125 C2149 0.950 . S
H2126 C2150 0.950 . S
H2127 C2151 0.951 . S
H2128 C2153 0.951 . S
H2129 C2155 0.950 . S
H2130 C2156 0.950 . S
H2131 C2158 0.950 . S
H2132 C2161 0.950 . S
H2133 C2162 0.950 . S
H2134 C2164 0.950 . S
H2135 C2165 0.950 . S
C2136 H2118 0.900 1_655 S
C2136 C2137 1.385 . S
C2136 C2138 1.420 . S
C2137 C2136 1.385 . S
C2137 C2141 1.385 . S
C2138 H2119 0.951 . S
C2138 C2136 1.420 . S
C2138 C2139 1.366 . S
C2139 C2138 1.366 . S
C2139 C2140 1.414 . S
C2139 C2142 1.499 . S
C2140 H2120 0.950 . S
C2140 C2139 1.414 . S
C2140 C2141 1.374 . S
C2141 H2121 0.950 . S
C2141 C2137 1.385 . S
C2141 C2140 1.374 . S
C2142 C2139 1.499 . S
C2142 C2143 1.373 . S
C2142 C2144 1.389 . S
C2143 H2122 0.950 . S
C2143 C2142 1.373 . S
C2143 C2159 1.377 . S
C2144 C2142 1.389 . S
C2144 C2145 1.524 . S
C2144 C2158 1.377 . S
C2145 C2144 1.524 . S
C2145 C2146 1.397 1_545 S
C2145 C2150 1.363 . S
C2146 H2123 0.950 . S
C2146 C2145 1.397 1_565 S
C2146 C2147 1.334 . S
C2147 H2124 0.950 . S
C2147 C2146 1.334 . S
C2147 C2148 1.287 1_655 S
C2148 C2147 1.287 1_455 S
C2148 C2149 1.524 . S
C2148 H2167 0.913 . S
C2149 H2125 0.950 . S
C2149 C2148 1.524 . S
C2149 C2150 1.415 1_465 S
C2150 H2126 0.950 . S
C2150 C2145 1.363 . S
C2150 C2149 1.415 1_645 S
C2151 H2127 0.951 . S
C2151 C2152 1.366 . S
C2151 C2153 1.388 . S
C2152 C2151 1.366 . S
C2152 C2156 1.385 . S
C2153 H2128 0.951 . S
C2153 C2151 1.388 . S
C2153 C2154 1.366 . S
C2154 C2153 1.366 . S
C2154 C2155 1.414 . S
C2154 C2157 1.499 . S
C2155 H2129 0.950 . S
C2155 C2154 1.414 . S
C2155 C2156 1.374 . S
C2156 H2130 0.950 . S
C2156 C2152 1.385 . S
C2156 C2155 1.374 . S
C2157 C2154 1.499 . S
C2157 C2158 1.373 . S
C2157 C2159 1.389 . S
C2158 H2131 0.950 . S
C2158 C2144 1.377 . S
C2158 C2157 1.373 . S
C2159 C2143 1.377 . S
C2159 C2157 1.389 . S
C2159 C2160 1.524 . S
C2160 C2159 1.524 . S
C2160 C2161 1.397 . S
C2160 C2165 1.363 . S
C2161 H2132 0.950 . S
C2161 C2160 1.397 . S
C2161 C2162 1.334 . S
C2162 H2133 0.950 . S
C2162 C2161 1.334 . S
C2162 C2163 1.287 . S
C2163 C2162 1.287 . S
C2163 C2164 1.524 . S
C2163 H2166 0.999 . S
C2164 H2134 0.950 . S
C2164 C2163 1.524 . S
C2164 C2165 1.415 . S
C2165 H2135 0.950 . S
C2165 C2160 1.363 . S
C2165 C2164 1.415 . S
H2166 C2163 0.999 . S
H2167 C2148 0.913 . S
H2168 C2186 0.951 . S
H2169 C2188 0.951 . S
H2170 C2190 0.950 . S
H2171 C2191 0.950 . S
H2172 C2193 0.950 . S
H2173 C2196 0.950 . S
H2174 C2197 0.950 . S
H2175 C2199 0.950 . S
H2176 C2200 0.950 . S
H2177 C2201 0.951 . S
H2178 C2203 0.951 . S
H2179 C2205 0.950 . S
H2180 C2206 0.950 . S
H2181 C2208 0.950 . S
H2182 C2211 0.950 . S
H2183 C2212 0.950 . S
H2184 C2214 0.950 . S
H2185 C2215 0.950 . S
C2186 H2168 0.951 . S
C2186 C2187 1.366 . S
C2186 C2188 1.388 . S
C2187 C2186 1.366 . S
C2187 C2191 1.385 . S
C2188 H2169 0.951 . S
C2188 C2186 1.388 . S
C2188 C2189 1.366 . S
C2189 C2188 1.366 . S
C2189 C2190 1.414 . S
C2189 C2192 1.499 . S
C2190 H2170 0.950 . S
C2190 C2189 1.414 . S
C2190 C2191 1.374 . S
C2191 H2171 0.950 . S
C2191 C2187 1.385 . S
C2191 C2190 1.374 . S
C2192 C2189 1.499 . S
C2192 C2193 1.373 . S
C2192 C2194 1.389 . S
C2193 H2172 0.950 . S
C2193 C2192 1.373 . S
C2193 C2209 1.377 . S
C2194 C2192 1.389 . S
C2194 C2195 1.524 . S
C2194 C2208 1.377 . S
C2195 C2194 1.524 . S
C2195 C2196 1.397 . S
C2195 C2200 1.363 . S
C2196 H2173 0.950 . S
C2196 C2195 1.397 . S
C2196 C2197 1.334 . S
C2197 H2174 0.950 . S
C2197 C2196 1.334 . S
C2197 C2198 1.287 . S
C2198 C2197 1.287 . S
C2198 C2199 1.524 . S
C2198 H2217 0.913 . S
C2199 H2175 0.950 . S
C2199 C2198 1.524 . S
C2199 C2200 1.415 . S
C2200 H2176 0.950 . S
C2200 C2195 1.363 . S
C2200 C2199 1.415 . S
C2201 H2177 0.951 . S
C2201 C2202 1.366 . S
C2201 C2203 1.388 . S
C2202 C2201 1.366 . S
C2202 C2206 1.385 . S
C2203 H2178 0.951 . S
C2203 C2201 1.388 . S
C2203 C2204 1.366 . S
C2204 C2203 1.366 . S
C2204 C2205 1.414 . S
C2204 C2207 1.499 . S
C2205 H2179 0.950 . S
C2205 C2204 1.414 . S
C2205 C2206 1.374 . S
C2206 H2180 0.950 . S
C2206 C2202 1.385 . S
C2206 C2205 1.374 . S
C2207 C2204 1.499 . S
C2207 C2208 1.373 . S
C2207 C2209 1.389 . S
C2208 H2181 0.950 . S
C2208 C2194 1.377 . S
C2208 C2207 1.373 . S
C2209 C2193 1.377 . S
C2209 C2207 1.389 . S
C2209 C2210 1.524 . S
C2210 C2209 1.524 . S
C2210 C2211 1.397 . S
C2210 C2215 1.363 . S
C2211 H2182 0.950 . S
C2211 C2210 1.397 . S
C2211 C2212 1.334 . S
C2212 H2183 0.950 . S
C2212 C2211 1.334 . S
C2212 C2213 1.287 . S
C2213 C2212 1.287 . S
C2213 C2214 1.524 . S
C2213 H2216 0.999 . S
C2214 H2184 0.950 . S
C2214 C2213 1.524 . S
C2214 C2215 1.415 . S
C2215 H2185 0.950 . S
C2215 C2210 1.363 . S
C2215 C2214 1.415 . S
H2216 C2213 0.999 . S
H2217 C2198 0.913 . S
H2218 C2236 0.951 1_655 S
H2219 C2238 0.951 . S
H2220 C2240 0.950 . S
H2221 C2241 0.950 . S
H2222 C2243 0.950 . S
H2223 C2246 0.950 . S
H2224 C2247 0.950 . S
H2225 C2249 0.950 . S
H2226 C2250 0.950 . S
H2227 C2251 0.951 . S
H2228 C2253 0.951 . S
H2229 C2255 0.950 . S
H2230 C2256 0.950 . S
H2231 C2258 0.950 . S
H2232 C2261 0.950 . S
H2233 C2262 0.950 . S
H2234 C2264 0.950 . S
H2235 C2265 0.950 . S
C2236 H2218 0.951 1_455 S
C2236 C2237 1.366 . S
C2236 C2238 1.388 . S
C2237 C2236 1.366 . S
C2237 C2241 1.385 . S
C2238 H2219 0.951 . S
C2238 C2236 1.388 . S
C2238 C2239 1.366 . S
C2239 C2238 1.366 . S
C2239 C2240 1.414 . S
C2239 C2242 1.499 . S
C2240 H2220 0.950 . S
C2240 C2239 1.414 . S
C2240 C2241 1.374 . S
C2241 H2221 0.950 . S
C2241 C2237 1.385 . S
C2241 C2240 1.374 . S
C2242 C2239 1.499 . S
C2242 C2243 1.373 . S
C2242 C2244 1.389 . S
C2243 H2222 0.950 . S
C2243 C2242 1.373 . S
C2243 C2259 1.377 . S
C2244 C2242 1.389 . S
C2244 C2245 1.524 . S
C2244 C2258 1.377 . S
C2245 C2244 1.524 . S
C2245 C2246 1.397 . S
C2245 C2250 1.363 . S
C2246 H2223 0.950 . S
C2246 C2245 1.397 . S
C2246 C2247 1.334 . S
C2247 H2224 0.950 . S
C2247 C2246 1.334 . S
C2247 C2248 1.287 1_455 S
C2248 C2247 1.287 1_655 S
C2248 C2249 1.524 . S
C2248 H2267 0.913 . S
C2249 H2225 0.950 . S
C2249 C2248 1.524 . S
C2249 C2250 1.415 1_655 S
C2250 H2226 0.950 . S
C2250 C2245 1.363 . S
C2250 C2249 1.415 1_455 S
C2251 H2227 0.951 . S
C2251 C2252 1.366 . S
C2251 C2253 1.388 . S
C2252 C2251 1.366 . S
C2252 C2256 1.385 . S
C2253 H2228 0.951 . S
C2253 C2251 1.388 . S
C2253 C2254 1.366 . S
C2254 C2253 1.366 . S
C2254 C2255 1.414 . S
C2254 C2257 1.499 . S
C2255 H2229 0.950 . S
C2255 C2254 1.414 . S
C2255 C2256 1.374 . S
C2256 H2230 0.950 . S
C2256 C2252 1.385 . S
C2256 C2255 1.374 . S
C2257 C2254 1.499 . S
C2257 C2258 1.373 . S
C2257 C2259 1.389 . S
C2258 H2231 0.950 . S
C2258 C2244 1.377 . S
C2258 C2257 1.373 . S
C2259 C2243 1.377 . S
C2259 C2257 1.389 . S
C2259 C2260 1.524 . S
C2260 C2259 1.524 . S
C2260 C2261 1.397 . S
C2260 C2265 1.363 . S
C2261 H2232 0.950 . S
C2261 C2260 1.397 . S
C2261 C2262 1.334 . S
C2262 H2233 0.950 . S
C2262 C2261 1.334 . S
C2262 C2263 1.287 . S
C2263 C2262 1.287 . S
C2263 C2264 1.524 . S
C2263 H2266 0.999 . S
C2264 H2234 0.950 . S
C2264 C2263 1.524 . S
C2264 C2265 1.415 . S
C2265 H2235 0.950 . S
C2265 C2260 1.363 . S
C2265 C2264 1.415 . S
H2266 C2263 0.999 . S
H2267 C2248 0.913 . S
H2268 C2286 0.951 . S
H2269 C2288 0.951 . S
H2270 C2290 0.950 . S
H2271 C2291 0.950 . S
H2272 C2293 0.950 . S
H2273 C2296 0.950 . S
H2274 C2297 0.950 . S
H2275 C2299 0.950 . S
H2276 C2300 0.950 . S
H2277 C2301 0.951 . S
H2278 C2303 0.951 . S
H2279 C2305 0.950 . S
H2280 C2306 0.950 . S
H2281 C2308 0.950 . S
H2282 C2311 0.950 . S
H2283 C2312 0.950 . S
H2284 C2314 0.950 . S
H2285 C2315 0.950 . S
C2286 H2268 0.951 . S
C2286 C2287 1.366 . S
C2286 C2288 1.388 . S
C2287 C2286 1.366 . S
C2287 C2291 1.385 . S
C2288 H2269 0.951 . S
C2288 C2286 1.388 . S
C2288 C2289 1.366 . S
C2289 C2288 1.366 . S
C2289 C2290 1.414 . S
C2289 C2292 1.499 . S
C2290 H2270 0.950 . S
C2290 C2289 1.414 . S
C2290 C2291 1.374 . S
C2291 H2271 0.950 . S
C2291 C2287 1.385 . S
C2291 C2290 1.374 . S
C2292 C2289 1.499 . S
C2292 C2293 1.373 . S
C2292 C2294 1.389 . S
C2293 H2272 0.950 . S
C2293 C2292 1.373 . S
C2293 C2309 1.377 . S
C2294 C2292 1.389 . S
C2294 C2295 1.524 . S
C2294 C2308 1.377 . S
C2295 C2294 1.524 . S
C2295 C2296 1.397 . S
C2295 C2300 1.363 . S
C2296 H2273 0.950 . S
C2296 C2295 1.397 . S
C2296 C2297 1.334 . S
C2297 H2274 0.950 . S
C2297 C2296 1.334 . S
C2297 C2298 1.287 . S
C2298 C2297 1.287 . S
C2298 C2299 1.524 . S
C2298 H2317 0.913 . S
C2299 H2275 0.950 . S
C2299 C2298 1.524 . S
C2299 C2300 1.415 . S
C2300 H2276 0.950 . S
C2300 C2295 1.363 . S
C2300 C2299 1.415 . S
C2301 H2277 0.951 . S
C2301 C2302 1.366 . S
C2301 C2303 1.388 . S
C2302 C2301 1.366 . S
C2302 C2306 1.385 . S
C2303 H2278 0.951 . S
C2303 C2301 1.388 . S
C2303 C2304 1.366 . S
C2304 C2303 1.366 . S
C2304 C2305 1.414 . S
C2304 C2307 1.499 . S
C2305 H2279 0.950 . S
C2305 C2304 1.414 . S
C2305 C2306 1.374 . S
C2306 H2280 0.950 . S
C2306 C2302 1.385 . S
C2306 C2305 1.374 . S
C2307 C2304 1.499 . S
C2307 C2308 1.373 . S
C2307 C2309 1.389 . S
C2308 H2281 0.950 . S
C2308 C2294 1.377 . S
C2308 C2307 1.373 . S
C2309 C2293 1.377 . S
C2309 C2307 1.389 . S
C2309 C2310 1.524 . S
C2310 C2309 1.524 . S
C2310 C2311 1.397 . S
C2310 C2315 1.363 . S
C2311 H2282 0.950 . S
C2311 C2310 1.397 . S
C2311 C2312 1.334 . S
C2312 H2283 0.950 . S
C2312 C2311 1.334 . S
C2312 C2313 1.287 . S
C2313 C2312 1.287 . S
C2313 C2314 1.524 . S
C2313 H2316 0.999 . S
C2314 H2284 0.950 . S
C2314 C2313 1.524 . S
C2314 C2315 1.415 . S
C2315 H2285 0.950 . S
C2315 C2310 1.363 . S
C2315 C2314 1.415 . S
H2316 C2313 0.999 . S
H2317 C2298 0.913 . S
H2318 C2336 0.951 1_554 S
H2319 C2338 0.951 . S
H2320 C2340 0.950 . S
H2321 C2341 0.950 . S
H2322 C2343 0.950 . S
H2323 C2346 0.950 . S
H2324 C2347 0.950 . S
H2325 C2349 0.950 . S
H2326 C2350 0.950 . S
H2327 C2351 0.951 . S
H2328 C2353 0.951 . S
H2329 C2355 0.950 . S
H2330 C2356 0.950 . S
H2331 C2358 0.950 . S
H2332 C2361 0.950 . S
H2333 C2362 0.950 . S
H2334 C2364 0.950 . S
H2335 C2365 0.950 . S
C2336 H2318 0.951 1_556 S
C2336 C2337 1.366 . S
C2336 C2338 1.388 . S
C2337 C2336 1.366 . S
C2337 C2341 1.385 . S
C2338 H2319 0.951 . S
C2338 C2336 1.388 . S
C2338 C2339 1.366 . S
C2339 C2338 1.366 . S
C2339 C2340 1.414 . S
C2339 C2342 1.499 . S
C2340 H2320 0.950 . S
C2340 C2339 1.414 . S
C2340 C2341 1.374 . S
C2341 H2321 0.950 . S
C2341 C2337 1.385 . S
C2341 C2340 1.374 . S
C2342 C2339 1.499 . S
C2342 C2343 1.373 . S
C2342 C2344 1.389 . S
C2343 H2322 0.950 . S
C2343 C2342 1.373 . S
C2343 C2359 1.377 . S
C2344 C2342 1.389 . S
C2344 C2345 1.524 . S
C2344 C2358 1.377 . S
C2345 C2344 1.524 . S
C2345 C2346 1.397 1_655 S
C2345 C2350 1.363 . S
C2346 H2323 0.950 . S
C2346 C2345 1.397 1_455 S
C2346 C2347 1.334 1_556 S
C2347 H2324 0.950 . S
C2347 C2346 1.334 1_554 S
C2347 C2348 1.287 . S
C2348 C2347 1.287 . S
C2348 C2349 1.524 1_455 S
C2348 H2367 0.913 . S
C2349 H2325 0.950 . S
C2349 C2348 1.524 1_655 S
C2349 C2350 1.415 1_554 S
C2350 H2326 0.950 . S
C2350 C2345 1.363 . S
C2350 C2349 1.415 1_556 S
C2351 H2327 0.951 . S
C2351 C2352 1.366 1_455 S
C2351 C2353 1.388 . S
C2352 C2351 1.366 1_655 S
C2352 C2356 1.385 . S
C2353 H2328 0.951 . S
C2353 C2351 1.388 . S
C2353 C2354 1.366 1_455 S
C2354 C2353 1.366 1_655 S
C2354 C2355 1.414 . S
C2354 C2357 1.499 . S
C2355 H2329 0.950 . S
C2355 C2354 1.414 . S
C2355 C2356 1.374 . S
C2356 H2330 0.950 . S
C2356 C2352 1.385 . S
C2356 C2355 1.374 . S
C2357 C2354 1.499 . S
C2357 C2358 1.373 . S
C2357 C2359 1.389 . S
C2358 H2331 0.950 . S
C2358 C2344 1.377 . S
C2358 C2357 1.373 . S
C2359 C2343 1.377 . S
C2359 C2357 1.389 . S
C2359 C2360 1.524 . S
C2360 C2359 1.524 . S
C2360 C2361 1.397 . S
C2360 C2365 1.363 . S
C2361 H2332 0.950 . S
C2361 C2360 1.397 . S
C2361 C2362 1.334 . S
C2362 H2333 0.950 . S
C2362 C2361 1.334 . S
C2362 C2363 1.287 . S
C2363 C2362 1.287 . S
C2363 C2364 1.524 . S
C2363 H2366 0.999 . S
C2364 H2334 0.950 . S
C2364 C2363 1.524 . S
C2364 C2365 1.415 . S
C2365 H2335 0.950 . S
C2365 C2360 1.363 . S
C2365 C2364 1.415 . S
H2366 C2363 0.999 . S
H2367 C2348 0.913 . S
H2368 C2386 0.951 . S
H2369 C2388 0.951 . S
H2370 C2390 0.950 . S
H2371 C2391 0.950 . S
H2372 C2393 0.950 . S
H2373 C2396 0.950 . S
H2374 C2397 0.950 . S
H2375 C2399 0.950 . S
H2376 C2400 0.950 . S
H2377 C2401 0.951 . S
H2378 C2403 0.951 . S
H2379 C2405 0.950 . S
H2380 C2406 0.950 . S
H2381 C2408 0.950 . S
H2382 C2411 0.950 . S
H2383 C2412 0.950 . S
H2384 C2414 0.950 . S
H2385 C2415 0.950 . S
C2386 H2368 0.951 . S
C2386 C2387 1.366 . S
C2386 C2388 1.388 . S
C2387 C2386 1.366 . S
C2387 C2391 1.385 . S
C2388 H2369 0.951 . S
C2388 C2386 1.388 . S
C2388 C2389 1.366 . S
C2389 C2388 1.366 . S
C2389 C2390 1.414 . S
C2389 C2392 1.499 . S
C2390 H2370 0.950 . S
C2390 C2389 1.414 . S
C2390 C2391 1.374 . S
C2391 H2371 0.950 . S
C2391 C2387 1.385 . S
C2391 C2390 1.374 . S
C2392 C2389 1.499 . S
C2392 C2393 1.373 . S
C2392 C2394 1.389 . S
C2393 H2372 0.950 . S
C2393 C2392 1.373 . S
C2393 C2409 1.377 . S
C2394 C2392 1.389 . S
C2394 C2395 1.524 . S
C2394 C2408 1.377 . S
C2395 C2394 1.524 . S
C2395 C2396 1.397 . S
C2395 C2400 1.363 . S
C2396 H2373 0.950 . S
C2396 C2395 1.397 . S
C2396 C2397 1.334 . S
C2397 H2374 0.950 . S
C2397 C2396 1.334 . S
C2397 C2398 1.287 . S
C2398 C2397 1.287 . S
C2398 C2399 1.524 . S
C2398 H2417 0.913 . S
C2399 H2375 0.950 . S
C2399 C2398 1.524 . S
C2399 C2400 1.415 . S
C2400 H2376 0.950 . S
C2400 C2395 1.363 . S
C2400 C2399 1.415 . S
C2401 H2377 0.951 . S
C2401 C2402 1.366 . S
C2401 C2403 1.388 . S
C2402 C2401 1.366 . S
C2402 C2406 1.385 . S
C2403 H2378 0.951 . S
C2403 C2401 1.388 . S
C2403 C2404 1.366 . S
C2404 C2403 1.366 . S
C2404 C2405 1.414 . S
C2404 C2407 1.499 . S
C2405 H2379 0.950 . S
C2405 C2404 1.414 . S
C2405 C2406 1.374 . S
C2406 H2380 0.950 . S
C2406 C2402 1.385 . S
C2406 C2405 1.374 . S
C2407 C2404 1.499 . S
C2407 C2408 1.373 . S
C2407 C2409 1.389 . S
C2408 H2381 0.950 . S
C2408 C2394 1.377 . S
C2408 C2407 1.373 . S
C2409 C2393 1.377 . S
C2409 C2407 1.389 . S
C2409 C2410 1.524 . S
C2410 C2409 1.524 . S
C2410 C2411 1.397 . S
C2410 C2415 1.363 . S
C2411 H2382 0.950 . S
C2411 C2410 1.397 . S
C2411 C2412 1.334 . S
C2412 H2383 0.950 . S
C2412 C2411 1.334 . S
C2412 C2413 1.287 . S
C2413 C2412 1.287 . S
C2413 C2414 1.524 . S
C2413 H2416 0.999 . S
C2414 H2384 0.950 . S
C2414 C2413 1.524 . S
C2414 C2415 1.415 . S
C2415 H2385 0.950 . S
C2415 C2410 1.363 . S
C2415 C2414 1.415 . S
H2416 C2413 0.999 . S
H2417 C2398 0.913 . S
H2418 C2436 0.951 . S
H2419 C2438 0.951 . S
H2420 C2440 0.950 . S
H2421 C2441 0.950 . S
H2422 C2443 0.942 1_655 S
H2423 C2446 0.962 . S
H2424 C2447 0.950 . S
H2425 C2449 0.950 . S
H2426 C2450 0.950 . S
H2427 C2451 0.951 . S
H2428 C2453 0.918 1_655 S
H2429 C2455 0.950 . S
H2430 C2456 0.950 . S
H2431 C2458 0.950 . S
H2432 C2461 0.950 1_455 S
H2433 C2462 0.950 . S
H2434 C2464 0.950 . S
H2435 C2465 0.950 . S
C2436 H2418 0.951 . S
C2436 C2437 1.366 1_556 S
C2436 C2438 1.388 . S
C2437 C2436 1.366 1_554 S
C2437 C2441 1.385 . S
C2438 H2419 0.951 . S
C2438 C2436 1.388 . S
C2438 C2439 1.366 . S
C2439 C2438 1.366 . S
C2439 C2440 1.414 . S
C2439 C2442 1.499 . S
C2440 H2420 0.950 . S
C2440 C2439 1.414 . S
C2440 C2441 1.374 1_556 S
C2441 H2421 0.950 . S
C2441 C2437 1.385 . S
C2441 C2440 1.374 1_554 S
C2442 C2439 1.499 . S
C2442 C2443 1.373 . S
C2442 C2444 1.389 . S
C2443 H2422 0.942 1_455 S
C2443 C2442 1.373 . S
C2443 C2459 1.377 . S
C2444 C2442 1.389 . S
C2444 C2445 1.524 . S
C2444 C2458 1.377 . S
C2445 C2444 1.524 . S
C2445 C2446 1.361 1_556 S
C2445 C2450 1.363 . S
C2446 H2423 0.962 . S
C2446 C2445 1.361 1_554 S
C2446 C2447 1.359 . S
C2447 H2424 0.950 . S
C2447 C2446 1.359 . S
C2447 C2448 1.287 . S
C2448 C2447 1.287 . S
C2448 C2449 1.524 1_554 S
C2448 H2467 0.913 . S
C2449 H2425 0.950 . S
C2449 C2448 1.524 1_556 S
C2449 C2450 1.415 . S
C2450 H2426 0.950 . S
C2450 C2445 1.363 . S
C2450 C2449 1.415 . S
C2451 H2427 0.951 . S
C2451 C2452 1.366 1_655 S
C2451 C2453 1.381 1_655 S
C2452 C2451 1.366 1_455 S
C2452 C2456 1.385 . S
C2453 H2428 0.918 1_455 S
C2453 C2451 1.381 1_455 S
C2453 C2454 1.406 . S
C2454 C2453 1.406 . S
C2454 C2455 1.414 . S
C2454 C2457 1.499 . S
C2455 H2429 0.950 . S
C2455 C2454 1.414 . S
C2455 C2456 1.374 . S
C2456 H2430 0.950 . S
C2456 C2452 1.385 . S
C2456 C2455 1.374 . S
C2457 C2454 1.499 . S
C2457 C2458 1.373 . S
C2457 C2459 1.389 . S
C2458 H2431 0.950 . S
C2458 C2444 1.377 . S
C2458 C2457 1.373 . S
C2459 C2443 1.377 . S
C2459 C2457 1.389 . S
C2459 C2460 1.524 1_455 S
C2460 C2459 1.524 1_655 S
C2460 C2461 1.397 . S
C2460 C2465 1.363 . S
C2461 H2432 0.950 1_655 S
C2461 C2460 1.397 . S
C2461 C2462 1.334 . S
C2462 H2433 0.950 . S
C2462 C2461 1.334 . S
C2462 C2463 1.287 . S
C2463 C2462 1.287 . S
C2463 C2464 1.524 . S
C2463 H2466 0.999 . S
C2464 H2434 0.950 . S
C2464 C2463 1.524 . S
C2464 C2465 1.415 . S
C2465 H2435 0.950 . S
C2465 C2460 1.363 . S
C2465 C2464 1.415 . S
H2466 C2463 0.999 . S
H2467 C2448 0.913 . S
H2468 C2486 0.951 . S
H2469 C2488 0.951 . S
H2470 C2490 0.950 . S
H2471 C2491 0.950 . S
H2472 C2493 0.950 . S
H2473 C2496 0.950 . S
H2474 C2497 0.950 . S
H2475 C2499 0.950 . S
H2476 C2500 0.950 . S
H2477 C2501 0.951 . S
H2478 C2503 0.951 . S
H2479 C2505 0.950 . S
H2480 C2506 0.950 . S
H2481 C2508 0.950 . S
H2482 C2511 0.950 . S
H2483 C2512 0.950 . S
H2484 C2514 0.950 . S
H2485 C2515 0.950 . S
C2486 H2468 0.951 . S
C2486 C2487 1.366 . S
C2486 C2488 1.388 . S
C2487 C2486 1.366 . S
C2487 C2491 1.385 . S
C2488 H2469 0.951 . S
C2488 C2486 1.388 . S
C2488 C2489 1.366 . S
C2489 C2488 1.366 . S
C2489 C2490 1.414 . S
C2489 C2492 1.499 . S
C2490 H2470 0.950 . S
C2490 C2489 1.414 . S
C2490 C2491 1.374 . S
C2491 H2471 0.950 . S
C2491 C2487 1.385 . S
C2491 C2490 1.374 . S
C2492 C2489 1.499 . S
C2492 C2493 1.373 . S
C2492 C2494 1.389 . S
C2493 H2472 0.950 . S
C2493 C2492 1.373 . S
C2493 C2509 1.377 . S
C2494 C2492 1.389 . S
C2494 C2495 1.524 . S
C2494 C2508 1.377 . S
C2495 C2494 1.524 . S
C2495 C2496 1.397 . S
C2495 C2500 1.363 . S
C2496 H2473 0.950 . S
C2496 C2495 1.397 . S
C2496 C2497 1.334 . S
C2497 H2474 0.950 . S
C2497 C2496 1.334 . S
C2497 C2498 1.287 . S
C2498 C2497 1.287 . S
C2498 C2499 1.524 . S
C2498 H2517 0.913 . S
C2499 H2475 0.950 . S
C2499 C2498 1.524 . S
C2499 C2500 1.415 . S
C2500 H2476 0.950 . S
C2500 C2495 1.363 . S
C2500 C2499 1.415 . S
C2501 H2477 0.951 . S
C2501 C2502 1.366 . S
C2501 C2503 1.388 . S
C2502 C2501 1.366 . S
C2502 C2506 1.385 . S
C2503 H2478 0.951 . S
C2503 C2501 1.388 . S
C2503 C2504 1.366 . S
C2504 C2503 1.366 . S
C2504 C2505 1.414 . S
C2504 C2507 1.499 . S
C2505 H2479 0.950 . S
C2505 C2504 1.414 . S
C2505 C2506 1.374 . S
C2506 H2480 0.950 . S
C2506 C2502 1.385 . S
C2506 C2505 1.374 . S
C2507 C2504 1.499 . S
C2507 C2508 1.373 . S
C2507 C2509 1.389 . S
C2508 H2481 0.950 . S
C2508 C2494 1.377 . S
C2508 C2507 1.373 . S
C2509 C2493 1.377 . S
C2509 C2507 1.389 . S
C2509 C2510 1.524 . S
C2510 C2509 1.524 . S
C2510 C2511 1.397 . S
C2510 C2515 1.363 . S
C2511 H2482 0.950 . S
C2511 C2510 1.397 . S
C2511 C2512 1.334 . S
C2512 H2483 0.950 . S
C2512 C2511 1.334 . S
C2512 C2513 1.287 . S
C2513 C2512 1.287 . S
C2513 C2514 1.524 . S
C2513 H2516 0.999 . S
C2514 H2484 0.950 . S
C2514 C2513 1.524 . S
C2514 C2515 1.415 . S
C2515 H2485 0.950 . S
C2515 C2510 1.363 . S
C2515 C2514 1.415 . S
H2516 C2513 0.999 . S
H2517 C2498 0.913 . S
H2518 C2536 0.951 . S
H2519 C2538 0.951 . S
H2520 C2540 0.950 . S
H2521 C2541 0.950 . S
H2522 C2543 0.950 . S
H2523 C2546 0.950 . S
H2524 C2547 0.950 . S
H2525 C2549 0.950 . S
H2526 C2550 0.950 . S
H2527 C2551 0.951 . S
H2528 C2553 0.951 . S
H2529 C2555 0.950 . S
H2530 C2556 0.950 . S
H2531 C2558 0.950 . S
H2532 C2561 0.950 . S
H2533 C2562 0.950 . S
H2534 C2564 0.950 . S
H2535 C2565 0.950 . S
C2536 H2518 0.951 . S
C2536 C2537 1.366 . S
C2536 C2538 1.388 . S
C2537 C2536 1.366 . S
C2537 C2541 1.385 . S
C2538 H2519 0.951 . S
C2538 C2536 1.388 . S
C2538 C2539 1.366 . S
C2539 C2538 1.366 . S
C2539 C2540 1.414 . S
C2539 C2542 1.499 . S
C2540 H2520 0.950 . S
C2540 C2539 1.414 . S
C2540 C2541 1.374 . S
C2541 H2521 0.950 . S
C2541 C2537 1.385 . S
C2541 C2540 1.374 . S
C2542 C2539 1.499 . S
C2542 C2543 1.373 . S
C2542 C2544 1.389 . S
C2543 H2522 0.950 . S
C2543 C2542 1.373 . S
C2543 C2559 1.377 . S
C2544 C2542 1.389 . S
C2544 C2545 1.524 . S
C2544 C2558 1.377 . S
C2545 C2544 1.524 . S
C2545 C2546 1.397 . S
C2545 C2550 1.363 . S
C2546 H2523 0.950 . S
C2546 C2545 1.397 . S
C2546 C2547 1.334 . S
C2547 H2524 0.950 . S
C2547 C2546 1.334 . S
C2547 C2548 1.287 . S
C2548 C2547 1.287 . S
C2548 C2549 1.524 . S
C2548 H2567 0.913 . S
C2549 H2525 0.950 . S
C2549 C2548 1.524 . S
C2549 C2550 1.415 . S
C2550 H2526 0.950 . S
C2550 C2545 1.363 . S
C2550 C2549 1.415 . S
C2551 H2527 0.951 . S
C2551 C2552 1.366 . S
C2551 C2553 1.388 . S
C2552 C2551 1.366 . S
C2552 C2556 1.385 . S
C2553 H2528 0.951 . S
C2553 C2551 1.388 . S
C2553 C2554 1.366 . S
C2554 C2553 1.366 . S
C2554 C2555 1.414 . S
C2554 C2557 1.499 . S
C2555 H2529 0.950 . S
C2555 C2554 1.414 . S
C2555 C2556 1.374 . S
C2556 H2530 0.950 . S
C2556 C2552 1.385 . S
C2556 C2555 1.374 . S
C2557 C2554 1.499 . S
C2557 C2558 1.373 . S
C2557 C2559 1.389 . S
C2558 H2531 0.950 . S
C2558 C2544 1.377 . S
C2558 C2557 1.373 . S
C2559 C2543 1.377 . S
C2559 C2557 1.389 . S
C2559 C2560 1.524 . S
C2560 C2559 1.524 . S
C2560 C2561 1.397 . S
C2560 C2565 1.363 . S
C2561 H2532 0.950 . S
C2561 C2560 1.397 . S
C2561 C2562 1.334 . S
C2562 H2533 0.950 . S
C2562 C2561 1.334 . S
C2562 C2563 1.287 . S
C2563 C2562 1.287 . S
C2563 C2564 1.524 . S
C2563 H2566 0.999 . S
C2564 H2534 0.950 . S
C2564 C2563 1.524 . S
C2564 C2565 1.415 . S
C2565 H2535 0.950 . S
C2565 C2560 1.363 . S
C2565 C2564 1.415 . S
H2566 C2563 0.999 . S
H2567 C2548 0.913 . S
H2568 C2586 0.951 . S
H2569 C2588 0.951 . S
H2570 C2590 0.950 . S
H2571 C2591 0.950 . S
H2572 C2593 0.950 . S
H2573 C2596 0.950 . S
H2574 C2597 0.950 . S
H2575 C2599 0.950 . S
H2576 C2600 0.950 . S
H2577 C2601 0.951 . S
H2578 C2603 0.951 . S
H2579 C2605 0.950 . S
H2580 C2606 0.950 . S
H2581 C2608 0.950 . S
H2582 C2611 0.950 . S
H2583 C2612 0.950 . S
H2584 C2614 0.950 . S
H2585 C2615 0.950 . S
C2586 H2568 0.951 . S
C2586 C2587 1.366 . S
C2586 C2588 1.388 . S
C2587 C2586 1.366 . S
C2587 C2591 1.385 . S
C2588 H2569 0.951 . S
C2588 C2586 1.388 . S
C2588 C2589 1.366 . S
C2589 C2588 1.366 . S
C2589 C2590 1.414 . S
C2589 C2592 1.499 . S
C2590 H2570 0.950 . S
C2590 C2589 1.414 . S
C2590 C2591 1.374 . S
C2591 H2571 0.950 . S
C2591 C2587 1.385 . S
C2591 C2590 1.374 . S
C2592 C2589 1.499 . S
C2592 C2593 1.373 . S
C2592 C2594 1.389 . S
C2593 H2572 0.950 . S
C2593 C2592 1.373 . S
C2593 C2609 1.377 . S
C2594 C2592 1.389 . S
C2594 C2595 1.524 . S
C2594 C2608 1.377 . S
C2595 C2594 1.524 . S
C2595 C2596 1.397 . S
C2595 C2600 1.363 . S
C2596 H2573 0.950 . S
C2596 C2595 1.397 . S
C2596 C2597 1.334 . S
C2597 H2574 0.950 . S
C2597 C2596 1.334 . S
C2597 C2598 1.287 . S
C2598 C2597 1.287 . S
C2598 C2599 1.524 . S
C2598 H2617 0.913 . S
C2599 H2575 0.950 . S
C2599 C2598 1.524 . S
C2599 C2600 1.415 . S
C2600 H2576 0.950 . S
C2600 C2595 1.363 . S
C2600 C2599 1.415 . S
C2601 H2577 0.951 . S
C2601 C2602 1.366 . S
C2601 C2603 1.388 . S
C2602 C2601 1.366 . S
C2602 C2606 1.385 . S
C2603 H2578 0.951 . S
C2603 C2601 1.388 . S
C2603 C2604 1.366 . S
C2604 C2603 1.366 . S
C2604 C2605 1.414 . S
C2604 C2607 1.499 . S
C2605 H2579 0.950 . S
C2605 C2604 1.414 . S
C2605 C2606 1.374 . S
C2606 H2580 0.950 . S
C2606 C2602 1.385 . S
C2606 C2605 1.374 . S
C2607 C2604 1.499 . S
C2607 C2608 1.373 . S
C2607 C2609 1.389 . S
C2608 H2581 0.950 . S
C2608 C2594 1.377 . S
C2608 C2607 1.373 . S
C2609 C2593 1.377 . S
C2609 C2607 1.389 . S
C2609 C2610 1.524 . S
C2610 C2609 1.524 . S
C2610 C2611 1.397 . S
C2610 C2615 1.363 . S
C2611 H2582 0.950 . S
C2611 C2610 1.397 . S
C2611 C2612 1.334 . S
C2612 H2583 0.950 . S
C2612 C2611 1.334 . S
C2612 C2613 1.287 . S
C2613 C2612 1.287 . S
C2613 C2614 1.524 . S
C2613 H2616 0.999 . S
C2614 H2584 0.950 . S
C2614 C2613 1.524 . S
C2614 C2615 1.415 . S
C2615 H2585 0.950 . S
C2615 C2610 1.363 . S
C2615 C2614 1.415 . S
H2616 C2613 0.999 . S
H2617 C2598 0.913 . S
H2618 C2636 0.951 . S
H2619 C2638 0.951 . S
H2620 C2640 0.950 . S
H2621 C2641 0.950 1_556 S
H2622 C2643 0.950 . S
H2623 C2646 0.950 . S
H2624 C2647 0.950 . S
H2625 C2649 0.950 . S
H2626 C2650 0.950 . S
H2627 C2651 0.951 . S
H2628 C2653 0.951 . S
H2629 C2655 0.950 . S
H2630 C2656 0.950 . S
H2631 C2658 0.950 . S
H2632 C2661 0.950 . S
H2633 C2662 0.950 . S
H2634 C2664 0.950 . S
H2635 C2665 0.950 . S
C2636 H2618 0.951 . S
C2636 C2637 1.366 . S
C2636 C2638 1.388 . S
C2637 C2636 1.366 . S
C2637 C2641 1.385 . S
C2638 H2619 0.951 . S
C2638 C2636 1.388 . S
C2638 C2639 1.366 . S
C2639 C2638 1.366 . S
C2639 C2640 1.414 . S
C2639 C2642 1.499 . S
C2640 H2620 0.950 . S
C2640 C2639 1.414 . S
C2640 C2641 1.374 . S
C2641 H2621 0.950 1_554 S
C2641 C2637 1.385 . S
C2641 C2640 1.374 . S
C2642 C2639 1.499 . S
C2642 C2643 1.373 . S
C2642 C2644 1.389 . S
C2643 H2622 0.950 . S
C2643 C2642 1.373 . S
C2643 C2659 1.377 . S
C2644 C2642 1.389 . S
C2644 C2645 1.524 . S
C2644 C2658 1.377 . S
C2645 C2644 1.524 . S
C2645 C2646 1.397 . S
C2645 C2650 1.363 . S
C2646 H2623 0.950 . S
C2646 C2645 1.397 . S
C2646 C2647 1.334 . S
C2647 H2624 0.950 . S
C2647 C2646 1.334 . S
C2647 C2648 1.287 . S
C2648 C2647 1.287 . S
C2648 C2649 1.524 . S
C2648 H2667 0.913 . S
C2649 H2625 0.950 . S
C2649 C2648 1.524 . S
C2649 C2650 1.415 . S
C2650 H2626 0.950 . S
C2650 C2645 1.363 . S
C2650 C2649 1.415 . S
C2651 H2627 0.951 . S
C2651 C2652 1.366 . S
C2651 C2653 1.388 . S
C2652 C2651 1.366 . S
C2652 C2656 1.385 . S
C2653 H2628 0.951 . S
C2653 C2651 1.388 . S
C2653 C2654 1.366 . S
C2654 C2653 1.366 . S
C2654 C2655 1.414 . S
C2654 C2657 1.499 . S
C2655 H2629 0.950 . S
C2655 C2654 1.414 . S
C2655 C2656 1.374 . S
C2656 H2630 0.950 . S
C2656 C2652 1.385 . S
C2656 C2655 1.374 . S
C2657 C2654 1.499 . S
C2657 C2658 1.373 . S
C2657 C2659 1.389 . S
C2658 H2631 0.950 . S
C2658 C2644 1.377 . S
C2658 C2657 1.373 . S
C2659 C2643 1.377 . S
C2659 C2657 1.389 . S
C2659 C2660 1.524 . S
C2660 C2659 1.524 . S
C2660 C2661 1.397 . S
C2660 C2665 1.363 . S
C2661 H2632 0.950 . S
C2661 C2660 1.397 . S
C2661 C2662 1.334 . S
C2662 H2633 0.950 . S
C2662 C2661 1.334 . S
C2662 C2663 1.287 . S
C2663 C2662 1.287 . S
C2663 C2664 1.524 . S
C2663 H2666 0.999 . S
C2664 H2634 0.950 . S
C2664 C2663 1.524 . S
C2664 C2665 1.415 . S
C2665 H2635 0.950 . S
C2665 C2660 1.363 . S
C2665 C2664 1.415 . S
H2666 C2663 0.999 . S
H2667 C2648 0.913 . S
H2668 C2686 0.951 . S
H2669 C2688 0.951 . S
H2670 C2690 0.950 . S
H2671 C2691 0.950 . S
H2672 C2693 0.950 . S
H2673 C2696 0.950 . S
H2674 C2697 0.950 . S
H2675 C2699 0.950 . S
H2676 C2700 0.950 . S
H2677 C2701 0.951 . S
H2678 C2703 0.951 . S
H2679 C2705 0.950 . S
H2680 C2706 0.950 . S
H2681 C2708 0.950 . S
H2682 C2711 0.950 . S
H2683 C2712 0.950 . S
H2684 C2714 0.950 . S
H2685 C2715 0.950 . S
C2686 H2668 0.951 . S
C2686 C2687 1.366 . S
C2686 C2688 1.388 . S
C2687 C2686 1.366 . S
C2687 C2691 1.385 . S
C2688 H2669 0.951 . S
C2688 C2686 1.388 . S
C2688 C2689 1.366 . S
C2689 C2688 1.366 . S
C2689 C2690 1.414 . S
C2689 C2692 1.499 . S
C2690 H2670 0.950 . S
C2690 C2689 1.414 . S
C2690 C2691 1.374 . S
C2691 H2671 0.950 . S
C2691 C2687 1.385 . S
C2691 C2690 1.374 . S
C2692 C2689 1.499 . S
C2692 C2693 1.373 . S
C2692 C2694 1.389 . S
C2693 H2672 0.950 . S
C2693 C2692 1.373 . S
C2693 C2709 1.377 . S
C2694 C2692 1.389 . S
C2694 C2695 1.524 . S
C2694 C2708 1.377 . S
C2695 C2694 1.524 . S
C2695 C2696 1.397 . S
C2695 C2700 1.363 . S
C2696 H2673 0.950 . S
C2696 C2695 1.397 . S
C2696 C2697 1.334 . S
C2697 H2674 0.950 . S
C2697 C2696 1.334 . S
C2697 C2698 1.287 . S
C2698 C2697 1.287 . S
C2698 C2699 1.524 . S
C2698 H2717 0.913 . S
C2699 H2675 0.950 . S
C2699 C2698 1.524 . S
C2699 C2700 1.415 . S
C2700 H2676 0.950 . S
C2700 C2695 1.363 . S
C2700 C2699 1.415 . S
C2701 H2677 0.951 . S
C2701 C2702 1.366 . S
C2701 C2703 1.388 . S
C2702 C2701 1.366 . S
C2702 C2706 1.385 . S
C2703 H2678 0.951 . S
C2703 C2701 1.388 . S
C2703 C2704 1.366 . S
C2704 C2703 1.366 . S
C2704 C2705 1.414 . S
C2704 C2707 1.499 . S
C2705 H2679 0.950 . S
C2705 C2704 1.414 . S
C2705 C2706 1.374 . S
C2706 H2680 0.950 . S
C2706 C2702 1.385 . S
C2706 C2705 1.374 . S
C2707 C2704 1.499 . S
C2707 C2708 1.373 . S
C2707 C2709 1.389 . S
C2708 H2681 0.950 . S
C2708 C2694 1.377 . S
C2708 C2707 1.373 . S
C2709 C2693 1.377 . S
C2709 C2707 1.389 . S
C2709 C2710 1.524 . S
C2710 C2709 1.524 . S
C2710 C2711 1.397 . S
C2710 C2715 1.363 . S
C2711 H2682 0.950 . S
C2711 C2710 1.397 . S
C2711 C2712 1.334 . S
C2712 H2683 0.950 . S
C2712 C2711 1.334 . S
C2712 C2713 1.287 . S
C2713 C2712 1.287 . S
C2713 C2714 1.524 . S
C2713 H2716 0.999 . S
C2714 H2684 0.950 . S
C2714 C2713 1.524 . S
C2714 C2715 1.415 . S
C2715 H2685 0.950 . S
C2715 C2710 1.363 . S
C2715 C2714 1.415 . S
H2716 C2713 0.999 . S
H2717 C2698 0.913 . S
H2718 C2736 0.951 . S
H2719 C2738 0.951 . S
H2720 C2740 0.950 . S
H2721 C2741 0.950 . S
H2722 C2743 0.950 . S
H2723 C2746 0.950 . S
H2724 C2747 0.950 . S
H2725 C2749 0.950 . S
H2726 C2750 0.950 . S
H2727 C2751 0.951 . S
H2728 C2753 0.951 . S
H2729 C2755 0.950 . S
H2730 C2756 0.950 . S
H2731 C2758 0.950 . S
H2732 C2761 0.950 . S
H2733 C2762 0.950 . S
H2734 C2764 0.950 . S
H2735 C2765 0.950 . S
C2736 H2718 0.951 . S
C2736 C2737 1.366 . S
C2736 C2738 1.388 . S
C2737 C2736 1.366 . S
C2737 C2741 1.385 . S
C2738 H2719 0.951 . S
C2738 C2736 1.388 . S
C2738 C2739 1.366 . S
C2739 C2738 1.366 . S
C2739 C2740 1.414 . S
C2739 C2742 1.499 . S
C2740 H2720 0.950 . S
C2740 C2739 1.414 . S
C2740 C2741 1.374 . S
C2741 H2721 0.950 . S
C2741 C2737 1.385 . S
C2741 C2740 1.374 . S
C2742 C2739 1.499 . S
C2742 C2743 1.373 . S
C2742 C2744 1.389 . S
C2743 H2722 0.950 . S
C2743 C2742 1.373 . S
C2743 C2759 1.377 . S
C2744 C2742 1.389 . S
C2744 C2745 1.524 . S
C2744 C2758 1.377 . S
C2745 C2744 1.524 . S
C2745 C2746 1.397 . S
C2745 C2750 1.363 . S
C2746 H2723 0.950 . S
C2746 C2745 1.397 . S
C2746 C2747 1.334 . S
C2747 H2724 0.950 . S
C2747 C2746 1.334 . S
C2747 C2748 1.287 . S
C2748 C2747 1.287 . S
C2748 C2749 1.524 . S
C2748 H2767 0.913 . S
C2749 H2725 0.950 . S
C2749 C2748 1.524 . S
C2749 C2750 1.415 . S
C2750 H2726 0.950 . S
C2750 C2745 1.363 . S
C2750 C2749 1.415 . S
C2751 H2727 0.951 . S
C2751 C2752 1.366 . S
C2751 C2753 1.388 . S
C2752 C2751 1.366 . S
C2752 C2756 1.385 . S
C2753 H2728 0.951 . S
C2753 C2751 1.388 . S
C2753 C2754 1.366 . S
C2754 C2753 1.366 . S
C2754 C2755 1.414 . S
C2754 C2757 1.499 . S
C2755 H2729 0.950 . S
C2755 C2754 1.414 . S
C2755 C2756 1.374 . S
C2756 H2730 0.950 . S
C2756 C2752 1.385 . S
C2756 C2755 1.374 . S
C2757 C2754 1.499 . S
C2757 C2758 1.373 . S
C2757 C2759 1.389 . S
C2758 H2731 0.950 . S
C2758 C2744 1.377 . S
C2758 C2757 1.373 . S
C2759 C2743 1.377 . S
C2759 C2757 1.389 . S
C2759 C2760 1.524 . S
C2760 C2759 1.524 . S
C2760 C2761 1.397 . S
C2760 C2765 1.363 . S
C2761 H2732 0.950 . S
C2761 C2760 1.397 . S
C2761 C2762 1.334 . S
C2762 H2733 0.950 . S
C2762 C2761 1.334 . S
C2762 C2763 1.287 . S
C2763 C2762 1.287 . S
C2763 C2764 1.524 . S
C2763 H2766 0.999 . S
C2764 H2734 0.950 . S
C2764 C2763 1.524 . S
C2764 C2765 1.415 . S
C2765 H2735 0.950 . S
C2765 C2760 1.363 . S
C2765 C2764 1.415 . S
H2766 C2763 0.999 . S
H2767 C2748 0.913 . S
H2768 C2786 0.951 . S
H2769 C2788 0.951 . S
H2770 C2790 0.950 . S
H2771 C2791 0.950 . S
H2772 C2793 0.950 . S
H2773 C2796 0.950 . S
H2774 C2797 0.950 . S
H2775 C2799 0.950 . S
H2776 C2800 0.950 . S
H2777 C2801 0.951 . S
H2778 C2803 0.951 . S
H2779 C2805 0.950 . S
H2780 C2806 0.950 . S
H2781 C2808 0.950 . S
H2782 C2811 0.950 . S
H2783 C2812 0.950 . S
H2784 C2814 0.950 . S
H2785 C2815 0.950 . S
C2786 H2768 0.951 . S
C2786 C2787 1.366 . S
C2786 C2788 1.388 . S
C2787 C2786 1.366 . S
C2787 C2791 1.385 . S
C2788 H2769 0.951 . S
C2788 C2786 1.388 . S
C2788 C2789 1.366 . S
C2789 C2788 1.366 . S
C2789 C2790 1.414 . S
C2789 C2792 1.499 . S
C2790 H2770 0.950 . S
C2790 C2789 1.414 . S
C2790 C2791 1.374 . S
C2791 H2771 0.950 . S
C2791 C2787 1.385 . S
C2791 C2790 1.374 . S
C2792 C2789 1.499 . S
C2792 C2793 1.373 . S
C2792 C2794 1.389 . S
C2793 H2772 0.950 . S
C2793 C2792 1.373 . S
C2793 C2809 1.377 . S
C2794 C2792 1.389 . S
C2794 C2795 1.524 . S
C2794 C2808 1.377 . S
C2795 C2794 1.524 . S
C2795 C2796 1.397 . S
C2795 C2800 1.363 . S
C2796 H2773 0.950 . S
C2796 C2795 1.397 . S
C2796 C2797 1.334 . S
C2797 H2774 0.950 . S
C2797 C2796 1.334 . S
C2797 C2798 1.287 . S
C2798 C2797 1.287 . S
C2798 C2799 1.524 . S
C2798 H2817 0.913 . S
C2799 H2775 0.950 . S
C2799 C2798 1.524 . S
C2799 C2800 1.415 . S
C2800 H2776 0.950 . S
C2800 C2795 1.363 . S
C2800 C2799 1.415 . S
C2801 H2777 0.951 . S
C2801 C2802 1.366 . S
C2801 C2803 1.388 . S
C2802 C2801 1.366 . S
C2802 C2806 1.385 . S
C2803 H2778 0.951 . S
C2803 C2801 1.388 . S
C2803 C2804 1.366 . S
C2804 C2803 1.366 . S
C2804 C2805 1.414 . S
C2804 C2807 1.499 . S
C2805 H2779 0.950 . S
C2805 C2804 1.414 . S
C2805 C2806 1.374 . S
C2806 H2780 0.950 . S
C2806 C2802 1.385 . S
C2806 C2805 1.374 . S
C2807 C2804 1.499 . S
C2807 C2808 1.373 . S
C2807 C2809 1.389 . S
C2808 H2781 0.950 . S
C2808 C2794 1.377 . S
C2808 C2807 1.373 . S
C2809 C2793 1.377 . S
C2809 C2807 1.389 . S
C2809 C2810 1.524 . S
C2810 C2809 1.524 . S
C2810 C2811 1.397 . S
C2810 C2815 1.363 . S
C2811 H2782 0.950 . S
C2811 C2810 1.397 . S
C2811 C2812 1.334 . S
C2812 H2783 0.950 . S
C2812 C2811 1.334 . S
C2812 C2813 1.287 . S
C2813 C2812 1.287 . S
C2813 C2814 1.524 . S
C2813 H2816 0.999 . S
C2814 H2784 0.950 . S
C2814 C2813 1.524 . S
C2814 C2815 1.415 . S
C2815 H2785 0.950 . S
C2815 C2810 1.363 . S
C2815 C2814 1.415 . S
H2816 C2813 0.999 . S
H2817 C2798 0.913 . S
H2818 C2836 0.951 . S
H2819 C2838 0.951 . S
H2820 C2840 0.950 . S
H2821 C2841 0.950 . S
H2822 C2843 0.950 . S
H2823 C2846 0.950 . S
H2824 C2847 0.950 . S
H2825 C2849 0.950 . S
H2826 C2850 0.950 . S
H2827 C2851 0.951 . S
H2828 C2853 0.951 . S
H2829 C2855 0.950 . S
H2830 C2856 0.950 . S
H2831 C2858 0.950 . S
H2832 C2861 0.950 . S
H2833 C2862 0.950 . S
H2834 C2864 0.950 . S
H2835 C2865 0.950 . S
C2836 H2818 0.951 . S
C2836 C2837 1.366 . S
C2836 C2838 1.388 . S
C2837 C2836 1.366 . S
C2837 C2841 1.385 . S
C2838 H2819 0.951 . S
C2838 C2836 1.388 . S
C2838 C2839 1.366 . S
C2839 C2838 1.366 . S
C2839 C2840 1.414 . S
C2839 C2842 1.499 . S
C2840 H2820 0.950 . S
C2840 C2839 1.414 . S
C2840 C2841 1.374 . S
C2841 H2821 0.950 . S
C2841 C2837 1.385 . S
C2841 C2840 1.374 . S
C2842 C2839 1.499 . S
C2842 C2843 1.373 . S
C2842 C2844 1.389 . S
C2843 H2822 0.950 . S
C2843 C2842 1.373 . S
C2843 C2859 1.377 . S
C2844 C2842 1.389 . S
C2844 C2845 1.524 . S
C2844 C2858 1.377 . S
C2845 C2844 1.524 . S
C2845 C2846 1.397 . S
C2845 C2850 1.363 . S
C2846 H2823 0.950 . S
C2846 C2845 1.397 . S
C2846 C2847 1.334 . S
C2847 H2824 0.950 . S
C2847 C2846 1.334 . S
C2847 C2848 1.287 . S
C2848 C2847 1.287 . S
C2848 C2849 1.524 . S
C2848 H2867 0.913 . S
C2849 H2825 0.950 . S
C2849 C2848 1.524 . S
C2849 C2850 1.415 . S
C2850 H2826 0.950 . S
C2850 C2845 1.363 . S
C2850 C2849 1.415 . S
C2851 H2827 0.951 . S
C2851 C2852 1.366 . S
C2851 C2853 1.388 . S
C2852 C2851 1.366 . S
C2852 C2856 1.385 . S
C2853 H2828 0.951 . S
C2853 C2851 1.388 . S
C2853 C2854 1.366 . S
C2854 C2853 1.366 . S
C2854 C2855 1.414 . S
C2854 C2857 1.499 . S
C2855 H2829 0.950 . S
C2855 C2854 1.414 . S
C2855 C2856 1.374 . S
C2856 H2830 0.950 . S
C2856 C2852 1.385 . S
C2856 C2855 1.374 . S
C2857 C2854 1.499 . S
C2857 C2858 1.373 . S
C2857 C2859 1.389 . S
C2858 H2831 0.950 . S
C2858 C2844 1.377 . S
C2858 C2857 1.373 . S
C2859 C2843 1.377 . S
C2859 C2857 1.389 . S
C2859 C2860 1.524 . S
C2860 C2859 1.524 . S
C2860 C2861 1.397 . S
C2860 C2865 1.363 . S
C2861 H2832 0.950 . S
C2861 C2860 1.397 . S
C2861 C2862 1.334 . S
C2862 H2833 0.950 . S
C2862 C2861 1.334 . S
C2862 C2863 1.287 . S
C2863 C2862 1.287 . S
C2863 C2864 1.524 . S
C2863 H2866 0.999 . S
C2864 H2834 0.950 . S
C2864 C2863 1.524 . S
C2864 C2865 1.415 . S
C2865 H2835 0.950 . S
C2865 C2860 1.363 . S
C2865 C2864 1.415 . S
H2866 C2863 0.999 . S
H2867 C2848 0.913 . S
H2868 C2886 0.951 . S
H2869 C2888 0.951 . S
H2870 C2890 0.950 1_554 S
H2871 C2891 0.950 . S
H2872 C2893 0.950 1_554 S
H2873 C2896 0.950 . S
H2874 C2897 0.950 . S
H2875 C2899 0.950 . S
H2876 C2900 0.950 . S
H2877 C2901 0.951 . S
H2878 C2903 0.951 . S
H2879 C2905 0.950 . S
H2880 C2906 0.950 . S
H2881 C2908 0.950 . S
H2882 C2911 0.950 1_556 S
H2883 C2912 0.950 . S
H2884 C2914 0.950 . S
H2885 C2915 0.950 . S
C2886 H2868 0.951 . S
C2886 C2887 1.366 . S
C2886 C2888 1.388 . S
C2887 C2886 1.366 . S
C2887 C2891 1.385 . S
C2888 H2869 0.951 . S
C2888 C2886 1.388 . S
C2888 C2889 1.366 . S
C2889 C2888 1.366 . S
C2889 C2890 1.414 . S
C2889 C2892 1.499 . S
C2890 H2870 0.950 1_556 S
C2890 C2889 1.414 . S
C2890 C2891 1.374 . S
C2891 H2871 0.950 . S
C2891 C2887 1.385 . S
C2891 C2890 1.374 . S
C2892 C2889 1.499 . S
C2892 C2893 1.373 . S
C2892 C2894 1.389 . S
C2893 H2872 0.950 1_556 S
C2893 C2892 1.373 . S
C2893 C2909 1.377 . S
C2894 C2892 1.389 . S
C2894 C2895 1.524 . S
C2894 C2908 1.377 . S
C2895 C2894 1.524 . S
C2895 C2896 1.397 . S
C2895 C2900 1.363 . S
C2896 H2873 0.950 . S
C2896 C2895 1.397 . S
C2896 C2897 1.334 . S
C2897 H2874 0.950 . S
C2897 C2896 1.334 . S
C2897 C2898 1.287 . S
C2898 C2897 1.287 . S
C2898 C2899 1.524 . S
C2898 H2917 0.913 . S
C2899 H2875 0.950 . S
C2899 C2898 1.524 . S
C2899 C2900 1.415 . S
C2900 H2876 0.950 . S
C2900 C2895 1.363 . S
C2900 C2899 1.415 . S
C2901 H2877 0.951 . S
C2901 C2902 1.366 1_554 S
C2901 C2903 1.388 . S
C2902 C2901 1.366 1_556 S
C2902 C2906 1.385 . S
C2903 H2878 0.951 . S
C2903 C2901 1.388 . S
C2903 C2904 1.366 1_554 S
C2904 C2903 1.366 1_556 S
C2904 C2905 1.414 . S
C2904 C2907 1.499 . S
C2905 H2879 0.950 . S
C2905 C2904 1.414 . S
C2905 C2906 1.374 . S
C2906 H2880 0.950 . S
C2906 C2902 1.385 . S
C2906 C2905 1.374 . S
C2907 C2904 1.499 . S
C2907 C2908 1.373 . S
C2907 C2909 1.389 . S
C2908 H2881 0.950 . S
C2908 C2894 1.377 . S
C2908 C2907 1.373 . S
C2909 C2893 1.377 . S
C2909 C2907 1.389 . S
C2909 C2910 1.524 1_556 S
C2910 C2909 1.524 1_554 S
C2910 C2911 1.397 . S
C2910 C2915 1.363 . S
C2911 H2882 0.950 1_554 S
C2911 C2910 1.397 . S
C2911 C2912 1.334 . S
C2912 H2883 0.950 . S
C2912 C2911 1.334 . S
C2912 C2913 1.287 . S
C2913 C2912 1.287 . S
C2913 C2914 1.524 . S
C2913 H2916 0.999 . S
C2914 H2884 0.950 . S
C2914 C2913 1.524 . S
C2914 C2915 1.415 . S
C2915 H2885 0.950 . S
C2915 C2910 1.363 . S
C2915 C2914 1.415 . S
H2916 C2913 0.999 . S
H2917 C2898 0.913 . S
H2918 C2936 0.951 . S
H2919 C2938 0.951 . S
H2920 C2940 0.950 . S
H2921 C2941 0.950 . S
H2922 C2943 0.950 . S
H2923 C2946 0.950 . S
H2924 C2947 0.950 . S
H2925 C2949 0.950 . S
H2926 C2950 0.950 . S
H2927 C2951 0.951 . S
H2928 C2953 0.951 . S
H2929 C2955 0.950 . S
H2930 C2956 0.950 . S
H2931 C2958 0.950 . S
H2932 C2961 0.950 . S
H2933 C2962 0.950 . S
H2934 C2964 0.950 . S
H2935 C2965 0.950 . S
C2936 H2918 0.951 . S
C2936 C2937 1.366 . S
C2936 C2938 1.388 . S
C2937 C2936 1.366 . S
C2937 C2941 1.385 . S
C2938 H2919 0.951 . S
C2938 C2936 1.388 . S
C2938 C2939 1.366 . S
C2939 C2938 1.366 . S
C2939 C2940 1.414 . S
C2939 C2942 1.499 . S
C2940 H2920 0.950 . S
C2940 C2939 1.414 . S
C2940 C2941 1.374 . S
C2941 H2921 0.950 . S
C2941 C2937 1.385 . S
C2941 C2940 1.374 . S
C2942 C2939 1.499 . S
C2942 C2943 1.373 . S
C2942 C2944 1.389 . S
C2943 H2922 0.950 . S
C2943 C2942 1.373 . S
C2943 C2959 1.377 . S
C2944 C2942 1.389 . S
C2944 C2945 1.524 . S
C2944 C2958 1.377 . S
C2945 C2944 1.524 . S
C2945 C2946 1.397 . S
C2945 C2950 1.363 . S
C2946 H2923 0.950 . S
C2946 C2945 1.397 . S
C2946 C2947 1.334 . S
C2947 H2924 0.950 . S
C2947 C2946 1.334 . S
C2947 C2948 1.287 . S
C2948 C2947 1.287 . S
C2948 C2949 1.524 . S
C2948 H2967 0.913 . S
C2949 H2925 0.950 . S
C2949 C2948 1.524 . S
C2949 C2950 1.415 . S
C2950 H2926 0.950 . S
C2950 C2945 1.363 . S
C2950 C2949 1.415 . S
C2951 H2927 0.951 . S
C2951 C2952 1.366 . S
C2951 C2953 1.388 . S
C2952 C2951 1.366 . S
C2952 C2956 1.385 . S
C2953 H2928 0.951 . S
C2953 C2951 1.388 . S
C2953 C2954 1.366 . S
C2954 C2953 1.366 . S
C2954 C2955 1.414 . S
C2954 C2957 1.499 . S
C2955 H2929 0.950 . S
C2955 C2954 1.414 . S
C2955 C2956 1.374 . S
C2956 H2930 0.950 . S
C2956 C2952 1.385 . S
C2956 C2955 1.374 . S
C2957 C2954 1.499 . S
C2957 C2958 1.373 . S
C2957 C2959 1.389 . S
C2958 H2931 0.950 . S
C2958 C2944 1.377 . S
C2958 C2957 1.373 . S
C2959 C2943 1.377 . S
C2959 C2957 1.389 . S
C2959 C2960 1.524 . S
C2960 C2959 1.524 . S
C2960 C2961 1.397 . S
C2960 C2965 1.363 . S
C2961 H2932 0.950 . S
C2961 C2960 1.397 . S
C2961 C2962 1.334 . S
C2962 H2933 0.950 . S
C2962 C2961 1.334 . S
C2962 C2963 1.287 . S
C2963 C2962 1.287 . S
C2963 C2964 1.524 . S
C2963 H2966 0.999 . S
C2964 H2934 0.950 . S
C2964 C2963 1.524 . S
C2964 C2965 1.415 . S
C2965 H2935 0.950 . S
C2965 C2960 1.363 . S
C2965 C2964 1.415 . S
H2966 C2963 0.999 . S
H2967 C2948 0.913 . S
H2968 C2986 0.951 . S
H2969 C2988 0.951 . S
H2970 C2990 0.950 . S
H2971 C2991 0.950 . S
H2972 C2993 0.950 . S
H2973 C2996 0.950 . S
H2974 C2997 0.950 . S
H2975 C2999 0.950 . S
H2976 C3000 0.950 . S
H2977 C3001 0.951 . S
H2978 C3003 0.951 . S
H2979 C3005 0.950 . S
H2980 C3006 0.950 . S
H2981 C3008 0.950 1_556 S
H2982 C3011 0.950 . S
H2983 C3012 0.950 . S
H2984 C3014 0.950 . S
H2985 C3015 0.950 . S
C2986 H2968 0.951 . S
C2986 C2987 1.366 . S
C2986 C2988 1.388 . S
C2987 C2986 1.366 . S
C2987 C2991 1.385 . S
C2988 H2969 0.951 . S
C2988 C2986 1.388 . S
C2988 C2989 1.366 . S
C2989 C2988 1.366 . S
C2989 C2990 1.414 . S
C2989 C2992 1.499 . S
C2990 H2970 0.950 . S
C2990 C2989 1.414 . S
C2990 C2991 1.374 . S
C2991 H2971 0.950 . S
C2991 C2987 1.385 . S
C2991 C2990 1.374 . S
C2992 C2989 1.499 . S
C2992 C2993 1.373 . S
C2992 C2994 1.389 . S
C2993 H2972 0.950 . S
C2993 C2992 1.373 . S
C2993 C3009 1.377 . S
C2994 C2992 1.389 . S
C2994 C2995 1.524 1_554 S
C2994 C3008 1.377 . S
C2995 C2994 1.524 1_556 S
C2995 C2996 1.397 . S
C2995 C3000 1.363 . S
C2996 H2973 0.950 . S
C2996 C2995 1.397 . S
C2996 C2997 1.334 . S
C2997 H2974 0.950 . S
C2997 C2996 1.334 . S
C2997 C2998 1.287 . S
C2998 C2997 1.287 . S
C2998 C2999 1.524 . S
C2998 H3017 0.913 . S
C2999 H2975 0.950 . S
C2999 C2998 1.524 . S
C2999 C3000 1.415 . S
C3000 H2976 0.950 . S
C3000 C2995 1.363 . S
C3000 C2999 1.415 . S
C3001 H2977 0.951 . S
C3001 C3002 1.366 . S
C3001 C3003 1.388 . S
C3002 C3001 1.366 . S
C3002 C3006 1.385 . S
C3003 H2978 0.951 . S
C3003 C3001 1.388 . S
C3003 C3004 1.366 . S
C3004 C3003 1.366 . S
C3004 C3005 1.414 . S
C3004 C3007 1.499 . S
C3005 H2979 0.950 . S
C3005 C3004 1.414 . S
C3005 C3006 1.374 . S
C3006 H2980 0.950 . S
C3006 C3002 1.385 . S
C3006 C3005 1.374 . S
C3007 C3004 1.499 . S
C3007 C3008 1.373 . S
C3007 C3009 1.389 . S
C3008 H2981 0.950 1_554 S
C3008 C2994 1.377 . S
C3008 C3007 1.373 . S
C3009 C2993 1.377 . S
C3009 C3007 1.389 . S
C3009 C3010 1.524 . S
C3010 C3009 1.524 . S
C3010 C3011 1.397 . S
C3010 C3015 1.363 . S
C3011 H2982 0.950 . S
C3011 C3010 1.397 . S
C3011 C3012 1.334 . S
C3012 H2983 0.950 . S
C3012 C3011 1.334 . S
C3012 C3013 1.287 . S
C3013 C3012 1.287 . S
C3013 C3014 1.524 . S
C3013 H3016 0.999 . S
C3014 H2984 0.950 . S
C3014 C3013 1.524 . S
C3014 C3015 1.415 . S
C3015 H2985 0.950 . S
C3015 C3010 1.363 . S
C3015 C3014 1.415 . S
H3016 C3013 0.999 . S
H3017 C2998 0.913 . S
H3018 C3036 0.951 . S
H3019 C3038 0.951 . S
H3020 C3040 0.950 . S
H3021 C3041 0.950 1_545 S
H3022 C3043 0.950 . S
H3023 C3046 0.950 . S
H3024 C3047 0.950 . S
H3025 C3049 0.950 1_556 S
H3026 C3050 0.950 1_556 S
H3027 C3051 0.951 . S
H3028 C3053 0.951 . S
H3029 C3055 0.950 1_556 S
H3030 C3056 0.950 1_556 S
H3031 C3058 0.950 . S
H3032 C3061 0.950 . S
H3033 C3062 0.950 . S
H3034 C3064 0.950 . S
H3035 C3065 0.950 . S
C3036 H3018 0.951 . S
C3036 C3037 1.366 1_565 S
C3036 C3038 1.388 . S
C3037 C3036 1.366 1_545 S
C3037 C3041 1.385 1_545 S
C3038 H3019 0.951 . S
C3038 C3036 1.388 . S
C3038 C3039 1.366 . S
C3039 C3038 1.366 . S
C3039 C3040 1.414 . S
C3039 C3042 1.499 . S
C3040 H3020 0.950 . S
C3040 C3039 1.414 . S
C3040 C3041 1.374 . S
C3041 H3021 0.950 1_565 S
C3041 C3037 1.385 1_565 S
C3041 C3040 1.374 . S
C3042 C3039 1.499 . S
C3042 C3043 1.373 . S
C3042 C3044 1.389 . S
C3043 H3022 0.950 . S
C3043 C3042 1.373 . S
C3043 C3059 1.377 . S
C3044 C3042 1.389 . S
C3044 C3045 1.524 . S
C3044 C3058 1.377 . S
C3045 C3044 1.524 . S
C3045 C3046 1.397 . S
C3045 C3050 1.363 . S
C3046 H3023 0.950 . S
C3046 C3045 1.397 . S
C3046 C3047 1.334 . S
C3047 H3024 0.950 . S
C3047 C3046 1.334 . S
C3047 C3048 1.287 . S
C3048 C3047 1.287 . S
C3048 C3049 1.524 . S
C3048 H3067 0.913 . S
C3049 H3025 0.950 1_554 S
C3049 C3048 1.524 . S
C3049 C3050 1.415 . S
C3050 H3026 0.950 1_554 S
C3050 C3045 1.363 . S
C3050 C3049 1.415 . S
C3051 H3027 0.951 . S
C3051 C3052 1.366 . S
C3051 C3053 1.388 . S
C3052 C3051 1.366 . S
C3052 C3056 1.385 . S
C3053 H3028 0.951 . S
C3053 C3051 1.388 . S
C3053 C3054 1.366 . S
C3054 C3053 1.366 . S
C3054 C3055 1.414 . S
C3054 C3057 1.499 . S
C3055 H3029 0.950 1_554 S
C3055 C3054 1.414 . S
C3055 C3056 1.374 . S
C3056 H3030 0.950 1_554 S
C3056 C3052 1.385 . S
C3056 C3055 1.374 . S
C3057 C3054 1.499 . S
C3057 C3058 1.373 . S
C3057 C3059 1.389 . S
C3058 H3031 0.950 . S
C3058 C3044 1.377 . S
C3058 C3057 1.373 . S
C3059 C3043 1.377 . S
C3059 C3057 1.389 . S
C3059 C3060 1.524 . S
C3060 C3059 1.524 . S
C3060 C3061 1.397 . S
C3060 C3065 1.363 . S
C3061 H3032 0.950 . S
C3061 C3060 1.397 . S
C3061 C3062 1.334 . S
C3062 H3033 0.950 . S
C3062 C3061 1.334 . S
C3062 C3063 1.287 . S
C3063 C3062 1.287 . S
C3063 C3064 1.524 . S
C3063 H3066 0.999 . S
C3064 H3034 0.950 . S
C3064 C3063 1.524 . S
C3064 C3065 1.415 . S
C3065 H3035 0.950 . S
C3065 C3060 1.363 . S
C3065 C3064 1.415 . S
H3066 C3063 0.999 . S
H3067 C3048 0.913 . S
C702 C522 1.368 . S
C687 C177 1.347 . S
C752 C535 1.633 . S
C737 C209 1.625 1_455 S
C787 C253 1.367 . S
C802 C548 1.387 . S
C852 C561 1.546 . S
C837 C157 1.522 1_655 S
C902 C569 1.479 . S
C887 C343 1.485 . S
C952 C582 1.398 . S
C937 C401 1.391 . S
C987 C369 1.522 . S
C1002 C595 1.518 . S
C1052 C608 1.508 . S
C1037 C317 1.489 . S
C1087 C375 1.423 . S
C1102 C626 1.435 . S
C1152 C637 1.563 . S
C1137 C305 1.575 . S
C1187 C349 1.462 . S
C1202 C621 1.460 . S
C1252 C629 1.466 . S
C1237 C413 1.458 . S
C1287 C241 1.445 . S
C1302 C652 1.460 . S
C1337 C151 1.458 . S
C1352 C642 1.459 . S
C1387 C189 1.477 . S
C1402 C647 1.491 . S
C1437 C215 1.554 . S
C1452 C650 1.546 . S
C1487 C113 1.414 . S
C1502 C559 1.404 . S
C1537 C471 1.368 . S
C1552 C551 1.380 . S
C1602 C520 1.565 . S
C1587 C509 1.565 1_565 S
C1652 C525 1.489 . S
C1637 C279 1.482 . S
C1687 C145 1.475 . S
C1702 C572 1.476 . S
C1752 C611 1.562 . S
C1737 C381 1.555 . S
C1802 C564 1.505 . S
C1787 C311 1.513 . S
C1852 C590 1.441 . S
C1837 C407 1.438 . S
C1902 C600 1.368 . S
C1887 C465 1.347 . S
C1937 C497 1.625 . S
C1952 C613 1.633 . S
C1987 C285 1.368 . S
C2002 C574 1.387 . S
C2052 C587 1.546 . S
C2037 C445 1.522 . S
C2087 C119 1.485 . S
C2102 C543 1.479 . S
C2152 C556 1.397 . S
C2137 C17 1.391 1_655 S
C2202 C517 1.519 . S
C2187 C49 1.522 . S
C2252 C530 1.496 . S
C2237 C93 1.491 1_455 S
C2287 C55 1.424 . S
C2302 C639 1.435 . S
C2337 C81 1.575 1_556 S
C2352 C624 1.563 1_655 S
C2387 C125 1.462 . S
C2402 C634 1.460 . S
C2437 C29 1.459 . S
C2452 C616 1.466 . S
C2502 C665 1.460 . S
C2487 C273 1.445 . S
C2552 C655 1.459 . S
C2537 C439 1.458 1_554 S
C2602 C660 1.491 . S
C2587 C477 1.476 . S
C2637 C503 1.554 . S
C2652 C663 1.546 . S
C2687 C337 1.414 . S
C2702 C585 1.405 . S
C2752 C577 1.380 . S
C2737 C183 1.367 . S
C2802 C598 1.565 . S
C2787 C221 1.565 . S
C2852 C603 1.489 . S
C2837 C247 1.485 . S
C2887 C433 1.475 . S
C2902 C546 1.478 1_556 S
C2952 C533 1.561 . S
C2937 C61 1.558 . S
C2987 C87 1.514 . S
C3002 C538 1.505 . S
C3052 C512 1.441 . S
C3037 C23 1.438 . S
