# Generated by pormake.
# Topology anh, (6,3)-cn, num edge types: 1
# Building blocks:
#     Node 0, Type 0, BuildingBlock: PAMTOO_clean_sbu_0, # of connection points: 6
#     Node 1, Type 0, BuildingBlock: PAMTOO_clean_sbu_0, # of connection points: 6
#     Node 2, Type 0, BuildingBlock: PAMTOO_clean_sbu_0, # of connection points: 6
#     Node 3, Type 1, BuildingBlock: BETDIP_clean_linker_0, # of connection points: 3
#     Node 4, Type 1, BuildingBlock: BETDIP_clean_linker_0, # of connection points: 3
#     Node 5, Type 1, BuildingBlock: BETDIP_clean_linker_0, # of connection points: 3
#     Node 6, Type 1, BuildingBlock: BETDIP_clean_linker_0, # of connection points: 3
#     Node 7, Type 1, BuildingBlock: BETDIP_clean_linker_0, # of connection points: 3
#     Node 8, Type 1, BuildingBlock: BETDIP_clean_linker_0, # of connection points: 3
#     Edge 9, Type (0, 1), BuildingBlock: EZIPEK_clean_linker_0, # of connection points: 2
#     Edge 10, Type (0, 1), BuildingBlock: EZIPEK_clean_linker_0, # of connection points: 2
#     Edge 11, Type (0, 1), BuildingBlock: EZIPEK_clean_linker_0, # of connection points: 2
#     Edge 12, Type (0, 1), BuildingBlock: EZIPEK_clean_linker_0, # of connection points: 2
#     Edge 13, Type (0, 1), BuildingBlock: EZIPEK_clean_linker_0, # of connection points: 2
#     Edge 14, Type (0, 1), BuildingBlock: EZIPEK_clean_linker_0, # of connection points: 2
#     Edge 15, Type (0, 1), BuildingBlock: EZIPEK_clean_linker_0, # of connection points: 2
#     Edge 16, Type (0, 1), BuildingBlock: EZIPEK_clean_linker_0, # of connection points: 2
#     Edge 17, Type (0, 1), BuildingBlock: EZIPEK_clean_linker_0, # of connection points: 2
#     Edge 18, Type (0, 1), BuildingBlock: EZIPEK_clean_linker_0, # of connection points: 2
#     Edge 19, Type (0, 1), BuildingBlock: EZIPEK_clean_linker_0, # of connection points: 2
#     Edge 20, Type (0, 1), BuildingBlock: EZIPEK_clean_linker_0, # of connection points: 2
#     Edge 21, Type (0, 1), BuildingBlock: EZIPEK_clean_linker_0, # of connection points: 2
#     Edge 22, Type (0, 1), BuildingBlock: EZIPEK_clean_linker_0, # of connection points: 2
#     Edge 23, Type (0, 1), BuildingBlock: EZIPEK_clean_linker_0, # of connection points: 2
#     Edge 24, Type (0, 1), BuildingBlock: EZIPEK_clean_linker_0, # of connection points: 2
#     Edge 25, Type (0, 1), BuildingBlock: EZIPEK_clean_linker_0, # of connection points: 2
#     Edge 26, Type (0, 1), BuildingBlock: EZIPEK_clean_linker_0, # of connection points: 2
# Relax obj value: 0.225
# Max RMSD: 0.214
# Mean RMSD: 0.137
data_MOF--net-anh--node1-PAMTOO_clean_sbu_0--node2-BETDIP_clean_linker_0--edge1-EZIPEK_clean_linker_0
_symmetry_space_group_name_H-M    P1
_symmetry_Int_Tables_number       1
_symmetry_cell_setting            triclinic
loop_
_symmetry_equiv_pos_as_xyz
'x, y, z'
_cell_length_a     22.169992
_cell_length_b     21.647173
_cell_length_c     36.770699
_cell_angle_alpha  93.267141
_cell_angle_beta   95.253388
_cell_angle_gamma 95.505866
loop_
_atom_site_label
_atom_site_type_symbol
_atom_site_fract_x
_atom_site_fract_y
_atom_site_fract_z
_atom_type_partial_charge
Dy0 Dy 0.14541 0.66486 0.13666 0.0
Dy1 Dy 1.11858 0.51711 0.11209 0.0
C2 C 0.12636 0.61851 0.0545 0.0
O3 O 1.04559 0.64405 0.14488 0.0
O4 O 1.02521 0.55206 0.10937 0.0
O5 O 0.15986 0.75844 0.11995 0.0
O6 O 0.1633 0.74215 0.17758 0.0
O7 O 1.10198 0.52834 0.17084 0.0
O8 O 0.17095 0.61323 0.18532 0.0
O9 O 0.22054 0.53301 0.12731 0.0
O10 O 0.23503 0.63714 0.11925 0.0
O11 O 0.13639 0.42242 0.12014 0.0
O12 O 1.07049 0.44197 0.07623 0.0
C13 C 1.00632 0.59974 0.12759 0.0
O14 O 1.10466 0.6535 0.07921 0.0
O15 O 0.14529 0.56496 0.06265 0.0
C16 C 0.23519 0.81857 0.15941 0.0
C17 C 0.35172 0.88302 0.17445 0.0
C18 C 0.30366 0.8996 0.19411 0.0
C19 C 0.24561 0.86753 0.18658 0.0
C20 C 0.28323 0.80275 0.13939 0.0
C21 C 0.341 0.83496 0.14675 0.0
C22 C 0.17536 0.78197 0.15327 0.0
C23 C 0.13723 0.56521 0.19503 0.0
C24 C 0.25723 0.58319 0.12293 0.0
C25 C 1.04638 0.35516 0.1096 0.0
C26 C 0.95786 0.27257 0.13626 0.0
C27 C 0.97764 0.32969 0.15552 0.0
C28 C 1.02146 0.37073 0.14226 0.0
C29 C 1.02647 0.2981 0.09016 0.0
C30 C 0.98226 0.25688 0.10344 0.0
C31 C 1.09211 0.39935 0.09591 0.0
H32 H 0.31146 0.93643 0.21573 0.0
H33 H 0.20921 0.8801 0.2024 0.0
H34 H 0.27646 0.76474 0.11849 0.0
H35 H 0.37776 0.82139 0.13153 0.0
H36 H 0.95904 0.34248 0.18081 0.0
H37 H 1.03602 0.41466 0.15756 0.0
H38 H 1.04501 0.28556 0.06483 0.0
H39 H 0.9672 0.21289 0.08829 0.0
Dy40 Dy 0.58525 0.02336 0.50165 0.0
Dy41 Dy 0.73445 0.04062 0.51559 0.0
C42 C 0.654 0.03348 0.58096 0.0
O43 O 0.61055 0.12284 0.49246 0.0
O44 O 0.70398 0.13567 0.52588 0.0
O45 O 0.49922 1.00092 0.52333 0.0
O46 O 0.50138 0.02902 0.4678 0.0
O47 O 0.70809 0.06382 0.45845 0.0
O48 O 0.62166 0.99646 0.44908 0.0
O49 O 0.71142 0.93778 0.50308 0.0
O50 O 0.60971 0.92821 0.51255 0.0
O51 O 0.82193 0.02231 0.49861 0.0
O52 O 0.81672 0.08143 0.54761 0.0
C53 C 0.65657 0.15877 0.50962 0.0
O54 O 0.61244 0.05715 0.55986 0.0
O55 O 0.70051 1.01069 0.56754 0.0
C56 C 0.42551 0.95038 0.47939 0.0
C57 C 0.34829 0.84088 0.4599 0.0
C58 C 0.33392 0.88359 0.48714 0.0
C59 C 0.37226 0.93823 0.49671 0.0
C60 C 0.44002 0.90739 0.45228 0.0
C61 C 0.40138 0.85317 0.44243 0.0
C62 C 0.468 1.00514 0.49197 0.0
C63 C 0.6663 0.03024 0.43638 0.0
C64 C 0.66065 0.90377 0.50796 0.0
C65 C 0.88964 0.11321 0.50861 0.0
C66 C 0.95566 0.21713 0.48406 0.0
C67 C 0.90179 0.19067 0.46398 0.0
C68 C 0.86893 0.13917 0.47619 0.0
C69 C 0.94411 0.13909 0.52847 0.0
C70 C 0.97717 0.1909 0.51618 0.0
C71 C 0.85128 0.06314 0.52307 0.0
H72 H 0.29318 0.87447 0.50095 0.0
H73 H 0.36094 0.97049 0.51806 0.0
H74 H 0.48156 0.91527 0.43909 0.0
H75 H 0.41316 0.82042 0.42149 0.0
H76 H 0.88466 0.21062 0.4392 0.0
H77 H 0.8266 0.12048 0.46067 0.0
H78 H 0.96029 0.12006 0.55376 0.0
H79 H 1.0188 0.21111 0.5319 0.0
Dy80 Dy 0.65858 0.47525 0.82815 0.0
Dy81 Dy 0.51043 0.47207 0.80981 0.0
C82 C 0.59891 0.47445 0.74756 0.0
O83 O 0.64241 0.57629 0.8321 0.0
O84 O 0.54587 0.57017 0.80216 0.0
O85 O 0.74297 0.50356 0.86166 0.0
O86 O 0.74166 0.44134 0.81308 0.0
O87 O 0.53597 0.51261 0.86701 0.0
O88 O 0.61782 0.45871 0.88027 0.0
O89 O 0.52363 0.37536 0.82536 0.0
O90 O 0.62356 0.37565 0.81337 0.0
O91 O 0.41987 0.46835 0.82778 0.0
O92 O 0.43246 0.47572 0.7705 0.0
C93 C 0.59623 0.60263 0.81672 0.0
O94 O 0.64141 0.50288 0.77131 0.0
O95 O 0.54993 0.44452 0.75814 0.0
C96 C 0.82579 0.51684 0.82642 0.0
C97 C 0.91779 0.60364 0.80732 0.0
C98 C 0.86839 0.58265 0.78164 0.0
C99 C 0.82215 0.53983 0.79129 0.0
C100 C 0.87659 0.53587 0.85132 0.0
C101 C 0.9222 0.57908 0.84187 0.0
C102 C 0.77523 0.47685 0.83852 0.0
C103 C 0.57447 0.49048 0.89083 0.0
C104 C 0.57122 0.34585 0.81922 0.0
C105 C 0.36784 0.54207 0.79679 0.0
C106 C 0.32892 0.65974 0.81202 0.0
C107 C 0.3806 0.65432 0.79337 0.0
C108 C 0.39963 0.596 0.78556 0.0
C109 C 0.31421 0.5472 0.81378 0.0
C110 C 0.29448 0.60582 0.82107 0.0
C111 C 0.39622 0.48323 0.79606 0.0
H112 H 0.86455 0.60112 0.75486 0.0
H113 H 0.78297 0.52603 0.7717 0.0
H114 H 0.88003 0.51878 0.87849 0.0
H115 H 0.96026 0.59485 0.86194 0.0
H116 H 0.40753 0.69544 0.78612 0.0
H117 H 0.441 0.59361 0.77229 0.0
H118 H 0.28939 0.50636 0.82296 0.0
H119 H 0.25446 0.60948 0.83559 0.0
H120 H 0.62832 0.02645 0.17313 0.0
H121 H 0.74589 0.07626 0.27266 0.0
H122 H 0.56589 0.98724 0.27757 0.0
H123 H 0.78081 0.15486 0.24047 0.0
C124 C 0.77859 0.1362 0.21231 0.0
C125 C 0.63644 0.0281 0.2027 0.0
C126 C 0.59095 1.00308 0.22337 0.0
C127 C 0.69168 0.0569 0.22022 0.0
C128 C 0.70259 0.05698 0.2586 0.0
C129 C 0.65698 0.03236 0.27925 0.0
C130 C 0.60116 1.00624 0.26156 0.0
N131 N 0.73485 0.08599 0.19867 0.0
H132 H 0.66097 0.47272 0.49101 0.0
H133 H 0.64074 0.58213 0.59033 0.0
H134 H 0.63862 0.3843 0.59159 0.0
H135 H 0.58424 0.63533 0.54388 0.0
C136 C 0.62374 0.64175 0.52852 0.0
C137 C 0.6554 0.47592 0.52 0.0
C138 C 0.65103 0.42151 0.53938 0.0
C139 C 0.65067 0.5343 0.53806 0.0
C140 C 0.64298 0.53764 0.57572 0.0
C141 C 0.63838 0.48357 0.59484 0.0
C142 C 0.64263 0.42609 0.57664 0.0
N143 N 0.65433 0.58931 0.51846 0.0
H144 H 0.14502 0.84249 0.83566 0.0
H145 H 0.2078 0.82387 0.94852 0.0
H146 H 1.07666 0.68466 0.89082 0.0
H147 H 0.28925 0.94362 0.86165 0.0
C148 C 0.26672 0.89836 0.86614 0.0
C149 C 0.14475 0.81655 0.85998 0.0
C150 C 1.10632 0.76137 0.85976 0.0
C151 C 0.18168 0.83904 0.89199 0.0
C152 C 0.1795 0.80636 0.9238 0.0
C153 C 0.14217 0.74999 0.92321 0.0
C154 C 1.10625 0.72769 0.89109 0.0
N155 N 0.22264 0.89347 0.89183 0.0
H156 H 0.1764 0.57667 0.45744 0.0
H157 H 1.10364 0.46994 0.35776 0.0
H158 H 0.21533 0.6415 0.35278 0.0
H159 H 1.02861 0.44116 0.39277 0.0
C160 C 1.0532 0.43516 0.41904 0.0
C161 C 0.17178 0.57024 0.42783 0.0
C162 C 0.20057 0.61465 0.4071 0.0
C163 C 0.13575 0.51837 0.41039 0.0
C164 C 0.12994 0.51036 0.37191 0.0
C165 C 0.15836 0.55489 0.35124 0.0
C166 C 0.19381 0.60673 0.36886 0.0
N167 N 1.10636 0.47484 0.4321 0.0
H168 H 0.57499 0.03117 0.83469 0.0
H169 H 0.62687 0.9336 0.73844 0.0
H170 H 0.60681 0.12799 0.73788 0.0
H171 H 0.56519 0.85579 0.75801 0.0
C172 C 0.58138 0.85862 0.78689 0.0
C173 C 0.58758 0.03099 0.80691 0.0
C174 C 0.59081 0.08682 0.78865 0.0
C175 C 0.59934 0.97471 0.78878 0.0
C176 C 0.61588 0.97556 0.75273 0.0
C177 C 0.6177 0.0304 0.73437 0.0
C178 C 0.6056 0.08569 0.75239 0.0
N179 N 0.59433 0.9178 0.80672 0.0
H180 H 0.57512 0.59095 0.15015 0.0
H181 H 0.66561 0.55625 0.05279 0.0
H182 H 0.47204 0.55165 0.04425 0.0
H183 H 0.734 0.63682 0.08259 0.0
C184 C 0.74155 0.61164 0.10708 0.0
C185 C 0.57333 0.58096 0.12087 0.0
C186 C 0.51545 0.57164 0.0993 0.0
C187 C 0.62888 0.57795 0.104 0.0
C188 C 0.62483 0.56205 0.06622 0.0
C189 C 0.56873 0.55245 0.04519 0.0
C190 C 0.51497 0.55855 0.06139 0.0
N191 N 0.68839 0.58907 0.1243 0.0
C192 C 0.34618 0.52576 0.10295 0.0
C193 C 0.3252 0.57842 0.1211 0.0
C194 C 0.43239 0.62669 0.12956 0.0
C195 C 0.45327 0.57185 0.11401 0.0
N196 N 0.42974 0.46242 0.09733 0.0
N197 N 0.35382 0.67056 0.16161 0.0
C198 C 0.40991 0.51913 0.10484 0.0
C199 C 0.36995 0.62643 0.13737 0.0
N200 N 0.30626 0.48409 0.08131 0.0
N201 N 0.471 0.68005 0.13552 0.0
H202 H 0.31014 0.67009 0.17001 0.0
H203 H 0.38563 0.70291 0.17667 0.0
H204 H 0.51655 0.68231 0.13032 0.0
H205 H 0.4564 0.72296 0.14294 0.0
H206 H 0.32036 0.44817 0.06507 0.0
H207 H 0.26033 0.48984 0.07565 0.0
H208 H 0.40047 0.42143 0.09338 0.0
H209 H 0.47593 0.45581 0.09915 0.0
C210 C 0.97807 0.333 0.4859 0.0
C211 C 0.98832 0.2733 0.47118 0.0
C212 C 1.04383 0.32016 0.42342 0.0
C213 C 1.03479 0.37986 0.43861 0.0
N214 N 1.00311 0.4448 0.48735 0.0
N215 N 1.04022 0.20929 0.43112 0.0
C216 C 1.00536 0.38681 0.47103 0.0
C217 C 1.02423 0.26669 0.44152 0.0
N218 N 0.93974 0.33812 0.51279 0.0
N219 N 1.07001 0.31462 0.39127 0.0
H220 H 1.02637 0.1692 0.44387 0.0
H221 H 1.07116 0.20191 0.41208 0.0
H222 H 1.08772 0.35282 0.37815 0.0
H223 H 1.07126 0.27244 0.37642 0.0
H224 H 0.92449 0.37989 0.52166 0.0
H225 H 0.91973 0.29979 0.52482 0.0
H226 H 0.98818 0.45262 0.51308 0.0
H227 H 1.02022 0.48543 0.4763 0.0
C228 C 0.64536 0.70436 0.79717 0.0
C229 C 0.59972 0.67173 0.81558 0.0
C230 C 0.54782 0.76696 0.82179 0.0
C231 C 0.59309 0.79902 0.80316 0.0
N232 N 0.69213 0.80418 0.78125 0.0
N233 N 0.5162 0.67551 0.85316 0.0
C234 C 0.64436 0.76953 0.79367 0.0
C235 C 0.55366 0.70427 0.83035 0.0
N236 N 0.6872 0.67261 0.78083 0.0
N237 N 0.49793 0.79567 0.82988 0.0
H238 H 0.51918 0.62988 0.86015 0.0
H239 H 0.48583 0.69828 0.86773 0.0
H240 H 0.49362 0.84225 0.82532 0.0
H241 H 0.45959 0.77284 0.83941 0.0
H242 H 0.71702 0.69246 0.76347 0.0
H243 H 0.68946 0.62498 0.78227 0.0
H244 H 0.73357 0.78725 0.7772 0.0
H245 H 0.69233 0.8519 0.77837 0.0
C246 C 0.91257 0.65951 0.11752 0.0
C247 C 0.93817 0.60426 0.12743 0.0
C248 C 0.8331 0.55306 0.12889 0.0
C249 C 0.80805 0.60959 0.1211 0.0
N250 N 0.82634 0.72053 0.11825 0.0
N251 N 0.92172 0.50311 0.15129 0.0
C252 C 0.84877 0.66393 0.11884 0.0
C253 C 0.89802 0.55247 0.13579 0.0
N254 N 0.94805 0.7066 0.10427 0.0
N255 N 0.79559 0.49902 0.12771 0.0
H256 H 0.96833 0.50173 0.15774 0.0
H257 H 0.8951 0.46667 0.16118 0.0
H258 H 0.7484 0.49728 0.12299 0.0
H259 H 0.81158 0.45538 0.12868 0.0
H260 H 0.93041 0.74486 0.09289 0.0
H261 H 0.99396 0.7046 0.10085 0.0
H262 H 0.85409 0.76248 0.12019 0.0
H263 H 0.78034 0.72574 0.11997 0.0
C264 C 0.32874 0.72476 0.45804 0.0
C265 C 0.30797 0.78277 0.44961 0.0
C266 C 0.21145 0.72952 0.42117 0.0
C267 C 0.23568 0.67169 0.4249 0.0
N268 N 0.31975 0.61359 0.44315 0.0
N269 N 0.23312 0.84079 0.41876 0.0
C270 C 0.29488 0.66896 0.44256 0.0
C271 C 0.25005 0.7854 0.4302 0.0
N272 N 0.38015 0.72307 0.48139 0.0
N273 N 0.15129 0.73089 0.40945 0.0
H274 H 0.2604 0.88285 0.42435 0.0
H275 H 0.19439 0.84434 0.40101 0.0
H276 H 0.12155 0.69065 0.4028 0.0
H277 H 0.1296 0.77149 0.40966 0.0
H278 H 0.39428 0.68219 0.49136 0.0
H279 H 0.40583 0.76311 0.49349 0.0
H280 H 0.36524 0.60994 0.45185 0.0
H281 H 0.29619 0.57158 0.43233 0.0
C282 C 0.61177 0.24744 0.83925 0.0
C283 C 0.56693 0.27648 0.81811 0.0
C284 C 0.52444 0.17381 0.79037 0.0
C285 C 0.57648 0.14749 0.80553 0.0
N286 N 0.67169 0.15967 0.84374 0.0
N287 N 0.48273 0.26704 0.7707 0.0
C288 C 0.62029 0.18414 0.83031 0.0
C289 C 0.52293 0.23951 0.7934 0.0
N290 N 0.64563 0.28028 0.8682 0.0
N291 N 0.47694 0.13572 0.7725 0.0
H292 H 0.48092 0.31494 0.77093 0.0
H293 H 0.45453 0.2427 0.74935 0.0
H294 H 0.47717 0.08745 0.76998 0.0
H295 H 0.43537 0.1512 0.76361 0.0
H296 H 0.67525 0.26024 0.88662 0.0
H297 H 0.63929 0.32614 0.876 0.0
H298 H 0.70873 0.1863 0.85825 0.0
H299 H 0.6789 0.11326 0.83848 0.0
C300 C 0.69885 0.80729 0.53407 0.0
C301 C 0.65946 0.83482 0.50836 0.0
C302 C 0.60127 0.73299 0.49222 0.0
C303 C 0.64144 0.70536 0.51721 0.0
N304 N 0.73581 0.71285 0.55608 0.0
N305 N 0.58382 0.8213 0.45631 0.0
C306 C 0.69305 0.74138 0.53588 0.0
C307 C 0.61391 0.79675 0.48535 0.0
N308 N 0.73859 0.8441 0.55873 0.0
N309 N 0.55014 0.69862 0.47567 0.0
H310 H 0.59351 0.86721 0.44975 0.0
H311 H 0.55383 0.79485 0.43665 0.0
H312 H 0.54116 0.651 0.47846 0.0
H313 H 0.51507 0.71791 0.46089 0.0
H314 H 0.76307 0.82711 0.58087 0.0
H315 H 0.74357 0.89246 0.55918 0.0
H316 H 0.77758 0.73556 0.5671 0.0
H317 H 0.73192 0.66512 0.55921 0.0
C318 C 0.95366 0.71593 0.81039 0.0
C319 C 0.96419 0.65416 0.80027 0.0
C320 C 1.07393 0.68296 0.80846 0.0
C321 C 1.06275 0.73817 0.828 0.0
N322 N 0.9949 0.81427 0.84243 0.0
N323 N 1.03157 0.58112 0.78114 0.0
C324 C 1.00353 0.75791 0.82615 0.0
C325 C 1.02376 0.63902 0.79553 0.0
N326 N 0.89577 0.73287 0.80646 0.0
N327 N 0.13266 0.6719 0.80453 0.0
H328 H 0.99454 0.5496 0.77074 0.0
H329 H 1.07368 0.56425 0.77954 0.0
H330 H 0.16919 0.70432 0.81451 0.0
H331 H 0.14508 0.63354 0.78973 0.0
H332 H 0.8849 0.77812 0.81129 0.0
H333 H 0.85881 0.7021 0.79525 0.0
H334 H 0.9524 0.82892 0.84608 0.0
H335 H 1.03116 0.84639 0.85308 0.0
C336 C 0.42927 0.97609 0.17637 0.0
C337 C 0.41431 0.91344 0.18435 0.0
C338 C 0.51971 0.90688 0.20871 0.0
C339 C 0.53237 0.97171 0.20573 0.0
N340 N 0.49762 0.0703 0.19064 0.0
N341 N 0.44237 0.82213 0.21391 0.0
C342 C 0.48688 1.00703 0.19035 0.0
C343 C 0.45884 0.87939 0.20192 0.0
N344 N 0.38889 1.00556 0.15492 0.0
N345 N 0.56608 0.8716 0.21779 0.0
H346 H 0.39758 0.8015 0.2109 0.0
H347 H 0.47184 0.79789 0.23005 0.0
H348 H 0.61147 0.89035 0.22258 0.0
H349 H 0.56037 0.82319 0.21695 0.0
H350 H 0.39969 0.04904 0.1451 0.0
H351 H 0.34626 0.98421 0.14424 0.0
H352 H 0.46386 0.09902 0.18366 0.0
H353 H 0.53929 0.0947 0.20049 0.0
C354 C 0.70453 0.26846 0.50464 0.0
C355 C 0.65357 0.2274 0.51187 0.0
C356 C 0.59614 0.31726 0.52134 0.0
C357 C 0.65028 0.35774 0.52168 0.0
N358 N 0.7581 0.37184 0.51596 0.0
N359 N 0.5537 0.21494 0.53404 0.0
C360 C 0.70508 0.33348 0.51358 0.0
C361 C 0.59967 0.25224 0.52158 0.0
N362 N 0.75148 0.24573 0.48828 0.0
N363 N 0.54147 0.34136 0.52181 0.0
H364 H 0.55593 0.1679 0.53789 0.0
H365 H 0.51627 0.23226 0.54472 0.0
H366 H 0.5378 0.38908 0.52161 0.0
H367 H 0.49985 0.31385 0.51847 0.0
H368 H 0.78737 0.27412 0.47967 0.0
H369 H 0.75119 0.19894 0.47975 0.0
H370 H 0.80059 0.35551 0.5146 0.0
H371 H 0.7599 0.41979 0.52158 0.0
C372 C 0.3318 0.74298 0.86244 0.0
C373 C 0.31496 0.72232 0.82519 0.0
C374 C 0.27369 0.82131 0.8134 0.0
C375 C 0.2899 0.84135 0.85067 0.0
N376 N 0.34476 0.82886 0.90886 0.0
N377 N 0.27689 0.74261 0.76395 0.0
C378 C 0.32199 0.80427 0.87469 0.0
C379 C 0.28831 0.76199 0.8002 0.0
N380 N 0.35692 0.70376 0.8861 0.0
N381 N 0.24198 0.85808 0.7912 0.0
H382 H 0.28332 0.698 0.75378 0.0
H383 H 0.26359 0.77114 0.7435 0.0
H384 H 0.23282 0.90271 0.79979 0.0
H385 H 0.22231 0.84395 0.76491 0.0
H386 H 0.36332 0.71274 0.91435 0.0
H387 H 0.36909 0.66018 0.87782 0.0
H388 H 0.37335 0.80694 0.92686 0.0
H389 H 0.33921 0.87414 0.9183 0.0
C390 C 0.93028 0.18874 0.17761 0.0
C391 C 0.91135 0.22973 0.15111 0.0
C392 C 0.80426 0.19918 0.15944 0.0
C393 C 0.82361 0.16374 0.18888 0.0
N394 N 0.90395 0.1259 0.22753 0.0
N395 N 0.83189 0.27712 0.11721 0.0
C396 C 0.88637 0.15855 0.19827 0.0
C397 C 0.84866 0.2352 0.14175 0.0
N398 N 0.99029 0.17837 0.18267 0.0
N399 N 0.74351 0.19921 0.1488 0.0
H400 H 0.86304 0.30254 0.10279 0.0
H401 H 0.78778 0.28941 0.11238 0.0
H402 H 0.70945 0.17708 0.1626 0.0
H403 H 0.72651 0.21811 0.12505 0.0
H404 H 1.00655 0.14454 0.19888 0.0
H405 H 1.02365 0.20044 0.16827 0.0
H406 H 0.94884 0.1265 0.23875 0.0
H407 H 0.87307 0.10024 0.24203 0.0
C408 C 0.18628 0.65186 0.00246 0.0
C409 C 0.12963 0.64223 0.01766 0.0
C410 C 1.08344 0.70747 0.97288 0.0
C411 C 0.13876 0.71393 0.95623 0.0
N412 N 0.23815 0.68046 0.9497 0.0
N413 N 1.02101 0.64678 0.0113 0.0
C414 C 0.18883 0.68246 0.96933 0.0
C415 C 1.07714 0.66563 0.00087 0.0
N416 N 0.23831 0.63516 0.02048 0.0
N417 N 1.03772 0.7431 0.96295 0.0
H418 H 1.01468 0.61454 0.03101 0.0
H419 H 0.98048 0.65781 -0.00226 0.0
H420 H 1.04106 0.77554 0.94313 0.0
H421 H 0.99892 0.74484 0.97681 0.0
H422 H 0.28161 0.64813 0.01286 0.0
H423 H 0.23906 0.61241 0.04466 0.0
H424 H 0.27306 0.65267 0.95588 0.0
H425 H 0.24162 0.70221 0.92527 0.0
C426 C 0.67998 0.97784 0.37574 0.0
C427 C 0.66859 0.03206 0.39642 0.0
C428 C 0.66122 0.08947 0.34079 0.0
C429 C 0.66663 0.03363 0.31974 0.0
N430 N 0.67907 0.92406 0.31591 0.0
N431 N 0.64349 0.13817 0.39931 0.0
C432 C 0.67565 0.97763 0.3369 0.0
C433 C 0.65866 0.08781 0.37921 0.0
N434 N 0.69704 0.92738 0.3934 0.0
N435 N 0.65821 0.14404 0.32399 0.0
H436 H 0.64177 0.13922 0.42752 0.0
H437 H 0.62839 0.17756 0.38798 0.0
H438 H 0.65607 0.1467 0.2957 0.0
H439 H 0.66185 0.18754 0.33804 0.0
H440 H 0.71205 0.88861 0.38035 0.0
H441 H 0.70075 0.92601 0.42183 0.0
H442 H 0.67763 0.88014 0.32611 0.0
H443 H 0.68057 0.92299 0.28761 0.0
C444 C 0.56425 0.50104 0.68388 0.0
C445 C 0.60764 0.47623 0.70826 0.0
C446 C 0.67548 0.46877 0.65969 0.0
C447 C 0.62899 0.48585 0.63428 0.0
N448 N 0.52488 0.50812 0.62082 0.0
N449 N 0.69917 0.42465 0.71757 0.0
C450 C 0.5721 0.49928 0.64595 0.0
C451 C 0.66193 0.45692 0.69571 0.0
N452 N 0.51707 0.52879 0.69703 0.0
N453 N 0.73291 0.46503 0.64959 0.0
H454 H 0.68921 0.4123 0.74352 0.0
H455 H 0.73633 0.40438 0.70851 0.0
H456 H 0.74473 0.47434 0.62348 0.0
H457 H 0.77002 0.45882 0.66807 0.0
H458 H 0.48784 0.5533 0.68089 0.0
H459 H 0.51065 0.53267 0.72476 0.0
H460 H 0.48063 0.51129 0.62761 0.0
H461 H 0.52858 0.50697 0.59272 0.0
C462 C 0.6908 0.06304 0.64683 0.0
C463 C 0.64669 0.03059 0.62036 0.0
C464 C 0.58231 1.00128 0.66846 0.0
C465 C 0.62854 0.0293 0.69518 0.0
N466 N 0.73105 0.07735 0.71067 0.0
N467 N 0.55752 0.95702 0.6064 0.0
C468 C 0.68418 0.05738 0.68462 0.0
C469 C 0.5944 0.99631 0.63128 0.0
N470 N 0.73748 0.10137 0.63592 0.0
N471 N 0.52608 0.98142 0.67838 0.0
H472 H 0.56591 0.95065 0.57908 0.0
H473 H 0.52233 0.92608 0.61361 0.0
H474 H 0.51503 0.98457 0.70535 0.0
H475 H 0.48875 0.96699 0.65949 0.0
H476 H 0.76722 0.13134 0.65396 0.0
H477 H 0.74345 0.10729 0.60849 0.0
H478 H 0.77478 0.09228 0.7045 0.0
H479 H 0.72767 0.07397 0.73862 0.0
C480 C 0.58406 0.56883 0.94436 0.0
C481 C 0.57185 0.50594 0.9303 0.0
C482 C 0.55881 0.47292 -0.008 0.0
C483 C 0.56675 0.53625 0.00541 0.0
N484 N 0.57624 0.64514 -0.00593 0.0
N485 N 0.53889 0.3989 0.93913 0.0
C486 C 0.57598 0.58443 0.98144 0.0
C487 C 0.55686 0.45807 0.95369 0.0
N488 N 0.6066 0.61322 0.92283 0.0
N489 N 0.55461 0.42707 0.01601 0.0
H490 H 0.53722 0.38633 0.91121 0.0
H491 H 0.52115 0.36331 0.95414 0.0
H492 H 0.55403 0.43628 0.04413 0.0
H493 H 0.55573 0.38013 0.00851 0.0
H494 H 0.62257 0.65848 0.93258 0.0
H495 H 0.61487 0.60337 0.89584 0.0
H496 H 0.57582 0.68193 0.97703 0.0
H497 H 0.57165 0.65844 0.02132 0.0
C498 C 0.19282 0.53488 0.25244 0.0
C499 C 0.13896 0.55347 0.2342 0.0
C500 C 1.09569 0.56833 0.29261 0.0
C501 C 0.14927 0.5491 0.31079 0.0
N502 N 0.24337 0.50263 0.30861 0.0
N503 N 1.03471 0.57658 0.23528 0.0
C504 C 0.19622 0.52876 0.29082 0.0
C505 C 1.08877 0.56612 0.25377 0.0
N506 N 0.24106 0.52419 0.23308 0.0
N507 N 1.05297 0.59188 0.31257 0.0
H508 H 1.02863 0.57848 0.20697 0.0
H509 H 0.99448 0.57889 0.24761 0.0
H510 H 1.05589 0.59349 0.34109 0.0
H511 H 1.01665 0.61381 0.30119 0.0
H512 H 0.28421 0.51813 0.24518 0.0
H513 H 0.23882 0.52422 0.20463 0.0
H514 H 0.27614 0.48131 0.29533 0.0
H515 H 0.24713 0.49777 0.33677 0.0
loop_
_geom_bond_atom_site_label_1
_geom_bond_atom_site_label_2
_geom_bond_distance
_geom_bond_site_symmetry_2
_ccdc_geom_bond_type
Dy0 O3 2.307 1_455 S
Dy0 O5 2.395 . S
Dy0 O6 2.379 . S
Dy0 O8 2.339 . S
Dy0 O10 2.298 . S
Dy0 O14 2.275 . S
Dy0 C22 2.738 . S
Dy1 O4 2.298 . S
Dy1 O7 2.275 1_655 S
Dy1 O9 2.307 1_655 S
Dy1 O11 2.395 . S
Dy1 O12 2.379 . S
Dy1 O15 2.339 . S
Dy1 C31 2.738 . S
C2 O14 1.254 . S
C2 O15 1.257 1_455 S
O3 Dy0 2.307 1_655 S
O3 C13 1.266 . S
O4 Dy1 2.298 . S
O4 C13 1.236 . S
O5 Dy0 2.395 . S
O5 C22 1.255 . S
O6 Dy0 2.379 . S
O6 C22 1.249 . S
O7 Dy1 2.275 1_455 S
O7 C23 1.254 . S
O8 Dy0 2.339 . S
O8 C23 1.257 . S
O9 Dy1 2.307 1_455 S
O9 C24 1.266 . S
O10 Dy0 2.298 . S
O10 C24 1.236 . S
O11 Dy1 2.395 . S
O11 C31 1.255 . S
O12 Dy1 2.379 . S
O12 C31 1.249 . S
C13 O3 1.266 . S
C13 O4 1.236 . S
O14 Dy0 2.275 . S
O14 C2 1.254 . S
O15 Dy1 2.339 . S
O15 C2 1.257 1_655 S
C16 C19 1.344 . S
C16 C20 1.328 . S
C16 C22 1.516 . S
C17 C18 1.304 . S
C17 C21 1.323 . S
C18 C17 1.304 . S
C18 C19 1.371 . S
C18 H32 0.930 . S
C19 C16 1.344 . S
C19 C18 1.371 . S
C19 H33 0.931 . S
C20 C16 1.328 . S
C20 C21 1.433 . S
C20 H34 0.931 . S
C21 C17 1.323 . S
C21 C20 1.433 . S
C21 H35 0.933 . S
C22 Dy0 2.738 . S
C22 O5 1.255 . S
C22 O6 1.249 . S
C22 C16 1.516 . S
C23 O7 1.254 . S
C23 O8 1.257 . S
C24 O9 1.266 . S
C24 O10 1.236 . S
C25 C28 1.344 . S
C25 C29 1.328 . S
C25 C31 1.516 . S
C26 C27 1.304 . S
C26 C30 1.323 . S
C27 C26 1.304 . S
C27 C28 1.371 . S
C27 H36 0.930 . S
C28 C25 1.344 . S
C28 C27 1.371 . S
C28 H37 0.931 . S
C29 C25 1.328 . S
C29 C30 1.433 . S
C29 H38 0.931 . S
C30 C26 1.323 . S
C30 C29 1.433 . S
C30 H39 0.933 . S
C31 Dy1 2.738 . S
C31 O11 1.255 . S
C31 O12 1.249 . S
C31 C25 1.516 . S
H32 C18 0.930 . S
H33 C19 0.931 . S
H34 C20 0.931 . S
H35 C21 0.933 . S
H36 C27 0.930 . S
H37 C28 0.931 . S
H38 C29 0.931 . S
H39 C30 0.933 . S
Dy40 O43 2.307 . S
Dy40 O45 2.395 1_545 S
Dy40 O46 2.379 1_545 S
Dy40 O48 2.339 . S
Dy40 O50 2.298 1_545 S
Dy40 O54 2.275 . S
Dy40 C62 2.738 1_545 S
Dy41 O44 2.298 . S
Dy41 O47 2.275 . S
Dy41 O49 2.307 1_545 S
Dy41 O51 2.395 . S
Dy41 O52 2.379 . S
Dy41 O55 2.339 . S
Dy41 C71 2.738 . S
C42 O54 1.254 . S
C42 O55 1.257 . S
O43 Dy40 2.307 . S
O43 C53 1.266 . S
O44 Dy41 2.298 . S
O44 C53 1.236 . S
O45 Dy40 2.395 1_565 S
O45 C62 1.255 . S
O46 Dy40 2.379 1_565 S
O46 C62 1.249 . S
O47 Dy41 2.275 . S
O47 C63 1.254 . S
O48 Dy40 2.339 . S
O48 C63 1.257 . S
O49 Dy41 2.307 1_565 S
O49 C64 1.266 . S
O50 Dy40 2.298 1_565 S
O50 C64 1.236 . S
O51 Dy41 2.395 . S
O51 C71 1.255 . S
O52 Dy41 2.379 . S
O52 C71 1.249 . S
C53 O43 1.266 . S
C53 O44 1.236 . S
O54 Dy40 2.275 . S
O54 C42 1.254 . S
O55 Dy41 2.339 . S
O55 C42 1.257 . S
C56 C59 1.344 . S
C56 C60 1.328 . S
C56 C62 1.516 . S
C57 C58 1.304 . S
C57 C61 1.323 . S
C58 C57 1.304 . S
C58 C59 1.371 . S
C58 H72 0.930 . S
C59 C56 1.344 . S
C59 C58 1.371 . S
C59 H73 0.931 . S
C60 C56 1.328 . S
C60 C61 1.433 . S
C60 H74 0.931 . S
C61 C57 1.323 . S
C61 C60 1.433 . S
C61 H75 0.933 . S
C62 Dy40 2.738 1_565 S
C62 O45 1.255 . S
C62 O46 1.249 . S
C62 C56 1.516 . S
C63 O47 1.254 . S
C63 O48 1.257 . S
C64 O49 1.266 . S
C64 O50 1.236 . S
C65 C68 1.344 . S
C65 C69 1.328 . S
C65 C71 1.516 . S
C66 C67 1.304 . S
C66 C70 1.323 . S
C67 C66 1.304 . S
C67 C68 1.371 . S
C67 H76 0.930 . S
C68 C65 1.344 . S
C68 C67 1.371 . S
C68 H77 0.931 . S
C69 C65 1.328 . S
C69 C70 1.433 . S
C69 H78 0.931 . S
C70 C66 1.323 . S
C70 C69 1.433 . S
C70 H79 0.933 . S
C71 Dy41 2.738 . S
C71 O51 1.255 . S
C71 O52 1.249 . S
C71 C65 1.516 . S
H72 C58 0.930 . S
H73 C59 0.931 . S
H74 C60 0.931 . S
H75 C61 0.933 . S
H76 C67 0.930 . S
H77 C68 0.931 . S
H78 C69 0.931 . S
H79 C70 0.933 . S
Dy80 O83 2.307 . S
Dy80 O85 2.395 . S
Dy80 O86 2.379 . S
Dy80 O88 2.339 . S
Dy80 O90 2.298 . S
Dy80 O94 2.275 . S
Dy80 C102 2.738 . S
Dy81 O84 2.298 . S
Dy81 O87 2.275 . S
Dy81 O89 2.307 . S
Dy81 O91 2.395 . S
Dy81 O92 2.379 . S
Dy81 O95 2.339 . S
Dy81 C111 2.738 . S
C82 O94 1.254 . S
C82 O95 1.257 . S
O83 Dy80 2.307 . S
O83 C93 1.266 . S
O84 Dy81 2.298 . S
O84 C93 1.236 . S
O85 Dy80 2.395 . S
O85 C102 1.255 . S
O86 Dy80 2.379 . S
O86 C102 1.249 . S
O87 Dy81 2.275 . S
O87 C103 1.254 . S
O88 Dy80 2.339 . S
O88 C103 1.257 . S
O89 Dy81 2.307 . S
O89 C104 1.266 . S
O90 Dy80 2.298 . S
O90 C104 1.236 . S
O91 Dy81 2.395 . S
O91 C111 1.255 . S
O92 Dy81 2.379 . S
O92 C111 1.249 . S
C93 O83 1.266 . S
C93 O84 1.236 . S
O94 Dy80 2.275 . S
O94 C82 1.254 . S
O95 Dy81 2.339 . S
O95 C82 1.257 . S
C96 C99 1.344 . S
C96 C100 1.328 . S
C96 C102 1.516 . S
C97 C98 1.304 . S
C97 C101 1.323 . S
C98 C97 1.304 . S
C98 C99 1.371 . S
C98 H112 0.930 . S
C99 C96 1.344 . S
C99 C98 1.371 . S
C99 H113 0.931 . S
C100 C96 1.328 . S
C100 C101 1.433 . S
C100 H114 0.931 . S
C101 C97 1.323 . S
C101 C100 1.433 . S
C101 H115 0.933 . S
C102 Dy80 2.738 . S
C102 O85 1.255 . S
C102 O86 1.249 . S
C102 C96 1.516 . S
C103 O87 1.254 . S
C103 O88 1.257 . S
C104 O89 1.266 . S
C104 O90 1.236 . S
C105 C108 1.344 . S
C105 C109 1.328 . S
C105 C111 1.516 . S
C106 C107 1.304 . S
C106 C110 1.323 . S
C107 C106 1.304 . S
C107 C108 1.371 . S
C107 H116 0.930 . S
C108 C105 1.344 . S
C108 C107 1.371 . S
C108 H117 0.931 . S
C109 C105 1.328 . S
C109 C110 1.433 . S
C109 H118 0.931 . S
C110 C106 1.323 . S
C110 C109 1.433 . S
C110 H119 0.933 . S
C111 Dy81 2.738 . S
C111 O91 1.255 . S
C111 O92 1.249 . S
C111 C105 1.516 . S
H112 C98 0.930 . S
H113 C99 0.931 . S
H114 C100 0.931 . S
H115 C101 0.933 . S
H116 C107 0.930 . S
H117 C108 0.931 . S
H118 C109 0.931 . S
H119 C110 0.933 . S
H120 C125 0.930 . S
H121 C128 0.930 . S
H122 C130 0.930 . S
H123 C124 1.016 . S
C124 H123 1.016 . S
C124 N131 1.286 . S
C125 H120 0.930 . S
C125 C126 1.397 . S
C125 C127 1.361 . S
C126 C125 1.397 . S
C126 C130 1.390 . S
C127 C125 1.361 . S
C127 C128 1.393 . S
C127 N131 1.413 . S
C128 H121 0.930 . S
C128 C127 1.393 . S
C128 C129 1.399 . S
C129 C128 1.399 . S
C129 C130 1.381 . S
C130 H122 0.930 . S
C130 C126 1.390 . S
C130 C129 1.381 . S
N131 C124 1.286 . S
N131 C127 1.413 . S
H132 C137 0.930 . S
H133 C140 0.930 . S
H134 C142 0.930 . S
H135 C136 1.016 . S
C136 H135 1.016 . S
C136 N143 1.286 . S
C137 H132 0.930 . S
C137 C138 1.397 . S
C137 C139 1.361 . S
C138 C137 1.397 . S
C138 C142 1.390 . S
C139 C137 1.361 . S
C139 C140 1.393 . S
C139 N143 1.413 . S
C140 H133 0.930 . S
C140 C139 1.393 . S
C140 C141 1.399 . S
C141 C140 1.399 . S
C141 C142 1.381 . S
C142 H134 0.930 . S
C142 C138 1.390 . S
C142 C141 1.381 . S
N143 C136 1.286 . S
N143 C139 1.413 . S
H144 C149 0.930 . S
H145 C152 0.930 . S
H146 C154 0.930 . S
H147 C148 1.016 . S
C148 H147 1.016 . S
C148 N155 1.286 . S
C149 H144 0.930 . S
C149 C150 1.397 . S
C149 C151 1.361 1_655 S
C150 C149 1.397 . S
C150 C154 1.390 . S
C151 C149 1.361 1_455 S
C151 C152 1.393 . S
C151 N155 1.413 . S
C152 H145 0.930 . S
C152 C151 1.393 . S
C152 C153 1.399 . S
C153 C152 1.399 . S
C153 C154 1.381 1_455 S
C154 H146 0.930 . S
C154 C150 1.390 . S
C154 C153 1.381 1_655 S
N155 C148 1.286 . S
N155 C151 1.413 . S
H156 C161 0.930 . S
H157 C164 0.930 . S
H158 C166 0.930 . S
H159 C160 1.016 . S
C160 H159 1.016 . S
C160 N167 1.286 . S
C161 H156 0.930 . S
C161 C162 1.397 . S
C161 C163 1.361 . S
C162 C161 1.397 . S
C162 C166 1.390 . S
C163 C161 1.361 . S
C163 C164 1.393 1_455 S
C163 N167 1.413 1_455 S
C164 H157 0.930 . S
C164 C163 1.393 1_655 S
C164 C165 1.399 1_655 S
C165 C164 1.399 1_455 S
C165 C166 1.381 . S
C166 H158 0.930 . S
C166 C162 1.390 . S
C166 C165 1.381 . S
N167 C160 1.286 . S
N167 C163 1.413 1_655 S
H168 C173 0.930 . S
H169 C176 0.930 . S
H170 C178 0.930 . S
H171 C172 1.016 . S
C172 H171 1.016 . S
C172 N179 1.286 . S
C173 H168 0.930 . S
C173 C174 1.397 . S
C173 C175 1.361 1_545 S
C174 C173 1.397 . S
C174 C178 1.390 . S
C175 C173 1.361 1_565 S
C175 C176 1.393 . S
C175 N179 1.413 . S
C176 H169 0.930 . S
C176 C175 1.393 . S
C176 C177 1.399 1_565 S
C177 C176 1.399 1_545 S
C177 C178 1.381 . S
C178 H170 0.930 . S
C178 C174 1.390 . S
C178 C177 1.381 . S
N179 C172 1.286 . S
N179 C175 1.413 . S
H180 C185 0.930 . S
H181 C188 0.930 . S
H182 C190 0.930 . S
H183 C184 1.016 . S
C184 H183 1.016 . S
C184 N191 1.286 . S
C185 H180 0.930 . S
C185 C186 1.397 . S
C185 C187 1.361 . S
C186 C185 1.397 . S
C186 C190 1.390 . S
C187 C185 1.361 . S
C187 C188 1.393 . S
C187 N191 1.413 . S
C188 H181 0.930 . S
C188 C187 1.393 . S
C188 C189 1.399 . S
C189 C188 1.399 . S
C189 C190 1.381 . S
C190 H182 0.930 . S
C190 C186 1.390 . S
C190 C189 1.381 . S
N191 C184 1.286 . S
N191 C187 1.413 . S
C192 C193 1.363 . S
C192 C198 1.379 . S
C192 N200 1.356 . S
C193 C192 1.363 . S
C193 C199 1.363 . S
C194 C195 1.363 . S
C194 C199 1.379 . S
C194 N201 1.356 . S
C195 C194 1.363 . S
C195 C198 1.363 . S
N196 C198 1.356 . S
N196 H208 0.984 . S
N196 H209 0.985 . S
N197 C199 1.356 . S
N197 H202 0.984 . S
N197 H203 0.985 . S
C198 C192 1.379 . S
C198 C195 1.363 . S
C198 N196 1.356 . S
C199 C193 1.363 . S
C199 C194 1.379 . S
C199 N197 1.356 . S
N200 C192 1.356 . S
N200 H206 0.984 . S
N200 H207 0.984 . S
N201 C194 1.356 . S
N201 H204 0.984 . S
N201 H205 0.985 . S
H202 N197 0.984 . S
H203 N197 0.985 . S
H204 N201 0.984 . S
H205 N201 0.985 . S
H206 N200 0.984 . S
H207 N200 0.984 . S
H208 N196 0.984 . S
H209 N196 0.985 . S
C210 C211 1.363 . S
C210 C216 1.379 . S
C210 N218 1.356 . S
C211 C210 1.363 . S
C211 C217 1.363 . S
C212 C213 1.363 . S
C212 C217 1.379 . S
C212 N219 1.356 . S
C213 C212 1.363 . S
C213 C216 1.363 . S
N214 C216 1.356 . S
N214 H226 0.984 . S
N214 H227 0.985 . S
N215 C217 1.356 . S
N215 H220 0.984 . S
N215 H221 0.985 . S
C216 C210 1.379 . S
C216 C213 1.363 . S
C216 N214 1.356 . S
C217 C211 1.363 . S
C217 C212 1.379 . S
C217 N215 1.356 . S
N218 C210 1.356 . S
N218 H224 0.984 . S
N218 H225 0.984 . S
N219 C212 1.356 . S
N219 H222 0.984 . S
N219 H223 0.985 . S
H220 N215 0.984 . S
H221 N215 0.985 . S
H222 N219 0.984 . S
H223 N219 0.985 . S
H224 N218 0.984 . S
H225 N218 0.984 . S
H226 N214 0.984 . S
H227 N214 0.985 . S
C228 C229 1.363 . S
C228 C234 1.379 . S
C228 N236 1.356 . S
C229 C228 1.363 . S
C229 C235 1.363 . S
C230 C231 1.363 . S
C230 C235 1.379 . S
C230 N237 1.356 . S
C231 C230 1.363 . S
C231 C234 1.363 . S
N232 C234 1.356 . S
N232 H244 0.984 . S
N232 H245 0.985 . S
N233 C235 1.356 . S
N233 H238 0.984 . S
N233 H239 0.985 . S
C234 C228 1.379 . S
C234 C231 1.363 . S
C234 N232 1.356 . S
C235 C229 1.363 . S
C235 C230 1.379 . S
C235 N233 1.356 . S
N236 C228 1.356 . S
N236 H242 0.984 . S
N236 H243 0.984 . S
N237 C230 1.356 . S
N237 H240 0.984 . S
N237 H241 0.985 . S
H238 N233 0.984 . S
H239 N233 0.985 . S
H240 N237 0.984 . S
H241 N237 0.985 . S
H242 N236 0.984 . S
H243 N236 0.984 . S
H244 N232 0.984 . S
H245 N232 0.985 . S
C246 C247 1.363 . S
C246 C252 1.379 . S
C246 N254 1.356 . S
C247 C246 1.363 . S
C247 C253 1.363 . S
C248 C249 1.363 . S
C248 C253 1.379 . S
C248 N255 1.356 . S
C249 C248 1.363 . S
C249 C252 1.363 . S
N250 C252 1.356 . S
N250 H262 0.984 . S
N250 H263 0.985 . S
N251 C253 1.356 . S
N251 H256 0.984 . S
N251 H257 0.985 . S
C252 C246 1.379 . S
C252 C249 1.363 . S
C252 N250 1.356 . S
C253 C247 1.363 . S
C253 C248 1.379 . S
C253 N251 1.356 . S
N254 C246 1.356 . S
N254 H260 0.984 . S
N254 H261 0.984 . S
N255 C248 1.356 . S
N255 H258 0.984 . S
N255 H259 0.985 . S
H256 N251 0.984 . S
H257 N251 0.985 . S
H258 N255 0.984 . S
H259 N255 0.985 . S
H260 N254 0.984 . S
H261 N254 0.984 . S
H262 N250 0.984 . S
H263 N250 0.985 . S
C264 C265 1.363 . S
C264 C270 1.379 . S
C264 N272 1.356 . S
C265 C264 1.363 . S
C265 C271 1.363 . S
C266 C267 1.363 . S
C266 C271 1.379 . S
C266 N273 1.356 . S
C267 C266 1.363 . S
C267 C270 1.363 . S
N268 C270 1.356 . S
N268 H280 0.984 . S
N268 H281 0.985 . S
N269 C271 1.356 . S
N269 H274 0.984 . S
N269 H275 0.985 . S
C270 C264 1.379 . S
C270 C267 1.363 . S
C270 N268 1.356 . S
C271 C265 1.363 . S
C271 C266 1.379 . S
C271 N269 1.356 . S
N272 C264 1.356 . S
N272 H278 0.984 . S
N272 H279 0.984 . S
N273 C266 1.356 . S
N273 H276 0.984 . S
N273 H277 0.985 . S
H274 N269 0.984 . S
H275 N269 0.985 . S
H276 N273 0.984 . S
H277 N273 0.985 . S
H278 N272 0.984 . S
H279 N272 0.984 . S
H280 N268 0.984 . S
H281 N268 0.985 . S
C282 C283 1.363 . S
C282 C288 1.379 . S
C282 N290 1.356 . S
C283 C282 1.363 . S
C283 C289 1.363 . S
C284 C285 1.363 . S
C284 C289 1.379 . S
C284 N291 1.356 . S
C285 C284 1.363 . S
C285 C288 1.363 . S
N286 C288 1.356 . S
N286 H298 0.984 . S
N286 H299 0.985 . S
N287 C289 1.356 . S
N287 H292 0.984 . S
N287 H293 0.985 . S
C288 C282 1.379 . S
C288 C285 1.363 . S
C288 N286 1.356 . S
C289 C283 1.363 . S
C289 C284 1.379 . S
C289 N287 1.356 . S
N290 C282 1.356 . S
N290 H296 0.984 . S
N290 H297 0.984 . S
N291 C284 1.356 . S
N291 H294 0.984 . S
N291 H295 0.985 . S
H292 N287 0.984 . S
H293 N287 0.985 . S
H294 N291 0.984 . S
H295 N291 0.985 . S
H296 N290 0.984 . S
H297 N290 0.984 . S
H298 N286 0.984 . S
H299 N286 0.985 . S
C300 C301 1.363 . S
C300 C306 1.379 . S
C300 N308 1.356 . S
C301 C300 1.363 . S
C301 C307 1.363 . S
C302 C303 1.363 . S
C302 C307 1.379 . S
C302 N309 1.356 . S
C303 C302 1.363 . S
C303 C306 1.363 . S
N304 C306 1.356 . S
N304 H316 0.984 . S
N304 H317 0.985 . S
N305 C307 1.356 . S
N305 H310 0.984 . S
N305 H311 0.985 . S
C306 C300 1.379 . S
C306 C303 1.363 . S
C306 N304 1.356 . S
C307 C301 1.363 . S
C307 C302 1.379 . S
C307 N305 1.356 . S
N308 C300 1.356 . S
N308 H314 0.984 . S
N308 H315 0.984 . S
N309 C302 1.356 . S
N309 H312 0.984 . S
N309 H313 0.985 . S
H310 N305 0.984 . S
H311 N305 0.985 . S
H312 N309 0.984 . S
H313 N309 0.985 . S
H314 N308 0.984 . S
H315 N308 0.984 . S
H316 N304 0.984 . S
H317 N304 0.985 . S
C318 C319 1.363 . S
C318 C324 1.379 . S
C318 N326 1.356 . S
C319 C318 1.363 . S
C319 C325 1.363 . S
C320 C321 1.363 . S
C320 C325 1.379 . S
C320 N327 1.356 . S
C321 C320 1.363 . S
C321 C324 1.363 . S
N322 C324 1.356 . S
N322 H334 0.984 . S
N322 H335 0.985 . S
N323 C325 1.356 . S
N323 H328 0.984 . S
N323 H329 0.985 . S
C324 C318 1.379 . S
C324 C321 1.363 . S
C324 N322 1.356 . S
C325 C319 1.363 . S
C325 C320 1.379 . S
C325 N323 1.356 . S
N326 C318 1.356 . S
N326 H332 0.984 . S
N326 H333 0.984 . S
N327 C320 1.356 . S
N327 H330 0.984 . S
N327 H331 0.985 . S
H328 N323 0.984 . S
H329 N323 0.985 . S
H330 N327 0.984 . S
H331 N327 0.985 . S
H332 N326 0.984 . S
H333 N326 0.984 . S
H334 N322 0.984 . S
H335 N322 0.985 . S
C336 C337 1.363 . S
C336 C342 1.379 . S
C336 N344 1.356 . S
C337 C336 1.363 . S
C337 C343 1.363 . S
C338 C339 1.363 . S
C338 C343 1.379 . S
C338 N345 1.356 . S
C339 C338 1.363 . S
C339 C342 1.363 . S
N340 C342 1.356 . S
N340 H352 0.984 . S
N340 H353 0.985 1_565 S
N341 C343 1.356 . S
N341 H346 0.984 . S
N341 H347 0.985 . S
C342 C336 1.379 . S
C342 C339 1.363 . S
C342 N340 1.356 . S
C343 C337 1.363 . S
C343 C338 1.379 . S
C343 N341 1.356 . S
N344 C336 1.356 . S
N344 H350 0.984 . S
N344 H351 0.984 . S
N345 C338 1.356 . S
N345 H348 0.984 . S
N345 H349 0.985 . S
H346 N341 0.984 . S
H347 N341 0.985 . S
H348 N345 0.984 . S
H349 N345 0.985 . S
H350 N344 0.984 . S
H351 N344 0.984 . S
H352 N340 0.984 . S
H353 N340 0.985 1_545 S
C354 C355 1.363 . S
C354 C360 1.379 . S
C354 N362 1.356 . S
C355 C354 1.363 . S
C355 C361 1.363 . S
C356 C357 1.363 . S
C356 C361 1.379 . S
C356 N363 1.356 . S
C357 C356 1.363 . S
C357 C360 1.363 . S
N358 C360 1.356 . S
N358 H370 0.984 . S
N358 H371 0.985 . S
N359 C361 1.356 . S
N359 H364 0.984 . S
N359 H365 0.985 . S
C360 C354 1.379 . S
C360 C357 1.363 . S
C360 N358 1.356 . S
C361 C355 1.363 . S
C361 C356 1.379 . S
C361 N359 1.356 . S
N362 C354 1.356 . S
N362 H368 0.984 . S
N362 H369 0.984 . S
N363 C356 1.356 . S
N363 H366 0.984 . S
N363 H367 0.985 . S
H364 N359 0.984 . S
H365 N359 0.985 . S
H366 N363 0.984 . S
H367 N363 0.985 . S
H368 N362 0.984 . S
H369 N362 0.984 . S
H370 N358 0.984 . S
H371 N358 0.985 . S
C372 C373 1.363 . S
C372 C378 1.379 . S
C372 N380 1.356 . S
C373 C372 1.363 . S
C373 C379 1.363 . S
C374 C375 1.363 . S
C374 C379 1.379 . S
C374 N381 1.356 . S
C375 C374 1.363 . S
C375 C378 1.363 . S
N376 C378 1.356 . S
N376 H388 0.984 . S
N376 H389 0.985 . S
N377 C379 1.356 . S
N377 H382 0.984 . S
N377 H383 0.985 . S
C378 C372 1.379 . S
C378 C375 1.363 . S
C378 N376 1.356 . S
C379 C373 1.363 . S
C379 C374 1.379 . S
C379 N377 1.356 . S
N380 C372 1.356 . S
N380 H386 0.984 . S
N380 H387 0.984 . S
N381 C374 1.356 . S
N381 H384 0.984 . S
N381 H385 0.985 . S
H382 N377 0.984 . S
H383 N377 0.985 . S
H384 N381 0.984 . S
H385 N381 0.985 . S
H386 N380 0.984 . S
H387 N380 0.984 . S
H388 N376 0.984 . S
H389 N376 0.985 . S
C390 C391 1.363 . S
C390 C396 1.379 . S
C390 N398 1.356 . S
C391 C390 1.363 . S
C391 C397 1.363 . S
C392 C393 1.363 . S
C392 C397 1.379 . S
C392 N399 1.356 . S
C393 C392 1.363 . S
C393 C396 1.363 . S
N394 C396 1.356 . S
N394 H406 0.984 . S
N394 H407 0.985 . S
N395 C397 1.356 . S
N395 H400 0.984 . S
N395 H401 0.985 . S
C396 C390 1.379 . S
C396 C393 1.363 . S
C396 N394 1.356 . S
C397 C391 1.363 . S
C397 C392 1.379 . S
C397 N395 1.356 . S
N398 C390 1.356 . S
N398 H404 0.984 . S
N398 H405 0.984 . S
N399 C392 1.356 . S
N399 H402 0.984 . S
N399 H403 0.985 . S
H400 N395 0.984 . S
H401 N395 0.985 . S
H402 N399 0.984 . S
H403 N399 0.985 . S
H404 N398 0.984 . S
H405 N398 0.984 . S
H406 N394 0.984 . S
H407 N394 0.985 . S
C408 C409 1.363 . S
C408 C414 1.379 1_554 S
C408 N416 1.356 . S
C409 C408 1.363 . S
C409 C415 1.363 . S
C410 C411 1.363 1_554 S
C410 C415 1.379 . S
C410 N417 1.356 1_454 S
C411 C410 1.363 1_556 S
C411 C414 1.363 . S
N412 C414 1.356 . S
N412 H424 0.984 . S
N412 H425 0.985 . S
N413 C415 1.356 . S
N413 H418 0.984 . S
N413 H419 0.985 1_455 S
C414 C408 1.379 1_556 S
C414 C411 1.363 . S
C414 N412 1.356 . S
C415 C409 1.363 . S
C415 C410 1.379 . S
C415 N413 1.356 . S
N416 C408 1.356 . S
N416 H422 0.984 . S
N416 H423 0.984 . S
N417 C410 1.356 1_656 S
N417 H420 0.984 . S
N417 H421 0.985 . S
H418 N413 0.984 . S
H419 N413 0.985 1_655 S
H420 N417 0.984 . S
H421 N417 0.985 . S
H422 N416 0.984 . S
H423 N416 0.984 . S
H424 N412 0.984 . S
H425 N412 0.985 . S
C426 C427 1.363 . S
C426 C432 1.379 . S
C426 N434 1.356 1_545 S
C427 C426 1.363 . S
C427 C433 1.363 . S
C428 C429 1.363 . S
C428 C433 1.379 . S
C428 N435 1.356 . S
C429 C428 1.363 . S
C429 C432 1.363 . S
N430 C432 1.356 1_565 S
N430 H442 0.984 . S
N430 H443 0.985 . S
N431 C433 1.356 . S
N431 H436 0.984 . S
N431 H437 0.985 . S
C432 C426 1.379 . S
C432 C429 1.363 . S
C432 N430 1.356 1_545 S
C433 C427 1.363 . S
C433 C428 1.379 . S
C433 N431 1.356 . S
N434 C426 1.356 1_565 S
N434 H440 0.984 . S
N434 H441 0.984 . S
N435 C428 1.356 . S
N435 H438 0.984 . S
N435 H439 0.985 . S
H436 N431 0.984 . S
H437 N431 0.985 . S
H438 N435 0.984 . S
H439 N435 0.985 . S
H440 N434 0.984 . S
H441 N434 0.984 . S
H442 N430 0.984 . S
H443 N430 0.985 . S
C444 C445 1.363 . S
C444 C450 1.379 . S
C444 N452 1.356 . S
C445 C444 1.363 . S
C445 C451 1.363 . S
C446 C447 1.363 . S
C446 C451 1.379 . S
C446 N453 1.356 . S
C447 C446 1.363 . S
C447 C450 1.363 . S
N448 C450 1.356 . S
N448 H460 0.984 . S
N448 H461 0.985 . S
N449 C451 1.356 . S
N449 H454 0.984 . S
N449 H455 0.985 . S
C450 C444 1.379 . S
C450 C447 1.363 . S
C450 N448 1.356 . S
C451 C445 1.363 . S
C451 C446 1.379 . S
C451 N449 1.356 . S
N452 C444 1.356 . S
N452 H458 0.984 . S
N452 H459 0.984 . S
N453 C446 1.356 . S
N453 H456 0.984 . S
N453 H457 0.985 . S
H454 N449 0.984 . S
H455 N449 0.985 . S
H456 N453 0.984 . S
H457 N453 0.985 . S
H458 N452 0.984 . S
H459 N452 0.984 . S
H460 N448 0.984 . S
H461 N448 0.985 . S
C462 C463 1.363 . S
C462 C468 1.379 . S
C462 N470 1.356 . S
C463 C462 1.363 . S
C463 C469 1.363 1_545 S
C464 C465 1.363 1_565 S
C464 C469 1.379 . S
C464 N471 1.356 . S
C465 C464 1.363 1_545 S
C465 C468 1.363 . S
N466 C468 1.356 . S
N466 H478 0.984 . S
N466 H479 0.985 . S
N467 C469 1.356 . S
N467 H472 0.984 . S
N467 H473 0.985 . S
C468 C462 1.379 . S
C468 C465 1.363 . S
C468 N466 1.356 . S
C469 C463 1.363 1_565 S
C469 C464 1.379 . S
C469 N467 1.356 . S
N470 C462 1.356 . S
N470 H476 0.984 . S
N470 H477 0.984 . S
N471 C464 1.356 . S
N471 H474 0.984 . S
N471 H475 0.985 . S
H472 N467 0.984 . S
H473 N467 0.985 . S
H474 N471 0.984 . S
H475 N471 0.985 . S
H476 N470 0.984 . S
H477 N470 0.984 . S
H478 N466 0.984 . S
H479 N466 0.985 . S
C480 C481 1.363 . S
C480 C486 1.350 1_556 S
C480 N488 1.356 . S
C481 C480 1.363 . S
C481 C487 1.363 . S
C482 C483 1.363 1_556 S
C482 C487 1.379 . S
C482 N489 1.356 1_556 S
C483 C482 1.363 1_554 S
C483 C486 1.379 . S
N484 C486 1.377 . S
N484 H496 0.984 . S
N484 H497 0.985 . S
N485 C487 1.356 . S
N485 H490 0.984 . S
N485 H491 0.985 . S
C486 C480 1.350 1_554 S
C486 C483 1.379 . S
C486 N484 1.377 . S
C487 C481 1.363 . S
C487 C482 1.379 . S
C487 N485 1.356 . S
N488 C480 1.356 . S
N488 H494 0.984 . S
N488 H495 0.984 . S
N489 C482 1.356 1_554 S
N489 H492 0.984 . S
N489 H493 0.985 . S
H490 N485 0.984 . S
H491 N485 0.985 . S
H492 N489 0.984 . S
H493 N489 0.985 . S
H494 N488 0.984 . S
H495 N488 0.984 . S
H496 N484 0.984 . S
H497 N484 0.985 . S
C498 C499 1.363 . S
C498 C504 1.379 . S
C498 N506 1.356 . S
C499 C498 1.363 . S
C499 C505 1.363 1_455 S
C500 C501 1.363 1_655 S
C500 C505 1.379 . S
C500 N507 1.356 . S
C501 C500 1.363 1_455 S
C501 C504 1.363 . S
N502 C504 1.356 . S
N502 H514 0.984 . S
N502 H515 0.985 . S
N503 C505 1.356 . S
N503 H508 0.984 . S
N503 H509 0.985 . S
C504 C498 1.379 . S
C504 C501 1.363 . S
C504 N502 1.356 . S
C505 C499 1.363 1_655 S
C505 C500 1.379 . S
C505 N503 1.356 . S
N506 C498 1.356 . S
N506 H512 0.984 . S
N506 H513 0.984 . S
N507 C500 1.356 . S
N507 H510 0.984 . S
N507 H511 0.985 . S
H508 N503 0.984 . S
H509 N503 0.985 . S
H510 N507 0.984 . S
H511 N507 0.985 . S
H512 N506 0.984 . S
H513 N506 0.984 . S
H514 N502 0.984 . S
H515 N502 0.985 . S
C193 C24 3.259 . S
C195 C186 3.242 . S
C211 C66 1.292 . S
C213 C160 1.355 . S
C229 C93 1.918 . S
C231 C172 1.848 . S
C247 C13 2.977 . S
C249 C184 2.846 . S
C267 C162 1.221 . S
C265 C57 1.201 . S
C285 C174 1.858 . S
C283 C104 1.900 . S
C301 C64 2.001 . S
C303 C136 1.901 . S
C319 C97 1.125 . S
C321 C150 1.194 . S
C337 C17 1.360 . S
C339 C126 1.429 1_565 S
C357 C138 1.776 . S
C355 C53 1.811 . S
C375 C148 0.338 . S
C373 C106 0.602 . S
C391 C26 1.348 . S
C393 C124 1.431 . S
C411 C153 1.131 . S
C409 C2 1.111 . S
C427 C63 1.474 . S
C429 C129 1.484 . S
C445 C82 1.430 . S
C447 C141 1.454 . S
C465 C177 1.442 . S
C463 C42 1.414 . S
C483 C189 1.842 . S
C481 C103 1.817 . S
C499 C23 1.515 . S
C501 C165 1.519 . S
