# Generated by pormake.
# Topology anh, (6,3)-cn, num edge types: 1
# Building blocks:
#     Node 0, Type 0, BuildingBlock: PAMTOO_clean_sbu_0, # of connection points: 6
#     Node 1, Type 0, BuildingBlock: PAMTOO_clean_sbu_0, # of connection points: 6
#     Node 2, Type 0, BuildingBlock: PAMTOO_clean_sbu_0, # of connection points: 6
#     Node 3, Type 1, BuildingBlock: KAKCAD_clean_linker_0, # of connection points: 3
#     Node 4, Type 1, BuildingBlock: KAKCAD_clean_linker_0, # of connection points: 3
#     Node 5, Type 1, BuildingBlock: KAKCAD_clean_linker_0, # of connection points: 3
#     Node 6, Type 1, BuildingBlock: KAKCAD_clean_linker_0, # of connection points: 3
#     Node 7, Type 1, BuildingBlock: KAKCAD_clean_linker_0, # of connection points: 3
#     Node 8, Type 1, BuildingBlock: KAKCAD_clean_linker_0, # of connection points: 3
#     Edge 9, Type (0, 1), BuildingBlock: AJUNOK_clean_linker_0, # of connection points: 2
#     Edge 10, Type (0, 1), BuildingBlock: AJUNOK_clean_linker_0, # of connection points: 2
#     Edge 11, Type (0, 1), BuildingBlock: AJUNOK_clean_linker_0, # of connection points: 2
#     Edge 12, Type (0, 1), BuildingBlock: AJUNOK_clean_linker_0, # of connection points: 2
#     Edge 13, Type (0, 1), BuildingBlock: AJUNOK_clean_linker_0, # of connection points: 2
#     Edge 14, Type (0, 1), BuildingBlock: AJUNOK_clean_linker_0, # of connection points: 2
#     Edge 15, Type (0, 1), BuildingBlock: AJUNOK_clean_linker_0, # of connection points: 2
#     Edge 16, Type (0, 1), BuildingBlock: AJUNOK_clean_linker_0, # of connection points: 2
#     Edge 17, Type (0, 1), BuildingBlock: AJUNOK_clean_linker_0, # of connection points: 2
#     Edge 18, Type (0, 1), BuildingBlock: AJUNOK_clean_linker_0, # of connection points: 2
#     Edge 19, Type (0, 1), BuildingBlock: AJUNOK_clean_linker_0, # of connection points: 2
#     Edge 20, Type (0, 1), BuildingBlock: AJUNOK_clean_linker_0, # of connection points: 2
#     Edge 21, Type (0, 1), BuildingBlock: AJUNOK_clean_linker_0, # of connection points: 2
#     Edge 22, Type (0, 1), BuildingBlock: AJUNOK_clean_linker_0, # of connection points: 2
#     Edge 23, Type (0, 1), BuildingBlock: AJUNOK_clean_linker_0, # of connection points: 2
#     Edge 24, Type (0, 1), BuildingBlock: AJUNOK_clean_linker_0, # of connection points: 2
#     Edge 25, Type (0, 1), BuildingBlock: AJUNOK_clean_linker_0, # of connection points: 2
#     Edge 26, Type (0, 1), BuildingBlock: AJUNOK_clean_linker_0, # of connection points: 2
# Relax obj value: 0.210
# Max RMSD: 0.208
# Mean RMSD: 0.164
data_MOF--net-anh--node1-PAMTOO_clean_sbu_0--node2-KAKCAD_clean_linker_0--edge1-AJUNOK_clean_linker_0
_symmetry_space_group_name_H-M    P1
_symmetry_Int_Tables_number       1
_symmetry_cell_setting            triclinic
loop_
_symmetry_equiv_pos_as_xyz
'x, y, z'
_cell_length_a     28.173296
_cell_length_b     27.508242
_cell_length_c     53.156565
_cell_angle_alpha  89.687453
_cell_angle_beta   95.164672
_cell_angle_gamma 100.95847
loop_
_atom_site_label
_atom_site_type_symbol
_atom_site_fract_x
_atom_site_fract_y
_atom_site_fract_z
_atom_type_partial_charge
Dy0 Dy 0.10063 0.62171 0.14976 0.0
Dy1 Dy 1.07082 0.50283 0.13445 0.0
C2 C 1.07974 0.587 0.09376 0.0
O3 O 1.0205 0.60413 0.1552 0.0
O4 O 0.99923 0.52764 0.13521 0.0
O5 O 0.12446 0.69594 0.13697 0.0
O6 O 0.11248 0.68322 0.17639 0.0
O7 O 1.06163 0.51073 0.17537 0.0
O8 O 0.12024 0.57932 0.18359 0.0
O9 O 0.15253 0.51664 0.1416 0.0
O10 O 0.16984 0.60143 0.13846 0.0
O11 O 1.0777 0.42716 0.14187 0.0
O12 O 1.02849 0.4436 0.11069 0.0
C13 C 0.9875 0.56618 0.14605 0.0
O14 O 1.06423 0.61225 0.11097 0.0
O15 O 0.09245 0.54455 0.09954 0.0
C16 C 0.17784 0.74638 0.16705 0.0
C17 C 0.269 0.80642 0.18133 0.0
C18 C 0.26528 0.76582 0.1649 0.0
C19 C 0.22015 0.73594 0.15791 0.0
C20 C 0.18137 0.78715 0.18328 0.0
C21 C 0.2266 0.81698 0.19037 0.0
C22 C 0.13014 0.71503 0.1597 0.0
C23 C 1.09235 0.53951 0.19137 0.0
C24 C 0.18401 0.55834 0.13962 0.0
C25 C 1.00203 0.37372 0.13514 0.0
C26 C 0.92514 0.30713 0.15444 0.0
C27 C 0.9412 0.3546 0.1652 0.0
C28 C 0.97898 0.38765 0.15553 0.0
C29 C 0.98674 0.32614 0.12453 0.0
C30 C 0.9486 0.29298 0.13416 0.0
C31 C 1.04179 0.40922 0.12522 0.0
H32 H 0.29741 0.75675 0.15777 0.0
H33 H 0.21829 0.70468 0.14535 0.0
H34 H 0.14915 0.7959 0.19045 0.0
H35 H 0.22843 0.84848 0.2028 0.0
H36 H 0.92482 0.366 0.18129 0.0
H37 H 0.99039 0.42415 0.16403 0.0
H38 H 1.00415 0.31472 0.10881 0.0
H39 H 0.93705 0.25653 0.12559 0.0
Dy40 Dy 0.56622 0.01874 0.51869 0.0
Dy41 Dy 0.68514 0.0465 0.52682 0.0
C42 C 0.62157 0.02523 0.5728 0.0
O43 O 0.58409 0.0999 0.51173 0.0
O44 O 0.66012 0.11782 0.53276 0.0
O45 O 0.49848 0.98786 0.53376 0.0
O46 O 0.49849 0.02002 0.49646 0.0
O47 O 0.66247 0.06312 0.48687 0.0
O48 O 0.59448 1.00305 0.48233 0.0
O49 O 0.66941 0.96481 0.51912 0.0
O50 O 0.58836 0.94578 0.52566 0.0
O51 O 0.75524 0.04594 0.51347 0.0
O52 O 0.75022 0.07933 0.5498 0.0
C53 C 0.62136 0.13203 0.52181 0.0
O54 O 0.58815 0.04274 0.55876 0.0
O55 O 0.6589 0.01405 0.56269 0.0
C56 C 0.43905 0.94969 0.50283 0.0
C57 C 0.37532 0.86275 0.4854 0.0
C58 C 0.35913 0.89728 0.50029 0.0
C59 C 0.39082 0.94058 0.50889 0.0
C60 C 0.4555 0.91508 0.48818 0.0
C61 C 0.42381 0.87195 0.47948 0.0
C62 C 0.47268 0.99406 0.5128 0.0
C63 C 0.62933 0.03345 0.47237 0.0
C64 C 0.62978 0.93231 0.52246 0.0
C65 C 0.81223 0.11792 0.52521 0.0
C66 C 0.87425 0.20136 0.5079 0.0
C67 C 0.88641 0.15426 0.50681 0.0
C68 C 0.85569 0.11286 0.51551 0.0
C69 C 0.80019 0.16509 0.5265 0.0
C70 C 0.83113 0.20654 0.51803 0.0
C71 C 0.77839 0.07348 0.53228 0.0
H72 H 0.3219 0.89089 0.50509 0.0
H73 H 0.37779 0.96678 0.5204 0.0
H74 H 0.49292 0.92125 0.48367 0.0
H75 H 0.43734 0.84544 0.46842 0.0
H76 H 0.91946 0.14947 0.49898 0.0
H77 H 0.86536 0.07672 0.51419 0.0
H78 H 0.76642 0.1698 0.53355 0.0
H79 H 0.82062 0.24238 0.51863 0.0
Dy80 Dy 0.63905 0.45793 0.84063 0.0
Dy81 Dy 0.52095 0.43913 0.83556 0.0
C82 C 0.5799 0.45951 0.78748 0.0
O83 O 0.62024 0.53139 0.82966 0.0
O84 O 0.54522 0.51996 0.84464 0.0
O85 O 0.7094 0.48866 0.85945 0.0
O86 O 0.70415 0.44474 0.82542 0.0
O87 O 0.54365 0.4279 0.87627 0.0
O88 O 0.6185 0.47795 0.87812 0.0
O89 O 0.5411 0.36636 0.82761 0.0
O90 O 0.6139 0.37915 0.85161 0.0
O91 O 0.45312 0.42574 0.85264 0.0
O92 O 0.45289 0.42905 0.812 0.0
C93 C 0.58334 0.54935 0.83675 0.0
O94 O 0.61389 0.44087 0.80026 0.0
O95 O 0.54349 0.47009 0.79861 0.0
C96 C 0.76605 0.51518 0.83048 0.0
C97 C 0.82688 0.60245 0.81673 0.0
C98 C 0.77808 0.59183 0.80697 0.0
C99 C 0.74778 0.54845 0.81385 0.0
C100 C 0.81547 0.52395 0.83879 0.0
C101 C 0.84578 0.56732 0.83193 0.0
C102 C 0.73263 0.47498 0.84146 0.0
C103 C 0.58059 0.45594 0.88916 0.0
C104 C 0.57674 0.34894 0.83992 0.0
C105 C 0.40083 0.47184 0.83086 0.0
C106 C 0.35408 0.55363 0.82754 0.0
C107 C 0.39603 0.55494 0.84405 0.0
C108 C 0.41928 0.51461 0.84561 0.0
C109 C 0.3589 0.47021 0.81433 0.0
C110 C 0.33547 0.51082 0.81275 0.0
C111 C 0.42806 0.43127 0.83134 0.0
H112 H 0.76291 0.61833 0.79518 0.0
H113 H 0.70957 0.54221 0.8073 0.0
H114 H 0.83002 0.49873 0.85173 0.0
H115 H 0.88315 0.57511 0.84006 0.0
H116 H 0.41039 0.5868 0.85621 0.0
H117 H 0.45187 0.51702 0.85838 0.0
H118 H 0.34456 0.4378 0.80255 0.0
H119 H 0.3029 0.50887 0.80001 0.0
C120 C 0.65291 0.08579 0.35113 0.0
C121 C 0.643 0.04014 0.3635 0.0
C122 C 0.65391 0.08737 0.32484 0.0
C123 C 0.64502 0.04329 0.31048 0.0
C124 C 0.63737 0.99772 0.32304 0.0
C125 C 0.63649 0.99618 0.34925 0.0
C126 C 0.63993 0.04432 0.28243 0.0
C127 C 0.67306 0.07644 0.26886 0.0
C128 C 0.66734 0.07709 0.24223 0.0
C129 C 0.62743 0.04544 0.22931 0.0
C130 C 0.59394 0.01331 0.24272 0.0
C131 C 0.60059 0.01318 0.26918 0.0
C132 C 0.55071 0.98068 0.2297 0.0
C133 C 0.52047 0.99938 0.21111 0.0
C134 C 0.53684 0.93165 0.23772 0.0
C135 C 0.4924 0.90297 0.22856 0.0
C136 C 0.46081 0.92266 0.21118 0.0
C137 C 0.70317 0.11068 0.22803 0.0
C138 C 0.72056 0.1599 0.23619 0.0
C139 C 0.72087 0.09364 0.20646 0.0
C140 C 0.75541 0.125 0.19349 0.0
C141 C 0.77257 0.17422 0.20164 0.0
C142 C 0.75482 0.1913 0.22314 0.0
C143 C 0.47585 0.97052 0.20188 0.0
H144 H 0.65824 0.12025 0.36171 0.0
H145 H 0.65965 0.12299 0.31566 0.0
H146 H 0.63132 0.96314 0.31252 0.0
H147 H 0.6302 0.9605 0.35836 0.0
H148 H 0.70392 0.10007 0.27902 0.0
H149 H 0.57397 0.98969 0.27964 0.0
H150 H 0.6223 0.04593 0.20886 0.0
H151 H 0.53013 0.03708 0.20465 0.0
H152 H 0.55982 0.9159 0.25168 0.0
H153 H 0.48217 0.8657 0.23553 0.0
H154 H 0.70746 0.17429 0.25262 0.0
H155 H 0.70862 0.05577 0.19985 0.0
H156 H 0.45217 0.98637 0.18836 0.0
H157 H 0.76795 0.22883 0.23008 0.0
H158 H 0.76856 0.11087 0.177 0.0
C159 C 0.57082 0.53462 0.66779 0.0
C160 C 0.5941 0.49966 0.68066 0.0
C161 C 0.57386 0.54155 0.64183 0.0
C162 C 0.59999 0.51339 0.62829 0.0
C163 C 0.62311 0.47841 0.64127 0.0
C164 C 0.6199 0.4714 0.66708 0.0
C165 C 0.60302 0.51965 0.60067 0.0
C166 C 0.61133 0.56684 0.58993 0.0
C167 C 0.61682 0.57269 0.56394 0.0
C168 C 0.61395 0.53028 0.54862 0.0
C169 C 0.60497 0.48279 0.55922 0.0
C170 C 0.59916 0.47799 0.58507 0.0
C171 C 0.60373 0.4371 0.54439 0.0
C172 C 0.56333 0.39836 0.54455 0.0
C173 C 0.64593 0.42814 0.53457 0.0
C174 C 0.6487 0.3803 0.52663 0.0
C175 C 0.60911 0.34089 0.52814 0.0
C176 C 0.62516 0.62341 0.55327 0.0
C177 C 0.59717 0.63478 0.53157 0.0
C178 C 0.65839 0.66185 0.56612 0.0
C179 C 0.66214 0.71078 0.55814 0.0
C180 C 0.63284 0.72253 0.53705 0.0
C181 C 0.60074 0.68394 0.52364 0.0
C182 C 0.56595 0.3508 0.53649 0.0
H183 H 0.55061 0.55682 0.67785 0.0
H184 H 0.55524 0.56842 0.63232 0.0
H185 H 0.64402 0.45651 0.6315 0.0
H186 H 0.63741 0.44349 0.6764 0.0
H187 H 0.61396 0.59921 0.60188 0.0
H188 H 0.59231 0.4413 0.59315 0.0
H189 H 0.61886 0.53417 0.52867 0.0
H190 H 0.53063 0.40429 0.55237 0.0
H191 H 0.6778 0.45726 0.53467 0.0
H192 H 0.6824 0.37367 0.52027 0.0
H193 H 0.57101 0.606 0.52141 0.0
H194 H 0.6807 0.65421 0.58281 0.0
H195 H 0.53514 0.32115 0.53833 0.0
H196 H 0.57769 0.69196 0.50732 0.0
H197 H 0.68659 0.7397 0.56913 0.0
C198 C 0.15572 0.72583 -0.00274 0.0
C199 C 0.11439 0.68876 -0.00075 0.0
C200 C 0.16076 0.75393 0.97528 0.0
C201 C 0.12385 0.74622 0.95535 0.0
C202 C 1.08251 0.7092 0.95746 0.0
C203 C 1.07796 0.68054 0.97916 0.0
C204 C 0.12918 0.77364 0.93143 0.0
C205 C 0.16714 0.76857 0.91698 0.0
C206 C 0.16573 0.78219 0.89147 0.0
C207 C 0.12652 0.80248 0.88083 0.0
C208 C 1.08716 0.80639 0.89477 0.0
C209 C 1.09085 0.79505 0.92068 0.0
C210 C 1.0387 0.80818 0.88096 0.0
C211 C 1.03508 0.8264 0.85607 0.0
C212 C 0.99629 0.78081 0.8901 0.0
C213 C 0.95461 0.76557 0.87392 0.0
C214 C 0.95443 0.77636 0.84814 0.0
C215 C 0.19854 0.76437 0.8748 0.0
C216 C 0.24759 0.76561 0.88299 0.0
C217 C 0.17896 0.73934 0.85207 0.0
C218 C 0.20665 0.71311 0.83889 0.0
C219 C 0.25434 0.71106 0.8482 0.0
C220 C 0.27528 0.73907 0.8698 0.0
C221 C 0.99367 0.80946 0.83957 0.0
H222 H 0.18408 0.73289 0.01269 0.0
H223 H 0.19314 0.78188 0.97391 0.0
H224 H 1.05398 0.70193 0.94211 0.0
H225 H 1.04555 0.65256 0.98045 0.0
H226 H 0.19496 0.74906 0.92486 0.0
H227 H 1.06178 0.79838 0.93216 0.0
H228 H 0.12473 0.81001 0.86082 0.0
H229 H 1.06569 0.84997 0.84856 0.0
H230 H 0.99612 0.76576 0.90891 0.0
H231 H 0.92463 0.74014 0.88103 0.0
H232 H 0.26369 0.78477 0.90034 0.0
H233 H 0.14111 0.73673 0.84535 0.0
H234 H 0.99385 0.81899 0.81977 0.0
H235 H 0.31186 0.73755 0.87756 0.0
H236 H 0.18977 0.69175 0.82228 0.0
C237 C 1.05978 0.49796 0.31229 0.0
C238 C 0.10222 0.50481 0.29965 0.0
C239 C 1.06262 0.49712 0.33867 0.0
C240 C 0.10796 0.50361 0.35286 0.0
C241 C 0.15027 0.509 0.34019 0.0
C242 C 0.14742 0.50954 0.31385 0.0
C243 C 0.11133 0.50791 0.38075 0.0
C244 C 1.08046 0.47471 0.3949 0.0
C245 C 1.08237 0.47998 0.42132 0.0
C246 C 0.11566 0.51935 0.43346 0.0
C247 C 0.14714 0.55246 0.41949 0.0
C248 C 0.14472 0.54643 0.39321 0.0
C249 C 0.18197 0.59437 0.43194 0.0
C250 C 0.16665 0.62606 0.44882 0.0
C251 C 0.23019 0.60477 0.42563 0.0
C252 C 0.26197 0.64709 0.43522 0.0
C253 C 0.24603 0.68016 0.45107 0.0
C254 C 1.05028 0.44361 0.43607 0.0
C255 C 1.00221 0.42446 0.42646 0.0
C256 C 1.06803 0.42604 0.45928 0.0
C257 C 1.03881 0.38918 0.4722 0.0
C258 C 0.99146 0.36908 0.46207 0.0
C259 C 0.97324 0.38733 0.43925 0.0
C260 C 0.19843 0.66868 0.45829 0.0
H261 H 1.02453 0.49528 0.30186 0.0
H262 H 1.02947 0.4935 0.34797 0.0
H263 H 0.18565 0.5135 0.35068 0.0
H264 H 0.18067 0.51453 0.30456 0.0
H265 H 1.05568 0.44408 0.38531 0.0
H266 H 0.16788 0.5729 0.38228 0.0
H267 H 0.11723 0.52424 0.45375 0.0
H268 H 0.12958 0.61898 0.45387 0.0
H269 H 0.24312 0.58045 0.41299 0.0
H270 H 0.2989 0.65429 0.42996 0.0
H271 H 0.98705 0.43784 0.40891 0.0
H272 H 0.10504 0.43948 0.46706 0.0
H273 H 0.1853 0.69355 0.47055 0.0
H274 H 0.93665 0.37253 0.43121 0.0
H275 H 1.05378 0.37515 0.48964 0.0
C276 C 0.5691 0.94606 0.6877 0.0
C277 C 0.60556 0.98351 0.67957 0.0
C278 C 0.56563 0.93733 0.71349 0.0
C279 C 0.59841 0.9661 0.73158 0.0
C280 C 0.63561 1.00266 0.72336 0.0
C281 C 0.63923 1.01115 0.69763 0.0
C282 C 0.59268 0.95995 0.75897 0.0
C283 C 0.58412 0.91288 0.76986 0.0
C284 C 0.57964 0.90752 0.79596 0.0
C285 C 0.58278 0.95021 0.81114 0.0
C286 C 0.59084 0.99758 0.80027 0.0
C287 C 0.59583 1.00184 0.77431 0.0
C288 C 0.59286 0.04369 0.81505 0.0
C289 C 0.55272 0.05125 0.82733 0.0
C290 C 0.6316 0.08367 0.81301 0.0
C291 C 0.62878 0.13101 0.82136 0.0
C292 C 0.58701 0.13957 0.8318 0.0
C293 C 0.57423 0.85715 0.80699 0.0
C294 C 0.53977 0.81774 0.79571 0.0
C295 C 0.60695 0.84695 0.82697 0.0
C296 C 0.60709 0.79801 0.83446 0.0
C297 C 0.5741 0.75845 0.82233 0.0
C298 C 0.53945 0.76896 0.80344 0.0
C299 C 0.54979 0.09886 0.83562 0.0
H300 H 0.54319 0.92368 0.67411 0.0
H301 H 0.53653 0.90903 0.71929 0.0
H302 H 0.66176 0.02499 0.73687 0.0
H303 H 0.66777 0.04011 0.69184 0.0
H304 H 0.58266 0.8804 0.75814 0.0
H305 H 0.60102 0.0382 0.76582 0.0
H306 H 0.57918 0.94661 0.83123 0.0
H307 H 0.52227 0.02112 0.82899 0.0
H308 H 0.66296 0.0788 0.8036 0.0
H309 H 0.65807 0.1615 0.81816 0.0
H310 H 0.51399 0.82457 0.78034 0.0
H311 H 0.63408 0.87653 0.83589 0.0
H312 H 0.51756 0.10418 0.84409 0.0
H313 H 0.51362 0.73919 0.7938 0.0
H314 H 0.63389 0.79092 0.84925 0.0
C315 C 0.58728 0.46124 0.01402 0.0
C316 C 0.56911 0.49196 -0.00408 0.0
C317 C 0.58817 0.47183 0.03977 0.0
C318 C 0.57019 0.51287 0.04785 0.0
C319 C 0.55041 0.54253 0.02971 0.0
C320 C 0.55015 0.53233 0.00395 0.0
C321 C 0.574 0.52594 0.07509 0.0
C322 C 0.61827 0.52879 0.08972 0.0
C323 C 0.62361 0.5421 0.11543 0.0
C324 C 0.58245 0.5522 0.12676 0.0
C325 C 0.53701 0.5492 0.11205 0.0
C326 C 0.53392 0.5364 0.08628 0.0
C327 C 0.49128 0.55822 0.12229 0.0
C328 C 0.46914 0.52801 0.14107 0.0
C329 C 0.46465 0.59105 0.10969 0.0
C330 C 0.41672 0.59201 0.11472 0.0
C331 C 0.39333 0.55989 0.13244 0.0
C332 C 0.67333 0.54495 0.12898 0.0
C333 C 0.69645 0.50401 0.12773 0.0
C334 C 0.70181 0.59037 0.1378 0.0
C335 C 0.75237 0.59505 0.14408 0.0
C336 C 0.77582 0.5544 0.14177 0.0
C337 C 0.74663 0.50865 0.13387 0.0
C338 C 0.42085 0.52884 0.14608 0.0
H339 H 0.6021 0.42994 0.00821 0.0
H340 H 0.60325 0.44817 0.0534 0.0
H341 H 0.53653 0.57449 0.03543 0.0
H342 H 0.53567 0.5563 0.99027 0.0
H343 H 0.64945 0.52174 0.08076 0.0
H344 H 0.49955 0.53342 0.07488 0.0
H345 H 0.58572 0.56221 0.14659 0.0
H346 H 0.4882 0.50185 0.15092 0.0
H347 H 0.48028 0.61457 0.09496 0.0
H348 H 0.39717 0.61647 0.10378 0.0
H349 H 0.67596 0.46873 0.12048 0.0
H350 H 0.68557 0.62296 0.13842 0.0
H351 H 0.40477 0.50439 0.16033 0.0
H352 H 0.76284 0.47667 0.13105 0.0
H353 H 0.77333 0.63091 0.1501 0.0
C354 C 0.27174 0.60183 0.138 0.0
C355 C 0.23735 0.55724 0.13855 0.0
C356 C 0.32164 0.60228 0.13657 0.0
C357 C 0.34016 0.55817 0.1357 0.0
H358 H 0.26016 0.63708 0.13855 0.0
H359 H 0.34601 0.63778 0.13615 0.0
S360 S 0.26623 0.43097 0.13597 0.0
N361 N 0.22629 0.46731 0.1379 0.0
N362 N 0.31934 0.46829 0.13495 0.0
C363 C 0.30637 0.51324 0.13638 0.0
C364 C 0.25542 0.51274 0.13783 0.0
C365 C 0.91582 0.24229 0.47178 0.0
C366 C 0.90501 0.24447 0.497 0.0
C367 C 0.94353 0.28299 0.46062 0.0
C368 C 0.96193 0.32703 0.47442 0.0
H369 H 0.90214 0.20909 0.46047 0.0
H370 H 0.95099 0.27987 0.44111 0.0
S371 S 0.9444 0.35132 0.54113 0.0
N372 N 0.91493 0.29396 0.53552 0.0
N373 N 0.96757 0.37056 0.51454 0.0
C374 C 0.95177 0.32959 0.49971 0.0
C375 C 0.92305 0.2883 0.51099 0.0
C376 C 0.54008 0.6214 0.83764 0.0
C377 C 0.58297 0.60349 0.8345 0.0
C378 C 0.53763 0.67158 0.83418 0.0
C379 C 0.57809 0.70615 0.82777 0.0
H380 H 0.50766 0.59638 0.84234 0.0
H381 H 0.50374 0.68342 0.83643 0.0
S382 S 0.69891 0.67965 0.81741 0.0
N383 N 0.66713 0.62547 0.82475 0.0
N384 N 0.66213 0.71948 0.81834 0.0
C385 C 0.62134 0.68921 0.825 0.0
C386 C 0.62386 0.63806 0.82832 0.0
C387 C 0.91241 0.60402 0.13712 0.0
C388 C 0.93462 0.56592 0.14771 0.0
C389 C 0.8615 0.60094 0.13603 0.0
C390 C 0.83056 0.55987 0.14574 0.0
H391 H 0.93429 0.63548 0.12868 0.0
H392 H 0.84616 0.63018 0.12664 0.0
S393 S 0.87221 0.45457 0.17938 0.0
N394 N 0.9225 0.48846 0.1703 0.0
N395 N 0.82793 0.48343 0.16928 0.0
C396 C 0.85306 0.52304 0.15769 0.0
C397 C 0.90462 0.52587 0.1584 0.0
C398 C 0.31545 0.78584 0.49331 0.0
C399 C 0.34182 0.81693 0.47624 0.0
C400 C 0.28439 0.74169 0.48505 0.0
C401 C 0.27861 0.72723 0.45945 0.0
H402 H 0.31948 0.79533 0.51324 0.0
H403 H 0.26532 0.71836 0.49886 0.0
S404 S 0.33586 0.79837 0.40693 0.0
N405 N 0.35791 0.83197 0.43246 0.0
N406 N 0.2992 0.74931 0.41685 0.0
C407 C 0.30396 0.75866 0.44213 0.0
C408 C 0.33565 0.80342 0.45055 0.0
C409 C 0.61673 0.27616 0.85063 0.0
C410 C 0.57637 0.29458 0.83962 0.0
C411 C 0.61911 0.22575 0.84891 0.0
C412 C 0.58108 0.19146 0.83631 0.0
H413 H 0.64746 0.30099 0.86016 0.0
H414 H 0.65144 0.21364 0.85713 0.0
S415 S 0.4665 0.21959 0.80488 0.0
N416 N 0.49654 0.27348 0.81633 0.0
N417 N 0.50147 0.17921 0.81295 0.0
C418 C 0.53988 0.20894 0.82587 0.0
C419 C 0.53744 0.26029 0.82754 0.0
C420 C 0.58847 0.84328 0.52461 0.0
C421 C 0.63176 0.87854 0.52374 0.0
C422 C 0.5891 0.79276 0.52786 0.0
C423 C 0.63303 0.77527 0.53052 0.0
H424 H 0.55363 0.85475 0.52326 0.0
H425 H 0.55495 0.76744 0.52925 0.0
S426 S 0.75627 0.85075 0.52732 0.0
N427 N 0.71984 0.89128 0.5242 0.0
N428 N 0.72067 0.79632 0.53021 0.0
C429 C 0.67644 0.80959 0.52873 0.0
C430 C 0.6759 0.86112 0.52532 0.0
C431 C 0.83823 0.69194 0.82696 0.0
C432 C 0.85542 0.65327 0.81572 0.0
C433 C 0.86962 0.73632 0.83429 0.0
C434 C 0.91919 0.74329 0.83062 0.0
H435 H 0.80173 0.68589 0.83269 0.0
H436 H 0.85626 0.76295 0.84537 0.0
S437 S 0.97983 0.65705 0.7976 0.0
N438 N 0.92298 0.62763 0.7977 0.0
N439 N 0.98243 0.71107 0.81161 0.0
C440 C 0.93543 0.70738 0.81663 0.0
C441 C 0.90344 0.66211 0.80926 0.0
C442 C 0.34868 0.85687 0.17103 0.0
C443 C 0.31724 0.83712 0.18925 0.0
C444 C 0.39484 0.8852 0.17818 0.0
C445 C 0.4114 0.89402 0.20379 0.0
H446 H 0.33739 0.85053 0.1511 0.0
H447 H 0.41805 0.89958 0.1636 0.0
S448 S 0.34298 0.85087 0.25876 0.0
N449 N 0.30589 0.82852 0.23394 0.0
N450 N 0.39241 0.88184 0.24737 0.0
C451 C 0.3802 0.87472 0.22215 0.0
C452 C 0.33317 0.84629 0.21489 0.0
C453 C 0.65575 0.22017 0.5351 0.0
C454 C 0.61919 0.18579 0.52141 0.0
C455 C 0.65325 0.27058 0.53626 0.0
C456 C 0.61413 0.28877 0.52378 0.0
H457 H 0.68608 0.20802 0.54558 0.0
H458 H 0.6813 0.29517 0.54783 0.0
S459 S 0.51186 0.21602 0.48295 0.0
N460 N 0.54446 0.1749 0.49335 0.0
N461 N 0.5402 0.26955 0.4956 0.0
C462 C 0.57841 0.25541 0.50918 0.0
C463 C 0.58084 0.20404 0.50796 0.0
C464 C 0.27809 0.58524 0.83167 0.0
C465 C 0.32764 0.59517 0.82781 0.0
C466 C 0.25405 0.62355 0.8368 0.0
C467 C 0.27872 0.67314 0.83826 0.0
H468 H 0.25844 0.54742 0.83227 0.0
H469 H 0.21658 0.61394 0.84113 0.0
S470 S 0.40633 0.71935 0.82529 0.0
N471 N 0.399 0.65852 0.82248 0.0
N472 N 0.35363 0.73073 0.83249 0.0
C473 C 0.32736 0.68391 0.83278 0.0
C474 C 0.35185 0.64486 0.82742 0.0
C475 C 0.88956 0.22412 0.17155 0.0
C476 C 0.88444 0.27251 0.16476 0.0
C477 C 0.85283 0.19218 0.183 0.0
C478 C 0.8097 0.2075 0.1881 0.0
H479 H 0.92275 0.21134 0.16865 0.0
H480 H 0.8588 0.1557 0.18853 0.0
S481 S 0.77594 0.32818 0.17104 0.0
N482 N 0.83101 0.33244 0.16183 0.0
N483 N 0.76231 0.27269 0.1835 0.0
C484 C 0.80346 0.25512 0.18058 0.0
C485 C 0.84071 0.28752 0.16887 0.0
C486 C 0.09491 0.66282 0.06771 0.0
C487 C 1.08854 0.6108 0.06912 0.0
C488 C 0.1045 0.68757 0.04516 0.0
C489 C 0.10732 0.66131 0.02301 0.0
H490 H 0.09299 0.68496 0.08424 0.0
H491 H 0.10886 0.72756 0.04495 0.0
S492 S 0.09387 0.52521 0.01625 0.0
N493 N 1.08664 0.53398 0.04629 0.0
N494 N 0.10348 0.5808 0.00354 0.0
C495 C 0.10105 0.60942 0.02396 0.0
C496 C 1.09207 0.58409 0.04712 0.0
C497 C 0.6713 0.06438 0.43411 0.0
C498 C 0.63157 0.03459 0.44453 0.0
C499 C 0.6746 0.06624 0.40794 0.0
C500 C 0.63846 0.03824 0.39113 0.0
H501 H 0.70038 0.08638 0.44623 0.0
H502 H 0.70605 0.08928 0.40083 0.0
S503 S 0.52548 0.95672 0.40825 0.0
N504 N 0.55426 0.97782 0.43559 0.0
N505 N 0.56052 0.98174 0.3865 0.0
C506 C 0.59823 1.00883 0.40117 0.0
C507 C 0.59477 1.00691 0.42781 0.0
C508 C 0.54273 0.47421 0.74417 0.0
C509 C 0.58418 0.47078 0.76044 0.0
C510 C 0.54623 0.48447 0.71844 0.0
C511 C 0.59133 0.49202 0.70816 0.0
H512 H 0.50722 0.46806 0.75125 0.0
H513 H 0.51328 0.48544 0.70641 0.0
S514 S 0.71145 0.49353 0.74338 0.0
N515 N 0.67218 0.47962 0.76476 0.0
N516 N 0.6787 0.49993 0.71664 0.0
C517 C 0.6332 0.49052 0.72442 0.0
C518 C 0.62964 0.47963 0.75049 0.0
C519 C 0.65655 1.00674 0.61595 0.0
C520 C 0.61658 0.01615 0.60008 0.0
C521 C 0.65268 0.99632 0.6416 0.0
C522 C 0.60855 0.99428 0.65233 0.0
H523 H 0.69127 1.00743 0.60856 0.0
H524 H 0.68436 0.98922 0.65308 0.0
S525 S 0.49319 0.01689 0.61938 0.0
N526 N 0.53139 0.02331 0.59726 0.0
N527 N 0.52438 1.00367 0.64548 0.0
C528 C 0.56834 1.00377 0.63681 0.0
C529 C 0.57231 0.01481 0.61071 0.0
C530 C 0.55195 0.42929 0.93131 0.0
C531 C 0.57843 0.46527 0.9164 0.0
C532 C 0.54933 0.43791 0.95713 0.0
C533 C 0.57208 0.48324 0.9687 0.0
H534 H 0.53358 0.39405 0.92305 0.0
H535 H 0.52894 0.4092 0.96805 0.0
S536 S 0.64473 0.58995 0.938 0.0
N537 N 0.62742 0.54817 0.91518 0.0
N538 N 0.62171 0.5644 0.9635 0.0
C539 C 0.59822 0.51961 0.954 0.0
C540 C 0.60161 0.51061 0.92789 0.0
C541 C 0.12754 0.56008 0.2357 0.0
C542 C 0.09479 0.52826 0.21873 0.0
C543 C 0.13003 0.55164 0.2617 0.0
C544 C 0.09989 0.51106 0.27188 0.0
H545 H 0.15129 0.59223 0.22896 0.0
H546 H 0.15515 0.57779 0.274 0.0
S547 S 1.00942 0.41507 0.23583 0.0
N548 N 1.03234 0.45343 0.21411 0.0
N549 N 1.03759 0.43751 0.26309 0.0
C550 C 1.06744 0.47845 0.25523 0.0
C551 C 1.06483 0.48699 0.22866 0.0
loop_
_geom_bond_atom_site_label_1
_geom_bond_atom_site_label_2
_geom_bond_distance
_geom_bond_site_symmetry_2
_ccdc_geom_bond_type
Dy0 O3 2.307 1_455 S
Dy0 O5 2.395 . S
Dy0 O6 2.379 . S
Dy0 O8 2.339 . S
Dy0 O10 2.298 . S
Dy0 O14 2.275 . S
Dy0 C22 2.738 . S
Dy1 O4 2.298 . S
Dy1 O7 2.276 . S
Dy1 O9 2.307 1_655 S
Dy1 O11 2.395 . S
Dy1 O12 2.379 . S
Dy1 O15 2.339 . S
Dy1 C31 2.738 . S
C2 O14 1.254 . S
C2 O15 1.257 1_455 S
O3 Dy0 2.307 1_655 S
O3 C13 1.266 . S
O4 Dy1 2.298 . S
O4 C13 1.236 . S
O5 Dy0 2.395 . S
O5 C22 1.255 . S
O6 Dy0 2.379 . S
O6 C22 1.249 . S
O7 Dy1 2.276 . S
O7 C23 1.254 1_655 S
O8 Dy0 2.339 . S
O8 C23 1.257 . S
O9 Dy1 2.307 1_455 S
O9 C24 1.266 . S
O10 Dy0 2.298 . S
O10 C24 1.236 . S
O11 Dy1 2.395 . S
O11 C31 1.255 . S
O12 Dy1 2.379 . S
O12 C31 1.249 . S
C13 O3 1.266 . S
C13 O4 1.236 . S
O14 Dy0 2.275 . S
O14 C2 1.254 . S
O15 Dy1 2.339 . S
O15 C2 1.257 1_655 S
C16 C19 1.344 . S
C16 C20 1.328 . S
C16 C22 1.516 . S
C17 C18 1.304 . S
C17 C21 1.323 . S
C18 C17 1.304 . S
C18 C19 1.371 . S
C18 H32 0.930 . S
C19 C16 1.344 . S
C19 C18 1.371 . S
C19 H33 0.931 . S
C20 C16 1.328 . S
C20 C21 1.433 . S
C20 H34 0.931 . S
C21 C17 1.323 . S
C21 C20 1.433 . S
C21 H35 0.933 . S
C22 Dy0 2.738 . S
C22 O5 1.255 . S
C22 O6 1.249 . S
C22 C16 1.516 . S
C23 O7 1.254 1_455 S
C23 O8 1.257 . S
C24 O9 1.266 . S
C24 O10 1.236 . S
C25 C28 1.344 . S
C25 C29 1.328 . S
C25 C31 1.516 . S
C26 C27 1.304 . S
C26 C30 1.323 . S
C27 C26 1.304 . S
C27 C28 1.371 . S
C27 H36 0.930 . S
C28 C25 1.344 . S
C28 C27 1.371 . S
C28 H37 0.931 . S
C29 C25 1.328 . S
C29 C30 1.433 . S
C29 H38 0.931 . S
C30 C26 1.323 . S
C30 C29 1.433 . S
C30 H39 0.933 . S
C31 Dy1 2.738 . S
C31 O11 1.255 . S
C31 O12 1.249 . S
C31 C25 1.516 . S
H32 C18 0.930 . S
H33 C19 0.931 . S
H34 C20 0.931 . S
H35 C21 0.933 . S
H36 C27 0.930 . S
H37 C28 0.931 . S
H38 C29 0.931 . S
H39 C30 0.933 . S
Dy40 O43 2.307 1_565 S
Dy40 O45 2.395 . S
Dy40 O46 2.379 . S
Dy40 O48 2.339 1_565 S
Dy40 O50 2.298 . S
Dy40 O54 2.275 1_565 S
Dy40 C62 2.738 . S
Dy41 O44 2.298 . S
Dy41 O47 2.275 . S
Dy41 O49 2.307 1_545 S
Dy41 O51 2.395 . S
Dy41 O52 2.379 . S
Dy41 O55 2.339 . S
Dy41 C71 2.738 . S
C42 O54 1.254 . S
C42 O55 1.257 . S
O43 Dy40 2.307 1_545 S
O43 C53 1.266 . S
O44 Dy41 2.298 . S
O44 C53 1.236 . S
O45 Dy40 2.395 . S
O45 C62 1.255 . S
O46 Dy40 2.379 . S
O46 C62 1.249 . S
O47 Dy41 2.275 . S
O47 C63 1.254 . S
O48 Dy40 2.339 1_545 S
O48 C63 1.257 . S
O49 Dy41 2.307 1_565 S
O49 C64 1.266 . S
O50 Dy40 2.298 . S
O50 C64 1.236 . S
O51 Dy41 2.395 . S
O51 C71 1.255 . S
O52 Dy41 2.379 . S
O52 C71 1.249 . S
C53 O43 1.266 . S
C53 O44 1.236 . S
O54 Dy40 2.275 1_545 S
O54 C42 1.254 . S
O55 Dy41 2.339 . S
O55 C42 1.257 . S
C56 C59 1.344 . S
C56 C60 1.328 . S
C56 C62 1.516 . S
C57 C58 1.304 . S
C57 C61 1.323 . S
C58 C57 1.304 . S
C58 C59 1.371 . S
C58 H72 0.930 . S
C59 C56 1.344 . S
C59 C58 1.371 . S
C59 H73 0.931 . S
C60 C56 1.328 . S
C60 C61 1.433 . S
C60 H74 0.931 . S
C61 C57 1.323 . S
C61 C60 1.433 . S
C61 H75 0.933 . S
C62 Dy40 2.738 . S
C62 O45 1.255 . S
C62 O46 1.249 . S
C62 C56 1.516 . S
C63 O47 1.254 . S
C63 O48 1.257 . S
C64 O49 1.266 . S
C64 O50 1.236 . S
C65 C68 1.344 . S
C65 C69 1.328 . S
C65 C71 1.516 . S
C66 C67 1.304 . S
C66 C70 1.323 . S
C67 C66 1.304 . S
C67 C68 1.371 . S
C67 H76 0.930 . S
C68 C65 1.344 . S
C68 C67 1.371 . S
C68 H77 0.931 . S
C69 C65 1.328 . S
C69 C70 1.433 . S
C69 H78 0.931 . S
C70 C66 1.323 . S
C70 C69 1.433 . S
C70 H79 0.933 . S
C71 Dy41 2.738 . S
C71 O51 1.255 . S
C71 O52 1.249 . S
C71 C65 1.516 . S
H72 C58 0.930 . S
H73 C59 0.931 . S
H74 C60 0.931 . S
H75 C61 0.933 . S
H76 C67 0.930 . S
H77 C68 0.931 . S
H78 C69 0.931 . S
H79 C70 0.933 . S
Dy80 O83 2.307 . S
Dy80 O85 2.395 . S
Dy80 O86 2.379 . S
Dy80 O88 2.339 . S
Dy80 O90 2.298 . S
Dy80 O94 2.275 . S
Dy80 C102 2.738 . S
Dy81 O84 2.298 . S
Dy81 O87 2.275 . S
Dy81 O89 2.307 . S
Dy81 O91 2.395 . S
Dy81 O92 2.379 . S
Dy81 O95 2.339 . S
Dy81 C111 2.738 . S
C82 O94 1.254 . S
C82 O95 1.257 . S
O83 Dy80 2.307 . S
O83 C93 1.266 . S
O84 Dy81 2.298 . S
O84 C93 1.236 . S
O85 Dy80 2.395 . S
O85 C102 1.255 . S
O86 Dy80 2.379 . S
O86 C102 1.249 . S
O87 Dy81 2.275 . S
O87 C103 1.254 . S
O88 Dy80 2.339 . S
O88 C103 1.257 . S
O89 Dy81 2.307 . S
O89 C104 1.266 . S
O90 Dy80 2.298 . S
O90 C104 1.236 . S
O91 Dy81 2.395 . S
O91 C111 1.255 . S
O92 Dy81 2.379 . S
O92 C111 1.249 . S
C93 O83 1.266 . S
C93 O84 1.236 . S
O94 Dy80 2.275 . S
O94 C82 1.254 . S
O95 Dy81 2.339 . S
O95 C82 1.257 . S
C96 C99 1.344 . S
C96 C100 1.328 . S
C96 C102 1.516 . S
C97 C98 1.304 . S
C97 C101 1.323 . S
C98 C97 1.304 . S
C98 C99 1.371 . S
C98 H112 0.930 . S
C99 C96 1.344 . S
C99 C98 1.371 . S
C99 H113 0.931 . S
C100 C96 1.328 . S
C100 C101 1.433 . S
C100 H114 0.931 . S
C101 C97 1.323 . S
C101 C100 1.433 . S
C101 H115 0.933 . S
C102 Dy80 2.738 . S
C102 O85 1.255 . S
C102 O86 1.249 . S
C102 C96 1.516 . S
C103 O87 1.254 . S
C103 O88 1.257 . S
C104 O89 1.266 . S
C104 O90 1.236 . S
C105 C108 1.344 . S
C105 C109 1.328 . S
C105 C111 1.516 . S
C106 C107 1.304 . S
C106 C110 1.323 . S
C107 C106 1.304 . S
C107 C108 1.371 . S
C107 H116 0.930 . S
C108 C105 1.344 . S
C108 C107 1.371 . S
C108 H117 0.931 . S
C109 C105 1.328 . S
C109 C110 1.433 . S
C109 H118 0.931 . S
C110 C106 1.323 . S
C110 C109 1.433 . S
C110 H119 0.933 . S
C111 Dy81 2.738 . S
C111 O91 1.255 . S
C111 O92 1.249 . S
C111 C105 1.516 . S
H112 C98 0.930 . S
H113 C99 0.931 . S
H114 C100 0.931 . S
H115 C101 0.933 . S
H116 C107 0.930 . S
H117 C108 0.931 . S
H118 C109 0.931 . S
H119 C110 0.933 . S
C120 C121 1.386 . S
C120 C122 1.397 . S
C120 H144 0.931 . S
C121 C120 1.386 . S
C121 C125 1.397 . S
C122 C120 1.397 . S
C122 C123 1.384 . S
C122 H145 0.930 . S
C123 C122 1.384 . S
C123 C124 1.377 . S
C123 C126 1.481 . S
C124 C123 1.377 . S
C124 C125 1.389 . S
C124 H146 0.929 1_545 S
C125 C121 1.397 . S
C125 C124 1.389 . S
C125 H147 0.931 1_545 S
C126 C123 1.481 . S
C126 C127 1.387 . S
C126 C131 1.390 . S
C127 C126 1.387 . S
C127 C128 1.401 . S
C127 H148 0.930 . S
C128 C127 1.401 . S
C128 C129 1.376 . S
C128 C137 1.511 . S
C129 C128 1.376 . S
C129 C130 1.392 . S
C129 H150 0.931 . S
C130 C129 1.392 . S
C130 C131 1.361 . S
C130 C132 1.500 1_545 S
C131 C126 1.390 . S
C131 C130 1.361 . S
C131 H149 0.929 1_545 S
C132 C130 1.500 1_565 S
C132 C133 1.371 . S
C132 C134 1.365 . S
C133 C132 1.371 . S
C133 C143 1.386 . S
C133 H151 0.931 1_565 S
C134 C132 1.365 . S
C134 C135 1.409 . S
C134 H152 0.929 . S
C135 C134 1.409 . S
C135 C136 1.380 . S
C135 H153 0.930 . S
C136 C135 1.380 . S
C136 C143 1.357 . S
C137 C128 1.511 . S
C137 C138 1.341 . S
C137 C139 1.371 . S
C138 C137 1.341 . S
C138 C142 1.394 . S
C138 H154 0.930 . S
C139 C137 1.371 . S
C139 C140 1.392 . S
C139 H155 0.931 . S
C140 C139 1.392 . S
C140 C141 1.331 . S
C140 H158 0.932 . S
C141 C140 1.331 . S
C141 C142 1.336 . S
C142 C138 1.394 . S
C142 C141 1.336 . S
C142 H157 0.929 . S
C143 C133 1.386 . S
C143 C136 1.357 . S
C143 H156 0.928 . S
H144 C120 0.931 . S
H145 C122 0.930 . S
H146 C124 0.929 1_565 S
H147 C125 0.931 1_565 S
H148 C127 0.930 . S
H149 C131 0.929 1_565 S
H150 C129 0.931 . S
H151 C133 0.931 1_545 S
H152 C134 0.929 . S
H153 C135 0.930 . S
H154 C138 0.930 . S
H155 C139 0.931 . S
H156 C143 0.928 . S
H157 C142 0.929 . S
H158 C140 0.932 . S
C159 C160 1.386 . S
C159 C161 1.397 . S
C159 H183 0.931 . S
C160 C159 1.386 . S
C160 C164 1.397 . S
C161 C159 1.397 . S
C161 C162 1.384 . S
C161 H184 0.930 . S
C162 C161 1.384 . S
C162 C163 1.377 . S
C162 C165 1.481 . S
C163 C162 1.377 . S
C163 C164 1.389 . S
C163 H185 0.929 . S
C164 C160 1.397 . S
C164 C163 1.389 . S
C164 H186 0.931 . S
C165 C162 1.481 . S
C165 C166 1.387 . S
C165 C170 1.390 . S
C166 C165 1.387 . S
C166 C167 1.401 . S
C166 H187 0.930 . S
C167 C166 1.401 . S
C167 C168 1.376 . S
C167 C176 1.511 . S
C168 C167 1.376 . S
C168 C169 1.392 . S
C168 H189 0.931 . S
C169 C168 1.392 . S
C169 C170 1.361 . S
C169 C171 1.500 . S
C170 C165 1.390 . S
C170 C169 1.361 . S
C170 H188 0.931 . S
C171 C169 1.500 . S
C171 C172 1.371 . S
C171 C173 1.365 . S
C172 C171 1.371 . S
C172 C182 1.386 . S
C172 H190 0.931 . S
C173 C171 1.365 . S
C173 C174 1.409 . S
C173 H191 0.929 . S
C174 C173 1.409 . S
C174 C175 1.380 . S
C174 H192 0.930 . S
C175 C174 1.380 . S
C175 C182 1.357 . S
C176 C167 1.511 . S
C176 C177 1.341 . S
C176 C178 1.371 . S
C177 C176 1.341 . S
C177 C181 1.394 . S
C177 H193 0.930 . S
C178 C176 1.371 . S
C178 C179 1.392 . S
C178 H194 0.931 . S
C179 C178 1.392 . S
C179 C180 1.331 . S
C179 H197 0.932 . S
C180 C179 1.331 . S
C180 C181 1.336 . S
C181 C177 1.394 . S
C181 C180 1.336 . S
C181 H196 0.929 . S
C182 C172 1.386 . S
C182 C175 1.357 . S
C182 H195 0.928 . S
H183 C159 0.931 . S
H184 C161 0.930 . S
H185 C163 0.929 . S
H186 C164 0.931 . S
H187 C166 0.930 . S
H188 C170 0.931 . S
H189 C168 0.931 . S
H190 C172 0.931 . S
H191 C173 0.929 . S
H192 C174 0.930 . S
H193 C177 0.930 . S
H194 C178 0.931 . S
H195 C182 0.928 . S
H196 C181 0.929 . S
H197 C179 0.932 . S
C198 C199 1.386 . S
C198 C200 1.397 1_554 S
C198 H222 0.931 . S
C199 C198 1.386 . S
C199 C203 1.397 1_455 S
C200 C198 1.397 1_556 S
C200 C201 1.384 . S
C200 H223 0.930 . S
C201 C200 1.384 . S
C201 C202 1.377 1_455 S
C201 C204 1.481 . S
C202 C201 1.377 1_655 S
C202 C203 1.389 1_556 S
C202 H224 0.929 . S
C203 C199 1.397 1_655 S
C203 C202 1.389 1_554 S
C203 H225 0.931 . S
C204 C201 1.481 . S
C204 C205 1.387 . S
C204 C209 1.390 1_455 S
C205 C204 1.387 . S
C205 C206 1.401 . S
C205 H226 0.930 . S
C206 C205 1.401 . S
C206 C207 1.376 . S
C206 C215 1.511 . S
C207 C206 1.376 . S
C207 C208 1.392 1_455 S
C207 H228 0.931 . S
C208 C207 1.392 1_655 S
C208 C209 1.361 . S
C208 C210 1.500 . S
C209 C204 1.390 1_655 S
C209 C208 1.361 . S
C209 H227 0.931 . S
C210 C208 1.500 . S
C210 C211 1.371 . S
C210 C212 1.365 . S
C211 C210 1.371 . S
C211 C221 1.386 . S
C211 H229 0.931 . S
C212 C210 1.365 . S
C212 C213 1.409 . S
C212 H230 0.929 . S
C213 C212 1.409 . S
C213 C214 1.380 . S
C213 H231 0.930 . S
C214 C213 1.380 . S
C214 C221 1.357 . S
C215 C206 1.511 . S
C215 C216 1.341 . S
C215 C217 1.371 . S
C216 C215 1.341 . S
C216 C220 1.394 . S
C216 H232 0.930 . S
C217 C215 1.371 . S
C217 C218 1.392 . S
C217 H233 0.931 . S
C218 C217 1.392 . S
C218 C219 1.331 . S
C218 H236 0.932 . S
C219 C218 1.331 . S
C219 C220 1.336 . S
C220 C216 1.394 . S
C220 C219 1.336 . S
C220 H235 0.929 . S
C221 C211 1.386 . S
C221 C214 1.357 . S
C221 H234 0.928 . S
H222 C198 0.931 . S
H223 C200 0.930 . S
H224 C202 0.929 . S
H225 C203 0.931 . S
H226 C205 0.930 . S
H227 C209 0.931 . S
H228 C207 0.931 . S
H229 C211 0.931 . S
H230 C212 0.929 . S
H231 C213 0.930 . S
H232 C216 0.930 . S
H233 C217 0.931 . S
H234 C221 0.928 . S
H235 C220 0.929 . S
H236 C218 0.932 . S
C237 C238 1.386 . S
C237 C239 1.397 . S
C237 H261 0.931 . S
C238 C237 1.386 . S
C238 C242 1.397 1_655 S
C239 C237 1.397 . S
C239 C240 1.384 . S
C239 H262 0.930 . S
C240 C239 1.384 . S
C240 C241 1.377 1_655 S
C240 C243 1.481 1_655 S
C241 C240 1.377 1_455 S
C241 C242 1.389 . S
C241 H263 0.929 . S
C242 C238 1.397 1_455 S
C242 C241 1.389 . S
C242 H264 0.931 . S
C243 C240 1.481 1_455 S
C243 C244 1.387 1_455 S
C243 C248 1.390 . S
C244 C243 1.387 1_655 S
C244 C245 1.401 . S
C244 H265 0.930 . S
C245 C244 1.401 . S
C245 C246 1.376 1_655 S
C245 C254 1.511 . S
C246 C245 1.376 1_455 S
C246 C247 1.392 . S
C246 H267 0.931 . S
C247 C246 1.392 . S
C247 C248 1.361 . S
C247 C249 1.500 . S
C248 C243 1.390 . S
C248 C247 1.361 . S
C248 H266 0.931 . S
C249 C247 1.500 . S
C249 C250 1.371 . S
C249 C251 1.365 . S
C250 C249 1.371 . S
C250 C260 1.386 . S
C250 H268 0.931 . S
C251 C249 1.365 . S
C251 C252 1.409 . S
C251 H269 0.929 . S
C252 C251 1.409 . S
C252 C253 1.380 . S
C252 H270 0.930 . S
C253 C252 1.380 . S
C253 C260 1.357 . S
C254 C245 1.511 . S
C254 C255 1.341 . S
C254 C256 1.371 . S
C255 C254 1.341 . S
C255 C259 1.394 . S
C255 H271 0.930 . S
C256 C254 1.371 . S
C256 C257 1.392 . S
C256 H272 0.931 . S
C257 C256 1.392 . S
C257 C258 1.331 . S
C257 H275 0.932 . S
C258 C257 1.331 . S
C258 C259 1.336 . S
C259 C255 1.394 . S
C259 C258 1.336 . S
C259 H274 0.929 . S
C260 C250 1.386 . S
C260 C253 1.357 . S
C260 H273 0.928 . S
H261 C237 0.931 . S
H262 C239 0.930 . S
H263 C241 0.929 . S
H264 C242 0.931 . S
H265 C244 0.930 . S
H266 C248 0.931 . S
H267 C246 0.931 . S
H268 C250 0.931 . S
H269 C251 0.929 . S
H270 C252 0.930 . S
H271 C255 0.930 . S
H272 C256 0.931 . S
H273 C260 0.928 . S
H274 C259 0.929 . S
H275 C257 0.932 . S
C276 C277 1.386 1_565 S
C276 C278 1.397 . S
C276 H300 0.931 . S
C277 C276 1.386 1_545 S
C277 C281 1.397 . S
C278 C276 1.397 . S
C278 C279 1.384 1_565 S
C278 H301 0.930 . S
C279 C278 1.384 1_545 S
C279 C280 1.377 . S
C279 C282 1.481 . S
C280 C279 1.377 . S
C280 C281 1.389 . S
C280 H302 0.929 . S
C281 C277 1.397 . S
C281 C280 1.389 . S
C281 H303 0.931 . S
C282 C279 1.481 . S
C282 C283 1.387 1_545 S
C282 C287 1.390 . S
C283 C282 1.387 1_565 S
C283 C284 1.401 . S
C283 H304 0.930 . S
C284 C283 1.401 . S
C284 C285 1.376 1_565 S
C284 C293 1.511 . S
C285 C284 1.376 1_545 S
C285 C286 1.392 . S
C285 H306 0.931 . S
C286 C285 1.392 . S
C286 C287 1.361 . S
C286 C288 1.500 . S
C287 C282 1.390 . S
C287 C286 1.361 . S
C287 H305 0.931 . S
C288 C286 1.500 . S
C288 C289 1.371 . S
C288 C290 1.365 . S
C289 C288 1.371 . S
C289 C299 1.386 . S
C289 H307 0.931 . S
C290 C288 1.365 . S
C290 C291 1.409 . S
C290 H308 0.929 . S
C291 C290 1.409 . S
C291 C292 1.380 . S
C291 H309 0.930 . S
C292 C291 1.380 . S
C292 C299 1.357 . S
C293 C284 1.511 . S
C293 C294 1.341 . S
C293 C295 1.371 . S
C294 C293 1.341 . S
C294 C298 1.394 . S
C294 H310 0.930 . S
C295 C293 1.371 . S
C295 C296 1.392 . S
C295 H311 0.931 . S
C296 C295 1.392 . S
C296 C297 1.331 . S
C296 H314 0.932 . S
C297 C296 1.331 . S
C297 C298 1.336 . S
C298 C294 1.394 . S
C298 C297 1.336 . S
C298 H313 0.929 . S
C299 C289 1.386 . S
C299 C292 1.357 . S
C299 H312 0.928 . S
H300 C276 0.931 . S
H301 C278 0.930 . S
H302 C280 0.929 . S
H303 C281 0.931 . S
H304 C283 0.930 . S
H305 C287 0.931 . S
H306 C285 0.931 . S
H307 C289 0.931 . S
H308 C290 0.929 . S
H309 C291 0.930 . S
H310 C294 0.930 . S
H311 C295 0.931 . S
H312 C299 0.928 . S
H313 C298 0.929 . S
H314 C296 0.932 . S
C315 C316 1.386 1_554 S
C315 C317 1.397 . S
C315 H339 0.931 . S
C316 C315 1.386 1_556 S
C316 C320 1.397 1_556 S
C317 C315 1.397 . S
C317 C318 1.384 . S
C317 H340 0.930 . S
C318 C317 1.384 . S
C318 C319 1.377 . S
C318 C321 1.481 . S
C319 C318 1.377 . S
C319 C320 1.389 . S
C319 H341 0.929 . S
C320 C316 1.397 1_554 S
C320 C319 1.389 . S
C320 H342 0.931 . S
C321 C318 1.481 . S
C321 C322 1.387 . S
C321 C326 1.390 . S
C322 C321 1.387 . S
C322 C323 1.401 . S
C322 H343 0.930 . S
C323 C322 1.401 . S
C323 C324 1.376 . S
C323 C332 1.511 . S
C324 C323 1.376 . S
C324 C325 1.392 . S
C324 H345 0.931 . S
C325 C324 1.392 . S
C325 C326 1.361 . S
C325 C327 1.500 . S
C326 C321 1.390 . S
C326 C325 1.361 . S
C326 H344 0.931 . S
C327 C325 1.500 . S
C327 C328 1.371 . S
C327 C329 1.365 . S
C328 C327 1.371 . S
C328 C338 1.386 . S
C328 H346 0.931 . S
C329 C327 1.365 . S
C329 C330 1.409 . S
C329 H347 0.929 . S
C330 C329 1.409 . S
C330 C331 1.380 . S
C330 H348 0.930 . S
C331 C330 1.380 . S
C331 C338 1.357 . S
C332 C323 1.511 . S
C332 C333 1.341 . S
C332 C334 1.371 . S
C333 C332 1.341 . S
C333 C337 1.394 . S
C333 H349 0.930 . S
C334 C332 1.371 . S
C334 C335 1.392 . S
C334 H350 0.931 . S
C335 C334 1.392 . S
C335 C336 1.331 . S
C335 H353 0.932 . S
C336 C335 1.331 . S
C336 C337 1.336 . S
C337 C333 1.394 . S
C337 C336 1.336 . S
C337 H352 0.929 . S
C338 C328 1.386 . S
C338 C331 1.357 . S
C338 H351 0.928 . S
H339 C315 0.931 . S
H340 C317 0.930 . S
H341 C319 0.929 . S
H342 C320 0.931 . S
H343 C322 0.930 . S
H344 C326 0.931 . S
H345 C324 0.931 . S
H346 C328 0.931 . S
H347 C329 0.929 . S
H348 C330 0.930 . S
H349 C333 0.930 . S
H350 C334 0.931 . S
H351 C338 0.928 . S
H352 C337 0.929 . S
H353 C335 0.932 . S
C354 C355 1.369 . S
C354 C356 1.419 . S
C354 H358 0.930 . S
C355 C354 1.369 . S
C355 C364 1.429 . S
C356 C354 1.419 . S
C356 C357 1.363 . S
C356 H359 0.929 . S
C357 C356 1.363 . S
C357 C363 1.428 . S
H358 C354 0.930 . S
H359 C356 0.929 . S
S360 N361 1.613 . S
S360 N362 1.610 . S
N361 S360 1.613 . S
N361 C364 1.350 . S
N362 S360 1.610 . S
N362 C363 1.351 . S
C363 C357 1.428 . S
C363 N362 1.351 . S
C363 C364 1.434 . S
C364 C355 1.429 . S
C364 N361 1.350 . S
C364 C363 1.434 . S
C365 C366 1.369 . S
C365 C367 1.419 . S
C365 H369 0.930 . S
C366 C365 1.369 . S
C366 C375 1.429 . S
C367 C365 1.419 . S
C367 C368 1.363 . S
C367 H370 0.929 . S
C368 C367 1.363 . S
C368 C374 1.428 . S
H369 C365 0.930 . S
H370 C367 0.929 . S
S371 N372 1.613 . S
S371 N373 1.610 . S
N372 S371 1.613 . S
N372 C375 1.350 . S
N373 S371 1.610 . S
N373 C374 1.351 . S
C374 C368 1.428 . S
C374 N373 1.351 . S
C374 C375 1.434 . S
C375 C366 1.429 . S
C375 N372 1.350 . S
C375 C374 1.434 . S
C376 C377 1.369 . S
C376 C378 1.419 . S
C376 H380 0.930 . S
C377 C376 1.369 . S
C377 C386 1.429 . S
C378 C376 1.419 . S
C378 C379 1.363 . S
C378 H381 0.929 . S
C379 C378 1.363 . S
C379 C385 1.428 . S
H380 C376 0.930 . S
H381 C378 0.929 . S
S382 N383 1.613 . S
S382 N384 1.610 . S
N383 S382 1.613 . S
N383 C386 1.350 . S
N384 S382 1.610 . S
N384 C385 1.351 . S
C385 C379 1.428 . S
C385 N384 1.351 . S
C385 C386 1.434 . S
C386 C377 1.429 . S
C386 N383 1.350 . S
C386 C385 1.434 . S
C387 C388 1.369 . S
C387 C389 1.419 . S
C387 H391 0.930 . S
C388 C387 1.369 . S
C388 C397 1.429 . S
C389 C387 1.419 . S
C389 C390 1.363 . S
C389 H392 0.929 . S
C390 C389 1.363 . S
C390 C396 1.428 . S
H391 C387 0.930 . S
H392 C389 0.929 . S
S393 N394 1.613 . S
S393 N395 1.610 . S
N394 S393 1.613 . S
N394 C397 1.350 . S
N395 S393 1.610 . S
N395 C396 1.351 . S
C396 C390 1.428 . S
C396 N395 1.351 . S
C396 C397 1.434 . S
C397 C388 1.429 . S
C397 N394 1.350 . S
C397 C396 1.434 . S
C398 C399 1.369 . S
C398 C400 1.419 . S
C398 H402 0.930 . S
C399 C398 1.369 . S
C399 C408 1.429 . S
C400 C398 1.419 . S
C400 C401 1.363 . S
C400 H403 0.929 . S
C401 C400 1.363 . S
C401 C407 1.428 . S
H402 C398 0.930 . S
H403 C400 0.929 . S
S404 N405 1.613 . S
S404 N406 1.610 . S
N405 S404 1.613 . S
N405 C408 1.350 . S
N406 S404 1.610 . S
N406 C407 1.351 . S
C407 C401 1.428 . S
C407 N406 1.351 . S
C407 C408 1.434 . S
C408 C399 1.429 . S
C408 N405 1.350 . S
C408 C407 1.434 . S
C409 C410 1.369 . S
C409 C411 1.419 . S
C409 H413 0.930 . S
C410 C409 1.369 . S
C410 C419 1.429 . S
C411 C409 1.419 . S
C411 C412 1.363 . S
C411 H414 0.929 . S
C412 C411 1.363 . S
C412 C418 1.428 . S
H413 C409 0.930 . S
H414 C411 0.929 . S
S415 N416 1.613 . S
S415 N417 1.610 . S
N416 S415 1.613 . S
N416 C419 1.350 . S
N417 S415 1.610 . S
N417 C418 1.351 . S
C418 C412 1.428 . S
C418 N417 1.351 . S
C418 C419 1.434 . S
C419 C410 1.429 . S
C419 N416 1.350 . S
C419 C418 1.434 . S
C420 C421 1.369 . S
C420 C422 1.419 . S
C420 H424 0.930 . S
C421 C420 1.369 . S
C421 C430 1.429 . S
C422 C420 1.419 . S
C422 C423 1.363 . S
C422 H425 0.929 . S
C423 C422 1.363 . S
C423 C429 1.428 . S
H424 C420 0.930 . S
H425 C422 0.929 . S
S426 N427 1.613 . S
S426 N428 1.610 . S
N427 S426 1.613 . S
N427 C430 1.350 . S
N428 S426 1.610 . S
N428 C429 1.351 . S
C429 C423 1.428 . S
C429 N428 1.351 . S
C429 C430 1.434 . S
C430 C421 1.429 . S
C430 N427 1.350 . S
C430 C429 1.434 . S
C431 C432 1.369 . S
C431 C433 1.419 . S
C431 H435 0.930 . S
C432 C431 1.369 . S
C432 C441 1.429 . S
C433 C431 1.419 . S
C433 C434 1.363 . S
C433 H436 0.929 . S
C434 C433 1.363 . S
C434 C440 1.428 . S
H435 C431 0.930 . S
H436 C433 0.929 . S
S437 N438 1.613 . S
S437 N439 1.610 . S
N438 S437 1.613 . S
N438 C441 1.350 . S
N439 S437 1.610 . S
N439 C440 1.351 . S
C440 C434 1.428 . S
C440 N439 1.351 . S
C440 C441 1.434 . S
C441 C432 1.429 . S
C441 N438 1.350 . S
C441 C440 1.434 . S
C442 C443 1.369 . S
C442 C444 1.419 . S
C442 H446 0.930 . S
C443 C442 1.369 . S
C443 C452 1.429 . S
C444 C442 1.419 . S
C444 C445 1.363 . S
C444 H447 0.929 . S
C445 C444 1.363 . S
C445 C451 1.428 . S
H446 C442 0.930 . S
H447 C444 0.929 . S
S448 N449 1.613 . S
S448 N450 1.610 . S
N449 S448 1.613 . S
N449 C452 1.350 . S
N450 S448 1.610 . S
N450 C451 1.351 . S
C451 C445 1.428 . S
C451 N450 1.351 . S
C451 C452 1.434 . S
C452 C443 1.429 . S
C452 N449 1.350 . S
C452 C451 1.434 . S
C453 C454 1.369 . S
C453 C455 1.419 . S
C453 H457 0.930 . S
C454 C453 1.369 . S
C454 C463 1.429 . S
C455 C453 1.419 . S
C455 C456 1.363 . S
C455 H458 0.929 . S
C456 C455 1.363 . S
C456 C462 1.428 . S
H457 C453 0.930 . S
H458 C455 0.929 . S
S459 N460 1.613 . S
S459 N461 1.610 . S
N460 S459 1.613 . S
N460 C463 1.350 . S
N461 S459 1.610 . S
N461 C462 1.351 . S
C462 C456 1.428 . S
C462 N461 1.351 . S
C462 C463 1.434 . S
C463 C454 1.429 . S
C463 N460 1.350 . S
C463 C462 1.434 . S
C464 C465 1.369 . S
C464 C466 1.419 . S
C464 H468 0.930 . S
C465 C464 1.369 . S
C465 C474 1.429 . S
C466 C464 1.419 . S
C466 C467 1.363 . S
C466 H469 0.929 . S
C467 C466 1.363 . S
C467 C473 1.428 . S
H468 C464 0.930 . S
H469 C466 0.929 . S
S470 N471 1.613 . S
S470 N472 1.610 . S
N471 S470 1.613 . S
N471 C474 1.350 . S
N472 S470 1.610 . S
N472 C473 1.351 . S
C473 C467 1.428 . S
C473 N472 1.351 . S
C473 C474 1.434 . S
C474 C465 1.429 . S
C474 N471 1.350 . S
C474 C473 1.434 . S
C475 C476 1.369 . S
C475 C477 1.419 . S
C475 H479 0.930 . S
C476 C475 1.369 . S
C476 C485 1.429 . S
C477 C475 1.419 . S
C477 C478 1.363 . S
C477 H480 0.929 . S
C478 C477 1.363 . S
C478 C484 1.428 . S
H479 C475 0.930 . S
H480 C477 0.929 . S
S481 N482 1.613 . S
S481 N483 1.610 . S
N482 S481 1.613 . S
N482 C485 1.350 . S
N483 S481 1.610 . S
N483 C484 1.351 . S
C484 C478 1.428 . S
C484 N483 1.351 . S
C484 C485 1.434 . S
C485 C476 1.429 . S
C485 N482 1.350 . S
C485 C484 1.434 . S
C486 C487 1.369 . S
C486 C488 1.419 . S
C486 H490 0.930 . S
C487 C486 1.369 . S
C487 C496 1.429 . S
C488 C486 1.419 . S
C488 C489 1.363 . S
C488 H491 0.929 . S
C489 C488 1.363 . S
C489 C495 1.428 . S
H490 C486 0.930 . S
H491 C488 0.929 . S
S492 N493 1.613 . S
S492 N494 1.610 . S
N493 S492 1.613 . S
N493 C496 1.350 . S
N494 S492 1.610 . S
N494 C495 1.351 . S
C495 C489 1.428 . S
C495 N494 1.351 . S
C495 C496 1.434 . S
C496 C487 1.429 . S
C496 N493 1.350 . S
C496 C495 1.434 . S
C497 C498 1.369 . S
C497 C499 1.419 . S
C497 H501 0.930 . S
C498 C497 1.369 . S
C498 C507 1.419 1_545 S
C499 C497 1.419 . S
C499 C500 1.363 . S
C499 H502 0.929 . S
C500 C499 1.363 . S
C500 C506 1.428 . S
H501 C497 0.930 . S
H502 C499 0.929 . S
S503 N504 1.613 . S
S503 N505 1.610 . S
N504 S503 1.613 . S
N504 C507 1.364 . S
N505 S503 1.610 . S
N505 C506 1.351 1_565 S
C506 C500 1.428 . S
C506 N505 1.351 1_545 S
C506 C507 1.431 1_545 S
C507 C498 1.419 1_565 S
C507 N504 1.364 . S
C507 C506 1.431 1_565 S
C508 C509 1.369 . S
C508 C510 1.419 . S
C508 H512 0.930 . S
C509 C508 1.369 . S
C509 C518 1.429 . S
C510 C508 1.419 . S
C510 C511 1.363 . S
C510 H513 0.929 . S
C511 C510 1.363 . S
C511 C517 1.428 . S
H512 C508 0.930 . S
H513 C510 0.929 . S
S514 N515 1.613 . S
S514 N516 1.610 . S
N515 S514 1.613 . S
N515 C518 1.350 . S
N516 S514 1.610 . S
N516 C517 1.351 . S
C517 C511 1.428 . S
C517 N516 1.351 . S
C517 C518 1.434 . S
C518 C509 1.429 . S
C518 N515 1.350 . S
C518 C517 1.434 . S
C519 C520 1.369 . S
C519 C521 1.419 . S
C519 H523 0.930 . S
C520 C519 1.369 . S
C520 C529 1.429 1_545 S
C521 C519 1.419 . S
C521 C522 1.363 . S
C521 H524 0.929 . S
C522 C521 1.363 . S
C522 C528 1.428 1_545 S
H523 C519 0.930 . S
H524 C521 0.929 . S
S525 N526 1.613 . S
S525 N527 1.610 . S
N526 S525 1.613 . S
N526 C529 1.350 . S
N527 S525 1.610 . S
N527 C528 1.351 . S
C528 C522 1.428 1_565 S
C528 N527 1.351 . S
C528 C529 1.434 . S
C529 C520 1.429 1_565 S
C529 N526 1.350 . S
C529 C528 1.434 . S
C530 C531 1.369 . S
C530 C532 1.419 . S
C530 H534 0.930 . S
C531 C530 1.369 . S
C531 C540 1.429 . S
C532 C530 1.419 . S
C532 C533 1.363 . S
C532 H535 0.929 . S
C533 C532 1.363 . S
C533 C539 1.428 . S
H534 C530 0.930 . S
H535 C532 0.929 . S
S536 N537 1.613 . S
S536 N538 1.610 . S
N537 S536 1.613 . S
N537 C540 1.350 . S
N538 S536 1.610 . S
N538 C539 1.351 . S
C539 C533 1.428 . S
C539 N538 1.351 . S
C539 C540 1.434 . S
C540 C531 1.429 . S
C540 N537 1.350 . S
C540 C539 1.434 . S
C541 C542 1.369 1_455 S
C541 C543 1.419 . S
C541 H545 0.930 . S
C542 C541 1.369 1_655 S
C542 C551 1.429 . S
C543 C541 1.419 . S
C543 C544 1.363 1_455 S
C543 H546 0.929 . S
C544 C543 1.363 1_655 S
C544 C550 1.428 . S
H545 C541 0.930 . S
H546 C543 0.929 . S
S547 N548 1.613 . S
S547 N549 1.610 . S
N548 S547 1.613 . S
N548 C551 1.350 . S
N549 S547 1.610 . S
N549 C550 1.351 . S
C550 C544 1.428 . S
C550 N549 1.351 . S
C550 C551 1.434 . S
C551 C542 1.429 . S
C551 N548 1.350 . S
C551 C550 1.434 . S
C355 C24 3.059 . S
C357 C331 3.005 . S
C366 C66 1.249 . S
C368 C258 1.312 . S
C377 C93 1.995 . S
C379 C297 1.909 . S
C388 C13 3.189 . S
C390 C336 3.105 . S
C401 C253 1.357 . S
C399 C57 1.345 . S
C412 C292 2.012 . S
C410 C104 2.085 . S
C421 C64 2.069 . S
C423 C180 1.993 . S
C432 C97 0.875 . S
C434 C214 0.883 . S
C443 C17 1.391 . S
C445 C136 1.440 . S
C456 C175 1.907 . S
C454 C53 1.995 . S
C467 C219 0.468 . S
C465 C106 0.597 . S
C476 C26 1.264 . S
C478 C141 1.339 . S
C489 C199 1.060 . S
C487 C2 1.065 . S
C498 C63 1.453 . S
C500 C121 1.494 . S
C509 C82 1.367 . S
C511 C160 1.378 . S
C522 C277 1.400 . S
C520 C42 1.386 . S
C533 C316 1.807 . S
C531 C103 1.764 . S
C542 C23 1.483 1_655 S
C544 C238 1.509 . S
