# Generated by pormake.
# Topology tsx, (6,3)-cn, num edge types: 1
# Building blocks:
#     Node 0, Type 0, BuildingBlock: JUFBIX_clean_sbu_0, # of connection points: 6
#     Node 1, Type 0, BuildingBlock: JUFBIX_clean_sbu_0, # of connection points: 6
#     Node 2, Type 1, BuildingBlock: QEWDON_clean_linker_0, # of connection points: 3
#     Node 3, Type 1, BuildingBlock: QEWDON_clean_linker_0, # of connection points: 3
#     Node 4, Type 1, BuildingBlock: QEWDON_clean_linker_0, # of connection points: 3
#     Node 5, Type 1, BuildingBlock: QEWDON_clean_linker_0, # of connection points: 3
#     Edge 6, Type (0, 1), BuildingBlock: MIFKUJ_clean_linker_0, # of connection points: 2
#     Edge 7, Type (0, 1), BuildingBlock: MIFKUJ_clean_linker_0, # of connection points: 2
#     Edge 8, Type (0, 1), BuildingBlock: MIFKUJ_clean_linker_0, # of connection points: 2
#     Edge 9, Type (0, 1), BuildingBlock: MIFKUJ_clean_linker_0, # of connection points: 2
#     Edge 10, Type (0, 1), BuildingBlock: MIFKUJ_clean_linker_0, # of connection points: 2
#     Edge 11, Type (0, 1), BuildingBlock: MIFKUJ_clean_linker_0, # of connection points: 2
#     Edge 12, Type (0, 1), BuildingBlock: MIFKUJ_clean_linker_0, # of connection points: 2
#     Edge 13, Type (0, 1), BuildingBlock: MIFKUJ_clean_linker_0, # of connection points: 2
#     Edge 14, Type (0, 1), BuildingBlock: MIFKUJ_clean_linker_0, # of connection points: 2
#     Edge 15, Type (0, 1), BuildingBlock: MIFKUJ_clean_linker_0, # of connection points: 2
#     Edge 16, Type (0, 1), BuildingBlock: MIFKUJ_clean_linker_0, # of connection points: 2
#     Edge 17, Type (0, 1), BuildingBlock: MIFKUJ_clean_linker_0, # of connection points: 2
# Relax obj value: 0.110
# Max RMSD: 0.172
# Mean RMSD: 0.148
data_MOF--net-tsx--node1-JUFBIX_clean_sbu_0--node2-QEWDON_clean_linker_0--edge1-MIFKUJ_clean_linker_0
_symmetry_space_group_name_H-M    P1
_symmetry_Int_Tables_number       1
_symmetry_cell_setting            triclinic
loop_
_symmetry_equiv_pos_as_xyz
'x, y, z'
_cell_length_a     27.575434
_cell_length_b     32.443731
_cell_length_c     41.638561
_cell_angle_alpha  91.688015
_cell_angle_beta   104.86486
_cell_angle_gamma 97.326604
loop_
_atom_site_label
_atom_site_type_symbol
_atom_site_fract_x
_atom_site_fract_y
_atom_site_fract_z
_atom_type_partial_charge
Co0 Co 0.05886 0.97639 0.01164 0.0
C1 C 0.01101 0.00205 0.94904 0.0
Co2 Co 0.99177 0.00781 0.01013 0.0
C3 C 0.13412 0.91812 0.02258 0.0
C4 C 0.15189 0.97084 0.99583 0.0
N5 N 0.11687 0.95337 0.01061 0.0
N6 N 0.17882 0.91339 0.01603 0.0
C7 C 0.18978 0.94655 0.99913 0.0
H8 H 0.11439 0.89652 0.03585 0.0
H9 H 0.14969 -0.00068 0.98299 0.0
C10 C 0.03919 0.98244 0.07274 0.0
N11 N 0.93433 0.0317 0.01088 0.0
C12 C 0.92565 0.07122 0.00513 0.0
C13 C 0.89379 0.0139 0.02042 0.0
N14 N 0.88159 0.07895 0.01104 0.0
C15 C 0.86133 0.0427 0.02042 0.0
C16 C 0.97101 0.92134 0.99802 0.0
O17 O 0.0709 0.97035 0.05832 0.0
O18 O 0.00225 -0.00091 0.05595 0.0
O19 O 0.95245 0.95501 0.9994 0.0
O20 O 0.01872 0.92275 0.00302 0.0
O21 O 0.98163 0.01648 0.9642 0.0
H22 H 0.8888 0.98233 0.02791 0.0
H23 H 0.95224 0.09434 0.99808 0.0
O24 O 0.04599 0.98277 0.96509 0.0
O25 O 0.09821 0.03037 0.02009 0.0
O26 O 0.03169 0.06028 0.02071 0.0
C27 C 0.07872 0.06322 0.02306 0.0
H28 H 0.22224 0.95232 0.98897 0.0
H29 H 0.82589 0.03731 0.02729 0.0
Co30 Co 0.55256 0.48202 0.50019 0.0
C31 C 0.49486 0.49846 0.43711 0.0
Co32 Co 0.48647 0.51403 0.50034 0.0
C33 C 0.62915 0.4257 0.51205 0.0
C34 C 0.64061 0.47309 0.47897 0.0
N35 N 0.60953 0.45883 0.49767 0.0
N36 N 0.67148 0.41899 0.50309 0.0
C37 C 0.67849 0.4488 0.48221 0.0
H38 H 0.61269 0.40699 0.52871 0.0
H39 H 0.63561 0.49925 0.46351 0.0
C40 C 0.54405 0.49844 0.56341 0.0
N41 N 0.4298 0.53802 0.50289 0.0
C42 C 0.4185 0.57631 0.49472 0.0
C43 C 0.39263 0.52156 0.51635 0.0
N44 N 0.37588 0.58421 0.50255 0.0
C45 C 0.35933 0.54973 0.51597 0.0
C46 C 0.46815 0.42672 0.49709 0.0
O47 O 0.57076 0.48116 0.54762 0.0
O48 O 0.50635 0.51476 0.54734 0.0
O49 O 0.44949 0.46036 0.49839 0.0
O50 O 0.51433 0.42831 0.49688 0.0
O51 O 0.46687 0.51349 0.45309 0.0
H52 H 0.3908 0.49165 0.52706 0.0
H53 H 0.44154 0.59833 0.48382 0.0
O54 O 0.53358 0.48322 0.45303 0.0
O55 O 0.59049 0.53591 0.50338 0.0
O56 O 0.52435 0.56719 0.50231 0.0
C57 C 0.57094 0.56927 0.50331 0.0
H58 H 0.70806 0.45219 0.46931 0.0
H59 H 0.32687 0.54593 0.52627 0.0
H60 H 0.06533 0.02999 0.43097 0.0
C61 C 0.08533 0.00629 0.44416 0.0
C62 C 0.10329 0.97674 0.42645 0.0
C63 C 0.09565 0.0069 0.47907 0.0
H64 H 0.14264 0.92295 0.43071 0.0
C65 C 0.12986 0.94683 0.44403 0.0
C66 C 0.14007 0.94708 0.47873 0.0
C67 C 0.12362 0.97745 0.49638 0.0
C68 C 0.07852 0.03936 0.49717 0.0
H69 H 0.13166 0.97758 0.52327 0.0
C70 C 0.01876 0.05122 0.48213 0.0
C71 C 0.00421 0.115 0.51753 0.0
C72 C 0.11974 0.06653 0.53076 0.0
H73 H 0.15706 0.05714 0.53825 0.0
C74 C 0.11061 0.10772 0.55381 0.0
H75 H 0.99456 0.03246 0.46021 0.0
C76 C 0.05802 0.13132 0.54862 0.0
H77 H 0.0587 0.15762 0.5654 0.0
H78 H 0.14254 0.12063 0.57412 0.0
H79 H 0.98244 0.05614 0.5877 0.0
C80 C 0.95509 0.0292 0.57664 0.0
C81 C 0.92878 0.00597 0.59638 0.0
C82 C 0.94459 0.01898 0.5423 0.0
H83 H 0.87375 0.95225 0.5964 0.0
C84 C 0.89277 0.9717 0.58132 0.0
C85 C 0.88254 0.961 0.54714 0.0
C86 C 0.9083 0.98495 0.52762 0.0
C87 C 0.97066 0.04478 0.52177 0.0
H88 H 0.90045 0.97684 0.50116 0.0
C89 C 0.03439 0.05918 0.53567 0.0
C90 C 0.06666 0.11066 0.49543 0.0
C91 C 0.93631 0.0625 0.48629 0.0
H92 H 0.89596 0.05205 0.47966 0.0
C93 C 0.95689 0.09574 0.46012 0.0
H94 H 0.05372 0.04672 0.55894 0.0
C95 C 0.01667 0.11893 0.46332 0.0
H96 H 0.02324 0.13976 0.44459 0.0
H97 H 0.9281 0.10321 0.43894 0.0
H98 H 0.56406 0.52765 0.92492 0.0
C99 C 0.58824 0.50549 0.93654 0.0
C100 C 0.61024 0.48161 0.91686 0.0
C101 C 0.59829 0.50158 0.97117 0.0
H102 H 0.65999 0.4355 0.9174 0.0
C103 C 0.6427 0.45392 0.93233 0.0
C104 C 0.65314 0.44944 0.96674 0.0
C105 C 0.63062 0.47332 0.98607 0.0
C106 C 0.57824 0.52955 0.99183 0.0
H107 H 0.63858 0.47009 0.01267 0.0
C108 C 0.51996 0.54413 0.97592 0.0
C109 C 0.50378 0.60339 0.01501 0.0
C110 C 0.61696 0.55171 0.02853 0.0
H111 H 0.65368 0.54135 0.03646 0.0
C112 C 0.60674 0.58999 0.05394 0.0
H113 H 0.49735 0.52884 0.95201 0.0
C114 C 0.55521 0.61495 0.04871 0.0
H115 H 0.5551 0.63912 0.06714 0.0
H116 H 0.63718 0.59987 0.07599 0.0
H117 H 0.47642 0.53899 0.07798 0.0
C118 C 0.44538 0.51554 0.06501 0.0
C119 C 0.41358 0.4952 0.08277 0.0
C120 C 0.43543 0.50766 0.03036 0.0
H121 H 0.34932 0.44867 0.0796 0.0
C122 C 0.37255 0.46592 0.0657 0.0
C123 C 0.36268 0.45707 0.03125 0.0
C124 C 0.39407 0.47833 0.01356 0.0
C125 C 0.46614 0.53282 0.01189 0.0
H126 H 0.38653 0.47185 0.98692 0.0
C127 C 0.5297 0.54462 0.02908 0.0
C128 C 0.56958 0.60135 0.99586 0.0
C129 C 0.43653 0.55576 0.97755 0.0
H130 H 0.39592 0.54712 0.96883 0.0
C131 C 0.46205 0.59246 0.95586 0.0
H132 H 0.54579 0.52909 0.05158 0.0
C133 C 0.52323 0.61463 0.9634 0.0
H134 H 0.53308 0.63812 0.94737 0.0
H135 H 0.43581 0.60328 0.93486 0.0
H136 H 0.05336 0.13831 0.0391 0.0
H137 H 0.0979 0.2073 0.0351 0.0
H138 H 0.21483 0.1507 0.00593 0.0
H139 H 0.17147 0.08169 0.01103 0.0
H140 H 0.25506 0.21688 0.04637 0.0
H141 H 0.11552 0.18502 0.94888 0.0
H142 H 0.02544 0.16335 0.92015 0.0
H143 H 0.98625 0.27261 0.9624 0.0
H144 H 0.07594 0.29421 0.99256 0.0
H145 H 0.36983 0.39143 0.99127 0.0
H146 H 0.31276 0.32541 0.9796 0.0
H147 H 0.20859 0.37849 0.02478 0.0
H148 H 0.26517 0.44474 0.03608 0.0
H149 H 0.16057 0.31406 0.97281 0.0
H150 H 0.29736 0.34135 0.07402 0.0
H151 H 0.38698 0.36338 0.10371 0.0
H152 H 0.43012 0.26179 0.05393 0.0
H153 H 0.34081 0.23998 0.02306 0.0
C154 C 0.08899 0.1406 0.03234 0.0
C155 C 0.10883 0.10463 0.02519 0.0
C156 C 0.11417 0.18001 0.02981 0.0
C157 C 0.15899 0.18407 0.01937 0.0
C158 C 0.1801 0.14825 0.01379 0.0
C159 C 0.15533 0.10884 0.01678 0.0
C160 C 0.18332 0.22553 0.01345 0.0
C161 C 0.23452 0.23777 0.02987 0.0
C162 C 0.15623 0.25313 0.99231 0.0
C163 C 0.10251 0.24109 0.97321 0.0
C164 C 0.0877 0.20434 0.95225 0.0
C165 C 0.03669 0.19201 0.93579 0.0
C166 C 0.00018 0.21659 0.9395 0.0
C167 C 0.01462 0.25357 0.95968 0.0
C168 C 0.06553 0.26584 0.97652 0.0
C169 C 0.3337 0.38959 0.99731 0.0
C170 C 0.32223 0.42279 0.01512 0.0
C171 C 0.30121 0.35186 0.99072 0.0
C172 C 0.25706 0.34699 0.00195 0.0
C173 C 0.24257 0.38165 0.01603 0.0
C174 C 0.27507 0.41932 0.02268 0.0
C175 C 0.23219 0.30485 0.00545 0.0
C176 C 0.18099 0.29274 0.98889 0.0
C177 C 0.2591 0.27721 0.02647 0.0
C178 C 0.31251 0.28929 0.04599 0.0
C179 C 0.32599 0.32385 0.06926 0.0
C180 C 0.37672 0.33631 0.0863 0.0
C181 C 0.41421 0.31396 0.08076 0.0
C182 C 0.40103 0.27908 0.05818 0.0
C183 C 0.35038 0.26671 0.04085 0.0
H184 H 0.45348 0.32364 0.09398 0.0
H185 H 0.96071 0.20701 0.92671 0.0
H186 H 0.28018 0.91796 0.02691 0.0
H187 H 0.32892 0.85994 0.03006 0.0
H188 H 0.19449 0.77368 0.02558 0.0
H189 H 0.14475 0.83203 0.02164 0.0
H190 H 0.29385 0.75697 0.07284 0.0
H191 H 0.21749 0.78064 0.95791 0.0
H192 H 0.19548 0.82503 0.91072 0.0
H193 H 0.35338 0.86561 0.92074 0.0
H194 H 0.3763 0.82196 0.96837 0.0
H195 H 0.41323 0.58795 0.03391 0.0
H196 H 0.35201 0.63513 0.03482 0.0
H197 H 0.44815 0.73315 0.00392 0.0
H198 H 0.50716 0.68449 0.99986 0.0
H199 H 0.35819 0.73884 0.97311 0.0
H200 H 0.4368 0.72094 0.08883 0.0
H201 H 0.46275 0.67921 0.13732 0.0
H202 H 0.30705 0.63119 0.12835 0.0
H203 H 0.28022 0.6723 0.07956 0.0
C204 C 0.26088 0.88672 0.02676 0.0
C205 C 0.20835 0.87955 0.02331 0.0
C206 C 0.28891 0.85363 0.02883 0.0
C207 C 0.26517 0.81258 0.02765 0.0
C208 C 0.21343 0.80523 0.02653 0.0
C209 C 0.18512 0.83855 0.02431 0.0
C210 C 0.2939 0.77781 0.02428 0.0
C211 C 0.30732 0.75238 0.05088 0.0
C212 C 0.31226 0.77261 0.9959 0.0
C213 C 0.29857 0.79827 0.96686 0.0
C214 C 0.2475 0.79925 0.9502 0.0
C215 C 0.23486 0.82425 0.92335 0.0
C216 C 0.273 0.84818 0.91278 0.0
C217 C 0.32387 0.84707 0.92897 0.0
C218 C 0.33671 0.82217 0.95587 0.0
C219 C 0.4206 0.61895 0.02607 0.0
C220 C 0.4638 0.6316 0.0148 0.0
C221 C 0.38592 0.64641 0.0274 0.0
C222 C 0.39535 0.68805 0.01971 0.0
C223 C 0.43943 0.70112 0.0096 0.0
C224 C 0.47323 0.67326 0.00725 0.0
C225 C 0.35963 0.71817 0.02206 0.0
C226 C 0.34467 0.74289 0.99512 0.0
C227 C 0.34058 0.723 0.05038 0.0
C228 C 0.35655 0.69941 0.08039 0.0
C229 C 0.40812 0.7014 0.09717 0.0
C230 C 0.42298 0.67785 0.12468 0.0
C231 C 0.38658 0.65246 0.13585 0.0
C232 C 0.33521 0.65082 0.11965 0.0
C233 C 0.32014 0.67429 0.0921 0.0
H234 H 0.39817 0.63412 0.15707 0.0
H235 H 0.26314 0.86753 0.892 0.0
H236 H 0.86882 0.91071 0.98754 0.0
H237 H 0.81286 0.84626 0.98665 0.0
H238 H 0.93809 0.77643 0.99574 0.0
H239 H 0.99552 0.84158 0.99728 0.0
H240 H 0.8269 0.74436 0.94567 0.0
H241 H 0.92193 0.78388 0.05931 0.0
H242 H 0.96034 0.83678 0.10552 0.0
H243 H 0.81311 0.86707 0.10505 0.0
H244 H 0.77393 0.81552 0.05782 0.0
H245 H 0.65405 0.58062 0.97687 0.0
H246 H 0.73399 0.62437 0.98153 0.0
H247 H 0.67557 0.72802 0.01863 0.0
H248 H 0.59773 0.68255 0.01803 0.0
H249 H 0.76902 0.73355 0.04905 0.0
H250 H 0.67825 0.71049 0.92995 0.0
H251 H 0.6338 0.66126 0.88194 0.0
H252 H 0.76693 0.60142 0.89342 0.0
H253 H 0.81231 0.65084 0.94088 0.0
C254 C 0.8847 0.88175 0.98894 0.0
C255 C 0.93686 0.88134 0.99293 0.0
C256 C 0.85248 0.84492 0.98827 0.0
C257 C 0.87153 0.80687 0.99132 0.0
C258 C 0.9229 0.80571 0.99329 0.0
C259 C 0.95556 0.84286 0.99429 0.0
C260 C 0.83789 0.76958 0.99582 0.0
C261 C 0.81505 0.7412 0.9685 0.0
C262 C 0.82188 0.76629 0.02541 0.0
C263 C 0.84503 0.796 0.05482 0.0
C264 C 0.89775 0.80203 0.06887 0.0
C265 C 0.91968 0.83178 0.09528 0.0
C266 C 0.88921 0.85519 0.10832 0.0
C267 C 0.83669 0.84889 0.09495 0.0
C268 C 0.8146 0.81945 0.0683 0.0
C269 C 0.65886 0.6121 0.98746 0.0
C270 C 0.62045 0.62737 0.999 0.0
C271 C 0.70439 0.63756 0.98931 0.0
C272 C 0.71087 0.67984 1.0 0.0
C273 C 0.67198 0.69543 0.01067 0.0
C274 C 0.62733 0.66947 0.01018 0.0
C275 C 0.75671 0.70859 0.99856 0.0
C276 C 0.78164 0.73573 0.02645 0.0
C277 C 0.77418 0.71107 0.96936 0.0
C278 C 0.74858 0.68425 0.93884 0.0
C279 C 0.69815 0.68717 0.92184 0.0
C280 C 0.67281 0.65924 0.89475 0.0
C281 C 0.69755 0.62832 0.88451 0.0
C282 C 0.7479 0.62562 0.90107 0.0
C283 C 0.77359 0.65375 0.92791 0.0
H284 H 0.67765 0.60638 0.86384 0.0
H285 H 0.9063 0.87822 0.12877 0.0
H286 H 0.90456 0.14571 0.97678 0.0
H287 H 0.87228 0.21248 0.97612 0.0
H288 H 0.78216 0.16875 0.04219 0.0
H289 H 0.81478 0.10241 0.04359 0.0
H290 H 0.72777 0.20478 0.98889 0.0
H291 H 0.8888 0.23609 0.07032 0.0
H292 H 0.98159 0.24007 0.09053 0.0
H293 H 0.00078 0.32461 0.01592 0.0
H294 H 0.90804 0.32026 0.99463 0.0
H295 H 0.63806 0.39256 0.01182 0.0
H296 H 0.68447 0.33362 0.02771 0.0
H297 H 0.78765 0.37622 0.96948 0.0
H298 H 0.743 0.43608 0.95488 0.0
H299 H 0.83694 0.34105 0.022 0.0
H300 H 0.68195 0.30509 0.9362 0.0
H301 H 0.58997 0.30015 0.911 0.0
H302 H 0.56087 0.22415 0.98854 0.0
H303 H 0.65276 0.22917 0.01449 0.0
C304 C 0.87831 0.15033 0.99147 0.0
C305 C 0.86227 0.11837 0.01017 0.0
C306 C 0.85985 0.18857 0.99103 0.0
C307 C 0.8251 0.19564 0.00931 0.0
C308 C 0.80889 0.16389 0.02786 0.0
C309 C 0.82741 0.12578 0.02842 0.0
C310 C 0.80419 0.23561 0.00836 0.0
C311 C 0.75158 0.23452 0.99669 0.0
C312 C 0.83549 0.27446 0.01759 0.0
C313 C 0.89135 0.2775 0.03065 0.0
C314 C 0.91276 0.25522 0.05799 0.0
C315 C 0.96538 0.25753 0.06964 0.0
C316 C 0.99706 0.28241 0.0544 0.0
C317 C 0.97619 0.30522 0.02761 0.0
C318 C 0.92359 0.3028 0.01572 0.0
C319 C 0.67155 0.39004 0.00327 0.0
C320 C 0.68627 0.41847 0.98156 0.0
C321 C 0.69778 0.35614 0.01209 0.0
C322 C 0.73872 0.34989 0.99903 0.0
C323 C 0.75593 0.38012 0.97961 0.0
C324 C 0.73005 0.41412 0.97103 0.0
C325 C 0.76045 0.31014 0.00271 0.0
C326 C 0.81314 0.31125 0.01464 0.0
C327 C 0.72941 0.27122 0.99314 0.0
C328 C 0.67417 0.2679 0.97749 0.0
C329 C 0.65592 0.28757 0.948 0.0
C330 C 0.60381 0.28473 0.93357 0.0
C331 C 0.56959 0.26195 0.94821 0.0
C332 C 0.58743 0.24186 0.97727 0.0
C333 C 0.63951 0.24468 0.99185 0.0
H334 H 0.52926 0.25977 0.937 0.0
H335 H 0.03779 0.28412 0.06342 0.0
H336 H 0.66342 0.58336 0.49051 0.0
H337 H 0.71448 0.65037 0.48988 0.0
H338 H 0.59995 0.71371 0.51579 0.0
H339 H 0.54774 0.64668 0.51529 0.0
H340 H 0.63516 0.75378 0.47045 0.0
H341 H 0.70922 0.69765 0.57445 0.0
H342 H 0.74662 0.64481 0.61067 0.0
H343 H 0.86782 0.64905 0.56296 0.0
H344 H 0.83073 0.70155 0.52614 0.0
H345 H 0.78582 0.94152 0.55168 0.0
H346 H 0.7306 0.87498 0.53458 0.0
H347 H 0.84398 0.82888 0.49404 0.0
H348 H 0.89922 0.89568 0.51085 0.0
H349 H 0.81187 0.7792 0.54157 0.0
H350 H 0.73998 0.84277 0.44164 0.0
H351 H 0.70195 0.89752 0.40811 0.0
H352 H 0.57593 0.88179 0.45155 0.0
H353 H 0.61359 0.82735 0.48576 0.0
C354 C 0.64913 0.61155 0.49613 0.0
C355 C 0.60186 0.60982 0.50332 0.0
C356 C 0.67837 0.64982 0.49577 0.0
C357 C 0.66139 0.68699 0.5033 0.0
C358 C 0.61379 0.68538 0.50993 0.0
C359 C 0.58415 0.64709 0.50983 0.0
C360 C 0.69379 0.72751 0.50507 0.0
C361 C 0.67365 0.75948 0.48622 0.0
C362 C 0.7444 0.73459 0.52508 0.0
C363 C 0.7669 0.70318 0.5473 0.0
C364 C 0.74364 0.68709 0.57152 0.0
C365 C 0.76481 0.65724 0.59218 0.0
C366 C 0.80949 0.64349 0.58905 0.0
C367 C 0.83317 0.65967 0.56532 0.0
C368 C 0.81211 0.68949 0.54456 0.0
C369 C 0.79841 0.9174 0.53853 0.0
C370 C 0.84659 0.92345 0.53257 0.0
C371 C 0.76688 0.8796 0.52868 0.0
C372 C 0.7833 0.84722 0.51301 0.0
C373 C 0.83071 0.85368 0.50598 0.0
C374 C 0.862 0.89175 0.51543 0.0
C375 C 0.75307 0.80547 0.50722 0.0
C376 C 0.7736 0.7733 0.52546 0.0
C377 C 0.7027 0.79847 0.48705 0.0
C378 C 0.67986 0.83118 0.46648 0.0
C379 C 0.70438 0.85123 0.44428 0.0
C380 C 0.68284 0.88216 0.4251 0.0
C381 C 0.6366 0.89319 0.42775 0.0
C382 C 0.61176 0.87324 0.44954 0.0
C383 C 0.63317 0.84229 0.46881 0.0
H384 H 0.61998 0.91715 0.41287 0.0
H385 H 0.82582 0.62038 0.60507 0.0
H386 H 0.77018 0.42083 0.5042 0.0
H387 H 0.81841 0.36241 0.51085 0.0
H388 H 0.692 0.28371 0.5299 0.0
H389 H 0.64223 0.34203 0.52202 0.0
H390 H 0.80533 0.27992 0.57321 0.0
H391 H 0.69243 0.26376 0.46229 0.0
H392 H 0.64984 0.28978 0.40876 0.0
H393 H 0.79419 0.3298 0.39026 0.0
H394 H 0.83768 0.30463 0.44399 0.0
H395 H 0.92399 0.10309 0.5466 0.0
H396 H 0.86026 0.14862 0.54698 0.0
H397 H 0.93355 0.23697 0.49284 0.0
H398 H 0.99622 0.1906 0.49137 0.0
H399 H 0.83443 0.22783 0.46735 0.0
H400 H 0.94789 0.24936 0.57795 0.0
H401 H 0.99379 0.22682 0.63206 0.0
H402 H 0.85253 0.17949 0.65206 0.0
H403 H 0.80579 0.2013 0.59783 0.0
C404 C 0.7524 0.3912 0.50979 0.0
C405 C 0.70188 0.38594 0.51185 0.0
C406 C 0.78027 0.35797 0.51391 0.0
C407 C 0.75853 0.31886 0.52058 0.0
C408 C 0.70931 0.31384 0.52481 0.0
C409 C 0.68101 0.34718 0.52034 0.0
C410 C 0.78634 0.28298 0.51997 0.0
C411 C 0.81088 0.26768 0.55008 0.0
C412 C 0.79427 0.26795 0.4898 0.0
C413 C 0.76828 0.28264 0.45728 0.0
C414 C 0.71509 0.27844 0.44694 0.0
C415 C 0.69079 0.29297 0.41654 0.0
C416 C 0.71929 0.31152 0.39616 0.0
C417 C 0.77216 0.31546 0.40609 0.0
C418 C 0.79665 0.30103 0.4365 0.0
C419 C 0.92562 0.1315 0.53385 0.0
C420 C 0.96311 0.14193 0.51694 0.0
C421 C 0.8896 0.15791 0.53458 0.0
C422 C 0.89184 0.19613 0.51972 0.0
C423 C 0.93045 0.20728 0.50392 0.0
C424 C 0.96607 0.18067 0.50291 0.0
C425 C 0.85449 0.22494 0.52071 0.0
C426 C 0.82824 0.23918 0.49054 0.0
C427 C 0.84535 0.23907 0.5509 0.0
C428 C 0.87338 0.22656 0.5837 0.0
C429 C 0.92664 0.23392 0.59381 0.0
C430 C 0.9528 0.2213 0.6245 0.0
C431 C 0.9261 0.20162 0.64544 0.0
C432 C 0.87316 0.19468 0.63579 0.0
C433 C 0.84681 0.20719 0.60509 0.0
H434 H 0.94642 0.19183 0.66918 0.0
H435 H 0.70041 0.32275 0.37263 0.0
H436 H 0.48304 0.34832 0.47821 0.0
H437 H 0.42688 0.28261 0.47737 0.0
H438 H 0.32627 0.34975 0.51575 0.0
H439 H 0.38105 0.41477 0.51625 0.0
H440 H 0.3494 0.2762 0.54846 0.0
H441 H 0.29854 0.32658 0.43622 0.0
H442 H 0.31484 0.34604 0.38273 0.0
H443 H 0.35297 0.22423 0.36656 0.0
H444 H 0.33753 0.20427 0.42023 0.0
H445 H 0.09838 0.19234 0.51566 0.0
H446 H 0.17786 0.23457 0.51502 0.0
H447 H 0.22171 0.13103 0.4671 0.0
H448 H 0.14155 0.08874 0.46734 0.0
H449 H 0.24467 0.2063 0.44087 0.0
H450 H 0.27442 0.15107 0.54689 0.0
H451 H 0.25483 0.13139 0.59935 0.0
H452 H 0.25811 0.26013 0.62804 0.0
H453 H 0.27664 0.2806 0.57542 0.0
C454 C 0.44899 0.34886 0.48654 0.0
C455 C 0.43618 0.38666 0.49706 0.0
C456 C 0.41709 0.31145 0.48605 0.0
C457 C 0.37262 0.31152 0.49656 0.0
C458 C 0.36057 0.3491 0.50769 0.0
C459 C 0.39178 0.38628 0.50773 0.0
C460 C 0.33684 0.27319 0.49519 0.0
C461 C 0.3267 0.26062 0.52501 0.0
C462 C 0.30853 0.25214 0.46462 0.0
C463 C 0.31761 0.26415 0.4324 0.0
C464 C 0.31087 0.3041 0.4214 0.0
C465 C 0.31985 0.31519 0.39103 0.0
C466 C 0.33513 0.28645 0.37132 0.0
C467 C 0.34128 0.2465 0.38189 0.0
C468 C 0.33242 0.23529 0.41228 0.0
C469 C 0.12543 0.17828 0.50569 0.0
C470 C 0.11571 0.13626 0.49406 0.0
C471 C 0.1706 0.20248 0.50509 0.0
C472 C 0.20644 0.18535 0.49219 0.0
C473 C 0.19508 0.1444 0.47798 0.0
C474 C 0.14964 0.12014 0.47856 0.0
C475 C 0.25566 0.21074 0.49407 0.0
C476 C 0.26839 0.22077 0.46445 0.0
C477 C 0.28664 0.22935 0.52489 0.0
C478 C 0.27681 0.21737 0.55708 0.0
C479 C 0.27075 0.17521 0.5643 0.0
C480 C 0.2598 0.1639 0.59407 0.0
C481 C 0.25522 0.19449 0.61701 0.0
C482 C 0.2617 0.23647 0.61025 0.0
C483 C 0.2725 0.24795 0.58045 0.0
H484 H 0.24668 0.18567 0.64004 0.0
H485 H 0.34204 0.29508 0.34781 0.0
H486 H 0.42753 0.66224 0.51105 0.0
H487 H 0.39184 0.72766 0.51176 0.0
H488 H 0.24162 0.65857 0.49081 0.0
H489 H 0.27711 0.59323 0.49002 0.0
H490 H 0.24884 0.72786 0.45233 0.0
H491 H 0.29771 0.69315 0.56745 0.0
H492 H 0.35801 0.67615 0.61853 0.0
H493 H 0.45175 0.79293 0.62015 0.0
H494 H 0.39232 0.81036 0.56876 0.0
H495 H 0.09994 0.86907 0.48648 0.0
H496 H 0.1463 0.80925 0.49765 0.0
H497 H 0.28798 0.89129 0.51653 0.0
H498 H 0.24135 0.95131 0.50544 0.0
H499 H 0.29127 0.81922 0.55636 0.0
H500 H 0.24462 0.8556 0.44319 0.0
H501 H 0.18591 0.87473 0.39224 0.0
H502 H 0.09205 0.75693 0.38579 0.0
H503 H 0.14973 0.73742 0.43713 0.0
C504 C 0.38688 0.66112 0.50614 0.0
C505 C 0.35499 0.62274 0.50053 0.0
C506 C 0.36662 0.6984 0.50683 0.0
C507 C 0.31419 0.6978 0.50164 0.0
C508 C 0.2822 0.6596 0.49498 0.0
C509 C 0.30246 0.62238 0.49468 0.0
C510 C 0.29238 0.73684 0.50357 0.0
C511 C 0.25778 0.74762 0.47514 0.0
C512 C 0.30531 0.7632 0.5331 0.0
C513 C 0.34088 0.75284 0.56406 0.0
C514 C 0.33141 0.71504 0.57853 0.0
C515 C 0.36538 0.70536 0.60757 0.0
C516 C 0.40876 0.73339 0.62252 0.0
C517 C 0.41818 0.77122 0.60851 0.0
C518 C 0.38435 0.78103 0.57944 0.0
C519 C 0.14098 0.87435 0.49447 0.0
C520 C 0.16738 0.91442 0.49546 0.0
C521 C 0.16738 0.84029 0.50062 0.0
C522 C 0.22044 0.84595 0.50744 0.0
C523 C 0.24704 0.88642 0.51139 0.0
C524 C 0.22053 0.92058 0.50518 0.0
C525 C 0.24698 0.80957 0.50535 0.0
C526 C 0.28256 0.79948 0.53357 0.0
C527 C 0.23551 0.78401 0.4755 0.0
C528 C 0.20124 0.79521 0.4442 0.0
C529 C 0.21126 0.83389 0.43105 0.0
C530 C 0.17819 0.8448 0.40209 0.0
C531 C 0.13521 0.81711 0.38583 0.0
C532 C 0.12532 0.77838 0.39845 0.0
C533 C 0.15821 0.76737 0.42747 0.0
H534 H 0.10963 0.82562 0.36343 0.0
H535 H 0.43501 0.72584 0.645 0.0
H536 H 0.12045 0.96077 0.11941 0.0
H537 H 0.13 0.95727 0.17938 0.0
H538 H 0.9794 0.9893 0.1669 0.0
H539 H 0.97005 0.99375 0.10736 0.0
H540 H 0.04316 0.03512 0.21687 0.0
H541 H 0.00613 0.88839 0.1836 0.0
H542 H 0.0172 0.82218 0.15746 0.0
H543 H 0.16988 0.8327 0.21867 0.0
H544 H 0.15974 0.89886 0.24534 0.0
H545 H 0.01816 0.99026 0.379 0.0
H546 H 0.00627 0.98972 0.31862 0.0
H547 H 0.15932 0.96372 0.33093 0.0
H548 H 0.17167 0.96463 0.39109 0.0
H549 H 0.09373 0.91423 0.2812 0.0
H550 H 0.13 0.06019 0.31513 0.0
H551 H 0.11809 0.12501 0.34275 0.0
H552 H 0.96647 0.11612 0.27997 0.0
H553 H 0.97722 0.05086 0.25229 0.0
C554 C 0.0893 0.96679 0.12945 0.0
C555 C 0.04466 0.9778 0.10868 0.0
C556 C 0.09468 0.96459 0.16369 0.0
C557 C 0.05526 0.97281 0.17763 0.0
C558 C 0.01038 0.98302 0.15676 0.0
C559 C 0.00512 0.98551 0.12269 0.0
C560 C 0.06136 0.97264 0.2141 0.0
C561 C 0.0535 0.00843 0.23084 0.0
C562 C 0.07603 0.93826 0.2325 0.0
C563 C 0.08234 0.89876 0.21622 0.0
C564 C 0.04219 0.87675 0.1913 0.0
C565 C 0.04826 0.83921 0.17643 0.0
C566 C 0.09428 0.82342 0.18622 0.0
C567 C 0.13429 0.84502 0.21106 0.0
C568 C 0.12836 0.88245 0.22614 0.0
C569 C 0.04941 0.98486 0.36885 0.0
C570 C 0.09579 0.97739 0.38985 0.0
C571 C 0.04253 0.98443 0.33436 0.0
C572 C 0.08201 0.97684 0.32032 0.0
C573 C 0.12827 0.96939 0.34122 0.0
C574 C 0.13518 0.96983 0.37561 0.0
C575 C 0.07533 0.97659 0.28383 0.0
C576 C 0.08321 0.94083 0.26715 0.0
C577 C 0.06064 0.01098 0.26547 0.0
C578 C 0.05425 0.05041 0.28187 0.0
C579 C 0.09399 0.07188 0.30738 0.0
C580 C 0.08747 0.10873 0.32302 0.0
C581 C 0.04151 0.12461 0.31318 0.0
C582 C 0.00202 0.10374 0.2876 0.0
C583 C 0.00832 0.06684 0.27191 0.0
H584 H 0.03653 0.15314 0.32532 0.0
H585 H 0.09888 0.79437 0.17465 0.0
H586 H 0.06043 0.96731 0.90858 0.0
H587 H 0.05091 0.97594 0.84937 0.0
H588 H 0.93976 0.0583 0.84906 0.0
H589 H 0.94903 0.04986 0.90856 0.0
H590 H 0.96554 0.955 0.79875 0.0
H591 H 0.95319 0.13115 0.78942 0.0
H592 H 0.98448 0.1971 0.82379 0.0
H593 H 0.11182 0.14385 0.88054 0.0
H594 H 0.08182 0.07782 0.84616 0.0
H595 H 0.86062 0.00299 0.63413 0.0
H596 H 0.87886 0.01019 0.69472 0.0
H597 H 0.03808 0.04148 0.70189 0.0
H598 H 0.02062 0.03262 0.64118 0.0
H599 H 0.9937 0.09006 0.74868 0.0
H600 H 0.01186 0.95103 0.71183 0.0
H601 H 0.9829 0.88566 0.67649 0.0
H602 H 0.85079 0.86441 0.71357 0.0
H603 H 0.87859 0.93008 0.74873 0.0
C604 C 0.03401 0.98737 0.896 0.0
C605 C 0.00526 0.00773 0.91323 0.0
C606 C 0.02864 0.99223 0.86216 0.0
C607 C 0.99486 0.01789 0.84491 0.0
C608 C 0.96641 0.03867 0.86203 0.0
C609 C 0.97152 0.0336 0.89594 0.0
C610 C 0.98794 0.02122 0.80868 0.0
C611 C 0.97179 0.98457 0.7879 0.0
C612 C 0.99634 0.05979 0.79453 0.0
C613 C 0.01493 0.09938 0.81537 0.0
C614 C 0.98796 0.13355 0.80915 0.0
C615 C 0.0055 0.17096 0.82862 0.0
C616 C 0.05013 0.17466 0.85429 0.0
C617 C 0.07725 0.14092 0.86063 0.0
C618 C 0.05993 0.10346 0.8412 0.0
C619 C 0.89958 0.01145 0.6485 0.0
C620 C 0.93927 0.01638 0.63277 0.0
C621 C 0.90979 0.01601 0.68309 0.0
C622 C 0.95976 0.02614 0.70261 0.0
C623 C 0.99923 0.03385 0.68709 0.0
C624 C 0.98912 0.02879 0.65241 0.0
C625 C 0.97096 0.02396 0.73912 0.0
C626 C 0.9876 0.06065 0.75977 0.0
C627 C 0.96344 0.98543 0.75335 0.0
C628 C 0.94703 0.94565 0.73262 0.0
C629 C 0.97642 0.93259 0.71222 0.0
C630 C 0.96025 0.89547 0.69226 0.0
C631 C 0.91496 0.87095 0.69271 0.0
C632 C 0.88582 0.88346 0.71321 0.0
C633 C 0.90178 0.92062 0.73317 0.0
H634 H 0.9025 0.84222 0.67724 0.0
H635 H 0.0637 0.20368 0.86928 0.0
H636 H 0.5882 0.44183 0.6047 0.0
H637 H 0.59905 0.4408 0.66519 0.0
H638 H 0.53663 0.55607 0.66493 0.0
H639 H 0.52418 0.55664 0.60458 0.0
H640 H 0.63618 0.54546 0.71787 0.0
H641 H 0.46013 0.48625 0.66846 0.0
H642 H 0.39392 0.4364 0.63029 0.0
H643 H 0.46047 0.33426 0.67854 0.0
H644 H 0.52765 0.38357 0.71664 0.0
H645 H 0.60421 0.55262 0.88215 0.0
H646 H 0.59297 0.55802 0.82221 0.0
H647 H 0.58603 0.42469 0.8093 0.0
H648 H 0.5939 0.41892 0.86844 0.0
H649 H 0.52054 0.4459 0.76153 0.0
H650 H 0.69525 0.49769 0.80931 0.0
H651 H 0.77279 0.5413 0.84251 0.0
H652 H 0.72057 0.64996 0.79661 0.0
H653 H 0.64245 0.60705 0.76335 0.0
C654 C 0.57728 0.46709 0.61766 0.0
C655 C 0.55527 0.49925 0.60004 0.0
C656 C 0.5833 0.46639 0.65207 0.0
C657 C 0.56841 0.4983 0.66931 0.0
C658 C 0.54824 0.5312 0.65196 0.0
C659 C 0.5411 0.5314 0.61755 0.0
C660 C 0.57253 0.49692 0.70534 0.0
C661 C 0.61059 0.52417 0.7276 0.0
C662 C 0.53999 0.46819 0.71771 0.0
C663 C 0.49923 0.43858 0.69513 0.0
C664 C 0.46094 0.45316 0.67071 0.0
C665 C 0.42318 0.42501 0.64913 0.0
C666 C 0.42307 0.38218 0.65191 0.0
C667 C 0.46065 0.36744 0.67637 0.0
C668 C 0.49855 0.39547 0.69797 0.0
C669 C 0.59943 0.52443 0.86642 0.0
C670 C 0.60042 0.48536 0.88022 0.0
C671 C 0.59379 0.52759 0.83219 0.0
C672 C 0.58963 0.49184 0.81115 0.0
C673 C 0.58939 0.45282 0.82486 0.0
C674 C 0.5944 0.4496 0.85885 0.0
C675 C 0.58479 0.49453 0.7748 0.0
C676 C 0.5463 0.4675 0.75222 0.0
C677 C 0.61787 0.52288 0.7622 0.0
C678 C 0.66277 0.5492 0.78409 0.0
C679 C 0.69994 0.53097 0.80665 0.0
C680 C 0.74416 0.55552 0.8253 0.0
C681 C 0.75175 0.59831 0.82146 0.0
C682 C 0.71478 0.61677 0.79938 0.0
C683 C 0.6705 0.59236 0.78067 0.0
H684 H 0.78616 0.61722 0.83576 0.0
H685 H 0.39382 0.36043 0.63518 0.0
H686 H 0.55875 0.48708 0.39847 0.0
H687 H 0.543 0.49199 0.33835 0.0
H688 H 0.39173 0.51827 0.33261 0.0
H689 H 0.40738 0.51396 0.39311 0.0
H690 H 0.39954 0.45588 0.28371 0.0
H691 H 0.47187 0.59535 0.32688 0.0
H692 H 0.53553 0.64857 0.36341 0.0
H693 H 0.65055 0.6113 0.32067 0.0
H694 H 0.5877 0.55736 0.28424 0.0
H695 H 0.34474 0.50915 0.11713 0.0
H696 H 0.35796 0.51518 0.17751 0.0
H697 H 0.5166 0.50601 0.19118 0.0
H698 H 0.50359 0.50026 0.1306 0.0
H699 H 0.50286 0.5622 0.23646 0.0
H700 H 0.43645 0.42079 0.19725 0.0
H701 H 0.37672 0.36423 0.16181 0.0
H702 H 0.25513 0.40175 0.19755 0.0
H703 H 0.31417 0.4587 0.23316 0.0
C704 C 0.52202 0.49378 0.38447 0.0
C705 C 0.48426 0.50015 0.40054 0.0
C706 C 0.51321 0.49675 0.35014 0.0
C707 C 0.46638 0.50579 0.33116 0.0
C708 C 0.42818 0.51138 0.34693 0.0
C709 C 0.4372 0.50898 0.38143 0.0
C710 C 0.45758 0.50917 0.29479 0.0
C711 C 0.42142 0.47957 0.27331 0.0
C712 C 0.48735 0.53933 0.28142 0.0
C713 C 0.52514 0.57204 0.30304 0.0
C714 C 0.51081 0.59826 0.32546 0.0
C715 C 0.54674 0.6286 0.34612 0.0
C716 C 0.59708 0.63325 0.34442 0.0
C717 C 0.61155 0.60763 0.32198 0.0
C718 C 0.57578 0.57719 0.3013 0.0
C719 C 0.3825 0.50864 0.13303 0.0
C720 C 0.42302 0.50364 0.11922 0.0
C721 C 0.39 0.51211 0.16749 0.0
C722 C 0.43806 0.5102 0.18883 0.0
C723 C 0.47916 0.5074 0.17514 0.0
C724 C 0.47172 0.50416 0.14058 0.0
C725 C 0.4447 0.50891 0.22529 0.0
C726 C 0.48061 0.53874 0.2468 0.0
C727 C 0.41517 0.47861 0.23877 0.0
C728 C 0.3796 0.44426 0.21759 0.0
C729 C 0.3969 0.41716 0.19737 0.0
C730 C 0.36319 0.38502 0.17727 0.0
C731 C 0.31211 0.37956 0.17726 0.0
C732 C 0.29469 0.40609 0.19752 0.0
C733 C 0.32828 0.43824 0.21772 0.0
H734 H 0.28606 0.35469 0.16164 0.0
H735 H 0.62484 0.65675 0.36044 0.0
loop_
_geom_bond_atom_site_label_1
_geom_bond_atom_site_label_2
_geom_bond_distance
_geom_bond_site_symmetry_2
_ccdc_geom_bond_type
Co0 N5 2.057 . S
Co0 O17 2.021 . S
Co0 O20 2.062 . S
Co0 O24 2.117 1_554 S
Co0 O25 2.020 1_565 S
C1 O21 1.259 1_455 S
C1 O24 1.258 1_545 S
Co2 N11 2.056 . S
Co2 O18 2.114 1_655 S
Co2 O19 2.019 1_544 S
Co2 O21 2.024 1_554 S
Co2 O26 2.062 1_655 S
C3 N5 1.316 . S
C3 N6 1.347 . S
C3 H8 0.931 . S
C4 N5 1.375 1_556 S
C4 C7 1.350 . S
C4 H9 0.930 . S
N5 Co0 2.057 . S
N5 C3 1.316 . S
N5 C4 1.375 1_554 S
N6 C3 1.347 . S
N6 C7 1.373 1_554 S
C7 C4 1.350 . S
C7 N6 1.373 1_556 S
C7 H28 0.931 . S
H8 C3 0.931 . S
H9 C4 0.930 . S
C10 O17 1.261 1_545 S
C10 O18 1.257 . S
N11 Co2 2.056 . S
N11 C12 1.316 1_554 S
N11 C13 1.375 . S
C12 N11 1.316 1_556 S
C12 N14 1.344 1_556 S
C12 H23 0.931 . S
C13 N11 1.375 . S
C13 C15 1.350 . S
C13 H22 0.930 . S
N14 C12 1.344 1_554 S
N14 C15 1.378 . S
C15 C13 1.350 . S
C15 N14 1.378 . S
C15 H29 0.931 . S
C16 O19 1.256 1_554 S
C16 O20 1.255 1_655 S
O17 Co0 2.021 . S
O17 C10 1.261 1_565 S
O18 Co2 2.114 1_455 S
O18 C10 1.257 . S
O19 Co2 2.019 1_566 S
O19 C16 1.256 1_556 S
O20 Co0 2.062 . S
O20 C16 1.255 1_455 S
O21 C1 1.259 1_655 S
O21 Co2 2.024 1_556 S
H22 C13 0.930 . S
H23 C12 0.931 . S
O24 Co0 2.117 1_556 S
O24 C1 1.258 1_565 S
O25 Co0 2.020 1_545 S
O25 C27 1.256 . S
O26 Co2 2.062 1_455 S
O26 C27 1.255 . S
C27 O25 1.256 . S
C27 O26 1.255 . S
H28 C7 0.931 . S
H29 C15 0.931 . S
Co30 N35 2.057 . S
Co30 O47 2.021 . S
Co30 O50 2.062 . S
Co30 O54 2.117 . S
Co30 O55 2.020 . S
C31 O51 1.259 . S
C31 O54 1.258 . S
Co32 N41 2.057 . S
Co32 O48 2.117 . S
Co32 O49 2.020 . S
Co32 O51 2.021 . S
Co32 O56 2.062 . S
C33 N35 1.316 . S
C33 N36 1.347 . S
C33 H38 0.931 . S
C34 N35 1.375 . S
C34 C37 1.350 . S
C34 H39 0.930 . S
N35 Co30 2.057 . S
N35 C33 1.316 . S
N35 C34 1.375 . S
N36 C33 1.347 . S
N36 C37 1.373 . S
C37 C34 1.350 . S
C37 N36 1.373 . S
C37 H58 0.931 . S
H38 C33 0.931 . S
H39 C34 0.930 . S
C40 O47 1.259 . S
C40 O48 1.258 . S
N41 Co32 2.057 . S
N41 C42 1.316 . S
N41 C43 1.375 . S
C42 N41 1.316 . S
C42 N44 1.347 . S
C42 H53 0.931 . S
C43 N41 1.375 . S
C43 C45 1.350 . S
C43 H52 0.930 . S
N44 C42 1.347 . S
N44 C45 1.373 . S
C45 C43 1.350 . S
C45 N44 1.373 . S
C45 H59 0.931 . S
C46 O49 1.256 . S
C46 O50 1.255 . S
O47 Co30 2.021 . S
O47 C40 1.259 . S
O48 Co32 2.117 . S
O48 C40 1.258 . S
O49 Co32 2.020 . S
O49 C46 1.256 . S
O50 Co30 2.062 . S
O50 C46 1.255 . S
O51 C31 1.259 . S
O51 Co32 2.021 . S
H52 C43 0.930 . S
H53 C42 0.931 . S
O54 Co30 2.117 . S
O54 C31 1.258 . S
O55 Co30 2.020 . S
O55 C57 1.256 . S
O56 Co32 2.062 . S
O56 C57 1.255 . S
C57 O55 1.256 . S
C57 O56 1.255 . S
H58 C37 0.931 . S
H59 C45 0.931 . S
H60 C61 0.949 . S
C61 H60 0.949 . S
C61 C62 1.395 1_545 S
C61 C63 1.391 . S
C62 C61 1.395 1_565 S
C62 C65 1.390 . S
C63 C61 1.391 . S
C63 C67 1.387 1_545 S
C63 C68 1.491 . S
H64 C65 0.950 . S
C65 C62 1.390 . S
C65 H64 0.950 . S
C65 C66 1.378 . S
C66 C65 1.378 . S
C66 C67 1.409 . S
C67 C63 1.387 1_565 S
C67 C66 1.409 . S
C67 H69 0.951 . S
C68 C63 1.491 . S
C68 C70 1.378 1_455 S
C68 C72 1.404 . S
H69 C67 0.951 . S
C70 C68 1.378 1_655 S
C70 C71 1.392 . S
C70 H75 0.951 . S
C71 C70 1.392 . S
C71 C76 1.399 1_655 S
C72 C68 1.404 . S
C72 H73 0.950 . S
C72 C74 1.375 . S
H73 C72 0.950 . S
C74 C72 1.375 . S
C74 C76 1.382 . S
C74 H78 0.950 . S
H75 C70 0.951 . S
C76 C71 1.399 1_455 S
C76 C74 1.382 . S
C76 H77 0.952 . S
H77 C76 0.952 . S
H78 C74 0.950 . S
H79 C80 0.950 1_455 S
C80 H79 0.950 1_655 S
C80 C81 1.397 . S
C80 C82 1.391 . S
C81 C80 1.397 . S
C81 C84 1.387 1_545 S
C82 C80 1.391 . S
C82 C86 1.387 1_545 S
C82 C87 1.491 1_655 S
H83 C84 0.950 . S
C84 C81 1.387 1_565 S
C84 H83 0.950 . S
C84 C85 1.378 . S
C85 C84 1.378 . S
C85 C86 1.409 . S
C86 C82 1.387 1_565 S
C86 C85 1.409 . S
C86 H88 0.951 . S
C87 C82 1.491 1_455 S
C87 C89 1.382 . S
C87 C91 1.404 1_455 S
H88 C86 0.951 . S
C89 C87 1.382 . S
C89 C90 1.390 . S
C89 H94 0.949 . S
C90 C89 1.390 . S
C90 C95 1.399 . S
C91 C87 1.404 1_655 S
C91 H92 0.950 . S
C91 C93 1.375 . S
H92 C91 0.950 . S
C93 C91 1.375 . S
C93 C95 1.382 1_655 S
C93 H97 0.950 . S
H94 C89 0.949 . S
C95 C90 1.399 . S
C95 C93 1.382 1_455 S
C95 H96 0.952 . S
H96 C95 0.952 . S
H97 C93 0.950 . S
H98 C99 0.949 . S
C99 H98 0.949 . S
C99 C100 1.395 . S
C99 C101 1.391 . S
C100 C99 1.395 . S
C100 C103 1.390 . S
C101 C99 1.391 . S
C101 C105 1.387 . S
C101 C106 1.491 . S
H102 C103 0.950 . S
C103 C100 1.390 . S
C103 H102 0.950 . S
C103 C104 1.378 . S
C104 C103 1.378 . S
C104 C105 1.409 . S
C105 C101 1.387 . S
C105 C104 1.409 . S
C105 H107 0.951 1_556 S
C106 C101 1.491 . S
C106 C108 1.382 . S
C106 C110 1.404 1_556 S
H107 C105 0.951 1_554 S
C108 C106 1.382 . S
C108 C109 1.390 1_556 S
C108 H113 0.949 . S
C109 C108 1.390 1_554 S
C109 C114 1.399 . S
C110 C106 1.404 1_554 S
C110 H111 0.950 . S
C110 C112 1.375 . S
H111 C110 0.950 . S
C112 C110 1.375 . S
C112 C114 1.382 . S
C112 H116 0.950 . S
H113 C108 0.949 . S
C114 C109 1.399 . S
C114 C112 1.382 . S
C114 H115 0.952 . S
H115 C114 0.952 . S
H116 C112 0.950 . S
H117 C118 0.949 . S
C118 H117 0.949 . S
C118 C119 1.395 . S
C118 C120 1.391 . S
C119 C118 1.395 . S
C119 C122 1.390 . S
C120 C118 1.391 . S
C120 C124 1.387 . S
C120 C125 1.491 . S
H121 C122 0.950 . S
C122 C119 1.390 . S
C122 H121 0.950 . S
C122 C123 1.378 . S
C123 C122 1.378 . S
C123 C124 1.409 . S
C124 C120 1.387 . S
C124 C123 1.409 . S
C124 H126 0.937 1_554 S
C125 C120 1.491 . S
C125 C127 1.382 . S
C125 C129 1.404 1_554 S
H126 C124 0.937 1_556 S
C127 C125 1.382 . S
C127 C128 1.390 . S
C127 H132 0.949 . S
C128 C127 1.390 . S
C128 C133 1.399 1_554 S
C129 C125 1.404 1_556 S
C129 H130 0.950 . S
C129 C131 1.375 . S
H130 C129 0.950 . S
C131 C129 1.375 . S
C131 C133 1.382 . S
C131 H135 0.950 . S
H132 C127 0.949 . S
C133 C128 1.399 1_556 S
C133 C131 1.382 . S
C133 H134 0.952 . S
H134 C133 0.952 . S
H135 C131 0.950 . S
H136 C154 0.951 . S
H137 C156 0.951 . S
H138 C158 0.950 . S
H139 C159 0.950 . S
H140 C161 0.950 . S
H141 C164 0.950 1_556 S
H142 C165 0.950 1_556 S
H143 C167 0.950 . S
H144 C168 0.950 . S
H145 C169 0.951 1_556 S
H146 C171 0.951 1_556 S
H147 C173 0.950 . S
H148 C174 0.950 . S
H149 C176 0.950 . S
H150 C179 0.950 . S
H151 C180 0.950 . S
H152 C182 0.950 . S
H153 C183 0.950 . S
C154 H136 0.951 . S
C154 C155 1.366 . S
C154 C156 1.388 . S
C155 C154 1.366 . S
C155 C159 1.385 1_554 S
C156 H137 0.951 . S
C156 C154 1.388 . S
C156 C157 1.366 . S
C157 C156 1.366 . S
C157 C158 1.414 1_554 S
C157 C160 1.499 . S
C158 H138 0.950 . S
C158 C157 1.414 1_556 S
C158 C159 1.374 . S
C159 H139 0.950 . S
C159 C155 1.385 1_556 S
C159 C158 1.374 . S
C160 C157 1.499 . S
C160 C161 1.373 . S
C160 C162 1.389 . S
C161 H140 0.950 . S
C161 C160 1.373 . S
C161 C177 1.377 . S
C162 C160 1.389 . S
C162 C163 1.524 . S
C162 C176 1.377 . S
C163 C162 1.524 . S
C163 C164 1.397 . S
C163 C168 1.363 . S
C164 H141 0.950 1_554 S
C164 C163 1.397 . S
C164 C165 1.334 . S
C165 H142 0.950 1_554 S
C165 C164 1.334 . S
C165 C166 1.287 . S
C166 C165 1.287 . S
C166 C167 1.524 . S
C166 H185 0.913 . S
C167 H143 0.950 . S
C167 C166 1.524 . S
C167 C168 1.415 . S
C168 H144 0.950 . S
C168 C163 1.363 . S
C168 C167 1.415 . S
C169 H145 0.951 1_554 S
C169 C170 1.366 . S
C169 C171 1.388 . S
C170 C169 1.366 . S
C170 C174 1.385 . S
C171 H146 0.951 1_554 S
C171 C169 1.388 . S
C171 C172 1.366 . S
C172 C171 1.366 . S
C172 C173 1.414 . S
C172 C175 1.499 . S
C173 H147 0.950 . S
C173 C172 1.414 . S
C173 C174 1.374 . S
C174 H148 0.950 . S
C174 C170 1.385 . S
C174 C173 1.374 . S
C175 C172 1.499 . S
C175 C176 1.373 . S
C175 C177 1.389 . S
C176 H149 0.950 . S
C176 C162 1.377 . S
C176 C175 1.373 . S
C177 C161 1.377 . S
C177 C175 1.389 . S
C177 C178 1.524 . S
C178 C177 1.524 . S
C178 C179 1.397 . S
C178 C183 1.363 1_554 S
C179 H150 0.950 . S
C179 C178 1.397 . S
C179 C180 1.334 . S
C180 H151 0.950 . S
C180 C179 1.334 . S
C180 C181 1.287 . S
C181 C180 1.287 . S
C181 C182 1.524 1_554 S
C181 H184 0.999 . S
C182 H152 0.950 . S
C182 C181 1.524 1_556 S
C182 C183 1.415 . S
C183 H153 0.950 . S
C183 C178 1.363 1_556 S
C183 C182 1.415 . S
H184 C181 0.999 . S
H185 C166 0.913 . S
H186 C204 0.951 . S
H187 C206 0.951 . S
H188 C208 0.950 . S
H189 C209 0.950 . S
H190 C211 0.950 . S
H191 C214 0.950 . S
H192 C215 0.950 . S
H193 C217 0.950 . S
H194 C218 0.950 . S
H195 C219 0.951 . S
H196 C221 0.951 . S
H197 C223 0.950 . S
H198 C224 0.950 . S
H199 C226 0.950 . S
H200 C229 0.950 . S
H201 C230 0.950 . S
H202 C232 0.950 . S
H203 C233 0.950 . S
C204 H186 0.951 . S
C204 C205 1.366 . S
C204 C206 1.388 . S
C205 C204 1.366 . S
C205 C209 1.385 1_554 S
C206 H187 0.951 . S
C206 C204 1.388 . S
C206 C207 1.366 . S
C207 C206 1.366 . S
C207 C208 1.414 1_554 S
C207 C210 1.499 . S
C208 H188 0.950 . S
C208 C207 1.414 1_556 S
C208 C209 1.374 . S
C209 H189 0.950 . S
C209 C205 1.385 1_556 S
C209 C208 1.374 . S
C210 C207 1.499 . S
C210 C211 1.373 . S
C210 C212 1.389 . S
C211 H190 0.950 . S
C211 C210 1.373 . S
C211 C227 1.377 . S
C212 C210 1.389 . S
C212 C213 1.524 . S
C212 C226 1.377 . S
C213 C212 1.524 . S
C213 C214 1.397 1_554 S
C213 C218 1.363 . S
C214 H191 0.950 . S
C214 C213 1.397 1_556 S
C214 C215 1.334 . S
C215 H192 0.950 . S
C215 C214 1.334 . S
C215 C216 1.287 1_556 S
C216 C215 1.287 1_554 S
C216 C217 1.524 . S
C216 H235 0.913 . S
C217 H193 0.950 . S
C217 C216 1.524 . S
C217 C218 1.415 . S
C218 H194 0.950 . S
C218 C213 1.363 . S
C218 C217 1.415 . S
C219 H195 0.951 . S
C219 C220 1.366 1_556 S
C219 C221 1.388 . S
C220 C219 1.366 1_554 S
C220 C224 1.385 . S
C221 H196 0.951 . S
C221 C219 1.388 . S
C221 C222 1.366 1_556 S
C222 C221 1.366 1_554 S
C222 C223 1.414 . S
C222 C225 1.499 . S
C223 H197 0.950 . S
C223 C222 1.414 . S
C223 C224 1.374 . S
C224 H198 0.950 . S
C224 C220 1.385 . S
C224 C223 1.374 . S
C225 C222 1.499 . S
C225 C226 1.373 . S
C225 C227 1.389 . S
C226 H199 0.950 . S
C226 C212 1.377 . S
C226 C225 1.373 . S
C227 C211 1.377 . S
C227 C225 1.389 . S
C227 C228 1.524 . S
C228 C227 1.524 . S
C228 C229 1.397 . S
C228 C233 1.363 1_554 S
C229 H200 0.950 . S
C229 C228 1.397 . S
C229 C230 1.334 . S
C230 H201 0.950 . S
C230 C229 1.334 . S
C230 C231 1.287 . S
C231 C230 1.287 . S
C231 C232 1.524 1_554 S
C231 H234 0.999 . S
C232 H202 0.950 . S
C232 C231 1.524 1_556 S
C232 C233 1.415 . S
C233 H203 0.950 . S
C233 C228 1.363 1_556 S
C233 C232 1.415 . S
H234 C231 0.999 . S
H235 C216 0.913 . S
H236 C254 0.952 . S
H237 C256 0.945 . S
H238 C258 0.950 . S
H239 C259 0.950 . S
H240 C261 0.950 . S
H241 C264 0.950 . S
H242 C265 0.950 . S
H243 C267 0.950 . S
H244 C268 0.950 . S
H245 C269 0.951 . S
H246 C271 0.951 . S
H247 C273 0.950 . S
H248 C274 0.950 . S
H249 C276 0.950 . S
H250 C279 0.950 . S
H251 C280 0.950 . S
H252 C282 0.950 . S
H253 C283 0.950 . S
C254 H236 0.952 . S
C254 C255 1.373 1_556 S
C254 C256 1.384 1_556 S
C255 C254 1.373 1_554 S
C255 C259 1.386 . S
C256 H237 0.945 . S
C256 C254 1.384 1_554 S
C256 C257 1.366 . S
C257 C256 1.366 . S
C257 C258 1.414 . S
C257 C260 1.499 . S
C258 H238 0.950 . S
C258 C257 1.414 . S
C258 C259 1.374 . S
C259 H239 0.950 . S
C259 C255 1.386 . S
C259 C258 1.374 . S
C260 C257 1.499 . S
C260 C261 1.373 1_554 S
C260 C262 1.389 . S
C261 H240 0.950 . S
C261 C260 1.373 1_556 S
C261 C277 1.377 . S
C262 C260 1.389 . S
C262 C263 1.524 . S
C262 C276 1.377 . S
C263 C262 1.524 . S
C263 C264 1.397 . S
C263 C268 1.363 . S
C264 H241 0.950 . S
C264 C263 1.397 . S
C264 C265 1.334 . S
C265 H242 0.950 . S
C265 C264 1.334 . S
C265 C266 1.287 . S
C266 C265 1.287 . S
C266 C267 1.524 . S
C266 H285 0.913 . S
C267 H243 0.950 . S
C267 C266 1.524 . S
C267 C268 1.415 . S
C268 H244 0.950 . S
C268 C263 1.363 . S
C268 C267 1.415 . S
C269 H245 0.951 . S
C269 C270 1.366 . S
C269 C271 1.388 . S
C270 C269 1.366 . S
C270 C274 1.385 . S
C271 H246 0.951 . S
C271 C269 1.388 . S
C271 C272 1.366 . S
C272 C271 1.366 . S
C272 C273 1.414 . S
C272 C275 1.499 . S
C273 H247 0.950 . S
C273 C272 1.414 . S
C273 C274 1.374 . S
C274 H248 0.950 . S
C274 C270 1.385 . S
C274 C273 1.374 . S
C275 C272 1.499 . S
C275 C276 1.373 . S
C275 C277 1.389 1_554 S
C276 H249 0.950 . S
C276 C262 1.377 . S
C276 C275 1.373 . S
C277 C261 1.377 . S
C277 C275 1.389 1_556 S
C277 C278 1.524 . S
C278 C277 1.524 . S
C278 C279 1.397 . S
C278 C283 1.363 . S
C279 H250 0.950 . S
C279 C278 1.397 . S
C279 C280 1.334 . S
C280 H251 0.950 . S
C280 C279 1.334 . S
C280 C281 1.287 . S
C281 C280 1.287 . S
C281 C282 1.524 . S
C281 H284 0.999 . S
C282 H252 0.950 . S
C282 C281 1.524 . S
C282 C283 1.415 . S
C283 H253 0.950 . S
C283 C278 1.363 . S
C283 C282 1.415 . S
H284 C281 0.999 . S
H285 C266 0.913 . S
H286 C304 0.951 . S
H287 C306 0.951 . S
H288 C308 0.950 . S
H289 C309 0.950 . S
H290 C311 0.950 . S
H291 C314 0.950 . S
H292 C315 0.950 . S
H293 C317 0.950 . S
H294 C318 0.950 . S
H295 C319 0.947 1_554 S
H296 C321 0.951 1_554 S
H297 C323 0.950 . S
H298 C324 0.950 . S
H299 C326 0.950 . S
H300 C329 0.950 . S
H301 C330 0.950 . S
H302 C332 0.950 . S
H303 C333 0.950 . S
C304 H286 0.951 . S
C304 C305 1.366 . S
C304 C306 1.388 . S
C305 C304 1.366 . S
C305 C309 1.385 1_556 S
C306 H287 0.951 . S
C306 C304 1.388 . S
C306 C307 1.366 . S
C307 C306 1.366 . S
C307 C308 1.414 1_556 S
C307 C310 1.499 . S
C308 H288 0.950 . S
C308 C307 1.414 1_554 S
C308 C309 1.374 . S
C309 H289 0.950 . S
C309 C305 1.385 1_554 S
C309 C308 1.374 . S
C310 C307 1.499 . S
C310 C311 1.373 . S
C310 C312 1.389 . S
C311 H290 0.950 . S
C311 C310 1.373 . S
C311 C327 1.377 . S
C312 C310 1.389 . S
C312 C313 1.524 1_556 S
C312 C326 1.377 . S
C313 C312 1.524 1_554 S
C313 C314 1.397 . S
C313 C318 1.363 1_554 S
C314 H291 0.950 . S
C314 C313 1.397 . S
C314 C315 1.334 . S
C315 H292 0.950 . S
C315 C314 1.334 . S
C315 C316 1.287 . S
C316 C315 1.287 . S
C316 C317 1.524 . S
C316 H335 0.913 . S
C317 H293 0.950 . S
C317 C316 1.524 . S
C317 C318 1.415 1_554 S
C318 H294 0.950 . S
C318 C313 1.363 1_556 S
C318 C317 1.415 1_556 S
C319 H295 0.947 1_556 S
C319 C320 1.366 . S
C319 C321 1.388 . S
C320 C319 1.366 . S
C320 C324 1.385 . S
C321 H296 0.951 1_556 S
C321 C319 1.388 . S
C321 C322 1.366 . S
C322 C321 1.366 . S
C322 C323 1.414 . S
C322 C325 1.499 . S
C323 H297 0.950 . S
C323 C322 1.414 . S
C323 C324 1.374 . S
C324 H298 0.950 . S
C324 C320 1.385 . S
C324 C323 1.374 . S
C325 C322 1.499 . S
C325 C326 1.373 . S
C325 C327 1.389 . S
C326 H299 0.950 . S
C326 C312 1.377 . S
C326 C325 1.373 . S
C327 C311 1.377 . S
C327 C325 1.389 . S
C327 C328 1.524 . S
C328 C327 1.524 . S
C328 C329 1.397 . S
C328 C333 1.363 . S
C329 H300 0.950 . S
C329 C328 1.397 . S
C329 C330 1.334 . S
C330 H301 0.950 . S
C330 C329 1.334 . S
C330 C331 1.287 . S
C331 C330 1.287 . S
C331 C332 1.524 . S
C331 H334 0.999 . S
C332 H302 0.950 . S
C332 C331 1.524 . S
C332 C333 1.415 . S
C333 H303 0.950 . S
C333 C328 1.363 . S
C333 C332 1.415 . S
H334 C331 0.999 . S
H335 C316 0.913 . S
H336 C354 0.951 . S
H337 C356 0.951 . S
H338 C358 0.950 . S
H339 C359 0.950 . S
H340 C361 0.950 . S
H341 C364 0.950 . S
H342 C365 0.950 . S
H343 C367 0.950 . S
H344 C368 0.950 . S
H345 C369 0.951 . S
H346 C371 0.951 . S
H347 C373 0.950 . S
H348 C374 0.950 . S
H349 C376 0.950 . S
H350 C379 0.950 . S
H351 C380 0.950 . S
H352 C382 0.950 . S
H353 C383 0.950 . S
C354 H336 0.951 . S
C354 C355 1.366 . S
C354 C356 1.388 . S
C355 C354 1.366 . S
C355 C359 1.385 . S
C356 H337 0.951 . S
C356 C354 1.388 . S
C356 C357 1.366 . S
C357 C356 1.366 . S
C357 C358 1.414 . S
C357 C360 1.499 . S
C358 H338 0.950 . S
C358 C357 1.414 . S
C358 C359 1.374 . S
C359 H339 0.950 . S
C359 C355 1.385 . S
C359 C358 1.374 . S
C360 C357 1.499 . S
C360 C361 1.373 . S
C360 C362 1.389 . S
C361 H340 0.950 . S
C361 C360 1.373 . S
C361 C377 1.377 . S
C362 C360 1.389 . S
C362 C363 1.524 . S
C362 C376 1.377 . S
C363 C362 1.524 . S
C363 C364 1.397 . S
C363 C368 1.363 . S
C364 H341 0.950 . S
C364 C363 1.397 . S
C364 C365 1.334 . S
C365 H342 0.950 . S
C365 C364 1.334 . S
C365 C366 1.287 . S
C366 C365 1.287 . S
C366 C367 1.524 . S
C366 H385 0.913 . S
C367 H343 0.950 . S
C367 C366 1.524 . S
C367 C368 1.415 . S
C368 H344 0.950 . S
C368 C363 1.363 . S
C368 C367 1.415 . S
C369 H345 0.951 . S
C369 C370 1.366 . S
C369 C371 1.388 . S
C370 C369 1.366 . S
C370 C374 1.385 . S
C371 H346 0.951 . S
C371 C369 1.388 . S
C371 C372 1.366 . S
C372 C371 1.366 . S
C372 C373 1.414 . S
C372 C375 1.499 . S
C373 H347 0.950 . S
C373 C372 1.414 . S
C373 C374 1.374 . S
C374 H348 0.950 . S
C374 C370 1.385 . S
C374 C373 1.374 . S
C375 C372 1.499 . S
C375 C376 1.373 . S
C375 C377 1.389 . S
C376 H349 0.950 . S
C376 C362 1.377 . S
C376 C375 1.373 . S
C377 C361 1.377 . S
C377 C375 1.389 . S
C377 C378 1.524 . S
C378 C377 1.524 . S
C378 C379 1.397 . S
C378 C383 1.363 . S
C379 H350 0.950 . S
C379 C378 1.397 . S
C379 C380 1.334 . S
C380 H351 0.950 . S
C380 C379 1.334 . S
C380 C381 1.287 . S
C381 C380 1.287 . S
C381 C382 1.524 . S
C381 H384 0.999 . S
C382 H352 0.950 . S
C382 C381 1.524 . S
C382 C383 1.415 . S
C383 H353 0.950 . S
C383 C378 1.363 . S
C383 C382 1.415 . S
H384 C381 0.999 . S
H385 C366 0.913 . S
H386 C404 0.951 . S
H387 C406 0.951 . S
H388 C408 0.950 . S
H389 C409 0.950 . S
H390 C411 0.950 . S
H391 C414 0.950 . S
H392 C415 0.950 . S
H393 C417 0.950 . S
H394 C418 0.950 . S
H395 C419 0.951 . S
H396 C421 0.951 . S
H397 C423 0.950 . S
H398 C424 0.950 . S
H399 C426 0.950 . S
H400 C429 0.950 . S
H401 C430 0.950 . S
H402 C432 0.950 . S
H403 C433 0.950 . S
C404 H386 0.951 . S
C404 C405 1.366 . S
C404 C406 1.388 . S
C405 C404 1.366 . S
C405 C409 1.385 . S
C406 H387 0.951 . S
C406 C404 1.388 . S
C406 C407 1.366 . S
C407 C406 1.366 . S
C407 C408 1.414 . S
C407 C410 1.499 . S
C408 H388 0.950 . S
C408 C407 1.414 . S
C408 C409 1.374 . S
C409 H389 0.950 . S
C409 C405 1.385 . S
C409 C408 1.374 . S
C410 C407 1.499 . S
C410 C411 1.373 . S
C410 C412 1.389 . S
C411 H390 0.950 . S
C411 C410 1.373 . S
C411 C427 1.377 . S
C412 C410 1.389 . S
C412 C413 1.524 . S
C412 C426 1.377 . S
C413 C412 1.524 . S
C413 C414 1.397 . S
C413 C418 1.363 . S
C414 H391 0.950 . S
C414 C413 1.397 . S
C414 C415 1.334 . S
C415 H392 0.950 . S
C415 C414 1.334 . S
C415 C416 1.287 . S
C416 C415 1.287 . S
C416 C417 1.524 . S
C416 H435 0.913 . S
C417 H393 0.950 . S
C417 C416 1.524 . S
C417 C418 1.415 . S
C418 H394 0.950 . S
C418 C413 1.363 . S
C418 C417 1.415 . S
C419 H395 0.951 . S
C419 C420 1.366 . S
C419 C421 1.388 . S
C420 C419 1.366 . S
C420 C424 1.385 . S
C421 H396 0.951 . S
C421 C419 1.388 . S
C421 C422 1.366 . S
C422 C421 1.366 . S
C422 C423 1.414 . S
C422 C425 1.499 . S
C423 H397 0.950 . S
C423 C422 1.414 . S
C423 C424 1.374 . S
C424 H398 0.950 . S
C424 C420 1.385 . S
C424 C423 1.374 . S
C425 C422 1.499 . S
C425 C426 1.373 . S
C425 C427 1.389 . S
C426 H399 0.950 . S
C426 C412 1.377 . S
C426 C425 1.373 . S
C427 C411 1.377 . S
C427 C425 1.389 . S
C427 C428 1.524 . S
C428 C427 1.524 . S
C428 C429 1.397 . S
C428 C433 1.363 . S
C429 H400 0.950 . S
C429 C428 1.397 . S
C429 C430 1.334 . S
C430 H401 0.950 . S
C430 C429 1.334 . S
C430 C431 1.287 . S
C431 C430 1.287 . S
C431 C432 1.524 . S
C431 H434 0.999 . S
C432 H402 0.950 . S
C432 C431 1.524 . S
C432 C433 1.415 . S
C433 H403 0.950 . S
C433 C428 1.363 . S
C433 C432 1.415 . S
H434 C431 0.999 . S
H435 C416 0.913 . S
H436 C454 0.951 . S
H437 C456 0.951 . S
H438 C458 0.950 . S
H439 C459 0.950 . S
H440 C461 0.950 . S
H441 C464 0.950 . S
H442 C465 0.950 . S
H443 C467 0.950 . S
H444 C468 0.950 . S
H445 C469 0.951 . S
H446 C471 0.951 . S
H447 C473 0.950 . S
H448 C474 0.950 . S
H449 C476 0.950 . S
H450 C479 0.950 . S
H451 C480 0.950 . S
H452 C482 0.950 . S
H453 C483 0.950 . S
C454 H436 0.951 . S
C454 C455 1.366 . S
C454 C456 1.388 . S
C455 C454 1.366 . S
C455 C459 1.385 . S
C456 H437 0.951 . S
C456 C454 1.388 . S
C456 C457 1.366 . S
C457 C456 1.366 . S
C457 C458 1.414 . S
C457 C460 1.499 . S
C458 H438 0.950 . S
C458 C457 1.414 . S
C458 C459 1.374 . S
C459 H439 0.950 . S
C459 C455 1.385 . S
C459 C458 1.374 . S
C460 C457 1.499 . S
C460 C461 1.373 . S
C460 C462 1.389 . S
C461 H440 0.950 . S
C461 C460 1.373 . S
C461 C477 1.377 . S
C462 C460 1.389 . S
C462 C463 1.524 . S
C462 C476 1.377 . S
C463 C462 1.524 . S
C463 C464 1.397 . S
C463 C468 1.363 . S
C464 H441 0.950 . S
C464 C463 1.397 . S
C464 C465 1.334 . S
C465 H442 0.950 . S
C465 C464 1.334 . S
C465 C466 1.287 . S
C466 C465 1.287 . S
C466 C467 1.524 . S
C466 H485 0.913 . S
C467 H443 0.950 . S
C467 C466 1.524 . S
C467 C468 1.415 . S
C468 H444 0.950 . S
C468 C463 1.363 . S
C468 C467 1.415 . S
C469 H445 0.951 . S
C469 C470 1.366 . S
C469 C471 1.388 . S
C470 C469 1.366 . S
C470 C474 1.385 . S
C471 H446 0.951 . S
C471 C469 1.388 . S
C471 C472 1.366 . S
C472 C471 1.366 . S
C472 C473 1.414 . S
C472 C475 1.499 . S
C473 H447 0.950 . S
C473 C472 1.414 . S
C473 C474 1.374 . S
C474 H448 0.950 . S
C474 C470 1.385 . S
C474 C473 1.374 . S
C475 C472 1.499 . S
C475 C476 1.373 . S
C475 C477 1.389 . S
C476 H449 0.950 . S
C476 C462 1.377 . S
C476 C475 1.373 . S
C477 C461 1.377 . S
C477 C475 1.389 . S
C477 C478 1.524 . S
C478 C477 1.524 . S
C478 C479 1.397 . S
C478 C483 1.363 . S
C479 H450 0.950 . S
C479 C478 1.397 . S
C479 C480 1.334 . S
C480 H451 0.950 . S
C480 C479 1.334 . S
C480 C481 1.287 . S
C481 C480 1.287 . S
C481 C482 1.524 . S
C481 H484 0.999 . S
C482 H452 0.950 . S
C482 C481 1.524 . S
C482 C483 1.415 . S
C483 H453 0.950 . S
C483 C478 1.363 . S
C483 C482 1.415 . S
H484 C481 0.999 . S
H485 C466 0.913 . S
H486 C504 0.951 . S
H487 C506 0.951 . S
H488 C508 0.950 . S
H489 C509 0.950 . S
H490 C511 0.950 . S
H491 C514 0.950 . S
H492 C515 0.950 . S
H493 C517 0.950 . S
H494 C518 0.950 . S
H495 C519 0.951 . S
H496 C521 0.951 . S
H497 C523 0.950 . S
H498 C524 0.950 . S
H499 C526 0.950 . S
H500 C529 0.950 . S
H501 C530 0.950 . S
H502 C532 0.950 . S
H503 C533 0.950 . S
C504 H486 0.951 . S
C504 C505 1.366 . S
C504 C506 1.388 . S
C505 C504 1.366 . S
C505 C509 1.385 . S
C506 H487 0.951 . S
C506 C504 1.388 . S
C506 C507 1.366 . S
C507 C506 1.366 . S
C507 C508 1.414 . S
C507 C510 1.499 . S
C508 H488 0.950 . S
C508 C507 1.414 . S
C508 C509 1.374 . S
C509 H489 0.950 . S
C509 C505 1.385 . S
C509 C508 1.374 . S
C510 C507 1.499 . S
C510 C511 1.373 . S
C510 C512 1.389 . S
C511 H490 0.950 . S
C511 C510 1.373 . S
C511 C527 1.377 . S
C512 C510 1.389 . S
C512 C513 1.524 . S
C512 C526 1.377 . S
C513 C512 1.524 . S
C513 C514 1.397 . S
C513 C518 1.363 . S
C514 H491 0.950 . S
C514 C513 1.397 . S
C514 C515 1.334 . S
C515 H492 0.950 . S
C515 C514 1.334 . S
C515 C516 1.287 . S
C516 C515 1.287 . S
C516 C517 1.524 . S
C516 H535 0.913 . S
C517 H493 0.950 . S
C517 C516 1.524 . S
C517 C518 1.415 . S
C518 H494 0.950 . S
C518 C513 1.363 . S
C518 C517 1.415 . S
C519 H495 0.951 . S
C519 C520 1.366 . S
C519 C521 1.388 . S
C520 C519 1.366 . S
C520 C524 1.385 . S
C521 H496 0.951 . S
C521 C519 1.388 . S
C521 C522 1.366 . S
C522 C521 1.366 . S
C522 C523 1.414 . S
C522 C525 1.499 . S
C523 H497 0.950 . S
C523 C522 1.414 . S
C523 C524 1.374 . S
C524 H498 0.950 . S
C524 C520 1.385 . S
C524 C523 1.374 . S
C525 C522 1.499 . S
C525 C526 1.373 . S
C525 C527 1.389 . S
C526 H499 0.950 . S
C526 C512 1.377 . S
C526 C525 1.373 . S
C527 C511 1.377 . S
C527 C525 1.389 . S
C527 C528 1.524 . S
C528 C527 1.524 . S
C528 C529 1.397 . S
C528 C533 1.363 . S
C529 H500 0.950 . S
C529 C528 1.397 . S
C529 C530 1.334 . S
C530 H501 0.950 . S
C530 C529 1.334 . S
C530 C531 1.287 . S
C531 C530 1.287 . S
C531 C532 1.524 . S
C531 H534 0.999 . S
C532 H502 0.950 . S
C532 C531 1.524 . S
C532 C533 1.415 . S
C533 H503 0.950 . S
C533 C528 1.363 . S
C533 C532 1.415 . S
H534 C531 0.999 . S
H535 C516 0.913 . S
H536 C554 0.951 . S
H537 C556 0.951 . S
H538 C558 0.950 1_655 S
H539 C559 0.950 1_655 S
H540 C561 0.950 . S
H541 C564 0.950 . S
H542 C565 0.950 . S
H543 C567 0.950 . S
H544 C568 0.950 . S
H545 C569 0.951 1_655 S
H546 C571 0.951 1_655 S
H547 C573 0.950 . S
H548 C574 0.950 . S
H549 C576 0.950 . S
H550 C579 0.950 . S
H551 C580 0.950 . S
H552 C582 0.950 . S
H553 C583 0.950 . S
C554 H536 0.951 . S
C554 C555 1.359 1_565 S
C554 C556 1.388 . S
C555 C554 1.359 1_545 S
C555 C559 1.390 . S
C556 H537 0.951 . S
C556 C554 1.388 . S
C556 C557 1.366 . S
C557 C556 1.366 . S
C557 C558 1.414 1_565 S
C557 C560 1.499 . S
C558 H538 0.950 1_455 S
C558 C557 1.414 1_545 S
C558 C559 1.374 . S
C559 H539 0.950 1_455 S
C559 C555 1.390 . S
C559 C558 1.374 . S
C560 C557 1.499 . S
C560 C561 1.373 1_565 S
C560 C562 1.389 . S
C561 H540 0.950 . S
C561 C560 1.373 1_545 S
C561 C577 1.377 . S
C562 C560 1.389 . S
C562 C563 1.524 . S
C562 C576 1.377 . S
C563 C562 1.524 . S
C563 C564 1.397 . S
C563 C568 1.363 . S
C564 H541 0.950 . S
C564 C563 1.397 . S
C564 C565 1.334 . S
C565 H542 0.950 . S
C565 C564 1.334 . S
C565 C566 1.287 . S
C566 C565 1.287 . S
C566 C567 1.524 . S
C566 H585 0.913 . S
C567 H543 0.950 . S
C567 C566 1.524 . S
C567 C568 1.415 . S
C568 H544 0.950 . S
C568 C563 1.363 . S
C568 C567 1.415 . S
C569 H545 0.951 1_455 S
C569 C570 1.370 . S
C569 C571 1.388 . S
C570 C569 1.370 . S
C570 C574 1.381 1_545 S
C571 H546 0.951 1_455 S
C571 C569 1.388 . S
C571 C572 1.366 . S
C572 C571 1.366 . S
C572 C573 1.414 1_545 S
C572 C575 1.499 . S
C573 H547 0.950 . S
C573 C572 1.414 1_565 S
C573 C574 1.374 . S
C574 H548 0.950 . S
C574 C570 1.381 1_565 S
C574 C573 1.374 . S
C575 C572 1.499 . S
C575 C576 1.373 1_545 S
C575 C577 1.389 . S
C576 H549 0.950 . S
C576 C562 1.377 . S
C576 C575 1.373 1_565 S
C577 C561 1.377 . S
C577 C575 1.389 . S
C577 C578 1.524 . S
C578 C577 1.524 . S
C578 C579 1.397 . S
C578 C583 1.363 1_455 S
C579 H550 0.950 . S
C579 C578 1.397 . S
C579 C580 1.334 . S
C580 H551 0.950 . S
C580 C579 1.334 . S
C580 C581 1.294 . S
C581 C580 1.294 . S
C581 C582 1.520 1_455 S
C581 H584 0.995 1_455 S
C582 H552 0.950 . S
C582 C581 1.520 1_655 S
C582 C583 1.415 . S
C583 H553 0.950 . S
C583 C578 1.363 1_655 S
C583 C582 1.415 . S
H584 C581 0.995 1_655 S
H585 C566 0.913 . S
H586 C604 0.951 . S
H587 C606 0.951 . S
H588 C608 0.950 . S
H589 C609 0.950 . S
H590 C611 0.950 . S
H591 C614 0.950 . S
H592 C615 0.950 . S
H593 C617 0.950 . S
H594 C618 0.950 . S
H595 C619 0.951 . S
H596 C621 0.951 . S
H597 C623 0.950 . S
H598 C624 0.950 . S
H599 C626 0.952 . S
H600 C629 0.950 . S
H601 C630 0.950 . S
H602 C632 0.950 . S
H603 C633 0.950 . S
C604 H586 0.951 . S
C604 C605 1.366 . S
C604 C606 1.388 . S
C605 C604 1.366 . S
C605 C609 1.385 1_445 S
C606 H587 0.951 . S
C606 C604 1.388 . S
C606 C607 1.366 . S
C607 C606 1.366 . S
C607 C608 1.414 1_445 S
C607 C610 1.499 1_455 S
C608 H588 0.950 . S
C608 C607 1.414 1_665 S
C608 C609 1.374 . S
C609 H589 0.950 . S
C609 C605 1.385 1_665 S
C609 C608 1.374 . S
C610 C607 1.499 1_655 S
C610 C611 1.373 1_545 S
C610 C612 1.389 . S
C611 H590 0.950 . S
C611 C610 1.373 1_565 S
C611 C627 1.377 . S
C612 C610 1.389 . S
C612 C613 1.524 . S
C612 C626 1.371 1_655 S
C613 C612 1.524 . S
C613 C614 1.397 . S
C613 C618 1.363 1_655 S
C614 H591 0.950 . S
C614 C613 1.397 . S
C614 C615 1.334 . S
C615 H592 0.950 . S
C615 C614 1.334 . S
C615 C616 1.287 . S
C616 C615 1.287 . S
C616 C617 1.524 1_655 S
C616 H635 0.913 . S
C617 H593 0.950 . S
C617 C616 1.524 1_455 S
C617 C618 1.415 . S
C618 H594 0.950 . S
C618 C613 1.363 1_455 S
C618 C617 1.415 . S
C619 H595 0.951 . S
C619 C620 1.366 1_565 S
C619 C621 1.388 . S
C620 C619 1.366 1_545 S
C620 C624 1.385 1_655 S
C621 H596 0.951 . S
C621 C619 1.388 . S
C621 C622 1.366 1_565 S
C622 C621 1.366 1_545 S
C622 C623 1.414 1_655 S
C622 C625 1.499 . S
C623 H597 0.950 . S
C623 C622 1.414 1_455 S
C623 C624 1.374 . S
C624 H598 0.950 . S
C624 C620 1.385 1_455 S
C624 C623 1.374 . S
C625 C622 1.499 . S
C625 C626 1.378 1_655 S
C625 C627 1.389 1_545 S
C626 H599 0.952 . S
C626 C612 1.371 1_455 S
C626 C625 1.378 1_455 S
C627 C611 1.377 . S
C627 C625 1.389 1_565 S
C627 C628 1.524 . S
C628 C627 1.524 . S
C628 C629 1.397 1_655 S
C628 C633 1.363 . S
C629 H600 0.950 . S
C629 C628 1.397 1_455 S
C629 C630 1.334 . S
C630 H601 0.950 . S
C630 C629 1.334 . S
C630 C631 1.287 . S
C631 C630 1.287 . S
C631 C632 1.524 1_455 S
C631 H634 0.999 . S
C632 H602 0.950 . S
C632 C631 1.524 1_655 S
C632 C633 1.415 . S
C633 H603 0.950 . S
C633 C628 1.363 . S
C633 C632 1.415 . S
H634 C631 0.999 . S
H635 C616 0.913 . S
H636 C654 0.951 . S
H637 C656 0.951 . S
H638 C658 0.950 . S
H639 C659 0.950 . S
H640 C661 0.950 . S
H641 C664 0.950 . S
H642 C665 0.950 . S
H643 C667 0.950 . S
H644 C668 0.950 . S
H645 C669 0.951 . S
H646 C671 0.951 . S
H647 C673 0.950 . S
H648 C674 0.950 . S
H649 C676 0.950 . S
H650 C679 0.950 . S
H651 C680 0.950 . S
H652 C682 0.950 . S
H653 C683 0.950 . S
C654 H636 0.951 . S
C654 C655 1.366 . S
C654 C656 1.388 . S
C655 C654 1.366 . S
C655 C659 1.385 . S
C656 H637 0.951 . S
C656 C654 1.388 . S
C656 C657 1.366 . S
C657 C656 1.366 . S
C657 C658 1.414 . S
C657 C660 1.499 . S
C658 H638 0.950 . S
C658 C657 1.414 . S
C658 C659 1.374 . S
C659 H639 0.950 . S
C659 C655 1.385 . S
C659 C658 1.374 . S
C660 C657 1.499 . S
C660 C661 1.373 . S
C660 C662 1.389 . S
C661 H640 0.950 . S
C661 C660 1.373 . S
C661 C677 1.377 . S
C662 C660 1.389 . S
C662 C663 1.524 . S
C662 C676 1.377 . S
C663 C662 1.524 . S
C663 C664 1.397 . S
C663 C668 1.363 . S
C664 H641 0.950 . S
C664 C663 1.397 . S
C664 C665 1.334 . S
C665 H642 0.950 . S
C665 C664 1.334 . S
C665 C666 1.287 . S
C666 C665 1.287 . S
C666 C667 1.524 . S
C666 H685 0.913 . S
C667 H643 0.950 . S
C667 C666 1.524 . S
C667 C668 1.415 . S
C668 H644 0.950 . S
C668 C663 1.363 . S
C668 C667 1.415 . S
C669 H645 0.951 . S
C669 C670 1.366 . S
C669 C671 1.388 . S
C670 C669 1.366 . S
C670 C674 1.385 . S
C671 H646 0.951 . S
C671 C669 1.388 . S
C671 C672 1.366 . S
C672 C671 1.366 . S
C672 C673 1.414 . S
C672 C675 1.499 . S
C673 H647 0.950 . S
C673 C672 1.414 . S
C673 C674 1.374 . S
C674 H648 0.950 . S
C674 C670 1.385 . S
C674 C673 1.374 . S
C675 C672 1.499 . S
C675 C676 1.373 . S
C675 C677 1.389 . S
C676 H649 0.950 . S
C676 C662 1.377 . S
C676 C675 1.373 . S
C677 C661 1.377 . S
C677 C675 1.389 . S
C677 C678 1.524 . S
C678 C677 1.524 . S
C678 C679 1.397 . S
C678 C683 1.363 . S
C679 H650 0.950 . S
C679 C678 1.397 . S
C679 C680 1.334 . S
C680 H651 0.950 . S
C680 C679 1.334 . S
C680 C681 1.287 . S
C681 C680 1.287 . S
C681 C682 1.524 . S
C681 H684 0.999 . S
C682 H652 0.950 . S
C682 C681 1.524 . S
C682 C683 1.415 . S
C683 H653 0.950 . S
C683 C678 1.363 . S
C683 C682 1.415 . S
H684 C681 0.999 . S
H685 C666 0.913 . S
H686 C704 0.951 . S
H687 C706 0.951 . S
H688 C708 0.950 . S
H689 C709 0.950 . S
H690 C711 0.950 . S
H691 C714 0.950 . S
H692 C715 0.950 . S
H693 C717 0.950 . S
H694 C718 0.950 . S
H695 C719 0.951 . S
H696 C721 0.951 . S
H697 C723 0.950 . S
H698 C724 0.950 . S
H699 C726 0.950 . S
H700 C729 0.950 . S
H701 C730 0.950 . S
H702 C732 0.950 . S
H703 C733 0.950 . S
C704 H686 0.951 . S
C704 C705 1.366 . S
C704 C706 1.388 . S
C705 C704 1.366 . S
C705 C709 1.385 . S
C706 H687 0.951 . S
C706 C704 1.388 . S
C706 C707 1.366 . S
C707 C706 1.366 . S
C707 C708 1.414 . S
C707 C710 1.499 . S
C708 H688 0.950 . S
C708 C707 1.414 . S
C708 C709 1.374 . S
C709 H689 0.950 . S
C709 C705 1.385 . S
C709 C708 1.374 . S
C710 C707 1.499 . S
C710 C711 1.373 . S
C710 C712 1.389 . S
C711 H690 0.950 . S
C711 C710 1.373 . S
C711 C727 1.377 . S
C712 C710 1.389 . S
C712 C713 1.524 . S
C712 C726 1.377 . S
C713 C712 1.524 . S
C713 C714 1.397 . S
C713 C718 1.363 . S
C714 H691 0.950 . S
C714 C713 1.397 . S
C714 C715 1.334 . S
C715 H692 0.950 . S
C715 C714 1.334 . S
C715 C716 1.287 . S
C716 C715 1.287 . S
C716 C717 1.524 . S
C716 H735 0.913 . S
C717 H693 0.950 . S
C717 C716 1.524 . S
C717 C718 1.415 . S
C718 H694 0.950 . S
C718 C713 1.363 . S
C718 C717 1.415 . S
C719 H695 0.951 . S
C719 C720 1.366 . S
C719 C721 1.388 . S
C720 C719 1.366 . S
C720 C724 1.385 . S
C721 H696 0.951 . S
C721 C719 1.388 . S
C721 C722 1.366 . S
C722 C721 1.366 . S
C722 C723 1.414 . S
C722 C725 1.499 . S
C723 H697 0.950 . S
C723 C722 1.414 . S
C723 C724 1.374 . S
C724 H698 0.950 . S
C724 C720 1.385 . S
C724 C723 1.374 . S
C725 C722 1.499 . S
C725 C726 1.373 . S
C725 C727 1.389 . S
C726 H699 0.950 . S
C726 C712 1.377 . S
C726 C725 1.373 . S
C727 C711 1.377 . S
C727 C725 1.389 . S
C727 C728 1.524 . S
C728 C727 1.524 . S
C728 C729 1.397 . S
C728 C733 1.363 . S
C729 H700 0.950 . S
C729 C728 1.397 . S
C729 C730 1.334 . S
C730 H701 0.950 . S
C730 C729 1.334 . S
C730 C731 1.287 . S
C731 C730 1.287 . S
C731 C732 1.524 . S
C731 H734 0.999 . S
C732 H702 0.950 . S
C732 C731 1.524 . S
C732 C733 1.415 . S
C733 H703 0.950 . S
C733 C728 1.363 . S
C733 C732 1.415 . S
H734 C731 0.999 . S
H735 C716 0.913 . S
C170 C123 1.518 . S
C155 C27 1.543 . S
C205 N6 1.324 . S
C220 C109 1.337 . S
C255 C16 1.392 . S
C270 C128 1.358 . S
C305 N14 1.503 1_556 S
C320 C104 1.514 . S
C355 C57 1.543 . S
C370 C85 1.518 . S
C405 N36 1.324 . S
C420 C71 1.338 . S
C470 C90 1.358 . S
C455 C46 1.395 . S
C520 C66 1.514 . S
C505 N44 1.504 . S
C555 C10 1.524 . S
C570 C62 1.513 1_545 S
C605 C1 1.561 . S
C620 C81 1.550 . S
C670 C100 1.515 . S
C655 C40 1.524 . S
C705 C31 1.561 . S
C720 C119 1.550 . S
