# Generated by pormake.
# Topology anh, (6,3)-cn, num edge types: 1
# Building blocks:
#     Node 0, Type 0, BuildingBlock: NUHQIS_clean_sbu_0, # of connection points: 6
#     Node 1, Type 0, BuildingBlock: NUHQIS_clean_sbu_0, # of connection points: 6
#     Node 2, Type 0, BuildingBlock: NUHQIS_clean_sbu_0, # of connection points: 6
#     Node 3, Type 1, BuildingBlock: ESEHIV_clean_linker_0, # of connection points: 3
#     Node 4, Type 1, BuildingBlock: ESEHIV_clean_linker_0, # of connection points: 3
#     Node 5, Type 1, BuildingBlock: ESEHIV_clean_linker_0, # of connection points: 3
#     Node 6, Type 1, BuildingBlock: ESEHIV_clean_linker_0, # of connection points: 3
#     Node 7, Type 1, BuildingBlock: ESEHIV_clean_linker_0, # of connection points: 3
#     Node 8, Type 1, BuildingBlock: ESEHIV_clean_linker_0, # of connection points: 3
#     Edge 9, Type (0, 1), BuildingBlock: XUDNAN_clean_linker_2, # of connection points: 2
#     Edge 10, Type (0, 1), BuildingBlock: XUDNAN_clean_linker_2, # of connection points: 2
#     Edge 11, Type (0, 1), BuildingBlock: XUDNAN_clean_linker_2, # of connection points: 2
#     Edge 12, Type (0, 1), BuildingBlock: XUDNAN_clean_linker_2, # of connection points: 2
#     Edge 13, Type (0, 1), BuildingBlock: XUDNAN_clean_linker_2, # of connection points: 2
#     Edge 14, Type (0, 1), BuildingBlock: XUDNAN_clean_linker_2, # of connection points: 2
#     Edge 15, Type (0, 1), BuildingBlock: XUDNAN_clean_linker_2, # of connection points: 2
#     Edge 16, Type (0, 1), BuildingBlock: XUDNAN_clean_linker_2, # of connection points: 2
#     Edge 17, Type (0, 1), BuildingBlock: XUDNAN_clean_linker_2, # of connection points: 2
#     Edge 18, Type (0, 1), BuildingBlock: XUDNAN_clean_linker_2, # of connection points: 2
#     Edge 19, Type (0, 1), BuildingBlock: XUDNAN_clean_linker_2, # of connection points: 2
#     Edge 20, Type (0, 1), BuildingBlock: XUDNAN_clean_linker_2, # of connection points: 2
#     Edge 21, Type (0, 1), BuildingBlock: XUDNAN_clean_linker_2, # of connection points: 2
#     Edge 22, Type (0, 1), BuildingBlock: XUDNAN_clean_linker_2, # of connection points: 2
#     Edge 23, Type (0, 1), BuildingBlock: XUDNAN_clean_linker_2, # of connection points: 2
#     Edge 24, Type (0, 1), BuildingBlock: XUDNAN_clean_linker_2, # of connection points: 2
#     Edge 25, Type (0, 1), BuildingBlock: XUDNAN_clean_linker_2, # of connection points: 2
#     Edge 26, Type (0, 1), BuildingBlock: XUDNAN_clean_linker_2, # of connection points: 2
# Relax obj value: 0.304
# Max RMSD: 0.198
# Mean RMSD: 0.163
data_MOF--net-anh--node1-NUHQIS_clean_sbu_0--node2-ESEHIV_clean_linker_0--edge1-XUDNAN_clean_linker_2
_symmetry_space_group_name_H-M    P1
_symmetry_Int_Tables_number       1
_symmetry_cell_setting            triclinic
loop_
_symmetry_equiv_pos_as_xyz
'x, y, z'
_cell_length_a     28.220067
_cell_length_b     28.382299
_cell_length_c     51.52352
_cell_angle_alpha  91.142506
_cell_angle_beta   91.797916
_cell_angle_gamma 119.93591
loop_
_atom_site_label
_atom_site_type_symbol
_atom_site_fract_x
_atom_site_fract_y
_atom_site_fract_z
_atom_type_partial_charge
Tb0 Tb 0.2366 0.64323 0.17818 0.0
Eu1 Eu 0.1705 0.70546 0.16913 0.0
C2 C 0.19788 0.68196 0.22554 0.0
C3 C 1.10297 0.57239 0.17559 0.0
C4 C 0.27131 0.53452 0.17332 0.0
C5 C 0.29056 0.46041 0.17301 0.0
C6 C 0.29841 0.50914 0.18418 0.0
C7 C 0.23367 0.50916 0.15215 0.0
C8 C 0.22602 0.46057 0.14085 0.0
C9 C 0.25563 0.43657 0.15072 0.0
C10 C 0.28349 0.58798 0.18373 0.0
O11 O 0.21635 0.63504 0.13561 0.0
O12 O 0.21446 0.71354 0.13262 0.0
O13 O 0.25824 0.77679 0.1783 0.0
O14 O 0.30588 0.73054 0.18069 0.0
C15 C 0.21925 0.6745 0.12143 0.0
O16 O 1.11841 0.72258 0.14371 0.0
O17 O 0.13981 0.75799 0.18304 0.0
O18 O 0.15912 0.67941 0.21009 0.0
O19 O 0.23963 0.68042 0.21606 0.0
O20 O 0.14996 0.57741 0.18455 0.0
O21 O 1.104 0.61451 0.16441 0.0
C22 C 0.30549 0.77739 0.1812 0.0
O23 O 0.297 0.62564 0.16678 0.0
O24 O 0.24832 0.58746 0.19961 0.0
C25 C 1.04816 0.72067 0.16692 0.0
C26 C 0.93494 0.64857 0.16699 0.0
C27 C 0.95694 0.68705 0.1477 0.0
C28 C 1.01322 0.7231 0.14775 0.0
C29 C 1.02565 0.68444 0.18718 0.0
C30 C 0.96922 0.64878 0.18729 0.0
C31 C 1.10692 0.7463 0.16248 0.0
H32 H 0.31466 0.44342 0.18078 0.0
H33 H 0.32719 0.52805 0.20069 0.0
H34 H 0.21177 0.52798 0.14379 0.0
H35 H 0.19892 0.44306 0.1237 0.0
H36 H 0.93088 0.68709 0.13181 0.0
H37 H 1.02983 0.75006 0.13177 0.0
H38 H 1.05187 0.681 0.20193 0.0
H39 H 0.9529 0.61889 0.20212 0.0
Tb40 Tb 0.70746 0.1203 0.5163 0.0
Eu41 Eu 0.59371 1.06156 0.48432 0.0
C42 C 0.59727 1.06501 0.54515 0.0
C43 C 0.65026 0.98886 0.50561 0.0
C44 C 0.83944 0.23339 0.53628 0.0
C45 C 0.91896 0.31763 0.55233 0.0
C46 C 0.88516 0.26117 0.55355 0.0
C47 C 0.82757 0.26229 0.51794 0.0
C48 C 0.86097 0.31826 0.51674 0.0
C49 C 0.90689 0.3467 0.53397 0.0
C50 C 0.80132 0.17507 0.53804 0.0
O51 O 0.71913 0.14683 0.47534 0.0
O52 O 0.65465 1.06774 0.45615 0.0
O53 O 0.61754 0.15295 0.48711 0.0
O54 O 0.68334 0.18417 0.52005 0.0
C55 C 0.69853 0.11468 0.45424 0.0
O56 O 0.50933 0.99611 0.47878 0.0
O57 O 0.54342 1.05988 0.45087 0.0
O58 O 0.57457 1.0731 0.52462 0.0
O59 O 0.64716 1.07265 0.54478 0.0
O60 O 0.69474 1.03555 0.51309 0.0
O61 O 0.60685 0.98968 0.49533 0.0
C62 C 0.64994 0.19214 0.5045 0.0
O63 O 0.75639 0.1637 0.54935 0.0
O64 O 0.79138 0.14614 0.51642 0.0
C65 C 0.44979 1.02367 0.46054 0.0
C66 C 0.35359 1.03012 0.46394 0.0
C67 C 0.35474 0.9832 0.47129 0.0
C68 C 0.40211 0.98 0.46954 0.0
C69 C 0.4492 1.07102 0.45331 0.0
C70 C 0.40124 1.07404 0.45483 0.0
C71 C 0.49916 1.0185 0.45908 0.0
H72 H 0.95411 0.33857 0.56583 0.0
H73 H 0.89439 0.23937 0.56801 0.0
H74 H 0.79219 0.24152 0.50455 0.0
H75 H 0.85122 0.33909 0.50194 0.0
H76 H 0.31827 0.94782 0.47756 0.0
H77 H 0.40124 0.9429 0.475 0.0
H78 H 0.48546 0.10546 0.44628 0.0
H79 H 0.4012 0.1103 0.4487 0.0
Tb80 Tb 0.75433 0.69561 0.83482 0.0
Eu81 Eu 0.6924 0.56832 0.84077 0.0
C82 C 0.73341 0.64247 0.88847 0.0
C83 C 0.82821 0.63562 0.8407 0.0
C84 C 0.75776 0.82048 0.84214 0.0
C85 C 0.70955 0.86153 0.82173 0.0
C86 C 0.75699 0.85807 0.8252 0.0
C87 C 0.71362 0.79254 0.85834 0.0
C88 C 0.66594 0.79529 0.85459 0.0
C89 C 0.66215 0.82673 0.83486 0.0
C90 C 0.7919 0.7963 0.83631 0.0
O91 O 0.74862 0.66688 0.7942 0.0
O92 O 0.67758 0.58096 0.79882 0.0
O93 O 0.62764 0.59301 0.85089 0.0
O94 O 0.66607 0.6729 0.83008 0.0
C95 C 0.70896 0.62054 0.78388 0.0
O96 O 0.66543 0.48594 0.82657 0.0
O97 O 0.63644 0.49968 0.86327 0.0
O98 O 0.74335 0.6077 0.87684 0.0
O99 O 0.72324 0.67386 0.87387 0.0
O100 O 0.8254 0.68099 0.83902 0.0
O101 O 0.7825 0.58755 0.84032 0.0
C102 C 0.62359 0.63419 0.84177 0.0
O103 O 0.80097 0.7713 0.85514 0.0
O104 O 0.77612 0.76666 0.81476 0.0
C105 C 0.63304 0.41488 0.85654 0.0
C106 C 0.60906 0.30698 0.86117 0.0
C107 C 0.5722 0.32322 0.86955 0.0
C108 C 0.58422 0.37679 0.86725 0.0
C109 C 0.673 0.40082 0.85132 0.0
C110 C 0.66122 0.34714 0.85387 0.0
C111 C 0.6358 0.46411 0.8466 0.0
H112 H 0.70838 0.8877 0.80702 0.0
H113 H 0.79045 0.87998 0.81252 0.0
H114 H 0.71304 0.76326 0.87166 0.0
H115 H 0.63042 0.76832 0.86517 0.0
H116 H 0.53161 0.29375 0.87523 0.0
H117 H 0.55306 0.38714 0.87153 0.0
H118 H 0.71142 0.43003 0.8434 0.0
H119 H 0.69109 0.3362 0.84796 0.0
H120 H 0.64883 0.09736 0.26118 0.0
H121 H 0.80364 0.24556 0.25966 0.0
H122 H 0.70638 0.1742 0.18835 0.0
C123 C 0.6804 0.12886 0.25019 0.0
C124 C 0.67152 0.1274 0.22293 0.0
C125 C 0.72701 0.17152 0.26378 0.0
C126 C 0.76751 0.21361 0.24934 0.0
C127 C 0.76207 0.21681 0.22212 0.0
C128 C 0.7125 0.17316 0.20912 0.0
H129 H 0.67326 0.67838 0.58826 0.0
H130 H 0.67316 0.52752 0.58583 0.0
H131 H 0.65906 0.59649 0.51397 0.0
C132 C 0.67322 0.64607 0.5767 0.0
C133 C 0.66776 0.64563 0.54919 0.0
C134 C 0.67417 0.6033 0.58982 0.0
C135 C 0.67271 0.5599 0.57526 0.0
C136 C 0.66786 0.5555 0.54787 0.0
C137 C 0.66403 0.59878 0.53495 0.0
H138 H 0.15324 0.63816 0.92442 0.0
H139 H 0.30636 0.6409 0.92745 0.0
H140 H 0.22626 0.63266 0.85282 0.0
C141 C 0.18476 0.63547 0.91408 0.0
C142 C 0.18176 0.63318 0.88667 0.0
C143 C 0.22921 0.63828 0.92871 0.0
C144 C 0.27185 0.63671 0.91574 0.0
C145 C 0.27264 0.63413 0.88818 0.0
C146 C 0.22703 0.63355 0.87384 0.0
H147 H 1.08615 0.63727 0.41875 0.0
H148 H 1.10264 0.78664 0.39279 0.0
H149 H 1.03486 0.72679 0.46712 0.0
C150 C 1.08027 0.6719 0.42181 0.0
C151 C 1.05933 0.67816 0.4451 0.0
C152 C 1.09397 0.71002 0.40256 0.0
C153 C 1.08756 0.75539 0.40699 0.0
C154 C 1.06734 0.76307 0.43049 0.0
C155 C 1.05084 0.72241 0.44895 0.0
H156 H 0.44721 1.02154 0.72252 0.0
H157 H 0.40396 0.85554 0.70619 0.0
H158 H 0.4129 0.91338 0.78496 0.0
C159 C 0.43335 0.98097 0.72928 0.0
C160 C 0.42786 0.97136 0.75592 0.0
C161 C 0.42394 0.93906 0.71133 0.0
C162 C 0.40813 0.88687 0.71999 0.0
C163 C 0.40405 0.877 0.74671 0.0
C164 C 0.41205 0.91913 0.76427 0.0
H165 H 0.48007 0.38733 0.0269 0.0
H166 H 0.64717 0.46674 0.05569 0.0
H167 H 0.52031 0.36345 0.10525 0.0
C168 C 0.50993 0.39378 0.04232 0.0
C169 C 0.49257 0.37011 0.06648 0.0
C170 C 0.56552 0.42923 0.03848 0.0
C171 C 0.60445 0.43736 0.05819 0.0
C172 C 0.58843 0.41282 0.08214 0.0
C173 C 0.5325 0.37927 0.08616 0.0
H174 H 0.272 0.43697 0.09956 0.0
H175 H 0.25221 0.34379 0.16783 0.0
H176 H 0.28793 0.29181 0.14482 0.0
H177 H 0.25858 0.32612 0.04771 0.0
H178 H 0.31148 0.37966 0.02998 0.0
H179 H 0.26293 0.3916 0.04665 0.0
H180 H 0.34307 0.47513 0.07138 0.0
H181 H 0.39129 0.46342 0.05507 0.0
H182 H 0.39307 0.46642 0.09011 0.0
H183 H 0.34964 0.27092 0.12064 0.0
H184 H 0.43374 0.28749 0.09991 0.0
H185 H 0.41952 0.4002 0.04902 0.0
C186 C 0.27186 0.40317 0.109 0.0
C187 C 0.25892 0.39388 0.13527 0.0
C188 C 0.26155 0.35111 0.14757 0.0
C189 C 0.28148 0.32117 0.13454 0.0
C190 C 0.29842 0.33444 0.10923 0.0
C191 C 0.293 0.37412 0.09642 0.0
C192 C 0.32567 0.39039 0.07221 0.0
C193 C 0.28736 0.37074 0.04769 0.0
C194 C 0.36563 0.45241 0.07227 0.0
C195 C 0.35538 0.35868 0.07509 0.0
C196 C 0.33692 0.32429 0.09563 0.0
C197 C 0.36355 0.29677 0.10417 0.0
C198 C 0.41182 0.307 0.09246 0.0
C199 C 0.43403 0.34584 0.07299 0.0
C200 C 0.40343 0.36933 0.06334 0.0
H201 H 0.87632 0.42265 0.5254 0.0
H202 H 1.01889 0.40349 0.53518 0.0
H203 H 1.07739 0.49705 0.52112 0.0
H204 H 0.90746 0.47977 0.46798 0.0
H205 H 0.8825 0.52661 0.47249 0.0
H206 H 0.85429 0.46537 0.49024 0.0
H207 H 0.87882 0.52201 0.53375 0.0
H208 H 0.90662 0.58356 0.51594 0.0
H209 H 0.94818 0.5758 0.54089 0.0
H210 H 1.11608 0.58152 0.49683 0.0
H211 H 0.13307 0.65286 0.4658 0.0
H212 H 0.96546 0.61731 0.47055 0.0
C213 C 0.92011 0.43885 0.52539 0.0
C214 C 0.94314 0.40593 0.53138 0.0
C215 C 1.00051 0.42829 0.53107 0.0
C216 C 1.03403 0.48139 0.52304 0.0
C217 C 1.00954 0.51164 0.51573 0.0
C218 C 0.9539 0.49148 0.51721 0.0
C219 C 0.93641 0.52854 0.50465 0.0
C220 C 0.89262 0.49826 0.48254 0.0
C221 C 0.91634 0.554 0.52503 0.0
C222 C 0.99021 0.57079 0.49431 0.0
C223 C 1.03212 0.56098 0.50144 0.0
C224 C 1.08405 0.59055 0.49172 0.0
C225 C 1.09318 0.63057 0.47397 0.0
C226 C 1.05051 0.64037 0.46604 0.0
C227 C 0.99889 0.61114 0.47684 0.0
H228 H 0.62771 0.818 0.78431 0.0
H229 H 0.57306 0.80971 0.8627 0.0
H230 H 0.48249 0.79064 0.84482 0.0
H231 H 0.57632 0.89442 0.7611 0.0
H232 H 0.55888 0.86263 0.7289 0.0
H233 H 0.61228 0.86211 0.74831 0.0
H234 H 0.56104 0.75663 0.74224 0.0
H235 H 0.50607 0.75727 0.7237 0.0
H236 H 0.49161 0.71715 0.75214 0.0
H237 H 0.40332 0.78502 0.81871 0.0
H238 H 0.35591 0.81777 0.78967 0.0
H239 H 0.46573 0.83537 0.72896 0.0
C240 C 0.59676 0.81215 0.79781 0.0
C241 C 0.6077 0.8161 0.8249 0.0
C242 C 0.56559 0.80691 0.84184 0.0
C243 C 0.51388 0.79547 0.83183 0.0
C244 C 0.50475 0.79245 0.80489 0.0
C245 C 0.54547 0.80117 0.78819 0.0
C246 C 0.52936 0.80503 0.76044 0.0
C247 C 0.57164 0.85926 0.74906 0.0
C248 C 0.52155 0.75609 0.74364 0.0
C249 C 0.47514 0.80217 0.76437 0.0
C250 C 0.46 0.79151 0.78984 0.0
C251 C 0.41465 0.79306 0.79872 0.0
C252 C 0.38779 0.81155 0.78202 0.0
C253 C 0.40841 0.8309 0.75734 0.0
C254 C 0.4488 0.8208 0.7476 0.0
H255 H 0.89547 0.56904 0.12964 0.0
H256 H 0.84766 0.62847 0.1961 0.0
H257 H 0.75042 0.55833 0.18618 0.0
H258 H 0.79379 0.55152 0.08775 0.0
H259 H 0.78373 0.49033 0.0713 0.0
H260 H 0.849 0.53688 0.08687 0.0
H261 H 0.84453 0.45917 0.11425 0.0
H262 H 0.77882 0.41211 0.09875 0.0
H263 H 0.7864 0.42055 0.13368 0.0
H264 H 0.65904 0.49454 0.1641 0.0
H265 H 0.58221 0.44485 0.13185 0.0
H266 H 0.68998 0.42378 0.08076 0.0
C267 C 0.86443 0.56607 0.14244 0.0
C268 C 0.8782 0.60357 0.16353 0.0
C269 C 0.83727 0.59952 0.17992 0.0
C270 C 0.78225 0.55975 0.17448 0.0
C271 C 0.76958 0.524 0.15298 0.0
C272 C 0.80976 0.52644 0.13742 0.0
C273 C 0.7855 0.48789 0.11389 0.0
C274 C 0.80409 0.5185 0.08848 0.0
C275 C 0.79964 0.44221 0.11523 0.0
C276 C 0.72527 0.46623 0.11752 0.0
C277 C 0.71672 0.48635 0.1405 0.0
C278 C 0.66502 0.47723 0.14645 0.0
C279 C 0.62148 0.44869 0.12804 0.0
C280 C 0.63013 0.43008 0.10389 0.0
C281 C 0.68218 0.43707 0.09918 0.0
H282 H 0.27964 0.99651 0.50114 0.0
H283 H 0.30721 1.05702 0.42374 0.0
H284 H 0.20828 1.01426 0.4147 0.0
H285 H 0.20946 0.88053 0.48731 0.0
H286 H 0.15753 0.85547 0.5111 0.0
H287 H 0.22053 0.91637 0.51827 0.0
H288 H 0.16834 0.96776 0.52709 0.0
H289 H 1.10435 0.90589 0.51968 0.0
H290 H 1.12046 0.96674 0.5028 0.0
H291 H 1.11836 0.93656 0.40635 0.0
H292 H 1.06209 0.83798 0.39849 0.0
H293 H 1.0926 0.81411 0.47867 0.0
C294 C 0.26409 1.00306 0.48293 0.0
C295 C 0.30036 1.02877 0.46302 0.0
C296 C 0.28004 1.03754 0.43935 0.0
C297 C 0.22347 1.01312 0.43408 0.0
C298 C 0.18791 0.9798 0.45259 0.0
C299 C 0.20763 0.97596 0.47707 0.0
C300 C 0.16538 0.92608 0.49038 0.0
C301 C 0.18974 0.89268 0.50233 0.0
C302 C 0.138 0.94262 0.5112 0.0
C303 C 0.12538 0.89643 0.46754 0.0
C304 C 0.13557 0.93045 0.44696 0.0
C305 C 1.10985 0.91002 0.42246 0.0
C306 C 1.07845 0.85356 0.41804 0.0
C307 C 1.0753 0.818 0.43765 0.0
C308 C 1.0943 0.83991 0.46321 0.0
H309 H 0.63116 0.26499 0.81819 0.0
H310 H 0.53668 0.21701 0.88745 0.0
H311 H 0.48071 0.12387 0.86823 0.0
H312 H 0.52852 0.1994 0.77413 0.0
H313 H 0.56217 0.17696 0.75201 0.0
H314 H 0.60203 0.23692 0.77261 0.0
H315 H 0.6592 0.19663 0.79211 0.0
H316 H 0.62124 0.13733 0.77072 0.0
H317 H 0.62478 0.12986 0.80527 0.0
H318 H 0.42445 1.04259 0.83796 0.0
H319 H 0.38302 0.97234 0.80237 0.0
H320 H 0.5188 1.07271 0.75448 0.0
C321 C 0.60072 0.23451 0.83004 0.0
C322 C 0.58811 0.24863 0.85429 0.0
C323 C 0.54665 0.20738 0.86867 0.0
C324 C 0.51466 0.15436 0.85793 0.0
C325 C 0.52565 0.14308 0.83312 0.0
C326 C 0.56894 0.18148 0.81975 0.0
C327 C 0.5702 0.16023 0.79277 0.0
C328 C 0.56543 0.19549 0.77166 0.0
C329 C 0.62191 0.15572 0.79007 0.0
C330 C 0.51937 0.10481 0.79261 0.0
C331 C 0.49423 0.0956 0.81603 0.0
C332 C 0.44461 1.04869 0.8198 0.0
C333 C 0.42126 1.00924 0.79942 0.0
C334 C 0.44775 1.0168 0.77565 0.0
C335 C 0.49707 1.06573 0.77222 0.0
H336 H 0.71091 0.95615 0.53954 0.0
H337 H 0.58437 0.89205 0.47775 0.0
H338 H 0.57804 0.80226 0.48037 0.0
H339 H 0.77682 0.87699 0.5221 0.0
H340 H 0.7889 0.86473 0.55519 0.0
H341 H 0.78559 0.92492 0.5479 0.0
H342 H 0.70951 0.89873 0.58051 0.0
H343 H 0.71273 0.83857 0.58792 0.0
H344 H 0.64856 0.83272 0.57714 0.0
H345 H 0.58663 0.71495 0.48934 0.0
H346 H 0.60273 0.64264 0.50618 0.0
H347 H 0.71975 0.75868 0.56409 0.0
C348 C 0.68202 0.92346 0.52637 0.0
C349 C 0.64846 0.93322 0.50808 0.0
C350 C 0.61092 0.88754 0.49187 0.0
C351 C 0.60706 0.83561 0.4932 0.0
C352 C 0.64035 0.82748 0.51125 0.0
C353 C 0.67677 0.87027 0.52782 0.0
C354 C 0.70604 0.84978 0.54631 0.0
C355 C 0.76803 0.88098 0.54266 0.0
C356 C 0.69347 0.85529 0.57466 0.0
C357 C 0.6809 0.78934 0.53757 0.0
C358 C 0.64346 0.77743 0.51706 0.0
C359 C 0.61584 0.72452 0.5055 0.0
C360 C 0.62566 0.68312 0.51517 0.0
C361 C 0.66256 0.69292 0.53678 0.0
C362 C 0.69069 0.74796 0.54776 0.0
H363 H 0.86474 0.57458 0.87017 0.0
H364 H 0.92347 0.70733 0.81756 0.0
H365 H 1.01568 0.71699 0.82086 0.0
H366 H 0.98907 0.63722 0.91246 0.0
H367 H 0.9863 0.57394 0.91943 0.0
H368 H 0.9241 0.57484 0.91156 0.0
H369 H 0.90029 0.50311 0.87434 0.0
H370 H 0.96259 0.50221 0.88203 0.0
H371 H 0.94874 0.51639 0.84961 0.0
H372 H 1.10557 0.71072 0.82944 0.0
H373 H 0.18126 0.69746 0.84641 0.0
H374 H 1.06885 0.57469 0.89669 0.0
C375 C 0.89677 0.60539 0.85908 0.0
C376 C 0.88507 0.63963 0.84311 0.0
C377 C 0.92979 0.6801 0.82974 0.0
C378 C 0.98293 0.68584 0.83148 0.0
C379 C 0.993 0.65172 0.84726 0.0
C380 C 0.95109 0.61279 0.86122 0.0
C381 C 0.97376 0.58377 0.87817 0.0
C382 C 0.96795 0.59298 0.90713 0.0
C383 C 0.9446 0.52274 0.87059 0.0
C384 C 1.03448 0.61187 0.87152 0.0
C385 C 1.04461 0.65044 0.85329 0.0
C386 C 1.09746 0.68067 0.84383 0.0
C387 C 0.14069 0.67247 0.85348 0.0
C388 C 0.13263 0.6348 0.87302 0.0
C389 C 1.07774 0.60395 0.8818 0.0
H390 H 0.40797 0.8125 0.2099 0.0
H391 H 0.32731 0.87271 0.15863 0.0
H392 H 0.41024 0.96375 0.16134 0.0
H393 H 0.47685 0.93652 0.25193 0.0
H394 H 0.5384 0.93319 0.25775 0.0
H395 H 0.47406 0.87165 0.25069 0.0
H396 H 0.5161 0.84737 0.21248 0.0
H397 H 0.58052 0.90897 0.21939 0.0
H398 H 0.54755 0.89545 0.18742 0.0
H399 H 0.5072 1.0526 0.16901 0.0
H400 H 0.59892 0.12731 0.18454 0.0
H401 H 0.61732 1.01481 0.23369 0.0
C402 C 0.40771 0.8446 0.19902 0.0
C403 C 0.35946 0.83346 0.18365 0.0
C404 C 0.36233 0.87841 0.17045 0.0
C405 C 0.41001 0.93099 0.17184 0.0
C406 C 0.45632 0.94056 0.18703 0.0
C407 C 0.45521 0.89856 0.20076 0.0
C408 C 0.50962 0.92084 0.21688 0.0
C409 C 0.4991 0.9152 0.24605 0.0
C410 C 0.54026 0.89139 0.20855 0.0
C411 C 0.54143 0.98131 0.21002 0.0
C412 C 0.51017 0.99169 0.19244 0.0
C413 C 0.53138 1.0443 0.18291 0.0
C414 C 0.58443 0.08704 0.19175 0.0
C415 C 0.61731 1.07882 0.21057 0.0
C416 C 0.59446 1.02408 0.21946 0.0
H417 H 0.70695 0.28563 0.53944 0.0
H418 H 0.58858 0.22396 0.47411 0.0
H419 H 0.58321 0.30825 0.47619 0.0
H420 H 0.64441 0.35147 0.57482 0.0
H421 H 0.70846 0.40915 0.5865 0.0
H422 H 0.70429 0.3447 0.57947 0.0
H423 H 0.78312 0.39069 0.5481 0.0
H424 H 0.7875 0.45525 0.55515 0.0
H425 H 0.77741 0.42923 0.52203 0.0
H426 H 0.59044 0.40454 0.48593 0.0
H427 H 0.60582 0.49357 0.50333 0.0
H428 H 0.7194 0.49475 0.56235 0.0
C429 C 0.67986 0.2896 0.52545 0.0
C430 C 0.64821 0.24621 0.50644 0.0
C431 C 0.61357 0.25501 0.48888 0.0
C432 C 0.61023 0.30354 0.48991 0.0
C433 C 0.64165 0.34503 0.50874 0.0
C434 C 0.6758 0.3383 0.52629 0.0
C435 C 0.70454 0.38872 0.54498 0.0
C436 C 0.68954 0.37254 0.57311 0.0
C437 C 0.76685 0.41768 0.54242 0.0
C438 C 0.68121 0.42459 0.53546 0.0
C439 C 0.64519 0.39888 0.51438 0.0
C440 C 0.61872 0.42441 0.50248 0.0
C441 C 0.62813 0.47597 0.51246 0.0
C442 C 0.66371 0.50327 0.5346 0.0
C443 C 0.69107 0.47628 0.54571 0.0
H444 H 0.54319 0.59409 0.88024 0.0
H445 H 0.58168 0.68225 0.80916 0.0
H446 H 0.49708 0.68759 0.81149 0.0
H447 H 0.39408 0.51876 0.86971 0.0
H448 H 0.38054 0.52504 0.90318 0.0
H449 H 0.44245 0.52536 0.89524 0.0
H450 H 0.50008 0.61753 0.9205 0.0
H451 H 0.43835 0.61747 0.92856 0.0
H452 H 0.49119 0.67422 0.91236 0.0
H453 H 0.40413 0.68479 0.82242 0.0
H454 H 0.32092 0.67729 0.84102 0.0
H455 H 0.34245 0.59433 0.90625 0.0
C456 C 0.53395 0.61453 0.86508 0.0
C457 C 0.57041 0.63718 0.84419 0.0
C458 C 0.55572 0.6642 0.82531 0.0
C459 C 0.5072 0.6677 0.82657 0.0
C460 C 0.47273 0.64565 0.84739 0.0
C461 C 0.48594 0.61989 0.86647 0.0
C462 C 0.44282 0.60106 0.88726 0.0
C463 C 0.41323 0.53886 0.88895 0.0
C464 C 0.46971 0.62923 0.91374 0.0
C465 C 0.40327 0.6198 0.877 0.0
C466 C 0.42102 0.64515 0.85382 0.0
C467 C 0.39067 0.66519 0.84067 0.0
C468 C 0.34237 0.66022 0.85142 0.0
C469 C 0.32302 0.63537 0.87553 0.0
C470 C 0.35488 0.61456 0.88809 0.0
H471 H 1.0734 0.47946 0.20674 0.0
H472 H 1.00224 0.54225 0.15132 0.0
H473 H 0.91181 0.46004 0.15511 0.0
H474 H 0.98896 0.33476 0.18664 0.0
H475 H 0.98163 0.31095 0.21925 0.0
H476 H 1.04145 0.37371 0.21153 0.0
H477 H 1.02214 0.42464 0.24804 0.0
H478 H 0.96234 0.36202 0.25589 0.0
H479 H 0.95632 0.42057 0.24826 0.0
H480 H 0.82409 0.36511 0.16485 0.0
H481 H 0.75322 0.27787 0.18195 0.0
H482 H 0.8778 0.27589 0.23255 0.0
C483 C 1.03906 0.47596 0.19514 0.0
C484 C 1.04709 0.51896 0.17828 0.0
C485 C 0.99924 0.51126 0.16417 0.0
C486 C 0.94686 0.46392 0.16622 0.0
C487 C 0.94054 0.4227 0.18282 0.0
C488 C 0.98558 0.42865 0.19726 0.0
C489 C 0.96712 0.37927 0.21451 0.0
C490 C 0.99656 0.34781 0.20757 0.0
C491 C 0.97762 0.39773 0.24339 0.0
C492 C 0.9052 0.34468 0.20757 0.0
C493 C 0.89066 0.37019 0.18901 0.0
C494 C 0.83578 0.34547 0.17946 0.0
C495 C 0.79521 0.29493 0.18924 0.0
C496 C 0.80789 0.26795 0.20896 0.0
C497 C 0.86481 0.29417 0.21779 0.0
H498 H 0.21133 0.59416 0.08491 0.0
H499 H 0.24507 0.76112 0.09175 0.0
H500 H 0.25399 0.76899 0.04479 0.0
H501 H 0.30598 0.61735 0.03218 0.0
H502 H 0.26136 0.55315 0.0152 0.0
H503 H 0.25917 0.55954 0.04997 0.0
H504 H 0.15537 0.52518 0.0453 0.0
H505 H 0.15724 0.51871 0.01054 0.0
H506 H 0.13102 0.55951 0.02434 0.0
H507 H 0.2554 0.76008 0.99714 0.0
H508 H 0.2508 0.7342 0.95075 0.0
H509 H 0.21831 0.57379 0.97144 0.0
C510 C 0.22113 0.63247 0.07653 0.0
C511 C 0.22726 0.67696 0.09253 0.0
C512 C 0.23972 0.72612 0.08041 0.0
C513 C 0.24508 0.73123 0.05351 0.0
C514 C 0.23816 0.68697 0.03835 0.0
C515 C 0.2267 0.63847 0.04923 0.0
C516 C 0.22035 0.5973 0.02778 0.0
C517 C 0.26433 0.58086 0.03151 0.0
C518 C 0.16255 0.5472 0.02695 0.0
C519 C 0.22945 0.63026 0.00339 0.0
C520 C 0.23973 0.68194 0.01023 0.0
C521 C 0.24785 0.71988 0.99156 0.0
C522 C 0.24518 0.70484 0.9652 0.0
C523 C 0.23476 0.65234 0.95735 0.0
C524 C 0.2271 0.61452 0.97682 0.0
H525 H 0.67141 1.05363 0.40818 0.0
H526 H 0.76466 0.22002 0.43919 0.0
H527 H 0.78405 0.25239 0.39434 0.0
H528 H 0.76002 1.07064 0.354 0.0
H529 H 0.70324 1.02529 0.33227 0.0
H530 H 0.69931 1.01555 0.36676 0.0
H531 H 0.60986 1.01997 0.36622 0.0
H532 H 0.6138 1.03027 0.3318 0.0
H533 H 0.60958 1.07854 0.35348 0.0
H534 H 0.78568 0.26678 0.3453 0.0
H535 H 0.77658 0.26236 0.29764 0.0
H536 H 0.68801 0.08563 0.29817 0.0
C537 C 0.69666 0.09691 0.40563 0.0
C538 C 0.71661 0.13424 0.42748 0.0
C539 C 0.74924 0.19046 0.42301 0.0
C540 C 0.76022 0.20925 0.3975 0.0
C541 C 0.73892 0.17139 0.37645 0.0
C542 C 0.70851 0.11627 0.38031 0.0
C543 C 0.68992 0.08397 0.35443 0.0
C544 C 0.71461 1.04666 0.35171 0.0
C545 C 0.62706 1.05126 0.35131 0.0
C546 C 0.71378 0.12946 0.3353 0.0
C547 C 0.74169 0.17957 0.34841 0.0
C548 C 0.7649 0.2276 0.33494 0.0
C549 C 0.75989 0.2245 0.30756 0.0
C550 C 0.73244 0.17361 0.29334 0.0
C551 C 0.70919 0.1255 0.30785 0.0
H552 H 0.75981 0.69149 0.74316 0.0
H553 H 0.63106 0.52764 0.75832 0.0
H554 H 0.60836 0.50862 0.71166 0.0
H555 H 0.6863 0.71236 0.68888 0.0
H556 H 0.74587 0.74888 0.67001 0.0
H557 H 0.75309 0.75149 0.70498 0.0
H558 H 0.82239 0.71732 0.70215 0.0
H559 H 0.8155 0.71477 0.66718 0.0
H560 H 0.80313 0.65487 0.68401 0.0
H561 H 0.59832 0.50487 0.66375 0.0
H562 H 0.6031 0.5164 0.61657 0.0
H563 H 0.73756 0.68198 0.62937 0.0
C564 C 0.72688 0.65164 0.73665 0.0
C565 C 0.69739 0.61119 0.75489 0.0
C566 C 0.65456 0.55965 0.74522 0.0
C567 C 0.64111 0.54825 0.71854 0.0
C568 C 0.67056 0.58861 0.70122 0.0
C569 C 0.71262 0.63932 0.7097 0.0
C570 C 0.73759 0.67471 0.6864 0.0
C571 C 0.73027 0.72484 0.68765 0.0
C572 C 0.79826 0.6914 0.68485 0.0
C573 C 0.70316 0.63569 0.66371 0.0
C574 C 0.66472 0.58637 0.67297 0.0
C575 C 0.62837 0.54328 0.65626 0.0
C576 C 0.63158 0.5502 0.62938 0.0
C577 C 0.67097 0.59983 0.61897 0.0
C578 C 0.70684 0.64355 0.63657 0.0
H579 H 0.63 1.07173 0.59697 0.0
H580 H 0.48654 1.00527 0.54407 0.0
H581 H 0.42697 0.96491 0.5806 0.0
H582 H 0.57915 0.95947 0.64017 0.0
H583 H 0.60831 1.00221 0.66926 0.0
H584 H 0.64052 1.02481 0.63882 0.0
H585 H 0.6346 0.11272 0.64402 0.0
H586 H 0.60236 0.09035 0.67447 0.0
H587 H 0.56917 0.10745 0.64891 0.0
H588 H 0.38237 0.92929 0.62236 0.0
H589 H 0.35592 0.90645 0.66787 0.0
H590 H 0.52655 1.00013 0.69426 0.0
C591 C 0.5861 1.0485 0.59315 0.0
C592 C 0.56297 1.04164 0.56769 0.0
C593 C 0.50525 1.01142 0.56344 0.0
C594 C 0.47095 0.98806 0.58404 0.0
C595 C 0.49482 0.9957 0.60891 0.0
C596 C 0.55096 1.02558 0.61366 0.0
C597 C 0.56559 1.02908 0.64247 0.0
C598 C 0.60045 1.00229 0.64799 0.0
C599 C 0.59464 0.08843 0.65309 0.0
C600 C 0.509 0.99636 0.65298 0.0
C601 C 0.46879 0.97699 0.63325 0.0
C602 C 0.4134 0.94452 0.63805 0.0
C603 C 0.3987 0.93171 0.66381 0.0
C604 C 0.43922 0.95209 0.68425 0.0
C605 C 0.49494 0.98471 0.6788 0.0
H606 H 0.75836 0.58903 0.92446 0.0
H607 H 0.6572 0.66213 0.91037 0.0
H608 H 0.60397 0.61693 0.94845 0.0
H609 H 0.65429 0.46334 0.93845 0.0
H610 H 0.69123 0.44943 0.96346 0.0
H611 H 0.72775 0.4947 0.93821 0.0
H612 H 0.78815 0.57161 0.97238 0.0
H613 H 0.75306 0.52613 0.99789 0.0
H614 H 0.75605 0.59099 0.99683 0.0
H615 H 0.5542 0.55343 0.98423 0.0
H616 H 0.51913 0.48621 0.01856 0.0
H617 H 0.65205 0.45341 0.00803 0.0
C618 C 0.72631 0.59717 0.92998 0.0
C619 C 0.71211 0.62933 0.91466 0.0
C620 C 0.66935 0.63838 0.92214 0.0
C621 C 0.63857 0.61243 0.94358 0.0
C622 C 0.65167 0.5783 0.95736 0.0
C623 C 0.6953 0.5716 0.95117 0.0
C624 C 0.69872 0.52991 0.96774 0.0
C625 C 0.69262 0.48151 0.95096 0.0
C626 C 0.75216 0.55625 0.98472 0.0
C627 C 0.64954 0.51328 0.98393 0.0
C628 C 0.62286 0.54155 0.97769 0.0
C629 C 0.57513 0.53153 0.98947 0.0
C630 C 0.55511 0.49275 0.00867 0.0
C631 C 0.58279 0.46446 0.01583 0.0
C632 C 0.63024 0.47461 0.00303 0.0
H633 H 0.12659 0.70389 0.25008 0.0
H634 H 0.2586 0.66979 0.26498 0.0
H635 H 0.24714 0.67392 0.31231 0.0
H636 H 0.16034 0.79912 0.30427 0.0
H637 H 1.08972 0.77639 0.31032 0.0
H638 H 1.10921 0.77136 0.27788 0.0
H639 H 1.03863 0.66808 0.27528 0.0
H640 H 1.01896 0.67268 0.30772 0.0
H641 H 1.04164 0.62516 0.29984 0.0
H642 H 0.21811 0.67849 0.35802 0.0
H643 H 0.17718 0.68738 0.39831 0.0
H644 H 1.06582 0.72009 0.35265 0.0
C645 C 0.1533 0.69737 0.26323 0.0
C646 C 0.19341 0.68631 0.25386 0.0
C647 C 0.22767 0.67841 0.27176 0.0
C648 C 0.22137 0.68057 0.29864 0.0
C649 C 0.18097 0.6911 0.30716 0.0
C650 C 0.14785 0.69976 0.28994 0.0
C651 C 1.10751 0.71038 0.30386 0.0
C652 C 1.11731 0.76773 0.29878 0.0
C653 C 1.04818 0.66645 0.29622 0.0
C654 C 1.12272 0.70598 0.33171 0.0
C655 C 0.16502 0.69464 0.33326 0.0
C656 C 0.18514 0.68756 0.35702 0.0
C657 C 0.16148 0.69237 0.37974 0.0
C658 C 1.11841 0.70441 0.3785 0.0
C659 C 1.09904 0.71138 0.35414 0.0
loop_
_geom_bond_atom_site_label_1
_geom_bond_atom_site_label_2
_geom_bond_distance
_geom_bond_site_symmetry_2
_ccdc_geom_bond_type
Tb0 C10 2.825 . S
Tb0 O11 2.347 . S
Tb0 O14 2.366 . S
Tb0 O19 2.418 . S
Tb0 O20 2.384 1_455 S
Tb0 O23 2.479 . S
Tb0 O24 2.471 . S
Eu1 O12 2.418 . S
Eu1 O13 2.384 1_655 S
Eu1 O16 2.479 . S
Eu1 O17 2.471 . S
Eu1 O18 2.347 1_655 S
Eu1 O21 2.366 . S
Eu1 C31 2.825 . S
C2 O18 1.259 . S
C2 O19 1.265 . S
C3 O20 1.255 . S
C3 O21 1.265 . S
C4 C6 1.380 . S
C4 C7 1.374 . S
C4 C10 1.507 . S
C5 C6 1.384 . S
C5 C9 1.387 . S
C5 H32 0.930 . S
C6 C4 1.380 . S
C6 C5 1.384 . S
C6 H33 0.931 . S
C7 C4 1.374 . S
C7 C8 1.390 . S
C7 H34 0.930 . S
C8 C7 1.390 . S
C8 C9 1.391 . S
C8 H35 0.930 . S
C9 C5 1.387 . S
C9 C8 1.391 . S
C10 Tb0 2.825 . S
C10 C4 1.507 . S
C10 O23 1.238 . S
C10 O24 1.247 . S
O11 Tb0 2.347 . S
O11 C15 1.259 . S
O12 Eu1 2.418 . S
O12 C15 1.265 1_655 S
O13 Eu1 2.384 1_455 S
O13 C22 1.255 . S
O14 Tb0 2.366 . S
O14 C22 1.265 . S
C15 O11 1.259 . S
C15 O12 1.265 1_455 S
O16 Eu1 2.479 . S
O16 C31 1.238 . S
O17 Eu1 2.471 . S
O17 C31 1.247 . S
O18 Eu1 2.347 1_455 S
O18 C2 1.259 . S
O19 Tb0 2.418 . S
O19 C2 1.265 . S
O20 Tb0 2.384 1_655 S
O20 C3 1.255 . S
O21 Eu1 2.366 . S
O21 C3 1.265 . S
C22 O13 1.255 . S
C22 O14 1.265 . S
O23 Tb0 2.479 . S
O23 C10 1.238 . S
O24 Tb0 2.471 . S
O24 C10 1.247 . S
C25 C28 1.380 . S
C25 C29 1.374 . S
C25 C31 1.507 . S
C26 C27 1.387 . S
C26 C30 1.391 . S
C27 C26 1.387 . S
C27 C28 1.384 . S
C27 H36 0.930 . S
C28 C25 1.380 . S
C28 C27 1.384 . S
C28 H37 0.931 . S
C29 C25 1.374 . S
C29 C30 1.390 . S
C29 H38 0.930 . S
C30 C26 1.391 . S
C30 C29 1.390 . S
C30 H39 0.930 . S
C31 Eu1 2.825 . S
C31 O16 1.238 . S
C31 O17 1.247 . S
C31 C25 1.507 . S
H32 C5 0.930 . S
H33 C6 0.931 . S
H34 C7 0.930 . S
H35 C8 0.930 . S
H36 C27 0.930 . S
H37 C28 0.931 . S
H38 C29 0.930 . S
H39 C30 0.930 . S
Tb40 C50 2.825 . S
Tb40 O51 2.347 . S
Tb40 O54 2.366 . S
Tb40 O59 2.418 . S
Tb40 O60 2.384 1_545 S
Tb40 O63 2.479 . S
Tb40 O64 2.471 . S
Eu41 O52 2.418 . S
Eu41 O53 2.384 . S
Eu41 O56 2.479 1_545 S
Eu41 O57 2.471 1_545 S
Eu41 O58 2.347 . S
Eu41 O61 2.366 1_545 S
Eu41 C71 2.825 1_545 S
C42 O58 1.259 . S
C42 O59 1.265 . S
C43 O60 1.255 . S
C43 O61 1.265 . S
C44 C46 1.380 . S
C44 C47 1.374 . S
C44 C50 1.507 . S
C45 C46 1.384 . S
C45 C49 1.387 . S
C45 H72 0.930 . S
C46 C44 1.380 . S
C46 C45 1.384 . S
C46 H73 0.931 . S
C47 C44 1.374 . S
C47 C48 1.390 . S
C47 H74 0.930 . S
C48 C47 1.390 . S
C48 C49 1.391 . S
C48 H75 0.930 . S
C49 C45 1.387 . S
C49 C48 1.391 . S
C50 Tb40 2.825 . S
C50 C44 1.507 . S
C50 O63 1.238 . S
C50 O64 1.247 . S
O51 Tb40 2.347 . S
O51 C55 1.259 . S
O52 Eu41 2.418 . S
O52 C55 1.265 . S
O53 Eu41 2.384 . S
O53 C62 1.255 . S
O54 Tb40 2.366 . S
O54 C62 1.265 . S
C55 O51 1.259 . S
C55 O52 1.265 . S
O56 Eu41 2.479 1_565 S
O56 C71 1.238 . S
O57 Eu41 2.471 1_565 S
O57 C71 1.247 . S
O58 Eu41 2.347 . S
O58 C42 1.259 . S
O59 Tb40 2.418 . S
O59 C42 1.265 . S
O60 Tb40 2.384 1_565 S
O60 C43 1.255 . S
O61 Eu41 2.366 1_565 S
O61 C43 1.265 . S
C62 O53 1.255 . S
C62 O54 1.265 . S
O63 Tb40 2.479 . S
O63 C50 1.238 . S
O64 Tb40 2.471 . S
O64 C50 1.247 . S
C65 C68 1.380 . S
C65 C69 1.374 . S
C65 C71 1.507 . S
C66 C67 1.387 . S
C66 C70 1.391 . S
C67 C66 1.387 . S
C67 C68 1.384 . S
C67 H76 0.930 . S
C68 C65 1.380 . S
C68 C67 1.384 . S
C68 H77 0.931 . S
C69 C65 1.374 . S
C69 C70 1.390 . S
C69 H78 0.930 . S
C70 C66 1.391 . S
C70 C69 1.390 . S
C70 H79 0.930 . S
C71 Eu41 2.825 1_565 S
C71 O56 1.238 . S
C71 O57 1.247 . S
C71 C65 1.507 . S
H72 C45 0.930 . S
H73 C46 0.931 . S
H74 C47 0.930 . S
H75 C48 0.930 . S
H76 C67 0.930 . S
H77 C68 0.931 . S
H78 C69 0.930 . S
H79 C70 0.930 . S
Tb80 C90 2.825 . S
Tb80 O91 2.347 . S
Tb80 O94 2.366 . S
Tb80 O99 2.418 . S
Tb80 O100 2.384 . S
Tb80 O103 2.479 . S
Tb80 O104 2.471 . S
Eu81 O92 2.418 . S
Eu81 O93 2.384 . S
Eu81 O96 2.479 . S
Eu81 O97 2.471 . S
Eu81 O98 2.347 . S
Eu81 O101 2.366 . S
Eu81 C111 2.825 . S
C82 O98 1.259 . S
C82 O99 1.265 . S
C83 O100 1.255 . S
C83 O101 1.265 . S
C84 C86 1.380 . S
C84 C87 1.374 . S
C84 C90 1.507 . S
C85 C86 1.384 . S
C85 C89 1.387 . S
C85 H112 0.930 . S
C86 C84 1.380 . S
C86 C85 1.384 . S
C86 H113 0.931 . S
C87 C84 1.374 . S
C87 C88 1.390 . S
C87 H114 0.930 . S
C88 C87 1.390 . S
C88 C89 1.391 . S
C88 H115 0.930 . S
C89 C85 1.387 . S
C89 C88 1.391 . S
C90 Tb80 2.825 . S
C90 C84 1.507 . S
C90 O103 1.238 . S
C90 O104 1.247 . S
O91 Tb80 2.347 . S
O91 C95 1.259 . S
O92 Eu81 2.418 . S
O92 C95 1.265 . S
O93 Eu81 2.384 . S
O93 C102 1.255 . S
O94 Tb80 2.366 . S
O94 C102 1.265 . S
C95 O91 1.259 . S
C95 O92 1.265 . S
O96 Eu81 2.479 . S
O96 C111 1.238 . S
O97 Eu81 2.471 . S
O97 C111 1.247 . S
O98 Eu81 2.347 . S
O98 C82 1.259 . S
O99 Tb80 2.418 . S
O99 C82 1.265 . S
O100 Tb80 2.384 . S
O100 C83 1.255 . S
O101 Eu81 2.366 . S
O101 C83 1.265 . S
C102 O93 1.255 . S
C102 O94 1.265 . S
O103 Tb80 2.479 . S
O103 C90 1.238 . S
O104 Tb80 2.471 . S
O104 C90 1.247 . S
C105 C108 1.380 . S
C105 C109 1.374 . S
C105 C111 1.507 . S
C106 C107 1.387 . S
C106 C110 1.391 . S
C107 C106 1.387 . S
C107 C108 1.384 . S
C107 H116 0.930 . S
C108 C105 1.380 . S
C108 C107 1.384 . S
C108 H117 0.931 . S
C109 C105 1.374 . S
C109 C110 1.390 . S
C109 H118 0.930 . S
C110 C106 1.391 . S
C110 C109 1.390 . S
C110 H119 0.930 . S
C111 Eu81 2.825 . S
C111 O96 1.238 . S
C111 O97 1.247 . S
C111 C105 1.507 . S
H112 C85 0.930 . S
H113 C86 0.931 . S
H114 C87 0.930 . S
H115 C88 0.930 . S
H116 C107 0.930 . S
H117 C108 0.931 . S
H118 C109 0.930 . S
H119 C110 0.930 . S
H120 C123 0.931 . S
H121 C126 0.928 . S
H122 C128 0.930 . S
C123 H120 0.931 . S
C123 C124 1.413 . S
C123 C125 1.360 1_565 S
C124 C123 1.413 . S
C124 C128 1.429 1_565 S
C125 C123 1.360 1_545 S
C125 C126 1.372 . S
C126 H121 0.928 . S
C126 C125 1.372 . S
C126 C127 1.404 . S
C127 C126 1.404 . S
C127 C128 1.391 . S
C128 H122 0.930 . S
C128 C124 1.429 1_545 S
C128 C127 1.391 . S
H129 C132 0.931 . S
H130 C135 0.928 . S
H131 C137 0.930 . S
C132 H129 0.931 . S
C132 C133 1.413 . S
C132 C134 1.360 . S
C133 C132 1.413 . S
C133 C137 1.429 . S
C134 C132 1.360 . S
C134 C135 1.372 . S
C135 H130 0.928 . S
C135 C134 1.372 . S
C135 C136 1.404 . S
C136 C135 1.404 . S
C136 C137 1.391 . S
C137 H131 0.930 . S
C137 C133 1.429 . S
C137 C136 1.391 . S
H138 C141 0.931 . S
H139 C144 0.928 . S
H140 C146 0.930 . S
C141 H138 0.931 . S
C141 C142 1.413 . S
C141 C143 1.360 1_655 S
C142 C141 1.413 . S
C142 C146 1.429 1_655 S
C143 C141 1.360 1_455 S
C143 C144 1.372 . S
C144 H139 0.928 . S
C144 C143 1.372 . S
C144 C145 1.404 . S
C145 C144 1.404 . S
C145 C146 1.391 . S
C146 H140 0.930 . S
C146 C142 1.429 1_455 S
C146 C145 1.391 . S
H147 C150 0.931 . S
H148 C153 0.928 . S
H149 C155 0.930 . S
C150 H147 0.931 . S
C150 C151 1.413 . S
C150 C152 1.360 1_655 S
C151 C150 1.413 . S
C151 C155 1.429 1_655 S
C152 C150 1.360 1_455 S
C152 C153 1.372 . S
C153 H148 0.928 . S
C153 C152 1.372 . S
C153 C154 1.404 . S
C154 C153 1.404 . S
C154 C155 1.391 . S
C155 H149 0.930 . S
C155 C151 1.429 1_455 S
C155 C154 1.391 . S
H156 C159 0.931 . S
H157 C162 0.928 . S
H158 C164 0.931 . S
C159 H156 0.931 . S
C159 C160 1.413 . S
C159 C161 1.383 . S
C160 C159 1.413 . S
C160 C164 1.406 1_545 S
C161 C159 1.383 . S
C161 C162 1.349 1_545 S
C162 H157 0.928 . S
C162 C161 1.349 1_565 S
C162 C163 1.404 . S
C163 C162 1.404 . S
C163 C164 1.413 . S
C164 H158 0.931 . S
C164 C160 1.406 1_565 S
C164 C163 1.413 . S
H165 C168 0.931 . S
H166 C171 0.928 . S
H167 C173 0.930 . S
C168 H165 0.931 . S
C168 C169 1.413 . S
C168 C170 1.360 . S
C169 C168 1.413 . S
C169 C173 1.429 . S
C170 C168 1.360 . S
C170 C171 1.372 . S
C171 H166 0.928 . S
C171 C170 1.372 . S
C171 C172 1.404 . S
C172 C171 1.404 . S
C172 C173 1.391 . S
C173 H167 0.930 . S
C173 C169 1.429 . S
C173 C172 1.391 . S
H174 C186 0.930 . S
H175 C188 0.930 . S
H176 C189 0.930 . S
H177 C193 0.959 . S
H178 C193 0.959 . S
H179 C193 0.961 . S
H180 C194 0.960 . S
H181 C194 0.961 . S
H182 C194 0.959 . S
H183 C197 0.929 . S
H184 C198 0.931 . S
H185 C200 0.930 . S
C186 H174 0.930 . S
C186 C187 1.399 . S
C186 C191 1.399 . S
C187 C186 1.399 . S
C187 C188 1.376 . S
C188 H175 0.930 . S
C188 C187 1.376 . S
C188 C189 1.388 . S
C189 H176 0.930 . S
C189 C188 1.388 . S
C189 C190 1.390 . S
C190 C189 1.390 . S
C190 C191 1.394 . S
C190 C196 1.465 . S
C191 C186 1.399 . S
C191 C190 1.394 . S
C191 C192 1.516 . S
C192 C191 1.516 . S
C192 C193 1.502 . S
C192 C194 1.561 . S
C192 C195 1.526 . S
C193 H177 0.959 . S
C193 H178 0.959 . S
C193 H179 0.961 . S
C193 C192 1.502 . S
C194 H180 0.960 . S
C194 H181 0.961 . S
C194 H182 0.959 . S
C194 C192 1.561 . S
C195 C192 1.526 . S
C195 C196 1.396 . S
C195 C200 1.390 . S
C196 C190 1.465 . S
C196 C195 1.396 . S
C196 C197 1.399 . S
C197 H183 0.929 . S
C197 C196 1.399 . S
C197 C198 1.385 . S
C198 H184 0.931 . S
C198 C197 1.385 . S
C198 C199 1.389 . S
C199 C198 1.389 . S
C199 C200 1.387 . S
C200 H185 0.930 . S
C200 C195 1.390 . S
C200 C199 1.387 . S
H201 C213 0.930 . S
H202 C215 0.930 . S
H203 C216 0.930 . S
H204 C220 0.959 . S
H205 C220 0.959 . S
H206 C220 0.961 . S
H207 C221 0.960 . S
H208 C221 0.961 . S
H209 C221 0.959 . S
H210 C224 0.929 . S
H211 C225 0.931 . S
H212 C227 0.930 . S
C213 H201 0.930 . S
C213 C214 1.399 . S
C213 C218 1.399 . S
C214 C213 1.399 . S
C214 C215 1.376 . S
C215 H202 0.930 . S
C215 C214 1.376 . S
C215 C216 1.388 . S
C216 H203 0.930 . S
C216 C215 1.388 . S
C216 C217 1.390 . S
C217 C216 1.390 . S
C217 C218 1.394 . S
C217 C223 1.465 . S
C218 C213 1.399 . S
C218 C217 1.394 . S
C218 C219 1.516 . S
C219 C218 1.516 . S
C219 C220 1.502 . S
C219 C221 1.561 . S
C219 C222 1.526 . S
C220 H204 0.959 . S
C220 H205 0.959 . S
C220 H206 0.961 . S
C220 C219 1.502 . S
C221 H207 0.960 . S
C221 H208 0.961 . S
C221 H209 0.959 . S
C221 C219 1.561 . S
C222 C219 1.526 . S
C222 C223 1.396 . S
C222 C227 1.390 . S
C223 C217 1.465 . S
C223 C222 1.396 . S
C223 C224 1.399 . S
C224 H210 0.929 . S
C224 C223 1.399 . S
C224 C225 1.385 . S
C225 H211 0.931 . S
C225 C224 1.385 . S
C225 C226 1.389 . S
C226 C225 1.389 . S
C226 C227 1.387 . S
C227 H212 0.930 . S
C227 C222 1.390 . S
C227 C226 1.387 . S
H228 C240 0.930 . S
H229 C242 0.930 . S
H230 C243 0.930 . S
H231 C247 0.959 . S
H232 C247 0.959 . S
H233 C247 0.961 . S
H234 C248 0.960 . S
H235 C248 0.961 . S
H236 C248 0.959 . S
H237 C251 0.929 . S
H238 C252 0.931 . S
H239 C254 0.930 . S
C240 H228 0.930 . S
C240 C241 1.399 . S
C240 C245 1.399 . S
C241 C240 1.399 . S
C241 C242 1.376 . S
C242 H229 0.930 . S
C242 C241 1.376 . S
C242 C243 1.388 . S
C243 H230 0.930 . S
C243 C242 1.388 . S
C243 C244 1.390 . S
C244 C243 1.390 . S
C244 C245 1.394 . S
C244 C250 1.465 . S
C245 C240 1.399 . S
C245 C244 1.394 . S
C245 C246 1.516 . S
C246 C245 1.516 . S
C246 C247 1.502 . S
C246 C248 1.561 . S
C246 C249 1.526 . S
C247 H231 0.959 . S
C247 H232 0.959 . S
C247 H233 0.961 . S
C247 C246 1.502 . S
C248 H234 0.960 . S
C248 H235 0.961 . S
C248 H236 0.959 . S
C248 C246 1.561 . S
C249 C246 1.526 . S
C249 C250 1.396 . S
C249 C254 1.390 . S
C250 C244 1.465 . S
C250 C249 1.396 . S
C250 C251 1.399 . S
C251 H237 0.929 . S
C251 C250 1.399 . S
C251 C252 1.385 . S
C252 H238 0.931 . S
C252 C251 1.385 . S
C252 C253 1.389 . S
C253 C252 1.389 . S
C253 C254 1.387 . S
C254 H239 0.930 . S
C254 C249 1.390 . S
C254 C253 1.387 . S
H255 C267 0.930 . S
H256 C269 0.930 . S
H257 C270 0.930 . S
H258 C274 0.959 . S
H259 C274 0.959 . S
H260 C274 0.961 . S
H261 C275 0.960 . S
H262 C275 0.961 . S
H263 C275 0.959 . S
H264 C278 0.929 . S
H265 C279 0.931 . S
H266 C281 0.930 . S
C267 H255 0.930 . S
C267 C268 1.399 . S
C267 C272 1.399 . S
C268 C267 1.399 . S
C268 C269 1.376 . S
C269 H256 0.930 . S
C269 C268 1.376 . S
C269 C270 1.388 . S
C270 H257 0.930 . S
C270 C269 1.388 . S
C270 C271 1.390 . S
C271 C270 1.390 . S
C271 C272 1.394 . S
C271 C277 1.465 . S
C272 C267 1.399 . S
C272 C271 1.394 . S
C272 C273 1.516 . S
C273 C272 1.516 . S
C273 C274 1.502 . S
C273 C275 1.561 . S
C273 C276 1.526 . S
C274 H258 0.959 . S
C274 H259 0.959 . S
C274 H260 0.961 . S
C274 C273 1.502 . S
C275 H261 0.960 . S
C275 H262 0.961 . S
C275 H263 0.959 . S
C275 C273 1.561 . S
C276 C273 1.526 . S
C276 C277 1.396 . S
C276 C281 1.390 . S
C277 C271 1.465 . S
C277 C276 1.396 . S
C277 C278 1.399 . S
C278 H264 0.929 . S
C278 C277 1.399 . S
C278 C279 1.385 . S
C279 H265 0.931 . S
C279 C278 1.385 . S
C279 C280 1.389 . S
C280 C279 1.389 . S
C280 C281 1.387 . S
C281 H266 0.930 . S
C281 C276 1.390 . S
C281 C280 1.387 . S
H282 C294 0.930 . S
H283 C296 0.930 . S
H284 C297 0.930 . S
H285 C301 0.959 . S
H286 C301 0.959 . S
H287 C301 0.961 . S
H288 C302 0.960 . S
H289 C302 0.961 . S
H290 C302 0.959 . S
H291 C305 0.929 . S
H292 C306 0.931 . S
H293 C308 0.930 . S
C294 H282 0.930 . S
C294 C295 1.399 . S
C294 C299 1.399 . S
C295 C294 1.399 . S
C295 C296 1.376 . S
C296 H283 0.930 . S
C296 C295 1.376 . S
C296 C297 1.388 . S
C297 H284 0.930 . S
C297 C296 1.388 . S
C297 C298 1.390 . S
C298 C297 1.390 . S
C298 C299 1.394 . S
C298 C304 1.465 . S
C299 C294 1.399 . S
C299 C298 1.394 . S
C299 C300 1.516 . S
C300 C299 1.516 . S
C300 C301 1.502 . S
C300 C302 1.561 . S
C300 C303 1.526 . S
C301 H285 0.959 . S
C301 H286 0.959 . S
C301 H287 0.961 . S
C301 C300 1.502 . S
C302 H288 0.960 . S
C302 H289 0.961 . S
C302 H290 0.959 . S
C302 C300 1.561 . S
C303 C300 1.526 . S
C303 C304 1.396 . S
C303 C308 1.390 . S
C304 C298 1.465 . S
C304 C303 1.396 . S
C304 C305 1.399 . S
C305 H291 0.929 . S
C305 C304 1.399 . S
C305 C306 1.385 . S
C306 H292 0.931 . S
C306 C305 1.385 . S
C306 C307 1.389 . S
C307 C306 1.389 . S
C307 C308 1.387 . S
C308 H293 0.930 . S
C308 C303 1.390 . S
C308 C307 1.387 . S
H309 C321 0.930 . S
H310 C323 0.930 . S
H311 C324 0.930 . S
H312 C328 0.959 . S
H313 C328 0.959 . S
H314 C328 0.961 . S
H315 C329 0.960 . S
H316 C329 0.961 . S
H317 C329 0.959 . S
H318 C332 0.929 . S
H319 C333 0.931 . S
H320 C335 0.930 . S
C321 H309 0.930 . S
C321 C322 1.399 . S
C321 C326 1.399 . S
C322 C321 1.399 . S
C322 C323 1.376 . S
C323 H310 0.930 . S
C323 C322 1.376 . S
C323 C324 1.388 . S
C324 H311 0.930 . S
C324 C323 1.388 . S
C324 C325 1.390 . S
C325 C324 1.390 . S
C325 C326 1.394 . S
C325 C331 1.465 . S
C326 C321 1.399 . S
C326 C325 1.394 . S
C326 C327 1.516 . S
C327 C326 1.516 . S
C327 C328 1.502 . S
C327 C329 1.561 . S
C327 C330 1.526 . S
C328 H312 0.959 . S
C328 H313 0.959 . S
C328 H314 0.961 . S
C328 C327 1.502 . S
C329 H315 0.960 . S
C329 H316 0.961 . S
C329 H317 0.959 . S
C329 C327 1.561 . S
C330 C327 1.526 . S
C330 C331 1.396 . S
C330 C335 1.390 . S
C331 C325 1.465 . S
C331 C330 1.396 . S
C331 C332 1.399 . S
C332 H318 0.929 . S
C332 C331 1.399 . S
C332 C333 1.385 . S
C333 H319 0.931 . S
C333 C332 1.385 . S
C333 C334 1.389 . S
C334 C333 1.389 . S
C334 C335 1.387 . S
C335 H320 0.930 . S
C335 C330 1.390 . S
C335 C334 1.387 . S
H336 C348 0.930 . S
H337 C350 0.930 . S
H338 C351 0.930 . S
H339 C355 0.959 . S
H340 C355 0.959 . S
H341 C355 0.961 . S
H342 C356 0.960 . S
H343 C356 0.961 . S
H344 C356 0.959 . S
H345 C359 0.929 . S
H346 C360 0.931 . S
H347 C362 0.930 . S
C348 H336 0.930 . S
C348 C349 1.399 . S
C348 C353 1.399 . S
C349 C348 1.399 . S
C349 C350 1.376 . S
C350 H337 0.930 . S
C350 C349 1.376 . S
C350 C351 1.388 . S
C351 H338 0.930 . S
C351 C350 1.388 . S
C351 C352 1.390 . S
C352 C351 1.390 . S
C352 C353 1.394 . S
C352 C358 1.465 . S
C353 C348 1.399 . S
C353 C352 1.394 . S
C353 C354 1.516 . S
C354 C353 1.516 . S
C354 C355 1.502 . S
C354 C356 1.561 . S
C354 C357 1.526 . S
C355 H339 0.959 . S
C355 H340 0.959 . S
C355 H341 0.961 . S
C355 C354 1.502 . S
C356 H342 0.960 . S
C356 H343 0.961 . S
C356 H344 0.959 . S
C356 C354 1.561 . S
C357 C354 1.526 . S
C357 C358 1.396 . S
C357 C362 1.390 . S
C358 C352 1.465 . S
C358 C357 1.396 . S
C358 C359 1.399 . S
C359 H345 0.929 . S
C359 C358 1.399 . S
C359 C360 1.385 . S
C360 H346 0.931 . S
C360 C359 1.385 . S
C360 C361 1.389 . S
C361 C360 1.389 . S
C361 C362 1.387 . S
C362 H347 0.930 . S
C362 C357 1.390 . S
C362 C361 1.387 . S
H363 C375 0.930 . S
H364 C377 0.930 . S
H365 C378 0.930 . S
H366 C382 0.959 . S
H367 C382 0.959 . S
H368 C382 0.961 . S
H369 C383 0.960 . S
H370 C383 0.961 . S
H371 C383 0.959 . S
H372 C386 0.929 . S
H373 C387 0.931 . S
H374 C389 0.930 . S
C375 H363 0.930 . S
C375 C376 1.399 . S
C375 C380 1.399 . S
C376 C375 1.399 . S
C376 C377 1.376 . S
C377 H364 0.930 . S
C377 C376 1.376 . S
C377 C378 1.388 . S
C378 H365 0.930 . S
C378 C377 1.388 . S
C378 C379 1.390 . S
C379 C378 1.390 . S
C379 C380 1.394 . S
C379 C385 1.465 . S
C380 C375 1.399 . S
C380 C379 1.394 . S
C380 C381 1.516 . S
C381 C380 1.516 . S
C381 C382 1.502 . S
C381 C383 1.561 . S
C381 C384 1.526 . S
C382 H366 0.959 . S
C382 H367 0.959 . S
C382 H368 0.961 . S
C382 C381 1.502 . S
C383 H369 0.960 . S
C383 H370 0.961 . S
C383 H371 0.959 . S
C383 C381 1.561 . S
C384 C381 1.526 . S
C384 C385 1.396 . S
C384 C389 1.390 . S
C385 C379 1.465 . S
C385 C384 1.396 . S
C385 C386 1.399 . S
C386 H372 0.929 . S
C386 C385 1.399 . S
C386 C387 1.385 . S
C387 H373 0.931 . S
C387 C386 1.385 . S
C387 C388 1.389 . S
C388 C387 1.389 . S
C388 C389 1.387 . S
C389 H374 0.930 . S
C389 C384 1.390 . S
C389 C388 1.387 . S
H390 C402 0.930 . S
H391 C404 0.930 . S
H392 C405 0.930 . S
H393 C409 0.959 . S
H394 C409 0.959 . S
H395 C409 0.961 . S
H396 C410 0.960 . S
H397 C410 0.961 . S
H398 C410 0.959 . S
H399 C413 0.929 . S
H400 C414 0.931 . S
H401 C416 0.930 . S
C402 H390 0.930 . S
C402 C403 1.399 . S
C402 C407 1.399 . S
C403 C402 1.399 . S
C403 C404 1.376 . S
C404 H391 0.930 . S
C404 C403 1.376 . S
C404 C405 1.388 . S
C405 H392 0.930 . S
C405 C404 1.388 . S
C405 C406 1.390 . S
C406 C405 1.390 . S
C406 C407 1.394 . S
C406 C412 1.465 . S
C407 C402 1.399 . S
C407 C406 1.394 . S
C407 C408 1.516 . S
C408 C407 1.516 . S
C408 C409 1.502 . S
C408 C410 1.561 . S
C408 C411 1.526 . S
C409 H393 0.959 . S
C409 H394 0.959 . S
C409 H395 0.961 . S
C409 C408 1.502 . S
C410 H396 0.960 . S
C410 H397 0.961 . S
C410 H398 0.959 . S
C410 C408 1.561 . S
C411 C408 1.526 . S
C411 C412 1.396 . S
C411 C416 1.390 . S
C412 C406 1.465 . S
C412 C411 1.396 . S
C412 C413 1.399 . S
C413 H399 0.929 . S
C413 C412 1.399 . S
C413 C414 1.385 . S
C414 H400 0.931 . S
C414 C413 1.385 . S
C414 C415 1.389 . S
C415 C414 1.389 . S
C415 C416 1.387 . S
C416 H401 0.930 . S
C416 C411 1.390 . S
C416 C415 1.387 . S
H417 C429 0.930 . S
H418 C431 0.930 . S
H419 C432 0.930 . S
H420 C436 0.959 . S
H421 C436 0.959 . S
H422 C436 0.961 . S
H423 C437 0.960 . S
H424 C437 0.961 . S
H425 C437 0.959 . S
H426 C440 0.929 . S
H427 C441 0.931 . S
H428 C443 0.930 . S
C429 H417 0.930 . S
C429 C430 1.399 . S
C429 C434 1.399 . S
C430 C429 1.399 . S
C430 C431 1.376 . S
C431 H418 0.930 . S
C431 C430 1.376 . S
C431 C432 1.388 . S
C432 H419 0.930 . S
C432 C431 1.388 . S
C432 C433 1.390 . S
C433 C432 1.390 . S
C433 C434 1.394 . S
C433 C439 1.465 . S
C434 C429 1.399 . S
C434 C433 1.394 . S
C434 C435 1.516 . S
C435 C434 1.516 . S
C435 C436 1.502 . S
C435 C437 1.561 . S
C435 C438 1.526 . S
C436 H420 0.959 . S
C436 H421 0.959 . S
C436 H422 0.961 . S
C436 C435 1.502 . S
C437 H423 0.960 . S
C437 H424 0.961 . S
C437 H425 0.959 . S
C437 C435 1.561 . S
C438 C435 1.526 . S
C438 C439 1.396 . S
C438 C443 1.390 . S
C439 C433 1.465 . S
C439 C438 1.396 . S
C439 C440 1.399 . S
C440 H426 0.929 . S
C440 C439 1.399 . S
C440 C441 1.385 . S
C441 H427 0.931 . S
C441 C440 1.385 . S
C441 C442 1.389 . S
C442 C441 1.389 . S
C442 C443 1.387 . S
C443 H428 0.930 . S
C443 C438 1.390 . S
C443 C442 1.387 . S
H444 C456 0.930 . S
H445 C458 0.930 . S
H446 C459 0.930 . S
H447 C463 0.959 . S
H448 C463 0.959 . S
H449 C463 0.961 . S
H450 C464 0.960 . S
H451 C464 0.961 . S
H452 C464 0.959 . S
H453 C467 0.929 . S
H454 C468 0.931 . S
H455 C470 0.930 . S
C456 H444 0.930 . S
C456 C457 1.399 . S
C456 C461 1.399 . S
C457 C456 1.399 . S
C457 C458 1.376 . S
C458 H445 0.930 . S
C458 C457 1.376 . S
C458 C459 1.388 . S
C459 H446 0.930 . S
C459 C458 1.388 . S
C459 C460 1.390 . S
C460 C459 1.390 . S
C460 C461 1.394 . S
C460 C466 1.465 . S
C461 C456 1.399 . S
C461 C460 1.394 . S
C461 C462 1.516 . S
C462 C461 1.516 . S
C462 C463 1.502 . S
C462 C464 1.561 . S
C462 C465 1.526 . S
C463 H447 0.959 . S
C463 H448 0.959 . S
C463 H449 0.961 . S
C463 C462 1.502 . S
C464 H450 0.960 . S
C464 H451 0.961 . S
C464 H452 0.959 . S
C464 C462 1.561 . S
C465 C462 1.526 . S
C465 C466 1.396 . S
C465 C470 1.390 . S
C466 C460 1.465 . S
C466 C465 1.396 . S
C466 C467 1.399 . S
C467 H453 0.929 . S
C467 C466 1.399 . S
C467 C468 1.385 . S
C468 H454 0.931 . S
C468 C467 1.385 . S
C468 C469 1.389 . S
C469 C468 1.389 . S
C469 C470 1.387 . S
C470 H455 0.930 . S
C470 C465 1.390 . S
C470 C469 1.387 . S
H471 C483 0.930 . S
H472 C485 0.930 . S
H473 C486 0.930 . S
H474 C490 0.959 . S
H475 C490 0.959 . S
H476 C490 0.961 . S
H477 C491 0.960 . S
H478 C491 0.961 . S
H479 C491 0.959 . S
H480 C494 0.929 . S
H481 C495 0.931 . S
H482 C497 0.930 . S
C483 H471 0.930 . S
C483 C484 1.399 . S
C483 C488 1.399 . S
C484 C483 1.399 . S
C484 C485 1.376 . S
C485 H472 0.930 . S
C485 C484 1.376 . S
C485 C486 1.388 . S
C486 H473 0.930 . S
C486 C485 1.388 . S
C486 C487 1.390 . S
C487 C486 1.390 . S
C487 C488 1.394 . S
C487 C493 1.465 . S
C488 C483 1.399 . S
C488 C487 1.394 . S
C488 C489 1.516 . S
C489 C488 1.516 . S
C489 C490 1.502 . S
C489 C491 1.561 . S
C489 C492 1.526 . S
C490 H474 0.959 . S
C490 H475 0.959 . S
C490 H476 0.961 . S
C490 C489 1.502 . S
C491 H477 0.960 . S
C491 H478 0.961 . S
C491 H479 0.959 . S
C491 C489 1.561 . S
C492 C489 1.526 . S
C492 C493 1.396 . S
C492 C497 1.390 . S
C493 C487 1.465 . S
C493 C492 1.396 . S
C493 C494 1.399 . S
C494 H480 0.929 . S
C494 C493 1.399 . S
C494 C495 1.385 . S
C495 H481 0.931 . S
C495 C494 1.385 . S
C495 C496 1.389 . S
C496 C495 1.389 . S
C496 C497 1.387 . S
C497 H482 0.930 . S
C497 C492 1.390 . S
C497 C496 1.387 . S
H498 C510 0.930 . S
H499 C512 0.930 . S
H500 C513 0.930 . S
H501 C517 0.959 . S
H502 C517 0.959 . S
H503 C517 0.961 . S
H504 C518 0.960 . S
H505 C518 0.964 . S
H506 C518 0.959 . S
H507 C521 0.929 . S
H508 C522 0.931 . S
H509 C524 0.930 . S
C510 H498 0.930 . S
C510 C511 1.399 . S
C510 C515 1.399 . S
C511 C510 1.399 . S
C511 C512 1.376 . S
C512 H499 0.930 . S
C512 C511 1.376 . S
C512 C513 1.388 . S
C513 H500 0.930 . S
C513 C512 1.388 . S
C513 C514 1.390 . S
C514 C513 1.390 . S
C514 C515 1.394 . S
C514 C520 1.465 . S
C515 C510 1.399 . S
C515 C514 1.394 . S
C515 C516 1.516 . S
C516 C515 1.516 . S
C516 C517 1.502 . S
C516 C518 1.561 1_455 S
C516 C519 1.526 1_554 S
C517 H501 0.959 . S
C517 H502 0.959 . S
C517 H503 0.961 . S
C517 C516 1.502 . S
C518 H504 0.960 . S
C518 H505 0.964 . S
C518 H506 0.959 . S
C518 C516 1.561 1_655 S
C519 C516 1.526 1_556 S
C519 C520 1.396 1_556 S
C519 C524 1.390 . S
C520 C514 1.465 . S
C520 C519 1.396 1_554 S
C520 C521 1.399 1_554 S
C521 H507 0.929 . S
C521 C520 1.399 1_556 S
C521 C522 1.385 . S
C522 H508 0.931 . S
C522 C521 1.385 . S
C522 C523 1.389 . S
C523 C522 1.389 . S
C523 C524 1.387 . S
C524 H509 0.930 . S
C524 C519 1.390 . S
C524 C523 1.387 . S
H525 C537 0.930 1_565 S
H526 C539 0.930 . S
H527 C540 0.930 . S
H528 C544 0.959 . S
H529 C544 0.959 . S
H530 C544 0.961 . S
H531 C545 0.960 . S
H532 C545 0.961 . S
H533 C545 0.959 . S
H534 C548 0.929 . S
H535 C549 0.931 . S
H536 C551 0.930 . S
C537 H525 0.930 1_545 S
C537 C538 1.399 . S
C537 C542 1.399 . S
C538 C537 1.399 . S
C538 C539 1.376 . S
C539 H526 0.930 . S
C539 C538 1.376 . S
C539 C540 1.388 . S
C540 H527 0.930 . S
C540 C539 1.388 . S
C540 C541 1.390 . S
C541 C540 1.390 . S
C541 C542 1.394 . S
C541 C547 1.465 . S
C542 C537 1.399 . S
C542 C541 1.394 . S
C542 C543 1.516 1_545 S
C543 C542 1.516 1_565 S
C543 C544 1.502 . S
C543 C545 1.561 . S
C543 C546 1.526 1_565 S
C544 H528 0.959 . S
C544 H529 0.959 . S
C544 H530 0.961 . S
C544 C543 1.502 . S
C545 H531 0.960 . S
C545 H532 0.961 . S
C545 H533 0.959 . S
C545 C543 1.561 . S
C546 C543 1.526 1_545 S
C546 C547 1.396 . S
C546 C551 1.390 1_545 S
C547 C541 1.465 . S
C547 C546 1.396 . S
C547 C548 1.399 . S
C548 H534 0.929 . S
C548 C547 1.399 . S
C548 C549 1.385 . S
C549 H535 0.931 . S
C549 C548 1.385 . S
C549 C550 1.389 . S
C550 C549 1.389 . S
C550 C551 1.387 1_545 S
C551 H536 0.930 . S
C551 C546 1.390 1_565 S
C551 C550 1.387 1_565 S
H552 C564 0.930 . S
H553 C566 0.930 . S
H554 C567 0.930 . S
H555 C571 0.959 . S
H556 C571 0.959 . S
H557 C571 0.961 . S
H558 C572 0.960 . S
H559 C572 0.961 . S
H560 C572 0.959 . S
H561 C575 0.929 . S
H562 C576 0.931 . S
H563 C578 0.930 . S
C564 H552 0.930 . S
C564 C565 1.399 . S
C564 C569 1.399 . S
C565 C564 1.399 . S
C565 C566 1.376 . S
C566 H553 0.930 . S
C566 C565 1.376 . S
C566 C567 1.388 . S
C567 H554 0.930 . S
C567 C566 1.388 . S
C567 C568 1.390 . S
C568 C567 1.390 . S
C568 C569 1.394 . S
C568 C574 1.465 . S
C569 C564 1.399 . S
C569 C568 1.394 . S
C569 C570 1.516 . S
C570 C569 1.516 . S
C570 C571 1.502 . S
C570 C572 1.561 . S
C570 C573 1.526 . S
C571 H555 0.959 . S
C571 H556 0.959 . S
C571 H557 0.961 . S
C571 C570 1.502 . S
C572 H558 0.960 . S
C572 H559 0.961 . S
C572 H560 0.959 . S
C572 C570 1.561 . S
C573 C570 1.526 . S
C573 C574 1.396 . S
C573 C578 1.390 . S
C574 C568 1.465 . S
C574 C573 1.396 . S
C574 C575 1.399 . S
C575 H561 0.929 . S
C575 C574 1.399 . S
C575 C576 1.385 . S
C576 H562 0.931 . S
C576 C575 1.385 . S
C576 C577 1.389 . S
C577 C576 1.389 . S
C577 C578 1.387 . S
C578 H563 0.930 . S
C578 C573 1.390 . S
C578 C577 1.387 . S
H579 C591 0.930 . S
H580 C593 0.930 . S
H581 C594 0.930 . S
H582 C598 0.959 . S
H583 C598 0.959 . S
H584 C598 0.961 . S
H585 C599 0.960 . S
H586 C599 0.961 . S
H587 C599 0.959 . S
H588 C602 0.929 . S
H589 C603 0.931 . S
H590 C605 0.930 . S
C591 H579 0.930 . S
C591 C592 1.399 . S
C591 C596 1.399 . S
C592 C591 1.399 . S
C592 C593 1.376 1_545 S
C593 H580 0.930 . S
C593 C592 1.376 1_565 S
C593 C594 1.388 . S
C594 H581 0.930 . S
C594 C593 1.388 . S
C594 C595 1.390 1_565 S
C595 C594 1.390 1_545 S
C595 C596 1.394 . S
C595 C601 1.465 1_545 S
C596 C591 1.399 . S
C596 C595 1.394 . S
C596 C597 1.516 . S
C597 C596 1.516 . S
C597 C598 1.502 . S
C597 C599 1.561 . S
C597 C600 1.526 . S
C598 H582 0.959 . S
C598 H583 0.959 . S
C598 H584 0.961 . S
C598 C597 1.502 . S
C599 H585 0.960 . S
C599 H586 0.961 . S
C599 H587 0.959 . S
C599 C597 1.561 . S
C600 C597 1.526 . S
C600 C601 1.396 1_545 S
C600 C605 1.390 . S
C601 C595 1.465 1_565 S
C601 C600 1.396 1_565 S
C601 C602 1.399 . S
C602 H588 0.929 . S
C602 C601 1.399 . S
C602 C603 1.385 . S
C603 H589 0.931 . S
C603 C602 1.385 . S
C603 C604 1.402 . S
C604 C603 1.402 . S
C604 C605 1.374 1_565 S
C605 H590 0.930 . S
C605 C600 1.390 . S
C605 C604 1.374 1_545 S
H606 C618 0.930 . S
H607 C620 0.930 . S
H608 C621 0.930 . S
H609 C625 0.959 . S
H610 C625 0.959 . S
H611 C625 0.961 . S
H612 C626 0.960 . S
H613 C626 0.961 . S
H614 C626 0.959 . S
H615 C629 0.929 . S
H616 C630 0.931 . S
H617 C632 0.930 . S
C618 H606 0.930 . S
C618 C619 1.399 . S
C618 C623 1.399 . S
C619 C618 1.399 . S
C619 C620 1.376 . S
C620 H607 0.930 . S
C620 C619 1.376 . S
C620 C621 1.388 . S
C621 H608 0.930 . S
C621 C620 1.388 . S
C621 C622 1.390 . S
C622 C621 1.390 . S
C622 C623 1.394 . S
C622 C628 1.465 . S
C623 C618 1.399 . S
C623 C622 1.394 . S
C623 C624 1.516 . S
C624 C623 1.516 . S
C624 C625 1.502 . S
C624 C626 1.561 . S
C624 C627 1.526 . S
C625 H609 0.959 . S
C625 H610 0.959 . S
C625 H611 0.961 . S
C625 C624 1.502 . S
C626 H612 0.960 . S
C626 H613 0.961 . S
C626 H614 0.959 . S
C626 C624 1.561 . S
C627 C624 1.526 . S
C627 C628 1.396 . S
C627 C632 1.390 1_556 S
C628 C622 1.465 . S
C628 C627 1.396 . S
C628 C629 1.399 1_556 S
C629 H615 0.929 . S
C629 C628 1.399 1_554 S
C629 C630 1.385 . S
C630 H616 0.931 . S
C630 C629 1.385 . S
C630 C631 1.389 . S
C631 C630 1.389 . S
C631 C632 1.387 . S
C632 H617 0.930 . S
C632 C627 1.390 1_554 S
C632 C631 1.387 . S
H633 C645 0.930 . S
H634 C647 0.930 . S
H635 C648 0.930 . S
H636 C652 0.959 . S
H637 C652 0.959 . S
H638 C652 0.961 . S
H639 C653 0.960 . S
H640 C653 0.961 . S
H641 C653 0.959 . S
H642 C656 0.929 . S
H643 C657 0.931 . S
H644 C659 0.930 . S
C645 H633 0.930 . S
C645 C646 1.399 . S
C645 C650 1.399 . S
C646 C645 1.399 . S
C646 C647 1.376 1_455 S
C647 H634 0.930 . S
C647 C646 1.376 1_655 S
C647 C648 1.388 . S
C648 H635 0.930 . S
C648 C647 1.388 . S
C648 C649 1.390 . S
C649 C648 1.390 . S
C649 C650 1.394 1_655 S
C649 C655 1.465 . S
C650 C645 1.399 . S
C650 C649 1.394 1_455 S
C650 C651 1.516 . S
C651 C650 1.516 . S
C651 C652 1.502 . S
C651 C653 1.561 . S
C651 C654 1.526 . S
C652 H636 0.959 . S
C652 H637 0.959 . S
C652 H638 0.961 . S
C652 C651 1.502 . S
C653 H639 0.960 . S
C653 H640 0.961 . S
C653 H641 0.959 . S
C653 C651 1.561 . S
C654 C651 1.526 . S
C654 C655 1.396 1_455 S
C654 C659 1.390 . S
C655 C649 1.465 . S
C655 C654 1.396 1_655 S
C655 C656 1.399 . S
C656 H642 0.929 . S
C656 C655 1.399 . S
C656 C657 1.385 . S
C657 H643 0.931 . S
C657 C656 1.385 . S
C657 C658 1.389 . S
C658 C657 1.389 . S
C658 C659 1.387 1_655 S
C659 H644 0.930 . S
C659 C654 1.390 . S
C659 C658 1.387 1_455 S
C187 C9 0.637 . S
C199 C169 0.585 . S
C214 C49 0.495 . S
C226 C151 0.417 . S
C241 C89 0.559 . S
C253 C163 0.438 . S
C268 C26 0.586 . S
C280 C172 0.507 . S
C307 C154 0.624 . S
C295 C66 0.602 . S
C334 C160 0.617 . S
C322 C106 0.796 . S
C349 C43 2.875 . S
C361 C133 2.862 . S
C376 C83 2.957 . S
C388 C142 2.936 . S
C403 C22 2.988 . S
C415 C124 2.950 . S
C442 C136 2.938 . S
C430 C62 2.981 . S
C469 C145 2.858 . S
C457 C102 2.890 . S
C484 C3 2.868 . S
C496 C127 2.852 . S
C523 C143 1.804 . S
C511 C15 1.707 . S
C538 C55 1.749 . S
C550 C125 1.801 . S
C565 C95 1.727 . S
C577 C134 1.796 . S
C604 C161 1.026 1_565 S
C592 C42 1.039 . S
C631 C170 1.014 . S
C619 C82 0.972 . S
C646 C2 1.010 . S
C658 C152 1.016 1_655 S
