# Generated by pormake.
# Topology anh, (6,3)-cn, num edge types: 1
# Building blocks:
#     Node 0, Type 0, BuildingBlock: INOVEN_clean_sbu_0, # of connection points: 6
#     Node 1, Type 0, BuildingBlock: INOVEN_clean_sbu_0, # of connection points: 6
#     Node 2, Type 0, BuildingBlock: INOVEN_clean_sbu_0, # of connection points: 6
#     Node 3, Type 1, BuildingBlock: MIDCAF_clean_linker_0, # of connection points: 3
#     Node 4, Type 1, BuildingBlock: MIDCAF_clean_linker_0, # of connection points: 3
#     Node 5, Type 1, BuildingBlock: MIDCAF_clean_linker_0, # of connection points: 3
#     Node 6, Type 1, BuildingBlock: MIDCAF_clean_linker_0, # of connection points: 3
#     Node 7, Type 1, BuildingBlock: MIDCAF_clean_linker_0, # of connection points: 3
#     Node 8, Type 1, BuildingBlock: MIDCAF_clean_linker_0, # of connection points: 3
#     Edge 9, Type (0, 1), BuildingBlock: ZUJKAS_clean_linker_0, # of connection points: 2
#     Edge 10, Type (0, 1), BuildingBlock: ZUJKAS_clean_linker_0, # of connection points: 2
#     Edge 11, Type (0, 1), BuildingBlock: ZUJKAS_clean_linker_0, # of connection points: 2
#     Edge 12, Type (0, 1), BuildingBlock: ZUJKAS_clean_linker_0, # of connection points: 2
#     Edge 13, Type (0, 1), BuildingBlock: ZUJKAS_clean_linker_0, # of connection points: 2
#     Edge 14, Type (0, 1), BuildingBlock: ZUJKAS_clean_linker_0, # of connection points: 2
#     Edge 15, Type (0, 1), BuildingBlock: ZUJKAS_clean_linker_0, # of connection points: 2
#     Edge 16, Type (0, 1), BuildingBlock: ZUJKAS_clean_linker_0, # of connection points: 2
#     Edge 17, Type (0, 1), BuildingBlock: ZUJKAS_clean_linker_0, # of connection points: 2
#     Edge 18, Type (0, 1), BuildingBlock: ZUJKAS_clean_linker_0, # of connection points: 2
#     Edge 19, Type (0, 1), BuildingBlock: ZUJKAS_clean_linker_0, # of connection points: 2
#     Edge 20, Type (0, 1), BuildingBlock: ZUJKAS_clean_linker_0, # of connection points: 2
#     Edge 21, Type (0, 1), BuildingBlock: ZUJKAS_clean_linker_0, # of connection points: 2
#     Edge 22, Type (0, 1), BuildingBlock: ZUJKAS_clean_linker_0, # of connection points: 2
#     Edge 23, Type (0, 1), BuildingBlock: ZUJKAS_clean_linker_0, # of connection points: 2
#     Edge 24, Type (0, 1), BuildingBlock: ZUJKAS_clean_linker_0, # of connection points: 2
#     Edge 25, Type (0, 1), BuildingBlock: ZUJKAS_clean_linker_0, # of connection points: 2
#     Edge 26, Type (0, 1), BuildingBlock: ZUJKAS_clean_linker_0, # of connection points: 2
# Relax obj value: 0.162
# Max RMSD: 0.203
# Mean RMSD: 0.152
data_MOF--net-anh--node1-INOVEN_clean_sbu_0--node2-MIDCAF_clean_linker_0--edge1-ZUJKAS_clean_linker_0
_symmetry_space_group_name_H-M    P1
_symmetry_Int_Tables_number       1
_symmetry_cell_setting            triclinic
loop_
_symmetry_equiv_pos_as_xyz
'x, y, z'
_cell_length_a     45.73692
_cell_length_b     52.231545
_cell_length_c     82.092297
_cell_angle_alpha  93.015888
_cell_angle_beta   89.726381
_cell_angle_gamma 127.00252
loop_
_atom_site_label
_atom_site_type_symbol
_atom_site_fract_x
_atom_site_fract_y
_atom_site_fract_z
_atom_type_partial_charge
Gd0 Gd 0.08536 0.52656 0.1458 0.0
Gd1 Gd 1.04166 0.55215 0.16062 0.0
C2 C 0.12777 0.60316 0.1561 0.0
C3 C 0.1206 0.51403 0.12685 0.0
C4 C 0.15665 0.52132 0.12923 0.0
C5 C 0.17901 0.54113 0.14278 0.0
C6 C 0.16761 0.50655 0.11892 0.0
C7 C 0.22205 0.52966 0.13632 0.0
C8 C 0.2002 0.51078 0.12239 0.0
C9 C 0.21145 0.54525 0.14631 0.0
C10 C 0.0894 0.53127 0.17905 0.0
C11 C 1.00057 0.47507 0.15338 0.0
C12 C 1.00022 0.56043 0.17767 0.0
C13 C 0.96904 0.53912 0.18789 0.0
C14 C 0.94355 0.54515 0.19112 0.0
C15 C 0.96204 0.51053 0.19267 0.0
C16 C 0.90208 0.49223 0.20174 0.0
C17 C 0.92874 0.4872 0.1995 0.0
C18 C 0.91034 0.52193 0.19809 0.0
C19 C 0.05187 0.55479 0.12813 0.0
O20 O 0.12704 0.58085 0.14711 0.0
O21 O 0.09912 0.59695 0.16408 0.0
O22 O 0.09577 0.49329 0.13672 0.0
O23 O 0.12075 0.53902 0.12538 0.0
O24 O 0.10519 0.52173 0.17025 0.0
O25 O 0.07379 0.53776 0.16951 0.0
O26 O 1.00227 0.49819 0.16197 0.0
O27 O 1.02769 0.48092 0.14423 0.0
O28 O 0.99422 0.55179 0.16204 0.0
O29 O 1.03228 0.56951 0.18308 0.0
O30 O 0.05089 0.57582 0.1368 0.0
O31 O 0.04503 0.5328 0.13683 0.0
H32 H 0.17081 0.55267 0.15089 0.0
H33 H 0.15045 0.491 0.10849 0.0
H34 H 0.20748 0.49816 0.11459 0.0
H35 H 0.2279 0.56013 0.15702 0.0
H36 H 0.94846 0.56702 0.18744 0.0
H37 H 0.98137 0.50542 0.19032 0.0
H38 H 0.92308 0.46456 0.20224 0.0
H39 H 0.89009 0.5263 0.19949 0.0
Gd40 Gd 0.58782 0.01555 0.48854 0.0
Gd41 Gd 0.54036 0.0359 0.48 0.0
C42 C 0.49989 0.96111 0.48051 0.0
C43 C 0.61504 0.99005 0.50195 0.0
C44 C 0.60536 0.9579 0.50382 0.0
C45 C 0.58749 0.93366 0.49117 0.0
C46 C 0.61486 0.95159 0.51847 0.0
C47 C 0.5901 0.89756 0.50766 0.0
C48 C 0.60725 0.92171 0.5204 0.0
C49 C 0.5801 0.90379 0.49304 0.0
C50 C 0.58447 0.02326 0.45663 0.0
C51 C 0.62913 0.0903 0.48621 0.0
C52 C 0.51341 0.06302 0.46834 0.0
C53 C 0.52076 0.09436 0.47173 0.0
C54 C 0.54338 0.11456 0.48513 0.0
C55 C 0.50445 0.10393 0.46185 0.0
C56 C 0.53219 0.15328 0.47912 0.0
C57 C 0.51015 0.13315 0.46549 0.0
C58 C 0.54897 0.14368 0.48881 0.0
C59 C 0.54581 0.02983 0.51208 0.0
O60 O 0.52999 0.96873 0.48803 0.0
O61 O 0.49898 0.98313 0.47385 0.0
O62 O 0.62286 1.00066 0.48728 0.0
O63 O 0.5952 0.99674 0.50981 0.0
O64 O 0.61354 0.0301 0.46409 0.0
O65 O 0.55789 0.01058 0.46603 0.0
O66 O 0.598 0.08243 0.47979 0.0
O67 O 0.63118 0.06871 0.49263 0.0
O68 O 0.49887 0.04357 0.48022 0.0
O69 O 0.53963 0.0636 0.46142 0.0
O70 O 0.51631 0.02263 0.50498 0.0
O71 O 0.57135 0.04186 0.50221 0.0
H72 H 0.57953 0.93788 0.4798 0.0
H73 H 0.62861 0.96996 0.52838 0.0
H74 H 0.61562 0.91779 0.53174 0.0
H75 H 0.56647 0.88554 0.48308 0.0
H76 H 0.55622 0.10752 0.49289 0.0
H77 H 0.48705 0.08868 0.45141 0.0
H78 H 0.49728 0.13997 0.4576 0.0
H79 H 0.56571 0.15825 0.49952 0.0
Gd80 Gd 0.6127 0.56324 0.84782 0.0
Gd81 Gd 0.56271 0.4916 0.85188 0.0
C82 C 0.52384 0.52611 0.85172 0.0
C83 C 0.64313 0.62002 0.83777 0.0
C84 C 0.6341 0.6425 0.83557 0.0
C85 C 0.62702 0.65585 0.84891 0.0
C86 C 0.63381 0.65168 0.81983 0.0
C87 C 0.62028 0.68761 0.83079 0.0
C88 C 0.62684 0.67387 0.81746 0.0
C89 C 0.62027 0.67824 0.84654 0.0
C90 C 0.60525 0.54596 0.87876 0.0
C91 C 0.65234 0.52956 0.84941 0.0
C92 C 0.53191 0.43385 0.8607 0.0
C93 C 0.53848 0.40968 0.85802 0.0
C94 C 0.51122 0.37773 0.86146 0.0
C95 C 0.57135 0.41801 0.85149 0.0
C96 C 0.54947 0.3624 0.85167 0.0
C97 C 0.57693 0.39468 0.84846 0.0
C98 C 0.51659 0.35426 0.85829 0.0
C99 C 0.57105 0.50846 0.82075 0.0
O100 O 0.55538 0.55112 0.84632 0.0
O101 O 0.52127 0.50122 0.85691 0.0
O102 O 0.64717 0.6148 0.85273 0.0
O103 O 0.62588 0.59401 0.82797 0.0
O104 O 0.63581 0.57032 0.8733 0.0
O105 O 0.58004 0.53336 0.86796 0.0
O106 O 0.62002 0.50381 0.8537 0.0
O107 O 0.65579 0.55511 0.84467 0.0
O108 O 0.52136 0.44024 0.84775 0.0
O109 O 0.55655 0.45968 0.86974 0.0
O110 O 0.54067 0.48407 0.8262 0.0
O111 O 0.59601 0.52137 0.83168 0.0
H112 H 0.62695 0.64924 0.86121 0.0
H113 H 0.63944 0.64193 0.80936 0.0
H114 H 0.62749 0.68088 0.80519 0.0
H115 H 0.61494 0.68815 0.85704 0.0
H116 H 0.48553 0.37083 0.86637 0.0
H117 H 0.59256 0.44248 0.84859 0.0
H118 H 0.60279 0.40199 0.84359 0.0
H119 H 0.4946 0.32963 0.86068 0.0
C120 C 0.44439 0.94167 0.19611 0.0
C121 C 0.44736 0.93056 0.1807 0.0
C122 C 0.48066 0.94984 0.17263 0.0
C123 C 0.51048 0.97933 0.18001 0.0
H124 H 0.60974 0.08184 0.1736 0.0
H125 H 0.65895 0.1323 0.16191 0.0
H126 H 0.6994 0.17684 0.21045 0.0
H127 H 0.65105 0.12737 0.22206 0.0
H128 H 0.62511 0.08614 0.25236 0.0
H129 H 0.62589 0.08427 0.28192 0.0
H130 H 0.51325 0.99927 0.27918 0.0
H131 H 0.51276 1.00052 0.24965 0.0
H132 H 0.47072 0.97793 0.21555 0.0
H133 H 0.41946 0.92735 0.20281 0.0
H134 H 0.48375 0.94198 0.1607 0.0
H135 H 0.53607 0.99336 0.17375 0.0
N136 N 0.56757 0.04448 0.19729 0.0
N137 N 0.59611 0.0698 0.22294 0.0
N138 N 0.54043 0.01849 0.2214 0.0
C139 C 0.59596 0.07054 0.20639 0.0
C140 C 0.56857 0.04393 0.23053 0.0
C141 C 0.53957 0.01835 0.20487 0.0
C142 C 0.6261 0.10036 0.1988 0.0
C143 C 0.62918 0.1024 0.18176 0.0
C144 C 0.65742 0.13126 0.17506 0.0
C145 C 0.68282 0.15869 0.18526 0.0
C146 C 0.67993 0.1564 0.20223 0.0
C147 C 0.65214 0.12775 0.20889 0.0
C148 C 0.56893 0.04341 0.24858 0.0
C149 C 0.60047 0.06707 0.25805 0.0
C150 C 0.60086 0.0661 0.27504 0.0
C151 C 0.56965 0.04158 0.28297 0.0
C152 C 0.53799 0.01817 0.27349 0.0
C153 C 0.53767 0.019 0.25651 0.0
C154 C 0.50762 0.98965 0.19571 0.0
C155 C 0.47402 0.97067 0.20349 0.0
C156 C 0.59027 0.44593 0.5582 0.0
C157 C 0.57685 0.43748 0.54194 0.0
C158 C 0.56631 0.45471 0.53469 0.0
C159 C 0.56911 0.47984 0.54354 0.0
H160 H 0.56893 0.56042 0.53911 0.0
H161 H 0.56296 0.59887 0.52695 0.0
H162 H 0.58264 0.64733 0.57442 0.0
H163 H 0.5878 0.60893 0.58658 0.0
H164 H 0.59345 0.58219 0.61762 0.0
H165 H 0.59855 0.58441 0.64724 0.0
H166 H 0.60118 0.50302 0.64394 0.0
H167 H 0.59676 0.50104 0.61431 0.0
H168 H 0.60295 0.47631 0.57962 0.0
H169 H 0.59819 0.43288 0.56421 0.0
H170 H 0.55607 0.44886 0.52214 0.0
H171 H 0.56061 0.49255 0.53763 0.0
N172 N 0.58049 0.53469 0.56241 0.0
N173 N 0.58694 0.56009 0.58803 0.0
N174 N 0.58875 0.51625 0.58617 0.0
C175 C 0.58213 0.55809 0.57156 0.0
C176 C 0.59023 0.53931 0.59545 0.0
C177 C 0.58391 0.51371 0.56968 0.0
C178 C 0.57872 0.58137 0.56386 0.0
C179 C 0.57191 0.57924 0.54696 0.0
C180 C 0.56863 0.60137 0.53996 0.0
C181 C 0.57204 0.62608 0.54972 0.0
C182 C 0.57908 0.62825 0.56657 0.0
C183 C 0.5823 0.60623 0.57354 0.0
C184 C 0.59455 0.54135 0.6135 0.0
C185 C 0.59528 0.56481 0.62316 0.0
C186 C 0.59803 0.56602 0.64018 0.0
C187 C 0.60016 0.54384 0.64797 0.0
C188 C 0.60003 0.52071 0.63832 0.0
C189 C 0.59725 0.51947 0.6213 0.0
C190 C 0.58208 0.48798 0.5599 0.0
C191 C 0.59273 0.47075 0.56707 0.0
C192 C 0.97656 0.50835 0.8553 0.0
C193 C 0.97675 0.5353 0.85868 0.0
C194 C 1.00951 0.56368 0.86532 0.0
C195 C 1.04003 0.56458 0.86927 0.0
H196 H 0.15702 0.55358 0.85007 0.0
H197 H 0.2083 0.55181 0.84302 0.0
H198 H 0.18576 0.49543 0.88439 0.0
H199 H 0.13509 0.49675 0.89107 0.0
H200 H 0.12831 0.5307 0.92423 0.0
H201 H 0.12691 0.5354 0.95387 0.0
H202 H 0.05012 0.55726 0.9495 0.0
H203 H 0.05176 0.55301 0.91989 0.0
H204 H 1.0054 0.4877 0.85732 0.0
H205 H 0.95217 0.48608 0.85007 0.0
H206 H 1.01102 0.58487 0.86837 0.0
H207 H 0.06366 0.58622 0.87541 0.0
N208 N 0.09056 0.53142 0.8682 0.0
N209 N 0.1136 0.53335 0.89425 0.0
N210 N 0.06746 0.53965 0.89206 0.0
C211 C 0.11434 0.53013 0.87774 0.0
C212 C 0.09052 0.5382 0.90151 0.0
C213 C 0.06681 0.53614 0.87554 0.0
C214 C 0.14152 0.52517 0.87111 0.0
C215 C 0.16253 0.54015 0.85737 0.0
C216 C 0.19235 0.53949 0.85348 0.0
C217 C 0.20171 0.5235 0.86311 0.0
C218 C 0.17963 0.50764 0.87644 0.0
C219 C 0.15035 0.50853 0.88035 0.0
C220 C 0.09013 0.54145 0.91959 0.0
C221 C 0.11119 0.53662 0.92955 0.0
C222 C 0.11025 0.53913 0.94656 0.0
C223 C 0.0884 0.54669 0.95405 0.0
C224 C 0.06758 0.55177 0.94412 0.0
C225 C 0.06837 0.54912 0.92712 0.0
C226 C 1.03936 0.5374 0.8665 0.0
C227 C 1.00742 0.50941 0.85914 0.0
C228 C 0.19227 0.61592 0.44248 0.0
C229 C 0.18673 0.63 0.45599 0.0
C230 C 0.15157 0.61316 0.4625 0.0
C231 C 0.12236 0.5832 0.45532 0.0
H232 H 1.02486 0.47847 0.46258 0.0
H233 H 0.97425 0.42852 0.47411 0.0
H234 H 0.93318 0.38498 0.42546 0.0
H235 H 0.98298 0.43398 0.414 0.0
H236 H 1.0135 0.47488 0.38362 0.0
H237 H 1.01499 0.47625 0.35394 0.0
H238 H 0.12861 0.55916 0.35766 0.0
H239 H 0.12738 0.55787 0.38728 0.0
H240 H 0.1681 0.57691 0.42438 0.0
H241 H 0.21889 0.62837 0.43707 0.0
H242 H 0.14656 0.62344 0.47294 0.0
H243 H 0.0953 0.57115 0.46022 0.0
N244 N 0.06753 0.51575 0.43917 0.0
N245 N 1.04082 0.49036 0.41333 0.0
N246 N 0.0973 0.54115 0.41528 0.0
C247 C 1.03955 0.48983 0.42988 0.0
C248 C 0.06944 0.51588 0.40593 0.0
C249 C 0.09661 0.54146 0.43182 0.0
C250 C 1.00834 0.46041 0.43734 0.0
C251 C 1.00497 0.45825 0.45436 0.0
C252 C 0.97593 0.42968 0.46098 0.0
C253 C 0.94996 0.40263 0.4507 0.0
C254 C 0.95309 0.40508 0.43374 0.0
C255 C 0.98171 0.43346 0.42717 0.0
C256 C 0.07032 0.51627 0.38788 0.0
C257 C 1.03886 0.49336 0.37813 0.0
C258 C 1.03961 0.49423 0.36113 0.0
C259 C 0.07191 0.51781 0.35349 0.0
C260 C 0.10341 0.54052 0.3632 0.0
C261 C 0.1026 0.53986 0.38019 0.0
C262 C 0.12774 0.57005 0.4413 0.0
C263 C 0.16311 0.58648 0.43516 0.0
C264 C 0.579 0.11553 0.77391 0.0
C265 C 0.58163 0.11825 0.79105 0.0
C266 C 0.58438 0.09672 0.79922 0.0
C267 C 0.58484 0.07323 0.79041 0.0
H268 H 0.5869 0.99406 0.79482 0.0
H269 H 0.58738 0.95295 0.80743 0.0
H270 H 0.584 0.91232 0.75964 0.0
H271 H 0.58289 0.95268 0.74707 0.0
H272 H 0.58145 0.98164 0.71559 0.0
H273 H 0.5801 0.98164 0.68591 0.0
H274 H 0.58189 0.06537 0.68946 0.0
H275 H 0.58386 0.06583 0.71906 0.0
H276 H 0.57738 0.09105 0.75195 0.0
H277 H 0.57606 0.13121 0.76721 0.0
H278 H 0.58669 0.0983 0.81241 0.0
H279 H 0.58722 0.05716 0.79706 0.0
N280 N 0.58389 0.02388 0.77105 0.0
N281 N 0.5839 1.00162 0.74543 0.0
N282 N 0.58289 0.04589 0.74706 0.0
C283 C 0.58424 1.00144 0.76199 0.0
C284 C 0.58328 0.02376 0.73786 0.0
C285 C 0.58318 0.04621 0.76361 0.0
C286 C 0.58477 0.97676 0.7699 0.0
C287 C 0.58617 0.97632 0.787 0.0
C288 C 0.58662 0.95284 0.79424 0.0
C289 C 0.5855 0.92922 0.78454 0.0
C290 C 0.58422 0.92977 0.76748 0.0
C291 C 0.58385 0.95317 0.76026 0.0
C292 C 0.58275 0.02373 0.71978 0.0
C293 C 0.58167 1.00013 0.71007 0.0
C294 C 0.58071 1.00001 0.69304 0.0
C295 C 0.58094 0.02352 0.68532 0.0
C296 C 0.58222 0.04719 0.69502 0.0
C297 C 0.58309 0.04729 0.71203 0.0
C298 C 0.58252 0.07077 0.77323 0.0
C299 C 0.57952 0.09222 0.76514 0.0
C300 C 0.58276 0.35322 0.12491 0.0
C301 C 0.56762 0.34173 0.1402 0.0
C302 C 0.53369 0.33529 0.14361 0.0
C303 C 0.51704 0.34285 0.13266 0.0
H304 H 0.49127 0.40842 0.13929 0.0
H305 H 0.47041 0.43765 0.15235 0.0
H306 H 0.43612 0.44581 0.10518 0.0
H307 H 0.45761 0.4175 0.09213 0.0
H308 H 0.47899 0.3969 0.06041 0.0
H309 H 0.4941 0.40993 0.03221 0.0
H310 H 0.58032 0.39928 0.03645 0.0
H311 H 0.56533 0.38636 0.06499 0.0
H312 H 0.57908 0.37063 0.10255 0.0
H313 H 0.60906 0.35892 0.12185 0.0
H314 H 0.52068 0.32567 0.15505 0.0
H315 H 0.49184 0.33912 0.136 0.0
N316 N 0.50268 0.38125 0.11518 0.0
N317 N 0.49715 0.3977 0.09019 0.0
N318 N 0.52558 0.37256 0.09154 0.0
C319 C 0.49159 0.39548 0.10645 0.0
C320 C 0.51395 0.38629 0.08262 0.0
C321 C 0.5194 0.36952 0.10782 0.0
C322 C 0.47631 0.41077 0.11464 0.0
C323 C 0.47909 0.41631 0.13172 0.0
C324 C 0.46718 0.43308 0.13922 0.0
C325 C 0.45217 0.44452 0.12979 0.0
C326 C 0.44851 0.43815 0.11277 0.0
C327 C 0.46054 0.42161 0.10529 0.0
C328 C 0.52111 0.39077 0.065 0.0
C329 C 0.50099 0.39702 0.05535 0.0
C330 C 0.50945 0.40425 0.03911 0.0
C331 C 0.53838 0.40561 0.0321 0.0
C332 C 0.558 0.39858 0.04158 0.0
C333 C 0.54926 0.39098 0.05787 0.0
C334 C 0.53353 0.35635 0.11791 0.0
C335 C 0.56571 0.36019 0.11382 0.0
H336 H 0.27552 0.53861 0.11668 0.0
H337 H 0.32365 0.53348 0.12383 0.0
H338 H 0.28903 0.5183 0.17357 0.0
H339 H 0.2406 0.52312 0.16653 0.0
H340 H 0.38261 0.5663 0.15388 0.0
H341 H 0.27388 0.43361 0.15095 0.0
H342 H 0.26783 0.45959 0.14031 0.0
H343 H 0.26658 0.45985 0.16214 0.0
C344 C 0.27849 0.53461 0.12918 0.0
C345 C 0.25418 0.53101 0.14101 0.0
C346 C 0.30612 0.53197 0.13327 0.0
C347 C 0.30969 0.52554 0.1492 0.0
C348 C 0.28668 0.52346 0.16124 0.0
H349 H 0.41487 0.43267 0.15808 0.0
H350 H 0.38673 0.45775 0.16834 0.0
C351 C 0.25914 0.52627 0.15719 0.0
C352 C 0.33443 0.51707 0.15253 0.0
H353 H 0.33472 0.45203 0.15194 0.0
C354 C 0.37229 0.54138 0.15379 0.0
C355 C 0.32066 0.48458 0.15266 0.0
C356 C 0.28004 0.45772 0.15143 0.0
C357 C 0.397 0.53385 0.15433 0.0
C358 C 0.38329 0.50121 0.15303 0.0
C359 C 0.3453 0.47705 0.15291 0.0
C360 C 0.407 0.49127 0.1493 0.0
C361 C 0.43745 0.56093 0.15593 0.0
C362 C 0.42858 0.50237 0.13547 0.0
C363 C 0.44501 0.48839 0.12973 0.0
C364 C 0.43959 0.46254 0.13748 0.0
C365 C 0.41968 0.45261 0.15186 0.0
C366 C 0.4035 0.46687 0.15771 0.0
H367 H 0.44259 0.58164 0.16348 0.0
H368 H 0.45294 0.55328 0.16149 0.0
H369 H 0.4481 0.5694 0.14365 0.0
H370 H 0.43099 0.52055 0.1285 0.0
H371 H 0.4608 0.49703 0.1188 0.0
H372 H 0.70054 0.11476 0.49316 0.0
H373 H 0.7555 0.16957 0.49001 0.0
H374 H 0.68819 0.19721 0.47526 0.0
H375 H 0.63325 0.14246 0.47805 0.0
H376 H 0.74174 0.2157 0.45436 0.0
H377 H 0.80159 0.25284 0.51735 0.0
H378 H 0.79284 0.21594 0.50964 0.0
H379 H 0.75517 0.21782 0.51268 0.0
C380 C 0.69739 0.13261 0.48947 0.0
C381 C 0.66243 0.12412 0.48583 0.0
C382 C 0.72888 0.16404 0.48777 0.0
C383 C 0.72606 0.18772 0.48259 0.0
C384 C 0.69112 0.17943 0.47932 0.0
H385 H 0.90484 0.39296 0.47581 0.0
H386 H 0.85084 0.34134 0.48447 0.0
C387 C 0.65969 0.14804 0.48092 0.0
C388 C 0.75939 0.22039 0.47933 0.0
H389 H 0.84043 0.2862 0.49634 0.0
C390 C 0.76316 0.23115 0.4636 0.0
C391 C 0.78724 0.24081 0.49141 0.0
C392 C 0.78393 0.23144 0.50876 0.0
C393 C 0.79422 0.26132 0.45949 0.0
C394 C 0.8228 0.28114 0.47134 0.0
C395 C 0.81871 0.27083 0.48721 0.0
C396 C 0.85726 0.31234 0.46726 0.0
C397 C 0.79596 0.2718 0.4425 0.0
C398 C 0.87947 0.31315 0.45513 0.0
C399 C 0.91014 0.34245 0.45018 0.0
C400 C 0.91954 0.3717 0.45732 0.0
C401 C 0.89837 0.37087 0.47008 0.0
C402 C 0.86747 0.34141 0.475 0.0
H403 H 0.7683 0.25829 0.43652 0.0
H404 H 0.80889 0.29787 0.44271 0.0
H405 H 0.81268 0.26717 0.43493 0.0
H406 H 0.87267 0.29103 0.44927 0.0
H407 H 0.92632 0.34221 0.44058 0.0
H408 H 0.57778 0.68673 0.80708 0.0
H409 H 0.57087 0.72868 0.80205 0.0
H410 H 0.64208 0.78579 0.8438 0.0
H411 H 0.64962 0.74418 0.84877 0.0
H412 H 0.5458 0.75718 0.82414 0.0
H413 H 0.68903 0.84516 0.80479 0.0
H414 H 0.66785 0.80285 0.80548 0.0
H415 H 0.68347 0.82796 0.82402 0.0
C416 C 0.59207 0.70827 0.81516 0.0
C417 C 0.61443 0.71222 0.82826 0.0
C418 C 0.58791 0.7321 0.81233 0.0
C419 C 0.60628 0.76043 0.82245 0.0
C420 C 0.62799 0.76422 0.83575 0.0
H421 H 0.62739 0.93647 0.81078 0.0
H422 H 0.63069 0.89559 0.82189 0.0
C423 C 0.63202 0.74032 0.83864 0.0
C424 C 0.60311 0.7862 0.81887 0.0
H425 H 0.65143 0.86195 0.80549 0.0
C426 C 0.56888 0.78015 0.82012 0.0
C427 C 0.63335 0.81616 0.81372 0.0
C428 C 0.67051 0.82354 0.81178 0.0
C429 C 0.56403 0.8033 0.81627 0.0
C430 C 0.59405 0.83296 0.81069 0.0
C431 C 0.62846 0.83923 0.80979 0.0
C432 C 0.59 0.85713 0.80486 0.0
C433 C 0.52687 0.79583 0.81834 0.0
C434 C 0.56602 0.84909 0.79162 0.0
C435 C 0.56392 0.87229 0.78533 0.0
C436 C 0.58603 0.90416 0.79204 0.0
C437 C 0.60968 0.91208 0.80546 0.0
C438 C 0.61176 0.8888 0.81175 0.0
H439 H 0.51073 0.77735 0.82734 0.0
H440 H 0.52934 0.81771 0.82238 0.0
H441 H 0.51135 0.78625 0.80648 0.0
H442 H 0.5495 0.825 0.78588 0.0
H443 H 0.54515 0.86529 0.7751 0.0
H444 H 0.85629 0.49161 0.22362 0.0
H445 H 0.78958 0.45178 0.22367 0.0
H446 H 0.79524 0.39341 0.1865 0.0
H447 H 0.8615 0.43236 0.18685 0.0
H448 H 0.75471 0.44544 0.19742 0.0
H449 H 0.70882 0.32395 0.20952 0.0
H450 H 0.75444 0.35929 0.21525 0.0
H451 H 0.74404 0.3406 0.19486 0.0
C452 C 0.84328 0.46961 0.21597 0.0
C453 C 0.86393 0.46515 0.20515 0.0
C454 C 0.80523 0.44682 0.21603 0.0
C455 C 0.78725 0.41946 0.20512 0.0
C456 C 0.80828 0.41376 0.19534 0.0
H457 H 0.61452 0.32527 0.13706 0.0
H458 H 0.66196 0.33838 0.15693 0.0
C459 C 0.84632 0.43626 0.19546 0.0
C460 C 0.74762 0.40148 0.20109 0.0
H461 H 0.66996 0.32658 0.19003 0.0
C462 C 0.73583 0.41941 0.19632 0.0
C463 C 0.72305 0.36752 0.19946 0.0
C464 C 0.73325 0.34682 0.20522 0.0
C465 C 0.70135 0.4046 0.18883 0.0
C466 C 0.67751 0.37072 0.18635 0.0
C467 C 0.68833 0.35254 0.19195 0.0
C468 C 0.64341 0.35468 0.17626 0.0
C469 C 0.69193 0.4256 0.18254 0.0
C470 C 0.61609 0.35776 0.18088 0.0
C471 C 0.58961 0.35124 0.16943 0.0
C472 C 0.58958 0.34088 0.15321 0.0
C473 C 0.61441 0.33417 0.14926 0.0
C474 C 0.64125 0.34121 0.16067 0.0
H475 H 0.71607 0.4513 0.18281 0.0
H476 H 0.68062 0.41768 0.16981 0.0
H477 H 0.67085 0.42377 0.19028 0.0
H478 H 0.61702 0.36769 0.19296 0.0
H479 H 0.57113 0.35682 0.17302 0.0
H480 H 0.49502 0.9076 0.48673 0.0
H481 H 0.44076 0.85144 0.48396 0.0
H482 H 0.37569 0.88128 0.46906 0.0
H483 H 0.42996 0.93734 0.47129 0.0
H484 H 0.37676 0.81911 0.49898 0.0
H485 H 0.34982 0.81576 0.43287 0.0
H486 H 0.39169 0.84884 0.44321 0.0
H487 H 0.35076 0.84641 0.44437 0.0
C488 C 0.46919 0.90222 0.48279 0.0
C489 C 0.46695 0.927 0.47907 0.0
C490 C 0.43815 0.87006 0.48123 0.0
C491 C 0.40418 0.86197 0.47599 0.0
C492 C 0.40172 0.88675 0.47266 0.0
H493 H 0.18476 0.68083 0.46243 0.0
H494 H 0.23689 0.73718 0.46888 0.0
C495 C 0.43281 0.91887 0.47403 0.0
C496 C 0.37131 0.82768 0.47417 0.0
H497 H 0.30337 0.77071 0.44706 0.0
C498 C 0.36084 0.80854 0.4876 0.0
C499 C 0.3505 0.81372 0.4593 0.0
C500 C 0.36145 0.83214 0.44407 0.0
C501 C 0.32997 0.77607 0.4866 0.0
C502 C 0.30902 0.76241 0.47183 0.0
C503 C 0.31933 0.78143 0.45843 0.0
C504 C 0.27707 0.72801 0.46977 0.0
C505 C 0.31968 0.75655 0.50135 0.0
C506 C 0.28239 0.70421 0.46835 0.0
C507 C 0.25276 0.6721 0.46459 0.0
C508 C 0.21719 0.66316 0.46227 0.0
C509 C 0.21174 0.6869 0.46435 0.0
C510 C 0.24149 0.7191 0.46793 0.0
H511 H 0.33513 0.77181 0.51257 0.0
H512 H 0.28988 0.7428 0.50337 0.0
H513 H 0.32564 0.73898 0.49919 0.0
H514 H 0.30968 0.71064 0.46959 0.0
H515 H 0.25778 0.65433 0.4631 0.0
H516 H 0.52722 0.30994 0.86887 0.0
H517 H 0.53423 0.26785 0.86162 0.0
H518 H 0.59097 0.31591 0.8185 0.0
H519 H 0.58318 0.3575 0.82529 0.0
H520 H 0.50887 0.2282 0.83073 0.0
H521 H 0.65906 0.2999 0.8423 0.0
H522 H 0.63199 0.3115 0.85108 0.0
H523 H 0.64466 0.31837 0.83013 0.0
C524 C 0.54101 0.31151 0.85778 0.0
C525 C 0.55472 0.33726 0.8477 0.0
C526 C 0.54519 0.28753 0.85374 0.0
C527 C 0.56354 0.28906 0.83966 0.0
C528 C 0.57734 0.31467 0.8296 0.0
H529 H 0.61603 0.18049 0.78348 0.0
H530 H 0.61096 0.22042 0.79687 0.0
C531 C 0.57296 0.33849 0.83355 0.0
C532 C 0.567 0.26322 0.83501 0.0
H533 H 0.6299 0.2492 0.82771 0.0
C534 C 0.53523 0.23257 0.83025 0.0
C535 C 0.60146 0.26916 0.83439 0.0
C536 C 0.63628 0.30143 0.83987 0.0
C537 C 0.53715 0.20798 0.82417 0.0
C538 C 0.57174 0.21408 0.82322 0.0
C539 C 0.60341 0.24454 0.82845 0.0
C540 C 0.57593 0.18995 0.8158 0.0
C541 C 0.5023 0.17624 0.81808 0.0
C542 C 0.5586 0.15973 0.8222 0.0
C543 C 0.56107 0.13661 0.81442 0.0
C544 C 0.58114 0.1434 0.80016 0.0
C545 C 0.59968 0.17419 0.79422 0.0
C546 C 0.59707 0.19716 0.80194 0.0
H547 H 0.47957 0.17802 0.81614 0.0
H548 H 0.50659 0.16728 0.80644 0.0
H549 H 0.49368 0.15825 0.82725 0.0
H550 H 0.5428 0.15389 0.8331 0.0
H551 H 0.54641 0.11315 0.81931 0.0
H552 H 0.56331 0.86055 0.53402 0.0
H553 H 0.55671 0.81111 0.53781 0.0
H554 H 0.59552 0.8145 0.48943 0.0
H555 H 0.60257 0.86419 0.48559 0.0
H556 H 0.51493 0.74981 0.51678 0.0
H557 H 0.66536 0.81203 0.52168 0.0
H558 H 0.64574 0.83326 0.5247 0.0
H559 H 0.64819 0.81994 0.5045 0.0
C560 C 0.57045 0.85078 0.52419 0.0
C561 C 0.58368 0.86638 0.50954 0.0
C562 C 0.56647 0.82246 0.52634 0.0
C563 C 0.57595 0.80938 0.51396 0.0
C564 C 0.58833 0.8244 0.49918 0.0
H565 H 0.59922 0.65553 0.52092 0.0
H566 H 0.59701 0.69724 0.51018 0.0
C567 C 0.59209 0.85263 0.49696 0.0
C568 C 0.57383 0.78053 0.51679 0.0
H569 H 0.62682 0.75628 0.52433 0.0
C570 C 0.53933 0.7511 0.51834 0.0
C571 C 0.60573 0.78232 0.51869 0.0
C572 C 0.64346 0.81355 0.51742 0.0
C573 C 0.53589 0.72339 0.5219 0.0
C574 C 0.56786 0.72543 0.52441 0.0
C575 C 0.60233 0.75472 0.52242 0.0
C576 C 0.56641 0.69814 0.5301 0.0
C577 C 0.49801 0.6922 0.52284 0.0
C578 C 0.54988 0.68469 0.54483 0.0
C579 C 0.55079 0.66068 0.5509 0.0
C580 C 0.56873 0.64985 0.5425 0.0
C581 C 0.58481 0.66302 0.52761 0.0
C582 C 0.58378 0.68701 0.5215 0.0
H583 H 0.47767 0.69204 0.51538 0.0
H584 H 0.49738 0.67133 0.51861 0.0
H585 H 0.48941 0.68926 0.53569 0.0
H586 H 0.53703 0.69332 0.55189 0.0
H587 H 0.53774 0.65085 0.56231 0.0
H588 H 0.72343 0.57719 0.8411 0.0
H589 H 0.77693 0.57708 0.84194 0.0
H590 H 0.71042 0.48216 0.85982 0.0
H591 H 0.65687 0.48202 0.85893 0.0
H592 H 0.81191 0.57241 0.86734 0.0
H593 H 0.75984 0.46919 0.82279 0.0
H594 H 0.73798 0.48854 0.82528 0.0
H595 H 0.73008 0.46002 0.83946 0.0
C596 C 0.71999 0.55614 0.84513 0.0
C597 C 0.68532 0.52948 0.84979 0.0
C598 C 0.75082 0.55614 0.84563 0.0
C599 C 0.74805 0.52939 0.85066 0.0
C600 C 0.71354 0.50287 0.85547 0.0
H601 H 0.90423 0.48491 0.8637 0.0
H602 H 0.85002 0.48376 0.86166 0.0
C603 C 0.68273 0.50289 0.85502 0.0
C604 C 0.78134 0.52966 0.85131 0.0
H605 H 0.81499 0.4891 0.83747 0.0
C606 C 0.81254 0.55425 0.86071 0.0
C607 C 0.78262 0.50597 0.84279 0.0
C608 C 0.75101 0.47959 0.83189 0.0
C609 C 0.84423 0.55547 0.8621 0.0
C610 C 0.84565 0.5319 0.8535 0.0
C611 C 0.81439 0.50727 0.84411 0.0
C612 C 0.87907 0.53233 0.85414 0.0
C613 C 0.87548 0.58159 0.87325 0.0
C614 C 0.91392 0.55961 0.85019 0.0
C615 C 0.94516 0.56033 0.85133 0.0
C616 C 0.94272 0.53363 0.85629 0.0
C617 C 0.90757 0.50592 0.8597 0.0
C618 C 0.87634 0.50529 0.85862 0.0
H619 H 0.86611 0.59117 0.88257 0.0
H620 H 0.88887 0.57272 0.87962 0.0
H621 H 0.89622 0.60178 0.86592 0.0
H622 H 0.91709 0.58053 0.84616 0.0
H623 H 0.97134 0.58194 0.84825 0.0
H624 H 0.19555 0.62534 0.14488 0.0
H625 H 0.25207 0.68052 0.14719 0.0
H626 H 0.19405 0.71204 0.17147 0.0
H627 H 0.13781 0.65712 0.16954 0.0
H628 H 0.26968 0.73668 0.13561 0.0
H629 H 0.27938 0.74685 0.20314 0.0
H630 H 0.24856 0.70889 0.19169 0.0
H631 H 0.23617 0.73546 0.19545 0.0
C632 C 0.1948 0.64399 0.15075 0.0
C633 C 0.1621 0.63664 0.15716 0.0
C634 C 0.22717 0.67555 0.15204 0.0
C635 C 0.22752 0.70037 0.15978 0.0
C636 C 0.19473 0.69321 0.16583 0.0
H637 H 0.37445 0.90403 0.18046 0.0
H638 H 0.32273 0.84802 0.17374 0.0
C639 C 0.16248 0.66172 0.16464 0.0
C640 C 0.26196 0.7338 0.16154 0.0
H641 H 0.31728 0.79589 0.18976 0.0
C642 C 0.28033 0.74954 0.14746 0.0
C643 C 0.27609 0.75052 0.17701 0.0
C644 C 0.25926 0.73447 0.19269 0.0
C645 C 0.31154 0.78191 0.14842 0.0
C646 C 0.32467 0.79886 0.16385 0.0
C647 C 0.3069 0.7829 0.17793 0.0
C648 C 0.35612 0.83347 0.16578 0.0
C649 C 0.32963 0.79815 0.13297 0.0
C650 C 0.3921 0.84405 0.16319 0.0
C651 C 0.42189 0.87614 0.16715 0.0
C652 C 0.41613 0.89811 0.17383 0.0
C653 C 0.3799 0.88766 0.17558 0.0
C654 C 0.35028 0.85568 0.17169 0.0
H655 H 0.31323 0.78305 0.12186 0.0
H656 H 0.33393 0.82146 0.13286 0.0
H657 H 0.35692 0.80324 0.13247 0.0
H658 H 0.39721 0.82719 0.15881 0.0
H659 H 0.4494 0.88329 0.1658 0.0
H660 H 0.59419 0.21121 0.49111 0.0
H661 H 0.6005 0.25977 0.49997 0.0
H662 H 0.4879 0.21351 0.48527 0.0
H663 H 0.48077 0.16434 0.47712 0.0
H664 H 0.59228 0.29932 0.48341 0.0
H665 H 0.49064 0.24347 0.53208 0.0
H666 H 0.50804 0.22386 0.52199 0.0
H667 H 0.47265 0.22351 0.51224 0.0
C668 C 0.57061 0.21118 0.48992 0.0
C669 C 0.53685 0.18364 0.48354 0.0
C670 C 0.57437 0.23909 0.49487 0.0
C671 C 0.5445 0.24011 0.49357 0.0
C672 C 0.51112 0.21307 0.48673 0.0
H673 H 0.51872 0.38871 0.52277 0.0
H674 H 0.51103 0.34169 0.50953 0.0
C675 C 0.50725 0.18508 0.48186 0.0
C676 C 0.54831 0.2694 0.49949 0.0
H677 H 0.51456 0.29676 0.52665 0.0
C678 C 0.5753 0.29876 0.49287 0.0
C679 C 0.52616 0.26867 0.51186 0.0
C680 C 0.49798 0.23827 0.52008 0.0
C681 C 0.58059 0.32733 0.49821 0.0
C682 C 0.55852 0.32656 0.51059 0.0
C683 C 0.53127 0.2972 0.51708 0.0
C684 C 0.56425 0.35613 0.51753 0.0
C685 C 0.60956 0.35811 0.4905 0.0
C686 C 0.59673 0.37981 0.52637 0.0
C687 C 0.60116 0.40659 0.53396 0.0
C688 C 0.57316 0.41023 0.53285 0.0
C689 C 0.54093 0.38677 0.52369 0.0
C690 C 0.53642 0.35985 0.5162 0.0
H691 H 0.61779 0.35345 0.47862 0.0
H692 H 0.59974 0.3727 0.48856 0.0
H693 H 0.63422 0.37247 0.49878 0.0
H694 H 0.61834 0.37719 0.52775 0.0
H695 H 0.6264 0.42434 0.54083 0.0
H696 H 0.51888 0.5743 0.84388 0.0
H697 H 0.4656 0.57475 0.84528 0.0
H698 H 0.40048 0.47884 0.86194 0.0
H699 H 0.45369 0.47848 0.86091 0.0
H700 H 0.3991 0.53922 0.83 0.0
H701 H 0.37732 0.52137 0.89598 0.0
H702 H 0.41808 0.53066 0.88651 0.0
H703 H 0.37652 0.4901 0.88531 0.0
C704 C 0.4933 0.5533 0.84793 0.0
C705 C 0.49106 0.52644 0.85241 0.0
C706 C 0.46263 0.55357 0.8487 0.0
C707 C 0.42869 0.52709 0.85404 0.0
C708 C 0.42628 0.50005 0.85822 0.0
H709 H 0.20915 0.47531 0.86687 0.0
H710 H 0.26368 0.47733 0.86417 0.0
C711 C 0.45691 0.49978 0.85751 0.0
C712 C 0.39588 0.52753 0.85501 0.0
H713 H 0.32953 0.51559 0.88057 0.0
C714 C 0.38413 0.53426 0.84112 0.0
C715 C 0.3759 0.52118 0.86947 0.0
C716 C 0.38777 0.51575 0.88521 0.0
C717 C 0.35285 0.53388 0.84114 0.0
C718 C 0.33261 0.52708 0.85554 0.0
C719 C 0.34457 0.52065 0.86946 0.0
C720 C 0.29873 0.52592 0.85645 0.0
C721 C 0.34113 0.5398 0.82552 0.0
C722 C 0.29947 0.55249 0.853 0.0
C723 C 0.268 0.55147 0.85463 0.0
C724 C 0.23475 0.52393 0.85989 0.0
C725 C 0.23407 0.49724 0.86306 0.0
C726 C 0.26545 0.49829 0.86145 0.0
H727 H 0.35299 0.53591 0.81469 0.0
H728 H 0.31083 0.52386 0.82388 0.0
H729 H 0.35084 0.56507 0.826 0.0
H730 H 0.32471 0.57445 0.84946 0.0
H731 H 0.27017 0.57275 0.85229 0.0
H732 H 0.93996 0.45353 0.17132 0.0
H733 H 0.88571 0.39841 0.17361 0.0
H734 H 0.92941 0.36492 0.13937 0.0
H735 H 0.98451 0.42015 0.13734 0.0
H736 H 0.83415 0.3545 0.1509 0.0
H737 H 0.90523 0.30855 0.17685 0.0
H738 H 0.9275 0.35084 0.17529 0.0
H739 H 0.92195 0.32625 0.15762 0.0
C740 C 0.9383 0.43454 0.16432 0.0
C741 C 0.96697 0.44142 0.15427 0.0
C742 C 0.90707 0.40294 0.16561 0.0
C743 C 0.90364 0.37736 0.15689 0.0
C744 C 0.93177 0.38413 0.14653 0.0
H745 H 0.729 0.16962 0.16046 0.0
H746 H 0.78116 0.22181 0.1514 0.0
C747 C 0.96319 0.4158 0.1453 0.0
C748 C 0.87045 0.34379 0.15866 0.0
H749 H 0.84166 0.27078 0.17123 0.0
C750 C 0.83584 0.33618 0.15529 0.0
C751 C 0.87256 0.31978 0.16435 0.0
C752 C 0.90874 0.32673 0.16889 0.0
C753 C 0.8034 0.30544 0.15758 0.0
C754 C 0.80552 0.28167 0.16359 0.0
C755 C 0.84008 0.28897 0.16655 0.0
C756 C 0.77234 0.24993 0.16804 0.0
C757 C 0.76713 0.29872 0.15358 0.0
C758 C 0.75001 0.24838 0.18034 0.0
C759 C 0.72036 0.21874 0.1855 0.0
C760 C 0.71237 0.18988 0.17855 0.0
C761 C 0.73423 0.19139 0.16595 0.0
C762 C 0.76414 0.22118 0.16083 0.0
H763 H 0.77008 0.31531 0.14463 0.0
H764 H 0.74679 0.27361 0.14858 0.0
H765 H 0.75627 0.30229 0.16489 0.0
H766 H 0.75611 0.27018 0.18629 0.0
H767 H 0.7039 0.21843 0.19514 0.0
H768 H 0.06517 0.59977 0.10746 0.0
H769 H 0.07248 0.59905 0.07784 0.0
H770 H 0.05988 0.51046 0.07941 0.0
H771 H 0.05167 0.51067 0.10886 0.0
H772 H 0.12358 0.59883 0.05964 0.0
H773 H 0.98346 0.48793 0.04466 0.0
H774 H 0.99643 0.50927 0.06445 0.0
H775 H 1.00842 0.48283 0.05925 0.0
C776 C 0.0639 0.58015 0.10145 0.0
C777 C 0.05766 0.55519 0.11041 0.0
C778 C 0.06814 0.57978 0.08456 0.0
C779 C 0.06607 0.5544 0.07637 0.0
C780 C 0.06072 0.52988 0.0854 0.0
H781 H 0.0838 0.50648 0.97577 0.0
H782 H 0.08021 0.50959 0.00551 0.0
C783 C 0.05632 0.53016 0.10225 0.0
C784 C 0.06966 0.55362 0.0584 0.0
H785 H 1.02532 0.50824 0.0231 0.0
C786 C 0.10203 0.57912 0.05163 0.0
C787 C 1.04148 0.52787 0.04798 0.0
C788 C 1.00534 0.50056 0.05441 0.0
C789 C 0.10729 0.57926 0.03475 0.0
C790 C 0.07923 0.55341 0.02437 0.0
C791 C 0.04684 0.52796 0.03112 0.0
C792 C 0.08275 0.55236 0.00643 0.0
C793 C 0.14308 0.60673 0.02817 0.0
C794 C 0.08515 0.57527 0.99709 0.0
C795 C 0.08726 0.57359 0.98012 0.0
C796 C 0.08695 0.54891 0.97214 0.0
C797 C 0.08461 0.52603 0.98155 0.0
C798 C 0.08235 0.52766 -0.00147 0.0
H799 H 0.16478 0.6206 0.03795 0.0
H800 H 0.15272 0.59784 0.01859 0.0
H801 H 0.13905 0.62333 0.02259 0.0
H802 H 0.08494 0.59424 0.00293 0.0
H803 H 0.08929 0.5917 0.97323 0.0
H804 H 0.64041 0.05285 0.43571 0.0
H805 H 0.63692 0.05763 0.40644 0.0
H806 H 0.51981 0.00553 0.40858 0.0
H807 H 0.52334 1.00146 0.43802 0.0
H808 H 0.60133 0.01025 0.38281 0.0
H809 H 0.5484 0.08191 0.38366 0.0
H810 H 0.56618 0.07687 0.40179 0.0
H811 H 0.52032 0.04563 0.3942 0.0
C812 C 0.61396 0.04265 0.42996 0.0
C813 C 0.58214 0.02678 0.43909 0.0
C814 C 0.612 0.04538 0.41324 0.0
C815 C 0.57818 0.03228 0.40534 0.0
C816 C 0.54631 0.01645 0.41447 0.0
H817 H 0.5383 0.98821 0.3006 0.0
H818 H 0.53925 0.98588 0.33019 0.0
C819 C 0.5483 0.01393 0.43125 0.0
C820 C 0.57632 0.03397 0.38743 0.0
H821 H 0.54947 0.05988 0.35773 0.0
C822 C 0.59009 0.02119 0.37733 0.0
C823 C 0.56206 0.0486 0.38031 0.0
C824 C 0.54872 0.06432 0.39054 0.0
C825 C 0.58975 0.02241 0.36031 0.0
C826 C 0.57435 0.03605 0.35315 0.0
C827 C 0.56091 0.04914 0.36324 0.0
C828 C 0.57244 0.03737 0.33522 0.0
C829 C 0.60663 0.00968 0.35021 0.0
C830 C 0.58969 0.06703 0.32823 0.0
C831 C 0.58862 0.06843 0.3113 0.0
C832 C 0.57022 0.04016 0.30102 0.0
C833 C 0.55247 0.01045 0.30812 0.0
C834 C 0.55337 0.00908 0.32504 0.0
H835 H 0.62611 0.00863 0.35763 0.0
H836 H 0.58466 0.98494 0.34525 0.0
H837 H 0.62138 0.02481 0.33981 0.0
H838 H 0.60432 0.08915 0.33587 0.0
H839 H 0.60202 0.09166 0.30628 0.0
H840 H 0.63536 0.553 0.80628 0.0
H841 H 0.64443 0.56308 0.77715 0.0
H842 H 0.52865 0.49096 0.76719 0.0
H843 H 0.5195 0.48064 0.79616 0.0
H844 H 0.57274 0.48376 0.74697 0.0
H845 H 0.61614 0.60881 0.74915 0.0
H846 H 0.64157 0.60211 0.76257 0.0
H847 H 0.59393 0.58306 0.76587 0.0
C848 C 0.61185 0.53956 0.79787 0.0
C849 C 0.57674 0.51603 0.80344 0.0
C850 C 0.61703 0.54542 0.78127 0.0
C851 C 0.58714 0.52796 0.77004 0.0
C852 C 0.55205 0.50473 0.77566 0.0
H853 H 0.56098 0.55293 0.66959 0.0
H854 H 0.56075 0.55082 0.69929 0.0
C855 C 0.54687 0.49888 0.7922 0.0
C856 C 0.59235 0.53259 0.75232 0.0
H857 H 0.61791 0.58681 0.72352 0.0
C858 C 0.58273 0.50632 0.74183 0.0
C859 C 0.60509 0.56197 0.74568 0.0
C860 C 0.61453 0.59058 0.75634 0.0
C861 C 0.58533 0.50854 0.72486 0.0
C862 C 0.59847 0.53801 0.71821 0.0
C863 C 0.60816 0.56434 0.72869 0.0
C864 C 0.60073 0.54142 0.70035 0.0
C865 C 0.573 0.47905 0.71416 0.0
C866 C 0.62385 0.53748 0.69115 0.0
C867 C 0.62411 0.53874 0.67417 0.0
C868 C 0.6014 0.54417 0.66609 0.0
C869 C 0.57906 0.54903 0.67543 0.0
C870 C 0.5788 0.54773 0.6924 0.0
H871 H 0.55606 0.45676 0.72086 0.0
H872 H 0.55688 0.47659 0.70331 0.0
H873 H 0.5974 0.48128 0.70981 0.0
H874 H 0.64149 0.53318 0.6971 0.0
H875 H 0.64212 0.53548 0.66737 0.0
H876 H 0.60822 0.0508 0.52925 0.0
H877 H 0.6148 0.04781 0.55856 0.0
H878 H 0.49915 1.00046 0.56366 0.0
H879 H 0.49249 1.00365 0.53441 0.0
H880 H 0.54254 0.05124 0.58649 0.0
H881 H 0.58211 0.96937 0.58379 0.0
H882 H 0.60986 0.00393 0.57196 0.0
H883 H 0.56217 0.97433 0.56645 0.0
C884 C 0.58418 0.03953 0.53662 0.0
C885 C 0.54982 0.02738 0.52961 0.0
C886 C 0.58793 0.03769 0.55333 0.0
C887 C 0.55736 0.02351 0.56323 0.0
C888 C 0.52304 0.01135 0.55621 0.0
H889 H 0.53833 0.97156 0.66359 0.0
H890 H 0.53344 0.97154 0.63389 0.0
C891 C 0.51928 0.0132 0.53953 0.0
C892 C 0.56135 0.02268 0.58105 0.0
H893 H 0.58708 0.99424 0.60981 0.0
C894 C 0.55219 0.03872 0.5916 0.0
C895 C 0.57358 0.00603 0.58766 0.0
C896 C 0.5822 0.98717 0.57691 0.0
C897 C 0.55538 0.03893 0.60859 0.0
C898 C 0.56864 0.0231 0.6152 0.0
C899 C 0.57729 0.00663 0.60468 0.0
C900 C 0.57319 0.02305 0.63305 0.0
C901 C 0.54394 0.05566 0.61933 0.0
C902 C 0.59776 0.05195 0.64233 0.0
C903 C 0.60068 0.05205 0.65927 0.0
C904 C 0.57923 0.02319 0.66723 0.0
C905 C 0.55543 0.99416 0.65782 0.0
C906 C 0.5525 0.9941 0.64087 0.0
H907 H 0.52608 0.05956 0.61256 0.0
H908 H 0.52913 0.04158 0.63003 0.0
H909 H 0.56872 0.07948 0.62391 0.0
H910 H 0.61453 0.07447 0.63648 0.0
H911 H 0.61978 0.07473 0.66613 0.0
H912 H 0.54244 0.49696 0.892 0.0
H913 H 0.53616 0.47297 0.91784 0.0
H914 H 0.65299 0.53986 0.92693 0.0
H915 H 0.6594 0.56418 0.90113 0.0
H916 H 0.56858 0.44412 0.92742 0.0
H917 H 0.61111 0.54931 0.96916 0.0
H918 H 0.59867 0.54623 0.94793 0.0
H919 H 0.64289 0.55714 0.95363 0.0
C920 C 0.56675 0.50667 0.89957 0.0
C921 C 0.60139 0.53247 0.89463 0.0
C922 C 0.56313 0.49291 0.91428 0.0
C923 C 0.59406 0.50484 0.92436 0.0
C924 C 0.62872 0.53066 0.91946 0.0
H925 H 0.6073 0.44915 0.02111 0.0
H926 H 0.62387 0.47162 0.99422 0.0
C927 C 0.63234 0.54447 0.90473 0.0
C928 C 0.58986 0.4898 0.93985 0.0
H929 H 0.59906 0.50399 0.98125 0.0
C930 C 0.57534 0.45721 0.9392 0.0
C931 C 0.59891 0.50701 0.95518 0.0
C932 C 0.61349 0.54179 0.95662 0.0
C933 C 0.56932 0.44127 0.95349 0.0
C934 C 0.57755 0.45828 0.96882 0.0
C935 C 0.59291 0.49106 0.96947 0.0
C936 C 0.56818 0.44214 0.98436 0.0
C937 C 0.55426 0.40638 0.95206 0.0
C938 C 0.53147 0.41789 0.98763 0.0
C939 C 0.52197 0.40497 0.00291 0.0
C940 C 0.54901 0.41619 0.01526 0.0
C941 C 0.58592 0.43974 0.01178 0.0
C942 C 0.5954 0.45274 0.99648 0.0
H943 H 0.55981 0.39973 0.93999 0.0
H944 H 0.56615 0.40087 0.96179 0.0
H945 H 0.52412 0.39117 0.95334 0.0
H946 H 0.50996 0.40976 0.97856 0.0
H947 H 0.49333 0.38673 0.00521 0.0
H948 H 0.04417 0.53613 0.19838 0.0
H949 H 1.04113 0.53533 0.2282 0.0
H950 H 0.12921 0.52687 0.22994 0.0
H951 H 0.13216 0.52763 0.20012 0.0
H952 H 1.03042 0.48301 0.24727 0.0
H953 H 0.15955 0.60445 0.26331 0.0
H954 H 0.13581 0.59384 0.24374 0.0
H955 H 0.1623 0.57991 0.24812 0.0
C956 C 0.06314 0.5346 0.20516 0.0
C957 C 0.08856 0.53229 0.19701 0.0
C958 C 0.06129 0.53394 0.22215 0.0
C959 C 0.08521 0.53138 0.23124 0.0
C960 C 0.11083 0.52927 0.22313 0.0
H961 H 0.1244 0.52585 0.33346 0.0
H962 H 0.12623 0.52831 0.30376 0.0
C963 C 0.11241 0.52962 0.20613 0.0
C964 C 0.08259 0.52972 0.24916 0.0
H965 H 0.12878 0.57056 0.28498 0.0
C966 C 0.05176 0.50217 0.25556 0.0
C967 C 0.11064 0.55472 0.25984 0.0
C968 C 0.14391 0.58507 0.25349 0.0
C969 C 0.04859 0.49859 0.27246 0.0
C970 C 0.07661 0.52368 0.28321 0.0
C971 C 0.10733 0.55135 0.27674 0.0
C972 C 0.07491 0.52162 0.30119 0.0
C973 C 1.01584 0.46757 0.27857 0.0
C974 C 0.0456 0.5173 0.30964 0.0
C975 C 0.04439 0.51567 0.3266 0.0
C976 C 0.07277 0.51886 0.33545 0.0
C977 C 0.10228 0.52354 0.32698 0.0
C978 C 0.10331 0.52488 0.31002 0.0
H979 H 1.00281 0.44777 0.26887 0.0
H980 H 1.02362 0.46017 0.28914 0.0
H981 H 0.99509 0.47096 0.28253 0.0
H982 H 1.02388 0.51559 0.30314 0.0
H983 H 1.02162 0.51258 0.33283 0.0
loop_
_geom_bond_atom_site_label_1
_geom_bond_atom_site_label_2
_geom_bond_distance
_geom_bond_site_symmetry_2
_ccdc_geom_bond_type
Gd0 C3 2.818 . S
Gd0 O20 2.377 . S
Gd0 O22 2.448 . S
Gd0 O23 2.506 . S
Gd0 O24 2.435 . S
Gd0 O25 2.717 . S
Gd0 O27 2.395 1_455 S
Gd0 O31 2.327 . S
Gd1 C12 2.818 1_455 S
Gd1 O21 2.395 . S
Gd1 O25 2.327 . S
Gd1 O26 2.377 1_455 S
Gd1 O28 2.448 1_455 S
Gd1 O29 2.506 1_455 S
Gd1 O30 2.435 . S
Gd1 O31 2.717 . S
C2 O20 1.240 . S
C2 O21 1.240 . S
C3 Gd0 2.818 . S
C3 C4 1.510 . S
C3 O22 1.249 . S
C3 O23 1.252 . S
C4 C3 1.510 . S
C4 C5 1.404 . S
C4 C6 1.352 . S
C5 C4 1.404 . S
C5 C9 1.389 . S
C5 H32 0.930 . S
C6 C4 1.352 . S
C6 C8 1.374 . S
C6 H33 0.931 . S
C7 C8 1.359 . S
C7 C9 1.364 . S
C8 C6 1.374 . S
C8 C7 1.359 . S
C8 H34 0.931 . S
C9 C5 1.389 . S
C9 C7 1.364 . S
C9 H35 0.931 . S
C10 O24 1.256 . S
C10 O25 1.257 . S
C11 O26 1.240 . S
C11 O27 1.240 . S
C12 Gd1 2.818 1_655 S
C12 C13 1.510 . S
C12 O28 1.249 . S
C12 O29 1.252 . S
C13 C12 1.510 . S
C13 C14 1.404 . S
C13 C15 1.352 . S
C14 C13 1.404 . S
C14 C18 1.389 . S
C14 H36 0.930 . S
C15 C13 1.352 . S
C15 C17 1.374 . S
C15 H37 0.931 . S
C16 C17 1.359 . S
C16 C18 1.364 . S
C17 C15 1.374 . S
C17 C16 1.359 . S
C17 H38 0.931 . S
C18 C14 1.389 . S
C18 C16 1.364 . S
C18 H39 0.931 . S
C19 O30 1.256 . S
C19 O31 1.257 . S
O20 Gd0 2.377 . S
O20 C2 1.240 . S
O21 Gd1 2.395 . S
O21 C2 1.240 . S
O22 Gd0 2.448 . S
O22 C3 1.249 . S
O23 Gd0 2.506 . S
O23 C3 1.252 . S
O24 Gd0 2.435 . S
O24 C10 1.256 . S
O25 Gd0 2.717 . S
O25 Gd1 2.327 . S
O25 C10 1.257 . S
O26 Gd1 2.377 1_655 S
O26 C11 1.240 . S
O27 Gd0 2.395 1_655 S
O27 C11 1.240 . S
O28 Gd1 2.448 1_655 S
O28 C12 1.249 . S
O29 Gd1 2.506 1_655 S
O29 C12 1.252 . S
O30 Gd1 2.435 . S
O30 C19 1.256 . S
O31 Gd0 2.327 . S
O31 Gd1 2.717 . S
O31 C19 1.257 . S
H32 C5 0.930 . S
H33 C6 0.931 . S
H34 C8 0.931 . S
H35 C9 0.931 . S
H36 C14 0.930 . S
H37 C15 0.931 . S
H38 C17 0.931 . S
H39 C18 0.931 . S
Gd40 C43 2.818 . S
Gd40 O60 2.377 . S
Gd40 O62 2.448 . S
Gd40 O63 2.506 . S
Gd40 O64 2.435 . S
Gd40 O65 2.717 1_565 S
Gd40 O67 2.395 1_565 S
Gd40 O71 2.327 1_565 S
Gd41 C52 2.818 . S
Gd41 O61 2.395 1_545 S
Gd41 O65 2.327 . S
Gd41 O66 2.377 . S
Gd41 O68 2.448 . S
Gd41 O69 2.506 . S
Gd41 O70 2.435 . S
Gd41 O71 2.717 . S
C42 O60 1.240 . S
C42 O61 1.240 . S
C43 Gd40 2.818 . S
C43 C44 1.510 . S
C43 O62 1.249 . S
C43 O63 1.252 . S
C44 C43 1.510 . S
C44 C45 1.404 . S
C44 C46 1.352 . S
C45 C44 1.404 . S
C45 C49 1.389 . S
C45 H72 0.930 . S
C46 C44 1.352 . S
C46 C48 1.374 . S
C46 H73 0.931 . S
C47 C48 1.359 . S
C47 C49 1.364 . S
C48 C46 1.374 . S
C48 C47 1.359 . S
C48 H74 0.931 . S
C49 C45 1.389 . S
C49 C47 1.364 . S
C49 H75 0.931 . S
C50 O64 1.256 1_545 S
C50 O65 1.257 . S
C51 O66 1.240 . S
C51 O67 1.240 . S
C52 Gd41 2.818 . S
C52 C53 1.510 . S
C52 O68 1.249 . S
C52 O69 1.252 . S
C53 C52 1.510 . S
C53 C54 1.404 . S
C53 C55 1.352 . S
C54 C53 1.404 . S
C54 C58 1.389 . S
C54 H76 0.930 . S
C55 C53 1.352 . S
C55 C57 1.374 . S
C55 H77 0.931 . S
C56 C57 1.359 . S
C56 C58 1.364 . S
C57 C55 1.374 . S
C57 C56 1.359 . S
C57 H78 0.931 . S
C58 C54 1.389 . S
C58 C56 1.364 . S
C58 H79 0.931 . S
C59 O70 1.256 . S
C59 O71 1.257 . S
O60 Gd40 2.377 . S
O60 C42 1.240 . S
O61 Gd41 2.395 1_565 S
O61 C42 1.240 . S
O62 Gd40 2.448 . S
O62 C43 1.249 . S
O63 Gd40 2.506 . S
O63 C43 1.252 . S
O64 Gd40 2.435 . S
O64 C50 1.256 1_565 S
O65 Gd40 2.717 1_545 S
O65 Gd41 2.327 . S
O65 C50 1.257 . S
O66 Gd41 2.377 . S
O66 C51 1.240 . S
O67 Gd40 2.395 1_545 S
O67 C51 1.240 . S
O68 Gd41 2.448 . S
O68 C52 1.249 . S
O69 Gd41 2.506 . S
O69 C52 1.252 . S
O70 Gd41 2.435 . S
O70 C59 1.256 . S
O71 Gd40 2.327 1_545 S
O71 Gd41 2.717 . S
O71 C59 1.257 . S
H72 C45 0.930 . S
H73 C46 0.931 . S
H74 C48 0.931 . S
H75 C49 0.931 . S
H76 C54 0.930 . S
H77 C55 0.931 . S
H78 C57 0.931 . S
H79 C58 0.931 . S
Gd80 C83 2.818 . S
Gd80 O100 2.377 . S
Gd80 O102 2.448 . S
Gd80 O103 2.506 . S
Gd80 O104 2.435 . S
Gd80 O105 2.717 . S
Gd80 O107 2.395 . S
Gd80 O111 2.327 . S
Gd81 C92 2.818 . S
Gd81 O101 2.395 . S
Gd81 O105 2.327 . S
Gd81 O106 2.377 . S
Gd81 O108 2.448 . S
Gd81 O109 2.506 . S
Gd81 O110 2.435 . S
Gd81 O111 2.717 . S
C82 O100 1.240 . S
C82 O101 1.240 . S
C83 Gd80 2.818 . S
C83 C84 1.510 . S
C83 O102 1.249 . S
C83 O103 1.252 . S
C84 C83 1.510 . S
C84 C85 1.404 . S
C84 C86 1.352 . S
C85 C84 1.404 . S
C85 C89 1.389 . S
C85 H112 0.930 . S
C86 C84 1.352 . S
C86 C88 1.374 . S
C86 H113 0.931 . S
C87 C88 1.359 . S
C87 C89 1.364 . S
C88 C86 1.374 . S
C88 C87 1.359 . S
C88 H114 0.931 . S
C89 C85 1.389 . S
C89 C87 1.364 . S
C89 H115 0.931 . S
C90 O104 1.256 . S
C90 O105 1.257 . S
C91 O106 1.240 . S
C91 O107 1.240 . S
C92 Gd81 2.818 . S
C92 C93 1.510 . S
C92 O108 1.249 . S
C92 O109 1.252 . S
C93 C92 1.510 . S
C93 C94 1.404 . S
C93 C95 1.352 . S
C94 C93 1.404 . S
C94 C98 1.389 . S
C94 H116 0.930 . S
C95 C93 1.352 . S
C95 C97 1.374 . S
C95 H117 0.931 . S
C96 C97 1.359 . S
C96 C98 1.364 . S
C97 C95 1.374 . S
C97 C96 1.359 . S
C97 H118 0.931 . S
C98 C94 1.389 . S
C98 C96 1.364 . S
C98 H119 0.931 . S
C99 O110 1.256 . S
C99 O111 1.257 . S
O100 Gd80 2.377 . S
O100 C82 1.240 . S
O101 Gd81 2.395 . S
O101 C82 1.240 . S
O102 Gd80 2.448 . S
O102 C83 1.249 . S
O103 Gd80 2.506 . S
O103 C83 1.252 . S
O104 Gd80 2.435 . S
O104 C90 1.256 . S
O105 Gd80 2.717 . S
O105 Gd81 2.327 . S
O105 C90 1.257 . S
O106 Gd81 2.377 . S
O106 C91 1.240 . S
O107 Gd80 2.395 . S
O107 C91 1.240 . S
O108 Gd81 2.448 . S
O108 C92 1.249 . S
O109 Gd81 2.506 . S
O109 C92 1.252 . S
O110 Gd81 2.435 . S
O110 C99 1.256 . S
O111 Gd80 2.327 . S
O111 Gd81 2.717 . S
O111 C99 1.257 . S
H112 C85 0.930 . S
H113 C86 0.931 . S
H114 C88 0.931 . S
H115 C89 0.931 . S
H116 C94 0.930 . S
H117 C95 0.931 . S
H118 C97 0.931 . S
H119 C98 0.931 . S
C120 C121 1.384 . S
C120 H133 0.947 . S
C120 C155 1.382 . S
C121 C120 1.384 . S
C121 C122 1.378 . S
C122 C121 1.378 . S
C122 C123 1.378 . S
C122 H134 0.952 . S
C123 C122 1.378 . S
C123 H135 0.950 . S
C123 C154 1.383 . S
H124 C143 0.947 . S
H125 C144 0.946 . S
H126 C146 0.953 . S
H127 C147 0.945 . S
H128 C149 0.952 . S
H129 C150 0.949 . S
H130 C152 0.950 . S
H131 C153 0.948 . S
H132 C155 0.951 . S
H133 C120 0.947 . S
H134 C122 0.952 . S
H135 C123 0.950 . S
N136 C139 1.382 . S
N136 C141 1.363 1_545 S
N137 C139 1.371 . S
N137 C140 1.372 . S
N138 C140 1.361 1_565 S
N138 C141 1.377 . S
C139 N136 1.382 . S
C139 N137 1.371 . S
C139 C142 1.480 . S
C140 N137 1.372 . S
C140 N138 1.361 1_545 S
C140 C148 1.457 . S
C141 N136 1.363 1_565 S
C141 N138 1.377 . S
C141 C154 1.479 . S
C142 C139 1.480 . S
C142 C143 1.383 . S
C142 C147 1.385 . S
C143 H124 0.947 . S
C143 C142 1.383 . S
C143 C144 1.388 . S
C144 H125 0.946 . S
C144 C143 1.388 . S
C144 C145 1.384 . S
C145 C144 1.384 . S
C145 C146 1.377 . S
C146 H126 0.953 . S
C146 C145 1.377 . S
C146 C147 1.369 . S
C147 H127 0.945 . S
C147 C142 1.385 . S
C147 C146 1.369 . S
C148 C140 1.457 . S
C148 C149 1.372 . S
C148 C153 1.364 1_545 S
C149 H128 0.952 . S
C149 C148 1.372 . S
C149 C150 1.389 . S
C150 H129 0.949 . S
C150 C149 1.389 . S
C150 C151 1.387 . S
C151 C150 1.387 . S
C151 C152 1.372 1_545 S
C152 H130 0.950 . S
C152 C151 1.372 1_565 S
C152 C153 1.379 . S
C153 H131 0.948 . S
C153 C148 1.364 1_565 S
C153 C152 1.379 . S
C154 C123 1.383 . S
C154 C141 1.479 . S
C154 C155 1.398 . S
C155 C120 1.382 . S
C155 H132 0.951 . S
C155 C154 1.398 . S
C156 C157 1.384 . S
C156 H169 0.947 . S
C156 C191 1.382 . S
C157 C156 1.384 . S
C157 C158 1.378 . S
C158 C157 1.378 . S
C158 C159 1.378 . S
C158 H170 0.952 . S
C159 C158 1.378 . S
C159 H171 0.950 . S
C159 C190 1.383 . S
H160 C179 0.947 . S
H161 C180 0.946 . S
H162 C182 0.953 . S
H163 C183 0.945 . S
H164 C185 0.952 . S
H165 C186 0.949 . S
H166 C188 0.950 . S
H167 C189 0.948 . S
H168 C191 0.951 . S
H169 C156 0.947 . S
H170 C158 0.952 . S
H171 C159 0.950 . S
N172 C175 1.382 . S
N172 C177 1.363 . S
N173 C175 1.371 . S
N173 C176 1.372 . S
N174 C176 1.361 . S
N174 C177 1.377 . S
C175 N172 1.382 . S
C175 N173 1.371 . S
C175 C178 1.480 . S
C176 N173 1.372 . S
C176 N174 1.361 . S
C176 C184 1.457 . S
C177 N172 1.363 . S
C177 N174 1.377 . S
C177 C190 1.479 . S
C178 C175 1.480 . S
C178 C179 1.383 . S
C178 C183 1.385 . S
C179 H160 0.947 . S
C179 C178 1.383 . S
C179 C180 1.388 . S
C180 H161 0.946 . S
C180 C179 1.388 . S
C180 C181 1.384 . S
C181 C180 1.384 . S
C181 C182 1.377 . S
C182 H162 0.953 . S
C182 C181 1.377 . S
C182 C183 1.369 . S
C183 H163 0.945 . S
C183 C178 1.385 . S
C183 C182 1.369 . S
C184 C176 1.457 . S
C184 C185 1.372 . S
C184 C189 1.364 . S
C185 H164 0.952 . S
C185 C184 1.372 . S
C185 C186 1.389 . S
C186 H165 0.949 . S
C186 C185 1.389 . S
C186 C187 1.387 . S
C187 C186 1.387 . S
C187 C188 1.372 . S
C188 H166 0.950 . S
C188 C187 1.372 . S
C188 C189 1.379 . S
C189 H167 0.948 . S
C189 C184 1.364 . S
C189 C188 1.379 . S
C190 C159 1.383 . S
C190 C177 1.479 . S
C190 C191 1.398 . S
C191 C156 1.382 . S
C191 H168 0.951 . S
C191 C190 1.398 . S
C192 C193 1.384 . S
C192 H205 0.947 . S
C192 C227 1.382 . S
C193 C192 1.384 . S
C193 C194 1.378 . S
C194 C193 1.378 . S
C194 C195 1.378 1_655 S
C194 H206 0.952 . S
C195 C194 1.378 1_455 S
C195 H207 0.950 . S
C195 C226 1.383 . S
H196 C215 0.947 . S
H197 C216 0.946 . S
H198 C218 0.953 . S
H199 C219 0.945 . S
H200 C221 0.952 . S
H201 C222 0.949 . S
H202 C224 0.950 . S
H203 C225 0.948 . S
H204 C227 0.951 . S
H205 C192 0.947 . S
H206 C194 0.952 . S
H207 C195 0.950 . S
N208 C211 1.382 . S
N208 C213 1.363 . S
N209 C211 1.371 . S
N209 C212 1.372 . S
N210 C212 1.361 . S
N210 C213 1.377 . S
C211 N208 1.382 . S
C211 N209 1.371 . S
C211 C214 1.480 . S
C212 N209 1.372 . S
C212 N210 1.361 . S
C212 C220 1.457 . S
C213 N208 1.363 . S
C213 N210 1.377 . S
C213 C226 1.479 . S
C214 C211 1.480 . S
C214 C215 1.383 . S
C214 C219 1.385 . S
C215 H196 0.947 . S
C215 C214 1.383 . S
C215 C216 1.388 . S
C216 H197 0.946 . S
C216 C215 1.388 . S
C216 C217 1.384 . S
C217 C216 1.384 . S
C217 C218 1.377 . S
C218 H198 0.953 . S
C218 C217 1.377 . S
C218 C219 1.369 . S
C219 H199 0.945 . S
C219 C214 1.385 . S
C219 C218 1.369 . S
C220 C212 1.457 . S
C220 C221 1.372 . S
C220 C225 1.364 . S
C221 H200 0.952 . S
C221 C220 1.372 . S
C221 C222 1.389 . S
C222 H201 0.949 . S
C222 C221 1.389 . S
C222 C223 1.387 . S
C223 C222 1.387 . S
C223 C224 1.372 . S
C224 H202 0.950 . S
C224 C223 1.372 . S
C224 C225 1.379 . S
C225 H203 0.948 . S
C225 C220 1.364 . S
C225 C224 1.379 . S
C226 C195 1.383 . S
C226 C213 1.479 . S
C226 C227 1.398 1_455 S
C227 C192 1.382 . S
C227 H204 0.951 . S
C227 C226 1.398 1_655 S
C228 C229 1.384 . S
C228 H241 0.947 . S
C228 C263 1.382 . S
C229 C228 1.384 . S
C229 C230 1.378 . S
C230 C229 1.378 . S
C230 C231 1.378 . S
C230 H242 0.952 . S
C231 C230 1.378 . S
C231 H243 0.950 . S
C231 C262 1.383 . S
H232 C251 0.947 . S
H233 C252 0.946 . S
H234 C254 0.953 . S
H235 C255 0.945 . S
H236 C257 0.952 . S
H237 C258 0.949 . S
H238 C260 0.950 . S
H239 C261 0.948 . S
H240 C263 0.951 . S
H241 C228 0.947 . S
H242 C230 0.952 . S
H243 C231 0.950 . S
N244 C247 1.382 1_455 S
N244 C249 1.363 . S
N245 C247 1.371 . S
N245 C248 1.372 1_655 S
N246 C248 1.361 . S
N246 C249 1.377 . S
C247 N244 1.382 1_655 S
C247 N245 1.371 . S
C247 C250 1.480 . S
C248 N245 1.372 1_455 S
C248 N246 1.361 . S
C248 C256 1.457 . S
C249 N244 1.363 . S
C249 N246 1.377 . S
C249 C262 1.479 . S
C250 C247 1.480 . S
C250 C251 1.383 . S
C250 C255 1.385 . S
C251 H232 0.947 . S
C251 C250 1.383 . S
C251 C252 1.388 . S
C252 H233 0.946 . S
C252 C251 1.388 . S
C252 C253 1.384 . S
C253 C252 1.384 . S
C253 C254 1.377 . S
C254 H234 0.953 . S
C254 C253 1.377 . S
C254 C255 1.369 . S
C255 H235 0.945 . S
C255 C250 1.385 . S
C255 C254 1.369 . S
C256 C248 1.457 . S
C256 C257 1.372 1_455 S
C256 C261 1.364 . S
C257 H236 0.952 . S
C257 C256 1.372 1_655 S
C257 C258 1.389 . S
C258 H237 0.949 . S
C258 C257 1.389 . S
C258 C259 1.376 1_655 S
C259 C258 1.376 1_455 S
C259 C260 1.383 . S
C260 H238 0.950 . S
C260 C259 1.383 . S
C260 C261 1.379 . S
C261 H239 0.948 . S
C261 C256 1.364 . S
C261 C260 1.379 . S
C262 C231 1.383 . S
C262 C249 1.479 . S
C262 C263 1.398 . S
C263 C228 1.382 . S
C263 H240 0.951 . S
C263 C262 1.398 . S
C264 C265 1.384 . S
C264 H277 0.947 . S
C264 C299 1.382 . S
C265 C264 1.384 . S
C265 C266 1.378 . S
C266 C265 1.378 . S
C266 C267 1.378 . S
C266 H278 0.952 . S
C267 C266 1.378 . S
C267 H279 0.950 . S
C267 C298 1.383 . S
H268 C287 0.947 . S
H269 C288 0.946 . S
H270 C290 0.953 . S
H271 C291 0.945 . S
H272 C293 0.952 . S
H273 C294 0.949 . S
H274 C296 0.950 . S
H275 C297 0.948 . S
H276 C299 0.951 . S
H277 C264 0.947 . S
H278 C266 0.952 . S
H279 C267 0.950 . S
N280 C283 1.382 1_545 S
N280 C285 1.363 . S
N281 C283 1.371 . S
N281 C284 1.372 1_565 S
N282 C284 1.361 . S
N282 C285 1.377 . S
C283 N280 1.382 1_565 S
C283 N281 1.371 . S
C283 C286 1.480 . S
C284 N281 1.372 1_545 S
C284 N282 1.361 . S
C284 C292 1.457 . S
C285 N280 1.363 . S
C285 N282 1.377 . S
C285 C298 1.479 . S
C286 C283 1.480 . S
C286 C287 1.383 . S
C286 C291 1.385 . S
C287 H268 0.947 . S
C287 C286 1.383 . S
C287 C288 1.388 . S
C288 H269 0.946 . S
C288 C287 1.388 . S
C288 C289 1.384 . S
C289 C288 1.384 . S
C289 C290 1.377 . S
C290 H270 0.953 . S
C290 C289 1.377 . S
C290 C291 1.369 . S
C291 H271 0.945 . S
C291 C286 1.385 . S
C291 C290 1.369 . S
C292 C284 1.457 . S
C292 C293 1.372 1_545 S
C292 C297 1.364 . S
C293 H272 0.952 . S
C293 C292 1.372 1_565 S
C293 C294 1.389 . S
C294 H273 0.949 . S
C294 C293 1.389 . S
C294 C295 1.386 1_565 S
C295 C294 1.386 1_545 S
C295 C296 1.372 . S
C296 H274 0.950 . S
C296 C295 1.372 . S
C296 C297 1.379 . S
C297 H275 0.948 . S
C297 C292 1.364 . S
C297 C296 1.379 . S
C298 C267 1.383 . S
C298 C285 1.479 . S
C298 C299 1.398 . S
C299 C264 1.382 . S
C299 H276 0.951 . S
C299 C298 1.398 . S
C300 C301 1.384 . S
C300 H313 0.947 . S
C300 C335 1.382 . S
C301 C300 1.384 . S
C301 C302 1.378 . S
C302 C301 1.378 . S
C302 C303 1.378 . S
C302 H314 0.952 . S
C303 C302 1.378 . S
C303 H315 0.950 . S
C303 C334 1.383 . S
H304 C323 0.947 . S
H305 C324 0.946 . S
H306 C326 0.953 . S
H307 C327 0.945 . S
H308 C329 0.952 . S
H309 C330 0.949 . S
H310 C332 0.950 . S
H311 C333 0.948 . S
H312 C335 0.951 . S
H313 C300 0.947 . S
H314 C302 0.952 . S
H315 C303 0.950 . S
N316 C319 1.382 . S
N316 C321 1.363 . S
N317 C319 1.371 . S
N317 C320 1.372 . S
N318 C320 1.361 . S
N318 C321 1.377 . S
C319 N316 1.382 . S
C319 N317 1.371 . S
C319 C322 1.480 . S
C320 N317 1.372 . S
C320 N318 1.361 . S
C320 C328 1.457 . S
C321 N316 1.363 . S
C321 N318 1.377 . S
C321 C334 1.479 . S
C322 C319 1.480 . S
C322 C323 1.383 . S
C322 C327 1.385 . S
C323 H304 0.947 . S
C323 C322 1.383 . S
C323 C324 1.388 . S
C324 H305 0.946 . S
C324 C323 1.388 . S
C324 C325 1.384 . S
C325 C324 1.384 . S
C325 C326 1.377 . S
C326 H306 0.953 . S
C326 C325 1.377 . S
C326 C327 1.369 . S
C327 H307 0.945 . S
C327 C322 1.385 . S
C327 C326 1.369 . S
C328 C320 1.457 . S
C328 C329 1.372 . S
C328 C333 1.364 . S
C329 H308 0.952 . S
C329 C328 1.372 . S
C329 C330 1.389 . S
C330 H309 0.949 . S
C330 C329 1.389 . S
C330 C331 1.387 . S
C331 C330 1.387 . S
C331 C332 1.372 . S
C332 H310 0.950 . S
C332 C331 1.372 . S
C332 C333 1.379 . S
C333 H311 0.948 . S
C333 C328 1.364 . S
C333 C332 1.379 . S
C334 C303 1.383 . S
C334 C321 1.479 . S
C334 C335 1.398 . S
C335 C300 1.382 . S
C335 H312 0.951 . S
C335 C334 1.398 . S
H336 C344 0.929 . S
H337 C346 0.930 . S
H338 C348 0.930 . S
H339 C351 0.929 . S
H340 C354 0.930 . S
H341 C356 0.960 . S
H342 C356 0.960 . S
H343 C356 0.960 . S
C344 H336 0.929 . S
C344 C345 1.377 . S
C344 C346 1.384 . S
C345 C344 1.377 . S
C345 C351 1.390 . S
C346 H337 0.930 . S
C346 C344 1.384 . S
C346 C347 1.372 . S
C347 C346 1.372 . S
C347 C348 1.400 . S
C347 C352 1.490 . S
C348 H338 0.930 . S
C348 C347 1.400 . S
C348 C351 1.386 . S
H349 C365 0.930 . S
H350 C366 0.931 . S
C351 H339 0.929 . S
C351 C345 1.390 . S
C351 C348 1.386 . S
C352 C347 1.490 . S
C352 C354 1.395 . S
C352 C355 1.403 . S
H353 C359 0.930 . S
C354 H340 0.930 . S
C354 C352 1.395 . S
C354 C357 1.403 . S
C355 C352 1.403 . S
C355 C356 1.524 . S
C355 C359 1.400 . S
C356 H341 0.960 . S
C356 H342 0.960 . S
C356 H343 0.960 . S
C356 C355 1.524 . S
C357 C354 1.403 . S
C357 C358 1.392 . S
C357 C361 1.495 . S
C358 C357 1.392 . S
C358 C359 1.385 . S
C358 C360 1.478 . S
C359 H353 0.930 . S
C359 C355 1.400 . S
C359 C358 1.385 . S
C360 C358 1.478 . S
C360 C362 1.381 . S
C360 C366 1.383 . S
C361 C357 1.495 . S
C361 H367 0.959 . S
C361 H368 0.961 . S
C361 H369 0.960 . S
C362 C360 1.381 . S
C362 C363 1.394 . S
C362 H370 0.930 . S
C363 C362 1.394 . S
C363 C364 1.383 . S
C363 H371 0.929 . S
C364 C363 1.383 . S
C364 C365 1.377 . S
C365 H349 0.930 . S
C365 C364 1.377 . S
C365 C366 1.379 . S
C366 H350 0.931 . S
C366 C360 1.383 . S
C366 C365 1.379 . S
H367 C361 0.959 . S
H368 C361 0.961 . S
H369 C361 0.960 . S
H370 C362 0.930 . S
H371 C363 0.929 . S
H372 C380 0.929 . S
H373 C382 0.930 . S
H374 C384 0.930 . S
H375 C387 0.929 . S
H376 C390 0.930 . S
H377 C392 0.960 . S
H378 C392 0.960 . S
H379 C392 0.960 . S
C380 H372 0.929 . S
C380 C381 1.377 . S
C380 C382 1.384 . S
C381 C380 1.377 . S
C381 C387 1.390 . S
C382 H373 0.930 . S
C382 C380 1.384 . S
C382 C383 1.372 . S
C383 C382 1.372 . S
C383 C384 1.400 . S
C383 C388 1.490 . S
C384 H374 0.930 . S
C384 C383 1.400 . S
C384 C387 1.386 . S
H385 C401 0.930 . S
H386 C402 0.931 . S
C387 H375 0.929 . S
C387 C381 1.390 . S
C387 C384 1.386 . S
C388 C383 1.490 . S
C388 C390 1.395 . S
C388 C391 1.403 . S
H389 C395 0.930 . S
C390 H376 0.930 . S
C390 C388 1.395 . S
C390 C393 1.403 . S
C391 C388 1.403 . S
C391 C392 1.524 . S
C391 C395 1.400 . S
C392 H377 0.960 . S
C392 H378 0.960 . S
C392 H379 0.960 . S
C392 C391 1.524 . S
C393 C390 1.403 . S
C393 C394 1.392 . S
C393 C397 1.495 . S
C394 C393 1.392 . S
C394 C395 1.385 . S
C394 C396 1.478 . S
C395 H389 0.930 . S
C395 C391 1.400 . S
C395 C394 1.385 . S
C396 C394 1.478 . S
C396 C398 1.381 . S
C396 C402 1.383 . S
C397 C393 1.495 . S
C397 H403 0.959 . S
C397 H404 0.961 . S
C397 H405 0.960 . S
C398 C396 1.381 . S
C398 C399 1.394 . S
C398 H406 0.930 . S
C399 C398 1.394 . S
C399 C400 1.383 . S
C399 H407 0.929 . S
C400 C399 1.383 . S
C400 C401 1.377 . S
C401 H385 0.930 . S
C401 C400 1.377 . S
C401 C402 1.379 . S
C402 H386 0.931 . S
C402 C396 1.383 . S
C402 C401 1.379 . S
H403 C397 0.959 . S
H404 C397 0.961 . S
H405 C397 0.960 . S
H406 C398 0.930 . S
H407 C399 0.929 . S
H408 C416 0.929 . S
H409 C418 0.930 . S
H410 C420 0.930 . S
H411 C423 0.929 . S
H412 C426 0.930 . S
H413 C428 0.960 . S
H414 C428 0.960 . S
H415 C428 0.960 . S
C416 H408 0.929 . S
C416 C417 1.377 . S
C416 C418 1.384 . S
C417 C416 1.377 . S
C417 C423 1.390 . S
C418 H409 0.930 . S
C418 C416 1.384 . S
C418 C419 1.372 . S
C419 C418 1.372 . S
C419 C420 1.400 . S
C419 C424 1.490 . S
C420 H410 0.930 . S
C420 C419 1.400 . S
C420 C423 1.386 . S
H421 C437 0.930 . S
H422 C438 0.931 . S
C423 H411 0.929 . S
C423 C417 1.390 . S
C423 C420 1.386 . S
C424 C419 1.490 . S
C424 C426 1.395 . S
C424 C427 1.403 . S
H425 C431 0.930 . S
C426 H412 0.930 . S
C426 C424 1.395 . S
C426 C429 1.403 . S
C427 C424 1.403 . S
C427 C428 1.524 . S
C427 C431 1.400 . S
C428 H413 0.960 . S
C428 H414 0.960 . S
C428 H415 0.960 . S
C428 C427 1.524 . S
C429 C426 1.403 . S
C429 C430 1.392 . S
C429 C433 1.495 . S
C430 C429 1.392 . S
C430 C431 1.385 . S
C430 C432 1.478 . S
C431 H425 0.930 . S
C431 C427 1.400 . S
C431 C430 1.385 . S
C432 C430 1.478 . S
C432 C434 1.381 . S
C432 C438 1.383 . S
C433 C429 1.495 . S
C433 H439 0.959 . S
C433 H440 0.961 . S
C433 H441 0.960 . S
C434 C432 1.381 . S
C434 C435 1.394 . S
C434 H442 0.930 . S
C435 C434 1.394 . S
C435 C436 1.383 . S
C435 H443 0.929 . S
C436 C435 1.383 . S
C436 C437 1.377 . S
C437 H421 0.930 . S
C437 C436 1.377 . S
C437 C438 1.379 . S
C438 H422 0.931 . S
C438 C432 1.383 . S
C438 C437 1.379 . S
H439 C433 0.959 . S
H440 C433 0.961 . S
H441 C433 0.960 . S
H442 C434 0.930 . S
H443 C435 0.929 . S
H444 C452 0.929 . S
H445 C454 0.930 . S
H446 C456 0.930 . S
H447 C459 0.929 . S
H448 C462 0.930 . S
H449 C464 0.960 . S
H450 C464 0.960 . S
H451 C464 0.960 . S
C452 H444 0.929 . S
C452 C453 1.377 . S
C452 C454 1.384 . S
C453 C452 1.377 . S
C453 C459 1.390 . S
C454 H445 0.930 . S
C454 C452 1.384 . S
C454 C455 1.372 . S
C455 C454 1.372 . S
C455 C456 1.400 . S
C455 C460 1.490 . S
C456 H446 0.930 . S
C456 C455 1.400 . S
C456 C459 1.386 . S
H457 C473 0.930 . S
H458 C474 0.931 . S
C459 H447 0.929 . S
C459 C453 1.390 . S
C459 C456 1.386 . S
C460 C455 1.490 . S
C460 C462 1.395 . S
C460 C463 1.403 . S
H461 C467 0.930 . S
C462 H448 0.930 . S
C462 C460 1.395 . S
C462 C465 1.403 . S
C463 C460 1.403 . S
C463 C464 1.524 . S
C463 C467 1.400 . S
C464 H449 0.960 . S
C464 H450 0.960 . S
C464 H451 0.960 . S
C464 C463 1.524 . S
C465 C462 1.403 . S
C465 C466 1.392 . S
C465 C469 1.495 . S
C466 C465 1.392 . S
C466 C467 1.385 . S
C466 C468 1.478 . S
C467 H461 0.930 . S
C467 C463 1.400 . S
C467 C466 1.385 . S
C468 C466 1.478 . S
C468 C470 1.381 . S
C468 C474 1.383 . S
C469 C465 1.495 . S
C469 H475 0.959 . S
C469 H476 0.961 . S
C469 H477 0.960 . S
C470 C468 1.381 . S
C470 C471 1.394 . S
C470 H478 0.930 . S
C471 C470 1.394 . S
C471 C472 1.383 . S
C471 H479 0.929 . S
C472 C471 1.383 . S
C472 C473 1.377 . S
C473 H457 0.930 . S
C473 C472 1.377 . S
C473 C474 1.379 . S
C474 H458 0.931 . S
C474 C468 1.383 . S
C474 C473 1.379 . S
H475 C469 0.959 . S
H476 C469 0.961 . S
H477 C469 0.960 . S
H478 C470 0.930 . S
H479 C471 0.929 . S
H480 C488 0.929 . S
H481 C490 0.930 . S
H482 C492 0.930 . S
H483 C495 0.929 . S
H484 C498 0.930 . S
H485 C500 0.960 . S
H486 C500 0.960 . S
H487 C500 0.960 . S
C488 H480 0.929 . S
C488 C489 1.377 . S
C488 C490 1.384 . S
C489 C488 1.377 . S
C489 C495 1.390 . S
C490 H481 0.930 . S
C490 C488 1.384 . S
C490 C491 1.372 . S
C491 C490 1.372 . S
C491 C492 1.400 . S
C491 C496 1.490 . S
C492 H482 0.930 . S
C492 C491 1.400 . S
C492 C495 1.386 . S
H493 C509 0.930 . S
H494 C510 0.931 . S
C495 H483 0.929 . S
C495 C489 1.390 . S
C495 C492 1.386 . S
C496 C491 1.490 . S
C496 C498 1.395 . S
C496 C499 1.403 . S
H497 C503 0.930 . S
C498 H484 0.930 . S
C498 C496 1.395 . S
C498 C501 1.403 . S
C499 C496 1.403 . S
C499 C500 1.524 . S
C499 C503 1.400 . S
C500 H485 0.960 . S
C500 H486 0.960 . S
C500 H487 0.960 . S
C500 C499 1.524 . S
C501 C498 1.403 . S
C501 C502 1.392 . S
C501 C505 1.495 . S
C502 C501 1.392 . S
C502 C503 1.385 . S
C502 C504 1.478 . S
C503 H497 0.930 . S
C503 C499 1.400 . S
C503 C502 1.385 . S
C504 C502 1.478 . S
C504 C506 1.381 . S
C504 C510 1.383 . S
C505 C501 1.495 . S
C505 H511 0.959 . S
C505 H512 0.961 . S
C505 H513 0.960 . S
C506 C504 1.381 . S
C506 C507 1.394 . S
C506 H514 0.930 . S
C507 C506 1.394 . S
C507 C508 1.383 . S
C507 H515 0.929 . S
C508 C507 1.383 . S
C508 C509 1.377 . S
C509 H493 0.930 . S
C509 C508 1.377 . S
C509 C510 1.379 . S
C510 H494 0.931 . S
C510 C504 1.383 . S
C510 C509 1.379 . S
H511 C505 0.959 . S
H512 C505 0.961 . S
H513 C505 0.960 . S
H514 C506 0.930 . S
H515 C507 0.929 . S
H516 C524 0.929 . S
H517 C526 0.930 . S
H518 C528 0.930 . S
H519 C531 0.929 . S
H520 C534 0.930 . S
H521 C536 0.960 . S
H522 C536 0.960 . S
H523 C536 0.960 . S
C524 H516 0.929 . S
C524 C525 1.377 . S
C524 C526 1.384 . S
C525 C524 1.377 . S
C525 C531 1.390 . S
C526 H517 0.930 . S
C526 C524 1.384 . S
C526 C527 1.372 . S
C527 C526 1.372 . S
C527 C528 1.400 . S
C527 C532 1.490 . S
C528 H518 0.930 . S
C528 C527 1.400 . S
C528 C531 1.386 . S
H529 C545 0.930 . S
H530 C546 0.931 . S
C531 H519 0.929 . S
C531 C525 1.390 . S
C531 C528 1.386 . S
C532 C527 1.490 . S
C532 C534 1.395 . S
C532 C535 1.403 . S
H533 C539 0.930 . S
C534 H520 0.930 . S
C534 C532 1.395 . S
C534 C537 1.403 . S
C535 C532 1.403 . S
C535 C536 1.524 . S
C535 C539 1.400 . S
C536 H521 0.960 . S
C536 H522 0.960 . S
C536 H523 0.960 . S
C536 C535 1.524 . S
C537 C534 1.403 . S
C537 C538 1.392 . S
C537 C541 1.495 . S
C538 C537 1.392 . S
C538 C539 1.385 . S
C538 C540 1.478 . S
C539 H533 0.930 . S
C539 C535 1.400 . S
C539 C538 1.385 . S
C540 C538 1.478 . S
C540 C542 1.381 . S
C540 C546 1.383 . S
C541 C537 1.495 . S
C541 H547 0.959 . S
C541 H548 0.961 . S
C541 H549 0.960 . S
C542 C540 1.381 . S
C542 C543 1.394 . S
C542 H550 0.930 . S
C543 C542 1.394 . S
C543 C544 1.383 . S
C543 H551 0.929 . S
C544 C543 1.383 . S
C544 C545 1.377 . S
C545 H529 0.930 . S
C545 C544 1.377 . S
C545 C546 1.379 . S
C546 H530 0.931 . S
C546 C540 1.383 . S
C546 C545 1.379 . S
H547 C541 0.959 . S
H548 C541 0.961 . S
H549 C541 0.960 . S
H550 C542 0.930 . S
H551 C543 0.929 . S
H552 C560 0.929 . S
H553 C562 0.930 . S
H554 C564 0.930 . S
H555 C567 0.929 . S
H556 C570 0.930 . S
H557 C572 0.960 . S
H558 C572 0.960 . S
H559 C572 0.960 . S
C560 H552 0.929 . S
C560 C561 1.377 . S
C560 C562 1.384 . S
C561 C560 1.377 . S
C561 C567 1.390 . S
C562 H553 0.930 . S
C562 C560 1.384 . S
C562 C563 1.372 . S
C563 C562 1.372 . S
C563 C564 1.400 . S
C563 C568 1.490 . S
C564 H554 0.930 . S
C564 C563 1.400 . S
C564 C567 1.386 . S
H565 C581 0.930 . S
H566 C582 0.931 . S
C567 H555 0.929 . S
C567 C561 1.390 . S
C567 C564 1.386 . S
C568 C563 1.490 . S
C568 C570 1.395 . S
C568 C571 1.403 . S
H569 C575 0.930 . S
C570 H556 0.930 . S
C570 C568 1.395 . S
C570 C573 1.403 . S
C571 C568 1.403 . S
C571 C572 1.524 . S
C571 C575 1.400 . S
C572 H557 0.960 . S
C572 H558 0.960 . S
C572 H559 0.960 . S
C572 C571 1.524 . S
C573 C570 1.403 . S
C573 C574 1.392 . S
C573 C577 1.495 . S
C574 C573 1.392 . S
C574 C575 1.385 . S
C574 C576 1.478 . S
C575 H569 0.930 . S
C575 C571 1.400 . S
C575 C574 1.385 . S
C576 C574 1.478 . S
C576 C578 1.381 . S
C576 C582 1.383 . S
C577 C573 1.495 . S
C577 H583 0.959 . S
C577 H584 0.961 . S
C577 H585 0.960 . S
C578 C576 1.381 . S
C578 C579 1.394 . S
C578 H586 0.930 . S
C579 C578 1.394 . S
C579 C580 1.383 . S
C579 H587 0.929 . S
C580 C579 1.383 . S
C580 C581 1.377 . S
C581 H565 0.930 . S
C581 C580 1.377 . S
C581 C582 1.379 . S
C582 H566 0.931 . S
C582 C576 1.383 . S
C582 C581 1.379 . S
H583 C577 0.959 . S
H584 C577 0.961 . S
H585 C577 0.960 . S
H586 C578 0.930 . S
H587 C579 0.929 . S
H588 C596 0.929 . S
H589 C598 0.930 . S
H590 C600 0.930 . S
H591 C603 0.929 . S
H592 C606 0.930 . S
H593 C608 0.960 . S
H594 C608 0.960 . S
H595 C608 0.960 . S
C596 H588 0.929 . S
C596 C597 1.377 . S
C596 C598 1.384 . S
C597 C596 1.377 . S
C597 C603 1.390 . S
C598 H589 0.930 . S
C598 C596 1.384 . S
C598 C599 1.372 . S
C599 C598 1.372 . S
C599 C600 1.400 . S
C599 C604 1.490 . S
C600 H590 0.930 . S
C600 C599 1.400 . S
C600 C603 1.386 . S
H601 C617 0.930 . S
H602 C618 0.931 . S
C603 H591 0.929 . S
C603 C597 1.390 . S
C603 C600 1.386 . S
C604 C599 1.490 . S
C604 C606 1.395 . S
C604 C607 1.403 . S
H605 C611 0.930 . S
C606 H592 0.930 . S
C606 C604 1.395 . S
C606 C609 1.403 . S
C607 C604 1.403 . S
C607 C608 1.524 . S
C607 C611 1.400 . S
C608 H593 0.960 . S
C608 H594 0.960 . S
C608 H595 0.960 . S
C608 C607 1.524 . S
C609 C606 1.403 . S
C609 C610 1.392 . S
C609 C613 1.495 . S
C610 C609 1.392 . S
C610 C611 1.385 . S
C610 C612 1.478 . S
C611 H605 0.930 . S
C611 C607 1.400 . S
C611 C610 1.385 . S
C612 C610 1.478 . S
C612 C614 1.381 . S
C612 C618 1.383 . S
C613 C609 1.495 . S
C613 H619 0.959 . S
C613 H620 0.961 . S
C613 H621 0.960 . S
C614 C612 1.381 . S
C614 C615 1.394 . S
C614 H622 0.930 . S
C615 C614 1.394 . S
C615 C616 1.383 . S
C615 H623 0.929 . S
C616 C615 1.383 . S
C616 C617 1.377 . S
C617 H601 0.930 . S
C617 C616 1.377 . S
C617 C618 1.379 . S
C618 H602 0.931 . S
C618 C612 1.383 . S
C618 C617 1.379 . S
H619 C613 0.959 . S
H620 C613 0.961 . S
H621 C613 0.960 . S
H622 C614 0.930 . S
H623 C615 0.929 . S
H624 C632 0.929 . S
H625 C634 0.930 . S
H626 C636 0.930 . S
H627 C639 0.929 . S
H628 C642 0.930 . S
H629 C644 0.960 . S
H630 C644 0.960 . S
H631 C644 0.960 . S
C632 H624 0.929 . S
C632 C633 1.377 . S
C632 C634 1.384 . S
C633 C632 1.377 . S
C633 C639 1.390 . S
C634 H625 0.930 . S
C634 C632 1.384 . S
C634 C635 1.372 . S
C635 C634 1.372 . S
C635 C636 1.400 . S
C635 C640 1.490 . S
C636 H626 0.930 . S
C636 C635 1.400 . S
C636 C639 1.386 . S
H637 C653 0.930 . S
H638 C654 0.931 . S
C639 H627 0.929 . S
C639 C633 1.390 . S
C639 C636 1.386 . S
C640 C635 1.490 . S
C640 C642 1.395 . S
C640 C643 1.403 . S
H641 C647 0.930 . S
C642 H628 0.930 . S
C642 C640 1.395 . S
C642 C645 1.403 . S
C643 C640 1.403 . S
C643 C644 1.524 . S
C643 C647 1.400 . S
C644 H629 0.960 . S
C644 H630 0.960 . S
C644 H631 0.960 . S
C644 C643 1.524 . S
C645 C642 1.403 . S
C645 C646 1.392 . S
C645 C649 1.495 . S
C646 C645 1.392 . S
C646 C647 1.385 . S
C646 C648 1.478 . S
C647 H641 0.930 . S
C647 C643 1.400 . S
C647 C646 1.385 . S
C648 C646 1.478 . S
C648 C650 1.381 . S
C648 C654 1.383 . S
C649 C645 1.495 . S
C649 H655 0.959 . S
C649 H656 0.961 . S
C649 H657 0.960 . S
C650 C648 1.381 . S
C650 C651 1.394 . S
C650 H658 0.930 . S
C651 C650 1.394 . S
C651 C652 1.383 . S
C651 H659 0.929 . S
C652 C651 1.383 . S
C652 C653 1.377 . S
C653 H637 0.930 . S
C653 C652 1.377 . S
C653 C654 1.379 . S
C654 H638 0.931 . S
C654 C648 1.383 . S
C654 C653 1.379 . S
H655 C649 0.959 . S
H656 C649 0.961 . S
H657 C649 0.960 . S
H658 C650 0.930 . S
H659 C651 0.929 . S
H660 C668 0.929 . S
H661 C670 0.930 . S
H662 C672 0.930 . S
H663 C675 0.929 . S
H664 C678 0.930 . S
H665 C680 0.960 . S
H666 C680 0.960 . S
H667 C680 0.960 . S
C668 H660 0.929 . S
C668 C669 1.377 . S
C668 C670 1.384 . S
C669 C668 1.377 . S
C669 C675 1.390 . S
C670 H661 0.930 . S
C670 C668 1.384 . S
C670 C671 1.372 . S
C671 C670 1.372 . S
C671 C672 1.400 . S
C671 C676 1.490 . S
C672 H662 0.930 . S
C672 C671 1.400 . S
C672 C675 1.386 . S
H673 C689 0.930 . S
H674 C690 0.931 . S
C675 H663 0.929 . S
C675 C669 1.390 . S
C675 C672 1.386 . S
C676 C671 1.490 . S
C676 C678 1.395 . S
C676 C679 1.403 . S
H677 C683 0.930 . S
C678 H664 0.930 . S
C678 C676 1.395 . S
C678 C681 1.403 . S
C679 C676 1.403 . S
C679 C680 1.524 . S
C679 C683 1.400 . S
C680 H665 0.960 . S
C680 H666 0.960 . S
C680 H667 0.960 . S
C680 C679 1.524 . S
C681 C678 1.403 . S
C681 C682 1.392 . S
C681 C685 1.495 . S
C682 C681 1.392 . S
C682 C683 1.385 . S
C682 C684 1.478 . S
C683 H677 0.930 . S
C683 C679 1.400 . S
C683 C682 1.385 . S
C684 C682 1.478 . S
C684 C686 1.381 . S
C684 C690 1.383 . S
C685 C681 1.495 . S
C685 H691 0.959 . S
C685 H692 0.961 . S
C685 H693 0.960 . S
C686 C684 1.381 . S
C686 C687 1.394 . S
C686 H694 0.930 . S
C687 C686 1.394 . S
C687 C688 1.383 . S
C687 H695 0.929 . S
C688 C687 1.383 . S
C688 C689 1.377 . S
C689 H673 0.930 . S
C689 C688 1.377 . S
C689 C690 1.379 . S
C690 H674 0.931 . S
C690 C684 1.383 . S
C690 C689 1.379 . S
H691 C685 0.959 . S
H692 C685 0.961 . S
H693 C685 0.960 . S
H694 C686 0.930 . S
H695 C687 0.929 . S
H696 C704 0.929 . S
H697 C706 0.930 . S
H698 C708 0.930 . S
H699 C711 0.929 . S
H700 C714 0.930 . S
H701 C716 0.960 . S
H702 C716 0.960 . S
H703 C716 0.960 . S
C704 H696 0.929 . S
C704 C705 1.377 . S
C704 C706 1.384 . S
C705 C704 1.377 . S
C705 C711 1.390 . S
C706 H697 0.930 . S
C706 C704 1.384 . S
C706 C707 1.372 . S
C707 C706 1.372 . S
C707 C708 1.400 . S
C707 C712 1.490 . S
C708 H698 0.930 . S
C708 C707 1.400 . S
C708 C711 1.386 . S
H709 C725 0.930 . S
H710 C726 0.931 . S
C711 H699 0.929 . S
C711 C705 1.390 . S
C711 C708 1.386 . S
C712 C707 1.490 . S
C712 C714 1.395 . S
C712 C715 1.403 . S
H713 C719 0.930 . S
C714 H700 0.930 . S
C714 C712 1.395 . S
C714 C717 1.403 . S
C715 C712 1.403 . S
C715 C716 1.524 . S
C715 C719 1.400 . S
C716 H701 0.960 . S
C716 H702 0.960 . S
C716 H703 0.960 . S
C716 C715 1.524 . S
C717 C714 1.403 . S
C717 C718 1.392 . S
C717 C721 1.495 . S
C718 C717 1.392 . S
C718 C719 1.385 . S
C718 C720 1.478 . S
C719 H713 0.930 . S
C719 C715 1.400 . S
C719 C718 1.385 . S
C720 C718 1.478 . S
C720 C722 1.381 . S
C720 C726 1.383 . S
C721 C717 1.495 . S
C721 H727 0.959 . S
C721 H728 0.961 . S
C721 H729 0.960 . S
C722 C720 1.381 . S
C722 C723 1.394 . S
C722 H730 0.930 . S
C723 C722 1.394 . S
C723 C724 1.383 . S
C723 H731 0.929 . S
C724 C723 1.383 . S
C724 C725 1.377 . S
C725 H709 0.930 . S
C725 C724 1.377 . S
C725 C726 1.379 . S
C726 H710 0.931 . S
C726 C720 1.383 . S
C726 C725 1.379 . S
H727 C721 0.959 . S
H728 C721 0.961 . S
H729 C721 0.960 . S
H730 C722 0.930 . S
H731 C723 0.929 . S
H732 C740 0.929 . S
H733 C742 0.930 . S
H734 C744 0.930 . S
H735 C747 0.929 . S
H736 C750 0.930 . S
H737 C752 0.960 . S
H738 C752 0.960 . S
H739 C752 0.960 . S
C740 H732 0.929 . S
C740 C741 1.377 . S
C740 C742 1.384 . S
C741 C740 1.377 . S
C741 C747 1.390 . S
C742 H733 0.930 . S
C742 C740 1.384 . S
C742 C743 1.372 . S
C743 C742 1.372 . S
C743 C744 1.400 . S
C743 C748 1.490 . S
C744 H734 0.930 . S
C744 C743 1.400 . S
C744 C747 1.386 . S
H745 C761 0.930 . S
H746 C762 0.931 . S
C747 H735 0.929 . S
C747 C741 1.390 . S
C747 C744 1.386 . S
C748 C743 1.490 . S
C748 C750 1.395 . S
C748 C751 1.403 . S
H749 C755 0.930 . S
C750 H736 0.930 . S
C750 C748 1.395 . S
C750 C753 1.403 . S
C751 C748 1.403 . S
C751 C752 1.524 . S
C751 C755 1.400 . S
C752 H737 0.960 . S
C752 H738 0.960 . S
C752 H739 0.960 . S
C752 C751 1.524 . S
C753 C750 1.403 . S
C753 C754 1.392 . S
C753 C757 1.495 . S
C754 C753 1.392 . S
C754 C755 1.385 . S
C754 C756 1.478 . S
C755 H749 0.930 . S
C755 C751 1.400 . S
C755 C754 1.385 . S
C756 C754 1.478 . S
C756 C758 1.381 . S
C756 C762 1.383 . S
C757 C753 1.495 . S
C757 H763 0.959 . S
C757 H764 0.961 . S
C757 H765 0.960 . S
C758 C756 1.381 . S
C758 C759 1.394 . S
C758 H766 0.930 . S
C759 C758 1.394 . S
C759 C760 1.383 . S
C759 H767 0.929 . S
C760 C759 1.383 . S
C760 C761 1.377 . S
C761 H745 0.930 . S
C761 C760 1.377 . S
C761 C762 1.379 . S
C762 H746 0.931 . S
C762 C756 1.383 . S
C762 C761 1.379 . S
H763 C757 0.959 . S
H764 C757 0.961 . S
H765 C757 0.960 . S
H766 C758 0.930 . S
H767 C759 0.929 . S
H768 C776 0.929 . S
H769 C778 0.930 . S
H770 C780 0.930 . S
H771 C783 0.929 . S
H772 C786 0.930 . S
H773 C788 0.960 . S
H774 C788 0.960 . S
H775 C788 0.960 . S
C776 H768 0.929 . S
C776 C777 1.377 . S
C776 C778 1.384 . S
C777 C776 1.377 . S
C777 C783 1.390 . S
C778 H769 0.930 . S
C778 C776 1.384 . S
C778 C779 1.372 . S
C779 C778 1.372 . S
C779 C780 1.400 . S
C779 C784 1.490 . S
C780 H770 0.930 . S
C780 C779 1.400 . S
C780 C783 1.386 . S
H781 C797 0.930 . S
H782 C798 0.931 . S
C783 H771 0.929 . S
C783 C777 1.390 . S
C783 C780 1.386 . S
C784 C779 1.490 . S
C784 C786 1.395 . S
C784 C787 1.403 . S
H785 C791 0.930 . S
C786 H772 0.930 . S
C786 C784 1.395 . S
C786 C789 1.403 . S
C787 C784 1.403 . S
C787 C788 1.524 1_455 S
C787 C791 1.400 . S
C788 H773 0.960 . S
C788 H774 0.960 . S
C788 H775 0.960 . S
C788 C787 1.524 1_655 S
C789 C786 1.403 . S
C789 C790 1.392 . S
C789 C793 1.495 . S
C790 C789 1.392 . S
C790 C791 1.385 . S
C790 C792 1.478 . S
C791 H785 0.930 . S
C791 C787 1.400 . S
C791 C790 1.385 . S
C792 C790 1.478 . S
C792 C794 1.381 . S
C792 C798 1.383 . S
C793 C789 1.495 . S
C793 H799 0.959 . S
C793 H800 0.961 . S
C793 H801 0.960 . S
C794 C792 1.381 . S
C794 C795 1.394 1_554 S
C794 H802 0.930 . S
C795 C794 1.394 1_556 S
C795 C796 1.383 . S
C795 H803 0.929 . S
C796 C795 1.383 . S
C796 C797 1.377 . S
C797 H781 0.930 . S
C797 C796 1.377 . S
C797 C798 1.379 1_556 S
C798 H782 0.931 . S
C798 C792 1.383 . S
C798 C797 1.379 1_554 S
H799 C793 0.959 . S
H800 C793 0.961 . S
H801 C793 0.960 . S
H802 C794 0.930 . S
H803 C795 0.929 . S
H804 C812 0.929 . S
H805 C814 0.930 . S
H806 C816 0.930 . S
H807 C819 0.929 . S
H808 C822 0.930 . S
H809 C824 0.960 . S
H810 C824 0.960 . S
H811 C824 0.960 1_565 S
C812 H804 0.929 . S
C812 C813 1.377 . S
C812 C814 1.384 . S
C813 C812 1.377 . S
C813 C819 1.390 1_545 S
C814 H805 0.930 . S
C814 C812 1.384 . S
C814 C815 1.372 . S
C815 C814 1.372 . S
C815 C816 1.400 1_545 S
C815 C820 1.490 . S
C816 H806 0.930 . S
C816 C815 1.400 1_565 S
C816 C819 1.386 . S
H817 C833 0.930 . S
H818 C834 0.931 . S
C819 H807 0.929 . S
C819 C813 1.390 1_565 S
C819 C816 1.386 . S
C820 C815 1.490 . S
C820 C822 1.395 . S
C820 C823 1.403 . S
H821 C827 0.930 . S
C822 H808 0.930 . S
C822 C820 1.395 . S
C822 C825 1.403 . S
C823 C820 1.403 . S
C823 C824 1.524 . S
C823 C827 1.400 . S
C824 H809 0.960 . S
C824 H810 0.960 . S
C824 H811 0.960 1_545 S
C824 C823 1.524 . S
C825 C822 1.403 . S
C825 C826 1.392 . S
C825 C829 1.495 . S
C826 C825 1.392 . S
C826 C827 1.385 . S
C826 C828 1.478 . S
C827 H821 0.930 . S
C827 C823 1.400 . S
C827 C826 1.385 . S
C828 C826 1.478 . S
C828 C830 1.381 . S
C828 C834 1.383 1_545 S
C829 C825 1.495 . S
C829 H835 0.959 . S
C829 H836 0.961 . S
C829 H837 0.960 . S
C830 C828 1.381 . S
C830 C831 1.394 . S
C830 H838 0.930 . S
C831 C830 1.394 . S
C831 C832 1.383 . S
C831 H839 0.929 . S
C832 C831 1.383 . S
C832 C833 1.377 1_545 S
C833 H817 0.930 . S
C833 C832 1.377 1_565 S
C833 C834 1.379 . S
C834 H818 0.931 . S
C834 C828 1.383 1_565 S
C834 C833 1.379 . S
H835 C829 0.959 . S
H836 C829 0.961 . S
H837 C829 0.960 . S
H838 C830 0.930 . S
H839 C831 0.929 . S
H840 C848 0.929 . S
H841 C850 0.930 . S
H842 C852 0.930 . S
H843 C855 0.929 . S
H844 C858 0.930 . S
H845 C860 0.960 . S
H846 C860 0.960 . S
H847 C860 0.960 . S
C848 H840 0.929 . S
C848 C849 1.377 . S
C848 C850 1.384 . S
C849 C848 1.377 . S
C849 C855 1.390 . S
C850 H841 0.930 . S
C850 C848 1.384 . S
C850 C851 1.372 . S
C851 C850 1.372 . S
C851 C852 1.400 . S
C851 C856 1.490 . S
C852 H842 0.930 . S
C852 C851 1.400 . S
C852 C855 1.386 . S
H853 C869 0.930 . S
H854 C870 0.931 . S
C855 H843 0.929 . S
C855 C849 1.390 . S
C855 C852 1.386 . S
C856 C851 1.490 . S
C856 C858 1.395 . S
C856 C859 1.403 . S
H857 C863 0.930 . S
C858 H844 0.930 . S
C858 C856 1.395 . S
C858 C861 1.403 . S
C859 C856 1.403 . S
C859 C860 1.524 . S
C859 C863 1.400 . S
C860 H845 0.960 . S
C860 H846 0.960 . S
C860 H847 0.960 . S
C860 C859 1.524 . S
C861 C858 1.403 . S
C861 C862 1.392 . S
C861 C865 1.495 . S
C862 C861 1.392 . S
C862 C863 1.385 . S
C862 C864 1.478 . S
C863 H857 0.930 . S
C863 C859 1.400 . S
C863 C862 1.385 . S
C864 C862 1.478 . S
C864 C866 1.381 . S
C864 C870 1.383 . S
C865 C861 1.495 . S
C865 H871 0.959 . S
C865 H872 0.961 . S
C865 H873 0.960 . S
C866 C864 1.381 . S
C866 C867 1.394 . S
C866 H874 0.930 . S
C867 C866 1.394 . S
C867 C868 1.383 . S
C867 H875 0.929 . S
C868 C867 1.383 . S
C868 C869 1.377 . S
C869 H853 0.930 . S
C869 C868 1.377 . S
C869 C870 1.379 . S
C870 H854 0.931 . S
C870 C864 1.383 . S
C870 C869 1.379 . S
H871 C865 0.959 . S
H872 C865 0.961 . S
H873 C865 0.960 . S
H874 C866 0.930 . S
H875 C867 0.929 . S
H876 C884 0.929 . S
H877 C886 0.930 . S
H878 C888 0.930 . S
H879 C891 0.929 . S
H880 C894 0.930 . S
H881 C896 0.960 . S
H882 C896 0.960 . S
H883 C896 0.960 . S
C884 H876 0.929 . S
C884 C885 1.377 . S
C884 C886 1.384 . S
C885 C884 1.377 . S
C885 C891 1.390 1_545 S
C886 H877 0.930 . S
C886 C884 1.384 . S
C886 C887 1.372 . S
C887 C886 1.372 . S
C887 C888 1.400 1_545 S
C887 C892 1.490 . S
C888 H878 0.930 . S
C888 C887 1.400 1_565 S
C888 C891 1.386 . S
H889 C905 0.930 . S
H890 C906 0.931 . S
C891 H879 0.929 . S
C891 C885 1.390 1_565 S
C891 C888 1.386 . S
C892 C887 1.490 . S
C892 C894 1.395 . S
C892 C895 1.403 1_545 S
H893 C899 0.930 . S
C894 H880 0.930 . S
C894 C892 1.395 . S
C894 C897 1.403 . S
C895 C892 1.403 1_565 S
C895 C896 1.524 . S
C895 C899 1.400 . S
C896 H881 0.960 . S
C896 H882 0.960 . S
C896 H883 0.960 . S
C896 C895 1.524 . S
C897 C894 1.403 . S
C897 C898 1.392 . S
C897 C901 1.495 . S
C898 C897 1.392 . S
C898 C899 1.385 1_545 S
C898 C900 1.478 . S
C899 H893 0.930 . S
C899 C895 1.400 . S
C899 C898 1.385 1_565 S
C900 C898 1.478 . S
C900 C902 1.381 . S
C900 C906 1.383 1_545 S
C901 C897 1.495 . S
C901 H907 0.959 . S
C901 H908 0.961 . S
C901 H909 0.960 . S
C902 C900 1.381 . S
C902 C903 1.394 . S
C902 H910 0.930 . S
C903 C902 1.394 . S
C903 C904 1.360 1_545 S
C903 H911 0.929 . S
C904 C903 1.360 1_565 S
C904 C905 1.395 . S
C905 H889 0.930 . S
C905 C904 1.395 . S
C905 C906 1.379 . S
C906 H890 0.931 . S
C906 C900 1.383 1_565 S
C906 C905 1.379 . S
H907 C901 0.959 . S
H908 C901 0.961 . S
H909 C901 0.960 . S
H910 C902 0.930 . S
H911 C903 0.929 . S
H912 C920 0.929 . S
H913 C922 0.930 . S
H914 C924 0.930 . S
H915 C927 0.929 . S
H916 C930 0.930 . S
H917 C932 0.960 . S
H918 C932 0.960 . S
H919 C932 0.960 . S
C920 H912 0.929 . S
C920 C921 1.377 . S
C920 C922 1.384 . S
C921 C920 1.377 . S
C921 C927 1.390 . S
C922 H913 0.930 . S
C922 C920 1.384 . S
C922 C923 1.372 . S
C923 C922 1.372 . S
C923 C924 1.400 . S
C923 C928 1.490 . S
C924 H914 0.930 . S
C924 C923 1.400 . S
C924 C927 1.386 . S
H925 C941 0.930 . S
H926 C942 0.931 . S
C927 H915 0.929 . S
C927 C921 1.390 . S
C927 C924 1.386 . S
C928 C923 1.490 . S
C928 C930 1.395 . S
C928 C931 1.403 . S
H929 C935 0.930 . S
C930 H916 0.930 . S
C930 C928 1.395 . S
C930 C933 1.403 . S
C931 C928 1.403 . S
C931 C932 1.524 . S
C931 C935 1.400 . S
C932 H917 0.960 . S
C932 H918 0.960 . S
C932 H919 0.960 . S
C932 C931 1.524 . S
C933 C930 1.403 . S
C933 C934 1.392 . S
C933 C937 1.495 . S
C934 C933 1.392 . S
C934 C935 1.385 . S
C934 C936 1.478 . S
C935 H929 0.930 . S
C935 C931 1.400 . S
C935 C934 1.385 . S
C936 C934 1.478 . S
C936 C938 1.381 . S
C936 C942 1.383 . S
C937 C933 1.495 . S
C937 H943 0.959 . S
C937 H944 0.961 . S
C937 H945 0.960 . S
C938 C936 1.381 . S
C938 C939 1.394 1_556 S
C938 H946 0.930 . S
C939 C938 1.394 1_554 S
C939 C940 1.383 . S
C939 H947 0.929 . S
C940 C939 1.383 . S
C940 C941 1.377 . S
C941 H925 0.930 . S
C941 C940 1.377 . S
C941 C942 1.379 1_554 S
C942 H926 0.931 . S
C942 C936 1.383 . S
C942 C941 1.379 1_556 S
H943 C937 0.959 . S
H944 C937 0.961 . S
H945 C937 0.960 . S
H946 C938 0.930 . S
H947 C939 0.929 . S
H948 C956 0.929 . S
H949 C958 0.930 . S
H950 C960 0.930 . S
H951 C963 0.929 . S
H952 C966 0.930 . S
H953 C968 0.960 . S
H954 C968 0.960 . S
H955 C968 0.960 . S
C956 H948 0.929 . S
C956 C957 1.377 1_655 S
C956 C958 1.384 . S
C957 C956 1.377 1_455 S
C957 C963 1.390 . S
C958 H949 0.930 . S
C958 C956 1.384 . S
C958 C959 1.372 1_655 S
C959 C958 1.372 1_455 S
C959 C960 1.400 . S
C959 C964 1.490 . S
C960 H950 0.930 . S
C960 C959 1.400 . S
C960 C963 1.386 . S
H961 C977 0.930 . S
H962 C978 0.931 . S
C963 H951 0.929 . S
C963 C957 1.390 . S
C963 C960 1.386 . S
C964 C959 1.490 . S
C964 C966 1.395 1_455 S
C964 C967 1.403 . S
H965 C971 0.930 . S
C966 H952 0.930 . S
C966 C964 1.395 1_655 S
C966 C969 1.403 . S
C967 C964 1.403 . S
C967 C968 1.524 . S
C967 C971 1.400 . S
C968 H953 0.960 . S
C968 H954 0.960 . S
C968 H955 0.960 . S
C968 C967 1.524 . S
C969 C966 1.403 . S
C969 C970 1.405 . S
C969 C973 1.495 . S
C970 C969 1.405 . S
C970 C971 1.371 1_655 S
C970 C972 1.479 . S
C971 H965 0.930 . S
C971 C967 1.400 . S
C971 C970 1.371 1_455 S
C972 C970 1.479 . S
C972 C974 1.381 . S
C972 C978 1.383 1_655 S
C973 C969 1.495 . S
C973 H979 0.959 . S
C973 H980 0.961 . S
C973 H981 0.960 . S
C974 C972 1.381 . S
C974 C975 1.394 . S
C974 H982 0.930 . S
C975 C974 1.394 . S
C975 C976 1.383 . S
C975 H983 0.929 . S
C976 C975 1.383 . S
C976 C977 1.377 1_655 S
C977 H961 0.930 . S
C977 C976 1.377 1_455 S
C977 C978 1.379 . S
C978 H962 0.931 . S
C978 C972 1.383 1_455 S
C978 C977 1.379 . S
H979 C973 0.959 . S
H980 C973 0.961 . S
H981 C973 0.960 . S
H982 C974 0.930 . S
H983 C975 0.929 . S
C345 C7 0.495 . S
C364 C325 0.486 . S
C381 C51 1.843 . S
C400 C253 1.766 . S
C417 C87 1.136 . S
C436 C289 1.155 . S
C453 C16 0.329 . S
C472 C301 0.272 . S
C508 C229 1.954 . S
C489 C42 1.984 . S
C544 C265 1.288 . S
C525 C96 1.301 . S
C561 C47 1.133 . S
C580 C181 1.142 . S
C597 C91 3.065 . S
C616 C193 3.025 . S
C633 C2 2.023 . S
C652 C121 2.009 . S
C688 C157 1.272 . S
C669 C56 1.266 . S
C724 C217 2.848 . S
C705 C82 2.909 . S
C741 C11 1.832 . S
C760 C145 1.784 . S
C796 C223 1.759 . S
C777 C19 1.692 . S
C813 C50 1.348 . S
C832 C151 1.370 . S
C849 C99 1.464 . S
C868 C187 1.508 . S
C904 C295 1.483 1_565 S
C885 C59 1.455 . S
C940 C331 1.131 . S
C921 C90 1.113 . S
C957 C10 1.345 . S
C976 C259 1.374 1_655 S
