# Generated by pormake.
# Topology tsx, (6,3)-cn, num edge types: 1
# Building blocks:
#     Node 0, Type 0, BuildingBlock: JUFBIX_clean_sbu_0, # of connection points: 6
#     Node 1, Type 0, BuildingBlock: JUFBIX_clean_sbu_0, # of connection points: 6
#     Node 2, Type 1, BuildingBlock: MIDCAF_clean_linker_0, # of connection points: 3
#     Node 3, Type 1, BuildingBlock: MIDCAF_clean_linker_0, # of connection points: 3
#     Node 4, Type 1, BuildingBlock: MIDCAF_clean_linker_0, # of connection points: 3
#     Node 5, Type 1, BuildingBlock: MIDCAF_clean_linker_0, # of connection points: 3
#     Edge 6, Type (0, 1), BuildingBlock: ZUJKAS_clean_linker_0, # of connection points: 2
#     Edge 7, Type (0, 1), BuildingBlock: ZUJKAS_clean_linker_0, # of connection points: 2
#     Edge 8, Type (0, 1), BuildingBlock: ZUJKAS_clean_linker_0, # of connection points: 2
#     Edge 9, Type (0, 1), BuildingBlock: ZUJKAS_clean_linker_0, # of connection points: 2
#     Edge 10, Type (0, 1), BuildingBlock: ZUJKAS_clean_linker_0, # of connection points: 2
#     Edge 11, Type (0, 1), BuildingBlock: ZUJKAS_clean_linker_0, # of connection points: 2
#     Edge 12, Type (0, 1), BuildingBlock: ZUJKAS_clean_linker_0, # of connection points: 2
#     Edge 13, Type (0, 1), BuildingBlock: ZUJKAS_clean_linker_0, # of connection points: 2
#     Edge 14, Type (0, 1), BuildingBlock: ZUJKAS_clean_linker_0, # of connection points: 2
#     Edge 15, Type (0, 1), BuildingBlock: ZUJKAS_clean_linker_0, # of connection points: 2
#     Edge 16, Type (0, 1), BuildingBlock: ZUJKAS_clean_linker_0, # of connection points: 2
#     Edge 17, Type (0, 1), BuildingBlock: ZUJKAS_clean_linker_0, # of connection points: 2
# Relax obj value: 0.159
# Max RMSD: 0.166
# Mean RMSD: 0.133
data_MOF--net-tsx--node1-JUFBIX_clean_sbu_0--node2-MIDCAF_clean_linker_0--edge1-ZUJKAS_clean_linker_0
_symmetry_space_group_name_H-M    P1
_symmetry_Int_Tables_number       1
_symmetry_cell_setting            triclinic
loop_
_symmetry_equiv_pos_as_xyz
'x, y, z'
_cell_length_a     29.403376
_cell_length_b     34.846028
_cell_length_c     54.02922
_cell_angle_alpha  92.27749
_cell_angle_beta   89.716531
_cell_angle_gamma 96.465099
loop_
_atom_site_label
_atom_site_type_symbol
_atom_site_fract_x
_atom_site_fract_y
_atom_site_fract_z
_atom_type_partial_charge
Co0 Co 0.03877 0.99304 0.00724 0.0
C1 C 0.99816 0.01621 0.96424 0.0
Co2 Co 0.97861 0.02497 0.01362 0.0
C3 C 0.10208 0.93448 0.00779 0.0
C4 C 0.1243 0.98147 0.98464 0.0
N5 N 0.09051 0.96861 1.00022 0.0
N6 N 0.14155 0.92545 0.99728 0.0
C7 C 0.1556 0.95508 0.98279 0.0
H8 H 0.08122 0.91608 0.02011 0.0
H9 H 0.12566 0.00809 0.97488 0.0
C10 C 0.01899 0.00203 0.05668 0.0
N11 N 0.92679 0.04924 0.02066 0.0
C12 C 0.91462 0.08296 0.01276 0.0
C13 C 0.89229 0.03561 0.03559 0.0
N14 N 0.87368 0.09062 0.02207 0.0
C15 C 0.85961 0.06083 0.03642 0.0
C16 C 0.95853 0.94463 0.00775 0.0
O17 O 0.04671 0.98746 0.04185 0.0
O18 O 0.98733 0.01955 0.04799 0.0
O19 O 0.94197 0.97644 0.01173 0.0
O20 O 1.00149 0.94482 0.005 0.0
O21 O 0.97031 0.03022 0.97921 0.0
H22 H 0.89108 0.00904 0.04539 0.0
H23 H 0.93511 0.10126 1.00023 0.0
O24 O 0.03025 0.99895 0.97274 0.0
O25 O 0.07552 0.0415 0.00946 0.0
O26 O 0.01581 0.07323 0.01531 0.0
C27 C 0.05883 0.07339 0.01281 0.0
H28 H 0.1863 0.95751 0.97156 0.0
H29 H 0.82827 0.05781 0.04711 0.0
Co30 Co 0.53761 0.48627 0.5101 0.0
C31 C 0.49765 0.51008 0.46687 0.0
Co32 Co 0.47881 0.51995 0.51609 0.0
C33 C 0.59945 0.4263 0.51083 0.0
C34 C 0.62144 0.47217 0.48676 0.0
N35 N 0.58817 0.46035 0.50292 0.0
N36 N 0.63821 0.41637 0.49996 0.0
C37 C 0.65209 0.44528 0.48488 0.0
H38 H 0.57893 0.40865 0.5237 0.0
H39 H 0.62291 0.49846 0.47665 0.0
C40 C 0.51859 0.49631 0.55937 0.0
N41 N 0.4284 0.54591 0.52334 0.0
C42 C 0.41702 0.57945 0.51476 0.0
C43 C 0.39553 0.53506 0.53995 0.0
N44 N 0.37854 0.59005 0.52557 0.0
C45 C 0.36496 0.5621 0.5414 0.0
C46 C 0.45562 0.44006 0.51068 0.0
O47 O 0.5458 0.48085 0.54468 0.0
O48 O 0.48768 0.51447 0.55049 0.0
O49 O 0.44043 0.47252 0.51437 0.0
O50 O 0.49849 0.4389 0.50828 0.0
O51 O 0.47045 0.52524 0.48169 0.0
H52 H 0.39417 0.50928 0.55057 0.0
H53 H 0.43719 0.59618 0.5013 0.0
O54 O 0.52883 0.49198 0.47557 0.0
O55 O 0.57613 0.53399 0.51188 0.0
O56 O 0.51759 0.56717 0.51752 0.0
C57 C 0.56044 0.56637 0.51494 0.0
H58 H 0.68231 0.44689 0.47328 0.0
H59 H 0.33486 0.56109 0.55307 0.0
C60 C 0.89597 0.09374 0.45054 0.0
C61 C 0.89553 0.09925 0.47644 0.0
C62 C 0.92593 0.08056 0.49057 0.0
C63 C 0.95623 0.05714 0.47895 0.0
H64 H 0.03025 0.94659 0.48215 0.0
H65 H 0.07567 0.89829 0.49832 0.0
H66 H 0.1811 0.9292 0.44433 0.0
H67 H 0.13519 0.97588 0.42776 0.0
H68 H 0.07242 0.9646 0.3719 0.0
H69 H 0.07488 0.96211 0.32696 0.0
H70 H 0.98488 0.05187 0.32549 0.0
H71 H 0.98122 0.05357 0.37058 0.0
H72 H 0.92539 0.0676 0.41897 0.0
H73 H 0.87382 0.10825 0.43898 0.0
H74 H 0.92635 0.08407 0.51058 0.0
H75 H 0.9795 0.04345 0.49031 0.0
N76 N 0.01786 0.00816 0.45279 0.0
N77 N 0.05156 0.98921 0.41539 0.0
N78 N 0.99355 0.02972 0.41487 0.0
C79 C 0.04885 0.98826 0.44044 0.0
C80 C 0.02399 0.00968 0.40241 0.0
C81 C 0.99022 0.02928 0.44 0.0
C82 C 0.0789 0.96445 0.45346 0.0
C83 C 0.0635 0.94338 0.4741 0.0
C84 C 0.08955 0.91578 0.48334 0.0
C85 C 0.13159 0.9092 0.47223 0.0
C86 C 0.14825 0.93254 0.45281 0.0
C87 C 0.12208 0.95953 0.44342 0.0
C88 C 0.02653 0.00926 0.37496 0.0
C89 C 0.0532 0.98394 0.36207 0.0
C90 C 0.05485 0.98265 0.33622 0.0
C91 C 0.03014 0.00681 0.32253 0.0
C92 C 0.00381 0.03242 0.33541 0.0
C93 C 0.00192 0.03356 0.3613 0.0
C94 C 0.95694 0.05222 0.45295 0.0
C95 C 0.92608 0.07058 0.43899 0.0
C96 C 0.89675 0.89744 0.57043 0.0
C97 C 0.88263 0.89941 0.54579 0.0
C98 C 0.89665 0.93278 0.53272 0.0
C99 C 0.92404 0.9638 0.54426 0.0
H100 H 0.04288 0.04842 0.53369 0.0
H101 H 0.09785 0.09435 0.51284 0.0
H102 H 0.10647 0.16942 0.57859 0.0
H103 H 0.05187 0.12401 0.59939 0.0
H104 H 0.025 0.08749 0.65105 0.0
H105 H 0.02189 0.09167 0.69616 0.0
H106 H 0.93727 0.98196 0.69608 0.0
H107 H 0.93946 0.97804 0.65113 0.0
H108 H 0.93301 0.92619 0.60121 0.0
H109 H 0.88597 0.87225 0.58103 0.0
H110 H 0.88621 0.93491 0.51367 0.0
H111 H 0.93396 0.9894 0.5339 0.0
N112 N 0.98912 0.0229 0.56957 0.0
N113 N 0.0105 0.0565 0.60701 0.0
N114 N 0.96118 0.999 0.60737 0.0
C115 C 0.01303 0.05346 0.58188 0.0
C116 C 0.98461 0.0294 0.61991 0.0
C117 C 0.96308 0.99558 0.58228 0.0
C118 C 0.04322 0.08238 0.5683 0.0
C119 C 0.05614 0.07491 0.54361 0.0
C120 C 0.08774 0.10107 0.53169 0.0
C121 C 0.10641 0.13539 0.54411 0.0
C122 C 0.0923 0.14339 0.56846 0.0
C123 C 0.06121 0.11717 0.58044 0.0
C124 C 0.98248 0.03242 0.64736 0.0
C125 C 0.0056 0.06428 0.66062 0.0
C126 C 0.00401 0.06662 0.68651 0.0
C127 C 0.97928 0.03718 0.69974 0.0
C128 C 0.95603 0.00545 0.68647 0.0
C129 C 0.95756 0.00311 0.66063 0.0
C130 C 0.93697 0.96216 0.5692 0.0
C131 C 0.92338 0.92851 0.58204 0.0
C132 C 0.43613 0.62593 0.95384 0.0
C133 C 0.41794 0.62128 0.97776 0.0
C134 C 0.42611 0.58844 0.99064 0.0
C135 C 0.45148 0.56057 0.97962 0.0
H136 H 0.57049 0.48528 0.98928 0.0
H137 H 0.61343 0.43793 0.00871 0.0
H138 H 0.57981 0.35723 0.94707 0.0
H139 H 0.53778 0.40423 0.92763 0.0
H140 H 0.54541 0.44776 0.87484 0.0
H141 H 0.54977 0.44503 0.82989 0.0
H142 H 0.49435 0.55454 0.82783 0.0
H143 H 0.48893 0.55696 0.87286 0.0
H144 H 0.4736 0.60231 0.9241 0.0
H145 H 0.43 0.65067 0.94332 0.0
H146 H 0.41266 0.58421 0.00915 0.0
H147 H 0.45664 0.53528 0.98983 0.0
N148 N 0.51011 0.50675 0.95552 0.0
N149 N 0.53172 0.47694 0.91821 0.0
N150 N 0.49427 0.53258 0.91737 0.0
C151 C 0.53008 0.47807 0.94334 0.0
C152 C 0.51411 0.5041 0.90505 0.0
C153 C 0.49188 0.53406 0.94254 0.0
C154 C 0.55108 0.4485 0.95687 0.0
C155 C 0.57176 0.45718 0.98013 0.0
C156 C 0.59649 0.43026 0.99116 0.0
C157 C 0.59993 0.39398 0.97936 0.0
C158 C 0.57743 0.38482 0.95669 0.0
C159 C 0.55359 0.41185 0.94549 0.0
C160 C 0.51677 0.5026 0.87758 0.0
C161 C 0.53413 0.47134 0.86488 0.0
C162 C 0.53691 0.46985 0.83904 0.0
C163 C 0.52255 0.4996 0.82521 0.0
C164 C 0.50519 0.53088 0.83788 0.0
C165 C 0.50228 0.53234 0.86375 0.0
C166 C 0.46845 0.56476 0.95535 0.0
C167 C 0.46087 0.59799 0.94275 0.0
C168 C 0.40512 0.39527 0.06959 0.0
C169 C 0.38938 0.39989 0.04553 0.0
C170 C 0.40376 0.43416 0.03346 0.0
C171 C 0.43303 0.46352 0.04547 0.0
H172 H 0.56818 0.53953 0.03934 0.0
H173 H 0.62828 0.58395 0.02117 0.0
H174 H 0.61946 0.66414 0.0837 0.0
H175 H 0.5611 0.61936 0.10217 0.0
H176 H 0.53677 0.5792 0.15433 0.0
H177 H 0.53171 0.58221 0.19936 0.0
H178 H 0.44169 0.47523 0.19712 0.0
H179 H 0.44586 0.4725 0.15216 0.0
H180 H 0.44422 0.42056 0.10048 0.0
H181 H 0.39417 0.36929 0.07939 0.0
H182 H 0.39207 0.4383 0.01488 0.0
H183 H 0.44312 0.48994 0.03596 0.0
N184 N 0.50304 0.51803 0.07181 0.0
N185 N 0.52355 0.54978 0.10998 0.0
N186 N 0.47129 0.49399 0.10884 0.0
C187 C 0.52768 0.54737 0.0849 0.0
C188 C 0.49544 0.52321 0.1221 0.0
C189 C 0.47469 0.49127 0.08376 0.0
C190 C 0.56035 0.5757 0.07237 0.0
C191 C 0.57891 0.5668 0.04908 0.0
C192 C 0.61328 0.59231 0.03863 0.0
C193 C 0.62937 0.62736 0.05117 0.0
C194 C 0.60902 0.63691 0.07387 0.0
C195 C 0.57524 0.61131 0.0844 0.0
C196 C 0.49179 0.52557 0.14952 0.0
C197 C 0.51575 0.55634 0.16339 0.0
C198 C 0.51304 0.558 0.18925 0.0
C199 C 0.48634 0.52894 0.20186 0.0
C200 C 0.46206 0.49838 0.18799 0.0
C201 C 0.46472 0.49672 0.16216 0.0
C202 C 0.44737 0.45934 0.06992 0.0
C203 C 0.4335 0.42475 0.08171 0.0
H204 H 0.1519 0.08259 0.01546 0.0
H205 H 0.20298 0.14279 0.0157 0.0
H206 H 0.08679 0.20735 0.01023 0.0
H207 H 0.03513 0.14707 0.01074 0.0
H208 H 0.21631 0.19722 0.9811 0.0
H209 H 0.15397 0.2619 0.0689 0.0
H210 H 0.13823 0.21197 0.05947 0.0
H211 H 0.11078 0.24945 0.04569 0.0
C212 C 0.13711 0.10959 0.01446 0.0
C213 C 0.08944 0.1101 0.01328 0.0
C214 C 0.16639 0.14398 0.01451 0.0
C215 C 0.14872 0.17961 0.01327 0.0
C216 C 0.10114 0.18025 0.01175 0.0
H217 H 0.30692 0.40901 0.02501 0.0
H218 H 0.24624 0.35768 0.01248 0.0
C219 C 0.07169 0.14579 0.01195 0.0
C220 C 0.18057 0.21578 0.01358 0.0
H221 H 0.21243 0.299 0.04766 0.0
C222 C 0.21524 0.21961 0.99556 0.0
C223 C 0.17904 0.24504 0.03241 0.0
C224 C 0.1438 0.2419 0.05286 0.0
C225 C 0.24912 0.25139 0.99625 0.0
C226 C 0.2483 0.27995 0.01547 0.0
C227 C 0.21267 0.27703 0.03288 0.0
C228 C 0.28648 0.31096 0.01943 0.0
C229 C 0.28604 0.25391 0.97672 0.0
C230 C 0.3292 0.30152 0.0271 0.0
C231 C 0.36359 0.33061 0.03439 0.0
C232 C 0.35588 0.36964 0.03402 0.0
C233 C 0.31384 0.37913 0.02519 0.0
C234 C 0.27918 0.34993 0.01816 0.0
H235 H 0.27562 0.23549 0.95999 0.0
H236 H 0.2947 0.28421 0.97118 0.0
H237 H 0.3174 0.24385 0.98436 0.0
H238 H 0.33523 0.27158 0.02853 0.0
H239 H 0.39573 0.3226 0.04111 0.0
H240 H 0.1906 0.89061 0.96241 0.0
H241 H 0.23055 0.83361 0.96682 0.0
H242 H 0.18225 0.824 0.04204 0.0
H243 H 0.14222 0.88173 0.03778 0.0
H244 H 0.28043 0.82004 0.03445 0.0
H245 H 0.17271 0.71933 0.9711 0.0
H246 H 0.19028 0.7654 0.95822 0.0
H247 H 0.15322 0.76274 0.98481 0.0
C248 C 0.18848 0.87649 0.97992 0.0
C249 C 0.1634 0.89078 0.99979 0.0
C250 C 0.21098 0.84367 0.98233 0.0
C251 C 0.20894 0.82437 0.00465 0.0
C252 C 0.18393 0.83839 0.02459 0.0
H253 H 0.33493 0.60719 0.00076 0.0
H254 H 0.28227 0.65443 0.01299 0.0
C255 C 0.16096 0.87118 0.02211 0.0
C256 C 0.23473 0.79055 0.00707 0.0
H257 H 0.24778 0.70252 0.9797 0.0
C258 C 0.27287 0.79399 0.02285 0.0
C259 C 0.22446 0.75644 0.99217 0.0
C260 C 0.18267 0.75047 0.97578 0.0
C261 C 0.30268 0.76517 0.02291 0.0
C262 C 0.29425 0.73235 0.00662 0.0
C263 C 0.25446 0.72783 0.99205 0.0
C264 C 0.32812 0.7042 0.00262 0.0
C265 C 0.34349 0.7705 0.04 0.0
C266 C 0.37151 0.71653 0.99302 0.0
C267 C 0.40151 0.68969 0.98601 0.0
C268 C 0.3887 0.64991 0.9884 0.0
C269 C 0.34594 0.63767 0.99895 0.0
C270 C 0.31576 0.66459 0.00582 0.0
H271 H 0.33738 0.78967 0.05632 0.0
H272 H 0.35189 0.74234 0.04658 0.0
H273 H 0.37358 0.78419 0.02987 0.0
H274 H 0.38147 0.74685 0.98993 0.0
H275 H 0.43432 0.69999 0.97807 0.0
H276 H 0.97753 0.87336 0.98996 0.0
H277 H 0.92566 0.81303 0.98834 0.0
H278 H 0.81952 0.87284 0.02267 0.0
H279 H 0.87022 0.9331 0.02341 0.0
H280 H 0.88727 0.77229 0.02368 0.0
H281 H 0.74832 0.81689 0.96738 0.0
H282 H 0.80326 0.84552 0.97025 0.0
H283 H 0.7593 0.85038 0.99322 0.0
C284 C 0.94295 0.87362 0.99691 0.0
C285 C 0.92781 0.90801 0.00663 0.0
C286 C 0.91335 0.83919 0.99594 0.0
C287 C 0.86825 0.83855 0.00478 0.0
C288 C 0.85351 0.8728 0.01486 0.0
H289 H 0.69903 0.66866 0.07729 0.0
H290 H 0.75931 0.71508 0.06197 0.0
C291 C 0.88274 0.90722 0.01551 0.0
C292 C 0.83731 0.80184 0.00522 0.0
H293 H 0.72621 0.76478 0.99533 0.0
C294 C 0.85232 0.77037 0.01701 0.0
C295 C 0.79207 0.79864 0.99587 0.0
C296 C 0.77507 0.82956 0.98072 0.0
C297 C 0.82233 0.73708 0.0214 0.0
C298 C 0.77572 0.73583 0.01459 0.0
C299 C 0.76166 0.76598 0.00107 0.0
C300 C 0.74029 0.70563 0.02335 0.0
C301 C 0.8409 0.70391 0.03362 0.0
C302 C 0.70832 0.68558 0.00688 0.0
C303 C 0.67259 0.65971 0.01574 0.0
C304 C 0.66815 0.65351 0.04127 0.0
C305 C 0.70079 0.67316 0.05758 0.0
C306 C 0.73601 0.69922 0.04877 0.0
H307 H 0.87731 0.70238 0.02849 0.0
H308 H 0.83947 0.70856 0.05403 0.0
H309 H 0.82096 0.6758 0.02841 0.0
H310 H 0.71063 0.69038 0.9872 0.0
H311 H 0.64785 0.64537 0.00268 0.0
H312 H 0.78215 0.09179 0.02049 0.0
H313 H 0.74076 0.14796 0.01567 0.0
H314 H 0.86896 0.22072 0.01034 0.0
H315 H 0.91061 0.16418 0.01473 0.0
H316 H 0.74159 0.21224 0.04518 0.0
H317 H 0.80136 0.25201 0.9509 0.0
H318 H 0.81048 0.20655 0.96382 0.0
H319 H 0.8465 0.24994 0.97288 0.0
C320 C 0.80153 0.11974 0.01824 0.0
C321 C 0.84962 0.12361 0.01799 0.0
C322 C 0.77785 0.15182 0.01545 0.0
C323 C 0.80168 0.18853 0.01241 0.0
C324 C 0.84978 0.19256 0.0121 0.0
H325 H 0.68855 0.40864 0.99499 0.0
H326 H 0.74001 0.36114 0.00602 0.0
C327 C 0.87356 0.16029 0.01464 0.0
C328 C 0.77571 0.22243 0.01026 0.0
H329 H 0.75425 0.2936 0.97166 0.0
C330 C 0.74452 0.23009 0.02913 0.0
C331 C 0.77959 0.2458 0.98934 0.0
C332 C 0.81096 0.23806 0.96796 0.0
C333 C 0.71663 0.26003 0.02745 0.0
C334 C 0.71999 0.28285 0.00638 0.0
C335 C 0.75204 0.27606 0.98785 0.0
C336 C 0.68822 0.31203 0.0023 0.0
C337 C 0.6834 0.2669 0.04808 0.0
C338 C 0.64209 0.30006 0.99687 0.0
C339 C 0.61282 0.32697 0.99046 0.0
C340 C 0.62915 0.36638 0.98951 0.0
C341 C 0.67497 0.37851 0.99588 0.0
C342 C 0.70441 0.35145 0.00202 0.0
H343 H 0.69176 0.25265 0.06526 0.0
H344 H 0.6832 0.29833 0.0523 0.0
H345 H 0.64837 0.25498 0.04217 0.0
H346 H 0.62911 0.26969 0.99676 0.0
H347 H 0.57765 0.31689 0.98565 0.0
H348 H 0.53787 0.64035 0.51377 0.0
H349 H 0.59014 0.70007 0.51215 0.0
H350 H 0.70562 0.63412 0.51452 0.0
H351 H 0.6538 0.57437 0.51546 0.0
H352 H 0.65242 0.73067 0.54542 0.0
H353 H 0.74068 0.70157 0.45717 0.0
H354 H 0.68874 0.67306 0.46641 0.0
H355 H 0.74332 0.66339 0.47822 0.0
C356 C 0.57441 0.63858 0.51385 0.0
C357 C 0.59173 0.60264 0.51467 0.0
C358 C 0.60421 0.6727 0.51284 0.0
C359 C 0.65177 0.67148 0.51263 0.0
C360 C 0.66907 0.63568 0.51387 0.0
H361 H 0.89115 0.82239 0.54579 0.0
H362 H 0.83306 0.76903 0.53373 0.0
C363 C 0.63937 0.60157 0.51467 0.0
C364 C 0.68344 0.70771 0.51266 0.0
H365 H 0.77875 0.75142 0.48445 0.0
C366 C 0.67952 0.73554 0.53183 0.0
C367 C 0.71867 0.7141 0.49483 0.0
C368 C 0.72283 0.68661 0.47286 0.0
C369 C 0.71123 0.76864 0.53435 0.0
C370 C 0.7476 0.77403 0.51721 0.0
C371 C 0.75077 0.74699 0.49757 0.0
C372 C 0.7846 0.80603 0.5208 0.0
C373 C 0.70691 0.79687 0.55592 0.0
C374 C 0.77691 0.84427 0.51671 0.0
C375 C 0.8101 0.87478 0.52348 0.0
C376 C 0.85115 0.86734 0.53461 0.0
C377 C 0.85962 0.82886 0.53744 0.0
C378 C 0.82663 0.79843 0.53049 0.0
H379 H 0.6792 0.78654 0.56891 0.0
H380 H 0.73969 0.80201 0.56629 0.0
H381 H 0.6994 0.82499 0.5489 0.0
H382 H 0.74458 0.85052 0.50918 0.0
H383 H 0.80264 0.90419 0.52127 0.0
H384 H 0.68312 0.37891 0.46461 0.0
H385 H 0.72398 0.32257 0.46931 0.0
H386 H 0.68432 0.31873 0.54624 0.0
H387 H 0.64249 0.37527 0.54142 0.0
H388 H 0.79623 0.3173 0.49941 0.0
H389 H 0.65238 0.20666 0.52227 0.0
H390 H 0.64322 0.25265 0.51007 0.0
H391 H 0.65855 0.24966 0.54202 0.0
C392 C 0.68301 0.36609 0.48253 0.0
C393 C 0.65985 0.38166 0.50269 0.0
C394 C 0.70628 0.33379 0.48519 0.0
C395 C 0.70713 0.31626 0.50809 0.0
C396 C 0.68351 0.33134 0.52827 0.0
H397 H 0.91466 0.15279 0.51483 0.0
H398 H 0.8683 0.20366 0.52884 0.0
C399 C 0.65971 0.36364 0.52553 0.0
C400 C 0.73447 0.28324 0.51055 0.0
H401 H 0.72602 0.18627 0.51985 0.0
C402 C 0.78102 0.2887 0.50414 0.0
C403 C 0.71449 0.24597 0.51667 0.0
C404 C 0.66436 0.23809 0.52298 0.0
C405 C 0.80766 0.25773 0.50253 0.0
C406 C 0.78757 0.22025 0.50826 0.0
C407 C 0.74146 0.21504 0.51568 0.0
C408 C 0.81223 0.18567 0.50364 0.0
C409 C 0.85625 0.26515 0.49321 0.0
C410 C 0.79478 0.15707 0.48611 0.0
C411 C 0.8207 0.12756 0.47847 0.0
C412 C 0.86488 0.12612 0.48805 0.0
C413 C 0.88089 0.15309 0.50699 0.0
C414 C 0.85463 0.18248 0.51482 0.0
H415 H 0.86304 0.29369 0.48464 0.0
H416 H 0.88026 0.26483 0.50896 0.0
H417 H 0.86382 0.24241 0.4793 0.0
H418 H 0.76196 0.15862 0.47739 0.0
H419 H 0.8068 0.10667 0.46432 0.0
H420 H 0.47474 0.3654 0.5016 0.0
H421 H 0.41985 0.30685 0.49876 0.0
H422 H 0.30905 0.37576 0.51353 0.0
H423 H 0.36306 0.43404 0.51604 0.0
H424 H 0.36074 0.27771 0.5349 0.0
H425 H 0.26216 0.31055 0.45309 0.0
H426 H 0.31749 0.3361 0.46078 0.0
H427 H 0.26655 0.34975 0.47579 0.0
C428 C 0.43863 0.36804 0.50406 0.0
C429 C 0.42324 0.40438 0.50894 0.0
C430 C 0.40737 0.33462 0.50238 0.0
C431 C 0.36031 0.33711 0.50536 0.0
C432 C 0.34505 0.3733 0.51043 0.0
H433 H 0.11148 0.21391 0.54328 0.0
H434 H 0.17594 0.25855 0.52946 0.0
C435 C 0.3761 0.40659 0.51209 0.0
C436 C 0.32696 0.30194 0.50494 0.0
H437 H 0.22333 0.26484 0.48094 0.0
C438 C 0.33123 0.27431 0.52272 0.0
C439 C 0.28862 0.29754 0.48893 0.0
C440 C 0.28366 0.32489 0.4684 0.0
C441 C 0.29649 0.2439 0.52611 0.0
C442 C 0.25684 0.24099 0.51114 0.0
C443 C 0.25373 0.26733 0.49245 0.0
C444 C 0.21631 0.21354 0.51654 0.0
C445 C 0.3011 0.21649 0.54666 0.0
C446 C 0.21727 0.17353 0.51312 0.0
C447 C 0.18043 0.14794 0.521 0.0
C448 C 0.14232 0.16211 0.53249 0.0
C449 C 0.14066 0.20223 0.53475 0.0
C450 C 0.1773 0.22771 0.52677 0.0
H451 H 0.33152 0.22557 0.55849 0.0
H452 H 0.27005 0.21446 0.55853 0.0
H453 H 0.30442 0.18719 0.53853 0.0
H454 H 0.24702 0.16214 0.50505 0.0
H455 H 0.1827 0.11715 0.51915 0.0
H456 H 0.37634 0.62822 0.48293 0.0
H457 H 0.3352 0.68425 0.47567 0.0
H458 H 0.28899 0.68454 0.55151 0.0
H459 H 0.33024 0.62893 0.55895 0.0
H460 H 0.23515 0.68495 0.48485 0.0
H461 H 0.34436 0.79904 0.53903 0.0
H462 H 0.36531 0.75486 0.52757 0.0
H463 H 0.32806 0.75432 0.55398 0.0
C464 C 0.35795 0.64059 0.49812 0.0
C465 C 0.35641 0.6241 0.52148 0.0
C466 C 0.33433 0.67241 0.49393 0.0
C467 C 0.30941 0.68861 0.51312 0.0
C468 C 0.30842 0.67266 0.53655 0.0
H469 H 0.14476 0.88317 0.51893 0.0
H470 H 0.18552 0.82846 0.52983 0.0
C471 C 0.33166 0.64069 0.54068 0.0
C472 C 0.28251 0.72097 0.50838 0.0
H473 H 0.27611 0.8167 0.52212 0.0
C474 C 0.2441 0.7138 0.49292 0.0
C475 C 0.29399 0.75832 0.51928 0.0
C476 C 0.33532 0.76742 0.53579 0.0
C477 C 0.21669 0.74308 0.48805 0.0
C478 C 0.22881 0.7808 0.49841 0.0
C479 C 0.26689 0.7878 0.5142 0.0
C480 C 0.20373 0.8137 0.49205 0.0
C481 C 0.17462 0.73314 0.47216 0.0
C482 C 0.20094 0.82379 0.4673 0.0
C483 C 0.1774 0.85457 0.46103 0.0
C484 C 0.1567 0.87655 0.47942 0.0
C485 C 0.15993 0.86667 0.5043 0.0
C486 C 0.18343 0.83559 0.51057 0.0
H487 H 0.16225 0.70183 0.47242 0.0
H488 H 0.1464 0.74988 0.4784 0.0
H489 H 0.18316 0.74012 0.4527 0.0
H490 H 0.2171 0.80784 0.45276 0.0
H491 H 0.17503 0.86083 0.44163 0.0
H492 H 0.95812 0.021 0.09201 0.0
H493 H 0.96494 0.01795 0.13687 0.0
H494 H 0.09544 0.97373 0.128 0.0
H495 H 0.08892 0.97649 0.0828 0.0
H496 H 0.98136 0.94753 0.16496 0.0
H497 H 0.11499 0.07359 0.17695 0.0
H498 H 0.07812 0.067 0.15011 0.0
H499 H 0.12342 0.03716 0.15329 0.0
C500 C 0.98834 0.01058 0.09952 0.0
C501 C 0.02311 0.99913 0.08382 0.0
C502 C 0.99208 0.00881 0.12516 0.0
C503 C 0.03079 0.99591 0.13566 0.0
C504 C 0.06546 0.98407 0.12016 0.0
H505 H 0.10365 0.99755 0.29223 0.0
H506 H 0.1048 0.99184 0.247 0.0
C507 C 0.06161 0.98555 0.09439 0.0
C508 C 0.03447 0.9951 0.16292 0.0
H509 H 0.08737 0.0432 0.21299 0.0
C510 C 0.00471 0.96823 0.17551 0.0
C511 C 0.06512 0.02207 0.1765 0.0
C512 C 0.09721 0.05182 0.16368 0.0
C513 C 0.00455 0.96777 0.20148 0.0
C514 C 0.03408 0.99568 0.21517 0.0
C515 C 0.06462 0.02196 0.20249 0.0
C516 C 0.03309 0.99867 0.24264 0.0
C517 C 0.97306 0.93716 0.21394 0.0
C518 C 0.99256 0.00501 0.25523 0.0
C519 C 0.99161 0.00778 0.2811 0.0
C520 C 0.03138 0.00478 0.29495 0.0
C521 C 0.07219 0.99927 0.28222 0.0
C522 C 0.07301 0.99627 0.25634 0.0
H523 H 0.96394 0.91152 0.20131 0.0
H524 H 0.9889 0.92756 0.23091 0.0
H525 H 0.94088 0.94917 0.21928 0.0
H526 H 0.96159 0.00791 0.24504 0.0
H527 H 0.95951 0.01171 0.29023 0.0
H528 H 0.93651 0.0543 0.93969 0.0
H529 H 0.92934 0.05981 0.89482 0.0
H530 H 0.04246 0.99252 0.88292 0.0
H531 H 0.04983 0.98666 0.92758 0.0
H532 H 0.99764 0.09102 0.86056 0.0
H533 H 0.93825 0.93639 0.8391 0.0
H534 H 0.93669 0.95795 0.87 0.0
H535 H 0.98958 0.94461 0.85735 0.0
C536 C 0.95977 0.04056 0.92752 0.0
C537 C 0.99357 0.01984 0.9372 0.0
C538 C 0.95566 0.04382 0.90192 0.0
C539 C 0.98499 0.02614 0.88561 0.0
C540 C 0.01902 0.00582 0.89521 0.0
H541 H 0.05015 0.06044 0.7316 0.0
H542 H 0.04918 0.06043 0.77687 0.0
C543 C 0.02326 0.00264 0.92075 0.0
C544 C 0.98053 0.02926 0.85852 0.0
H545 H 0.95963 0.97529 0.80485 0.0
C546 C 0.98905 0.06581 0.84835 0.0
C547 C 0.96882 0.99632 0.84274 0.0
C548 C 0.95738 0.95661 0.8528 0.0
C549 C 0.9874 0.07015 0.82265 0.0
C550 C 0.97739 0.037 0.80681 0.0
C551 C 0.96765 0.00061 0.81705 0.0
C552 C 0.97734 0.03925 0.7795 0.0
C553 C 0.99612 0.11012 0.81266 0.0
C554 C 0.93737 0.02701 0.76599 0.0
C555 C 0.93777 0.02704 0.74014 0.0
C556 C 0.9783 0.03904 0.72727 0.0
C557 C 0.01821 0.05163 0.74092 0.0
C558 C 0.01773 0.05164 0.76679 0.0
H559 H 0.99164 0.13288 0.82718 0.0
H560 H 0.03185 0.11482 0.80577 0.0
H561 H 0.97281 0.11349 0.79698 0.0
H562 H 0.90588 0.01727 0.77548 0.0
H563 H 0.90632 0.01764 0.73022 0.0
H564 H 0.58453 0.46566 0.58588 0.0
H565 H 0.5892 0.46183 0.6311 0.0
H566 H 0.46551 0.51685 0.63927 0.0
H567 H 0.46043 0.52077 0.59445 0.0
H568 H 0.59182 0.5261 0.66778 0.0
H569 H 0.44122 0.41709 0.67918 0.0
H570 H 0.46999 0.42441 0.64983 0.0
H571 H 0.43053 0.45704 0.66086 0.0
C572 C 0.55826 0.47679 0.59732 0.0
C573 C 0.52205 0.49342 0.58655 0.0
C574 C 0.56101 0.47462 0.62311 0.0
C575 C 0.52734 0.48859 0.63843 0.0
C576 C 0.4914 0.50533 0.62773 0.0
H577 H 0.4599 0.5193 0.79197 0.0
H578 H 0.46448 0.51609 0.74676 0.0
C579 C 0.48873 0.5077 0.60208 0.0
C580 C 0.52991 0.48682 0.66571 0.0
H581 H 0.47027 0.45145 0.7158 0.0
C582 C 0.56566 0.50942 0.67833 0.0
C583 C 0.49557 0.46511 0.67934 0.0
C584 C 0.45734 0.43924 0.66665 0.0
C585 C 0.56693 0.51215 0.70435 0.0
C586 C 0.53196 0.49109 0.71799 0.0
C587 C 0.4969 0.46771 0.7053 0.0
C588 C 0.53022 0.49375 0.74544 0.0
C589 C 0.6046 0.53875 0.71696 0.0
C590 C 0.56557 0.48206 0.7597 0.0
C591 C 0.56328 0.48422 0.78557 0.0
C592 C 0.52538 0.49783 0.79769 0.0
C593 C 0.48991 0.50928 0.78328 0.0
C594 C 0.49229 0.50718 0.75743 0.0
H595 H 0.62195 0.5597 0.70403 0.0
H596 H 0.59101 0.55509 0.73289 0.0
H597 H 0.63065 0.52131 0.7241 0.0
H598 H 0.59478 0.47095 0.75083 0.0
H599 H 0.59137 0.47546 0.79607 0.0
H600 H 0.54884 0.47887 0.43069 0.0
H601 H 0.54305 0.48477 0.38597 0.0
H602 H 0.43175 0.55441 0.39675 0.0
H603 H 0.43743 0.54892 0.4417 0.0
H604 H 0.46598 0.46219 0.35528 0.0
H605 H 0.52366 0.61955 0.35236 0.0
H606 H 0.53283 0.59157 0.37895 0.0
H607 H 0.4773 0.60614 0.37325 0.0
C608 C 0.52313 0.49552 0.42361 0.0
C609 C 0.49364 0.51351 0.43977 0.0
C610 C 0.51988 0.49882 0.39804 0.0
C611 C 0.48733 0.52035 0.38811 0.0
C612 C 0.45757 0.53815 0.40411 0.0
H613 H 0.41176 0.5113 0.23164 0.0
H614 H 0.40991 0.50998 0.2769 0.0
C615 C 0.46072 0.53481 0.42976 0.0
C616 C 0.48434 0.52345 0.36093 0.0
H617 H 0.50042 0.58721 0.31445 0.0
C618 C 0.47329 0.48952 0.34633 0.0
C619 C 0.4944 0.55913 0.34938 0.0
C620 C 0.50809 0.59621 0.3642 0.0
C621 C 0.47211 0.49026 0.32039 0.0
C622 C 0.48171 0.52598 0.30884 0.0
C623 C 0.49273 0.55994 0.32343 0.0
C624 C 0.48222 0.52836 0.28154 0.0
C625 C 0.46182 0.45271 0.30554 0.0
C626 C 0.52326 0.54006 0.26925 0.0
C627 C 0.52449 0.54074 0.24341 0.0
C628 C 0.48458 0.52992 0.22939 0.0
C629 C 0.44326 0.51912 0.24186 0.0
C630 C 0.44209 0.51842 0.2677 0.0
H631 H 0.4649 0.42723 0.3169 0.0
H632 H 0.42627 0.45051 0.29839 0.0
H633 H 0.48528 0.45157 0.28942 0.0
H634 H 0.55459 0.54784 0.27964 0.0
H635 H 0.55696 0.54879 0.23441 0.0
loop_
_geom_bond_atom_site_label_1
_geom_bond_atom_site_label_2
_geom_bond_distance
_geom_bond_site_symmetry_2
_ccdc_geom_bond_type
Co0 N5 2.057 . S
Co0 O17 2.021 . S
Co0 O20 2.062 1_455 S
Co0 O24 2.117 1_554 S
Co0 O25 2.020 1_565 S
C1 O21 1.259 1_455 S
C1 O24 1.258 1_545 S
Co2 N11 2.057 . S
Co2 O18 2.117 . S
Co2 O19 2.020 1_545 S
Co2 O21 2.021 1_554 S
Co2 O26 2.062 1_655 S
C3 N5 1.316 . S
C3 N6 1.347 . S
C3 H8 0.931 . S
C4 N5 1.375 1_556 S
C4 C7 1.350 . S
C4 H9 0.930 . S
N5 Co0 2.057 . S
N5 C3 1.316 . S
N5 C4 1.375 1_554 S
N6 C3 1.347 . S
N6 C7 1.373 1_554 S
C7 C4 1.350 . S
C7 N6 1.373 1_556 S
C7 H28 0.931 . S
H8 C3 0.931 . S
H9 C4 0.930 . S
C10 O17 1.259 1_545 S
C10 O18 1.258 1_455 S
N11 Co2 2.057 . S
N11 C12 1.316 . S
N11 C13 1.375 . S
C12 N11 1.316 . S
C12 N14 1.347 . S
C12 H23 0.931 1_554 S
C13 N11 1.375 . S
C13 C15 1.350 . S
C13 H22 0.930 . S
N14 C12 1.347 . S
N14 C15 1.373 . S
C15 C13 1.350 . S
C15 N14 1.373 . S
C15 H29 0.931 . S
C16 O19 1.256 . S
C16 O20 1.255 . S
O17 Co0 2.021 . S
O17 C10 1.259 1_565 S
O18 Co2 2.117 . S
O18 C10 1.258 1_655 S
O19 Co2 2.020 1_565 S
O19 C16 1.256 . S
O20 Co0 2.062 1_655 S
O20 C16 1.255 . S
O21 C1 1.259 1_655 S
O21 Co2 2.021 1_556 S
H22 C13 0.930 . S
H23 C12 0.931 1_556 S
O24 Co0 2.117 1_556 S
O24 C1 1.258 1_565 S
O25 Co0 2.020 1_545 S
O25 C27 1.256 . S
O26 Co2 2.062 1_455 S
O26 C27 1.255 . S
C27 O25 1.256 . S
C27 O26 1.255 . S
H28 C7 0.931 . S
H29 C15 0.931 . S
Co30 N35 2.057 . S
Co30 O47 2.021 . S
Co30 O50 2.062 . S
Co30 O54 2.117 . S
Co30 O55 2.020 . S
C31 O51 1.259 . S
C31 O54 1.258 . S
Co32 N41 2.057 . S
Co32 O48 2.117 . S
Co32 O49 2.020 . S
Co32 O51 2.021 . S
Co32 O56 2.062 . S
C33 N35 1.316 . S
C33 N36 1.347 . S
C33 H38 0.931 . S
C34 N35 1.375 . S
C34 C37 1.350 . S
C34 H39 0.930 . S
N35 Co30 2.057 . S
N35 C33 1.316 . S
N35 C34 1.375 . S
N36 C33 1.347 . S
N36 C37 1.373 . S
C37 C34 1.350 . S
C37 N36 1.373 . S
C37 H58 0.931 . S
H38 C33 0.931 . S
H39 C34 0.930 . S
C40 O47 1.259 . S
C40 O48 1.258 . S
N41 Co32 2.057 . S
N41 C42 1.316 . S
N41 C43 1.375 . S
C42 N41 1.316 . S
C42 N44 1.347 . S
C42 H53 0.931 . S
C43 N41 1.375 . S
C43 C45 1.350 . S
C43 H52 0.930 . S
N44 C42 1.347 . S
N44 C45 1.373 . S
C45 C43 1.350 . S
C45 N44 1.373 . S
C45 H59 0.931 . S
C46 O49 1.256 . S
C46 O50 1.255 . S
O47 Co30 2.021 . S
O47 C40 1.259 . S
O48 Co32 2.117 . S
O48 C40 1.258 . S
O49 Co32 2.020 . S
O49 C46 1.256 . S
O50 Co30 2.062 . S
O50 C46 1.255 . S
O51 C31 1.259 . S
O51 Co32 2.021 . S
H52 C43 0.930 . S
H53 C42 0.931 . S
O54 Co30 2.117 . S
O54 C31 1.258 . S
O55 Co30 2.020 . S
O55 C57 1.256 . S
O56 Co32 2.062 . S
O56 C57 1.255 . S
C57 O55 1.256 . S
C57 O56 1.255 . S
H58 C37 0.931 . S
H59 C45 0.931 . S
C60 C61 1.384 . S
C60 H73 0.947 . S
C60 C95 1.382 . S
C61 C60 1.384 . S
C61 C62 1.378 . S
C62 C61 1.378 . S
C62 C63 1.378 . S
C62 H74 0.952 . S
C63 C62 1.378 . S
C63 H75 0.950 . S
C63 C94 1.383 . S
H64 C83 0.947 . S
H65 C84 0.946 . S
H66 C86 0.953 . S
H67 C87 0.945 . S
H68 C89 0.952 . S
H69 C90 0.949 . S
H70 C92 0.950 . S
H71 C93 0.948 . S
H72 C95 0.951 . S
H73 C60 0.947 . S
H74 C62 0.952 . S
H75 C63 0.950 . S
N76 C79 1.382 1_545 S
N76 C81 1.363 1_455 S
N77 C79 1.371 . S
N77 C80 1.372 1_565 S
N78 C80 1.361 1_655 S
N78 C81 1.377 . S
C79 N76 1.382 1_565 S
C79 N77 1.371 . S
C79 C82 1.480 . S
C80 N77 1.372 1_545 S
C80 N78 1.361 1_455 S
C80 C88 1.457 . S
C81 N76 1.363 1_655 S
C81 N78 1.377 . S
C81 C94 1.479 . S
C82 C79 1.480 . S
C82 C83 1.383 . S
C82 C87 1.385 . S
C83 H64 0.947 . S
C83 C82 1.383 . S
C83 C84 1.388 . S
C84 H65 0.946 . S
C84 C83 1.388 . S
C84 C85 1.384 . S
C85 C84 1.384 . S
C85 C86 1.377 . S
C86 H66 0.953 . S
C86 C85 1.377 . S
C86 C87 1.369 . S
C87 H67 0.945 . S
C87 C82 1.385 . S
C87 C86 1.369 . S
C88 C80 1.457 . S
C88 C89 1.372 1_545 S
C88 C93 1.364 1_455 S
C89 H68 0.952 . S
C89 C88 1.372 1_565 S
C89 C90 1.389 . S
C90 H69 0.949 . S
C90 C89 1.389 . S
C90 C91 1.387 1_565 S
C91 C90 1.387 1_545 S
C91 C92 1.372 1_455 S
C92 H70 0.950 . S
C92 C91 1.372 1_655 S
C92 C93 1.379 . S
C93 H71 0.948 . S
C93 C88 1.364 1_655 S
C93 C92 1.379 . S
C94 C63 1.383 . S
C94 C81 1.479 . S
C94 C95 1.398 . S
C95 C60 1.382 . S
C95 H72 0.951 . S
C95 C94 1.398 . S
C96 C97 1.384 . S
C96 H109 0.947 . S
C96 C131 1.382 . S
C97 C96 1.384 . S
C97 C98 1.378 . S
C98 C97 1.378 . S
C98 C99 1.378 . S
C98 H110 0.952 . S
C99 C98 1.378 . S
C99 H111 0.950 . S
C99 C130 1.383 . S
H100 C119 0.947 . S
H101 C120 0.946 . S
H102 C122 0.953 . S
H103 C123 0.945 . S
H104 C125 0.952 . S
H105 C126 0.949 . S
H106 C128 0.950 . S
H107 C129 0.948 . S
H108 C131 0.951 . S
H109 C96 0.947 . S
H110 C98 0.952 . S
H111 C99 0.950 . S
N112 C115 1.382 . S
N112 C117 1.363 1_445 S
N113 C115 1.371 . S
N113 C116 1.372 . S
N114 C116 1.361 1_665 S
N114 C117 1.377 . S
C115 N112 1.382 . S
C115 N113 1.371 . S
C115 C118 1.480 . S
C116 N113 1.372 . S
C116 N114 1.361 1_445 S
C116 C124 1.457 . S
C117 N112 1.363 1_665 S
C117 N114 1.377 . S
C117 C130 1.479 . S
C118 C115 1.480 . S
C118 C119 1.383 . S
C118 C123 1.385 . S
C119 H100 0.947 . S
C119 C118 1.383 . S
C119 C120 1.388 . S
C120 H101 0.946 . S
C120 C119 1.388 . S
C120 C121 1.384 . S
C121 C120 1.384 . S
C121 C122 1.377 . S
C122 H102 0.953 . S
C122 C121 1.377 . S
C122 C123 1.369 . S
C123 H103 0.945 . S
C123 C118 1.385 . S
C123 C122 1.369 . S
C124 C116 1.457 . S
C124 C125 1.372 . S
C124 C129 1.364 1_445 S
C125 H104 0.952 . S
C125 C124 1.372 . S
C125 C126 1.389 . S
C126 H105 0.949 . S
C126 C125 1.389 . S
C126 C127 1.387 . S
C127 C126 1.387 . S
C127 C128 1.372 1_445 S
C128 H106 0.950 . S
C128 C127 1.372 1_665 S
C128 C129 1.379 . S
C129 H107 0.948 . S
C129 C124 1.364 1_665 S
C129 C128 1.379 . S
C130 C99 1.383 . S
C130 C117 1.479 . S
C130 C131 1.398 . S
C131 C96 1.382 . S
C131 H108 0.951 . S
C131 C130 1.398 . S
C132 C133 1.384 . S
C132 H145 0.947 . S
C132 C167 1.382 . S
C133 C132 1.384 . S
C133 C134 1.378 . S
C134 C133 1.378 . S
C134 C135 1.378 . S
C134 H146 0.952 1_556 S
C135 C134 1.378 . S
C135 H147 0.950 . S
C135 C166 1.383 . S
H136 C155 0.947 . S
H137 C156 0.946 1_554 S
H138 C158 0.953 . S
H139 C159 0.945 . S
H140 C161 0.952 . S
H141 C162 0.949 . S
H142 C164 0.950 . S
H143 C165 0.948 . S
H144 C167 0.951 . S
H145 C132 0.947 . S
H146 C134 0.952 1_554 S
H147 C135 0.950 . S
N148 C151 1.382 . S
N148 C153 1.363 . S
N149 C151 1.371 . S
N149 C152 1.372 . S
N150 C152 1.361 . S
N150 C153 1.377 . S
C151 N148 1.382 . S
C151 N149 1.371 . S
C151 C154 1.480 . S
C152 N149 1.372 . S
C152 N150 1.361 . S
C152 C160 1.457 . S
C153 N148 1.363 . S
C153 N150 1.377 . S
C153 C166 1.479 . S
C154 C151 1.480 . S
C154 C155 1.383 . S
C154 C159 1.385 . S
C155 H136 0.947 . S
C155 C154 1.383 . S
C155 C156 1.388 . S
C156 H137 0.946 1_556 S
C156 C155 1.388 . S
C156 C157 1.384 . S
C157 C156 1.384 . S
C157 C158 1.377 . S
C158 H138 0.953 . S
C158 C157 1.377 . S
C158 C159 1.369 . S
C159 H139 0.945 . S
C159 C154 1.385 . S
C159 C158 1.369 . S
C160 C152 1.457 . S
C160 C161 1.372 . S
C160 C165 1.364 . S
C161 H140 0.952 . S
C161 C160 1.372 . S
C161 C162 1.389 . S
C162 H141 0.949 . S
C162 C161 1.389 . S
C162 C163 1.387 . S
C163 C162 1.387 . S
C163 C164 1.372 . S
C164 H142 0.950 . S
C164 C163 1.372 . S
C164 C165 1.379 . S
C165 H143 0.948 . S
C165 C160 1.364 . S
C165 C164 1.379 . S
C166 C135 1.383 . S
C166 C153 1.479 . S
C166 C167 1.398 . S
C167 C132 1.382 . S
C167 H144 0.951 . S
C167 C166 1.398 . S
C168 C169 1.384 . S
C168 H181 0.947 . S
C168 C203 1.382 . S
C169 C168 1.384 . S
C169 C170 1.378 . S
C170 C169 1.378 . S
C170 C171 1.378 . S
C170 H182 0.952 . S
C171 C170 1.378 . S
C171 H183 0.950 . S
C171 C202 1.383 . S
H172 C191 0.947 . S
H173 C192 0.946 . S
H174 C194 0.953 . S
H175 C195 0.945 . S
H176 C197 0.952 . S
H177 C198 0.949 . S
H178 C200 0.950 . S
H179 C201 0.948 . S
H180 C203 0.951 . S
H181 C168 0.947 . S
H182 C170 0.952 . S
H183 C171 0.950 . S
N184 C187 1.382 . S
N184 C189 1.363 . S
N185 C187 1.371 . S
N185 C188 1.372 . S
N186 C188 1.361 . S
N186 C189 1.377 . S
C187 N184 1.382 . S
C187 N185 1.371 . S
C187 C190 1.480 . S
C188 N185 1.372 . S
C188 N186 1.361 . S
C188 C196 1.457 . S
C189 N184 1.363 . S
C189 N186 1.377 . S
C189 C202 1.479 . S
C190 C187 1.480 . S
C190 C191 1.383 . S
C190 C195 1.385 . S
C191 H172 0.947 . S
C191 C190 1.383 . S
C191 C192 1.388 . S
C192 H173 0.946 . S
C192 C191 1.388 . S
C192 C193 1.384 . S
C193 C192 1.384 . S
C193 C194 1.377 . S
C194 H174 0.953 . S
C194 C193 1.377 . S
C194 C195 1.369 . S
C195 H175 0.945 . S
C195 C190 1.385 . S
C195 C194 1.369 . S
C196 C188 1.457 . S
C196 C197 1.372 . S
C196 C201 1.364 . S
C197 H176 0.952 . S
C197 C196 1.372 . S
C197 C198 1.389 . S
C198 H177 0.949 . S
C198 C197 1.389 . S
C198 C199 1.387 . S
C199 C198 1.387 . S
C199 C200 1.372 . S
C200 H178 0.950 . S
C200 C199 1.372 . S
C200 C201 1.379 . S
C201 H179 0.948 . S
C201 C196 1.364 . S
C201 C200 1.379 . S
C202 C171 1.383 . S
C202 C189 1.479 . S
C202 C203 1.398 . S
C203 C168 1.382 . S
C203 H180 0.951 . S
C203 C202 1.398 . S
H204 C212 0.929 . S
H205 C214 0.930 . S
H206 C216 0.930 1_556 S
H207 C219 0.929 1_556 S
H208 C222 0.930 . S
H209 C224 0.960 . S
H210 C224 0.960 . S
H211 C224 0.960 . S
C212 H204 0.929 . S
C212 C213 1.377 . S
C212 C214 1.384 . S
C213 C212 1.377 . S
C213 C219 1.390 . S
C214 H205 0.930 . S
C214 C212 1.384 . S
C214 C215 1.372 . S
C215 C214 1.372 . S
C215 C216 1.400 . S
C215 C220 1.490 . S
C216 H206 0.930 1_554 S
C216 C215 1.400 . S
C216 C219 1.386 . S
H217 C233 0.930 . S
H218 C234 0.931 . S
C219 H207 0.929 1_554 S
C219 C213 1.390 . S
C219 C216 1.386 . S
C220 C215 1.490 . S
C220 C222 1.395 . S
C220 C223 1.403 . S
H221 C227 0.930 . S
C222 H208 0.930 . S
C222 C220 1.395 . S
C222 C225 1.403 . S
C223 C220 1.403 . S
C223 C224 1.524 . S
C223 C227 1.400 . S
C224 H209 0.960 . S
C224 H210 0.960 . S
C224 H211 0.960 . S
C224 C223 1.524 . S
C225 C222 1.403 . S
C225 C226 1.392 . S
C225 C229 1.495 . S
C226 C225 1.392 . S
C226 C227 1.385 . S
C226 C228 1.478 . S
C227 H221 0.930 . S
C227 C223 1.400 . S
C227 C226 1.385 . S
C228 C226 1.478 . S
C228 C230 1.381 . S
C228 C234 1.383 . S
C229 C225 1.495 . S
C229 H235 0.948 1_554 S
C229 H236 0.961 1_554 S
C229 H237 0.960 . S
C230 C228 1.381 . S
C230 C231 1.394 . S
C230 H238 0.930 . S
C231 C230 1.394 . S
C231 C232 1.383 . S
C231 H239 0.929 . S
C232 C231 1.383 . S
C232 C233 1.377 . S
C233 H217 0.930 . S
C233 C232 1.377 . S
C233 C234 1.379 . S
C234 H218 0.931 . S
C234 C228 1.383 . S
C234 C233 1.379 . S
H235 C229 0.948 1_556 S
H236 C229 0.961 1_556 S
H237 C229 0.960 . S
H238 C230 0.930 . S
H239 C231 0.929 . S
H240 C248 0.929 . S
H241 C250 0.930 . S
H242 C252 0.930 . S
H243 C255 0.929 . S
H244 C258 0.931 . S
H245 C260 0.960 . S
H246 C260 0.960 . S
H247 C260 0.960 1_554 S
C248 H240 0.929 . S
C248 C249 1.377 1_556 S
C248 C250 1.384 . S
C249 C248 1.377 1_554 S
C249 C255 1.390 . S
C250 H241 0.930 . S
C250 C248 1.384 . S
C250 C251 1.372 1_556 S
C251 C250 1.372 1_554 S
C251 C252 1.400 . S
C251 C256 1.490 1_554 S
C252 H242 0.930 . S
C252 C251 1.400 . S
C252 C255 1.386 . S
H253 C269 0.930 . S
H254 C270 0.931 . S
C255 H243 0.929 . S
C255 C249 1.390 . S
C255 C252 1.386 . S
C256 C251 1.490 1_556 S
C256 C258 1.395 . S
C256 C259 1.403 . S
H257 C263 0.930 . S
C258 H244 0.931 . S
C258 C256 1.395 . S
C258 C261 1.403 . S
C259 C256 1.403 . S
C259 C260 1.524 . S
C259 C263 1.400 . S
C260 H245 0.960 . S
C260 H246 0.960 . S
C260 H247 0.960 1_556 S
C260 C259 1.524 . S
C261 C258 1.403 . S
C261 C262 1.392 . S
C261 C265 1.495 . S
C262 C261 1.392 . S
C262 C263 1.385 . S
C262 C264 1.478 . S
C263 H257 0.930 . S
C263 C259 1.400 . S
C263 C262 1.385 . S
C264 C262 1.478 . S
C264 C266 1.381 . S
C264 C270 1.383 1_556 S
C265 C261 1.495 . S
C265 H271 0.959 . S
C265 H272 0.961 1_556 S
C265 H273 0.960 . S
C266 C264 1.381 . S
C266 C267 1.394 . S
C266 H274 0.930 . S
C267 C266 1.394 . S
C267 C268 1.383 . S
C267 H275 0.929 . S
C268 C267 1.383 . S
C268 C269 1.377 1_556 S
C269 H253 0.930 . S
C269 C268 1.377 1_554 S
C269 C270 1.379 . S
C270 H254 0.931 . S
C270 C264 1.383 1_554 S
C270 C269 1.379 . S
H271 C265 0.959 . S
H272 C265 0.961 1_554 S
H273 C265 0.960 . S
H274 C266 0.930 . S
H275 C267 0.929 . S
H276 C284 0.929 . S
H277 C286 0.930 . S
H278 C288 0.930 . S
H279 C291 0.929 . S
H280 C294 0.930 . S
H281 C296 0.960 . S
H282 C296 0.960 . S
H283 C296 0.960 . S
C284 H276 0.929 . S
C284 C285 1.377 1_556 S
C284 C286 1.384 . S
C285 C284 1.377 1_554 S
C285 C291 1.390 . S
C286 H277 0.930 . S
C286 C284 1.384 . S
C286 C287 1.372 1_556 S
C287 C286 1.372 1_554 S
C287 C288 1.400 . S
C287 C292 1.490 . S
C288 H278 0.930 . S
C288 C287 1.400 . S
C288 C291 1.386 . S
H289 C305 0.930 . S
H290 C306 0.931 . S
C291 H279 0.929 . S
C291 C285 1.390 . S
C291 C288 1.386 . S
C292 C287 1.490 . S
C292 C294 1.395 . S
C292 C295 1.403 . S
H293 C299 0.930 . S
C294 H280 0.930 . S
C294 C292 1.395 . S
C294 C297 1.403 . S
C295 C292 1.403 . S
C295 C296 1.524 . S
C295 C299 1.400 . S
C296 H281 0.960 . S
C296 H282 0.960 . S
C296 H283 0.960 . S
C296 C295 1.524 . S
C297 C294 1.403 . S
C297 C298 1.392 . S
C297 C301 1.515 . S
C298 C297 1.392 . S
C298 C299 1.385 . S
C298 C300 1.478 . S
C299 H293 0.930 . S
C299 C295 1.400 . S
C299 C298 1.385 . S
C300 C298 1.478 . S
C300 C302 1.381 . S
C300 C306 1.383 . S
C301 C297 1.515 . S
C301 H307 0.937 1_554 S
C301 H308 0.997 . S
C301 H309 0.929 1_554 S
C302 C300 1.381 . S
C302 C303 1.394 . S
C302 H310 0.930 1_554 S
C303 C302 1.394 . S
C303 C304 1.383 . S
C303 H311 0.942 . S
C304 C303 1.383 . S
C304 C305 1.377 . S
C305 H289 0.930 . S
C305 C304 1.377 . S
C305 C306 1.379 . S
C306 H290 0.931 . S
C306 C300 1.383 . S
C306 C305 1.379 . S
H307 C301 0.937 1_556 S
H308 C301 0.997 . S
H309 C301 0.929 1_556 S
H310 C302 0.930 1_556 S
H311 C303 0.942 . S
H312 C320 0.929 . S
H313 C322 0.930 . S
H314 C324 0.930 . S
H315 C327 0.929 . S
H316 C330 0.930 . S
H317 C332 0.960 . S
H318 C332 0.960 . S
H319 C332 0.960 . S
C320 H312 0.929 . S
C320 C321 1.377 1_556 S
C320 C322 1.384 . S
C321 C320 1.377 1_554 S
C321 C327 1.390 . S
C322 H313 0.930 . S
C322 C320 1.384 . S
C322 C323 1.372 1_556 S
C323 C322 1.372 1_554 S
C323 C324 1.400 . S
C323 C328 1.485 1_554 S
C324 H314 0.930 . S
C324 C323 1.400 . S
C324 C327 1.386 . S
H325 C341 0.930 1_554 S
H326 C342 0.931 . S
C327 H315 0.929 . S
C327 C321 1.390 . S
C327 C324 1.386 . S
C328 C323 1.485 1_556 S
C328 C330 1.379 1_556 S
C328 C331 1.423 . S
H329 C335 0.930 . S
C330 H316 0.930 . S
C330 C328 1.379 1_554 S
C330 C333 1.403 . S
C331 C328 1.423 . S
C331 C332 1.524 . S
C331 C335 1.400 . S
C332 H317 0.960 . S
C332 H318 0.960 . S
C332 H319 0.960 . S
C332 C331 1.524 . S
C333 C330 1.403 . S
C333 C334 1.392 1_554 S
C333 C337 1.495 . S
C334 C333 1.392 1_556 S
C334 C335 1.385 . S
C334 C336 1.478 . S
C335 H329 0.930 . S
C335 C331 1.400 . S
C335 C334 1.385 . S
C336 C334 1.478 . S
C336 C338 1.381 . S
C336 C342 1.383 1_556 S
C337 C333 1.495 . S
C337 H343 0.959 . S
C337 H344 0.961 . S
C337 H345 0.960 . S
C338 C336 1.381 . S
C338 C339 1.394 . S
C338 H346 0.930 . S
C339 C338 1.394 . S
C339 C340 1.383 . S
C339 H347 0.929 . S
C340 C339 1.383 . S
C340 C341 1.377 . S
C341 H325 0.930 1_556 S
C341 C340 1.377 . S
C341 C342 1.379 1_556 S
C342 H326 0.931 . S
C342 C336 1.383 1_554 S
C342 C341 1.379 1_554 S
H343 C337 0.959 . S
H344 C337 0.961 . S
H345 C337 0.960 . S
H346 C338 0.930 . S
H347 C339 0.929 . S
H348 C356 0.929 . S
H349 C358 0.930 . S
H350 C360 0.930 . S
H351 C363 0.929 . S
H352 C366 0.930 . S
H353 C368 0.960 . S
H354 C368 0.960 . S
H355 C368 0.960 . S
C356 H348 0.929 . S
C356 C357 1.377 . S
C356 C358 1.384 . S
C357 C356 1.377 . S
C357 C363 1.390 . S
C358 H349 0.930 . S
C358 C356 1.384 . S
C358 C359 1.372 . S
C359 C358 1.372 . S
C359 C360 1.400 . S
C359 C364 1.490 . S
C360 H350 0.930 . S
C360 C359 1.400 . S
C360 C363 1.386 . S
H361 C377 0.930 . S
H362 C378 0.931 . S
C363 H351 0.929 . S
C363 C357 1.390 . S
C363 C360 1.386 . S
C364 C359 1.490 . S
C364 C366 1.395 . S
C364 C367 1.403 . S
H365 C371 0.930 . S
C366 H352 0.930 . S
C366 C364 1.395 . S
C366 C369 1.403 . S
C367 C364 1.403 . S
C367 C368 1.524 . S
C367 C371 1.400 . S
C368 H353 0.960 . S
C368 H354 0.960 . S
C368 H355 0.960 . S
C368 C367 1.524 . S
C369 C366 1.403 . S
C369 C370 1.392 . S
C369 C373 1.495 . S
C370 C369 1.392 . S
C370 C371 1.385 . S
C370 C372 1.478 . S
C371 H365 0.930 . S
C371 C367 1.400 . S
C371 C370 1.385 . S
C372 C370 1.478 . S
C372 C374 1.381 . S
C372 C378 1.383 . S
C373 C369 1.495 . S
C373 H379 0.959 . S
C373 H380 0.961 . S
C373 H381 0.960 . S
C374 C372 1.381 . S
C374 C375 1.394 . S
C374 H382 0.930 . S
C375 C374 1.394 . S
C375 C376 1.383 . S
C375 H383 0.929 . S
C376 C375 1.383 . S
C376 C377 1.377 . S
C377 H361 0.930 . S
C377 C376 1.377 . S
C377 C378 1.379 . S
C378 H362 0.931 . S
C378 C372 1.383 . S
C378 C377 1.379 . S
H379 C373 0.959 . S
H380 C373 0.961 . S
H381 C373 0.960 . S
H382 C374 0.930 . S
H383 C375 0.929 . S
H384 C392 0.929 . S
H385 C394 0.930 . S
H386 C396 0.930 . S
H387 C399 0.929 . S
H388 C402 0.930 . S
H389 C404 0.960 . S
H390 C404 0.960 . S
H391 C404 0.960 . S
C392 H384 0.929 . S
C392 C393 1.377 . S
C392 C394 1.384 . S
C393 C392 1.377 . S
C393 C399 1.390 . S
C394 H385 0.930 . S
C394 C392 1.384 . S
C394 C395 1.372 . S
C395 C394 1.372 . S
C395 C396 1.400 . S
C395 C400 1.490 . S
C396 H386 0.930 . S
C396 C395 1.400 . S
C396 C399 1.386 . S
H397 C413 0.930 . S
H398 C414 0.931 . S
C399 H387 0.929 . S
C399 C393 1.390 . S
C399 C396 1.386 . S
C400 C395 1.490 . S
C400 C402 1.395 . S
C400 C403 1.403 . S
H401 C407 0.930 . S
C402 H388 0.930 . S
C402 C400 1.395 . S
C402 C405 1.403 . S
C403 C400 1.403 . S
C403 C404 1.524 . S
C403 C407 1.400 . S
C404 H389 0.960 . S
C404 H390 0.960 . S
C404 H391 0.960 . S
C404 C403 1.524 . S
C405 C402 1.403 . S
C405 C406 1.392 . S
C405 C409 1.495 . S
C406 C405 1.392 . S
C406 C407 1.385 . S
C406 C408 1.478 . S
C407 H401 0.930 . S
C407 C403 1.400 . S
C407 C406 1.385 . S
C408 C406 1.478 . S
C408 C410 1.381 . S
C408 C414 1.383 . S
C409 C405 1.495 . S
C409 H415 0.959 . S
C409 H416 0.961 . S
C409 H417 0.960 . S
C410 C408 1.381 . S
C410 C411 1.394 . S
C410 H418 0.930 . S
C411 C410 1.394 . S
C411 C412 1.383 . S
C411 H419 0.929 . S
C412 C411 1.383 . S
C412 C413 1.377 . S
C413 H397 0.930 . S
C413 C412 1.377 . S
C413 C414 1.379 . S
C414 H398 0.931 . S
C414 C408 1.383 . S
C414 C413 1.379 . S
H415 C409 0.959 . S
H416 C409 0.961 . S
H417 C409 0.960 . S
H418 C410 0.930 . S
H419 C411 0.929 . S
H420 C428 0.929 . S
H421 C430 0.930 . S
H422 C432 0.930 . S
H423 C435 0.929 . S
H424 C438 0.930 . S
H425 C440 0.960 . S
H426 C440 0.960 . S
H427 C440 0.960 . S
C428 H420 0.929 . S
C428 C429 1.377 . S
C428 C430 1.384 . S
C429 C428 1.377 . S
C429 C435 1.390 . S
C430 H421 0.930 . S
C430 C428 1.384 . S
C430 C431 1.372 . S
C431 C430 1.372 . S
C431 C432 1.400 . S
C431 C436 1.490 . S
C432 H422 0.930 . S
C432 C431 1.400 . S
C432 C435 1.386 . S
H433 C449 0.930 . S
H434 C450 0.931 . S
C435 H423 0.929 . S
C435 C429 1.390 . S
C435 C432 1.386 . S
C436 C431 1.490 . S
C436 C438 1.395 . S
C436 C439 1.403 . S
H437 C443 0.930 . S
C438 H424 0.930 . S
C438 C436 1.395 . S
C438 C441 1.403 . S
C439 C436 1.403 . S
C439 C440 1.524 . S
C439 C443 1.400 . S
C440 H425 0.960 . S
C440 H426 0.960 . S
C440 H427 0.960 . S
C440 C439 1.524 . S
C441 C438 1.403 . S
C441 C442 1.392 . S
C441 C445 1.495 . S
C442 C441 1.392 . S
C442 C443 1.385 . S
C442 C444 1.478 . S
C443 H437 0.930 . S
C443 C439 1.400 . S
C443 C442 1.385 . S
C444 C442 1.478 . S
C444 C446 1.381 . S
C444 C450 1.383 . S
C445 C441 1.495 . S
C445 H451 0.959 . S
C445 H452 0.961 . S
C445 H453 0.960 . S
C446 C444 1.381 . S
C446 C447 1.394 . S
C446 H454 0.930 . S
C447 C446 1.394 . S
C447 C448 1.383 . S
C447 H455 0.929 . S
C448 C447 1.383 . S
C448 C449 1.377 . S
C449 H433 0.930 . S
C449 C448 1.377 . S
C449 C450 1.379 . S
C450 H434 0.931 . S
C450 C444 1.383 . S
C450 C449 1.379 . S
H451 C445 0.959 . S
H452 C445 0.961 . S
H453 C445 0.960 . S
H454 C446 0.930 . S
H455 C447 0.929 . S
H456 C464 0.929 . S
H457 C466 0.930 . S
H458 C468 0.930 . S
H459 C471 0.929 . S
H460 C474 0.930 . S
H461 C476 0.960 . S
H462 C476 0.960 . S
H463 C476 0.960 . S
C464 H456 0.929 . S
C464 C465 1.377 . S
C464 C466 1.384 . S
C465 C464 1.377 . S
C465 C471 1.390 . S
C466 H457 0.930 . S
C466 C464 1.384 . S
C466 C467 1.372 . S
C467 C466 1.372 . S
C467 C468 1.400 . S
C467 C472 1.490 . S
C468 H458 0.930 . S
C468 C467 1.400 . S
C468 C471 1.386 . S
H469 C485 0.930 . S
H470 C486 0.931 . S
C471 H459 0.929 . S
C471 C465 1.390 . S
C471 C468 1.386 . S
C472 C467 1.490 . S
C472 C474 1.395 . S
C472 C475 1.403 . S
H473 C479 0.930 . S
C474 H460 0.930 . S
C474 C472 1.395 . S
C474 C477 1.403 . S
C475 C472 1.403 . S
C475 C476 1.524 . S
C475 C479 1.400 . S
C476 H461 0.960 . S
C476 H462 0.960 . S
C476 H463 0.960 . S
C476 C475 1.524 . S
C477 C474 1.403 . S
C477 C478 1.392 . S
C477 C481 1.495 . S
C478 C477 1.392 . S
C478 C479 1.385 . S
C478 C480 1.478 . S
C479 H473 0.930 . S
C479 C475 1.400 . S
C479 C478 1.385 . S
C480 C478 1.478 . S
C480 C482 1.381 . S
C480 C486 1.383 . S
C481 C477 1.495 . S
C481 H487 0.959 . S
C481 H488 0.961 . S
C481 H489 0.960 . S
C482 C480 1.381 . S
C482 C483 1.394 . S
C482 H490 0.930 . S
C483 C482 1.394 . S
C483 C484 1.383 . S
C483 H491 0.929 . S
C484 C483 1.383 . S
C484 C485 1.377 . S
C485 H469 0.930 . S
C485 C484 1.377 . S
C485 C486 1.379 . S
C486 H470 0.931 . S
C486 C480 1.383 . S
C486 C485 1.379 . S
H487 C481 0.959 . S
H488 C481 0.961 . S
H489 C481 0.960 . S
H490 C482 0.930 . S
H491 C483 0.929 . S
H492 C500 0.929 . S
H493 C502 0.930 . S
H494 C504 0.930 . S
H495 C507 0.929 . S
H496 C510 0.930 . S
H497 C512 0.960 . S
H498 C512 0.960 . S
H499 C512 0.960 . S
C500 H492 0.929 . S
C500 C501 1.377 1_655 S
C500 C502 1.384 . S
C501 C500 1.377 1_455 S
C501 C507 1.390 . S
C502 H493 0.930 . S
C502 C500 1.384 . S
C502 C503 1.372 1_655 S
C503 C502 1.372 1_455 S
C503 C504 1.400 . S
C503 C508 1.490 . S
C504 H494 0.930 . S
C504 C503 1.400 . S
C504 C507 1.386 . S
H505 C521 0.930 . S
H506 C522 0.931 . S
C507 H495 0.929 . S
C507 C501 1.390 . S
C507 C504 1.386 . S
C508 C503 1.490 . S
C508 C510 1.395 1_445 S
C508 C511 1.403 . S
H509 C515 0.930 . S
C510 H496 0.930 . S
C510 C508 1.395 1_665 S
C510 C513 1.403 . S
C511 C508 1.403 . S
C511 C512 1.524 . S
C511 C515 1.400 . S
C512 H497 0.960 . S
C512 H498 0.960 . S
C512 H499 0.960 . S
C512 C511 1.524 . S
C513 C510 1.403 . S
C513 C514 1.392 . S
C513 C517 1.495 . S
C514 C513 1.392 . S
C514 C515 1.385 1_665 S
C514 C516 1.478 . S
C515 H509 0.930 . S
C515 C511 1.400 . S
C515 C514 1.385 1_445 S
C516 C514 1.478 . S
C516 C518 1.383 . S
C516 C522 1.383 1_655 S
C517 C513 1.495 . S
C517 H523 0.959 . S
C517 H524 0.961 . S
C517 H525 0.960 . S
C518 C516 1.383 . S
C518 C519 1.394 1_565 S
C518 H526 0.928 1_565 S
C519 C518 1.394 1_545 S
C519 C520 1.374 1_645 S
C519 H527 0.929 . S
C520 C519 1.374 1_465 S
C520 C521 1.386 . S
C521 H505 0.930 . S
C521 C520 1.386 . S
C521 C522 1.379 . S
C522 H506 0.931 . S
C522 C516 1.383 1_455 S
C522 C521 1.379 . S
H523 C517 0.959 . S
H524 C517 0.961 . S
H525 C517 0.960 . S
H526 C518 0.928 1_545 S
H527 C519 0.929 . S
H528 C536 0.929 . S
H529 C538 0.930 . S
H530 C540 0.930 . S
H531 C543 0.929 . S
H532 C546 0.930 . S
H533 C548 0.960 . S
H534 C548 0.960 . S
H535 C548 0.960 . S
C536 H528 0.929 . S
C536 C537 1.377 1_655 S
C536 C538 1.384 . S
C537 C536 1.377 1_455 S
C537 C543 1.390 . S
C538 H529 0.930 . S
C538 C536 1.384 . S
C538 C539 1.372 1_655 S
C539 C538 1.372 1_455 S
C539 C540 1.400 . S
C539 C544 1.490 . S
C540 H530 0.930 . S
C540 C539 1.400 . S
C540 C543 1.386 . S
H541 C557 0.930 . S
H542 C558 0.931 . S
C543 H531 0.929 . S
C543 C537 1.390 . S
C543 C540 1.386 . S
C544 C539 1.490 . S
C544 C546 1.395 1_455 S
C544 C547 1.403 1_545 S
H545 C551 0.930 . S
C546 H532 0.930 . S
C546 C544 1.395 1_655 S
C546 C549 1.403 . S
C547 C544 1.403 1_565 S
C547 C548 1.524 . S
C547 C551 1.400 . S
C548 H533 0.960 . S
C548 H534 0.960 . S
C548 H535 0.960 . S
C548 C547 1.524 . S
C549 C546 1.403 . S
C549 C550 1.383 1_655 S
C549 C553 1.495 . S
C550 C549 1.383 1_455 S
C550 C551 1.395 1_545 S
C550 C552 1.478 . S
C551 H545 0.930 . S
C551 C547 1.400 . S
C551 C550 1.395 1_565 S
C552 C550 1.478 . S
C552 C554 1.381 1_455 S
C552 C558 1.383 . S
C553 C549 1.495 . S
C553 H559 0.959 . S
C553 H560 0.961 . S
C553 H561 0.960 . S
C554 C552 1.381 1_655 S
C554 C555 1.394 . S
C554 H562 0.930 . S
C555 C554 1.394 . S
C555 C556 1.383 1_655 S
C555 H563 0.929 . S
C556 C555 1.383 1_455 S
C556 C557 1.377 . S
C557 H541 0.930 . S
C557 C556 1.377 . S
C557 C558 1.379 . S
C558 H542 0.931 . S
C558 C552 1.383 . S
C558 C557 1.379 . S
H559 C553 0.959 . S
H560 C553 0.961 . S
H561 C553 0.960 . S
H562 C554 0.930 . S
H563 C555 0.929 . S
H564 C572 0.929 . S
H565 C574 0.930 . S
H566 C576 0.930 . S
H567 C579 0.929 . S
H568 C582 0.930 . S
H569 C584 0.960 . S
H570 C584 0.960 . S
H571 C584 0.960 . S
C572 H564 0.929 . S
C572 C573 1.377 . S
C572 C574 1.384 . S
C573 C572 1.377 . S
C573 C579 1.390 . S
C574 H565 0.930 . S
C574 C572 1.384 . S
C574 C575 1.372 . S
C575 C574 1.372 . S
C575 C576 1.400 . S
C575 C580 1.490 . S
C576 H566 0.930 . S
C576 C575 1.400 . S
C576 C579 1.386 . S
H577 C593 0.930 . S
H578 C594 0.931 . S
C579 H567 0.929 . S
C579 C573 1.390 . S
C579 C576 1.386 . S
C580 C575 1.490 . S
C580 C582 1.395 . S
C580 C583 1.403 . S
H581 C587 0.930 . S
C582 H568 0.930 . S
C582 C580 1.395 . S
C582 C585 1.403 . S
C583 C580 1.403 . S
C583 C584 1.524 . S
C583 C587 1.400 . S
C584 H569 0.960 . S
C584 H570 0.960 . S
C584 H571 0.960 . S
C584 C583 1.524 . S
C585 C582 1.403 . S
C585 C586 1.392 . S
C585 C589 1.495 . S
C586 C585 1.392 . S
C586 C587 1.385 . S
C586 C588 1.478 . S
C587 H581 0.930 . S
C587 C583 1.400 . S
C587 C586 1.385 . S
C588 C586 1.478 . S
C588 C590 1.381 . S
C588 C594 1.383 . S
C589 C585 1.495 . S
C589 H595 0.959 . S
C589 H596 0.961 . S
C589 H597 0.960 . S
C590 C588 1.381 . S
C590 C591 1.394 . S
C590 H598 0.930 . S
C591 C590 1.394 . S
C591 C592 1.383 . S
C591 H599 0.929 . S
C592 C591 1.383 . S
C592 C593 1.377 . S
C593 H577 0.930 . S
C593 C592 1.377 . S
C593 C594 1.379 . S
C594 H578 0.931 . S
C594 C588 1.383 . S
C594 C593 1.379 . S
H595 C589 0.959 . S
H596 C589 0.961 . S
H597 C589 0.960 . S
H598 C590 0.930 . S
H599 C591 0.929 . S
H600 C608 0.929 . S
H601 C610 0.930 . S
H602 C612 0.930 . S
H603 C615 0.929 . S
H604 C618 0.930 . S
H605 C620 0.960 . S
H606 C620 0.960 . S
H607 C620 0.960 . S
C608 H600 0.929 . S
C608 C609 1.377 . S
C608 C610 1.384 . S
C609 C608 1.377 . S
C609 C615 1.390 . S
C610 H601 0.930 . S
C610 C608 1.384 . S
C610 C611 1.372 . S
C611 C610 1.372 . S
C611 C612 1.400 . S
C611 C616 1.490 . S
C612 H602 0.930 . S
C612 C611 1.400 . S
C612 C615 1.386 . S
H613 C629 0.930 . S
H614 C630 0.931 . S
C615 H603 0.929 . S
C615 C609 1.390 . S
C615 C612 1.386 . S
C616 C611 1.490 . S
C616 C618 1.395 . S
C616 C619 1.403 . S
H617 C623 0.930 . S
C618 H604 0.930 . S
C618 C616 1.395 . S
C618 C621 1.403 . S
C619 C616 1.403 . S
C619 C620 1.524 . S
C619 C623 1.400 . S
C620 H605 0.960 . S
C620 H606 0.960 . S
C620 H607 0.960 . S
C620 C619 1.524 . S
C621 C618 1.403 . S
C621 C622 1.392 . S
C621 C625 1.495 . S
C622 C621 1.392 . S
C622 C623 1.385 . S
C622 C624 1.478 . S
C623 H617 0.930 . S
C623 C619 1.400 . S
C623 C622 1.385 . S
C624 C622 1.478 . S
C624 C626 1.381 . S
C624 C630 1.383 . S
C625 C621 1.495 . S
C625 H631 0.959 . S
C625 H632 0.961 . S
C625 H633 0.960 . S
C626 C624 1.381 . S
C626 C627 1.394 . S
C626 H634 0.930 . S
C627 C626 1.394 . S
C627 C628 1.383 . S
C627 H635 0.929 . S
C628 C627 1.383 . S
C628 C629 1.377 . S
C629 H613 0.930 . S
C629 C628 1.377 . S
C629 C630 1.379 . S
C630 H614 0.931 . S
C630 C624 1.383 . S
C630 C629 1.379 . S
H631 C625 0.959 . S
H632 C625 0.961 . S
H633 C625 0.960 . S
H634 C626 0.930 . S
H635 C627 0.929 . S
C232 C169 1.388 . S
C213 C27 1.410 . S
C249 N6 1.313 . S
C268 C133 1.337 . S
C285 C16 1.396 . S
C304 C193 1.356 . S
C321 N14 1.340 . S
C340 C157 1.340 . S
C357 C57 1.412 . S
C376 C97 1.395 . S
C393 N36 1.318 . S
C412 C61 1.324 . S
C448 C121 1.334 . S
C429 C46 1.396 . S
C484 C85 1.319 . S
C465 N44 1.342 . S
C501 C10 1.386 . S
C520 C91 1.390 1_565 S
C537 C1 1.523 . S
C556 C127 1.528 . S
C592 C163 1.374 . S
C573 C40 1.384 . S
C609 C31 1.525 . S
C628 C199 1.512 . S
