# Generated by pormake.
# Topology the, (3,8)-cn, num edge types: 1
# Building blocks:
#     Node 0, Type 0, BuildingBlock: QEWDON_clean_linker_0, # of connection points: 3
#     Node 1, Type 0, BuildingBlock: QEWDON_clean_linker_0, # of connection points: 3
#     Node 2, Type 0, BuildingBlock: QEWDON_clean_linker_0, # of connection points: 3
#     Node 3, Type 0, BuildingBlock: QEWDON_clean_linker_0, # of connection points: 3
#     Node 4, Type 0, BuildingBlock: QEWDON_clean_linker_0, # of connection points: 3
#     Node 5, Type 0, BuildingBlock: QEWDON_clean_linker_0, # of connection points: 3
#     Node 6, Type 0, BuildingBlock: QEWDON_clean_linker_0, # of connection points: 3
#     Node 7, Type 0, BuildingBlock: QEWDON_clean_linker_0, # of connection points: 3
#     Node 8, Type 1, BuildingBlock: GIZVER_clean_sbu_0, # of connection points: 8
#     Node 9, Type 1, BuildingBlock: GIZVER_clean_sbu_0, # of connection points: 8
#     Node 10, Type 1, BuildingBlock: GIZVER_clean_sbu_0, # of connection points: 8
#     Edge 11, Type (0, 1), BuildingBlock: EYOCIG_clean_linker_4, # of connection points: 2
#     Edge 12, Type (0, 1), BuildingBlock: EYOCIG_clean_linker_4, # of connection points: 2
#     Edge 13, Type (0, 1), BuildingBlock: EYOCIG_clean_linker_4, # of connection points: 2
#     Edge 14, Type (0, 1), BuildingBlock: EYOCIG_clean_linker_4, # of connection points: 2
#     Edge 15, Type (0, 1), BuildingBlock: EYOCIG_clean_linker_4, # of connection points: 2
#     Edge 16, Type (0, 1), BuildingBlock: EYOCIG_clean_linker_4, # of connection points: 2
#     Edge 17, Type (0, 1), BuildingBlock: EYOCIG_clean_linker_4, # of connection points: 2
#     Edge 18, Type (0, 1), BuildingBlock: EYOCIG_clean_linker_4, # of connection points: 2
#     Edge 19, Type (0, 1), BuildingBlock: EYOCIG_clean_linker_4, # of connection points: 2
#     Edge 20, Type (0, 1), BuildingBlock: EYOCIG_clean_linker_4, # of connection points: 2
#     Edge 21, Type (0, 1), BuildingBlock: EYOCIG_clean_linker_4, # of connection points: 2
#     Edge 22, Type (0, 1), BuildingBlock: EYOCIG_clean_linker_4, # of connection points: 2
#     Edge 23, Type (0, 1), BuildingBlock: EYOCIG_clean_linker_4, # of connection points: 2
#     Edge 24, Type (0, 1), BuildingBlock: EYOCIG_clean_linker_4, # of connection points: 2
#     Edge 25, Type (0, 1), BuildingBlock: EYOCIG_clean_linker_4, # of connection points: 2
#     Edge 26, Type (0, 1), BuildingBlock: EYOCIG_clean_linker_4, # of connection points: 2
#     Edge 27, Type (0, 1), BuildingBlock: EYOCIG_clean_linker_4, # of connection points: 2
#     Edge 28, Type (0, 1), BuildingBlock: EYOCIG_clean_linker_4, # of connection points: 2
#     Edge 29, Type (0, 1), BuildingBlock: EYOCIG_clean_linker_4, # of connection points: 2
#     Edge 30, Type (0, 1), BuildingBlock: EYOCIG_clean_linker_4, # of connection points: 2
#     Edge 31, Type (0, 1), BuildingBlock: EYOCIG_clean_linker_4, # of connection points: 2
#     Edge 32, Type (0, 1), BuildingBlock: EYOCIG_clean_linker_4, # of connection points: 2
#     Edge 33, Type (0, 1), BuildingBlock: EYOCIG_clean_linker_4, # of connection points: 2
#     Edge 34, Type (0, 1), BuildingBlock: EYOCIG_clean_linker_4, # of connection points: 2
# Relax obj value: 0.102
# Max RMSD: 0.272
# Mean RMSD: 0.175
data_MOF--net-the--node1-GIZVER_clean_sbu_0--node2-QEWDON_clean_linker_0--edge1-EYOCIG_clean_linker_4
_symmetry_space_group_name_H-M    P1
_symmetry_Int_Tables_number       1
_symmetry_cell_setting            triclinic
loop_
_symmetry_equiv_pos_as_xyz
'x, y, z'
_cell_length_a     34.518937
_cell_length_b     31.09022
_cell_length_c     28.638235
_cell_angle_alpha  87.469839
_cell_angle_beta   96.475083
_cell_angle_gamma 112.29177
loop_
_atom_site_label
_atom_site_type_symbol
_atom_site_fract_x
_atom_site_fract_y
_atom_site_fract_z
_atom_type_partial_charge
H0 H 0.30132 0.21498 0.4645 0.0
C1 C 0.31989 0.23517 0.43728 0.0
C2 C 0.3582 0.23133 0.4308 0.0
C3 C 0.30511 0.26432 0.40774 0.0
H4 H 0.4117 0.2542 0.39055 0.0
C5 C 0.38203 0.2571 0.39528 0.0
C6 C 0.36823 0.28701 0.36621 0.0
C7 C 0.32956 0.29016 0.37224 0.0
C8 C 0.26363 0.26699 0.41245 0.0
H9 H 0.31867 0.3131 0.34968 0.0
C10 C 0.25389 0.27893 0.45546 0.0
C11 C 0.21597 0.28561 0.45727 0.0
C12 C 0.23429 0.2601 0.37246 0.0
H13 H 0.24098 0.25086 0.3391 0.0
C14 C 0.19624 0.26544 0.37492 0.0
H15 H 0.27659 0.28559 0.48633 0.0
C16 C 0.18724 0.27847 0.417 0.0
H17 H 0.1582 0.28416 0.41779 0.0
H18 H 0.17405 0.26047 0.34384 0.0
H19 H 0.80336 0.37773 0.35828 0.0
C20 C 0.78803 0.34261 0.37114 0.0
C21 C 0.81004 0.32433 0.40497 0.0
C22 C 0.74541 0.31718 0.3568 0.0
H23 H 0.80651 0.26711 0.45211 0.0
C24 C 0.78997 0.28024 0.42421 0.0
C25 C 0.74747 0.25491 0.40997 0.0
C26 C 0.7256 0.27295 0.37585 0.0
C27 C 0.7209 0.33795 0.32454 0.0
H28 H 0.69259 0.253 0.36528 0.0
C29 C 0.739 0.36469 0.2862 0.0
C30 C 0.71572 0.38404 0.25575 0.0
C31 C 0.67933 0.33135 0.33201 0.0
H32 H 0.66487 0.31167 0.36185 0.0
C33 C 0.65612 0.3507 0.30124 0.0
H34 H 0.77061 0.3694 0.27928 0.0
C35 C 0.6742 0.37695 0.2631 0.0
H36 H 0.65566 0.39145 0.23916 0.0
H37 H 0.62413 0.34533 0.30692 0.0
H38 H 0.83936 0.76115 0.40759 0.0
C39 C 0.82748 0.74272 0.37455 0.0
C40 C 0.84324 0.70924 0.36215 0.0
C41 C 0.79376 0.74909 0.34614 0.0
H42 H 0.83353 0.65285 0.31468 0.0
C43 C 0.82409 0.68118 0.32208 0.0
C44 C 0.79084 0.68752 0.29346 0.0
C45 C 0.77876 0.72395 0.30352 0.0
C46 C 0.76696 0.77233 0.36389 0.0
H47 H 0.75362 0.72897 0.2805 0.0
C48 C 0.78252 0.81453 0.39022 0.0
C49 C 0.75358 0.83312 0.40405 0.0
C50 C 0.72288 0.74953 0.35425 0.0
H51 H 0.70908 0.7161 0.33685 0.0
C52 C 0.69526 0.76852 0.36701 0.0
H53 H 0.81604 0.83252 0.39935 0.0
C54 C 0.71041 0.80996 0.39141 0.0
H55 H 0.68789 0.82368 0.40124 0.0
H56 H 0.6617 0.75061 0.35838 0.0
H57 H 0.4078 0.72049 0.37528 0.0
C58 C 0.37877 0.70743 0.39186 0.0
C59 C 0.37312 0.73318 0.42781 0.0
C60 C 0.34582 0.66624 0.37557 0.0
H61 H 0.32999 0.73843 0.47436 0.0
C62 C 0.33484 0.71787 0.44759 0.0
C63 C 0.3023 0.67688 0.43152 0.0
C64 C 0.30826 0.65052 0.39694 0.0
C65 C 0.34792 0.64179 0.33328 0.0
H66 H 0.2827 0.61855 0.38511 0.0
C67 C 0.38374 0.63243 0.3267 0.0
C68 C 0.38345 0.60734 0.28703 0.0
C69 C 0.31276 0.62671 0.29919 0.0
H70 H 0.28505 0.6342 0.30277 0.0
C71 C 0.31287 0.60196 0.25993 0.0
H72 H 0.41104 0.64349 0.35262 0.0
C73 C 0.34805 0.59217 0.25388 0.0
H74 H 0.34759 0.5726 0.22327 0.0
H75 H 0.28556 0.59027 0.23418 0.0
H76 H 0.44398 0.71921 0.77894 0.0
C77 C 0.4108 0.7098 0.76742 0.0
C78 C 0.39742 0.74039 0.73838 0.0
C79 C 0.38137 0.66587 0.77913 0.0
H80 H 0.34473 0.74961 0.69722 0.0
C81 C 0.35489 0.7271 0.72131 0.0
C82 C 0.32579 0.6838 0.73319 0.0
C83 C 0.33874 0.65399 0.76286 0.0
C84 C 0.39448 0.63023 0.80466 0.0
H85 H 0.31566 0.62039 0.77157 0.0
C86 C 0.42327 0.64144 0.8453 0.0
C87 C 0.43306 0.60633 0.87002 0.0
C88 C 0.37661 0.58374 0.78891 0.0
H89 H 0.35486 0.5741 0.75729 0.0
C90 C 0.3866 0.54908 0.81363 0.0
H91 H 0.43734 0.67693 0.85805 0.0
C92 C 0.41473 0.56028 0.85413 0.0
H93 H 0.42229 0.53299 0.873 0.0
H94 H 0.37252 0.51349 0.80135 0.0
H95 H 0.33882 0.28924 0.83128 0.0
C96 C 0.3522 0.26852 0.81413 0.0
C97 C 0.39422 0.27292 0.82824 0.0
C98 C 0.32744 0.2371 0.77807 0.0
H99 H 0.44332 0.24851 0.81645 0.0
C100 C 0.41114 0.24528 0.80608 0.0
C101 C 0.38709 0.2144 0.76974 0.0
C102 C 0.34572 0.21075 0.75607 0.0
C103 C 0.28231 0.23009 0.76284 0.0
H104 H 0.32776 0.1875 0.72744 0.0
C105 C 0.26853 0.2676 0.75434 0.0
C106 C 0.22657 0.25906 0.73526 0.0
C107 C 0.25289 0.18454 0.75333 0.0
H108 H 0.26187 0.15485 0.76001 0.0
C109 C 0.21169 0.17645 0.73457 0.0
H110 H 0.29047 0.303 0.76088 0.0
C111 C 0.19867 0.21345 0.72532 0.0
H112 H 0.16661 0.20638 0.71019 0.0
H113 H 0.18979 0.1413 0.72681 0.0
H114 H 0.8407 0.35499 0.75789 0.0
C115 C 0.81888 0.329 0.7335 0.0
C116 C 0.83206 0.32033 0.69191 0.0
C117 C 0.77829 0.30195 0.74481 0.0
H118 H 0.8156 0.28077 0.62791 0.0
C119 C 0.8049 0.2873 0.66013 0.0
C120 C 0.76493 0.26039 0.6716 0.0
C121 C 0.75126 0.26743 0.71365 0.0
C122 C 0.76494 0.3086 0.7898 0.0
H123 H 0.71997 0.2457 0.72236 0.0
C124 C 0.77203 0.35356 0.8042 0.0
C125 C 0.75921 0.36009 0.84663 0.0
C126 C 0.74524 0.27037 0.81852 0.0
H127 H 0.74013 0.23538 0.8082 0.0
C128 C 0.73234 0.27721 0.86108 0.0
H129 H 0.78649 0.38325 0.78191 0.0
C130 C 0.73904 0.32207 0.87505 0.0
H131 H 0.72835 0.32709 0.90781 0.0
H132 H 0.71705 0.2478 0.88311 0.0
H133 H 0.87133 0.76432 0.67965 0.0
C134 C 0.85389 0.7419 0.70653 0.0
C135 C 0.85701 0.69891 0.71621 0.0
C136 C 0.82889 0.75649 0.73197 0.0
H137 H 0.83659 0.63601 0.75769 0.0
C138 C 0.83439 0.66963 0.75079 0.0
C139 C 0.80834 0.68346 0.77577 0.0
C140 C 0.80619 0.72733 0.7667 0.0
C141 C 0.82675 0.80238 0.72218 0.0
H142 H 0.78628 0.73847 0.78588 0.0
C143 C 0.80817 0.81146 0.6786 0.0
C144 C 0.80295 0.85382 0.67138 0.0
C145 C 0.84206 0.83675 0.75709 0.0
H146 H 0.85642 0.83013 0.79082 0.0
C147 C 0.83873 0.87982 0.74872 0.0
H148 H 0.79498 0.78442 0.65211 0.0
C149 C 0.81886 0.88821 0.70617 0.0
H150 H 0.81424 0.92078 0.70124 0.0
H151 H 0.85029 0.90617 0.77581 0.0
Co152 Co 0.12242 0.45901 0.61782 0.0
Co153 Co 0.10265 0.45682 0.52851 0.0
Co154 Co 0.06023 0.51994 0.573 0.0
O155 O 0.07661 0.46439 0.57731 0.0
H156 H 0.05194 0.43624 0.57929 0.0
O157 O 0.03905 0.57293 0.56972 0.0
Co158 Co 0.98888 0.57334 0.52927 0.0
Co159 Co 1.00042 0.56203 0.61271 0.0
H160 H 0.06148 0.60316 0.57387 0.0
O161 O 0.09622 0.39828 0.50922 0.0
O162 O 0.14571 0.44481 0.56307 0.0
O163 O 0.12828 0.51191 0.49474 0.0
O164 O 0.09547 0.55426 0.52166 0.0
O165 O 0.01414 0.48334 0.52542 0.0
O166 O 0.94581 0.57764 0.49134 0.0
O167 O 0.00613 0.63597 0.51684 0.0
O168 O 0.96307 0.50837 0.53505 0.0
O169 O 0.0299 0.48715 0.62673 0.0
O170 O 0.97138 0.49927 0.62962 0.0
O171 O 0.96125 0.58202 0.58362 0.0
O172 O 0.00569 0.60871 0.65065 0.0
C173 C 0.13564 0.40675 0.65436 0.0
C174 C 0.14463 0.55626 0.62446 0.0
C175 C 0.122 0.54929 0.49686 0.0
C176 C 0.12988 0.40677 0.53838 0.0
C177 C 0.96908 0.62158 0.49229 0.0
C178 C 0.97597 0.47931 0.51927 0.0
C179 C 0.99181 0.47312 0.63381 0.0
C180 C 0.97423 0.6085 0.62094 0.0
O181 O 0.16274 0.44927 0.65576 0.0
O182 O 0.0986 0.39679 0.63073 0.0
O183 O 0.10748 0.55614 0.61971 0.0
O184 O 0.15349 0.52312 0.6106 0.0
Co185 Co 0.61892 0.95261 0.52678 0.0
Co186 Co 0.61579 0.95379 0.61693 0.0
Co187 Co 0.55799 0.00934 0.56865 0.0
O188 O 0.60947 0.99327 0.56981 0.0
H189 H 0.63448 0.02134 0.57365 0.0
O190 O 0.50848 0.03007 0.56751 0.0
Co191 Co 0.51241 0.08302 0.6062 0.0
Co192 Co 0.50714 0.07152 0.51882 0.0
H193 H 0.48183 1.00417 0.56775 0.0
O194 O 0.66857 0.95567 0.64137 0.0
O195 O 0.6263 0.9135 0.58013 0.0
O196 O 0.5673 0.92183 0.6478 0.0
O197 O 0.52625 0.95801 0.61335 0.0
O198 O 0.58697 0.05154 0.62192 0.0
O199 O 0.51283 0.12836 0.64285 0.0
O200 O 0.45783 0.06279 0.62076 0.0
O201 O 0.56972 0.11122 0.59805 0.0
O202 O 0.59077 0.05876 0.52446 0.0
O203 O 0.55706 0.10089 0.48735 0.0
O204 O 0.49784 0.1168 0.54996 0.0
O205 O 0.45634 0.06944 0.49081 0.0
C206 C 0.67095 0.94784 0.49971 0.0
C207 C 0.5282 0.92602 0.50944 0.0
C208 C 0.53256 0.92723 0.64126 0.0
C209 C 0.66063 0.92505 0.6086 0.0
C210 C 0.47352 0.102 0.6442 0.0
C211 C 0.59674 0.09469 0.61498 0.0
C212 C 0.58939 0.09088 0.49606 0.0
C213 C 0.46466 0.10411 0.519 0.0
O214 O 0.63307 0.91782 0.48823 0.0
O215 O 0.67626 0.98234 0.52748 0.0
O216 O 0.52773 0.96626 0.51518 0.0
O217 O 0.56074 0.91627 0.51969 0.0
Co218 Co 0.54552 0.50015 0.16798 0.0
Co219 Co 0.54529 0.42326 0.15679 0.0
Co220 Co 0.58342 0.48466 0.06656 0.0
O221 O 0.53918 0.46519 0.11154 0.0
H222 H 0.51101 0.4546 0.09554 0.0
O223 O 0.62944 0.50284 1.02587 0.0
Co224 Co 0.63446 0.47064 0.9748 0.0
Co225 Co 0.6383 0.55109 0.98659 0.0
H226 H 0.65534 0.51043 1.04637 0.0
O227 O 0.49816 0.37385 0.17084 0.0
O228 O 0.52963 0.44276 0.20954 0.0
O229 O 0.60216 0.42371 0.16527 0.0
O230 O 0.60505 0.43564 0.08876 0.0
O231 O 0.54151 0.43785 1.01971 0.0
O232 O 0.64559 0.4419 0.92946 0.0
O233 O 0.68942 0.48628 0.98887 0.0
O234 O 0.57512 0.44817 0.95492 0.0
O235 O 0.56011 0.53292 1.04168 0.0
O236 O 0.59426 0.57279 0.98132 0.0
O237 O 0.64627 0.52777 0.93242 0.0
O238 O 0.69162 0.58997 0.97511 0.0
C239 C 0.50829 0.52389 0.19924 0.0
C240 C 0.63223 0.53399 0.15629 0.0
C241 C 0.62215 0.43144 0.1292 0.0
C242 C 0.50033 0.40081 0.20528 0.0
C243 C 0.68316 0.46237 0.95093 0.0
C244 C 0.54194 0.43035 0.97605 0.0
C245 C 0.56538 0.56282 1.0083 0.0
C246 C 0.68095 0.56525 0.93694 0.0
O247 O 0.54689 0.53341 0.21674 0.0
O248 O 0.49239 0.49734 0.16233 0.0
O249 O 0.62618 0.53254 0.11156 0.0
O250 O 0.60347 0.50989 0.18131 0.0
C251 C 0.19169 0.32318 0.52219 0.0
C252 C 0.20762 0.30559 0.49751 0.0
C253 C 0.17038 0.35017 0.53667 0.0
C254 C 0.15289 0.37689 0.53859 0.0
C255 C 0.6971 0.17935 0.44844 0.0
C256 C 0.72377 0.21333 0.43393 0.0
C257 C 0.66056 0.14526 0.46398 0.0
C258 C 0.62801 0.12052 0.47855 0.0
C259 C 0.90222 0.68884 0.41681 0.0
C260 C 0.87556 0.69938 0.39308 0.0
C261 C 0.9309 0.6721 0.44435 0.0
C262 C 0.95176 0.65308 0.46733 0.0
C263 C 0.43144 0.81358 0.45636 0.0
C264 C 0.4054 0.77684 0.44269 0.0
C265 C 0.46243 0.85575 0.47358 0.0
C266 C 0.49093 0.88969 0.48963 0.0
C267 C 0.24805 0.64857 0.69288 0.0
C268 C 0.28378 0.66675 0.71008 0.0
C269 C 0.2087 0.62121 0.66997 0.0
C270 C 0.17765 0.59323 0.64964 0.0
C271 C 0.41727 0.16362 0.72243 0.0
C272 C 0.40471 0.18726 0.74478 0.0
C273 C 0.43251 0.13742 0.69467 0.0
C274 C 0.4482 0.11815 0.67086 0.0
C275 C 0.90998 0.36055 0.67488 0.0
C276 C 0.87446 0.34244 0.68314 0.0
C277 C 0.94794 0.39164 0.66236 0.0
C278 C 0.97237 0.42736 0.64957 0.0
C279 C 0.74988 0.8727 0.61048 0.0
C280 C 0.77378 0.85887 0.63399 0.0
C281 C 0.718 0.89029 0.60048 0.0
C282 C 0.69078 0.90508 0.60259 0.0
C283 C 0.39192 0.1783 0.4809 0.0
C284 C 0.37397 0.20126 0.46016 0.0
C285 C 0.41691 0.15331 0.49987 0.0
C286 C 0.43994 0.13254 0.51066 0.0
C287 C 0.88467 0.37965 0.4421 0.0
C288 C 0.85066 0.35405 0.42548 0.0
C289 C 0.91996 0.4124 0.46714 0.0
C290 C 0.94677 0.44229 0.4907 0.0
C291 C 0.75556 0.90326 0.45172 0.0
C292 C 0.76432 0.87499 0.43162 0.0
C293 C 0.73232 0.92652 0.47101 0.0
C294 C 0.70665 0.93927 0.48566 0.0
C295 C 0.22546 0.64562 0.45622 0.0
C296 C 0.26134 0.6627 0.4473 0.0
C297 C 0.1844 0.61886 0.4666 0.0
C298 C 0.15365 0.59023 0.48099 0.0
C299 C 0.44896 0.82071 0.70656 0.0
C300 C 0.42708 0.78384 0.72227 0.0
C301 C 0.47428 0.86182 0.68436 0.0
C302 C 0.49817 0.89353 0.66324 0.0
C303 C 0.19166 0.32051 0.71114 0.0
C304 C 0.21097 0.29585 0.72359 0.0
C305 C 0.16733 0.34669 0.69287 0.0
C306 C 0.14958 0.37099 0.67446 0.0
C307 C 0.71216 0.18899 0.6249 0.0
C308 C 0.73911 0.22246 0.6426 0.0
C309 C 0.67472 0.15119 0.61631 0.0
C310 C 0.63971 0.12347 0.61642 0.0
C311 C 0.90507 0.67214 0.66898 0.0
C312 C 0.88331 0.68491 0.69017 0.0
C313 C 0.92947 0.65307 0.64754 0.0
C314 C 0.94899 0.63222 0.63397 0.0
C315 C 0.41812 0.33717 0.30255 0.0
C316 C 0.39453 0.31496 0.33105 0.0
C317 C 0.44719 0.36225 0.26987 0.0
C318 C 0.47215 0.38162 0.24159 0.0
C319 C 0.48538 0.6147 0.94551 0.0
C320 C 0.46241 0.61646 0.9114 0.0
C321 C 0.51195 0.60113 0.97824 0.0
C322 C 0.53416 0.58195 0.99611 0.0
C323 C 0.44517 0.33468 0.89305 0.0
C324 C 0.42099 0.30707 0.86381 0.0
C325 C 0.47615 0.36805 0.92495 0.0
C326 C 0.50484 0.396 0.95014 0.0
C327 C 0.76177 0.43706 0.87987 0.0
C328 C 0.76384 0.40533 0.85994 0.0
C329 C 0.74361 0.45779 0.90788 0.0
C330 C 0.71825 0.46208 0.93025 0.0
C331 C 0.76003 0.62756 0.83743 0.0
C332 C 0.78242 0.65212 0.80916 0.0
C333 C 0.73171 0.60096 0.87002 0.0
C334 C 0.70696 0.58218 0.89856 0.0
C335 C 0.73772 0.62566 0.23079 0.0
C336 C 0.76337 0.65227 0.25956 0.0
C337 C 0.70318 0.59367 0.20158 0.0
C338 C 0.67142 0.56699 0.17954 0.0
C339 C 0.4425 0.58091 0.26524 0.0
C340 C 0.4184 0.59535 0.27958 0.0
C341 C 0.46523 0.56058 0.24253 0.0
C342 C 0.48363 0.54302 0.22157 0.0
C343 C 0.72875 0.42771 0.1783 0.0
C344 C 0.73233 0.40876 0.21476 0.0
C345 C 0.69945 0.43664 0.14607 0.0
C346 C 0.66469 0.43502 0.1336 0.0
loop_
_geom_bond_atom_site_label_1
_geom_bond_atom_site_label_2
_geom_bond_distance
_geom_bond_site_symmetry_2
_ccdc_geom_bond_type
H0 C1 0.949 . S
C1 H0 0.949 . S
C1 C2 1.395 . S
C1 C3 1.391 . S
C2 C1 1.395 . S
C2 C5 1.390 . S
C3 C1 1.391 . S
C3 C7 1.387 . S
C3 C8 1.491 . S
H4 C5 0.950 . S
C5 C2 1.390 . S
C5 H4 0.950 . S
C5 C6 1.378 . S
C6 C5 1.378 . S
C6 C7 1.409 . S
C7 C3 1.387 . S
C7 C6 1.409 . S
C7 H9 0.951 . S
C8 C3 1.491 . S
C8 C10 1.382 . S
C8 C12 1.404 . S
H9 C7 0.951 . S
C10 C8 1.382 . S
C10 C11 1.390 . S
C10 H15 0.949 . S
C11 C10 1.390 . S
C11 C16 1.399 . S
C12 C8 1.404 . S
C12 H13 0.950 . S
C12 C14 1.375 . S
H13 C12 0.950 . S
C14 C12 1.375 . S
C14 C16 1.382 . S
C14 H18 0.950 . S
H15 C10 0.949 . S
C16 C11 1.399 . S
C16 C14 1.382 . S
C16 H17 0.952 . S
H17 C16 0.952 . S
H18 C14 0.950 . S
H19 C20 0.949 . S
C20 H19 0.949 . S
C20 C21 1.395 . S
C20 C22 1.391 . S
C21 C20 1.395 . S
C21 C24 1.390 . S
C22 C20 1.391 . S
C22 C26 1.387 . S
C22 C27 1.491 . S
H23 C24 0.950 . S
C24 C21 1.390 . S
C24 H23 0.950 . S
C24 C25 1.378 . S
C25 C24 1.378 . S
C25 C26 1.409 . S
C26 C22 1.387 . S
C26 C25 1.409 . S
C26 H28 0.951 . S
C27 C22 1.491 . S
C27 C29 1.382 . S
C27 C31 1.404 . S
H28 C26 0.951 . S
C29 C27 1.382 . S
C29 C30 1.390 . S
C29 H34 0.949 . S
C30 C29 1.390 . S
C30 C35 1.399 . S
C31 C27 1.404 . S
C31 H32 0.950 . S
C31 C33 1.375 . S
H32 C31 0.950 . S
C33 C31 1.375 . S
C33 C35 1.382 . S
C33 H37 0.950 . S
H34 C29 0.949 . S
C35 C30 1.399 . S
C35 C33 1.382 . S
C35 H36 0.952 . S
H36 C35 0.952 . S
H37 C33 0.950 . S
H38 C39 0.949 . S
C39 H38 0.949 . S
C39 C40 1.395 . S
C39 C41 1.391 . S
C40 C39 1.395 . S
C40 C43 1.390 . S
C41 C39 1.391 . S
C41 C45 1.387 . S
C41 C46 1.491 . S
H42 C43 0.950 . S
C43 C40 1.390 . S
C43 H42 0.950 . S
C43 C44 1.378 . S
C44 C43 1.378 . S
C44 C45 1.409 . S
C45 C41 1.387 . S
C45 C44 1.409 . S
C45 H47 0.951 . S
C46 C41 1.491 . S
C46 C48 1.382 . S
C46 C50 1.404 . S
H47 C45 0.951 . S
C48 C46 1.382 . S
C48 C49 1.390 . S
C48 H53 0.949 . S
C49 C48 1.390 . S
C49 C54 1.399 . S
C50 C46 1.404 . S
C50 H51 0.950 . S
C50 C52 1.375 . S
H51 C50 0.950 . S
C52 C50 1.375 . S
C52 C54 1.382 . S
C52 H56 0.950 . S
H53 C48 0.949 . S
C54 C49 1.399 . S
C54 C52 1.382 . S
C54 H55 0.952 . S
H55 C54 0.952 . S
H56 C52 0.950 . S
H57 C58 0.949 . S
C58 H57 0.949 . S
C58 C59 1.395 . S
C58 C60 1.391 . S
C59 C58 1.395 . S
C59 C62 1.390 . S
C60 C58 1.391 . S
C60 C64 1.387 . S
C60 C65 1.491 . S
H61 C62 0.950 . S
C62 C59 1.390 . S
C62 H61 0.950 . S
C62 C63 1.378 . S
C63 C62 1.378 . S
C63 C64 1.409 . S
C64 C60 1.387 . S
C64 C63 1.409 . S
C64 H66 0.951 . S
C65 C60 1.491 . S
C65 C67 1.382 . S
C65 C69 1.404 . S
H66 C64 0.951 . S
C67 C65 1.382 . S
C67 C68 1.390 . S
C67 H72 0.949 . S
C68 C67 1.390 . S
C68 C73 1.399 . S
C69 C65 1.404 . S
C69 H70 0.950 . S
C69 C71 1.375 . S
H70 C69 0.950 . S
C71 C69 1.375 . S
C71 C73 1.382 . S
C71 H75 0.950 . S
H72 C67 0.949 . S
C73 C68 1.399 . S
C73 C71 1.382 . S
C73 H74 0.952 . S
H74 C73 0.952 . S
H75 C71 0.950 . S
H76 C77 0.949 . S
C77 H76 0.949 . S
C77 C78 1.395 . S
C77 C79 1.391 . S
C78 C77 1.395 . S
C78 C81 1.390 . S
C79 C77 1.391 . S
C79 C83 1.387 . S
C79 C84 1.491 . S
H80 C81 0.950 . S
C81 C78 1.390 . S
C81 H80 0.950 . S
C81 C82 1.378 . S
C82 C81 1.378 . S
C82 C83 1.409 . S
C83 C79 1.387 . S
C83 C82 1.409 . S
C83 H85 0.951 . S
C84 C79 1.491 . S
C84 C86 1.382 . S
C84 C88 1.404 . S
H85 C83 0.951 . S
C86 C84 1.382 . S
C86 C87 1.390 . S
C86 H91 0.949 . S
C87 C86 1.390 . S
C87 C92 1.399 . S
C88 C84 1.404 . S
C88 H89 0.950 . S
C88 C90 1.375 . S
H89 C88 0.950 . S
C90 C88 1.375 . S
C90 C92 1.382 . S
C90 H94 0.950 . S
H91 C86 0.949 . S
C92 C87 1.399 . S
C92 C90 1.382 . S
C92 H93 0.952 . S
H93 C92 0.952 . S
H94 C90 0.950 . S
H95 C96 0.949 . S
C96 H95 0.949 . S
C96 C97 1.395 . S
C96 C98 1.391 . S
C97 C96 1.395 . S
C97 C100 1.390 . S
C98 C96 1.391 . S
C98 C102 1.387 . S
C98 C103 1.491 . S
H99 C100 0.950 . S
C100 C97 1.390 . S
C100 H99 0.950 . S
C100 C101 1.378 . S
C101 C100 1.378 . S
C101 C102 1.409 . S
C102 C98 1.387 . S
C102 C101 1.409 . S
C102 H104 0.951 . S
C103 C98 1.491 . S
C103 C105 1.382 . S
C103 C107 1.404 . S
H104 C102 0.951 . S
C105 C103 1.382 . S
C105 C106 1.390 . S
C105 H110 0.949 . S
C106 C105 1.390 . S
C106 C111 1.399 . S
C107 C103 1.404 . S
C107 H108 0.950 . S
C107 C109 1.375 . S
H108 C107 0.950 . S
C109 C107 1.375 . S
C109 C111 1.382 . S
C109 H113 0.950 . S
H110 C105 0.949 . S
C111 C106 1.399 . S
C111 C109 1.382 . S
C111 H112 0.952 . S
H112 C111 0.952 . S
H113 C109 0.950 . S
H114 C115 0.949 . S
C115 H114 0.949 . S
C115 C116 1.395 . S
C115 C117 1.391 . S
C116 C115 1.395 . S
C116 C119 1.390 . S
C117 C115 1.391 . S
C117 C121 1.387 . S
C117 C122 1.491 . S
H118 C119 0.950 . S
C119 C116 1.390 . S
C119 H118 0.950 . S
C119 C120 1.378 . S
C120 C119 1.378 . S
C120 C121 1.409 . S
C121 C117 1.387 . S
C121 C120 1.409 . S
C121 H123 0.951 . S
C122 C117 1.491 . S
C122 C124 1.382 . S
C122 C126 1.404 . S
H123 C121 0.951 . S
C124 C122 1.382 . S
C124 C125 1.390 . S
C124 H129 0.949 . S
C125 C124 1.390 . S
C125 C130 1.399 . S
C126 C122 1.404 . S
C126 H127 0.950 . S
C126 C128 1.375 . S
H127 C126 0.950 . S
C128 C126 1.375 . S
C128 C130 1.382 . S
C128 H132 0.950 . S
H129 C124 0.949 . S
C130 C125 1.399 . S
C130 C128 1.382 . S
C130 H131 0.952 . S
H131 C130 0.952 . S
H132 C128 0.950 . S
H133 C134 0.949 . S
C134 H133 0.949 . S
C134 C135 1.395 . S
C134 C136 1.391 . S
C135 C134 1.395 . S
C135 C138 1.390 . S
C136 C134 1.391 . S
C136 C140 1.387 . S
C136 C141 1.491 . S
H137 C138 0.950 . S
C138 C135 1.390 . S
C138 H137 0.950 . S
C138 C139 1.378 . S
C139 C138 1.378 . S
C139 C140 1.409 . S
C140 C136 1.387 . S
C140 C139 1.409 . S
C140 H142 0.951 . S
C141 C136 1.491 . S
C141 C143 1.382 . S
C141 C145 1.404 . S
H142 C140 0.951 . S
C143 C141 1.382 . S
C143 C144 1.390 . S
C143 H148 0.949 . S
C144 C143 1.390 . S
C144 C149 1.399 . S
C145 C141 1.404 . S
C145 H146 0.950 . S
C145 C147 1.375 . S
H146 C145 0.950 . S
C147 C145 1.375 . S
C147 C149 1.382 . S
C147 H151 0.950 . S
H148 C143 0.949 . S
C149 C144 1.399 . S
C149 C147 1.382 . S
C149 H150 0.952 . S
H150 C149 0.952 . S
H151 C147 0.950 . S
Co152 O155 2.042 . S
Co152 O162 2.264 . S
Co152 O181 2.286 . S
Co152 O182 2.069 . S
Co152 O184 2.015 . S
Co153 O155 2.122 . S
Co153 O161 2.073 . S
Co153 O162 2.327 . S
Co153 O163 1.976 . S
Co154 O155 2.087 . S
Co154 O157 2.087 . S
Co154 O164 2.111 . S
Co154 O165 2.143 1_455 S
Co154 O169 2.106 1_455 S
Co154 O183 2.143 . S
O155 Co152 2.042 . S
O155 Co153 2.122 . S
O155 Co154 2.087 . S
O155 H156 0.980 . S
H156 O155 0.980 . S
O157 Co154 2.087 . S
O157 Co158 2.042 1_455 S
O157 Co159 2.122 1_455 S
O157 H160 0.980 . S
Co158 O157 2.042 1_655 S
Co158 O166 2.286 . S
Co158 O167 2.069 . S
Co158 O168 2.015 . S
Co158 O171 2.264 . S
Co159 O157 2.122 1_655 S
Co159 O170 1.976 . S
Co159 O171 2.327 . S
Co159 O172 2.073 . S
H160 O157 0.980 . S
O161 Co153 2.073 . S
O161 C176 1.245 . S
O162 Co152 2.264 . S
O162 Co153 2.327 . S
O162 C176 1.257 . S
O163 Co153 1.976 . S
O163 C175 1.251 . S
O164 Co154 2.111 . S
O164 C175 1.274 . S
O165 Co154 2.143 1_655 S
O165 C178 1.246 . S
O166 Co158 2.286 . S
O166 C177 1.259 . S
O167 Co158 2.069 . S
O167 C177 1.289 . S
O168 Co158 2.015 . S
O168 C178 1.257 . S
O169 Co154 2.106 1_655 S
O169 C179 1.287 . S
O170 Co159 1.976 . S
O170 C179 1.251 . S
O171 Co158 2.264 . S
O171 Co159 2.327 . S
O171 C180 1.257 . S
O172 Co159 2.073 . S
O172 C180 1.245 . S
C173 O181 1.259 . S
C173 O182 1.289 . S
C174 O183 1.246 . S
C174 O184 1.257 . S
C175 O163 1.251 . S
C175 O164 1.274 . S
C176 O161 1.245 . S
C176 O162 1.257 . S
C177 O166 1.259 . S
C177 O167 1.289 . S
C178 O165 1.246 . S
C178 O168 1.257 . S
C179 O169 1.287 . S
C179 O170 1.251 . S
C180 O171 1.257 . S
C180 O172 1.245 . S
O181 Co152 2.286 . S
O181 C173 1.259 . S
O182 Co152 2.069 . S
O182 C173 1.289 . S
O183 Co154 2.143 . S
O183 C174 1.246 . S
O184 Co152 2.015 . S
O184 C174 1.257 . S
Co185 O188 2.042 . S
Co185 O195 2.264 . S
Co185 O214 2.286 . S
Co185 O215 2.069 . S
Co185 O217 2.015 . S
Co186 O188 2.122 . S
Co186 O194 2.073 . S
Co186 O195 2.327 . S
Co186 O196 1.976 . S
Co187 O188 2.087 1_545 S
Co187 O190 2.087 . S
Co187 O197 2.111 1_545 S
Co187 O198 2.143 . S
Co187 O202 2.111 . S
Co187 O216 2.143 1_545 S
O188 Co185 2.042 . S
O188 Co186 2.122 . S
O188 Co187 2.087 1_565 S
O188 H189 0.980 1_565 S
H189 O188 0.980 1_545 S
O190 Co187 2.087 . S
O190 Co191 2.042 . S
O190 Co192 2.122 . S
O190 H193 0.980 . S
Co191 O190 2.042 . S
Co191 O199 2.286 . S
Co191 O200 2.069 . S
Co191 O201 2.015 . S
Co191 O204 2.264 . S
Co192 O190 2.122 . S
Co192 O203 1.976 . S
Co192 O204 2.327 . S
Co192 O205 2.073 . S
H193 O190 0.980 . S
O194 Co186 2.073 . S
O194 C209 1.245 . S
O195 Co185 2.264 . S
O195 Co186 2.327 . S
O195 C209 1.257 . S
O196 Co186 1.976 . S
O196 C208 1.251 . S
O197 Co187 2.111 1_565 S
O197 C208 1.274 . S
O198 Co187 2.143 . S
O198 C211 1.246 . S
O199 Co191 2.286 . S
O199 C210 1.259 . S
O200 Co191 2.069 . S
O200 C210 1.289 . S
O201 Co191 2.015 . S
O201 C211 1.257 . S
O202 Co187 2.111 . S
O202 C212 1.274 . S
O203 Co192 1.976 . S
O203 C212 1.251 . S
O204 Co191 2.264 . S
O204 Co192 2.327 . S
O204 C213 1.257 . S
O205 Co192 2.073 . S
O205 C213 1.245 . S
C206 O214 1.259 . S
C206 O215 1.289 . S
C207 O216 1.246 . S
C207 O217 1.257 . S
C208 O196 1.251 . S
C208 O197 1.274 . S
C209 O194 1.245 . S
C209 O195 1.257 . S
C210 O199 1.259 . S
C210 O200 1.289 . S
C211 O198 1.246 . S
C211 O201 1.257 . S
C212 O202 1.274 . S
C212 O203 1.251 . S
C213 O204 1.257 . S
C213 O205 1.245 . S
O214 Co185 2.286 . S
O214 C206 1.259 . S
O215 Co185 2.069 . S
O215 C206 1.289 . S
O216 Co187 2.143 1_565 S
O216 C207 1.246 . S
O217 Co185 2.015 . S
O217 C207 1.257 . S
Co218 O221 2.042 . S
Co218 O228 2.264 . S
Co218 O247 2.286 . S
Co218 O248 2.069 . S
Co218 O250 2.015 . S
Co219 O221 2.122 . S
Co219 O227 2.073 . S
Co219 O228 2.327 . S
Co219 O229 1.976 . S
Co220 O221 2.087 . S
Co220 O223 2.087 1_554 S
Co220 O230 2.111 . S
Co220 O231 2.143 1_554 S
Co220 O235 2.111 1_554 S
Co220 O249 2.143 . S
O221 Co218 2.042 . S
O221 Co219 2.122 . S
O221 Co220 2.087 . S
O221 H222 0.980 . S
H222 O221 0.980 . S
O223 Co220 2.087 1_556 S
O223 Co224 2.042 . S
O223 Co225 2.122 . S
O223 H226 0.980 . S
Co224 O223 2.042 . S
Co224 O232 2.286 . S
Co224 O233 2.069 . S
Co224 O234 2.015 . S
Co224 O237 2.264 . S
Co225 O223 2.122 . S
Co225 O236 1.976 . S
Co225 O237 2.327 . S
Co225 O238 2.073 . S
H226 O223 0.980 . S
O227 Co219 2.073 . S
O227 C242 1.245 . S
O228 Co218 2.264 . S
O228 Co219 2.327 . S
O228 C242 1.257 . S
O229 Co219 1.976 . S
O229 C241 1.251 . S
O230 Co220 2.111 . S
O230 C241 1.274 . S
O231 Co220 2.143 1_556 S
O231 C244 1.246 . S
O232 Co224 2.286 . S
O232 C243 1.259 . S
O233 Co224 2.069 . S
O233 C243 1.289 . S
O234 Co224 2.015 . S
O234 C244 1.257 . S
O235 Co220 2.111 1_556 S
O235 C245 1.274 . S
O236 Co225 1.976 . S
O236 C245 1.251 . S
O237 Co224 2.264 . S
O237 Co225 2.327 . S
O237 C246 1.257 . S
O238 Co225 2.073 . S
O238 C246 1.245 . S
C239 O247 1.259 . S
C239 O248 1.289 . S
C240 O249 1.246 . S
C240 O250 1.257 . S
C241 O229 1.251 . S
C241 O230 1.274 . S
C242 O227 1.245 . S
C242 O228 1.257 . S
C243 O232 1.259 . S
C243 O233 1.289 . S
C244 O231 1.246 . S
C244 O234 1.257 . S
C245 O235 1.274 . S
C245 O236 1.251 . S
C246 O237 1.257 . S
C246 O238 1.245 . S
O247 Co218 2.286 . S
O247 C239 1.259 . S
O248 Co218 2.069 . S
O248 C239 1.289 . S
O249 Co220 2.143 . S
O249 C240 1.246 . S
O250 Co218 2.015 . S
O250 C240 1.257 . S
C251 C252 1.170 . S
C251 C253 1.380 . S
C252 C251 1.170 . S
C253 C251 1.380 . S
C253 C254 1.170 . S
C254 C253 1.170 . S
C255 C256 1.170 . S
C255 C257 1.380 . S
C256 C255 1.170 . S
C257 C255 1.380 . S
C257 C258 1.170 . S
C258 C257 1.170 . S
C259 C260 1.170 . S
C259 C261 1.380 . S
C260 C259 1.170 . S
C261 C259 1.380 . S
C261 C262 1.170 . S
C262 C261 1.170 . S
C263 C264 1.170 . S
C263 C265 1.380 . S
C264 C263 1.170 . S
C265 C263 1.380 . S
C265 C266 1.170 . S
C266 C265 1.170 . S
C267 C268 1.170 . S
C267 C269 1.380 . S
C268 C267 1.170 . S
C269 C267 1.380 . S
C269 C270 1.170 . S
C270 C269 1.170 . S
C271 C272 1.170 . S
C271 C273 1.380 . S
C272 C271 1.170 . S
C273 C271 1.380 . S
C273 C274 1.170 . S
C274 C273 1.170 . S
C275 C276 1.170 . S
C275 C277 1.380 . S
C276 C275 1.170 . S
C277 C275 1.380 . S
C277 C278 1.170 . S
C278 C277 1.170 . S
C279 C280 1.170 . S
C279 C281 1.380 . S
C280 C279 1.170 . S
C281 C279 1.380 . S
C281 C282 1.170 . S
C282 C281 1.170 . S
C283 C284 1.170 . S
C283 C285 1.380 . S
C284 C283 1.170 . S
C285 C283 1.380 . S
C285 C286 1.170 . S
C286 C285 1.170 . S
C287 C288 1.170 . S
C287 C289 1.380 . S
C288 C287 1.170 . S
C289 C287 1.380 . S
C289 C290 1.170 . S
C290 C289 1.170 . S
C291 C292 1.170 . S
C291 C293 1.380 . S
C292 C291 1.170 . S
C293 C291 1.380 . S
C293 C294 1.170 . S
C294 C293 1.170 . S
C295 C296 1.170 . S
C295 C297 1.380 . S
C296 C295 1.170 . S
C297 C295 1.380 . S
C297 C298 1.170 . S
C298 C297 1.170 . S
C299 C300 1.170 . S
C299 C301 1.380 . S
C300 C299 1.170 . S
C301 C299 1.380 . S
C301 C302 1.170 . S
C302 C301 1.170 . S
C303 C304 1.170 . S
C303 C305 1.380 . S
C304 C303 1.170 . S
C305 C303 1.380 . S
C305 C306 1.170 . S
C306 C305 1.170 . S
C307 C308 1.170 . S
C307 C309 1.380 . S
C308 C307 1.170 . S
C309 C307 1.380 . S
C309 C310 1.170 . S
C310 C309 1.170 . S
C311 C312 1.170 . S
C311 C313 1.380 . S
C312 C311 1.170 . S
C313 C311 1.380 . S
C313 C314 1.170 . S
C314 C313 1.170 . S
C315 C316 1.170 . S
C315 C317 1.380 . S
C316 C315 1.170 . S
C317 C315 1.380 . S
C317 C318 1.170 . S
C318 C317 1.170 . S
C319 C320 1.170 . S
C319 C321 1.380 . S
C320 C319 1.170 . S
C321 C319 1.380 . S
C321 C322 1.170 . S
C322 C321 1.170 . S
C323 C324 1.170 . S
C323 C325 1.380 . S
C324 C323 1.170 . S
C325 C323 1.380 . S
C325 C326 1.170 . S
C326 C325 1.170 . S
C327 C328 1.170 . S
C327 C329 1.380 . S
C328 C327 1.170 . S
C329 C327 1.380 . S
C329 C330 1.170 . S
C330 C329 1.170 . S
C331 C332 1.170 . S
C331 C333 1.380 . S
C332 C331 1.170 . S
C333 C331 1.380 . S
C333 C334 1.170 . S
C334 C333 1.170 . S
C335 C336 1.170 . S
C335 C337 1.380 . S
C336 C335 1.170 . S
C337 C335 1.380 . S
C337 C338 1.170 . S
C338 C337 1.170 . S
C339 C340 1.170 . S
C339 C341 1.380 . S
C340 C339 1.170 . S
C341 C339 1.380 . S
C341 C342 1.170 . S
C342 C341 1.170 . S
C343 C344 1.170 . S
C343 C345 1.380 . S
C344 C343 1.170 . S
C345 C343 1.380 . S
C345 C346 1.170 . S
C346 C345 1.170 . S
C254 C176 1.486 . S
C252 C11 1.426 . S
C258 C212 1.306 . S
C256 C25 1.355 . S
C262 C177 1.752 . S
C260 C40 1.767 . S
C266 C207 1.590 . S
C264 C59 1.664 . S
C270 C174 1.450 . S
C268 C82 1.513 . S
C272 C101 2.026 . S
C274 C210 2.009 . S
C276 C116 0.584 . S
C278 C179 0.740 . S
C282 C209 1.564 . S
C280 C144 1.354 . S
C286 C213 1.915 . S
C284 C2 1.946 . S
C290 C178 1.070 . S
C288 C21 1.128 . S
C294 C206 1.651 . S
C292 C49 1.390 . S
C298 C175 1.235 . S
C296 C63 1.381 . S
C302 C208 1.833 . S
C300 C78 1.928 . S
C304 C106 1.339 . S
C306 C173 1.341 . S
C308 C120 1.145 . S
C310 C211 1.146 . S
C314 C180 1.676 . S
C312 C135 1.761 . S
C318 C242 1.880 . S
C316 C6 2.004 . S
C320 C87 1.678 . S
C322 C245 1.796 . S
C326 C244 2.112 . S
C324 C97 2.168 . S
C328 C125 0.965 . S
C330 C243 1.049 . S
C334 C246 1.954 . S
C332 C139 2.085 . S
C336 C44 1.966 . S
C338 C240 1.909 . S
C342 C239 1.933 . S
C340 C68 1.846 . S
C344 C30 0.821 . S
C346 C241 0.890 . S
