# Generated by pormake.
# Topology pto, (3,4)-cn, num edge types: 1
# Building blocks:
#     Node 0, Type 0, BuildingBlock: OLANEW_clean_sbu_2, # of connection points: 3
#     Node 1, Type 0, BuildingBlock: OLANEW_clean_sbu_2, # of connection points: 3
#     Node 2, Type 0, BuildingBlock: OLANEW_clean_sbu_2, # of connection points: 3
#     Node 3, Type 0, BuildingBlock: OLANEW_clean_sbu_2, # of connection points: 3
#     Node 4, Type 0, BuildingBlock: OLANEW_clean_sbu_2, # of connection points: 3
#     Node 5, Type 0, BuildingBlock: OLANEW_clean_sbu_2, # of connection points: 3
#     Node 6, Type 0, BuildingBlock: OLANEW_clean_sbu_2, # of connection points: 3
#     Node 7, Type 0, BuildingBlock: OLANEW_clean_sbu_2, # of connection points: 3
#     Node 8, Type 1, BuildingBlock: GIZVER_clean_linker_0, # of connection points: 4
#     Node 9, Type 1, BuildingBlock: GIZVER_clean_linker_0, # of connection points: 4
#     Node 10, Type 1, BuildingBlock: GIZVER_clean_linker_0, # of connection points: 4
#     Node 11, Type 1, BuildingBlock: GIZVER_clean_linker_0, # of connection points: 4
#     Node 12, Type 1, BuildingBlock: GIZVER_clean_linker_0, # of connection points: 4
#     Node 13, Type 1, BuildingBlock: GIZVER_clean_linker_0, # of connection points: 4
#     Edge 14, Type (0, 1), BuildingBlock: EZIPEK_clean_linker_0, # of connection points: 2
#     Edge 15, Type (0, 1), BuildingBlock: EZIPEK_clean_linker_0, # of connection points: 2
#     Edge 16, Type (0, 1), BuildingBlock: EZIPEK_clean_linker_0, # of connection points: 2
#     Edge 17, Type (0, 1), BuildingBlock: EZIPEK_clean_linker_0, # of connection points: 2
#     Edge 18, Type (0, 1), BuildingBlock: EZIPEK_clean_linker_0, # of connection points: 2
#     Edge 19, Type (0, 1), BuildingBlock: EZIPEK_clean_linker_0, # of connection points: 2
#     Edge 20, Type (0, 1), BuildingBlock: EZIPEK_clean_linker_0, # of connection points: 2
#     Edge 21, Type (0, 1), BuildingBlock: EZIPEK_clean_linker_0, # of connection points: 2
#     Edge 22, Type (0, 1), BuildingBlock: EZIPEK_clean_linker_0, # of connection points: 2
#     Edge 23, Type (0, 1), BuildingBlock: EZIPEK_clean_linker_0, # of connection points: 2
#     Edge 24, Type (0, 1), BuildingBlock: EZIPEK_clean_linker_0, # of connection points: 2
#     Edge 25, Type (0, 1), BuildingBlock: EZIPEK_clean_linker_0, # of connection points: 2
#     Edge 26, Type (0, 1), BuildingBlock: EZIPEK_clean_linker_0, # of connection points: 2
#     Edge 27, Type (0, 1), BuildingBlock: EZIPEK_clean_linker_0, # of connection points: 2
#     Edge 28, Type (0, 1), BuildingBlock: EZIPEK_clean_linker_0, # of connection points: 2
#     Edge 29, Type (0, 1), BuildingBlock: EZIPEK_clean_linker_0, # of connection points: 2
#     Edge 30, Type (0, 1), BuildingBlock: EZIPEK_clean_linker_0, # of connection points: 2
#     Edge 31, Type (0, 1), BuildingBlock: EZIPEK_clean_linker_0, # of connection points: 2
#     Edge 32, Type (0, 1), BuildingBlock: EZIPEK_clean_linker_0, # of connection points: 2
#     Edge 33, Type (0, 1), BuildingBlock: EZIPEK_clean_linker_0, # of connection points: 2
#     Edge 34, Type (0, 1), BuildingBlock: EZIPEK_clean_linker_0, # of connection points: 2
#     Edge 35, Type (0, 1), BuildingBlock: EZIPEK_clean_linker_0, # of connection points: 2
#     Edge 36, Type (0, 1), BuildingBlock: EZIPEK_clean_linker_0, # of connection points: 2
#     Edge 37, Type (0, 1), BuildingBlock: EZIPEK_clean_linker_0, # of connection points: 2
# Relax obj value: 0.018
# Max RMSD: 0.159
# Mean RMSD: 0.071
data_MOF--net-pto--node1-OLANEW_clean_sbu_2--node2-GIZVER_clean_linker_0--edge1-EZIPEK_clean_linker_0
_symmetry_space_group_name_H-M    P1
_symmetry_Int_Tables_number       1
_symmetry_cell_setting            triclinic
loop_
_symmetry_equiv_pos_as_xyz
'x, y, z'
_cell_length_a     39.24232
_cell_length_b     33.371714
_cell_length_c     23.506956
_cell_angle_alpha  94.485179
_cell_angle_beta   89.79058
_cell_angle_gamma 100.85539
loop_
_atom_site_label
_atom_site_type_symbol
_atom_site_fract_x
_atom_site_fract_y
_atom_site_fract_z
_atom_type_partial_charge
O0 O 0.33759 0.41913 0.21334 0.0
Cd1 Cd 0.27906 0.37853 0.21819 0.0
O2 O 0.33862 0.44997 0.29997 0.0
Cd3 Cd 0.28232 0.4309 0.30471 0.0
O4 O 0.23026 0.43467 0.27526 0.0
C5 C 0.22972 0.44957 0.22722 0.0
O6 O 0.2589 0.45922 0.19958 0.0
C7 C 0.35391 0.4426 0.25361 0.0
C8 C 0.28463 0.30855 0.27117 0.0
O9 O 0.28596 0.30843 0.21669 0.0
O10 O 0.27932 0.34089 0.30013 0.0
O11 O 0.27901 0.97502 0.9602 0.0
Cd12 Cd 0.23906 0.01798 0.93241 0.0
O13 O 0.24025 0.91884 0.94204 0.0
Cd14 Cd 0.22038 0.8527 0.93468 0.0
O15 O 0.19059 0.79143 0.9098 0.0
C16 C 0.17959 0.76459 0.94447 0.0
O17 O 0.18644 0.77277 -0.00075 0.0
C18 C 0.27098 0.9362 0.95674 0.0
C19 C 0.25576 0.03542 0.82131 0.0
O20 O 0.27097 0.05842 0.86349 0.0
O21 O 0.23172 0.0052 0.8314 0.0
O22 O 0.83984 0.75613 0.20911 0.0
Cd23 Cd 0.83491 0.70379 0.12876 0.0
O24 O 0.78835 0.76445 0.18284 0.0
Cd25 Cd 0.7413 0.79097 0.18675 0.0
O26 O 0.69143 0.80583 0.16357 0.0
C27 C 0.66267 0.79057 0.18543 0.0
O28 O 0.66208 0.76636 0.22701 0.0
C29 C 0.8144 0.77459 0.21644 0.0
C30 C 0.88875 0.66018 0.1131 0.0
O31 O 0.88947 0.6934 0.08879 0.0
O32 O 0.86355 0.6485 0.14646 0.0
O33 O 0.85484 0.32794 0.80752 0.0
Cd34 Cd 0.81685 0.26139 0.81698 0.0
O35 O 0.81084 0.35891 0.82465 0.0
Cd36 Cd 0.78439 0.41089 0.84182 0.0
O37 O 0.74546 0.44392 0.87991 0.0
C38 C 0.71925 0.45033 0.85281 0.0
O39 O 0.71573 0.43953 0.79789 0.0
C40 C 0.84297 0.36087 0.81468 0.0
C41 C 0.82019 0.20429 0.72506 0.0
O42 O 0.79744 0.22729 0.72606 0.0
O43 O 0.84144 0.20814 0.76726 0.0
O44 O 0.83968 0.81771 0.73549 0.0
Cd45 Cd 0.84071 0.78414 0.82452 0.0
O46 O 0.7872 0.82804 0.75455 0.0
Cd47 Cd 0.73856 0.84937 0.7409 0.0
O48 O 0.68623 0.85897 0.76251 0.0
C49 C 0.66884 0.8328 0.79311 0.0
O50 O 0.68184 0.8009 0.80508 0.0
C51 C 0.81338 0.8323 0.72201 0.0
C52 C 0.88059 0.72304 0.81872 0.0
O53 O 0.84814 0.71472 0.80619 0.0
O54 O 0.89446 0.76031 0.83352 0.0
O55 O 0.83552 0.31172 0.16166 0.0
Cd56 Cd 0.77927 0.27325 0.18929 0.0
O57 O 0.82069 0.37226 0.17728 0.0
Cd58 Cd 0.76625 0.35335 0.20008 0.0
O59 O 0.71758 0.37567 0.19285 0.0
C60 C 0.70443 0.39463 0.23377 0.0
O61 O 0.71814 0.39784 0.28521 0.0
C62 C 0.84298 0.35051 0.1621 0.0
C63 C 0.78863 0.21043 0.25546 0.0
O64 O 0.78591 0.20414 0.20106 0.0
O65 O 0.78667 0.24599 0.27853 0.0
O66 O 0.34565 0.45923 0.84283 0.0
Cd67 Cd 0.29447 0.42104 0.78903 0.0
O68 O 0.34978 0.40787 0.89437 0.0
Cd69 Cd 0.30933 0.36504 0.8471 0.0
O70 O 0.30119 0.31765 0.7772 0.0
C71 C 0.31857 0.32672 0.7328 0.0
O72 O 0.33786 0.36337 0.73154 0.0
C73 C 0.36059 0.44446 0.88199 0.0
C74 C 0.23328 0.45196 0.80527 0.0
O75 O 0.23863 0.42186 0.83248 0.0
O76 O 0.25689 0.46754 0.77134 0.0
O77 O 0.34347 0.75158 0.32014 0.0
Cd78 Cd 0.29844 0.75156 0.39126 0.0
O79 O 0.30076 0.74047 0.25771 0.0
Cd80 Cd 0.27856 0.73713 0.17175 0.0
O81 O 0.24188 0.71133 0.10259 0.0
C82 C 0.21071 0.71677 0.10629 0.0
O83 O 0.20271 0.73941 0.15076 0.0
C84 C 0.3331 0.74918 0.26869 0.0
C85 C 0.29758 0.83385 0.421 0.0
O86 O 0.31502 0.81378 0.45039 0.0
O87 O 0.27957 0.8148 0.37843 0.0
H88 H -0.00076 0.43011 0.05783 0.0
H89 H 0.01864 0.55951 0.03487 0.0
H90 H 0.92426 0.50317 0.11264 0.0
H91 H 0.04491 0.45664 0.99639 0.0
H92 H 0.04298 0.50387 0.96715 0.0
H93 H 0.08192 0.45575 0.08297 0.0
H94 H 0.16519 0.55924 0.11371 0.0
H95 H 0.08067 0.56727 0.00252 0.0
C96 C 0.99159 0.45972 0.06327 0.0
C97 C 0.95948 0.46278 0.08794 0.0
C98 C 0.01286 0.49434 0.0429 0.0
C99 C 0.00257 0.53264 0.05052 0.0
C100 C 0.97053 0.53587 0.07556 0.0
C101 C 0.94921 0.50085 0.09395 0.0
C102 C 0.04442 0.48949 0.00802 0.0
C103 C 0.07758 0.50924 0.03907 0.0
C104 C 0.09374 0.487 0.07587 0.0
C105 C 0.12591 0.50455 0.10161 0.0
C106 C 0.14067 0.54525 0.09309 0.0
C107 C 0.12413 0.56818 0.0584 0.0
C108 C 0.09298 0.54986 0.0305 0.0
H109 H 0.06218 0.62058 0.81858 0.0
H110 H 0.07663 0.49712 0.77367 0.0
H111 H 0.15353 0.58104 0.87446 0.0
H112 H 0.03891 0.57529 0.72341 0.0
H113 H 0.03306 0.52144 0.72567 0.0
H114 H 0.00286 0.61576 0.78018 0.0
H115 H 0.90394 0.54871 0.82815 0.0
H116 H 0.98646 0.48447 0.78196 0.0
C117 C 0.07642 0.59613 0.82279 0.0
C118 C 0.10831 0.60456 0.85257 0.0
C119 C 0.06436 0.55709 0.79482 0.0
C120 C 0.08465 0.52662 0.79727 0.0
C121 C 0.11714 0.5355 0.82498 0.0
C122 C 0.1281 0.57388 0.85418 0.0
C123 C 0.03419 0.55044 0.75303 0.0
C124 C -0.00059 0.55036 0.78097 0.0
C125 C 0.98676 0.58705 0.78991 0.0
C126 C 0.95251 0.58656 0.80754 0.0
C127 C 0.93082 0.54923 0.81676 0.0
C128 C 0.94284 0.51233 0.80722 0.0
C129 C 0.97742 0.51307 0.79067 0.0
H130 H 0.32538 0.14573 0.39354 0.0
H131 H 0.34743 0.17012 0.57397 0.0
H132 H 0.30249 0.25438 0.4841 0.0
H133 H 0.36045 0.10577 0.44003 0.0
H134 H 0.37613 0.12101 0.51115 0.0
H135 H 0.3338 0.03625 0.43293 0.0
H136 H 0.28208 0.97939 0.57565 0.0
H137 H 0.32128 0.10805 0.58993 0.0
C138 C 0.32416 0.16407 0.43337 0.0
C139 C 0.31287 0.2016 0.43308 0.0
C140 C 0.33599 0.15169 0.48455 0.0
C141 C 0.33616 0.1774 0.53502 0.0
C142 C 0.32289 0.21352 0.53526 0.0
C143 C 0.31141 0.22552 0.48426 0.0
C144 C 0.35223 0.11396 0.4841 0.0
C145 C 0.32864 0.0775 0.50704 0.0
C146 C 0.32336 0.03907 0.4755 0.0
C147 C 0.3068 0.00362 0.50033 0.0
C148 C 0.29427 0.00676 0.55595 0.0
C149 C 0.29901 0.04463 0.58748 0.0
C150 C 0.31626 0.07975 0.56332 0.0
H151 H 0.42276 0.89396 0.96407 0.0
H152 H 0.45954 0.81833 0.08204 0.0
H153 H 0.35081 0.81705 0.06454 0.0
H154 H 0.48277 0.90173 0.97701 0.0
H155 H 0.48794 0.902 0.05159 0.0
H156 H 0.5154 0.86401 0.91343 0.0
H157 H 0.59662 0.81447 0.98769 0.0
H158 H 0.51693 0.84995 0.09445 0.0
C159 C 0.41785 0.86962 0.99269 0.0
C160 C 0.38357 0.85503 0.0089 0.0
C161 C 0.44587 0.85631 0.0181 0.0
C162 C 0.43872 0.82714 0.05896 0.0
C163 C 0.40447 0.81349 0.07616 0.0
C164 C 0.37709 0.82631 0.04949 0.0
C165 C 0.48213 0.88112 0.01217 0.0
C166 C 0.51093 0.85677 0.00417 0.0
C167 C 0.52614 0.8527 0.95005 0.0
C168 C 0.55738 0.83812 0.94444 0.0
C169 C 0.57213 0.82501 0.99195 0.0
C170 C 0.55734 0.82854 0.04576 0.0
C171 C 0.52687 0.84463 0.05203 0.0
H172 H 0.83129 0.04985 0.3659 0.0
H173 H 0.84528 0.04943 0.54774 0.0
H174 H 0.80287 0.14519 0.47906 0.0
H175 H 0.8728 0.01344 0.40358 0.0
H176 H 0.88185 0.01675 0.47791 0.0
H177 H 0.83871 0.95235 0.35951 0.0
H178 H 0.81118 0.85131 0.46387 0.0
H179 H 0.83833 0.97381 0.54264 0.0
C180 C 0.82751 0.06224 0.40899 0.0
C181 C 0.81464 0.09874 0.41738 0.0
C182 C 0.83863 0.04403 0.4559 0.0
C183 C 0.83538 0.06196 0.51144 0.0
C184 C 0.82223 0.09828 0.51977 0.0
C185 C 0.81166 0.11624 0.47275 0.0
C186 C 0.86023 0.0112 0.44605 0.0
C187 C 0.84005 0.96829 0.45053 0.0
C188 C 0.83341 0.94109 0.40129 0.0
C189 C 0.82306 0.8988 0.40589 0.0
C190 C 0.81804 0.88403 0.46008 0.0
C191 C 0.82264 0.91095 0.50948 0.0
C192 C 0.83311 0.9532 0.50442 0.0
H193 H 0.5184 0.53724 -0.00189 0.0
H194 H 0.52173 0.52922 0.18066 0.0
H195 H 0.42728 0.48302 0.08611 0.0
H196 H 0.56582 0.58008 0.0582 0.0
H197 H 0.56806 0.57492 0.1331 0.0
H198 H 0.59505 0.53917 0.99188 0.0
H199 H 0.65569 0.45883 0.05899 0.0
H200 H 0.58459 0.51075 0.16812 0.0
C201 C 0.50586 0.52794 0.03738 0.0
C202 C 0.47076 0.50889 0.03631 0.0
C203 C 0.52461 0.53515 0.0894 0.0
C204 C 0.50778 0.52333 0.14026 0.0
C205 C 0.47259 0.50476 0.1389 0.0
C206 C 0.45451 0.49745 0.08699 0.0
C207 C 0.56184 0.55739 0.09101 0.0
C208 C 0.58651 0.52794 0.08096 0.0
C209 C 0.60178 0.52291 0.02707 0.0
C210 C 0.62666 0.49781 0.01923 0.0
C211 C 0.63594 0.47756 0.06486 0.0
C212 C 0.62099 0.48212 0.11841 0.0
C213 C 0.59581 0.50678 0.12634 0.0
C214 C 0.18668 0.43591 0.14702 0.0
C215 C 0.19696 0.45591 0.20132 0.0
C216 C 0.15036 0.49524 0.19672 0.0
C217 C 0.14493 0.4814 0.13831 0.0
N218 N 0.15729 0.4376 0.05721 0.0
N219 N 0.18941 0.5056 0.27837 0.0
C220 C 0.16243 0.45086 0.1135 0.0
C221 C 0.17857 0.48527 0.22696 0.0
N222 N 0.19983 0.4022 0.128 0.0
N223 N 0.12844 0.51802 0.22297 0.0
H224 H 0.20983 0.49915 0.30206 0.0
H225 H 0.1797 0.53075 0.29586 0.0
H226 H 0.10742 0.52536 0.20163 0.0
H227 H 0.12896 0.5261 0.26669 0.0
H228 H 0.19101 0.3838 0.09119 0.0
H229 H 0.21728 0.39028 0.15212 0.0
H230 H 0.17289 0.42006 0.03459 0.0
H231 H 0.13817 0.44554 0.03226 0.0
C232 C 0.12774 0.70653 0.9439 0.0
C233 C 0.16077 0.7235 0.92218 0.0
C234 C 0.15507 0.66654 0.84862 0.0
C235 C 0.12432 0.64697 0.87453 0.0
N236 N 0.08343 0.64576 0.95145 0.0
N237 N 0.20943 0.71402 0.86276 0.0
C238 C 0.11117 0.66623 0.92356 0.0
C239 C 0.17543 0.70196 0.87694 0.0
N240 N 0.11144 0.72948 0.9819 0.0
N241 N 0.16443 0.65183 0.79611 0.0
H242 H 0.22594 0.73858 0.88442 0.0
H243 H 0.22226 0.69684 0.83395 0.0
H244 H 0.14959 0.62662 0.77298 0.0
H245 H 0.18483 0.66725 0.77299 0.0
H246 H 0.08596 0.72018 0.99486 0.0
H247 H 0.12223 0.7594 0.99681 0.0
H248 H 0.07521 0.65628 0.99109 0.0
H249 H 0.07011 0.61674 0.93688 0.0
C250 C 0.91658 0.61433 0.04526 0.0
C251 C 0.91519 0.63437 0.10061 0.0
C252 C 0.95694 0.59589 0.13666 0.0
C253 C 0.95773 0.57529 0.08169 0.0
N254 N 0.94613 0.57203 0.98097 0.0
N255 N 0.93956 0.65179 0.19514 0.0
C256 C 0.94022 0.58714 0.03499 0.0
C257 C 0.93719 0.6275 0.14516 0.0
N258 N 0.89403 0.61963 0.00342 0.0
N259 N 0.97422 0.58416 0.18099 0.0
H260 H 0.92558 0.67536 0.20229 0.0
H261 H 0.95737 0.65102 0.22755 0.0
H262 H 0.99062 0.56293 0.17526 0.0
H263 H 0.97136 0.59409 0.22352 0.0
H264 H 0.891 0.60268 0.9641 0.0
H265 H 0.87635 0.63927 0.00905 0.0
H266 H 0.93489 0.57968 0.94437 0.0
H267 H 0.96503 0.55442 0.97222 0.0
C268 C 0.88134 0.41251 0.75924 0.0
C269 C 0.86685 0.4008 0.81226 0.0
C270 C 0.90498 0.4596 0.86219 0.0
C271 C 0.91779 0.47286 0.80898 0.0
N272 N 0.91349 0.46651 0.70616 0.0
N273 N 0.86049 0.41626 0.91329 0.0
C274 C 0.90474 0.45052 0.75722 0.0
C275 C 0.87713 0.42552 0.86346 0.0
N276 N 0.87284 0.38719 0.71076 0.0
N277 N 0.92064 0.4786 0.91145 0.0
H278 H 0.84113 0.39047 0.91652 0.0
H279 H 0.86411 0.43553 0.95066 0.0
H280 H 0.94279 0.50129 0.91107 0.0
H281 H 0.91396 0.46965 0.95203 0.0
H282 H 0.88576 0.39142 0.67229 0.0
H283 H 0.85408 0.36044 0.70967 0.0
H284 H 0.9018 0.45404 0.66745 0.0
H285 H 0.93046 0.49428 0.70274 0.0
C286 C 0.32548 0.26717 0.30745 0.0
C287 C 0.29092 0.27317 0.30092 0.0
C288 C 0.27039 0.21965 0.36539 0.0
C289 C 0.30533 0.21893 0.37936 0.0
N290 N 0.3666 0.24165 0.3651 0.0
N291 N 0.22996 0.25476 0.32058 0.0
C292 C 0.33304 0.24187 0.34981 0.0
C293 C 0.26311 0.24886 0.32846 0.0
N294 N 0.35113 0.28632 0.27399 0.0
N295 N 0.24441 0.19245 0.38797 0.0
H296 H 0.2237 0.27437 0.29146 0.0
H297 H 0.20887 0.24157 0.34412 0.0
H298 H 0.24941 0.17079 0.41497 0.0
H299 H 0.21836 0.18894 0.37657 0.0
H300 H 0.37613 0.28005 0.27252 0.0
H301 H 0.34683 0.30635 0.24407 0.0
H302 H 0.38792 0.26174 0.35087 0.0
H303 H 0.37324 0.22267 0.39473 0.0
C304 C 0.31425 0.92028 0.02481 0.0
C305 C 0.29768 0.9123 0.97055 0.0
C306 C 0.33618 0.8643 0.94184 0.0
C307 C 0.35502 0.87591 0.99371 0.0
N308 N 0.3656 0.91963 0.08113 0.0
N309 N 0.29555 0.881 0.8741 0.0
C310 C 0.34509 0.9053 0.03421 0.0
C311 C 0.30917 0.88522 0.92815 0.0
N312 N 0.29972 0.94095 0.06811 0.0
N313 N 0.34369 0.83284 0.90623 0.0
H314 H 0.27585 0.8958 0.86222 0.0
H315 H 0.30554 0.86533 0.83987 0.0
H316 H 0.36396 0.81774 0.9143 0.0
H317 H 0.32839 0.8198 0.87101 0.0
H318 H 0.30858 0.94401 0.11023 0.0
H319 H 0.27657 0.95145 0.06322 0.0
H320 H 0.36169 0.94425 0.10879 0.0
H321 H 0.38844 0.90942 0.08984 0.0
C322 C 0.84571 0.83901 0.27027 0.0
C323 C 0.81562 0.80783 0.26288 0.0
C324 C 0.78813 0.84191 0.34177 0.0
C325 C 0.82005 0.8691 0.35452 0.0
N326 N 0.8817 0.88704 0.33751 0.0
N327 N 0.76072 0.77513 0.30027 0.0
C328 C 0.84958 0.86597 0.32055 0.0
C329 C 0.78736 0.80809 0.30082 0.0
N330 N 0.87011 0.84395 0.22849 0.0
N331 N 0.7584 0.84873 0.36803 0.0
H332 H 0.75987 0.74876 0.27305 0.0
H333 H 0.7413 0.7723 0.33084 0.0
H334 H 0.75784 0.87373 0.39737 0.0
H335 H 0.73391 0.83203 0.35629 0.0
H336 H 0.89084 0.86867 0.22978 0.0
H337 H 0.86755 0.82619 0.18968 0.0
H338 H 0.9044 0.88244 0.31698 0.0
H339 H 0.88618 0.90579 0.37535 0.0
C340 C 0.65825 0.44327 0.89005 0.0
C341 C 0.69185 0.46755 0.88461 0.0
C342 C 0.67822 0.51849 0.95774 0.0
C343 C 0.64529 0.4934 0.96471 0.0
N344 N 0.60004 0.43885 0.92799 0.0
N345 N 0.73027 0.53277 0.90088 0.0
C346 C 0.63395 0.45823 0.92714 0.0
C347 C 0.70064 0.50676 0.91446 0.0
N348 N 0.65041 0.40475 0.86327 0.0
N349 N 0.68866 0.55238 0.99448 0.0
H350 H 0.74693 0.52501 0.86889 0.0
H351 H 0.73675 0.56312 0.9174 0.0
H352 H 0.6722 0.56277 0.02485 0.0
H353 H 0.7139 0.56914 0.99664 0.0
H354 H 0.62793 0.38385 0.87095 0.0
H355 H 0.66744 0.39231 0.83616 0.0
H356 H 0.58913 0.41514 0.89833 0.0
H357 H 0.58198 0.44926 0.9553 0.0
C358 C 0.30045 0.0319 0.74615 0.0
C359 C 0.26781 0.0413 0.76245 0.0
C360 C 0.25587 0.05438 0.66401 0.0
C361 C 0.28903 0.04645 0.6483 0.0
N362 N 0.34561 0.03542 0.67508 0.0
N363 N 0.21692 0.06805 0.74062 0.0
C364 C 0.31221 0.03773 0.6897 0.0
C365 C 0.24619 0.05448 0.72241 0.0
N366 N 0.3194 0.01537 0.78373 0.0
N367 N 0.23335 0.06067 0.62282 0.0
H368 H 0.20915 0.06837 0.78313 0.0
H369 H 0.20182 0.08194 0.71486 0.0
H370 H 0.24007 0.06214 0.57994 0.0
H371 H 0.20743 0.06203 0.63032 0.0
H372 H 0.3413 0.00333 0.7723 0.0
H373 H 0.31179 0.01056 0.82559 0.0
H374 H 0.36486 0.03372 0.70466 0.0
H375 H 0.35498 0.03862 0.63378 0.0
C376 C 0.60516 0.76764 0.13408 0.0
C377 C 0.63008 0.79948 0.16207 0.0
C378 C 0.60126 0.85111 0.12464 0.0
C379 C 0.577 0.81935 0.09542 0.0
N380 N 0.54954 0.7485 0.08444 0.0
N381 N 0.64591 0.87007 0.19809 0.0
C382 C 0.57676 0.77791 0.10469 0.0
C383 C 0.62608 0.84081 0.162 0.0
N384 N 0.60991 0.728 0.13194 0.0
N385 N 0.6019 0.89095 0.1141 0.0
H386 H 0.664 0.8632 0.22645 0.0
H387 H 0.64211 0.90016 0.20395 0.0
H388 H 0.58353 0.89983 0.08827 0.0
H389 H 0.62171 0.91497 0.12833 0.0
H390 H 0.59489 0.70424 0.10659 0.0
H391 H 0.63043 0.71905 0.1524 0.0
H392 H 0.54609 0.71804 0.09389 0.0
H393 H 0.52858 0.75556 0.0626 0.0
C394 C 0.85159 0.17991 0.6399 0.0
C395 C 0.82214 0.17439 0.67569 0.0
C396 C 0.79363 0.11622 0.61158 0.0
C397 C 0.82346 0.12108 0.57675 0.0
N398 N 0.88319 0.15204 0.56227 0.0
N399 N 0.76822 0.133 0.70259 0.0
C400 C 0.85327 0.1511 0.5926 0.0
C401 C 0.79402 0.14123 0.66356 0.0
N402 N 0.87702 0.21399 0.64914 0.0
N403 N 0.76463 0.08847 0.59405 0.0
H404 H 0.76782 0.15055 0.74123 0.0
H405 H 0.7488 0.10694 0.6991 0.0
H406 H 0.76403 0.06843 0.55753 0.0
H407 H 0.74065 0.08678 0.61371 0.0
H408 H 0.89707 0.22232 0.62077 0.0
H409 H 0.87673 0.23599 0.68308 0.0
H410 H 0.90688 0.17013 0.57522 0.0
H411 H 0.88512 0.13223 0.52633 0.0
C412 C 0.4151 0.43634 0.23273 0.0
C413 C 0.3905 0.46194 0.24461 0.0
C414 C 0.43212 0.52064 0.21475 0.0
C415 C 0.45267 0.49326 0.19074 0.0
N416 N 0.46725 0.42641 0.18163 0.0
N417 N 0.37568 0.52919 0.25032 0.0
C418 C 0.44568 0.4516 0.20257 0.0
C419 C 0.39942 0.50464 0.2383 0.0
N420 N 0.40877 0.39746 0.24988 0.0
N421 N 0.44356 0.56177 0.21282 0.0
H422 H 0.35159 0.51879 0.26812 0.0
H423 H 0.37899 0.55945 0.24008 0.0
H424 H 0.46737 0.57366 0.19503 0.0
H425 H 0.4313 0.5839 0.23323 0.0
H426 H 0.42653 0.37788 0.24613 0.0
H427 H 0.38657 0.38603 0.27252 0.0
H428 H 0.46183 0.39472 0.18255 0.0
H429 H 0.49052 0.43763 0.16166 0.0
C430 C 0.92043 0.68275 0.86306 0.0
C431 C 0.90161 0.69033 0.81473 0.0
C432 C 0.91766 0.63086 0.7608 0.0
C433 C 0.93749 0.62427 0.80841 0.0
N434 N 0.96497 0.6495 0.89901 0.0
N435 N 0.88946 0.67804 0.71366 0.0
C436 C 0.94125 0.65209 0.85769 0.0
C437 C 0.90223 0.66618 0.76241 0.0
N438 N 0.91695 0.70316 0.91485 0.0
N439 N 0.91322 0.60308 0.71421 0.0
H440 H 0.87891 0.70443 0.71273 0.0
H441 H 0.89239 0.66413 0.67319 0.0
H442 H 0.92589 0.57822 0.7096 0.0
H443 H 0.89543 0.60332 0.68152 0.0
H444 H 0.9271 0.69581 0.95272 0.0
H445 H 0.90128 0.72508 0.92109 0.0
H446 H 0.97129 0.67131 0.93335 0.0
H447 H 0.98054 0.62732 0.89636 0.0
C448 C 0.887 0.3689 0.08595 0.0
C449 C 0.87775 0.37139 0.14445 0.0
C450 C 0.92972 0.42392 0.16648 0.0
C451 C 0.93554 0.42639 0.10723 0.0
N452 N 0.92194 0.40024 0.00981 0.0
N453 N 0.89067 0.39867 0.24151 0.0
C454 C 0.91527 0.39795 0.06673 0.0
C455 C 0.89952 0.39784 0.18516 0.0
N456 N 0.86822 0.33945 0.04873 0.0
N457 N 0.95348 0.44635 0.2046 0.0
H458 H 0.87016 0.37791 0.25708 0.0
H459 H 0.90273 0.42057 0.27264 0.0
H460 H 0.97601 0.46527 0.19174 0.0
H461 H 0.95261 0.44378 0.24842 0.0
H462 H 0.87522 0.33324 0.00672 0.0
H463 H 0.84644 0.31898 0.06069 0.0
H464 H 0.90643 0.38329 0.97733 0.0
H465 H 0.94279 0.42038 0.99425 0.0
C466 C 0.1862 0.47711 0.86482 0.0
C467 C 0.20018 0.46766 0.81053 0.0
C468 C 0.15762 0.50007 0.76451 0.0
C469 C 0.14231 0.50722 0.81826 0.0
N470 N 0.13613 0.49282 0.91668 0.0
N471 N 0.19123 0.45814 0.70833 0.0
C472 C 0.15464 0.49231 0.86746 0.0
C473 C 0.18336 0.47534 0.76022 0.0
N474 N 0.20395 0.47428 0.9138 0.0
N475 N 0.14932 0.51871 0.7181 0.0
H476 H 0.20866 0.43809 0.70362 0.0
H477 H 0.17744 0.45993 0.67109 0.0
H478 H 0.13147 0.53823 0.7192 0.0
H479 H 0.1627 0.51783 0.67977 0.0
H480 H 0.19656 0.48492 0.95396 0.0
H481 H 0.2279 0.46515 0.91414 0.0
H482 H 0.14247 0.47966 0.95285 0.0
H483 H 0.11266 0.50321 0.91949 0.0
C484 C 0.19195 0.66063 0.02857 0.0
C485 C 0.18284 0.68863 0.07155 0.0
C486 C 0.12728 0.64333 0.08423 0.0
C487 C 0.14013 0.6116 0.05213 0.0
N488 N 0.18167 0.59072 0.98593 0.0
N489 N 0.13466 0.71635 0.1101 0.0
C490 C 0.17121 0.62078 0.0206 0.0
C491 C 0.14802 0.6832 0.08981 0.0
N492 N 0.21965 0.67298 0.9947 0.0
N493 N 0.09662 0.63484 0.11255 0.0
H494 H 0.14875 0.7461 0.10891 0.0
H495 H 0.10864 0.7149 0.1203 0.0
H496 H 0.08038 0.60618 0.10885 0.0
H497 H 0.08814 0.65566 0.14205 0.0
H498 H 0.22662 0.65522 0.95979 0.0
H499 H 0.2332 0.70318 -0.00194 0.0
H500 H 0.20579 0.5939 0.96646 0.0
H501 H 0.16623 0.56179 0.97796 0.0
C502 C 0.78639 0.84561 0.62932 0.0
C503 C 0.81412 0.85489 0.66976 0.0
C504 C 0.84818 0.89972 0.60408 0.0
C505 C 0.81914 0.89392 0.56644 0.0
N506 N 0.7578 0.86901 0.55064 0.0
N507 N 0.86728 0.90023 0.70168 0.0
C508 C 0.7873 0.86931 0.58148 0.0
C509 C 0.84377 0.88487 0.65903 0.0
N510 N 0.76022 0.81274 0.63437 0.0
N511 N 0.88042 0.91733 0.58664 0.0
H512 H 0.86418 0.89176 0.74344 0.0
H513 H 0.88762 0.92478 0.69708 0.0
H514 H 0.88542 0.92679 0.54572 0.0
H515 H 0.90282 0.91844 0.61087 0.0
H516 H 0.74132 0.80244 0.60284 0.0
H517 H 0.75932 0.79323 0.66709 0.0
H518 H 0.73333 0.85449 0.56298 0.0
H519 H 0.75732 0.88679 0.51615 0.0
C520 C 0.68713 0.46206 0.22067 0.0
C521 C 0.67783 0.41875 0.22038 0.0
C522 C 0.62385 0.41953 0.16874 0.0
C523 C 0.63435 0.46231 0.16577 0.0
N524 N 0.66962 0.52593 0.20236 0.0
N525 N 0.63409 0.35764 0.20848 0.0
C526 C 0.66372 0.48412 0.19695 0.0
C527 C 0.64492 0.39796 0.19926 0.0
N528 N 0.71938 0.48177 0.23928 0.0
N529 N 0.59463 0.39951 0.13989 0.0
H530 H 0.64914 0.34147 0.23108 0.0
H531 H 0.60935 0.34121 0.19814 0.0
H532 H 0.57795 0.41509 0.1198 0.0
H533 H 0.58745 0.3678 0.13428 0.0
H534 H 0.72931 0.5124 0.23376 0.0
H535 H 0.73742 0.46703 0.25711 0.0
H536 H 0.68873 0.54375 0.22892 0.0
H537 H 0.65317 0.54277 0.18435 0.0
C538 C 0.35186 0.28744 0.66503 0.0
C539 C 0.31938 0.29557 0.68465 0.0
C540 C 0.28949 0.24368 0.61311 0.0
C541 C 0.32196 0.24004 0.58861 0.0
N542 N 0.384 0.26329 0.58566 0.0
N543 N 0.25722 0.28594 0.67188 0.0
C544 C 0.35319 0.26319 0.61306 0.0
C545 C 0.28808 0.27472 0.65749 0.0
N546 N 0.38128 0.30147 0.69714 0.0
N547 N 0.26009 0.21701 0.59459 0.0
H548 H 0.2551 0.30928 0.7031 0.0
H549 H 0.2342 0.27475 0.6492 0.0
H550 H 0.26021 0.19371 0.56232 0.0
H551 H 0.23627 0.21553 0.61479 0.0
H552 H 0.40501 0.293 0.68752 0.0
H553 H 0.38126 0.31795 0.73671 0.0
H554 H 0.40692 0.28317 0.59845 0.0
H555 H 0.38612 0.24613 0.54723 0.0
C556 C 0.36184 0.73551 0.17549 0.0
C557 C 0.35786 0.76272 0.22343 0.0
C558 C 0.39747 0.818 0.18137 0.0
C559 C 0.39646 0.79294 0.12961 0.0
N560 N 0.37893 0.7279 0.07629 0.0
N561 N 0.36845 0.8314 0.2696 0.0
C562 C 0.3794 0.75141 0.12664 0.0
C563 C 0.37532 0.80419 0.22637 0.0
N564 N 0.34899 0.6946 0.17705 0.0
N565 N 0.41876 0.85559 0.18695 0.0
H566 H 0.35147 0.82336 0.30274 0.0
H567 H 0.37703 0.86291 0.27001 0.0
H568 H 0.43447 0.86773 0.15434 0.0
H569 H 0.42338 0.87318 0.22572 0.0
H570 H 0.35344 0.67255 0.14553 0.0
H571 H 0.33607 0.68231 0.21244 0.0
H572 H 0.3636 0.69891 0.06873 0.0
H573 H 0.39319 0.73834 0.04103 0.0
C574 C 0.76948 0.145 0.30253 0.0
C575 C 0.79618 0.17832 0.2909 0.0
C576 C 0.83678 0.15291 0.35172 0.0
C577 C 0.80903 0.12257 0.36866 0.0
N578 N 0.74897 0.08955 0.36277 0.0
N579 N 0.85501 0.21518 0.30398 0.0
C580 C 0.77542 0.11824 0.34426 0.0
C581 C 0.82987 0.18243 0.3151 0.0
N582 N 0.73848 0.13912 0.27378 0.0
N583 N 0.86982 0.15315 0.37042 0.0
H584 H 0.85167 0.23599 0.27454 0.0
H585 H 0.87868 0.2231 0.32568 0.0
H586 H 0.87576 0.13256 0.39829 0.0
H587 H 0.89181 0.17157 0.35527 0.0
H588 H 0.71913 0.11328 0.27583 0.0
H589 H 0.73285 0.159 0.24458 0.0
H590 H 0.723 0.08766 0.352 0.0
H591 H 0.75285 0.06851 0.39154 0.0
C592 C 0.39225 0.50465 0.9448 0.0
C593 C 0.3927 0.46798 0.91019 0.0
C594 C 0.45058 0.46526 0.9467 0.0
C595 C 0.4494 0.50075 0.98327 0.0
N596 N 0.42514 0.56099 0.00537 0.0
N597 N 0.4262 0.42149 0.86392 0.0
C598 C 0.42225 0.52289 0.97782 0.0
C599 C 0.42327 0.451 0.90642 0.0
N600 N 0.36255 0.52043 0.9492 0.0
N601 N 0.47658 0.4438 0.95283 0.0
H602 H 0.40682 0.411 0.8331 0.0
H603 H 0.449 0.41048 0.85576 0.0
H604 H 0.49758 0.454 0.98068 0.0
H605 H 0.47643 0.41488 0.93255 0.0
H606 H 0.35942 0.54435 0.97874 0.0
H607 H 0.34005 0.50792 0.92577 0.0
H608 H 0.40767 0.58032 -0.00026 0.0
H609 H 0.44702 0.57469 0.02977 0.0
C610 C 0.33281 0.90439 0.44059 0.0
C611 C 0.29969 0.87846 0.43462 0.0
C612 C 0.27211 0.93797 0.45577 0.0
C613 C 0.30498 0.96215 0.47105 0.0
N614 N 0.36656 0.96665 0.48599 0.0
N615 N 0.23738 0.86973 0.4434 0.0
C616 C 0.33541 0.94504 0.46524 0.0
C617 C 0.26912 0.89504 0.44339 0.0
N618 N 0.36174 0.89063 0.42114 0.0
N619 N 0.24381 0.95617 0.45295 0.0
H620 H 0.23402 0.83801 0.43634 0.0
H621 H 0.21469 0.87982 0.45561 0.0
H622 H 0.2453 0.98762 0.46158 0.0
H623 H 0.21978 0.94086 0.43682 0.0
H624 H 0.38599 0.90961 0.41923 0.0
H625 H 0.36087 0.86142 0.4012 0.0
H626 H 0.38863 0.95373 0.48872 0.0
H627 H 0.36979 0.99639 0.5051 0.0
C628 C 0.6062 0.80762 0.81394 0.0
C629 C 0.63588 0.83946 0.82012 0.0
C630 C 0.60483 0.87741 0.88971 0.0
C631 C 0.57859 0.8421 0.89206 0.0
N632 N 0.55285 0.77381 0.85604 0.0
N633 N 0.66457 0.904 0.86753 0.0
C634 C 0.57853 0.80745 0.85329 0.0
C635 C 0.63527 0.87474 0.85792 0.0
N636 N 0.60454 0.77782 0.77019 0.0
N637 N 0.60105 0.91313 0.91945 0.0
H638 H 0.68791 0.90321 0.84672 0.0
H639 H 0.66673 0.92756 0.89985 0.0
H640 H 0.57932 0.91572 0.94412 0.0
H641 H 0.61764 0.94099 0.91516 0.0
H642 H 0.58251 0.75558 0.76042 0.0
H643 H 0.62424 0.77773 0.74025 0.0
H644 H 0.55338 0.74566 0.83392 0.0
H645 H 0.5315 0.77378 0.8827 0.0
loop_
_geom_bond_atom_site_label_1
_geom_bond_atom_site_label_2
_geom_bond_distance
_geom_bond_site_symmetry_2
_ccdc_geom_bond_type
O0 Cd1 2.300 . S
O0 C7 1.275 . S
Cd1 O0 2.300 . S
Cd1 O9 2.381 . S
Cd1 O10 2.378 . S
O2 Cd3 2.385 . S
O2 C7 1.255 . S
Cd3 O2 2.385 . S
Cd3 O4 2.317 . S
O4 Cd3 2.317 . S
O4 C5 1.232 . S
C5 O4 1.232 . S
C5 O6 1.218 . S
O6 C5 1.218 . S
C7 O0 1.275 . S
C7 O2 1.255 . S
C8 O9 1.258 . S
C8 O10 1.256 . S
O9 Cd1 2.381 . S
O9 C8 1.258 . S
O10 Cd1 2.378 . S
O10 C8 1.256 . S
O11 Cd12 2.300 . S
O11 C18 1.275 . S
Cd12 O11 2.300 . S
Cd12 O20 2.381 . S
Cd12 O21 2.378 . S
O13 Cd14 2.385 . S
O13 C18 1.255 . S
Cd14 O13 2.385 . S
Cd14 O15 2.317 . S
O15 Cd14 2.317 . S
O15 C16 1.232 . S
C16 O15 1.232 . S
C16 O17 1.218 . S
O17 C16 1.218 . S
C18 O11 1.275 . S
C18 O13 1.255 . S
C19 O20 1.258 . S
C19 O21 1.256 . S
O20 Cd12 2.381 . S
O20 C19 1.258 . S
O21 Cd12 2.378 . S
O21 C19 1.256 . S
O22 Cd23 2.300 . S
O22 C29 1.275 . S
Cd23 O22 2.300 . S
Cd23 O31 2.381 . S
Cd23 O32 2.378 . S
O24 Cd25 2.385 . S
O24 C29 1.255 . S
Cd25 O24 2.385 . S
Cd25 O26 2.317 . S
O26 Cd25 2.317 . S
O26 C27 1.232 . S
C27 O26 1.232 . S
C27 O28 1.218 . S
O28 C27 1.218 . S
C29 O22 1.275 . S
C29 O24 1.255 . S
C30 O31 1.258 . S
C30 O32 1.256 . S
O31 Cd23 2.381 . S
O31 C30 1.258 . S
O32 Cd23 2.378 . S
O32 C30 1.256 . S
O33 Cd34 2.300 . S
O33 C40 1.275 . S
Cd34 O33 2.300 . S
Cd34 O42 2.381 . S
Cd34 O43 2.378 . S
O35 Cd36 2.385 . S
O35 C40 1.255 . S
Cd36 O35 2.385 . S
Cd36 O37 2.317 . S
O37 Cd36 2.317 . S
O37 C38 1.232 . S
C38 O37 1.232 . S
C38 O39 1.218 . S
O39 C38 1.218 . S
C40 O33 1.275 . S
C40 O35 1.255 . S
C41 O42 1.258 . S
C41 O43 1.256 . S
O42 Cd34 2.381 . S
O42 C41 1.258 . S
O43 Cd34 2.378 . S
O43 C41 1.256 . S
O44 Cd45 2.300 . S
O44 C51 1.275 . S
Cd45 O44 2.300 . S
Cd45 O53 2.381 . S
Cd45 O54 2.378 . S
O46 Cd47 2.385 . S
O46 C51 1.255 . S
Cd47 O46 2.385 . S
Cd47 O48 2.317 . S
O48 Cd47 2.317 . S
O48 C49 1.232 . S
C49 O48 1.232 . S
C49 O50 1.218 . S
O50 C49 1.218 . S
C51 O44 1.275 . S
C51 O46 1.255 . S
C52 O53 1.258 . S
C52 O54 1.256 . S
O53 Cd45 2.381 . S
O53 C52 1.258 . S
O54 Cd45 2.378 . S
O54 C52 1.256 . S
O55 Cd56 2.300 . S
O55 C62 1.275 . S
Cd56 O55 2.300 . S
Cd56 O64 2.381 . S
Cd56 O65 2.378 . S
O57 Cd58 2.385 . S
O57 C62 1.255 . S
Cd58 O57 2.385 . S
Cd58 O59 2.317 . S
O59 Cd58 2.317 . S
O59 C60 1.232 . S
C60 O59 1.232 . S
C60 O61 1.218 . S
O61 C60 1.218 . S
C62 O55 1.275 . S
C62 O57 1.255 . S
C63 O64 1.258 . S
C63 O65 1.256 . S
O64 Cd56 2.381 . S
O64 C63 1.258 . S
O65 Cd56 2.378 . S
O65 C63 1.256 . S
O66 Cd67 2.300 . S
O66 C73 1.275 . S
Cd67 O66 2.300 . S
Cd67 O75 2.381 . S
Cd67 O76 2.378 . S
O68 Cd69 2.385 . S
O68 C73 1.255 . S
Cd69 O68 2.385 . S
Cd69 O70 2.317 . S
O70 Cd69 2.317 . S
O70 C71 1.232 . S
C71 O70 1.232 . S
C71 O72 1.218 . S
O72 C71 1.218 . S
C73 O66 1.275 . S
C73 O68 1.255 . S
C74 O75 1.258 . S
C74 O76 1.256 . S
O75 Cd67 2.381 . S
O75 C74 1.258 . S
O76 Cd67 2.378 . S
O76 C74 1.256 . S
O77 Cd78 2.300 . S
O77 C84 1.275 . S
Cd78 O77 2.300 . S
Cd78 O86 2.381 . S
Cd78 O87 2.378 . S
O79 Cd80 2.385 . S
O79 C84 1.255 . S
Cd80 O79 2.385 . S
Cd80 O81 2.317 . S
O81 Cd80 2.317 . S
O81 C82 1.232 . S
C82 O81 1.232 . S
C82 O83 1.218 . S
O83 C82 1.218 . S
C84 O77 1.275 . S
C84 O79 1.255 . S
C85 O86 1.258 . S
C85 O87 1.256 . S
O86 Cd78 2.381 . S
O86 C85 1.258 . S
O87 Cd78 2.378 . S
O87 C85 1.256 . S
H88 C96 0.930 1_455 S
H89 C99 0.930 1_455 S
H90 C101 0.930 . S
H91 C102 0.970 . S
H92 C102 0.970 . S
H93 C104 0.930 . S
H94 C106 0.930 . S
H95 C108 0.930 . S
C96 H88 0.930 1_655 S
C96 C97 1.382 . S
C96 C98 1.426 1_655 S
C97 C96 1.382 . S
C97 C101 1.389 . S
C98 C96 1.426 1_455 S
C98 C99 1.375 1_455 S
C98 C102 1.532 . S
C99 H89 0.930 1_655 S
C99 C98 1.375 1_655 S
C99 C100 1.416 . S
C100 C99 1.416 . S
C100 C101 1.371 . S
C101 H90 0.930 . S
C101 C97 1.389 . S
C101 C100 1.371 . S
C102 H91 0.970 . S
C102 H92 0.970 . S
C102 C98 1.532 . S
C102 C103 1.499 . S
C103 C102 1.499 . S
C103 C104 1.370 . S
C103 C108 1.415 . S
C104 H93 0.930 . S
C104 C103 1.370 . S
C104 C105 1.407 . S
C105 C104 1.407 . S
C105 C106 1.365 . S
C106 H94 0.930 . S
C106 C105 1.365 . S
C106 C107 1.393 . S
C107 C106 1.393 . S
C107 C108 1.387 . S
C108 H95 0.930 . S
C108 C103 1.415 . S
C108 C107 1.387 . S
H109 C117 0.930 . S
H110 C120 0.930 . S
H111 C122 0.930 . S
H112 C123 0.970 . S
H113 C123 0.970 . S
H114 C125 0.930 . S
H115 C127 0.930 . S
H116 C129 0.930 . S
C117 H109 0.930 . S
C117 C118 1.382 . S
C117 C119 1.426 . S
C118 C117 1.382 . S
C118 C122 1.389 . S
C119 C117 1.426 . S
C119 C120 1.375 . S
C119 C123 1.532 . S
C120 H110 0.930 . S
C120 C119 1.375 . S
C120 C121 1.416 . S
C121 C120 1.416 . S
C121 C122 1.371 . S
C122 H111 0.930 . S
C122 C118 1.389 . S
C122 C121 1.371 . S
C123 H112 0.970 . S
C123 H113 0.970 . S
C123 C119 1.532 . S
C123 C124 1.499 1_455 S
C124 C123 1.499 1_655 S
C124 C125 1.370 . S
C124 C129 1.415 . S
C125 H114 0.930 . S
C125 C124 1.370 . S
C125 C126 1.407 . S
C126 C125 1.407 . S
C126 C127 1.365 . S
C127 H115 0.930 . S
C127 C126 1.365 . S
C127 C128 1.393 . S
C128 C127 1.393 . S
C128 C129 1.387 . S
C129 H116 0.930 . S
C129 C124 1.415 . S
C129 C128 1.387 . S
H130 C138 0.930 . S
H131 C141 0.930 . S
H132 C143 0.930 . S
H133 C144 0.970 . S
H134 C144 0.970 . S
H135 C146 0.930 . S
H136 C148 0.930 . S
H137 C150 0.930 . S
C138 H130 0.930 . S
C138 C139 1.382 . S
C138 C140 1.426 . S
C139 C138 1.382 . S
C139 C143 1.389 . S
C140 C138 1.426 . S
C140 C141 1.375 . S
C140 C144 1.532 . S
C141 H131 0.930 . S
C141 C140 1.375 . S
C141 C142 1.416 . S
C142 C141 1.416 . S
C142 C143 1.371 . S
C143 H132 0.930 . S
C143 C139 1.389 . S
C143 C142 1.371 . S
C144 H133 0.970 . S
C144 H134 0.970 . S
C144 C140 1.532 . S
C144 C145 1.499 . S
C145 C144 1.499 . S
C145 C146 1.370 . S
C145 C150 1.415 . S
C146 H135 0.930 . S
C146 C145 1.370 . S
C146 C147 1.407 . S
C147 C146 1.407 . S
C147 C148 1.365 . S
C148 H136 0.930 . S
C148 C147 1.365 . S
C148 C149 1.393 . S
C149 C148 1.393 . S
C149 C150 1.387 . S
C150 H137 0.930 . S
C150 C145 1.415 . S
C150 C149 1.387 . S
H151 C159 0.930 . S
H152 C162 0.930 . S
H153 C164 0.930 . S
H154 C165 0.970 1_556 S
H155 C165 0.970 . S
H156 C167 0.930 . S
H157 C169 0.930 . S
H158 C171 0.930 . S
C159 H151 0.930 . S
C159 C160 1.382 . S
C159 C161 1.426 1_556 S
C160 C159 1.382 . S
C160 C164 1.389 1_556 S
C161 C159 1.426 1_554 S
C161 C162 1.375 . S
C161 C165 1.532 . S
C162 H152 0.930 . S
C162 C161 1.375 . S
C162 C163 1.416 . S
C163 C162 1.416 . S
C163 C164 1.371 . S
C164 H153 0.930 . S
C164 C160 1.389 1_554 S
C164 C163 1.371 . S
C165 H154 0.970 1_554 S
C165 H155 0.970 . S
C165 C161 1.532 . S
C165 C166 1.499 . S
C166 C165 1.499 . S
C166 C167 1.370 1_554 S
C166 C171 1.415 . S
C167 H156 0.930 . S
C167 C166 1.370 1_556 S
C167 C168 1.407 . S
C168 C167 1.407 . S
C168 C169 1.365 . S
C169 H157 0.930 . S
C169 C168 1.365 . S
C169 C170 1.393 1_556 S
C170 C169 1.393 1_554 S
C170 C171 1.387 . S
C171 H158 0.930 . S
C171 C166 1.415 . S
C171 C170 1.387 . S
H172 C180 0.930 . S
H173 C183 0.930 . S
H174 C185 0.930 . S
H175 C186 0.970 . S
H176 C186 0.970 . S
H177 C188 0.930 . S
H178 C190 0.930 . S
H179 C192 0.930 . S
C180 H172 0.930 . S
C180 C181 1.382 . S
C180 C182 1.426 . S
C181 C180 1.382 . S
C181 C185 1.389 . S
C182 C180 1.426 . S
C182 C183 1.375 . S
C182 C186 1.532 . S
C183 H173 0.930 . S
C183 C182 1.375 . S
C183 C184 1.416 . S
C184 C183 1.416 . S
C184 C185 1.371 . S
C185 H174 0.930 . S
C185 C181 1.389 . S
C185 C184 1.371 . S
C186 H175 0.970 . S
C186 H176 0.970 . S
C186 C182 1.532 . S
C186 C187 1.499 1_545 S
C187 C186 1.499 1_565 S
C187 C188 1.370 . S
C187 C192 1.415 . S
C188 H177 0.930 . S
C188 C187 1.370 . S
C188 C189 1.407 . S
C189 C188 1.407 . S
C189 C190 1.365 . S
C190 H178 0.930 . S
C190 C189 1.365 . S
C190 C191 1.393 . S
C191 C190 1.393 . S
C191 C192 1.387 . S
C192 H179 0.930 . S
C192 C187 1.415 . S
C192 C191 1.387 . S
H193 C201 0.930 . S
H194 C204 0.930 . S
H195 C206 0.930 . S
H196 C207 0.970 1_556 S
H197 C207 0.970 . S
H198 C209 0.930 . S
H199 C211 0.930 . S
H200 C213 0.930 . S
C201 H193 0.930 . S
C201 C202 1.382 . S
C201 C203 1.426 1_556 S
C202 C201 1.382 . S
C202 C206 1.389 1_556 S
C203 C201 1.426 1_554 S
C203 C204 1.375 . S
C203 C207 1.532 . S
C204 H194 0.930 . S
C204 C203 1.375 . S
C204 C205 1.416 . S
C205 C204 1.416 . S
C205 C206 1.371 . S
C206 H195 0.930 . S
C206 C202 1.389 1_554 S
C206 C205 1.371 . S
C207 H196 0.970 1_554 S
C207 H197 0.970 . S
C207 C203 1.532 . S
C207 C208 1.499 . S
C208 C207 1.499 . S
C208 C209 1.370 1_554 S
C208 C213 1.415 . S
C209 H198 0.930 . S
C209 C208 1.370 1_556 S
C209 C210 1.407 . S
C210 C209 1.407 . S
C210 C211 1.365 1_556 S
C211 H199 0.930 . S
C211 C210 1.365 1_554 S
C211 C212 1.393 . S
C212 C211 1.393 . S
C212 C213 1.387 . S
C213 H200 0.930 . S
C213 C208 1.415 . S
C213 C212 1.387 . S
C214 C215 1.363 . S
C214 C220 1.379 . S
C214 N222 1.356 . S
C215 C214 1.363 . S
C215 C221 1.363 . S
C216 C217 1.363 . S
C216 C221 1.379 . S
C216 N223 1.356 . S
C217 C216 1.363 . S
C217 C220 1.363 . S
N218 C220 1.356 . S
N218 H230 0.984 . S
N218 H231 0.985 . S
N219 C221 1.356 . S
N219 H224 0.984 . S
N219 H225 0.985 . S
C220 C214 1.379 . S
C220 C217 1.363 . S
C220 N218 1.356 . S
C221 C215 1.363 . S
C221 C216 1.379 . S
C221 N219 1.356 . S
N222 C214 1.356 . S
N222 H228 0.984 . S
N222 H229 0.984 . S
N223 C216 1.356 . S
N223 H226 0.984 . S
N223 H227 0.985 . S
H224 N219 0.984 . S
H225 N219 0.985 . S
H226 N223 0.984 . S
H227 N223 0.985 . S
H228 N222 0.984 . S
H229 N222 0.984 . S
H230 N218 0.984 . S
H231 N218 0.985 . S
C232 C233 1.363 . S
C232 C238 1.379 . S
C232 N240 1.356 . S
C233 C232 1.363 . S
C233 C239 1.363 . S
C234 C235 1.363 . S
C234 C239 1.379 . S
C234 N241 1.356 . S
C235 C234 1.363 . S
C235 C238 1.363 . S
N236 C238 1.356 . S
N236 H248 0.984 . S
N236 H249 0.985 . S
N237 C239 1.356 . S
N237 H242 0.984 . S
N237 H243 0.985 . S
C238 C232 1.379 . S
C238 C235 1.363 . S
C238 N236 1.356 . S
C239 C233 1.363 . S
C239 C234 1.379 . S
C239 N237 1.356 . S
N240 C232 1.356 . S
N240 H246 0.984 . S
N240 H247 0.984 . S
N241 C234 1.356 . S
N241 H244 0.984 . S
N241 H245 0.985 . S
H242 N237 0.984 . S
H243 N237 0.985 . S
H244 N241 0.984 . S
H245 N241 0.985 . S
H246 N240 0.984 . S
H247 N240 0.984 . S
H248 N236 0.984 . S
H249 N236 0.985 . S
C250 C251 1.363 . S
C250 C256 1.379 . S
C250 N258 1.356 . S
C251 C250 1.363 . S
C251 C257 1.363 . S
C252 C253 1.363 . S
C252 C257 1.379 . S
C252 N259 1.356 . S
C253 C252 1.363 . S
C253 C256 1.363 . S
N254 C256 1.356 . S
N254 H266 0.984 . S
N254 H267 0.985 . S
N255 C257 1.356 . S
N255 H260 0.984 . S
N255 H261 0.985 . S
C256 C250 1.379 . S
C256 C253 1.363 . S
C256 N254 1.356 . S
C257 C251 1.363 . S
C257 C252 1.379 . S
C257 N255 1.356 . S
N258 C250 1.356 . S
N258 H264 0.984 . S
N258 H265 0.984 . S
N259 C252 1.356 . S
N259 H262 0.984 . S
N259 H263 0.985 . S
H260 N255 0.984 . S
H261 N255 0.985 . S
H262 N259 0.984 . S
H263 N259 0.985 . S
H264 N258 0.984 . S
H265 N258 0.984 . S
H266 N254 0.984 . S
H267 N254 0.985 . S
C268 C269 1.363 . S
C268 C274 1.379 . S
C268 N276 1.356 . S
C269 C268 1.363 . S
C269 C275 1.363 . S
C270 C271 1.363 . S
C270 C275 1.379 . S
C270 N277 1.356 . S
C271 C270 1.363 . S
C271 C274 1.363 . S
N272 C274 1.356 . S
N272 H284 0.984 . S
N272 H285 0.985 . S
N273 C275 1.356 . S
N273 H278 0.984 . S
N273 H279 0.985 . S
C274 C268 1.379 . S
C274 C271 1.363 . S
C274 N272 1.356 . S
C275 C269 1.363 . S
C275 C270 1.379 . S
C275 N273 1.356 . S
N276 C268 1.356 . S
N276 H282 0.984 . S
N276 H283 0.984 . S
N277 C270 1.356 . S
N277 H280 0.984 . S
N277 H281 0.985 . S
H278 N273 0.984 . S
H279 N273 0.985 . S
H280 N277 0.984 . S
H281 N277 0.985 . S
H282 N276 0.984 . S
H283 N276 0.984 . S
H284 N272 0.984 . S
H285 N272 0.985 . S
C286 C287 1.363 . S
C286 C292 1.379 . S
C286 N294 1.356 . S
C287 C286 1.363 . S
C287 C293 1.363 . S
C288 C289 1.363 . S
C288 C293 1.379 . S
C288 N295 1.356 . S
C289 C288 1.363 . S
C289 C292 1.363 . S
N290 C292 1.356 . S
N290 H302 0.984 . S
N290 H303 0.985 . S
N291 C293 1.356 . S
N291 H296 0.984 . S
N291 H297 0.985 . S
C292 C286 1.379 . S
C292 C289 1.363 . S
C292 N290 1.356 . S
C293 C287 1.363 . S
C293 C288 1.379 . S
C293 N291 1.356 . S
N294 C286 1.356 . S
N294 H300 0.984 . S
N294 H301 0.984 . S
N295 C288 1.356 . S
N295 H298 0.984 . S
N295 H299 0.985 . S
H296 N291 0.984 . S
H297 N291 0.985 . S
H298 N295 0.984 . S
H299 N295 0.985 . S
H300 N294 0.984 . S
H301 N294 0.984 . S
H302 N290 0.984 . S
H303 N290 0.985 . S
C304 C305 1.363 . S
C304 C310 1.379 . S
C304 N312 1.356 . S
C305 C304 1.363 . S
C305 C311 1.363 . S
C306 C307 1.363 . S
C306 C311 1.379 . S
C306 N313 1.356 . S
C307 C306 1.363 . S
C307 C310 1.363 . S
N308 C310 1.356 . S
N308 H320 0.984 1_556 S
N308 H321 0.985 . S
N309 C311 1.356 . S
N309 H314 0.984 . S
N309 H315 0.985 . S
C310 C304 1.379 . S
C310 C307 1.363 . S
C310 N308 1.356 . S
C311 C305 1.363 . S
C311 C306 1.379 . S
C311 N309 1.356 . S
N312 C304 1.356 . S
N312 H318 0.984 . S
N312 H319 0.984 . S
N313 C306 1.356 . S
N313 H316 0.984 . S
N313 H317 0.985 . S
H314 N309 0.984 . S
H315 N309 0.985 . S
H316 N313 0.984 . S
H317 N313 0.985 . S
H318 N312 0.984 . S
H319 N312 0.984 . S
H320 N308 0.984 1_554 S
H321 N308 0.985 . S
C322 C323 1.363 . S
C322 C328 1.379 . S
C322 N330 1.356 . S
C323 C322 1.363 . S
C323 C329 1.363 . S
C324 C325 1.363 . S
C324 C329 1.379 . S
C324 N331 1.356 . S
C325 C324 1.363 . S
C325 C328 1.363 . S
N326 C328 1.356 . S
N326 H338 0.984 . S
N326 H339 0.985 . S
N327 C329 1.356 . S
N327 H332 0.984 . S
N327 H333 0.985 . S
C328 C322 1.379 . S
C328 C325 1.363 . S
C328 N326 1.356 . S
C329 C323 1.363 . S
C329 C324 1.379 . S
C329 N327 1.356 . S
N330 C322 1.356 . S
N330 H336 0.984 . S
N330 H337 0.984 . S
N331 C324 1.356 . S
N331 H334 0.984 . S
N331 H335 0.985 . S
H332 N327 0.984 . S
H333 N327 0.985 . S
H334 N331 0.984 . S
H335 N331 0.985 . S
H336 N330 0.984 . S
H337 N330 0.984 . S
H338 N326 0.984 . S
H339 N326 0.985 . S
C340 C341 1.363 . S
C340 C346 1.379 . S
C340 N348 1.356 . S
C341 C340 1.363 . S
C341 C347 1.363 . S
C342 C343 1.363 . S
C342 C347 1.379 . S
C342 N349 1.356 . S
C343 C342 1.363 . S
C343 C346 1.363 . S
N344 C346 1.356 . S
N344 H356 0.984 . S
N344 H357 0.985 . S
N345 C347 1.356 . S
N345 H350 0.984 . S
N345 H351 0.985 . S
C346 C340 1.379 . S
C346 C343 1.363 . S
C346 N344 1.356 . S
C347 C341 1.363 . S
C347 C342 1.379 . S
C347 N345 1.356 . S
N348 C340 1.356 . S
N348 H354 0.984 . S
N348 H355 0.984 . S
N349 C342 1.356 . S
N349 H352 0.984 . S
N349 H353 0.985 . S
H350 N345 0.984 . S
H351 N345 0.985 . S
H352 N349 0.984 . S
H353 N349 0.985 . S
H354 N348 0.984 . S
H355 N348 0.984 . S
H356 N344 0.984 . S
H357 N344 0.985 . S
C358 C359 1.363 . S
C358 C364 1.379 1_565 S
C358 N366 1.356 . S
C359 C358 1.363 . S
C359 C365 1.363 1_565 S
C360 C361 1.363 . S
C360 C365 1.379 . S
C360 N367 1.356 . S
C361 C360 1.363 . S
C361 C364 1.363 . S
N362 C364 1.356 . S
N362 H374 0.984 1_545 S
N362 H375 0.985 . S
N363 C365 1.356 . S
N363 H368 0.984 1_545 S
N363 H369 0.985 . S
C364 C358 1.379 1_545 S
C364 C361 1.363 . S
C364 N362 1.356 . S
C365 C359 1.363 1_545 S
C365 C360 1.379 . S
C365 N363 1.356 . S
N366 C358 1.356 . S
N366 H372 0.984 . S
N366 H373 0.984 . S
N367 C360 1.356 . S
N367 H370 0.984 . S
N367 H371 0.985 . S
H368 N363 0.984 1_565 S
H369 N363 0.985 . S
H370 N367 0.984 . S
H371 N367 0.985 . S
H372 N366 0.984 . S
H373 N366 0.984 . S
H374 N362 0.984 1_565 S
H375 N362 0.985 . S
C376 C377 1.363 . S
C376 C382 1.379 . S
C376 N384 1.356 . S
C377 C376 1.363 . S
C377 C383 1.363 . S
C378 C379 1.363 . S
C378 C383 1.379 . S
C378 N385 1.356 . S
C379 C378 1.363 . S
C379 C382 1.363 . S
N380 C382 1.356 . S
N380 H392 0.984 . S
N380 H393 0.985 . S
N381 C383 1.356 . S
N381 H386 0.984 . S
N381 H387 0.985 . S
C382 C376 1.379 . S
C382 C379 1.363 . S
C382 N380 1.356 . S
C383 C377 1.363 . S
C383 C378 1.379 . S
C383 N381 1.356 . S
N384 C376 1.356 . S
N384 H390 0.984 . S
N384 H391 0.984 . S
N385 C378 1.356 . S
N385 H388 0.984 . S
N385 H389 0.985 . S
H386 N381 0.984 . S
H387 N381 0.985 . S
H388 N385 0.984 . S
H389 N385 0.985 . S
H390 N384 0.984 . S
H391 N384 0.984 . S
H392 N380 0.984 . S
H393 N380 0.985 . S
C394 C395 1.363 . S
C394 C400 1.379 . S
C394 N402 1.356 . S
C395 C394 1.363 . S
C395 C401 1.363 . S
C396 C397 1.363 . S
C396 C401 1.379 . S
C396 N403 1.356 . S
C397 C396 1.363 . S
C397 C400 1.363 . S
N398 C400 1.356 . S
N398 H410 0.984 . S
N398 H411 0.985 . S
N399 C401 1.356 . S
N399 H404 0.984 . S
N399 H405 0.985 . S
C400 C394 1.379 . S
C400 C397 1.363 . S
C400 N398 1.356 . S
C401 C395 1.363 . S
C401 C396 1.379 . S
C401 N399 1.356 . S
N402 C394 1.356 . S
N402 H408 0.984 . S
N402 H409 0.984 . S
N403 C396 1.356 . S
N403 H406 0.984 . S
N403 H407 0.985 . S
H404 N399 0.984 . S
H405 N399 0.985 . S
H406 N403 0.984 . S
H407 N403 0.985 . S
H408 N402 0.984 . S
H409 N402 0.984 . S
H410 N398 0.984 . S
H411 N398 0.985 . S
C412 C413 1.363 . S
C412 C418 1.379 . S
C412 N420 1.356 . S
C413 C412 1.363 . S
C413 C419 1.363 . S
C414 C415 1.363 . S
C414 C419 1.379 . S
C414 N421 1.356 . S
C415 C414 1.363 . S
C415 C418 1.363 . S
N416 C418 1.356 . S
N416 H428 0.984 . S
N416 H429 0.985 . S
N417 C419 1.356 . S
N417 H422 0.984 . S
N417 H423 0.985 . S
C418 C412 1.379 . S
C418 C415 1.363 . S
C418 N416 1.356 . S
C419 C413 1.363 . S
C419 C414 1.379 . S
C419 N417 1.356 . S
N420 C412 1.356 . S
N420 H426 0.984 . S
N420 H427 0.984 . S
N421 C414 1.356 . S
N421 H424 0.984 . S
N421 H425 0.985 . S
H422 N417 0.984 . S
H423 N417 0.985 . S
H424 N421 0.984 . S
H425 N421 0.985 . S
H426 N420 0.984 . S
H427 N420 0.984 . S
H428 N416 0.984 . S
H429 N416 0.985 . S
C430 C431 1.363 . S
C430 C436 1.379 . S
C430 N438 1.356 . S
C431 C430 1.363 . S
C431 C437 1.363 . S
C432 C433 1.363 . S
C432 C437 1.379 . S
C432 N439 1.356 . S
C433 C432 1.363 . S
C433 C436 1.363 . S
N434 C436 1.356 . S
N434 H446 0.984 . S
N434 H447 0.985 . S
N435 C437 1.356 . S
N435 H440 0.984 . S
N435 H441 0.985 . S
C436 C430 1.379 . S
C436 C433 1.363 . S
C436 N434 1.356 . S
C437 C431 1.363 . S
C437 C432 1.379 . S
C437 N435 1.356 . S
N438 C430 1.356 . S
N438 H444 0.984 . S
N438 H445 0.984 . S
N439 C432 1.356 . S
N439 H442 0.984 . S
N439 H443 0.985 . S
H440 N435 0.984 . S
H441 N435 0.985 . S
H442 N439 0.984 . S
H443 N439 0.985 . S
H444 N438 0.984 . S
H445 N438 0.984 . S
H446 N434 0.984 . S
H447 N434 0.985 . S
C448 C449 1.363 . S
C448 C454 1.379 . S
C448 N456 1.356 . S
C449 C448 1.363 . S
C449 C455 1.363 . S
C450 C451 1.363 . S
C450 C455 1.379 . S
C450 N457 1.356 . S
C451 C450 1.363 . S
C451 C454 1.363 . S
N452 C454 1.356 . S
N452 H464 0.984 . S
N452 H465 0.985 . S
N453 C455 1.356 . S
N453 H458 0.984 . S
N453 H459 0.985 . S
C454 C448 1.379 . S
C454 C451 1.363 . S
C454 N452 1.356 . S
C455 C449 1.363 . S
C455 C450 1.379 . S
C455 N453 1.356 . S
N456 C448 1.356 . S
N456 H462 0.984 . S
N456 H463 0.984 . S
N457 C450 1.356 . S
N457 H460 0.984 . S
N457 H461 0.985 . S
H458 N453 0.984 . S
H459 N453 0.985 . S
H460 N457 0.984 . S
H461 N457 0.985 . S
H462 N456 0.984 . S
H463 N456 0.984 . S
H464 N452 0.984 . S
H465 N452 0.985 . S
C466 C467 1.363 . S
C466 C472 1.379 . S
C466 N474 1.356 . S
C467 C466 1.363 . S
C467 C473 1.363 . S
C468 C469 1.363 . S
C468 C473 1.379 . S
C468 N475 1.356 . S
C469 C468 1.363 . S
C469 C472 1.363 . S
N470 C472 1.356 . S
N470 H482 0.984 . S
N470 H483 0.985 . S
N471 C473 1.356 . S
N471 H476 0.984 . S
N471 H477 0.985 . S
C472 C466 1.379 . S
C472 C469 1.363 . S
C472 N470 1.356 . S
C473 C467 1.363 . S
C473 C468 1.379 . S
C473 N471 1.356 . S
N474 C466 1.356 . S
N474 H480 0.984 . S
N474 H481 0.984 . S
N475 C468 1.356 . S
N475 H478 0.984 . S
N475 H479 0.985 . S
H476 N471 0.984 . S
H477 N471 0.985 . S
H478 N475 0.984 . S
H479 N475 0.985 . S
H480 N474 0.984 . S
H481 N474 0.984 . S
H482 N470 0.984 . S
H483 N470 0.985 . S
C484 C485 1.363 . S
C484 C490 1.379 . S
C484 N492 1.356 . S
C485 C484 1.363 . S
C485 C491 1.363 . S
C486 C487 1.363 . S
C486 C491 1.379 . S
C486 N493 1.356 . S
C487 C486 1.363 . S
C487 C490 1.363 . S
N488 C490 1.356 . S
N488 H500 0.984 . S
N488 H501 0.985 . S
N489 C491 1.356 . S
N489 H494 0.984 . S
N489 H495 0.985 . S
C490 C484 1.379 . S
C490 C487 1.363 . S
C490 N488 1.356 . S
C491 C485 1.363 . S
C491 C486 1.379 . S
C491 N489 1.356 . S
N492 C484 1.356 . S
N492 H498 0.984 . S
N492 H499 0.984 . S
N493 C486 1.356 . S
N493 H496 0.984 . S
N493 H497 0.985 . S
H494 N489 0.984 . S
H495 N489 0.985 . S
H496 N493 0.984 . S
H497 N493 0.985 . S
H498 N492 0.984 . S
H499 N492 0.984 . S
H500 N488 0.984 . S
H501 N488 0.985 . S
C502 C503 1.363 . S
C502 C508 1.379 . S
C502 N510 1.356 . S
C503 C502 1.363 . S
C503 C509 1.363 . S
C504 C505 1.363 . S
C504 C509 1.379 . S
C504 N511 1.356 . S
C505 C504 1.363 . S
C505 C508 1.363 . S
N506 C508 1.356 . S
N506 H518 0.984 . S
N506 H519 0.985 . S
N507 C509 1.356 . S
N507 H512 0.984 . S
N507 H513 0.985 . S
C508 C502 1.379 . S
C508 C505 1.363 . S
C508 N506 1.356 . S
C509 C503 1.363 . S
C509 C504 1.379 . S
C509 N507 1.356 . S
N510 C502 1.356 . S
N510 H516 0.984 . S
N510 H517 0.984 . S
N511 C504 1.356 . S
N511 H514 0.984 . S
N511 H515 0.985 . S
H512 N507 0.984 . S
H513 N507 0.985 . S
H514 N511 0.984 . S
H515 N511 0.985 . S
H516 N510 0.984 . S
H517 N510 0.984 . S
H518 N506 0.984 . S
H519 N506 0.985 . S
C520 C521 1.363 . S
C520 C526 1.379 . S
C520 N528 1.356 . S
C521 C520 1.363 . S
C521 C527 1.363 . S
C522 C523 1.363 . S
C522 C527 1.379 . S
C522 N529 1.356 . S
C523 C522 1.363 . S
C523 C526 1.363 . S
N524 C526 1.356 . S
N524 H536 0.984 1_554 S
N524 H537 0.985 . S
N525 C527 1.356 . S
N525 H530 0.984 . S
N525 H531 0.985 . S
C526 C520 1.379 . S
C526 C523 1.363 . S
C526 N524 1.356 . S
C527 C521 1.363 . S
C527 C522 1.379 . S
C527 N525 1.356 . S
N528 C520 1.356 . S
N528 H534 0.984 . S
N528 H535 0.984 . S
N529 C522 1.356 . S
N529 H532 0.984 . S
N529 H533 0.985 . S
H530 N525 0.984 . S
H531 N525 0.985 . S
H532 N529 0.984 . S
H533 N529 0.985 . S
H534 N528 0.984 . S
H535 N528 0.984 . S
H536 N524 0.984 1_556 S
H537 N524 0.985 . S
C538 C539 1.363 . S
C538 C544 1.379 . S
C538 N546 1.356 . S
C539 C538 1.363 . S
C539 C545 1.363 . S
C540 C541 1.363 . S
C540 C545 1.379 . S
C540 N547 1.356 . S
C541 C540 1.363 . S
C541 C544 1.363 . S
N542 C544 1.356 . S
N542 H554 0.984 . S
N542 H555 0.985 . S
N543 C545 1.356 . S
N543 H548 0.984 . S
N543 H549 0.985 . S
C544 C538 1.379 . S
C544 C541 1.363 . S
C544 N542 1.356 . S
C545 C539 1.363 . S
C545 C540 1.379 . S
C545 N543 1.356 . S
N546 C538 1.356 . S
N546 H552 0.984 . S
N546 H553 0.984 . S
N547 C540 1.356 . S
N547 H550 0.984 . S
N547 H551 0.985 . S
H548 N543 0.984 . S
H549 N543 0.985 . S
H550 N547 0.984 . S
H551 N547 0.985 . S
H552 N546 0.984 . S
H553 N546 0.984 . S
H554 N542 0.984 . S
H555 N542 0.985 . S
C556 C557 1.363 . S
C556 C562 1.379 . S
C556 N564 1.356 . S
C557 C556 1.363 . S
C557 C563 1.363 . S
C558 C559 1.363 . S
C558 C563 1.379 . S
C558 N565 1.356 . S
C559 C558 1.363 . S
C559 C562 1.363 . S
N560 C562 1.356 . S
N560 H572 0.984 . S
N560 H573 0.985 . S
N561 C563 1.356 . S
N561 H566 0.984 . S
N561 H567 0.985 . S
C562 C556 1.379 . S
C562 C559 1.363 . S
C562 N560 1.356 . S
C563 C557 1.363 . S
C563 C558 1.379 . S
C563 N561 1.356 . S
N564 C556 1.356 . S
N564 H570 0.984 . S
N564 H571 0.984 . S
N565 C558 1.356 . S
N565 H568 0.984 . S
N565 H569 0.985 . S
H566 N561 0.984 . S
H567 N561 0.985 . S
H568 N565 0.984 . S
H569 N565 0.985 . S
H570 N564 0.984 . S
H571 N564 0.984 . S
H572 N560 0.984 . S
H573 N560 0.985 . S
C574 C575 1.363 . S
C574 C580 1.379 . S
C574 N582 1.356 . S
C575 C574 1.363 . S
C575 C581 1.363 . S
C576 C577 1.363 . S
C576 C581 1.379 . S
C576 N583 1.356 . S
C577 C576 1.363 . S
C577 C580 1.363 . S
N578 C580 1.356 . S
N578 H590 0.984 . S
N578 H591 0.985 . S
N579 C581 1.356 . S
N579 H584 0.984 . S
N579 H585 0.985 . S
C580 C574 1.379 . S
C580 C577 1.363 . S
C580 N578 1.356 . S
C581 C575 1.363 . S
C581 C576 1.379 . S
C581 N579 1.356 . S
N582 C574 1.356 . S
N582 H588 0.984 . S
N582 H589 0.984 . S
N583 C576 1.356 . S
N583 H586 0.984 . S
N583 H587 0.985 . S
H584 N579 0.984 . S
H585 N579 0.985 . S
H586 N583 0.984 . S
H587 N583 0.985 . S
H588 N582 0.984 . S
H589 N582 0.984 . S
H590 N578 0.984 . S
H591 N578 0.985 . S
C592 C593 1.363 . S
C592 C598 1.379 . S
C592 N600 1.356 . S
C593 C592 1.363 . S
C593 C599 1.363 . S
C594 C595 1.363 . S
C594 C599 1.379 . S
C594 N601 1.356 . S
C595 C594 1.363 . S
C595 C598 1.363 . S
N596 C598 1.356 1_554 S
N596 H608 0.984 . S
N596 H609 0.985 . S
N597 C599 1.356 . S
N597 H602 0.984 . S
N597 H603 0.985 . S
C598 C592 1.379 . S
C598 C595 1.363 . S
C598 N596 1.356 1_556 S
C599 C593 1.363 . S
C599 C594 1.379 . S
C599 N597 1.356 . S
N600 C592 1.356 . S
N600 H606 0.984 . S
N600 H607 0.984 . S
N601 C594 1.356 . S
N601 H604 0.984 . S
N601 H605 0.985 . S
H602 N597 0.984 . S
H603 N597 0.985 . S
H604 N601 0.984 . S
H605 N601 0.985 . S
H606 N600 0.984 . S
H607 N600 0.984 . S
H608 N596 0.984 . S
H609 N596 0.985 . S
C610 C611 1.363 . S
C610 C616 1.379 1_565 S
C610 N618 1.356 . S
C611 C610 1.363 . S
C611 C617 1.363 . S
C612 C613 1.364 1_565 S
C612 C617 1.377 . S
C612 N619 1.357 1_565 S
C613 C612 1.364 1_545 S
C613 C616 1.363 . S
N614 C616 1.356 . S
N614 H626 0.984 . S
N614 H627 0.985 . S
N615 C617 1.356 . S
N615 H620 0.984 . S
N615 H621 0.985 . S
C616 C610 1.379 1_545 S
C616 C613 1.363 . S
C616 N614 1.356 . S
C617 C611 1.363 . S
C617 C612 1.377 . S
C617 N615 1.356 . S
N618 C610 1.356 . S
N618 H624 0.984 . S
N618 H625 0.984 . S
N619 C612 1.357 1_545 S
N619 H622 0.984 . S
N619 H623 0.985 . S
H620 N615 0.984 . S
H621 N615 0.985 . S
H622 N619 0.984 . S
H623 N619 0.985 . S
H624 N618 0.984 . S
H625 N618 0.984 . S
H626 N614 0.984 . S
H627 N614 0.985 . S
C628 C629 1.363 . S
C628 C634 1.379 . S
C628 N636 1.356 . S
C629 C628 1.363 . S
C629 C635 1.363 . S
C630 C631 1.363 . S
C630 C635 1.379 . S
C630 N637 1.356 . S
C631 C630 1.363 . S
C631 C634 1.363 . S
N632 C634 1.356 . S
N632 H644 0.984 . S
N632 H645 0.985 . S
N633 C635 1.356 . S
N633 H638 0.984 . S
N633 H639 0.985 . S
C634 C628 1.379 . S
C634 C631 1.363 . S
C634 N632 1.356 . S
C635 C629 1.363 . S
C635 C630 1.379 . S
C635 N633 1.356 . S
N636 C628 1.356 . S
N636 H642 0.984 . S
N636 H643 0.984 . S
N637 C630 1.356 . S
N637 H640 0.984 . S
N637 H641 0.985 . S
H638 N633 0.984 . S
H639 N633 0.985 . S
H640 N637 0.984 . S
H641 N637 0.985 . S
H642 N636 0.984 . S
H643 N636 0.984 . S
H644 N632 0.984 . S
H645 N632 0.985 . S
C217 C105 1.697 . S
C215 C5 1.762 . S
C235 C118 1.378 . S
C233 C16 1.288 . S
C253 C100 1.646 . S
C251 C30 1.711 . S
C271 C128 1.560 . S
C269 C40 1.625 . S
C289 C139 1.457 . S
C287 C8 1.540 . S
C307 C160 1.307 . S
C305 C18 1.396 . S
C323 C29 1.662 . S
C325 C189 1.589 . S
C343 C210 1.613 . S
C341 C38 1.464 . S
C361 C149 1.442 . S
C359 C19 1.459 . S
C377 C27 1.412 . S
C379 C170 1.471 . S
C397 C184 1.451 . S
C395 C41 1.562 . S
C415 C205 1.778 . S
C413 C7 1.762 . S
C431 C52 1.689 . S
C433 C126 1.535 . S
C451 C97 1.827 . S
C449 C62 1.883 . S
C467 C74 1.687 . S
C469 C121 1.411 . S
C485 C82 1.241 . S
C487 C107 1.557 . S
C505 C191 1.704 . S
C503 C51 1.658 . S
C523 C212 1.800 . S
C521 C60 1.576 . S
C541 C142 1.394 . S
C539 C71 1.378 . S
C557 C84 1.507 . S
C559 C163 1.437 . S
C577 C181 1.588 . S
C575 C63 1.663 . S
C595 C202 1.646 . S
C593 C73 1.659 . S
C613 C147 1.457 . S
C611 C85 1.523 . S
C629 C49 1.365 . S
C631 C168 1.502 . S
