# Generated by pormake.
# Topology ctn, (3,4)-cn, num edge types: 1
# Building blocks:
#     Node 0, Type 0, BuildingBlock: MIDCAF_clean_linker_0, # of connection points: 3
#     Node 1, Type 0, BuildingBlock: MIDCAF_clean_linker_0, # of connection points: 3
#     Node 2, Type 0, BuildingBlock: MIDCAF_clean_linker_0, # of connection points: 3
#     Node 3, Type 0, BuildingBlock: MIDCAF_clean_linker_0, # of connection points: 3
#     Node 4, Type 0, BuildingBlock: MIDCAF_clean_linker_0, # of connection points: 3
#     Node 5, Type 0, BuildingBlock: MIDCAF_clean_linker_0, # of connection points: 3
#     Node 6, Type 0, BuildingBlock: MIDCAF_clean_linker_0, # of connection points: 3
#     Node 7, Type 0, BuildingBlock: MIDCAF_clean_linker_0, # of connection points: 3
#     Node 8, Type 0, BuildingBlock: MIDCAF_clean_linker_0, # of connection points: 3
#     Node 9, Type 0, BuildingBlock: MIDCAF_clean_linker_0, # of connection points: 3
#     Node 10, Type 0, BuildingBlock: MIDCAF_clean_linker_0, # of connection points: 3
#     Node 11, Type 0, BuildingBlock: MIDCAF_clean_linker_0, # of connection points: 3
#     Node 12, Type 0, BuildingBlock: MIDCAF_clean_linker_0, # of connection points: 3
#     Node 13, Type 0, BuildingBlock: MIDCAF_clean_linker_0, # of connection points: 3
#     Node 14, Type 0, BuildingBlock: MIDCAF_clean_linker_0, # of connection points: 3
#     Node 15, Type 0, BuildingBlock: MIDCAF_clean_linker_0, # of connection points: 3
#     Node 16, Type 1, BuildingBlock: QUQFOY_clean_sbu_1, # of connection points: 4
#     Node 17, Type 1, BuildingBlock: QUQFOY_clean_sbu_1, # of connection points: 4
#     Node 18, Type 1, BuildingBlock: QUQFOY_clean_sbu_1, # of connection points: 4
#     Node 19, Type 1, BuildingBlock: QUQFOY_clean_sbu_1, # of connection points: 4
#     Node 20, Type 1, BuildingBlock: QUQFOY_clean_sbu_1, # of connection points: 4
#     Node 21, Type 1, BuildingBlock: QUQFOY_clean_sbu_1, # of connection points: 4
#     Node 22, Type 1, BuildingBlock: QUQFOY_clean_sbu_1, # of connection points: 4
#     Node 23, Type 1, BuildingBlock: QUQFOY_clean_sbu_1, # of connection points: 4
#     Node 24, Type 1, BuildingBlock: QUQFOY_clean_sbu_1, # of connection points: 4
#     Node 25, Type 1, BuildingBlock: QUQFOY_clean_sbu_1, # of connection points: 4
#     Node 26, Type 1, BuildingBlock: QUQFOY_clean_sbu_1, # of connection points: 4
#     Node 27, Type 1, BuildingBlock: QUQFOY_clean_sbu_1, # of connection points: 4
#     Edge 28, Type (0, 1), BuildingBlock: ZUJKAS_clean_linker_0, # of connection points: 2
#     Edge 29, Type (0, 1), BuildingBlock: ZUJKAS_clean_linker_0, # of connection points: 2
#     Edge 30, Type (0, 1), BuildingBlock: ZUJKAS_clean_linker_0, # of connection points: 2
#     Edge 31, Type (0, 1), BuildingBlock: ZUJKAS_clean_linker_0, # of connection points: 2
#     Edge 32, Type (0, 1), BuildingBlock: ZUJKAS_clean_linker_0, # of connection points: 2
#     Edge 33, Type (0, 1), BuildingBlock: ZUJKAS_clean_linker_0, # of connection points: 2
#     Edge 34, Type (0, 1), BuildingBlock: ZUJKAS_clean_linker_0, # of connection points: 2
#     Edge 35, Type (0, 1), BuildingBlock: ZUJKAS_clean_linker_0, # of connection points: 2
#     Edge 36, Type (0, 1), BuildingBlock: ZUJKAS_clean_linker_0, # of connection points: 2
#     Edge 37, Type (0, 1), BuildingBlock: ZUJKAS_clean_linker_0, # of connection points: 2
#     Edge 38, Type (0, 1), BuildingBlock: ZUJKAS_clean_linker_0, # of connection points: 2
#     Edge 39, Type (0, 1), BuildingBlock: ZUJKAS_clean_linker_0, # of connection points: 2
#     Edge 40, Type (0, 1), BuildingBlock: ZUJKAS_clean_linker_0, # of connection points: 2
#     Edge 41, Type (0, 1), BuildingBlock: ZUJKAS_clean_linker_0, # of connection points: 2
#     Edge 42, Type (0, 1), BuildingBlock: ZUJKAS_clean_linker_0, # of connection points: 2
#     Edge 43, Type (0, 1), BuildingBlock: ZUJKAS_clean_linker_0, # of connection points: 2
#     Edge 44, Type (0, 1), BuildingBlock: ZUJKAS_clean_linker_0, # of connection points: 2
#     Edge 45, Type (0, 1), BuildingBlock: ZUJKAS_clean_linker_0, # of connection points: 2
#     Edge 46, Type (0, 1), BuildingBlock: ZUJKAS_clean_linker_0, # of connection points: 2
#     Edge 47, Type (0, 1), BuildingBlock: ZUJKAS_clean_linker_0, # of connection points: 2
#     Edge 48, Type (0, 1), BuildingBlock: ZUJKAS_clean_linker_0, # of connection points: 2
#     Edge 49, Type (0, 1), BuildingBlock: ZUJKAS_clean_linker_0, # of connection points: 2
#     Edge 50, Type (0, 1), BuildingBlock: ZUJKAS_clean_linker_0, # of connection points: 2
#     Edge 51, Type (0, 1), BuildingBlock: ZUJKAS_clean_linker_0, # of connection points: 2
#     Edge 52, Type (0, 1), BuildingBlock: ZUJKAS_clean_linker_0, # of connection points: 2
#     Edge 53, Type (0, 1), BuildingBlock: ZUJKAS_clean_linker_0, # of connection points: 2
#     Edge 54, Type (0, 1), BuildingBlock: ZUJKAS_clean_linker_0, # of connection points: 2
#     Edge 55, Type (0, 1), BuildingBlock: ZUJKAS_clean_linker_0, # of connection points: 2
#     Edge 56, Type (0, 1), BuildingBlock: ZUJKAS_clean_linker_0, # of connection points: 2
#     Edge 57, Type (0, 1), BuildingBlock: ZUJKAS_clean_linker_0, # of connection points: 2
#     Edge 58, Type (0, 1), BuildingBlock: ZUJKAS_clean_linker_0, # of connection points: 2
#     Edge 59, Type (0, 1), BuildingBlock: ZUJKAS_clean_linker_0, # of connection points: 2
#     Edge 60, Type (0, 1), BuildingBlock: ZUJKAS_clean_linker_0, # of connection points: 2
#     Edge 61, Type (0, 1), BuildingBlock: ZUJKAS_clean_linker_0, # of connection points: 2
#     Edge 62, Type (0, 1), BuildingBlock: ZUJKAS_clean_linker_0, # of connection points: 2
#     Edge 63, Type (0, 1), BuildingBlock: ZUJKAS_clean_linker_0, # of connection points: 2
#     Edge 64, Type (0, 1), BuildingBlock: ZUJKAS_clean_linker_0, # of connection points: 2
#     Edge 65, Type (0, 1), BuildingBlock: ZUJKAS_clean_linker_0, # of connection points: 2
#     Edge 66, Type (0, 1), BuildingBlock: ZUJKAS_clean_linker_0, # of connection points: 2
#     Edge 67, Type (0, 1), BuildingBlock: ZUJKAS_clean_linker_0, # of connection points: 2
#     Edge 68, Type (0, 1), BuildingBlock: ZUJKAS_clean_linker_0, # of connection points: 2
#     Edge 69, Type (0, 1), BuildingBlock: ZUJKAS_clean_linker_0, # of connection points: 2
#     Edge 70, Type (0, 1), BuildingBlock: ZUJKAS_clean_linker_0, # of connection points: 2
#     Edge 71, Type (0, 1), BuildingBlock: ZUJKAS_clean_linker_0, # of connection points: 2
#     Edge 72, Type (0, 1), BuildingBlock: ZUJKAS_clean_linker_0, # of connection points: 2
#     Edge 73, Type (0, 1), BuildingBlock: ZUJKAS_clean_linker_0, # of connection points: 2
#     Edge 74, Type (0, 1), BuildingBlock: ZUJKAS_clean_linker_0, # of connection points: 2
#     Edge 75, Type (0, 1), BuildingBlock: ZUJKAS_clean_linker_0, # of connection points: 2
# Relax obj value: 0.035
# Max RMSD: 0.142
# Mean RMSD: 0.064
data_MOF--net-ctn--node1-QUQFOY_clean_sbu_1--node2-MIDCAF_clean_linker_0--edge1-ZUJKAS_clean_linker_0
_symmetry_space_group_name_H-M    P1
_symmetry_Int_Tables_number       1
_symmetry_cell_setting            triclinic
loop_
_symmetry_equiv_pos_as_xyz
'x, y, z'
_cell_length_a     83.338097
_cell_length_b     83.271484
_cell_length_c     83.469809
_cell_angle_alpha  92.709838
_cell_angle_beta   90.093067
_cell_angle_gamma 94.376591
loop_
_atom_site_label
_atom_site_type_symbol
_atom_site_fract_x
_atom_site_fract_y
_atom_site_fract_z
_atom_type_partial_charge
C0 C 0.02669 0.1275 0.12831 0.0
C1 C 0.02421 0.11442 0.1383 0.0
C2 C 0.03487 0.10211 0.13724 0.0
C3 C 0.04747 0.10267 0.12622 0.0
H4 H 0.08449 0.07733 0.10992 0.0
H5 H 0.10102 0.05453 0.10677 0.0
H6 H 0.12534 0.07666 0.06681 0.0
H7 H 0.10861 0.09929 0.06968 0.0
H8 H 0.09511 0.13038 0.05518 0.0
H9 H 0.09291 0.14727 0.03233 0.0
H10 H 0.04773 0.1625 0.05066 0.0
H11 H 0.05019 0.14617 0.07366 0.0
H12 H 0.04064 0.13817 0.10955 0.0
H13 H 0.01886 0.1373 0.12898 0.0
H14 H 0.0332 0.09172 0.14456 0.0
H15 H 0.0552 0.09278 0.12554 0.0
N16 N 0.073 0.10395 0.10285 0.0
N17 N 0.08416 0.11423 0.07932 0.0
N18 N 0.06251 0.12622 0.09164 0.0
C19 C 0.08405 0.1033 0.09093 0.0
C20 C 0.07344 0.12574 0.0796 0.0
C21 C 0.06225 0.11543 0.10335 0.0
C22 C 0.09508 0.09012 0.08995 0.0
C23 C 0.09344 0.07743 0.10053 0.0
C24 C 0.10298 0.06436 0.09878 0.0
C25 C 0.1144 0.06369 0.08644 0.0
C26 C 0.11643 0.07664 0.07624 0.0
C27 C 0.10688 0.08968 0.07795 0.0
C28 C 0.0728 0.13684 0.06627 0.0
C29 C 0.08479 0.13747 0.05441 0.0
C30 C 0.08348 0.14709 0.04124 0.0
C31 C 0.07012 0.15623 0.03958 0.0
C32 C 0.05834 0.15586 0.05164 0.0
C33 C 0.05971 0.14637 0.06483 0.0
C34 C 0.04966 0.1155 0.11589 0.0
C35 C 0.03925 0.12802 0.11721 0.0
C36 C 0.2633 0.68032 0.23377 0.0
C37 C 0.24671 0.67996 0.23069 0.0
C38 C 0.24 0.6942 0.22665 0.0
C39 C 0.2497 0.70857 0.22574 0.0
H40 H 0.2521 0.75247 0.20475 0.0
H41 H 0.24345 0.7743 0.18928 0.0
H42 H 0.28765 0.80276 0.20148 0.0
H43 H 0.2963 0.78102 0.2172 0.0
H44 H 0.32291 0.76584 0.23784 0.0
H45 H 0.34861 0.76809 0.25207 0.0
H46 H 0.34007 0.71894 0.2662 0.0
H47 H 0.31463 0.71652 0.25178 0.0
H48 H 0.2857 0.69461 0.23566 0.0
H49 H 0.26875 0.66953 0.23705 0.0
H50 H 0.22724 0.6942 0.22411 0.0
H51 H 0.24415 0.71937 0.22265 0.0
N52 N 0.27128 0.73711 0.2212 0.0
N53 N 0.29535 0.75238 0.22799 0.0
N54 N 0.29123 0.72569 0.23573 0.0
C55 C 0.28064 0.75118 0.22078 0.0
C56 C 0.30072 0.73967 0.23553 0.0
C57 C 0.2765 0.72431 0.22863 0.0
C58 C 0.27499 0.76488 0.21215 0.0
C59 C 0.25997 0.76339 0.20426 0.0
C60 C 0.25501 0.77589 0.19533 0.0
C61 C 0.26491 0.79021 0.19407 0.0
C62 C 0.27969 0.79193 0.20234 0.0
C63 C 0.28469 0.7794 0.21126 0.0
C64 C 0.31662 0.74102 0.24368 0.0
C65 C 0.32653 0.75547 0.2439 0.0
C66 C 0.34125 0.7568 0.25211 0.0
C67 C 0.34638 0.7437 0.26028 0.0
C68 C 0.33659 0.72919 0.25985 0.0
C69 C 0.32191 0.72785 0.25165 0.0
C70 C 0.26627 0.70902 0.22908 0.0
C71 C 0.27297 0.69472 0.23308 0.0
C72 C 0.93951 0.40326 0.05097 0.0
C73 C 0.93339 0.40457 0.03546 0.0
C74 C 0.92285 0.41656 0.03274 0.0
C75 C 0.91914 0.42753 0.04516 0.0
H76 H 0.89498 0.46815 0.05562 0.0
H77 H 0.88063 0.49151 0.04964 0.0
H78 H 0.89696 0.5152 0.09453 0.0
H79 H 0.91111 0.4917 0.10073 0.0
H80 H 0.9407 0.47735 0.11879 0.0
H81 H 0.96121 0.4787 0.13968 0.0
H82 H 0.96628 0.42766 0.13185 0.0
H83 H 0.94614 0.42641 0.11061 0.0
H84 H 0.94106 0.41293 0.07507 0.0
H85 H 0.94742 0.39394 0.05349 0.0
H86 H 0.91797 0.41784 0.02087 0.0
H87 H 0.91143 0.43698 0.04255 0.0
N88 N 0.91454 0.45178 0.07068 0.0
N89 N 0.92231 0.4639 0.09575 0.0
N90 N 0.93203 0.43928 0.08724 0.0
C91 C 0.9137 0.46408 0.08191 0.0
C92 C 0.93142 0.45146 0.09853 0.0
C93 C 0.92367 0.43931 0.07329 0.0
C94 C 0.90431 0.47802 0.07863 0.0
C95 C 0.89549 0.47828 0.06428 0.0
C96 C 0.88732 0.49174 0.06079 0.0
C97 C 0.88777 0.50528 0.07154 0.0
C98 C 0.89628 0.50491 0.08605 0.0
C99 C 0.90446 0.49144 0.08956 0.0
C100 C 0.94194 0.45183 0.11287 0.0
C101 C 0.946 0.46636 0.12169 0.0
C102 C 0.95773 0.46712 0.13373 0.0
C103 C 0.96555 0.45332 0.13733 0.0
C104 C 0.96078 0.43859 0.12914 0.0
C105 C 0.94916 0.43787 0.11701 0.0
C106 C 0.92587 0.42666 0.06054 0.0
C107 C 0.93578 0.41413 0.06337 0.0
C108 C 0.74309 0.77563 0.18654 0.0
C109 C 0.73203 0.76216 0.18396 0.0
C110 C 0.71862 0.76035 0.19407 0.0
C111 C 0.71622 0.77186 0.2064 0.0
H112 H 0.68904 0.78026 0.24714 0.0
H113 H 0.66705 0.77664 0.26621 0.0
H114 H 0.67924 0.82449 0.28701 0.0
H115 H 0.70101 0.82828 0.26792 0.0
H116 H 0.73055 0.84888 0.25602 0.0
H117 H 0.74637 0.87468 0.25657 0.0
H118 H 0.76878 0.86091 0.21191 0.0
H119 H 0.75284 0.83508 0.21118 0.0
H120 H 0.74933 0.79752 0.20028 0.0
H121 H 0.75345 0.77746 0.17883 0.0
H122 H 0.70996 0.75001 0.19243 0.0
H123 H 0.70568 0.77014 0.21389 0.0
N124 N 0.71251 0.79558 0.23249 0.0
N125 N 0.71893 0.82141 0.24421 0.0
N126 N 0.73331 0.81242 0.22189 0.0
C127 C 0.70979 0.80719 0.24396 0.0
C128 C 0.7307 0.82415 0.23323 0.0
C129 C 0.7243 0.7981 0.22144 0.0
C130 C 0.69678 0.8046 0.25589 0.0
C131 C 0.68708 0.79001 0.2558 0.0
C132 C 0.67453 0.78788 0.26679 0.0
C133 C 0.67137 0.80031 0.27806 0.0
C134 C 0.68122 0.81478 0.27832 0.0
C135 C 0.69376 0.8169 0.26739 0.0
C136 C 0.74042 0.83984 0.23357 0.0
C137 C 0.73882 0.8513 0.24628 0.0
C138 C 0.74795 0.86608 0.24666 0.0
C139 C 0.75883 0.8698 0.2343 0.0
C140 C 0.76037 0.85843 0.22152 0.0
C141 C 0.7513 0.84358 0.22118 0.0
C142 C 0.72712 0.78551 0.2088 0.0
C143 C 0.74065 0.7872 0.19878 0.0
C144 C 0.07223 0.92448 0.48361 0.0
C145 C 0.05738 0.9154 0.48447 0.0
C146 C 0.04578 0.9168 0.47245 0.0
C147 C 0.04884 0.92733 0.46007 0.0
H148 H 0.02556 0.95117 0.42551 0.0
H149 H 0.00382 0.9585 0.40834 0.0
H150 H 0.03748 0.99028 0.3833 0.0
H151 H 0.05923 0.98288 0.40024 0.0
H152 H 0.09274 0.99366 0.41608 0.0
H153 H 0.11654 0.01249 0.41877 0.0
H154 H 0.13231 0.98733 0.45934 0.0
H155 H 0.10882 0.96831 0.45649 0.0
H156 H 0.0868 0.94197 0.47116 0.0
H157 H 0.08136 0.92384 0.49277 0.0
H158 H 0.03431 0.90977 0.47262 0.0
H159 H 0.03955 0.92824 0.45114 0.0
N160 N 0.05475 0.95137 0.43631 0.0
N161 N 0.07168 0.97165 0.42511 0.0
N162 N 0.08083 0.95756 0.4465 0.0
C163 C 0.05727 0.96284 0.42532 0.0
C164 C 0.08353 0.96906 0.43564 0.0
C165 C 0.06653 0.94861 0.4469 0.0
C166 C 0.04417 0.96647 0.41432 0.0
C167 C 0.02837 0.95962 0.41627 0.0
C168 C 0.01588 0.96389 0.4065 0.0
C169 C 0.01893 0.975 0.39451 0.0
C170 C 0.03477 0.98157 0.39233 0.0
C171 C 0.04723 0.97738 0.40213 0.0
C172 C 0.09874 0.97953 0.43617 0.0
C173 C 0.10137 0.99201 0.42546 0.0
C174 C 0.11498 0.00286 0.42704 0.0
C175 C 0.12625 0.00149 0.43934 0.0
C176 C 0.12396 0.98864 0.44962 0.0
C177 C 0.11039 0.97777 0.44804 0.0
C178 C 0.06357 0.93669 0.45942 0.0
C179 C 0.07531 0.93497 0.47123 0.0
C180 C 0.22206 0.77276 0.86179 0.0
C181 C 0.20854 0.78129 0.86564 0.0
C182 C 0.19659 0.78218 0.85388 0.0
C183 C 0.19821 0.77491 0.83859 0.0
H184 H 0.17922 0.77369 0.79378 0.0
H185 H 0.15979 0.77822 0.77314 0.0
H186 H 0.18558 0.74944 0.73895 0.0
H187 H 0.20494 0.74453 0.75977 0.0
H188 H 0.23714 0.72933 0.77154 0.0
H189 H 0.25713 0.7098 0.7668 0.0
H190 H 0.26482 0.70831 0.81792 0.0
H191 H 0.24531 0.72818 0.82262 0.0
H192 H 0.23429 0.75907 0.84397 0.0
H193 H 0.23164 0.77204 0.87045 0.0
H194 H 0.1859 0.78843 0.8565 0.0
H195 H 0.18876 0.77589 0.82985 0.0
N196 N 0.2035 0.76212 0.80639 0.0
N197 N 0.21686 0.74518 0.78853 0.0
N198 N 0.22531 0.74877 0.81537 0.0
C199 C 0.20505 0.75533 0.7914 0.0
C200 C 0.22704 0.74183 0.80047 0.0
C201 C 0.21359 0.75895 0.81843 0.0
C202 C 0.19366 0.75867 0.77851 0.0
C203 C 0.18086 0.76836 0.78187 0.0
C204 C 0.16974 0.77108 0.76996 0.0
C205 C 0.17113 0.76423 0.75436 0.0
C206 C 0.18406 0.75474 0.7509 0.0
C207 C 0.1952 0.75199 0.76283 0.0
C208 C 0.23956 0.73033 0.79747 0.0
C209 C 0.24316 0.7249 0.78177 0.0
C210 C 0.25458 0.71363 0.77905 0.0
C211 C 0.2626 0.70742 0.79197 0.0
C212 C 0.25912 0.71301 0.80765 0.0
C213 C 0.24781 0.72437 0.81036 0.0
C214 C 0.21178 0.76648 0.83472 0.0
C215 C 0.22364 0.7654 0.84654 0.0
C216 C 0.95427 0.64013 0.47705 0.0
C217 C 0.94442 0.64337 0.49027 0.0
C218 C 0.93041 0.63325 0.49254 0.0
C219 C 0.9266 0.6199 0.48211 0.0
H220 H 0.89281 0.58207 0.47351 0.0
H221 H 0.87122 0.56265 0.48122 0.0
H222 H 0.89019 0.52622 0.44962 0.0
H223 H 0.91193 0.54556 0.44194 0.0
H224 H 0.94021 0.55605 0.41849 0.0
H225 H 0.95993 0.54848 0.39859 0.0
H226 H 0.98857 0.59307 0.40973 0.0
H227 H 0.96877 0.60084 0.4294 0.0
H228 H 0.9585 0.62449 0.4567 0.0
H229 H 0.96502 0.64784 0.47484 0.0
H230 H 0.92265 0.63533 0.50271 0.0
H231 H 0.9159 0.61217 0.48447 0.0
N232 N 0.92051 0.59105 0.46192 0.0
N233 N 0.92829 0.57317 0.44136 0.0
N234 N 0.9437 0.59752 0.44703 0.0
C235 C 0.91785 0.57692 0.4532 0.0
C236 C 0.94122 0.58345 0.43815 0.0
C237 C 0.93339 0.60143 0.45892 0.0
C238 C 0.90418 0.56538 0.45714 0.0
C239 C 0.89238 0.56995 0.46812 0.0
C240 C 0.87994 0.55885 0.47249 0.0
C241 C 0.87906 0.54292 0.46606 0.0
C242 C 0.89068 0.53838 0.4549 0.0
C243 C 0.90308 0.54951 0.45043 0.0
C244 C 0.95289 0.57905 0.42561 0.0
C245 C 0.95066 0.5643 0.41667 0.0
C246 C 0.96201 0.5599 0.40531 0.0
C247 C 0.97584 0.57015 0.40262 0.0
C248 C 0.97795 0.58499 0.41139 0.0
C249 C 0.96662 0.58939 0.42274 0.0
C250 C 0.93673 0.61634 0.46917 0.0
C251 C 0.95047 0.62677 0.4666 0.0
C252 C 0.84239 0.81118 0.77439 0.0
C253 C 0.84165 0.81514 0.75826 0.0
C254 C 0.82681 0.81847 0.75169 0.0
C255 C 0.81294 0.81789 0.76111 0.0
H256 H 0.76952 0.83945 0.76734 0.0
H257 H 0.74784 0.85657 0.76241 0.0
H258 H 0.72186 0.83747 0.80292 0.0
H259 H 0.74367 0.82055 0.80812 0.0
H260 H 0.75999 0.79678 0.83031 0.0
H261 H 0.75986 0.78154 0.8545 0.0
H262 H 0.81034 0.77464 0.84804 0.0
H263 H 0.81044 0.7895 0.82368 0.0
H264 H 0.82948 0.80717 0.79611 0.0
H265 H 0.85367 0.80843 0.7797 0.0
H266 H 0.82596 0.82162 0.73928 0.0
H267 H 0.80166 0.8205 0.75571 0.0
N268 N 0.78581 0.8203 0.783 0.0
N269 N 0.77228 0.81112 0.80584 0.0
N270 N 0.79863 0.80439 0.80077 0.0
C271 C 0.77242 0.81959 0.7923 0.0
C272 C 0.78533 0.80346 0.81014 0.0
C273 C 0.79896 0.81272 0.78717 0.0
C274 C 0.75848 0.82874 0.78826 0.0
C275 C 0.75913 0.83875 0.77513 0.0
C276 C 0.74663 0.84851 0.77221 0.0
C277 C 0.73317 0.84847 0.78234 0.0
C278 C 0.7322 0.83797 0.79506 0.0
C279 C 0.7447 0.82822 0.79799 0.0
C280 C 0.78521 0.79435 0.82498 0.0
C281 C 0.77108 0.79203 0.83403 0.0
C282 C 0.77102 0.78336 0.84797 0.0
C283 C 0.78509 0.77687 0.85321 0.0
C284 C 0.79923 0.77927 0.84422 0.0
C285 C 0.79929 0.78788 0.83026 0.0
C286 C 0.81363 0.81371 0.77721 0.0
C287 C 0.82851 0.81036 0.78373 0.0
C288 C 0.34174 0.30629 0.27476 0.0
C289 C 0.34171 0.31257 0.25944 0.0
C290 C 0.32795 0.3197 0.2543 0.0
C291 C 0.31447 0.32037 0.26421 0.0
H292 H 0.27151 0.3422 0.27037 0.0
H293 H 0.25053 0.36033 0.26575 0.0
H294 H 0.22583 0.34434 0.30825 0.0
H295 H 0.24683 0.3264 0.31307 0.0
H296 H 0.26144 0.3002 0.33386 0.0
H297 H 0.26117 0.28531 0.35828 0.0
H298 H 0.31162 0.27804 0.35203 0.0
H299 H 0.3118 0.29247 0.32741 0.0
H300 H 0.32882 0.30188 0.29634 0.0
H301 H 0.35225 0.30099 0.27923 0.0
H302 H 0.32747 0.32451 0.24249 0.0
H303 H 0.30402 0.32581 0.25983 0.0
N304 N 0.2875 0.32269 0.28616 0.0
N305 N 0.27423 0.31479 0.30962 0.0
N306 N 0.29971 0.30612 0.30372 0.0
C307 C 0.27447 0.32304 0.29594 0.0
C308 C 0.28681 0.3063 0.31359 0.0
C309 C 0.30016 0.31422 0.28998 0.0
C310 C 0.26101 0.33295 0.29221 0.0
C311 C 0.26155 0.34242 0.27867 0.0
C312 C 0.24946 0.35275 0.27595 0.0
C313 C 0.2366 0.35385 0.28671 0.0
C314 C 0.23573 0.34394 0.29989 0.0
C315 C 0.24778 0.33361 0.3026 0.0
C316 C 0.28662 0.29749 0.32861 0.0
C317 C 0.27249 0.29544 0.33769 0.0
C318 C 0.27235 0.28698 0.35177 0.0
C319 C 0.28637 0.28046 0.35713 0.0
C320 C 0.30053 0.28266 0.34812 0.0
C321 C 0.30065 0.29102 0.33401 0.0
C322 C 0.31446 0.31387 0.27946 0.0
C323 C 0.32829 0.30688 0.28462 0.0
C324 C 0.42791 0.89796 0.55076 0.0
C325 C 0.42256 0.90024 0.53512 0.0
C326 C 0.41407 0.91379 0.53229 0.0
C327 C 0.41148 0.92512 0.54474 0.0
H328 H 0.38325 0.96305 0.56034 0.0
H329 H 0.36846 0.98647 0.55532 0.0
H330 H 0.39409 0.01337 0.59415 0.0
H331 H 0.40897 0.99002 0.5992 0.0
H332 H 0.42979 0.97058 0.62284 0.0
H333 H 0.45073 0.97319 0.64337 0.0
H334 H 0.47165 0.93127 0.62234 0.0
H335 H 0.45052 0.92834 0.6021 0.0
H336 H 0.43016 0.90739 0.57495 0.0
H337 H 0.43461 0.88772 0.55329 0.0
H338 H 0.40968 0.91577 0.52038 0.0
H339 H 0.40529 0.93565 0.54207 0.0
N340 N 0.40706 0.9484 0.57126 0.0
N341 N 0.41714 0.96085 0.59541 0.0
N342 N 0.42644 0.93633 0.586 0.0
C343 C 0.40718 0.9608 0.58249 0.0
C344 C 0.42677 0.94862 0.59728 0.0
C345 C 0.41662 0.93608 0.57299 0.0
C346 C 0.39738 0.97464 0.58012 0.0
C347 C 0.38568 0.97391 0.5679 0.0
C348 C 0.37713 0.98729 0.56507 0.0
C349 C 0.38016 0.00175 0.57432 0.0
C350 C 0.39161 0.00242 0.58674 0.0
C351 C 0.40007 0.98899 0.58967 0.0
C352 C 0.43853 0.94935 0.61069 0.0
C353 C 0.43875 0.96181 0.62267 0.0
C354 C 0.45081 0.96336 0.6344 0.0
C355 C 0.46298 0.95255 0.63438 0.0
C356 C 0.4624 0.93972 0.62279 0.0
C357 C 0.45029 0.93812 0.61111 0.0
C358 C 0.4175 0.9232 0.56023 0.0
C359 C 0.42545 0.90932 0.56316 0.0
C360 C 0.24108 0.27948 0.68127 0.0
C361 C 0.23278 0.26413 0.68063 0.0
C362 C 0.22157 0.2603 0.69269 0.0
C363 C 0.21865 0.27162 0.70505 0.0
H364 H 0.18744 0.28078 0.74249 0.0
H365 H 0.16661 0.27536 0.76245 0.0
H366 H 0.18398 0.31834 0.79009 0.0
H367 H 0.20485 0.32376 0.77029 0.0
H368 H 0.22883 0.34897 0.75475 0.0
H369 H 0.2436 0.37536 0.75567 0.0
H370 H 0.26483 0.3641 0.70973 0.0
H371 H 0.24994 0.33771 0.70863 0.0
H372 H 0.24485 0.30248 0.69368 0.0
H373 H 0.24995 0.28273 0.67228 0.0
H374 H 0.21484 0.24864 0.69244 0.0
H375 H 0.20986 0.26827 0.71408 0.0
N376 N 0.2128 0.29553 0.73026 0.0
N377 N 0.21832 0.32122 0.74264 0.0
N378 N 0.23198 0.31388 0.71923 0.0
C379 C 0.21001 0.30653 0.74228 0.0
C380 C 0.2293 0.32501 0.73115 0.0
C381 C 0.22382 0.29909 0.71871 0.0
C382 C 0.1978 0.30275 0.75472 0.0
C383 C 0.18691 0.28902 0.75287 0.0
C384 C 0.17492 0.28594 0.76426 0.0
C385 C 0.17366 0.29644 0.77781 0.0
C386 C 0.18476 0.30995 0.77986 0.0
C387 C 0.19665 0.3131 0.76842 0.0
C388 C 0.23821 0.34115 0.73163 0.0
C389 C 0.2366 0.35208 0.74479 0.0
C390 C 0.24513 0.3672 0.74538 0.0
C391 C 0.2554 0.37178 0.73279 0.0
C392 C 0.25688 0.36096 0.71954 0.0
C393 C 0.24842 0.34579 0.71898 0.0
C394 C 0.22691 0.28702 0.70565 0.0
C395 C 0.23819 0.29078 0.69362 0.0
C396 C 0.7605 0.1816 0.74101 0.0
C397 C 0.74441 0.18061 0.73579 0.0
C398 C 0.73855 0.19395 0.7286 0.0
C399 C 0.74856 0.20799 0.72675 0.0
H400 H 0.74965 0.25548 0.71189 0.0
H401 H 0.74104 0.2764 0.69515 0.0
H402 H 0.79068 0.29429 0.68934 0.0
H403 H 0.79918 0.27382 0.70663 0.0
H404 H 0.82312 0.26426 0.73632 0.0
H405 H 0.84914 0.26633 0.75001 0.0
H406 H 0.84011 0.2176 0.76517 0.0
H407 H 0.81436 0.21536 0.75135 0.0
H408 H 0.78281 0.19587 0.74337 0.0
H409 H 0.76548 0.17145 0.74634 0.0
H410 H 0.72615 0.19364 0.72461 0.0
H411 H 0.74363 0.21808 0.72125 0.0
N412 N 0.77044 0.23623 0.72193 0.0
N413 N 0.79539 0.25075 0.7267 0.0
N414 N 0.79032 0.2251 0.7368 0.0
C415 C 0.7804 0.24971 0.72007 0.0
C416 C 0.80041 0.23849 0.73515 0.0
C417 C 0.77534 0.22384 0.73024 0.0
C418 C 0.77511 0.26291 0.71053 0.0
C419 C 0.75871 0.26395 0.70712 0.0
C420 C 0.75378 0.27592 0.69745 0.0
C421 C 0.76515 0.28702 0.69076 0.0
C422 C 0.78153 0.28615 0.69446 0.0
C423 C 0.78644 0.27431 0.70431 0.0
C424 C 0.81656 0.23968 0.74277 0.0
C425 C 0.82672 0.25394 0.74246 0.0
C426 C 0.84161 0.25516 0.75037 0.0
C427 C 0.84668 0.24213 0.75868 0.0
C428 C 0.83667 0.22778 0.7587 0.0
C429 C 0.82181 0.22656 0.75085 0.0
C430 C 0.76463 0.209 0.73209 0.0
C431 C 0.77047 0.19562 0.73922 0.0
C432 C 0.52524 0.62283 0.62876 0.0
C433 C 0.52702 0.61402 0.64254 0.0
C434 C 0.54146 0.60667 0.64474 0.0
C435 C 0.55344 0.60735 0.63305 0.0
H436 H 0.59 0.58066 0.61612 0.0
H437 H 0.60625 0.55757 0.6141 0.0
H438 H 0.61761 0.56801 0.565 0.0
H439 H 0.60177 0.59131 0.56711 0.0
H440 H 0.58507 0.61889 0.55041 0.0
H441 H 0.58111 0.6349 0.52725 0.0
H442 H 0.55383 0.66716 0.55651 0.0
H443 H 0.55732 0.6509 0.5795 0.0
H444 H 0.53527 0.63007 0.60643 0.0
H445 H 0.51424 0.62851 0.62656 0.0
H446 H 0.54342 0.60011 0.65538 0.0
H447 H 0.56421 0.60116 0.63494 0.0
N448 N 0.57376 0.60307 0.6053 0.0
N449 N 0.58304 0.61128 0.58025 0.0
N450 N 0.56265 0.62462 0.59335 0.0
C451 C 0.58376 0.60128 0.5926 0.0
C452 C 0.57261 0.62307 0.58059 0.0
C453 C 0.56317 0.6147 0.60576 0.0
C454 C 0.59449 0.58785 0.59175 0.0
C455 C 0.59606 0.57813 0.60492 0.0
C456 C 0.60531 0.56481 0.60375 0.0
C457 C 0.61319 0.56086 0.58937 0.0
C458 C 0.61191 0.5708 0.57634 0.0
C459 C 0.60272 0.58415 0.57752 0.0
C460 C 0.57137 0.6335 0.5668 0.0
C461 C 0.57831 0.62946 0.55194 0.0
C462 C 0.57611 0.6387 0.53866 0.0
C463 C 0.56702 0.65225 0.53996 0.0
C464 C 0.56058 0.65659 0.55497 0.0
C465 C 0.56266 0.6473 0.5682 0.0
C466 C 0.55135 0.61555 0.61896 0.0
C467 C 0.5373 0.62365 0.61714 0.0
C468 C 0.57196 0.42271 0.98057 0.0
C469 C 0.55694 0.41391 0.98132 0.0
C470 C 0.54528 0.41601 0.96955 0.0
C471 C 0.54836 0.42711 0.95766 0.0
H472 H 0.5261 0.45029 0.92167 0.0
H473 H 0.50417 0.45858 0.90531 0.0
H474 H 0.53451 0.49966 0.89077 0.0
H475 H 0.55632 0.4916 0.90717 0.0
H476 H 0.58794 0.5021 0.92796 0.0
H477 H 0.61203 0.52001 0.93268 0.0
H478 H 0.63642 0.48054 0.95084 0.0
H479 H 0.61199 0.46283 0.94684 0.0
H480 H 0.58666 0.44058 0.96876 0.0
H481 H 0.58116 0.42153 0.98953 0.0
H482 H 0.53368 0.4092 0.96961 0.0
H483 H 0.53898 0.42866 0.949 0.0
N484 N 0.55401 0.45305 0.93584 0.0
N485 N 0.57066 0.47453 0.92642 0.0
N486 N 0.58036 0.45812 0.94569 0.0
C487 C 0.55627 0.46567 0.92611 0.0
C488 C 0.58278 0.47077 0.93609 0.0
C489 C 0.56603 0.4492 0.94568 0.0
C490 C 0.54301 0.47028 0.91581 0.0
C491 C 0.52812 0.46108 0.91498 0.0
C492 C 0.51556 0.46579 0.90556 0.0
C493 C 0.51758 0.47983 0.89684 0.0
C494 C 0.53249 0.48892 0.89756 0.0
C495 C 0.54504 0.48421 0.9069 0.0
C496 C 0.59801 0.48109 0.93718 0.0
C497 C 0.5985 0.4972 0.9328 0.0
C498 C 0.61239 0.50746 0.93543 0.0
C499 C 0.62621 0.50179 0.94227 0.0
C500 C 0.62592 0.48544 0.94591 0.0
C501 C 0.61193 0.47525 0.94353 0.0
C502 C 0.5632 0.43632 0.95725 0.0
C503 C 0.57507 0.43374 0.96867 0.0
C504 C 0.72552 0.27461 0.3571 0.0
C505 C 0.71367 0.28548 0.36017 0.0
C506 C 0.70255 0.28789 0.34801 0.0
C507 C 0.70335 0.27973 0.33305 0.0
H508 H 0.68541 0.27888 0.28726 0.0
H509 H 0.66522 0.28279 0.26702 0.0
H510 H 0.68138 0.24277 0.23819 0.0
H511 H 0.70155 0.23868 0.2585 0.0
H512 H 0.7373 0.2272 0.26824 0.0
H513 H 0.7568 0.20707 0.26404 0.0
H514 H 0.76516 0.20749 0.31519 0.0
H515 H 0.74616 0.22797 0.31933 0.0
H516 H 0.73561 0.25814 0.34024 0.0
H517 H 0.73414 0.27236 0.36629 0.0
H518 H 0.6934 0.29633 0.34995 0.0
H519 H 0.69464 0.28197 0.32394 0.0
N520 N 0.70598 0.26328 0.30199 0.0
N521 N 0.71783 0.24444 0.28489 0.0
N522 N 0.72724 0.24934 0.3113 0.0
C523 C 0.7067 0.2554 0.28741 0.0
C524 C 0.72817 0.24136 0.29679 0.0
C525 C 0.71621 0.26033 0.314 0.0
C526 C 0.69508 0.25838 0.27459 0.0
C527 C 0.68476 0.27093 0.27658 0.0
C528 C 0.67325 0.27327 0.26492 0.0
C529 C 0.6717 0.26307 0.25102 0.0
C530 C 0.68219 0.25072 0.24885 0.0
C531 C 0.6938 0.24844 0.26048 0.0
C532 C 0.74014 0.22922 0.29412 0.0
C533 C 0.74334 0.22304 0.27859 0.0
C534 C 0.75448 0.21143 0.27619 0.0
C535 C 0.76258 0.20562 0.28927 0.0
C536 C 0.7594 0.21187 0.30479 0.0
C537 C 0.74839 0.22357 0.30718 0.0
C538 C 0.71527 0.26891 0.32992 0.0
C539 C 0.7263 0.26641 0.34216 0.0
C540 C 0.45652 0.13456 0.9789 0.0
C541 C 0.44672 0.1378 0.99216 0.0
C542 C 0.43316 0.12723 0.99494 0.0
C543 C 0.42969 0.1135 0.9849 0.0
H544 H 0.39656 0.07487 0.97704 0.0
H545 H 0.37506 0.05524 0.98458 0.0
H546 H 0.39429 0.01921 0.95269 0.0
H547 H 0.4159 0.03874 0.94517 0.0
H548 H 0.44344 0.04971 0.92127 0.0
H549 H 0.46284 0.04244 0.90094 0.0
H550 H 0.49149 0.08701 0.9121 0.0
H551 H 0.47199 0.0945 0.93221 0.0
H552 H 0.46102 0.11861 0.95888 0.0
H553 H 0.46693 0.1426 0.97632 0.0
H554 H 0.42546 0.12928 0.00516 0.0
H555 H 0.41931 0.10548 0.9876 0.0
N556 N 0.42399 0.08433 0.96509 0.0
N557 N 0.43189 0.06648 0.94456 0.0
N558 N 0.44691 0.09111 0.94989 0.0
C559 C 0.42151 0.0701 0.95648 0.0
C560 C 0.44459 0.07694 0.94115 0.0
C561 C 0.43666 0.0949 0.96187 0.0
C562 C 0.40802 0.05839 0.96052 0.0
C563 C 0.39621 0.06278 0.97157 0.0
C564 C 0.38383 0.05157 0.97584 0.0
C565 C 0.38304 0.0357 0.96925 0.0
C566 C 0.39471 0.03132 0.95809 0.0
C567 C 0.40703 0.04256 0.95372 0.0
C568 C 0.45613 0.07269 0.92844 0.0
C569 C 0.45383 0.05802 0.91937 0.0
C570 C 0.465 0.05378 0.90777 0.0
C571 C 0.47873 0.06412 0.90495 0.0
C572 C 0.48094 0.07887 0.91386 0.0
C573 C 0.46978 0.08311 0.92546 0.0
C574 C 0.43973 0.11002 0.97186 0.0
C575 C 0.45307 0.12083 0.96886 0.0
O576 O 0.23143 0.87845 0.01913 0.0
Cd577 Cd 0.24162 0.89474 0.0363 0.0
Cd578 Cd 0.22071 0.91411 0.02416 0.0
O579 O 0.21352 0.89391 0.00992 0.0
O580 O 0.25318 0.88158 0.05107 0.0
O581 O 0.23281 0.89562 0.05874 0.0
C582 C 0.24362 0.88602 0.06228 0.0
C583 C 0.20178 0.92955 0.03672 0.0
C584 C 0.21997 0.88055 0.00959 0.0
C585 C 0.25589 0.92435 0.02126 0.0
O586 O 0.24153 0.92715 0.01793 0.0
O587 O 0.25869 0.91204 0.02893 0.0
O588 O 0.20383 0.92933 0.02142 0.0
O589 O 0.21009 0.92036 0.04498 0.0
O590 O 0.14564 0.53286 0.27567 0.0
Cd591 Cd 0.13071 0.51391 0.28333 0.0
Cd592 Cd 0.11188 0.52111 0.25934 0.0
O593 O 0.13201 0.53553 0.25343 0.0
O594 O 0.14417 0.49919 0.29444 0.0
O595 O 0.13131 0.49245 0.27154 0.0
C596 C 0.14078 0.48868 0.28282 0.0
C597 C 0.09712 0.5068 0.23886 0.0
C598 C 0.14418 0.53941 0.26236 0.0
C599 C 0.09947 0.52566 0.29308 0.0
O600 O 0.09786 0.5283 0.27832 0.0
O601 O 0.1117 0.51901 0.29789 0.0
O602 O 0.09723 0.52225 0.24075 0.0
O603 O 0.10597 0.49937 0.24834 0.0
O604 O 0.76263 0.67479 0.99507 0.0
Cd605 Cd 0.75481 0.65845 0.01164 0.0
Cd606 Cd 0.77906 0.64216 -0.00037 0.0
O607 O 0.78371 0.66242 0.98656 0.0
O608 O 0.74105 0.67032 0.02677 0.0
O609 O 0.76394 0.66083 0.03401 0.0
C610 C 0.75155 0.66862 0.03779 0.0
C611 C 0.79944 0.63078 0.01325 0.0
C612 C 0.77495 0.67425 0.98617 0.0
C613 C 0.74568 0.62632 0.99537 0.0
O614 O 0.76051 0.62578 0.9921 0.0
O615 O 0.7408 0.63823 0.00354 0.0
O616 O 0.7985 0.62984 0.99781 0.0
O617 O 0.78915 0.63896 0.02104 0.0
O618 O 0.90244 0.03105 0.27679 0.0
Cd619 Cd 0.88822 0.03683 0.258 0.0
Cd620 Cd 0.86851 0.04411 0.28205 0.0
O621 O 0.88714 0.03881 0.29676 0.0
O622 O 0.90308 0.03688 0.2394 0.0
O623 O 0.89195 0.05868 0.24867 0.0
C624 C 0.90149 0.05209 0.2386 0.0
C625 C 0.85816 0.06925 0.28344 0.0
C626 C 0.89999 0.03302 0.29175 0.0
C627 C 0.85648 0.01731 0.25904 0.0
O628 O 0.85397 0.02505 0.27218 0.0
O629 O 0.86921 0.02063 0.25111 0.0
O630 O 0.8546 0.05881 0.29409 0.0
O631 O 0.868 0.0655 0.27217 0.0
O632 O 0.26178 0.17426 0.49581 0.0
Cd633 Cd 0.25417 0.15702 0.51166 0.0
Cd634 Cd 0.27805 0.14161 0.49828 0.0
O635 O 0.28317 0.16274 0.48683 0.0
O636 O 0.24054 0.16829 0.52744 0.0
O637 O 0.26343 0.15839 0.53397 0.0
C638 C 0.25114 0.16611 0.53823 0.0
C639 C 0.29736 0.12961 0.51273 0.0
C640 C 0.27423 0.17445 0.48703 0.0
C641 C 0.24488 0.12603 0.49316 0.0
O642 O 0.25956 0.12609 0.4891 0.0
O643 O 0.24025 0.13697 0.50284 0.0
O644 O 0.29761 0.12938 0.49727 0.0
O645 O 0.28645 0.13734 0.52008 0.0
O646 O 0.39982 0.52975 0.77615 0.0
Cd647 Cd 0.38603 0.53691 0.75765 0.0
Cd648 Cd 0.36682 0.54488 0.78175 0.0
O649 O 0.38556 0.53926 0.79617 0.0
O650 O 0.40075 0.53755 0.73892 0.0
O651 O 0.39077 0.5593 0.74991 0.0
C652 C 0.39996 0.55296 0.73932 0.0
C653 C 0.35681 0.5702 0.78363 0.0
C654 C 0.3978 0.53237 0.79111 0.0
C655 C 0.35373 0.51868 0.75852 0.0
O656 O 0.3518 0.52612 0.77195 0.0
O657 O 0.36631 0.52189 0.75032 0.0
O658 O 0.35329 0.55967 0.79419 0.0
O659 O 0.36642 0.56643 0.77215 0.0
O660 O 0.73484 0.38205 0.51458 0.0
Cd661 Cd 0.7434 0.39722 0.53341 0.0
Cd662 Cd 0.72129 0.41609 0.52277 0.0
O663 O 0.71524 0.39651 0.50726 0.0
O664 O 0.75542 0.38368 0.54743 0.0
O665 O 0.7334 0.39509 0.55521 0.0
C666 C 0.74485 0.38608 0.55838 0.0
C667 C 0.70133 0.42958 0.53605 0.0
C668 C 0.72292 0.38394 0.50552 0.0
C669 C 0.75599 0.42876 0.52114 0.0
O670 O 0.74148 0.4307 0.51756 0.0
O671 O 0.75947 0.41627 0.52817 0.0
O672 O 0.70357 0.43052 0.52085 0.0
O673 O 0.71007 0.42031 0.54375 0.0
O674 O 0.64458 0.02904 0.77221 0.0
Cd675 Cd 0.62958 0.00986 0.7793 0.0
Cd676 Cd 0.61043 0.01879 0.75637 0.0
O677 O 0.6302 0.03396 0.75107 0.0
O678 O 0.64318 0.99499 0.79003 0.0
O679 O 0.63005 0.9885 0.76725 0.0
C680 C 0.63961 0.98458 0.77838 0.0
C681 C 0.59555 0.00507 0.73565 0.0
C682 C 0.64271 0.03692 0.75976 0.0
C683 C 0.59862 0.02158 0.79039 0.0
O684 O 0.59666 0.02492 0.77586 0.0
O685 O 0.61094 0.01466 0.79451 0.0
O686 O 0.59552 0.02045 0.7381 0.0
O687 O 0.60468 0.9974 0.74465 0.0
O688 O 0.98532 0.27973 0.91471 0.0
Cd689 Cd 0.99308 0.26094 0.90056 0.0
Cd690 Cd 0.00574 0.28503 0.88363 0.0
O691 O 0.9986 0.29956 0.9026 0.0
O692 O 0.99187 0.24223 0.9146 0.0
O693 O 0.01476 0.2531 0.90508 0.0
C694 C 0.00736 0.24261 0.91392 0.0
C695 C 0.03209 0.28743 0.87437 0.0
C696 C 0.98947 0.29467 0.91383 0.0
C697 C 0.97967 0.2628 0.86777 0.0
O698 O 0.98848 0.27591 0.86723 0.0
O699 O 0.98023 0.25418 0.8799 0.0
O700 O 0.02202 0.29786 0.87114 0.0
O701 O 0.02728 0.2758 0.88334 0.0
O702 O 0.48475 0.77818 0.41782 0.0
Cd703 Cd 0.49279 0.76015 0.40281 0.0
Cd704 Cd 0.50499 0.78503 0.38671 0.0
O705 O 0.49748 0.79864 0.40617 0.0
O706 O 0.49219 0.74058 0.41567 0.0
O707 O 0.51477 0.7529 0.40699 0.0
C708 C 0.5077 0.7416 0.41511 0.0
C709 C 0.53121 0.78832 0.37724 0.0
C710 C 0.48855 0.79322 0.41733 0.0
C711 C 0.47916 0.76322 0.37018 0.0
O712 O 0.48779 0.77646 0.37008 0.0
O713 O 0.47994 0.75412 0.38192 0.0
O714 O 0.52098 0.79884 0.37485 0.0
O715 O 0.52666 0.77611 0.38555 0.0
O716 O 0.9867 0.78081 0.66154 0.0
Cd717 Cd 0.00477 0.77332 0.64679 0.0
Cd718 Cd 0.99576 0.79694 0.6285 0.0
O719 O 0.98248 0.80254 0.64853 0.0
O720 O 0.01908 0.76151 0.66029 0.0
O721 O 0.02702 0.7843 0.64899 0.0
C722 C 0.03029 0.7727 0.65793 0.0
C723 C 0.00846 0.81787 0.61453 0.0
C724 C 0.97964 0.7937 0.66035 0.0
C725 C 0.99091 0.76267 0.61494 0.0
O726 O 0.98794 0.77731 0.61375 0.0
O727 O 0.99841 0.75841 0.6271 0.0
O728 O 0.99304 0.81523 0.61462 0.0
O729 O 0.01684 0.80892 0.62298 0.0
O730 O 0.48625 0.28084 0.15934 0.0
Cd731 Cd 0.50444 0.27364 0.14453 0.0
Cd732 Cd 0.49405 0.29633 0.12586 0.0
O733 O 0.48036 0.30162 0.14566 0.0
O734 O 0.51877 0.26186 0.15806 0.0
O735 O 0.52664 0.28477 0.14696 0.0
C736 C 0.52994 0.27312 0.15583 0.0
C737 C 0.50659 0.31715 0.11167 0.0
C738 C 0.47825 0.29307 0.15779 0.0
C739 C 0.49036 0.26193 0.11291 0.0
O740 O 0.4868 0.27634 0.11144 0.0
O741 O 0.49823 0.25825 0.12508 0.0
O742 O 0.49118 0.31432 0.11165 0.0
O743 O 0.51502 0.30852 0.12043 0.0
H744 H 0.21687 0.77061 0.89491 0.0
H745 H 0.21613 0.78509 0.92107 0.0
H746 H 0.19616 0.82495 0.89904 0.0
H747 H 0.19724 0.81082 0.87279 0.0
H748 H 0.23246 0.81683 0.9278 0.0
H749 H 0.1666 0.81547 0.93853 0.0
H750 H 0.17549 0.80139 0.92467 0.0
H751 H 0.17312 0.82164 0.91908 0.0
C752 C 0.21233 0.78246 0.89561 0.0
C753 C 0.20715 0.78955 0.88171 0.0
C754 C 0.2118 0.79065 0.91058 0.0
C755 C 0.20589 0.80596 0.91198 0.0
C756 C 0.20045 0.81298 0.89824 0.0
H757 H 0.20139 0.88334 0.98296 0.0
H758 H 0.19715 0.86386 0.96025 0.0
C759 C 0.20107 0.80486 0.88324 0.0
C760 C 0.20658 0.81518 0.92757 0.0
H761 H 0.18336 0.8329 0.95594 0.0
C762 C 0.22175 0.82021 0.93408 0.0
C763 C 0.19256 0.81963 0.93559 0.0
C764 C 0.17599 0.81417 0.92922 0.0
C765 C 0.22331 0.83006 0.94817 0.0
C766 C 0.20928 0.8346 0.95621 0.0
C767 C 0.19408 0.82934 0.94981 0.0
C768 C 0.21023 0.84549 0.9708 0.0
C769 C 0.23999 0.83607 0.95391 0.0
C770 C 0.21843 0.84138 0.98453 0.0
C771 C 0.22103 0.85254 0.99747 0.0
C772 C 0.21523 0.86794 0.99701 0.0
C773 C 0.20607 0.87161 0.98369 0.0
C774 C 0.20362 0.86049 0.97069 0.0
H775 H 0.24909 0.83491 0.94429 0.0
H776 H 0.24036 0.8489 0.95827 0.0
H777 H 0.24351 0.82882 0.96398 0.0
H778 H 0.22325 0.82969 0.98504 0.0
H779 H 0.22797 0.84926 0.00764 0.0
H780 H 0.99216 0.58884 0.38097 0.0
H781 H 0.01308 0.58093 0.36231 0.0
H782 H 0.00837 0.53267 0.37921 0.0
H783 H 0.98756 0.54049 0.39802 0.0
H784 H 0.04261 0.56837 0.36987 0.0
H785 H 0.00425 0.52595 0.33005 0.0
H786 H 0.99599 0.54043 0.3439 0.0
H787 H 0.00292 0.52213 0.35103 0.0
C788 C 0.99561 0.57656 0.38075 0.0
C789 C 0.98817 0.56528 0.39094 0.0
C790 C 0.00751 0.57205 0.37005 0.0
C791 C 0.01211 0.55619 0.36928 0.0
C792 C 0.00475 0.54489 0.37942 0.0
H793 H 0.09878 0.52211 0.32556 0.0
H794 H 0.07776 0.52954 0.34434 0.0
C795 C 0.99285 0.54938 0.39013 0.0
C796 C 0.02493 0.55158 0.35814 0.0
H797 H 0.0324 0.5268 0.32572 0.0
C798 C 0.0404 0.5593 0.3602 0.0
C799 C 0.02192 0.53985 0.34547 0.0
C800 C 0.00534 0.53169 0.34234 0.0
C801 C 0.05305 0.55548 0.34998 0.0
C802 C 0.05012 0.5435 0.33753 0.0
C803 C 0.03461 0.53589 0.33538 0.0
C804 C 0.06289 0.539 0.32628 0.0
C805 C 0.06934 0.5645 0.35238 0.0
C806 C 0.06131 0.54161 0.30991 0.0
C807 C 0.07324 0.53733 0.29916 0.0
C808 C 0.08694 0.53028 0.30458 0.0
C809 C 0.08843 0.52759 0.32101 0.0
C810 C 0.07647 0.53189 0.33176 0.0
H811 H 0.06864 0.57573 0.36 0.0
H812 H 0.07749 0.5567 0.35837 0.0
H813 H 0.07474 0.56768 0.34068 0.0
H814 H 0.05087 0.54704 0.30546 0.0
H815 H 0.07167 0.53954 0.28659 0.0
H816 H 0.79995 0.74926 0.85799 0.0
H817 H 0.79952 0.73366 0.88211 0.0
H818 H 0.76949 0.76737 0.9057 0.0
H819 H 0.77008 0.78325 0.88174 0.0
H820 H 0.80885 0.74464 0.91503 0.0
H821 H 0.74447 0.72209 0.90837 0.0
H822 H 0.75602 0.73039 0.89201 0.0
H823 H 0.74876 0.74353 0.90758 0.0
C824 C 0.7934 0.75348 0.86836 0.0
C825 C 0.785 0.76748 0.86792 0.0
C826 C 0.79313 0.74451 0.8821 0.0
C827 C 0.78436 0.74931 0.89557 0.0
C828 C 0.77614 0.76337 0.8953 0.0
H829 H 0.76058 0.70249 0.984 0.0
H830 H 0.76419 0.72194 0.96307 0.0
C831 C 0.77644 0.77238 0.88159 0.0
C832 C 0.78363 0.73944 0.90983 0.0
H833 H 0.75807 0.71505 0.93147 0.0
C834 C 0.79777 0.73817 0.91868 0.0
C835 C 0.76913 0.73107 0.9145 0.0
C836 C 0.75372 0.73168 0.90509 0.0
C837 C 0.79775 0.72881 0.93224 0.0
C838 C 0.78328 0.72027 0.9368 0.0
C839 C 0.76913 0.72166 0.92799 0.0
C840 C 0.78251 0.70943 0.95039 0.0
C841 C 0.81315 0.72837 0.94168 0.0
C842 C 0.79176 0.69603 0.95031 0.0
C843 C 0.78981 0.68492 0.96233 0.0
C844 C 0.77839 0.6869 0.97452 0.0
C845 C 0.76944 0.70057 0.97477 0.0
C846 C 0.77148 0.71171 0.96282 0.0
H847 H 0.82159 0.73905 0.93963 0.0
H848 H 0.81074 0.72788 0.95473 0.0
H849 H 0.81922 0.71745 0.93778 0.0
H850 H 0.80008 0.69383 0.94065 0.0
H851 H 0.79681 0.67448 0.96172 0.0
H852 H 0.01875 0.9788 0.36216 0.0
H853 H 0.99735 0.98865 0.34601 0.0
H854 H 0.96763 0.99238 0.38805 0.0
H855 H 0.9891 0.98282 0.40438 0.0
H856 H 0.9644 0.97523 0.34226 0.0
H857 H 0.96925 0.03789 0.36912 0.0
H858 H 0.98499 0.02435 0.37111 0.0
H859 H 0.96708 0.02194 0.38293 0.0
C860 C 0.00769 0.98179 0.36798 0.0
C861 C 0.00564 0.98012 0.38455 0.0
C862 C 0.99547 0.98734 0.35873 0.0
C863 C 0.98103 0.99143 0.3659 0.0
C864 C 0.97879 0.98948 0.38236 0.0
H865 H 0.89755 0.03211 0.32449 0.0
H866 H 0.91664 0.02174 0.34305 0.0
C867 C 0.99099 0.98387 0.39162 0.0
C868 C 0.96835 0.99768 0.35605 0.0
H869 H 0.94896 0.03149 0.34961 0.0
C870 C 0.96098 0.98751 0.34387 0.0
C871 C 0.96389 0.01368 0.35829 0.0
C872 C 0.97176 0.02519 0.37098 0.0
C873 C 0.94926 0.99293 0.33379 0.0
C874 C 0.9451 0.00907 0.33573 0.0
C875 C 0.95223 0.01915 0.34814 0.0
C876 C 0.93377 0.01583 0.32465 0.0
C877 C 0.94135 0.98128 0.32123 0.0
C878 C 0.9373 0.01633 0.30825 0.0
C879 C 0.92645 0.0222 0.29764 0.0
C880 C 0.91189 0.02784 0.30324 0.0
C881 C 0.90862 0.02782 0.31978 0.0
C882 C 0.9195 0.02189 0.33039 0.0
H883 H 0.94234 0.96856 0.3243 0.0
H884 H 0.92843 0.98332 0.31975 0.0
H885 H 0.94742 0.98308 0.30956 0.0
H886 H 0.94844 0.01209 0.30363 0.0
H887 H 0.92943 0.02216 0.28502 0.0
H888 H 0.23576 0.23168 0.68234 0.0
H889 H 0.2405 0.21222 0.66023 0.0
H890 H 0.24098 0.25021 0.62683 0.0
H891 H 0.23619 0.26967 0.64877 0.0
H892 H 0.22192 0.20395 0.63315 0.0
H893 H 0.28259 0.22918 0.61623 0.0
H894 H 0.27325 0.23467 0.63501 0.0
H895 H 0.26805 0.24402 0.6169 0.0
C896 C 0.23683 0.23587 0.67027 0.0
C897 C 0.2357 0.25224 0.66732 0.0
C898 C 0.23962 0.22476 0.65768 0.0
C899 C 0.2414 0.22983 0.64195 0.0
C900 C 0.24008 0.24612 0.63894 0.0
H901 H 0.22646 0.18249 0.55034 0.0
H902 H 0.22459 0.19576 0.57685 0.0
C903 C 0.23732 0.25722 0.6515 0.0
C904 C 0.24402 0.21808 0.62851 0.0
H905 H 0.26867 0.21108 0.59674 0.0
C906 C 0.23225 0.20536 0.6253 0.0
C907 C 0.25765 0.21976 0.61847 0.0
C908 C 0.27119 0.23255 0.6219 0.0
C909 C 0.23332 0.19478 0.61181 0.0
C910 C 0.24638 0.19717 0.60116 0.0
C911 C 0.25858 0.20936 0.60484 0.0
C912 C 0.24707 0.18797 0.58558 0.0
C913 C 0.22039 0.18125 0.60902 0.0
C914 C 0.26045 0.17934 0.58157 0.0
C915 C 0.26162 0.17181 0.56631 0.0
C916 C 0.24948 0.17291 0.55478 0.0
C917 C 0.23599 0.18135 0.55895 0.0
C918 C 0.23484 0.18885 0.57416 0.0
H919 H 0.21449 0.17785 0.62044 0.0
H920 H 0.211 0.18526 0.601 0.0
H921 H 0.22534 0.17041 0.60326 0.0
H922 H 0.27008 0.17863 0.59018 0.0
H923 H 0.27218 0.16544 0.56345 0.0
H924 H 0.5176 0.58654 0.65776 0.0
H925 H 0.49446 0.58173 0.67517 0.0
H926 H 0.48183 0.63045 0.67004 0.0
H927 H 0.5054 0.63567 0.65293 0.0
H928 H 0.48555 0.60284 0.70542 0.0
H929 H 0.44183 0.59639 0.65442 0.0
H930 H 0.46277 0.59287 0.65151 0.0
H931 H 0.45709 0.61299 0.65543 0.0
C932 C 0.51018 0.5964 0.66058 0.0
C933 C 0.51344 0.61153 0.65394 0.0
C934 C 0.49688 0.59357 0.67045 0.0
C935 C 0.48648 0.60572 0.67379 0.0
C936 C 0.48974 0.62092 0.66749 0.0
H937 H 0.40675 0.58574 0.74144 0.0
H938 H 0.42639 0.60158 0.72549 0.0
C939 C 0.50315 0.62383 0.65766 0.0
C940 C 0.47195 0.60204 0.68344 0.0
H941 H 0.43218 0.58918 0.67975 0.0
C942 C 0.47378 0.60019 0.69993 0.0
C943 C 0.45671 0.59851 0.67612 0.0
C944 C 0.45433 0.60022 0.65839 0.0
C945 C 0.46083 0.59424 0.70923 0.0
C946 C 0.44574 0.59007 0.70177 0.0
C947 C 0.44376 0.59252 0.6854 0.0
C948 C 0.43261 0.58121 0.71034 0.0
C949 C 0.46355 0.59157 0.72675 0.0
C950 C 0.42936 0.56468 0.70676 0.0
C951 C 0.41829 0.55563 0.71584 0.0
C952 C 0.41014 0.56299 0.72859 0.0
C953 C 0.41284 0.57974 0.73168 0.0
C954 C 0.42407 0.58879 0.72264 0.0
H955 H 0.47635 0.5942 0.73038 0.0
H956 H 0.45609 0.59949 0.73417 0.0
H957 H 0.45978 0.57889 0.72939 0.0
H958 H 0.43585 0.55865 0.69729 0.0
H959 H 0.41642 0.54277 0.71311 0.0
H960 H 0.77763 0.31821 0.68734 0.0
H961 H 0.77126 0.33635 0.66652 0.0
H962 H 0.73431 0.30129 0.64789 0.0
H963 H 0.7413 0.28266 0.66795 0.0
H964 H 0.75312 0.31128 0.62484 0.0
H965 H 0.73549 0.36494 0.66011 0.0
H966 H 0.75494 0.35939 0.66597 0.0
H967 H 0.73744 0.34582 0.66898 0.0
C968 C 0.76814 0.31433 0.67883 0.0
C969 C 0.76006 0.29889 0.67932 0.0
C970 C 0.76431 0.32486 0.66709 0.0
C971 C 0.75212 0.32031 0.65578 0.0
C972 C 0.74368 0.30513 0.65656 0.0
H973 H 0.7216 0.38299 0.5815 0.0
H974 H 0.72237 0.36733 0.60566 0.0
C975 C 0.74763 0.29452 0.66816 0.0
C976 C 0.7493 0.33061 0.64217 0.0
H977 H 0.74255 0.36896 0.63251 0.0
C978 C 0.75061 0.32384 0.62655 0.0
C979 C 0.74582 0.34695 0.64436 0.0
C980 C 0.74317 0.35465 0.66077 0.0
C981 C 0.74907 0.33304 0.6131 0.0
C982 C 0.74662 0.34962 0.6153 0.0
C983 C 0.7447 0.3563 0.63087 0.0
C984 C 0.74651 0.3602 0.60153 0.0
C985 C 0.75005 0.32486 0.59663 0.0
C986 C 0.76 0.36179 0.59155 0.0
C987 C 0.75954 0.37055 0.57775 0.0
C988 C 0.74566 0.37812 0.57378 0.0
C989 C 0.73244 0.37724 0.58423 0.0
C990 C 0.73286 0.36831 0.59801 0.0
H991 H 0.74699 0.31166 0.59693 0.0
H992 H 0.74183 0.32992 0.58803 0.0
H993 H 0.76254 0.32673 0.59211 0.0
H994 H 0.7708 0.35597 0.59427 0.0
H995 H 0.77001 0.37119 0.57007 0.0
H996 H 0.47904 0.98121 0.64388 0.0
H997 H 0.50221 0.98572 0.66185 0.0
H998 H 0.50178 0.93463 0.66826 0.0
H999 H 0.47828 0.92995 0.65045 0.0
H1000 H 0.50413 0.97583 0.69484 0.0
H1001 H 0.5489 0.94907 0.65401 0.0
H1002 H 0.53008 0.95538 0.6467 0.0
H1003 H 0.5303 0.93733 0.65755 0.0
C1004 C 0.48369 0.97092 0.64927 0.0
C1005 C 0.47675 0.95522 0.64577 0.0
C1006 C 0.49701 0.97352 0.65943 0.0
C1007 C 0.50376 0.96049 0.66621 0.0
C1008 C 0.49686 0.9448 0.66292 0.0
H1009 H 0.58794 0.97247 0.73126 0.0
H1010 H 0.56607 0.9592 0.71445 0.0
C1011 C 0.48345 0.94217 0.65276 0.0
C1012 C 0.51791 0.96362 0.67691 0.0
H1013 H 0.55867 0.96157 0.67838 0.0
C1014 C 0.51602 0.97253 0.69136 0.0
C1015 C 0.53336 0.95919 0.67232 0.0
C1016 C 0.53593 0.94978 0.65677 0.0
C1017 C 0.5293 0.97764 0.70111 0.0
C1018 C 0.54485 0.97395 0.69613 0.0
C1019 C 0.54669 0.96438 0.68208 0.0
C1020 C 0.55929 0.98132 0.70468 0.0
C1021 C 0.52667 0.98736 0.71648 0.0
C1022 C 0.56298 0.99798 0.7042 0.0
C1023 C 0.57537 0.00554 0.71368 0.0
C1024 C 0.58433 0.99656 0.72382 0.0
C1025 C 0.58123 0.9797 0.72357 0.0
C1026 C 0.56876 0.97211 0.71403 0.0
H1027 H 0.51397 0.9858 0.72053 0.0
H1028 H 0.53466 0.98387 0.72618 0.0
H1029 H 0.52958 0.00034 0.71447 0.0
H1030 H 0.55589 0.00522 0.69687 0.0
H1031 H 0.57752 0.01852 0.71348 0.0
H1032 H 0.86908 0.21987 0.76064 0.0
H1033 H 0.89292 0.22146 0.77801 0.0
H1034 H 0.88286 0.26941 0.79479 0.0
H1035 H 0.85879 0.26777 0.77783 0.0
H1036 H 0.92041 0.24395 0.77995 0.0
H1037 H 0.88473 0.24413 0.83605 0.0
H1038 H 0.87587 0.23853 0.81664 0.0
H1039 H 0.88014 0.25943 0.82266 0.0
C1040 C 0.87194 0.23074 0.76805 0.0
C1041 C 0.86197 0.24364 0.76797 0.0
C1042 C 0.88559 0.23166 0.77788 0.0
C1043 C 0.88946 0.24544 0.78785 0.0
C1044 C 0.87991 0.25857 0.78735 0.0
H1045 H 0.97487 0.27882 0.84054 0.0
H1046 H 0.95381 0.27275 0.82036 0.0
C1047 C 0.86626 0.25767 0.77753 0.0
C1048 C 0.90325 0.24597 0.79907 0.0
H1049 H 0.91297 0.25006 0.83884 0.0
C1050 C 0.91882 0.24519 0.79284 0.0
C1051 C 0.90107 0.24726 0.81586 0.0
C1052 C 0.88454 0.24723 0.82325 0.0
C1053 C 0.93235 0.24624 0.80299 0.0
C1054 C 0.9302 0.24833 0.81974 0.0
C1055 C 0.91459 0.24856 0.82597 0.0
C1056 C 0.94394 0.251 0.83106 0.0
C1057 C 0.94879 0.24506 0.7957 0.0
C1058 C 0.94533 0.24083 0.84384 0.0
C1059 C 0.9573 0.24433 0.85551 0.0
C1060 C 0.96802 0.25814 0.85464 0.0
C1061 C 0.96684 0.26806 0.84157 0.0
C1062 C 0.95488 0.26455 0.82993 0.0
H1063 H 0.94804 0.23875 0.78366 0.0
H1064 H 0.95449 0.25739 0.79425 0.0
H1065 H 0.95668 0.2386 0.80351 0.0
H1066 H 0.93693 0.23035 0.84497 0.0
H1067 H 0.95786 0.23644 0.86541 0.0
H1068 H 0.4344 0.90812 0.50583 0.0
H1069 H 0.44428 0.88994 0.4848 0.0
H1070 H 0.4311 0.84919 0.51333 0.0
H1071 H 0.42098 0.86727 0.53433 0.0
H1072 H 0.46942 0.86871 0.49044 0.0
H1073 H 0.41279 0.83573 0.46775 0.0
H1074 H 0.41311 0.855 0.47871 0.0
H1075 H 0.41533 0.83695 0.48918 0.0
C1076 C 0.43326 0.89525 0.50746 0.0
C1077 C 0.42689 0.8891 0.52171 0.0
C1078 C 0.439 0.88492 0.49549 0.0
C1079 C 0.4383 0.86825 0.49749 0.0
C1080 C 0.43155 0.86201 0.51149 0.0
H1081 H 0.47148 0.78571 0.44425 0.0
H1082 H 0.45984 0.80427 0.46374 0.0
C1083 C 0.42589 0.87235 0.52351 0.0
C1084 C 0.44568 0.85752 0.48547 0.0
H1085 H 0.43725 0.82579 0.45868 0.0
C1086 C 0.46241 0.85938 0.48339 0.0
C1087 C 0.43647 0.84533 0.47645 0.0
C1088 C 0.41841 0.84314 0.47799 0.0
C1089 C 0.47026 0.84912 0.47272 0.0
C1090 C 0.46104 0.83693 0.46363 0.0
C1091 C 0.44428 0.83514 0.46567 0.0
C1092 C 0.46855 0.82583 0.452 0.0
C1093 C 0.48837 0.85113 0.47163 0.0
C1094 C 0.47727 0.83181 0.43891 0.0
C1095 C 0.48406 0.82124 0.4278 0.0
C1096 C 0.48205 0.80448 0.42948 0.0
C1097 C 0.47327 0.79855 0.44261 0.0
C1098 C 0.46658 0.80912 0.45374 0.0
H1099 H 0.49381 0.85784 0.48238 0.0
H1100 H 0.49357 0.83926 0.4703 0.0
H1101 H 0.4918 0.85809 0.46098 0.0
H1102 H 0.47864 0.84464 0.43714 0.0
H1103 H 0.49062 0.82621 0.41776 0.0
H1104 H 0.14191 0.28842 0.77126 0.0
H1105 H 0.11973 0.2858 0.79032 0.0
H1106 H 0.15322 0.29563 0.82966 0.0
H1107 H 0.17547 0.29848 0.8106 0.0
H1108 H 0.11346 0.26568 0.81484 0.0
H1109 H 0.12128 0.32945 0.83808 0.0
H1110 H 0.13143 0.32227 0.82038 0.0
H1111 H 0.13878 0.31836 0.83997 0.0
C1112 C 0.14457 0.28986 0.78398 0.0
C1113 C 0.16041 0.29376 0.78945 0.0
C1114 C 0.13189 0.2884 0.79485 0.0
C1115 C 0.13479 0.29079 0.81139 0.0
C1116 C 0.15066 0.29412 0.81693 0.0
H1117 H 0.05663 0.26809 0.87948 0.0
H1118 H 0.08272 0.26861 0.86592 0.0
C1119 C 0.16335 0.29571 0.80605 0.0
C1120 C 0.12109 0.29006 0.8227 0.0
H1121 H 0.10103 0.31274 0.85005 0.0
C1122 C 0.11078 0.27592 0.82262 0.0
C1123 C 0.11756 0.30352 0.83271 0.0
C1124 C 0.12774 0.31931 0.83274 0.0
C1125 C 0.09684 0.27495 0.83206 0.0
C1126 C 0.09335 0.28839 0.84212 0.0
C1127 C 0.10383 0.30241 0.84243 0.0
C1128 C 0.07819 0.28864 0.85136 0.0
C1129 C 0.08565 0.25982 0.83062 0.0
C1130 C 0.0673 0.30014 0.84817 0.0
C1131 C 0.05253 0.30001 0.85602 0.0
C1132 C 0.04833 0.28835 0.86722 0.0
C1133 C 0.05947 0.27716 0.87082 0.0
C1134 C 0.07433 0.27737 0.86301 0.0
H1135 H 0.08819 0.2522 0.81977 0.0
H1136 H 0.0872 0.25259 0.84127 0.0
H1137 H 0.0729 0.26279 0.83014 0.0
H1138 H 0.07006 0.30899 0.83926 0.0
H1139 H 0.04425 0.30883 0.85299 0.0
H1140 H 0.53893 0.665 0.53213 0.0
H1141 H 0.53325 0.68003 0.50865 0.0
H1142 H 0.58137 0.67493 0.49137 0.0
H1143 H 0.58744 0.66023 0.51517 0.0
H1144 H 0.55414 0.71006 0.49775 0.0
H1145 H 0.54669 0.65695 0.4544 0.0
H1146 H 0.5435 0.65493 0.47564 0.0
H1147 H 0.5635 0.65883 0.46819 0.0
C1148 C 0.54843 0.66725 0.5235 0.0
C1149 C 0.56369 0.66147 0.52562 0.0
C1150 C 0.5451 0.67574 0.51003 0.0
C1151 C 0.55688 0.67849 0.49832 0.0
C1152 C 0.57212 0.67279 0.50028 0.0
H1153 H 0.54013 0.7441 0.42126 0.0
H1154 H 0.55463 0.7284 0.43991 0.0
C1155 C 0.57551 0.66435 0.51384 0.0
C1156 C 0.553 0.68743 0.48412 0.0
H1157 H 0.54047 0.68203 0.44516 0.0
C1158 C 0.55142 0.70404 0.48615 0.0
C1159 C 0.54938 0.67942 0.46912 0.0
C1160 C 0.55078 0.66153 0.46656 0.0
C1161 C 0.54579 0.71281 0.47363 0.0
C1162 C 0.54172 0.70471 0.45873 0.0
C1163 C 0.54374 0.68818 0.45657 0.0
C1164 C 0.53371 0.71291 0.44594 0.0
C1165 C 0.54347 0.73049 0.47664 0.0
C1166 C 0.51731 0.70901 0.44281 0.0
C1167 C 0.50901 0.71794 0.43225 0.0
C1168 C 0.517 0.73088 0.42454 0.0
C1169 C 0.53364 0.73422 0.42704 0.0
C1170 C 0.54193 0.72532 0.43772 0.0
H1171 H 0.54527 0.73445 0.48946 0.0
H1172 H 0.55223 0.73773 0.46939 0.0
H1173 H 0.53119 0.73315 0.4729 0.0
H1174 H 0.51078 0.69946 0.44905 0.0
H1175 H 0.49622 0.71501 0.43052 0.0
H1176 H 0.87116 0.83022 0.76545 0.0
H1177 H 0.89571 0.82973 0.74938 0.0
H1178 H 0.86986 0.79947 0.71302 0.0
H1179 H 0.84521 0.8004 0.72881 0.0
H1180 H 0.91233 0.80531 0.74067 0.0
H1181 H 0.89191 0.83248 0.6858 0.0
H1182 H 0.88052 0.83288 0.70415 0.0
H1183 H 0.87882 0.81532 0.69061 0.0
C1184 C 0.87073 0.82361 0.75394 0.0
C1185 C 0.85631 0.81543 0.74829 0.0
C1186 C 0.88473 0.82334 0.74478 0.0
C1187 C 0.88458 0.81481 0.72986 0.0
C1188 C 0.87017 0.80656 0.72425 0.0
H1189 H 0.96406 0.7741 0.68159 0.0
H1190 H 0.94197 0.78048 0.69934 0.0
C1191 C 0.85612 0.80702 0.7333 0.0
C1192 C 0.89965 0.81377 0.72057 0.0
H1193 H 0.91549 0.81768 0.68318 0.0
C1194 C 0.91309 0.80821 0.72814 0.0
C1195 C 0.90077 0.81785 0.70432 0.0
C1196 C 0.88728 0.82513 0.69581 0.0
C1197 C 0.92741 0.80607 0.71977 0.0
C1198 C 0.92812 0.80906 0.70323 0.0
C1199 C 0.91489 0.81518 0.69581 0.0
C1200 C 0.94223 0.80549 0.69322 0.0
C1201 C 0.94163 0.80075 0.7288 0.0
C1202 C 0.94953 0.81731 0.68358 0.0
C1203 C 0.96195 0.81359 0.67315 0.0
C1204 C 0.96737 0.79799 0.67224 0.0
C1205 C 0.96029 0.78628 0.68215 0.0
C1206 C 0.94772 0.78994 0.6924 0.0
H1207 H 0.94112 0.80445 0.74175 0.0
H1208 H 0.94142 0.7874 0.72786 0.0
H1209 H 0.95319 0.80583 0.72388 0.0
H1210 H 0.94546 0.82937 0.68397 0.0
H1211 H 0.96718 0.82288 0.66567 0.0
H1212 H 0.07747 0.89577 0.49897 0.0
H1213 H 0.07156 0.87914 0.522 0.0
H1214 H 0.02344 0.89479 0.52393 0.0
H1215 H 0.02927 0.91162 0.50116 0.0
H1216 H 0.06057 0.88923 0.55364 0.0
H1217 H 0.0173 0.84481 0.52169 0.0
H1218 H 0.03137 0.85818 0.5113 0.0
H1219 H 0.0132 0.86546 0.51948 0.0
C1220 C 0.06565 0.89573 0.50435 0.0
C1221 C 0.0538 0.90494 0.49815 0.0
C1222 C 0.0623 0.8862 0.51746 0.0
C1223 C 0.04702 0.88562 0.5245 0.0
C1224 C 0.03522 0.89487 0.51845 0.0
H1225 H 0.99387 0.84098 0.59932 0.0
H1226 H 0.00512 0.858 0.57851 0.0
C1227 C 0.03855 0.90442 0.5054 0.0
C1228 C 0.04331 0.87545 0.53826 0.0
H1229 H 0.0178 0.84437 0.55016 0.0
C1230 C 0.05135 0.8793 0.5529 0.0
C1231 C 0.03135 0.86248 0.53715 0.0
C1232 C 0.02289 0.85735 0.52153 0.0
C1233 C 0.04718 0.87092 0.56671 0.0
C1234 C 0.03482 0.85831 0.56569 0.0
C1235 C 0.02719 0.85415 0.55091 0.0
C1236 C 0.02899 0.84961 0.57986 0.0
C1237 C 0.05555 0.87598 0.58237 0.0
C1238 C 0.03884 0.83954 0.58781 0.0
C1239 C 0.03244 0.8298 0.59983 0.0
C1240 C 0.01608 0.82991 0.60391 0.0
C1241 C 0.0065 0.84055 0.5964 0.0
C1242 C 0.0129 0.85029 0.58449 0.0
H1243 H 0.06259 0.88782 0.58178 0.0
H1244 H 0.04668 0.87674 0.59224 0.0
H1245 H 0.06394 0.86683 0.58536 0.0
H1246 H 0.05124 0.83869 0.58424 0.0
H1247 H 0.04008 0.82165 0.60535 0.0
H1248 H 0.15639 0.79174 0.74864 0.0
H1249 H 0.13397 0.7946 0.73028 0.0
H1250 H 0.13548 0.74495 0.71364 0.0
H1251 H 0.15767 0.74183 0.73219 0.0
H1252 H 0.13143 0.76932 0.6887 0.0
H1253 H 0.08837 0.77101 0.73958 0.0
H1254 H 0.10619 0.78462 0.74131 0.0
H1255 H 0.10793 0.76328 0.74135 0.0
C1256 C 0.15197 0.78142 0.74108 0.0
C1257 C 0.15872 0.7665 0.74202 0.0
C1258 C 0.13923 0.78311 0.73054 0.0
C1259 C 0.13304 0.76995 0.72075 0.0
C1260 C 0.14016 0.75525 0.72111 0.0
H1261 H 0.04024 0.7497 0.677 0.0
H1262 H 0.06588 0.7496 0.69111 0.0
C1263 C 0.15287 0.75352 0.73168 0.0
C1264 C 0.11847 0.77118 0.7109 0.0
H1265 H 0.07794 0.77401 0.71377 0.0
C1266 C 0.11973 0.77043 0.69412 0.0
C1267 C 0.10325 0.77246 0.71809 0.0
C1268 C 0.10121 0.77278 0.73607 0.0
C1269 C 0.10607 0.77093 0.68431 0.0
C1270 C 0.09086 0.77227 0.69153 0.0
C1271 C 0.08965 0.77306 0.7083 0.0
C1272 C 0.07586 0.77208 0.68199 0.0
C1273 C 0.1079 0.76959 0.66633 0.0
C1274 C 0.07301 0.78476 0.67211 0.0
C1275 C 0.0583 0.78488 0.664 0.0
C1276 C 0.04622 0.77234 0.6657 0.0
C1277 C 0.04926 0.75956 0.67542 0.0
C1278 C 0.06391 0.75947 0.68351 0.0
H1279 H 0.11985 0.76558 0.66275 0.0
H1280 H 0.09837 0.76098 0.66087 0.0
H1281 H 0.10661 0.78155 0.66136 0.0
H1282 H 0.08201 0.79474 0.67098 0.0
H1283 H 0.0563 0.79491 0.65664 0.0
H1284 H 0.9744 0.65215 0.50249 0.0
H1285 H 0.98192 0.67312 0.5232 0.0
H1286 H 0.93269 0.68562 0.52579 0.0
H1287 H 0.92506 0.66474 0.50494 0.0
H1288 H 0.97832 0.70669 0.52401 0.0
H1289 H 0.94406 0.67594 0.57237 0.0
H1290 H 0.94847 0.6658 0.55347 0.0
H1291 H 0.93252 0.67914 0.55476 0.0
C1292 C 0.96521 0.65951 0.50729 0.0
C1293 C 0.94912 0.65675 0.50212 0.0
C1294 C 0.96951 0.67142 0.51917 0.0
C1295 C 0.95781 0.68072 0.52616 0.0
C1296 C 0.94182 0.67833 0.52075 0.0
H1297 H 0.97496 0.76774 0.58719 0.0
H1298 H 0.96693 0.74796 0.56555 0.0
C1299 C 0.9375 0.66641 0.50885 0.0
C1300 C 0.96236 0.69279 0.53925 0.0
H1301 H 0.95624 0.70205 0.57892 0.0
C1302 C 0.9735 0.70571 0.53602 0.0
C1303 C 0.95619 0.6913 0.55492 0.0
C1304 C 0.94475 0.67723 0.5592 0.0
C1305 C 0.97852 0.71733 0.54807 0.0
C1306 C 0.97206 0.71604 0.56365 0.0
C1307 C 0.96105 0.70303 0.56691 0.0
C1308 C 0.97676 0.72797 0.57682 0.0
C1309 C 0.99093 0.73069 0.54411 0.0
C1310 C 0.98458 0.72317 0.59049 0.0
C1311 C 0.98911 0.73441 0.60294 0.0
C1312 C 0.98582 0.75065 0.60195 0.0
C1313 C 0.97776 0.75535 0.58831 0.0
C1314 C 0.97323 0.7441 0.57588 0.0
H1315 H 0.99746 0.72779 0.53288 0.0
H1316 H 0.98484 0.7419 0.54245 0.0
H1317 H -0.00017 0.73312 0.55401 0.0
H1318 H 0.98731 0.71073 0.59145 0.0
H1319 H 0.99527 0.73038 0.61328 0.0
H1320 H 0.76495 0.89023 0.20991 0.0
H1321 H 0.78136 0.91602 0.21109 0.0
H1322 H 0.79107 0.91047 0.26119 0.0
H1323 H 0.77492 0.88465 0.26008 0.0
H1324 H 0.77711 0.9442 0.23264 0.0
H1325 H 0.83614 0.91855 0.23987 0.0
H1326 H 0.81846 0.90669 0.23226 0.0
H1327 H 0.82079 0.9113 0.25342 0.0
C1328 C 0.7707 0.89446 0.22113 0.0
C1329 C 0.76869 0.88542 0.2349 0.0
C1330 C 0.77997 0.90921 0.2218 0.0
C1331 C 0.78751 0.91501 0.23618 0.0
C1332 C 0.78547 0.90607 0.24994 0.0
H1333 H 0.82802 0.00686 0.27282 0.0
H1334 H 0.81064 0.98277 0.26514 0.0
C1335 C 0.77614 0.8914 0.24932 0.0
C1336 C 0.79745 0.93051 0.23696 0.0
H1337 H 0.83555 0.94686 0.24493 0.0
C1338 C 0.78992 0.94482 0.23517 0.0
C1339 C 0.81417 0.9312 0.24005 0.0
C1340 C 0.82294 0.91612 0.24138 0.0
C1341 C 0.79861 0.95992 0.23703 0.0
C1342 C 0.81518 0.96063 0.2409 0.0
C1343 C 0.82281 0.94627 0.24206 0.0
C1344 C 0.82476 0.97608 0.24449 0.0
C1345 C 0.79 0.97497 0.23491 0.0
C1346 C 0.83848 0.98027 0.23544 0.0
C1347 C 0.84849 0.994 0.23983 0.0
C1348 C 0.84503 0.00371 0.25346 0.0
C1349 C 0.83103 -0.00032 0.26225 0.0
C1350 C 0.82101 0.98597 0.25782 0.0
H1351 H 0.77878 0.97238 0.22773 0.0
H1352 H 0.78666 0.98006 0.24686 0.0
H1353 H 0.79786 0.98425 0.22895 0.0
H1354 H 0.84161 0.97272 0.22516 0.0
H1355 H 0.85917 0.99674 0.23279 0.0
H1356 H 0.79097 0.20258 0.30522 0.0
H1357 H 0.80843 0.1804 0.3027 0.0
H1358 H 0.77804 0.15776 0.26491 0.0
H1359 H 0.75997 0.17941 0.26799 0.0
H1360 H 0.78438 0.13679 0.2864 0.0
H1361 H 0.84159 0.16988 0.2698 0.0
H1362 H 0.83349 0.17801 0.28807 0.0
H1363 H 0.82257 0.17888 0.26954 0.0
C1364 C 0.78794 0.19287 0.29639 0.0
C1365 C 0.77399 0.1928 0.28685 0.0
C1366 C 0.79811 0.18031 0.29479 0.0
C1367 C 0.79472 0.16754 0.28342 0.0
C1368 C 0.78097 0.16756 0.27368 0.0
H1369 H 0.85832 0.09118 0.26 0.0
H1370 H 0.84321 0.11527 0.25962 0.0
C1371 C 0.77071 0.18003 0.27537 0.0
C1372 C 0.8048 0.15359 0.28249 0.0
H1373 H 0.84348 0.14305 0.27852 0.0
C1374 C 0.79729 0.13816 0.28453 0.0
C1375 C 0.82161 0.15533 0.27985 0.0
C1376 C 0.83026 0.1714 0.27652 0.0
C1377 C 0.80613 0.12449 0.28438 0.0
C1378 C 0.82305 0.12634 0.28261 0.0
C1379 C 0.83054 0.14169 0.28013 0.0
C1380 C 0.83309 0.11243 0.28328 0.0
C1381 C 0.79719 0.10817 0.28592 0.0
C1382 C 0.83282 0.10315 0.29689 0.0
C1383 C 0.8413 0.08934 0.29709 0.0
C1384 C 0.85044 0.08468 0.28376 0.0
C1385 C 0.85135 0.09443 0.27044 0.0
C1386 C 0.84273 0.10819 0.2702 0.0
H1387 H 0.78435 0.10828 0.28237 0.0
H1388 H 0.80275 0.09875 0.27841 0.0
H1389 H 0.79757 0.10481 0.29862 0.0
H1390 H 0.82583 0.10646 0.3073 0.0
H1391 H 0.84051 0.08219 0.3076 0.0
H1392 H 0.35093 0.03957 0.97246 0.0
H1393 H 0.32989 0.01982 0.98134 0.0
H1394 H 0.36512 0.98499 0.98603 0.0
H1395 H 0.38627 0.0047 0.97732 0.0
H1396 H 0.3223 0.98658 0.96647 0.0
H1397 H 0.34109 0.98841 0.03064 0.0
H1398 H 0.34676 0.00458 0.01758 0.0
H1399 H 0.35651 0.98611 0.01581 0.0
C1400 C 0.3542 0.02773 0.97548 0.0
C1401 C 0.37023 0.02367 0.97424 0.0
C1402 C 0.34218 0.01647 0.98046 0.0
C1403 C 0.34604 0.00106 0.98445 0.0
C1404 C 0.36198 0.9969 0.98313 0.0
H1405 H 0.28819 0.9204 0.0228 0.0
H1406 H 0.3103 0.93854 0.01335 0.0
C1407 C 0.37399 0.00811 0.97804 0.0
C1408 C 0.33332 0.98928 0.98986 0.0
H1409 H 0.31936 0.96992 0.02276 0.0
C1410 C 0.32161 0.98291 0.97876 0.0
C1411 C 0.33262 0.98449 0.00587 0.0
C1412 C 0.34483 0.99128 0.01826 0.0
C1413 C 0.30918 0.97174 0.98325 0.0
C1414 C 0.30825 0.9672 0.99937 0.0
C1415 C 0.32009 0.97345 0.01042 0.0
C1416 C 0.29487 0.95624 0.00509 0.0
C1417 C 0.29733 0.96472 0.97062 0.0
C1418 C 0.27892 0.96034 0.00382 0.0
C1419 C 0.26628 0.94998 0.00911 0.0
C1420 C 0.26937 0.93542 0.01596 0.0
C1421 C 0.2854 0.93151 0.01755 0.0
C1422 C 0.29804 0.94185 0.01215 0.0
H1423 H 0.30241 0.96562 0.95836 0.0
H1424 H 0.2937 0.95186 0.97261 0.0
H1425 H 0.2864 0.97153 0.97116 0.0
H1426 H 0.27624 0.9716 0.9988 0.0
H1427 H 0.25409 0.95345 0.00786 0.0
H1428 H 0.22166 0.3618 0.25913 0.0
H1429 H 0.20352 0.38341 0.25615 0.0
H1430 H 0.20677 0.39502 0.30697 0.0
H1431 H 0.22496 0.37371 0.31007 0.0
H1432 H 0.1721 0.38932 0.27639 0.0
H1433 H 0.2227 0.43697 0.28082 0.0
H1434 H 0.2255 0.41636 0.27435 0.0
H1435 H 0.22259 0.42152 0.2952 0.0
C1436 C 0.21846 0.36894 0.26966 0.0
C1437 C 0.22474 0.36606 0.28483 0.0
C1438 C 0.20804 0.38117 0.26795 0.0
C1439 C 0.20391 0.39076 0.28134 0.0
C1440 C 0.20986 0.3877 0.29652 0.0
H1441 H 0.15871 0.4766 0.30605 0.0
H1442 H 0.17279 0.45196 0.30446 0.0
C1443 C 0.22017 0.37546 0.29826 0.0
C1444 C 0.19403 0.40453 0.27956 0.0
H1445 H 0.19635 0.44561 0.28223 0.0
C1446 C 0.17734 0.40166 0.27747 0.0
C1447 C 0.20101 0.42052 0.28098 0.0
C1448 C 0.21895 0.42414 0.28286 0.0
C1449 C 0.16731 0.41449 0.27743 0.0
C1450 C 0.17428 0.43051 0.2793 0.0
C1451 C 0.19104 0.43331 0.28088 0.0
C1452 C 0.16447 0.44462 0.28047 0.0
C1453 C 0.14934 0.41081 0.27608 0.0
C1454 C 0.15497 0.44857 0.26754 0.0
C1455 C 0.1468 0.46267 0.26844 0.0
C1456 C 0.14817 0.47308 0.28223 0.0
C1457 C 0.15744 0.46887 0.29525 0.0
C1458 C 0.1655 0.4548 0.29436 0.0
H1459 H 0.14573 0.39797 0.2782 0.0
H1460 H 0.14296 0.41854 0.28477 0.0
H1461 H 0.14534 0.41335 0.26383 0.0
H1462 H 0.15424 0.44102 0.2566 0.0
H1463 H 0.13982 0.46563 0.25818 0.0
H1464 H 0.15747 0.99718 0.44751 0.0
H1465 H 0.17873 0.01809 0.45516 0.0
H1466 H 0.14686 0.05489 0.44535 0.0
H1467 H 0.12547 0.03414 0.43793 0.0
H1468 H 0.17956 0.06047 0.43369 0.0
H1469 H 0.176 0.04576 0.49799 0.0
H1470 H 0.17888 0.02915 0.48401 0.0
H1471 H 0.16043 0.03895 0.48363 0.0
C1472 C 0.155 0.00973 0.44696 0.0
C1473 C 0.13974 0.014 0.44223 0.0
C1474 C 0.16716 0.02163 0.4513 0.0
C1475 C 0.16425 0.03798 0.451 0.0
C1476 C 0.1493 0.04231 0.44565 0.0
H1477 H 0.21289 0.1212 0.50031 0.0
H1478 H 0.19359 0.09985 0.48941 0.0
C1479 C 0.13713 0.03043 0.44134 0.0
C1480 C 0.1765 0.0506 0.45696 0.0
H1481 H 0.19592 0.06588 0.49101 0.0
C1482 C 0.18321 0.06165 0.4462 0.0
C1483 C 0.181 0.05218 0.47333 0.0
C1484 C 0.17365 0.04098 0.48549 0.0
C1485 C 0.19446 0.07423 0.45139 0.0
C1486 C 0.19913 0.07565 0.46772 0.0
C1487 C 0.19234 0.06465 0.47848 0.0
C1488 C 0.21082 0.08868 0.47399 0.0
C1489 C 0.20101 0.0861 0.43948 0.0
C1490 C 0.22689 0.08933 0.469 0.0
C1491 C 0.23797 0.10148 0.47522 0.0
C1492 C 0.23314 0.11317 0.48657 0.0
C1493 C 0.217 0.11242 0.49156 0.0
C1494 C 0.20596 0.10023 0.48537 0.0
H1495 H 0.19368 0.08539 0.4283 0.0
H1496 H 0.20141 0.09862 0.44476 0.0
H1497 H 0.21347 0.08344 0.43625 0.0
H1498 H 0.23091 0.08034 0.46041 0.0
H1499 H 0.25031 0.10167 0.47114 0.0
H1500 H 0.7222 0.16571 0.71462 0.0
H1501 H 0.70495 0.14101 0.71821 0.0
H1502 H 0.72601 0.13669 0.76489 0.0
H1503 H 0.74278 0.16165 0.76171 0.0
H1504 H 0.71387 0.11024 0.72321 0.0
H1505 H 0.67809 0.13272 0.77437 0.0
H1506 H 0.69051 0.14602 0.76224 0.0
H1507 H 0.69941 0.13534 0.7778 0.0
C1508 C 0.72297 0.15964 0.72575 0.0
C1509 C 0.73382 0.16569 0.7379 0.0
C1510 C 0.71321 0.14547 0.72773 0.0
C1511 C 0.71406 0.13716 0.7419 0.0
C1512 C 0.72495 0.14308 0.75398 0.0
H1513 H 0.66878 0.04913 0.77761 0.0
H1514 H 0.68683 0.07285 0.77241 0.0
C1515 C 0.73467 0.15726 0.75205 0.0
C1516 C 0.70382 0.12209 0.74395 0.0
H1517 H 0.67545 0.10444 0.76829 0.0
C1518 C 0.70539 0.10898 0.733 0.0
C1519 C 0.69277 0.12053 0.75673 0.0
C1520 C 0.68995 0.13444 0.76837 0.0
C1521 C 0.69642 0.0942 0.7347 0.0
C1522 C 0.68555 0.0926 0.7476 0.0
C1523 C 0.68391 0.10572 0.75849 0.0
C1524 C 0.67552 0.07751 0.74994 0.0
C1525 C 0.69883 0.08032 0.72291 0.0
C1526 C 0.66328 0.07227 0.73894 0.0
C1527 C 0.6529 0.05877 0.74189 0.0
C1528 C 0.65459 0.05029 0.75591 0.0
C1529 C 0.66716 0.05536 0.76669 0.0
C1530 C 0.67747 0.06891 0.76376 0.0
H1531 H 0.70999 0.08241 0.7158 0.0
H1532 H 0.69939 0.06892 0.72921 0.0
H1533 H 0.68847 0.07876 0.71446 0.0
H1534 H 0.66146 0.0789 0.72832 0.0
H1535 H 0.64334 0.0552 0.73335 0.0
H1536 H 0.34817 0.00374 0.56811 0.0
H1537 H 0.33495 0.02734 0.55992 0.0
H1538 H 0.38026 0.05602 0.56351 0.0
H1539 H 0.3935 0.03253 0.57192 0.0
H1540 H 0.35506 0.07248 0.57546 0.0
H1541 H 0.34016 0.04419 0.51524 0.0
H1542 H 0.33228 0.0325 0.53136 0.0
H1543 H 0.35371 0.03579 0.52888 0.0
C1544 C 0.35529 0.01509 0.56718 0.0
C1545 C 0.37188 0.01627 0.57052 0.0
C1546 C 0.34774 0.02854 0.56249 0.0
C1547 C 0.3567 0.04334 0.56081 0.0
C1548 C 0.37314 0.0447 0.56469 0.0
H1549 H 0.32477 0.11726 0.50163 0.0
H1550 H 0.34062 0.098 0.51455 0.0
C1551 C 0.38068 0.03128 0.56952 0.0
C1552 C 0.34906 0.05723 0.55441 0.0
H1553 H 0.3288 0.06885 0.52191 0.0
C1554 C 0.34935 0.07174 0.56373 0.0
C1555 C 0.3419 0.05631 0.53899 0.0
C1556 C 0.34211 0.04142 0.52795 0.0
C1557 C 0.34241 0.0853 0.55813 0.0
C1558 C 0.33472 0.08416 0.54295 0.0
C1559 C 0.33463 0.0697 0.53359 0.0
C1560 C 0.32662 0.0977 0.53637 0.0
C1561 C 0.34364 0.10075 0.56839 0.0
C1562 C 0.31373 0.10428 0.54451 0.0
C1563 C 0.30476 0.11548 0.53721 0.0
C1564 C 0.30836 0.12004 0.52154 0.0
C1565 C 0.32166 0.11393 0.51369 0.0
C1566 C 0.33072 0.10291 0.52105 0.0
H1567 H 0.35381 0.10111 0.57706 0.0
H1568 H 0.34527 0.11144 0.56093 0.0
H1569 H 0.33239 0.10161 0.57537 0.0
H1570 H 0.3101 0.10019 0.55618 0.0
H1571 H 0.29449 0.11988 0.5435 0.0
H1572 H 0.64171 0.55719 0.57382 0.0
H1573 H 0.65513 0.53238 0.56895 0.0
H1574 H 0.61908 0.50651 0.59685 0.0
H1575 H 0.60512 0.53112 0.60116 0.0
H1576 H 0.66813 0.51156 0.58915 0.0
H1577 H 0.61685 0.48073 0.55419 0.0
H1578 H 0.61798 0.50201 0.55962 0.0
H1579 H 0.61217 0.48755 0.57426 0.0
C1580 C 0.63655 0.54622 0.57884 0.0
C1581 C 0.6222 0.54613 0.5877 0.0
C1582 C 0.64432 0.53207 0.57617 0.0
C1583 C 0.63795 0.51754 0.58231 0.0
C1584 C 0.62403 0.51752 0.59174 0.0
H1585 H 0.69563 0.4331 0.56842 0.0
H1586 H 0.67898 0.45264 0.58195 0.0
C1587 C 0.61618 0.53166 0.59435 0.0
C1588 C 0.64565 0.50242 0.57824 0.0
H1589 H 0.63978 0.46634 0.55705 0.0
C1590 C 0.66191 0.50157 0.58228 0.0
C1591 C 0.63749 0.48947 0.56919 0.0
C1592 C 0.6202 0.48995 0.56392 0.0
C1593 C 0.67041 0.48839 0.57706 0.0
C1594 C 0.66231 0.47556 0.56781 0.0
C1595 C 0.6459 0.47614 0.56426 0.0
C1596 C 0.67106 0.46249 0.56 0.0
C1597 C 0.68817 0.48872 0.58074 0.0
C1598 C 0.67154 0.46108 0.5432 0.0
C1599 C 0.68086 0.44988 0.53548 0.0
C1600 C 0.68991 0.43984 0.54439 0.0
C1601 C 0.68885 0.44073 0.56123 0.0
C1602 C 0.67944 0.45196 0.56897 0.0
H1603 H 0.69315 0.50081 0.5854 0.0
H1604 H 0.69017 0.47992 0.58997 0.0
H1605 H 0.69499 0.48527 0.56985 0.0
H1606 H 0.66513 0.46904 0.53604 0.0
H1607 H 0.68134 0.44948 0.5225 0.0
H1608 H 0.73898 0.30008 0.37754 0.0
H1609 H 0.73815 0.31541 0.4032 0.0
H1610 H 0.68644 0.3072 0.40381 0.0
H1611 H 0.68718 0.29151 0.37826 0.0
H1612 H 0.72125 0.34353 0.40922 0.0
H1613 H 0.70108 0.29396 0.44866 0.0
H1614 H 0.7096 0.29028 0.42906 0.0
H1615 H 0.6892 0.29563 0.43089 0.0
C1616 C 0.72745 0.30132 0.38324 0.0
C1617 C 0.71315 0.29453 0.3759 0.0
C1618 C 0.72699 0.31016 0.39784 0.0
C1619 C 0.71226 0.31228 0.40545 0.0
C1620 C 0.69795 0.3055 0.39822 0.0
H1621 H 0.70018 0.38544 0.482 0.0
H1622 H 0.69591 0.36749 0.45806 0.0
C1623 C 0.69839 0.29669 0.38356 0.0
C1624 C 0.71192 0.32216 0.42063 0.0
H1625 H 0.70362 0.32038 0.46059 0.0
C1626 C 0.71733 0.33851 0.42045 0.0
C1627 C 0.70691 0.31548 0.43523 0.0
C1628 C 0.70147 0.29785 0.43611 0.0
C1629 C 0.71794 0.3484 0.43453 0.0
C1630 C 0.71281 0.34178 0.44913 0.0
C1631 C 0.70737 0.32542 0.44932 0.0
C1632 C 0.71394 0.35152 0.46442 0.0
C1633 C 0.72449 0.36576 0.43378 0.0
C1634 C 0.72504 0.34808 0.47618 0.0
C1635 C 0.72751 0.35827 0.48987 0.0
C1636 C 0.71885 0.37207 0.49208 0.0
C1637 C 0.70712 0.37499 0.48064 0.0
C1638 C 0.7047 0.36479 0.46693 0.0
H1639 H 0.73081 0.3681 0.42232 0.0
H1640 H 0.7144 0.3737 0.43482 0.0
H1641 H 0.73297 0.36914 0.44387 0.0
H1642 H 0.73224 0.33784 0.47446 0.0
H1643 H 0.73656 0.3556 0.49847 0.0
H1644 H 0.49451 0.08315 0.88323 0.0
H1645 H 0.51488 0.07548 0.86383 0.0
H1646 H 0.51066 0.02695 0.88007 0.0
H1647 H 0.49042 0.03453 0.89962 0.0
H1648 H 0.54466 0.06256 0.87021 0.0
H1649 H 0.50471 0.02111 0.83093 0.0
H1650 H 0.49703 0.03547 0.84529 0.0
H1651 H 0.50405 0.01699 0.85187 0.0
C1652 C 0.49797 0.07086 0.88272 0.0
C1653 C 0.49082 0.05943 0.89293 0.0
C1654 C 0.50954 0.06649 0.8716 0.0
C1655 C 0.5141 0.05062 0.87042 0.0
C1656 C 0.50706 0.03919 0.8806 0.0
H1657 H 0.59894 0.01688 0.82267 0.0
H1658 H 0.57859 0.02386 0.84241 0.0
C1659 C 0.49549 0.04354 0.89174 0.0
C1660 C 0.52649 0.04612 0.85875 0.0
H1661 H 0.53267 0.02193 0.82554 0.0
C1662 C 0.54207 0.05369 0.86043 0.0
C1663 C 0.52297 0.03465 0.84596 0.0
C1664 C 0.50626 0.02666 0.84326 0.0
C1665 C 0.55431 0.04998 0.84967 0.0
C1666 C 0.55088 0.03827 0.83707 0.0
C1667 C 0.53526 0.0308 0.83533 0.0
C1668 C 0.56319 0.03397 0.82524 0.0
C1669 C 0.57073 0.05884 0.85167 0.0
C1670 C 0.56107 0.03707 0.80905 0.0
C1671 C 0.5726 0.03306 0.79776 0.0
C1672 C 0.58645 0.02578 0.80244 0.0
C1673 C 0.58846 0.02254 0.81868 0.0
C1674 C 0.5769 0.02658 0.82998 0.0
H1675 H 0.5704 0.06988 0.85964 0.0
H1676 H 0.57906 0.05081 0.85708 0.0
H1677 H 0.5757 0.0623 0.83988 0.0
H1678 H 0.55053 0.04271 0.80517 0.0
H1679 H 0.57064 0.03569 0.78535 0.0
H1680 H 0.2709 0.28682 0.38546 0.0
H1681 H 0.27008 0.27099 0.40946 0.0
H1682 H 0.30075 0.23754 0.38643 0.0
H1683 H 0.30132 0.25298 0.36226 0.0
H1684 H 0.25929 0.23687 0.41004 0.0
H1685 H 0.32245 0.25011 0.43098 0.0
H1686 H 0.3128 0.26272 0.41743 0.0
H1687 H 0.32001 0.24398 0.41011 0.0
C1688 C 0.27741 0.27606 0.38546 0.0
C1689 C 0.2862 0.27119 0.37192 0.0
C1690 C 0.27702 0.26711 0.39922 0.0
C1691 C 0.28555 0.25327 0.39975 0.0
C1692 C 0.29437 0.2484 0.38634 0.0
H1693 H 0.29595 0.176 0.46251 0.0
H1694 H 0.2989 0.19636 0.44235 0.0
C1695 C 0.29469 0.25726 0.37255 0.0
C1696 C 0.28452 0.24336 0.41398 0.0
H1697 H 0.30704 0.22913 0.44361 0.0
C1698 C 0.26966 0.23528 0.41751 0.0
C1699 C 0.29813 0.2413 0.42357 0.0
C1700 C 0.31425 0.25007 0.42047 0.0
C1701 C 0.26815 0.22473 0.43011 0.0
C1702 C 0.28179 0.22256 0.43968 0.0
C1703 C 0.2966 0.23086 0.43629 0.0
C1704 C 0.28104 0.21118 0.45281 0.0
C1705 C 0.25211 0.21551 0.43262 0.0
C1706 C 0.27042 0.21307 0.46567 0.0
C1707 C 0.2686 0.2014 0.47714 0.0
C1708 C 0.27755 0.18773 0.47606 0.0
C1709 C 0.28885 0.18636 0.46367 0.0
C1710 C 0.29055 0.19797 0.45213 0.0
H1711 H 0.24419 0.21544 0.42189 0.0
H1712 H 0.2537 0.20283 0.43547 0.0
H1713 H 0.24585 0.2213 0.44283 0.0
H1714 H 0.26327 0.2234 0.46663 0.0
H1715 H 0.25994 0.20292 0.48664 0.0
H1716 H 0.49703 0.46116 0.87674 0.0
H1717 H 0.47599 0.47017 0.85948 0.0
H1718 H 0.48698 0.51918 0.87748 0.0
H1719 H 0.508 0.5103 0.89473 0.0
H1720 H 0.44862 0.4867 0.86682 0.0
H1721 H 0.49132 0.52229 0.82882 0.0
H1722 H 0.49779 0.50788 0.84247 0.0
H1723 H 0.49312 0.5276 0.84988 0.0
C1724 C 0.49486 0.47383 0.87712 0.0
C1725 C 0.50428 0.48505 0.88697 0.0
C1726 C 0.48288 0.47896 0.86723 0.0
C1727 C 0.48015 0.49537 0.86701 0.0
C1728 C 0.48917 0.50652 0.8772 0.0
H1729 H 0.39818 0.5367 0.82391 0.0
H1730 H 0.41786 0.52768 0.84266 0.0
C1731 C 0.50116 0.50142 0.88704 0.0
C1732 C 0.468 0.50088 0.85598 0.0
H1733 H 0.46355 0.52501 0.82459 0.0
C1734 C 0.45185 0.49506 0.85757 0.0
C1735 C 0.47232 0.51162 0.8438 0.0
C1736 C 0.48959 0.51761 0.84099 0.0
C1737 C 0.43985 0.49986 0.84739 0.0
C1738 C 0.44412 0.51095 0.8355 0.0
C1739 C 0.46029 0.51663 0.83383 0.0
C1740 C 0.43212 0.51643 0.82428 0.0
C1741 C 0.42279 0.49275 0.84921 0.0
C1742 C 0.43385 0.51346 0.80772 0.0
C1743 C 0.42275 0.51871 0.79698 0.0
C1744 C 0.40968 0.5271 0.80259 0.0
C1745 C 0.40805 0.5302 0.8192 0.0
C1746 C 0.41922 0.52496 0.82994 0.0
H1747 H 0.42225 0.48159 0.85605 0.0
H1748 H 0.41571 0.50164 0.85584 0.0
H1749 H 0.417 0.4899 0.83732 0.0
H1750 H 0.44377 0.50696 0.80311 0.0
H1751 H 0.42439 0.51611 0.78428 0.0
H1752 H 0.7093 0.74922 0.16252 0.0
H1753 H 0.71324 0.73129 0.13898 0.0
H1754 H 0.76359 0.73102 0.15082 0.0
H1755 H 0.75973 0.74884 0.17451 0.0
H1756 H 0.73689 0.73996 0.11375 0.0
H1757 H 0.74686 0.68217 0.14183 0.0
H1758 H 0.73633 0.69787 0.15196 0.0
H1759 H 0.7578 0.70017 0.15008 0.0
C1760 C 0.72115 0.7451 0.16028 0.0
C1761 C 0.73421 0.75042 0.17036 0.0
C1762 C 0.72338 0.73493 0.14681 0.0
C1763 C 0.73866 0.72976 0.14329 0.0
C1764 C 0.75167 0.73475 0.15347 0.0
H1765 H 0.77372 0.67234 0.06227 0.0
H1766 H 0.77099 0.68693 0.08824 0.0
C1767 C 0.74947 0.74502 0.1669 0.0
C1768 C 0.74116 0.72008 0.12833 0.0
H1769 H 0.74962 0.6827 0.11368 0.0
C1770 C 0.73965 0.72743 0.1137 0.0
C1771 C 0.74496 0.70383 0.1284 0.0
C1772 C 0.74651 0.69542 0.14387 0.0
C1773 C 0.74183 0.71896 0.09906 0.0
C1774 C 0.74519 0.70255 0.09906 0.0
C1775 C 0.74697 0.69525 0.11372 0.0
C1776 C 0.74653 0.69275 0.08391 0.0
C1777 C 0.74079 0.72777 0.08373 0.0
C1778 C 0.73354 0.69078 0.07312 0.0
C1779 C 0.7351 0.68261 0.0583 0.0
C1780 C 0.74962 0.67602 0.05406 0.0
C1781 C 0.7624 0.67733 0.06518 0.0
C1782 C 0.76086 0.68565 0.08001 0.0
H1783 H 0.74293 0.74102 0.08593 0.0
H1784 H 0.74964 0.72371 0.07478 0.0
H1785 H 0.72854 0.72529 0.07851 0.0
H1786 H 0.72224 0.69581 0.07607 0.0
H1787 H 0.72496 0.68164 0.05008 0.0
H1788 H 0.99345 0.12231 0.13254 0.0
H1789 H 0.96984 0.11786 0.14953 0.0
H1790 H 0.99921 0.09811 0.18519 0.0
H1791 H 0.02298 0.10331 0.16871 0.0
H1792 H 0.95707 0.08955 0.15769 0.0
H1793 H 0.97261 0.12583 0.21331 0.0
H1794 H 0.98368 0.12857 0.19493 0.0
H1795 H 0.98832 0.11302 0.20813 0.0
C1796 C 0.99499 0.11748 0.14422 0.0
C1797 C 0.01014 0.11314 0.14924 0.0
C1798 C 0.98144 0.11484 0.15387 0.0
C1799 C 0.98276 0.10785 0.16874 0.0
C1800 C 0.99792 0.10388 0.17396 0.0
H1801 H 0.92201 0.041 0.21608 0.0
H1802 H 0.93941 0.05667 0.19827 0.0
C1803 C 0.01148 0.10662 0.16438 0.0
C1804 C 0.96814 0.10304 0.17802 0.0
H1805 H 0.9531 0.10287 0.21602 0.0
C1806 C 0.95605 0.09275 0.17037 0.0
C1807 C 0.96658 0.10743 0.1945 0.0
C1808 C 0.97842 0.11947 0.20313 0.0
C1809 C 0.94306 0.08585 0.17899 0.0
C1810 C 0.94235 0.08904 0.19575 0.0
C1811 C 0.95379 0.10022 0.2032 0.0
C1812 C 0.93088 0.07969 0.20595 0.0
C1813 C 0.93042 0.07494 0.17008 0.0
C1814 C 0.92047 0.08746 0.21644 0.0
C1815 C 0.91052 0.07849 0.22681 0.0
C1816 C 0.91097 0.06164 0.22691 0.0
C1817 C 0.92128 0.05394 0.21625 0.0
C1818 C 0.93118 0.06288 0.20595 0.0
H1819 H 0.92941 0.07823 0.15739 0.0
H1820 H 0.93389 0.06233 0.17005 0.0
H1821 H 0.91844 0.07544 0.17582 0.0
H1822 H 0.92017 0.10045 0.21672 0.0
H1823 H 0.90275 0.08477 0.23494 0.0
H1824 H 0.26752 0.82302 0.19997 0.0
H1825 H 0.26112 0.84378 0.18157 0.0
H1826 H 0.24584 0.8067 0.14575 0.0
H1827 H 0.25208 0.78603 0.16399 0.0
H1828 H 0.27449 0.84959 0.15309 0.0
H1829 H 0.20926 0.83549 0.14403 0.0
H1830 H 0.22019 0.82753 0.1602 0.0
H1831 H 0.21992 0.81778 0.14045 0.0
C1832 C 0.26267 0.81933 0.18821 0.0
C1833 C 0.26021 0.80289 0.18346 0.0
C1834 C 0.25895 0.83118 0.17775 0.0
C1835 C 0.25267 0.82679 0.16241 0.0
C1836 C 0.25016 0.81039 0.15771 0.0
H1837 H 0.26514 0.86573 0.07253 0.0
H1838 H 0.2668 0.85441 0.09876 0.0
C1839 C 0.25379 0.79856 0.16814 0.0
C1840 C 0.25006 0.83919 0.15069 0.0
H1841 H 0.22334 0.8493 0.12254 0.0
C1842 C 0.2632 0.84976 0.14664 0.0
C1843 C 0.23524 0.8397 0.1425 0.0
C1844 C 0.22032 0.82963 0.14716 0.0
C1845 C 0.26226 0.85995 0.13382 0.0
C1846 C 0.24793 0.85926 0.12461 0.0
C1847 C 0.23442 0.84962 0.12944 0.0
C1848 C 0.24727 0.86708 0.10907 0.0
C1849 C 0.27677 0.87106 0.13003 0.0
C1850 C 0.23545 0.8777 0.10598 0.0
C1851 C 0.23434 0.88413 0.09084 0.0
C1852 C 0.24498 0.87991 0.07854 0.0
C1853 C 0.25681 0.86932 0.08174 0.0
C1854 C 0.25788 0.86293 0.0968 0.0
H1855 H 0.2841 0.87444 0.14097 0.0
H1856 H 0.28449 0.86475 0.12135 0.0
H1857 H 0.27322 0.88223 0.12467 0.0
H1858 H 0.22702 0.88092 0.11525 0.0
H1859 H 0.22507 0.89222 0.08872 0.0
H1860 H 0.96909 0.47127 0.16572 0.0
H1861 H 0.99328 0.47577 0.18244 0.0
H1862 H 0.01739 0.44228 0.1517 0.0
H1863 H 0.99359 0.4383 0.13448 0.0
H1864 H 0.01147 0.45544 0.19931 0.0
H1865 H 0.04674 0.48364 0.15006 0.0
H1866 H 0.02519 0.47953 0.14897 0.0
H1867 H 0.03819 0.46347 0.14555 0.0
C1868 C 0.97954 0.46489 0.16249 0.0
C1869 C 0.97944 0.45458 0.14864 0.0
C1870 C 0.9933 0.46736 0.17213 0.0
C1871 C 0.0072 0.45956 0.16813 0.0
C1872 C 0.00688 0.44863 0.15482 0.0
H1873 H 0.09079 0.47406 0.23406 0.0
H1874 H 0.07037 0.46008 0.21606 0.0
C1875 C 0.99317 0.44623 0.14511 0.0
C1876 C 0.02221 0.46362 0.17744 0.0
H1877 H 0.06003 0.48212 0.17472 0.0
C1878 C 0.02217 0.46111 0.19394 0.0
C1879 C 0.03608 0.47112 0.17035 0.0
C1880 C 0.0366 0.47475 0.1528 0.0
C1881 C 0.03548 0.46635 0.20368 0.0
C1882 C 0.04926 0.47405 0.19662 0.0
C1883 C 0.04949 0.47607 0.18003 0.0
C1884 C 0.06267 0.48195 0.20646 0.0
C1885 C 0.03438 0.46438 0.22153 0.0
C1886 C 0.0655 0.49876 0.20651 0.0
C1887 C 0.07716 0.50672 0.21661 0.0
C1888 C 0.08626 0.49801 0.22687 0.0
C1889 C 0.08392 0.48109 0.22632 0.0
C1890 C 0.07219 0.4731 0.21615 0.0
H1891 H 0.02192 0.4607 0.22535 0.0
H1892 H 0.04228 0.45495 0.22496 0.0
H1893 H 0.03852 0.47579 0.22821 0.0
H1894 H 0.05832 0.50581 0.19907 0.0
H1895 H 0.07871 0.51975 0.21667 0.0
H1896 H 0.35797 0.76926 0.27981 0.0
H1897 H 0.38212 0.77125 0.29665 0.0
H1898 H 0.39282 0.72351 0.27976 0.0
H1899 H 0.36896 0.72162 0.26245 0.0
H1900 H 0.388 0.75095 0.3211 0.0
H1901 H 0.43596 0.75 0.27499 0.0
H1902 H 0.41553 0.75404 0.27035 0.0
H1903 H 0.42055 0.73372 0.2729 0.0
C1904 C 0.36564 0.75932 0.2794 0.0
C1905 C 0.36156 0.74529 0.26976 0.0
C1906 C 0.37936 0.76043 0.28912 0.0
C1907 C 0.38931 0.74759 0.28933 0.0
C1908 C 0.38543 0.73366 0.27958 0.0
H1909 H 0.45748 0.73676 0.36703 0.0
H1910 H 0.43622 0.73151 0.34677 0.0
C1911 C 0.3717 0.73253 0.26983 0.0
C1912 C 0.40323 0.7485 0.30046 0.0
H1913 H 0.44417 0.74851 0.30207 0.0
C1914 C 0.40028 0.7504 0.31696 0.0
C1915 C 0.41922 0.74786 0.29497 0.0
C1916 C 0.42309 0.74643 0.27733 0.0
C1917 C 0.41292 0.75175 0.32816 0.0
C1918 C 0.42891 0.75088 0.3227 0.0
C1919 C 0.43187 0.74897 0.3062 0.0
C1920 C 0.44274 0.75299 0.33392 0.0
C1921 C 0.4091 0.75457 0.34569 0.0
C1922 C 0.45382 0.76644 0.33298 0.0
C1923 C 0.46602 0.76944 0.34445 0.0
C1924 C 0.46738 0.759 0.35707 0.0
C1925 C 0.4567 0.74511 0.35754 0.0
C1926 C 0.4445 0.74211 0.34603 0.0
H1927 H 0.39673 0.75843 0.34748 0.0
H1928 H 0.41 0.7432 0.35194 0.0
H1929 H 0.41778 0.76389 0.35142 0.0
H1930 H 0.45269 0.77493 0.32367 0.0
H1931 H 0.47409 0.7802 0.34365 0.0
H1932 H 0.96393 0.39697 0.02889 0.0
H1933 H 0.97293 0.37901 0.00733 0.0
H1934 H 0.92401 0.37003 0.99031 0.0
H1935 H 0.91492 0.38822 0.01185 0.0
H1936 H 0.96453 0.34714 0.00207 0.0
H1937 H 0.94813 0.38086 0.94941 0.0
H1938 H 0.94858 0.3897 0.96959 0.0
H1939 H 0.9317 0.37637 0.96278 0.0
C1940 C 0.95508 0.39116 0.02057 0.0
C1941 C 0.93871 0.39392 0.02208 0.0
C1942 C 0.96025 0.38096 0.00822 0.0
C1943 C 0.94917 0.37333 0.99712 0.0
C1944 C 0.93281 0.37608 0.99855 0.0
H1945 H 0.96754 0.2886 0.93749 0.0
H1946 H 0.9576 0.30776 0.95742 0.0
C1947 C 0.92762 0.38641 0.01087 0.0
C1948 C 0.95481 0.36196 0.98454 0.0
H1949 H 0.95684 0.35463 0.94403 0.0
C1950 C 0.96287 0.34879 0.98938 0.0
C1951 C 0.95281 0.36427 0.968 0.0
C1952 C 0.94497 0.37864 0.96209 0.0
C1953 C 0.96891 0.33779 0.97813 0.0
C1954 C 0.96648 0.33981 0.9616 0.0
C1955 C 0.95855 0.35306 0.95673 0.0
C1956 C 0.97219 0.32833 0.94918 0.0
C1957 C 0.97813 0.32431 0.98407 0.0
C1958 C 0.98333 0.33365 0.93763 0.0
C1959 C 0.98896 0.32274 0.9261 0.0
C1960 C 0.9835 0.30633 0.92592 0.0
C1961 C 0.97214 0.30112 0.93738 0.0
C1962 C 0.96647 0.31204 0.94883 0.0
H1963 H 0.98272 0.32704 0.99648 0.0
H1964 H 0.97002 0.31311 0.98415 0.0
H1965 H 0.98847 0.322 0.97614 0.0
H1966 H 0.98783 0.34621 0.93767 0.0
H1967 H 0.99766 0.32716 0.91741 0.0
H1968 H 0.66176 0.77401 0.29524 0.0
H1969 H 0.63863 0.77099 0.3133 0.0
H1970 H 0.62703 0.81937 0.3044 0.0
H1971 H 0.64983 0.82238 0.28615 0.0
H1972 H 0.63153 0.79114 0.34164 0.0
H1973 H 0.58506 0.79058 0.29382 0.0
H1974 H 0.60576 0.78691 0.28964 0.0
H1975 H 0.60018 0.80715 0.29351 0.0
C1976 C 0.6542 0.78395 0.29705 0.0
C1977 C 0.65759 0.79842 0.28924 0.0
C1978 C 0.64109 0.78225 0.30744 0.0
C1979 C 0.63108 0.79491 0.31003 0.0
C1980 C 0.63453 0.8094 0.30241 0.0
H1981 H 0.54455 0.81347 0.36079 0.0
H1982 H 0.56968 0.8147 0.34578 0.0
C1983 C 0.64764 0.81115 0.29209 0.0
C1984 C 0.61693 0.79304 0.32063 0.0
H1985 H 0.57602 0.79319 0.32068 0.0
C1986 C 0.61936 0.79145 0.3371 0.0
C1987 C 0.60112 0.79343 0.31459 0.0
C1988 C 0.59779 0.79447 0.2969 0.0
C1989 C 0.60637 0.7908 0.34782 0.0
C1990 C 0.59057 0.79151 0.3418 0.0
C1991 C 0.58816 0.79277 0.32527 0.0
C1992 C 0.5763 0.79126 0.35235 0.0
C1993 C 0.60967 0.78989 0.36551 0.0
C1994 C 0.5718 0.77774 0.36122 0.0
C1995 C 0.55743 0.77703 0.3699 0.0
C1996 C 0.54727 0.78976 0.3697 0.0
C1997 C 0.55207 0.80345 0.36118 0.0
C1998 C 0.56643 0.80418 0.35257 0.0
H1999 H 0.62251 0.79333 0.36853 0.0
H2000 H 0.60204 0.79788 0.37268 0.0
H2001 H 0.60679 0.77734 0.3691 0.0
H2002 H 0.57909 0.76752 0.36098 0.0
H2003 H 0.55402 0.76627 0.37628 0.0
H2004 H 0.05787 0.18574 0.03774 0.0
H2005 H 0.05106 0.19924 0.01363 0.0
H2006 H 0.0715 0.16201 0.98432 0.0
H2007 H 0.07745 0.14785 0.00835 0.0
H2008 H 0.06798 0.21175 0.98917 0.0
H2009 H 0.02647 0.16026 0.96643 0.0
H2010 H 0.03505 0.16123 0.98632 0.0
H2011 H 0.04688 0.15546 0.96929 0.0
C2012 C 0.06082 0.18033 0.02618 0.0
C2013 C 0.06794 0.16553 0.02502 0.0
C2014 C 0.05707 0.18816 0.01239 0.0
C2015 C 0.06045 0.18145 0.99714 0.0
C2016 C 0.06842 0.1672 0.99594 0.0
H2017 H 0.03983 0.23899 0.9142 0.0
H2018 H 0.05455 0.22314 0.93251 0.0
C2019 C 0.07202 0.15924 0.00973 0.0
C2020 C 0.05488 0.1891 0.98264 0.0
H2021 H 0.02914 0.18295 0.95069 0.0
C2022 C 0.05959 0.20544 0.98066 0.0
C2023 C 0.04382 0.18085 0.97164 0.0
C2024 C 0.03762 0.16353 0.97355 0.0
C2025 C 0.05315 0.2139 0.96831 0.0
C2026 C 0.04202 0.20567 0.95737 0.0
C2027 C 0.03776 0.18919 0.95902 0.0
C2028 C 0.03333 0.21423 0.94525 0.0
C2029 C 0.05768 0.23176 0.96764 0.0
C2030 C 0.01648 0.21389 0.94584 0.0
C2031 C 0.00806 0.22266 0.93526 0.0
C2032 C 0.0163 0.23205 0.92389 0.0
C2033 C 0.03315 0.23196 0.92291 0.0
C2034 C 0.04158 0.22302 0.93344 0.0
H2035 H 0.06349 0.23686 0.97895 0.0
H2036 H 0.06632 0.23388 0.95773 0.0
H2037 H 0.04692 0.23842 0.96532 0.0
H2038 H 0.00985 0.20716 0.95481 0.0
H2039 H 0.99509 0.22245 0.93634 0.0
H2040 H 0.36045 0.28719 0.2551 0.0
H2041 H 0.38436 0.2856 0.23845 0.0
H2042 H 0.37873 0.33339 0.22254 0.0
H2043 H 0.35513 0.33538 0.23974 0.0
H2044 H 0.38692 0.28734 0.20594 0.0
H2045 H 0.42565 0.33667 0.23677 0.0
H2046 H 0.40726 0.32818 0.24543 0.0
H2047 H 0.40656 0.34254 0.23007 0.0
C2048 C 0.36442 0.29748 0.24826 0.0
C2049 C 0.35596 0.31149 0.24889 0.0
C2050 C 0.37803 0.2965 0.23866 0.0
C2051 C 0.38347 0.30947 0.22948 0.0
C2052 C 0.37492 0.32337 0.22981 0.0
H2053 H 0.45991 0.31901 0.15909 0.0
H2054 H 0.43721 0.32352 0.17688 0.0
C2055 C 0.36132 0.3244 0.23948 0.0
C2056 C 0.39784 0.30816 0.21923 0.0
H2057 H 0.43587 0.3249 0.2128 0.0
C2058 C 0.39763 0.29553 0.20747 0.0
C2059 C 0.41179 0.31888 0.22126 0.0
C2060 C 0.41295 0.33225 0.23415 0.0
C2061 C 0.41097 0.29336 0.19762 0.0
C2062 C 0.42492 0.30402 0.19971 0.0
C2063 C 0.42511 0.31677 0.21131 0.0
C2064 C 0.43942 0.30197 0.18992 0.0
C2065 C 0.41003 0.27978 0.18494 0.0
C2066 C 0.44839 0.28859 0.19172 0.0
C2067 C 0.46139 0.28599 0.18164 0.0
C2068 C 0.46561 0.29673 0.16956 0.0
C2069 C 0.45693 0.31046 0.16821 0.0
C2070 C 0.44398 0.31308 0.17836 0.0
H2071 H 0.39746 0.2747 0.18276 0.0
H2072 H 0.41516 0.28398 0.17346 0.0
H2073 H 0.41719 0.26997 0.1889 0.0
H2074 H 0.44512 0.27999 0.20072 0.0
H2075 H 0.46784 0.27533 0.18304 0.0
H2076 H 0.52881 0.41023 0.99802 0.0
H2077 H 0.52293 0.39346 0.02083 0.0
H2078 H 0.57072 0.37703 0.01841 0.0
H2079 H 0.57666 0.39353 0.9953 0.0
H2080 H 0.52533 0.3587 0.0217 0.0
H2081 H 0.56532 0.39442 0.06601 0.0
H2082 H 0.55874 0.40268 0.0477 0.0
H2083 H 0.57399 0.38859 0.04708 0.0
C2084 C 0.53803 0.40289 0.00216 0.0
C2085 C 0.55321 0.40322 0.9948 0.0
C2086 C 0.53468 0.39343 0.01528 0.0
C2087 C 0.54647 0.38422 0.02139 0.0
C2088 C 0.56158 0.38431 0.01401 0.0
H2089 H 0.53823 0.32088 0.10257 0.0
H2090 H 0.54935 0.33733 0.08095 0.0
C2091 C 0.56493 0.39374 0.00083 0.0
C2092 C 0.54269 0.37427 0.03529 0.0
H2093 H 0.55043 0.37146 0.07523 0.0
C2094 C 0.53087 0.36143 0.03339 0.0
C2095 C 0.55007 0.37782 0.05045 0.0
C2096 C 0.56268 0.39167 0.05308 0.0
C2097 C 0.526 0.35214 0.04633 0.0
C2098 C 0.53291 0.35607 0.06165 0.0
C2099 C 0.54512 0.36859 0.06347 0.0
C2100 C 0.52695 0.3477 0.07596 0.0
C2101 C 0.51348 0.33821 0.0435 0.0
C2102 C 0.51092 0.34868 0.08071 0.0
C2103 C 0.50456 0.33933 0.09294 0.0
C2104 C 0.51417 0.32894 0.10077 0.0
C2105 C 0.53054 0.32878 0.09674 0.0
C2106 C 0.53689 0.33811 0.08438 0.0
H2107 H 0.51278 0.33406 0.03065 0.0
H2108 H 0.5161 0.32787 0.05075 0.0
H2109 H 0.50151 0.34213 0.04706 0.0
H2110 H 0.50316 0.35629 0.07458 0.0
H2111 H 0.49195 0.33986 0.09588 0.0
H2112 H 0.6622 0.29092 0.23899 0.0
H2113 H 0.63923 0.29382 0.22119 0.0
H2114 H 0.62875 0.24227 0.21882 0.0
H2115 H 0.65156 0.23924 0.23667 0.0
H2116 H 0.63138 0.27507 0.18783 0.0
H2117 H 0.58741 0.26576 0.23732 0.0
H2118 H 0.60815 0.27298 0.24097 0.0
H2119 H 0.60314 0.25213 0.23543 0.0
C2120 C 0.65503 0.28021 0.23462 0.0
C2121 C 0.65865 0.26485 0.23926 0.0
C2122 C 0.64201 0.28188 0.2244 0.0
C2123 C 0.63234 0.26826 0.2188 0.0
C2124 C 0.63612 0.25291 0.22307 0.0
H2125 H 0.54128 0.2483 0.17141 0.0
H2126 H 0.56682 0.24789 0.18561 0.0
C2127 C 0.64919 0.25121 0.23318 0.0
C2128 C 0.61778 0.27005 0.20914 0.0
H2129 H 0.57683 0.26722 0.21128 0.0
C2130 C 0.61942 0.27346 0.19291 0.0
C2131 C 0.60229 0.26794 0.21589 0.0
C2132 C 0.60001 0.26459 0.23339 0.0
C2133 C 0.60584 0.27432 0.18306 0.0
C2134 C 0.59029 0.27203 0.18979 0.0
C2135 C 0.58874 0.26893 0.20613 0.0
C2136 C 0.57538 0.27219 0.1801 0.0
C2137 C 0.60824 0.2771 0.16547 0.0
C2138 C 0.57172 0.28597 0.17216 0.0
C2139 C 0.55711 0.2862 0.16388 0.0
C2140 C 0.54585 0.27272 0.16361 0.0
C2141 C 0.54966 0.25891 0.17143 0.0
C2142 C 0.56426 0.25865 0.17956 0.0
H2143 H 0.62054 0.27454 0.16147 0.0
H2144 H 0.59933 0.26943 0.15803 0.0
H2145 H 0.60655 0.2899 0.16327 0.0
H2146 H 0.57997 0.29668 0.1727 0.0
H2147 H 0.55448 0.29706 0.15806 0.0
H2148 H 0.42646 0.1586 0.00632 0.0
H2149 H 0.43341 0.1807 0.02609 0.0
H2150 H 0.48335 0.17061 0.02339 0.0
H2151 H 0.47652 0.14843 0.00376 0.0
H2152 H 0.44817 0.17815 0.05605 0.0
H2153 H 0.48462 0.21948 0.01767 0.0
H2154 H 0.4713 0.20297 0.0095 0.0
H2155 H 0.49078 0.19925 0.01716 0.0
C2156 C 0.43893 0.1611 0.00992 0.0
C2157 C 0.45095 0.15179 0.00345 0.0
C2158 C 0.44287 0.17376 0.02116 0.0
C2159 C 0.45891 0.17738 0.02602 0.0
C2160 C 0.47095 0.16821 0.01952 0.0
H2161 H 0.49554 0.2298 0.11205 0.0
H2162 H 0.48744 0.20937 0.09098 0.0
C2163 C 0.46702 0.15555 0.00829 0.0
C2164 C 0.46296 0.19026 0.0385 0.0
H2165 H 0.48566 0.22571 0.04581 0.0
C2166 C 0.45629 0.1886 0.05381 0.0
C2167 C 0.47343 0.20392 0.03545 0.0
C2168 C 0.48035 0.20665 0.01902 0.0
C2169 C 0.46011 0.20012 0.0663 0.0
C2170 C 0.47103 0.2135 0.06341 0.0
C2171 C 0.47742 0.21533 0.048 0.0
C2172 C 0.47588 0.2258 0.07619 0.0
C2173 C 0.4523 0.19798 0.08244 0.0
C2174 C 0.47233 0.24184 0.07466 0.0
C2175 C 0.47699 0.25356 0.08663 0.0
C2176 C 0.48538 0.24945 0.1003 0.0
C2177 C 0.48903 0.23336 0.10172 0.0
C2178 C 0.48434 0.22165 0.08974 0.0
H2179 H 0.44138 0.18944 0.08159 0.0
H2180 H 0.46096 0.19306 0.09068 0.0
H2181 H 0.44891 0.2097 0.08779 0.0
H2182 H 0.46587 0.24528 0.06424 0.0
H2183 H 0.47402 0.26584 0.08512 0.0
H2184 H 0.26013 0.39326 0.70906 0.0
H2185 H 0.2762 0.41925 0.71058 0.0
H2186 H 0.28771 0.41218 0.76001 0.0
H2187 H 0.27191 0.38616 0.75855 0.0
H2188 H 0.2727 0.44687 0.73334 0.0
H2189 H 0.33193 0.42083 0.73703 0.0
H2190 H 0.31396 0.40925 0.72974 0.0
H2191 H 0.31712 0.41315 0.75091 0.0
C2192 C 0.26617 0.39722 0.72021 0.0
C2193 C 0.2648 0.38766 0.73368 0.0
C2194 C 0.27524 0.41207 0.72108 0.0
C2195 C 0.28322 0.4175 0.73535 0.0
C2196 C 0.28175 0.40809 0.74884 0.0
H2197 H 0.32565 0.50827 0.77304 0.0
H2198 H 0.30772 0.48457 0.76534 0.0
C2199 C 0.27262 0.39331 0.74802 0.0
C2200 C 0.29318 0.43298 0.73625 0.0
H2201 H 0.33162 0.44901 0.74294 0.0
C2202 C 0.28561 0.44738 0.7353 0.0
C2203 C 0.31002 0.43354 0.73858 0.0
C2204 C 0.31881 0.41838 0.73899 0.0
C2205 C 0.29441 0.46242 0.73723 0.0
C2206 C 0.31114 0.46297 0.74032 0.0
C2207 C 0.31877 0.44854 0.74067 0.0
C2208 C 0.32092 0.47831 0.74393 0.0
C2209 C 0.28575 0.47758 0.736 0.0
C2210 C 0.3343 0.48263 0.73444 0.0
C2211 C 0.34463 0.49612 0.73885 0.0
C2212 C 0.34184 0.50547 0.75292 0.0
C2213 C 0.32814 0.50136 0.76213 0.0
C2214 C 0.31781 0.48788 0.75769 0.0
H2215 H 0.27424 0.47523 0.72927 0.0
H2216 H 0.28294 0.48232 0.74824 0.0
H2217 H 0.29336 0.48702 0.73001 0.0
H2218 H 0.33695 0.47533 0.72382 0.0
H2219 H 0.35506 0.49893 0.73147 0.0
H2220 H 0.29083 0.70394 0.80803 0.0
H2221 H 0.30825 0.68173 0.80509 0.0
H2222 H 0.2783 0.66027 0.7664 0.0
H2223 H 0.26029 0.68193 0.76985 0.0
H2224 H 0.28404 0.63872 0.78762 0.0
H2225 H 0.3418 0.67162 0.77236 0.0
H2226 H 0.33347 0.67944 0.79066 0.0
H2227 H 0.32289 0.68082 0.77201 0.0
C2228 C 0.28791 0.6945 0.7989 0.0
C2229 C 0.27409 0.69473 0.78922 0.0
C2230 C 0.29805 0.68192 0.79706 0.0
C2231 C 0.29475 0.66946 0.78534 0.0
C2232 C 0.28116 0.66983 0.77544 0.0
H2233 H 0.35732 0.59261 0.76063 0.0
H2234 H 0.3426 0.61699 0.76076 0.0
C2235 C 0.27094 0.68231 0.77735 0.0
C2236 C 0.30468 0.6554 0.78424 0.0
H2237 H 0.34324 0.6445 0.78039 0.0
C2238 C 0.29697 0.63999 0.7859 0.0
C2239 C 0.32153 0.65702 0.78181 0.0
C2240 C 0.33039 0.67311 0.77894 0.0
C2241 C 0.30565 0.62621 0.78555 0.0
C2242 C 0.32259 0.62791 0.78394 0.0
C2243 C 0.33028 0.64326 0.78187 0.0
C2244 C 0.33244 0.61384 0.78435 0.0
C2245 C 0.29652 0.60993 0.78669 0.0
C2246 C 0.33201 0.60428 0.79776 0.0
C2247 C 0.34027 0.59031 0.79767 0.0
C2248 C 0.34933 0.58576 0.78425 0.0
C2249 C 0.3504 0.59578 0.77113 0.0
C2250 C 0.34201 0.6097 0.77118 0.0
H2251 H 0.2837 0.61027 0.78313 0.0
H2252 H 0.302 0.60061 0.77897 0.0
H2253 H 0.29682 0.60625 0.79928 0.0
H2254 H 0.32504 0.60749 0.80822 0.0
H2255 H 0.33935 0.58295 0.80804 0.0
H2256 H 0.8824 0.51209 0.47456 0.0
H2257 H 0.86143 0.4926 0.48401 0.0
H2258 H 0.82613 0.52736 0.47929 0.0
H2259 H 0.84699 0.54687 0.46966 0.0
H2260 H 0.84021 0.49825 0.5119 0.0
H2261 H 0.80748 0.48503 0.45405 0.0
H2262 H 0.82809 0.4935 0.45509 0.0
H2263 H 0.81196 0.50598 0.45984 0.0
C2264 C 0.87013 0.5155 0.47535 0.0
C2265 C 0.8663 0.53097 0.47132 0.0
C2266 C 0.85822 0.50441 0.48083 0.0
C2267 C 0.84227 0.50855 0.4822 0.0
C2268 C 0.83837 0.52394 0.47814 0.0
H2269 H 0.75258 0.45833 0.50929 0.0
H2270 H 0.77382 0.4779 0.50079 0.0
C2271 C 0.8503 0.53508 0.47276 0.0
C2272 C 0.82975 0.49689 0.48824 0.0
H2273 H 0.79569 0.47376 0.47709 0.0
C2274 C 0.83049 0.49282 0.50432 0.0
C2275 C 0.81711 0.48996 0.47828 0.0
C2276 C 0.81608 0.4937 0.46081 0.0
C2277 C 0.81866 0.48215 0.51083 0.0
C2278 C 0.80604 0.47512 0.50084 0.0
C2279 C 0.80537 0.47919 0.48472 0.0
C2280 C 0.79334 0.46352 0.5068 0.0
C2281 C 0.81958 0.47884 0.52841 0.0
C2282 C 0.79728 0.44894 0.51299 0.0
C2283 C 0.78517 0.43777 0.51798 0.0
C2284 C 0.76889 0.44089 0.51665 0.0
C2285 C 0.765 0.45554 0.51047 0.0
C2286 C 0.77711 0.46674 0.50559 0.0
H2287 H 0.8271 0.48846 0.53521 0.0
H2288 H 0.80742 0.47782 0.53384 0.0
H2289 H 0.82514 0.46729 0.52978 0.0
H2290 H 0.80971 0.44606 0.51368 0.0
H2291 H 0.78857 0.42655 0.52257 0.0
H2292 H 0.71976 0.85752 0.75437 0.0
H2293 H 0.70152 0.87899 0.7513 0.0
H2294 H 0.70053 0.88735 0.80261 0.0
H2295 H 0.71892 0.86623 0.80584 0.0
H2296 H 0.6677 0.88417 0.77396 0.0
H2297 H 0.71994 0.93022 0.77471 0.0
H2298 H 0.72147 0.90991 0.76654 0.0
H2299 H 0.72023 0.91362 0.7878 0.0
C2300 C 0.71558 0.86387 0.765 0.0
C2301 C 0.72082 0.86019 0.78035 0.0
C2302 C 0.70509 0.87601 0.76322 0.0
C2303 C 0.69973 0.88463 0.77674 0.0
C2304 C 0.7045 0.88068 0.79207 0.0
H2305 H 0.6585 0.97269 0.80094 0.0
H2306 H 0.67186 0.94762 0.79926 0.0
C2307 C 0.71494 0.86857 0.79387 0.0
C2308 C 0.69021 0.89866 0.77498 0.0
H2309 H 0.69406 0.93972 0.77557 0.0
C2310 C 0.67338 0.89634 0.77411 0.0
C2311 C 0.69778 0.91441 0.77525 0.0
C2312 C 0.71586 0.91734 0.77607 0.0
C2313 C 0.66384 0.90955 0.77402 0.0
C2314 C 0.67143 0.92536 0.77465 0.0
C2315 C 0.6883 0.92758 0.7751 0.0
C2316 C 0.66222 0.93988 0.77584 0.0
C2317 C 0.64577 0.90656 0.77389 0.0
C2318 C 0.65226 0.94377 0.76325 0.0
C2319 C 0.64453 0.95814 0.76418 0.0
C2320 C 0.64677 0.96885 0.77768 0.0
C2321 C 0.65655 0.96474 0.79036 0.0
C2322 C 0.6642 0.95041 0.78943 0.0
H2323 H 0.64185 0.89391 0.77653 0.0
H2324 H 0.64029 0.91478 0.78282 0.0
H2325 H 0.64107 0.90898 0.76187 0.0
H2326 H 0.65079 0.93592 0.75255 0.0
H2327 H 0.63712 0.96101 0.75419 0.0
H2328 H 0.63861 0.52773 0.92579 0.0
H2329 H 0.66006 0.54785 0.93444 0.0
H2330 H 0.6681 0.52127 0.97647 0.0
H2331 H 0.64592 0.50178 0.96858 0.0
H2332 H 0.66632 0.55172 0.98448 0.0
H2333 H 0.70788 0.54739 0.93312 0.0
H2334 H 0.6881 0.55156 0.92685 0.0
H2335 H 0.69111 0.53275 0.93581 0.0
C2336 C 0.6449 0.52616 0.9369 0.0
C2337 C 0.64045 0.5131 0.94649 0.0
C2338 C 0.65737 0.53755 0.94169 0.0
C2339 C 0.66589 0.53594 0.95597 0.0
C2340 C 0.66177 0.52271 0.96535 0.0
H2341 H 0.7522 0.59611 0.98437 0.0
H2342 H 0.73296 0.57389 0.97533 0.0
C2343 C 0.64916 0.51146 0.9607 0.0
C2344 C 0.67826 0.54863 0.96178 0.0
H2345 H 0.71236 0.57072 0.95094 0.0
C2346 C 0.67647 0.55576 0.97719 0.0
C2347 C 0.69162 0.55377 0.95237 0.0
C2348 C 0.6949 0.54584 0.93619 0.0
C2349 C 0.6875 0.56807 0.98335 0.0
C2350 C 0.70036 0.57381 0.97361 0.0
C2351 C 0.70235 0.56647 0.95832 0.0
C2352 C 0.71196 0.58735 0.97909 0.0
C2353 C 0.68537 0.57456 0.00035 0.0
C2354 C 0.70656 0.60235 0.98402 0.0
C2355 C 0.7175 0.61499 0.98943 0.0
C2356 C 0.73408 0.61296 0.98966 0.0
C2357 C 0.7395 0.59805 0.98434 0.0
C2358 C 0.72852 0.58534 0.97915 0.0
H2359 H 0.67837 0.56566 0.00762 0.0
H2360 H 0.69716 0.57778 0.00635 0.0
H2361 H 0.67862 0.58553 0.0002 0.0
H2362 H 0.69387 0.60433 0.98362 0.0
H2363 H 0.71298 0.62641 0.99325 0.0
H2364 H 0.25197 0.65 0.218 0.0
H2365 H 0.23509 0.62488 0.22081 0.0
H2366 H 0.20183 0.65064 0.24991 0.0
H2367 H 0.21841 0.67579 0.24676 0.0
H2368 H 0.22714 0.60903 0.24679 0.0
H2369 H 0.17151 0.62655 0.21839 0.0
H2370 H 0.19049 0.63833 0.21698 0.0
H2371 H 0.17807 0.64053 0.23448 0.0
C2372 C 0.24099 0.65027 0.22491 0.0
C2373 C 0.2364 0.66482 0.23206 0.0
C2374 C 0.23136 0.63595 0.22649 0.0
C2375 C 0.21704 0.63593 0.23531 0.0
C2376 C 0.21256 0.65044 0.24263 0.0
H2377 H 0.1668 0.55667 0.28122 0.0
H2378 H 0.18531 0.57913 0.27359 0.0
C2379 C 0.22206 0.66479 0.24089 0.0
C2380 C 0.2071 0.62066 0.23746 0.0
H2381 H 0.16865 0.60352 0.23465 0.0
C2382 C 0.21438 0.60774 0.24396 0.0
C2383 C 0.19054 0.61886 0.23348 0.0
C2384 C 0.18224 0.63175 0.22528 0.0
C2385 C 0.20542 0.5933 0.24713 0.0
C2386 C 0.18863 0.59193 0.24416 0.0
C2387 C 0.18148 0.60463 0.23713 0.0
C2388 C 0.17813 0.57765 0.24858 0.0
C2389 C 0.21408 0.57964 0.25348 0.0
C2390 C 0.16767 0.56956 0.23715 0.0
C2391 C 0.15683 0.55693 0.24157 0.0
C2392 C 0.15632 0.5521 0.25748 0.0
C2393 C 0.16702 0.56 0.26883 0.0
C2394 C 0.1777 0.57278 0.26446 0.0
H2395 H 0.22694 0.58045 0.2499 0.0
H2396 H 0.21367 0.58032 0.26678 0.0
H2397 H 0.20841 0.56773 0.24911 0.0
H2398 H 0.16775 0.57315 0.22485 0.0
H2399 H 0.14876 0.55105 0.23254 0.0
H2400 H 0.88725 0.51914 0.04256 0.0
H2401 H 0.87314 0.54245 0.0354 0.0
H2402 H 0.85593 0.54783 0.0839 0.0
H2403 H 0.86991 0.52434 0.09117 0.0
H2404 H 0.83954 0.54481 0.03818 0.0
H2405 H 0.87442 0.59388 0.07378 0.0
H2406 H 0.88207 0.57444 0.06937 0.0
H2407 H 0.86704 0.57662 0.08452 0.0
C2408 C 0.88043 0.52523 0.05171 0.0
C2409 C 0.87963 0.51982 0.06742 0.0
C2410 C 0.87247 0.53862 0.04762 0.0
C2411 C 0.86365 0.54695 0.05916 0.0
C2412 C 0.86294 0.54174 0.0749 0.0
H2413 H 0.80066 0.62477 0.04526 0.0
H2414 H 0.81676 0.60524 0.05778 0.0
C2415 C 0.87091 0.52831 0.07902 0.0
C2416 C 0.85444 0.56046 0.05431 0.0
H2417 H 0.85202 0.60119 0.05907 0.0
C2418 C 0.84225 0.55713 0.04277 0.0
C2419 C 0.85793 0.57648 0.06044 0.0
C2420 C 0.87114 0.58068 0.07264 0.0
C2421 C 0.83355 0.56942 0.03703 0.0
C2422 C 0.83735 0.58552 0.04278 0.0
C2423 C 0.84923 0.58884 0.05465 0.0
C2424 C 0.82939 0.59898 0.03602 0.0
C2425 C 0.82034 0.56509 0.02483 0.0
C2426 C 0.83169 0.60235 0.01986 0.0
C2427 C 0.82254 0.6134 0.01269 0.0
C2428 C 0.81097 0.62138 0.0216 0.0
C2429 C 0.80946 0.6188 0.03808 0.0
C2430 C 0.81862 0.60765 0.04525 0.0
H2431 H 0.81629 0.55206 0.02468 0.0
H2432 H 0.80981 0.57222 0.0273 0.0
H2433 H 0.82491 0.56787 0.01271 0.0
H2434 H 0.84014 0.59593 0.01262 0.0
H2435 H 0.82411 0.61522 1e-05 0.0
H2436 H 0.12144 0.04868 0.05782 0.0
H2437 H 0.13654 0.02493 0.05319 0.0
H2438 H 0.14316 0.02189 0.10416 0.0
H2439 H 0.1282 0.04589 0.10895 0.0
H2440 H 0.16889 0.02143 0.06336 0.0
H2441 H 0.12472 0.97584 0.08859 0.0
H2442 H 0.11916 0.99538 0.08304 0.0
H2443 H 0.13054 0.99358 0.10104 0.0
C2444 C 0.12623 0.04309 0.06807 0.0
C2445 C 0.12367 0.04925 0.08376 0.0
C2446 C 0.13475 0.02945 0.0654 0.0
C2447 C 0.14081 0.02159 0.07834 0.0
C2448 C 0.13834 0.02764 0.09403 0.0
H2449 H 0.19807 0.9368 0.06891 0.0
H2450 H 0.18329 0.95871 0.08106 0.0
C2451 C 0.1298 0.04135 0.09673 0.0
C2452 C 0.15009 0.00733 0.07514 0.0
H2453 H 0.14834 0.96635 0.07729 0.0
C2454 C 0.16448 0.00941 0.06654 0.0
C2455 C 0.14434 0.9917 0.07942 0.0
C2456 C 0.1288 0.98885 0.08845 0.0
C2457 C 0.17305 0.99621 0.06168 0.0
C2458 C 0.16693 0.98051 0.06531 0.0
C2459 C 0.15292 0.97844 0.07451 0.0
C2460 C 0.17433 0.96616 0.05846 0.0
C2461 C 0.18845 0.99911 0.05241 0.0
C2462 C 0.17366 0.96283 0.04186 0.0
C2463 C 0.182 0.95041 0.03492 0.0
C2464 C 0.19116 0.94104 0.04448 0.0
C2465 C 0.19113 0.94383 0.06124 0.0
C2466 C 0.18273 0.95633 0.06819 0.0
H2467 H 0.19356 0.0118 0.05407 0.0
H2468 H 0.19759 0.99099 0.05615 0.0
H2469 H 0.18595 0.99657 0.03944 0.0
H2470 H 0.16705 0.97018 0.0342 0.0
H2471 H 0.18167 0.94851 0.02199 0.0
loop_
_geom_bond_atom_site_label_1
_geom_bond_atom_site_label_2
_geom_bond_distance
_geom_bond_site_symmetry_2
_ccdc_geom_bond_type
C0 C1 1.384 . S
C0 H13 0.947 . S
C0 C35 1.382 . S
C1 C0 1.384 . S
C1 C2 1.378 . S
C2 C1 1.378 . S
C2 C3 1.378 . S
C2 H14 0.952 . S
C3 C2 1.378 . S
C3 H15 0.950 . S
C3 C34 1.383 . S
H4 C23 0.947 . S
H5 C24 0.946 . S
H6 C26 0.953 . S
H7 C27 0.945 . S
H8 C29 0.952 . S
H9 C30 0.949 . S
H10 C32 0.950 . S
H11 C33 0.948 . S
H12 C35 0.951 . S
H13 C0 0.947 . S
H14 C2 0.952 . S
H15 C3 0.950 . S
N16 C19 1.382 . S
N16 C21 1.363 . S
N17 C19 1.371 . S
N17 C20 1.372 . S
N18 C20 1.361 . S
N18 C21 1.377 . S
C19 N16 1.382 . S
C19 N17 1.371 . S
C19 C22 1.480 . S
C20 N17 1.372 . S
C20 N18 1.361 . S
C20 C28 1.457 . S
C21 N16 1.363 . S
C21 N18 1.377 . S
C21 C34 1.479 . S
C22 C19 1.480 . S
C22 C23 1.383 . S
C22 C27 1.385 . S
C23 H4 0.947 . S
C23 C22 1.383 . S
C23 C24 1.388 . S
C24 H5 0.946 . S
C24 C23 1.388 . S
C24 C25 1.384 . S
C25 C24 1.384 . S
C25 C26 1.377 . S
C26 H6 0.953 . S
C26 C25 1.377 . S
C26 C27 1.369 . S
C27 H7 0.945 . S
C27 C22 1.385 . S
C27 C26 1.369 . S
C28 C20 1.457 . S
C28 C29 1.372 . S
C28 C33 1.364 . S
C29 H8 0.952 . S
C29 C28 1.372 . S
C29 C30 1.389 . S
C30 H9 0.949 . S
C30 C29 1.389 . S
C30 C31 1.387 . S
C31 C30 1.387 . S
C31 C32 1.372 . S
C32 H10 0.950 . S
C32 C31 1.372 . S
C32 C33 1.379 . S
C33 H11 0.948 . S
C33 C28 1.364 . S
C33 C32 1.379 . S
C34 C3 1.383 . S
C34 C21 1.479 . S
C34 C35 1.398 . S
C35 C0 1.382 . S
C35 H12 0.951 . S
C35 C34 1.398 . S
C36 C37 1.384 . S
C36 H49 0.947 . S
C36 C71 1.382 . S
C37 C36 1.384 . S
C37 C38 1.378 . S
C38 C37 1.378 . S
C38 C39 1.378 . S
C38 H50 0.952 . S
C39 C38 1.378 . S
C39 H51 0.950 . S
C39 C70 1.383 . S
H40 C59 0.947 . S
H41 C60 0.946 . S
H42 C62 0.953 . S
H43 C63 0.945 . S
H44 C65 0.952 . S
H45 C66 0.949 . S
H46 C68 0.950 . S
H47 C69 0.948 . S
H48 C71 0.951 . S
H49 C36 0.947 . S
H50 C38 0.952 . S
H51 C39 0.950 . S
N52 C55 1.382 . S
N52 C57 1.363 . S
N53 C55 1.371 . S
N53 C56 1.372 . S
N54 C56 1.361 . S
N54 C57 1.377 . S
C55 N52 1.382 . S
C55 N53 1.371 . S
C55 C58 1.480 . S
C56 N53 1.372 . S
C56 N54 1.361 . S
C56 C64 1.457 . S
C57 N52 1.363 . S
C57 N54 1.377 . S
C57 C70 1.479 . S
C58 C55 1.480 . S
C58 C59 1.383 . S
C58 C63 1.385 . S
C59 H40 0.947 . S
C59 C58 1.383 . S
C59 C60 1.388 . S
C60 H41 0.946 . S
C60 C59 1.388 . S
C60 C61 1.384 . S
C61 C60 1.384 . S
C61 C62 1.377 . S
C62 H42 0.953 . S
C62 C61 1.377 . S
C62 C63 1.369 . S
C63 H43 0.945 . S
C63 C58 1.385 . S
C63 C62 1.369 . S
C64 C56 1.457 . S
C64 C65 1.372 . S
C64 C69 1.364 . S
C65 H44 0.952 . S
C65 C64 1.372 . S
C65 C66 1.389 . S
C66 H45 0.949 . S
C66 C65 1.389 . S
C66 C67 1.387 . S
C67 C66 1.387 . S
C67 C68 1.372 . S
C68 H46 0.950 . S
C68 C67 1.372 . S
C68 C69 1.379 . S
C69 H47 0.948 . S
C69 C64 1.364 . S
C69 C68 1.379 . S
C70 C39 1.383 . S
C70 C57 1.479 . S
C70 C71 1.398 . S
C71 C36 1.382 . S
C71 H48 0.951 . S
C71 C70 1.398 . S
C72 C73 1.384 . S
C72 H85 0.947 . S
C72 C107 1.382 . S
C73 C72 1.384 . S
C73 C74 1.378 . S
C74 C73 1.378 . S
C74 C75 1.378 . S
C74 H86 0.952 . S
C75 C74 1.378 . S
C75 H87 0.950 . S
C75 C106 1.383 . S
H76 C95 0.947 . S
H77 C96 0.946 . S
H78 C98 0.953 . S
H79 C99 0.945 . S
H80 C101 0.952 . S
H81 C102 0.949 . S
H82 C104 0.950 . S
H83 C105 0.948 . S
H84 C107 0.951 . S
H85 C72 0.947 . S
H86 C74 0.952 . S
H87 C75 0.950 . S
N88 C91 1.382 . S
N88 C93 1.363 . S
N89 C91 1.371 . S
N89 C92 1.372 . S
N90 C92 1.361 . S
N90 C93 1.377 . S
C91 N88 1.382 . S
C91 N89 1.371 . S
C91 C94 1.480 . S
C92 N89 1.372 . S
C92 N90 1.361 . S
C92 C100 1.457 . S
C93 N88 1.363 . S
C93 N90 1.377 . S
C93 C106 1.479 . S
C94 C91 1.480 . S
C94 C95 1.383 . S
C94 C99 1.385 . S
C95 H76 0.947 . S
C95 C94 1.383 . S
C95 C96 1.388 . S
C96 H77 0.946 . S
C96 C95 1.388 . S
C96 C97 1.384 . S
C97 C96 1.384 . S
C97 C98 1.377 . S
C98 H78 0.953 . S
C98 C97 1.377 . S
C98 C99 1.369 . S
C99 H79 0.945 . S
C99 C94 1.385 . S
C99 C98 1.369 . S
C100 C92 1.457 . S
C100 C101 1.372 . S
C100 C105 1.364 . S
C101 H80 0.952 . S
C101 C100 1.372 . S
C101 C102 1.389 . S
C102 H81 0.949 . S
C102 C101 1.389 . S
C102 C103 1.387 . S
C103 C102 1.387 . S
C103 C104 1.372 . S
C104 H82 0.950 . S
C104 C103 1.372 . S
C104 C105 1.379 . S
C105 H83 0.948 . S
C105 C100 1.364 . S
C105 C104 1.379 . S
C106 C75 1.383 . S
C106 C93 1.479 . S
C106 C107 1.398 . S
C107 C72 1.382 . S
C107 H84 0.951 . S
C107 C106 1.398 . S
C108 C109 1.384 . S
C108 H121 0.947 . S
C108 C143 1.382 . S
C109 C108 1.384 . S
C109 C110 1.378 . S
C110 C109 1.378 . S
C110 C111 1.378 . S
C110 H122 0.952 . S
C111 C110 1.378 . S
C111 H123 0.950 . S
C111 C142 1.383 . S
H112 C131 0.947 . S
H113 C132 0.946 . S
H114 C134 0.953 . S
H115 C135 0.945 . S
H116 C137 0.952 . S
H117 C138 0.949 . S
H118 C140 0.950 . S
H119 C141 0.948 . S
H120 C143 0.951 . S
H121 C108 0.947 . S
H122 C110 0.952 . S
H123 C111 0.950 . S
N124 C127 1.382 . S
N124 C129 1.363 . S
N125 C127 1.371 . S
N125 C128 1.372 . S
N126 C128 1.361 . S
N126 C129 1.377 . S
C127 N124 1.382 . S
C127 N125 1.371 . S
C127 C130 1.480 . S
C128 N125 1.372 . S
C128 N126 1.361 . S
C128 C136 1.457 . S
C129 N124 1.363 . S
C129 N126 1.377 . S
C129 C142 1.479 . S
C130 C127 1.480 . S
C130 C131 1.383 . S
C130 C135 1.385 . S
C131 H112 0.947 . S
C131 C130 1.383 . S
C131 C132 1.388 . S
C132 H113 0.946 . S
C132 C131 1.388 . S
C132 C133 1.384 . S
C133 C132 1.384 . S
C133 C134 1.377 . S
C134 H114 0.953 . S
C134 C133 1.377 . S
C134 C135 1.369 . S
C135 H115 0.945 . S
C135 C130 1.385 . S
C135 C134 1.369 . S
C136 C128 1.457 . S
C136 C137 1.372 . S
C136 C141 1.364 . S
C137 H116 0.952 . S
C137 C136 1.372 . S
C137 C138 1.389 . S
C138 H117 0.949 . S
C138 C137 1.389 . S
C138 C139 1.387 . S
C139 C138 1.387 . S
C139 C140 1.372 . S
C140 H118 0.950 . S
C140 C139 1.372 . S
C140 C141 1.379 . S
C141 H119 0.948 . S
C141 C136 1.364 . S
C141 C140 1.379 . S
C142 C111 1.383 . S
C142 C129 1.479 . S
C142 C143 1.398 . S
C143 C108 1.382 . S
C143 H120 0.951 . S
C143 C142 1.398 . S
C144 C145 1.384 . S
C144 H157 0.947 . S
C144 C179 1.382 . S
C145 C144 1.384 . S
C145 C146 1.378 . S
C146 C145 1.378 . S
C146 C147 1.378 . S
C146 H158 0.952 . S
C147 C146 1.378 . S
C147 H159 0.950 . S
C147 C178 1.383 . S
H148 C167 0.947 . S
H149 C168 0.946 . S
H150 C170 0.953 . S
H151 C171 0.945 . S
H152 C173 0.952 . S
H153 C174 0.949 1_545 S
H154 C176 0.950 . S
H155 C177 0.948 . S
H156 C179 0.951 . S
H157 C144 0.947 . S
H158 C146 0.952 . S
H159 C147 0.950 . S
N160 C163 1.382 . S
N160 C165 1.363 . S
N161 C163 1.371 . S
N161 C164 1.372 . S
N162 C164 1.361 . S
N162 C165 1.377 . S
C163 N160 1.382 . S
C163 N161 1.371 . S
C163 C166 1.480 . S
C164 N161 1.372 . S
C164 N162 1.361 . S
C164 C172 1.457 . S
C165 N160 1.363 . S
C165 N162 1.377 . S
C165 C178 1.479 . S
C166 C163 1.480 . S
C166 C167 1.383 . S
C166 C171 1.385 . S
C167 H148 0.947 . S
C167 C166 1.383 . S
C167 C168 1.388 . S
C168 H149 0.946 . S
C168 C167 1.388 . S
C168 C169 1.384 . S
C169 C168 1.384 . S
C169 C170 1.377 . S
C170 H150 0.953 . S
C170 C169 1.377 . S
C170 C171 1.369 . S
C171 H151 0.945 . S
C171 C166 1.385 . S
C171 C170 1.369 . S
C172 C164 1.457 . S
C172 C173 1.372 . S
C172 C177 1.364 . S
C173 H152 0.952 . S
C173 C172 1.372 . S
C173 C174 1.389 . S
C174 H153 0.949 1_565 S
C174 C173 1.389 . S
C174 C175 1.387 . S
C175 C174 1.387 . S
C175 C176 1.372 . S
C176 H154 0.950 . S
C176 C175 1.372 . S
C176 C177 1.379 . S
C177 H155 0.948 . S
C177 C172 1.364 . S
C177 C176 1.379 . S
C178 C147 1.383 . S
C178 C165 1.479 . S
C178 C179 1.398 . S
C179 C144 1.382 . S
C179 H156 0.951 . S
C179 C178 1.398 . S
C180 C181 1.384 . S
C180 H193 0.947 . S
C180 C215 1.382 . S
C181 C180 1.384 . S
C181 C182 1.378 . S
C182 C181 1.378 . S
C182 C183 1.378 . S
C182 H194 0.952 . S
C183 C182 1.378 . S
C183 H195 0.950 . S
C183 C214 1.383 . S
H184 C203 0.947 . S
H185 C204 0.946 . S
H186 C206 0.953 . S
H187 C207 0.945 . S
H188 C209 0.952 . S
H189 C210 0.949 . S
H190 C212 0.950 . S
H191 C213 0.948 . S
H192 C215 0.951 . S
H193 C180 0.947 . S
H194 C182 0.952 . S
H195 C183 0.950 . S
N196 C199 1.382 . S
N196 C201 1.363 . S
N197 C199 1.371 . S
N197 C200 1.372 . S
N198 C200 1.361 . S
N198 C201 1.377 . S
C199 N196 1.382 . S
C199 N197 1.371 . S
C199 C202 1.480 . S
C200 N197 1.372 . S
C200 N198 1.361 . S
C200 C208 1.457 . S
C201 N196 1.363 . S
C201 N198 1.377 . S
C201 C214 1.479 . S
C202 C199 1.480 . S
C202 C203 1.383 . S
C202 C207 1.385 . S
C203 H184 0.947 . S
C203 C202 1.383 . S
C203 C204 1.388 . S
C204 H185 0.946 . S
C204 C203 1.388 . S
C204 C205 1.384 . S
C205 C204 1.384 . S
C205 C206 1.377 . S
C206 H186 0.953 . S
C206 C205 1.377 . S
C206 C207 1.369 . S
C207 H187 0.945 . S
C207 C202 1.385 . S
C207 C206 1.369 . S
C208 C200 1.457 . S
C208 C209 1.372 . S
C208 C213 1.364 . S
C209 H188 0.952 . S
C209 C208 1.372 . S
C209 C210 1.389 . S
C210 H189 0.949 . S
C210 C209 1.389 . S
C210 C211 1.387 . S
C211 C210 1.387 . S
C211 C212 1.372 . S
C212 H190 0.950 . S
C212 C211 1.372 . S
C212 C213 1.379 . S
C213 H191 0.948 . S
C213 C208 1.364 . S
C213 C212 1.379 . S
C214 C183 1.383 . S
C214 C201 1.479 . S
C214 C215 1.398 . S
C215 C180 1.382 . S
C215 H192 0.951 . S
C215 C214 1.398 . S
C216 C217 1.384 . S
C216 H229 0.947 . S
C216 C251 1.382 . S
C217 C216 1.384 . S
C217 C218 1.378 . S
C218 C217 1.378 . S
C218 C219 1.378 . S
C218 H230 0.952 . S
C219 C218 1.378 . S
C219 H231 0.950 . S
C219 C250 1.383 . S
H220 C239 0.947 . S
H221 C240 0.946 . S
H222 C242 0.953 . S
H223 C243 0.945 . S
H224 C245 0.952 . S
H225 C246 0.949 . S
H226 C248 0.950 . S
H227 C249 0.948 . S
H228 C251 0.951 . S
H229 C216 0.947 . S
H230 C218 0.952 . S
H231 C219 0.950 . S
N232 C235 1.382 . S
N232 C237 1.363 . S
N233 C235 1.371 . S
N233 C236 1.372 . S
N234 C236 1.361 . S
N234 C237 1.377 . S
C235 N232 1.382 . S
C235 N233 1.371 . S
C235 C238 1.480 . S
C236 N233 1.372 . S
C236 N234 1.361 . S
C236 C244 1.457 . S
C237 N232 1.363 . S
C237 N234 1.377 . S
C237 C250 1.479 . S
C238 C235 1.480 . S
C238 C239 1.383 . S
C238 C243 1.385 . S
C239 H220 0.947 . S
C239 C238 1.383 . S
C239 C240 1.388 . S
C240 H221 0.946 . S
C240 C239 1.388 . S
C240 C241 1.384 . S
C241 C240 1.384 . S
C241 C242 1.377 . S
C242 H222 0.953 . S
C242 C241 1.377 . S
C242 C243 1.369 . S
C243 H223 0.945 . S
C243 C238 1.385 . S
C243 C242 1.369 . S
C244 C236 1.457 . S
C244 C245 1.372 . S
C244 C249 1.364 . S
C245 H224 0.952 . S
C245 C244 1.372 . S
C245 C246 1.389 . S
C246 H225 0.949 . S
C246 C245 1.389 . S
C246 C247 1.387 . S
C247 C246 1.387 . S
C247 C248 1.372 . S
C248 H226 0.950 . S
C248 C247 1.372 . S
C248 C249 1.379 . S
C249 H227 0.948 . S
C249 C244 1.364 . S
C249 C248 1.379 . S
C250 C219 1.383 . S
C250 C237 1.479 . S
C250 C251 1.398 . S
C251 C216 1.382 . S
C251 H228 0.951 . S
C251 C250 1.398 . S
C252 C253 1.384 . S
C252 H265 0.947 . S
C252 C287 1.382 . S
C253 C252 1.384 . S
C253 C254 1.378 . S
C254 C253 1.378 . S
C254 C255 1.378 . S
C254 H266 0.952 . S
C255 C254 1.378 . S
C255 H267 0.950 . S
C255 C286 1.383 . S
H256 C275 0.947 . S
H257 C276 0.946 . S
H258 C278 0.953 . S
H259 C279 0.945 . S
H260 C281 0.952 . S
H261 C282 0.949 . S
H262 C284 0.950 . S
H263 C285 0.948 . S
H264 C287 0.951 . S
H265 C252 0.947 . S
H266 C254 0.952 . S
H267 C255 0.950 . S
N268 C271 1.382 . S
N268 C273 1.363 . S
N269 C271 1.371 . S
N269 C272 1.372 . S
N270 C272 1.361 . S
N270 C273 1.377 . S
C271 N268 1.382 . S
C271 N269 1.371 . S
C271 C274 1.480 . S
C272 N269 1.372 . S
C272 N270 1.361 . S
C272 C280 1.457 . S
C273 N268 1.363 . S
C273 N270 1.377 . S
C273 C286 1.479 . S
C274 C271 1.480 . S
C274 C275 1.383 . S
C274 C279 1.385 . S
C275 H256 0.947 . S
C275 C274 1.383 . S
C275 C276 1.388 . S
C276 H257 0.946 . S
C276 C275 1.388 . S
C276 C277 1.384 . S
C277 C276 1.384 . S
C277 C278 1.377 . S
C278 H258 0.953 . S
C278 C277 1.377 . S
C278 C279 1.369 . S
C279 H259 0.945 . S
C279 C274 1.385 . S
C279 C278 1.369 . S
C280 C272 1.457 . S
C280 C281 1.372 . S
C280 C285 1.364 . S
C281 H260 0.952 . S
C281 C280 1.372 . S
C281 C282 1.389 . S
C282 H261 0.949 . S
C282 C281 1.389 . S
C282 C283 1.387 . S
C283 C282 1.387 . S
C283 C284 1.372 . S
C284 H262 0.950 . S
C284 C283 1.372 . S
C284 C285 1.379 . S
C285 H263 0.948 . S
C285 C280 1.364 . S
C285 C284 1.379 . S
C286 C255 1.383 . S
C286 C273 1.479 . S
C286 C287 1.398 . S
C287 C252 1.382 . S
C287 H264 0.951 . S
C287 C286 1.398 . S
C288 C289 1.384 . S
C288 H301 0.947 . S
C288 C323 1.382 . S
C289 C288 1.384 . S
C289 C290 1.378 . S
C290 C289 1.378 . S
C290 C291 1.378 . S
C290 H302 0.952 . S
C291 C290 1.378 . S
C291 H303 0.950 . S
C291 C322 1.383 . S
H292 C311 0.947 . S
H293 C312 0.946 . S
H294 C314 0.953 . S
H295 C315 0.945 . S
H296 C317 0.952 . S
H297 C318 0.949 . S
H298 C320 0.950 . S
H299 C321 0.948 . S
H300 C323 0.951 . S
H301 C288 0.947 . S
H302 C290 0.952 . S
H303 C291 0.950 . S
N304 C307 1.382 . S
N304 C309 1.363 . S
N305 C307 1.371 . S
N305 C308 1.372 . S
N306 C308 1.361 . S
N306 C309 1.377 . S
C307 N304 1.382 . S
C307 N305 1.371 . S
C307 C310 1.480 . S
C308 N305 1.372 . S
C308 N306 1.361 . S
C308 C316 1.457 . S
C309 N304 1.363 . S
C309 N306 1.377 . S
C309 C322 1.479 . S
C310 C307 1.480 . S
C310 C311 1.383 . S
C310 C315 1.385 . S
C311 H292 0.947 . S
C311 C310 1.383 . S
C311 C312 1.388 . S
C312 H293 0.946 . S
C312 C311 1.388 . S
C312 C313 1.384 . S
C313 C312 1.384 . S
C313 C314 1.377 . S
C314 H294 0.953 . S
C314 C313 1.377 . S
C314 C315 1.369 . S
C315 H295 0.945 . S
C315 C310 1.385 . S
C315 C314 1.369 . S
C316 C308 1.457 . S
C316 C317 1.372 . S
C316 C321 1.364 . S
C317 H296 0.952 . S
C317 C316 1.372 . S
C317 C318 1.389 . S
C318 H297 0.949 . S
C318 C317 1.389 . S
C318 C319 1.387 . S
C319 C318 1.387 . S
C319 C320 1.372 . S
C320 H298 0.950 . S
C320 C319 1.372 . S
C320 C321 1.379 . S
C321 H299 0.948 . S
C321 C316 1.364 . S
C321 C320 1.379 . S
C322 C291 1.383 . S
C322 C309 1.479 . S
C322 C323 1.398 . S
C323 C288 1.382 . S
C323 H300 0.951 . S
C323 C322 1.398 . S
C324 C325 1.384 . S
C324 H337 0.947 . S
C324 C359 1.382 . S
C325 C324 1.384 . S
C325 C326 1.378 . S
C326 C325 1.378 . S
C326 C327 1.378 . S
C326 H338 0.952 . S
C327 C326 1.378 . S
C327 H339 0.950 . S
C327 C358 1.383 . S
H328 C347 0.947 . S
H329 C348 0.946 . S
H330 C350 0.953 . S
H331 C351 0.945 . S
H332 C353 0.952 . S
H333 C354 0.949 . S
H334 C356 0.950 . S
H335 C357 0.948 . S
H336 C359 0.951 . S
H337 C324 0.947 . S
H338 C326 0.952 . S
H339 C327 0.950 . S
N340 C343 1.382 . S
N340 C345 1.363 . S
N341 C343 1.371 . S
N341 C344 1.372 . S
N342 C344 1.361 . S
N342 C345 1.377 . S
C343 N340 1.382 . S
C343 N341 1.371 . S
C343 C346 1.480 . S
C344 N341 1.372 . S
C344 N342 1.361 . S
C344 C352 1.457 . S
C345 N340 1.363 . S
C345 N342 1.377 . S
C345 C358 1.479 . S
C346 C343 1.480 . S
C346 C347 1.383 . S
C346 C351 1.385 . S
C347 H328 0.947 . S
C347 C346 1.383 . S
C347 C348 1.388 . S
C348 H329 0.946 . S
C348 C347 1.388 . S
C348 C349 1.384 . S
C349 C348 1.384 . S
C349 C350 1.377 . S
C350 H330 0.953 . S
C350 C349 1.377 . S
C350 C351 1.369 . S
C351 H331 0.945 . S
C351 C346 1.385 . S
C351 C350 1.369 . S
C352 C344 1.457 . S
C352 C353 1.372 . S
C352 C357 1.364 . S
C353 H332 0.952 . S
C353 C352 1.372 . S
C353 C354 1.389 . S
C354 H333 0.949 . S
C354 C353 1.389 . S
C354 C355 1.387 . S
C355 C354 1.387 . S
C355 C356 1.372 . S
C356 H334 0.950 . S
C356 C355 1.372 . S
C356 C357 1.379 . S
C357 H335 0.948 . S
C357 C352 1.364 . S
C357 C356 1.379 . S
C358 C327 1.383 . S
C358 C345 1.479 . S
C358 C359 1.398 . S
C359 C324 1.382 . S
C359 H336 0.951 . S
C359 C358 1.398 . S
C360 C361 1.384 . S
C360 H373 0.947 . S
C360 C395 1.382 . S
C361 C360 1.384 . S
C361 C362 1.378 . S
C362 C361 1.378 . S
C362 C363 1.378 . S
C362 H374 0.952 . S
C363 C362 1.378 . S
C363 H375 0.950 . S
C363 C394 1.383 . S
H364 C383 0.947 . S
H365 C384 0.946 . S
H366 C386 0.953 . S
H367 C387 0.945 . S
H368 C389 0.952 . S
H369 C390 0.949 . S
H370 C392 0.950 . S
H371 C393 0.948 . S
H372 C395 0.951 . S
H373 C360 0.947 . S
H374 C362 0.952 . S
H375 C363 0.950 . S
N376 C379 1.382 . S
N376 C381 1.363 . S
N377 C379 1.371 . S
N377 C380 1.372 . S
N378 C380 1.361 . S
N378 C381 1.377 . S
C379 N376 1.382 . S
C379 N377 1.371 . S
C379 C382 1.480 . S
C380 N377 1.372 . S
C380 N378 1.361 . S
C380 C388 1.457 . S
C381 N376 1.363 . S
C381 N378 1.377 . S
C381 C394 1.479 . S
C382 C379 1.480 . S
C382 C383 1.383 . S
C382 C387 1.385 . S
C383 H364 0.947 . S
C383 C382 1.383 . S
C383 C384 1.388 . S
C384 H365 0.946 . S
C384 C383 1.388 . S
C384 C385 1.384 . S
C385 C384 1.384 . S
C385 C386 1.377 . S
C386 H366 0.953 . S
C386 C385 1.377 . S
C386 C387 1.369 . S
C387 H367 0.945 . S
C387 C382 1.385 . S
C387 C386 1.369 . S
C388 C380 1.457 . S
C388 C389 1.372 . S
C388 C393 1.364 . S
C389 H368 0.952 . S
C389 C388 1.372 . S
C389 C390 1.389 . S
C390 H369 0.949 . S
C390 C389 1.389 . S
C390 C391 1.387 . S
C391 C390 1.387 . S
C391 C392 1.372 . S
C392 H370 0.950 . S
C392 C391 1.372 . S
C392 C393 1.379 . S
C393 H371 0.948 . S
C393 C388 1.364 . S
C393 C392 1.379 . S
C394 C363 1.383 . S
C394 C381 1.479 . S
C394 C395 1.398 . S
C395 C360 1.382 . S
C395 H372 0.951 . S
C395 C394 1.398 . S
C396 C397 1.384 . S
C396 H409 0.947 . S
C396 C431 1.382 . S
C397 C396 1.384 . S
C397 C398 1.378 . S
C398 C397 1.378 . S
C398 C399 1.378 . S
C398 H410 0.952 . S
C399 C398 1.378 . S
C399 H411 0.950 . S
C399 C430 1.383 . S
H400 C419 0.947 . S
H401 C420 0.946 . S
H402 C422 0.953 . S
H403 C423 0.945 . S
H404 C425 0.952 . S
H405 C426 0.949 . S
H406 C428 0.950 . S
H407 C429 0.948 . S
H408 C431 0.951 . S
H409 C396 0.947 . S
H410 C398 0.952 . S
H411 C399 0.950 . S
N412 C415 1.382 . S
N412 C417 1.363 . S
N413 C415 1.371 . S
N413 C416 1.372 . S
N414 C416 1.361 . S
N414 C417 1.377 . S
C415 N412 1.382 . S
C415 N413 1.371 . S
C415 C418 1.480 . S
C416 N413 1.372 . S
C416 N414 1.361 . S
C416 C424 1.457 . S
C417 N412 1.363 . S
C417 N414 1.377 . S
C417 C430 1.479 . S
C418 C415 1.480 . S
C418 C419 1.383 . S
C418 C423 1.385 . S
C419 H400 0.947 . S
C419 C418 1.383 . S
C419 C420 1.388 . S
C420 H401 0.946 . S
C420 C419 1.388 . S
C420 C421 1.384 . S
C421 C420 1.384 . S
C421 C422 1.377 . S
C422 H402 0.953 . S
C422 C421 1.377 . S
C422 C423 1.369 . S
C423 H403 0.945 . S
C423 C418 1.385 . S
C423 C422 1.369 . S
C424 C416 1.457 . S
C424 C425 1.372 . S
C424 C429 1.364 . S
C425 H404 0.952 . S
C425 C424 1.372 . S
C425 C426 1.389 . S
C426 H405 0.949 . S
C426 C425 1.389 . S
C426 C427 1.387 . S
C427 C426 1.387 . S
C427 C428 1.372 . S
C428 H406 0.950 . S
C428 C427 1.372 . S
C428 C429 1.379 . S
C429 H407 0.948 . S
C429 C424 1.364 . S
C429 C428 1.379 . S
C430 C399 1.383 . S
C430 C417 1.479 . S
C430 C431 1.398 . S
C431 C396 1.382 . S
C431 H408 0.951 . S
C431 C430 1.398 . S
C432 C433 1.384 . S
C432 H445 0.947 . S
C432 C467 1.382 . S
C433 C432 1.384 . S
C433 C434 1.378 . S
C434 C433 1.378 . S
C434 C435 1.378 . S
C434 H446 0.952 . S
C435 C434 1.378 . S
C435 H447 0.950 . S
C435 C466 1.383 . S
H436 C455 0.947 . S
H437 C456 0.946 . S
H438 C458 0.953 . S
H439 C459 0.945 . S
H440 C461 0.952 . S
H441 C462 0.949 . S
H442 C464 0.950 . S
H443 C465 0.948 . S
H444 C467 0.951 . S
H445 C432 0.947 . S
H446 C434 0.952 . S
H447 C435 0.950 . S
N448 C451 1.382 . S
N448 C453 1.363 . S
N449 C451 1.371 . S
N449 C452 1.372 . S
N450 C452 1.361 . S
N450 C453 1.377 . S
C451 N448 1.382 . S
C451 N449 1.371 . S
C451 C454 1.480 . S
C452 N449 1.372 . S
C452 N450 1.361 . S
C452 C460 1.457 . S
C453 N448 1.363 . S
C453 N450 1.377 . S
C453 C466 1.479 . S
C454 C451 1.480 . S
C454 C455 1.383 . S
C454 C459 1.385 . S
C455 H436 0.947 . S
C455 C454 1.383 . S
C455 C456 1.388 . S
C456 H437 0.946 . S
C456 C455 1.388 . S
C456 C457 1.384 . S
C457 C456 1.384 . S
C457 C458 1.377 . S
C458 H438 0.953 . S
C458 C457 1.377 . S
C458 C459 1.369 . S
C459 H439 0.945 . S
C459 C454 1.385 . S
C459 C458 1.369 . S
C460 C452 1.457 . S
C460 C461 1.372 . S
C460 C465 1.364 . S
C461 H440 0.952 . S
C461 C460 1.372 . S
C461 C462 1.389 . S
C462 H441 0.949 . S
C462 C461 1.389 . S
C462 C463 1.387 . S
C463 C462 1.387 . S
C463 C464 1.372 . S
C464 H442 0.950 . S
C464 C463 1.372 . S
C464 C465 1.379 . S
C465 H443 0.948 . S
C465 C460 1.364 . S
C465 C464 1.379 . S
C466 C435 1.383 . S
C466 C453 1.479 . S
C466 C467 1.398 . S
C467 C432 1.382 . S
C467 H444 0.951 . S
C467 C466 1.398 . S
C468 C469 1.384 . S
C468 H481 0.947 . S
C468 C503 1.382 . S
C469 C468 1.384 . S
C469 C470 1.378 . S
C470 C469 1.378 . S
C470 C471 1.378 . S
C470 H482 0.952 . S
C471 C470 1.378 . S
C471 H483 0.950 . S
C471 C502 1.383 . S
H472 C491 0.947 . S
H473 C492 0.946 . S
H474 C494 0.953 . S
H475 C495 0.945 . S
H476 C497 0.952 . S
H477 C498 0.949 . S
H478 C500 0.950 . S
H479 C501 0.948 . S
H480 C503 0.951 . S
H481 C468 0.947 . S
H482 C470 0.952 . S
H483 C471 0.950 . S
N484 C487 1.382 . S
N484 C489 1.363 . S
N485 C487 1.371 . S
N485 C488 1.372 . S
N486 C488 1.361 . S
N486 C489 1.377 . S
C487 N484 1.382 . S
C487 N485 1.371 . S
C487 C490 1.480 . S
C488 N485 1.372 . S
C488 N486 1.361 . S
C488 C496 1.457 . S
C489 N484 1.363 . S
C489 N486 1.377 . S
C489 C502 1.479 . S
C490 C487 1.480 . S
C490 C491 1.383 . S
C490 C495 1.385 . S
C491 H472 0.947 . S
C491 C490 1.383 . S
C491 C492 1.388 . S
C492 H473 0.946 . S
C492 C491 1.388 . S
C492 C493 1.384 . S
C493 C492 1.384 . S
C493 C494 1.377 . S
C494 H474 0.953 . S
C494 C493 1.377 . S
C494 C495 1.369 . S
C495 H475 0.945 . S
C495 C490 1.385 . S
C495 C494 1.369 . S
C496 C488 1.457 . S
C496 C497 1.372 . S
C496 C501 1.364 . S
C497 H476 0.952 . S
C497 C496 1.372 . S
C497 C498 1.389 . S
C498 H477 0.949 . S
C498 C497 1.389 . S
C498 C499 1.387 . S
C499 C498 1.387 . S
C499 C500 1.372 . S
C500 H478 0.950 . S
C500 C499 1.372 . S
C500 C501 1.379 . S
C501 H479 0.948 . S
C501 C496 1.364 . S
C501 C500 1.379 . S
C502 C471 1.383 . S
C502 C489 1.479 . S
C502 C503 1.398 . S
C503 C468 1.382 . S
C503 H480 0.951 . S
C503 C502 1.398 . S
C504 C505 1.384 . S
C504 H517 0.947 . S
C504 C539 1.382 . S
C505 C504 1.384 . S
C505 C506 1.378 . S
C506 C505 1.378 . S
C506 C507 1.378 . S
C506 H518 0.952 . S
C507 C506 1.378 . S
C507 H519 0.950 . S
C507 C538 1.383 . S
H508 C527 0.947 . S
H509 C528 0.946 . S
H510 C530 0.953 . S
H511 C531 0.945 . S
H512 C533 0.952 . S
H513 C534 0.949 . S
H514 C536 0.950 . S
H515 C537 0.948 . S
H516 C539 0.951 . S
H517 C504 0.947 . S
H518 C506 0.952 . S
H519 C507 0.950 . S
N520 C523 1.382 . S
N520 C525 1.363 . S
N521 C523 1.371 . S
N521 C524 1.372 . S
N522 C524 1.361 . S
N522 C525 1.377 . S
C523 N520 1.382 . S
C523 N521 1.371 . S
C523 C526 1.480 . S
C524 N521 1.372 . S
C524 N522 1.361 . S
C524 C532 1.457 . S
C525 N520 1.363 . S
C525 N522 1.377 . S
C525 C538 1.479 . S
C526 C523 1.480 . S
C526 C527 1.383 . S
C526 C531 1.385 . S
C527 H508 0.947 . S
C527 C526 1.383 . S
C527 C528 1.388 . S
C528 H509 0.946 . S
C528 C527 1.388 . S
C528 C529 1.384 . S
C529 C528 1.384 . S
C529 C530 1.377 . S
C530 H510 0.953 . S
C530 C529 1.377 . S
C530 C531 1.369 . S
C531 H511 0.945 . S
C531 C526 1.385 . S
C531 C530 1.369 . S
C532 C524 1.457 . S
C532 C533 1.372 . S
C532 C537 1.364 . S
C533 H512 0.952 . S
C533 C532 1.372 . S
C533 C534 1.389 . S
C534 H513 0.949 . S
C534 C533 1.389 . S
C534 C535 1.387 . S
C535 C534 1.387 . S
C535 C536 1.372 . S
C536 H514 0.950 . S
C536 C535 1.372 . S
C536 C537 1.379 . S
C537 H515 0.948 . S
C537 C532 1.364 . S
C537 C536 1.379 . S
C538 C507 1.383 . S
C538 C525 1.479 . S
C538 C539 1.398 . S
C539 C504 1.382 . S
C539 H516 0.951 . S
C539 C538 1.398 . S
C540 C541 1.384 . S
C540 H553 0.947 . S
C540 C575 1.382 . S
C541 C540 1.384 . S
C541 C542 1.378 . S
C542 C541 1.378 . S
C542 C543 1.378 . S
C542 H554 0.952 . S
C543 C542 1.378 . S
C543 H555 0.950 . S
C543 C574 1.383 . S
H544 C563 0.947 . S
H545 C564 0.946 . S
H546 C566 0.953 . S
H547 C567 0.945 . S
H548 C569 0.952 . S
H549 C570 0.949 . S
H550 C572 0.950 . S
H551 C573 0.948 . S
H552 C575 0.951 . S
H553 C540 0.947 . S
H554 C542 0.952 . S
H555 C543 0.950 . S
N556 C559 1.382 . S
N556 C561 1.363 . S
N557 C559 1.371 . S
N557 C560 1.372 . S
N558 C560 1.361 . S
N558 C561 1.377 . S
C559 N556 1.382 . S
C559 N557 1.371 . S
C559 C562 1.480 . S
C560 N557 1.372 . S
C560 N558 1.361 . S
C560 C568 1.457 . S
C561 N556 1.363 . S
C561 N558 1.377 . S
C561 C574 1.479 . S
C562 C559 1.480 . S
C562 C563 1.383 . S
C562 C567 1.385 . S
C563 H544 0.947 . S
C563 C562 1.383 . S
C563 C564 1.388 . S
C564 H545 0.946 . S
C564 C563 1.388 . S
C564 C565 1.384 . S
C565 C564 1.384 . S
C565 C566 1.377 . S
C566 H546 0.953 . S
C566 C565 1.377 . S
C566 C567 1.369 . S
C567 H547 0.945 . S
C567 C562 1.385 . S
C567 C566 1.369 . S
C568 C560 1.457 . S
C568 C569 1.372 . S
C568 C573 1.364 . S
C569 H548 0.952 . S
C569 C568 1.372 . S
C569 C570 1.389 . S
C570 H549 0.949 . S
C570 C569 1.389 . S
C570 C571 1.387 . S
C571 C570 1.387 . S
C571 C572 1.372 . S
C572 H550 0.950 . S
C572 C571 1.372 . S
C572 C573 1.379 . S
C573 H551 0.948 . S
C573 C568 1.364 . S
C573 C572 1.379 . S
C574 C543 1.383 . S
C574 C561 1.479 . S
C574 C575 1.398 . S
C575 C540 1.382 . S
C575 H552 0.951 . S
C575 C574 1.398 . S
O576 Cd577 2.223 . S
O576 C584 1.315 . S
Cd577 O576 2.223 . S
Cd577 O580 2.297 . S
Cd577 O581 2.439 . S
Cd577 O587 2.240 . S
Cd578 O579 2.240 . S
Cd578 O586 2.223 . S
Cd578 O588 2.297 . S
Cd578 O589 2.439 . S
O579 Cd578 2.240 . S
O579 C584 1.279 . S
O580 Cd577 2.297 . S
O580 C582 1.247 . S
O581 Cd577 2.439 . S
O581 C582 1.208 . S
C582 O580 1.247 . S
C582 O581 1.208 . S
C583 O588 1.247 . S
C583 O589 1.208 . S
C584 O576 1.315 . S
C584 O579 1.279 . S
C585 O586 1.315 . S
C585 O587 1.279 . S
O586 Cd578 2.223 . S
O586 C585 1.315 . S
O587 Cd577 2.240 . S
O587 C585 1.279 . S
O588 Cd578 2.297 . S
O588 C583 1.247 . S
O589 Cd578 2.439 . S
O589 C583 1.208 . S
O590 Cd591 2.223 . S
O590 C598 1.315 . S
Cd591 O590 2.223 . S
Cd591 O594 2.297 . S
Cd591 O595 2.439 . S
Cd591 O601 2.240 . S
Cd592 O593 2.240 . S
Cd592 O600 2.223 . S
Cd592 O602 2.297 . S
Cd592 O603 2.439 . S
O593 Cd592 2.240 . S
O593 C598 1.279 . S
O594 Cd591 2.297 . S
O594 C596 1.247 . S
O595 Cd591 2.439 . S
O595 C596 1.208 . S
C596 O594 1.247 . S
C596 O595 1.208 . S
C597 O602 1.247 . S
C597 O603 1.208 . S
C598 O590 1.315 . S
C598 O593 1.279 . S
C599 O600 1.315 . S
C599 O601 1.279 . S
O600 Cd592 2.223 . S
O600 C599 1.315 . S
O601 Cd591 2.240 . S
O601 C599 1.279 . S
O602 Cd592 2.297 . S
O602 C597 1.247 . S
O603 Cd592 2.439 . S
O603 C597 1.208 . S
O604 Cd605 2.223 1_556 S
O604 C612 1.315 . S
Cd605 O604 2.223 1_554 S
Cd605 O608 2.297 . S
Cd605 O609 2.439 . S
Cd605 O615 2.240 . S
Cd606 O607 2.240 . S
Cd606 O614 2.223 . S
Cd606 O616 2.297 1_556 S
Cd606 O617 2.439 1_556 S
O607 Cd606 2.240 . S
O607 C612 1.279 . S
O608 Cd605 2.297 . S
O608 C610 1.247 . S
O609 Cd605 2.439 . S
O609 C610 1.208 . S
C610 O608 1.247 . S
C610 O609 1.208 . S
C611 O616 1.247 . S
C611 O617 1.208 . S
C612 O604 1.315 . S
C612 O607 1.279 . S
C613 O614 1.315 . S
C613 O615 1.279 1_556 S
O614 Cd606 2.223 . S
O614 C613 1.315 . S
O615 Cd605 2.240 . S
O615 C613 1.279 1_554 S
O616 Cd606 2.297 1_554 S
O616 C611 1.247 . S
O617 Cd606 2.439 1_554 S
O617 C611 1.208 . S
O618 Cd619 2.223 . S
O618 C626 1.315 . S
Cd619 O618 2.223 . S
Cd619 O622 2.297 . S
Cd619 O623 2.439 . S
Cd619 O629 2.240 . S
Cd620 O621 2.240 . S
Cd620 O628 2.223 . S
Cd620 O630 2.297 . S
Cd620 O631 2.439 . S
O621 Cd620 2.240 . S
O621 C626 1.279 . S
O622 Cd619 2.297 . S
O622 C624 1.247 . S
O623 Cd619 2.439 . S
O623 C624 1.208 . S
C624 O622 1.247 . S
C624 O623 1.208 . S
C625 O630 1.247 . S
C625 O631 1.208 . S
C626 O618 1.315 . S
C626 O621 1.279 . S
C627 O628 1.315 . S
C627 O629 1.279 . S
O628 Cd620 2.223 . S
O628 C627 1.315 . S
O629 Cd619 2.240 . S
O629 C627 1.279 . S
O630 Cd620 2.297 . S
O630 C625 1.247 . S
O631 Cd620 2.439 . S
O631 C625 1.208 . S
O632 Cd633 2.223 . S
O632 C640 1.315 . S
Cd633 O632 2.223 . S
Cd633 O636 2.297 . S
Cd633 O637 2.439 . S
Cd633 O643 2.240 . S
Cd634 O635 2.240 . S
Cd634 O642 2.223 . S
Cd634 O644 2.297 . S
Cd634 O645 2.439 . S
O635 Cd634 2.240 . S
O635 C640 1.279 . S
O636 Cd633 2.297 . S
O636 C638 1.247 . S
O637 Cd633 2.439 . S
O637 C638 1.208 . S
C638 O636 1.247 . S
C638 O637 1.208 . S
C639 O644 1.247 . S
C639 O645 1.208 . S
C640 O632 1.315 . S
C640 O635 1.279 . S
C641 O642 1.315 . S
C641 O643 1.279 . S
O642 Cd634 2.223 . S
O642 C641 1.315 . S
O643 Cd633 2.240 . S
O643 C641 1.279 . S
O644 Cd634 2.297 . S
O644 C639 1.247 . S
O645 Cd634 2.439 . S
O645 C639 1.208 . S
O646 Cd647 2.223 . S
O646 C654 1.315 . S
Cd647 O646 2.223 . S
Cd647 O650 2.297 . S
Cd647 O651 2.439 . S
Cd647 O657 2.240 . S
Cd648 O649 2.240 . S
Cd648 O656 2.223 . S
Cd648 O658 2.297 . S
Cd648 O659 2.439 . S
O649 Cd648 2.240 . S
O649 C654 1.279 . S
O650 Cd647 2.297 . S
O650 C652 1.247 . S
O651 Cd647 2.439 . S
O651 C652 1.208 . S
C652 O650 1.247 . S
C652 O651 1.208 . S
C653 O658 1.247 . S
C653 O659 1.208 . S
C654 O646 1.315 . S
C654 O649 1.279 . S
C655 O656 1.315 . S
C655 O657 1.279 . S
O656 Cd648 2.223 . S
O656 C655 1.315 . S
O657 Cd647 2.240 . S
O657 C655 1.279 . S
O658 Cd648 2.297 . S
O658 C653 1.247 . S
O659 Cd648 2.439 . S
O659 C653 1.208 . S
O660 Cd661 2.223 . S
O660 C668 1.315 . S
Cd661 O660 2.223 . S
Cd661 O664 2.297 . S
Cd661 O665 2.439 . S
Cd661 O671 2.240 . S
Cd662 O663 2.240 . S
Cd662 O670 2.223 . S
Cd662 O672 2.297 . S
Cd662 O673 2.439 . S
O663 Cd662 2.240 . S
O663 C668 1.279 . S
O664 Cd661 2.297 . S
O664 C666 1.247 . S
O665 Cd661 2.439 . S
O665 C666 1.208 . S
C666 O664 1.247 . S
C666 O665 1.208 . S
C667 O672 1.247 . S
C667 O673 1.208 . S
C668 O660 1.315 . S
C668 O663 1.279 . S
C669 O670 1.315 . S
C669 O671 1.279 . S
O670 Cd662 2.223 . S
O670 C669 1.315 . S
O671 Cd661 2.240 . S
O671 C669 1.279 . S
O672 Cd662 2.297 . S
O672 C667 1.247 . S
O673 Cd662 2.439 . S
O673 C667 1.208 . S
O674 Cd675 2.223 1_545 S
O674 C682 1.315 . S
Cd675 O674 2.223 1_565 S
Cd675 O678 2.297 . S
Cd675 O679 2.439 . S
Cd675 O685 2.240 1_565 S
Cd676 O677 2.240 . S
Cd676 O684 2.223 . S
Cd676 O686 2.297 . S
Cd676 O687 2.439 1_545 S
O677 Cd676 2.240 . S
O677 C682 1.279 . S
O678 Cd675 2.297 . S
O678 C680 1.247 . S
O679 Cd675 2.439 . S
O679 C680 1.208 . S
C680 O678 1.247 . S
C680 O679 1.208 . S
C681 O686 1.247 1_565 S
C681 O687 1.208 . S
C682 O674 1.315 . S
C682 O677 1.279 . S
C683 O684 1.315 . S
C683 O685 1.279 . S
O684 Cd676 2.223 . S
O684 C683 1.315 . S
O685 Cd675 2.240 1_545 S
O685 C683 1.279 . S
O686 Cd676 2.297 . S
O686 C681 1.247 1_545 S
O687 Cd676 2.439 1_565 S
O687 C681 1.208 . S
O688 Cd689 2.223 . S
O688 C696 1.315 . S
Cd689 O688 2.223 . S
Cd689 O692 2.297 1_655 S
Cd689 O693 2.439 1_655 S
Cd689 O699 2.240 . S
Cd690 O691 2.240 . S
Cd690 O698 2.223 1_455 S
Cd690 O700 2.297 . S
Cd690 O701 2.439 . S
O691 Cd690 2.240 . S
O691 C696 1.279 1_455 S
O692 Cd689 2.297 1_455 S
O692 C694 1.247 . S
O693 Cd689 2.439 1_455 S
O693 C694 1.208 . S
C694 O692 1.247 . S
C694 O693 1.208 . S
C695 O700 1.247 . S
C695 O701 1.208 . S
C696 O688 1.315 . S
C696 O691 1.279 1_655 S
C697 O698 1.315 . S
C697 O699 1.279 . S
O698 Cd690 2.223 1_655 S
O698 C697 1.315 . S
O699 Cd689 2.240 . S
O699 C697 1.279 . S
O700 Cd690 2.297 . S
O700 C695 1.247 . S
O701 Cd690 2.439 . S
O701 C695 1.208 . S
O702 Cd703 2.223 . S
O702 C710 1.315 . S
Cd703 O702 2.223 . S
Cd703 O706 2.297 . S
Cd703 O707 2.439 . S
Cd703 O713 2.240 . S
Cd704 O705 2.240 . S
Cd704 O712 2.223 . S
Cd704 O714 2.297 . S
Cd704 O715 2.439 . S
O705 Cd704 2.240 . S
O705 C710 1.279 . S
O706 Cd703 2.297 . S
O706 C708 1.247 . S
O707 Cd703 2.439 . S
O707 C708 1.208 . S
C708 O706 1.247 . S
C708 O707 1.208 . S
C709 O714 1.247 . S
C709 O715 1.208 . S
C710 O702 1.315 . S
C710 O705 1.279 . S
C711 O712 1.315 . S
C711 O713 1.279 . S
O712 Cd704 2.223 . S
O712 C711 1.315 . S
O713 Cd703 2.240 . S
O713 C711 1.279 . S
O714 Cd704 2.297 . S
O714 C709 1.247 . S
O715 Cd704 2.439 . S
O715 C709 1.208 . S
O716 Cd717 2.223 1_655 S
O716 C724 1.315 . S
Cd717 O716 2.223 1_455 S
Cd717 O720 2.297 . S
Cd717 O721 2.439 . S
Cd717 O727 2.240 . S
Cd718 O719 2.240 . S
Cd718 O726 2.223 . S
Cd718 O728 2.297 1_655 S
Cd718 O729 2.439 1_655 S
O719 Cd718 2.240 . S
O719 C724 1.279 . S
O720 Cd717 2.297 . S
O720 C722 1.247 . S
O721 Cd717 2.439 . S
O721 C722 1.208 . S
C722 O720 1.247 . S
C722 O721 1.208 . S
C723 O728 1.247 . S
C723 O729 1.208 . S
C724 O716 1.315 . S
C724 O719 1.279 . S
C725 O726 1.315 . S
C725 O727 1.279 1_655 S
O726 Cd718 2.223 . S
O726 C725 1.315 . S
O727 Cd717 2.240 . S
O727 C725 1.279 1_455 S
O728 Cd718 2.297 1_455 S
O728 C723 1.247 . S
O729 Cd718 2.439 1_455 S
O729 C723 1.208 . S
O730 Cd731 2.223 . S
O730 C738 1.315 . S
Cd731 O730 2.223 . S
Cd731 O734 2.297 . S
Cd731 O735 2.439 . S
Cd731 O741 2.240 . S
Cd732 O733 2.240 . S
Cd732 O740 2.223 . S
Cd732 O742 2.297 . S
Cd732 O743 2.439 . S
O733 Cd732 2.240 . S
O733 C738 1.279 . S
O734 Cd731 2.297 . S
O734 C736 1.247 . S
O735 Cd731 2.439 . S
O735 C736 1.208 . S
C736 O734 1.247 . S
C736 O735 1.208 . S
C737 O742 1.247 . S
C737 O743 1.208 . S
C738 O730 1.315 . S
C738 O733 1.279 . S
C739 O740 1.315 . S
C739 O741 1.279 . S
O740 Cd732 2.223 . S
O740 C739 1.315 . S
O741 Cd731 2.240 . S
O741 C739 1.279 . S
O742 Cd732 2.297 . S
O742 C737 1.247 . S
O743 Cd732 2.439 . S
O743 C737 1.208 . S
H744 C752 0.929 . S
H745 C754 0.930 . S
H746 C756 0.930 . S
H747 C759 0.929 . S
H748 C762 0.930 . S
H749 C764 0.960 . S
H750 C764 0.960 . S
H751 C764 0.960 . S
C752 H744 0.929 . S
C752 C753 1.377 . S
C752 C754 1.384 . S
C753 C752 1.377 . S
C753 C759 1.390 . S
C754 H745 0.930 . S
C754 C752 1.384 . S
C754 C755 1.372 . S
C755 C754 1.372 . S
C755 C756 1.400 . S
C755 C760 1.490 . S
C756 H746 0.930 . S
C756 C755 1.400 . S
C756 C759 1.386 . S
H757 C773 0.930 . S
H758 C774 0.931 . S
C759 H747 0.929 . S
C759 C753 1.390 . S
C759 C756 1.386 . S
C760 C755 1.490 . S
C760 C762 1.395 . S
C760 C763 1.403 . S
H761 C767 0.930 . S
C762 H748 0.930 . S
C762 C760 1.395 . S
C762 C765 1.403 . S
C763 C760 1.403 . S
C763 C764 1.524 . S
C763 C767 1.400 . S
C764 H749 0.960 . S
C764 H750 0.960 . S
C764 H751 0.960 . S
C764 C763 1.524 . S
C765 C762 1.403 . S
C765 C766 1.392 . S
C765 C769 1.495 . S
C766 C765 1.392 . S
C766 C767 1.385 . S
C766 C768 1.478 . S
C767 H761 0.930 . S
C767 C763 1.400 . S
C767 C766 1.385 . S
C768 C766 1.478 . S
C768 C770 1.381 . S
C768 C774 1.383 . S
C769 C765 1.495 . S
C769 H775 0.959 . S
C769 H776 0.961 . S
C769 H777 0.960 . S
C770 C768 1.381 . S
C770 C771 1.394 1_556 S
C770 H778 0.930 . S
C771 C770 1.394 1_554 S
C771 C772 1.383 . S
C771 H779 0.929 . S
C772 C771 1.383 . S
C772 C773 1.377 1_554 S
C773 H757 0.930 . S
C773 C772 1.377 1_556 S
C773 C774 1.379 . S
C774 H758 0.931 . S
C774 C768 1.383 . S
C774 C773 1.379 . S
H775 C769 0.959 . S
H776 C769 0.961 . S
H777 C769 0.960 . S
H778 C770 0.930 . S
H779 C771 0.929 . S
H780 C788 0.929 . S
H781 C790 0.930 1_455 S
H782 C792 0.930 . S
H783 C795 0.929 . S
H784 C798 0.930 . S
H785 C800 0.960 . S
H786 C800 0.960 . S
H787 C800 0.960 . S
C788 H780 0.929 . S
C788 C789 1.377 . S
C788 C790 1.384 . S
C789 C788 1.377 . S
C789 C795 1.390 . S
C790 H781 0.930 1_655 S
C790 C788 1.384 . S
C790 C791 1.372 . S
C791 C790 1.372 . S
C791 C792 1.400 . S
C791 C796 1.490 1_655 S
C792 H782 0.930 . S
C792 C791 1.400 . S
C792 C795 1.386 . S
H793 C809 0.930 . S
H794 C810 0.931 . S
C795 H783 0.929 . S
C795 C789 1.390 . S
C795 C792 1.386 . S
C796 C791 1.490 1_455 S
C796 C798 1.395 . S
C796 C799 1.403 . S
H797 C803 0.930 . S
C798 H784 0.930 . S
C798 C796 1.395 . S
C798 C801 1.403 . S
C799 C796 1.403 . S
C799 C800 1.524 1_455 S
C799 C803 1.400 . S
C800 H785 0.960 . S
C800 H786 0.960 . S
C800 H787 0.960 . S
C800 C799 1.524 1_655 S
C801 C798 1.403 . S
C801 C802 1.392 . S
C801 C805 1.495 . S
C802 C801 1.392 . S
C802 C803 1.385 . S
C802 C804 1.478 . S
C803 H797 0.930 . S
C803 C799 1.400 . S
C803 C802 1.385 . S
C804 C802 1.478 . S
C804 C806 1.381 . S
C804 C810 1.383 . S
C805 C801 1.495 . S
C805 H811 0.959 . S
C805 H812 0.961 . S
C805 H813 0.960 . S
C806 C804 1.381 . S
C806 C807 1.394 . S
C806 H814 0.930 . S
C807 C806 1.394 . S
C807 C808 1.383 . S
C807 H815 0.929 . S
C808 C807 1.383 . S
C808 C809 1.377 . S
C809 H793 0.930 . S
C809 C808 1.377 . S
C809 C810 1.379 . S
C810 H794 0.931 . S
C810 C804 1.383 . S
C810 C809 1.379 . S
H811 C805 0.959 . S
H812 C805 0.961 . S
H813 C805 0.960 . S
H814 C806 0.930 . S
H815 C807 0.929 . S
H816 C824 0.929 . S
H817 C826 0.930 . S
H818 C828 0.930 . S
H819 C831 0.929 . S
H820 C834 0.930 . S
H821 C836 0.960 . S
H822 C836 0.960 . S
H823 C836 0.960 . S
C824 H816 0.929 . S
C824 C825 1.377 . S
C824 C826 1.384 . S
C825 C824 1.377 . S
C825 C831 1.390 . S
C826 H817 0.930 . S
C826 C824 1.384 . S
C826 C827 1.372 . S
C827 C826 1.372 . S
C827 C828 1.400 . S
C827 C832 1.490 . S
C828 H818 0.930 . S
C828 C827 1.400 . S
C828 C831 1.386 . S
H829 C845 0.930 . S
H830 C846 0.931 . S
C831 H819 0.929 . S
C831 C825 1.390 . S
C831 C828 1.386 . S
C832 C827 1.490 . S
C832 C834 1.395 . S
C832 C835 1.403 . S
H833 C839 0.930 . S
C834 H820 0.930 . S
C834 C832 1.395 . S
C834 C837 1.403 . S
C835 C832 1.403 . S
C835 C836 1.524 . S
C835 C839 1.400 . S
C836 H821 0.960 . S
C836 H822 0.960 . S
C836 H823 0.960 . S
C836 C835 1.524 . S
C837 C834 1.403 . S
C837 C838 1.392 . S
C837 C841 1.495 . S
C838 C837 1.392 . S
C838 C839 1.385 . S
C838 C840 1.478 . S
C839 H833 0.930 . S
C839 C835 1.400 . S
C839 C838 1.385 . S
C840 C838 1.478 . S
C840 C842 1.381 . S
C840 C846 1.383 . S
C841 C837 1.495 . S
C841 H847 0.959 . S
C841 H848 0.961 . S
C841 H849 0.960 . S
C842 C840 1.381 . S
C842 C843 1.394 . S
C842 H850 0.930 . S
C843 C842 1.394 . S
C843 C844 1.383 . S
C843 H851 0.929 . S
C844 C843 1.383 . S
C844 C845 1.377 . S
C845 H829 0.930 . S
C845 C844 1.377 . S
C845 C846 1.379 . S
C846 H830 0.931 . S
C846 C840 1.383 . S
C846 C845 1.379 . S
H847 C841 0.959 . S
H848 C841 0.961 . S
H849 C841 0.960 . S
H850 C842 0.930 . S
H851 C843 0.929 . S
H852 C860 0.929 . S
H853 C862 0.970 . S
H854 C864 0.930 . S
H855 C867 0.929 . S
H856 C870 0.930 . S
H857 C872 0.960 . S
H858 C872 0.960 . S
H859 C872 0.937 1_565 S
C860 H852 0.929 . S
C860 C861 1.377 . S
C860 C862 1.384 . S
C861 C860 1.377 . S
C861 C867 1.390 . S
C862 H853 0.970 . S
C862 C860 1.384 . S
C862 C863 1.372 1_455 S
C863 C862 1.372 1_655 S
C863 C864 1.400 . S
C863 C868 1.490 . S
C864 H854 0.930 . S
C864 C863 1.400 . S
C864 C867 1.386 1_655 S
H865 C881 0.930 . S
H866 C882 0.931 . S
C867 H855 0.929 . S
C867 C861 1.390 . S
C867 C864 1.386 1_455 S
C868 C863 1.490 . S
C868 C870 1.395 . S
C868 C871 1.403 1_565 S
H869 C875 0.930 . S
C870 H856 0.930 . S
C870 C868 1.395 . S
C870 C873 1.431 . S
C871 C868 1.403 1_545 S
C871 C872 1.524 . S
C871 C875 1.400 . S
C872 H857 0.960 . S
C872 H858 0.960 . S
C872 H859 0.937 1_545 S
C872 C871 1.524 . S
C873 C870 1.431 . S
C873 C874 1.360 1_565 S
C873 C877 1.504 . S
C874 C873 1.360 1_545 S
C874 C875 1.385 . S
C874 C876 1.478 . S
C875 H869 0.930 . S
C875 C871 1.400 . S
C875 C874 1.385 . S
C876 C874 1.478 . S
C876 C878 1.381 . S
C876 C882 1.383 . S
C877 C873 1.504 . S
C877 H883 0.959 . S
C877 H884 0.961 . S
C877 H885 0.960 1_565 S
C878 C876 1.381 . S
C878 C879 1.394 . S
C878 H886 0.930 . S
C879 C878 1.394 . S
C879 C880 1.383 . S
C879 H887 0.929 . S
C880 C879 1.383 . S
C880 C881 1.377 . S
C881 H865 0.930 . S
C881 C880 1.377 . S
C881 C882 1.379 . S
C882 H866 0.931 . S
C882 C876 1.383 . S
C882 C881 1.379 . S
H883 C877 0.959 . S
H884 C877 0.961 . S
H885 C877 0.960 1_545 S
H886 C878 0.930 . S
H887 C879 0.929 . S
H888 C896 0.929 . S
H889 C898 0.930 . S
H890 C900 0.930 . S
H891 C903 0.929 . S
H892 C906 0.930 . S
H893 C908 0.960 . S
H894 C908 0.960 . S
H895 C908 0.960 . S
C896 H888 0.929 . S
C896 C897 1.377 . S
C896 C898 1.384 . S
C897 C896 1.377 . S
C897 C903 1.390 . S
C898 H889 0.930 . S
C898 C896 1.384 . S
C898 C899 1.372 . S
C899 C898 1.372 . S
C899 C900 1.400 . S
C899 C904 1.490 . S
C900 H890 0.930 . S
C900 C899 1.400 . S
C900 C903 1.386 . S
H901 C917 0.930 . S
H902 C918 0.931 . S
C903 H891 0.929 . S
C903 C897 1.390 . S
C903 C900 1.386 . S
C904 C899 1.490 . S
C904 C906 1.395 . S
C904 C907 1.403 . S
H905 C911 0.930 . S
C906 H892 0.930 . S
C906 C904 1.395 . S
C906 C909 1.403 . S
C907 C904 1.403 . S
C907 C908 1.524 . S
C907 C911 1.400 . S
C908 H893 0.960 . S
C908 H894 0.960 . S
C908 H895 0.960 . S
C908 C907 1.524 . S
C909 C906 1.403 . S
C909 C910 1.392 . S
C909 C913 1.495 . S
C910 C909 1.392 . S
C910 C911 1.385 . S
C910 C912 1.478 . S
C911 H905 0.930 . S
C911 C907 1.400 . S
C911 C910 1.385 . S
C912 C910 1.478 . S
C912 C914 1.381 . S
C912 C918 1.383 . S
C913 C909 1.495 . S
C913 H919 0.959 . S
C913 H920 0.961 . S
C913 H921 0.960 . S
C914 C912 1.381 . S
C914 C915 1.394 . S
C914 H922 0.930 . S
C915 C914 1.394 . S
C915 C916 1.383 . S
C915 H923 0.929 . S
C916 C915 1.383 . S
C916 C917 1.377 . S
C917 H901 0.930 . S
C917 C916 1.377 . S
C917 C918 1.379 . S
C918 H902 0.931 . S
C918 C912 1.383 . S
C918 C917 1.379 . S
H919 C913 0.959 . S
H920 C913 0.961 . S
H921 C913 0.960 . S
H922 C914 0.930 . S
H923 C915 0.929 . S
H924 C932 0.929 . S
H925 C934 0.930 . S
H926 C936 0.930 . S
H927 C939 0.929 . S
H928 C942 0.930 . S
H929 C944 0.960 . S
H930 C944 0.960 . S
H931 C944 0.960 . S
C932 H924 0.929 . S
C932 C933 1.377 . S
C932 C934 1.384 . S
C933 C932 1.377 . S
C933 C939 1.390 . S
C934 H925 0.930 . S
C934 C932 1.384 . S
C934 C935 1.372 . S
C935 C934 1.372 . S
C935 C936 1.400 . S
C935 C940 1.490 . S
C936 H926 0.930 . S
C936 C935 1.400 . S
C936 C939 1.386 . S
H937 C953 0.930 . S
H938 C954 0.931 . S
C939 H927 0.929 . S
C939 C933 1.390 . S
C939 C936 1.386 . S
C940 C935 1.490 . S
C940 C942 1.395 . S
C940 C943 1.403 . S
H941 C947 0.930 . S
C942 H928 0.930 . S
C942 C940 1.395 . S
C942 C945 1.403 . S
C943 C940 1.403 . S
C943 C944 1.524 . S
C943 C947 1.400 . S
C944 H929 0.960 . S
C944 H930 0.960 . S
C944 H931 0.960 . S
C944 C943 1.524 . S
C945 C942 1.403 . S
C945 C946 1.392 . S
C945 C949 1.495 . S
C946 C945 1.392 . S
C946 C947 1.385 . S
C946 C948 1.478 . S
C947 H941 0.930 . S
C947 C943 1.400 . S
C947 C946 1.385 . S
C948 C946 1.478 . S
C948 C950 1.381 . S
C948 C954 1.383 . S
C949 C945 1.495 . S
C949 H955 0.959 . S
C949 H956 0.961 . S
C949 H957 0.960 . S
C950 C948 1.381 . S
C950 C951 1.394 . S
C950 H958 0.930 . S
C951 C950 1.394 . S
C951 C952 1.383 . S
C951 H959 0.929 . S
C952 C951 1.383 . S
C952 C953 1.377 . S
C953 H937 0.930 . S
C953 C952 1.377 . S
C953 C954 1.379 . S
C954 H938 0.931 . S
C954 C948 1.383 . S
C954 C953 1.379 . S
H955 C949 0.959 . S
H956 C949 0.961 . S
H957 C949 0.960 . S
H958 C950 0.930 . S
H959 C951 0.929 . S
H960 C968 0.929 . S
H961 C970 0.930 . S
H962 C972 0.930 . S
H963 C975 0.929 . S
H964 C978 0.930 . S
H965 C980 0.960 . S
H966 C980 0.960 . S
H967 C980 0.960 . S
C968 H960 0.929 . S
C968 C969 1.377 . S
C968 C970 1.384 . S
C969 C968 1.377 . S
C969 C975 1.390 . S
C970 H961 0.930 . S
C970 C968 1.384 . S
C970 C971 1.372 . S
C971 C970 1.372 . S
C971 C972 1.400 . S
C971 C976 1.490 . S
C972 H962 0.930 . S
C972 C971 1.400 . S
C972 C975 1.386 . S
H973 C989 0.930 . S
H974 C990 0.931 . S
C975 H963 0.929 . S
C975 C969 1.390 . S
C975 C972 1.386 . S
C976 C971 1.490 . S
C976 C978 1.395 . S
C976 C979 1.403 . S
H977 C983 0.930 . S
C978 H964 0.930 . S
C978 C976 1.395 . S
C978 C981 1.403 . S
C979 C976 1.403 . S
C979 C980 1.524 . S
C979 C983 1.400 . S
C980 H965 0.960 . S
C980 H966 0.960 . S
C980 H967 0.960 . S
C980 C979 1.524 . S
C981 C978 1.403 . S
C981 C982 1.392 . S
C981 C985 1.495 . S
C982 C981 1.392 . S
C982 C983 1.385 . S
C982 C984 1.478 . S
C983 H977 0.930 . S
C983 C979 1.400 . S
C983 C982 1.385 . S
C984 C982 1.478 . S
C984 C986 1.381 . S
C984 C990 1.383 . S
C985 C981 1.495 . S
C985 H991 0.959 . S
C985 H992 0.961 . S
C985 H993 0.960 . S
C986 C984 1.381 . S
C986 C987 1.394 . S
C986 H994 0.930 . S
C987 C986 1.394 . S
C987 C988 1.383 . S
C987 H995 0.929 . S
C988 C987 1.383 . S
C988 C989 1.377 . S
C989 H973 0.930 . S
C989 C988 1.377 . S
C989 C990 1.379 . S
C990 H974 0.931 . S
C990 C984 1.383 . S
C990 C989 1.379 . S
H991 C985 0.959 . S
H992 C985 0.961 . S
H993 C985 0.960 . S
H994 C986 0.930 . S
H995 C987 0.929 . S
H996 C1004 0.929 . S
H997 C1006 0.930 . S
H998 C1008 0.930 . S
H999 C1011 0.929 . S
H1000 C1014 0.930 . S
H1001 C1016 0.960 . S
H1002 C1016 0.960 . S
H1003 C1016 0.960 . S
C1004 H996 0.929 . S
C1004 C1005 1.377 . S
C1004 C1006 1.384 . S
C1005 C1004 1.377 . S
C1005 C1011 1.390 . S
C1006 H997 0.930 . S
C1006 C1004 1.384 . S
C1006 C1007 1.372 . S
C1007 C1006 1.372 . S
C1007 C1008 1.400 . S
C1007 C1012 1.490 . S
C1008 H998 0.930 . S
C1008 C1007 1.400 . S
C1008 C1011 1.386 . S
H1009 C1025 0.930 . S
H1010 C1026 0.931 . S
C1011 H999 0.929 . S
C1011 C1005 1.390 . S
C1011 C1008 1.386 . S
C1012 C1007 1.490 . S
C1012 C1014 1.395 . S
C1012 C1015 1.403 . S
H1013 C1019 0.930 . S
C1014 H1000 0.930 . S
C1014 C1012 1.395 . S
C1014 C1017 1.403 . S
C1015 C1012 1.403 . S
C1015 C1016 1.524 . S
C1015 C1019 1.400 . S
C1016 H1001 0.960 . S
C1016 H1002 0.960 . S
C1016 H1003 0.960 . S
C1016 C1015 1.524 . S
C1017 C1014 1.403 . S
C1017 C1018 1.392 . S
C1017 C1021 1.495 . S
C1018 C1017 1.392 . S
C1018 C1019 1.385 . S
C1018 C1020 1.478 . S
C1019 H1013 0.930 . S
C1019 C1015 1.400 . S
C1019 C1018 1.385 . S
C1020 C1018 1.478 . S
C1020 C1022 1.381 . S
C1020 C1026 1.383 . S
C1021 C1017 1.495 . S
C1021 H1027 0.959 1_565 S
C1021 H1028 0.961 . S
C1021 H1029 0.960 1_565 S
C1022 C1020 1.381 . S
C1022 C1023 1.394 . S
C1022 H1030 0.930 . S
C1023 C1022 1.394 . S
C1023 C1024 1.383 . S
C1023 H1031 0.930 . S
C1024 C1023 1.383 . S
C1024 C1025 1.377 . S
C1025 H1009 0.930 . S
C1025 C1024 1.377 . S
C1025 C1026 1.379 . S
C1026 H1010 0.931 . S
C1026 C1020 1.383 . S
C1026 C1025 1.379 . S
H1027 C1021 0.959 1_545 S
H1028 C1021 0.961 . S
H1029 C1021 0.960 1_545 S
H1030 C1022 0.930 . S
H1031 C1023 0.930 . S
H1032 C1040 0.929 . S
H1033 C1042 0.930 . S
H1034 C1044 0.930 . S
H1035 C1047 0.929 . S
H1036 C1050 0.930 . S
H1037 C1052 0.960 . S
H1038 C1052 0.960 . S
H1039 C1052 0.960 . S
C1040 H1032 0.929 . S
C1040 C1041 1.377 . S
C1040 C1042 1.384 . S
C1041 C1040 1.377 . S
C1041 C1047 1.390 . S
C1042 H1033 0.930 . S
C1042 C1040 1.384 . S
C1042 C1043 1.372 . S
C1043 C1042 1.372 . S
C1043 C1044 1.400 . S
C1043 C1048 1.490 . S
C1044 H1034 0.930 . S
C1044 C1043 1.400 . S
C1044 C1047 1.386 . S
H1045 C1061 0.930 . S
H1046 C1062 0.931 . S
C1047 H1035 0.929 . S
C1047 C1041 1.390 . S
C1047 C1044 1.386 . S
C1048 C1043 1.490 . S
C1048 C1050 1.395 . S
C1048 C1051 1.403 . S
H1049 C1055 0.930 . S
C1050 H1036 0.930 . S
C1050 C1048 1.395 . S
C1050 C1053 1.403 . S
C1051 C1048 1.403 . S
C1051 C1052 1.524 . S
C1051 C1055 1.400 . S
C1052 H1037 0.960 . S
C1052 H1038 0.960 . S
C1052 H1039 0.960 . S
C1052 C1051 1.524 . S
C1053 C1050 1.403 . S
C1053 C1054 1.392 . S
C1053 C1057 1.495 . S
C1054 C1053 1.392 . S
C1054 C1055 1.385 . S
C1054 C1056 1.478 . S
C1055 H1049 0.930 . S
C1055 C1051 1.400 . S
C1055 C1054 1.385 . S
C1056 C1054 1.478 . S
C1056 C1058 1.381 . S
C1056 C1062 1.383 . S
C1057 C1053 1.495 . S
C1057 H1063 0.959 . S
C1057 H1064 0.961 . S
C1057 H1065 0.960 . S
C1058 C1056 1.381 . S
C1058 C1059 1.394 . S
C1058 H1066 0.930 . S
C1059 C1058 1.394 . S
C1059 C1060 1.383 . S
C1059 H1067 0.929 . S
C1060 C1059 1.383 . S
C1060 C1061 1.377 . S
C1061 H1045 0.930 . S
C1061 C1060 1.377 . S
C1061 C1062 1.379 . S
C1062 H1046 0.931 . S
C1062 C1056 1.383 . S
C1062 C1061 1.379 . S
H1063 C1057 0.959 . S
H1064 C1057 0.961 . S
H1065 C1057 0.960 . S
H1066 C1058 0.930 . S
H1067 C1059 0.929 . S
H1068 C1076 0.929 . S
H1069 C1078 0.930 . S
H1070 C1080 0.930 . S
H1071 C1083 0.929 . S
H1072 C1086 0.930 . S
H1073 C1088 0.960 . S
H1074 C1088 0.960 . S
H1075 C1088 0.960 . S
C1076 H1068 0.929 . S
C1076 C1077 1.377 . S
C1076 C1078 1.384 . S
C1077 C1076 1.377 . S
C1077 C1083 1.390 . S
C1078 H1069 0.930 . S
C1078 C1076 1.384 . S
C1078 C1079 1.372 . S
C1079 C1078 1.372 . S
C1079 C1080 1.400 . S
C1079 C1084 1.490 . S
C1080 H1070 0.930 . S
C1080 C1079 1.400 . S
C1080 C1083 1.386 . S
H1081 C1097 0.930 . S
H1082 C1098 0.931 . S
C1083 H1071 0.929 . S
C1083 C1077 1.390 . S
C1083 C1080 1.386 . S
C1084 C1079 1.490 . S
C1084 C1086 1.395 . S
C1084 C1087 1.403 . S
H1085 C1091 0.930 . S
C1086 H1072 0.930 . S
C1086 C1084 1.395 . S
C1086 C1089 1.403 . S
C1087 C1084 1.403 . S
C1087 C1088 1.524 . S
C1087 C1091 1.400 . S
C1088 H1073 0.960 . S
C1088 H1074 0.960 . S
C1088 H1075 0.960 . S
C1088 C1087 1.524 . S
C1089 C1086 1.403 . S
C1089 C1090 1.392 . S
C1089 C1093 1.495 . S
C1090 C1089 1.392 . S
C1090 C1091 1.385 . S
C1090 C1092 1.478 . S
C1091 H1085 0.930 . S
C1091 C1087 1.400 . S
C1091 C1090 1.385 . S
C1092 C1090 1.478 . S
C1092 C1094 1.381 . S
C1092 C1098 1.383 . S
C1093 C1089 1.495 . S
C1093 H1099 0.959 . S
C1093 H1100 0.961 . S
C1093 H1101 0.960 . S
C1094 C1092 1.381 . S
C1094 C1095 1.394 . S
C1094 H1102 0.930 . S
C1095 C1094 1.394 . S
C1095 C1096 1.383 . S
C1095 H1103 0.929 . S
C1096 C1095 1.383 . S
C1096 C1097 1.377 . S
C1097 H1081 0.930 . S
C1097 C1096 1.377 . S
C1097 C1098 1.379 . S
C1098 H1082 0.931 . S
C1098 C1092 1.383 . S
C1098 C1097 1.379 . S
H1099 C1093 0.959 . S
H1100 C1093 0.961 . S
H1101 C1093 0.960 . S
H1102 C1094 0.930 . S
H1103 C1095 0.929 . S
H1104 C1112 0.929 . S
H1105 C1114 0.930 . S
H1106 C1116 0.930 . S
H1107 C1119 0.929 . S
H1108 C1122 0.930 . S
H1109 C1124 0.960 . S
H1110 C1124 0.960 . S
H1111 C1124 0.960 . S
C1112 H1104 0.929 . S
C1112 C1113 1.377 . S
C1112 C1114 1.384 . S
C1113 C1112 1.377 . S
C1113 C1119 1.390 . S
C1114 H1105 0.930 . S
C1114 C1112 1.384 . S
C1114 C1115 1.372 . S
C1115 C1114 1.372 . S
C1115 C1116 1.400 . S
C1115 C1120 1.490 . S
C1116 H1106 0.930 . S
C1116 C1115 1.400 . S
C1116 C1119 1.386 . S
H1117 C1133 0.930 . S
H1118 C1134 0.931 . S
C1119 H1107 0.929 . S
C1119 C1113 1.390 . S
C1119 C1116 1.386 . S
C1120 C1115 1.490 . S
C1120 C1122 1.395 . S
C1120 C1123 1.403 . S
H1121 C1127 0.930 . S
C1122 H1108 0.930 . S
C1122 C1120 1.395 . S
C1122 C1125 1.403 . S
C1123 C1120 1.403 . S
C1123 C1124 1.524 . S
C1123 C1127 1.400 . S
C1124 H1109 0.960 . S
C1124 H1110 0.960 . S
C1124 H1111 0.960 . S
C1124 C1123 1.524 . S
C1125 C1122 1.403 . S
C1125 C1126 1.392 . S
C1125 C1129 1.495 . S
C1126 C1125 1.392 . S
C1126 C1127 1.385 . S
C1126 C1128 1.478 . S
C1127 H1121 0.930 . S
C1127 C1123 1.400 . S
C1127 C1126 1.385 . S
C1128 C1126 1.478 . S
C1128 C1130 1.381 . S
C1128 C1134 1.383 . S
C1129 C1125 1.495 . S
C1129 H1135 0.959 . S
C1129 H1136 0.961 . S
C1129 H1137 0.960 . S
C1130 C1128 1.381 . S
C1130 C1131 1.394 . S
C1130 H1138 0.930 . S
C1131 C1130 1.394 . S
C1131 C1132 1.383 . S
C1131 H1139 0.929 . S
C1132 C1131 1.383 . S
C1132 C1133 1.377 . S
C1133 H1117 0.930 . S
C1133 C1132 1.377 . S
C1133 C1134 1.379 . S
C1134 H1118 0.931 . S
C1134 C1128 1.383 . S
C1134 C1133 1.379 . S
H1135 C1129 0.959 . S
H1136 C1129 0.961 . S
H1137 C1129 0.960 . S
H1138 C1130 0.930 . S
H1139 C1131 0.929 . S
H1140 C1148 0.929 . S
H1141 C1150 0.930 . S
H1142 C1152 0.930 . S
H1143 C1155 0.929 . S
H1144 C1158 0.930 . S
H1145 C1160 0.960 . S
H1146 C1160 0.960 . S
H1147 C1160 0.960 . S
C1148 H1140 0.929 . S
C1148 C1149 1.377 . S
C1148 C1150 1.384 . S
C1149 C1148 1.377 . S
C1149 C1155 1.390 . S
C1150 H1141 0.930 . S
C1150 C1148 1.384 . S
C1150 C1151 1.372 . S
C1151 C1150 1.372 . S
C1151 C1152 1.400 . S
C1151 C1156 1.490 . S
C1152 H1142 0.930 . S
C1152 C1151 1.400 . S
C1152 C1155 1.386 . S
H1153 C1169 0.930 . S
H1154 C1170 0.931 . S
C1155 H1143 0.929 . S
C1155 C1149 1.390 . S
C1155 C1152 1.386 . S
C1156 C1151 1.490 . S
C1156 C1158 1.395 . S
C1156 C1159 1.403 . S
H1157 C1163 0.930 . S
C1158 H1144 0.930 . S
C1158 C1156 1.395 . S
C1158 C1161 1.403 . S
C1159 C1156 1.403 . S
C1159 C1160 1.524 . S
C1159 C1163 1.400 . S
C1160 H1145 0.960 . S
C1160 H1146 0.960 . S
C1160 H1147 0.960 . S
C1160 C1159 1.524 . S
C1161 C1158 1.403 . S
C1161 C1162 1.392 . S
C1161 C1165 1.495 . S
C1162 C1161 1.392 . S
C1162 C1163 1.385 . S
C1162 C1164 1.478 . S
C1163 H1157 0.930 . S
C1163 C1159 1.400 . S
C1163 C1162 1.385 . S
C1164 C1162 1.478 . S
C1164 C1166 1.381 . S
C1164 C1170 1.383 . S
C1165 C1161 1.495 . S
C1165 H1171 0.959 . S
C1165 H1172 0.961 . S
C1165 H1173 0.960 . S
C1166 C1164 1.381 . S
C1166 C1167 1.394 . S
C1166 H1174 0.930 . S
C1167 C1166 1.394 . S
C1167 C1168 1.383 . S
C1167 H1175 0.929 . S
C1168 C1167 1.383 . S
C1168 C1169 1.377 . S
C1169 H1153 0.930 . S
C1169 C1168 1.377 . S
C1169 C1170 1.379 . S
C1170 H1154 0.931 . S
C1170 C1164 1.383 . S
C1170 C1169 1.379 . S
H1171 C1165 0.959 . S
H1172 C1165 0.961 . S
H1173 C1165 0.960 . S
H1174 C1166 0.930 . S
H1175 C1167 0.929 . S
H1176 C1184 0.929 . S
H1177 C1186 0.930 . S
H1178 C1188 0.930 . S
H1179 C1191 0.929 . S
H1180 C1194 0.930 . S
H1181 C1196 0.960 . S
H1182 C1196 0.960 . S
H1183 C1196 0.960 . S
C1184 H1176 0.929 . S
C1184 C1185 1.377 . S
C1184 C1186 1.384 . S
C1185 C1184 1.377 . S
C1185 C1191 1.390 . S
C1186 H1177 0.930 . S
C1186 C1184 1.384 . S
C1186 C1187 1.372 . S
C1187 C1186 1.372 . S
C1187 C1188 1.400 . S
C1187 C1192 1.490 . S
C1188 H1178 0.930 . S
C1188 C1187 1.400 . S
C1188 C1191 1.386 . S
H1189 C1205 0.930 . S
H1190 C1206 0.931 . S
C1191 H1179 0.929 . S
C1191 C1185 1.390 . S
C1191 C1188 1.386 . S
C1192 C1187 1.490 . S
C1192 C1194 1.395 . S
C1192 C1195 1.403 . S
H1193 C1199 0.930 . S
C1194 H1180 0.930 . S
C1194 C1192 1.395 . S
C1194 C1197 1.403 . S
C1195 C1192 1.403 . S
C1195 C1196 1.524 . S
C1195 C1199 1.400 . S
C1196 H1181 0.960 . S
C1196 H1182 0.960 . S
C1196 H1183 0.960 . S
C1196 C1195 1.524 . S
C1197 C1194 1.403 . S
C1197 C1198 1.392 . S
C1197 C1201 1.495 . S
C1198 C1197 1.392 . S
C1198 C1199 1.385 . S
C1198 C1200 1.478 . S
C1199 H1193 0.930 . S
C1199 C1195 1.400 . S
C1199 C1198 1.385 . S
C1200 C1198 1.478 . S
C1200 C1202 1.381 . S
C1200 C1206 1.383 . S
C1201 C1197 1.495 . S
C1201 H1207 0.959 . S
C1201 H1208 0.961 . S
C1201 H1209 0.960 . S
C1202 C1200 1.381 . S
C1202 C1203 1.394 . S
C1202 H1210 0.930 . S
C1203 C1202 1.394 . S
C1203 C1204 1.383 . S
C1203 H1211 0.929 . S
C1204 C1203 1.383 . S
C1204 C1205 1.377 . S
C1205 H1189 0.930 . S
C1205 C1204 1.377 . S
C1205 C1206 1.379 . S
C1206 H1190 0.931 . S
C1206 C1200 1.383 . S
C1206 C1205 1.379 . S
H1207 C1201 0.959 . S
H1208 C1201 0.961 . S
H1209 C1201 0.960 . S
H1210 C1202 0.930 . S
H1211 C1203 0.929 . S
H1212 C1220 0.929 . S
H1213 C1222 0.930 . S
H1214 C1224 0.930 . S
H1215 C1227 0.929 . S
H1216 C1230 0.930 . S
H1217 C1232 0.960 . S
H1218 C1232 0.960 . S
H1219 C1232 0.960 . S
C1220 H1212 0.929 . S
C1220 C1221 1.377 . S
C1220 C1222 1.384 . S
C1221 C1220 1.377 . S
C1221 C1227 1.390 . S
C1222 H1213 0.930 . S
C1222 C1220 1.384 . S
C1222 C1223 1.372 . S
C1223 C1222 1.372 . S
C1223 C1224 1.400 . S
C1223 C1228 1.490 . S
C1224 H1214 0.930 . S
C1224 C1223 1.400 . S
C1224 C1227 1.386 . S
H1225 C1241 0.930 . S
H1226 C1242 0.931 . S
C1227 H1215 0.929 . S
C1227 C1221 1.390 . S
C1227 C1224 1.386 . S
C1228 C1223 1.490 . S
C1228 C1230 1.395 . S
C1228 C1231 1.403 . S
H1229 C1235 0.930 . S
C1230 H1216 0.930 . S
C1230 C1228 1.395 . S
C1230 C1233 1.403 . S
C1231 C1228 1.403 . S
C1231 C1232 1.524 . S
C1231 C1235 1.400 . S
C1232 H1217 0.960 . S
C1232 H1218 0.960 . S
C1232 H1219 0.960 . S
C1232 C1231 1.524 . S
C1233 C1230 1.403 . S
C1233 C1234 1.392 . S
C1233 C1237 1.495 . S
C1234 C1233 1.392 . S
C1234 C1235 1.385 . S
C1234 C1236 1.478 . S
C1235 H1229 0.930 . S
C1235 C1231 1.400 . S
C1235 C1234 1.385 . S
C1236 C1234 1.478 . S
C1236 C1238 1.381 . S
C1236 C1242 1.383 . S
C1237 C1233 1.495 . S
C1237 H1243 0.959 . S
C1237 H1244 0.961 . S
C1237 H1245 0.960 . S
C1238 C1236 1.381 . S
C1238 C1239 1.394 . S
C1238 H1246 0.930 . S
C1239 C1238 1.394 . S
C1239 C1240 1.383 . S
C1239 H1247 0.929 . S
C1240 C1239 1.383 . S
C1240 C1241 1.377 . S
C1241 H1225 0.930 . S
C1241 C1240 1.377 . S
C1241 C1242 1.379 . S
C1242 H1226 0.931 . S
C1242 C1236 1.383 . S
C1242 C1241 1.379 . S
H1243 C1237 0.959 . S
H1244 C1237 0.961 . S
H1245 C1237 0.960 . S
H1246 C1238 0.930 . S
H1247 C1239 0.929 . S
H1248 C1256 0.929 . S
H1249 C1258 0.930 . S
H1250 C1260 0.930 . S
H1251 C1263 0.929 . S
H1252 C1266 0.930 . S
H1253 C1268 0.960 . S
H1254 C1268 0.960 . S
H1255 C1268 0.960 . S
C1256 H1248 0.929 . S
C1256 C1257 1.377 . S
C1256 C1258 1.384 . S
C1257 C1256 1.377 . S
C1257 C1263 1.390 . S
C1258 H1249 0.930 . S
C1258 C1256 1.384 . S
C1258 C1259 1.372 . S
C1259 C1258 1.372 . S
C1259 C1260 1.400 . S
C1259 C1264 1.490 . S
C1260 H1250 0.930 . S
C1260 C1259 1.400 . S
C1260 C1263 1.386 . S
H1261 C1277 0.930 . S
H1262 C1278 0.931 . S
C1263 H1251 0.929 . S
C1263 C1257 1.390 . S
C1263 C1260 1.386 . S
C1264 C1259 1.490 . S
C1264 C1266 1.395 . S
C1264 C1267 1.403 . S
H1265 C1271 0.930 . S
C1266 H1252 0.930 . S
C1266 C1264 1.395 . S
C1266 C1269 1.403 . S
C1267 C1264 1.403 . S
C1267 C1268 1.524 . S
C1267 C1271 1.400 . S
C1268 H1253 0.960 . S
C1268 H1254 0.960 . S
C1268 H1255 0.960 . S
C1268 C1267 1.524 . S
C1269 C1266 1.403 . S
C1269 C1270 1.392 . S
C1269 C1273 1.495 . S
C1270 C1269 1.392 . S
C1270 C1271 1.385 . S
C1270 C1272 1.478 . S
C1271 H1265 0.930 . S
C1271 C1267 1.400 . S
C1271 C1270 1.385 . S
C1272 C1270 1.478 . S
C1272 C1274 1.381 . S
C1272 C1278 1.383 . S
C1273 C1269 1.495 . S
C1273 H1279 0.959 . S
C1273 H1280 0.961 . S
C1273 H1281 0.960 . S
C1274 C1272 1.381 . S
C1274 C1275 1.394 . S
C1274 H1282 0.930 . S
C1275 C1274 1.394 . S
C1275 C1276 1.383 . S
C1275 H1283 0.929 . S
C1276 C1275 1.383 . S
C1276 C1277 1.377 . S
C1277 H1261 0.930 . S
C1277 C1276 1.377 . S
C1277 C1278 1.379 . S
C1278 H1262 0.931 . S
C1278 C1272 1.383 . S
C1278 C1277 1.379 . S
H1279 C1273 0.959 . S
H1280 C1273 0.961 . S
H1281 C1273 0.960 . S
H1282 C1274 0.930 . S
H1283 C1275 0.929 . S
H1284 C1292 0.929 . S
H1285 C1294 0.930 . S
H1286 C1296 0.930 . S
H1287 C1299 0.929 . S
H1288 C1302 0.930 . S
H1289 C1304 0.960 . S
H1290 C1304 0.960 . S
H1291 C1304 0.960 . S
C1292 H1284 0.929 . S
C1292 C1293 1.377 . S
C1292 C1294 1.384 . S
C1293 C1292 1.377 . S
C1293 C1299 1.390 . S
C1294 H1285 0.930 . S
C1294 C1292 1.384 . S
C1294 C1295 1.372 . S
C1295 C1294 1.372 . S
C1295 C1296 1.400 . S
C1295 C1300 1.490 . S
C1296 H1286 0.930 . S
C1296 C1295 1.400 . S
C1296 C1299 1.386 . S
H1297 C1313 0.930 . S
H1298 C1314 0.931 . S
C1299 H1287 0.929 . S
C1299 C1293 1.390 . S
C1299 C1296 1.386 . S
C1300 C1295 1.490 . S
C1300 C1302 1.395 . S
C1300 C1303 1.403 . S
H1301 C1307 0.930 . S
C1302 H1288 0.930 . S
C1302 C1300 1.395 . S
C1302 C1305 1.403 . S
C1303 C1300 1.403 . S
C1303 C1304 1.524 . S
C1303 C1307 1.400 . S
C1304 H1289 0.960 . S
C1304 H1290 0.960 . S
C1304 H1291 0.960 . S
C1304 C1303 1.524 . S
C1305 C1302 1.403 . S
C1305 C1306 1.392 . S
C1305 C1309 1.495 . S
C1306 C1305 1.392 . S
C1306 C1307 1.385 . S
C1306 C1308 1.478 . S
C1307 H1301 0.930 . S
C1307 C1303 1.400 . S
C1307 C1306 1.385 . S
C1308 C1306 1.478 . S
C1308 C1310 1.381 . S
C1308 C1314 1.383 . S
C1309 C1305 1.495 . S
C1309 H1315 0.959 . S
C1309 H1316 0.961 . S
C1309 H1317 0.960 . S
C1310 C1308 1.381 . S
C1310 C1311 1.394 . S
C1310 H1318 0.906 1_655 S
C1311 C1310 1.394 . S
C1311 C1312 1.383 . S
C1311 H1319 0.929 1_655 S
C1312 C1311 1.383 . S
C1312 C1313 1.377 . S
C1313 H1297 0.930 . S
C1313 C1312 1.377 . S
C1313 C1314 1.379 . S
C1314 H1298 0.931 . S
C1314 C1308 1.383 . S
C1314 C1313 1.379 . S
H1315 C1309 0.959 . S
H1316 C1309 0.961 . S
H1317 C1309 0.960 . S
H1318 C1310 0.906 1_455 S
H1319 C1311 0.929 1_455 S
H1320 C1328 0.929 . S
H1321 C1330 0.930 . S
H1322 C1332 0.930 . S
H1323 C1335 0.929 . S
H1324 C1338 0.930 . S
H1325 C1340 0.960 . S
H1326 C1340 0.960 . S
H1327 C1340 0.960 . S
C1328 H1320 0.929 . S
C1328 C1329 1.377 . S
C1328 C1330 1.384 . S
C1329 C1328 1.377 . S
C1329 C1335 1.390 . S
C1330 H1321 0.930 . S
C1330 C1328 1.384 . S
C1330 C1331 1.372 . S
C1331 C1330 1.372 . S
C1331 C1332 1.400 . S
C1331 C1336 1.490 . S
C1332 H1322 0.930 . S
C1332 C1331 1.400 . S
C1332 C1335 1.386 . S
H1333 C1349 0.936 . S
H1334 C1350 0.931 . S
C1335 H1323 0.929 . S
C1335 C1329 1.390 . S
C1335 C1332 1.386 . S
C1336 C1331 1.490 . S
C1336 C1338 1.395 . S
C1336 C1339 1.403 . S
H1337 C1343 0.930 . S
C1338 H1324 0.930 . S
C1338 C1336 1.395 . S
C1338 C1341 1.403 . S
C1339 C1336 1.403 . S
C1339 C1340 1.524 . S
C1339 C1343 1.400 . S
C1340 H1325 0.960 . S
C1340 H1326 0.960 . S
C1340 H1327 0.960 . S
C1340 C1339 1.524 . S
C1341 C1338 1.403 . S
C1341 C1342 1.392 . S
C1341 C1345 1.495 . S
C1342 C1341 1.392 . S
C1342 C1343 1.385 . S
C1342 C1344 1.478 . S
C1343 H1337 0.930 . S
C1343 C1339 1.400 . S
C1343 C1342 1.385 . S
C1344 C1342 1.478 . S
C1344 C1346 1.381 1_565 S
C1344 C1350 1.383 . S
C1345 C1341 1.495 . S
C1345 H1351 0.959 . S
C1345 H1352 0.961 . S
C1345 H1353 0.998 . S
C1346 C1344 1.381 1_545 S
C1346 C1347 1.394 . S
C1346 H1354 0.930 . S
C1347 C1346 1.394 . S
C1347 C1348 1.383 . S
C1347 H1355 0.929 . S
C1348 C1347 1.383 . S
C1348 C1349 1.377 . S
C1349 H1333 0.936 . S
C1349 C1348 1.377 . S
C1349 C1350 1.379 1_545 S
C1350 H1334 0.931 . S
C1350 C1344 1.383 . S
C1350 C1349 1.379 1_565 S
H1351 C1345 0.959 . S
H1352 C1345 0.961 . S
H1353 C1345 0.998 . S
H1354 C1346 0.930 . S
H1355 C1347 0.929 . S
H1356 C1364 0.929 . S
H1357 C1366 0.930 . S
H1358 C1368 0.930 . S
H1359 C1371 0.929 . S
H1360 C1374 0.930 . S
H1361 C1376 0.960 . S
H1362 C1376 0.960 . S
H1363 C1376 0.960 . S
C1364 H1356 0.929 . S
C1364 C1365 1.377 . S
C1364 C1366 1.384 . S
C1365 C1364 1.377 . S
C1365 C1371 1.390 . S
C1366 H1357 0.930 . S
C1366 C1364 1.384 . S
C1366 C1367 1.372 . S
C1367 C1366 1.372 . S
C1367 C1368 1.400 . S
C1367 C1372 1.490 . S
C1368 H1358 0.930 . S
C1368 C1367 1.400 . S
C1368 C1371 1.386 . S
H1369 C1385 0.930 . S
H1370 C1386 0.931 . S
C1371 H1359 0.929 . S
C1371 C1365 1.390 . S
C1371 C1368 1.386 . S
C1372 C1367 1.490 . S
C1372 C1374 1.395 . S
C1372 C1375 1.403 . S
H1373 C1379 0.930 . S
C1374 H1360 0.930 . S
C1374 C1372 1.395 . S
C1374 C1377 1.403 . S
C1375 C1372 1.403 . S
C1375 C1376 1.524 . S
C1375 C1379 1.400 . S
C1376 H1361 0.960 . S
C1376 H1362 0.960 . S
C1376 H1363 0.960 . S
C1376 C1375 1.524 . S
C1377 C1374 1.403 . S
C1377 C1378 1.392 . S
C1377 C1381 1.495 . S
C1378 C1377 1.392 . S
C1378 C1379 1.385 . S
C1378 C1380 1.478 . S
C1379 H1373 0.930 . S
C1379 C1375 1.400 . S
C1379 C1378 1.385 . S
C1380 C1378 1.478 . S
C1380 C1382 1.381 . S
C1380 C1386 1.383 . S
C1381 C1377 1.495 . S
C1381 H1387 0.959 . S
C1381 H1388 0.961 . S
C1381 H1389 0.960 . S
C1382 C1380 1.381 . S
C1382 C1383 1.394 . S
C1382 H1390 0.930 . S
C1383 C1382 1.394 . S
C1383 C1384 1.383 . S
C1383 H1391 0.929 . S
C1384 C1383 1.383 . S
C1384 C1385 1.377 . S
C1385 H1369 0.930 . S
C1385 C1384 1.377 . S
C1385 C1386 1.379 . S
C1386 H1370 0.931 . S
C1386 C1380 1.383 . S
C1386 C1385 1.379 . S
H1387 C1381 0.959 . S
H1388 C1381 0.961 . S
H1389 C1381 0.960 . S
H1390 C1382 0.930 . S
H1391 C1383 0.929 . S
H1392 C1400 0.929 . S
H1393 C1402 0.930 . S
H1394 C1404 0.930 . S
H1395 C1407 0.929 . S
H1396 C1410 0.930 . S
H1397 C1412 0.960 1_565 S
H1398 C1412 0.960 . S
H1399 C1412 0.973 1_556 S
C1400 H1392 0.929 . S
C1400 C1401 1.377 . S
C1400 C1402 1.384 . S
C1401 C1400 1.377 . S
C1401 C1407 1.390 . S
C1402 H1393 0.930 . S
C1402 C1400 1.384 . S
C1402 C1403 1.372 . S
C1403 C1402 1.372 . S
C1403 C1404 1.400 . S
C1403 C1408 1.490 . S
C1404 H1394 0.930 . S
C1404 C1403 1.400 . S
C1404 C1407 1.386 . S
H1405 C1421 0.930 . S
H1406 C1422 0.931 1_556 S
C1407 H1395 0.929 . S
C1407 C1401 1.390 . S
C1407 C1404 1.386 . S
C1408 C1403 1.490 . S
C1408 C1410 1.395 . S
C1408 C1411 1.393 1_545 S
H1409 C1415 0.930 . S
C1410 H1396 0.930 . S
C1410 C1408 1.395 . S
C1410 C1413 1.403 1_545 S
C1411 C1408 1.393 1_565 S
C1411 C1412 1.523 1_566 S
C1411 C1415 1.410 1_556 S
C1412 H1397 0.960 1_545 S
C1412 H1398 0.960 . S
C1412 H1399 0.973 1_554 S
C1412 C1411 1.523 1_544 S
C1413 C1410 1.403 1_565 S
C1413 C1414 1.392 . S
C1413 C1417 1.495 . S
C1414 C1413 1.392 . S
C1414 C1415 1.385 1_556 S
C1414 C1416 1.478 1_556 S
C1415 H1409 0.930 . S
C1415 C1411 1.410 1_554 S
C1415 C1414 1.385 1_554 S
C1416 C1414 1.478 1_554 S
C1416 C1418 1.381 . S
C1416 C1422 1.383 . S
C1417 C1413 1.495 . S
C1417 H1423 0.989 . S
C1417 H1424 0.961 . S
C1417 H1425 0.960 . S
C1418 C1416 1.381 . S
C1418 C1419 1.394 . S
C1418 H1426 0.930 . S
C1419 C1418 1.394 . S
C1419 C1420 1.383 . S
C1419 H1427 0.929 . S
C1420 C1419 1.383 . S
C1420 C1421 1.377 . S
C1421 H1405 0.930 . S
C1421 C1420 1.377 . S
C1421 C1422 1.379 . S
C1422 H1406 0.931 1_554 S
C1422 C1416 1.383 . S
C1422 C1421 1.379 . S
H1423 C1417 0.989 . S
H1424 C1417 0.961 . S
H1425 C1417 0.960 . S
H1426 C1418 0.930 . S
H1427 C1419 0.929 . S
H1428 C1436 0.929 . S
H1429 C1438 0.930 . S
H1430 C1440 0.930 . S
H1431 C1443 0.929 . S
H1432 C1446 0.930 . S
H1433 C1448 0.960 . S
H1434 C1448 0.960 . S
H1435 C1448 0.960 . S
C1436 H1428 0.929 . S
C1436 C1437 1.377 . S
C1436 C1438 1.384 . S
C1437 C1436 1.377 . S
C1437 C1443 1.390 . S
C1438 H1429 0.930 . S
C1438 C1436 1.384 . S
C1438 C1439 1.372 . S
C1439 C1438 1.372 . S
C1439 C1440 1.400 . S
C1439 C1444 1.490 . S
C1440 H1430 0.930 . S
C1440 C1439 1.400 . S
C1440 C1443 1.386 . S
H1441 C1457 0.930 . S
H1442 C1458 0.931 . S
C1443 H1431 0.929 . S
C1443 C1437 1.390 . S
C1443 C1440 1.386 . S
C1444 C1439 1.490 . S
C1444 C1446 1.395 . S
C1444 C1447 1.403 . S
H1445 C1451 0.930 . S
C1446 H1432 0.930 . S
C1446 C1444 1.395 . S
C1446 C1449 1.403 . S
C1447 C1444 1.403 . S
C1447 C1448 1.524 . S
C1447 C1451 1.400 . S
C1448 H1433 0.960 . S
C1448 H1434 0.960 . S
C1448 H1435 0.960 . S
C1448 C1447 1.524 . S
C1449 C1446 1.403 . S
C1449 C1450 1.392 . S
C1449 C1453 1.495 . S
C1450 C1449 1.392 . S
C1450 C1451 1.385 . S
C1450 C1452 1.478 . S
C1451 H1445 0.930 . S
C1451 C1447 1.400 . S
C1451 C1450 1.385 . S
C1452 C1450 1.478 . S
C1452 C1454 1.381 . S
C1452 C1458 1.383 . S
C1453 C1449 1.495 . S
C1453 H1459 0.959 . S
C1453 H1460 0.961 . S
C1453 H1461 0.960 . S
C1454 C1452 1.381 . S
C1454 C1455 1.394 . S
C1454 H1462 0.930 . S
C1455 C1454 1.394 . S
C1455 C1456 1.383 . S
C1455 H1463 0.929 . S
C1456 C1455 1.383 . S
C1456 C1457 1.377 . S
C1457 H1441 0.930 . S
C1457 C1456 1.377 . S
C1457 C1458 1.379 . S
C1458 H1442 0.931 . S
C1458 C1452 1.383 . S
C1458 C1457 1.379 . S
H1459 C1453 0.959 . S
H1460 C1453 0.961 . S
H1461 C1453 0.960 . S
H1462 C1454 0.930 . S
H1463 C1455 0.929 . S
H1464 C1472 0.929 1_565 S
H1465 C1474 0.930 . S
H1466 C1476 0.930 . S
H1467 C1479 0.929 . S
H1468 C1482 0.930 . S
H1469 C1484 0.960 . S
H1470 C1484 0.960 . S
H1471 C1484 0.960 . S
C1472 H1464 0.929 1_545 S
C1472 C1473 1.377 . S
C1472 C1474 1.384 . S
C1473 C1472 1.377 . S
C1473 C1479 1.390 . S
C1474 H1465 0.930 . S
C1474 C1472 1.384 . S
C1474 C1475 1.372 . S
C1475 C1474 1.372 . S
C1475 C1476 1.400 . S
C1475 C1480 1.490 . S
C1476 H1466 0.930 . S
C1476 C1475 1.400 . S
C1476 C1479 1.386 . S
H1477 C1493 0.930 . S
H1478 C1494 0.931 . S
C1479 H1467 0.929 . S
C1479 C1473 1.390 . S
C1479 C1476 1.386 . S
C1480 C1475 1.490 . S
C1480 C1482 1.395 . S
C1480 C1483 1.403 . S
H1481 C1487 0.930 . S
C1482 H1468 0.930 . S
C1482 C1480 1.395 . S
C1482 C1485 1.403 . S
C1483 C1480 1.403 . S
C1483 C1484 1.524 . S
C1483 C1487 1.400 . S
C1484 H1469 0.960 . S
C1484 H1470 0.960 . S
C1484 H1471 0.960 . S
C1484 C1483 1.524 . S
C1485 C1482 1.403 . S
C1485 C1486 1.392 . S
C1485 C1489 1.495 . S
C1486 C1485 1.392 . S
C1486 C1487 1.385 . S
C1486 C1488 1.478 . S
C1487 H1481 0.930 . S
C1487 C1483 1.400 . S
C1487 C1486 1.385 . S
C1488 C1486 1.478 . S
C1488 C1490 1.381 . S
C1488 C1494 1.383 . S
C1489 C1485 1.495 . S
C1489 H1495 0.959 . S
C1489 H1496 0.961 . S
C1489 H1497 0.960 . S
C1490 C1488 1.381 . S
C1490 C1491 1.394 . S
C1490 H1498 0.930 . S
C1491 C1490 1.394 . S
C1491 C1492 1.383 . S
C1491 H1499 0.929 . S
C1492 C1491 1.383 . S
C1492 C1493 1.377 . S
C1493 H1477 0.930 . S
C1493 C1492 1.377 . S
C1493 C1494 1.379 . S
C1494 H1478 0.931 . S
C1494 C1488 1.383 . S
C1494 C1493 1.379 . S
H1495 C1489 0.959 . S
H1496 C1489 0.961 . S
H1497 C1489 0.960 . S
H1498 C1490 0.930 . S
H1499 C1491 0.929 . S
H1500 C1508 0.929 . S
H1501 C1510 0.930 . S
H1502 C1512 0.930 . S
H1503 C1515 0.929 . S
H1504 C1518 0.930 . S
H1505 C1520 0.960 . S
H1506 C1520 0.960 . S
H1507 C1520 0.960 . S
C1508 H1500 0.929 . S
C1508 C1509 1.377 . S
C1508 C1510 1.384 . S
C1509 C1508 1.377 . S
C1509 C1515 1.390 . S
C1510 H1501 0.930 . S
C1510 C1508 1.384 . S
C1510 C1511 1.372 . S
C1511 C1510 1.372 . S
C1511 C1512 1.400 . S
C1511 C1516 1.490 . S
C1512 H1502 0.930 . S
C1512 C1511 1.400 . S
C1512 C1515 1.386 . S
H1513 C1529 0.930 . S
H1514 C1530 0.931 . S
C1515 H1503 0.929 . S
C1515 C1509 1.390 . S
C1515 C1512 1.386 . S
C1516 C1511 1.490 . S
C1516 C1518 1.395 . S
C1516 C1519 1.403 . S
H1517 C1523 0.930 . S
C1518 H1504 0.930 . S
C1518 C1516 1.395 . S
C1518 C1521 1.403 . S
C1519 C1516 1.403 . S
C1519 C1520 1.524 . S
C1519 C1523 1.400 . S
C1520 H1505 0.960 . S
C1520 H1506 0.960 . S
C1520 H1507 0.960 . S
C1520 C1519 1.524 . S
C1521 C1518 1.403 . S
C1521 C1522 1.392 . S
C1521 C1525 1.495 . S
C1522 C1521 1.392 . S
C1522 C1523 1.385 . S
C1522 C1524 1.478 . S
C1523 H1517 0.930 . S
C1523 C1519 1.400 . S
C1523 C1522 1.385 . S
C1524 C1522 1.478 . S
C1524 C1526 1.381 . S
C1524 C1530 1.383 . S
C1525 C1521 1.495 . S
C1525 H1531 0.959 . S
C1525 H1532 0.961 . S
C1525 H1533 0.960 . S
C1526 C1524 1.381 . S
C1526 C1527 1.394 . S
C1526 H1534 0.930 . S
C1527 C1526 1.394 . S
C1527 C1528 1.383 . S
C1527 H1535 0.929 . S
C1528 C1527 1.383 . S
C1528 C1529 1.377 . S
C1529 H1513 0.930 . S
C1529 C1528 1.377 . S
C1529 C1530 1.379 . S
C1530 H1514 0.931 . S
C1530 C1524 1.383 . S
C1530 C1529 1.379 . S
H1531 C1525 0.959 . S
H1532 C1525 0.961 . S
H1533 C1525 0.960 . S
H1534 C1526 0.930 . S
H1535 C1527 0.929 . S
H1536 C1544 0.929 . S
H1537 C1546 0.930 . S
H1538 C1548 0.930 . S
H1539 C1551 0.929 . S
H1540 C1554 0.930 . S
H1541 C1556 0.960 . S
H1542 C1556 0.960 . S
H1543 C1556 0.960 . S
C1544 H1536 0.929 . S
C1544 C1545 1.377 . S
C1544 C1546 1.384 . S
C1545 C1544 1.377 . S
C1545 C1551 1.390 . S
C1546 H1537 0.930 . S
C1546 C1544 1.384 . S
C1546 C1547 1.372 1_565 S
C1547 C1546 1.372 1_545 S
C1547 C1548 1.400 . S
C1547 C1552 1.490 . S
C1548 H1538 0.930 . S
C1548 C1547 1.400 . S
C1548 C1551 1.386 1_545 S
H1549 C1565 0.930 . S
H1550 C1566 0.931 . S
C1551 H1539 0.929 . S
C1551 C1545 1.390 . S
C1551 C1548 1.386 1_565 S
C1552 C1547 1.490 . S
C1552 C1554 1.395 . S
C1552 C1555 1.403 . S
H1553 C1559 0.930 . S
C1554 H1540 0.930 . S
C1554 C1552 1.395 . S
C1554 C1557 1.403 . S
C1555 C1552 1.403 . S
C1555 C1556 1.524 . S
C1555 C1559 1.400 . S
C1556 H1541 0.960 . S
C1556 H1542 0.960 . S
C1556 H1543 0.960 . S
C1556 C1555 1.524 . S
C1557 C1554 1.403 . S
C1557 C1558 1.392 . S
C1557 C1561 1.495 . S
C1558 C1557 1.392 . S
C1558 C1559 1.385 . S
C1558 C1560 1.478 . S
C1559 H1553 0.930 . S
C1559 C1555 1.400 . S
C1559 C1558 1.385 . S
C1560 C1558 1.478 . S
C1560 C1562 1.381 . S
C1560 C1566 1.383 . S
C1561 C1557 1.495 . S
C1561 H1567 0.959 . S
C1561 H1568 0.961 . S
C1561 H1569 0.960 . S
C1562 C1560 1.381 . S
C1562 C1563 1.394 . S
C1562 H1570 0.930 . S
C1563 C1562 1.394 . S
C1563 C1564 1.383 . S
C1563 H1571 0.929 . S
C1564 C1563 1.383 . S
C1564 C1565 1.377 . S
C1565 H1549 0.930 . S
C1565 C1564 1.377 . S
C1565 C1566 1.379 . S
C1566 H1550 0.931 . S
C1566 C1560 1.383 . S
C1566 C1565 1.379 . S
H1567 C1561 0.959 . S
H1568 C1561 0.961 . S
H1569 C1561 0.960 . S
H1570 C1562 0.930 . S
H1571 C1563 0.929 . S
H1572 C1580 0.929 . S
H1573 C1582 0.930 . S
H1574 C1584 0.930 . S
H1575 C1587 0.929 . S
H1576 C1590 0.930 . S
H1577 C1592 0.960 . S
H1578 C1592 0.960 . S
H1579 C1592 0.960 . S
C1580 H1572 0.929 . S
C1580 C1581 1.377 . S
C1580 C1582 1.384 . S
C1581 C1580 1.377 . S
C1581 C1587 1.390 . S
C1582 H1573 0.930 . S
C1582 C1580 1.384 . S
C1582 C1583 1.372 . S
C1583 C1582 1.372 . S
C1583 C1584 1.400 . S
C1583 C1588 1.490 . S
C1584 H1574 0.930 . S
C1584 C1583 1.400 . S
C1584 C1587 1.386 . S
H1585 C1601 0.930 . S
H1586 C1602 0.931 . S
C1587 H1575 0.929 . S
C1587 C1581 1.390 . S
C1587 C1584 1.386 . S
C1588 C1583 1.490 . S
C1588 C1590 1.395 . S
C1588 C1591 1.403 . S
H1589 C1595 0.930 . S
C1590 H1576 0.930 . S
C1590 C1588 1.395 . S
C1590 C1593 1.403 . S
C1591 C1588 1.403 . S
C1591 C1592 1.524 . S
C1591 C1595 1.400 . S
C1592 H1577 0.960 . S
C1592 H1578 0.960 . S
C1592 H1579 0.960 . S
C1592 C1591 1.524 . S
C1593 C1590 1.403 . S
C1593 C1594 1.392 . S
C1593 C1597 1.495 . S
C1594 C1593 1.392 . S
C1594 C1595 1.385 . S
C1594 C1596 1.478 . S
C1595 H1589 0.930 . S
C1595 C1591 1.400 . S
C1595 C1594 1.385 . S
C1596 C1594 1.478 . S
C1596 C1598 1.381 . S
C1596 C1602 1.383 . S
C1597 C1593 1.495 . S
C1597 H1603 0.959 . S
C1597 H1604 0.961 . S
C1597 H1605 0.960 . S
C1598 C1596 1.381 . S
C1598 C1599 1.394 . S
C1598 H1606 0.930 . S
C1599 C1598 1.394 . S
C1599 C1600 1.383 . S
C1599 H1607 0.929 . S
C1600 C1599 1.383 . S
C1600 C1601 1.377 . S
C1601 H1585 0.930 . S
C1601 C1600 1.377 . S
C1601 C1602 1.379 . S
C1602 H1586 0.931 . S
C1602 C1596 1.383 . S
C1602 C1601 1.379 . S
H1603 C1597 0.959 . S
H1604 C1597 0.961 . S
H1605 C1597 0.960 . S
H1606 C1598 0.930 . S
H1607 C1599 0.929 . S
H1608 C1616 0.929 . S
H1609 C1618 0.930 . S
H1610 C1620 0.930 . S
H1611 C1623 0.929 . S
H1612 C1626 0.930 . S
H1613 C1628 0.960 . S
H1614 C1628 0.960 . S
H1615 C1628 0.960 . S
C1616 H1608 0.929 . S
C1616 C1617 1.377 . S
C1616 C1618 1.384 . S
C1617 C1616 1.377 . S
C1617 C1623 1.390 . S
C1618 H1609 0.930 . S
C1618 C1616 1.384 . S
C1618 C1619 1.372 . S
C1619 C1618 1.372 . S
C1619 C1620 1.400 . S
C1619 C1624 1.490 . S
C1620 H1610 0.930 . S
C1620 C1619 1.400 . S
C1620 C1623 1.386 . S
H1621 C1637 0.930 . S
H1622 C1638 0.931 . S
C1623 H1611 0.929 . S
C1623 C1617 1.390 . S
C1623 C1620 1.386 . S
C1624 C1619 1.490 . S
C1624 C1626 1.395 . S
C1624 C1627 1.403 . S
H1625 C1631 0.930 . S
C1626 H1612 0.930 . S
C1626 C1624 1.395 . S
C1626 C1629 1.403 . S
C1627 C1624 1.403 . S
C1627 C1628 1.524 . S
C1627 C1631 1.400 . S
C1628 H1613 0.960 . S
C1628 H1614 0.960 . S
C1628 H1615 0.960 . S
C1628 C1627 1.524 . S
C1629 C1626 1.403 . S
C1629 C1630 1.392 . S
C1629 C1633 1.495 . S
C1630 C1629 1.392 . S
C1630 C1631 1.385 . S
C1630 C1632 1.478 . S
C1631 H1625 0.930 . S
C1631 C1627 1.400 . S
C1631 C1630 1.385 . S
C1632 C1630 1.478 . S
C1632 C1634 1.381 . S
C1632 C1638 1.383 . S
C1633 C1629 1.495 . S
C1633 H1639 0.959 . S
C1633 H1640 0.961 . S
C1633 H1641 0.960 . S
C1634 C1632 1.381 . S
C1634 C1635 1.394 . S
C1634 H1642 0.930 . S
C1635 C1634 1.394 . S
C1635 C1636 1.383 . S
C1635 H1643 0.929 . S
C1636 C1635 1.383 . S
C1636 C1637 1.377 . S
C1637 H1621 0.930 . S
C1637 C1636 1.377 . S
C1637 C1638 1.379 . S
C1638 H1622 0.931 . S
C1638 C1632 1.383 . S
C1638 C1637 1.379 . S
H1639 C1633 0.959 . S
H1640 C1633 0.961 . S
H1641 C1633 0.960 . S
H1642 C1634 0.930 . S
H1643 C1635 0.929 . S
H1644 C1652 0.929 . S
H1645 C1654 0.930 . S
H1646 C1656 0.930 . S
H1647 C1659 0.929 . S
H1648 C1662 0.930 . S
H1649 C1664 0.960 . S
H1650 C1664 0.960 . S
H1651 C1664 0.960 . S
C1652 H1644 0.929 . S
C1652 C1653 1.377 . S
C1652 C1654 1.384 . S
C1653 C1652 1.377 . S
C1653 C1659 1.390 . S
C1654 H1645 0.930 . S
C1654 C1652 1.384 . S
C1654 C1655 1.372 . S
C1655 C1654 1.372 . S
C1655 C1656 1.400 . S
C1655 C1660 1.490 . S
C1656 H1646 0.930 . S
C1656 C1655 1.400 . S
C1656 C1659 1.386 . S
H1657 C1673 0.930 . S
H1658 C1674 0.931 . S
C1659 H1647 0.929 . S
C1659 C1653 1.390 . S
C1659 C1656 1.386 . S
C1660 C1655 1.490 . S
C1660 C1662 1.395 . S
C1660 C1663 1.403 . S
H1661 C1667 0.930 . S
C1662 H1648 0.930 . S
C1662 C1660 1.395 . S
C1662 C1665 1.403 . S
C1663 C1660 1.403 . S
C1663 C1664 1.524 . S
C1663 C1667 1.400 . S
C1664 H1649 0.960 . S
C1664 H1650 0.960 . S
C1664 H1651 0.960 . S
C1664 C1663 1.524 . S
C1665 C1662 1.403 . S
C1665 C1666 1.392 . S
C1665 C1669 1.495 . S
C1666 C1665 1.392 . S
C1666 C1667 1.385 . S
C1666 C1668 1.478 . S
C1667 H1661 0.930 . S
C1667 C1663 1.400 . S
C1667 C1666 1.385 . S
C1668 C1666 1.478 . S
C1668 C1670 1.381 . S
C1668 C1674 1.383 . S
C1669 C1665 1.495 . S
C1669 H1675 0.959 . S
C1669 H1676 0.961 . S
C1669 H1677 0.960 . S
C1670 C1668 1.381 . S
C1670 C1671 1.394 . S
C1670 H1678 0.930 . S
C1671 C1670 1.394 . S
C1671 C1672 1.383 . S
C1671 H1679 0.929 . S
C1672 C1671 1.383 . S
C1672 C1673 1.377 . S
C1673 H1657 0.930 . S
C1673 C1672 1.377 . S
C1673 C1674 1.379 . S
C1674 H1658 0.931 . S
C1674 C1668 1.383 . S
C1674 C1673 1.379 . S
H1675 C1669 0.959 . S
H1676 C1669 0.961 . S
H1677 C1669 0.960 . S
H1678 C1670 0.930 . S
H1679 C1671 0.929 . S
H1680 C1688 0.929 . S
H1681 C1690 0.930 . S
H1682 C1692 0.930 . S
H1683 C1695 0.929 . S
H1684 C1698 0.930 . S
H1685 C1700 0.960 . S
H1686 C1700 0.960 . S
H1687 C1700 0.960 . S
C1688 H1680 0.929 . S
C1688 C1689 1.377 . S
C1688 C1690 1.384 . S
C1689 C1688 1.377 . S
C1689 C1695 1.390 . S
C1690 H1681 0.930 . S
C1690 C1688 1.384 . S
C1690 C1691 1.372 . S
C1691 C1690 1.372 . S
C1691 C1692 1.400 . S
C1691 C1696 1.490 . S
C1692 H1682 0.930 . S
C1692 C1691 1.400 . S
C1692 C1695 1.386 . S
H1693 C1709 0.930 . S
H1694 C1710 0.931 . S
C1695 H1683 0.929 . S
C1695 C1689 1.390 . S
C1695 C1692 1.386 . S
C1696 C1691 1.490 . S
C1696 C1698 1.395 . S
C1696 C1699 1.403 . S
H1697 C1703 0.930 . S
C1698 H1684 0.930 . S
C1698 C1696 1.395 . S
C1698 C1701 1.403 . S
C1699 C1696 1.403 . S
C1699 C1700 1.524 . S
C1699 C1703 1.400 . S
C1700 H1685 0.960 . S
C1700 H1686 0.960 . S
C1700 H1687 0.960 . S
C1700 C1699 1.524 . S
C1701 C1698 1.403 . S
C1701 C1702 1.392 . S
C1701 C1705 1.495 . S
C1702 C1701 1.392 . S
C1702 C1703 1.385 . S
C1702 C1704 1.478 . S
C1703 H1697 0.930 . S
C1703 C1699 1.400 . S
C1703 C1702 1.385 . S
C1704 C1702 1.478 . S
C1704 C1706 1.381 . S
C1704 C1710 1.383 . S
C1705 C1701 1.495 . S
C1705 H1711 0.959 . S
C1705 H1712 0.961 . S
C1705 H1713 0.960 . S
C1706 C1704 1.381 . S
C1706 C1707 1.394 . S
C1706 H1714 0.930 . S
C1707 C1706 1.394 . S
C1707 C1708 1.383 . S
C1707 H1715 0.929 . S
C1708 C1707 1.383 . S
C1708 C1709 1.377 . S
C1709 H1693 0.930 . S
C1709 C1708 1.377 . S
C1709 C1710 1.379 . S
C1710 H1694 0.931 . S
C1710 C1704 1.383 . S
C1710 C1709 1.379 . S
H1711 C1705 0.959 . S
H1712 C1705 0.961 . S
H1713 C1705 0.960 . S
H1714 C1706 0.930 . S
H1715 C1707 0.929 . S
H1716 C1724 0.929 . S
H1717 C1726 0.930 . S
H1718 C1728 0.930 . S
H1719 C1731 0.929 . S
H1720 C1734 0.930 . S
H1721 C1736 0.960 . S
H1722 C1736 0.960 . S
H1723 C1736 0.960 . S
C1724 H1716 0.929 . S
C1724 C1725 1.377 . S
C1724 C1726 1.384 . S
C1725 C1724 1.377 . S
C1725 C1731 1.390 . S
C1726 H1717 0.930 . S
C1726 C1724 1.384 . S
C1726 C1727 1.372 . S
C1727 C1726 1.372 . S
C1727 C1728 1.400 . S
C1727 C1732 1.490 . S
C1728 H1718 0.930 . S
C1728 C1727 1.400 . S
C1728 C1731 1.386 . S
H1729 C1745 0.930 . S
H1730 C1746 0.931 . S
C1731 H1719 0.929 . S
C1731 C1725 1.390 . S
C1731 C1728 1.386 . S
C1732 C1727 1.490 . S
C1732 C1734 1.395 . S
C1732 C1735 1.403 . S
H1733 C1739 0.930 . S
C1734 H1720 0.930 . S
C1734 C1732 1.395 . S
C1734 C1737 1.403 . S
C1735 C1732 1.403 . S
C1735 C1736 1.524 . S
C1735 C1739 1.400 . S
C1736 H1721 0.960 . S
C1736 H1722 0.960 . S
C1736 H1723 0.960 . S
C1736 C1735 1.524 . S
C1737 C1734 1.403 . S
C1737 C1738 1.392 . S
C1737 C1741 1.495 . S
C1738 C1737 1.392 . S
C1738 C1739 1.385 . S
C1738 C1740 1.478 . S
C1739 H1733 0.930 . S
C1739 C1735 1.400 . S
C1739 C1738 1.385 . S
C1740 C1738 1.478 . S
C1740 C1742 1.381 . S
C1740 C1746 1.383 . S
C1741 C1737 1.495 . S
C1741 H1747 0.959 . S
C1741 H1748 0.961 . S
C1741 H1749 0.960 . S
C1742 C1740 1.381 . S
C1742 C1743 1.394 . S
C1742 H1750 0.930 . S
C1743 C1742 1.394 . S
C1743 C1744 1.383 . S
C1743 H1751 0.929 . S
C1744 C1743 1.383 . S
C1744 C1745 1.377 . S
C1745 H1729 0.930 . S
C1745 C1744 1.377 . S
C1745 C1746 1.379 . S
C1746 H1730 0.931 . S
C1746 C1740 1.383 . S
C1746 C1745 1.379 . S
H1747 C1741 0.959 . S
H1748 C1741 0.961 . S
H1749 C1741 0.960 . S
H1750 C1742 0.930 . S
H1751 C1743 0.929 . S
H1752 C1760 0.929 . S
H1753 C1762 0.930 . S
H1754 C1764 0.930 . S
H1755 C1767 0.929 . S
H1756 C1770 0.930 . S
H1757 C1772 0.960 . S
H1758 C1772 0.960 . S
H1759 C1772 0.960 . S
C1760 H1752 0.929 . S
C1760 C1761 1.377 . S
C1760 C1762 1.384 . S
C1761 C1760 1.377 . S
C1761 C1767 1.390 . S
C1762 H1753 0.930 . S
C1762 C1760 1.384 . S
C1762 C1763 1.372 . S
C1763 C1762 1.372 . S
C1763 C1764 1.400 . S
C1763 C1768 1.490 . S
C1764 H1754 0.930 . S
C1764 C1763 1.400 . S
C1764 C1767 1.386 . S
H1765 C1781 0.930 . S
H1766 C1782 0.931 . S
C1767 H1755 0.929 . S
C1767 C1761 1.390 . S
C1767 C1764 1.386 . S
C1768 C1763 1.490 . S
C1768 C1770 1.395 . S
C1768 C1771 1.403 . S
H1769 C1775 0.930 . S
C1770 H1756 0.930 . S
C1770 C1768 1.395 . S
C1770 C1773 1.403 . S
C1771 C1768 1.403 . S
C1771 C1772 1.524 . S
C1771 C1775 1.400 . S
C1772 H1757 0.960 . S
C1772 H1758 0.960 . S
C1772 H1759 0.960 . S
C1772 C1771 1.524 . S
C1773 C1770 1.403 . S
C1773 C1774 1.392 . S
C1773 C1777 1.495 . S
C1774 C1773 1.392 . S
C1774 C1775 1.385 . S
C1774 C1776 1.478 . S
C1775 H1769 0.930 . S
C1775 C1771 1.400 . S
C1775 C1774 1.385 . S
C1776 C1774 1.478 . S
C1776 C1778 1.381 . S
C1776 C1782 1.383 . S
C1777 C1773 1.495 . S
C1777 H1783 0.959 . S
C1777 H1784 0.961 . S
C1777 H1785 0.960 . S
C1778 C1776 1.381 . S
C1778 C1779 1.394 . S
C1778 H1786 0.930 . S
C1779 C1778 1.394 . S
C1779 C1780 1.383 . S
C1779 H1787 0.929 . S
C1780 C1779 1.383 . S
C1780 C1781 1.377 . S
C1781 H1765 0.930 . S
C1781 C1780 1.377 . S
C1781 C1782 1.379 . S
C1782 H1766 0.931 . S
C1782 C1776 1.383 . S
C1782 C1781 1.379 . S
H1783 C1777 0.959 . S
H1784 C1777 0.961 . S
H1785 C1777 0.960 . S
H1786 C1778 0.930 . S
H1787 C1779 0.929 . S
H1788 C1796 0.929 . S
H1789 C1798 0.930 . S
H1790 C1800 0.930 . S
H1791 C1803 0.929 . S
H1792 C1806 0.930 . S
H1793 C1808 0.960 . S
H1794 C1808 0.960 . S
H1795 C1808 0.960 . S
C1796 H1788 0.929 . S
C1796 C1797 1.377 . S
C1796 C1798 1.384 . S
C1797 C1796 1.377 . S
C1797 C1803 1.390 . S
C1798 H1789 0.930 . S
C1798 C1796 1.384 . S
C1798 C1799 1.372 . S
C1799 C1798 1.372 . S
C1799 C1800 1.400 . S
C1799 C1804 1.490 . S
C1800 H1790 0.930 . S
C1800 C1799 1.400 . S
C1800 C1803 1.386 . S
H1801 C1817 0.930 . S
H1802 C1818 0.931 . S
C1803 H1791 0.929 . S
C1803 C1797 1.390 . S
C1803 C1800 1.386 . S
C1804 C1799 1.490 . S
C1804 C1806 1.395 1_455 S
C1804 C1807 1.403 1_455 S
H1805 C1811 0.930 . S
C1806 H1792 0.930 . S
C1806 C1804 1.395 1_655 S
C1806 C1809 1.403 . S
C1807 C1804 1.403 1_655 S
C1807 C1808 1.528 1_655 S
C1807 C1811 1.395 . S
C1808 H1793 0.960 . S
C1808 H1794 0.960 . S
C1808 H1795 0.960 . S
C1808 C1807 1.528 1_455 S
C1809 C1806 1.403 . S
C1809 C1810 1.392 . S
C1809 C1813 1.495 . S
C1810 C1809 1.392 . S
C1810 C1811 1.385 . S
C1810 C1812 1.478 . S
C1811 H1805 0.930 . S
C1811 C1807 1.395 . S
C1811 C1810 1.385 . S
C1812 C1810 1.478 . S
C1812 C1814 1.381 . S
C1812 C1818 1.383 . S
C1813 C1809 1.495 . S
C1813 H1819 0.959 . S
C1813 H1820 0.961 . S
C1813 H1821 0.960 . S
C1814 C1812 1.381 . S
C1814 C1815 1.394 . S
C1814 H1822 0.930 . S
C1815 C1814 1.394 . S
C1815 C1816 1.383 . S
C1815 H1823 0.929 . S
C1816 C1815 1.383 . S
C1816 C1817 1.377 . S
C1817 H1801 0.930 . S
C1817 C1816 1.377 . S
C1817 C1818 1.379 . S
C1818 H1802 0.931 . S
C1818 C1812 1.383 . S
C1818 C1817 1.379 . S
H1819 C1813 0.959 . S
H1820 C1813 0.961 . S
H1821 C1813 0.960 . S
H1822 C1814 0.930 . S
H1823 C1815 0.929 . S
H1824 C1832 0.929 . S
H1825 C1834 0.930 . S
H1826 C1836 0.930 . S
H1827 C1839 0.929 . S
H1828 C1842 0.930 . S
H1829 C1844 0.960 . S
H1830 C1844 0.960 . S
H1831 C1844 0.960 . S
C1832 H1824 0.929 . S
C1832 C1833 1.377 . S
C1832 C1834 1.384 . S
C1833 C1832 1.377 . S
C1833 C1839 1.390 . S
C1834 H1825 0.930 . S
C1834 C1832 1.384 . S
C1834 C1835 1.372 . S
C1835 C1834 1.372 . S
C1835 C1836 1.400 . S
C1835 C1840 1.490 . S
C1836 H1826 0.930 . S
C1836 C1835 1.400 . S
C1836 C1839 1.386 . S
H1837 C1853 0.930 . S
H1838 C1854 0.931 . S
C1839 H1827 0.929 . S
C1839 C1833 1.390 . S
C1839 C1836 1.386 . S
C1840 C1835 1.490 . S
C1840 C1842 1.395 . S
C1840 C1843 1.403 . S
H1841 C1847 0.930 . S
C1842 H1828 0.930 . S
C1842 C1840 1.395 . S
C1842 C1845 1.403 . S
C1843 C1840 1.403 . S
C1843 C1844 1.524 . S
C1843 C1847 1.400 . S
C1844 H1829 0.960 . S
C1844 H1830 0.960 . S
C1844 H1831 0.960 . S
C1844 C1843 1.524 . S
C1845 C1842 1.403 . S
C1845 C1846 1.392 . S
C1845 C1849 1.495 . S
C1846 C1845 1.392 . S
C1846 C1847 1.385 . S
C1846 C1848 1.478 . S
C1847 H1841 0.930 . S
C1847 C1843 1.400 . S
C1847 C1846 1.385 . S
C1848 C1846 1.478 . S
C1848 C1850 1.381 . S
C1848 C1854 1.383 . S
C1849 C1845 1.495 . S
C1849 H1855 0.959 . S
C1849 H1856 0.961 . S
C1849 H1857 0.960 . S
C1850 C1848 1.381 . S
C1850 C1851 1.394 . S
C1850 H1858 0.930 . S
C1851 C1850 1.394 . S
C1851 C1852 1.383 . S
C1851 H1859 0.929 . S
C1852 C1851 1.383 . S
C1852 C1853 1.377 . S
C1853 H1837 0.930 . S
C1853 C1852 1.377 . S
C1853 C1854 1.379 . S
C1854 H1838 0.931 . S
C1854 C1848 1.383 . S
C1854 C1853 1.379 . S
H1855 C1849 0.959 . S
H1856 C1849 0.961 . S
H1857 C1849 0.960 . S
H1858 C1850 0.930 . S
H1859 C1851 0.929 . S
H1860 C1868 0.929 . S
H1861 C1870 0.930 . S
H1862 C1872 0.930 . S
H1863 C1875 0.929 . S
H1864 C1878 0.930 . S
H1865 C1880 0.960 . S
H1866 C1880 0.960 . S
H1867 C1880 0.960 . S
C1868 H1860 0.929 . S
C1868 C1869 1.377 . S
C1868 C1870 1.384 . S
C1869 C1868 1.377 . S
C1869 C1875 1.390 . S
C1870 H1861 0.930 . S
C1870 C1868 1.384 . S
C1870 C1871 1.372 . S
C1871 C1870 1.372 . S
C1871 C1872 1.400 . S
C1871 C1876 1.490 . S
C1872 H1862 0.930 . S
C1872 C1871 1.400 . S
C1872 C1875 1.386 . S
H1873 C1889 0.930 . S
H1874 C1890 0.931 . S
C1875 H1863 0.929 . S
C1875 C1869 1.390 . S
C1875 C1872 1.386 . S
C1876 C1871 1.490 . S
C1876 C1878 1.395 . S
C1876 C1879 1.403 1_655 S
H1877 C1883 0.930 . S
C1878 H1864 0.930 . S
C1878 C1876 1.395 . S
C1878 C1881 1.403 1_655 S
C1879 C1876 1.403 1_455 S
C1879 C1880 1.524 . S
C1879 C1883 1.400 . S
C1880 H1865 0.960 . S
C1880 H1866 0.960 . S
C1880 H1867 0.960 . S
C1880 C1879 1.524 . S
C1881 C1878 1.403 1_455 S
C1881 C1882 1.392 . S
C1881 C1885 1.495 . S
C1882 C1881 1.392 . S
C1882 C1883 1.385 . S
C1882 C1884 1.478 . S
C1883 H1877 0.930 . S
C1883 C1879 1.400 . S
C1883 C1882 1.385 . S
C1884 C1882 1.478 . S
C1884 C1886 1.381 . S
C1884 C1890 1.383 . S
C1885 C1881 1.495 . S
C1885 H1891 0.959 1_455 S
C1885 H1892 0.961 . S
C1885 H1893 0.960 . S
C1886 C1884 1.381 . S
C1886 C1887 1.394 . S
C1886 H1894 0.930 . S
C1887 C1886 1.394 . S
C1887 C1888 1.383 . S
C1887 H1895 0.929 . S
C1888 C1887 1.383 . S
C1888 C1889 1.377 . S
C1889 H1873 0.930 . S
C1889 C1888 1.377 . S
C1889 C1890 1.379 . S
C1890 H1874 0.931 . S
C1890 C1884 1.383 . S
C1890 C1889 1.379 . S
H1891 C1885 0.959 1_655 S
H1892 C1885 0.961 . S
H1893 C1885 0.960 . S
H1894 C1886 0.930 . S
H1895 C1887 0.929 . S
H1896 C1904 0.929 . S
H1897 C1906 0.930 . S
H1898 C1908 0.930 . S
H1899 C1911 0.929 . S
H1900 C1914 0.930 . S
H1901 C1916 0.960 . S
H1902 C1916 0.960 . S
H1903 C1916 0.960 . S
C1904 H1896 0.929 . S
C1904 C1905 1.377 . S
C1904 C1906 1.384 . S
C1905 C1904 1.377 . S
C1905 C1911 1.390 . S
C1906 H1897 0.930 . S
C1906 C1904 1.384 . S
C1906 C1907 1.372 . S
C1907 C1906 1.372 . S
C1907 C1908 1.400 . S
C1907 C1912 1.490 . S
C1908 H1898 0.930 . S
C1908 C1907 1.400 . S
C1908 C1911 1.386 . S
H1909 C1925 0.930 . S
H1910 C1926 0.931 . S
C1911 H1899 0.929 . S
C1911 C1905 1.390 . S
C1911 C1908 1.386 . S
C1912 C1907 1.490 . S
C1912 C1914 1.395 . S
C1912 C1915 1.403 . S
H1913 C1919 0.930 . S
C1914 H1900 0.930 . S
C1914 C1912 1.395 . S
C1914 C1917 1.403 . S
C1915 C1912 1.403 . S
C1915 C1916 1.524 . S
C1915 C1919 1.400 . S
C1916 H1901 0.960 . S
C1916 H1902 0.960 . S
C1916 H1903 0.960 . S
C1916 C1915 1.524 . S
C1917 C1914 1.403 . S
C1917 C1918 1.392 . S
C1917 C1921 1.495 . S
C1918 C1917 1.392 . S
C1918 C1919 1.385 . S
C1918 C1920 1.478 . S
C1919 H1913 0.930 . S
C1919 C1915 1.400 . S
C1919 C1918 1.385 . S
C1920 C1918 1.478 . S
C1920 C1922 1.381 . S
C1920 C1926 1.383 . S
C1921 C1917 1.495 . S
C1921 H1927 0.959 . S
C1921 H1928 0.961 . S
C1921 H1929 0.960 . S
C1922 C1920 1.381 . S
C1922 C1923 1.394 . S
C1922 H1930 0.930 . S
C1923 C1922 1.394 . S
C1923 C1924 1.383 . S
C1923 H1931 0.929 . S
C1924 C1923 1.383 . S
C1924 C1925 1.377 . S
C1925 H1909 0.930 . S
C1925 C1924 1.377 . S
C1925 C1926 1.379 . S
C1926 H1910 0.931 . S
C1926 C1920 1.383 . S
C1926 C1925 1.379 . S
H1927 C1921 0.959 . S
H1928 C1921 0.961 . S
H1929 C1921 0.960 . S
H1930 C1922 0.930 . S
H1931 C1923 0.929 . S
H1932 C1940 0.929 . S
H1933 C1942 0.930 . S
H1934 C1944 0.930 . S
H1935 C1947 0.929 . S
H1936 C1950 0.930 1_554 S
H1937 C1952 0.960 . S
H1938 C1952 0.960 . S
H1939 C1952 0.960 . S
C1940 H1932 0.929 . S
C1940 C1941 1.377 . S
C1940 C1942 1.384 . S
C1941 C1940 1.377 . S
C1941 C1947 1.390 . S
C1942 H1933 0.930 . S
C1942 C1940 1.384 . S
C1942 C1943 1.372 . S
C1943 C1942 1.372 . S
C1943 C1944 1.400 . S
C1943 C1948 1.490 1_554 S
C1944 H1934 0.930 . S
C1944 C1943 1.400 . S
C1944 C1947 1.386 . S
H1945 C1961 0.930 . S
H1946 C1962 0.931 . S
C1947 H1935 0.929 . S
C1947 C1941 1.390 . S
C1947 C1944 1.386 . S
C1948 C1943 1.490 1_556 S
C1948 C1950 1.395 . S
C1948 C1951 1.403 . S
H1949 C1955 0.930 . S
C1950 H1936 0.930 1_556 S
C1950 C1948 1.395 . S
C1950 C1953 1.403 . S
C1951 C1948 1.403 . S
C1951 C1952 1.524 . S
C1951 C1955 1.400 . S
C1952 H1937 0.960 . S
C1952 H1938 0.960 . S
C1952 H1939 0.960 . S
C1952 C1951 1.524 . S
C1953 C1950 1.403 . S
C1953 C1954 1.392 . S
C1953 C1957 1.495 . S
C1954 C1953 1.392 . S
C1954 C1955 1.385 . S
C1954 C1956 1.478 . S
C1955 H1949 0.930 . S
C1955 C1951 1.400 . S
C1955 C1954 1.385 . S
C1956 C1954 1.478 . S
C1956 C1958 1.381 . S
C1956 C1962 1.383 . S
C1957 C1953 1.495 . S
C1957 H1963 0.991 . S
C1957 H1964 0.961 . S
C1957 H1965 0.960 . S
C1958 C1956 1.381 . S
C1958 C1959 1.394 . S
C1958 H1966 0.930 . S
C1959 C1958 1.394 . S
C1959 C1960 1.383 . S
C1959 H1967 0.921 1_655 S
C1960 C1959 1.383 . S
C1960 C1961 1.377 . S
C1961 H1945 0.930 . S
C1961 C1960 1.377 . S
C1961 C1962 1.379 . S
C1962 H1946 0.931 . S
C1962 C1956 1.383 . S
C1962 C1961 1.379 . S
H1963 C1957 0.991 . S
H1964 C1957 0.961 . S
H1965 C1957 0.960 . S
H1966 C1958 0.930 . S
H1967 C1959 0.921 1_455 S
H1968 C1976 0.929 . S
H1969 C1978 0.930 . S
H1970 C1980 0.930 . S
H1971 C1983 0.929 . S
H1972 C1986 0.930 . S
H1973 C1988 0.960 . S
H1974 C1988 0.960 . S
H1975 C1988 0.960 . S
C1976 H1968 0.929 . S
C1976 C1977 1.377 . S
C1976 C1978 1.384 . S
C1977 C1976 1.377 . S
C1977 C1983 1.390 . S
C1978 H1969 0.930 . S
C1978 C1976 1.384 . S
C1978 C1979 1.372 . S
C1979 C1978 1.372 . S
C1979 C1980 1.400 . S
C1979 C1984 1.490 . S
C1980 H1970 0.930 . S
C1980 C1979 1.400 . S
C1980 C1983 1.386 . S
H1981 C1997 0.930 . S
H1982 C1998 0.931 . S
C1983 H1971 0.929 . S
C1983 C1977 1.390 . S
C1983 C1980 1.386 . S
C1984 C1979 1.490 . S
C1984 C1986 1.395 . S
C1984 C1987 1.403 . S
H1985 C1991 0.930 . S
C1986 H1972 0.930 . S
C1986 C1984 1.395 . S
C1986 C1989 1.403 . S
C1987 C1984 1.403 . S
C1987 C1988 1.524 . S
C1987 C1991 1.400 . S
C1988 H1973 0.960 . S
C1988 H1974 0.960 . S
C1988 H1975 0.960 . S
C1988 C1987 1.524 . S
C1989 C1986 1.403 . S
C1989 C1990 1.392 . S
C1989 C1993 1.495 . S
C1990 C1989 1.392 . S
C1990 C1991 1.385 . S
C1990 C1992 1.478 . S
C1991 H1985 0.930 . S
C1991 C1987 1.400 . S
C1991 C1990 1.385 . S
C1992 C1990 1.478 . S
C1992 C1994 1.381 . S
C1992 C1998 1.383 . S
C1993 C1989 1.495 . S
C1993 H1999 0.959 . S
C1993 H2000 0.961 . S
C1993 H2001 0.960 . S
C1994 C1992 1.381 . S
C1994 C1995 1.394 . S
C1994 H2002 0.930 . S
C1995 C1994 1.394 . S
C1995 C1996 1.383 . S
C1995 H2003 0.929 . S
C1996 C1995 1.383 . S
C1996 C1997 1.377 . S
C1997 H1981 0.930 . S
C1997 C1996 1.377 . S
C1997 C1998 1.379 . S
C1998 H1982 0.931 . S
C1998 C1992 1.383 . S
C1998 C1997 1.379 . S
H1999 C1993 0.959 . S
H2000 C1993 0.961 . S
H2001 C1993 0.960 . S
H2002 C1994 0.930 . S
H2003 C1995 0.929 . S
H2004 C2012 0.929 . S
H2005 C2014 0.930 . S
H2006 C2016 0.930 . S
H2007 C2019 0.929 . S
H2008 C2022 0.930 . S
H2009 C2024 0.960 1_556 S
H2010 C2024 0.960 . S
H2011 C2024 0.960 . S
C2012 H2004 0.929 . S
C2012 C2013 1.377 . S
C2012 C2014 1.384 . S
C2013 C2012 1.377 . S
C2013 C2019 1.390 . S
C2014 H2005 0.930 . S
C2014 C2012 1.384 . S
C2014 C2015 1.372 . S
C2015 C2014 1.372 . S
C2015 C2016 1.400 . S
C2015 C2020 1.490 . S
C2016 H2006 0.930 . S
C2016 C2015 1.400 . S
C2016 C2019 1.386 . S
H2017 C2033 0.930 . S
H2018 C2034 0.931 . S
C2019 H2007 0.929 . S
C2019 C2013 1.390 . S
C2019 C2016 1.386 . S
C2020 C2015 1.490 . S
C2020 C2022 1.395 . S
C2020 C2023 1.403 . S
H2021 C2027 0.930 . S
C2022 H2008 0.930 . S
C2022 C2020 1.395 . S
C2022 C2025 1.403 1_554 S
C2023 C2020 1.403 . S
C2023 C2024 1.524 . S
C2023 C2027 1.400 1_554 S
C2024 H2009 0.960 1_554 S
C2024 H2010 0.960 . S
C2024 H2011 0.960 . S
C2024 C2023 1.524 . S
C2025 C2022 1.403 1_556 S
C2025 C2026 1.392 . S
C2025 C2029 1.495 . S
C2026 C2025 1.392 . S
C2026 C2027 1.385 . S
C2026 C2028 1.478 . S
C2027 H2021 0.930 . S
C2027 C2023 1.400 1_556 S
C2027 C2026 1.385 . S
C2028 C2026 1.478 . S
C2028 C2030 1.381 . S
C2028 C2034 1.383 . S
C2029 C2025 1.495 . S
C2029 H2035 0.959 1_556 S
C2029 H2036 0.961 . S
C2029 H2037 0.960 . S
C2030 C2028 1.381 . S
C2030 C2031 1.394 . S
C2030 H2038 0.930 . S
C2031 C2030 1.394 . S
C2031 C2032 1.383 . S
C2031 H2039 0.929 . S
C2032 C2031 1.383 . S
C2032 C2033 1.377 . S
C2033 H2017 0.930 . S
C2033 C2032 1.377 . S
C2033 C2034 1.379 . S
C2034 H2018 0.931 . S
C2034 C2028 1.383 . S
C2034 C2033 1.379 . S
H2035 C2029 0.959 1_554 S
H2036 C2029 0.961 . S
H2037 C2029 0.960 . S
H2038 C2030 0.930 . S
H2039 C2031 0.929 . S
H2040 C2048 0.929 . S
H2041 C2050 0.930 . S
H2042 C2052 0.930 . S
H2043 C2055 0.929 . S
H2044 C2058 0.930 . S
H2045 C2060 0.960 . S
H2046 C2060 0.960 . S
H2047 C2060 0.960 . S
C2048 H2040 0.929 . S
C2048 C2049 1.377 . S
C2048 C2050 1.384 . S
C2049 C2048 1.377 . S
C2049 C2055 1.390 . S
C2050 H2041 0.930 . S
C2050 C2048 1.384 . S
C2050 C2051 1.372 . S
C2051 C2050 1.372 . S
C2051 C2052 1.400 . S
C2051 C2056 1.490 . S
C2052 H2042 0.930 . S
C2052 C2051 1.400 . S
C2052 C2055 1.386 . S
H2053 C2069 0.930 . S
H2054 C2070 0.931 . S
C2055 H2043 0.929 . S
C2055 C2049 1.390 . S
C2055 C2052 1.386 . S
C2056 C2051 1.490 . S
C2056 C2058 1.395 . S
C2056 C2059 1.403 . S
H2057 C2063 0.930 . S
C2058 H2044 0.930 . S
C2058 C2056 1.395 . S
C2058 C2061 1.403 . S
C2059 C2056 1.403 . S
C2059 C2060 1.524 . S
C2059 C2063 1.400 . S
C2060 H2045 0.960 . S
C2060 H2046 0.960 . S
C2060 H2047 0.960 . S
C2060 C2059 1.524 . S
C2061 C2058 1.403 . S
C2061 C2062 1.392 . S
C2061 C2065 1.495 . S
C2062 C2061 1.392 . S
C2062 C2063 1.385 . S
C2062 C2064 1.478 . S
C2063 H2057 0.930 . S
C2063 C2059 1.400 . S
C2063 C2062 1.385 . S
C2064 C2062 1.478 . S
C2064 C2066 1.381 . S
C2064 C2070 1.383 . S
C2065 C2061 1.495 . S
C2065 H2071 0.959 . S
C2065 H2072 0.961 . S
C2065 H2073 0.960 . S
C2066 C2064 1.381 . S
C2066 C2067 1.394 . S
C2066 H2074 0.930 . S
C2067 C2066 1.394 . S
C2067 C2068 1.383 . S
C2067 H2075 0.929 . S
C2068 C2067 1.383 . S
C2068 C2069 1.377 . S
C2069 H2053 0.930 . S
C2069 C2068 1.377 . S
C2069 C2070 1.379 . S
C2070 H2054 0.931 . S
C2070 C2064 1.383 . S
C2070 C2069 1.379 . S
H2071 C2065 0.959 . S
H2072 C2065 0.961 . S
H2073 C2065 0.960 . S
H2074 C2066 0.930 . S
H2075 C2067 0.929 . S
H2076 C2084 0.929 . S
H2077 C2086 0.930 . S
H2078 C2088 0.930 . S
H2079 C2091 0.929 . S
H2080 C2094 0.930 . S
H2081 C2096 0.960 . S
H2082 C2096 0.960 . S
H2083 C2096 0.960 . S
C2084 H2076 0.929 . S
C2084 C2085 1.377 . S
C2084 C2086 1.384 . S
C2085 C2084 1.377 . S
C2085 C2091 1.390 . S
C2086 H2077 0.930 . S
C2086 C2084 1.384 . S
C2086 C2087 1.372 . S
C2087 C2086 1.372 . S
C2087 C2088 1.400 . S
C2087 C2092 1.490 1_556 S
C2088 H2078 0.930 . S
C2088 C2087 1.400 . S
C2088 C2091 1.386 . S
H2089 C2105 0.930 . S
H2090 C2106 0.931 . S
C2091 H2079 0.929 . S
C2091 C2085 1.390 . S
C2091 C2088 1.386 . S
C2092 C2087 1.490 1_554 S
C2092 C2094 1.395 . S
C2092 C2095 1.403 . S
H2093 C2099 0.930 . S
C2094 H2080 0.930 . S
C2094 C2092 1.395 . S
C2094 C2097 1.403 . S
C2095 C2092 1.403 . S
C2095 C2096 1.524 . S
C2095 C2099 1.400 . S
C2096 H2081 0.960 . S
C2096 H2082 0.960 . S
C2096 H2083 0.960 . S
C2096 C2095 1.524 . S
C2097 C2094 1.403 . S
C2097 C2098 1.392 . S
C2097 C2101 1.495 . S
C2098 C2097 1.392 . S
C2098 C2099 1.385 . S
C2098 C2100 1.478 . S
C2099 H2093 0.930 . S
C2099 C2095 1.400 . S
C2099 C2098 1.385 . S
C2100 C2098 1.478 . S
C2100 C2102 1.381 . S
C2100 C2106 1.383 . S
C2101 C2097 1.495 . S
C2101 H2107 0.959 . S
C2101 H2108 0.961 . S
C2101 H2109 0.960 . S
C2102 C2100 1.381 . S
C2102 C2103 1.394 . S
C2102 H2110 0.930 . S
C2103 C2102 1.394 . S
C2103 C2104 1.383 . S
C2103 H2111 0.929 . S
C2104 C2103 1.383 . S
C2104 C2105 1.377 . S
C2105 H2089 0.930 . S
C2105 C2104 1.377 . S
C2105 C2106 1.379 . S
C2106 H2090 0.931 . S
C2106 C2100 1.383 . S
C2106 C2105 1.379 . S
H2107 C2101 0.959 . S
H2108 C2101 0.961 . S
H2109 C2101 0.960 . S
H2110 C2102 0.930 . S
H2111 C2103 0.929 . S
H2112 C2120 0.929 . S
H2113 C2122 0.930 . S
H2114 C2124 0.930 . S
H2115 C2127 0.929 . S
H2116 C2130 0.930 . S
H2117 C2132 0.960 . S
H2118 C2132 0.960 . S
H2119 C2132 0.960 . S
C2120 H2112 0.929 . S
C2120 C2121 1.377 . S
C2120 C2122 1.384 . S
C2121 C2120 1.377 . S
C2121 C2127 1.390 . S
C2122 H2113 0.930 . S
C2122 C2120 1.384 . S
C2122 C2123 1.372 . S
C2123 C2122 1.372 . S
C2123 C2124 1.400 . S
C2123 C2128 1.490 . S
C2124 H2114 0.930 . S
C2124 C2123 1.400 . S
C2124 C2127 1.386 . S
H2125 C2141 0.930 . S
H2126 C2142 0.931 . S
C2127 H2115 0.929 . S
C2127 C2121 1.390 . S
C2127 C2124 1.386 . S
C2128 C2123 1.490 . S
C2128 C2130 1.395 . S
C2128 C2131 1.403 . S
H2129 C2135 0.930 . S
C2130 H2116 0.930 . S
C2130 C2128 1.395 . S
C2130 C2133 1.403 . S
C2131 C2128 1.403 . S
C2131 C2132 1.524 . S
C2131 C2135 1.400 . S
C2132 H2117 0.960 . S
C2132 H2118 0.960 . S
C2132 H2119 0.960 . S
C2132 C2131 1.524 . S
C2133 C2130 1.403 . S
C2133 C2134 1.392 . S
C2133 C2137 1.495 . S
C2134 C2133 1.392 . S
C2134 C2135 1.385 . S
C2134 C2136 1.478 . S
C2135 H2129 0.930 . S
C2135 C2131 1.400 . S
C2135 C2134 1.385 . S
C2136 C2134 1.478 . S
C2136 C2138 1.381 . S
C2136 C2142 1.383 . S
C2137 C2133 1.495 . S
C2137 H2143 0.959 . S
C2137 H2144 0.961 . S
C2137 H2145 0.960 . S
C2138 C2136 1.381 . S
C2138 C2139 1.394 . S
C2138 H2146 0.930 . S
C2139 C2138 1.394 . S
C2139 C2140 1.383 . S
C2139 H2147 0.929 . S
C2140 C2139 1.383 . S
C2140 C2141 1.377 . S
C2141 H2125 0.930 . S
C2141 C2140 1.377 . S
C2141 C2142 1.379 . S
C2142 H2126 0.931 . S
C2142 C2136 1.383 . S
C2142 C2141 1.379 . S
H2143 C2137 0.959 . S
H2144 C2137 0.961 . S
H2145 C2137 0.960 . S
H2146 C2138 0.930 . S
H2147 C2139 0.929 . S
H2148 C2156 0.931 . S
H2149 C2158 0.930 . S
H2150 C2160 0.930 . S
H2151 C2163 0.929 . S
H2152 C2166 0.930 . S
H2153 C2168 0.960 . S
H2154 C2168 0.960 . S
H2155 C2168 0.960 . S
C2156 H2148 0.931 . S
C2156 C2157 1.400 . S
C2156 C2158 1.360 1_556 S
C2157 C2156 1.400 . S
C2157 C2163 1.390 . S
C2158 H2149 0.930 . S
C2158 C2156 1.360 1_554 S
C2158 C2159 1.372 . S
C2159 C2158 1.372 . S
C2159 C2160 1.400 . S
C2159 C2164 1.490 . S
C2160 H2150 0.930 . S
C2160 C2159 1.400 . S
C2160 C2163 1.386 1_554 S
H2161 C2177 0.930 . S
H2162 C2178 0.931 . S
C2163 H2151 0.929 . S
C2163 C2157 1.390 . S
C2163 C2160 1.386 1_556 S
C2164 C2159 1.490 . S
C2164 C2166 1.395 . S
C2164 C2167 1.403 . S
H2165 C2171 0.930 . S
C2166 H2152 0.930 . S
C2166 C2164 1.395 . S
C2166 C2169 1.403 . S
C2167 C2164 1.403 . S
C2167 C2168 1.524 . S
C2167 C2171 1.400 . S
C2168 H2153 0.960 . S
C2168 H2154 0.960 . S
C2168 H2155 0.960 . S
C2168 C2167 1.524 . S
C2169 C2166 1.403 . S
C2169 C2170 1.392 . S
C2169 C2173 1.495 . S
C2170 C2169 1.392 . S
C2170 C2171 1.385 . S
C2170 C2172 1.478 . S
C2171 H2165 0.930 . S
C2171 C2167 1.400 . S
C2171 C2170 1.385 . S
C2172 C2170 1.478 . S
C2172 C2174 1.381 . S
C2172 C2178 1.383 . S
C2173 C2169 1.495 . S
C2173 H2179 0.959 . S
C2173 H2180 0.961 . S
C2173 H2181 0.960 . S
C2174 C2172 1.381 . S
C2174 C2175 1.394 . S
C2174 H2182 0.930 . S
C2175 C2174 1.394 . S
C2175 C2176 1.383 . S
C2175 H2183 0.929 . S
C2176 C2175 1.383 . S
C2176 C2177 1.377 . S
C2177 H2161 0.930 . S
C2177 C2176 1.377 . S
C2177 C2178 1.379 . S
C2178 H2162 0.931 . S
C2178 C2172 1.383 . S
C2178 C2177 1.379 . S
H2179 C2173 0.959 . S
H2180 C2173 0.961 . S
H2181 C2173 0.960 . S
H2182 C2174 0.930 . S
H2183 C2175 0.929 . S
H2184 C2192 0.929 . S
H2185 C2194 0.930 . S
H2186 C2196 0.930 . S
H2187 C2199 0.929 . S
H2188 C2202 0.930 . S
H2189 C2204 0.960 . S
H2190 C2204 0.960 . S
H2191 C2204 0.960 . S
C2192 H2184 0.929 . S
C2192 C2193 1.377 . S
C2192 C2194 1.384 . S
C2193 C2192 1.377 . S
C2193 C2199 1.390 . S
C2194 H2185 0.930 . S
C2194 C2192 1.384 . S
C2194 C2195 1.372 . S
C2195 C2194 1.372 . S
C2195 C2196 1.400 . S
C2195 C2200 1.490 . S
C2196 H2186 0.930 . S
C2196 C2195 1.400 . S
C2196 C2199 1.386 . S
H2197 C2213 0.930 . S
H2198 C2214 0.931 . S
C2199 H2187 0.929 . S
C2199 C2193 1.390 . S
C2199 C2196 1.386 . S
C2200 C2195 1.490 . S
C2200 C2202 1.395 . S
C2200 C2203 1.403 . S
H2201 C2207 0.930 . S
C2202 H2188 0.930 . S
C2202 C2200 1.395 . S
C2202 C2205 1.403 . S
C2203 C2200 1.403 . S
C2203 C2204 1.524 . S
C2203 C2207 1.400 . S
C2204 H2189 0.960 . S
C2204 H2190 0.960 . S
C2204 H2191 0.960 . S
C2204 C2203 1.524 . S
C2205 C2202 1.403 . S
C2205 C2206 1.392 . S
C2205 C2209 1.495 . S
C2206 C2205 1.392 . S
C2206 C2207 1.385 . S
C2206 C2208 1.478 . S
C2207 H2201 0.930 . S
C2207 C2203 1.400 . S
C2207 C2206 1.385 . S
C2208 C2206 1.478 . S
C2208 C2210 1.381 . S
C2208 C2214 1.383 . S
C2209 C2205 1.495 . S
C2209 H2215 0.959 . S
C2209 H2216 0.961 . S
C2209 H2217 0.960 . S
C2210 C2208 1.381 . S
C2210 C2211 1.394 . S
C2210 H2218 0.930 . S
C2211 C2210 1.394 . S
C2211 C2212 1.383 . S
C2211 H2219 0.929 . S
C2212 C2211 1.383 . S
C2212 C2213 1.377 . S
C2213 H2197 0.930 . S
C2213 C2212 1.377 . S
C2213 C2214 1.379 . S
C2214 H2198 0.931 . S
C2214 C2208 1.383 . S
C2214 C2213 1.379 . S
H2215 C2209 0.959 . S
H2216 C2209 0.961 . S
H2217 C2209 0.960 . S
H2218 C2210 0.930 . S
H2219 C2211 0.929 . S
H2220 C2228 0.929 . S
H2221 C2230 0.930 . S
H2222 C2232 0.930 . S
H2223 C2235 0.929 . S
H2224 C2238 0.930 . S
H2225 C2240 0.960 . S
H2226 C2240 0.960 . S
H2227 C2240 0.960 . S
C2228 H2220 0.929 . S
C2228 C2229 1.377 . S
C2228 C2230 1.384 . S
C2229 C2228 1.377 . S
C2229 C2235 1.390 . S
C2230 H2221 0.930 . S
C2230 C2228 1.384 . S
C2230 C2231 1.372 . S
C2231 C2230 1.372 . S
C2231 C2232 1.400 . S
C2231 C2236 1.490 . S
C2232 H2222 0.930 . S
C2232 C2231 1.400 . S
C2232 C2235 1.386 . S
H2233 C2249 0.930 . S
H2234 C2250 0.931 . S
C2235 H2223 0.929 . S
C2235 C2229 1.390 . S
C2235 C2232 1.386 . S
C2236 C2231 1.490 . S
C2236 C2238 1.395 . S
C2236 C2239 1.403 . S
H2237 C2243 0.930 . S
C2238 H2224 0.930 . S
C2238 C2236 1.395 . S
C2238 C2241 1.403 . S
C2239 C2236 1.403 . S
C2239 C2240 1.524 . S
C2239 C2243 1.400 . S
C2240 H2225 0.960 . S
C2240 H2226 0.960 . S
C2240 H2227 0.960 . S
C2240 C2239 1.524 . S
C2241 C2238 1.403 . S
C2241 C2242 1.392 . S
C2241 C2245 1.495 . S
C2242 C2241 1.392 . S
C2242 C2243 1.385 . S
C2242 C2244 1.478 . S
C2243 H2237 0.930 . S
C2243 C2239 1.400 . S
C2243 C2242 1.385 . S
C2244 C2242 1.478 . S
C2244 C2246 1.381 . S
C2244 C2250 1.383 . S
C2245 C2241 1.495 . S
C2245 H2251 0.959 . S
C2245 H2252 0.961 . S
C2245 H2253 0.960 . S
C2246 C2244 1.381 . S
C2246 C2247 1.394 . S
C2246 H2254 0.930 . S
C2247 C2246 1.394 . S
C2247 C2248 1.383 . S
C2247 H2255 0.929 . S
C2248 C2247 1.383 . S
C2248 C2249 1.377 . S
C2249 H2233 0.930 . S
C2249 C2248 1.377 . S
C2249 C2250 1.379 . S
C2250 H2234 0.931 . S
C2250 C2244 1.383 . S
C2250 C2249 1.379 . S
H2251 C2245 0.959 . S
H2252 C2245 0.961 . S
H2253 C2245 0.960 . S
H2254 C2246 0.930 . S
H2255 C2247 0.929 . S
H2256 C2264 0.929 . S
H2257 C2266 0.930 . S
H2258 C2268 0.930 . S
H2259 C2271 0.929 . S
H2260 C2274 0.930 . S
H2261 C2276 0.960 . S
H2262 C2276 0.960 . S
H2263 C2276 0.960 . S
C2264 H2256 0.929 . S
C2264 C2265 1.377 . S
C2264 C2266 1.384 . S
C2265 C2264 1.377 . S
C2265 C2271 1.390 . S
C2266 H2257 0.930 . S
C2266 C2264 1.384 . S
C2266 C2267 1.372 . S
C2267 C2266 1.372 . S
C2267 C2268 1.400 . S
C2267 C2272 1.490 . S
C2268 H2258 0.930 . S
C2268 C2267 1.400 . S
C2268 C2271 1.386 . S
H2269 C2285 0.930 . S
H2270 C2286 0.931 . S
C2271 H2259 0.929 . S
C2271 C2265 1.390 . S
C2271 C2268 1.386 . S
C2272 C2267 1.490 . S
C2272 C2274 1.395 . S
C2272 C2275 1.403 . S
H2273 C2279 0.930 . S
C2274 H2260 0.930 . S
C2274 C2272 1.395 . S
C2274 C2277 1.403 . S
C2275 C2272 1.403 . S
C2275 C2276 1.524 . S
C2275 C2279 1.400 . S
C2276 H2261 0.960 . S
C2276 H2262 0.960 . S
C2276 H2263 0.960 . S
C2276 C2275 1.524 . S
C2277 C2274 1.403 . S
C2277 C2278 1.392 . S
C2277 C2281 1.495 . S
C2278 C2277 1.392 . S
C2278 C2279 1.385 . S
C2278 C2280 1.478 . S
C2279 H2273 0.930 . S
C2279 C2275 1.400 . S
C2279 C2278 1.385 . S
C2280 C2278 1.478 . S
C2280 C2282 1.381 . S
C2280 C2286 1.383 . S
C2281 C2277 1.495 . S
C2281 H2287 0.959 . S
C2281 H2288 0.961 . S
C2281 H2289 0.960 . S
C2282 C2280 1.381 . S
C2282 C2283 1.394 . S
C2282 H2290 0.930 . S
C2283 C2282 1.394 . S
C2283 C2284 1.383 . S
C2283 H2291 0.929 . S
C2284 C2283 1.383 . S
C2284 C2285 1.377 . S
C2285 H2269 0.930 . S
C2285 C2284 1.377 . S
C2285 C2286 1.379 . S
C2286 H2270 0.931 . S
C2286 C2280 1.383 . S
C2286 C2285 1.379 . S
H2287 C2281 0.959 . S
H2288 C2281 0.961 . S
H2289 C2281 0.960 . S
H2290 C2282 0.930 . S
H2291 C2283 0.929 . S
H2292 C2300 0.929 . S
H2293 C2302 0.930 . S
H2294 C2304 0.930 . S
H2295 C2307 0.929 . S
H2296 C2310 0.930 . S
H2297 C2312 0.960 . S
H2298 C2312 0.960 . S
H2299 C2312 0.960 . S
C2300 H2292 0.929 . S
C2300 C2301 1.377 . S
C2300 C2302 1.384 . S
C2301 C2300 1.377 . S
C2301 C2307 1.390 . S
C2302 H2293 0.930 . S
C2302 C2300 1.384 . S
C2302 C2303 1.372 . S
C2303 C2302 1.372 . S
C2303 C2304 1.400 . S
C2303 C2308 1.490 . S
C2304 H2294 0.930 . S
C2304 C2303 1.400 . S
C2304 C2307 1.386 . S
H2305 C2321 0.930 . S
H2306 C2322 0.931 . S
C2307 H2295 0.929 . S
C2307 C2301 1.390 . S
C2307 C2304 1.386 . S
C2308 C2303 1.490 . S
C2308 C2310 1.395 . S
C2308 C2311 1.403 . S
H2309 C2315 0.930 . S
C2310 H2296 0.930 . S
C2310 C2308 1.395 . S
C2310 C2313 1.403 . S
C2311 C2308 1.403 . S
C2311 C2312 1.524 . S
C2311 C2315 1.400 . S
C2312 H2297 0.960 . S
C2312 H2298 0.960 . S
C2312 H2299 0.960 . S
C2312 C2311 1.524 . S
C2313 C2310 1.403 . S
C2313 C2314 1.392 . S
C2313 C2317 1.495 . S
C2314 C2313 1.392 . S
C2314 C2315 1.385 . S
C2314 C2316 1.478 . S
C2315 H2309 0.930 . S
C2315 C2311 1.400 . S
C2315 C2314 1.385 . S
C2316 C2314 1.478 . S
C2316 C2318 1.381 . S
C2316 C2322 1.383 . S
C2317 C2313 1.495 . S
C2317 H2323 0.959 . S
C2317 H2324 0.961 . S
C2317 H2325 0.960 . S
C2318 C2316 1.381 . S
C2318 C2319 1.394 . S
C2318 H2326 0.930 . S
C2319 C2318 1.394 . S
C2319 C2320 1.383 . S
C2319 H2327 0.929 . S
C2320 C2319 1.383 . S
C2320 C2321 1.377 . S
C2321 H2305 0.930 . S
C2321 C2320 1.377 . S
C2321 C2322 1.379 . S
C2322 H2306 0.931 . S
C2322 C2316 1.383 . S
C2322 C2321 1.379 . S
H2323 C2317 0.959 . S
H2324 C2317 0.961 . S
H2325 C2317 0.960 . S
H2326 C2318 0.930 . S
H2327 C2319 0.929 . S
H2328 C2336 0.929 . S
H2329 C2338 0.930 . S
H2330 C2340 0.930 . S
H2331 C2343 0.929 . S
H2332 C2346 0.930 . S
H2333 C2348 0.960 . S
H2334 C2348 0.960 . S
H2335 C2348 0.960 . S
C2336 H2328 0.929 . S
C2336 C2337 1.377 . S
C2336 C2338 1.384 . S
C2337 C2336 1.377 . S
C2337 C2343 1.390 . S
C2338 H2329 0.930 . S
C2338 C2336 1.384 . S
C2338 C2339 1.372 . S
C2339 C2338 1.372 . S
C2339 C2340 1.400 . S
C2339 C2344 1.490 . S
C2340 H2330 0.930 . S
C2340 C2339 1.400 . S
C2340 C2343 1.386 . S
H2341 C2357 0.930 1_554 S
H2342 C2358 0.931 . S
C2343 H2331 0.929 . S
C2343 C2337 1.390 . S
C2343 C2340 1.386 . S
C2344 C2339 1.490 . S
C2344 C2346 1.395 . S
C2344 C2347 1.403 . S
H2345 C2351 0.930 . S
C2346 H2332 0.930 . S
C2346 C2344 1.395 . S
C2346 C2349 1.403 . S
C2347 C2344 1.403 . S
C2347 C2348 1.524 . S
C2347 C2351 1.400 . S
C2348 H2333 0.960 . S
C2348 H2334 0.960 . S
C2348 H2335 0.960 . S
C2348 C2347 1.524 . S
C2349 C2346 1.403 . S
C2349 C2350 1.392 . S
C2349 C2353 1.495 . S
C2350 C2349 1.392 . S
C2350 C2351 1.385 . S
C2350 C2352 1.478 . S
C2351 H2345 0.930 . S
C2351 C2347 1.400 . S
C2351 C2350 1.385 . S
C2352 C2350 1.478 . S
C2352 C2354 1.381 . S
C2352 C2358 1.383 . S
C2353 C2349 1.495 . S
C2353 H2359 0.959 . S
C2353 H2360 0.961 . S
C2353 H2361 0.960 . S
C2354 C2352 1.381 . S
C2354 C2355 1.394 . S
C2354 H2362 0.930 . S
C2355 C2354 1.394 . S
C2355 C2356 1.383 . S
C2355 H2363 0.929 . S
C2356 C2355 1.383 . S
C2356 C2357 1.377 . S
C2357 H2341 0.930 1_556 S
C2357 C2356 1.377 . S
C2357 C2358 1.379 . S
C2358 H2342 0.931 . S
C2358 C2352 1.383 . S
C2358 C2357 1.379 . S
H2359 C2353 0.959 . S
H2360 C2353 0.961 . S
H2361 C2353 0.960 . S
H2362 C2354 0.930 . S
H2363 C2355 0.929 . S
H2364 C2372 0.929 . S
H2365 C2374 0.930 . S
H2366 C2376 0.930 . S
H2367 C2379 0.929 . S
H2368 C2382 0.930 . S
H2369 C2384 0.960 . S
H2370 C2384 0.960 . S
H2371 C2384 0.960 . S
C2372 H2364 0.929 . S
C2372 C2373 1.377 . S
C2372 C2374 1.384 . S
C2373 C2372 1.377 . S
C2373 C2379 1.390 . S
C2374 H2365 0.930 . S
C2374 C2372 1.384 . S
C2374 C2375 1.372 . S
C2375 C2374 1.372 . S
C2375 C2376 1.400 . S
C2375 C2380 1.490 . S
C2376 H2366 0.930 . S
C2376 C2375 1.400 . S
C2376 C2379 1.386 . S
H2377 C2393 0.930 . S
H2378 C2394 0.931 . S
C2379 H2367 0.929 . S
C2379 C2373 1.390 . S
C2379 C2376 1.386 . S
C2380 C2375 1.490 . S
C2380 C2382 1.395 . S
C2380 C2383 1.403 . S
H2381 C2387 0.930 . S
C2382 H2368 0.930 . S
C2382 C2380 1.395 . S
C2382 C2385 1.403 . S
C2383 C2380 1.403 . S
C2383 C2384 1.524 . S
C2383 C2387 1.400 . S
C2384 H2369 0.960 . S
C2384 H2370 0.960 . S
C2384 H2371 0.960 . S
C2384 C2383 1.524 . S
C2385 C2382 1.403 . S
C2385 C2386 1.392 . S
C2385 C2389 1.495 . S
C2386 C2385 1.392 . S
C2386 C2387 1.385 . S
C2386 C2388 1.478 . S
C2387 H2381 0.930 . S
C2387 C2383 1.400 . S
C2387 C2386 1.385 . S
C2388 C2386 1.478 . S
C2388 C2390 1.381 . S
C2388 C2394 1.383 . S
C2389 C2385 1.495 . S
C2389 H2395 0.959 . S
C2389 H2396 0.961 . S
C2389 H2397 0.960 . S
C2390 C2388 1.381 . S
C2390 C2391 1.394 . S
C2390 H2398 0.930 . S
C2391 C2390 1.394 . S
C2391 C2392 1.383 . S
C2391 H2399 0.929 . S
C2392 C2391 1.383 . S
C2392 C2393 1.377 . S
C2393 H2377 0.930 . S
C2393 C2392 1.377 . S
C2393 C2394 1.379 . S
C2394 H2378 0.931 . S
C2394 C2388 1.383 . S
C2394 C2393 1.379 . S
H2395 C2389 0.959 . S
H2396 C2389 0.961 . S
H2397 C2389 0.960 . S
H2398 C2390 0.930 . S
H2399 C2391 0.929 . S
H2400 C2408 0.929 . S
H2401 C2410 0.930 . S
H2402 C2412 0.930 . S
H2403 C2415 0.929 . S
H2404 C2418 0.930 . S
H2405 C2420 0.960 . S
H2406 C2420 0.960 . S
H2407 C2420 0.960 . S
C2408 H2400 0.929 . S
C2408 C2409 1.377 . S
C2408 C2410 1.384 . S
C2409 C2408 1.377 . S
C2409 C2415 1.390 . S
C2410 H2401 0.930 . S
C2410 C2408 1.384 . S
C2410 C2411 1.372 . S
C2411 C2410 1.372 . S
C2411 C2412 1.400 . S
C2411 C2416 1.490 . S
C2412 H2402 0.930 . S
C2412 C2411 1.400 . S
C2412 C2415 1.386 . S
H2413 C2429 0.930 . S
H2414 C2430 0.931 . S
C2415 H2403 0.929 . S
C2415 C2409 1.390 . S
C2415 C2412 1.386 . S
C2416 C2411 1.490 . S
C2416 C2418 1.395 . S
C2416 C2419 1.403 . S
H2417 C2423 0.930 . S
C2418 H2404 0.930 . S
C2418 C2416 1.395 . S
C2418 C2421 1.403 . S
C2419 C2416 1.403 . S
C2419 C2420 1.524 . S
C2419 C2423 1.400 . S
C2420 H2405 0.960 . S
C2420 H2406 0.960 . S
C2420 H2407 0.960 . S
C2420 C2419 1.524 . S
C2421 C2418 1.403 . S
C2421 C2422 1.392 . S
C2421 C2425 1.495 . S
C2422 C2421 1.392 . S
C2422 C2423 1.385 . S
C2422 C2424 1.478 . S
C2423 H2417 0.930 . S
C2423 C2419 1.400 . S
C2423 C2422 1.385 . S
C2424 C2422 1.478 . S
C2424 C2426 1.381 . S
C2424 C2430 1.383 . S
C2425 C2421 1.495 . S
C2425 H2431 0.959 . S
C2425 H2432 0.961 . S
C2425 H2433 0.960 . S
C2426 C2424 1.381 . S
C2426 C2427 1.394 . S
C2426 H2434 0.930 . S
C2427 C2426 1.394 . S
C2427 C2428 1.383 . S
C2427 H2435 0.929 . S
C2428 C2427 1.383 . S
C2428 C2429 1.377 . S
C2429 H2413 0.930 . S
C2429 C2428 1.377 . S
C2429 C2430 1.379 . S
C2430 H2414 0.931 . S
C2430 C2424 1.383 . S
C2430 C2429 1.379 . S
H2431 C2425 0.959 . S
H2432 C2425 0.961 . S
H2433 C2425 0.960 . S
H2434 C2426 0.930 . S
H2435 C2427 0.929 . S
H2436 C2444 0.929 . S
H2437 C2446 0.930 . S
H2438 C2448 0.930 . S
H2439 C2451 0.929 . S
H2440 C2454 0.930 . S
H2441 C2456 0.960 . S
H2442 C2456 0.960 . S
H2443 C2456 0.960 . S
C2444 H2436 0.929 . S
C2444 C2445 1.377 . S
C2444 C2446 1.384 . S
C2445 C2444 1.377 . S
C2445 C2451 1.390 . S
C2446 H2437 0.930 . S
C2446 C2444 1.384 . S
C2446 C2447 1.372 . S
C2447 C2446 1.372 . S
C2447 C2448 1.400 . S
C2447 C2452 1.490 . S
C2448 H2438 0.930 . S
C2448 C2447 1.400 . S
C2448 C2451 1.386 . S
H2449 C2465 0.930 . S
H2450 C2466 0.931 . S
C2451 H2439 0.929 . S
C2451 C2445 1.390 . S
C2451 C2448 1.386 . S
C2452 C2447 1.490 . S
C2452 C2454 1.395 . S
C2452 C2455 1.403 . S
H2453 C2459 0.930 . S
C2454 H2440 0.930 . S
C2454 C2452 1.395 . S
C2454 C2457 1.403 . S
C2455 C2452 1.403 . S
C2455 C2456 1.524 . S
C2455 C2459 1.400 . S
C2456 H2441 0.960 . S
C2456 H2442 0.960 . S
C2456 H2443 0.960 . S
C2456 C2455 1.524 . S
C2457 C2454 1.403 . S
C2457 C2458 1.392 . S
C2457 C2461 1.495 . S
C2458 C2457 1.392 . S
C2458 C2459 1.385 . S
C2458 C2460 1.478 1_545 S
C2459 H2453 0.930 . S
C2459 C2455 1.400 . S
C2459 C2458 1.385 . S
C2460 C2458 1.478 1_565 S
C2460 C2462 1.381 . S
C2460 C2466 1.383 . S
C2461 C2457 1.495 . S
C2461 H2467 0.959 . S
C2461 H2468 0.961 . S
C2461 H2469 0.960 . S
C2462 C2460 1.381 . S
C2462 C2463 1.394 . S
C2462 H2470 0.930 . S
C2463 C2462 1.394 . S
C2463 C2464 1.383 . S
C2463 H2471 0.929 . S
C2464 C2463 1.383 . S
C2464 C2465 1.377 . S
C2465 H2449 0.930 . S
C2465 C2464 1.377 . S
C2465 C2466 1.379 . S
C2466 H2450 0.931 . S
C2466 C2460 1.383 . S
C2466 C2465 1.379 . S
H2467 C2461 0.959 . S
H2468 C2461 0.961 . S
H2469 C2461 0.960 . S
H2470 C2462 0.930 . S
H2471 C2463 0.929 . S
C772 C584 1.630 . S
C753 C181 1.649 . S
C808 C599 1.758 . S
C789 C247 1.752 . S
C825 C283 1.750 . S
C844 C612 1.755 . S
C880 C626 1.526 . S
C861 C169 1.597 . S
C916 C638 1.674 . S
C897 C361 1.755 . S
C952 C652 1.268 . S
C933 C433 1.295 . S
C969 C421 1.814 . S
C988 C666 1.763 . S
C1024 C681 1.464 . S
C1005 C355 1.460 . S
C1041 C427 1.720 . S
C1060 C697 1.714 . S
C1096 C710 1.515 . S
C1077 C325 1.507 . S
C1113 C385 1.628 . S
C1132 C695 1.601 . S
C1168 C708 1.488 . S
C1149 C463 1.507 . S
C1185 C253 1.911 . S
C1204 C724 1.895 . S
C1221 C145 1.602 . S
C1240 C723 1.587 . S
C1257 C205 1.779 . S
C1276 C722 1.726 . S
C1293 C217 1.608 . S
C1312 C725 1.590 . S
C1329 C139 1.746 . S
C1348 C627 1.721 . S
C1365 C535 1.517 . S
C1384 C625 1.468 . S
C1420 C585 1.506 . S
C1401 C565 1.526 . S
C1456 C596 1.793 . S
C1437 C313 1.801 . S
C1473 C175 1.648 1_545 S
C1492 C641 1.602 . S
C1528 C682 1.944 . S
C1509 C397 1.955 . S
C1564 C639 1.520 . S
C1545 C349 1.479 . S
C1600 C667 1.501 . S
C1581 C457 1.518 . S
C1636 C668 1.645 . S
C1617 C505 1.650 . S
C1653 C571 1.751 . S
C1672 C683 1.759 . S
C1689 C319 1.746 . S
C1708 C640 1.741 . S
C1744 C654 1.573 . S
C1725 C493 1.602 . S
C1761 C109 1.755 . S
C1780 C610 1.677 . S
C1816 C624 1.279 . S
C1797 C1 1.301 . S
C1852 C582 1.762 . S
C1833 C61 1.814 . S
C1888 C597 1.491 . S
C1869 C103 1.463 . S
C1905 C67 1.719 . S
C1924 C711 1.715 . S
C1941 C73 1.505 . S
C1960 C696 1.504 . S
C1977 C133 1.629 . S
C1996 C709 1.574 . S
C2013 C31 1.508 . S
C2032 C694 1.507 . S
C2068 C738 1.910 . S
C2049 C289 1.913 . S
C2104 C737 1.546 . S
C2085 C469 1.597 . S
C2140 C736 1.737 . S
C2121 C529 1.779 . S
C2157 C541 1.615 . S
C2176 C739 1.630 . S
C2193 C391 1.746 . S
C2212 C655 1.722 . S
C2248 C653 1.470 . S
C2229 C211 1.517 . S
C2284 C669 1.520 . S
C2265 C241 1.523 . S
C2320 C680 1.794 . S
C2301 C277 1.801 . S
C2337 C499 1.651 . S
C2356 C613 1.639 . S
C2392 C598 1.942 . S
C2373 C37 1.954 . S
C2409 C97 1.472 . S
C2428 C611 1.497 . S
C2464 C583 1.474 . S
C2445 C25 1.518 . S
