# Generated by pormake.
# Topology pyr, (3,6)-cn, num edge types: 1
# Building blocks:
#     Node 0, Type 0, BuildingBlock: BETDAH_clean_linker_0, # of connection points: 3
#     Node 1, Type 0, BuildingBlock: BETDAH_clean_linker_0, # of connection points: 3
#     Node 2, Type 0, BuildingBlock: BETDAH_clean_linker_0, # of connection points: 3
#     Node 3, Type 0, BuildingBlock: BETDAH_clean_linker_0, # of connection points: 3
#     Node 4, Type 0, BuildingBlock: BETDAH_clean_linker_0, # of connection points: 3
#     Node 5, Type 0, BuildingBlock: BETDAH_clean_linker_0, # of connection points: 3
#     Node 6, Type 0, BuildingBlock: BETDAH_clean_linker_0, # of connection points: 3
#     Node 7, Type 0, BuildingBlock: BETDAH_clean_linker_0, # of connection points: 3
#     Node 8, Type 1, BuildingBlock: FUNLAD_clean_sbu_0, # of connection points: 6
#     Node 9, Type 1, BuildingBlock: FUNLAD_clean_sbu_0, # of connection points: 6
#     Node 10, Type 1, BuildingBlock: FUNLAD_clean_sbu_0, # of connection points: 6
#     Node 11, Type 1, BuildingBlock: FUNLAD_clean_sbu_0, # of connection points: 6
#     Edge 12, Type (0, 1), BuildingBlock: AJUNOK_clean_linker_0, # of connection points: 2
#     Edge 13, Type (0, 1), BuildingBlock: AJUNOK_clean_linker_0, # of connection points: 2
#     Edge 14, Type (0, 1), BuildingBlock: AJUNOK_clean_linker_0, # of connection points: 2
#     Edge 15, Type (0, 1), BuildingBlock: AJUNOK_clean_linker_0, # of connection points: 2
#     Edge 16, Type (0, 1), BuildingBlock: AJUNOK_clean_linker_0, # of connection points: 2
#     Edge 17, Type (0, 1), BuildingBlock: AJUNOK_clean_linker_0, # of connection points: 2
#     Edge 18, Type (0, 1), BuildingBlock: AJUNOK_clean_linker_0, # of connection points: 2
#     Edge 19, Type (0, 1), BuildingBlock: AJUNOK_clean_linker_0, # of connection points: 2
#     Edge 20, Type (0, 1), BuildingBlock: AJUNOK_clean_linker_0, # of connection points: 2
#     Edge 21, Type (0, 1), BuildingBlock: AJUNOK_clean_linker_0, # of connection points: 2
#     Edge 22, Type (0, 1), BuildingBlock: AJUNOK_clean_linker_0, # of connection points: 2
#     Edge 23, Type (0, 1), BuildingBlock: AJUNOK_clean_linker_0, # of connection points: 2
#     Edge 24, Type (0, 1), BuildingBlock: AJUNOK_clean_linker_0, # of connection points: 2
#     Edge 25, Type (0, 1), BuildingBlock: AJUNOK_clean_linker_0, # of connection points: 2
#     Edge 26, Type (0, 1), BuildingBlock: AJUNOK_clean_linker_0, # of connection points: 2
#     Edge 27, Type (0, 1), BuildingBlock: AJUNOK_clean_linker_0, # of connection points: 2
#     Edge 28, Type (0, 1), BuildingBlock: AJUNOK_clean_linker_0, # of connection points: 2
#     Edge 29, Type (0, 1), BuildingBlock: AJUNOK_clean_linker_0, # of connection points: 2
#     Edge 30, Type (0, 1), BuildingBlock: AJUNOK_clean_linker_0, # of connection points: 2
#     Edge 31, Type (0, 1), BuildingBlock: AJUNOK_clean_linker_0, # of connection points: 2
#     Edge 32, Type (0, 1), BuildingBlock: AJUNOK_clean_linker_0, # of connection points: 2
#     Edge 33, Type (0, 1), BuildingBlock: AJUNOK_clean_linker_0, # of connection points: 2
#     Edge 34, Type (0, 1), BuildingBlock: AJUNOK_clean_linker_0, # of connection points: 2
#     Edge 35, Type (0, 1), BuildingBlock: AJUNOK_clean_linker_0, # of connection points: 2
# Relax obj value: 0.288
# Max RMSD: 0.218
# Mean RMSD: 0.135
data_MOF--net-pry--node1-FUNLAD_clean_sbu_0--node2-BETDAH_clean_linker_0--edge1-AJUNOK_clean_linker_0
_symmetry_space_group_name_H-M    P1
_symmetry_Int_Tables_number       1
_symmetry_cell_setting            triclinic
loop_
_symmetry_equiv_pos_as_xyz
'x, y, z'
_cell_length_a     24.631664
_cell_length_b     27.088038
_cell_length_c     28.183771
_cell_angle_alpha  90.089021
_cell_angle_beta   90.226837
_cell_angle_gamma 85.115451
loop_
_atom_site_label
_atom_site_type_symbol
_atom_site_fract_x
_atom_site_fract_y
_atom_site_fract_z
_atom_type_partial_charge
H0 H 0.22107 0.14302 0.26875 0.0
H1 H 0.18661 0.25194 0.15792 0.0
H2 H 0.07361 0.23983 0.27188 0.0
C3 C 0.19474 0.17263 0.2529 0.0
C4 C 0.14538 0.18855 0.27573 0.0
C5 C 0.211 0.19545 0.2105 0.0
C6 C 0.17638 0.23509 0.19115 0.0
C7 C 0.12691 0.25127 0.21355 0.0
C8 C 0.11213 0.22769 0.25534 0.0
N9 N 0.08838 0.28838 0.19418 0.0
C10 C 0.09711 0.3271 0.16302 0.0
H11 H 0.49955 0.88757 0.81058 0.0
H12 H 0.36506 0.99958 0.82471 0.0
H13 H 0.36867 0.89953 0.70724 0.0
C14 C 0.4615 0.90563 0.79755 0.0
C15 C 0.43809 0.88868 0.75456 0.0
C16 C 0.43591 0.94703 0.82275 0.0
C17 C 0.3862 0.96904 0.80547 0.0
C18 C 0.36249 0.9526 0.76405 0.0
C19 C 0.38837 0.91285 0.73863 0.0
N20 N 0.31124 0.97619 0.75034 0.0
C21 C 0.28888 0.97603 0.70502 0.0
H22 H 0.71162 0.46778 1.04335 0.0
H23 H 0.65002 0.62171 1.04149 0.0
H24 H 0.54022 0.50981 0.06047 0.0
C25 C 0.6781 0.49622 1.04645 0.0
C26 C 0.62482 0.48244 0.05337 0.0
C27 C 0.68816 0.54659 1.04356 0.0
C28 C 0.64397 0.58296 1.04692 0.0
C29 C 0.59105 0.56944 0.0538 0.0
C30 C 0.58187 0.51953 0.05766 0.0
N31 N 0.5462 0.60472 1.04699 0.0
C32 C 0.51943 0.60337 1.00381 0.0
H33 H 0.87062 0.69981 0.56489 0.0
H34 H 0.99834 0.6305 0.47843 0.0
H35 H 0.86196 0.55004 0.51631 0.0
C36 C 0.88929 0.66711 0.54717 0.0
C37 C 0.86135 0.62409 0.54527 0.0
C38 C 0.93786 0.67009 0.52201 0.0
C39 C 0.96073 0.62837 0.49788 0.0
C40 C 0.93345 0.58508 0.49546 0.0
C41 C 0.88449 0.58248 0.52031 0.0
N42 N 0.95004 0.548 0.46176 0.0
C43 C 0.96671 0.56237 0.41712 0.0
H44 H 0.98968 0.87935 0.81786 0.0
H45 H 0.87833 0.91095 0.93476 0.0
H46 H 0.88239 1.01386 0.82047 0.0
C47 C 0.95814 0.90317 0.83509 0.0
C48 C 0.93963 0.94949 0.81378 0.0
C49 C 0.93541 0.88806 0.87899 0.0
C50 C 0.89484 0.92044 0.90074 0.0
C51 C 0.87572 0.96527 0.87929 0.0
C52 C 0.89805 0.97908 0.83646 0.0
N53 N 0.83413 0.99828 0.89939 0.0
C54 C 0.80464 0.99101 0.94042 0.0
H55 H 0.7225 0.1446 0.36394 0.0
H56 H 0.68811 0.2516 0.47644 0.0
H57 H 0.57431 0.24048 0.36212 0.0
C58 C 0.69615 0.17393 0.38014 0.0
C59 C 0.6466 0.18997 0.35748 0.0
C60 C 0.71243 0.19604 0.42299 0.0
C61 C 0.67786 0.23535 0.4428 0.0
C62 C 0.62812 0.25155 0.42055 0.0
C63 C 0.61316 0.22852 0.37841 0.0
N64 N 0.58904 0.28712 0.4412 0.0
C65 C 0.5983 0.32826 0.46919 0.0
H66 H 0.35693 0.69499 0.06575 0.0
H67 H 0.37499 0.54415 0.11496 0.0
H68 H 0.49612 0.64386 0.14943 0.0
C69 C 0.38141 0.66466 0.08254 0.0
C70 C 0.42993 0.67397 0.10565 0.0
C71 C 0.36165 0.61772 0.08507 0.0
C72 C 0.39154 0.57963 0.11037 0.0
C73 C 0.4401 0.58894 0.13373 0.0
C74 C 0.45966 0.6359 0.13017 0.0
N75 N 0.46444 0.55379 0.16632 0.0
C76 C 0.48204 0.56979 0.21027 0.0
H77 H 0.21231 0.46631 0.58232 0.0
H78 H 0.15319 0.62075 0.58187 0.0
H79 H 0.04079 0.51012 0.56746 0.0
C80 C 0.17903 0.49499 0.57912 0.0
C81 C 0.12528 0.48175 0.57347 0.0
C82 C 0.18991 0.54521 0.58071 0.0
C83 C 0.14623 0.58205 0.57737 0.0
C84 C 0.09281 0.56917 0.57209 0.0
C85 C 0.08271 0.51931 0.56926 0.0
N86 N 0.04889 0.60517 0.57994 0.0
C87 C 0.02345 0.60388 0.62357 0.0
C88 C 0.06428 0.10482 0.45279 0.0
N89 N 0.04648 0.1804 0.58188 0.0
C90 C 0.09822 0.19277 0.57412 0.0
C91 C 0.11127 0.24144 0.57958 0.0
C92 C 0.07044 0.27819 0.59174 0.0
C93 C 1.01785 0.26468 0.60141 0.0
C94 C 1.00676 0.21503 0.59668 0.0
Zn95 Zn 0.02892 0.11178 0.55767 0.0
C96 C 0.91876 0.11483 0.51129 0.0
N97 N 1.00169 0.97182 0.49952 0.0
C98 C 0.04179 0.94048 0.48018 0.0
C99 C 0.95325 0.95571 0.51286 0.0
C100 C 0.94537 0.90559 0.51089 0.0
C101 C 0.98755 0.87202 0.49468 0.0
C102 C 0.03539 0.88977 0.47722 0.0
Zn103 Zn 1.01712 1.03949 0.52415 0.0
O104 O 0.05906 0.13287 0.48909 0.0
C105 C 0.12564 1.03763 0.57003 0.0
O106 O 0.04971 0.0609 0.45621 0.0
H107 H 0.92226 0.98113 0.52869 0.0
H108 H 0.12891 0.16574 0.56043 0.0
H109 H 0.08015 0.95417 0.47029 0.0
O110 O 0.10754 0.08204 0.57815 0.0
O111 O 0.09624 1.0097 0.54687 0.0
H112 H 0.96576 0.20482 0.60212 0.0
O113 O 0.98756 1.0174 0.59295 0.0
O114 O 1.00054 0.0879 0.62727 0.0
O115 O 0.93658 0.07039 0.50167 0.0
O116 O 0.94857 0.141 0.53625 0.0
C117 C 0.98768 0.04323 0.63071 0.0
H118 H 0.15201 0.25086 0.57112 0.0
H119 H 0.98535 0.29247 0.61062 0.0
H120 H 0.90783 0.89283 0.52429 0.0
H121 H 0.06862 0.86449 0.46452 0.0
C122 C 0.62482 1.03919 0.06366 0.0
N123 N 0.54503 0.18155 1.05099 0.0
C124 C 0.5969 0.1937 0.05887 0.0
C125 C 0.61036 0.24211 0.05264 0.0
C126 C 0.56983 0.27877 1.03951 0.0
C127 C 0.51708 0.26547 1.02985 0.0
C128 C 0.50556 0.21607 1.03541 0.0
Zn129 Zn 0.52708 0.1134 0.07545 0.0
C130 C 0.48672 0.04398 1.00364 0.0
N131 N 0.50032 0.97425 0.13409 0.0
C132 C 0.53982 0.94065 0.15107 0.0
C133 C 0.44987 0.96098 0.12268 0.0
C134 C 0.43862 0.91174 0.12486 0.0
C135 C 0.47974 0.87572 0.13863 0.0
C136 C 0.53026 0.89061 0.15369 0.0
Zn137 Zn 0.51739 0.04145 0.10993 0.0
O138 O 0.60568 0.08326 0.05535 0.0
C139 C 0.56403 0.10662 0.18056 0.0
O140 O 0.59652 1.01096 0.08737 0.0
H141 H 0.41951 0.98786 0.10801 0.0
H142 H 0.62745 0.16675 0.07308 0.0
H143 H 0.57975 0.95205 0.15956 0.0
O144 O 0.55774 0.13463 0.1443 0.0
O145 O 0.55018 0.06247 0.17731 0.0
H146 H 0.46446 0.20601 1.02988 0.0
O147 O 0.43707 0.07321 0.1324 0.0
O148 O 0.44683 0.1433 0.09648 0.0
O149 O 0.48782 1.01934 1.04198 0.0
O150 O 0.49821 0.08914 1.00575 0.0
C151 C 0.41811 0.11716 0.12222 0.0
H152 H 0.6512 0.25145 0.06114 0.0
H153 H 0.48481 0.29328 1.01999 0.0
H154 H 0.39932 0.90159 0.11262 0.0
H155 H 0.56262 0.86369 0.16526 0.0
C156 C 0.54691 0.51666 0.56646 0.0
N157 N 0.53866 0.57142 0.70688 0.0
C158 C 0.50456 0.54042 0.72692 0.0
C159 C 0.49781 0.53993 0.77616 0.0
C160 C 0.52685 0.57132 0.8045 0.0
C161 C 0.56525 0.59937 0.78311 0.0
C162 C 0.57034 0.59908 0.73403 0.0
Zn163 Zn 0.52916 0.5931 0.63804 0.0
C164 C 0.63272 0.62541 0.59547 0.0
N165 N 0.50447 0.65034 0.49767 0.0
C166 C 0.46553 0.62556 0.47555 0.0
C167 C 0.54038 0.67474 0.47163 0.0
C168 C 0.53947 0.67233 0.42176 0.0
C169 C 0.50054 0.64547 0.39895 0.0
C170 C 0.46227 0.62351 0.42648 0.0
Zn171 Zn 0.51688 0.63153 0.56871 0.0
O172 O 0.54752 0.51946 0.61154 0.0
C173 C 0.41286 0.59819 0.6077 0.0
O174 O 0.53419 0.55611 0.54292 0.0
H175 H 0.57199 0.69326 0.48925 0.0
H176 H 0.47944 0.51899 0.70471 0.0
H177 H 0.4394 0.60326 0.49524 0.0
O178 O 0.44334 0.58053 0.64113 0.0
O179 O 0.43399 0.62216 0.57521 0.0
H180 H 0.59625 0.62433 0.7176 0.0
O181 O 0.50115 0.70669 0.59695 0.0
O182 O 0.51119 0.66795 0.66496 0.0
O183 O 0.59935 0.64104 0.56341 0.0
O184 O 0.61507 0.6042 0.63195 0.0
C185 C 0.50161 0.70845 0.64236 0.0
H186 H 0.4677 0.51785 0.79145 0.0
H187 H 0.58902 0.62343 0.80396 0.0
H188 H 0.56989 0.68959 0.40142 0.0
H189 H 0.43245 0.60152 0.41023 0.0
C190 C 1.00157 0.70627 0.9882 0.0
N191 N 1.00106 0.64487 0.13161 0.0
C192 C 0.03546 0.66926 0.15954 0.0
C193 C 0.03172 0.66688 0.2093 0.0
C194 C 0.99171 0.63982 0.23001 0.0
C195 C 0.95518 0.61773 0.2004 0.0
C196 C 0.96111 0.61989 0.15159 0.0
Zn197 Zn 1.01595 0.62722 0.06071 0.0
C198 C 0.91189 0.5969 1.01763 0.0
N199 N 0.0397 0.57064 0.92118 0.0
C200 C 0.07225 0.59834 0.89523 0.0
C201 C 1.00617 0.53978 0.89987 0.0
C202 C 1.00085 0.5395 0.85047 0.0
C203 C 0.03084 0.57089 0.82323 0.0
C204 C 0.06869 0.59875 0.84601 0.0
Zn205 Zn 0.02852 0.59145 0.99007 0.0
O206 O 1.00123 0.70322 1.03354 0.0
C207 C 0.13232 0.61961 1.03684 0.0
O208 O 1.01098 0.66674 0.9641 0.0
H209 H 0.98039 0.51828 0.92114 0.0
H210 H 0.06798 0.68782 0.14357 0.0
H211 H 0.09775 0.62344 0.91265 0.0
O212 O 0.09914 0.63449 0.06922 0.0
O213 O 0.11412 0.60223 0.99845 0.0
H214 H 0.93613 0.59759 0.13046 0.0
O215 O 0.04645 0.517 1.01581 0.0
O216 O 0.03141 0.55124 0.08533 0.0
O217 O 0.94261 0.57925 0.98451 0.0
O218 O 0.93306 0.61948 1.05125 0.0
C219 C 0.04475 0.51262 0.06074 0.0
H220 H 0.06084 0.68431 0.23123 0.0
H221 H 0.92464 0.59551 0.21489 0.0
H222 H 0.97107 0.51759 0.83414 0.0
H223 H 0.09316 0.6228 0.82608 0.0
C224 C 0.11073 0.19558 0.35997 0.0
C225 C 0.12775 0.16533 0.32114 0.0
C226 C 0.09106 0.17557 0.40206 0.0
C227 C 0.08655 0.12425 0.40737 0.0
H228 H 0.1126 0.23532 0.35784 0.0
H229 H 0.07857 0.20092 0.43051 0.0
S230 S 0.12569 1.02854 0.31628 0.0
N231 N 0.1391 0.08109 0.29096 0.0
N232 N 0.10174 0.0435 0.36955 0.0
C233 C 0.10372 0.09345 0.36885 0.0
C234 C 0.12445 0.11389 0.32607 0.0
C235 C 0.46092 1.02091 0.8708 0.0
C236 C 0.45783 0.96904 0.86751 0.0
C237 C 0.47042 0.04475 0.91434 0.0
C238 C 0.4767 1.01809 0.95716 0.0
H239 H 0.45433 0.04363 0.83936 0.0
H240 H 0.47177 0.08461 0.91446 0.0
S241 S 0.47518 0.88098 0.96808 0.0
N242 N 0.46408 0.89171 0.91103 0.0
N243 N 0.48205 0.93557 0.99249 0.0
C244 C 0.4754 0.96585 0.95411 0.0
C245 C 0.46611 0.94165 0.90958 0.0
C246 C 0.50377 0.63484 0.92327 0.0
C247 C 0.50705 0.5949 0.95484 0.0
C248 C 0.50734 0.62663 0.87431 0.0
C249 C 0.51507 0.57821 0.85563 0.0
H250 H 0.50162 0.67254 0.93652 0.0
H251 H 0.5063 0.65846 0.85098 0.0
S252 S 0.52246 0.46136 0.92451 0.0
N253 N 0.51438 0.50559 0.96488 0.0
N254 N 0.52256 0.48994 0.87276 0.0
C255 C 0.51523 0.53799 0.88699 0.0
C256 C 0.51102 0.54646 0.93679 0.0
C257 C 0.93318 0.61394 0.35013 0.0
C258 C 0.97635 0.58563 0.37226 0.0
C259 C 0.93985 0.63511 0.30545 0.0
C260 C 0.99005 0.62883 0.28151 0.0
H261 H 0.89353 0.61862 0.36688 0.0
H262 H 0.9048 0.65468 0.28849 0.0
S263 S 0.11691 0.56137 0.32711 0.0
N264 N 0.07179 0.55533 0.36952 0.0
N265 N 0.08454 0.59462 0.28495 0.0
C266 C 0.03437 0.6028 0.30471 0.0
C267 C 0.02742 0.58117 0.35028 0.0
C268 C 0.27854 0.1253 0.18305 0.0
C269 C 0.26343 0.17668 0.18625 0.0
C270 C 0.32784 0.10656 0.16183 0.0
C271 C 0.36449 0.13817 0.14226 0.0
H272 H 0.25189 0.09905 0.19698 0.0
H273 H 0.33726 0.06678 0.16082 0.0
S274 S 0.34617 0.27581 0.1428 0.0
N275 N 0.29096 0.25891 0.16917 0.0
N276 N 0.38234 0.22387 0.12839 0.0
C277 C 0.34983 0.18963 0.14483 0.0
C278 C 0.29981 0.20876 0.1669 0.0
C279 C 0.2196 0.95392 0.64696 0.0
C280 C 0.25765 0.98632 0.66223 0.0
C281 C 0.17961 0.96914 0.61306 0.0
C282 C 0.17611 1.01752 0.5943 0.0
H283 H 0.21855 0.91787 0.66339 0.0
H284 H 0.14874 0.94432 0.60448 0.0
S285 S 0.27119 0.11359 0.619 0.0
N286 N 0.29334 0.06641 0.65297 0.0
N287 N 0.21815 0.09541 0.58976 0.0
C288 C 0.21668 0.04869 0.60694 0.0
C289 C 0.25748 1.03298 0.64094 0.0
C290 C 0.7783 0.53742 1.00082 0.0
C291 C 0.74434 0.56134 1.03553 0.0
C292 C 0.83171 0.55051 0.99346 0.0
C293 C 0.85321 0.58792 1.02068 0.0
H294 H 0.76355 0.50822 0.97924 0.0
H295 H 0.85675 0.53019 0.96726 0.0
S296 S 0.78027 0.66286 0.11524 0.0
N297 N 0.73604 0.62445 0.09702 0.0
N298 N 0.83503 0.6502 0.08246 0.0
C299 C 0.81896 0.61302 0.05459 0.0
C300 C 0.76498 0.59946 0.06222 0.0
C301 C 0.78576 0.59123 0.59276 0.0
C302 C 0.80381 0.62649 0.5612 0.0
C303 C 0.73061 0.59258 0.60607 0.0
C304 C 0.69173 0.62875 0.58759 0.0
H305 H 0.81433 0.56224 0.60681 0.0
H306 H 0.71803 0.56397 0.6294 0.0
S307 S 0.71871 0.72977 0.50427 0.0
N308 N 0.77862 0.69871 0.51221 0.0
N309 N 0.67582 0.70165 0.53751 0.0
C310 C 0.70975 0.66476 0.55685 0.0
C311 C 0.76553 0.66348 0.54351 0.0
C312 C 0.07694 0.41802 0.16004 0.0
C313 C 0.09021 0.37324 0.1359 0.0
C314 C 0.06248 0.46241 0.13541 0.0
C315 C 0.06039 0.46414 0.08531 0.0
H316 H 0.07646 0.41861 0.19849 0.0
H317 H 0.05237 0.49565 0.15609 0.0
S318 S 0.09236 0.35627 1.00544 0.0
N319 N 0.10081 0.33281 0.05932 0.0
N320 N 0.07428 0.41596 1.01266 0.0
C321 C 0.07447 0.41937 0.06074 0.0
C322 C 0.08911 0.37406 0.08607 0.0
C323 C 0.63419 0.39835 1.01539 0.0
C324 C 0.61243 0.42974 1.05177 0.0
C325 C 0.61942 0.34967 1.01086 0.0
C326 C 0.58171 0.33114 1.042 0.0
H327 H 0.66204 0.41177 0.98972 0.0
H328 H 0.63737 0.3264 0.98276 0.0
S329 S 0.51622 0.39632 0.14519 0.0
N330 N 0.55408 0.43718 0.1214 0.0
N331 N 0.52508 0.3463 0.1116 0.0
C332 C 0.5601 0.36171 0.07869 0.0
C333 C 0.57575 0.41087 0.08388 0.0
C334 C 0.9643 0.7508 0.55349 0.0
C335 C 0.95915 0.71894 0.51468 0.0
C336 C 0.97578 0.79993 0.54661 0.0
C337 C 0.98285 0.81865 0.50076 0.0
H338 H 0.95765 0.73809 0.58927 0.0
H339 H 0.97767 0.82392 0.57728 0.0
S340 S 0.97521 0.75043 0.38746 0.0
N341 N 0.96295 0.70957 0.42863 0.0
N342 N 0.98608 0.80186 0.41625 0.0
C343 C 0.98033 0.78685 0.46181 0.0
C344 C 0.96809 0.7369 0.46864 0.0
C345 C 0.47491 0.79835 0.74765 0.0
C346 C 0.46242 0.84482 0.72613 0.0
C347 C 0.48841 0.75517 0.72036 0.0
C348 C 0.4902 0.75612 0.67007 0.0
H349 H 0.47192 0.79485 0.78581 0.0
H350 H 0.49625 0.72039 0.73909 0.0
S351 S 0.46684 0.86958 0.59646 0.0
N352 N 0.4574 0.88973 0.65139 0.0
N353 N 0.48205 0.80917 0.60057 0.0
C354 C 0.4801 0.80281 0.64831 0.0
C355 C 0.46648 0.84677 0.6761 0.0
C356 C 0.95284 0.94615 0.72407 0.0
C357 C 0.96088 0.96954 0.76792 0.0
C358 C 0.96123 0.97023 0.68033 0.0
C359 C 0.97762 1.01915 0.67812 0.0
H360 H 0.93776 0.90975 0.72348 0.0
H361 H 0.95388 0.9504 0.64785 0.0
S362 S 1.00798 0.09544 0.78307 0.0
N363 N 0.98918 0.04359 0.80615 0.0
N364 N 1.00445 0.08847 0.72496 0.0
C365 C 0.98728 0.04222 0.72187 0.0
C366 C 0.97911 1.01762 0.76623 0.0
C367 C 0.61097 0.1974 0.27347 0.0
C368 C 0.62869 0.167 0.31201 0.0
C369 C 0.59093 0.17747 0.23134 0.0
C370 C 0.5868 0.12612 0.2258 0.0
H371 H 0.61254 0.23717 0.27589 0.0
H372 H 0.57784 0.20285 0.20306 0.0
S373 S 0.62783 1.03013 0.31614 0.0
N374 N 0.64109 0.0827 0.34173 0.0
N375 N 0.60314 0.0452 0.26303 0.0
C376 C 0.60472 0.09519 0.26403 0.0
C377 C 0.62576 0.11556 0.30683 0.0
C378 C 0.44832 0.62385 0.2753 0.0
C379 C 0.491 0.59318 0.25535 0.0
C380 C 0.4534 0.64418 0.32067 0.0
C381 C 0.50157 0.63484 0.34737 0.0
H382 H 0.41002 0.6308 0.25639 0.0
H383 H 0.41851 0.66551 0.33592 0.0
S384 S 0.62657 0.55977 0.30878 0.0
N385 N 0.58394 0.5567 0.26363 0.0
N386 N 0.5938 0.59495 0.34924 0.0
C387 C 0.54561 0.6063 0.32655 0.0
C388 C 0.54021 0.58533 0.28037 0.0
C389 C 1.00978 0.63506 0.70449 0.0
C390 C 1.01217 0.59527 0.67268 0.0
C391 C 1.01339 0.62663 0.75343 0.0
C392 C 0.0203 0.57812 0.77187 0.0
H393 H 1.00796 0.67281 0.69148 0.0
H394 H 1.01269 0.65836 0.77694 0.0
S395 S 0.02587 0.46157 0.70227 0.0
N396 N 1.01824 0.506 0.66215 0.0
N397 N 0.02664 0.48992 0.75419 0.0
C398 C 0.01999 0.53807 0.74023 0.0
C399 C 1.01569 0.54676 0.69046 0.0
C400 C 0.76045 0.04274 1.00257 0.0
C401 C 0.76684 0.99671 0.97955 0.0
C402 C 0.71623 0.05474 1.03274 0.0
C403 C 0.67702 1.02094 1.04124 0.0
H404 H 0.78797 0.07086 0.995 0.0
H405 H 0.71123 0.09173 1.04767 0.0
S406 S 0.67821 0.89378 0.99192 0.0
N407 N 0.7328 0.91594 0.96894 0.0
N408 N 0.64976 0.93801 1.02645 0.0
C409 C 0.68508 0.97341 1.02081 0.0
C410 C 0.72999 0.96144 0.98957 0.0
C411 C 0.77891 0.12502 0.45016 0.0
C412 C 0.76457 0.17654 0.44738 0.0
C413 C 0.82804 0.10555 0.4714 0.0
C414 C 0.86527 0.13655 0.49134 0.0
H415 H 0.75179 0.09925 0.43584 0.0
H416 H 0.8369 0.0657 0.47206 0.0
S417 S 0.8488 0.27429 0.49219 0.0
N418 N 0.79318 0.25823 0.46545 0.0
N419 N 0.88439 0.22189 0.50616 0.0
C420 C 0.85133 0.18817 0.48924 0.0
C421 C 0.80143 0.20802 0.46721 0.0
C422 C 0.26525 0.60836 0.10548 0.0
C423 C 0.30472 0.61265 0.07031 0.0
C424 C 0.20976 0.61108 0.09401 0.0
C425 C 0.19158 0.61744 1.04678 0.0
H426 H 0.27726 0.60462 0.14242 0.0
H427 H 0.18085 0.60807 0.12252 0.0
S428 S 0.27929 0.62915 0.94144 0.0
N429 N 0.32256 0.62323 0.98646 0.0
N430 N 0.21793 0.62655 0.96439 0.0
C431 C 0.23084 0.6204 1.01102 0.0
C432 C 0.28749 0.61861 1.02294 0.0
C433 C 0.27998 0.53754 0.62401 0.0
C434 C 0.24638 0.55957 0.58793 0.0
C435 C 0.33311 0.55141 0.63156 0.0
C436 C 0.35468 0.58771 0.60318 0.0
H437 H 0.26501 0.50951 0.64673 0.0
H438 H 0.35776 0.5328 0.65916 0.0
S439 S 0.2828 0.65657 0.50388 0.0
N440 N 0.23855 0.619 0.52337 0.0
N441 N 0.33712 0.64613 0.53798 0.0
C442 C 0.32092 0.61049 0.56742 0.0
C443 C 0.2672 0.59615 0.55967 0.0
C444 C 1.00819 0.82404 0.91253 0.0
C445 C 0.95278 0.83952 0.9039 0.0
C446 C 0.024 0.78182 0.94081 0.0
C447 C 0.98514 0.75368 0.96236 0.0
H448 H 0.0396 0.84529 0.89816 0.0
H449 H 0.067 0.77115 0.94593 0.0
S450 S 0.83546 0.77405 0.94692 0.0
N451 N 0.85939 0.81929 0.91624 0.0
N452 N 0.88925 0.74198 0.96986 0.0
C453 C 0.93 0.76779 0.95297 0.0
C454 C 0.91385 0.81006 0.92381 0.0
C455 C 0.40855 0.75768 0.13943 0.0
C456 C 0.44382 0.72515 0.11273 0.0
C457 C 0.42166 0.80578 0.14938 0.0
C458 C 0.47041 0.82295 0.13281 0.0
H459 H 0.37079 0.74564 0.15308 0.0
H460 H 0.39319 0.82991 0.1698 0.0
S461 S 0.57561 0.752 0.06024 0.0
N462 N 0.52912 0.71272 0.06991 0.0
N463 N 0.55348 0.80392 0.08739 0.0
C464 C 0.50619 0.79055 0.10623 0.0
C465 C 0.49292 0.74139 0.09645 0.0
C466 C 0.13551 0.39829 0.61266 0.0
C467 C 0.11226 0.42922 0.57648 0.0
C468 C 0.12093 0.34968 0.61823 0.0
C469 C 0.0819 0.33068 0.58838 0.0
H470 H 0.16454 0.41198 0.63734 0.0
H471 H 0.14016 0.32679 0.64609 0.0
S472 S 1.01187 0.39458 0.48628 0.0
N473 N 0.05076 0.43573 0.50849 0.0
N474 N 0.02218 0.34501 0.52024 0.0
C475 C 0.05862 0.36084 0.55199 0.0
C476 C 0.07405 0.40995 0.54574 0.0
C477 C 0.5885 0.37868 0.5434 0.0
C478 C 0.59199 0.37597 0.49366 0.0
C479 C 0.57441 0.42417 0.56672 0.0
C480 C 0.56257 0.46866 0.54116 0.0
H481 H 0.59543 0.34526 0.56441 0.0
H482 H 0.57192 0.42422 0.60508 0.0
S483 S 0.56659 0.48058 0.40967 0.0
N484 N 0.58314 0.42111 0.41952 0.0
N485 N 0.55669 0.50615 0.46248 0.0
C486 C 0.56675 0.46609 0.49118 0.0
C487 C 0.58137 0.41991 0.4677 0.0
loop_
_geom_bond_atom_site_label_1
_geom_bond_atom_site_label_2
_geom_bond_distance
_geom_bond_site_symmetry_2
_ccdc_geom_bond_type
H0 C3 0.929 . S
H1 C6 0.929 . S
H2 C8 0.930 . S
C3 H0 0.929 . S
C3 C4 1.398 . S
C3 C5 1.396 . S
C4 C3 1.398 . S
C4 C8 1.407 . S
C5 C3 1.396 . S
C5 C6 1.394 . S
C6 H1 0.929 . S
C6 C5 1.394 . S
C6 C7 1.382 . S
C7 C6 1.382 . S
C7 C8 1.392 . S
C7 N9 1.420 . S
C8 H2 0.930 . S
C8 C4 1.407 . S
C8 C7 1.392 . S
N9 C7 1.420 . S
N9 C10 1.244 . S
C10 N9 1.244 . S
H11 C14 0.929 . S
H12 C17 0.929 . S
H13 C19 0.930 . S
C14 H11 0.929 . S
C14 C15 1.398 . S
C14 C16 1.396 . S
C15 C14 1.398 . S
C15 C19 1.407 . S
C16 C14 1.396 . S
C16 C17 1.394 . S
C17 H12 0.929 . S
C17 C16 1.394 . S
C17 C18 1.382 . S
C18 C17 1.382 . S
C18 C19 1.392 . S
C18 N20 1.420 . S
C19 H13 0.930 . S
C19 C15 1.407 . S
C19 C18 1.392 . S
N20 C18 1.420 . S
N20 C21 1.244 . S
C21 N20 1.244 . S
H22 C25 0.929 1_554 S
H23 C28 0.929 . S
H24 C30 0.930 . S
C25 H22 0.929 1_556 S
C25 C26 1.398 . S
C25 C27 1.396 . S
C26 C25 1.398 . S
C26 C30 1.407 . S
C27 C25 1.396 . S
C27 C28 1.394 . S
C28 H23 0.929 . S
C28 C27 1.394 . S
C28 C29 1.382 . S
C29 C28 1.382 . S
C29 C30 1.392 . S
C29 N31 1.420 . S
C30 H24 0.930 . S
C30 C26 1.407 . S
C30 C29 1.392 . S
N31 C29 1.420 . S
N31 C32 1.244 . S
C32 N31 1.244 . S
H33 C36 0.929 . S
H34 C39 0.929 . S
H35 C41 0.930 . S
C36 H33 0.929 . S
C36 C37 1.398 . S
C36 C38 1.396 . S
C37 C36 1.398 . S
C37 C41 1.407 . S
C38 C36 1.396 . S
C38 C39 1.394 . S
C39 H34 0.929 . S
C39 C38 1.394 . S
C39 C40 1.382 . S
C40 C39 1.382 . S
C40 C41 1.392 . S
C40 N42 1.420 . S
C41 H35 0.930 . S
C41 C37 1.407 . S
C41 C40 1.392 . S
N42 C40 1.420 . S
N42 C43 1.244 . S
C43 N42 1.244 . S
H44 C47 0.929 . S
H45 C50 0.929 . S
H46 C52 0.930 . S
C47 H44 0.929 . S
C47 C48 1.398 . S
C47 C49 1.396 . S
C48 C47 1.398 . S
C48 C52 1.407 . S
C49 C47 1.396 . S
C49 C50 1.394 . S
C50 H45 0.929 . S
C50 C49 1.394 . S
C50 C51 1.382 . S
C51 C50 1.382 . S
C51 C52 1.392 . S
C51 N53 1.420 . S
C52 H46 0.930 . S
C52 C48 1.407 . S
C52 C51 1.392 . S
N53 C51 1.420 . S
N53 C54 1.244 . S
C54 N53 1.244 . S
H55 C58 0.929 . S
H56 C61 0.929 . S
H57 C63 0.930 . S
C58 H55 0.929 . S
C58 C59 1.398 . S
C58 C60 1.396 . S
C59 C58 1.398 . S
C59 C63 1.407 . S
C60 C58 1.396 . S
C60 C61 1.394 . S
C61 H56 0.929 . S
C61 C60 1.394 . S
C61 C62 1.382 . S
C62 C61 1.382 . S
C62 C63 1.392 . S
C62 N64 1.420 . S
C63 H57 0.930 . S
C63 C59 1.407 . S
C63 C62 1.392 . S
N64 C62 1.420 . S
N64 C65 1.244 . S
C65 N64 1.244 . S
H66 C69 0.929 . S
H67 C72 0.929 . S
H68 C74 0.930 . S
C69 H66 0.929 . S
C69 C70 1.398 . S
C69 C71 1.396 . S
C70 C69 1.398 . S
C70 C74 1.407 . S
C71 C69 1.396 . S
C71 C72 1.394 . S
C72 H67 0.929 . S
C72 C71 1.394 . S
C72 C73 1.382 . S
C73 C72 1.382 . S
C73 C74 1.392 . S
C73 N75 1.420 . S
C74 H68 0.930 . S
C74 C70 1.407 . S
C74 C73 1.392 . S
N75 C73 1.420 . S
N75 C76 1.244 . S
C76 N75 1.244 . S
H77 C80 0.929 . S
H78 C83 0.929 . S
H79 C85 0.930 . S
C80 H77 0.929 . S
C80 C81 1.398 . S
C80 C82 1.396 . S
C81 C80 1.398 . S
C81 C85 1.407 . S
C82 C80 1.396 . S
C82 C83 1.394 . S
C83 H78 0.929 . S
C83 C82 1.394 . S
C83 C84 1.382 . S
C84 C83 1.382 . S
C84 C85 1.392 . S
C84 N86 1.420 . S
C85 H79 0.930 . S
C85 C81 1.407 . S
C85 C84 1.392 . S
N86 C84 1.420 . S
N86 C87 1.244 . S
C87 N86 1.244 . S
C88 O104 1.251 . S
C88 O106 1.254 . S
N89 C90 1.333 . S
N89 C94 1.307 . S
N89 Zn95 2.020 . S
C90 N89 1.333 . S
C90 C91 1.379 . S
C90 H108 0.952 . S
C91 C90 1.379 . S
C91 C92 1.390 . S
C91 H118 0.949 . S
C92 C91 1.390 . S
C92 C93 1.357 . S
C93 C92 1.357 . S
C93 C94 1.370 . S
C93 H119 0.950 . S
C94 N89 1.307 . S
C94 C93 1.370 . S
C94 H112 0.948 1_455 S
Zn95 N89 2.020 . S
Zn95 O104 2.039 . S
Zn95 O110 2.034 . S
Zn95 O114 2.025 1_455 S
Zn95 O116 2.024 1_455 S
C96 O115 1.246 . S
C96 O116 1.249 . S
N97 C98 1.307 . S
N97 C99 1.333 . S
N97 Zn103 2.020 . S
C98 N97 1.307 . S
C98 C102 1.370 . S
C98 H109 0.948 1_655 S
C99 N97 1.333 . S
C99 C100 1.379 . S
C99 H107 0.952 . S
C100 C99 1.379 . S
C100 C101 1.390 . S
C100 H120 0.949 . S
C101 C100 1.390 . S
C101 C102 1.357 . S
C102 C98 1.370 . S
C102 C101 1.357 . S
C102 H121 0.950 . S
Zn103 N97 2.020 . S
Zn103 O106 2.025 1_665 S
Zn103 O111 2.024 1_655 S
Zn103 O113 2.039 . S
Zn103 O115 2.034 1_565 S
O104 C88 1.251 . S
O104 Zn95 2.039 . S
C105 O110 1.246 . S
C105 O111 1.249 1_545 S
O106 C88 1.254 . S
O106 Zn103 2.025 1_445 S
H107 C99 0.952 . S
H108 C90 0.952 . S
H109 C98 0.948 1_455 S
O110 Zn95 2.034 . S
O110 C105 1.246 . S
O111 Zn103 2.024 1_455 S
O111 C105 1.249 1_565 S
H112 C94 0.948 1_655 S
O113 Zn103 2.039 . S
O113 C117 1.251 1_565 S
O114 Zn95 2.025 1_655 S
O114 C117 1.254 . S
O115 C96 1.246 . S
O115 Zn103 2.034 1_545 S
O116 Zn95 2.024 1_655 S
O116 C96 1.249 . S
C117 O113 1.251 1_545 S
C117 O114 1.254 . S
H118 C91 0.949 . S
H119 C93 0.950 . S
H120 C100 0.949 . S
H121 C102 0.950 . S
C122 O138 1.251 . S
C122 O140 1.254 1_546 S
N123 C124 1.333 . S
N123 C128 1.307 . S
N123 Zn129 2.020 1_556 S
C124 N123 1.333 . S
C124 C125 1.379 . S
C124 H142 0.952 . S
C125 C124 1.379 . S
C125 C126 1.390 . S
C125 H152 0.949 . S
C126 C125 1.390 . S
C126 C127 1.357 . S
C127 C126 1.357 . S
C127 C128 1.370 . S
C127 H153 0.950 . S
C128 N123 1.307 . S
C128 C127 1.370 . S
C128 H146 0.948 . S
Zn129 N123 2.020 1_554 S
Zn129 O138 2.039 1_554 S
Zn129 O144 2.034 . S
Zn129 O148 2.025 . S
Zn129 O150 2.024 1_554 S
C130 O149 1.246 1_545 S
C130 O150 1.249 . S
N131 C132 1.307 . S
N131 C133 1.333 . S
N131 Zn137 2.020 . S
C132 N131 1.307 . S
C132 C136 1.370 . S
C132 H143 0.948 . S
C133 N131 1.333 . S
C133 C134 1.379 . S
C133 H141 0.952 . S
C134 C133 1.379 . S
C134 C135 1.390 . S
C134 H154 0.949 . S
C135 C134 1.390 . S
C135 C136 1.357 . S
C136 C132 1.370 . S
C136 C135 1.357 . S
C136 H155 0.950 . S
Zn137 N131 2.020 . S
Zn137 O140 2.025 . S
Zn137 O145 2.024 1_565 S
Zn137 O147 2.039 1_565 S
Zn137 O149 2.034 1_554 S
O138 C122 1.251 . S
O138 Zn129 2.039 1_556 S
C139 O144 1.246 . S
C139 O145 1.249 . S
O140 C122 1.254 1_564 S
O140 Zn137 2.025 . S
H141 C133 0.952 . S
H142 C124 0.952 . S
H143 C132 0.948 . S
O144 Zn129 2.034 . S
O144 C139 1.246 . S
O145 Zn137 2.024 1_545 S
O145 C139 1.249 . S
H146 C128 0.948 . S
O147 Zn137 2.039 1_545 S
O147 C151 1.251 . S
O148 Zn129 2.025 . S
O148 C151 1.254 . S
O149 C130 1.246 1_565 S
O149 Zn137 2.034 1_556 S
O150 Zn129 2.024 1_556 S
O150 C130 1.249 . S
C151 O147 1.251 . S
C151 O148 1.254 . S
H152 C125 0.949 . S
H153 C127 0.950 . S
H154 C134 0.949 . S
H155 C136 0.950 . S
C156 O172 1.251 . S
C156 O174 1.254 . S
N157 C158 1.333 . S
N157 C162 1.307 . S
N157 Zn163 2.020 . S
C158 N157 1.333 . S
C158 C159 1.379 . S
C158 H176 0.952 . S
C159 C158 1.379 . S
C159 C160 1.390 . S
C159 H186 0.949 . S
C160 C159 1.390 . S
C160 C161 1.357 . S
C161 C160 1.357 . S
C161 C162 1.370 . S
C161 H187 0.950 . S
C162 N157 1.307 . S
C162 C161 1.370 . S
C162 H180 0.948 . S
Zn163 N157 2.020 . S
Zn163 O172 2.039 . S
Zn163 O178 2.034 . S
Zn163 O182 2.025 . S
Zn163 O184 2.024 . S
C164 O183 1.246 . S
C164 O184 1.249 . S
N165 C166 1.307 . S
N165 C167 1.333 . S
N165 Zn171 2.020 . S
C166 N165 1.307 . S
C166 C170 1.370 . S
C166 H177 0.948 . S
C167 N165 1.333 . S
C167 C168 1.379 . S
C167 H175 0.952 . S
C168 C167 1.379 . S
C168 C169 1.390 . S
C168 H188 0.949 . S
C169 C168 1.390 . S
C169 C170 1.357 . S
C170 C166 1.370 . S
C170 C169 1.357 . S
C170 H189 0.950 . S
Zn171 N165 2.020 . S
Zn171 O174 2.025 . S
Zn171 O179 2.024 . S
Zn171 O181 2.039 . S
Zn171 O183 2.034 . S
O172 C156 1.251 . S
O172 Zn163 2.039 . S
C173 O178 1.246 . S
C173 O179 1.249 . S
O174 C156 1.254 . S
O174 Zn171 2.025 . S
H175 C167 0.952 . S
H176 C158 0.952 . S
H177 C166 0.948 . S
O178 Zn163 2.034 . S
O178 C173 1.246 . S
O179 Zn171 2.024 . S
O179 C173 1.249 . S
H180 C162 0.948 . S
O181 Zn171 2.039 . S
O181 C185 1.251 . S
O182 Zn163 2.025 . S
O182 C185 1.254 . S
O183 C164 1.246 . S
O183 Zn171 2.034 . S
O184 Zn163 2.024 . S
O184 C164 1.249 . S
C185 O181 1.251 . S
C185 O182 1.254 . S
H186 C159 0.949 . S
H187 C161 0.950 . S
H188 C168 0.949 . S
H189 C170 0.950 . S
C190 O206 1.251 1_556 S
C190 O208 1.254 1_655 S
N191 C192 1.333 . S
N191 C196 1.307 . S
N191 Zn197 2.020 . S
C192 N191 1.333 . S
C192 C193 1.379 . S
C192 H210 0.952 . S
C193 C192 1.379 . S
C193 C194 1.390 . S
C193 H220 0.949 . S
C194 C193 1.390 . S
C194 C195 1.357 . S
C195 C194 1.357 . S
C195 C196 1.370 . S
C195 H221 0.950 . S
C196 N191 1.307 . S
C196 C195 1.370 . S
C196 H214 0.948 . S
Zn197 N191 2.020 . S
Zn197 O206 2.039 . S
Zn197 O212 2.034 1_655 S
Zn197 O216 2.025 1_655 S
Zn197 O218 2.024 . S
C198 O217 1.246 . S
C198 O218 1.249 1_556 S
N199 C200 1.307 . S
N199 C201 1.333 . S
N199 Zn205 2.020 . S
C200 N199 1.307 . S
C200 C204 1.370 . S
C200 H211 0.948 . S
C201 N199 1.333 . S
C201 C202 1.379 . S
C201 H209 0.952 . S
C202 C201 1.379 . S
C202 C203 1.390 . S
C202 H222 0.949 . S
C203 C202 1.390 . S
C203 C204 1.357 . S
C204 C200 1.370 . S
C204 C203 1.357 . S
C204 H223 0.950 . S
Zn205 N199 2.020 . S
Zn205 O208 2.025 . S
Zn205 O213 2.024 . S
Zn205 O215 2.039 . S
Zn205 O217 2.034 1_455 S
O206 C190 1.251 1_554 S
O206 Zn197 2.039 . S
C207 O212 1.246 . S
C207 O213 1.249 1_554 S
O208 C190 1.254 1_455 S
O208 Zn205 2.025 . S
H209 C201 0.952 . S
H210 C192 0.952 . S
H211 C200 0.948 . S
O212 Zn197 2.034 1_455 S
O212 C207 1.246 . S
O213 Zn205 2.024 . S
O213 C207 1.249 1_556 S
H214 C196 0.948 . S
O215 Zn205 2.039 . S
O215 C219 1.251 1_556 S
O216 Zn197 2.025 1_455 S
O216 C219 1.254 . S
O217 C198 1.246 . S
O217 Zn205 2.034 1_655 S
O218 Zn197 2.024 . S
O218 C198 1.249 1_554 S
C219 O215 1.251 1_554 S
C219 O216 1.254 . S
H220 C193 0.949 . S
H221 C195 0.950 . S
H222 C202 0.949 . S
H223 C204 0.950 . S
C224 C225 1.369 . S
C224 C226 1.419 . S
C224 H228 0.930 . S
C225 C224 1.369 . S
C225 C234 1.429 . S
C226 C224 1.419 . S
C226 C227 1.363 . S
C226 H229 0.929 . S
C227 C226 1.363 . S
C227 C233 1.428 . S
H228 C224 0.930 . S
H229 C226 0.929 . S
S230 N231 1.613 1_565 S
S230 N232 1.610 1_565 S
N231 S230 1.613 1_545 S
N231 C234 1.350 . S
N232 S230 1.610 1_545 S
N232 C233 1.351 . S
C233 C227 1.428 . S
C233 N232 1.351 . S
C233 C234 1.434 . S
C234 C225 1.429 . S
C234 N231 1.350 . S
C234 C233 1.434 . S
C235 C236 1.369 . S
C235 C237 1.419 1_565 S
C235 H239 0.930 1_565 S
C236 C235 1.369 . S
C236 C245 1.429 . S
C237 C235 1.419 1_545 S
C237 C238 1.363 1_545 S
C237 H240 0.929 . S
C238 C237 1.363 1_565 S
C238 C244 1.428 . S
H239 C235 0.930 1_545 S
H240 C237 0.929 . S
S241 N242 1.613 . S
S241 N243 1.610 . S
N242 S241 1.613 . S
N242 C245 1.350 . S
N243 S241 1.610 . S
N243 C244 1.351 . S
C244 C238 1.428 . S
C244 N243 1.351 . S
C244 C245 1.434 . S
C245 C236 1.429 . S
C245 N242 1.350 . S
C245 C244 1.434 . S
C246 C247 1.369 . S
C246 C248 1.419 . S
C246 H250 0.930 . S
C247 C246 1.369 . S
C247 C256 1.429 . S
C248 C246 1.419 . S
C248 C249 1.363 . S
C248 H251 0.929 . S
C249 C248 1.363 . S
C249 C255 1.428 . S
H250 C246 0.930 . S
H251 C248 0.929 . S
S252 N253 1.613 . S
S252 N254 1.610 . S
N253 S252 1.613 . S
N253 C256 1.350 . S
N254 S252 1.610 . S
N254 C255 1.351 . S
C255 C249 1.428 . S
C255 N254 1.351 . S
C255 C256 1.434 . S
C256 C247 1.429 . S
C256 N253 1.350 . S
C256 C255 1.434 . S
C257 C258 1.369 . S
C257 C259 1.419 . S
C257 H261 0.930 . S
C258 C257 1.369 . S
C258 C267 1.429 . S
C259 C257 1.419 . S
C259 C260 1.363 . S
C259 H262 0.929 . S
C260 C259 1.363 . S
C260 C266 1.428 . S
H261 C257 0.930 . S
H262 C259 0.929 . S
S263 N264 1.613 . S
S263 N265 1.610 . S
N264 S263 1.613 . S
N264 C267 1.350 . S
N265 S263 1.610 . S
N265 C266 1.351 . S
C266 C260 1.428 . S
C266 N265 1.351 . S
C266 C267 1.434 . S
C267 C258 1.429 . S
C267 N264 1.350 . S
C267 C266 1.434 . S
C268 C269 1.369 . S
C268 C270 1.419 . S
C268 H272 0.930 . S
C269 C268 1.369 . S
C269 C278 1.429 . S
C270 C268 1.419 . S
C270 C271 1.363 . S
C270 H273 0.929 . S
C271 C270 1.363 . S
C271 C277 1.428 . S
H272 C268 0.930 . S
H273 C270 0.929 . S
S274 N275 1.613 1_556 S
S274 N276 1.610 1_556 S
N275 S274 1.613 1_554 S
N275 C278 1.350 . S
N276 S274 1.610 1_554 S
N276 C277 1.351 . S
C277 C271 1.428 . S
C277 N276 1.351 . S
C277 C278 1.434 . S
C278 C269 1.429 . S
C278 N275 1.350 . S
C278 C277 1.434 . S
C279 C280 1.369 . S
C279 C281 1.419 . S
C279 H283 0.930 . S
C280 C279 1.369 . S
C280 C289 1.429 1_565 S
C281 C279 1.419 . S
C281 C282 1.363 . S
C281 H284 0.929 . S
C282 C281 1.363 . S
C282 C288 1.428 1_565 S
H283 C279 0.930 . S
H284 C281 0.929 . S
S285 N286 1.613 . S
S285 N287 1.610 . S
N286 S285 1.613 . S
N286 C289 1.350 . S
N287 S285 1.610 . S
N287 C288 1.351 . S
C288 C282 1.428 1_545 S
C288 N287 1.351 . S
C288 C289 1.434 . S
C289 C280 1.429 1_545 S
C289 N286 1.350 . S
C289 C288 1.434 . S
C290 C291 1.369 . S
C290 C292 1.419 . S
C290 H294 0.930 . S
C291 C290 1.369 . S
C291 C300 1.429 . S
C292 C290 1.419 . S
C292 C293 1.363 . S
C292 H295 0.929 . S
C293 C292 1.363 . S
C293 C299 1.428 . S
H294 C290 0.930 . S
H295 C292 0.929 . S
S296 N297 1.613 . S
S296 N298 1.610 . S
N297 S296 1.613 . S
N297 C300 1.350 . S
N298 S296 1.610 . S
N298 C299 1.351 . S
C299 C293 1.428 . S
C299 N298 1.351 . S
C299 C300 1.434 . S
C300 C291 1.429 . S
C300 N297 1.350 . S
C300 C299 1.434 . S
C301 C302 1.369 . S
C301 C303 1.419 . S
C301 H305 0.930 . S
C302 C301 1.369 . S
C302 C311 1.429 . S
C303 C301 1.419 . S
C303 C304 1.363 . S
C303 H306 0.929 . S
C304 C303 1.363 . S
C304 C310 1.428 . S
H305 C301 0.930 . S
H306 C303 0.929 . S
S307 N308 1.613 . S
S307 N309 1.610 . S
N308 S307 1.613 . S
N308 C311 1.350 . S
N309 S307 1.610 . S
N309 C310 1.351 . S
C310 C304 1.428 . S
C310 N309 1.351 . S
C310 C311 1.434 . S
C311 C302 1.429 . S
C311 N308 1.350 . S
C311 C310 1.434 . S
C312 C313 1.369 . S
C312 C314 1.419 . S
C312 H316 0.930 . S
C313 C312 1.369 . S
C313 C322 1.429 . S
C314 C312 1.419 . S
C314 C315 1.363 . S
C314 H317 0.929 . S
C315 C314 1.363 . S
C315 C321 1.428 . S
H316 C312 0.930 . S
H317 C314 0.929 . S
S318 N319 1.613 1_656 S
S318 N320 1.610 . S
N319 S318 1.613 1_454 S
N319 C322 1.350 . S
N320 S318 1.610 . S
N320 C321 1.351 1_656 S
C321 C315 1.428 . S
C321 N320 1.351 1_454 S
C321 C322 1.434 . S
C322 C313 1.429 . S
C322 N319 1.350 . S
C322 C321 1.434 . S
C323 C324 1.369 . S
C323 C325 1.419 . S
C323 H327 0.930 . S
C324 C323 1.369 . S
C324 C333 1.429 1_556 S
C325 C323 1.419 . S
C325 C326 1.363 . S
C325 H328 0.929 . S
C326 C325 1.363 . S
C326 C332 1.428 1_556 S
H327 C323 0.930 . S
H328 C325 0.929 . S
S329 N330 1.613 . S
S329 N331 1.610 . S
N330 S329 1.613 . S
N330 C333 1.350 . S
N331 S329 1.610 . S
N331 C332 1.351 . S
C332 C326 1.428 1_554 S
C332 N331 1.351 . S
C332 C333 1.434 . S
C333 C324 1.429 1_554 S
C333 N330 1.350 . S
C333 C332 1.434 . S
C334 C335 1.369 . S
C334 C336 1.419 . S
C334 H338 0.930 . S
C335 C334 1.369 . S
C335 C344 1.429 . S
C336 C334 1.419 . S
C336 C337 1.363 . S
C336 H339 0.929 . S
C337 C336 1.363 . S
C337 C343 1.428 . S
H338 C334 0.930 . S
H339 C336 0.929 . S
S340 N341 1.613 . S
S340 N342 1.610 . S
N341 S340 1.613 . S
N341 C344 1.350 . S
N342 S340 1.610 . S
N342 C343 1.351 . S
C343 C337 1.428 . S
C343 N342 1.351 . S
C343 C344 1.434 . S
C344 C335 1.429 . S
C344 N341 1.350 . S
C344 C343 1.434 . S
C345 C346 1.369 . S
C345 C347 1.419 . S
C345 H349 0.930 . S
C346 C345 1.369 . S
C346 C355 1.429 . S
C347 C345 1.419 . S
C347 C348 1.363 . S
C347 H350 0.929 . S
C348 C347 1.363 . S
C348 C354 1.428 . S
H349 C345 0.930 . S
H350 C347 0.929 . S
S351 N352 1.613 . S
S351 N353 1.610 . S
N352 S351 1.613 . S
N352 C355 1.350 . S
N353 S351 1.610 . S
N353 C354 1.351 . S
C354 C348 1.428 . S
C354 N353 1.351 . S
C354 C355 1.434 . S
C355 C346 1.429 . S
C355 N352 1.350 . S
C355 C354 1.434 . S
C356 C357 1.369 . S
C356 C358 1.419 . S
C356 H360 0.930 . S
C357 C356 1.369 . S
C357 C366 1.429 . S
C358 C356 1.419 . S
C358 C359 1.363 . S
C358 H361 0.929 . S
C359 C358 1.363 . S
C359 C365 1.437 . S
H360 C356 0.930 . S
H361 C358 0.929 . S
S362 N363 1.613 1_545 S
S362 N364 1.610 . S
N363 S362 1.613 1_565 S
N363 C366 1.350 1_455 S
N364 S362 1.610 . S
N364 C365 1.340 1_445 S
C365 C359 1.437 . S
C365 N364 1.340 1_665 S
C365 C366 1.435 . S
C366 C357 1.429 . S
C366 N363 1.350 1_655 S
C366 C365 1.435 . S
C367 C368 1.369 . S
C367 C369 1.419 . S
C367 H371 0.930 . S
C368 C367 1.369 . S
C368 C377 1.429 . S
C369 C367 1.419 . S
C369 C370 1.363 . S
C369 H372 0.929 . S
C370 C369 1.363 . S
C370 C376 1.428 . S
H371 C367 0.930 . S
H372 C369 0.929 . S
S373 N374 1.613 . S
S373 N375 1.610 . S
N374 S373 1.613 . S
N374 C377 1.350 . S
N375 S373 1.610 . S
N375 C376 1.351 . S
C376 C370 1.428 . S
C376 N375 1.351 . S
C376 C377 1.434 . S
C377 C368 1.429 . S
C377 N374 1.350 . S
C377 C376 1.434 . S
C378 C379 1.369 . S
C378 C380 1.419 . S
C378 H382 0.930 . S
C379 C378 1.369 . S
C379 C388 1.429 . S
C380 C378 1.419 . S
C380 C381 1.363 . S
C380 H383 0.929 . S
C381 C380 1.363 . S
C381 C387 1.428 . S
H382 C378 0.930 . S
H383 C380 0.929 . S
S384 N385 1.613 . S
S384 N386 1.610 . S
N385 S384 1.613 . S
N385 C388 1.350 . S
N386 S384 1.610 . S
N386 C387 1.351 . S
C387 C381 1.428 . S
C387 N386 1.351 . S
C387 C388 1.434 . S
C388 C379 1.429 . S
C388 N385 1.350 . S
C388 C387 1.434 . S
C389 C390 1.369 . S
C389 C391 1.419 . S
C389 H393 0.930 . S
C390 C389 1.369 . S
C390 C399 1.429 . S
C391 C389 1.419 . S
C391 C392 1.363 . S
C391 H394 0.929 . S
C392 C391 1.363 . S
C392 C398 1.428 . S
H393 C389 0.930 . S
H394 C391 0.929 . S
S395 N396 1.613 . S
S395 N397 1.610 . S
N396 S395 1.613 . S
N396 C399 1.350 . S
N397 S395 1.610 . S
N397 C398 1.351 . S
C398 C392 1.428 . S
C398 N397 1.351 . S
C398 C399 1.434 . S
C399 C390 1.429 . S
C399 N396 1.350 . S
C399 C398 1.434 . S
C400 C401 1.375 . S
C400 C402 1.416 1_565 S
C400 H404 0.927 1_565 S
C401 C400 1.375 . S
C401 C410 1.429 . S
C402 C400 1.416 1_545 S
C402 C403 1.363 1_545 S
C402 H405 0.929 . S
C403 C402 1.363 1_565 S
C403 C409 1.428 1_556 S
H404 C400 0.927 1_545 S
H405 C402 0.929 . S
S406 N407 1.613 . S
S406 N408 1.610 . S
N407 S406 1.613 . S
N407 C410 1.350 1_554 S
N408 S406 1.610 . S
N408 C409 1.351 . S
C409 C403 1.428 1_554 S
C409 N408 1.351 . S
C409 C410 1.434 1_554 S
C410 C401 1.429 . S
C410 N407 1.350 1_556 S
C410 C409 1.434 1_556 S
C411 C412 1.369 . S
C411 C413 1.419 . S
C411 H415 0.930 . S
C412 C411 1.369 . S
C412 C421 1.429 . S
C413 C411 1.419 . S
C413 C414 1.363 . S
C413 H416 0.929 . S
C414 C413 1.363 . S
C414 C420 1.428 . S
H415 C411 0.930 . S
H416 C413 0.929 . S
S417 N418 1.613 . S
S417 N419 1.610 . S
N418 S417 1.613 . S
N418 C421 1.350 . S
N419 S417 1.610 . S
N419 C420 1.351 . S
C420 C414 1.428 . S
C420 N419 1.351 . S
C420 C421 1.434 . S
C421 C412 1.429 . S
C421 N418 1.350 . S
C421 C420 1.434 . S
C422 C423 1.369 . S
C422 C424 1.419 . S
C422 H426 0.930 . S
C423 C422 1.369 . S
C423 C432 1.429 . S
C424 C422 1.419 . S
C424 C425 1.363 . S
C424 H427 0.929 . S
C425 C424 1.363 . S
C425 C431 1.428 . S
H426 C422 0.930 . S
H427 C424 0.929 . S
S428 N429 1.613 . S
S428 N430 1.610 . S
N429 S428 1.613 . S
N429 C432 1.350 1_556 S
N430 S428 1.610 . S
N430 C431 1.351 1_556 S
C431 C425 1.428 . S
C431 N430 1.351 1_554 S
C431 C432 1.434 . S
C432 C423 1.429 . S
C432 N429 1.350 1_554 S
C432 C431 1.434 . S
C433 C434 1.369 . S
C433 C435 1.419 . S
C433 H437 0.930 . S
C434 C433 1.369 . S
C434 C443 1.429 . S
C435 C433 1.419 . S
C435 C436 1.363 . S
C435 H438 0.929 . S
C436 C435 1.363 . S
C436 C442 1.428 . S
H437 C433 0.930 . S
H438 C435 0.929 . S
S439 N440 1.613 . S
S439 N441 1.610 . S
N440 S439 1.613 . S
N440 C443 1.350 . S
N441 S439 1.610 . S
N441 C442 1.351 . S
C442 C436 1.428 . S
C442 N441 1.351 . S
C442 C443 1.434 . S
C443 C434 1.429 . S
C443 N440 1.350 . S
C443 C442 1.434 . S
C444 C445 1.369 . S
C444 C446 1.419 1_655 S
C444 H448 0.930 1_655 S
C445 C444 1.369 . S
C445 C454 1.429 . S
C446 C444 1.419 1_455 S
C446 C447 1.363 1_455 S
C446 H449 0.929 . S
C447 C446 1.363 1_655 S
C447 C453 1.428 . S
H448 C444 0.930 1_455 S
H449 C446 0.929 . S
S450 N451 1.613 . S
S450 N452 1.610 . S
N451 S450 1.613 . S
N451 C454 1.350 . S
N452 S450 1.610 . S
N452 C453 1.351 . S
C453 C447 1.428 . S
C453 N452 1.351 . S
C453 C454 1.434 . S
C454 C445 1.429 . S
C454 N451 1.350 . S
C454 C453 1.434 . S
C455 C456 1.369 . S
C455 C457 1.419 . S
C455 H459 0.930 . S
C456 C455 1.369 . S
C456 C465 1.429 . S
C457 C455 1.419 . S
C457 C458 1.363 . S
C457 H460 0.929 . S
C458 C457 1.363 . S
C458 C464 1.428 . S
H459 C455 0.930 . S
H460 C457 0.929 . S
S461 N462 1.613 . S
S461 N463 1.610 . S
N462 S461 1.613 . S
N462 C465 1.350 . S
N463 S461 1.610 . S
N463 C464 1.351 . S
C464 C458 1.428 . S
C464 N463 1.351 . S
C464 C465 1.434 . S
C465 C456 1.429 . S
C465 N462 1.350 . S
C465 C464 1.434 . S
C466 C467 1.369 . S
C466 C468 1.419 . S
C466 H470 0.930 . S
C467 C466 1.369 . S
C467 C476 1.429 . S
C468 C466 1.419 . S
C468 C469 1.363 . S
C468 H471 0.929 . S
C469 C468 1.363 . S
C469 C475 1.428 . S
H470 C466 0.930 . S
H471 C468 0.929 . S
S472 N473 1.613 . S
S472 N474 1.610 . S
N473 S472 1.613 . S
N473 C476 1.350 . S
N474 S472 1.610 . S
N474 C475 1.351 . S
C475 C469 1.428 . S
C475 N474 1.351 . S
C475 C476 1.434 . S
C476 C467 1.429 . S
C476 N473 1.350 . S
C476 C475 1.434 . S
C477 C478 1.369 . S
C477 C479 1.419 . S
C477 H481 0.930 . S
C478 C477 1.369 . S
C478 C487 1.429 . S
C479 C477 1.419 . S
C479 C480 1.363 . S
C479 H482 0.929 . S
C480 C479 1.363 . S
C480 C486 1.428 . S
H481 C477 0.930 . S
H482 C479 0.929 . S
S483 N484 1.613 . S
S483 N485 1.610 . S
N484 S483 1.613 . S
N484 C487 1.350 . S
N485 S483 1.610 . S
N485 C486 1.351 . S
C486 C480 1.428 . S
C486 N485 1.351 . S
C486 C487 1.434 . S
C487 C478 1.429 . S
C487 N484 1.350 . S
C487 C486 1.434 . S
C225 C4 2.500 . S
C227 C88 2.506 . S
C236 C16 2.590 . S
C238 C130 2.598 1_565 S
C249 C160 0.811 . S
C247 C32 0.803 . S
C258 C43 0.991 . S
C260 C194 1.023 . S
C271 C151 2.191 . S
C269 C5 2.183 . S
C282 C105 1.694 1_565 S
C280 C21 1.684 . S
C293 C198 1.165 . S
C291 C27 1.155 . S
C304 C164 1.181 . S
C302 C37 1.159 . S
C313 C10 2.185 . S
C315 C219 2.205 . S
C326 C126 1.259 . S
C324 C26 1.238 . S
C335 C38 1.052 . S
C337 C101 1.071 . S
C346 C15 2.351 . S
C348 C185 2.364 . S
C359 C117 2.603 1_565 S
C357 C48 2.595 . S
C368 C59 2.394 . S
C370 C139 2.412 . S
C379 C76 1.007 . S
C381 C169 0.997 . S
C390 C87 0.868 . S
C392 C203 0.885 . S
C401 C54 1.693 . S
C403 C122 1.716 1_565 S
C414 C96 2.149 . S
C412 C60 2.135 . S
C425 C207 1.083 . S
C423 C71 1.056 . S
C436 C173 1.187 . S
C434 C82 1.179 . S
C445 C49 2.473 . S
C447 C190 2.472 . S
C458 C135 1.037 . S
C456 C70 1.036 . S
C469 C92 1.226 . S
C467 C81 1.198 . S
C478 C65 2.146 . S
C480 C156 2.157 . S
