# Generated by pormake.
# Topology anh, (6,3)-cn, num edge types: 1
# Building blocks:
#     Node 0, Type 0, BuildingBlock: BETDAH_clean_sbu_0, # of connection points: 6
#     Node 1, Type 0, BuildingBlock: BETDAH_clean_sbu_0, # of connection points: 6
#     Node 2, Type 0, BuildingBlock: BETDAH_clean_sbu_0, # of connection points: 6
#     Node 3, Type 1, BuildingBlock: BELTOD_clean_linker_0, # of connection points: 3
#     Node 4, Type 1, BuildingBlock: BELTOD_clean_linker_0, # of connection points: 3
#     Node 5, Type 1, BuildingBlock: BELTOD_clean_linker_0, # of connection points: 3
#     Node 6, Type 1, BuildingBlock: BELTOD_clean_linker_0, # of connection points: 3
#     Node 7, Type 1, BuildingBlock: BELTOD_clean_linker_0, # of connection points: 3
#     Node 8, Type 1, BuildingBlock: BELTOD_clean_linker_0, # of connection points: 3
#     Edge 9, Type (0, 1), BuildingBlock: CIFDUS_clean_linker_0, # of connection points: 2
#     Edge 10, Type (0, 1), BuildingBlock: CIFDUS_clean_linker_0, # of connection points: 2
#     Edge 11, Type (0, 1), BuildingBlock: CIFDUS_clean_linker_0, # of connection points: 2
#     Edge 12, Type (0, 1), BuildingBlock: CIFDUS_clean_linker_0, # of connection points: 2
#     Edge 13, Type (0, 1), BuildingBlock: CIFDUS_clean_linker_0, # of connection points: 2
#     Edge 14, Type (0, 1), BuildingBlock: CIFDUS_clean_linker_0, # of connection points: 2
#     Edge 15, Type (0, 1), BuildingBlock: CIFDUS_clean_linker_0, # of connection points: 2
#     Edge 16, Type (0, 1), BuildingBlock: CIFDUS_clean_linker_0, # of connection points: 2
#     Edge 17, Type (0, 1), BuildingBlock: CIFDUS_clean_linker_0, # of connection points: 2
#     Edge 18, Type (0, 1), BuildingBlock: CIFDUS_clean_linker_0, # of connection points: 2
#     Edge 19, Type (0, 1), BuildingBlock: CIFDUS_clean_linker_0, # of connection points: 2
#     Edge 20, Type (0, 1), BuildingBlock: CIFDUS_clean_linker_0, # of connection points: 2
#     Edge 21, Type (0, 1), BuildingBlock: CIFDUS_clean_linker_0, # of connection points: 2
#     Edge 22, Type (0, 1), BuildingBlock: CIFDUS_clean_linker_0, # of connection points: 2
#     Edge 23, Type (0, 1), BuildingBlock: CIFDUS_clean_linker_0, # of connection points: 2
#     Edge 24, Type (0, 1), BuildingBlock: CIFDUS_clean_linker_0, # of connection points: 2
#     Edge 25, Type (0, 1), BuildingBlock: CIFDUS_clean_linker_0, # of connection points: 2
#     Edge 26, Type (0, 1), BuildingBlock: CIFDUS_clean_linker_0, # of connection points: 2
# Relax obj value: 0.194
# Max RMSD: 0.217
# Mean RMSD: 0.153
data_MOF--net-anh--node1-BETDAH_clean_sbu_0--node2-BELTOD_clean_linker_0--edge1-CIFDUS_clean_linker_0
_symmetry_space_group_name_H-M    P1
_symmetry_Int_Tables_number       1
_symmetry_cell_setting            triclinic
loop_
_symmetry_equiv_pos_as_xyz
'x, y, z'
_cell_length_a     32.112273
_cell_length_b     37.411768
_cell_length_c     54.201445
_cell_angle_alpha  92.414205
_cell_angle_beta   89.887756
_cell_angle_gamma 129.50505
loop_
_atom_site_label
_atom_site_type_symbol
_atom_site_fract_x
_atom_site_fract_y
_atom_site_fract_z
_atom_type_partial_charge
Ho0 Ho 0.11835 0.53421 0.14097 0.0
Ho1 Ho 1.04904 0.55453 0.16365 0.0
C2 C 0.17146 0.64088 0.15752 0.0
C3 C 0.17989 0.52878 0.11331 0.0
C4 C 0.183 0.49287 0.10495 0.0
C5 C 0.22113 0.50343 0.08757 0.0
C6 C 0.22683 0.4706 0.08025 0.0
C7 C 0.19439 0.42657 0.09022 0.0
C8 C 0.1555 0.41584 0.10742 0.0
C9 C 0.14975 0.44879 0.1147 0.0
C10 C 0.10764 0.52449 0.18988 0.0
C11 C 0.99644 0.44611 0.15054 0.0
C12 C 0.98253 0.55587 0.18973 0.0
C13 C 0.92398 0.52172 0.19326 0.0
C14 C 0.89197 0.53474 0.1903 0.0
C15 C 0.83571 0.50126 0.18962 0.0
C16 C 0.81069 0.4542 0.19181 0.0
C17 C 0.8428 0.4417 0.19648 0.0
C18 C 0.899 0.47517 0.19722 0.0
C19 C 0.0576 0.55897 0.11391 0.0
O20 O 0.17192 0.61328 0.14152 0.0
O21 O 0.12948 0.62411 0.17147 0.0
O22 O 0.13869 0.5243 0.10467 0.0
O23 O 0.18968 0.54071 0.13691 0.0
O24 O 0.11133 0.49874 0.17485 0.0
O25 O 0.11377 0.5563 0.17854 0.0
O26 O 0.99221 0.47553 0.16225 0.0
O27 O 1.04057 0.46086 0.13871 0.0
O28 O 0.99665 0.57198 0.16767 0.0
O29 O 1.01188 0.54604 0.19856 0.0
O30 O 0.05799 0.58824 0.12784 0.0
O31 O 0.05105 0.52887 0.12686 0.0
H32 H 0.24721 0.53741 0.07998 0.0
H33 H 0.25779 0.48024 0.06731 0.0
H34 H 0.12974 0.38213 0.11527 0.0
H35 H 0.11996 0.44017 0.12814 0.0
H36 H 0.91047 0.57047 0.18728 0.0
H37 H 0.81194 0.51182 0.18579 0.0
H38 H 0.82442 0.40577 0.19856 0.0
H39 H 0.92275 0.46423 0.19985 0.0
Ho40 Ho 0.62697 0.04068 0.4788 0.0
Ho41 Ho 0.56117 0.06833 0.46457 0.0
C42 C 0.49811 0.96124 0.46697 0.0
C43 C 0.66541 1.00461 0.49849 0.0
C44 C 0.64873 0.95853 0.50372 0.0
C45 C 0.63273 0.94158 0.52748 0.0
C46 C 0.62238 0.90051 0.53327 0.0
C47 C 0.62827 0.87563 0.51549 0.0
C48 C 0.64292 0.89196 0.49154 0.0
C49 C 0.65315 0.93294 0.48574 0.0
C50 C 0.62689 0.05399 0.43024 0.0
C51 C 0.69214 0.14826 0.4746 0.0
C52 C 0.5238 0.10707 0.44784 0.0
C53 C 0.5307 0.1486 0.45653 0.0
C54 C 0.53987 0.1801 0.43958 0.0
C55 C 0.54863 0.2205 0.44781 0.0
C56 C 0.54799 0.22992 0.47316 0.0
C57 C 0.53844 0.1981 0.49006 0.0
C58 C 0.53021 0.15805 0.48187 0.0
C59 C 0.56636 0.05972 0.51366 0.0
O60 O 0.54059 0.97428 0.48033 0.0
O61 O 0.49988 0.99171 0.45439 0.0
O62 O 0.67128 0.01525 0.47539 0.0
O63 O 0.64329 0.01884 0.51121 0.0
O64 O 0.66848 0.06564 0.44283 0.0
O65 O 0.58603 0.03356 0.44358 0.0
O66 O 0.64774 0.13627 0.46355 0.0
O67 O 0.69199 0.11726 0.48555 0.0
O68 O 0.4968 0.07194 0.46208 0.0
O69 O 0.56678 0.11468 0.4393 0.0
O70 O 0.5242 0.04879 0.50215 0.0
O71 O 0.6045 0.07763 0.49903 0.0
H72 H 0.62965 0.96074 0.54186 0.0
H73 H 0.61185 0.88927 0.55197 0.0
H74 H 0.64723 0.87337 0.47733 0.0
H75 H 0.66575 0.94508 0.46728 0.0
H76 H 0.54073 0.17365 0.41998 0.0
H77 H 0.5557 0.24427 0.43434 0.0
H78 H 0.53862 0.20473 0.50973 0.0
H79 H 0.52408 0.13475 0.49543 0.0
Ho80 Ho 0.61697 0.58762 0.86053 0.0
Ho81 Ho 0.54347 0.48322 0.85476 0.0
C82 C 0.48376 0.52876 0.85994 0.0
C83 C 0.67068 0.67533 0.85488 0.0
C84 C 0.66338 0.70798 0.84646 0.0
C85 C 0.61366 0.69284 0.83677 0.0
C86 C 0.60971 0.72462 0.82673 0.0
C87 C 0.65557 0.77179 0.82603 0.0
C88 C 0.70469 0.78673 0.83652 0.0
C89 C 0.70849 0.75515 0.84661 0.0
C90 C 0.59383 0.54308 0.90255 0.0
C91 C 0.6779 0.54285 0.85902 0.0
C92 C 0.49478 0.3958 0.85816 0.0
C93 C 0.50782 0.3651 0.85202 0.0
C94 C 0.56 0.38003 0.85626 0.0
C95 C 0.57205 0.35102 0.84965 0.0
C96 C 0.53217 0.30639 0.83864 0.0
C97 C 0.47985 0.29149 0.83455 0.0
C98 C 0.46786 0.32057 0.84118 0.0
C99 C 0.56767 0.52631 0.81195 0.0
O100 O 0.5325 0.56861 0.85533 0.0
O101 O 0.4793 0.49126 0.86352 0.0
O102 O 0.64893 0.65564 0.87567 0.0
O103 O 0.66506 0.64661 0.83784 0.0
O104 O 0.64116 0.58191 0.89841 0.0
O105 O 0.56166 0.53165 0.88485 0.0
O106 O 0.62802 0.50169 0.85873 0.0
O107 O 0.6837 0.58145 0.85827 0.0
O108 O 0.48767 0.41241 0.8394 0.0
O109 O 0.52297 0.42692 0.87634 0.0
O110 O 0.52104 0.48728 0.81635 0.0
O111 O 0.59982 0.53913 0.83 0.0
H112 H 0.57841 0.65643 0.83639 0.0
H113 H 0.57139 0.71205 0.8187 0.0
H114 H 0.74053 0.8229 0.83661 0.0
H115 H 0.74718 0.76746 0.85401 0.0
H116 H 0.59162 0.41423 0.86455 0.0
H117 H 0.61295 0.36394 0.85278 0.0
H118 H 0.44801 0.25717 0.82639 0.0
H119 H 0.42732 0.30834 0.83775 0.0
P120 P 0.61767 0.03134 0.20094 0.0
H121 H 0.59202 0.95932 0.16469 0.0
H122 H 0.50692 0.88669 0.14957 0.0
H123 H 0.42103 0.92882 0.18323 0.0
H124 H 0.50715 1.00132 0.1991 0.0
H125 H 0.73349 0.09391 0.19282 0.0
H126 H 0.79727 0.17364 0.18133 0.0
H127 H 0.66596 0.17592 0.16939 0.0
H128 H 0.60172 0.09534 0.18182 0.0
H129 H 0.53898 0.96186 0.2347 0.0
H130 H 0.66477 0.11047 0.23713 0.0
O131 O 0.65266 0.01255 0.20337 0.0
H132 H 0.52636 0.96554 0.27887 0.0
H133 H 0.65219 0.11433 0.28133 0.0
C134 C 0.55619 0.9857 0.18336 0.0
C135 C 0.55506 0.95354 0.16841 0.0
C136 C 0.50593 0.91171 0.15966 0.0
C137 C 0.45639 0.90101 0.16543 0.0
C138 C 0.45802 0.93506 0.17887 0.0
C139 C 0.50741 0.97699 0.18769 0.0
C140 C 0.66235 0.08796 0.18779 0.0
C141 C 0.71789 0.11094 0.18725 0.0
C142 C 0.75472 0.15697 0.18054 0.0
C143 C 0.73729 0.18177 0.1742 0.0
C144 C 0.68125 0.15833 0.17431 0.0
C145 C 0.64422 0.11197 0.18114 0.0
C146 C 0.60192 0.03596 0.23235 0.0
C147 C 0.56278 0.99548 0.24454 0.0
C148 C 0.5556 0.9976 0.26987 0.0
C149 C 0.58822 0.04024 0.28365 0.0
C150 C 0.6266 0.08091 0.27127 0.0
C151 C 0.63351 0.07876 0.24588 0.0
P152 P 0.66893 0.58311 0.58651 0.0
H153 H 0.64892 0.55443 0.53386 0.0
H154 H 0.61023 0.48034 0.5118 0.0
H155 H 0.57224 0.41558 0.58164 0.0
H156 H 0.60968 0.48906 0.60334 0.0
H157 H 0.7482 0.68186 0.57898 0.0
H158 H 0.74287 0.73723 0.56061 0.0
H159 H 0.57256 0.62798 0.54455 0.0
H160 H 0.57836 0.57212 0.56288 0.0
H161 H 0.71682 0.58439 0.63269 0.0
H162 H 0.57625 0.56735 0.61 0.0
O163 O 0.73353 0.60572 0.58636 0.0
H164 H 0.68845 0.57294 0.67536 0.0
H165 H 0.54817 0.55704 0.65285 0.0
C166 C 0.63105 0.52713 0.57022 0.0
C167 C 0.6309 0.52394 0.54435 0.0
C168 C 0.60935 0.48165 0.53178 0.0
C169 C 0.58807 0.44186 0.54492 0.0
C170 C 0.58729 0.44515 0.57085 0.0
C171 C 0.6088 0.48736 0.58335 0.0
C172 C 0.66389 0.62272 0.57191 0.0
C173 C 0.70978 0.66954 0.57126 0.0
C174 C 0.70671 0.70122 0.56072 0.0
C175 C 0.6574 0.6869 0.55093 0.0
C176 C 0.61109 0.64 0.55197 0.0
C177 C 0.61439 0.60809 0.56231 0.0
C178 C 0.64914 0.57751 0.61819 0.0
C179 C 0.68027 0.57897 0.63694 0.0
C180 C 0.6641 0.57263 0.66141 0.0
C181 C 0.61622 0.56444 0.66764 0.0
C182 C 0.58511 0.56302 0.64872 0.0
C183 C 0.60133 0.56928 0.62421 0.0
P184 P 0.10198 0.56508 0.88139 0.0
H185 H 0.17297 0.58342 0.83906 0.0
H186 H 0.24569 0.57982 0.83278 0.0
H187 H 0.20487 0.50676 0.89946 0.0
H188 H 0.13254 0.51054 0.90574 0.0
H189 H 0.06564 0.60664 0.85041 0.0
H190 H 0.98251 0.59584 0.84641 0.0
H191 H 0.90092 0.47495 0.88947 0.0
H192 H 0.98435 0.48584 0.89322 0.0
H193 H 0.13947 0.64264 0.91675 0.0
H194 H 0.05674 0.49659 0.92001 0.0
O195 O 0.144 0.62 0.87314 0.0
H196 H 0.13449 0.64894 0.96103 0.0
H197 H 0.05698 0.50334 0.96483 0.0
C198 C 0.14425 0.54688 0.87284 0.0
C199 C 0.17802 0.56533 0.8522 0.0
C200 C 0.22121 0.56391 0.84879 0.0
C201 C 0.23366 0.54357 0.86572 0.0
C202 C 0.1981 0.52283 0.88569 0.0
C203 C 0.15527 0.52485 0.88926 0.0
C204 C 1.03344 0.54671 0.87178 0.0
C205 C 1.02989 0.57684 0.85861 0.0
C206 C 0.98139 0.57102 0.85663 0.0
C207 C 0.93273 0.53452 0.86766 0.0
C208 C 0.93588 0.50348 0.88022 0.0
C209 C 0.9846 0.50952 0.88231 0.0
C210 C 0.10089 0.56952 0.91489 0.0
C211 C 0.12173 0.61202 0.92704 0.0
C212 C 0.11916 0.61566 0.95271 0.0
C213 C 0.09644 0.577 0.96718 0.0
C214 C 0.07461 0.53415 0.95476 0.0
C215 C 0.07563 0.53032 0.92894 0.0
P216 P 0.12287 0.53678 0.42161 0.0
H217 H 0.21776 0.59681 0.45478 0.0
H218 H 0.28122 0.68001 0.46246 0.0
H219 H 0.17211 0.6918 0.42482 0.0
H220 H 0.10947 0.60777 0.41609 0.0
H221 H 0.07941 0.44368 0.43247 0.0
H222 H 0.99173 0.37492 0.44393 0.0
H223 H 0.93383 0.45222 0.44807 0.0
H224 H 1.02334 0.52218 0.43627 0.0
H225 H 0.18383 0.54081 0.3802 0.0
H226 H 1.04579 0.53421 0.39037 0.0
O227 O 0.16442 0.52492 0.42583 0.0
H228 H 0.17544 0.54246 0.33568 0.0
H229 H 1.03797 0.53683 0.34554 0.0
C230 C 0.15881 0.59559 0.4345 0.0
C231 C 0.20665 0.61692 0.44854 0.0
C232 C 0.24324 0.66509 0.45307 0.0
C233 C 0.23277 0.69353 0.444 0.0
C234 C 0.18262 0.67155 0.43158 0.0
C235 C 0.14615 0.62315 0.42683 0.0
C236 C 0.0588 0.48876 0.43399 0.0
C237 C 1.04859 0.4466 0.43638 0.0
C238 C 0.99797 0.40688 0.44302 0.0
C239 C 0.95541 0.40774 0.44725 0.0
C240 C 0.96557 0.45015 0.44495 0.0
C241 C 1.01686 0.49033 0.43839 0.0
C242 C 0.11496 0.53671 0.38867 0.0
C243 C 0.15142 0.53938 0.37291 0.0
C244 C 0.14665 0.54035 0.34741 0.0
C245 C 0.10588 0.53951 0.33717 0.0
C246 C 0.06983 0.53761 0.35299 0.0
C247 C 0.07415 0.53592 0.37856 0.0
P248 P 0.66285 0.07995 0.74149 0.0
H249 H 0.71041 0.16335 0.77341 0.0
H250 H 0.67479 0.19988 0.79053 0.0
H251 H 0.51628 0.08528 0.76009 0.0
H252 H 0.55289 0.04919 0.74246 0.0
H253 H 0.6597 0.00597 0.71931 0.0
H254 H 0.64151 0.9379 0.73601 0.0
H255 H 0.59817 0.96639 0.8052 0.0
H256 H 0.61535 0.03411 0.78806 0.0
H257 H 0.72906 0.14623 0.70407 0.0
H258 H 0.57408 0.00979 0.7066 0.0
O259 O 0.72927 0.11601 0.74772 0.0
H260 H 0.71774 0.14412 0.65942 0.0
H261 H 0.56276 0.00687 0.66163 0.0
C262 C 0.6343 0.10354 0.7566 0.0
C263 C 0.66785 0.14571 0.77059 0.0
C264 C 0.64728 0.16653 0.78054 0.0
C265 C 0.59259 0.14561 0.77672 0.0
C266 C 0.55872 0.10264 0.76316 0.0
C267 C 0.57945 0.08179 0.7532 0.0
C268 C 0.63762 0.02454 0.7522 0.0
C269 C 0.64465 0.99681 0.73781 0.0
C270 C 0.6349 0.95817 0.74751 0.0
C271 C 0.61876 0.94682 0.77203 0.0
C272 C 0.60994 0.97379 0.78617 0.0
C273 C 0.6197 0.01254 0.77638 0.0
C274 C 0.65301 0.07772 0.70855 0.0
C275 C 0.69274 0.11557 0.69496 0.0
C276 C 0.6863 0.11423 0.66937 0.0
C277 C 0.63968 0.07505 0.65683 0.0
C278 C 0.59911 0.03763 0.67068 0.0
C279 C 0.60565 0.03908 0.69635 0.0
P280 P 0.40401 0.24368 0.05777 0.0
H281 H 0.44499 0.19802 0.07543 0.0
H282 H 0.51504 0.22191 0.1062 0.0
H283 H 0.5387 0.3479 0.12334 0.0
H284 H 0.46689 0.32239 0.09377 0.0
H285 H 0.3016 0.19571 0.0836 0.0
H286 H 0.24649 0.21851 0.09453 0.0
H287 H 0.36544 0.35135 0.06357 0.0
H288 H 0.42001 0.32936 0.05326 0.0
H289 H 0.51233 0.33242 0.05035 0.0
H290 H 0.3712 0.22508 0.00573 0.0
O291 O 0.36335 0.18671 0.05076 0.0
H292 H 0.54533 0.38491 0.01711 0.0
H293 H 0.40588 0.27639 0.9715 0.0
C294 C 0.45057 0.2583 0.08245 0.0
C295 C 0.4645 0.23024 0.08628 0.0
C296 C 0.50491 0.24418 0.10376 0.0
C297 C 0.53291 0.28699 0.11731 0.0
C298 C 0.51748 0.31426 0.11378 0.0
C299 C 0.47653 0.29989 0.09664 0.0
C300 C 0.36415 0.26021 0.06692 0.0
C301 C 0.31561 0.22968 0.07918 0.0
C302 C 0.28432 0.24268 0.08545 0.0
C303 C 0.30132 0.28623 0.07934 0.0
C304 C 0.35079 0.31711 0.06789 0.0
C305 C 0.38204 0.3044 0.06194 0.0
C306 C 0.439 0.27472 0.03064 0.0
C307 C 0.4895 0.31931 0.03301 0.0
C308 C 0.50852 0.34953 0.0138 0.0
C309 C 0.47772 0.33547 0.99169 0.0
C310 C 0.4299 0.28905 0.98853 0.0
C311 C 0.4104 0.25923 0.00795 0.0
H312 H 0.19879 0.373 0.12083 0.0
H313 H 0.21094 0.4057 0.04437 0.0
H314 H 0.23973 0.36048 0.03389 0.0
H315 H 0.27047 0.31878 0.04715 0.0
H316 H 0.25985 0.28637 0.12342 0.0
H317 H 0.21977 0.32315 0.13324 0.0
C318 C 0.20651 0.36931 0.10179 0.0
C319 C 0.20355 0.39327 0.08346 0.0
C320 C 0.22342 0.34345 0.09591 0.0
C321 C 0.21401 0.38839 0.05889 0.0
C322 C 0.2303 0.36243 0.05287 0.0
C323 C 0.25861 0.31926 0.06585 0.0
C324 C 0.26851 0.30054 0.08462 0.0
C325 C 0.23664 0.34102 0.07134 0.0
C326 C 0.25245 0.30062 0.10871 0.0
C327 C 0.22998 0.32192 0.11433 0.0
H328 H 0.7124 0.22131 0.4508 0.0
H329 H 0.7889 0.18542 0.49715 0.0
H330 H 0.87528 0.26288 0.49423 0.0
H331 H 0.93066 0.33967 0.477 0.0
H332 H 0.85612 0.37595 0.42967 0.0
H333 H 0.76779 0.30033 0.43504 0.0
C334 C 0.74784 0.2305 0.46044 0.0
C335 C 0.74376 0.19705 0.47407 0.0
C336 C 0.79804 0.27544 0.45856 0.0
C337 C 0.79042 0.20998 0.48642 0.0
C338 C 0.84009 0.25445 0.48477 0.0
C339 C 0.89517 0.33116 0.4678 0.0
C340 C 0.90053 0.36368 0.45275 0.0
C341 C 0.84459 0.28724 0.47061 0.0
C342 C 0.85355 0.35206 0.44151 0.0
C343 C 0.80293 0.30851 0.4444 0.0
H344 H 0.58 0.78398 0.82968 0.0
H345 H 0.72708 0.83469 0.79354 0.0
H346 H 0.72782 0.89212 0.77345 0.0
H347 H 0.68876 0.92967 0.767 0.0
H348 H 0.54199 0.88048 0.80282 0.0
H349 H 0.5392 0.82104 0.82225 0.0
C350 C 0.61189 0.80739 0.81725 0.0
C351 C 0.65368 0.80525 0.8133 0.0
C352 C 0.6123 0.84077 0.80578 0.0
C353 C 0.69494 0.83605 0.79724 0.0
C354 C 0.69529 0.86881 0.78564 0.0
C355 C 0.65563 0.90553 0.77875 0.0
C356 C 0.61544 0.9094 0.78328 0.0
C357 C 0.65446 0.87171 0.7899 0.0
C358 C 0.57361 0.87847 0.79909 0.0
C359 C 0.57191 0.84436 0.81014 0.0
H360 H 0.76451 0.37946 0.16032 0.0
H361 H 0.72686 0.44935 0.20866 0.0
H362 H 0.6336 0.39791 0.19222 0.0
H363 H 0.56678 0.33984 0.16065 0.0
H364 H 0.60912 0.27663 0.1094 0.0
H365 H 0.69551 0.31709 0.1312 0.0
C366 C 0.73548 0.38261 0.16773 0.0
C367 C 0.75239 0.41816 0.18558 0.0
C368 C 0.68276 0.35413 0.1576 0.0
C369 C 0.71468 0.42237 0.19477 0.0
C370 C 0.66151 0.39306 0.18535 0.0
C371 C 0.5948 0.3348 0.15423 0.0
C372 C 0.58138 0.30559 0.13313 0.0
C373 C 0.64571 0.35997 0.16612 0.0
C374 C 0.61773 0.29847 0.12564 0.0
C375 C 0.66763 0.32207 0.13794 0.0
H376 H 0.41356 0.91128 0.43251 0.0
H377 H 0.47078 0.89905 0.50106 0.0
H378 H 0.39237 0.81709 0.50108 0.0
H379 H 0.30904 0.74803 0.48134 0.0
H380 H 0.25453 0.75736 0.41097 0.0
H381 H 0.32872 0.84082 0.4125 0.0
C382 C 0.40863 0.8907 0.44751 0.0
C383 C 0.44839 0.91156 0.4667 0.0
C384 C 0.36349 0.84281 0.44722 0.0
C385 C 0.44131 0.88412 0.48591 0.0
C386 C 0.39625 0.83708 0.48601 0.0
C387 C 0.31333 0.76795 0.46614 0.0
C388 C 0.27565 0.74557 0.44603 0.0
C389 C 0.35739 0.81588 0.46664 0.0
C390 C 0.28186 0.77304 0.42697 0.0
C391 C 0.3249 0.82101 0.42766 0.0
H392 H 0.49965 0.25069 0.79658 0.0
H393 H 0.59462 0.29332 0.86417 0.0
H394 H 0.61981 0.24612 0.85149 0.0
H395 H 0.61659 0.19408 0.82085 0.0
H396 H 0.52272 0.15229 0.75298 0.0
H397 H 0.494 0.19649 0.76653 0.0
C398 C 0.52527 0.24921 0.80871 0.0
C399 C 0.5454 0.27584 0.83126 0.0
C400 C 0.53959 0.22187 0.80132 0.0
C401 C 0.5792 0.27386 0.84654 0.0
C402 C 0.5934 0.24663 0.83937 0.0
C403 C 0.58997 0.19471 0.80897 0.0
C404 C 0.57205 0.16988 0.78587 0.0
C405 C 0.57426 0.22084 0.8167 0.0
C406 C 0.53671 0.17051 0.77096 0.0
C407 C 0.52059 0.19615 0.77861 0.0
H408 H 0.69271 0.85464 0.5028 0.0
H409 H 0.55118 0.80451 0.54392 0.0
H410 H 0.54563 0.74002 0.5574 0.0
H411 H 0.58394 0.70004 0.55914 0.0
H412 H 0.72613 0.75145 0.51826 0.0
H413 H 0.728 0.81279 0.50278 0.0
C414 C 0.66006 0.82919 0.51436 0.0
C415 C 0.62245 0.8345 0.52233 0.0
C416 C 0.65735 0.79244 0.52217 0.0
C417 C 0.58103 0.80158 0.53772 0.0
C418 C 0.57771 0.76458 0.54536 0.0
C419 C 0.61481 0.7243 0.54656 0.0
C420 C 0.65501 0.72135 0.53997 0.0
C421 C 0.61606 0.75996 0.53795 0.0
C422 C 0.69512 0.75333 0.52385 0.0
C423 C 0.69617 0.78836 0.51495 0.0
H424 H 0.6912 0.47441 0.86389 0.0
H425 H 0.78456 0.62141 0.85657 0.0
H426 H 0.86772 0.63201 0.85821 0.0
H427 H 0.91723 0.60105 0.86209 0.0
H428 H 0.82459 0.45406 0.8694 0.0
H429 H 0.74126 0.44318 0.86763 0.0
C430 C 0.7295 0.50892 0.8626 0.0
C431 C 0.72948 0.54696 0.86002 0.0
C432 C 0.77901 0.51527 0.8637 0.0
C433 C 0.7812 0.59099 0.85854 0.0
C434 C 0.82969 0.59726 0.85948 0.0
C435 C 0.87914 0.56632 0.86316 0.0
C436 C 0.87973 0.52866 0.8661 0.0
C437 C 0.82965 0.55984 0.86207 0.0
C438 C 0.82799 0.4845 0.86762 0.0
C439 C 0.77925 0.47798 0.86642 0.0
H440 H 0.25915 0.6939 0.12788 0.0
H441 H 0.19309 0.70116 0.19553 0.0
H442 H 0.27329 0.78185 0.20331 0.0
H443 H 0.36432 0.84956 0.19227 0.0
H444 H 0.42953 0.84437 0.12376 0.0
H445 H 0.3482 0.7642 0.11524 0.0
C446 C 0.26219 0.71318 0.14428 0.0
C447 C 0.21989 0.69102 0.16112 0.0
C448 C 0.30865 0.76016 0.14865 0.0
C449 C 0.22466 0.71695 0.18216 0.0
C450 C 0.27074 0.76329 0.1867 0.0
C451 C 0.36058 0.83144 0.1752 0.0
C452 C 0.40387 0.85348 0.15887 0.0
C453 C 0.31323 0.78521 0.17021 0.0
C454 C 0.3978 0.82849 0.13704 0.0
C455 C 0.35098 0.78247 0.13204 0.0
H456 H 0.49381 0.23967 0.50778 0.0
H457 H 0.62718 0.31798 0.45887 0.0
H458 H 0.64939 0.39018 0.47564 0.0
H459 H 0.63454 0.43139 0.50611 0.0
H460 H 0.50046 0.35289 0.55475 0.0
H461 H 0.47543 0.28062 0.53641 0.0
C462 C 0.52771 0.27256 0.50079 0.0
C463 C 0.55896 0.27342 0.48219 0.0
C464 C 0.5404 0.31397 0.5106 0.0
C465 C 0.60223 0.31627 0.47304 0.0
C466 C 0.61514 0.35762 0.48273 0.0
C467 C 0.59922 0.3985 0.51241 0.0
C468 C 0.56973 0.39779 0.53196 0.0
C469 C 0.58491 0.35694 0.50173 0.0
C470 C 0.5245 0.35465 0.54005 0.0
C471 C 0.50999 0.31323 0.5295 0.0
H472 H 0.46622 0.592 0.84753 0.0
H473 H 0.38372 0.45818 0.8778 0.0
H474 H 0.30285 0.45069 0.88268 0.0
H475 H 0.25239 0.48121 0.87863 0.0
H476 H 0.33386 0.61386 0.84701 0.0
H477 H 0.41488 0.62168 0.84254 0.0
C478 C 0.43073 0.56101 0.8552 0.0
C479 C 0.43306 0.52575 0.86225 0.0
C480 C 0.38248 0.5563 0.85777 0.0
C481 C 0.38503 0.48622 0.87202 0.0
C482 C 0.33794 0.48182 0.8749 0.0
C483 C 0.28763 0.51206 0.87076 0.0
C484 C 0.28462 0.54666 0.86309 0.0
C485 C 0.33566 0.51651 0.8679 0.0
C486 C 0.3324 0.58579 0.85285 0.0
C487 C 0.37983 0.5906 0.85037 0.0
H488 H 0.8951 0.40137 0.16883 0.0
H489 H 0.99449 0.37515 0.13342 0.0
H490 H 0.92256 0.29188 0.13617 0.0
H491 H 0.83279 0.22624 0.14999 0.0
H492 H 0.73432 0.25222 0.18677 0.0
H493 H 0.80357 0.3351 0.18144 0.0
C494 C 0.90117 0.37756 0.16171 0.0
C495 C 0.95078 0.39505 0.15113 0.0
C496 C 0.85947 0.32932 0.16346 0.0
C497 C 0.95713 0.36316 0.14172 0.0
C498 C 0.91589 0.31531 0.14331 0.0
C499 C 0.8264 0.24991 0.15703 0.0
C500 C 0.778 0.23236 0.16898 0.0
C501 C 0.86713 0.29797 0.15441 0.0
C502 C 0.77049 0.26406 0.17729 0.0
C503 C 0.81054 0.31181 0.17448 0.0
H504 H 0.12379 0.62847 0.08297 0.0
H505 H 0.98909 0.48229 0.08401 0.0
H506 H 0.98705 0.47516 0.03885 0.0
H507 H 1.02374 0.51027 -0.00075 0.0
H508 H 0.16772 0.6542 -0.00146 0.0
H509 H 0.16497 0.66248 0.04302 0.0
C510 C 0.0938 0.59526 0.07318 0.0
C511 C 0.05607 0.5561 0.08663 0.0
C512 C 0.09438 0.591 0.04721 0.0
C513 C 1.01823 0.51295 0.07393 0.0
C514 C 1.01713 0.50886 0.04814 0.0
C515 C 0.05533 0.5434 0.00861 0.0
C516 C 0.09547 0.58155 0.9949 0.0
C517 C 0.05527 0.5476 0.03456 0.0
C518 C 0.13507 0.62424 0.00799 0.0
C519 C 0.13403 0.62905 0.03369 0.0
H520 H 0.54042 0.01341 0.39793 0.0
H521 H 0.71456 0.10653 0.4023 0.0
H522 H 0.71793 0.11293 0.35766 0.0
H523 H 0.67194 0.08863 0.31714 0.0
H524 H 0.49793 0.99386 0.31177 0.0
H525 H 0.49391 0.99133 0.35686 0.0
C526 C 0.57898 0.03533 0.38906 0.0
C527 C 0.62717 0.05925 0.40335 0.0
C528 C 0.58068 0.03834 0.36317 0.0
C529 C 0.6769 0.0875 0.39167 0.0
C530 C 0.67891 0.09122 0.36613 0.0
C531 C 0.63309 0.06808 0.32582 0.0
C532 C 0.58534 0.0416 0.31108 0.0
C533 C 0.63112 0.06635 0.35166 0.0
C534 C 0.53534 0.01436 0.32268 0.0
C535 C 0.53301 0.01296 0.34847 0.0
H536 H 0.50462 0.49237 0.77028 0.0
H537 H 0.66888 0.59793 0.79726 0.0
H538 H 0.69801 0.62101 0.75502 0.0
H539 H 0.67741 0.60813 0.71023 0.0
H540 H 0.51342 0.49997 0.68342 0.0
H541 H 0.48353 0.48147 0.72575 0.0
C542 C 0.54673 0.52069 0.76692 0.0
C543 C 0.5846 0.5433 0.78682 0.0
C544 C 0.56325 0.53323 0.7426 0.0
C545 C 0.63897 0.58002 0.78224 0.0
C546 C 0.65566 0.59309 0.75808 0.0
C547 C 0.63514 0.58042 0.71364 0.0
C548 C 0.59782 0.55541 0.69357 0.0
C549 C 0.61828 0.56939 0.73808 0.0
C550 C 0.54302 0.5202 0.69841 0.0
C551 C 0.52589 0.50933 0.72265 0.0
H552 H 0.65542 0.08945 0.54067 0.0
H553 H 0.4874 0.02553 0.54701 0.0
H554 H 0.49465 0.02359 0.59175 0.0
H555 H 0.54942 0.04202 0.62924 0.0
H556 H 0.71711 0.10459 0.62273 0.0
H557 H 0.70934 0.10524 0.57801 0.0
C558 C 0.62037 0.07488 0.55186 0.0
C559 C 0.57099 0.05774 0.5406 0.0
C560 C 0.62483 0.07383 0.57758 0.0
C561 C 0.52591 0.03906 0.55529 0.0
C562 C 0.53002 0.03793 0.58087 0.0
C563 C 0.58411 0.0553 0.61803 0.0
C564 C 0.63386 0.07351 0.62944 0.0
C565 C 0.57935 0.05542 0.59224 0.0
C566 C 0.67854 0.09109 0.61455 0.0
C567 C 0.6741 0.09126 0.58893 0.0
H568 H 0.49598 0.46869 0.91619 0.0
H569 H 0.666 0.54468 0.93045 0.0
H570 H 0.6454 0.48596 0.9586 0.0
H571 H 0.57856 0.41174 0.9781 0.0
H572 H 0.40841 0.33854 0.96463 0.0
H573 H 0.42975 0.39652 0.93651 0.0
C574 C 0.5285 0.47253 0.92563 0.0
C575 C 0.58232 0.51076 0.92134 0.0
C576 C 0.51635 0.43862 0.9415 0.0
C577 C 0.62419 0.51557 0.93364 0.0
C578 C 0.61241 0.48184 0.94955 0.0
C579 C 0.54607 0.40852 0.96917 0.0
C580 C 0.49186 0.37014 0.9734 0.0
C581 C 0.55855 0.44298 0.95347 0.0
C582 C 0.4505 0.36666 0.96133 0.0
C583 C 0.4626 0.40027 0.94545 0.0
H584 H 0.10249 0.57654 0.22465 0.0
H585 H 0.10639 0.46355 0.21574 0.0
H586 H 0.10477 0.45749 0.26039 0.0
H587 H 0.10459 0.48535 0.30204 0.0
H588 H 0.09744 0.59627 0.31161 0.0
H589 H 0.09683 0.60153 0.26667 0.0
C590 C 0.1025 0.55039 0.23252 0.0
C591 C 0.10476 0.52066 0.21694 0.0
C592 C 0.10084 0.54665 0.25831 0.0
C593 C 0.10489 0.48698 0.22735 0.0
C594 C 0.10392 0.48343 0.25288 0.0
C595 C 0.10285 0.51063 0.29425 0.0
C596 C 0.1015 0.54062 0.31003 0.0
C597 C 0.10231 0.51328 0.26853 0.0
C598 C 0.09833 0.57272 0.29976 0.0
C599 C 0.09828 0.57589 0.27411 0.0
loop_
_geom_bond_atom_site_label_1
_geom_bond_atom_site_label_2
_geom_bond_distance
_geom_bond_site_symmetry_2
_ccdc_geom_bond_type
Ho0 C3 2.811 . S
Ho0 O20 2.322 . S
Ho0 O22 2.378 . S
Ho0 O23 2.524 . S
Ho0 O24 2.381 . S
Ho0 O25 2.669 . S
Ho0 O27 2.346 1_455 S
Ho0 O31 2.305 . S
Ho1 C12 2.811 . S
Ho1 O21 2.346 1_655 S
Ho1 O25 2.305 1_655 S
Ho1 O26 2.322 . S
Ho1 O28 2.378 . S
Ho1 O29 2.524 . S
Ho1 O30 2.379 1_655 S
Ho1 O31 2.669 1_655 S
C2 O20 1.259 . S
C2 O21 1.268 . S
C3 Ho0 2.811 . S
C3 C4 1.488 . S
C3 O22 1.215 . S
C3 O23 1.289 . S
C4 C3 1.488 . S
C4 C5 1.348 . S
C4 C9 1.413 . S
C5 C4 1.348 . S
C5 C6 1.442 . S
C5 H32 0.930 . S
C6 C5 1.442 . S
C6 C7 1.381 . S
C6 H33 0.931 . S
C7 C6 1.381 . S
C7 C8 1.321 . S
C8 C7 1.321 . S
C8 C9 1.403 . S
C8 H34 0.934 . S
C9 C4 1.413 . S
C9 C8 1.403 . S
C9 H35 0.930 . S
C10 O24 1.275 . S
C10 O25 1.256 . S
C11 O26 1.259 . S
C11 O27 1.268 . S
C12 Ho1 2.811 . S
C12 C13 1.488 . S
C12 O28 1.215 . S
C12 O29 1.289 . S
C13 C12 1.488 . S
C13 C14 1.348 . S
C13 C18 1.413 . S
C14 C13 1.348 . S
C14 C15 1.442 . S
C14 H36 0.930 . S
C15 C14 1.442 . S
C15 C16 1.381 . S
C15 H37 0.931 . S
C16 C15 1.381 . S
C16 C17 1.321 . S
C17 C16 1.321 . S
C17 C18 1.403 . S
C17 H38 0.934 . S
C18 C13 1.413 . S
C18 C17 1.403 . S
C18 H39 0.930 . S
C19 O30 1.286 . S
C19 O31 1.256 . S
O20 Ho0 2.322 . S
O20 C2 1.259 . S
O21 Ho1 2.346 1_455 S
O21 C2 1.268 . S
O22 Ho0 2.378 . S
O22 C3 1.215 . S
O23 Ho0 2.524 . S
O23 C3 1.289 . S
O24 Ho0 2.381 . S
O24 C10 1.275 . S
O25 Ho0 2.669 . S
O25 Ho1 2.305 1_455 S
O25 C10 1.256 . S
O26 Ho1 2.322 . S
O26 C11 1.259 . S
O27 Ho0 2.346 1_655 S
O27 C11 1.268 . S
O28 Ho1 2.378 . S
O28 C12 1.215 . S
O29 Ho1 2.524 . S
O29 C12 1.289 . S
O30 Ho1 2.379 1_455 S
O30 C19 1.286 . S
O31 Ho0 2.305 . S
O31 Ho1 2.669 1_455 S
O31 C19 1.256 . S
H32 C5 0.930 . S
H33 C6 0.931 . S
H34 C8 0.934 . S
H35 C9 0.930 . S
H36 C14 0.930 . S
H37 C15 0.931 . S
H38 C17 0.934 . S
H39 C18 0.930 . S
Ho40 C43 2.811 . S
Ho40 O60 2.322 . S
Ho40 O62 2.378 . S
Ho40 O63 2.524 . S
Ho40 O64 2.381 . S
Ho40 O65 2.669 1_565 S
Ho40 O67 2.346 1_565 S
Ho40 O71 2.312 . S
Ho41 C52 2.811 . S
Ho41 O61 2.346 1_545 S
Ho41 O65 2.305 . S
Ho41 O66 2.322 . S
Ho41 O68 2.378 . S
Ho41 O69 2.524 . S
Ho41 O70 2.381 . S
Ho41 O71 2.658 1_545 S
C42 O60 1.259 . S
C42 O61 1.268 . S
C43 Ho40 2.811 . S
C43 C44 1.488 . S
C43 O62 1.215 . S
C43 O63 1.289 . S
C44 C43 1.488 . S
C44 C45 1.348 . S
C44 C49 1.413 . S
C45 C44 1.348 . S
C45 C46 1.442 . S
C45 H72 0.930 . S
C46 C45 1.442 . S
C46 C47 1.381 . S
C46 H73 0.931 . S
C47 C46 1.381 . S
C47 C48 1.321 . S
C48 C47 1.321 . S
C48 C49 1.403 . S
C48 H74 0.934 . S
C49 C44 1.413 . S
C49 C48 1.403 . S
C49 H75 0.930 . S
C50 O64 1.275 1_545 S
C50 O65 1.256 . S
C51 O66 1.259 . S
C51 O67 1.268 . S
C52 Ho41 2.811 . S
C52 C53 1.488 . S
C52 O68 1.215 . S
C52 O69 1.289 . S
C53 C52 1.488 . S
C53 C54 1.348 . S
C53 C58 1.413 . S
C54 C53 1.348 . S
C54 C55 1.442 . S
C54 H76 0.930 . S
C55 C54 1.442 . S
C55 C56 1.381 . S
C55 H77 0.931 . S
C56 C55 1.381 . S
C56 C57 1.321 . S
C57 C56 1.321 . S
C57 C58 1.403 . S
C57 H78 0.934 . S
C58 C53 1.413 . S
C58 C57 1.403 . S
C58 H79 0.930 . S
C59 O70 1.275 . S
C59 O71 1.250 1_545 S
O60 Ho40 2.322 . S
O60 C42 1.259 . S
O61 Ho41 2.346 1_565 S
O61 C42 1.268 . S
O62 Ho40 2.378 . S
O62 C43 1.215 . S
O63 Ho40 2.524 . S
O63 C43 1.289 . S
O64 Ho40 2.381 . S
O64 C50 1.275 1_565 S
O65 Ho40 2.669 1_545 S
O65 Ho41 2.305 . S
O65 C50 1.256 . S
O66 Ho41 2.322 . S
O66 C51 1.259 . S
O67 Ho40 2.346 1_545 S
O67 C51 1.268 . S
O68 Ho41 2.378 . S
O68 C52 1.215 . S
O69 Ho41 2.524 . S
O69 C52 1.289 . S
O70 Ho41 2.381 . S
O70 C59 1.275 . S
O71 Ho40 2.312 . S
O71 Ho41 2.658 1_565 S
O71 C59 1.250 1_565 S
H72 C45 0.930 . S
H73 C46 0.931 . S
H74 C48 0.934 . S
H75 C49 0.930 . S
H76 C54 0.930 . S
H77 C55 0.931 . S
H78 C57 0.934 . S
H79 C58 0.930 . S
Ho80 C83 2.811 . S
Ho80 O100 2.322 . S
Ho80 O102 2.378 . S
Ho80 O103 2.524 . S
Ho80 O104 2.381 . S
Ho80 O105 2.669 . S
Ho80 O107 2.346 . S
Ho80 O111 2.305 . S
Ho81 C92 2.811 . S
Ho81 O101 2.346 . S
Ho81 O105 2.305 . S
Ho81 O106 2.322 . S
Ho81 O108 2.378 . S
Ho81 O109 2.524 . S
Ho81 O110 2.381 . S
Ho81 O111 2.669 . S
C82 O100 1.259 . S
C82 O101 1.268 . S
C83 Ho80 2.811 . S
C83 C84 1.488 . S
C83 O102 1.215 . S
C83 O103 1.289 . S
C84 C83 1.488 . S
C84 C85 1.348 . S
C84 C89 1.413 . S
C85 C84 1.348 . S
C85 C86 1.442 . S
C85 H112 0.930 . S
C86 C85 1.442 . S
C86 C87 1.381 . S
C86 H113 0.931 . S
C87 C86 1.381 . S
C87 C88 1.321 . S
C88 C87 1.321 . S
C88 C89 1.403 . S
C88 H114 0.934 . S
C89 C84 1.413 . S
C89 C88 1.403 . S
C89 H115 0.930 . S
C90 O104 1.275 . S
C90 O105 1.256 . S
C91 O106 1.259 . S
C91 O107 1.268 . S
C92 Ho81 2.811 . S
C92 C93 1.488 . S
C92 O108 1.215 . S
C92 O109 1.289 . S
C93 C92 1.488 . S
C93 C94 1.348 . S
C93 C98 1.413 . S
C94 C93 1.348 . S
C94 C95 1.442 . S
C94 H116 0.930 . S
C95 C94 1.442 . S
C95 C96 1.381 . S
C95 H117 0.931 . S
C96 C95 1.381 . S
C96 C97 1.321 . S
C97 C96 1.321 . S
C97 C98 1.403 . S
C97 H118 0.934 . S
C98 C93 1.413 . S
C98 C97 1.403 . S
C98 H119 0.930 . S
C99 O110 1.275 . S
C99 O111 1.256 . S
O100 Ho80 2.322 . S
O100 C82 1.259 . S
O101 Ho81 2.346 . S
O101 C82 1.268 . S
O102 Ho80 2.378 . S
O102 C83 1.215 . S
O103 Ho80 2.524 . S
O103 C83 1.289 . S
O104 Ho80 2.381 . S
O104 C90 1.275 . S
O105 Ho80 2.669 . S
O105 Ho81 2.305 . S
O105 C90 1.256 . S
O106 Ho81 2.322 . S
O106 C91 1.259 . S
O107 Ho80 2.346 . S
O107 C91 1.268 . S
O108 Ho81 2.378 . S
O108 C92 1.215 . S
O109 Ho81 2.524 . S
O109 C92 1.289 . S
O110 Ho81 2.381 . S
O110 C99 1.275 . S
O111 Ho80 2.305 . S
O111 Ho81 2.669 . S
O111 C99 1.256 . S
H112 C85 0.930 . S
H113 C86 0.931 . S
H114 C88 0.934 . S
H115 C89 0.930 . S
H116 C94 0.930 . S
H117 C95 0.931 . S
H118 C97 0.934 . S
H119 C98 0.930 . S
P120 O131 1.462 1_545 S
P120 C134 1.809 1_545 S
P120 C140 1.827 . S
P120 C146 1.829 . S
H121 C135 0.941 . S
H122 C136 0.939 . S
H123 C138 0.940 . S
H124 C139 0.940 . S
H125 C141 0.939 . S
H126 C142 0.942 . S
H127 C144 0.940 . S
H128 C145 0.939 . S
H129 C147 0.941 . S
H130 C151 0.939 . S
O131 P120 1.462 1_565 S
H132 C148 0.939 . S
H133 C150 0.940 . S
C134 P120 1.809 1_565 S
C134 C135 1.389 . S
C134 C139 1.391 . S
C135 H121 0.941 . S
C135 C134 1.389 . S
C135 C136 1.397 . S
C136 H122 0.939 . S
C136 C135 1.397 . S
C136 C137 1.378 . S
C137 C136 1.378 . S
C137 C138 1.378 . S
C138 H123 0.940 . S
C138 C137 1.378 . S
C138 C139 1.396 . S
C139 H124 0.940 . S
C139 C134 1.391 . S
C139 C138 1.396 . S
C140 P120 1.827 . S
C140 C141 1.378 . S
C140 C145 1.400 . S
C141 H125 0.939 . S
C141 C140 1.378 . S
C141 C142 1.361 . S
C142 H126 0.942 . S
C142 C141 1.361 . S
C142 C143 1.369 . S
C143 C142 1.369 . S
C143 C144 1.404 . S
C144 H127 0.940 . S
C144 C143 1.404 . S
C144 C145 1.389 . S
C145 H128 0.939 . S
C145 C140 1.400 . S
C145 C144 1.389 . S
C146 P120 1.829 . S
C146 C147 1.391 1_545 S
C146 C151 1.391 . S
C147 H129 0.941 . S
C147 C146 1.391 1_565 S
C147 C148 1.396 . S
C148 H132 0.939 . S
C148 C147 1.396 . S
C148 C149 1.397 1_565 S
C149 C148 1.397 1_545 S
C149 C150 1.385 . S
C150 H133 0.940 . S
C150 C149 1.385 . S
C150 C151 1.388 . S
C151 H130 0.939 . S
C151 C146 1.391 . S
C151 C150 1.388 . S
P152 O163 1.490 . S
P152 C166 1.812 . S
P152 C172 1.803 . S
P152 C178 1.819 . S
H153 C167 0.941 . S
H154 C168 0.939 . S
H155 C170 0.940 . S
H156 C171 0.940 . S
H157 C173 0.939 . S
H158 C174 0.942 . S
H159 C176 0.940 . S
H160 C177 0.939 . S
H161 C179 0.941 . S
H162 C183 0.939 . S
O163 P152 1.490 . S
H164 C180 0.939 . S
H165 C182 0.940 . S
C166 P152 1.812 . S
C166 C167 1.389 . S
C166 C171 1.391 . S
C167 H153 0.941 . S
C167 C166 1.389 . S
C167 C168 1.397 . S
C168 H154 0.939 . S
C168 C167 1.397 . S
C168 C169 1.378 . S
C169 C168 1.378 . S
C169 C170 1.378 . S
C170 H155 0.940 . S
C170 C169 1.378 . S
C170 C171 1.396 . S
C171 H156 0.940 . S
C171 C166 1.391 . S
C171 C170 1.396 . S
C172 P152 1.803 . S
C172 C173 1.378 . S
C172 C177 1.400 . S
C173 H157 0.939 . S
C173 C172 1.378 . S
C173 C174 1.361 . S
C174 H158 0.942 . S
C174 C173 1.361 . S
C174 C175 1.369 . S
C175 C174 1.369 . S
C175 C176 1.404 . S
C176 H159 0.940 . S
C176 C175 1.404 . S
C176 C177 1.389 . S
C177 H160 0.939 . S
C177 C172 1.400 . S
C177 C176 1.389 . S
C178 P152 1.819 . S
C178 C179 1.391 . S
C178 C183 1.391 . S
C179 H161 0.941 . S
C179 C178 1.391 . S
C179 C180 1.396 . S
C180 H164 0.939 . S
C180 C179 1.396 . S
C180 C181 1.397 . S
C181 C180 1.397 . S
C181 C182 1.385 . S
C182 H165 0.940 . S
C182 C181 1.385 . S
C182 C183 1.388 . S
C183 H162 0.939 . S
C183 C178 1.391 . S
C183 C182 1.388 . S
P184 O195 1.490 . S
P184 C198 1.812 . S
P184 C204 1.803 . S
P184 C210 1.819 . S
H185 C199 0.941 . S
H186 C200 0.939 . S
H187 C202 0.940 . S
H188 C203 0.940 . S
H189 C205 0.939 . S
H190 C206 0.942 . S
H191 C208 0.940 . S
H192 C209 0.939 . S
H193 C211 0.941 . S
H194 C215 0.939 . S
O195 P184 1.490 . S
H196 C212 0.939 . S
H197 C214 0.940 1_655 S
C198 P184 1.812 . S
C198 C199 1.389 . S
C198 C203 1.391 . S
C199 H185 0.941 . S
C199 C198 1.389 . S
C199 C200 1.397 . S
C200 H186 0.939 . S
C200 C199 1.397 . S
C200 C201 1.378 . S
C201 C200 1.378 . S
C201 C202 1.378 . S
C202 H187 0.940 . S
C202 C201 1.378 . S
C202 C203 1.396 . S
C203 H188 0.940 . S
C203 C198 1.391 . S
C203 C202 1.396 . S
C204 P184 1.803 . S
C204 C205 1.378 . S
C204 C209 1.400 . S
C205 H189 0.939 . S
C205 C204 1.378 . S
C205 C206 1.361 1_455 S
C206 H190 0.942 . S
C206 C205 1.361 1_655 S
C206 C207 1.369 . S
C207 C206 1.369 . S
C207 C208 1.404 . S
C208 H191 0.940 . S
C208 C207 1.404 . S
C208 C209 1.389 1_655 S
C209 H192 0.939 . S
C209 C204 1.400 . S
C209 C208 1.389 1_455 S
C210 P184 1.819 . S
C210 C211 1.391 . S
C210 C215 1.391 . S
C211 H193 0.941 . S
C211 C210 1.391 . S
C211 C212 1.396 . S
C212 H196 0.939 . S
C212 C211 1.396 . S
C212 C213 1.397 . S
C213 C212 1.397 . S
C213 C214 1.385 . S
C214 H197 0.940 1_455 S
C214 C213 1.385 . S
C214 C215 1.388 . S
C215 H194 0.939 . S
C215 C210 1.391 . S
C215 C214 1.388 . S
P216 O227 1.490 . S
P216 C230 1.812 . S
P216 C236 1.803 1_455 S
P216 C242 1.819 . S
H217 C231 0.941 . S
H218 C232 0.939 . S
H219 C234 0.940 . S
H220 C235 0.940 . S
H221 C237 0.939 . S
H222 C238 0.942 . S
H223 C240 0.940 . S
H224 C241 0.939 . S
H225 C243 0.941 . S
H226 C247 0.939 . S
O227 P216 1.490 . S
H228 C244 0.939 . S
H229 C246 0.940 . S
C230 P216 1.812 . S
C230 C231 1.389 . S
C230 C235 1.391 . S
C231 H217 0.941 . S
C231 C230 1.389 . S
C231 C232 1.397 . S
C232 H218 0.939 . S
C232 C231 1.397 . S
C232 C233 1.378 . S
C233 C232 1.378 . S
C233 C234 1.378 . S
C234 H219 0.940 . S
C234 C233 1.378 . S
C234 C235 1.396 . S
C235 H220 0.940 . S
C235 C230 1.391 . S
C235 C234 1.396 . S
C236 P216 1.803 1_655 S
C236 C237 1.378 . S
C236 C241 1.400 . S
C237 H221 0.939 . S
C237 C236 1.378 . S
C237 C238 1.361 . S
C238 H222 0.942 . S
C238 C237 1.361 . S
C238 C239 1.369 . S
C239 C238 1.369 . S
C239 C240 1.404 . S
C240 H223 0.940 . S
C240 C239 1.404 . S
C240 C241 1.389 . S
C241 H224 0.939 . S
C241 C236 1.400 . S
C241 C240 1.389 . S
C242 P216 1.819 . S
C242 C243 1.391 . S
C242 C247 1.391 1_455 S
C243 H225 0.941 . S
C243 C242 1.391 . S
C243 C244 1.396 . S
C244 H228 0.939 . S
C244 C243 1.396 . S
C244 C245 1.397 . S
C245 C244 1.397 . S
C245 C246 1.385 1_455 S
C246 H229 0.940 . S
C246 C245 1.385 1_655 S
C246 C247 1.388 . S
C247 H226 0.939 . S
C247 C242 1.391 1_655 S
C247 C246 1.388 . S
P248 O259 1.490 . S
P248 C262 1.812 . S
P248 C268 1.803 1_545 S
P248 C274 1.819 . S
H249 C263 0.941 . S
H250 C264 0.939 . S
H251 C266 0.940 . S
H252 C267 0.940 . S
H253 C269 0.939 . S
H254 C270 0.942 . S
H255 C272 0.940 . S
H256 C273 0.939 . S
H257 C275 0.941 . S
H258 C279 0.939 . S
O259 P248 1.490 . S
H260 C276 0.939 . S
H261 C278 0.940 . S
C262 P248 1.812 . S
C262 C263 1.389 . S
C262 C267 1.391 . S
C263 H249 0.941 . S
C263 C262 1.389 . S
C263 C264 1.397 . S
C264 H250 0.939 . S
C264 C263 1.397 . S
C264 C265 1.378 . S
C265 C264 1.378 . S
C265 C266 1.378 . S
C266 H251 0.940 . S
C266 C265 1.378 . S
C266 C267 1.396 . S
C267 H252 0.940 . S
C267 C262 1.391 . S
C267 C266 1.396 . S
C268 P248 1.803 1_565 S
C268 C269 1.378 . S
C268 C273 1.400 . S
C269 H253 0.939 . S
C269 C268 1.378 . S
C269 C270 1.361 . S
C270 H254 0.942 . S
C270 C269 1.361 . S
C270 C271 1.369 . S
C271 C270 1.369 . S
C271 C272 1.404 . S
C272 H255 0.940 . S
C272 C271 1.404 . S
C272 C273 1.389 . S
C273 H256 0.939 . S
C273 C268 1.400 . S
C273 C272 1.389 . S
C274 P248 1.819 . S
C274 C275 1.391 . S
C274 C279 1.391 1_545 S
C275 H257 0.941 . S
C275 C274 1.391 . S
C275 C276 1.396 . S
C276 H260 0.939 . S
C276 C275 1.396 . S
C276 C277 1.397 . S
C277 C276 1.397 . S
C277 C278 1.385 1_545 S
C278 H261 0.940 . S
C278 C277 1.385 1_565 S
C278 C279 1.388 . S
C279 H258 0.939 . S
C279 C274 1.391 1_565 S
C279 C278 1.388 . S
P280 O291 1.490 . S
P280 C294 1.812 . S
P280 C300 1.803 . S
P280 C306 1.819 . S
H281 C295 0.941 . S
H282 C296 0.939 . S
H283 C298 0.940 . S
H284 C299 0.940 . S
H285 C301 0.939 . S
H286 C302 0.942 . S
H287 C304 0.940 . S
H288 C305 0.939 . S
H289 C307 0.941 . S
H290 C311 0.939 . S
O291 P280 1.490 . S
H292 C308 0.939 . S
H293 C310 0.940 . S
C294 P280 1.812 . S
C294 C295 1.389 . S
C294 C299 1.391 . S
C295 H281 0.941 . S
C295 C294 1.389 . S
C295 C296 1.397 . S
C296 H282 0.939 . S
C296 C295 1.397 . S
C296 C297 1.378 . S
C297 C296 1.378 . S
C297 C298 1.378 . S
C298 H283 0.940 . S
C298 C297 1.378 . S
C298 C299 1.396 . S
C299 H284 0.940 . S
C299 C294 1.391 . S
C299 C298 1.396 . S
C300 P280 1.803 . S
C300 C301 1.378 . S
C300 C305 1.400 . S
C301 H285 0.939 . S
C301 C300 1.378 . S
C301 C302 1.361 . S
C302 H286 0.942 . S
C302 C301 1.361 . S
C302 C303 1.369 . S
C303 C302 1.369 . S
C303 C304 1.404 . S
C304 H287 0.940 . S
C304 C303 1.404 . S
C304 C305 1.389 . S
C305 H288 0.939 . S
C305 C300 1.400 . S
C305 C304 1.389 . S
C306 P280 1.819 . S
C306 C307 1.391 . S
C306 C311 1.391 . S
C307 H289 0.941 . S
C307 C306 1.391 . S
C307 C308 1.396 . S
C308 H292 0.939 . S
C308 C307 1.396 . S
C308 C309 1.397 . S
C309 C308 1.397 . S
C309 C310 1.385 . S
C310 H293 0.940 . S
C310 C309 1.385 . S
C310 C311 1.388 . S
C311 H290 0.939 . S
C311 C306 1.391 . S
C311 C310 1.388 . S
H312 C318 0.930 . S
H313 C321 0.930 . S
H314 C322 0.930 . S
H315 C323 0.930 . S
H316 C326 0.930 . S
H317 C327 0.930 . S
C318 H312 0.930 . S
C318 C319 1.355 . S
C318 C320 1.415 . S
C319 C318 1.355 . S
C319 C321 1.419 . S
C320 C318 1.415 . S
C320 C325 1.425 . S
C320 C327 1.409 . S
C321 H313 0.930 . S
C321 C319 1.419 . S
C321 C322 1.362 . S
C322 H314 0.930 . S
C322 C321 1.362 . S
C322 C325 1.409 . S
C323 H315 0.930 . S
C323 C324 1.355 . S
C323 C325 1.415 . S
C324 C323 1.355 . S
C324 C326 1.419 . S
C325 C320 1.425 . S
C325 C322 1.409 . S
C325 C323 1.415 . S
C326 H316 0.930 . S
C326 C324 1.419 . S
C326 C327 1.362 . S
C327 H317 0.930 . S
C327 C320 1.409 . S
C327 C326 1.362 . S
H328 C334 0.930 . S
H329 C337 0.930 . S
H330 C338 0.930 . S
H331 C339 0.930 . S
H332 C342 0.930 . S
H333 C343 0.930 . S
C334 H328 0.930 . S
C334 C335 1.355 . S
C334 C336 1.415 . S
C335 C334 1.355 . S
C335 C337 1.419 . S
C336 C334 1.415 . S
C336 C341 1.425 . S
C336 C343 1.409 . S
C337 H329 0.930 . S
C337 C335 1.419 . S
C337 C338 1.362 . S
C338 H330 0.930 . S
C338 C337 1.362 . S
C338 C341 1.409 . S
C339 H331 0.930 . S
C339 C340 1.355 . S
C339 C341 1.415 . S
C340 C339 1.355 . S
C340 C342 1.419 . S
C341 C336 1.425 . S
C341 C338 1.409 . S
C341 C339 1.415 . S
C342 H332 0.930 . S
C342 C340 1.419 . S
C342 C343 1.362 . S
C343 H333 0.930 . S
C343 C336 1.409 . S
C343 C342 1.362 . S
H344 C350 0.930 . S
H345 C353 0.930 . S
H346 C354 0.930 . S
H347 C355 0.930 . S
H348 C358 0.930 . S
H349 C359 0.930 . S
C350 H344 0.930 . S
C350 C351 1.355 . S
C350 C352 1.415 . S
C351 C350 1.355 . S
C351 C353 1.419 . S
C352 C350 1.415 . S
C352 C357 1.425 . S
C352 C359 1.409 . S
C353 H345 0.930 . S
C353 C351 1.419 . S
C353 C354 1.362 . S
C354 H346 0.930 . S
C354 C353 1.362 . S
C354 C357 1.409 . S
C355 H347 0.930 . S
C355 C356 1.355 . S
C355 C357 1.415 . S
C356 C355 1.355 . S
C356 C358 1.419 . S
C357 C352 1.425 . S
C357 C354 1.409 . S
C357 C355 1.415 . S
C358 H348 0.930 . S
C358 C356 1.419 . S
C358 C359 1.362 . S
C359 H349 0.930 . S
C359 C352 1.409 . S
C359 C358 1.362 . S
H360 C366 0.930 . S
H361 C369 0.930 . S
H362 C370 0.930 . S
H363 C371 0.930 . S
H364 C374 0.930 . S
H365 C375 0.930 . S
C366 H360 0.930 . S
C366 C367 1.355 . S
C366 C368 1.415 . S
C367 C366 1.355 . S
C367 C369 1.419 . S
C368 C366 1.415 . S
C368 C373 1.425 . S
C368 C375 1.409 . S
C369 H361 0.930 . S
C369 C367 1.419 . S
C369 C370 1.362 . S
C370 H362 0.930 . S
C370 C369 1.362 . S
C370 C373 1.409 . S
C371 H363 0.930 . S
C371 C372 1.355 . S
C371 C373 1.415 . S
C372 C371 1.355 . S
C372 C374 1.419 . S
C373 C368 1.425 . S
C373 C370 1.409 . S
C373 C371 1.415 . S
C374 H364 0.930 . S
C374 C372 1.419 . S
C374 C375 1.362 . S
C375 H365 0.930 . S
C375 C368 1.409 . S
C375 C374 1.362 . S
H376 C382 0.930 . S
H377 C385 0.930 . S
H378 C386 0.930 . S
H379 C387 0.930 . S
H380 C390 0.930 . S
H381 C391 0.930 . S
C382 H376 0.930 . S
C382 C383 1.355 . S
C382 C384 1.415 . S
C383 C382 1.355 . S
C383 C385 1.419 . S
C384 C382 1.415 . S
C384 C389 1.425 . S
C384 C391 1.409 . S
C385 H377 0.930 . S
C385 C383 1.419 . S
C385 C386 1.362 . S
C386 H378 0.930 . S
C386 C385 1.362 . S
C386 C389 1.409 . S
C387 H379 0.930 . S
C387 C388 1.355 . S
C387 C389 1.415 . S
C388 C387 1.355 . S
C388 C390 1.419 . S
C389 C384 1.425 . S
C389 C386 1.409 . S
C389 C387 1.415 . S
C390 H380 0.930 . S
C390 C388 1.419 . S
C390 C391 1.362 . S
C391 H381 0.930 . S
C391 C384 1.409 . S
C391 C390 1.362 . S
H392 C398 0.930 . S
H393 C401 0.930 . S
H394 C402 0.930 . S
H395 C403 0.930 . S
H396 C406 0.930 . S
H397 C407 0.930 . S
C398 H392 0.930 . S
C398 C399 1.355 . S
C398 C400 1.415 . S
C399 C398 1.355 . S
C399 C401 1.419 . S
C400 C398 1.415 . S
C400 C405 1.425 . S
C400 C407 1.409 . S
C401 H393 0.930 . S
C401 C399 1.419 . S
C401 C402 1.362 . S
C402 H394 0.930 . S
C402 C401 1.362 . S
C402 C405 1.409 . S
C403 H395 0.930 . S
C403 C404 1.355 . S
C403 C405 1.415 . S
C404 C403 1.355 . S
C404 C406 1.419 . S
C405 C400 1.425 . S
C405 C402 1.409 . S
C405 C403 1.415 . S
C406 H396 0.930 . S
C406 C404 1.419 . S
C406 C407 1.362 . S
C407 H397 0.930 . S
C407 C400 1.409 . S
C407 C406 1.362 . S
H408 C414 0.930 . S
H409 C417 0.930 . S
H410 C418 0.930 . S
H411 C419 0.930 . S
H412 C422 0.930 . S
H413 C423 0.930 . S
C414 H408 0.930 . S
C414 C415 1.355 . S
C414 C416 1.415 . S
C415 C414 1.355 . S
C415 C417 1.419 . S
C416 C414 1.415 . S
C416 C421 1.425 . S
C416 C423 1.409 . S
C417 H409 0.930 . S
C417 C415 1.419 . S
C417 C418 1.362 . S
C418 H410 0.930 . S
C418 C417 1.362 . S
C418 C421 1.409 . S
C419 H411 0.930 . S
C419 C420 1.355 . S
C419 C421 1.415 . S
C420 C419 1.355 . S
C420 C422 1.419 . S
C421 C416 1.425 . S
C421 C418 1.409 . S
C421 C419 1.415 . S
C422 H412 0.930 . S
C422 C420 1.419 . S
C422 C423 1.362 . S
C423 H413 0.930 . S
C423 C416 1.409 . S
C423 C422 1.362 . S
H424 C430 0.930 . S
H425 C433 0.930 . S
H426 C434 0.930 . S
H427 C435 0.930 . S
H428 C438 0.930 . S
H429 C439 0.930 . S
C430 H424 0.930 . S
C430 C431 1.355 . S
C430 C432 1.415 . S
C431 C430 1.355 . S
C431 C433 1.419 . S
C432 C430 1.415 . S
C432 C437 1.425 . S
C432 C439 1.409 . S
C433 H425 0.930 . S
C433 C431 1.419 . S
C433 C434 1.362 . S
C434 H426 0.930 . S
C434 C433 1.362 . S
C434 C437 1.409 . S
C435 H427 0.930 . S
C435 C436 1.355 . S
C435 C437 1.415 . S
C436 C435 1.355 . S
C436 C438 1.419 . S
C437 C432 1.425 . S
C437 C434 1.409 . S
C437 C435 1.415 . S
C438 H428 0.930 . S
C438 C436 1.419 . S
C438 C439 1.362 . S
C439 H429 0.930 . S
C439 C432 1.409 . S
C439 C438 1.362 . S
H440 C446 0.930 . S
H441 C449 0.930 . S
H442 C450 0.930 . S
H443 C451 0.930 . S
H444 C454 0.930 . S
H445 C455 0.930 . S
C446 H440 0.930 . S
C446 C447 1.355 . S
C446 C448 1.415 . S
C447 C446 1.355 . S
C447 C449 1.419 . S
C448 C446 1.415 . S
C448 C453 1.425 . S
C448 C455 1.409 . S
C449 H441 0.930 . S
C449 C447 1.419 . S
C449 C450 1.362 . S
C450 H442 0.930 . S
C450 C449 1.362 . S
C450 C453 1.409 . S
C451 H443 0.930 . S
C451 C452 1.355 . S
C451 C453 1.415 . S
C452 C451 1.355 . S
C452 C454 1.419 . S
C453 C448 1.425 . S
C453 C450 1.409 . S
C453 C451 1.415 . S
C454 H444 0.930 . S
C454 C452 1.419 . S
C454 C455 1.362 . S
C455 H445 0.930 . S
C455 C448 1.409 . S
C455 C454 1.362 . S
H456 C462 0.930 . S
H457 C465 0.930 . S
H458 C466 0.930 . S
H459 C467 0.930 . S
H460 C470 0.930 . S
H461 C471 0.930 . S
C462 H456 0.930 . S
C462 C463 1.355 . S
C462 C464 1.415 . S
C463 C462 1.355 . S
C463 C465 1.419 . S
C464 C462 1.415 . S
C464 C469 1.425 . S
C464 C471 1.409 . S
C465 H457 0.930 . S
C465 C463 1.419 . S
C465 C466 1.362 . S
C466 H458 0.930 . S
C466 C465 1.362 . S
C466 C469 1.409 . S
C467 H459 0.930 . S
C467 C468 1.355 . S
C467 C469 1.415 . S
C468 C467 1.355 . S
C468 C470 1.419 . S
C469 C464 1.425 . S
C469 C466 1.409 . S
C469 C467 1.415 . S
C470 H460 0.930 . S
C470 C468 1.419 . S
C470 C471 1.362 . S
C471 H461 0.930 . S
C471 C464 1.409 . S
C471 C470 1.362 . S
H472 C478 0.930 . S
H473 C481 0.930 . S
H474 C482 0.930 . S
H475 C483 0.930 . S
H476 C486 0.930 . S
H477 C487 0.930 . S
C478 H472 0.930 . S
C478 C479 1.355 . S
C478 C480 1.415 . S
C479 C478 1.355 . S
C479 C481 1.419 . S
C480 C478 1.415 . S
C480 C485 1.425 . S
C480 C487 1.409 . S
C481 H473 0.930 . S
C481 C479 1.419 . S
C481 C482 1.362 . S
C482 H474 0.930 . S
C482 C481 1.362 . S
C482 C485 1.409 . S
C483 H475 0.930 . S
C483 C484 1.355 . S
C483 C485 1.415 . S
C484 C483 1.355 . S
C484 C486 1.419 . S
C485 C480 1.425 . S
C485 C482 1.409 . S
C485 C483 1.415 . S
C486 H476 0.930 . S
C486 C484 1.419 . S
C486 C487 1.362 . S
C487 H477 0.930 . S
C487 C480 1.409 . S
C487 C486 1.362 . S
H488 C494 0.930 . S
H489 C497 0.930 . S
H490 C498 0.930 . S
H491 C499 0.930 . S
H492 C502 0.930 . S
H493 C503 0.930 . S
C494 H488 0.930 . S
C494 C495 1.355 . S
C494 C496 1.415 . S
C495 C494 1.355 . S
C495 C497 1.419 . S
C496 C494 1.415 . S
C496 C501 1.425 . S
C496 C503 1.409 . S
C497 H489 0.930 . S
C497 C495 1.419 . S
C497 C498 1.362 . S
C498 H490 0.930 . S
C498 C497 1.362 . S
C498 C501 1.409 . S
C499 H491 0.930 . S
C499 C500 1.355 . S
C499 C501 1.415 . S
C500 C499 1.355 . S
C500 C502 1.419 . S
C501 C496 1.425 . S
C501 C498 1.409 . S
C501 C499 1.415 . S
C502 H492 0.930 . S
C502 C500 1.419 . S
C502 C503 1.362 . S
C503 H493 0.930 . S
C503 C496 1.409 . S
C503 C502 1.362 . S
H504 C510 0.930 . S
H505 C513 0.930 . S
H506 C514 0.930 . S
H507 C515 0.930 1_655 S
H508 C518 0.930 1_556 S
H509 C519 0.930 . S
C510 H504 0.930 . S
C510 C511 1.355 . S
C510 C512 1.415 . S
C511 C510 1.355 . S
C511 C513 1.419 1_455 S
C512 C510 1.415 . S
C512 C517 1.425 . S
C512 C519 1.409 . S
C513 H505 0.930 . S
C513 C511 1.419 1_655 S
C513 C514 1.362 . S
C514 H506 0.930 . S
C514 C513 1.362 . S
C514 C517 1.409 1_655 S
C515 H507 0.930 1_455 S
C515 C516 1.355 1_554 S
C515 C517 1.415 . S
C516 C515 1.355 1_556 S
C516 C518 1.419 1_556 S
C517 C512 1.425 . S
C517 C514 1.409 1_455 S
C517 C515 1.415 . S
C518 H508 0.930 1_554 S
C518 C516 1.419 1_554 S
C518 C519 1.362 . S
C519 H509 0.930 . S
C519 C512 1.409 . S
C519 C518 1.362 . S
H520 C526 0.930 . S
H521 C529 0.930 . S
H522 C530 0.930 . S
H523 C531 0.930 . S
H524 C534 0.930 . S
H525 C535 0.930 . S
C526 H520 0.930 . S
C526 C527 1.355 1_565 S
C526 C528 1.417 . S
C527 C526 1.355 1_545 S
C527 C529 1.419 . S
C528 C526 1.417 . S
C528 C533 1.422 1_565 S
C528 C535 1.410 . S
C529 H521 0.930 . S
C529 C527 1.419 . S
C529 C530 1.362 . S
C530 H522 0.930 . S
C530 C529 1.362 . S
C530 C533 1.409 . S
C531 H523 0.930 . S
C531 C532 1.355 . S
C531 C533 1.415 . S
C532 C531 1.355 . S
C532 C534 1.419 1_545 S
C533 C528 1.422 1_545 S
C533 C530 1.409 . S
C533 C531 1.415 . S
C534 H524 0.930 . S
C534 C532 1.419 1_565 S
C534 C535 1.362 . S
C535 H525 0.930 . S
C535 C528 1.410 . S
C535 C534 1.362 . S
H536 C542 0.930 . S
H537 C545 0.930 . S
H538 C546 0.930 . S
H539 C547 0.930 . S
H540 C550 0.930 . S
H541 C551 0.930 . S
C542 H536 0.930 . S
C542 C543 1.355 . S
C542 C544 1.415 . S
C543 C542 1.355 . S
C543 C545 1.419 . S
C544 C542 1.415 . S
C544 C549 1.425 . S
C544 C551 1.409 . S
C545 H537 0.930 . S
C545 C543 1.419 . S
C545 C546 1.362 . S
C546 H538 0.930 . S
C546 C545 1.362 . S
C546 C549 1.409 . S
C547 H539 0.930 . S
C547 C548 1.355 . S
C547 C549 1.415 . S
C548 C547 1.355 . S
C548 C550 1.419 . S
C549 C544 1.425 . S
C549 C546 1.409 . S
C549 C547 1.415 . S
C550 H540 0.930 . S
C550 C548 1.419 . S
C550 C551 1.362 . S
C551 H541 0.930 . S
C551 C544 1.409 . S
C551 C550 1.362 . S
H552 C558 0.930 . S
H553 C561 0.930 . S
H554 C562 0.930 . S
H555 C563 0.930 . S
H556 C566 0.930 . S
H557 C567 0.930 . S
C558 H552 0.930 . S
C558 C559 1.355 . S
C558 C560 1.415 . S
C559 C558 1.355 . S
C559 C561 1.419 1_545 S
C560 C558 1.415 . S
C560 C565 1.425 1_545 S
C560 C567 1.409 . S
C561 H553 0.930 . S
C561 C559 1.419 1_565 S
C561 C562 1.362 . S
C562 H554 0.930 . S
C562 C561 1.362 . S
C562 C565 1.409 . S
C563 H555 0.930 . S
C563 C564 1.355 1_565 S
C563 C565 1.415 . S
C564 C563 1.355 1_545 S
C564 C566 1.419 . S
C565 C560 1.425 1_565 S
C565 C562 1.409 . S
C565 C563 1.415 . S
C566 H556 0.930 . S
C566 C564 1.419 . S
C566 C567 1.362 . S
C567 H557 0.930 . S
C567 C560 1.409 . S
C567 C566 1.362 . S
H568 C574 0.930 . S
H569 C577 0.930 . S
H570 C578 0.930 . S
H571 C579 0.930 . S
H572 C582 0.953 . S
H573 C583 0.930 . S
C574 H568 0.930 . S
C574 C575 1.355 . S
C574 C576 1.415 . S
C575 C574 1.355 . S
C575 C577 1.419 . S
C576 C574 1.415 . S
C576 C581 1.425 . S
C576 C583 1.409 . S
C577 H569 0.930 . S
C577 C575 1.419 . S
C577 C578 1.362 . S
C578 H570 0.930 . S
C578 C577 1.362 . S
C578 C581 1.409 . S
C579 H571 0.930 . S
C579 C580 1.355 . S
C579 C581 1.415 . S
C580 C579 1.355 . S
C580 C582 1.419 . S
C581 C576 1.425 . S
C581 C578 1.409 . S
C581 C579 1.415 . S
C582 H572 0.953 . S
C582 C580 1.419 . S
C582 C583 1.362 . S
C583 H573 0.930 . S
C583 C576 1.409 . S
C583 C582 1.362 . S
H584 C590 0.930 . S
H585 C593 0.930 . S
H586 C594 0.930 . S
H587 C595 0.930 . S
H588 C598 0.930 . S
H589 C599 0.930 . S
C590 H584 0.930 . S
C590 C591 1.355 1_655 S
C590 C592 1.415 . S
C591 C590 1.355 1_455 S
C591 C593 1.419 . S
C592 C590 1.415 . S
C592 C597 1.425 1_655 S
C592 C599 1.409 . S
C593 H585 0.930 . S
C593 C591 1.419 . S
C593 C594 1.362 . S
C594 H586 0.930 . S
C594 C593 1.362 . S
C594 C597 1.409 . S
C595 H587 0.930 . S
C595 C596 1.355 1_455 S
C595 C597 1.415 . S
C596 C595 1.355 1_655 S
C596 C598 1.419 . S
C597 C592 1.425 1_455 S
C597 C594 1.409 . S
C597 C595 1.415 . S
C598 H588 0.930 . S
C598 C596 1.419 . S
C598 C599 1.362 . S
C599 H589 0.930 . S
C599 C592 1.409 . S
C599 C598 1.362 . S
C319 C7 0.634 . S
C324 C303 0.713 . S
C335 C51 1.919 . S
C340 C239 1.887 . S
C351 C87 1.294 . S
C356 C271 1.316 . S
C367 C16 0.691 . S
C372 C297 0.598 . S
C388 C233 1.903 . S
C383 C42 1.999 . S
C404 C265 1.298 . S
C399 C96 1.337 . S
C415 C47 1.266 . S
C420 C175 1.250 . S
C431 C91 3.084 . S
C436 C207 3.024 . S
C447 C2 2.030 . S
C452 C137 1.998 . S
C468 C169 1.339 . S
C463 C56 1.336 . S
C484 C201 3.006 . S
C479 C82 3.015 . S
C495 C11 1.911 . S
C500 C143 1.905 . S
C516 C213 1.746 . S
C511 C19 1.696 . S
C527 C50 1.310 . S
C532 C149 1.366 . S
C543 C99 1.470 . S
C548 C181 1.500 . S
C564 C277 1.413 . S
C559 C59 1.439 . S
C580 C309 1.089 1_556 S
C575 C90 1.101 . S
C591 C10 1.298 . S
C596 C245 1.357 1_655 S
