# Generated by pormake.
# Topology anh, (6,3)-cn, num edge types: 1
# Building blocks:
#     Node 0, Type 0, BuildingBlock: CUWYAW_clean_sbu_0, # of connection points: 6
#     Node 1, Type 0, BuildingBlock: CUWYAW_clean_sbu_0, # of connection points: 6
#     Node 2, Type 0, BuildingBlock: CUWYAW_clean_sbu_0, # of connection points: 6
#     Node 3, Type 1, BuildingBlock: ESEHIV_clean_linker_0, # of connection points: 3
#     Node 4, Type 1, BuildingBlock: ESEHIV_clean_linker_0, # of connection points: 3
#     Node 5, Type 1, BuildingBlock: ESEHIV_clean_linker_0, # of connection points: 3
#     Node 6, Type 1, BuildingBlock: ESEHIV_clean_linker_0, # of connection points: 3
#     Node 7, Type 1, BuildingBlock: ESEHIV_clean_linker_0, # of connection points: 3
#     Node 8, Type 1, BuildingBlock: ESEHIV_clean_linker_0, # of connection points: 3
#     Edge 9, Type (0, 1), BuildingBlock: XIVTED_clean_linker_0, # of connection points: 2
#     Edge 10, Type (0, 1), BuildingBlock: XIVTED_clean_linker_0, # of connection points: 2
#     Edge 11, Type (0, 1), BuildingBlock: XIVTED_clean_linker_0, # of connection points: 2
#     Edge 12, Type (0, 1), BuildingBlock: XIVTED_clean_linker_0, # of connection points: 2
#     Edge 13, Type (0, 1), BuildingBlock: XIVTED_clean_linker_0, # of connection points: 2
#     Edge 14, Type (0, 1), BuildingBlock: XIVTED_clean_linker_0, # of connection points: 2
#     Edge 15, Type (0, 1), BuildingBlock: XIVTED_clean_linker_0, # of connection points: 2
#     Edge 16, Type (0, 1), BuildingBlock: XIVTED_clean_linker_0, # of connection points: 2
#     Edge 17, Type (0, 1), BuildingBlock: XIVTED_clean_linker_0, # of connection points: 2
#     Edge 18, Type (0, 1), BuildingBlock: XIVTED_clean_linker_0, # of connection points: 2
#     Edge 19, Type (0, 1), BuildingBlock: XIVTED_clean_linker_0, # of connection points: 2
#     Edge 20, Type (0, 1), BuildingBlock: XIVTED_clean_linker_0, # of connection points: 2
#     Edge 21, Type (0, 1), BuildingBlock: XIVTED_clean_linker_0, # of connection points: 2
#     Edge 22, Type (0, 1), BuildingBlock: XIVTED_clean_linker_0, # of connection points: 2
#     Edge 23, Type (0, 1), BuildingBlock: XIVTED_clean_linker_0, # of connection points: 2
#     Edge 24, Type (0, 1), BuildingBlock: XIVTED_clean_linker_0, # of connection points: 2
#     Edge 25, Type (0, 1), BuildingBlock: XIVTED_clean_linker_0, # of connection points: 2
#     Edge 26, Type (0, 1), BuildingBlock: XIVTED_clean_linker_0, # of connection points: 2
# Relax obj value: 0.311
# Max RMSD: 0.194
# Mean RMSD: 0.164
data_MOF--net-anh--node1-CUWYAW_clean_sbu_0--node2-ESEHIV_clean_linker_0--edge1-XIVTED_clean_linker_0
_symmetry_space_group_name_H-M    P1
_symmetry_Int_Tables_number       1
_symmetry_cell_setting            triclinic
loop_
_symmetry_equiv_pos_as_xyz
'x, y, z'
_cell_length_a     28.966447
_cell_length_b     29.115447
_cell_length_c     52.78479
_cell_angle_alpha  90.07888
_cell_angle_beta   90.234417
_cell_angle_gamma 120.1983
loop_
_atom_site_label
_atom_site_type_symbol
_atom_site_fract_x
_atom_site_fract_y
_atom_site_fract_z
_atom_type_partial_charge
C0 C 1.04815 0.41329 0.13302 0.0
Eu1 Eu 0.1111 0.51085 0.14605 0.0
C2 C 0.99181 0.38354 0.14112 0.0
C3 C 0.98056 0.37878 0.16718 0.0
C4 C 0.93546 0.3791 0.17594 0.0
C5 C 0.90051 0.3832 0.15882 0.0
C6 C 0.9067 0.37849 0.13277 0.0
C7 C 0.95207 0.3783 0.12395 0.0
C8 C 0.11687 0.54204 0.19566 0.0
C9 C 1.03456 0.56859 0.14133 0.0
C10 C 0.22187 0.73039 0.14818 0.0
Eu11 Eu 0.16456 0.62772 0.14345 0.0
C12 C 0.27651 0.77534 0.15167 0.0
C13 C 0.30075 0.81157 0.13179 0.0
C14 C 0.34701 0.86027 0.13615 0.0
C15 C 0.36946 0.87374 0.16056 0.0
C16 C 0.34772 0.83557 0.1799 0.0
C17 C 0.30157 0.7868 0.17552 0.0
C18 C 0.13279 0.57551 0.0989 0.0
C19 C 0.2426 0.57171 0.14072 0.0
O20 O 1.05847 0.45321 0.11815 0.0
O21 O 1.08476 0.42652 0.15074 0.0
O22 O 1.09766 0.49389 0.18766 0.0
O23 O 0.13451 0.57397 0.17694 0.0
O24 O 1.0383 0.5248 0.13902 0.0
O25 O 1.07892 0.61425 0.14632 0.0
O26 O 0.19891 0.69834 0.16731 0.0
O27 O 0.21025 0.70585 0.12635 0.0
O28 O 0.12287 0.61284 0.105 0.0
O29 O 0.1568 0.56755 0.1166 0.0
O30 O 0.23978 0.61631 0.14236 0.0
O31 O 0.19725 0.52486 0.14151 0.0
H32 H 1.00955 0.38141 0.181 0.0
H33 H 0.93018 0.38034 0.1962 0.0
H34 H 0.87958 0.38039 0.11919 0.0
H35 H 0.95944 0.38136 0.10374 0.0
H36 H 0.28219 0.80364 0.11321 0.0
H37 H 0.36335 0.88863 0.1208 0.0
H38 H 0.36374 0.84486 0.19899 0.0
H39 H 0.28384 0.75965 0.19123 0.0
C40 C 0.55489 0.18736 0.47294 0.0
Eu41 Eu 0.58244 0.11698 0.48137 0.0
C42 C 0.59113 0.24445 0.47837 0.0
C43 C 0.60645 0.2608 0.50359 0.0
C44 C 0.65551 0.30569 0.50892 0.0
C45 C 0.68968 0.33574 0.48921 0.0
C46 C 0.67114 0.32425 0.46411 0.0
C47 C 0.62215 0.2786 0.45869 0.0
C48 C 0.59802 0.09531 0.53022 0.0
C49 C 0.71718 0.19268 0.47775 0.0
C50 C 0.6825 1.00481 0.49471 0.0
Eu51 Eu 0.64328 1.06495 0.48297 0.0
C52 C 0.66893 0.94886 0.49356 0.0
C53 C 0.6721 0.92563 0.47073 0.0
C54 C 0.66866 0.87603 0.47086 0.0
C55 C 0.66211 0.84903 0.49378 0.0
C56 C 0.65476 0.87056 0.51624 0.0
C57 C 0.65838 0.92008 0.51613 0.0
C58 C 0.62755 0.09007 0.43565 0.0
C59 C 0.50892 0.98821 0.47498 0.0
O60 O 0.5714 0.16829 0.45498 0.0
O61 O 0.53773 0.15577 0.49257 0.0
O62 O 0.55342 0.0884 0.52103 0.0
O63 O 0.63348 0.1134 0.51304 0.0
O64 O 0.66957 0.18816 0.47355 0.0
O65 O 0.71774 0.14945 0.4853 0.0
O66 O 0.65564 1.0168 0.51068 0.0
O67 O 0.6923 1.0306 0.47333 0.0
O68 O 0.67293 0.0963 0.44335 0.0
O69 O 0.59338 0.06942 0.45281 0.0
O70 O 0.55514 0.99062 0.48112 0.0
O71 O 0.50971 1.03403 0.47186 0.0
H72 H 0.58327 0.23621 0.5193 0.0
H73 H 0.66811 0.31519 0.52852 0.0
H74 H 0.69641 0.34774 0.44864 0.0
H75 H 0.61123 0.26722 0.43906 0.0
H76 H 0.67994 0.94677 0.45296 0.0
H77 H 0.67404 0.86016 0.45326 0.0
H78 H 0.65049 0.85127 0.53431 0.0
H79 H 0.65599 0.93716 0.53398 0.0
C80 C 0.81018 0.68066 0.80829 0.0
Eu81 Eu 0.70858 0.6444 0.81389 0.0
C82 C 0.8383 0.65058 0.81161 0.0
C83 C 0.86818 0.65813 0.83378 0.0
C84 C 0.87754 0.61819 0.84228 0.0
C85 C 0.85731 0.57027 0.82866 0.0
C86 C 0.83466 0.56629 0.80464 0.0
C87 C 0.82516 0.60615 0.79615 0.0
C88 C 0.66543 0.62542 0.86159 0.0
C89 C 0.65354 0.5109 0.80896 0.0
C90 C 0.4936 0.53351 0.82069 0.0
Eu91 Eu 0.59579 0.58124 0.81238 0.0
C92 C 0.44262 0.53278 0.81778 0.0
C93 C 0.40783 0.504 0.79771 0.0
C94 C 0.35418 0.49008 0.79851 0.0
C95 C 0.33439 0.50444 0.81945 0.0
C96 C 0.3704 0.53756 0.83827 0.0
C97 C 0.42398 0.55144 0.83747 0.0
C98 C 0.64153 0.59952 0.76616 0.0
C99 C 0.65019 0.71492 0.80641 0.0
O100 O 0.77679 0.66633 0.78924 0.0
O101 O 0.78981 0.68761 0.82898 0.0
O102 O 0.70123 0.67148 0.85316 0.0
O103 O 0.65182 0.59094 0.84405 0.0
O104 O 0.69625 0.55896 0.80516 0.0
O105 O 0.60885 0.50927 0.81603 0.0
O106 O 0.52929 0.56667 0.83689 0.0
O107 O 0.51463 0.52576 0.80047 0.0
O108 O 0.60227 0.55381 0.77294 0.0
O109 O 0.65285 0.63311 0.7835 0.0
O110 O 0.60613 0.66778 0.8109 0.0
O111 O 0.69647 0.71569 0.80484 0.0
H112 H 0.87971 0.69248 0.8458 0.0
H113 H 0.89721 0.62327 0.86042 0.0
H114 H 0.81989 0.53043 0.79342 0.0
H115 H 0.80298 0.59952 0.77864 0.0
H116 H 0.42099 0.48889 0.78228 0.0
H117 H 0.32752 0.46518 0.78358 0.0
H118 H 0.35647 0.54894 0.85482 0.0
H119 H 0.44968 0.57332 0.85329 0.0
H120 H 0.5155 0.18017 0.28163 0.0
H121 H 0.6284 0.347 0.28844 0.0
H122 H 0.57889 0.27288 0.21488 0.0
C123 C 0.53857 0.21897 0.27296 0.0
C124 C 0.5416 0.22247 0.24656 0.0
C125 C 0.57035 0.26354 0.28816 0.0
C126 C 0.60272 0.31305 0.27664 0.0
C127 C 0.60617 0.31741 0.25001 0.0
C128 C 0.57396 0.27183 0.23524 0.0
H129 H 0.81497 0.69914 0.60552 0.0
H130 H 0.89871 0.61331 0.61445 0.0
H131 H 0.86111 0.64656 0.53994 0.0
C132 C 0.8367 0.68148 0.59728 0.0
C133 C 0.83775 0.67716 0.57096 0.0
C134 C 0.8585 0.65851 0.61307 0.0
C135 C 0.8838 0.63284 0.60221 0.0
C136 C 0.88605 0.62894 0.57564 0.0
C137 C 0.86375 0.65247 0.56028 0.0
H138 H 0.90042 0.3255 0.95747 0.0
H139 H 1.04048 0.31284 0.94509 0.0
H140 H 0.94762 0.31233 0.88223 0.0
C141 C 0.92559 0.31795 0.94514 0.0
C142 C 0.91559 0.31413 0.91885 0.0
C143 C 0.97229 0.32073 0.95489 0.0
C144 C 1.00442 0.31125 0.93822 0.0
C145 C 0.99679 0.31061 0.91199 0.0
C146 C 0.95085 0.30884 0.90253 0.0
H147 H 1.04 0.51217 0.39162 0.0
H148 H 0.18996 0.65919 0.39117 0.0
H149 H 0.11268 0.59059 0.46247 0.0
C150 C 1.07242 0.5445 0.402 0.0
C151 C 1.06932 0.54435 0.42878 0.0
C152 C 0.11556 0.58493 0.38817 0.0
C153 C 0.15696 0.62818 0.40168 0.0
C154 C 0.15793 0.63208 0.42847 0.0
C155 C 0.1136 0.58878 0.44202 0.0
H156 H 0.64392 0.18283 0.72564 0.0
H157 H 0.64358 1.03519 0.7255 0.0
H158 H 0.65126 0.11284 0.79682 0.0
C159 C 0.64489 0.15149 0.73626 0.0
C160 C 0.64848 0.15552 0.76301 0.0
C161 C 0.6428 0.10861 0.72263 0.0
C162 C 0.64501 0.06781 0.73611 0.0
C163 C 0.64742 0.06698 0.76289 0.0
C164 C 0.64864 0.11158 0.77635 0.0
H165 H 0.57218 0.58707 0.05738 0.0
H166 H 0.71305 0.57345 0.05617 0.0
H167 H 0.63853 0.5692 0.12785 0.0
C168 C 0.60228 0.5829 0.06771 0.0
C169 C 0.59826 0.57794 0.09438 0.0
C170 C 0.6428 0.58082 0.05379 0.0
C171 C 0.68177 0.57434 0.06698 0.0
C172 C 0.68276 0.57106 0.09377 0.0
C173 C 0.63972 0.5724 0.10741 0.0
H174 H 0.34327 0.65824 0.12776 0.0
H175 H 0.51173 0.50113 0.12363 0.0
H176 H 0.26939 0.49079 0.14277 0.0
H177 H 0.56922 0.65579 0.09127 0.0
H178 H 0.42797 0.49924 0.13548 0.0
H179 H 0.42802 0.66052 0.11897 0.0
C180 C 0.34439 0.62176 0.12947 0.0
C181 C 0.29724 0.57421 0.13625 0.0
C182 C 0.4591 0.53405 0.12609 0.0
C183 C 0.39769 0.57676 0.12607 0.0
C184 C 0.50786 0.53547 0.11954 0.0
C185 C 0.54983 0.57925 0.10669 0.0
C186 C 0.45077 0.57691 0.12013 0.0
C187 C 0.5396 0.62129 0.10143 0.0
C188 C 0.39352 0.62313 0.12429 0.0
C189 C 0.30342 0.52874 0.13773 0.0
N190 N 0.49239 0.61912 0.10812 0.0
N191 N 0.35169 0.53125 0.1329 0.0
H192 H 0.82334 0.22739 0.49346 0.0
H193 H 0.96285 0.51117 0.4185 0.0
H194 H 0.73532 0.28226 0.44967 0.0
H195 H 1.05479 0.46519 0.46509 0.0
H196 H 0.88087 0.42991 0.43102 0.0
H197 H 0.90649 0.31188 0.48451 0.0
C198 C 0.82086 0.25698 0.48208 0.0
C199 C 0.77024 0.24623 0.47281 0.0
C200 C 0.91863 0.43733 0.43885 0.0
C201 C 0.86855 0.34604 0.46198 0.0
C202 C 0.96624 0.48466 0.43177 0.0
C203 C 1.01762 0.49744 0.44082 0.0
C204 C 0.92028 0.39971 0.45515 0.0
C205 C 1.01723 0.45919 0.45772 0.0
C206 C 0.86908 0.30592 0.47694 0.0
C207 C 0.77191 0.28771 0.45796 0.0
N208 N 0.97029 0.4129 0.46405 0.0
N209 N 0.81913 0.33451 0.45311 0.0
H210 H 0.56426 0.73567 0.80985 0.0
H211 H 0.73077 1.04521 0.76236 0.0
H212 H 0.73168 0.81684 0.79207 0.0
H213 H 0.56843 0.97375 0.78764 0.0
H214 H 0.73097 0.96302 0.7733 0.0
H215 H 0.56363 0.81924 0.80199 0.0
C216 C 0.60113 0.77066 0.80434 0.0
C217 C 0.64817 0.76725 0.80185 0.0
C218 C 0.6953 0.96507 0.77692 0.0
C219 C 0.64759 0.86629 0.79236 0.0
C220 C 0.69534 1.01296 0.77086 0.0
C221 C 0.65024 1.01905 0.77476 0.0
C222 C 0.64924 0.92018 0.78668 0.0
C223 C 0.60514 0.97319 0.78492 0.0
C224 C 0.60069 0.81909 0.7998 0.0
C225 C 0.69407 0.81574 0.79449 0.0
N226 N 0.60584 0.92677 0.79032 0.0
N227 N 0.69246 0.86186 0.79006 0.0
H228 H 1.00744 0.64764 0.14987 0.0
H229 H 0.70986 0.49283 0.08599 0.0
H230 H 0.9357 0.48754 0.12162 0.0
H231 H 0.76798 0.63982 0.12669 0.0
H232 H 0.79096 0.49086 0.0984 0.0
H233 H 0.92315 0.64669 0.14117 0.0
C234 C 0.9742 0.61191 0.14195 0.0
C235 C 0.98046 0.56743 0.13682 0.0
C236 C 0.78615 0.52342 0.10498 0.0
C237 C 0.88067 0.56638 0.12616 0.0
C238 C 0.73897 0.52443 0.098 0.0
C239 C 0.72962 0.56585 0.10561 0.0
C240 C 0.82709 0.56495 0.11948 0.0
C241 C 0.77123 0.60603 0.12066 0.0
C242 C 0.92538 0.61147 0.13693 0.0
C243 C 0.93425 0.52292 0.12634 0.0
N244 N 0.81728 0.6047 0.12677 0.0
N245 N 0.88759 0.52375 0.12136 0.0
H246 H 0.48587 0.8822 0.48198 0.0
H247 H 0.18323 0.73707 0.42309 0.0
H248 H 0.40916 0.96759 0.45627 0.0
H249 H 0.24651 0.64756 0.45861 0.0
H250 H 0.26508 0.81997 0.43487 0.0
H251 H 0.40215 0.79762 0.4734 0.0
C252 C 0.45178 0.88377 0.47458 0.0
C253 C 0.45637 0.934 0.47009 0.0
C254 C 0.26128 0.78249 0.4405 0.0
C255 C 0.35745 0.83414 0.45972 0.0
C256 C 0.21365 0.73442 0.43391 0.0
C257 C 0.20549 0.68356 0.44032 0.0
C258 C 0.30381 0.78176 0.4534 0.0
C259 C 0.24883 0.68472 0.45369 0.0
C260 C 0.40332 0.83472 0.46964 0.0
C261 C 0.40916 0.93117 0.46032 0.0
N262 N 0.29523 0.73209 0.45953 0.0
N263 N 0.363 0.88324 0.45551 0.0
H264 H 0.72727 0.49397 0.78192 0.0
H265 H 0.58632 0.17077 0.80057 0.0
H266 H 0.58189 0.40463 0.82378 0.0
H267 H 0.71898 0.26165 0.75103 0.0
H268 H 0.58744 0.25399 0.81235 0.0
H269 H 0.72829 0.41104 0.77363 0.0
C270 C 0.69582 0.45733 0.78983 0.0
C271 C 0.65501 0.4584 0.80412 0.0
C272 C 0.61682 0.25607 0.79909 0.0
C273 C 0.65521 0.35943 0.79395 0.0
C274 C 0.6166 0.20794 0.7925 0.0
C275 C 0.65313 0.2074 0.77479 0.0
C276 C 0.65406 0.30578 0.78823 0.0
C277 C 0.69001 0.25843 0.76485 0.0
C278 C 0.69612 0.40913 0.78479 0.0
C279 C 0.61473 0.40754 0.81282 0.0
N280 N 0.68948 0.30414 0.77158 0.0
N281 N 0.616 0.36132 0.80777 0.0
H282 H 0.74086 0.84027 0.47003 0.0
H283 H 0.73409 0.64993 0.57826 0.0
H284 H 0.60988 0.7579 0.52204 0.0
H285 H 0.86519 0.73292 0.52646 0.0
H286 H 0.68005 0.67445 0.55233 0.0
H287 H 0.77615 0.78389 0.48327 0.0
C288 C 0.71843 0.8091 0.48362 0.0
C289 C 0.67306 0.80468 0.49546 0.0
C290 C 0.72048 0.68703 0.54648 0.0
C291 C 0.71439 0.74132 0.51132 0.0
C292 C 0.75155 0.67364 0.56145 0.0
C293 C 0.80464 0.69087 0.55484 0.0
C294 C 0.74278 0.71828 0.52482 0.0
C295 C 0.82466 0.71965 0.53238 0.0
C296 C 0.73904 0.77728 0.4914 0.0
C297 C 0.64586 0.76362 0.51298 0.0
N298 N 0.79392 0.73315 0.51834 0.0
N299 N 0.66763 0.73428 0.52083 0.0
H300 H 0.87121 0.49142 0.80743 0.0
H301 H 0.85523 0.28084 0.87486 0.0
H302 H 0.83105 0.53909 0.87763 0.0
H303 H 0.89712 0.39175 0.93712 0.0
H304 H 0.82576 0.33332 0.85068 0.0
H305 H 0.86345 0.41343 0.8288 0.0
C306 C 0.86027 0.48524 0.82725 0.0
C307 C 0.85314 0.52259 0.84091 0.0
C308 C 0.84079 0.34551 0.86978 0.0
C309 C 0.8428 0.43288 0.8653 0.0
C310 C 0.85709 0.31534 0.8837 0.0
C311 C 0.88032 0.33254 0.90785 0.0
C312 C 0.84728 0.3927 0.8803 0.0
C313 C 0.87999 0.37656 0.91863 0.0
C314 C 0.85513 0.4403 0.83936 0.0
C315 C 0.83888 0.51247 0.86654 0.0
N316 N 0.8646 0.40548 0.90462 0.0
N317 N 0.83498 0.46905 0.87796 0.0
H318 H 0.45688 0.91146 0.19206 0.0
H319 H 0.48532 0.19867 0.20186 0.0
H320 H 0.37008 0.96309 0.1445 0.0
H321 H 0.55294 0.13671 0.25546 0.0
H322 H 0.45466 0.11835 0.17595 0.0
H323 H 0.50663 1.00089 0.21011 0.0
C324 C 0.44898 0.94184 0.18511 0.0
C325 C 0.40871 0.92958 0.16707 0.0
C326 C 0.47623 0.12243 0.19339 0.0
C327 C 0.46488 1.03157 0.18774 0.0
C328 C 0.49341 0.16802 0.20818 0.0
C329 C 0.52042 0.17357 0.23109 0.0
C330 C 0.48662 0.08253 0.20153 0.0
C331 C 0.53075 0.13321 0.23831 0.0
C332 C 0.47725 0.99281 0.19544 0.0
C333 C 0.4008 0.97069 0.15835 0.0
N334 N 0.51365 0.08933 0.22364 0.0
N335 N 0.42804 1.01968 0.16907 0.0
H336 H 0.76069 0.3246 0.51866 0.0
H337 H 0.86557 0.53229 0.59409 0.0
H338 H 0.74565 0.43915 0.47306 0.0
H339 H 0.93318 0.63502 0.52936 0.0
H340 H 0.84622 0.45697 0.56781 0.0
H341 H 0.8436 0.3965 0.53689 0.0
C342 C 0.77536 0.36496 0.51228 0.0
C343 C 0.74525 0.37666 0.49532 0.0
C344 C 0.8674 0.49611 0.55941 0.0
C345 C 0.83918 0.45847 0.51612 0.0
C346 C 0.8788 0.53971 0.57461 0.0
C347 C 0.89843 0.59005 0.56367 0.0
C348 C 0.87438 0.50284 0.53306 0.0
C349 C 0.91512 0.59638 0.53827 0.0
C350 C 0.82267 0.40574 0.52256 0.0
C351 C 0.76699 0.42889 0.48669 0.0
N352 N 0.90014 0.5529 0.52345 0.0
N353 N 0.81214 0.46827 0.49771 0.0
H354 H 0.27713 0.54743 0.83935 0.0
H355 H 1.01267 0.2713 0.86714 0.0
H356 H 0.25939 0.39993 0.81132 0.0
H357 H 1.08617 0.4048 0.91857 0.0
H358 H 1.08883 0.31979 0.838 0.0
H359 H 0.18858 0.49757 0.85833 0.0
C360 C 0.25418 0.50474 0.83671 0.0
C361 C 0.27622 0.47771 0.82429 0.0
C362 C 1.088 0.33796 0.85578 0.0
C363 C 0.17529 0.42068 0.8459 0.0
C364 C 1.04519 0.31025 0.87241 0.0
C365 C 1.04424 0.33354 0.89554 0.0
C366 C 0.12853 0.38968 0.86214 0.0
C367 C 1.08627 0.38474 0.90129 0.0
C368 C 0.20381 0.47636 0.84757 0.0
C369 C 0.24409 0.42242 0.82086 0.0
N370 N 0.12646 0.41114 0.88466 0.0
N371 N 0.19543 0.39545 0.83203 0.0
H372 H 0.91907 0.46123 0.19268 0.0
H373 H 0.70829 0.37936 0.26862 0.0
H374 H 0.7949 0.34113 0.14554 0.0
H375 H 0.61141 0.3602 0.20257 0.0
H376 H 0.78707 0.42334 0.2429 0.0
H377 H 0.85272 0.47737 0.21294 0.0
C378 C 0.87774 0.43829 0.1866 0.0
C379 C 0.86175 0.39794 0.16831 0.0
C380 C 0.74887 0.41154 0.23408 0.0
C381 C 0.7862 0.4165 0.1912 0.0
C382 C 0.70325 0.38633 0.24894 0.0
C383 C 0.6524 0.36345 0.23761 0.0
C384 C 0.74355 0.41276 0.20768 0.0
C385 C 0.64964 0.37463 0.21189 0.0
C386 C 0.84015 0.44787 0.198 0.0
C387 C 0.80846 0.37146 0.1601 0.0
N388 N 0.69442 0.39616 0.19748 0.0
N389 N 0.77222 0.38045 0.17201 0.0
H390 H 1.03591 0.54236 0.07585 0.0
H391 H 1.07848 0.38534 0.96794 0.0
H392 H 0.17296 0.52124 0.07547 0.0
H393 H 0.91948 0.32312 -0.00142 0.0
H394 H 0.11473 0.44239 0.00427 0.0
H395 H 0.99314 0.47157 0.04355 0.0
C396 C 1.05719 0.52341 0.06862 0.0
C397 C 0.10822 0.53789 0.07783 0.0
C398 C 1.07193 0.41569 0.00316 0.0
C399 C 1.05994 0.45763 0.04157 0.0
C400 C 1.05071 0.38193 0.98244 0.0
C401 C 0.99505 0.34821 0.9797 0.0
C402 C 1.03769 0.41758 0.02115 0.0
C403 C 0.96237 0.34885 -0.00072 0.0
C404 C 1.03255 0.48266 0.05063 0.0
C405 C 0.1338 0.51144 0.06852 0.0
N406 N 0.98409 0.38379 0.01895 0.0
N407 N 0.10964 0.47295 0.05068 0.0
H408 H 0.70589 0.17198 0.40841 0.0
H409 H 0.49534 0.20675 0.32417 0.0
H410 H 0.53484 0.07556 0.41569 0.0
H411 H 0.66549 0.29596 0.31198 0.0
H412 H 0.51046 0.16892 0.36246 0.0
H413 H 0.6932 0.2253 0.37617 0.0
C414 C 0.66571 0.16168 0.40294 0.0
C415 C 0.62128 0.11915 0.41444 0.0
C416 C 0.54461 0.19755 0.35169 0.0
C417 C 0.60644 0.18031 0.37818 0.0
C418 C 0.53596 0.21953 0.33001 0.0
C419 C 0.57916 0.25421 0.31484 0.0
C420 C 0.5968 0.21005 0.3581 0.0
C421 C 0.63104 0.26955 0.32321 0.0
C422 C 0.65846 0.19243 0.38481 0.0
C423 C 0.57009 0.10791 0.4071 0.0
N424 N 0.63839 0.24664 0.34407 0.0
N425 N 0.56406 0.13831 0.38943 0.0
H426 H 0.64484 0.52384 0.73686 0.0
H427 H 0.87237 0.73571 0.64679 0.0
H428 H 0.72083 0.69339 0.74785 0.0
H429 H 0.80803 0.56669 0.64004 0.0
H430 H 0.82458 0.7214 0.68671 0.0
H431 H 0.70858 0.53851 0.70312 0.0
C432 C 0.67472 0.56416 0.73199 0.0
C433 C 0.67739 0.60754 0.74487 0.0
C434 C 0.82173 0.68746 0.67682 0.0
C435 C 0.75073 0.62468 0.70666 0.0
C436 C 0.8494 0.69573 0.65417 0.0
C437 C 0.84398 0.65231 0.64017 0.0
C438 C 0.78779 0.63533 0.68528 0.0
C439 C 0.81353 0.60124 0.6504 0.0
C440 C 0.71142 0.57253 0.71294 0.0
C441 C 0.7173 0.65892 0.73819 0.0
N442 N 0.78577 0.59404 0.67214 0.0
N443 N 0.75228 0.66609 0.71946 0.0
H444 H 0.68597 0.10438 0.55675 0.0
H445 H 0.57512 0.12698 0.69315 0.0
H446 H 0.53207 0.09004 0.56831 0.0
H447 H 0.69766 0.08514 0.68642 0.0
H448 H 0.56627 0.12391 0.64694 0.0
H449 H 0.6982 0.10688 0.60329 0.0
C450 C 0.65484 0.10186 0.56897 0.0
C451 C 0.60787 0.09699 0.55837 0.0
C452 C 0.59518 0.11538 0.65548 0.0
C453 C 0.62191 0.10053 0.6118 0.0
C454 C 0.60047 0.1174 0.682 0.0
C455 C 0.63726 0.10636 0.69402 0.0
C456 C 0.62741 0.10299 0.64036 0.0
C457 C 0.66846 0.0936 0.6782 0.0
C458 C 0.66177 0.10315 0.59557 0.0
C459 C 0.56895 0.09376 0.57536 0.0
N460 N 0.66312 0.09263 0.65233 0.0
N461 N 0.57697 0.09596 0.60093 0.0
H462 H 0.63535 0.53189 0.8881 0.0
H463 H 0.63266 0.65402 0.02475 0.0
H464 H 0.67624 0.69467 0.89922 0.0
H465 H 0.65662 0.52011 0.01717 0.0
H466 H 0.63504 0.6625 0.97846 0.0
H467 H 0.62919 0.51963 0.93455 0.0
C468 C 0.64236 0.56485 0.90022 0.0
C469 C 0.65626 0.61444 0.88955 0.0
C470 C 0.63974 0.63117 0.98686 0.0
C471 C 0.64896 0.60056 0.94296 0.0
C472 C 0.63817 0.62614 0.0134 0.0
C473 C 0.64454 0.58629 0.02518 0.0
C474 C 0.6467 0.59552 0.97152 0.0
C475 C 0.65196 0.55173 0.00914 0.0
C476 C 0.63923 0.55794 0.92679 0.0
C477 C 0.66542 0.65575 0.90643 0.0
N478 N 0.65245 0.55687 0.9833 0.0
N479 N 0.66135 0.64785 0.93204 0.0
H480 H 0.1597 0.64021 0.22169 0.0
H481 H 1.08269 0.49554 0.35833 0.0
H482 H 1.0779 0.471 0.23395 0.0
H483 H 0.15312 0.66542 0.35159 0.0
H484 H 1.08365 0.48865 0.31243 0.0
H485 H 0.1608 0.65332 0.26824 0.0
C486 C 0.14196 0.60591 0.234 0.0
C487 C 0.11874 0.55435 0.22359 0.0
C488 C 1.0989 0.52762 0.32084 0.0
C489 C 0.12002 0.56903 0.27701 0.0
C490 C 1.09801 0.5316 0.34732 0.0
C491 C 0.1173 0.58113 0.35942 0.0
C492 C 0.11947 0.57344 0.30564 0.0
C493 C 0.13804 0.62624 0.3435 0.0
C494 C 0.14261 0.61338 0.26063 0.0
C495 C 1.09644 0.51157 0.24075 0.0
N496 N 0.13847 0.62133 0.31762 0.0
N497 N 1.09775 0.51986 0.26621 0.0
loop_
_geom_bond_atom_site_label_1
_geom_bond_atom_site_label_2
_geom_bond_distance
_geom_bond_site_symmetry_2
_ccdc_geom_bond_type
C0 Eu1 2.835 . S
C0 C2 1.500 . S
C0 O20 1.257 . S
C0 O21 1.260 . S
Eu1 C0 2.835 . S
Eu1 O20 2.473 . S
Eu1 O21 2.480 . S
Eu1 O22 2.430 1_655 S
Eu1 O23 2.670 1_655 S
Eu1 O24 2.394 . S
Eu1 O29 2.355 1_655 S
Eu1 O31 2.374 1_655 S
C2 C0 1.500 . S
C2 C3 1.377 . S
C2 C7 1.377 . S
C3 C2 1.377 . S
C3 C4 1.395 . S
C3 H32 0.931 . S
C4 C3 1.395 . S
C4 C5 1.383 . S
C4 H33 0.931 . S
C5 C4 1.383 . S
C5 C6 1.394 . S
C6 C5 1.394 . S
C6 C7 1.378 . S
C6 H34 0.931 . S
C7 C2 1.377 . S
C7 C6 1.378 . S
C7 H35 0.931 . S
C8 O22 1.259 . S
C8 O23 1.270 . S
C9 O24 1.251 . S
C9 O25 1.251 . S
C10 Eu11 2.835 . S
C10 C12 1.500 . S
C10 O26 1.257 . S
C10 O27 1.260 . S
Eu11 C10 2.835 . S
Eu11 O23 2.355 . S
Eu11 O25 2.374 1_455 S
Eu11 O26 2.473 . S
Eu11 O27 2.480 . S
Eu11 O28 2.430 . S
Eu11 O29 2.670 . S
Eu11 O30 2.394 . S
C12 C10 1.500 . S
C12 C13 1.377 . S
C12 C17 1.377 . S
C13 C12 1.377 . S
C13 C14 1.395 . S
C13 H36 0.931 . S
C14 C13 1.395 . S
C14 C15 1.383 . S
C14 H37 0.931 . S
C15 C14 1.383 . S
C15 C16 1.394 . S
C16 C15 1.394 . S
C16 C17 1.378 . S
C16 H38 0.931 . S
C17 C12 1.377 . S
C17 C16 1.378 . S
C17 H39 0.931 . S
C18 O28 1.259 . S
C18 O29 1.270 . S
C19 O30 1.251 . S
C19 O31 1.251 . S
O20 C0 1.257 . S
O20 Eu1 2.473 . S
O21 C0 1.260 . S
O21 Eu1 2.480 . S
O22 Eu1 2.430 1_455 S
O22 C8 1.259 . S
O23 Eu1 2.670 1_455 S
O23 C8 1.270 . S
O23 Eu11 2.355 . S
O24 Eu1 2.394 . S
O24 C9 1.251 . S
O25 C9 1.251 . S
O25 Eu11 2.374 1_655 S
O26 C10 1.257 . S
O26 Eu11 2.473 . S
O27 C10 1.260 . S
O27 Eu11 2.480 . S
O28 Eu11 2.430 . S
O28 C18 1.259 . S
O29 Eu1 2.355 1_455 S
O29 Eu11 2.670 . S
O29 C18 1.270 . S
O30 Eu11 2.394 . S
O30 C19 1.251 . S
O31 Eu1 2.374 1_455 S
O31 C19 1.251 . S
H32 C3 0.931 . S
H33 C4 0.931 . S
H34 C6 0.931 . S
H35 C7 0.931 . S
H36 C13 0.931 . S
H37 C14 0.931 . S
H38 C16 0.931 . S
H39 C17 0.931 . S
C40 Eu41 2.835 . S
C40 C42 1.500 . S
C40 O60 1.257 . S
C40 O61 1.260 . S
Eu41 C40 2.835 . S
Eu41 O60 2.473 . S
Eu41 O61 2.480 . S
Eu41 O62 2.430 . S
Eu41 O63 2.670 . S
Eu41 O64 2.394 . S
Eu41 O69 2.355 . S
Eu41 O71 2.374 1_545 S
C42 C40 1.500 . S
C42 C43 1.377 . S
C42 C47 1.377 . S
C43 C42 1.377 . S
C43 C44 1.395 . S
C43 H72 0.931 . S
C44 C43 1.395 . S
C44 C45 1.383 . S
C44 H73 0.931 . S
C45 C44 1.383 . S
C45 C46 1.394 . S
C46 C45 1.394 . S
C46 C47 1.378 . S
C46 H74 0.931 . S
C47 C42 1.377 . S
C47 C46 1.378 . S
C47 H75 0.931 . S
C48 O62 1.259 . S
C48 O63 1.270 . S
C49 O64 1.251 . S
C49 O65 1.251 . S
C50 Eu51 2.835 . S
C50 C52 1.500 . S
C50 O66 1.257 . S
C50 O67 1.260 . S
Eu51 C50 2.835 . S
Eu51 O63 2.355 1_565 S
Eu51 O65 2.374 1_565 S
Eu51 O66 2.473 . S
Eu51 O67 2.480 . S
Eu51 O68 2.430 1_565 S
Eu51 O69 2.670 1_565 S
Eu51 O70 2.394 . S
C52 C50 1.500 . S
C52 C53 1.377 . S
C52 C57 1.377 . S
C53 C52 1.377 . S
C53 C54 1.395 . S
C53 H76 0.931 . S
C54 C53 1.395 . S
C54 C55 1.383 . S
C54 H77 0.931 . S
C55 C54 1.383 . S
C55 C56 1.394 . S
C56 C55 1.394 . S
C56 C57 1.378 . S
C56 H78 0.931 . S
C57 C52 1.377 . S
C57 C56 1.378 . S
C57 H79 0.931 . S
C58 O68 1.259 . S
C58 O69 1.270 . S
C59 O70 1.251 . S
C59 O71 1.251 . S
O60 C40 1.257 . S
O60 Eu41 2.473 . S
O61 C40 1.260 . S
O61 Eu41 2.480 . S
O62 Eu41 2.430 . S
O62 C48 1.259 . S
O63 Eu41 2.670 . S
O63 C48 1.270 . S
O63 Eu51 2.355 1_545 S
O64 Eu41 2.394 . S
O64 C49 1.251 . S
O65 C49 1.251 . S
O65 Eu51 2.374 1_545 S
O66 C50 1.257 . S
O66 Eu51 2.473 . S
O67 C50 1.260 . S
O67 Eu51 2.480 . S
O68 Eu51 2.430 1_545 S
O68 C58 1.259 . S
O69 Eu41 2.355 . S
O69 Eu51 2.670 1_545 S
O69 C58 1.270 . S
O70 Eu51 2.394 . S
O70 C59 1.251 . S
O71 Eu41 2.374 1_565 S
O71 C59 1.251 . S
H72 C43 0.931 . S
H73 C44 0.931 . S
H74 C46 0.931 . S
H75 C47 0.931 . S
H76 C53 0.931 . S
H77 C54 0.931 . S
H78 C56 0.931 . S
H79 C57 0.931 . S
C80 Eu81 2.835 . S
C80 C82 1.500 . S
C80 O100 1.257 . S
C80 O101 1.260 . S
Eu81 C80 2.835 . S
Eu81 O100 2.473 . S
Eu81 O101 2.480 . S
Eu81 O102 2.430 . S
Eu81 O103 2.670 . S
Eu81 O104 2.394 . S
Eu81 O109 2.355 . S
Eu81 O111 2.374 . S
C82 C80 1.500 . S
C82 C83 1.377 . S
C82 C87 1.377 . S
C83 C82 1.377 . S
C83 C84 1.395 . S
C83 H112 0.931 . S
C84 C83 1.395 . S
C84 C85 1.383 . S
C84 H113 0.931 . S
C85 C84 1.383 . S
C85 C86 1.394 . S
C86 C85 1.394 . S
C86 C87 1.378 . S
C86 H114 0.931 . S
C87 C82 1.377 . S
C87 C86 1.378 . S
C87 H115 0.931 . S
C88 O102 1.259 . S
C88 O103 1.270 . S
C89 O104 1.251 . S
C89 O105 1.251 . S
C90 Eu91 2.835 . S
C90 C92 1.500 . S
C90 O106 1.257 . S
C90 O107 1.260 . S
Eu91 C90 2.835 . S
Eu91 O103 2.355 . S
Eu91 O105 2.374 . S
Eu91 O106 2.473 . S
Eu91 O107 2.480 . S
Eu91 O108 2.430 . S
Eu91 O109 2.670 . S
Eu91 O110 2.394 . S
C92 C90 1.500 . S
C92 C93 1.377 . S
C92 C97 1.377 . S
C93 C92 1.377 . S
C93 C94 1.395 . S
C93 H116 0.931 . S
C94 C93 1.395 . S
C94 C95 1.383 . S
C94 H117 0.931 . S
C95 C94 1.383 . S
C95 C96 1.394 . S
C96 C95 1.394 . S
C96 C97 1.378 . S
C96 H118 0.931 . S
C97 C92 1.377 . S
C97 C96 1.378 . S
C97 H119 0.931 . S
C98 O108 1.259 . S
C98 O109 1.270 . S
C99 O110 1.251 . S
C99 O111 1.251 . S
O100 C80 1.257 . S
O100 Eu81 2.473 . S
O101 C80 1.260 . S
O101 Eu81 2.480 . S
O102 Eu81 2.430 . S
O102 C88 1.259 . S
O103 Eu81 2.670 . S
O103 C88 1.270 . S
O103 Eu91 2.355 . S
O104 Eu81 2.394 . S
O104 C89 1.251 . S
O105 C89 1.251 . S
O105 Eu91 2.374 . S
O106 C90 1.257 . S
O106 Eu91 2.473 . S
O107 C90 1.260 . S
O107 Eu91 2.480 . S
O108 Eu91 2.430 . S
O108 C98 1.259 . S
O109 Eu81 2.355 . S
O109 Eu91 2.670 . S
O109 C98 1.270 . S
O110 Eu91 2.394 . S
O110 C99 1.251 . S
O111 Eu81 2.374 . S
O111 C99 1.251 . S
H112 C83 0.931 . S
H113 C84 0.931 . S
H114 C86 0.931 . S
H115 C87 0.931 . S
H116 C93 0.931 . S
H117 C94 0.931 . S
H118 C96 0.931 . S
H119 C97 0.931 . S
H120 C123 0.931 1_565 S
H121 C126 0.928 . S
H122 C128 0.930 . S
C123 H120 0.931 1_545 S
C123 C124 1.413 . S
C123 C125 1.360 . S
C124 C123 1.413 . S
C124 C128 1.429 . S
C125 C123 1.360 . S
C125 C126 1.372 . S
C126 H121 0.928 . S
C126 C125 1.372 . S
C126 C127 1.404 . S
C127 C126 1.404 . S
C127 C128 1.391 . S
C128 H122 0.930 . S
C128 C124 1.429 . S
C128 C127 1.391 . S
H129 C132 0.931 . S
H130 C135 0.928 . S
H131 C137 0.930 . S
C132 H129 0.931 . S
C132 C133 1.413 . S
C132 C134 1.360 . S
C133 C132 1.413 . S
C133 C137 1.429 . S
C134 C132 1.360 . S
C134 C135 1.372 . S
C135 H130 0.928 . S
C135 C134 1.372 . S
C135 C136 1.404 . S
C136 C135 1.404 . S
C136 C137 1.391 . S
C137 H131 0.930 . S
C137 C133 1.429 . S
C137 C136 1.391 . S
H138 C141 0.931 . S
H139 C144 0.928 . S
H140 C146 0.930 . S
C141 H138 0.931 . S
C141 C142 1.413 . S
C141 C143 1.360 1_655 S
C142 C141 1.413 . S
C142 C146 1.429 1_655 S
C143 C141 1.360 1_455 S
C143 C144 1.372 . S
C144 H139 0.928 . S
C144 C143 1.372 . S
C144 C145 1.404 . S
C145 C144 1.404 . S
C145 C146 1.391 . S
C146 H140 0.930 . S
C146 C142 1.429 1_455 S
C146 C145 1.391 . S
H147 C150 0.931 1_655 S
H148 C153 0.928 . S
H149 C155 0.930 . S
C150 H147 0.931 1_455 S
C150 C151 1.413 . S
C150 C152 1.360 . S
C151 C150 1.413 . S
C151 C155 1.429 . S
C152 C150 1.360 . S
C152 C153 1.372 . S
C153 H148 0.928 . S
C153 C152 1.372 . S
C153 C154 1.404 . S
C154 C153 1.404 . S
C154 C155 1.391 . S
C155 H149 0.930 . S
C155 C151 1.429 . S
C155 C154 1.391 . S
H156 C159 0.931 . S
H157 C162 0.928 . S
H158 C164 0.930 . S
C159 H156 0.931 . S
C159 C160 1.413 . S
C159 C161 1.360 . S
C160 C159 1.413 . S
C160 C164 1.429 . S
C161 C159 1.360 . S
C161 C162 1.372 1_545 S
C162 H157 0.928 . S
C162 C161 1.372 1_565 S
C162 C163 1.404 . S
C163 C162 1.404 . S
C163 C164 1.391 1_565 S
C164 H158 0.930 . S
C164 C160 1.429 . S
C164 C163 1.391 1_545 S
H165 C168 0.931 . S
H166 C171 0.928 . S
H167 C173 0.930 . S
C168 H165 0.931 . S
C168 C169 1.413 . S
C168 C170 1.360 . S
C169 C168 1.413 . S
C169 C173 1.429 . S
C170 C168 1.360 . S
C170 C171 1.372 . S
C171 H166 0.928 . S
C171 C170 1.372 . S
C171 C172 1.404 . S
C172 C171 1.404 . S
C172 C173 1.391 . S
C173 H167 0.930 . S
C173 C169 1.429 . S
C173 C172 1.391 . S
H174 C180 0.930 . S
H175 C184 0.930 . S
H176 C189 0.929 . S
H177 C187 0.929 . S
H178 C182 0.929 . S
H179 C188 0.929 . S
C180 H174 0.930 . S
C180 C181 1.367 . S
C180 C188 1.378 . S
C181 C180 1.367 . S
C181 C189 1.433 . S
C182 H178 0.929 . S
C182 C184 1.378 . S
C182 C186 1.350 . S
C183 C186 1.463 . S
C183 C188 1.350 . S
C183 N191 1.427 . S
C184 H175 0.930 . S
C184 C182 1.378 . S
C184 C185 1.367 . S
C185 C184 1.367 . S
C185 C187 1.433 . S
C186 C182 1.350 . S
C186 C183 1.463 . S
C186 N190 1.427 . S
C187 H177 0.929 . S
C187 C185 1.433 . S
C187 N190 1.384 . S
C188 H179 0.929 . S
C188 C180 1.378 . S
C188 C183 1.350 . S
C189 H176 0.929 . S
C189 C181 1.433 . S
C189 N191 1.384 . S
N190 C186 1.427 . S
N190 C187 1.384 . S
N191 C183 1.427 . S
N191 C189 1.384 . S
H192 C198 0.930 . S
H193 C202 0.930 . S
H194 C207 0.929 . S
H195 C205 0.929 . S
H196 C200 0.929 . S
H197 C206 0.929 . S
C198 H192 0.930 . S
C198 C199 1.367 . S
C198 C206 1.378 . S
C199 C198 1.367 . S
C199 C207 1.433 . S
C200 H196 0.929 . S
C200 C202 1.378 . S
C200 C204 1.350 . S
C201 C204 1.463 . S
C201 C206 1.350 . S
C201 N209 1.427 . S
C202 H193 0.930 . S
C202 C200 1.378 . S
C202 C203 1.367 . S
C203 C202 1.367 . S
C203 C205 1.433 . S
C204 C200 1.350 . S
C204 C201 1.463 . S
C204 N208 1.427 . S
C205 H195 0.929 . S
C205 C203 1.433 . S
C205 N208 1.384 . S
C206 H197 0.929 . S
C206 C198 1.378 . S
C206 C201 1.350 . S
C207 H194 0.929 . S
C207 C199 1.433 . S
C207 N209 1.384 . S
N208 C204 1.427 . S
N208 C205 1.384 . S
N209 C201 1.427 . S
N209 C207 1.384 . S
H210 C216 0.930 . S
H211 C220 0.930 . S
H212 C225 0.929 . S
H213 C223 0.929 . S
H214 C218 0.929 . S
H215 C224 0.929 . S
C216 H210 0.930 . S
C216 C217 1.367 . S
C216 C224 1.378 . S
C217 C216 1.367 . S
C217 C225 1.433 . S
C218 H214 0.929 . S
C218 C220 1.378 . S
C218 C222 1.350 . S
C219 C222 1.463 . S
C219 C224 1.350 . S
C219 N227 1.427 . S
C220 H211 0.930 . S
C220 C218 1.378 . S
C220 C221 1.367 . S
C221 C220 1.367 . S
C221 C223 1.433 . S
C222 C218 1.350 . S
C222 C219 1.463 . S
C222 N226 1.427 . S
C223 H213 0.929 . S
C223 C221 1.433 . S
C223 N226 1.384 . S
C224 H215 0.929 . S
C224 C216 1.378 . S
C224 C219 1.350 . S
C225 H212 0.929 . S
C225 C217 1.433 . S
C225 N227 1.384 . S
N226 C222 1.427 . S
N226 C223 1.384 . S
N227 C219 1.427 . S
N227 C225 1.384 . S
H228 C234 0.930 . S
H229 C238 0.930 . S
H230 C243 0.929 . S
H231 C241 0.929 . S
H232 C236 0.929 . S
H233 C242 0.929 . S
C234 H228 0.930 . S
C234 C235 1.367 . S
C234 C242 1.378 . S
C235 C234 1.367 . S
C235 C243 1.433 . S
C236 H232 0.929 . S
C236 C238 1.378 . S
C236 C240 1.350 . S
C237 C240 1.463 . S
C237 C242 1.350 . S
C237 N245 1.427 . S
C238 H229 0.930 . S
C238 C236 1.378 . S
C238 C239 1.367 . S
C239 C238 1.367 . S
C239 C241 1.433 . S
C240 C236 1.350 . S
C240 C237 1.463 . S
C240 N244 1.427 . S
C241 H231 0.929 . S
C241 C239 1.433 . S
C241 N244 1.384 . S
C242 H233 0.929 . S
C242 C234 1.378 . S
C242 C237 1.350 . S
C243 H230 0.929 . S
C243 C235 1.433 . S
C243 N245 1.384 . S
N244 C240 1.427 . S
N244 C241 1.384 . S
N245 C237 1.427 . S
N245 C243 1.384 . S
H246 C252 0.930 . S
H247 C256 0.930 . S
H248 C261 0.929 . S
H249 C259 0.929 . S
H250 C254 0.929 . S
H251 C260 0.929 . S
C252 H246 0.930 . S
C252 C253 1.367 . S
C252 C260 1.378 . S
C253 C252 1.367 . S
C253 C261 1.433 . S
C254 H250 0.929 . S
C254 C256 1.378 . S
C254 C258 1.350 . S
C255 C258 1.463 . S
C255 C260 1.350 . S
C255 N263 1.427 . S
C256 H247 0.930 . S
C256 C254 1.378 . S
C256 C257 1.367 . S
C257 C256 1.367 . S
C257 C259 1.433 . S
C258 C254 1.350 . S
C258 C255 1.463 . S
C258 N262 1.427 . S
C259 H249 0.929 . S
C259 C257 1.433 . S
C259 N262 1.384 . S
C260 H251 0.929 . S
C260 C252 1.378 . S
C260 C255 1.350 . S
C261 H248 0.929 . S
C261 C253 1.433 . S
C261 N263 1.384 . S
N262 C258 1.427 . S
N262 C259 1.384 . S
N263 C255 1.427 . S
N263 C261 1.384 . S
H264 C270 0.930 . S
H265 C274 0.930 . S
H266 C279 0.929 . S
H267 C277 0.929 . S
H268 C272 0.929 . S
H269 C278 0.929 . S
C270 H264 0.930 . S
C270 C271 1.367 . S
C270 C278 1.378 . S
C271 C270 1.367 . S
C271 C279 1.433 . S
C272 H268 0.929 . S
C272 C274 1.378 . S
C272 C276 1.350 . S
C273 C276 1.463 . S
C273 C278 1.350 . S
C273 N281 1.427 . S
C274 H265 0.930 . S
C274 C272 1.378 . S
C274 C275 1.367 . S
C275 C274 1.367 . S
C275 C277 1.433 . S
C276 C272 1.350 . S
C276 C273 1.463 . S
C276 N280 1.427 . S
C277 H267 0.929 . S
C277 C275 1.433 . S
C277 N280 1.384 . S
C278 H269 0.929 . S
C278 C270 1.378 . S
C278 C273 1.350 . S
C279 H266 0.929 . S
C279 C271 1.433 . S
C279 N281 1.384 . S
N280 C276 1.427 . S
N280 C277 1.384 . S
N281 C273 1.427 . S
N281 C279 1.384 . S
H282 C288 0.930 . S
H283 C292 0.930 . S
H284 C297 0.929 . S
H285 C295 0.929 . S
H286 C290 0.929 . S
H287 C296 0.929 . S
C288 H282 0.930 . S
C288 C289 1.367 . S
C288 C296 1.378 . S
C289 C288 1.367 . S
C289 C297 1.433 . S
C290 H286 0.929 . S
C290 C292 1.378 . S
C290 C294 1.350 . S
C291 C294 1.463 . S
C291 C296 1.350 . S
C291 N299 1.427 . S
C292 H283 0.930 . S
C292 C290 1.378 . S
C292 C293 1.367 . S
C293 C292 1.367 . S
C293 C295 1.433 . S
C294 C290 1.350 . S
C294 C291 1.463 . S
C294 N298 1.427 . S
C295 H285 0.929 . S
C295 C293 1.433 . S
C295 N298 1.384 . S
C296 H287 0.929 . S
C296 C288 1.378 . S
C296 C291 1.350 . S
C297 H284 0.929 . S
C297 C289 1.433 . S
C297 N299 1.384 . S
N298 C294 1.427 . S
N298 C295 1.384 . S
N299 C291 1.427 . S
N299 C297 1.384 . S
H300 C306 0.930 . S
H301 C310 0.930 . S
H302 C315 0.929 . S
H303 C313 0.929 . S
H304 C308 0.929 . S
H305 C314 0.929 . S
C306 H300 0.930 . S
C306 C307 1.367 . S
C306 C314 1.378 . S
C307 C306 1.367 . S
C307 C315 1.433 . S
C308 H304 0.929 . S
C308 C310 1.378 . S
C308 C312 1.350 . S
C309 C312 1.463 . S
C309 C314 1.350 . S
C309 N317 1.427 . S
C310 H301 0.930 . S
C310 C308 1.378 . S
C310 C311 1.367 . S
C311 C310 1.367 . S
C311 C313 1.433 . S
C312 C308 1.350 . S
C312 C309 1.463 . S
C312 N316 1.427 . S
C313 H303 0.929 . S
C313 C311 1.433 . S
C313 N316 1.384 . S
C314 H305 0.929 . S
C314 C306 1.378 . S
C314 C309 1.350 . S
C315 H302 0.929 . S
C315 C307 1.433 . S
C315 N317 1.384 . S
N316 C312 1.427 . S
N316 C313 1.384 . S
N317 C309 1.427 . S
N317 C315 1.384 . S
H318 C324 0.930 . S
H319 C328 0.930 . S
H320 C333 0.929 . S
H321 C331 0.929 . S
H322 C326 0.929 . S
H323 C332 0.929 . S
C324 H318 0.930 . S
C324 C325 1.367 . S
C324 C332 1.378 . S
C325 C324 1.367 . S
C325 C333 1.433 . S
C326 H322 0.929 . S
C326 C328 1.378 1_565 S
C326 C330 1.350 . S
C327 C330 1.463 . S
C327 C332 1.350 . S
C327 N335 1.427 . S
C328 H319 0.930 . S
C328 C326 1.378 1_545 S
C328 C329 1.367 . S
C329 C328 1.367 . S
C329 C331 1.433 1_545 S
C330 C326 1.350 . S
C330 C327 1.463 . S
C330 N334 1.427 . S
C331 H321 0.929 . S
C331 C329 1.433 1_565 S
C331 N334 1.384 . S
C332 H323 0.929 . S
C332 C324 1.378 . S
C332 C327 1.350 . S
C333 H320 0.929 . S
C333 C325 1.433 . S
C333 N335 1.384 . S
N334 C330 1.427 . S
N334 C331 1.384 . S
N335 C327 1.427 . S
N335 C333 1.384 . S
H336 C342 0.930 . S
H337 C346 0.930 . S
H338 C351 0.929 . S
H339 C349 0.929 . S
H340 C344 0.929 . S
H341 C350 0.929 . S
C342 H336 0.930 . S
C342 C343 1.367 . S
C342 C350 1.378 . S
C343 C342 1.367 . S
C343 C351 1.433 . S
C344 H340 0.929 . S
C344 C346 1.378 . S
C344 C348 1.350 . S
C345 C348 1.463 . S
C345 C350 1.350 . S
C345 N353 1.427 . S
C346 H337 0.930 . S
C346 C344 1.378 . S
C346 C347 1.367 . S
C347 C346 1.367 . S
C347 C349 1.433 . S
C348 C344 1.350 . S
C348 C345 1.463 . S
C348 N352 1.427 . S
C349 H339 0.929 . S
C349 C347 1.433 . S
C349 N352 1.384 . S
C350 H341 0.929 . S
C350 C342 1.378 . S
C350 C345 1.350 . S
C351 H338 0.929 . S
C351 C343 1.433 . S
C351 N353 1.384 . S
N352 C348 1.427 . S
N352 C349 1.384 . S
N353 C345 1.427 . S
N353 C351 1.384 . S
H354 C360 0.930 . S
H355 C364 0.930 . S
H356 C369 0.929 . S
H357 C367 0.929 . S
H358 C362 0.929 . S
H359 C368 0.929 . S
C360 H354 0.930 . S
C360 C361 1.367 . S
C360 C368 1.378 . S
C361 C360 1.367 . S
C361 C369 1.433 . S
C362 H358 0.929 . S
C362 C364 1.378 . S
C362 C366 1.350 . S
C363 C366 1.463 . S
C363 C368 1.350 . S
C363 N371 1.427 . S
C364 H355 0.930 . S
C364 C362 1.378 . S
C364 C365 1.367 . S
C365 C364 1.367 . S
C365 C367 1.433 . S
C366 C362 1.350 . S
C366 C363 1.463 . S
C366 N370 1.427 . S
C367 H357 0.929 . S
C367 C365 1.433 . S
C367 N370 1.384 . S
C368 H359 0.929 . S
C368 C360 1.378 . S
C368 C363 1.350 . S
C369 H356 0.929 . S
C369 C361 1.433 . S
C369 N371 1.384 . S
N370 C366 1.427 . S
N370 C367 1.384 . S
N371 C363 1.427 . S
N371 C369 1.384 . S
H372 C378 0.930 . S
H373 C382 0.930 . S
H374 C387 0.929 . S
H375 C385 0.929 . S
H376 C380 0.929 . S
H377 C386 0.929 . S
C378 H372 0.930 . S
C378 C379 1.367 . S
C378 C386 1.378 . S
C379 C378 1.367 . S
C379 C387 1.433 . S
C380 H376 0.929 . S
C380 C382 1.378 . S
C380 C384 1.350 . S
C381 C384 1.463 . S
C381 C386 1.350 . S
C381 N389 1.427 . S
C382 H373 0.930 . S
C382 C380 1.378 . S
C382 C383 1.367 . S
C383 C382 1.367 . S
C383 C385 1.433 . S
C384 C380 1.350 . S
C384 C381 1.463 . S
C384 N388 1.427 . S
C385 H375 0.929 . S
C385 C383 1.433 . S
C385 N388 1.384 . S
C386 H377 0.929 . S
C386 C378 1.378 . S
C386 C381 1.350 . S
C387 H374 0.929 . S
C387 C379 1.433 . S
C387 N389 1.384 . S
N388 C384 1.427 . S
N388 C385 1.384 . S
N389 C381 1.427 . S
N389 C387 1.384 . S
H390 C396 0.930 . S
H391 C400 0.930 . S
H392 C405 0.929 . S
H393 C403 0.929 . S
H394 C398 0.929 . S
H395 C404 0.929 . S
C396 H390 0.930 . S
C396 C397 1.367 1_655 S
C396 C404 1.378 . S
C397 C396 1.367 1_455 S
C397 C405 1.433 . S
C398 H394 0.929 . S
C398 C400 1.378 1_554 S
C398 C402 1.350 . S
C399 C402 1.463 . S
C399 C404 1.350 1_455 S
C399 N407 1.427 . S
C400 H391 0.930 . S
C400 C398 1.378 1_556 S
C400 C401 1.367 . S
C401 C400 1.367 . S
C401 C403 1.433 1_455 S
C402 C398 1.350 . S
C402 C399 1.463 . S
C402 N406 1.427 1_455 S
C403 H393 0.929 . S
C403 C401 1.433 1_655 S
C403 N406 1.384 1_556 S
C404 H395 0.929 . S
C404 C396 1.378 . S
C404 C399 1.350 1_655 S
C405 H392 0.929 . S
C405 C397 1.433 . S
C405 N407 1.384 . S
N406 C402 1.427 1_655 S
N406 C403 1.384 1_554 S
N407 C399 1.427 . S
N407 C405 1.384 . S
H408 C414 0.930 . S
H409 C418 0.930 . S
H410 C423 0.929 1_565 S
H411 C421 0.929 . S
H412 C416 0.929 . S
H413 C422 0.929 . S
C414 H408 0.930 . S
C414 C415 1.367 . S
C414 C422 1.378 . S
C415 C414 1.367 . S
C415 C423 1.433 . S
C416 H412 0.929 . S
C416 C418 1.378 . S
C416 C420 1.350 . S
C417 C420 1.463 . S
C417 C422 1.350 . S
C417 N425 1.427 . S
C418 H409 0.930 . S
C418 C416 1.378 . S
C418 C419 1.367 . S
C419 C418 1.367 . S
C419 C421 1.433 . S
C420 C416 1.350 . S
C420 C417 1.463 . S
C420 N424 1.427 . S
C421 H411 0.929 . S
C421 C419 1.433 . S
C421 N424 1.384 . S
C422 H413 0.929 . S
C422 C414 1.378 . S
C422 C417 1.350 . S
C423 H410 0.929 1_545 S
C423 C415 1.433 . S
C423 N425 1.384 . S
N424 C420 1.427 . S
N424 C421 1.384 . S
N425 C417 1.427 . S
N425 C423 1.384 . S
H426 C432 0.930 . S
H427 C436 0.930 . S
H428 C441 0.929 . S
H429 C439 0.929 . S
H430 C434 0.929 . S
H431 C440 0.929 . S
C432 H426 0.930 . S
C432 C433 1.367 . S
C432 C440 1.378 . S
C433 C432 1.367 . S
C433 C441 1.433 . S
C434 H430 0.929 . S
C434 C436 1.378 . S
C434 C438 1.350 . S
C435 C438 1.463 . S
C435 C440 1.350 . S
C435 N443 1.427 . S
C436 H427 0.930 . S
C436 C434 1.378 . S
C436 C437 1.367 . S
C437 C436 1.367 . S
C437 C439 1.433 . S
C438 C434 1.350 . S
C438 C435 1.463 . S
C438 N442 1.427 . S
C439 H429 0.929 . S
C439 C437 1.433 . S
C439 N442 1.384 . S
C440 H431 0.929 . S
C440 C432 1.378 . S
C440 C435 1.350 . S
C441 H428 0.929 . S
C441 C433 1.433 . S
C441 N443 1.384 . S
N442 C438 1.427 . S
N442 C439 1.384 . S
N443 C435 1.427 . S
N443 C441 1.384 . S
H444 C450 0.930 . S
H445 C454 0.930 . S
H446 C459 0.929 . S
H447 C457 0.929 . S
H448 C452 0.929 . S
H449 C458 0.929 . S
C450 H444 0.930 . S
C450 C451 1.367 1_565 S
C450 C458 1.378 . S
C451 C450 1.367 1_545 S
C451 C459 1.433 . S
C452 H448 0.929 . S
C452 C454 1.378 . S
C452 C456 1.350 . S
C453 C456 1.463 . S
C453 C458 1.350 1_545 S
C453 N461 1.427 . S
C454 H445 0.930 . S
C454 C452 1.378 . S
C454 C455 1.367 . S
C455 C454 1.367 . S
C455 C457 1.433 1_545 S
C456 C452 1.350 . S
C456 C453 1.463 . S
C456 N460 1.427 1_545 S
C457 H447 0.929 . S
C457 C455 1.433 1_565 S
C457 N460 1.384 . S
C458 H449 0.929 . S
C458 C450 1.378 . S
C458 C453 1.350 1_565 S
C459 H446 0.929 . S
C459 C451 1.433 . S
C459 N461 1.384 . S
N460 C456 1.427 1_565 S
N460 C457 1.384 . S
N461 C453 1.427 . S
N461 C459 1.384 . S
H462 C468 0.930 . S
H463 C472 0.930 . S
H464 C477 0.929 . S
H465 C475 0.929 . S
H466 C470 0.929 1_556 S
H467 C476 0.929 . S
C468 H462 0.930 . S
C468 C469 1.367 . S
C468 C476 1.378 . S
C469 C468 1.367 . S
C469 C477 1.433 . S
C470 H466 0.929 1_554 S
C470 C472 1.378 . S
C470 C474 1.350 1_554 S
C471 C474 1.463 . S
C471 C476 1.350 . S
C471 N479 1.427 . S
C472 H463 0.930 . S
C472 C470 1.378 . S
C472 C473 1.367 . S
C473 C472 1.367 . S
C473 C475 1.433 . S
C474 C470 1.350 1_556 S
C474 C471 1.463 . S
C474 N478 1.427 1_556 S
C475 H465 0.929 . S
C475 C473 1.433 . S
C475 N478 1.384 . S
C476 H467 0.929 . S
C476 C468 1.378 . S
C476 C471 1.350 . S
C477 H464 0.929 . S
C477 C469 1.433 . S
C477 N479 1.384 . S
N478 C474 1.427 1_554 S
N478 C475 1.384 . S
N479 C471 1.427 . S
N479 C477 1.384 . S
H480 C486 0.930 . S
H481 C490 0.930 . S
H482 C495 0.929 . S
H483 C493 0.929 . S
H484 C488 0.929 . S
H485 C494 0.929 . S
C486 H480 0.930 . S
C486 C487 1.367 . S
C486 C494 1.378 . S
C487 C486 1.367 . S
C487 C495 1.433 . S
C488 H484 0.929 . S
C488 C490 1.378 . S
C488 C492 1.350 . S
C489 C492 1.463 . S
C489 C494 1.350 . S
C489 N497 1.427 . S
C490 H481 0.930 . S
C490 C488 1.378 . S
C490 C491 1.367 . S
C491 C490 1.367 . S
C491 C493 1.433 . S
C492 C488 1.350 . S
C492 C489 1.463 . S
C492 N496 1.427 . S
C493 H483 0.929 . S
C493 C491 1.433 . S
C493 N496 1.384 . S
C494 H485 0.929 . S
C494 C486 1.378 . S
C494 C489 1.350 . S
C495 H482 0.929 . S
C495 C487 1.433 . S
C495 N497 1.384 . S
N496 C492 1.427 . S
N496 C493 1.384 . S
N497 C489 1.427 . S
N497 C495 1.384 . S
C181 C19 2.879 . S
C185 C169 2.887 . S
C199 C49 2.981 . S
C203 C151 2.952 1_655 S
C217 C99 2.865 . S
C221 C163 2.862 . S
C235 C9 2.967 . S
C239 C172 2.929 . S
C257 C154 2.862 . S
C253 C59 2.865 . S
C275 C160 2.953 . S
C271 C89 2.982 . S
C289 C55 0.515 . S
C293 C133 0.470 . S
C307 C85 0.594 . S
C311 C142 0.528 . S
C325 C15 0.513 . S
C329 C124 0.482 . S
C347 C136 0.503 . S
C343 C45 0.575 . S
C365 C145 0.476 . S
C361 C95 0.523 . S
C379 C5 0.576 . S
C383 C127 0.504 . S
C401 C143 1.006 . S
C397 C18 0.998 . S
C415 C58 0.988 . S
C419 C125 1.012 . S
C433 C98 0.986 . S
C437 C134 1.012 . S
C455 C161 1.819 . S
C451 C48 1.734 . S
C473 C170 1.819 . S
C469 C88 1.729 . S
C487 C8 1.735 . S
C491 C152 1.819 . S
