# Generated by pormake.
# Topology pto, (3,4)-cn, num edge types: 1
# Building blocks:
#     Node 0, Type 0, BuildingBlock: BELTOD_clean_linker_0, # of connection points: 3
#     Node 1, Type 0, BuildingBlock: BELTOD_clean_linker_0, # of connection points: 3
#     Node 2, Type 0, BuildingBlock: BELTOD_clean_linker_0, # of connection points: 3
#     Node 3, Type 0, BuildingBlock: BELTOD_clean_linker_0, # of connection points: 3
#     Node 4, Type 0, BuildingBlock: BELTOD_clean_linker_0, # of connection points: 3
#     Node 5, Type 0, BuildingBlock: BELTOD_clean_linker_0, # of connection points: 3
#     Node 6, Type 0, BuildingBlock: BELTOD_clean_linker_0, # of connection points: 3
#     Node 7, Type 0, BuildingBlock: BELTOD_clean_linker_0, # of connection points: 3
#     Node 8, Type 1, BuildingBlock: NAWXER_clean_sbu_0, # of connection points: 4
#     Node 9, Type 1, BuildingBlock: NAWXER_clean_sbu_0, # of connection points: 4
#     Node 10, Type 1, BuildingBlock: NAWXER_clean_sbu_0, # of connection points: 4
#     Node 11, Type 1, BuildingBlock: NAWXER_clean_sbu_0, # of connection points: 4
#     Node 12, Type 1, BuildingBlock: NAWXER_clean_sbu_0, # of connection points: 4
#     Node 13, Type 1, BuildingBlock: NAWXER_clean_sbu_0, # of connection points: 4
#     Edge 14, Type (0, 1), BuildingBlock: MIFKUJ_clean_linker_0, # of connection points: 2
#     Edge 15, Type (0, 1), BuildingBlock: MIFKUJ_clean_linker_0, # of connection points: 2
#     Edge 16, Type (0, 1), BuildingBlock: MIFKUJ_clean_linker_0, # of connection points: 2
#     Edge 17, Type (0, 1), BuildingBlock: MIFKUJ_clean_linker_0, # of connection points: 2
#     Edge 18, Type (0, 1), BuildingBlock: MIFKUJ_clean_linker_0, # of connection points: 2
#     Edge 19, Type (0, 1), BuildingBlock: MIFKUJ_clean_linker_0, # of connection points: 2
#     Edge 20, Type (0, 1), BuildingBlock: MIFKUJ_clean_linker_0, # of connection points: 2
#     Edge 21, Type (0, 1), BuildingBlock: MIFKUJ_clean_linker_0, # of connection points: 2
#     Edge 22, Type (0, 1), BuildingBlock: MIFKUJ_clean_linker_0, # of connection points: 2
#     Edge 23, Type (0, 1), BuildingBlock: MIFKUJ_clean_linker_0, # of connection points: 2
#     Edge 24, Type (0, 1), BuildingBlock: MIFKUJ_clean_linker_0, # of connection points: 2
#     Edge 25, Type (0, 1), BuildingBlock: MIFKUJ_clean_linker_0, # of connection points: 2
#     Edge 26, Type (0, 1), BuildingBlock: MIFKUJ_clean_linker_0, # of connection points: 2
#     Edge 27, Type (0, 1), BuildingBlock: MIFKUJ_clean_linker_0, # of connection points: 2
#     Edge 28, Type (0, 1), BuildingBlock: MIFKUJ_clean_linker_0, # of connection points: 2
#     Edge 29, Type (0, 1), BuildingBlock: MIFKUJ_clean_linker_0, # of connection points: 2
#     Edge 30, Type (0, 1), BuildingBlock: MIFKUJ_clean_linker_0, # of connection points: 2
#     Edge 31, Type (0, 1), BuildingBlock: MIFKUJ_clean_linker_0, # of connection points: 2
#     Edge 32, Type (0, 1), BuildingBlock: MIFKUJ_clean_linker_0, # of connection points: 2
#     Edge 33, Type (0, 1), BuildingBlock: MIFKUJ_clean_linker_0, # of connection points: 2
#     Edge 34, Type (0, 1), BuildingBlock: MIFKUJ_clean_linker_0, # of connection points: 2
#     Edge 35, Type (0, 1), BuildingBlock: MIFKUJ_clean_linker_0, # of connection points: 2
#     Edge 36, Type (0, 1), BuildingBlock: MIFKUJ_clean_linker_0, # of connection points: 2
#     Edge 37, Type (0, 1), BuildingBlock: MIFKUJ_clean_linker_0, # of connection points: 2
# Relax obj value: 0.000
# Max RMSD: 0.009
# Mean RMSD: 0.006
data_MOF--net-pto--node1-NAWXER_clean_sbu_0--node2-BELTOD_clean_linker_0--edge1-MIFKUJ_clean_linker_0
_symmetry_space_group_name_H-M    P1
_symmetry_Int_Tables_number       1
_symmetry_cell_setting            triclinic
loop_
_symmetry_equiv_pos_as_xyz
'x, y, z'
_cell_length_a     63.419543
_cell_length_b     59.67563
_cell_length_c     55.583595
_cell_angle_alpha  89.152985
_cell_angle_beta   91.469105
_cell_angle_gamma 91.951752
loop_
_atom_site_label
_atom_site_type_symbol
_atom_site_fract_x
_atom_site_fract_y
_atom_site_fract_z
_atom_type_partial_charge
P0 P 0.27257 0.32234 0.28868 0.0
H1 H 0.30949 0.34997 0.27568 0.0
H2 H 0.3325 0.35029 0.24113 0.0
H3 H 0.29319 0.29803 0.20835 0.0
H4 H 0.27015 0.29781 0.24317 0.0
H5 H 0.26314 0.36824 0.30116 0.0
H6 H 0.23128 0.38996 0.29677 0.0
H7 H 0.19969 0.33468 0.25975 0.0
H8 H 0.23175 0.31297 0.26428 0.0
H9 H 0.2925 0.27911 0.28273 0.0
H10 H 0.23739 0.30356 0.31634 0.0
O11 O 0.28676 0.33332 0.31158 0.0
H12 H 0.28388 0.24131 0.29766 0.0
H13 H 0.22895 0.26596 0.33184 0.0
C14 C 0.28846 0.32344 0.26225 0.0
C15 C 0.30577 0.33861 0.26105 0.0
C16 C 0.31884 0.33891 0.24118 0.0
C17 C 0.31478 0.32405 0.22208 0.0
C18 C 0.29691 0.30943 0.22296 0.0
C19 C 0.28373 0.3093 0.2428 0.0
C20 C 0.24961 0.33884 0.28352 0.0
C21 C 0.2494 0.36081 0.29203 0.0
C22 C 0.2312 0.37326 0.28938 0.0
C23 C 0.21289 0.36395 0.27812 0.0
C24 C 0.21343 0.34216 0.26887 0.0
C25 C 0.23173 0.32978 0.27136 0.0
C26 C 0.26516 0.29404 0.29763 0.0
C27 C 0.27832 0.27629 0.29292 0.0
C28 C 0.2735 0.2547 0.30174 0.0
C29 C 0.25563 0.25053 0.31586 0.0
C30 C 0.24255 0.26843 0.32059 0.0
C31 C 0.24737 0.28998 0.31172 0.0
P32 P 0.26701 0.73403 0.70875 0.0
H33 H 0.23248 0.72147 0.67605 0.0
H34 H 0.20164 0.69617 0.67967 0.0
H35 H 0.22053 0.68074 0.75319 0.0
H36 H 0.25099 0.70668 0.74961 0.0
H37 H 0.2893 0.76632 0.67802 0.0
H38 H 0.27919 0.80156 0.65879 0.0
H39 H 0.21876 0.79604 0.69299 0.0
H40 H 0.229 0.76065 0.71209 0.0
H41 H 0.29816 0.70652 0.73311 0.0
H42 H 0.26953 0.7698 0.74488 0.0
O43 O 0.28207 0.72164 0.68904 0.0
H44 H 0.32107 0.71229 0.7686 0.0
H45 H 0.29225 0.77561 0.78069 0.0
C46 C 0.2439 0.71611 0.71259 0.0
C47 C 0.22985 0.71278 0.69302 0.0
C48 C 0.21233 0.69814 0.69505 0.0
C49 C 0.20862 0.6863 0.71669 0.0
C50 C 0.22274 0.68979 0.73636 0.0
C51 C 0.24025 0.70456 0.73431 0.0
C52 C 0.25972 0.76064 0.69597 0.0
C53 C 0.27389 0.77271 0.68139 0.0
C54 C 0.26813 0.79293 0.67056 0.0
C55 C 0.2481 0.80152 0.67424 0.0
C56 C 0.23416 0.78967 0.68949 0.0
C57 C 0.24 0.76947 0.70043 0.0
C58 C 0.28244 0.73789 0.73614 0.0
C59 C 0.29673 0.7216 0.74345 0.0
C60 C 0.30971 0.72487 0.76386 0.0
C61 C 0.30858 0.74448 0.77744 0.0
C62 C 0.29374 0.76049 0.77042 0.0
C63 C 0.28069 0.75715 0.74999 0.0
P64 P 0.7679 0.76961 0.23248 0.0
H65 H 0.79511 0.78535 0.27194 0.0
H66 H 0.78864 0.80646 0.30818 0.0
H67 H 0.72187 0.80494 0.29011 0.0
H68 H 0.72837 0.78288 0.25477 0.0
H69 H 0.79607 0.74438 0.20354 0.0
H70 H 0.8167 0.71125 0.21188 0.0
H71 H 0.78809 0.70366 0.28141 0.0
H72 H 0.76771 0.73715 0.273 0.0
H73 H 0.74263 0.80283 0.20809 0.0
H74 H 0.74156 0.73076 0.21553 0.0
O75 O 0.78492 0.78671 0.21816 0.0
H76 H 0.71028 0.80053 0.18327 0.0
H77 H 0.70917 0.72833 0.19037 0.0
C78 C 0.76232 0.78284 0.26045 0.0
C79 C 0.77906 0.78934 0.276 0.0
C80 C 0.77533 0.80158 0.2966 0.0
C81 C 0.75475 0.80778 0.30193 0.0
C82 C 0.7379 0.80041 0.28673 0.0
C83 C 0.74165 0.78794 0.26626 0.0
C84 C 0.78069 0.74344 0.23781 0.0
C85 C 0.79411 0.73547 0.22049 0.0
C86 C 0.80581 0.71641 0.22525 0.0
C87 C 0.8042 0.70485 0.24742 0.0
C88 C 0.78999 0.71239 0.26435 0.0
C89 C 0.77826 0.73148 0.25952 0.0
C90 C 0.74452 0.76699 0.21352 0.0
C91 C 0.73546 0.78649 0.20425 0.0
C92 C 0.71692 0.78517 0.19021 0.0
C93 C 0.70718 0.76426 0.18497 0.0
C94 C 0.71643 0.74466 0.19404 0.0
C95 C 0.73491 0.74603 0.20841 0.0
P96 P 0.75575 0.25773 0.7783 0.0
H97 H 0.73948 0.2416 0.8243 0.0
H98 H 0.70941 0.25184 0.84782 0.0
H99 H 0.69097 0.29889 0.792 0.0
H100 H 0.72136 0.28855 0.76842 0.0
H101 H 0.78245 0.23228 0.74816 0.0
H102 H 0.77529 0.20518 0.71647 0.0
H103 H 0.70825 0.21266 0.72453 0.0
H104 H 0.71568 0.24077 0.75541 0.0
H105 H 0.76736 0.2987 0.80343 0.0
H106 H 0.77494 0.27258 0.73234 0.0
O107 O 0.7723 0.2447 0.7972 0.0
H108 H 0.79036 0.33092 0.79348 0.0
H109 H 0.79876 0.30409 0.72267 0.0
C110 C 0.73277 0.26453 0.79477 0.0
C111 C 0.72903 0.25415 0.81709 0.0
C112 C 0.71188 0.2601 0.83058 0.0
C113 C 0.698 0.27638 0.82189 0.0
C114 C 0.70143 0.2863 0.79914 0.0
C115 C 0.71876 0.28046 0.78571 0.0
C116 C 0.74966 0.23865 0.75406 0.0
C117 C 0.76621 0.22827 0.7429 0.0
C118 C 0.76205 0.21255 0.72493 0.0
C119 C 0.74115 0.20643 0.71805 0.0
C120 C 0.72453 0.21709 0.72914 0.0
C121 C 0.72877 0.23312 0.74695 0.0
C122 C 0.76943 0.28316 0.76872 0.0
C123 C 0.77377 0.30002 0.78557 0.0
C124 C 0.78713 0.31833 0.77993 0.0
C125 C 0.79672 0.31996 0.75738 0.0
C126 C 0.79158 0.30349 0.74014 0.0
C127 C 0.77804 0.28527 0.74576 0.0
P128 P 0.7808 0.75804 0.79816 0.0
H129 H 0.76729 0.75908 0.84787 0.0
H130 H 0.73406 0.74905 0.86708 0.0
H131 H 0.70693 0.72883 0.79837 0.0
H132 H 0.74048 0.73899 0.77914 0.0
H133 H 0.82402 0.75442 0.78299 0.0
H134 H 0.84757 0.72293 0.78076 0.0
H135 H 0.79736 0.67775 0.80434 0.0
H136 H 0.77382 0.70926 0.80638 0.0
H137 H 0.75771 0.79826 0.78776 0.0
H138 H 0.79361 0.75207 0.74771 0.0
O139 O 0.79413 0.77562 0.81653 0.0
H140 H 0.75467 0.82252 0.75211 0.0
H141 H 0.79074 0.77634 0.71206 0.0
C142 C 0.75619 0.75021 0.81201 0.0
C143 C 0.75419 0.75263 0.83687 0.0
C144 C 0.73516 0.7469 0.84784 0.0
C145 C 0.7178 0.73838 0.83419 0.0
C146 C 0.72004 0.73533 0.80934 0.0
C147 C 0.73912 0.74126 0.79833 0.0
C148 C 0.79713 0.73421 0.79463 0.0
C149 C 0.818 0.73769 0.78738 0.0
C150 C 0.83143 0.71969 0.78608 0.0
C151 C 0.8243 0.69787 0.79239 0.0
C152 C 0.80332 0.69441 0.79955 0.0
C153 C 0.78981 0.71242 0.80057 0.0
C154 C 0.776 0.77345 0.77051 0.0
C155 C 0.76467 0.79317 0.77119 0.0
C156 C 0.7629 0.807 0.75077 0.0
C157 C 0.7726 0.80144 0.72929 0.0
C158 C 0.78336 0.78124 0.72844 0.0
C159 C 0.78497 0.76731 0.74886 0.0
P160 P 0.78462 0.23332 0.21575 0.0
H161 H 0.82801 0.24316 0.23111 0.0
H162 H 0.84975 0.27784 0.23272 0.0
H163 H 0.79584 0.31561 0.20954 0.0
H164 H 0.7741 0.28102 0.20839 0.0
H165 H 0.77556 0.18603 0.22497 0.0
H166 H 0.77452 0.16301 0.26169 0.0
H167 H 0.79066 0.22158 0.30396 0.0
H168 H 0.79156 0.24459 0.26706 0.0
H169 H 0.76946 0.2515 0.16993 0.0
H170 H 0.74192 0.22352 0.23437 0.0
O171 O 0.79732 0.21858 0.19573 0.0
H172 H 0.73414 0.25522 0.15172 0.0
H173 H 0.70665 0.22672 0.216 0.0
C174 C 0.79948 0.25942 0.21949 0.0
C175 C 0.82081 0.25895 0.22668 0.0
C176 C 0.8332 0.27876 0.22763 0.0
C177 C 0.82452 0.29941 0.2211 0.0
C178 C 0.80301 0.2999 0.21438 0.0
C179 C 0.79056 0.28009 0.21375 0.0
C180 C 0.78397 0.21691 0.24325 0.0
C181 C 0.77893 0.19391 0.24214 0.0
C182 C 0.77821 0.1808 0.26315 0.0
C183 C 0.78258 0.19047 0.28573 0.0
C184 C 0.78749 0.21361 0.2868 0.0
C185 C 0.78799 0.22678 0.26573 0.0
C186 C 0.75836 0.23725 0.20347 0.0
C187 C 0.75582 0.24627 0.18019 0.0
C188 C 0.73566 0.24843 0.16984 0.0
C189 C 0.71769 0.2412 0.18244 0.0
C190 C 0.72026 0.23226 0.20583 0.0
C191 C 0.74044 0.23047 0.21635 0.0
P192 P 0.26884 0.296 0.7273 0.0
H193 H 0.27742 0.29015 0.67637 0.0
H194 H 0.27703 0.25733 0.65077 0.0
H195 H 0.25496 0.21595 0.71005 0.0
H196 H 0.25514 0.24914 0.73561 0.0
H197 H 0.25895 0.32858 0.76312 0.0
H198 H 0.22628 0.34597 0.77369 0.0
H199 H 0.19141 0.30198 0.72472 0.0
H200 H 0.22438 0.28518 0.71368 0.0
H201 H 0.31452 0.2997 0.73276 0.0
H202 H 0.26218 0.27666 0.77564 0.0
O203 O 0.27969 0.31749 0.71192 0.0
H204 H 0.33902 0.29115 0.76594 0.0
H205 H 0.28665 0.26836 0.80924 0.0
C206 C 0.26638 0.27206 0.70793 0.0
C207 C 0.27233 0.27408 0.68387 0.0
C208 C 0.27225 0.25524 0.66926 0.0
C209 C 0.26618 0.23397 0.67842 0.0
C210 C 0.25961 0.23211 0.7024 0.0
C211 C 0.25976 0.25103 0.71705 0.0
C212 C 0.24407 0.3054 0.73787 0.0
C213 C 0.2442 0.32238 0.75501 0.0
C214 C 0.22545 0.33227 0.76111 0.0
C215 C 0.20612 0.32543 0.75006 0.0
C216 C 0.20601 0.30787 0.73337 0.0
C217 C 0.22485 0.29806 0.72721 0.0
C218 C 0.28654 0.28937 0.752 0.0
C219 C 0.30829 0.29298 0.74943 0.0
C220 C 0.32228 0.28813 0.76845 0.0
C221 C 0.31476 0.27937 0.79037 0.0
C222 C 0.29293 0.27507 0.7926 0.0
C223 C 0.27893 0.27997 0.77349 0.0
P224 P 0.27248 0.72339 0.27421 0.0
H225 H 0.31522 0.70679 0.27231 0.0
H226 H 0.34068 0.70564 0.24019 0.0
H227 H 0.29711 0.73952 0.19218 0.0
H228 H 0.27185 0.74098 0.22469 0.0
H229 H 0.29144 0.73888 0.31962 0.0
H230 H 0.29294 0.77503 0.33947 0.0
H231 H 0.25794 0.80396 0.27962 0.0
H232 H 0.25619 0.76733 0.25997 0.0
H233 H 0.25832 0.69198 0.237 0.0
H234 H 0.22967 0.73505 0.28752 0.0
O235 O 0.27903 0.70393 0.29469 0.0
H236 H 0.22367 0.67613 0.22548 0.0
H237 H 0.19479 0.71966 0.27566 0.0
C238 C 0.29152 0.72361 0.25072 0.0
C239 C 0.31114 0.71398 0.25488 0.0
C240 C 0.32566 0.71323 0.23644 0.0
C241 C 0.32086 0.72224 0.21349 0.0
C242 C 0.30137 0.73252 0.20965 0.0
C243 C 0.28686 0.73326 0.22815 0.0
C244 C 0.27337 0.75033 0.28852 0.0
C245 C 0.28398 0.75294 0.31077 0.0
C246 C 0.28501 0.77373 0.32203 0.0
C247 C 0.27557 0.79245 0.31116 0.0
C248 C 0.26515 0.78983 0.28863 0.0
C249 C 0.26418 0.76895 0.27735 0.0
C250 C 0.24658 0.71514 0.26267 0.0
C251 C 0.2445 0.69856 0.24508 0.0
C252 C 0.22461 0.6895 0.23847 0.0
C253 C 0.20637 0.69664 0.24957 0.0
C254 C 0.2085 0.71365 0.26685 0.0
C255 C 0.22844 0.72267 0.27347 0.0
C256 C 0.97134 0.48821 0.22603 0.0
C257 C 0.02139 0.55268 0.22905 0.0
O258 O 0.97665 0.49422 0.24746 0.0
Zn259 Zn 0.99601 0.51947 0.26506 0.0
O260 O 0.97874 0.49916 0.20814 0.0
Zn261 Zn 0.99584 0.52086 0.22655 0.0
O262 O 0.01937 0.50031 0.24321 0.0
O263 O 0.01641 0.50156 0.28264 0.0
O264 O 0.01329 0.54363 0.21024 0.0
O265 O 0.01599 0.5452 0.24981 0.0
O266 O 0.97569 0.53633 0.28232 0.0
O267 O 0.97214 0.53988 0.24287 0.0
C268 C 0.02569 0.49438 0.26439 0.0
C269 C 0.96602 0.54442 0.26402 0.0
C270 C 0.97396 0.47339 0.7382 0.0
C271 C 0.03163 0.52982 0.73651 0.0
O272 O 0.98161 0.4782 0.75915 0.0
Zn273 Zn 0.0056 0.49986 0.77499 0.0
O274 O 0.98172 0.48301 0.71971 0.0
Zn275 Zn 0.00294 0.5014 0.73662 0.0
O276 O 0.02428 0.47725 0.75088 0.0
O277 O 0.02476 0.47902 0.7905 0.0
O278 O 0.02163 0.52128 0.71857 0.0
O279 O 0.02699 0.52333 0.75789 0.0
O280 O 0.98889 0.5191 0.79432 0.0
O281 O 0.98393 0.5243 0.7552 0.0
C282 C 0.03134 0.47038 0.77142 0.0
C283 C 0.97982 0.52934 0.7769 0.0
C284 C 0.23233 0.98883 0.51641 0.0
C285 C 0.23663 0.04726 0.45391 0.0
O286 O 0.21699 0.99717 0.50457 0.0
Zn287 Zn 0.2338 0.01742 0.48454 0.0
O288 O 0.25129 0.99527 0.5117 0.0
Zn289 Zn 0.26741 0.018 0.48769 0.0
O290 O 0.28226 0.03813 0.50983 0.0
O291 O 0.24758 0.04032 0.51062 0.0
O292 O 0.2547 0.04122 0.46201 0.0
O293 O 0.21998 0.03761 0.46186 0.0
O294 O 0.24887 0.99454 0.46161 0.0
O295 O 0.28322 0.99801 0.4683 0.0
C296 C 0.26601 0.04668 0.51843 0.0
C297 C 0.26761 0.98863 0.45719 0.0
C298 C 0.52606 0.75489 0.02464 0.0
C299 C 0.47163 0.75326 0.96061 0.0
O300 O 0.51991 0.735 0.01868 0.0
Zn301 Zn 0.49819 0.71896 0.99364 0.0
O302 O 0.51799 0.77168 0.01395 0.0
Zn303 Zn 0.49914 0.7548 0.99239 0.0
O304 O 0.47691 0.73969 0.01666 0.0
O305 O 0.47923 0.70289 0.01526 0.0
O306 O 0.48113 0.77045 0.96949 0.0
O307 O 0.47666 0.73367 0.96808 0.0
O308 O 0.51706 0.70263 0.97357 0.0
O309 O 0.52125 0.73936 0.97017 0.0
C310 C 0.47084 0.72003 0.02381 0.0
C311 C 0.52673 0.71967 0.96458 0.0
C312 C 0.76694 0.97534 0.54716 0.0
C313 C 0.76877 0.03371 0.48425 0.0
O314 O 0.74852 0.98064 0.53937 0.0
Zn315 Zn 0.73478 0.0031 0.5132 0.0
O316 O 0.78316 0.98529 0.5385 0.0
Zn317 Zn 0.76841 0.00487 0.51611 0.0
O318 O 0.75263 0.02655 0.53949 0.0
O319 O 0.71829 0.02254 0.5326 0.0
O320 O 0.78436 0.02594 0.49613 0.0
O321 O 0.75001 0.02649 0.48891 0.0
O322 O 0.72054 0.98216 0.49131 0.0
O323 O 0.75531 0.98152 0.49039 0.0
C324 C 0.73374 0.03188 0.54404 0.0
C325 C 0.73712 0.97431 0.48271 0.0
C326 C 0.52491 0.26353 0.04447 0.0
C327 C 0.46866 0.26614 0.98274 0.0
O328 O 0.51387 0.24716 0.036 0.0
Zn329 Zn 0.496 0.26437 0.01437 0.0
O330 O 0.52101 0.28354 0.03734 0.0
Zn331 Zn 0.49974 0.29997 0.01272 0.0
O332 O 0.48309 0.31808 0.03338 0.0
O333 O 0.47664 0.28181 0.0383 0.0
O334 O 0.4765 0.28558 0.98813 0.0
O335 O 0.47522 0.24889 0.99394 0.0
O336 O 0.51818 0.27753 0.98864 0.0
O337 O 0.51939 0.31448 0.99076 0.0
C338 C 0.47305 0.30208 0.04383 0.0
C339 C 0.52568 0.29664 0.98141 0.0
H340 H 0.17274 0.34873 0.28743 0.0
H341 H 0.14048 0.37009 0.28628 0.0
H342 H 0.17627 0.42941 0.26445 0.0
H343 H 0.20861 0.40817 0.26587 0.0
H344 H 0.14955 0.43996 0.29731 0.0
H345 H 0.14518 0.39861 0.22403 0.0
H346 H 0.14514 0.36495 0.19882 0.0
H347 H 0.09123 0.33746 0.23561 0.0
H348 H 0.09113 0.37085 0.26128 0.0
H349 H 0.04859 0.47734 0.22858 0.0
H350 H 0.07967 0.45466 0.23229 0.0
H351 H 0.07568 0.45509 0.30964 0.0
H352 H 0.04454 0.47833 0.3061 0.0
H353 H 0.08631 0.41443 0.24956 0.0
H354 H 0.12612 0.45465 0.33393 0.0
H355 H 0.12786 0.49094 0.35475 0.0
H356 H 0.11362 0.5252 0.28813 0.0
H357 H 0.11206 0.48916 0.26688 0.0
C358 C 0.17369 0.36627 0.28216 0.0
C359 C 0.1932 0.37675 0.27664 0.0
C360 C 0.15525 0.37848 0.28156 0.0
C361 C 0.15589 0.40134 0.27508 0.0
C362 C 0.17538 0.41183 0.2696 0.0
C363 C 0.19384 0.39967 0.27039 0.0
C364 C 0.13629 0.41433 0.27396 0.0
C365 C 0.1357 0.43432 0.28693 0.0
C366 C 0.11828 0.4072 0.26016 0.0
C367 C 0.11829 0.38712 0.24474 0.0
C368 C 0.13342 0.38531 0.22687 0.0
C369 C 0.1334 0.36629 0.21248 0.0
C370 C 0.11823 0.34905 0.21566 0.0
C371 C 0.103 0.35082 0.2332 0.0
C372 C 0.10296 0.36979 0.24766 0.0
C373 C 0.05422 0.47262 0.24644 0.0
C374 C 0.04408 0.47976 0.26707 0.0
C375 C 0.072 0.45954 0.2485 0.0
C376 C 0.08013 0.45328 0.27122 0.0
C377 C 0.06985 0.45998 0.29191 0.0
C378 C 0.05201 0.47318 0.28986 0.0
C379 C 0.09955 0.44002 0.27296 0.0
C380 C 0.10009 0.41995 0.26013 0.0
C381 C 0.1177 0.44741 0.28633 0.0
C382 C 0.11872 0.46918 0.2989 0.0
C383 C 0.1234 0.46994 0.32373 0.0
C384 C 0.12435 0.49046 0.3356 0.0
C385 C 0.12077 0.51035 0.32279 0.0
C386 C 0.1163 0.50977 0.29805 0.0
C387 C 0.11535 0.4893 0.2861 0.0
H388 H 0.12151 0.52622 0.33201 0.0
H389 H 0.11824 0.33434 0.20449 0.0
H390 H 0.19329 0.65679 0.68268 0.0
H391 H 0.16286 0.63077 0.68534 0.0
H392 H 0.15224 0.65267 0.75749 0.0
H393 H 0.18248 0.67909 0.75485 0.0
H394 H 0.14981 0.60696 0.7539 0.0
H395 H 0.12124 0.67035 0.71174 0.0
H396 H 0.11962 0.69936 0.67975 0.0
H397 H 0.11273 0.64831 0.62621 0.0
H398 H 0.1146 0.61898 0.65788 0.0
H399 H 0.04863 0.55836 0.77002 0.0
H400 H 0.07827 0.58505 0.76567 0.0
H401 H 0.08399 0.566 0.69159 0.0
H402 H 0.05371 0.53966 0.69563 0.0
H403 H 0.08945 0.60978 0.69546 0.0
H404 H 0.11756 0.54619 0.73771 0.0
H405 H 0.11945 0.51726 0.76982 0.0
H406 H 0.1276 0.5684 0.82305 0.0
H407 H 0.1255 0.59766 0.79135 0.0
C408 C 0.18435 0.6563 0.69903 0.0
C409 C 0.19028 0.67017 0.71851 0.0
C410 C 0.16699 0.64135 0.70054 0.0
C411 C 0.15515 0.63995 0.72152 0.0
C412 C 0.16117 0.65349 0.74113 0.0
C413 C 0.17851 0.66852 0.73962 0.0
C414 C 0.1366 0.62421 0.72307 0.0
C415 C 0.13648 0.60773 0.74132 0.0
C416 C 0.11949 0.62486 0.70623 0.0
C417 C 0.11828 0.64247 0.68717 0.0
C418 C 0.11955 0.66531 0.69313 0.0
C419 C 0.11856 0.68181 0.67506 0.0
C420 C 0.11613 0.67568 0.65096 0.0
C421 C 0.11464 0.65303 0.64489 0.0
C422 C 0.11565 0.63646 0.66289 0.0
C423 C 0.05614 0.55987 0.75275 0.0
C424 C 0.04893 0.54677 0.7332 0.0
C425 C 0.07318 0.57507 0.75034 0.0
C426 C 0.08371 0.57718 0.72848 0.0
C427 C 0.0762 0.56456 0.70869 0.0
C428 C 0.0589 0.54952 0.71101 0.0
C429 C 0.10257 0.59252 0.72639 0.0
C430 C 0.10278 0.60891 0.70802 0.0
C431 C 0.11982 0.59175 0.74309 0.0
C432 C 0.1212 0.57413 0.76216 0.0
C433 C 0.11962 0.55127 0.75628 0.0
C434 C 0.12074 0.53482 0.77439 0.0
C435 C 0.12358 0.54099 0.79844 0.0
C436 C 0.12537 0.56364 0.80442 0.0
C437 C 0.12424 0.58017 0.78639 0.0
H438 H 0.12444 0.52822 0.81242 0.0
H439 H 0.11536 0.68848 0.637 0.0
H440 H 0.82488 0.69534 0.29012 0.0
H441 H 0.84984 0.66569 0.29843 0.0
H442 H 0.84064 0.64207 0.22582 0.0
H443 H 0.81509 0.67112 0.21765 0.0
H444 H 0.84313 0.60751 0.25678 0.0
H445 H 0.88302 0.67659 0.2422 0.0
H446 H 0.89376 0.7161 0.24929 0.0
H447 H 0.91284 0.69949 0.32188 0.0
H448 H 0.90194 0.6599 0.31531 0.0
H449 H 0.9373 0.55586 0.22919 0.0
H450 H 0.90759 0.58036 0.23243 0.0
H451 H 0.92319 0.59042 0.30755 0.0
H452 H 0.95315 0.56561 0.3045 0.0
H453 H 0.91628 0.63029 0.28195 0.0
H454 H 0.88057 0.55974 0.29401 0.0
H455 H 0.87007 0.52035 0.28597 0.0
H456 H 0.84363 0.5396 0.21716 0.0
H457 H 0.85421 0.57909 0.22463 0.0
C458 C 0.82784 0.68357 0.27605 0.0
C459 C 0.81806 0.68573 0.25314 0.0
C460 C 0.84229 0.66676 0.28077 0.0
C461 C 0.84739 0.65186 0.26264 0.0
C462 C 0.83705 0.65343 0.24007 0.0
C463 C 0.82257 0.67018 0.23536 0.0
C464 C 0.86406 0.63519 0.26671 0.0
C465 C 0.85915 0.61251 0.26215 0.0
C466 C 0.88485 0.64159 0.2744 0.0
C467 C 0.89143 0.66536 0.27836 0.0
C468 C 0.88935 0.6814 0.25974 0.0
C469 C 0.89549 0.7038 0.26365 0.0
C470 C 0.90391 0.71031 0.28604 0.0
C471 C 0.90627 0.69443 0.30456 0.0
C472 C 0.90012 0.67201 0.30075 0.0
C473 C 0.93443 0.56317 0.24647 0.0
C474 C 0.94765 0.55882 0.26659 0.0
C475 C 0.91732 0.57708 0.24831 0.0
C476 C 0.91305 0.58705 0.27027 0.0
C477 C 0.92617 0.58279 0.29046 0.0
C478 C 0.94323 0.5686 0.2887 0.0
C479 C 0.89543 0.60271 0.27151 0.0
C480 C 0.90018 0.62522 0.277 0.0
C481 C 0.87452 0.59617 0.26454 0.0
C482 C 0.86831 0.57238 0.25984 0.0
C483 C 0.87268 0.55556 0.27707 0.0
C484 C 0.86667 0.53321 0.27263 0.0
C485 C 0.85619 0.52748 0.25106 0.0
C486 C 0.85173 0.54407 0.23387 0.0
C487 C 0.85771 0.56645 0.23821 0.0
H488 H 0.85149 0.51018 0.24769 0.0
H489 H 0.90867 0.72766 0.28903 0.0
H490 H 0.80368 0.34372 0.71526 0.0
H491 H 0.83202 0.37164 0.70738 0.0
H492 H 0.85507 0.36447 0.78066 0.0
H493 H 0.82728 0.33639 0.78855 0.0
H494 H 0.85346 0.4084 0.76646 0.0
H495 H 0.87864 0.33882 0.73544 0.0
H496 H 0.87661 0.30568 0.70938 0.0
H497 H 0.87508 0.34846 0.64661 0.0
H498 H 0.87681 0.38188 0.67233 0.0
H499 H 0.95766 0.44671 0.77366 0.0
H500 H 0.9259 0.42274 0.77194 0.0
H501 H 0.91641 0.43993 0.69689 0.0
H502 H 0.94864 0.46398 0.69836 0.0
H503 H 0.90795 0.39496 0.70629 0.0
H504 H 0.88744 0.46464 0.73725 0.0
H505 H 0.89013 0.49772 0.76334 0.0
H506 H 0.88256 0.45534 0.82582 0.0
H507 H 0.88015 0.42194 0.80015 0.0
C508 C 0.81483 0.34804 0.72967 0.0
C509 C 0.81311 0.33783 0.75258 0.0
C510 C 0.83098 0.36403 0.72514 0.0
C511 C 0.84569 0.37006 0.74342 0.0
C512 C 0.8438 0.36018 0.76634 0.0
C513 C 0.82778 0.34419 0.77085 0.0
C514 C 0.86336 0.38639 0.73889 0.0
C515 C 0.86541 0.40543 0.75337 0.0
C516 C 0.87857 0.38289 0.72124 0.0
C517 C 0.87759 0.36282 0.7058 0.0
C518 C 0.87769 0.34115 0.71608 0.0
C519 C 0.87663 0.32232 0.70138 0.0
C520 C 0.87564 0.32496 0.67636 0.0
C521 C 0.87579 0.34644 0.66599 0.0
C522 C 0.87682 0.36533 0.68062 0.0
C523 C 0.94894 0.44538 0.7567 0.0
C524 C 0.95559 0.45747 0.73619 0.0
C525 C 0.93071 0.43169 0.75578 0.0
C526 C 0.91854 0.42992 0.73443 0.0
C527 C 0.92551 0.44121 0.7136 0.0
C528 C 0.94391 0.45493 0.71447 0.0
C529 C 0.89836 0.41658 0.7344 0.0
C530 C 0.89581 0.39816 0.71907 0.0
C531 C 0.88259 0.42068 0.75123 0.0
C532 C 0.88373 0.44076 0.76676 0.0
C533 C 0.88647 0.46235 0.75657 0.0
C534 C 0.88794 0.48117 0.77128 0.0
C535 C 0.88655 0.47863 0.79622 0.0
C536 C 0.88363 0.45728 0.8065 0.0
C537 C 0.88219 0.4384 0.79187 0.0
H538 H 0.8877 0.49322 0.80759 0.0
H539 H 0.87483 0.31037 0.665 0.0
H540 H 0.28398 0.22167 0.33583 0.0
H541 H 0.27678 0.1852 0.35478 0.0
H542 H 0.21017 0.19174 0.33996 0.0
H543 H 0.21728 0.22831 0.32066 0.0
H544 H 0.21778 0.17792 0.38589 0.0
H545 H 0.23774 0.15543 0.30799 0.0
H546 H 0.25983 0.15483 0.27216 0.0
H547 H 0.31151 0.13049 0.31537 0.0
H548 H 0.28983 0.13124 0.35153 0.0
H549 H 0.20149 0.06585 0.43254 0.0
H550 H 0.20066 0.09832 0.40491 0.0
H551 H 0.26867 0.10389 0.40849 0.0
H552 H 0.26967 0.07149 0.43541 0.0
H553 H 0.25503 0.10975 0.36371 0.0
H554 H 0.23663 0.13738 0.44211 0.0
H555 H 0.21484 0.13858 0.4782 0.0
H556 H 0.1605 0.15352 0.43399 0.0
H557 H 0.18187 0.15209 0.39759 0.0
C558 C 0.26782 0.21523 0.33618 0.0
C559 C 0.25122 0.2279 0.32658 0.0
C560 C 0.26372 0.19436 0.34709 0.0
C561 C 0.24295 0.18561 0.34854 0.0
C562 C 0.22632 0.19817 0.33901 0.0
C563 C 0.23041 0.21908 0.32806 0.0
C564 C 0.23874 0.16368 0.36079 0.0
C565 C 0.22559 0.16288 0.38075 0.0
C566 C 0.2491 0.14413 0.35426 0.0
C567 C 0.26218 0.14353 0.33251 0.0
C568 C 0.25386 0.15009 0.30989 0.0
C569 C 0.2663 0.1497 0.28951 0.0
C570 C 0.28707 0.14266 0.29149 0.0
C571 C 0.29542 0.13594 0.31386 0.0
C572 C 0.28305 0.13632 0.3343 0.0
C573 C 0.21625 0.07392 0.42726 0.0
C574 C 0.23563 0.06609 0.43625 0.0
C575 C 0.21575 0.09252 0.41157 0.0
C576 C 0.23461 0.10369 0.4048 0.0
C577 C 0.25392 0.09556 0.41338 0.0
C578 C 0.25443 0.07701 0.42888 0.0
C579 C 0.23461 0.12417 0.38925 0.0
C580 C 0.24695 0.12468 0.36862 0.0
C581 C 0.22356 0.14347 0.39522 0.0
C582 C 0.21078 0.14436 0.41712 0.0
C583 C 0.22 0.14075 0.44007 0.0
C584 C 0.20774 0.1415 0.46058 0.0
C585 C 0.18631 0.14606 0.45838 0.0
C586 C 0.17709 0.14994 0.43566 0.0
C587 C 0.18926 0.14916 0.41509 0.0
H588 H 0.17685 0.14664 0.47428 0.0
H589 H 0.29668 0.14237 0.2757 0.0
H590 H 0.32983 0.78357 0.78986 0.0
H591 H 0.35588 0.78928 0.82262 0.0
H592 H 0.34736 0.71996 0.84442 0.0
H593 H 0.32085 0.7143 0.81221 0.0
H594 H 0.35044 0.74666 0.88295 0.0
H595 H 0.38876 0.73751 0.81005 0.0
H596 H 0.39867 0.74648 0.7683 0.0
H597 H 0.41853 0.81308 0.78912 0.0
H598 H 0.40845 0.80459 0.83096 0.0
H599 H 0.44477 0.72018 0.94384 0.0
H600 H 0.41584 0.72335 0.91446 0.0
H601 H 0.43007 0.7942 0.90638 0.0
H602 H 0.45928 0.79121 0.93605 0.0
H603 H 0.42319 0.77206 0.86238 0.0
H604 H 0.38847 0.77904 0.93682 0.0
H605 H 0.37943 0.76886 0.97854 0.0
H606 H 0.35334 0.70536 0.95489 0.0
H607 H 0.36253 0.715 0.91306 0.0
C608 C 0.33323 0.76963 0.80188 0.0
C609 C 0.32335 0.74843 0.79831 0.0
C610 C 0.34828 0.77288 0.82046 0.0
C611 C 0.3538 0.75497 0.83578 0.0
C612 C 0.34342 0.734 0.83278 0.0
C613 C 0.3284 0.73075 0.81422 0.0
C614 C 0.37085 0.75773 0.85445 0.0
C615 C 0.36637 0.75209 0.87843 0.0
C616 C 0.39153 0.76539 0.84867 0.0
C617 C 0.39761 0.77051 0.82355 0.0
C618 C 0.39507 0.75413 0.80567 0.0
C619 C 0.40075 0.75911 0.78201 0.0
C620 C 0.40916 0.78036 0.77604 0.0
C621 C 0.41196 0.79664 0.79375 0.0
C622 C 0.40628 0.79175 0.81745 0.0
C623 C 0.44184 0.73648 0.93585 0.0
C624 C 0.45435 0.75547 0.94234 0.0
C625 C 0.42519 0.73827 0.91913 0.0
C626 C 0.42065 0.75905 0.90846 0.0
C627 C 0.43328 0.77802 0.91452 0.0
C628 C 0.44991 0.77629 0.93148 0.0
C629 C 0.40284 0.76058 0.89075 0.0
C630 C 0.40718 0.76698 0.86696 0.0
C631 C 0.38206 0.75352 0.89668 0.0
C632 C 0.37634 0.7477 0.9218 0.0
C633 C 0.38095 0.76283 0.94053 0.0
C634 C 0.37577 0.75717 0.9642 0.0
C635 C 0.36585 0.73646 0.96937 0.0
C636 C 0.36104 0.72139 0.95086 0.0
C637 C 0.3662 0.72696 0.92716 0.0
H638 H 0.36186 0.7321 0.98771 0.0
H639 H 0.41356 0.78418 0.75771 0.0
H640 H 0.77959 0.84335 0.31744 0.0
H641 H 0.77342 0.86853 0.35043 0.0
H642 H 0.71497 0.83261 0.36534 0.0
H643 H 0.72132 0.80669 0.33271 0.0
H644 H 0.71182 0.88015 0.36343 0.0
H645 H 0.75393 0.82484 0.40272 0.0
H646 H 0.78418 0.80015 0.4076 0.0
H647 H 0.82679 0.85761 0.40933 0.0
H648 H 0.79682 0.88265 0.4041 0.0
H649 H 0.70361 0.94578 0.47073 0.0
H650 H 0.70332 0.91498 0.44191 0.0
H651 H 0.7676 0.93286 0.42395 0.0
H652 H 0.76817 0.96295 0.45301 0.0
H653 H 0.76406 0.88991 0.43073 0.0
H654 H 0.72354 0.94486 0.38649 0.0
H655 H 0.69414 0.97043 0.37981 0.0
H656 H 0.64954 0.91498 0.38588 0.0
H657 H 0.67869 0.88912 0.39289 0.0
C658 C 0.7656 0.84044 0.32796 0.0
C659 C 0.75106 0.8228 0.32247 0.0
C660 C 0.76203 0.85499 0.34673 0.0
C661 C 0.74381 0.85233 0.3604 0.0
C662 C 0.72912 0.83494 0.35494 0.0
C663 C 0.73276 0.8202 0.33624 0.0
C664 C 0.74026 0.86798 0.38022 0.0
C665 C 0.72298 0.88205 0.37844 0.0
C666 C 0.75504 0.87063 0.39952 0.0
C667 C 0.77312 0.85562 0.40286 0.0
C668 C 0.76976 0.83221 0.40397 0.0
C669 C 0.78686 0.81815 0.40683 0.0
C670 C 0.8074 0.8273 0.40874 0.0
C671 C 0.81087 0.85054 0.40784 0.0
C672 C 0.79383 0.86468 0.40496 0.0
C673 C 0.71759 0.94319 0.46047 0.0
C674 C 0.73593 0.95672 0.46421 0.0
C675 C 0.7174 0.92562 0.44398 0.0
C676 C 0.73544 0.9216 0.43069 0.0
C677 C 0.75355 0.93546 0.43411 0.0
C678 C 0.75383 0.95274 0.45071 0.0
C679 C 0.73598 0.90272 0.41358 0.0
C680 C 0.75269 0.88792 0.41593 0.0
C681 C 0.72079 0.89959 0.39469 0.0
C682 C 0.70327 0.91511 0.39051 0.0
C683 C 0.70746 0.93816 0.3866 0.0
C684 C 0.69084 0.95269 0.38271 0.0
C685 C 0.66998 0.94435 0.3825 0.0
C686 C 0.6657 0.92143 0.3861 0.0
C687 C 0.68226 0.90683 0.39002 0.0
H688 H 0.65714 0.95562 0.37949 0.0
H689 H 0.82061 0.81639 0.41094 0.0
H690 H 0.69887 0.28604 0.86968 0.0
H691 H 0.669 0.29323 0.89505 0.0
H692 H 0.62675 0.28823 0.83315 0.0
H693 H 0.65673 0.28131 0.80756 0.0
H694 H 0.61483 0.32075 0.86284 0.0
H695 H 0.63314 0.24356 0.87039 0.0
H696 H 0.65692 0.21223 0.87793 0.0
H697 H 0.66991 0.23535 0.94976 0.0
H698 H 0.64644 0.26702 0.94251 0.0
H699 H 0.53663 0.26248 0.95295 0.0
H700 H 0.56458 0.26237 0.92379 0.0
H701 H 0.57993 0.33192 0.9384 0.0
H702 H 0.55145 0.33229 0.96745 0.0
H703 H 0.60487 0.26749 0.93132 0.0
H704 H 0.60271 0.35617 0.8879 0.0
H705 H 0.57689 0.38507 0.87775 0.0
H706 H 0.52727 0.3344 0.87337 0.0
H707 H 0.55282 0.30519 0.88318 0.0
C708 C 0.68322 0.28659 0.86146 0.0
C709 C 0.68008 0.2828 0.8367 0.0
C710 C 0.66618 0.29075 0.87595 0.0
C711 C 0.64559 0.29088 0.86608 0.0
C712 C 0.6425 0.28818 0.84116 0.0
C713 C 0.65962 0.2842 0.82657 0.0
C714 C 0.62724 0.29227 0.88202 0.0
C715 C 0.61265 0.30916 0.87786 0.0
C716 C 0.62418 0.2769 0.90136 0.0
C717 C 0.6382 0.25778 0.90582 0.0
C718 C 0.64118 0.24205 0.88773 0.0
C719 C 0.65459 0.22422 0.89196 0.0
C720 C 0.66496 0.22183 0.91428 0.0
C721 C 0.6619 0.23724 0.93246 0.0
C722 C 0.64854 0.25513 0.9283 0.0
C723 C 0.54581 0.27785 0.94989 0.0
C724 C 0.54187 0.29738 0.96264 0.0
C725 C 0.56184 0.27773 0.93319 0.0
C726 C 0.5744 0.29711 0.92886 0.0
C727 C 0.57029 0.31682 0.94121 0.0
C728 C 0.55406 0.317 0.95787 0.0
C729 C 0.59239 0.29606 0.91231 0.0
C730 C 0.60702 0.27921 0.9164 0.0
C731 C 0.59513 0.31114 0.89263 0.0
C732 C 0.57965 0.32854 0.88655 0.0
C733 C 0.5863 0.3512 0.88471 0.0
C734 C 0.57171 0.36763 0.87902 0.0
C735 C 0.55045 0.36159 0.87501 0.0
C736 C 0.54373 0.33908 0.87659 0.0
C737 C 0.55826 0.32258 0.88225 0.0
H738 H 0.53918 0.37433 0.87061 0.0
H739 H 0.67533 0.20802 0.91752 0.0
H740 H 0.27157 0.84035 0.66808 0.0
H741 H 0.26214 0.87353 0.64452 0.0
H742 H 0.20067 0.84342 0.62848 0.0
H743 H 0.21025 0.80982 0.65158 0.0
H744 H 0.21857 0.86017 0.58852 0.0
H745 H 0.20547 0.88757 0.66628 0.0
H746 H 0.21264 0.89534 0.70921 0.0
H747 H 0.26644 0.93714 0.6908 0.0
H748 H 0.25979 0.92937 0.64777 0.0
H749 H 0.19645 0.96296 0.52498 0.0
H750 H 0.19239 0.9326 0.55505 0.0
H751 H 0.25636 0.94559 0.58061 0.0
H752 H 0.26053 0.97567 0.55091 0.0
H753 H 0.22918 0.93798 0.61776 0.0
H754 H 0.24569 0.9046 0.54149 0.0
H755 H 0.23928 0.8964 0.4985 0.0
H756 H 0.17898 0.86567 0.51465 0.0
H757 H 0.18494 0.87397 0.55773 0.0
C758 C 0.25602 0.8408 0.6596 0.0
C759 C 0.24169 0.82243 0.66164 0.0
C760 C 0.25056 0.85988 0.64634 0.0
C761 C 0.2306 0.86107 0.63494 0.0
C762 C 0.21611 0.84291 0.63723 0.0
C763 C 0.22155 0.8238 0.65057 0.0
C764 C 0.22555 0.88075 0.61945 0.0
C765 C 0.22037 0.87718 0.59506 0.0
C766 C 0.22814 0.90296 0.62789 0.0
C767 C 0.23219 0.90777 0.65377 0.0
C768 C 0.21892 0.8983 0.67138 0.0
C769 C 0.22288 0.90272 0.69574 0.0
C770 C 0.24 0.9167 0.70273 0.0
C771 C 0.25318 0.92631 0.68536 0.0
C772 C 0.2493 0.92193 0.66098 0.0
C773 C 0.20954 0.95946 0.53719 0.0
C774 C 0.22886 0.97158 0.53544 0.0
C775 C 0.20721 0.94211 0.5543 0.0
C776 C 0.22413 0.93678 0.56996 0.0
C777 C 0.2431 0.94944 0.56876 0.0
C778 C 0.24549 0.96655 0.55163 0.0
C779 C 0.22282 0.91733 0.58682 0.0
C780 C 0.22685 0.92095 0.61142 0.0
C781 C 0.21919 0.89518 0.57859 0.0
C782 C 0.21563 0.89017 0.55274 0.0
C783 C 0.23098 0.89627 0.53583 0.0
C784 C 0.22745 0.89158 0.51147 0.0
C785 C 0.2087 0.88059 0.50384 0.0
C786 C 0.19347 0.87423 0.52058 0.0
C787 C 0.19692 0.87892 0.54496 0.0
H788 H 0.206 0.87696 0.48497 0.0
H789 H 0.24304 0.9201 0.7216 0.0
H790 H 0.6978 0.73735 0.14646 0.0
H791 H 0.66586 0.73723 0.12056 0.0
H792 H 0.6402 0.78854 0.16395 0.0
H793 H 0.67204 0.78873 0.18986 0.0
H794 H 0.6108 0.75406 0.15229 0.0
H795 H 0.66126 0.80348 0.11319 0.0
H796 H 0.69544 0.81386 0.09524 0.0
H797 H 0.68572 0.76205 0.04292 0.0
H798 H 0.65163 0.75111 0.06081 0.0
H799 H 0.54942 0.79312 0.03584 0.0
H800 H 0.57902 0.79663 0.06503 0.0
H801 H 0.57071 0.72667 0.08425 0.0
H802 H 0.54128 0.72301 0.05535 0.0
H803 H 0.61644 0.77379 0.06558 0.0
H804 H 0.583 0.72045 0.14429 0.0
H805 H 0.54859 0.71053 0.16201 0.0
H806 H 0.52369 0.77231 0.13512 0.0
H807 H 0.55803 0.78276 0.11754 0.0
C808 C 0.68524 0.74842 0.15059 0.0
C809 C 0.68742 0.76313 0.17008 0.0
C810 C 0.66709 0.74844 0.13573 0.0
C811 C 0.65077 0.76302 0.14025 0.0
C812 C 0.65264 0.77721 0.16013 0.0
C813 C 0.67086 0.77739 0.17481 0.0
C814 C 0.63191 0.76385 0.12397 0.0
C815 C 0.61201 0.75837 0.13334 0.0
C816 C 0.6335 0.76974 0.09931 0.0
C817 C 0.654 0.77631 0.08852 0.0
C818 C 0.6665 0.79416 0.098 0.0
C819 C 0.68585 0.80017 0.08781 0.0
C820 C 0.69278 0.78858 0.068 0.0
C821 C 0.68035 0.77098 0.0583 0.0
C822 C 0.66102 0.76487 0.06846 0.0
C823 C 0.55377 0.77857 0.04647 0.0
C824 C 0.543 0.7578 0.04327 0.0
C825 C 0.57073 0.78057 0.06304 0.0
C826 C 0.57696 0.76193 0.07688 0.0
C827 C 0.56602 0.74131 0.07395 0.0
C828 C 0.54923 0.73925 0.05733 0.0
C829 C 0.59537 0.76369 0.09381 0.0
C830 C 0.6152 0.76957 0.08456 0.0
C831 C 0.5937 0.7582 0.11857 0.0
C832 C 0.57307 0.75229 0.12945 0.0
C833 C 0.57022 0.73197 0.14227 0.0
C834 C 0.55072 0.72625 0.15227 0.0
C835 C 0.53397 0.74076 0.14966 0.0
C836 C 0.53668 0.76105 0.13707 0.0
C837 C 0.55615 0.76687 0.12706 0.0
H838 H 0.5189 0.73631 0.15745 0.0
H839 H 0.70775 0.79327 0.06013 0.0
H840 H 0.70964 0.20412 0.68289 0.0
H841 H 0.70384 0.17525 0.65226 0.0
H842 H 0.75756 0.14022 0.68061 0.0
H843 H 0.76293 0.16819 0.71183 0.0
H844 H 0.75734 0.14956 0.62936 0.0
H845 H 0.71201 0.11927 0.69225 0.0
H846 H 0.68243 0.12094 0.72002 0.0
H847 H 0.63933 0.13058 0.6602 0.0
H848 H 0.66875 0.12928 0.63208 0.0
H849 H 0.76086 0.04452 0.58017 0.0
H850 H 0.75762 0.07508 0.60817 0.0
H851 H 0.69655 0.08967 0.57693 0.0
H852 H 0.69945 0.05833 0.54907 0.0
H853 H 0.69668 0.09485 0.62494 0.0
H854 H 0.73979 0.12153 0.56155 0.0
H855 H 0.76846 0.12091 0.53246 0.0
H856 H 0.81443 0.12074 0.59054 0.0
H857 H 0.78602 0.12101 0.62 0.0
C858 C 0.72002 0.19009 0.68289 0.0
C859 C 0.73692 0.18869 0.69976 0.0
C860 C 0.71672 0.17368 0.66528 0.0
C861 C 0.73035 0.15571 0.66415 0.0
C862 C 0.74699 0.15409 0.68109 0.0
C863 C 0.75012 0.17024 0.69882 0.0
C864 C 0.72792 0.13881 0.64495 0.0
C865 C 0.74414 0.13751 0.62843 0.0
C866 C 0.71026 0.12376 0.64319 0.0
C867 C 0.69261 0.12447 0.66009 0.0
C868 C 0.69626 0.12198 0.68503 0.0
C869 C 0.67952 0.1228 0.70084 0.0
C870 C 0.65902 0.12594 0.69189 0.0
C871 C 0.65522 0.12819 0.66711 0.0
C872 C 0.67192 0.12741 0.65124 0.0
C873 C 0.74666 0.05411 0.5793 0.0
C874 C 0.73052 0.04921 0.56221 0.0
C875 C 0.74486 0.07165 0.59529 0.0
C876 C 0.7271 0.08507 0.59424 0.0
C877 C 0.71048 0.07965 0.57792 0.0
C878 C 0.71214 0.06177 0.56203 0.0
C879 C 0.72653 0.10505 0.60983 0.0
C880 C 0.70974 0.10706 0.62557 0.0
C881 C 0.74354 0.12107 0.61065 0.0
C882 C 0.76074 0.12116 0.593 0.0
C883 C 0.75601 0.12123 0.56813 0.0
C884 C 0.77222 0.12095 0.55157 0.0
C885 C 0.79325 0.12075 0.55965 0.0
C886 C 0.79813 0.12089 0.58431 0.0
C887 C 0.78197 0.12114 0.60095 0.0
H888 H 0.80578 0.12053 0.5468 0.0
H889 H 0.64608 0.12656 0.70415 0.0
H890 H 0.33361 0.35927 0.19759 0.0
H891 H 0.3603 0.35763 0.16663 0.0
H892 H 0.3565 0.28537 0.17021 0.0
H893 H 0.33007 0.28688 0.20139 0.0
H894 H 0.39724 0.30186 0.17265 0.0
H895 H 0.3351 0.31282 0.12297 0.0
H896 H 0.303 0.33193 0.10925 0.0
H897 H 0.33999 0.39176 0.09373 0.0
H898 H 0.3723 0.37309 0.10768 0.0
H899 H 0.45039 0.27111 0.06986 0.0
H900 H 0.42384 0.27757 0.09958 0.0
H901 H 0.43257 0.34902 0.08921 0.0
H902 H 0.45925 0.34268 0.059 0.0
H903 H 0.39059 0.33604 0.09099 0.0
H904 H 0.45294 0.32478 0.13877 0.0
H905 H 0.48516 0.30579 0.15225 0.0
H906 H 0.44807 0.24707 0.17168 0.0
H907 H 0.41562 0.2656 0.15798 0.0
C908 C 0.33843 0.34303 0.19172 0.0
C909 C 0.32972 0.3232 0.20195 0.0
C910 C 0.35358 0.34213 0.17392 0.0
C911 C 0.36034 0.32137 0.16605 0.0
C912 C 0.35149 0.30156 0.17601 0.0
C913 C 0.33626 0.30245 0.19368 0.0
C914 C 0.37722 0.32023 0.14811 0.0
C915 C 0.39568 0.30912 0.1547 0.0
C916 C 0.37549 0.33037 0.12499 0.0
C917 C 0.35608 0.34164 0.11663 0.0
C918 C 0.33637 0.33012 0.11685 0.0
C919 C 0.31814 0.34085 0.10898 0.0
C920 C 0.31944 0.36307 0.1007 0.0
C921 C 0.339 0.37457 0.1002 0.0
C922 C 0.35727 0.36391 0.10806 0.0
C923 C 0.44677 0.28825 0.07385 0.0
C924 C 0.45707 0.3064 0.06209 0.0
C925 C 0.43159 0.2919 0.09095 0.0
C926 C 0.4264 0.31377 0.09686 0.0
C927 C 0.4364 0.33199 0.08497 0.0
C928 C 0.45169 0.32835 0.0678 0.0
C929 C 0.41044 0.31733 0.11542 0.0
C930 C 0.3922 0.32893 0.109 0.0
C931 C 0.41238 0.30771 0.13877 0.0
C932 C 0.43185 0.29653 0.14716 0.0
C933 C 0.45166 0.30776 0.14575 0.0
C934 C 0.46997 0.29708 0.15345 0.0
C935 C 0.46867 0.27522 0.16277 0.0
C936 C 0.44905 0.264 0.16445 0.0
C937 C 0.43069 0.27459 0.15674 0.0
H938 H 0.48286 0.26698 0.16872 0.0
H939 H 0.30531 0.37135 0.0946 0.0
H940 H 0.85152 0.68786 0.7571 0.0
H941 H 0.87654 0.65753 0.75708 0.0
H942 H 0.85532 0.63494 0.82671 0.0
H943 H 0.83027 0.66538 0.8269 0.0
H944 H 0.89946 0.63785 0.82357 0.0
H945 H 0.84024 0.60543 0.77989 0.0
H946 H 0.81195 0.60403 0.74863 0.0
H947 H 0.85814 0.60931 0.6935 0.0
H948 H 0.88671 0.61108 0.72446 0.0
H949 H 0.95852 0.53728 0.81826 0.0
H950 H 0.93082 0.56439 0.82348 0.0
H951 H 0.93846 0.58769 0.75024 0.0
H952 H 0.96549 0.56035 0.74474 0.0
H953 H 0.89864 0.58204 0.75828 0.0
H954 H 0.95755 0.61787 0.80087 0.0
H955 H 0.98637 0.62062 0.83144 0.0
H956 H 0.94172 0.61023 0.88764 0.0
H957 H 0.91265 0.60714 0.85737 0.0
C958 C 0.85219 0.67644 0.77241 0.0
C959 C 0.83892 0.67896 0.79198 0.0
C960 C 0.8664 0.65906 0.77232 0.0
C961 C 0.86769 0.64392 0.79184 0.0
C962 C 0.85453 0.64642 0.81146 0.0
C963 C 0.84014 0.66369 0.81146 0.0
C964 C 0.88303 0.62569 0.79174 0.0
C965 C 0.89912 0.62538 0.80954 0.0
C966 C 0.88275 0.60972 0.77319 0.0
C967 C 0.86561 0.60857 0.75451 0.0
C968 C 0.84436 0.60648 0.76111 0.0
C969 C 0.82828 0.60558 0.74344 0.0
C970 C 0.83325 0.60663 0.7191 0.0
C971 C 0.85432 0.60852 0.71237 0.0
C972 C 0.87046 0.60944 0.72997 0.0
C973 C 0.95438 0.54833 0.80337 0.0
C974 C 0.96417 0.54664 0.78109 0.0
C975 C 0.93857 0.56385 0.80637 0.0
C976 C 0.93258 0.57821 0.78727 0.0
C977 C 0.94266 0.57673 0.7652 0.0
C978 C 0.9582 0.56111 0.76211 0.0
C979 C 0.91551 0.59447 0.78978 0.0
C980 C 0.89898 0.59437 0.77245 0.0
C981 C 0.91552 0.61017 0.80865 0.0
C982 C 0.93297 0.61201 0.82685 0.0
C983 C 0.9539 0.61599 0.81974 0.0
C984 C 0.97028 0.61764 0.83701 0.0
C985 C 0.96589 0.61553 0.86146 0.0
C986 C 0.9451 0.61181 0.86869 0.0
C987 C 0.92867 0.61012 0.85149 0.0
H988 H 0.97858 0.61682 0.87481 0.0
H989 H 0.82077 0.60593 0.70544 0.0
H990 H 0.82683 0.33131 0.18537 0.0
H991 H 0.85041 0.36471 0.18374 0.0
H992 H 0.87641 0.34777 0.25385 0.0
H993 H 0.85291 0.31434 0.25556 0.0
H994 H 0.86665 0.39368 0.24787 0.0
H995 H 0.90322 0.33603 0.2066 0.0
H996 H 0.90652 0.30732 0.17559 0.0
H997 H 0.89721 0.35703 0.12003 0.0
H998 H 0.89355 0.38599 0.15075 0.0
H999 H 0.96059 0.45646 0.25945 0.0
H1000 H 0.93458 0.42575 0.25561 0.0
H1001 H 0.92169 0.44517 0.18177 0.0
H1002 H 0.94836 0.47589 0.18531 0.0
H1003 H 0.92195 0.40042 0.18633 0.0
H1004 H 0.88891 0.4589 0.22605 0.0
H1005 H 0.8856 0.48844 0.25603 0.0
H1006 H 0.88598 0.439 0.31291 0.0
H1007 H 0.89001 0.40915 0.28331 0.0
C1008 C 0.83743 0.33485 0.20053 0.0
C1009 C 0.83806 0.32021 0.22059 0.0
C1010 C 0.85096 0.35384 0.1995 0.0
C1011 C 0.86523 0.35862 0.21861 0.0
C1012 C 0.86553 0.34435 0.2389 0.0
C1013 C 0.8522 0.32522 0.23981 0.0
C1014 C 0.88016 0.37828 0.21737 0.0
C1015 C 0.87886 0.3951 0.23456 0.0
C1016 C 0.89556 0.38049 0.19942 0.0
C1017 C 0.89787 0.36311 0.18097 0.0
C1018 C 0.90169 0.3408 0.18777 0.0
C1019 C 0.90366 0.32449 0.17025 0.0
C1020 C 0.90201 0.33033 0.14586 0.0
C1021 C 0.89845 0.35252 0.13893 0.0
C1022 C 0.89644 0.36889 0.15639 0.0
C1023 C 0.95231 0.45423 0.24232 0.0
C1024 C 0.95639 0.4688 0.22274 0.0
C1025 C 0.93736 0.43666 0.24019 0.0
C1026 C 0.92579 0.43344 0.21858 0.0
C1027 C 0.93032 0.44744 0.19867 0.0
C1028 C 0.94553 0.46498 0.20072 0.0
C1029 C 0.90881 0.41564 0.21723 0.0
C1030 C 0.90964 0.39919 0.19952 0.0
C1031 C 0.89276 0.41393 0.23453 0.0
C1032 C 0.88992 0.43177 0.25243 0.0
C1033 C 0.88843 0.45431 0.24496 0.0
C1034 C 0.88641 0.47113 0.26189 0.0
C1035 C 0.88552 0.46561 0.28636 0.0
C1036 C 0.88666 0.44325 0.29395 0.0
C1037 C 0.88885 0.42637 0.27709 0.0
H1038 H 0.88393 0.47866 0.29945 0.0
H1039 H 0.90355 0.31768 0.13231 0.0
H1040 H 0.19311 0.34227 0.79288 0.0
H1041 H 0.16288 0.36561 0.79927 0.0
H1042 H 0.14424 0.35925 0.72444 0.0
H1043 H 0.17491 0.33687 0.71764 0.0
H1044 H 0.14366 0.40138 0.7371 0.0
H1045 H 0.11729 0.33145 0.77091 0.0
H1046 H 0.11798 0.29832 0.79793 0.0
H1047 H 0.11954 0.34103 0.85949 0.0
H1048 H 0.11914 0.37445 0.83282 0.0
H1049 H 0.04256 0.44369 0.73498 0.0
H1050 H 0.07134 0.41774 0.73468 0.0
H1051 H 0.08637 0.43221 0.80908 0.0
H1052 H 0.05708 0.4581 0.80968 0.0
H1053 H 0.08996 0.38751 0.79944 0.0
H1054 H 0.11443 0.45748 0.76501 0.0
H1055 H 0.11286 0.49023 0.7375 0.0
H1056 H 0.11481 0.44705 0.67661 0.0
H1057 H 0.11595 0.41397 0.70368 0.0
C1058 C 0.18259 0.34584 0.77776 0.0
C1059 C 0.18654 0.33767 0.75471 0.0
C1060 C 0.16516 0.35901 0.78152 0.0
C1061 C 0.15116 0.3641 0.76238 0.0
C1062 C 0.15479 0.35555 0.7395 0.0
C1063 C 0.17225 0.34251 0.7357 0.0
C1064 C 0.13332 0.37924 0.76573 0.0
C1065 C 0.13178 0.39815 0.75055 0.0
C1066 C 0.1182 0.37552 0.78382 0.0
C1067 C 0.11841 0.35545 0.79987 0.0
C1068 C 0.11795 0.33379 0.79021 0.0
C1069 C 0.11826 0.31495 0.80546 0.0
C1070 C 0.11886 0.31757 0.83041 0.0
C1071 C 0.11911 0.33903 0.84016 0.0
C1072 C 0.11882 0.35792 0.82499 0.0
C1073 C 0.05185 0.44129 0.75138 0.0
C1074 C 0.04766 0.45317 0.7723 0.0
C1075 C 0.06836 0.42646 0.75115 0.0
C1076 C 0.0813 0.42339 0.77169 0.0
C1077 C 0.07665 0.43444 0.79297 0.0
C1078 C 0.05994 0.44923 0.79328 0.0
C1079 C 0.1001 0.40927 0.77043 0.0
C1080 C 0.1019 0.39071 0.78607 0.0
C1081 C 0.1155 0.41327 0.75271 0.0
C1082 C 0.11512 0.43321 0.7364 0.0
C1083 C 0.11439 0.45494 0.74576 0.0
C1084 C 0.11359 0.47357 0.73025 0.0
C1085 C 0.11372 0.47072 0.70535 0.0
C1086 C 0.1147 0.44923 0.6959 0.0
C1087 C 0.11543 0.43053 0.71132 0.0
H1088 H 0.1131 0.48517 0.69339 0.0
H1089 H 0.1191 0.30297 0.84219 0.0
H1090 H 0.17595 0.68454 0.28176 0.0
H1091 H 0.14339 0.66255 0.27436 0.0
H1092 H 0.1573 0.6594 0.19897 0.0
H1093 H 0.1897 0.68217 0.20608 0.0
H1094 H 0.11498 0.66479 0.20577 0.0
H1095 H 0.16837 0.61605 0.23486 0.0
H1096 H 0.19679 0.6031 0.26222 0.0
H1097 H 0.15361 0.59852 0.32047 0.0
H1098 H 0.12499 0.61181 0.29355 0.0
H1099 H 0.04295 0.56827 0.18933 0.0
H1100 H 0.07324 0.59506 0.18899 0.0
H1101 H 0.06762 0.60439 0.26533 0.0
H1102 H 0.03773 0.5778 0.26588 0.0
H1103 H 0.10716 0.59457 0.25408 0.0
H1104 H 0.05402 0.64502 0.22467 0.0
H1105 H 0.02585 0.65761 0.19675 0.0
H1106 H 0.06874 0.65784 0.1382 0.0
H1107 H 0.09711 0.64495 0.16574 0.0
C1108 C 0.17192 0.67965 0.26348 0.0
C1109 C 0.18555 0.68507 0.24453 0.0
C1110 C 0.15336 0.66686 0.25932 0.0
C1111 C 0.14809 0.659 0.23618 0.0
C1112 C 0.16112 0.66517 0.217 0.0
C1113 C 0.17972 0.67803 0.22114 0.0
C1114 C 0.12956 0.64338 0.23245 0.0
C1115 C 0.11337 0.64927 0.21608 0.0
C1116 C 0.12741 0.62318 0.24597 0.0
C1117 C 0.14458 0.61513 0.26223 0.0
C1118 C 0.16497 0.61246 0.25355 0.0
C1119 C 0.18111 0.60503 0.26898 0.0
C1120 C 0.17702 0.60004 0.29308 0.0
C1121 C 0.15676 0.60242 0.3018 0.0
C1122 C 0.14057 0.60989 0.28646 0.0
C1123 C 0.04799 0.57631 0.20595 0.0
C1124 C 0.038 0.57075 0.22765 0.0
C1125 C 0.06529 0.59162 0.20572 0.0
C1126 C 0.07275 0.60168 0.22717 0.0
C1127 C 0.06226 0.59674 0.2486 0.0
C1128 C 0.0451 0.58152 0.24885 0.0
C1129 C 0.09223 0.61626 0.22796 0.0
C1130 C 0.10874 0.61005 0.24369 0.0
C1131 C 0.09465 0.63603 0.21376 0.0
C1132 C 0.07761 0.64377 0.19721 0.0
C1133 C 0.05739 0.64756 0.2058 0.0
C1134 C 0.0414 0.65479 0.19005 0.0
C1135 C 0.04548 0.65845 0.1657 0.0
C1136 C 0.06558 0.65495 0.15706 0.0
C1137 C 0.08163 0.6477 0.17273 0.0
H1138 H 0.03308 0.66406 0.15354 0.0
H1139 H 0.18954 0.59428 0.30499 0.0
H1140 H 0.80553 0.81413 0.70071 0.0
H1141 H 0.80584 0.8422 0.66814 0.0
H1142 H 0.73981 0.85308 0.67838 0.0
H1143 H 0.73931 0.82479 0.71075 0.0
H1144 H 0.74978 0.85115 0.63018 0.0
H1145 H 0.776 0.88877 0.70182 0.0
H1146 H 0.79976 0.89405 0.73724 0.0
H1147 H 0.85317 0.89953 0.69132 0.0
H1148 H 0.82973 0.89396 0.65562 0.0
H1149 H 0.73547 0.95532 0.57313 0.0
H1150 H 0.73808 0.92475 0.60245 0.0
H1151 H 0.80524 0.92341 0.59231 0.0
H1152 H 0.80282 0.95456 0.56319 0.0
H1153 H 0.79683 0.9189 0.63869 0.0
H1154 H 0.77115 0.88362 0.56685 0.0
H1155 H 0.74795 0.87806 0.53101 0.0
H1156 H 0.69452 0.86732 0.57618 0.0
H1157 H 0.71735 0.87314 0.6123 0.0
C1158 C 0.79099 0.82225 0.69578 0.0
C1159 C 0.7724 0.81728 0.70837 0.0
C1160 C 0.79124 0.83842 0.6773 0.0
C1161 C 0.7729 0.84991 0.67102 0.0
C1162 C 0.75415 0.84447 0.68299 0.0
C1163 C 0.75392 0.8284 0.70158 0.0
C1164 C 0.77336 0.86809 0.65246 0.0
C1165 C 0.75991 0.86607 0.63213 0.0
C1166 C 0.78706 0.88723 0.65466 0.0
C1167 C 0.80114 0.8907 0.67608 0.0
C1168 C 0.79283 0.89092 0.69929 0.0
C1169 C 0.80624 0.89399 0.71941 0.0
C1170 C 0.82797 0.89706 0.71654 0.0
C1171 C 0.83634 0.89711 0.69352 0.0
C1172 C 0.823 0.89401 0.67334 0.0
C1173 C 0.75084 0.94859 0.57711 0.0
C1174 C 0.76894 0.95732 0.56567 0.0
C1175 C 0.75229 0.93099 0.59382 0.0
C1176 C 0.77179 0.92142 0.59925 0.0
C1177 C 0.78999 0.93042 0.58831 0.0
C1178 C 0.78859 0.94822 0.57166 0.0
C1179 C 0.77302 0.90215 0.61647 0.0
C1180 C 0.7868 0.90393 0.63658 0.0
C1181 C 0.75973 0.88269 0.61396 0.0
C1182 C 0.74595 0.879 0.59228 0.0
C1183 C 0.75443 0.88022 0.56914 0.0
C1184 C 0.74135 0.87701 0.54877 0.0
C1185 C 0.71977 0.87239 0.55131 0.0
C1186 C 0.71124 0.87092 0.57424 0.0
C1187 C 0.72425 0.87415 0.59467 0.0
H1188 H 0.70967 0.86991 0.53552 0.0
H1189 H 0.83833 0.89944 0.73214 0.0
H1190 H 0.70056 0.27719 0.15933 0.0
H1191 H 0.66584 0.27896 0.13906 0.0
H1192 H 0.6523 0.20991 0.15881 0.0
H1193 H 0.68695 0.20812 0.17936 0.0
H1194 H 0.64424 0.22119 0.1088 0.0
H1195 H 0.62811 0.24639 0.18766 0.0
H1196 H 0.63302 0.26971 0.22375 0.0
H1197 H 0.62299 0.32905 0.18091 0.0
H1198 H 0.61834 0.30609 0.14448 0.0
H1199 H 0.53786 0.22375 0.0646 0.0
H1200 H 0.56878 0.21801 0.09103 0.0
H1201 H 0.58377 0.28906 0.08864 0.0
H1202 H 0.5528 0.29498 0.06286 0.0
H1203 H 0.58993 0.27399 0.1325 0.0
H1204 H 0.60951 0.25125 0.05386 0.0
H1205 H 0.60631 0.22979 0.0163 0.0
H1206 H 0.61165 0.1682 0.05658 0.0
H1207 H 0.61462 0.18931 0.09445 0.0
C1208 C 0.69013 0.26243 0.1594 0.0
C1209 C 0.6964 0.24253 0.17093 0.0
C1210 C 0.67031 0.26348 0.14792 0.0
C1211 C 0.65651 0.24458 0.14753 0.0
C1212 C 0.66273 0.22467 0.15896 0.0
C1213 C 0.68243 0.22371 0.17079 0.0
C1214 C 0.63578 0.24559 0.13468 0.0
C1215 C 0.63216 0.23241 0.1142 0.0
C1216 C 0.62034 0.26068 0.14142 0.0
C1217 C 0.62306 0.27452 0.16331 0.0
C1218 C 0.62714 0.26442 0.1859 0.0
C1219 C 0.62984 0.27758 0.20642 0.0
C1220 C 0.62837 0.30085 0.20461 0.0
C1221 C 0.62415 0.31102 0.18228 0.0
C1222 C 0.62145 0.29794 0.16169 0.0
C1223 C 0.54767 0.23816 0.06985 0.0
C1224 C 0.54288 0.25981 0.06151 0.0
C1225 C 0.5654 0.23484 0.08488 0.0
C1226 C 0.5788 0.25308 0.0916 0.0
C1227 C 0.57371 0.27473 0.08375 0.0
C1228 C 0.55598 0.27806 0.0689 0.0
C1229 C 0.59839 0.24976 0.10634 0.0
C1230 C 0.60185 0.26255 0.12719 0.0
C1231 C 0.61385 0.23457 0.09971 0.0
C1232 C 0.61202 0.22183 0.077 0.0
C1233 C 0.60982 0.23312 0.05472 0.0
C1234 C 0.60808 0.22102 0.03338 0.0
C1235 C 0.6087 0.19764 0.03406 0.0
C1236 C 0.61112 0.18631 0.05609 0.0
C1237 C 0.61285 0.19833 0.0775 0.0
H1238 H 0.60737 0.1883 0.01751 0.0
H1239 H 0.63046 0.31101 0.22053 0.0
H1240 H 0.23731 0.19888 0.67406 0.0
H1241 H 0.23909 0.1661 0.64833 0.0
H1242 H 0.29931 0.19065 0.62259 0.0
H1243 H 0.29755 0.22348 0.64812 0.0
H1244 H 0.27548 0.17647 0.58617 0.0
H1245 H 0.29531 0.14658 0.66332 0.0
H1246 H 0.29198 0.13842 0.70669 0.0
H1247 H 0.23407 0.10097 0.69267 0.0
H1248 H 0.23689 0.10918 0.64921 0.0
H1249 H 0.30047 0.07396 0.52967 0.0
H1250 H 0.30229 0.1049 0.55837 0.0
H1251 H 0.23788 0.08988 0.57768 0.0
H1252 H 0.23582 0.05924 0.54894 0.0
H1253 H 0.26574 0.09868 0.6177 0.0
H1254 H 0.24627 0.13007 0.54006 0.0
H1255 H 0.25099 0.13765 0.49678 0.0
H1256 H 0.31014 0.1722 0.51229 0.0
H1257 H 0.30604 0.16436 0.55567 0.0
C1258 C 0.25101 0.19719 0.66307 0.0
C1259 C 0.26726 0.21381 0.66312 0.0
C1260 C 0.25203 0.17843 0.64838 0.0
C1261 C 0.26945 0.17576 0.63367 0.0
C1262 C 0.28569 0.19235 0.6337 0.0
C1263 C 0.28462 0.21114 0.64828 0.0
C1264 C 0.2706 0.15592 0.6179 0.0
C1265 C 0.27368 0.15947 0.59318 0.0
C1266 C 0.26796 0.13369 0.6269 0.0
C1267 C 0.26621 0.12868 0.65302 0.0
C1268 C 0.28177 0.13675 0.66949 0.0
C1269 C 0.27999 0.13209 0.69409 0.0
C1270 C 0.2628 0.11923 0.70243 0.0
C1271 C 0.24737 0.11095 0.68618 0.0
C1272 C 0.24906 0.11559 0.66156 0.0
C1273 C 0.28678 0.07713 0.54021 0.0
C1274 C 0.26797 0.06426 0.53695 0.0
C1275 C 0.28782 0.09483 0.55652 0.0
C1276 C 0.27017 0.09972 0.57003 0.0
C1277 C 0.25166 0.08637 0.56744 0.0
C1278 C 0.2505 0.06894 0.55092 0.0
C1279 C 0.27056 0.11933 0.58612 0.0
C1280 C 0.2677 0.11572 0.61084 0.0
C1281 C 0.27359 0.14149 0.57716 0.0
C1282 C 0.27597 0.14638 0.5511 0.0
C1283 C 0.26039 0.13909 0.53424 0.0
C1284 C 0.26293 0.14347 0.50969 0.0
C1285 C 0.28086 0.15537 0.50178 0.0
C1286 C 0.29628 0.16295 0.51843 0.0
C1287 C 0.29386 0.15853 0.543 0.0
H1288 H 0.28278 0.15876 0.48277 0.0
H1289 H 0.26145 0.11563 0.72149 0.0
H1290 H 0.33137 0.75423 0.17952 0.0
H1291 H 0.35602 0.75125 0.14671 0.0
H1292 H 0.36949 0.68379 0.16974 0.0
H1293 H 0.34475 0.68656 0.2025 0.0
H1294 H 0.4053 0.70741 0.15931 0.0
H1295 H 0.33783 0.693 0.12079 0.0
H1296 H 0.30084 0.70045 0.10956 0.0
H1297 H 0.32048 0.76194 0.07441 0.0
H1298 H 0.35759 0.75503 0.08573 0.0
H1299 H 0.46006 0.6832 0.0518 0.0
H1300 H 0.43379 0.68101 0.08355 0.0
H1301 H 0.41816 0.74971 0.06874 0.0
H1302 H 0.44422 0.75207 0.03726 0.0
H1303 H 0.38287 0.72232 0.07456 0.0
H1304 H 0.44949 0.73835 0.11504 0.0
H1305 H 0.48666 0.73176 0.12618 0.0
H1306 H 0.46871 0.668 0.15764 0.0
H1307 H 0.43143 0.67406 0.14629 0.0
C1308 C 0.33942 0.73868 0.17749 0.0
C1309 C 0.33602 0.72062 0.19363 0.0
C1310 C 0.35355 0.73701 0.15874 0.0
C1311 C 0.36444 0.7172 0.15561 0.0
C1312 C 0.36128 0.69924 0.17183 0.0
C1313 C 0.34718 0.7009 0.1906 0.0
C1314 C 0.37919 0.71528 0.13544 0.0
C1315 C 0.4003 0.71028 0.14074 0.0
C1316 C 0.37278 0.71943 0.11124 0.0
C1317 C 0.35048 0.72358 0.10429 0.0
C1318 C 0.33425 0.7082 0.11082 0.0
C1319 C 0.31326 0.71231 0.10441 0.0
C1320 C 0.30831 0.73168 0.09132 0.0
C1321 C 0.32434 0.74695 0.08457 0.0
C1322 C 0.34536 0.74294 0.09095 0.0
C1323 C 0.4509 0.69776 0.05523 0.0
C1324 C 0.45431 0.71784 0.04211 0.0
C1325 C 0.43598 0.69652 0.0734 0.0
C1326 C 0.42414 0.71526 0.07858 0.0
C1327 C 0.42711 0.73506 0.06504 0.0
C1328 C 0.44211 0.73639 0.04712 0.0
C1329 C 0.40896 0.71465 0.09847 0.0
C1330 C 0.38778 0.7192 0.09312 0.0
C1331 C 0.41533 0.71017 0.1226 0.0
C1332 C 0.43771 0.70653 0.12954 0.0
C1333 C 0.45349 0.72283 0.12413 0.0
C1334 C 0.47458 0.71921 0.13052 0.0
C1335 C 0.48006 0.69945 0.14256 0.0
C1336 C 0.46445 0.68328 0.14827 0.0
C1337 C 0.44333 0.6868 0.14187 0.0
H1338 H 0.4964 0.69668 0.1475 0.0
H1339 H 0.29205 0.73483 0.08638 0.0
H1340 H 0.75264 0.15869 0.29811 0.0
H1341 H 0.75219 0.13443 0.33394 0.0
H1342 H 0.81059 0.16589 0.35952 0.0
H1343 H 0.81122 0.19018 0.32348 0.0
H1344 H 0.81042 0.11898 0.36257 0.0
H1345 H 0.7667 0.1785 0.38579 0.0
H1346 H 0.7376 0.2047 0.38099 0.0
H1347 H 0.69268 0.14927 0.37795 0.0
H1348 H 0.72154 0.12271 0.38238 0.0
H1349 H 0.80369 0.06111 0.4762 0.0
H1350 H 0.80783 0.09003 0.44472 0.0
H1351 H 0.74519 0.07324 0.4169 0.0
H1352 H 0.74072 0.0451 0.4487 0.0
H1353 H 0.74988 0.11603 0.41741 0.0
H1354 H 0.79254 0.05652 0.38994 0.0
H1355 H 0.82098 0.02936 0.39294 0.0
H1356 H 0.86696 0.08324 0.40218 0.0
H1357 H 0.83875 0.11072 0.39952 0.0
C1358 C 0.76541 0.16043 0.31134 0.0
C1359 C 0.78197 0.17634 0.30797 0.0
C1360 C 0.76507 0.14665 0.33188 0.0
C1361 C 0.78129 0.14845 0.34947 0.0
C1362 C 0.7979 0.16427 0.34618 0.0
C1363 C 0.79815 0.17822 0.32569 0.0
C1364 C 0.78095 0.1335 0.37107 0.0
C1365 C 0.79738 0.11857 0.37485 0.0
C1366 C 0.76372 0.13267 0.38675 0.0
C1367 C 0.74631 0.14861 0.38424 0.0
C1368 C 0.75063 0.17189 0.38392 0.0
C1369 C 0.73417 0.18681 0.3813 0.0
C1370 C 0.71331 0.17865 0.37912 0.0
C1371 C 0.70885 0.15556 0.37962 0.0
C1372 C 0.72525 0.14057 0.38222 0.0
C1373 C 0.79085 0.06359 0.46331 0.0
C1374 C 0.77188 0.05082 0.46495 0.0
C1375 C 0.79325 0.08007 0.44525 0.0
C1376 C 0.7769 0.08373 0.42819 0.0
C1377 C 0.75802 0.07087 0.42984 0.0
C1378 C 0.7555 0.05471 0.44804 0.0
C1379 C 0.77912 0.10101 0.4087 0.0
C1380 C 0.76305 0.11648 0.40532 0.0
C1381 C 0.79656 0.10214 0.39323 0.0
C1382 C 0.81352 0.08565 0.39481 0.0
C1383 C 0.8087 0.06256 0.39279 0.0
C1384 C 0.82478 0.04711 0.3944 0.0
C1385 C 0.84575 0.05456 0.39783 0.0
C1386 C 0.8507 0.07749 0.39958 0.0
C1387 C 0.83468 0.09301 0.39801 0.0
H1388 H 0.85818 0.04258 0.39907 0.0
H1389 H 0.70059 0.19023 0.37708 0.0
H1390 H 0.34799 0.30619 0.80558 0.0
H1391 H 0.37341 0.29908 0.8382 0.0
H1392 H 0.3409 0.23623 0.85451 0.0
H1393 H 0.31527 0.24326 0.82166 0.0
H1394 H 0.35202 0.25867 0.89522 0.0
H1395 H 0.38677 0.23617 0.82529 0.0
H1396 H 0.39965 0.23933 0.78386 0.0
H1397 H 0.43851 0.29686 0.80341 0.0
H1398 H 0.42562 0.29426 0.84488 0.0
H1399 H 0.44157 0.23038 0.97246 0.0
H1400 H 0.41457 0.22807 0.93997 0.0
H1401 H 0.43252 0.29502 0.91633 0.0
H1402 H 0.45917 0.29757 0.94865 0.0
H1403 H 0.42861 0.26377 0.87883 0.0
H1404 H 0.39013 0.28805 0.9476 0.0
H1405 H 0.37711 0.28442 0.98894 0.0
H1406 H 0.3455 0.22182 0.97119 0.0
H1407 H 0.35861 0.22495 0.9298 0.0
C1408 C 0.34632 0.29075 0.81594 0.0
C1409 C 0.32974 0.27517 0.81083 0.0
C1410 C 0.36086 0.28672 0.83463 0.0
C1411 C 0.35929 0.26693 0.84853 0.0
C1412 C 0.34246 0.25157 0.84394 0.0
C1413 C 0.32781 0.25563 0.82521 0.0
C1414 C 0.37534 0.26254 0.8678 0.0
C1415 C 0.36876 0.25931 0.89157 0.0
C1416 C 0.39719 0.26352 0.86308 0.0
C1417 C 0.40511 0.2651 0.83817 0.0
C1418 C 0.39795 0.2496 0.82072 0.0
C1419 C 0.40527 0.25127 0.79723 0.0
C1420 C 0.41986 0.26831 0.791 0.0
C1421 C 0.4272 0.28368 0.80826 0.0
C1422 C 0.41991 0.28209 0.83177 0.0
C1423 C 0.43974 0.24457 0.9603 0.0
C1424 C 0.45245 0.26418 0.96317 0.0
C1425 C 0.42431 0.24324 0.94182 0.0
C1426 C 0.42156 0.2614 0.92581 0.0
C1427 C 0.43442 0.28082 0.92848 0.0
C1428 C 0.44958 0.28227 0.94705 0.0
C1429 C 0.40528 0.26053 0.90621 0.0
C1430 C 0.41185 0.26274 0.88238 0.0
C1431 C 0.38347 0.25845 0.91087 0.0
C1432 C 0.37558 0.25658 0.93572 0.0
C1433 C 0.38058 0.2734 0.95258 0.0
C1434 C 0.37315 0.27146 0.976 0.0
C1435 C 0.36055 0.25286 0.98272 0.0
C1436 C 0.3553 0.2362 0.96599 0.0
C1437 C 0.36273 0.23805 0.94254 0.0
H1438 H 0.3548 0.25139 0.00086 0.0
H1439 H 0.42551 0.26958 0.7728 0.0
H1440 H 0.30908 0.8122 0.3358 0.0
H1441 H 0.30978 0.84695 0.35856 0.0
H1442 H 0.24491 0.85738 0.3374 0.0
H1443 H 0.24404 0.82252 0.31467 0.0
H1444 H 0.26817 0.8962 0.33527 0.0
H1445 H 0.25741 0.83631 0.39274 0.0
H1446 H 0.26531 0.80081 0.41381 0.0
H1447 H 0.32542 0.82865 0.43777 0.0
H1448 H 0.31799 0.86424 0.41654 0.0
H1449 H 0.23822 0.96985 0.42625 0.0
H1450 H 0.24229 0.93849 0.39931 0.0
H1451 H 0.30763 0.93442 0.42185 0.0
H1452 H 0.3037 0.96596 0.44903 0.0
H1453 H 0.28653 0.89328 0.42256 0.0
H1454 H 0.29574 0.95443 0.36696 0.0
H1455 H 0.28687 0.98992 0.34645 0.0
H1456 H 0.22869 0.95976 0.31952 0.0
H1457 H 0.23707 0.92416 0.34017 0.0
C1458 C 0.29493 0.82184 0.33604 0.0
C1459 C 0.27643 0.81443 0.32358 0.0
C1460 C 0.29537 0.84174 0.34902 0.0
C1461 C 0.27731 0.85463 0.34999 0.0
C1462 C 0.25904 0.84771 0.33693 0.0
C1463 C 0.25859 0.8278 0.32389 0.0
C1464 C 0.27729 0.87497 0.36515 0.0
C1465 C 0.27198 0.89552 0.3544 0.0
C1466 C 0.28274 0.87421 0.39002 0.0
C1467 C 0.28724 0.85285 0.40282 0.0
C1468 C 0.27239 0.8348 0.40233 0.0
C1469 C 0.27677 0.81468 0.41433 0.0
C1470 C 0.29589 0.81245 0.42706 0.0
C1471 C 0.31064 0.83038 0.42787 0.0
C1472 C 0.30635 0.85054 0.41586 0.0
C1473 C 0.25354 0.96244 0.4254 0.0
C1474 C 0.27065 0.97044 0.43982 0.0
C1475 C 0.25584 0.94454 0.40988 0.0
C1476 C 0.2753 0.93421 0.40841 0.0
C1477 C 0.29249 0.9422 0.42266 0.0
C1478 C 0.29023 0.96027 0.4381 0.0
C1479 C 0.27731 0.91448 0.39271 0.0
C1480 C 0.28292 0.89401 0.40338 0.0
C1481 C 0.27203 0.91531 0.36781 0.0
C1482 C 0.26696 0.93667 0.35529 0.0
C1483 C 0.28097 0.95541 0.35682 0.0
C1484 C 0.27605 0.97554 0.34514 0.0
C1485 C 0.25721 0.97711 0.33173 0.0
C1486 C 0.24327 0.95852 0.32993 0.0
C1487 C 0.24811 0.93836 0.3416 0.0
H1488 H 0.25342 0.9927 0.3227 0.0
H1489 H 0.29924 0.79686 0.43635 0.0
H1490 H 0.69163 0.70103 0.82901 0.0
H1491 H 0.65873 0.69226 0.85002 0.0
H1492 H 0.66505 0.75551 0.88662 0.0
H1493 H 0.69792 0.7641 0.86606 0.0
H1494 H 0.65501 0.72408 0.9175 0.0
H1495 H 0.62954 0.74556 0.83816 0.0
H1496 H 0.62619 0.74325 0.79395 0.0
H1497 H 0.60209 0.67535 0.80014 0.0
H1498 H 0.60556 0.67717 0.84441 0.0
H1499 H 0.55432 0.75281 0.95052 0.0
H1500 H 0.58613 0.74958 0.92751 0.0
H1501 H 0.57336 0.67857 0.92019 0.0
H1502 H 0.54124 0.68153 0.94381 0.0
H1503 H 0.58671 0.70597 0.87548 0.0
H1504 H 0.60824 0.68812 0.95678 0.0
H1505 H 0.61005 0.69365 0.00066 0.0
H1506 H 0.64068 0.75821 0.9902 0.0
H1507 H 0.63871 0.75323 0.94621 0.0
C1508 C 0.68587 0.7131 0.84142 0.0
C1509 C 0.6974 0.7332 0.84599 0.0
C1510 C 0.66707 0.70808 0.85341 0.0
C1511 C 0.65933 0.72325 0.86989 0.0
C1512 C 0.67075 0.74343 0.87418 0.0
C1513 C 0.68956 0.74834 0.86241 0.0
C1514 C 0.63953 0.71827 0.88306 0.0
C1515 C 0.6401 0.72017 0.90824 0.0
C1516 C 0.62009 0.71254 0.87115 0.0
C1517 C 0.61807 0.7114 0.84456 0.0
C1518 C 0.62371 0.73007 0.83008 0.0
C1519 C 0.62175 0.72887 0.80502 0.0
C1520 C 0.61401 0.70914 0.79424 0.0
C1521 C 0.60814 0.6906 0.80851 0.0
C1522 C 0.61009 0.69171 0.83358 0.0
C1523 C 0.55806 0.73646 0.94393 0.0
C1524 C 0.54521 0.71739 0.94909 0.0
C1525 C 0.57632 0.73467 0.9308 0.0
C1526 C 0.58212 0.71385 0.92231 0.0
C1527 C 0.56909 0.6948 0.92666 0.0
C1528 C 0.55082 0.69651 0.94017 0.0
C1529 C 0.60228 0.71239 0.90965 0.0
C1530 C 0.60176 0.70936 0.88467 0.0
C1531 C 0.62175 0.71739 0.92166 0.0
C1532 C 0.62319 0.72035 0.94816 0.0
C1533 C 0.61521 0.70357 0.96381 0.0
C1534 C 0.61629 0.7066 0.98872 0.0
C1535 C 0.62544 0.72629 0.99822 0.0
C1536 C 0.63358 0.74297 0.98282 0.0
C1537 C 0.63251 0.74004 0.95789 0.0
H1538 H 0.62626 0.72861 0.0175 0.0
H1539 H 0.61249 0.70824 0.77484 0.0
loop_
_geom_bond_atom_site_label_1
_geom_bond_atom_site_label_2
_geom_bond_distance
_geom_bond_site_symmetry_2
_ccdc_geom_bond_type
P0 O11 1.490 . S
P0 C14 1.812 . S
P0 C20 1.803 . S
P0 C26 1.819 . S
H1 C15 0.941 . S
H2 C16 0.939 . S
H3 C18 0.940 . S
H4 C19 0.940 . S
H5 C21 0.939 . S
H6 C22 0.942 . S
H7 C24 0.940 . S
H8 C25 0.939 . S
H9 C27 0.941 . S
H10 C31 0.939 . S
O11 P0 1.490 . S
H12 C28 0.939 . S
H13 C30 0.940 . S
C14 P0 1.812 . S
C14 C15 1.389 . S
C14 C19 1.391 . S
C15 H1 0.941 . S
C15 C14 1.389 . S
C15 C16 1.397 . S
C16 H2 0.939 . S
C16 C15 1.397 . S
C16 C17 1.378 . S
C17 C16 1.378 . S
C17 C18 1.378 . S
C18 H3 0.940 . S
C18 C17 1.378 . S
C18 C19 1.396 . S
C19 H4 0.940 . S
C19 C14 1.391 . S
C19 C18 1.396 . S
C20 P0 1.803 . S
C20 C21 1.378 . S
C20 C25 1.400 . S
C21 H5 0.939 . S
C21 C20 1.378 . S
C21 C22 1.361 . S
C22 H6 0.942 . S
C22 C21 1.361 . S
C22 C23 1.369 . S
C23 C22 1.369 . S
C23 C24 1.404 . S
C24 H7 0.940 . S
C24 C23 1.404 . S
C24 C25 1.389 . S
C25 H8 0.939 . S
C25 C20 1.400 . S
C25 C24 1.389 . S
C26 P0 1.819 . S
C26 C27 1.391 . S
C26 C31 1.391 . S
C27 H9 0.941 . S
C27 C26 1.391 . S
C27 C28 1.396 . S
C28 H12 0.939 . S
C28 C27 1.396 . S
C28 C29 1.397 . S
C29 C28 1.397 . S
C29 C30 1.385 . S
C30 H13 0.940 . S
C30 C29 1.385 . S
C30 C31 1.388 . S
C31 H10 0.939 . S
C31 C26 1.391 . S
C31 C30 1.388 . S
P32 O43 1.490 . S
P32 C46 1.812 . S
P32 C52 1.803 . S
P32 C58 1.819 . S
H33 C47 0.941 . S
H34 C48 0.939 . S
H35 C50 0.940 . S
H36 C51 0.940 . S
H37 C53 0.939 . S
H38 C54 0.942 . S
H39 C56 0.940 . S
H40 C57 0.939 . S
H41 C59 0.941 . S
H42 C63 0.939 . S
O43 P32 1.490 . S
H44 C60 0.939 . S
H45 C62 0.940 . S
C46 P32 1.812 . S
C46 C47 1.389 . S
C46 C51 1.391 . S
C47 H33 0.941 . S
C47 C46 1.389 . S
C47 C48 1.397 . S
C48 H34 0.939 . S
C48 C47 1.397 . S
C48 C49 1.378 . S
C49 C48 1.378 . S
C49 C50 1.378 . S
C50 H35 0.940 . S
C50 C49 1.378 . S
C50 C51 1.396 . S
C51 H36 0.940 . S
C51 C46 1.391 . S
C51 C50 1.396 . S
C52 P32 1.803 . S
C52 C53 1.378 . S
C52 C57 1.400 . S
C53 H37 0.939 . S
C53 C52 1.378 . S
C53 C54 1.361 . S
C54 H38 0.942 . S
C54 C53 1.361 . S
C54 C55 1.369 . S
C55 C54 1.369 . S
C55 C56 1.404 . S
C56 H39 0.940 . S
C56 C55 1.404 . S
C56 C57 1.389 . S
C57 H40 0.939 . S
C57 C52 1.400 . S
C57 C56 1.389 . S
C58 P32 1.819 . S
C58 C59 1.391 . S
C58 C63 1.391 . S
C59 H41 0.941 . S
C59 C58 1.391 . S
C59 C60 1.396 . S
C60 H44 0.939 . S
C60 C59 1.396 . S
C60 C61 1.397 . S
C61 C60 1.397 . S
C61 C62 1.385 . S
C62 H45 0.940 . S
C62 C61 1.385 . S
C62 C63 1.388 . S
C63 H42 0.939 . S
C63 C58 1.391 . S
C63 C62 1.388 . S
P64 O75 1.490 . S
P64 C78 1.812 . S
P64 C84 1.803 . S
P64 C90 1.819 . S
H65 C79 0.941 . S
H66 C80 0.939 . S
H67 C82 0.940 . S
H68 C83 0.940 . S
H69 C85 0.939 . S
H70 C86 0.942 . S
H71 C88 0.940 . S
H72 C89 0.939 . S
H73 C91 0.941 . S
H74 C95 0.939 . S
O75 P64 1.490 . S
H76 C92 0.939 . S
H77 C94 0.940 . S
C78 P64 1.812 . S
C78 C79 1.389 . S
C78 C83 1.391 . S
C79 H65 0.941 . S
C79 C78 1.389 . S
C79 C80 1.397 . S
C80 H66 0.939 . S
C80 C79 1.397 . S
C80 C81 1.378 . S
C81 C80 1.378 . S
C81 C82 1.378 . S
C82 H67 0.940 . S
C82 C81 1.378 . S
C82 C83 1.396 . S
C83 H68 0.940 . S
C83 C78 1.391 . S
C83 C82 1.396 . S
C84 P64 1.803 . S
C84 C85 1.378 . S
C84 C89 1.400 . S
C85 H69 0.939 . S
C85 C84 1.378 . S
C85 C86 1.361 . S
C86 H70 0.942 . S
C86 C85 1.361 . S
C86 C87 1.369 . S
C87 C86 1.369 . S
C87 C88 1.404 . S
C88 H71 0.940 . S
C88 C87 1.404 . S
C88 C89 1.389 . S
C89 H72 0.939 . S
C89 C84 1.400 . S
C89 C88 1.389 . S
C90 P64 1.819 . S
C90 C91 1.391 . S
C90 C95 1.391 . S
C91 H73 0.941 . S
C91 C90 1.391 . S
C91 C92 1.396 . S
C92 H76 0.939 . S
C92 C91 1.396 . S
C92 C93 1.397 . S
C93 C92 1.397 . S
C93 C94 1.385 . S
C94 H77 0.940 . S
C94 C93 1.385 . S
C94 C95 1.388 . S
C95 H74 0.939 . S
C95 C90 1.391 . S
C95 C94 1.388 . S
P96 O107 1.490 . S
P96 C110 1.812 . S
P96 C116 1.803 . S
P96 C122 1.819 . S
H97 C111 0.941 . S
H98 C112 0.939 . S
H99 C114 0.940 . S
H100 C115 0.940 . S
H101 C117 0.939 . S
H102 C118 0.942 . S
H103 C120 0.940 . S
H104 C121 0.939 . S
H105 C123 0.941 . S
H106 C127 0.939 . S
O107 P96 1.490 . S
H108 C124 0.939 . S
H109 C126 0.940 . S
C110 P96 1.812 . S
C110 C111 1.389 . S
C110 C115 1.391 . S
C111 H97 0.941 . S
C111 C110 1.389 . S
C111 C112 1.397 . S
C112 H98 0.939 . S
C112 C111 1.397 . S
C112 C113 1.378 . S
C113 C112 1.378 . S
C113 C114 1.378 . S
C114 H99 0.940 . S
C114 C113 1.378 . S
C114 C115 1.396 . S
C115 H100 0.940 . S
C115 C110 1.391 . S
C115 C114 1.396 . S
C116 P96 1.803 . S
C116 C117 1.378 . S
C116 C121 1.400 . S
C117 H101 0.939 . S
C117 C116 1.378 . S
C117 C118 1.361 . S
C118 H102 0.942 . S
C118 C117 1.361 . S
C118 C119 1.369 . S
C119 C118 1.369 . S
C119 C120 1.404 . S
C120 H103 0.940 . S
C120 C119 1.404 . S
C120 C121 1.389 . S
C121 H104 0.939 . S
C121 C116 1.400 . S
C121 C120 1.389 . S
C122 P96 1.819 . S
C122 C123 1.391 . S
C122 C127 1.391 . S
C123 H105 0.941 . S
C123 C122 1.391 . S
C123 C124 1.396 . S
C124 H108 0.939 . S
C124 C123 1.396 . S
C124 C125 1.397 . S
C125 C124 1.397 . S
C125 C126 1.385 . S
C126 H109 0.940 . S
C126 C125 1.385 . S
C126 C127 1.388 . S
C127 H106 0.939 . S
C127 C122 1.391 . S
C127 C126 1.388 . S
P128 O139 1.490 . S
P128 C142 1.812 . S
P128 C148 1.803 . S
P128 C154 1.819 . S
H129 C143 0.941 . S
H130 C144 0.939 . S
H131 C146 0.940 . S
H132 C147 0.940 . S
H133 C149 0.939 . S
H134 C150 0.942 . S
H135 C152 0.940 . S
H136 C153 0.939 . S
H137 C155 0.941 . S
H138 C159 0.939 . S
O139 P128 1.490 . S
H140 C156 0.939 . S
H141 C158 0.940 . S
C142 P128 1.812 . S
C142 C143 1.389 . S
C142 C147 1.391 . S
C143 H129 0.941 . S
C143 C142 1.389 . S
C143 C144 1.397 . S
C144 H130 0.939 . S
C144 C143 1.397 . S
C144 C145 1.378 . S
C145 C144 1.378 . S
C145 C146 1.378 . S
C146 H131 0.940 . S
C146 C145 1.378 . S
C146 C147 1.396 . S
C147 H132 0.940 . S
C147 C142 1.391 . S
C147 C146 1.396 . S
C148 P128 1.803 . S
C148 C149 1.378 . S
C148 C153 1.400 . S
C149 H133 0.939 . S
C149 C148 1.378 . S
C149 C150 1.361 . S
C150 H134 0.942 . S
C150 C149 1.361 . S
C150 C151 1.369 . S
C151 C150 1.369 . S
C151 C152 1.404 . S
C152 H135 0.940 . S
C152 C151 1.404 . S
C152 C153 1.389 . S
C153 H136 0.939 . S
C153 C148 1.400 . S
C153 C152 1.389 . S
C154 P128 1.819 . S
C154 C155 1.391 . S
C154 C159 1.391 . S
C155 H137 0.941 . S
C155 C154 1.391 . S
C155 C156 1.396 . S
C156 H140 0.939 . S
C156 C155 1.396 . S
C156 C157 1.397 . S
C157 C156 1.397 . S
C157 C158 1.385 . S
C158 H141 0.940 . S
C158 C157 1.385 . S
C158 C159 1.388 . S
C159 H138 0.939 . S
C159 C154 1.391 . S
C159 C158 1.388 . S
P160 O171 1.490 . S
P160 C174 1.812 . S
P160 C180 1.803 . S
P160 C186 1.819 . S
H161 C175 0.941 . S
H162 C176 0.939 . S
H163 C178 0.940 . S
H164 C179 0.940 . S
H165 C181 0.939 . S
H166 C182 0.942 . S
H167 C184 0.940 . S
H168 C185 0.939 . S
H169 C187 0.941 . S
H170 C191 0.939 . S
O171 P160 1.490 . S
H172 C188 0.939 . S
H173 C190 0.940 . S
C174 P160 1.812 . S
C174 C175 1.389 . S
C174 C179 1.391 . S
C175 H161 0.941 . S
C175 C174 1.389 . S
C175 C176 1.397 . S
C176 H162 0.939 . S
C176 C175 1.397 . S
C176 C177 1.378 . S
C177 C176 1.378 . S
C177 C178 1.378 . S
C178 H163 0.940 . S
C178 C177 1.378 . S
C178 C179 1.396 . S
C179 H164 0.940 . S
C179 C174 1.391 . S
C179 C178 1.396 . S
C180 P160 1.803 . S
C180 C181 1.378 . S
C180 C185 1.400 . S
C181 H165 0.939 . S
C181 C180 1.378 . S
C181 C182 1.361 . S
C182 H166 0.942 . S
C182 C181 1.361 . S
C182 C183 1.369 . S
C183 C182 1.369 . S
C183 C184 1.404 . S
C184 H167 0.940 . S
C184 C183 1.404 . S
C184 C185 1.389 . S
C185 H168 0.939 . S
C185 C180 1.400 . S
C185 C184 1.389 . S
C186 P160 1.819 . S
C186 C187 1.391 . S
C186 C191 1.391 . S
C187 H169 0.941 . S
C187 C186 1.391 . S
C187 C188 1.396 . S
C188 H172 0.939 . S
C188 C187 1.396 . S
C188 C189 1.397 . S
C189 C188 1.397 . S
C189 C190 1.385 . S
C190 H173 0.940 . S
C190 C189 1.385 . S
C190 C191 1.388 . S
C191 H170 0.939 . S
C191 C186 1.391 . S
C191 C190 1.388 . S
P192 O203 1.490 . S
P192 C206 1.812 . S
P192 C212 1.803 . S
P192 C218 1.819 . S
H193 C207 0.941 . S
H194 C208 0.939 . S
H195 C210 0.940 . S
H196 C211 0.940 . S
H197 C213 0.939 . S
H198 C214 0.942 . S
H199 C216 0.940 . S
H200 C217 0.939 . S
H201 C219 0.941 . S
H202 C223 0.939 . S
O203 P192 1.490 . S
H204 C220 0.939 . S
H205 C222 0.940 . S
C206 P192 1.812 . S
C206 C207 1.389 . S
C206 C211 1.391 . S
C207 H193 0.941 . S
C207 C206 1.389 . S
C207 C208 1.397 . S
C208 H194 0.939 . S
C208 C207 1.397 . S
C208 C209 1.378 . S
C209 C208 1.378 . S
C209 C210 1.378 . S
C210 H195 0.940 . S
C210 C209 1.378 . S
C210 C211 1.396 . S
C211 H196 0.940 . S
C211 C206 1.391 . S
C211 C210 1.396 . S
C212 P192 1.803 . S
C212 C213 1.378 . S
C212 C217 1.400 . S
C213 H197 0.939 . S
C213 C212 1.378 . S
C213 C214 1.361 . S
C214 H198 0.942 . S
C214 C213 1.361 . S
C214 C215 1.369 . S
C215 C214 1.369 . S
C215 C216 1.404 . S
C216 H199 0.940 . S
C216 C215 1.404 . S
C216 C217 1.389 . S
C217 H200 0.939 . S
C217 C212 1.400 . S
C217 C216 1.389 . S
C218 P192 1.819 . S
C218 C219 1.391 . S
C218 C223 1.391 . S
C219 H201 0.941 . S
C219 C218 1.391 . S
C219 C220 1.396 . S
C220 H204 0.939 . S
C220 C219 1.396 . S
C220 C221 1.397 . S
C221 C220 1.397 . S
C221 C222 1.385 . S
C222 H205 0.940 . S
C222 C221 1.385 . S
C222 C223 1.388 . S
C223 H202 0.939 . S
C223 C218 1.391 . S
C223 C222 1.388 . S
P224 O235 1.490 . S
P224 C238 1.812 . S
P224 C244 1.803 . S
P224 C250 1.819 . S
H225 C239 0.941 . S
H226 C240 0.939 . S
H227 C242 0.940 . S
H228 C243 0.940 . S
H229 C245 0.939 . S
H230 C246 0.942 . S
H231 C248 0.940 . S
H232 C249 0.939 . S
H233 C251 0.941 . S
H234 C255 0.939 . S
O235 P224 1.490 . S
H236 C252 0.939 . S
H237 C254 0.940 . S
C238 P224 1.812 . S
C238 C239 1.389 . S
C238 C243 1.391 . S
C239 H225 0.941 . S
C239 C238 1.389 . S
C239 C240 1.397 . S
C240 H226 0.939 . S
C240 C239 1.397 . S
C240 C241 1.378 . S
C241 C240 1.378 . S
C241 C242 1.378 . S
C242 H227 0.940 . S
C242 C241 1.378 . S
C242 C243 1.396 . S
C243 H228 0.940 . S
C243 C238 1.391 . S
C243 C242 1.396 . S
C244 P224 1.803 . S
C244 C245 1.378 . S
C244 C249 1.400 . S
C245 H229 0.939 . S
C245 C244 1.378 . S
C245 C246 1.361 . S
C246 H230 0.942 . S
C246 C245 1.361 . S
C246 C247 1.369 . S
C247 C246 1.369 . S
C247 C248 1.404 . S
C248 H231 0.940 . S
C248 C247 1.404 . S
C248 C249 1.389 . S
C249 H232 0.939 . S
C249 C244 1.400 . S
C249 C248 1.389 . S
C250 P224 1.819 . S
C250 C251 1.391 . S
C250 C255 1.391 . S
C251 H233 0.941 . S
C251 C250 1.391 . S
C251 C252 1.396 . S
C252 H236 0.939 . S
C252 C251 1.396 . S
C252 C253 1.397 . S
C253 C252 1.397 . S
C253 C254 1.385 . S
C254 H237 0.940 . S
C254 C253 1.385 . S
C254 C255 1.388 . S
C255 H234 0.939 . S
C255 C250 1.391 . S
C255 C254 1.388 . S
C256 O258 1.247 . S
C256 O260 1.258 . S
C257 O264 1.247 . S
C257 O265 1.258 . S
O258 C256 1.247 . S
O258 Zn259 2.028 1_655 S
Zn259 O258 2.028 1_455 S
Zn259 O263 2.035 . S
Zn259 O265 2.035 . S
Zn259 O266 2.028 1_455 S
O260 C256 1.258 . S
O260 Zn261 2.035 1_655 S
Zn261 O260 2.035 1_455 S
Zn261 O262 2.028 . S
Zn261 O264 2.028 . S
Zn261 O267 2.035 1_455 S
O262 Zn261 2.028 . S
O262 C268 1.247 . S
O263 Zn259 2.035 . S
O263 C268 1.258 . S
O264 C257 1.247 . S
O264 Zn261 2.028 . S
O265 C257 1.258 . S
O265 Zn259 2.035 . S
O266 Zn259 2.028 1_655 S
O266 C269 1.247 . S
O267 Zn261 2.035 1_655 S
O267 C269 1.258 . S
C268 O262 1.247 . S
C268 O263 1.258 . S
C269 O266 1.247 . S
C269 O267 1.258 . S
C270 O272 1.247 . S
C270 O274 1.258 . S
C271 O278 1.247 . S
C271 O279 1.258 . S
O272 C270 1.247 . S
O272 Zn273 2.028 1_655 S
Zn273 O272 2.028 1_455 S
Zn273 O277 2.035 . S
Zn273 O279 2.035 . S
Zn273 O280 2.028 1_455 S
O274 C270 1.258 . S
O274 Zn275 2.040 . S
Zn275 O274 2.040 . S
Zn275 O276 2.023 1_655 S
Zn275 O278 2.023 1_655 S
Zn275 O281 2.041 . S
O276 Zn275 2.023 1_455 S
O276 C282 1.247 . S
O277 Zn273 2.035 . S
O277 C282 1.258 . S
O278 C271 1.247 . S
O278 Zn275 2.023 1_455 S
O279 C271 1.258 . S
O279 Zn273 2.035 . S
O280 Zn273 2.028 1_655 S
O280 C283 1.247 . S
O281 Zn275 2.041 . S
O281 C283 1.258 . S
C282 O276 1.247 . S
C282 O277 1.258 . S
C283 O280 1.247 . S
C283 O281 1.258 . S
C284 O286 1.247 . S
C284 O288 1.258 . S
C285 O292 1.247 . S
C285 O293 1.258 . S
O286 C284 1.247 . S
O286 Zn287 2.028 1_565 S
Zn287 O286 2.028 1_545 S
Zn287 O291 2.035 . S
Zn287 O293 2.035 . S
Zn287 O294 2.028 1_545 S
O288 C284 1.258 . S
O288 Zn289 2.035 1_565 S
Zn289 O288 2.035 1_545 S
Zn289 O290 2.028 . S
Zn289 O292 2.028 . S
Zn289 O295 2.035 1_545 S
O290 Zn289 2.028 . S
O290 C296 1.247 . S
O291 Zn287 2.035 . S
O291 C296 1.258 . S
O292 C285 1.247 . S
O292 Zn289 2.028 . S
O293 C285 1.258 . S
O293 Zn287 2.035 . S
O294 Zn287 2.028 1_565 S
O294 C297 1.247 . S
O295 Zn289 2.035 1_565 S
O295 C297 1.258 . S
C296 O290 1.247 . S
C296 O291 1.258 . S
C297 O294 1.247 . S
C297 O295 1.258 . S
C298 O300 1.247 . S
C298 O302 1.258 . S
C299 O306 1.247 . S
C299 O307 1.258 . S
O300 C298 1.247 . S
O300 Zn301 2.028 . S
Zn301 O300 2.028 . S
Zn301 O305 2.035 . S
Zn301 O307 2.035 1_554 S
Zn301 O308 2.028 1_554 S
O302 C298 1.258 . S
O302 Zn303 2.035 . S
Zn303 O302 2.035 . S
Zn303 O304 2.028 . S
Zn303 O306 2.028 1_554 S
Zn303 O309 2.035 1_554 S
O304 Zn303 2.028 . S
O304 C310 1.247 . S
O305 Zn301 2.035 . S
O305 C310 1.258 . S
O306 C299 1.247 . S
O306 Zn303 2.028 1_556 S
O307 C299 1.258 . S
O307 Zn301 2.035 1_556 S
O308 Zn301 2.028 1_556 S
O308 C311 1.247 . S
O309 Zn303 2.035 1_556 S
O309 C311 1.258 . S
C310 O304 1.247 . S
C310 O305 1.258 . S
C311 O308 1.247 . S
C311 O309 1.258 . S
C312 O314 1.247 . S
C312 O316 1.258 . S
C313 O320 1.247 . S
C313 O321 1.258 . S
O314 C312 1.247 . S
O314 Zn315 2.044 . S
Zn315 O314 2.044 . S
Zn315 O319 2.019 1_565 S
Zn315 O321 2.019 1_565 S
Zn315 O322 2.044 . S
O316 C312 1.258 . S
O316 Zn317 2.035 1_565 S
Zn317 O316 2.035 1_545 S
Zn317 O318 2.028 . S
Zn317 O320 2.028 . S
Zn317 O323 2.035 1_545 S
O318 Zn317 2.028 . S
O318 C324 1.247 . S
O319 Zn315 2.019 1_545 S
O319 C324 1.258 . S
O320 C313 1.247 . S
O320 Zn317 2.028 . S
O321 C313 1.258 . S
O321 Zn315 2.019 1_545 S
O322 Zn315 2.044 . S
O322 C325 1.247 . S
O323 Zn317 2.035 1_565 S
O323 C325 1.258 . S
C324 O318 1.247 . S
C324 O319 1.258 . S
C325 O322 1.247 . S
C325 O323 1.258 . S
C326 O328 1.247 . S
C326 O330 1.258 . S
C327 O334 1.247 . S
C327 O335 1.258 . S
O328 C326 1.247 . S
O328 Zn329 2.028 . S
Zn329 O328 2.028 . S
Zn329 O333 2.035 . S
Zn329 O335 2.035 1_554 S
Zn329 O336 2.028 1_554 S
O330 C326 1.258 . S
O330 Zn331 2.037 1_554 S
Zn331 O330 2.037 1_556 S
Zn331 O332 2.029 1_556 S
Zn331 O334 2.026 . S
Zn331 O337 2.034 . S
O332 Zn331 2.029 1_554 S
O332 C338 1.247 . S
O333 Zn329 2.035 . S
O333 C338 1.258 . S
O334 C327 1.247 . S
O334 Zn331 2.026 . S
O335 C327 1.258 . S
O335 Zn329 2.035 1_556 S
O336 Zn329 2.028 1_556 S
O336 C339 1.247 . S
O337 Zn331 2.034 . S
O337 C339 1.258 . S
C338 O332 1.247 . S
C338 O333 1.258 . S
C339 O336 1.247 . S
C339 O337 1.258 . S
H340 C358 0.951 . S
H341 C360 0.951 . S
H342 C362 0.950 . S
H343 C363 0.950 . S
H344 C365 0.950 . S
H345 C368 0.950 . S
H346 C369 0.950 . S
H347 C371 0.950 . S
H348 C372 0.950 . S
H349 C373 0.951 . S
H350 C375 0.951 . S
H351 C377 0.950 . S
H352 C378 0.950 . S
H353 C380 0.950 . S
H354 C383 0.950 . S
H355 C384 0.950 . S
H356 C386 0.950 . S
H357 C387 0.950 . S
C358 H340 0.951 . S
C358 C359 1.366 . S
C358 C360 1.388 . S
C359 C358 1.366 . S
C359 C363 1.385 . S
C360 H341 0.951 . S
C360 C358 1.388 . S
C360 C361 1.366 . S
C361 C360 1.366 . S
C361 C362 1.414 . S
C361 C364 1.499 . S
C362 H342 0.950 . S
C362 C361 1.414 . S
C362 C363 1.374 . S
C363 H343 0.950 . S
C363 C359 1.385 . S
C363 C362 1.374 . S
C364 C361 1.499 . S
C364 C365 1.373 . S
C364 C366 1.389 . S
C365 H344 0.950 . S
C365 C364 1.373 . S
C365 C381 1.377 . S
C366 C364 1.389 . S
C366 C367 1.524 . S
C366 C380 1.377 . S
C367 C366 1.524 . S
C367 C368 1.397 . S
C367 C372 1.363 . S
C368 H345 0.950 . S
C368 C367 1.397 . S
C368 C369 1.334 . S
C369 H346 0.950 . S
C369 C368 1.334 . S
C369 C370 1.287 . S
C370 C369 1.287 . S
C370 C371 1.524 . S
C370 H389 0.913 . S
C371 H347 0.950 . S
C371 C370 1.524 . S
C371 C372 1.415 . S
C372 H348 0.950 . S
C372 C367 1.363 . S
C372 C371 1.415 . S
C373 H349 0.951 . S
C373 C374 1.366 . S
C373 C375 1.388 . S
C374 C373 1.366 . S
C374 C378 1.385 . S
C375 H350 0.951 . S
C375 C373 1.388 . S
C375 C376 1.366 . S
C376 C375 1.366 . S
C376 C377 1.414 . S
C376 C379 1.499 . S
C377 H351 0.950 . S
C377 C376 1.414 . S
C377 C378 1.374 . S
C378 H352 0.950 . S
C378 C374 1.385 . S
C378 C377 1.374 . S
C379 C376 1.499 . S
C379 C380 1.373 . S
C379 C381 1.389 . S
C380 H353 0.950 . S
C380 C366 1.377 . S
C380 C379 1.373 . S
C381 C365 1.377 . S
C381 C379 1.389 . S
C381 C382 1.524 . S
C382 C381 1.524 . S
C382 C383 1.397 . S
C382 C387 1.363 . S
C383 H354 0.950 . S
C383 C382 1.397 . S
C383 C384 1.334 . S
C384 H355 0.950 . S
C384 C383 1.334 . S
C384 C385 1.287 . S
C385 C384 1.287 . S
C385 C386 1.524 . S
C385 H388 0.999 . S
C386 H356 0.950 . S
C386 C385 1.524 . S
C386 C387 1.415 . S
C387 H357 0.950 . S
C387 C382 1.363 . S
C387 C386 1.415 . S
H388 C385 0.999 . S
H389 C370 0.913 . S
H390 C408 0.951 . S
H391 C410 0.951 . S
H392 C412 0.950 . S
H393 C413 0.950 . S
H394 C415 0.950 . S
H395 C418 0.950 . S
H396 C419 0.950 . S
H397 C421 0.950 . S
H398 C422 0.950 . S
H399 C423 0.951 . S
H400 C425 0.951 . S
H401 C427 0.950 . S
H402 C428 0.950 . S
H403 C430 0.950 . S
H404 C433 0.950 . S
H405 C434 0.950 . S
H406 C436 0.950 . S
H407 C437 0.950 . S
C408 H390 0.951 . S
C408 C409 1.366 . S
C408 C410 1.388 . S
C409 C408 1.366 . S
C409 C413 1.385 . S
C410 H391 0.951 . S
C410 C408 1.388 . S
C410 C411 1.366 . S
C411 C410 1.366 . S
C411 C412 1.414 . S
C411 C414 1.499 . S
C412 H392 0.950 . S
C412 C411 1.414 . S
C412 C413 1.374 . S
C413 H393 0.950 . S
C413 C409 1.385 . S
C413 C412 1.374 . S
C414 C411 1.499 . S
C414 C415 1.373 . S
C414 C416 1.389 . S
C415 H394 0.950 . S
C415 C414 1.373 . S
C415 C431 1.377 . S
C416 C414 1.389 . S
C416 C417 1.524 . S
C416 C430 1.377 . S
C417 C416 1.524 . S
C417 C418 1.397 . S
C417 C422 1.363 . S
C418 H395 0.950 . S
C418 C417 1.397 . S
C418 C419 1.334 . S
C419 H396 0.950 . S
C419 C418 1.334 . S
C419 C420 1.287 . S
C420 C419 1.287 . S
C420 C421 1.524 . S
C420 H439 0.913 . S
C421 H397 0.950 . S
C421 C420 1.524 . S
C421 C422 1.415 . S
C422 H398 0.950 . S
C422 C417 1.363 . S
C422 C421 1.415 . S
C423 H399 0.951 . S
C423 C424 1.366 . S
C423 C425 1.388 . S
C424 C423 1.366 . S
C424 C428 1.385 . S
C425 H400 0.951 . S
C425 C423 1.388 . S
C425 C426 1.366 . S
C426 C425 1.366 . S
C426 C427 1.414 . S
C426 C429 1.499 . S
C427 H401 0.950 . S
C427 C426 1.414 . S
C427 C428 1.374 . S
C428 H402 0.950 . S
C428 C424 1.385 . S
C428 C427 1.374 . S
C429 C426 1.499 . S
C429 C430 1.373 . S
C429 C431 1.389 . S
C430 H403 0.950 . S
C430 C416 1.377 . S
C430 C429 1.373 . S
C431 C415 1.377 . S
C431 C429 1.389 . S
C431 C432 1.524 . S
C432 C431 1.524 . S
C432 C433 1.397 . S
C432 C437 1.363 . S
C433 H404 0.950 . S
C433 C432 1.397 . S
C433 C434 1.334 . S
C434 H405 0.950 . S
C434 C433 1.334 . S
C434 C435 1.287 . S
C435 C434 1.287 . S
C435 C436 1.524 . S
C435 H438 0.999 . S
C436 H406 0.950 . S
C436 C435 1.524 . S
C436 C437 1.415 . S
C437 H407 0.950 . S
C437 C432 1.363 . S
C437 C436 1.415 . S
H438 C435 0.999 . S
H439 C420 0.913 . S
H440 C458 0.951 . S
H441 C460 0.951 . S
H442 C462 0.950 . S
H443 C463 0.950 . S
H444 C465 0.950 . S
H445 C468 0.950 . S
H446 C469 0.950 . S
H447 C471 0.950 . S
H448 C472 0.950 . S
H449 C473 0.951 . S
H450 C475 0.951 . S
H451 C477 0.950 . S
H452 C478 0.950 . S
H453 C480 0.950 . S
H454 C483 0.950 . S
H455 C484 0.950 . S
H456 C486 0.950 . S
H457 C487 0.950 . S
C458 H440 0.951 . S
C458 C459 1.366 . S
C458 C460 1.388 . S
C459 C458 1.366 . S
C459 C463 1.385 . S
C460 H441 0.951 . S
C460 C458 1.388 . S
C460 C461 1.366 . S
C461 C460 1.366 . S
C461 C462 1.414 . S
C461 C464 1.499 . S
C462 H442 0.950 . S
C462 C461 1.414 . S
C462 C463 1.374 . S
C463 H443 0.950 . S
C463 C459 1.385 . S
C463 C462 1.374 . S
C464 C461 1.499 . S
C464 C465 1.373 . S
C464 C466 1.389 . S
C465 H444 0.950 . S
C465 C464 1.373 . S
C465 C481 1.377 . S
C466 C464 1.389 . S
C466 C467 1.524 . S
C466 C480 1.377 . S
C467 C466 1.524 . S
C467 C468 1.397 . S
C467 C472 1.363 . S
C468 H445 0.950 . S
C468 C467 1.397 . S
C468 C469 1.334 . S
C469 H446 0.950 . S
C469 C468 1.334 . S
C469 C470 1.287 . S
C470 C469 1.287 . S
C470 C471 1.524 . S
C470 H489 0.913 . S
C471 H447 0.950 . S
C471 C470 1.524 . S
C471 C472 1.415 . S
C472 H448 0.950 . S
C472 C467 1.363 . S
C472 C471 1.415 . S
C473 H449 0.951 . S
C473 C474 1.366 . S
C473 C475 1.388 . S
C474 C473 1.366 . S
C474 C478 1.385 . S
C475 H450 0.951 . S
C475 C473 1.388 . S
C475 C476 1.366 . S
C476 C475 1.366 . S
C476 C477 1.414 . S
C476 C479 1.499 . S
C477 H451 0.950 . S
C477 C476 1.414 . S
C477 C478 1.374 . S
C478 H452 0.950 . S
C478 C474 1.385 . S
C478 C477 1.374 . S
C479 C476 1.499 . S
C479 C480 1.373 . S
C479 C481 1.389 . S
C480 H453 0.950 . S
C480 C466 1.377 . S
C480 C479 1.373 . S
C481 C465 1.377 . S
C481 C479 1.389 . S
C481 C482 1.524 . S
C482 C481 1.524 . S
C482 C483 1.397 . S
C482 C487 1.363 . S
C483 H454 0.950 . S
C483 C482 1.397 . S
C483 C484 1.334 . S
C484 H455 0.950 . S
C484 C483 1.334 . S
C484 C485 1.287 . S
C485 C484 1.287 . S
C485 C486 1.524 . S
C485 H488 0.999 . S
C486 H456 0.950 . S
C486 C485 1.524 . S
C486 C487 1.415 . S
C487 H457 0.950 . S
C487 C482 1.363 . S
C487 C486 1.415 . S
H488 C485 0.999 . S
H489 C470 0.913 . S
H490 C508 0.951 . S
H491 C510 0.951 . S
H492 C512 0.950 . S
H493 C513 0.950 . S
H494 C515 0.950 . S
H495 C518 0.950 . S
H496 C519 0.950 . S
H497 C521 0.950 . S
H498 C522 0.950 . S
H499 C523 0.951 . S
H500 C525 0.951 . S
H501 C527 0.950 . S
H502 C528 0.950 . S
H503 C530 0.950 . S
H504 C533 0.950 . S
H505 C534 0.950 . S
H506 C536 0.950 . S
H507 C537 0.950 . S
C508 H490 0.951 . S
C508 C509 1.366 . S
C508 C510 1.388 . S
C509 C508 1.366 . S
C509 C513 1.385 . S
C510 H491 0.951 . S
C510 C508 1.388 . S
C510 C511 1.366 . S
C511 C510 1.366 . S
C511 C512 1.414 . S
C511 C514 1.499 . S
C512 H492 0.950 . S
C512 C511 1.414 . S
C512 C513 1.374 . S
C513 H493 0.950 . S
C513 C509 1.385 . S
C513 C512 1.374 . S
C514 C511 1.499 . S
C514 C515 1.373 . S
C514 C516 1.389 . S
C515 H494 0.950 . S
C515 C514 1.373 . S
C515 C531 1.377 . S
C516 C514 1.389 . S
C516 C517 1.524 . S
C516 C530 1.377 . S
C517 C516 1.524 . S
C517 C518 1.397 . S
C517 C522 1.363 . S
C518 H495 0.950 . S
C518 C517 1.397 . S
C518 C519 1.334 . S
C519 H496 0.950 . S
C519 C518 1.334 . S
C519 C520 1.287 . S
C520 C519 1.287 . S
C520 C521 1.524 . S
C520 H539 0.913 . S
C521 H497 0.950 . S
C521 C520 1.524 . S
C521 C522 1.415 . S
C522 H498 0.950 . S
C522 C517 1.363 . S
C522 C521 1.415 . S
C523 H499 0.951 . S
C523 C524 1.366 . S
C523 C525 1.388 . S
C524 C523 1.366 . S
C524 C528 1.385 . S
C525 H500 0.951 . S
C525 C523 1.388 . S
C525 C526 1.366 . S
C526 C525 1.366 . S
C526 C527 1.414 . S
C526 C529 1.499 . S
C527 H501 0.950 . S
C527 C526 1.414 . S
C527 C528 1.374 . S
C528 H502 0.950 . S
C528 C524 1.385 . S
C528 C527 1.374 . S
C529 C526 1.499 . S
C529 C530 1.373 . S
C529 C531 1.389 . S
C530 H503 0.950 . S
C530 C516 1.377 . S
C530 C529 1.373 . S
C531 C515 1.377 . S
C531 C529 1.389 . S
C531 C532 1.524 . S
C532 C531 1.524 . S
C532 C533 1.397 . S
C532 C537 1.363 . S
C533 H504 0.950 . S
C533 C532 1.397 . S
C533 C534 1.334 . S
C534 H505 0.950 . S
C534 C533 1.334 . S
C534 C535 1.287 . S
C535 C534 1.287 . S
C535 C536 1.524 . S
C535 H538 0.999 . S
C536 H506 0.950 . S
C536 C535 1.524 . S
C536 C537 1.415 . S
C537 H507 0.950 . S
C537 C532 1.363 . S
C537 C536 1.415 . S
H538 C535 0.999 . S
H539 C520 0.913 . S
H540 C558 0.951 . S
H541 C560 0.951 . S
H542 C562 0.950 . S
H543 C563 0.950 . S
H544 C565 0.950 . S
H545 C568 0.950 . S
H546 C569 0.950 . S
H547 C571 0.950 . S
H548 C572 0.950 . S
H549 C573 0.951 . S
H550 C575 0.951 . S
H551 C577 0.950 . S
H552 C578 0.950 . S
H553 C580 0.950 . S
H554 C583 0.950 . S
H555 C584 0.950 . S
H556 C586 0.950 . S
H557 C587 0.950 . S
C558 H540 0.951 . S
C558 C559 1.366 . S
C558 C560 1.388 . S
C559 C558 1.366 . S
C559 C563 1.385 . S
C560 H541 0.951 . S
C560 C558 1.388 . S
C560 C561 1.366 . S
C561 C560 1.366 . S
C561 C562 1.414 . S
C561 C564 1.499 . S
C562 H542 0.950 . S
C562 C561 1.414 . S
C562 C563 1.374 . S
C563 H543 0.950 . S
C563 C559 1.385 . S
C563 C562 1.374 . S
C564 C561 1.499 . S
C564 C565 1.373 . S
C564 C566 1.389 . S
C565 H544 0.950 . S
C565 C564 1.373 . S
C565 C581 1.377 . S
C566 C564 1.389 . S
C566 C567 1.524 . S
C566 C580 1.377 . S
C567 C566 1.524 . S
C567 C568 1.397 . S
C567 C572 1.363 . S
C568 H545 0.950 . S
C568 C567 1.397 . S
C568 C569 1.334 . S
C569 H546 0.950 . S
C569 C568 1.334 . S
C569 C570 1.287 . S
C570 C569 1.287 . S
C570 C571 1.524 . S
C570 H589 0.913 . S
C571 H547 0.950 . S
C571 C570 1.524 . S
C571 C572 1.415 . S
C572 H548 0.950 . S
C572 C567 1.363 . S
C572 C571 1.415 . S
C573 H549 0.951 . S
C573 C574 1.366 . S
C573 C575 1.388 . S
C574 C573 1.366 . S
C574 C578 1.385 . S
C575 H550 0.951 . S
C575 C573 1.388 . S
C575 C576 1.366 . S
C576 C575 1.366 . S
C576 C577 1.414 . S
C576 C579 1.499 . S
C577 H551 0.950 . S
C577 C576 1.414 . S
C577 C578 1.374 . S
C578 H552 0.950 . S
C578 C574 1.385 . S
C578 C577 1.374 . S
C579 C576 1.499 . S
C579 C580 1.373 . S
C579 C581 1.389 . S
C580 H553 0.950 . S
C580 C566 1.377 . S
C580 C579 1.373 . S
C581 C565 1.377 . S
C581 C579 1.389 . S
C581 C582 1.524 . S
C582 C581 1.524 . S
C582 C583 1.397 . S
C582 C587 1.363 . S
C583 H554 0.950 . S
C583 C582 1.397 . S
C583 C584 1.334 . S
C584 H555 0.950 . S
C584 C583 1.334 . S
C584 C585 1.287 . S
C585 C584 1.287 . S
C585 C586 1.524 . S
C585 H588 0.999 . S
C586 H556 0.950 . S
C586 C585 1.524 . S
C586 C587 1.415 . S
C587 H557 0.950 . S
C587 C582 1.363 . S
C587 C586 1.415 . S
H588 C585 0.999 . S
H589 C570 0.913 . S
H590 C608 0.951 . S
H591 C610 0.951 . S
H592 C612 0.950 . S
H593 C613 0.950 . S
H594 C615 0.950 . S
H595 C618 0.950 . S
H596 C619 0.950 . S
H597 C621 0.950 . S
H598 C622 0.950 . S
H599 C623 0.951 . S
H600 C625 0.951 . S
H601 C627 0.950 . S
H602 C628 0.950 . S
H603 C630 0.950 . S
H604 C633 0.950 . S
H605 C634 0.950 . S
H606 C636 0.950 . S
H607 C637 0.950 . S
C608 H590 0.951 . S
C608 C609 1.366 . S
C608 C610 1.388 . S
C609 C608 1.366 . S
C609 C613 1.385 . S
C610 H591 0.951 . S
C610 C608 1.388 . S
C610 C611 1.366 . S
C611 C610 1.366 . S
C611 C612 1.414 . S
C611 C614 1.499 . S
C612 H592 0.950 . S
C612 C611 1.414 . S
C612 C613 1.374 . S
C613 H593 0.950 . S
C613 C609 1.385 . S
C613 C612 1.374 . S
C614 C611 1.499 . S
C614 C615 1.373 . S
C614 C616 1.389 . S
C615 H594 0.950 . S
C615 C614 1.373 . S
C615 C631 1.377 . S
C616 C614 1.389 . S
C616 C617 1.524 . S
C616 C630 1.377 . S
C617 C616 1.524 . S
C617 C618 1.397 . S
C617 C622 1.363 . S
C618 H595 0.950 . S
C618 C617 1.397 . S
C618 C619 1.334 . S
C619 H596 0.950 . S
C619 C618 1.334 . S
C619 C620 1.287 . S
C620 C619 1.287 . S
C620 C621 1.524 . S
C620 H639 0.913 . S
C621 H597 0.950 . S
C621 C620 1.524 . S
C621 C622 1.415 . S
C622 H598 0.950 . S
C622 C617 1.363 . S
C622 C621 1.415 . S
C623 H599 0.951 . S
C623 C624 1.366 . S
C623 C625 1.388 . S
C624 C623 1.366 . S
C624 C628 1.385 . S
C625 H600 0.951 . S
C625 C623 1.388 . S
C625 C626 1.366 . S
C626 C625 1.366 . S
C626 C627 1.414 . S
C626 C629 1.499 . S
C627 H601 0.950 . S
C627 C626 1.414 . S
C627 C628 1.374 . S
C628 H602 0.950 . S
C628 C624 1.385 . S
C628 C627 1.374 . S
C629 C626 1.499 . S
C629 C630 1.373 . S
C629 C631 1.389 . S
C630 H603 0.950 . S
C630 C616 1.377 . S
C630 C629 1.373 . S
C631 C615 1.377 . S
C631 C629 1.389 . S
C631 C632 1.524 . S
C632 C631 1.524 . S
C632 C633 1.397 . S
C632 C637 1.363 . S
C633 H604 0.950 . S
C633 C632 1.397 . S
C633 C634 1.334 . S
C634 H605 0.950 . S
C634 C633 1.334 . S
C634 C635 1.287 . S
C635 C634 1.287 . S
C635 C636 1.524 . S
C635 H638 0.999 . S
C636 H606 0.950 . S
C636 C635 1.524 . S
C636 C637 1.415 . S
C637 H607 0.950 . S
C637 C632 1.363 . S
C637 C636 1.415 . S
H638 C635 0.999 . S
H639 C620 0.913 . S
H640 C658 0.951 . S
H641 C660 0.951 . S
H642 C662 0.950 . S
H643 C663 0.950 . S
H644 C665 0.950 . S
H645 C668 0.950 . S
H646 C669 0.950 . S
H647 C671 0.950 . S
H648 C672 0.950 . S
H649 C673 0.951 . S
H650 C675 0.951 . S
H651 C677 0.950 . S
H652 C678 0.950 . S
H653 C680 0.950 . S
H654 C683 0.950 . S
H655 C684 0.950 . S
H656 C686 0.950 . S
H657 C687 0.950 . S
C658 H640 0.951 . S
C658 C659 1.366 . S
C658 C660 1.388 . S
C659 C658 1.366 . S
C659 C663 1.385 . S
C660 H641 0.951 . S
C660 C658 1.388 . S
C660 C661 1.366 . S
C661 C660 1.366 . S
C661 C662 1.414 . S
C661 C664 1.499 . S
C662 H642 0.950 . S
C662 C661 1.414 . S
C662 C663 1.374 . S
C663 H643 0.950 . S
C663 C659 1.385 . S
C663 C662 1.374 . S
C664 C661 1.499 . S
C664 C665 1.373 . S
C664 C666 1.389 . S
C665 H644 0.950 . S
C665 C664 1.373 . S
C665 C681 1.377 . S
C666 C664 1.389 . S
C666 C667 1.524 . S
C666 C680 1.377 . S
C667 C666 1.524 . S
C667 C668 1.397 . S
C667 C672 1.363 . S
C668 H645 0.950 . S
C668 C667 1.397 . S
C668 C669 1.334 . S
C669 H646 0.950 . S
C669 C668 1.334 . S
C669 C670 1.287 . S
C670 C669 1.287 . S
C670 C671 1.524 . S
C670 H689 0.913 . S
C671 H647 0.950 . S
C671 C670 1.524 . S
C671 C672 1.415 . S
C672 H648 0.950 . S
C672 C667 1.363 . S
C672 C671 1.415 . S
C673 H649 0.951 . S
C673 C674 1.366 . S
C673 C675 1.388 . S
C674 C673 1.366 . S
C674 C678 1.385 . S
C675 H650 0.951 . S
C675 C673 1.388 . S
C675 C676 1.366 . S
C676 C675 1.366 . S
C676 C677 1.414 . S
C676 C679 1.499 . S
C677 H651 0.950 . S
C677 C676 1.414 . S
C677 C678 1.374 . S
C678 H652 0.950 . S
C678 C674 1.385 . S
C678 C677 1.374 . S
C679 C676 1.499 . S
C679 C680 1.373 . S
C679 C681 1.389 . S
C680 H653 0.950 . S
C680 C666 1.377 . S
C680 C679 1.373 . S
C681 C665 1.377 . S
C681 C679 1.389 . S
C681 C682 1.524 . S
C682 C681 1.524 . S
C682 C683 1.397 . S
C682 C687 1.363 . S
C683 H654 0.950 . S
C683 C682 1.397 . S
C683 C684 1.334 . S
C684 H655 0.950 . S
C684 C683 1.334 . S
C684 C685 1.287 . S
C685 C684 1.287 . S
C685 C686 1.524 . S
C685 H688 0.999 . S
C686 H656 0.950 . S
C686 C685 1.524 . S
C686 C687 1.415 . S
C687 H657 0.950 . S
C687 C682 1.363 . S
C687 C686 1.415 . S
H688 C685 0.999 . S
H689 C670 0.913 . S
H690 C708 0.951 . S
H691 C710 0.951 . S
H692 C712 0.950 . S
H693 C713 0.950 . S
H694 C715 0.950 . S
H695 C718 0.950 . S
H696 C719 0.950 . S
H697 C721 0.950 . S
H698 C722 0.950 . S
H699 C723 0.951 . S
H700 C725 0.951 . S
H701 C727 0.950 . S
H702 C728 0.950 . S
H703 C730 0.950 . S
H704 C733 0.950 . S
H705 C734 0.950 . S
H706 C736 0.950 . S
H707 C737 0.950 . S
C708 H690 0.951 . S
C708 C709 1.366 . S
C708 C710 1.388 . S
C709 C708 1.366 . S
C709 C713 1.385 . S
C710 H691 0.951 . S
C710 C708 1.388 . S
C710 C711 1.366 . S
C711 C710 1.366 . S
C711 C712 1.414 . S
C711 C714 1.499 . S
C712 H692 0.950 . S
C712 C711 1.414 . S
C712 C713 1.374 . S
C713 H693 0.950 . S
C713 C709 1.385 . S
C713 C712 1.374 . S
C714 C711 1.499 . S
C714 C715 1.373 . S
C714 C716 1.389 . S
C715 H694 0.950 . S
C715 C714 1.373 . S
C715 C731 1.377 . S
C716 C714 1.389 . S
C716 C717 1.524 . S
C716 C730 1.377 . S
C717 C716 1.524 . S
C717 C718 1.397 . S
C717 C722 1.363 . S
C718 H695 0.950 . S
C718 C717 1.397 . S
C718 C719 1.334 . S
C719 H696 0.950 . S
C719 C718 1.334 . S
C719 C720 1.287 . S
C720 C719 1.287 . S
C720 C721 1.524 . S
C720 H739 0.913 . S
C721 H697 0.950 . S
C721 C720 1.524 . S
C721 C722 1.415 . S
C722 H698 0.950 . S
C722 C717 1.363 . S
C722 C721 1.415 . S
C723 H699 0.951 . S
C723 C724 1.366 . S
C723 C725 1.388 . S
C724 C723 1.366 . S
C724 C728 1.385 . S
C725 H700 0.951 . S
C725 C723 1.388 . S
C725 C726 1.366 . S
C726 C725 1.366 . S
C726 C727 1.414 . S
C726 C729 1.499 . S
C727 H701 0.950 . S
C727 C726 1.414 . S
C727 C728 1.374 . S
C728 H702 0.950 . S
C728 C724 1.385 . S
C728 C727 1.374 . S
C729 C726 1.499 . S
C729 C730 1.373 . S
C729 C731 1.389 . S
C730 H703 0.950 . S
C730 C716 1.377 . S
C730 C729 1.373 . S
C731 C715 1.377 . S
C731 C729 1.389 . S
C731 C732 1.524 . S
C732 C731 1.524 . S
C732 C733 1.397 . S
C732 C737 1.363 . S
C733 H704 0.950 . S
C733 C732 1.397 . S
C733 C734 1.334 . S
C734 H705 0.950 . S
C734 C733 1.334 . S
C734 C735 1.287 . S
C735 C734 1.287 . S
C735 C736 1.524 . S
C735 H738 0.999 . S
C736 H706 0.950 . S
C736 C735 1.524 . S
C736 C737 1.415 . S
C737 H707 0.950 . S
C737 C732 1.363 . S
C737 C736 1.415 . S
H738 C735 0.999 . S
H739 C720 0.913 . S
H740 C758 0.951 . S
H741 C760 0.951 . S
H742 C762 0.950 . S
H743 C763 0.950 . S
H744 C765 0.950 . S
H745 C768 0.950 . S
H746 C769 0.950 . S
H747 C771 0.950 . S
H748 C772 0.950 . S
H749 C773 0.951 . S
H750 C775 0.951 . S
H751 C777 0.950 . S
H752 C778 0.950 . S
H753 C780 0.950 . S
H754 C783 0.950 . S
H755 C784 0.950 . S
H756 C786 0.950 . S
H757 C787 0.950 . S
C758 H740 0.951 . S
C758 C759 1.366 . S
C758 C760 1.388 . S
C759 C758 1.366 . S
C759 C763 1.385 . S
C760 H741 0.951 . S
C760 C758 1.388 . S
C760 C761 1.366 . S
C761 C760 1.366 . S
C761 C762 1.414 . S
C761 C764 1.499 . S
C762 H742 0.950 . S
C762 C761 1.414 . S
C762 C763 1.374 . S
C763 H743 0.950 . S
C763 C759 1.385 . S
C763 C762 1.374 . S
C764 C761 1.499 . S
C764 C765 1.373 . S
C764 C766 1.389 . S
C765 H744 0.950 . S
C765 C764 1.373 . S
C765 C781 1.377 . S
C766 C764 1.389 . S
C766 C767 1.524 . S
C766 C780 1.377 . S
C767 C766 1.524 . S
C767 C768 1.397 . S
C767 C772 1.363 . S
C768 H745 0.950 . S
C768 C767 1.397 . S
C768 C769 1.334 . S
C769 H746 0.950 . S
C769 C768 1.334 . S
C769 C770 1.287 . S
C770 C769 1.287 . S
C770 C771 1.524 . S
C770 H789 0.913 . S
C771 H747 0.950 . S
C771 C770 1.524 . S
C771 C772 1.415 . S
C772 H748 0.950 . S
C772 C767 1.363 . S
C772 C771 1.415 . S
C773 H749 0.951 . S
C773 C774 1.366 . S
C773 C775 1.388 . S
C774 C773 1.366 . S
C774 C778 1.385 . S
C775 H750 0.951 . S
C775 C773 1.388 . S
C775 C776 1.366 . S
C776 C775 1.366 . S
C776 C777 1.414 . S
C776 C779 1.499 . S
C777 H751 0.950 . S
C777 C776 1.414 . S
C777 C778 1.374 . S
C778 H752 0.950 . S
C778 C774 1.385 . S
C778 C777 1.374 . S
C779 C776 1.499 . S
C779 C780 1.373 . S
C779 C781 1.389 . S
C780 H753 0.950 . S
C780 C766 1.377 . S
C780 C779 1.373 . S
C781 C765 1.377 . S
C781 C779 1.389 . S
C781 C782 1.524 . S
C782 C781 1.524 . S
C782 C783 1.397 . S
C782 C787 1.363 . S
C783 H754 0.950 . S
C783 C782 1.397 . S
C783 C784 1.334 . S
C784 H755 0.950 . S
C784 C783 1.334 . S
C784 C785 1.287 . S
C785 C784 1.287 . S
C785 C786 1.524 . S
C785 H788 0.999 . S
C786 H756 0.950 . S
C786 C785 1.524 . S
C786 C787 1.415 . S
C787 H757 0.950 . S
C787 C782 1.363 . S
C787 C786 1.415 . S
H788 C785 0.999 . S
H789 C770 0.913 . S
H790 C808 0.951 . S
H791 C810 0.951 . S
H792 C812 0.950 . S
H793 C813 0.950 . S
H794 C815 0.950 . S
H795 C818 0.950 . S
H796 C819 0.950 . S
H797 C821 0.950 . S
H798 C822 0.950 . S
H799 C823 0.951 . S
H800 C825 0.951 . S
H801 C827 0.950 . S
H802 C828 0.950 . S
H803 C830 0.950 . S
H804 C833 0.950 . S
H805 C834 0.950 . S
H806 C836 0.950 . S
H807 C837 0.950 . S
C808 H790 0.951 . S
C808 C809 1.366 . S
C808 C810 1.388 . S
C809 C808 1.366 . S
C809 C813 1.385 . S
C810 H791 0.951 . S
C810 C808 1.388 . S
C810 C811 1.366 . S
C811 C810 1.366 . S
C811 C812 1.414 . S
C811 C814 1.499 . S
C812 H792 0.950 . S
C812 C811 1.414 . S
C812 C813 1.374 . S
C813 H793 0.950 . S
C813 C809 1.385 . S
C813 C812 1.374 . S
C814 C811 1.499 . S
C814 C815 1.373 . S
C814 C816 1.389 . S
C815 H794 0.950 . S
C815 C814 1.373 . S
C815 C831 1.377 . S
C816 C814 1.389 . S
C816 C817 1.524 . S
C816 C830 1.377 . S
C817 C816 1.524 . S
C817 C818 1.397 . S
C817 C822 1.363 . S
C818 H795 0.950 . S
C818 C817 1.397 . S
C818 C819 1.334 . S
C819 H796 0.950 . S
C819 C818 1.334 . S
C819 C820 1.287 . S
C820 C819 1.287 . S
C820 C821 1.524 . S
C820 H839 0.913 . S
C821 H797 0.950 . S
C821 C820 1.524 . S
C821 C822 1.415 . S
C822 H798 0.950 . S
C822 C817 1.363 . S
C822 C821 1.415 . S
C823 H799 0.951 . S
C823 C824 1.366 . S
C823 C825 1.388 . S
C824 C823 1.366 . S
C824 C828 1.385 . S
C825 H800 0.951 . S
C825 C823 1.388 . S
C825 C826 1.366 . S
C826 C825 1.366 . S
C826 C827 1.414 . S
C826 C829 1.499 . S
C827 H801 0.950 . S
C827 C826 1.414 . S
C827 C828 1.374 . S
C828 H802 0.950 . S
C828 C824 1.385 . S
C828 C827 1.374 . S
C829 C826 1.499 . S
C829 C830 1.373 . S
C829 C831 1.389 . S
C830 H803 0.950 . S
C830 C816 1.377 . S
C830 C829 1.373 . S
C831 C815 1.377 . S
C831 C829 1.389 . S
C831 C832 1.524 . S
C832 C831 1.524 . S
C832 C833 1.397 . S
C832 C837 1.363 . S
C833 H804 0.950 . S
C833 C832 1.397 . S
C833 C834 1.334 . S
C834 H805 0.950 . S
C834 C833 1.334 . S
C834 C835 1.287 . S
C835 C834 1.287 . S
C835 C836 1.524 . S
C835 H838 0.999 . S
C836 H806 0.950 . S
C836 C835 1.524 . S
C836 C837 1.415 . S
C837 H807 0.950 . S
C837 C832 1.363 . S
C837 C836 1.415 . S
H838 C835 0.999 . S
H839 C820 0.913 . S
H840 C858 0.951 . S
H841 C860 0.951 . S
H842 C862 0.950 . S
H843 C863 0.950 . S
H844 C865 0.950 . S
H845 C868 0.950 . S
H846 C869 0.950 . S
H847 C871 0.950 . S
H848 C872 0.950 . S
H849 C873 0.951 . S
H850 C875 0.951 . S
H851 C877 0.950 . S
H852 C878 0.950 . S
H853 C880 0.950 . S
H854 C883 0.950 . S
H855 C884 0.950 . S
H856 C886 0.950 . S
H857 C887 0.950 . S
C858 H840 0.951 . S
C858 C859 1.366 . S
C858 C860 1.388 . S
C859 C858 1.366 . S
C859 C863 1.385 . S
C860 H841 0.951 . S
C860 C858 1.388 . S
C860 C861 1.366 . S
C861 C860 1.366 . S
C861 C862 1.414 . S
C861 C864 1.499 . S
C862 H842 0.950 . S
C862 C861 1.414 . S
C862 C863 1.374 . S
C863 H843 0.950 . S
C863 C859 1.385 . S
C863 C862 1.374 . S
C864 C861 1.499 . S
C864 C865 1.373 . S
C864 C866 1.389 . S
C865 H844 0.950 . S
C865 C864 1.373 . S
C865 C881 1.377 . S
C866 C864 1.389 . S
C866 C867 1.524 . S
C866 C880 1.377 . S
C867 C866 1.524 . S
C867 C868 1.397 . S
C867 C872 1.363 . S
C868 H845 0.950 . S
C868 C867 1.397 . S
C868 C869 1.334 . S
C869 H846 0.950 . S
C869 C868 1.334 . S
C869 C870 1.287 . S
C870 C869 1.287 . S
C870 C871 1.524 . S
C870 H889 0.913 . S
C871 H847 0.950 . S
C871 C870 1.524 . S
C871 C872 1.415 . S
C872 H848 0.950 . S
C872 C867 1.363 . S
C872 C871 1.415 . S
C873 H849 0.951 . S
C873 C874 1.366 . S
C873 C875 1.388 . S
C874 C873 1.366 . S
C874 C878 1.385 . S
C875 H850 0.951 . S
C875 C873 1.388 . S
C875 C876 1.366 . S
C876 C875 1.366 . S
C876 C877 1.414 . S
C876 C879 1.499 . S
C877 H851 0.950 . S
C877 C876 1.414 . S
C877 C878 1.374 . S
C878 H852 0.950 . S
C878 C874 1.385 . S
C878 C877 1.374 . S
C879 C876 1.499 . S
C879 C880 1.373 . S
C879 C881 1.389 . S
C880 H853 0.950 . S
C880 C866 1.377 . S
C880 C879 1.373 . S
C881 C865 1.377 . S
C881 C879 1.389 . S
C881 C882 1.524 . S
C882 C881 1.524 . S
C882 C883 1.397 . S
C882 C887 1.363 . S
C883 H854 0.950 . S
C883 C882 1.397 . S
C883 C884 1.334 . S
C884 H855 0.950 . S
C884 C883 1.334 . S
C884 C885 1.287 . S
C885 C884 1.287 . S
C885 C886 1.524 . S
C885 H888 0.999 . S
C886 H856 0.950 . S
C886 C885 1.524 . S
C886 C887 1.415 . S
C887 H857 0.950 . S
C887 C882 1.363 . S
C887 C886 1.415 . S
H888 C885 0.999 . S
H889 C870 0.913 . S
H890 C908 0.951 . S
H891 C910 0.951 . S
H892 C912 0.950 . S
H893 C913 0.950 . S
H894 C915 0.950 . S
H895 C918 0.950 . S
H896 C919 0.950 . S
H897 C921 0.950 . S
H898 C922 0.950 . S
H899 C923 0.951 . S
H900 C925 0.951 . S
H901 C927 0.950 . S
H902 C928 0.950 . S
H903 C930 0.950 . S
H904 C933 0.950 . S
H905 C934 0.950 . S
H906 C936 0.950 . S
H907 C937 0.950 . S
C908 H890 0.951 . S
C908 C909 1.366 . S
C908 C910 1.388 . S
C909 C908 1.366 . S
C909 C913 1.385 . S
C910 H891 0.951 . S
C910 C908 1.388 . S
C910 C911 1.366 . S
C911 C910 1.366 . S
C911 C912 1.414 . S
C911 C914 1.499 . S
C912 H892 0.950 . S
C912 C911 1.414 . S
C912 C913 1.374 . S
C913 H893 0.950 . S
C913 C909 1.385 . S
C913 C912 1.374 . S
C914 C911 1.499 . S
C914 C915 1.373 . S
C914 C916 1.389 . S
C915 H894 0.950 . S
C915 C914 1.373 . S
C915 C931 1.377 . S
C916 C914 1.389 . S
C916 C917 1.524 . S
C916 C930 1.377 . S
C917 C916 1.524 . S
C917 C918 1.397 . S
C917 C922 1.363 . S
C918 H895 0.950 . S
C918 C917 1.397 . S
C918 C919 1.334 . S
C919 H896 0.950 . S
C919 C918 1.334 . S
C919 C920 1.287 . S
C920 C919 1.287 . S
C920 C921 1.524 . S
C920 H939 0.913 . S
C921 H897 0.950 . S
C921 C920 1.524 . S
C921 C922 1.415 . S
C922 H898 0.950 . S
C922 C917 1.363 . S
C922 C921 1.415 . S
C923 H899 0.951 . S
C923 C924 1.366 . S
C923 C925 1.388 . S
C924 C923 1.366 . S
C924 C928 1.385 . S
C925 H900 0.951 . S
C925 C923 1.388 . S
C925 C926 1.366 . S
C926 C925 1.366 . S
C926 C927 1.414 . S
C926 C929 1.499 . S
C927 H901 0.950 . S
C927 C926 1.414 . S
C927 C928 1.374 . S
C928 H902 0.950 . S
C928 C924 1.385 . S
C928 C927 1.374 . S
C929 C926 1.499 . S
C929 C930 1.373 . S
C929 C931 1.389 . S
C930 H903 0.950 . S
C930 C916 1.377 . S
C930 C929 1.373 . S
C931 C915 1.377 . S
C931 C929 1.389 . S
C931 C932 1.524 . S
C932 C931 1.524 . S
C932 C933 1.397 . S
C932 C937 1.363 . S
C933 H904 0.950 . S
C933 C932 1.397 . S
C933 C934 1.334 . S
C934 H905 0.950 . S
C934 C933 1.334 . S
C934 C935 1.287 . S
C935 C934 1.287 . S
C935 C936 1.524 . S
C935 H938 0.999 . S
C936 H906 0.950 . S
C936 C935 1.524 . S
C936 C937 1.415 . S
C937 H907 0.950 . S
C937 C932 1.363 . S
C937 C936 1.415 . S
H938 C935 0.999 . S
H939 C920 0.913 . S
H940 C958 0.951 . S
H941 C960 0.951 . S
H942 C962 0.950 . S
H943 C963 0.950 . S
H944 C965 0.950 . S
H945 C968 0.950 . S
H946 C969 0.950 . S
H947 C971 0.950 . S
H948 C972 0.950 . S
H949 C973 0.951 . S
H950 C975 0.951 . S
H951 C977 0.950 . S
H952 C978 0.950 . S
H953 C980 0.950 . S
H954 C983 0.950 . S
H955 C984 0.950 . S
H956 C986 0.950 . S
H957 C987 0.950 . S
C958 H940 0.951 . S
C958 C959 1.366 . S
C958 C960 1.388 . S
C959 C958 1.366 . S
C959 C963 1.385 . S
C960 H941 0.951 . S
C960 C958 1.388 . S
C960 C961 1.366 . S
C961 C960 1.366 . S
C961 C962 1.414 . S
C961 C964 1.499 . S
C962 H942 0.950 . S
C962 C961 1.414 . S
C962 C963 1.374 . S
C963 H943 0.950 . S
C963 C959 1.385 . S
C963 C962 1.374 . S
C964 C961 1.499 . S
C964 C965 1.373 . S
C964 C966 1.389 . S
C965 H944 0.950 . S
C965 C964 1.373 . S
C965 C981 1.377 . S
C966 C964 1.389 . S
C966 C967 1.524 . S
C966 C980 1.377 . S
C967 C966 1.524 . S
C967 C968 1.397 . S
C967 C972 1.363 . S
C968 H945 0.950 . S
C968 C967 1.397 . S
C968 C969 1.334 . S
C969 H946 0.950 . S
C969 C968 1.334 . S
C969 C970 1.287 . S
C970 C969 1.287 . S
C970 C971 1.524 . S
C970 H989 0.913 . S
C971 H947 0.950 . S
C971 C970 1.524 . S
C971 C972 1.415 . S
C972 H948 0.950 . S
C972 C967 1.363 . S
C972 C971 1.415 . S
C973 H949 0.951 . S
C973 C974 1.366 . S
C973 C975 1.388 . S
C974 C973 1.366 . S
C974 C978 1.385 . S
C975 H950 0.951 . S
C975 C973 1.388 . S
C975 C976 1.366 . S
C976 C975 1.366 . S
C976 C977 1.414 . S
C976 C979 1.499 . S
C977 H951 0.950 . S
C977 C976 1.414 . S
C977 C978 1.374 . S
C978 H952 0.950 . S
C978 C974 1.385 . S
C978 C977 1.374 . S
C979 C976 1.499 . S
C979 C980 1.373 . S
C979 C981 1.389 . S
C980 H953 0.950 . S
C980 C966 1.377 . S
C980 C979 1.373 . S
C981 C965 1.377 . S
C981 C979 1.389 . S
C981 C982 1.524 . S
C982 C981 1.524 . S
C982 C983 1.397 . S
C982 C987 1.363 . S
C983 H954 0.950 . S
C983 C982 1.397 . S
C983 C984 1.334 . S
C984 H955 0.950 . S
C984 C983 1.334 . S
C984 C985 1.287 . S
C985 C984 1.287 . S
C985 C986 1.524 . S
C985 H988 0.999 . S
C986 H956 0.950 . S
C986 C985 1.524 . S
C986 C987 1.415 . S
C987 H957 0.950 . S
C987 C982 1.363 . S
C987 C986 1.415 . S
H988 C985 0.999 . S
H989 C970 0.913 . S
H990 C1008 0.951 . S
H991 C1010 0.951 . S
H992 C1012 0.950 . S
H993 C1013 0.950 . S
H994 C1015 0.950 . S
H995 C1018 0.950 . S
H996 C1019 0.950 . S
H997 C1021 0.950 . S
H998 C1022 0.950 . S
H999 C1023 0.951 . S
H1000 C1025 0.951 . S
H1001 C1027 0.950 . S
H1002 C1028 0.950 . S
H1003 C1030 0.950 . S
H1004 C1033 0.950 . S
H1005 C1034 0.950 . S
H1006 C1036 0.950 . S
H1007 C1037 0.950 . S
C1008 H990 0.951 . S
C1008 C1009 1.366 . S
C1008 C1010 1.388 . S
C1009 C1008 1.366 . S
C1009 C1013 1.385 . S
C1010 H991 0.951 . S
C1010 C1008 1.388 . S
C1010 C1011 1.366 . S
C1011 C1010 1.366 . S
C1011 C1012 1.414 . S
C1011 C1014 1.499 . S
C1012 H992 0.950 . S
C1012 C1011 1.414 . S
C1012 C1013 1.374 . S
C1013 H993 0.950 . S
C1013 C1009 1.385 . S
C1013 C1012 1.374 . S
C1014 C1011 1.499 . S
C1014 C1015 1.373 . S
C1014 C1016 1.389 . S
C1015 H994 0.950 . S
C1015 C1014 1.373 . S
C1015 C1031 1.377 . S
C1016 C1014 1.389 . S
C1016 C1017 1.524 . S
C1016 C1030 1.377 . S
C1017 C1016 1.524 . S
C1017 C1018 1.397 . S
C1017 C1022 1.363 . S
C1018 H995 0.950 . S
C1018 C1017 1.397 . S
C1018 C1019 1.334 . S
C1019 H996 0.950 . S
C1019 C1018 1.334 . S
C1019 C1020 1.287 . S
C1020 C1019 1.287 . S
C1020 C1021 1.524 . S
C1020 H1039 0.913 . S
C1021 H997 0.950 . S
C1021 C1020 1.524 . S
C1021 C1022 1.415 . S
C1022 H998 0.950 . S
C1022 C1017 1.363 . S
C1022 C1021 1.415 . S
C1023 H999 0.951 . S
C1023 C1024 1.366 . S
C1023 C1025 1.388 . S
C1024 C1023 1.366 . S
C1024 C1028 1.385 . S
C1025 H1000 0.951 . S
C1025 C1023 1.388 . S
C1025 C1026 1.366 . S
C1026 C1025 1.366 . S
C1026 C1027 1.414 . S
C1026 C1029 1.499 . S
C1027 H1001 0.950 . S
C1027 C1026 1.414 . S
C1027 C1028 1.374 . S
C1028 H1002 0.950 . S
C1028 C1024 1.385 . S
C1028 C1027 1.374 . S
C1029 C1026 1.499 . S
C1029 C1030 1.373 . S
C1029 C1031 1.389 . S
C1030 H1003 0.950 . S
C1030 C1016 1.377 . S
C1030 C1029 1.373 . S
C1031 C1015 1.377 . S
C1031 C1029 1.389 . S
C1031 C1032 1.524 . S
C1032 C1031 1.524 . S
C1032 C1033 1.397 . S
C1032 C1037 1.363 . S
C1033 H1004 0.950 . S
C1033 C1032 1.397 . S
C1033 C1034 1.334 . S
C1034 H1005 0.950 . S
C1034 C1033 1.334 . S
C1034 C1035 1.287 . S
C1035 C1034 1.287 . S
C1035 C1036 1.524 . S
C1035 H1038 0.999 . S
C1036 H1006 0.950 . S
C1036 C1035 1.524 . S
C1036 C1037 1.415 . S
C1037 H1007 0.950 . S
C1037 C1032 1.363 . S
C1037 C1036 1.415 . S
H1038 C1035 0.999 . S
H1039 C1020 0.913 . S
H1040 C1058 0.951 . S
H1041 C1060 0.951 . S
H1042 C1062 0.950 . S
H1043 C1063 0.950 . S
H1044 C1065 0.950 . S
H1045 C1068 0.950 . S
H1046 C1069 0.950 . S
H1047 C1071 0.950 . S
H1048 C1072 0.950 . S
H1049 C1073 0.951 . S
H1050 C1075 0.951 . S
H1051 C1077 0.950 . S
H1052 C1078 0.950 . S
H1053 C1080 0.950 . S
H1054 C1083 0.950 . S
H1055 C1084 0.950 . S
H1056 C1086 0.950 . S
H1057 C1087 0.950 . S
C1058 H1040 0.951 . S
C1058 C1059 1.366 . S
C1058 C1060 1.388 . S
C1059 C1058 1.366 . S
C1059 C1063 1.385 . S
C1060 H1041 0.951 . S
C1060 C1058 1.388 . S
C1060 C1061 1.366 . S
C1061 C1060 1.366 . S
C1061 C1062 1.414 . S
C1061 C1064 1.499 . S
C1062 H1042 0.950 . S
C1062 C1061 1.414 . S
C1062 C1063 1.374 . S
C1063 H1043 0.950 . S
C1063 C1059 1.385 . S
C1063 C1062 1.374 . S
C1064 C1061 1.499 . S
C1064 C1065 1.373 . S
C1064 C1066 1.389 . S
C1065 H1044 0.950 . S
C1065 C1064 1.373 . S
C1065 C1081 1.377 . S
C1066 C1064 1.389 . S
C1066 C1067 1.524 . S
C1066 C1080 1.377 . S
C1067 C1066 1.524 . S
C1067 C1068 1.397 . S
C1067 C1072 1.363 . S
C1068 H1045 0.950 . S
C1068 C1067 1.397 . S
C1068 C1069 1.334 . S
C1069 H1046 0.950 . S
C1069 C1068 1.334 . S
C1069 C1070 1.287 . S
C1070 C1069 1.287 . S
C1070 C1071 1.524 . S
C1070 H1089 0.913 . S
C1071 H1047 0.950 . S
C1071 C1070 1.524 . S
C1071 C1072 1.415 . S
C1072 H1048 0.950 . S
C1072 C1067 1.363 . S
C1072 C1071 1.415 . S
C1073 H1049 0.951 . S
C1073 C1074 1.366 . S
C1073 C1075 1.388 . S
C1074 C1073 1.366 . S
C1074 C1078 1.385 . S
C1075 H1050 0.951 . S
C1075 C1073 1.388 . S
C1075 C1076 1.366 . S
C1076 C1075 1.366 . S
C1076 C1077 1.414 . S
C1076 C1079 1.499 . S
C1077 H1051 0.950 . S
C1077 C1076 1.414 . S
C1077 C1078 1.374 . S
C1078 H1052 0.950 . S
C1078 C1074 1.385 . S
C1078 C1077 1.374 . S
C1079 C1076 1.499 . S
C1079 C1080 1.373 . S
C1079 C1081 1.389 . S
C1080 H1053 0.950 . S
C1080 C1066 1.377 . S
C1080 C1079 1.373 . S
C1081 C1065 1.377 . S
C1081 C1079 1.389 . S
C1081 C1082 1.524 . S
C1082 C1081 1.524 . S
C1082 C1083 1.397 . S
C1082 C1087 1.363 . S
C1083 H1054 0.950 . S
C1083 C1082 1.397 . S
C1083 C1084 1.334 . S
C1084 H1055 0.950 . S
C1084 C1083 1.334 . S
C1084 C1085 1.287 . S
C1085 C1084 1.287 . S
C1085 C1086 1.524 . S
C1085 H1088 0.999 . S
C1086 H1056 0.950 . S
C1086 C1085 1.524 . S
C1086 C1087 1.415 . S
C1087 H1057 0.950 . S
C1087 C1082 1.363 . S
C1087 C1086 1.415 . S
H1088 C1085 0.999 . S
H1089 C1070 0.913 . S
H1090 C1108 0.951 . S
H1091 C1110 0.951 . S
H1092 C1112 0.950 . S
H1093 C1113 0.950 . S
H1094 C1115 0.950 . S
H1095 C1118 0.950 . S
H1096 C1119 0.950 . S
H1097 C1121 0.950 . S
H1098 C1122 0.950 . S
H1099 C1123 0.951 . S
H1100 C1125 0.951 . S
H1101 C1127 0.950 . S
H1102 C1128 0.950 . S
H1103 C1130 0.950 . S
H1104 C1133 0.950 . S
H1105 C1134 0.950 . S
H1106 C1136 0.950 . S
H1107 C1137 0.950 . S
C1108 H1090 0.951 . S
C1108 C1109 1.366 . S
C1108 C1110 1.388 . S
C1109 C1108 1.366 . S
C1109 C1113 1.385 . S
C1110 H1091 0.951 . S
C1110 C1108 1.388 . S
C1110 C1111 1.366 . S
C1111 C1110 1.366 . S
C1111 C1112 1.414 . S
C1111 C1114 1.499 . S
C1112 H1092 0.950 . S
C1112 C1111 1.414 . S
C1112 C1113 1.374 . S
C1113 H1093 0.950 . S
C1113 C1109 1.385 . S
C1113 C1112 1.374 . S
C1114 C1111 1.499 . S
C1114 C1115 1.373 . S
C1114 C1116 1.389 . S
C1115 H1094 0.950 . S
C1115 C1114 1.373 . S
C1115 C1131 1.377 . S
C1116 C1114 1.389 . S
C1116 C1117 1.524 . S
C1116 C1130 1.377 . S
C1117 C1116 1.524 . S
C1117 C1118 1.397 . S
C1117 C1122 1.363 . S
C1118 H1095 0.950 . S
C1118 C1117 1.397 . S
C1118 C1119 1.334 . S
C1119 H1096 0.950 . S
C1119 C1118 1.334 . S
C1119 C1120 1.287 . S
C1120 C1119 1.287 . S
C1120 C1121 1.524 . S
C1120 H1139 0.913 . S
C1121 H1097 0.950 . S
C1121 C1120 1.524 . S
C1121 C1122 1.415 . S
C1122 H1098 0.950 . S
C1122 C1117 1.363 . S
C1122 C1121 1.415 . S
C1123 H1099 0.951 . S
C1123 C1124 1.366 . S
C1123 C1125 1.388 . S
C1124 C1123 1.366 . S
C1124 C1128 1.385 . S
C1125 H1100 0.951 . S
C1125 C1123 1.388 . S
C1125 C1126 1.366 . S
C1126 C1125 1.366 . S
C1126 C1127 1.414 . S
C1126 C1129 1.499 . S
C1127 H1101 0.950 . S
C1127 C1126 1.414 . S
C1127 C1128 1.374 . S
C1128 H1102 0.950 . S
C1128 C1124 1.385 . S
C1128 C1127 1.374 . S
C1129 C1126 1.499 . S
C1129 C1130 1.373 . S
C1129 C1131 1.389 . S
C1130 H1103 0.950 . S
C1130 C1116 1.377 . S
C1130 C1129 1.373 . S
C1131 C1115 1.377 . S
C1131 C1129 1.389 . S
C1131 C1132 1.524 . S
C1132 C1131 1.524 . S
C1132 C1133 1.397 . S
C1132 C1137 1.363 . S
C1133 H1104 0.950 . S
C1133 C1132 1.397 . S
C1133 C1134 1.334 . S
C1134 H1105 0.950 . S
C1134 C1133 1.334 . S
C1134 C1135 1.287 . S
C1135 C1134 1.287 . S
C1135 C1136 1.524 . S
C1135 H1138 0.999 . S
C1136 H1106 0.950 . S
C1136 C1135 1.524 . S
C1136 C1137 1.415 . S
C1137 H1107 0.950 . S
C1137 C1132 1.363 . S
C1137 C1136 1.415 . S
H1138 C1135 0.999 . S
H1139 C1120 0.913 . S
H1140 C1158 0.951 . S
H1141 C1160 0.951 . S
H1142 C1162 0.950 . S
H1143 C1163 0.950 . S
H1144 C1165 0.950 . S
H1145 C1168 0.950 . S
H1146 C1169 0.950 . S
H1147 C1171 0.950 . S
H1148 C1172 0.950 . S
H1149 C1173 0.951 . S
H1150 C1175 0.951 . S
H1151 C1177 0.950 . S
H1152 C1178 0.950 . S
H1153 C1180 0.950 . S
H1154 C1183 0.950 . S
H1155 C1184 0.950 . S
H1156 C1186 0.950 . S
H1157 C1187 0.950 . S
C1158 H1140 0.951 . S
C1158 C1159 1.366 . S
C1158 C1160 1.388 . S
C1159 C1158 1.366 . S
C1159 C1163 1.385 . S
C1160 H1141 0.951 . S
C1160 C1158 1.388 . S
C1160 C1161 1.366 . S
C1161 C1160 1.366 . S
C1161 C1162 1.414 . S
C1161 C1164 1.499 . S
C1162 H1142 0.950 . S
C1162 C1161 1.414 . S
C1162 C1163 1.374 . S
C1163 H1143 0.950 . S
C1163 C1159 1.385 . S
C1163 C1162 1.374 . S
C1164 C1161 1.499 . S
C1164 C1165 1.373 . S
C1164 C1166 1.389 . S
C1165 H1144 0.950 . S
C1165 C1164 1.373 . S
C1165 C1181 1.377 . S
C1166 C1164 1.389 . S
C1166 C1167 1.524 . S
C1166 C1180 1.377 . S
C1167 C1166 1.524 . S
C1167 C1168 1.397 . S
C1167 C1172 1.363 . S
C1168 H1145 0.950 . S
C1168 C1167 1.397 . S
C1168 C1169 1.334 . S
C1169 H1146 0.950 . S
C1169 C1168 1.334 . S
C1169 C1170 1.287 . S
C1170 C1169 1.287 . S
C1170 C1171 1.524 . S
C1170 H1189 0.913 . S
C1171 H1147 0.950 . S
C1171 C1170 1.524 . S
C1171 C1172 1.415 . S
C1172 H1148 0.950 . S
C1172 C1167 1.363 . S
C1172 C1171 1.415 . S
C1173 H1149 0.951 . S
C1173 C1174 1.366 . S
C1173 C1175 1.388 . S
C1174 C1173 1.366 . S
C1174 C1178 1.385 . S
C1175 H1150 0.951 . S
C1175 C1173 1.388 . S
C1175 C1176 1.366 . S
C1176 C1175 1.366 . S
C1176 C1177 1.414 . S
C1176 C1179 1.499 . S
C1177 H1151 0.950 . S
C1177 C1176 1.414 . S
C1177 C1178 1.374 . S
C1178 H1152 0.950 . S
C1178 C1174 1.385 . S
C1178 C1177 1.374 . S
C1179 C1176 1.499 . S
C1179 C1180 1.373 . S
C1179 C1181 1.389 . S
C1180 H1153 0.950 . S
C1180 C1166 1.377 . S
C1180 C1179 1.373 . S
C1181 C1165 1.377 . S
C1181 C1179 1.389 . S
C1181 C1182 1.524 . S
C1182 C1181 1.524 . S
C1182 C1183 1.397 . S
C1182 C1187 1.363 . S
C1183 H1154 0.950 . S
C1183 C1182 1.397 . S
C1183 C1184 1.334 . S
C1184 H1155 0.950 . S
C1184 C1183 1.334 . S
C1184 C1185 1.287 . S
C1185 C1184 1.287 . S
C1185 C1186 1.524 . S
C1185 H1188 0.999 . S
C1186 H1156 0.950 . S
C1186 C1185 1.524 . S
C1186 C1187 1.415 . S
C1187 H1157 0.950 . S
C1187 C1182 1.363 . S
C1187 C1186 1.415 . S
H1188 C1185 0.999 . S
H1189 C1170 0.913 . S
H1190 C1208 0.951 . S
H1191 C1210 0.951 . S
H1192 C1212 0.950 . S
H1193 C1213 0.950 . S
H1194 C1215 0.950 . S
H1195 C1218 0.950 . S
H1196 C1219 0.950 . S
H1197 C1221 0.950 . S
H1198 C1222 0.950 . S
H1199 C1223 0.951 . S
H1200 C1225 0.951 . S
H1201 C1227 0.950 . S
H1202 C1228 0.950 . S
H1203 C1230 0.950 . S
H1204 C1233 0.950 . S
H1205 C1234 0.950 . S
H1206 C1236 0.950 . S
H1207 C1237 0.950 . S
C1208 H1190 0.951 . S
C1208 C1209 1.366 . S
C1208 C1210 1.388 . S
C1209 C1208 1.366 . S
C1209 C1213 1.385 . S
C1210 H1191 0.951 . S
C1210 C1208 1.388 . S
C1210 C1211 1.366 . S
C1211 C1210 1.366 . S
C1211 C1212 1.414 . S
C1211 C1214 1.499 . S
C1212 H1192 0.950 . S
C1212 C1211 1.414 . S
C1212 C1213 1.374 . S
C1213 H1193 0.950 . S
C1213 C1209 1.385 . S
C1213 C1212 1.374 . S
C1214 C1211 1.499 . S
C1214 C1215 1.373 . S
C1214 C1216 1.389 . S
C1215 H1194 0.950 . S
C1215 C1214 1.373 . S
C1215 C1231 1.377 . S
C1216 C1214 1.389 . S
C1216 C1217 1.524 . S
C1216 C1230 1.377 . S
C1217 C1216 1.524 . S
C1217 C1218 1.397 . S
C1217 C1222 1.363 . S
C1218 H1195 0.950 . S
C1218 C1217 1.397 . S
C1218 C1219 1.334 . S
C1219 H1196 0.950 . S
C1219 C1218 1.334 . S
C1219 C1220 1.287 . S
C1220 C1219 1.287 . S
C1220 C1221 1.524 . S
C1220 H1239 0.913 . S
C1221 H1197 0.950 . S
C1221 C1220 1.524 . S
C1221 C1222 1.415 . S
C1222 H1198 0.950 . S
C1222 C1217 1.363 . S
C1222 C1221 1.415 . S
C1223 H1199 0.951 . S
C1223 C1224 1.366 . S
C1223 C1225 1.388 . S
C1224 C1223 1.366 . S
C1224 C1228 1.385 . S
C1225 H1200 0.951 . S
C1225 C1223 1.388 . S
C1225 C1226 1.366 . S
C1226 C1225 1.366 . S
C1226 C1227 1.414 . S
C1226 C1229 1.499 . S
C1227 H1201 0.950 . S
C1227 C1226 1.414 . S
C1227 C1228 1.374 . S
C1228 H1202 0.950 . S
C1228 C1224 1.385 . S
C1228 C1227 1.374 . S
C1229 C1226 1.499 . S
C1229 C1230 1.373 . S
C1229 C1231 1.389 . S
C1230 H1203 0.950 . S
C1230 C1216 1.377 . S
C1230 C1229 1.373 . S
C1231 C1215 1.377 . S
C1231 C1229 1.389 . S
C1231 C1232 1.524 . S
C1232 C1231 1.524 . S
C1232 C1233 1.397 . S
C1232 C1237 1.363 . S
C1233 H1204 0.950 . S
C1233 C1232 1.397 . S
C1233 C1234 1.334 . S
C1234 H1205 0.950 . S
C1234 C1233 1.334 . S
C1234 C1235 1.287 . S
C1235 C1234 1.287 . S
C1235 C1236 1.524 . S
C1235 H1238 0.999 . S
C1236 H1206 0.950 . S
C1236 C1235 1.524 . S
C1236 C1237 1.415 . S
C1237 H1207 0.950 . S
C1237 C1232 1.363 . S
C1237 C1236 1.415 . S
H1238 C1235 0.999 . S
H1239 C1220 0.913 . S
H1240 C1258 0.951 . S
H1241 C1260 0.951 . S
H1242 C1262 0.950 . S
H1243 C1263 0.950 . S
H1244 C1265 0.950 . S
H1245 C1268 0.950 . S
H1246 C1269 0.950 . S
H1247 C1271 0.950 . S
H1248 C1272 0.950 . S
H1249 C1273 0.951 . S
H1250 C1275 0.951 . S
H1251 C1277 0.950 . S
H1252 C1278 0.950 . S
H1253 C1280 0.950 . S
H1254 C1283 0.950 . S
H1255 C1284 0.950 . S
H1256 C1286 0.950 . S
H1257 C1287 0.950 . S
C1258 H1240 0.951 . S
C1258 C1259 1.366 . S
C1258 C1260 1.388 . S
C1259 C1258 1.366 . S
C1259 C1263 1.385 . S
C1260 H1241 0.951 . S
C1260 C1258 1.388 . S
C1260 C1261 1.366 . S
C1261 C1260 1.366 . S
C1261 C1262 1.414 . S
C1261 C1264 1.499 . S
C1262 H1242 0.950 . S
C1262 C1261 1.414 . S
C1262 C1263 1.374 . S
C1263 H1243 0.950 . S
C1263 C1259 1.385 . S
C1263 C1262 1.374 . S
C1264 C1261 1.499 . S
C1264 C1265 1.373 . S
C1264 C1266 1.389 . S
C1265 H1244 0.950 . S
C1265 C1264 1.373 . S
C1265 C1281 1.377 . S
C1266 C1264 1.389 . S
C1266 C1267 1.524 . S
C1266 C1280 1.377 . S
C1267 C1266 1.524 . S
C1267 C1268 1.397 . S
C1267 C1272 1.363 . S
C1268 H1245 0.950 . S
C1268 C1267 1.397 . S
C1268 C1269 1.334 . S
C1269 H1246 0.950 . S
C1269 C1268 1.334 . S
C1269 C1270 1.287 . S
C1270 C1269 1.287 . S
C1270 C1271 1.524 . S
C1270 H1289 0.913 . S
C1271 H1247 0.950 . S
C1271 C1270 1.524 . S
C1271 C1272 1.415 . S
C1272 H1248 0.950 . S
C1272 C1267 1.363 . S
C1272 C1271 1.415 . S
C1273 H1249 0.951 . S
C1273 C1274 1.366 . S
C1273 C1275 1.388 . S
C1274 C1273 1.366 . S
C1274 C1278 1.385 . S
C1275 H1250 0.951 . S
C1275 C1273 1.388 . S
C1275 C1276 1.366 . S
C1276 C1275 1.366 . S
C1276 C1277 1.414 . S
C1276 C1279 1.499 . S
C1277 H1251 0.950 . S
C1277 C1276 1.414 . S
C1277 C1278 1.374 . S
C1278 H1252 0.950 . S
C1278 C1274 1.385 . S
C1278 C1277 1.374 . S
C1279 C1276 1.499 . S
C1279 C1280 1.373 . S
C1279 C1281 1.389 . S
C1280 H1253 0.950 . S
C1280 C1266 1.377 . S
C1280 C1279 1.373 . S
C1281 C1265 1.377 . S
C1281 C1279 1.389 . S
C1281 C1282 1.524 . S
C1282 C1281 1.524 . S
C1282 C1283 1.397 . S
C1282 C1287 1.363 . S
C1283 H1254 0.950 . S
C1283 C1282 1.397 . S
C1283 C1284 1.334 . S
C1284 H1255 0.950 . S
C1284 C1283 1.334 . S
C1284 C1285 1.287 . S
C1285 C1284 1.287 . S
C1285 C1286 1.524 . S
C1285 H1288 0.999 . S
C1286 H1256 0.950 . S
C1286 C1285 1.524 . S
C1286 C1287 1.415 . S
C1287 H1257 0.950 . S
C1287 C1282 1.363 . S
C1287 C1286 1.415 . S
H1288 C1285 0.999 . S
H1289 C1270 0.913 . S
H1290 C1308 0.951 . S
H1291 C1310 0.951 . S
H1292 C1312 0.950 . S
H1293 C1313 0.950 . S
H1294 C1315 0.950 . S
H1295 C1318 0.950 . S
H1296 C1319 0.950 . S
H1297 C1321 0.950 . S
H1298 C1322 0.950 . S
H1299 C1323 0.951 . S
H1300 C1325 0.951 . S
H1301 C1327 0.950 . S
H1302 C1328 0.950 . S
H1303 C1330 0.950 . S
H1304 C1333 0.950 . S
H1305 C1334 0.950 . S
H1306 C1336 0.950 . S
H1307 C1337 0.950 . S
C1308 H1290 0.951 . S
C1308 C1309 1.366 . S
C1308 C1310 1.388 . S
C1309 C1308 1.366 . S
C1309 C1313 1.385 . S
C1310 H1291 0.951 . S
C1310 C1308 1.388 . S
C1310 C1311 1.366 . S
C1311 C1310 1.366 . S
C1311 C1312 1.414 . S
C1311 C1314 1.499 . S
C1312 H1292 0.950 . S
C1312 C1311 1.414 . S
C1312 C1313 1.374 . S
C1313 H1293 0.950 . S
C1313 C1309 1.385 . S
C1313 C1312 1.374 . S
C1314 C1311 1.499 . S
C1314 C1315 1.373 . S
C1314 C1316 1.389 . S
C1315 H1294 0.950 . S
C1315 C1314 1.373 . S
C1315 C1331 1.377 . S
C1316 C1314 1.389 . S
C1316 C1317 1.524 . S
C1316 C1330 1.377 . S
C1317 C1316 1.524 . S
C1317 C1318 1.397 . S
C1317 C1322 1.363 . S
C1318 H1295 0.950 . S
C1318 C1317 1.397 . S
C1318 C1319 1.334 . S
C1319 H1296 0.950 . S
C1319 C1318 1.334 . S
C1319 C1320 1.287 . S
C1320 C1319 1.287 . S
C1320 C1321 1.524 . S
C1320 H1339 0.913 . S
C1321 H1297 0.950 . S
C1321 C1320 1.524 . S
C1321 C1322 1.415 . S
C1322 H1298 0.950 . S
C1322 C1317 1.363 . S
C1322 C1321 1.415 . S
C1323 H1299 0.951 . S
C1323 C1324 1.366 . S
C1323 C1325 1.388 . S
C1324 C1323 1.366 . S
C1324 C1328 1.385 . S
C1325 H1300 0.951 . S
C1325 C1323 1.388 . S
C1325 C1326 1.366 . S
C1326 C1325 1.366 . S
C1326 C1327 1.414 . S
C1326 C1329 1.499 . S
C1327 H1301 0.950 . S
C1327 C1326 1.414 . S
C1327 C1328 1.374 . S
C1328 H1302 0.950 . S
C1328 C1324 1.385 . S
C1328 C1327 1.374 . S
C1329 C1326 1.499 . S
C1329 C1330 1.373 . S
C1329 C1331 1.389 . S
C1330 H1303 0.950 . S
C1330 C1316 1.377 . S
C1330 C1329 1.373 . S
C1331 C1315 1.377 . S
C1331 C1329 1.389 . S
C1331 C1332 1.524 . S
C1332 C1331 1.524 . S
C1332 C1333 1.397 . S
C1332 C1337 1.363 . S
C1333 H1304 0.950 . S
C1333 C1332 1.397 . S
C1333 C1334 1.334 . S
C1334 H1305 0.950 . S
C1334 C1333 1.334 . S
C1334 C1335 1.287 . S
C1335 C1334 1.287 . S
C1335 C1336 1.524 . S
C1335 H1338 0.999 . S
C1336 H1306 0.950 . S
C1336 C1335 1.524 . S
C1336 C1337 1.415 . S
C1337 H1307 0.950 . S
C1337 C1332 1.363 . S
C1337 C1336 1.415 . S
H1338 C1335 0.999 . S
H1339 C1320 0.913 . S
H1340 C1358 0.951 . S
H1341 C1360 0.951 . S
H1342 C1362 0.950 . S
H1343 C1363 0.950 . S
H1344 C1365 0.950 . S
H1345 C1368 0.950 . S
H1346 C1369 0.950 . S
H1347 C1371 0.950 . S
H1348 C1372 0.950 . S
H1349 C1373 0.951 . S
H1350 C1375 0.951 . S
H1351 C1377 0.950 . S
H1352 C1378 0.950 . S
H1353 C1380 0.950 . S
H1354 C1383 0.950 . S
H1355 C1384 0.950 . S
H1356 C1386 0.950 . S
H1357 C1387 0.950 . S
C1358 H1340 0.951 . S
C1358 C1359 1.366 . S
C1358 C1360 1.388 . S
C1359 C1358 1.366 . S
C1359 C1363 1.385 . S
C1360 H1341 0.951 . S
C1360 C1358 1.388 . S
C1360 C1361 1.366 . S
C1361 C1360 1.366 . S
C1361 C1362 1.414 . S
C1361 C1364 1.499 . S
C1362 H1342 0.950 . S
C1362 C1361 1.414 . S
C1362 C1363 1.374 . S
C1363 H1343 0.950 . S
C1363 C1359 1.385 . S
C1363 C1362 1.374 . S
C1364 C1361 1.499 . S
C1364 C1365 1.373 . S
C1364 C1366 1.389 . S
C1365 H1344 0.950 . S
C1365 C1364 1.373 . S
C1365 C1381 1.377 . S
C1366 C1364 1.389 . S
C1366 C1367 1.524 . S
C1366 C1380 1.377 . S
C1367 C1366 1.524 . S
C1367 C1368 1.397 . S
C1367 C1372 1.363 . S
C1368 H1345 0.950 . S
C1368 C1367 1.397 . S
C1368 C1369 1.334 . S
C1369 H1346 0.950 . S
C1369 C1368 1.334 . S
C1369 C1370 1.287 . S
C1370 C1369 1.287 . S
C1370 C1371 1.524 . S
C1370 H1389 0.913 . S
C1371 H1347 0.950 . S
C1371 C1370 1.524 . S
C1371 C1372 1.415 . S
C1372 H1348 0.950 . S
C1372 C1367 1.363 . S
C1372 C1371 1.415 . S
C1373 H1349 0.951 . S
C1373 C1374 1.366 . S
C1373 C1375 1.388 . S
C1374 C1373 1.366 . S
C1374 C1378 1.385 . S
C1375 H1350 0.951 . S
C1375 C1373 1.388 . S
C1375 C1376 1.366 . S
C1376 C1375 1.366 . S
C1376 C1377 1.414 . S
C1376 C1379 1.499 . S
C1377 H1351 0.950 . S
C1377 C1376 1.414 . S
C1377 C1378 1.374 . S
C1378 H1352 0.950 . S
C1378 C1374 1.385 . S
C1378 C1377 1.374 . S
C1379 C1376 1.499 . S
C1379 C1380 1.373 . S
C1379 C1381 1.389 . S
C1380 H1353 0.950 . S
C1380 C1366 1.377 . S
C1380 C1379 1.373 . S
C1381 C1365 1.377 . S
C1381 C1379 1.389 . S
C1381 C1382 1.524 . S
C1382 C1381 1.524 . S
C1382 C1383 1.397 . S
C1382 C1387 1.363 . S
C1383 H1354 0.950 . S
C1383 C1382 1.397 . S
C1383 C1384 1.334 . S
C1384 H1355 0.950 . S
C1384 C1383 1.334 . S
C1384 C1385 1.287 . S
C1385 C1384 1.287 . S
C1385 C1386 1.524 . S
C1385 H1388 0.999 . S
C1386 H1356 0.950 . S
C1386 C1385 1.524 . S
C1386 C1387 1.415 . S
C1387 H1357 0.950 . S
C1387 C1382 1.363 . S
C1387 C1386 1.415 . S
H1388 C1385 0.999 . S
H1389 C1370 0.913 . S
H1390 C1408 0.951 . S
H1391 C1410 0.951 . S
H1392 C1412 0.950 . S
H1393 C1413 0.950 . S
H1394 C1415 0.950 . S
H1395 C1418 0.950 . S
H1396 C1419 0.950 . S
H1397 C1421 0.950 . S
H1398 C1422 0.950 . S
H1399 C1423 0.951 . S
H1400 C1425 0.951 . S
H1401 C1427 0.950 . S
H1402 C1428 0.950 . S
H1403 C1430 0.950 . S
H1404 C1433 0.950 . S
H1405 C1434 0.950 . S
H1406 C1436 0.950 . S
H1407 C1437 0.950 . S
C1408 H1390 0.951 . S
C1408 C1409 1.366 . S
C1408 C1410 1.388 . S
C1409 C1408 1.366 . S
C1409 C1413 1.385 . S
C1410 H1391 0.951 . S
C1410 C1408 1.388 . S
C1410 C1411 1.366 . S
C1411 C1410 1.366 . S
C1411 C1412 1.414 . S
C1411 C1414 1.499 . S
C1412 H1392 0.950 . S
C1412 C1411 1.414 . S
C1412 C1413 1.374 . S
C1413 H1393 0.950 . S
C1413 C1409 1.385 . S
C1413 C1412 1.374 . S
C1414 C1411 1.499 . S
C1414 C1415 1.373 . S
C1414 C1416 1.389 . S
C1415 H1394 0.950 . S
C1415 C1414 1.373 . S
C1415 C1431 1.377 . S
C1416 C1414 1.389 . S
C1416 C1417 1.524 . S
C1416 C1430 1.377 . S
C1417 C1416 1.524 . S
C1417 C1418 1.397 . S
C1417 C1422 1.363 . S
C1418 H1395 0.950 . S
C1418 C1417 1.397 . S
C1418 C1419 1.334 . S
C1419 H1396 0.950 . S
C1419 C1418 1.334 . S
C1419 C1420 1.287 . S
C1420 C1419 1.287 . S
C1420 C1421 1.524 . S
C1420 H1439 0.913 . S
C1421 H1397 0.950 . S
C1421 C1420 1.524 . S
C1421 C1422 1.415 . S
C1422 H1398 0.950 . S
C1422 C1417 1.363 . S
C1422 C1421 1.415 . S
C1423 H1399 0.951 . S
C1423 C1424 1.366 . S
C1423 C1425 1.388 . S
C1424 C1423 1.366 . S
C1424 C1428 1.385 . S
C1425 H1400 0.951 . S
C1425 C1423 1.388 . S
C1425 C1426 1.366 . S
C1426 C1425 1.366 . S
C1426 C1427 1.414 . S
C1426 C1429 1.499 . S
C1427 H1401 0.950 . S
C1427 C1426 1.414 . S
C1427 C1428 1.374 . S
C1428 H1402 0.950 . S
C1428 C1424 1.385 . S
C1428 C1427 1.374 . S
C1429 C1426 1.499 . S
C1429 C1430 1.373 . S
C1429 C1431 1.389 . S
C1430 H1403 0.950 . S
C1430 C1416 1.377 . S
C1430 C1429 1.373 . S
C1431 C1415 1.377 . S
C1431 C1429 1.389 . S
C1431 C1432 1.524 . S
C1432 C1431 1.524 . S
C1432 C1433 1.397 . S
C1432 C1437 1.363 . S
C1433 H1404 0.950 . S
C1433 C1432 1.397 . S
C1433 C1434 1.334 . S
C1434 H1405 0.950 . S
C1434 C1433 1.334 . S
C1434 C1435 1.287 . S
C1435 C1434 1.287 . S
C1435 C1436 1.524 . S
C1435 H1438 0.999 . S
C1436 H1406 0.950 . S
C1436 C1435 1.524 . S
C1436 C1437 1.415 . S
C1437 H1407 0.950 . S
C1437 C1432 1.363 . S
C1437 C1436 1.415 . S
H1438 C1435 0.999 . S
H1439 C1420 0.913 . S
H1440 C1458 0.951 . S
H1441 C1460 0.951 . S
H1442 C1462 0.950 . S
H1443 C1463 0.950 . S
H1444 C1465 0.950 . S
H1445 C1468 0.950 . S
H1446 C1469 0.950 . S
H1447 C1471 0.950 . S
H1448 C1472 0.950 . S
H1449 C1473 0.951 . S
H1450 C1475 0.951 . S
H1451 C1477 0.950 . S
H1452 C1478 0.950 . S
H1453 C1480 0.950 . S
H1454 C1483 0.950 . S
H1455 C1484 0.950 . S
H1456 C1486 0.950 . S
H1457 C1487 0.950 . S
C1458 H1440 0.951 . S
C1458 C1459 1.366 . S
C1458 C1460 1.388 . S
C1459 C1458 1.366 . S
C1459 C1463 1.385 . S
C1460 H1441 0.951 . S
C1460 C1458 1.388 . S
C1460 C1461 1.366 . S
C1461 C1460 1.366 . S
C1461 C1462 1.414 . S
C1461 C1464 1.499 . S
C1462 H1442 0.950 . S
C1462 C1461 1.414 . S
C1462 C1463 1.374 . S
C1463 H1443 0.950 . S
C1463 C1459 1.385 . S
C1463 C1462 1.374 . S
C1464 C1461 1.499 . S
C1464 C1465 1.373 . S
C1464 C1466 1.389 . S
C1465 H1444 0.950 . S
C1465 C1464 1.373 . S
C1465 C1481 1.377 . S
C1466 C1464 1.389 . S
C1466 C1467 1.524 . S
C1466 C1480 1.377 . S
C1467 C1466 1.524 . S
C1467 C1468 1.397 . S
C1467 C1472 1.363 . S
C1468 H1445 0.950 . S
C1468 C1467 1.397 . S
C1468 C1469 1.334 . S
C1469 H1446 0.950 . S
C1469 C1468 1.334 . S
C1469 C1470 1.287 . S
C1470 C1469 1.287 . S
C1470 C1471 1.524 . S
C1470 H1489 0.913 . S
C1471 H1447 0.950 . S
C1471 C1470 1.524 . S
C1471 C1472 1.415 . S
C1472 H1448 0.950 . S
C1472 C1467 1.363 . S
C1472 C1471 1.415 . S
C1473 H1449 0.951 . S
C1473 C1474 1.366 . S
C1473 C1475 1.388 . S
C1474 C1473 1.366 . S
C1474 C1478 1.385 . S
C1475 H1450 0.951 . S
C1475 C1473 1.388 . S
C1475 C1476 1.366 . S
C1476 C1475 1.366 . S
C1476 C1477 1.414 . S
C1476 C1479 1.499 . S
C1477 H1451 0.950 . S
C1477 C1476 1.414 . S
C1477 C1478 1.374 . S
C1478 H1452 0.950 . S
C1478 C1474 1.385 . S
C1478 C1477 1.374 . S
C1479 C1476 1.499 . S
C1479 C1480 1.373 . S
C1479 C1481 1.389 . S
C1480 H1453 0.950 . S
C1480 C1466 1.377 . S
C1480 C1479 1.373 . S
C1481 C1465 1.377 . S
C1481 C1479 1.389 . S
C1481 C1482 1.524 . S
C1482 C1481 1.524 . S
C1482 C1483 1.397 . S
C1482 C1487 1.363 . S
C1483 H1454 0.950 . S
C1483 C1482 1.397 . S
C1483 C1484 1.334 . S
C1484 H1455 0.950 . S
C1484 C1483 1.334 . S
C1484 C1485 1.287 . S
C1485 C1484 1.287 . S
C1485 C1486 1.524 . S
C1485 H1488 0.999 . S
C1486 H1456 0.950 . S
C1486 C1485 1.524 . S
C1486 C1487 1.415 . S
C1487 H1457 0.950 . S
C1487 C1482 1.363 . S
C1487 C1486 1.415 . S
H1488 C1485 0.999 . S
H1489 C1470 0.913 . S
H1490 C1508 0.951 . S
H1491 C1510 0.951 . S
H1492 C1512 0.950 . S
H1493 C1513 0.950 . S
H1494 C1515 0.950 . S
H1495 C1518 0.950 . S
H1496 C1519 0.950 . S
H1497 C1521 0.950 . S
H1498 C1522 0.950 . S
H1499 C1523 0.951 . S
H1500 C1525 0.951 . S
H1501 C1527 0.950 . S
H1502 C1528 0.950 . S
H1503 C1530 0.950 . S
H1504 C1533 0.950 . S
H1505 C1534 0.950 . S
H1506 C1536 0.950 . S
H1507 C1537 0.950 . S
C1508 H1490 0.951 . S
C1508 C1509 1.366 . S
C1508 C1510 1.388 . S
C1509 C1508 1.366 . S
C1509 C1513 1.385 . S
C1510 H1491 0.951 . S
C1510 C1508 1.388 . S
C1510 C1511 1.366 . S
C1511 C1510 1.366 . S
C1511 C1512 1.414 . S
C1511 C1514 1.499 . S
C1512 H1492 0.950 . S
C1512 C1511 1.414 . S
C1512 C1513 1.374 . S
C1513 H1493 0.950 . S
C1513 C1509 1.385 . S
C1513 C1512 1.374 . S
C1514 C1511 1.499 . S
C1514 C1515 1.373 . S
C1514 C1516 1.389 . S
C1515 H1494 0.950 . S
C1515 C1514 1.373 . S
C1515 C1531 1.377 . S
C1516 C1514 1.389 . S
C1516 C1517 1.524 . S
C1516 C1530 1.377 . S
C1517 C1516 1.524 . S
C1517 C1518 1.397 . S
C1517 C1522 1.363 . S
C1518 H1495 0.950 . S
C1518 C1517 1.397 . S
C1518 C1519 1.334 . S
C1519 H1496 0.950 . S
C1519 C1518 1.334 . S
C1519 C1520 1.287 . S
C1520 C1519 1.287 . S
C1520 C1521 1.524 . S
C1520 H1539 0.913 . S
C1521 H1497 0.950 . S
C1521 C1520 1.524 . S
C1521 C1522 1.415 . S
C1522 H1498 0.950 . S
C1522 C1517 1.363 . S
C1522 C1521 1.415 . S
C1523 H1499 0.951 . S
C1523 C1524 1.366 . S
C1523 C1525 1.388 . S
C1524 C1523 1.366 . S
C1524 C1528 1.385 . S
C1525 H1500 0.951 . S
C1525 C1523 1.388 . S
C1525 C1526 1.366 . S
C1526 C1525 1.366 . S
C1526 C1527 1.414 . S
C1526 C1529 1.499 . S
C1527 H1501 0.950 . S
C1527 C1526 1.414 . S
C1527 C1528 1.374 . S
C1528 H1502 0.950 . S
C1528 C1524 1.385 . S
C1528 C1527 1.374 . S
C1529 C1526 1.499 . S
C1529 C1530 1.373 . S
C1529 C1531 1.389 . S
C1530 H1503 0.950 . S
C1530 C1516 1.377 . S
C1530 C1529 1.373 . S
C1531 C1515 1.377 . S
C1531 C1529 1.389 . S
C1531 C1532 1.524 . S
C1532 C1531 1.524 . S
C1532 C1533 1.397 . S
C1532 C1537 1.363 . S
C1533 H1504 0.950 . S
C1533 C1532 1.397 . S
C1533 C1534 1.334 . S
C1534 H1505 0.950 . S
C1534 C1533 1.334 . S
C1534 C1535 1.287 . S
C1535 C1534 1.287 . S
C1535 C1536 1.524 . S
C1535 H1538 0.999 . S
C1536 H1506 0.950 . S
C1536 C1535 1.524 . S
C1536 C1537 1.415 . S
C1537 H1507 0.950 . S
C1537 C1532 1.363 . S
C1537 C1536 1.415 . S
H1538 C1535 0.999 . S
H1539 C1520 0.913 . S
C374 C268 1.513 . S
C359 C23 1.495 . S
C424 C271 1.502 . S
C409 C49 1.485 . S
C474 C269 1.508 . S
C459 C87 1.478 . S
C524 C270 1.513 . S
C509 C125 1.479 . S
C574 C285 1.511 . S
C559 C29 1.486 . S
C624 C299 1.502 . S
C609 C61 1.475 . S
C659 C81 1.474 . S
C674 C325 1.503 . S
C724 C339 1.505 . S
C709 C113 1.484 . S
C774 C284 1.493 . S
C759 C55 1.471 . S
C809 C93 1.481 . S
C824 C298 1.515 . S
C874 C324 1.498 . S
C859 C119 1.471 . S
C924 C338 1.512 . S
C909 C17 1.494 . S
C959 C151 1.479 . S
C974 C283 1.513 . S
C1024 C256 1.502 . S
C1009 C177 1.476 . S
C1059 C215 1.490 . S
C1074 C282 1.508 . S
C1109 C253 1.486 . S
C1124 C257 1.513 . S
C1174 C312 1.511 . S
C1159 C157 1.472 . S
C1224 C326 1.502 . S
C1209 C189 1.470 . S
C1274 C296 1.502 . S
C1259 C209 1.485 . S
C1309 C241 1.484 . S
C1324 C310 1.505 . S
C1374 C313 1.493 . S
C1359 C183 1.464 . S
C1424 C327 1.515 . S
C1409 C221 1.489 . S
C1474 C297 1.499 . S
C1459 C247 1.475 . S
C1509 C145 1.484 . S
C1524 C311 1.512 . S
