# Generated by pormake.
# Topology llk, (3,12)-cn, num edge types: 1
# Building blocks:
#     Node 0, Type 0, BuildingBlock: BELTOD_clean_linker_0, # of connection points: 3
#     Node 1, Type 0, BuildingBlock: BELTOD_clean_linker_0, # of connection points: 3
#     Node 2, Type 0, BuildingBlock: BELTOD_clean_linker_0, # of connection points: 3
#     Node 3, Type 0, BuildingBlock: BELTOD_clean_linker_0, # of connection points: 3
#     Node 4, Type 0, BuildingBlock: BELTOD_clean_linker_0, # of connection points: 3
#     Node 5, Type 0, BuildingBlock: BELTOD_clean_linker_0, # of connection points: 3
#     Node 6, Type 0, BuildingBlock: BELTOD_clean_linker_0, # of connection points: 3
#     Node 7, Type 0, BuildingBlock: BELTOD_clean_linker_0, # of connection points: 3
#     Node 8, Type 0, BuildingBlock: BELTOD_clean_linker_0, # of connection points: 3
#     Node 9, Type 0, BuildingBlock: BELTOD_clean_linker_0, # of connection points: 3
#     Node 10, Type 0, BuildingBlock: BELTOD_clean_linker_0, # of connection points: 3
#     Node 11, Type 0, BuildingBlock: BELTOD_clean_linker_0, # of connection points: 3
#     Node 12, Type 0, BuildingBlock: BELTOD_clean_linker_0, # of connection points: 3
#     Node 13, Type 0, BuildingBlock: BELTOD_clean_linker_0, # of connection points: 3
#     Node 14, Type 0, BuildingBlock: BELTOD_clean_linker_0, # of connection points: 3
#     Node 15, Type 0, BuildingBlock: BELTOD_clean_linker_0, # of connection points: 3
#     Node 16, Type 0, BuildingBlock: BELTOD_clean_linker_0, # of connection points: 3
#     Node 17, Type 0, BuildingBlock: BELTOD_clean_linker_0, # of connection points: 3
#     Node 18, Type 0, BuildingBlock: BELTOD_clean_linker_0, # of connection points: 3
#     Node 19, Type 0, BuildingBlock: BELTOD_clean_linker_0, # of connection points: 3
#     Node 20, Type 0, BuildingBlock: BELTOD_clean_linker_0, # of connection points: 3
#     Node 21, Type 0, BuildingBlock: BELTOD_clean_linker_0, # of connection points: 3
#     Node 22, Type 0, BuildingBlock: BELTOD_clean_linker_0, # of connection points: 3
#     Node 23, Type 0, BuildingBlock: BELTOD_clean_linker_0, # of connection points: 3
#     Node 24, Type 1, BuildingBlock: QEWDON_clean_sbu_0, # of connection points: 12
#     Node 25, Type 1, BuildingBlock: QEWDON_clean_sbu_0, # of connection points: 12
#     Node 26, Type 1, BuildingBlock: QEWDON_clean_sbu_0, # of connection points: 12
#     Node 27, Type 1, BuildingBlock: QEWDON_clean_sbu_0, # of connection points: 12
#     Node 28, Type 1, BuildingBlock: QEWDON_clean_sbu_0, # of connection points: 12
#     Node 29, Type 1, BuildingBlock: QEWDON_clean_sbu_0, # of connection points: 12
#     Edge 30, Type (0, 1), BuildingBlock: UVAHIK_clean_linker_0, # of connection points: 2
#     Edge 31, Type (0, 1), BuildingBlock: UVAHIK_clean_linker_0, # of connection points: 2
#     Edge 32, Type (0, 1), BuildingBlock: UVAHIK_clean_linker_0, # of connection points: 2
#     Edge 33, Type (0, 1), BuildingBlock: UVAHIK_clean_linker_0, # of connection points: 2
#     Edge 34, Type (0, 1), BuildingBlock: UVAHIK_clean_linker_0, # of connection points: 2
#     Edge 35, Type (0, 1), BuildingBlock: UVAHIK_clean_linker_0, # of connection points: 2
#     Edge 36, Type (0, 1), BuildingBlock: UVAHIK_clean_linker_0, # of connection points: 2
#     Edge 37, Type (0, 1), BuildingBlock: UVAHIK_clean_linker_0, # of connection points: 2
#     Edge 38, Type (0, 1), BuildingBlock: UVAHIK_clean_linker_0, # of connection points: 2
#     Edge 39, Type (0, 1), BuildingBlock: UVAHIK_clean_linker_0, # of connection points: 2
#     Edge 40, Type (0, 1), BuildingBlock: UVAHIK_clean_linker_0, # of connection points: 2
#     Edge 41, Type (0, 1), BuildingBlock: UVAHIK_clean_linker_0, # of connection points: 2
#     Edge 42, Type (0, 1), BuildingBlock: UVAHIK_clean_linker_0, # of connection points: 2
#     Edge 43, Type (0, 1), BuildingBlock: UVAHIK_clean_linker_0, # of connection points: 2
#     Edge 44, Type (0, 1), BuildingBlock: UVAHIK_clean_linker_0, # of connection points: 2
#     Edge 45, Type (0, 1), BuildingBlock: UVAHIK_clean_linker_0, # of connection points: 2
#     Edge 46, Type (0, 1), BuildingBlock: UVAHIK_clean_linker_0, # of connection points: 2
#     Edge 47, Type (0, 1), BuildingBlock: UVAHIK_clean_linker_0, # of connection points: 2
#     Edge 48, Type (0, 1), BuildingBlock: UVAHIK_clean_linker_0, # of connection points: 2
#     Edge 49, Type (0, 1), BuildingBlock: UVAHIK_clean_linker_0, # of connection points: 2
#     Edge 50, Type (0, 1), BuildingBlock: UVAHIK_clean_linker_0, # of connection points: 2
#     Edge 51, Type (0, 1), BuildingBlock: UVAHIK_clean_linker_0, # of connection points: 2
#     Edge 52, Type (0, 1), BuildingBlock: UVAHIK_clean_linker_0, # of connection points: 2
#     Edge 53, Type (0, 1), BuildingBlock: UVAHIK_clean_linker_0, # of connection points: 2
#     Edge 54, Type (0, 1), BuildingBlock: UVAHIK_clean_linker_0, # of connection points: 2
#     Edge 55, Type (0, 1), BuildingBlock: UVAHIK_clean_linker_0, # of connection points: 2
#     Edge 56, Type (0, 1), BuildingBlock: UVAHIK_clean_linker_0, # of connection points: 2
#     Edge 57, Type (0, 1), BuildingBlock: UVAHIK_clean_linker_0, # of connection points: 2
#     Edge 58, Type (0, 1), BuildingBlock: UVAHIK_clean_linker_0, # of connection points: 2
#     Edge 59, Type (0, 1), BuildingBlock: UVAHIK_clean_linker_0, # of connection points: 2
#     Edge 60, Type (0, 1), BuildingBlock: UVAHIK_clean_linker_0, # of connection points: 2
#     Edge 61, Type (0, 1), BuildingBlock: UVAHIK_clean_linker_0, # of connection points: 2
#     Edge 62, Type (0, 1), BuildingBlock: UVAHIK_clean_linker_0, # of connection points: 2
#     Edge 63, Type (0, 1), BuildingBlock: UVAHIK_clean_linker_0, # of connection points: 2
#     Edge 64, Type (0, 1), BuildingBlock: UVAHIK_clean_linker_0, # of connection points: 2
#     Edge 65, Type (0, 1), BuildingBlock: UVAHIK_clean_linker_0, # of connection points: 2
#     Edge 66, Type (0, 1), BuildingBlock: UVAHIK_clean_linker_0, # of connection points: 2
#     Edge 67, Type (0, 1), BuildingBlock: UVAHIK_clean_linker_0, # of connection points: 2
#     Edge 68, Type (0, 1), BuildingBlock: UVAHIK_clean_linker_0, # of connection points: 2
#     Edge 69, Type (0, 1), BuildingBlock: UVAHIK_clean_linker_0, # of connection points: 2
#     Edge 70, Type (0, 1), BuildingBlock: UVAHIK_clean_linker_0, # of connection points: 2
#     Edge 71, Type (0, 1), BuildingBlock: UVAHIK_clean_linker_0, # of connection points: 2
#     Edge 72, Type (0, 1), BuildingBlock: UVAHIK_clean_linker_0, # of connection points: 2
#     Edge 73, Type (0, 1), BuildingBlock: UVAHIK_clean_linker_0, # of connection points: 2
#     Edge 74, Type (0, 1), BuildingBlock: UVAHIK_clean_linker_0, # of connection points: 2
#     Edge 75, Type (0, 1), BuildingBlock: UVAHIK_clean_linker_0, # of connection points: 2
#     Edge 76, Type (0, 1), BuildingBlock: UVAHIK_clean_linker_0, # of connection points: 2
#     Edge 77, Type (0, 1), BuildingBlock: UVAHIK_clean_linker_0, # of connection points: 2
#     Edge 78, Type (0, 1), BuildingBlock: UVAHIK_clean_linker_0, # of connection points: 2
#     Edge 79, Type (0, 1), BuildingBlock: UVAHIK_clean_linker_0, # of connection points: 2
#     Edge 80, Type (0, 1), BuildingBlock: UVAHIK_clean_linker_0, # of connection points: 2
#     Edge 81, Type (0, 1), BuildingBlock: UVAHIK_clean_linker_0, # of connection points: 2
#     Edge 82, Type (0, 1), BuildingBlock: UVAHIK_clean_linker_0, # of connection points: 2
#     Edge 83, Type (0, 1), BuildingBlock: UVAHIK_clean_linker_0, # of connection points: 2
#     Edge 84, Type (0, 1), BuildingBlock: UVAHIK_clean_linker_0, # of connection points: 2
#     Edge 85, Type (0, 1), BuildingBlock: UVAHIK_clean_linker_0, # of connection points: 2
#     Edge 86, Type (0, 1), BuildingBlock: UVAHIK_clean_linker_0, # of connection points: 2
#     Edge 87, Type (0, 1), BuildingBlock: UVAHIK_clean_linker_0, # of connection points: 2
#     Edge 88, Type (0, 1), BuildingBlock: UVAHIK_clean_linker_0, # of connection points: 2
#     Edge 89, Type (0, 1), BuildingBlock: UVAHIK_clean_linker_0, # of connection points: 2
#     Edge 90, Type (0, 1), BuildingBlock: UVAHIK_clean_linker_0, # of connection points: 2
#     Edge 91, Type (0, 1), BuildingBlock: UVAHIK_clean_linker_0, # of connection points: 2
#     Edge 92, Type (0, 1), BuildingBlock: UVAHIK_clean_linker_0, # of connection points: 2
#     Edge 93, Type (0, 1), BuildingBlock: UVAHIK_clean_linker_0, # of connection points: 2
#     Edge 94, Type (0, 1), BuildingBlock: UVAHIK_clean_linker_0, # of connection points: 2
#     Edge 95, Type (0, 1), BuildingBlock: UVAHIK_clean_linker_0, # of connection points: 2
#     Edge 96, Type (0, 1), BuildingBlock: UVAHIK_clean_linker_0, # of connection points: 2
#     Edge 97, Type (0, 1), BuildingBlock: UVAHIK_clean_linker_0, # of connection points: 2
#     Edge 98, Type (0, 1), BuildingBlock: UVAHIK_clean_linker_0, # of connection points: 2
#     Edge 99, Type (0, 1), BuildingBlock: UVAHIK_clean_linker_0, # of connection points: 2
#     Edge 100, Type (0, 1), BuildingBlock: UVAHIK_clean_linker_0, # of connection points: 2
#     Edge 101, Type (0, 1), BuildingBlock: UVAHIK_clean_linker_0, # of connection points: 2
# Relax obj value: 0.119
# Max RMSD: 0.148
# Mean RMSD: 0.135
data_MOF--net-llk--node1-QEWDON_clean_sbu_0--node2-BELTOD_clean_linker_0--edge1-UVAHIK_clean_linker_0
_symmetry_space_group_name_H-M    P1
_symmetry_Int_Tables_number       1
_symmetry_cell_setting            triclinic
loop_
_symmetry_equiv_pos_as_xyz
'x, y, z'
_cell_length_a     64.187001
_cell_length_b     66.389308
_cell_length_c     64.902355
_cell_angle_alpha  90.011001
_cell_angle_beta   89.999658
_cell_angle_gamma 89.634161
loop_
_atom_site_label
_atom_site_type_symbol
_atom_site_fract_x
_atom_site_fract_y
_atom_site_fract_z
_atom_type_partial_charge
P0 P 0.00197 0.26743 0.26038 0.0
H1 H 0.98283 0.26443 0.21975 0.0
H2 H 0.98833 0.2836 0.18811 0.0
H3 H 0.0442 0.30912 0.21407 0.0
H4 H 0.03872 0.28966 0.24568 0.0
H5 H 0.98012 0.22995 0.26923 0.0
H6 H -0.00905 0.19944 0.28722 0.0
H7 H 0.0546 0.2199 0.28694 0.0
H8 H 0.04375 0.25043 0.26813 0.0
H9 H -0.00279 0.31091 0.26158 0.0
H10 H 0.02155 0.26467 0.30183 0.0
O11 O 0.97596 0.26722 0.26038 0.0
H12 H 0.00574 0.33641 0.28724 0.0
H13 H 0.03112 0.2901 0.32695 0.0
C14 C 0.0101 0.27596 0.23524 0.0
C15 C -0.00342 0.2737 0.21846 0.0
C16 C -0.00033 0.28478 0.20041 0.0
C17 C 0.01642 0.29824 0.19878 0.0
C18 C 0.03112 0.29893 0.21486 0.0
C19 C 0.02799 0.28781 0.23296 0.0
C20 C 0.01111 0.2426 0.2675 0.0
C21 C -0.00347 0.22767 0.27233 0.0
C22 C 0.00272 0.21018 0.28265 0.0
C23 C 0.02356 0.20744 0.28861 0.0
C24 C 0.03842 0.22174 0.28256 0.0
C25 C 0.03227 0.23907 0.27171 0.0
C26 C 0.00931 0.28591 0.27938 0.0
C27 C 0.00479 0.30627 0.27574 0.0
C28 C 0.00979 0.32085 0.29039 0.0
C29 C 0.0194 0.31534 0.30906 0.0
C30 C 0.0237 0.29487 0.31276 0.0
C31 C 0.01849 0.28028 0.29816 0.0
P32 P 0.75809 0.00618 0.24438 0.0
H33 H 0.74762 0.98778 0.20493 0.0
H34 H 0.72292 0.99866 0.17845 0.0
H35 H 0.71949 0.05755 0.20627 0.0
H36 H 0.74398 0.04667 0.23297 0.0
H37 H 0.7947 0.98386 0.25749 0.0
H38 H 0.82482 0.99452 0.27683 0.0
H39 H 0.80871 0.05683 0.26509 0.0
H40 H 0.77802 0.04588 0.24602 0.0
H41 H 0.71308 0.00971 0.24643 0.0
H42 H 0.76506 0.0195 0.28745 0.0
O43 O 0.75728 0.98107 0.24335 0.0
H44 H 0.68926 0.02202 0.27282 0.0
H45 H 0.74102 0.03162 0.31408 0.0
C46 C 0.74771 0.01642 0.2209 0.0
C47 C 0.74233 0.00329 0.20488 0.0
C48 C 0.7282 0.00947 0.18978 0.0
C49 C 0.71951 0.02888 0.19048 0.0
C50 C 0.72632 0.0426 0.20538 0.0
C51 C 0.74045 0.03642 0.2205 0.0
C52 C 0.78408 0.01405 0.25031 0.0
C53 C 0.79806 -0.0002 0.25826 0.0
C54 C 0.81544 0.00599 0.26934 0.0
C55 C 0.81909 0.02659 0.27275 0.0
C56 C 0.80617 0.04086 0.26296 0.0
C57 C 0.78871 0.0346 0.25185 0.0
C58 C 0.7409 0.01424 0.26468 0.0
C59 C 0.71942 0.01472 0.261 0.0
C60 C 0.70583 0.02191 0.27602 0.0
C61 C 0.71345 0.02828 0.29519 0.0
C62 C 0.7349 0.02714 0.29922 0.0
C63 C 0.74859 0.02017 0.28401 0.0
P64 P 0.04379 0.76418 0.25453 0.0
H65 H 0.05692 0.76078 0.21163 0.0
H66 H 0.04349 0.741 0.18309 0.0
H67 H 0.98854 0.72712 0.21877 0.0
H68 H 0.00253 0.74657 0.24763 0.0
H69 H 0.06812 0.79784 0.26945 0.0
H70 H 0.05855 0.82743 0.28937 0.0
H71 H -0.00657 0.81439 0.27986 0.0
H72 H 0.00321 0.78467 0.25934 0.0
H73 H 0.05597 0.72243 0.25974 0.0
H74 H 0.021 0.7667 0.29436 0.0
O75 O 0.06939 0.76396 0.24999 0.0
H76 H 0.0499 0.69773 0.28686 0.0
H77 H 0.01402 0.74197 0.32084 0.0
C78 C 0.03083 0.75496 0.23183 0.0
C79 C 0.04175 0.75389 0.21318 0.0
C80 C 0.03398 0.74258 0.19677 0.0
C81 C 0.01502 0.73218 0.19867 0.0
C82 C 0.00338 0.73458 0.21691 0.0
C83 C 0.01123 0.74589 0.23335 0.0
C84 C 0.03638 0.7891 0.26276 0.0
C85 C 0.05178 0.8017 0.27087 0.0
C86 C 0.04628 0.81865 0.28236 0.0
C87 C 0.02525 0.82313 0.28629 0.0
C88 C 0.00977 0.81119 0.27712 0.0
C89 C 0.01532 0.79438 0.26521 0.0
C90 C 0.03911 0.74646 0.27497 0.0
C91 C 0.04692 0.72682 0.27311 0.0
C92 C 0.04321 0.71265 0.28854 0.0
C93 C 0.0314 0.71784 0.30605 0.0
C94 C 0.02342 0.73753 0.30773 0.0
C95 C 0.02731 0.75172 0.29238 0.0
P96 P 0.26021 0.96472 0.2405 0.0
H97 H 0.21743 0.95004 0.23842 0.0
H98 H 0.18552 0.96234 0.25483 0.0
H99 H 0.21754 0.01646 0.2735 0.0
H100 H 0.24908 0.00432 0.25673 0.0
H101 H 0.2772 0.94366 0.20489 0.0
H102 H 0.29668 0.95563 0.1752 0.0
H103 H 0.2841 0.01718 0.19322 0.0
H104 H 0.26461 0.00507 0.22304 0.0
H105 H 0.25628 0.9641 0.28496 0.0
H106 H 0.30356 0.97982 0.24055 0.0
O107 O 0.25784 0.9397 0.24019 0.0
H108 H 0.27856 0.97619 0.31279 0.0
H109 H 0.32595 0.9918 0.26846 0.0
C110 C 0.23564 0.9761 0.24677 0.0
C111 C 0.21736 0.96481 0.2455 0.0
C112 C 0.19919 0.97183 0.25494 0.0
C113 C 0.19919 0.99016 0.26581 0.0
C114 C 0.217 0.00232 0.26518 0.0
C115 C 0.2351 0.99534 0.25565 0.0
C116 C 0.26943 0.97348 0.2161 0.0
C117 C 0.27802 0.95972 0.20211 0.0
C118 C 0.28908 0.96659 0.18508 0.0
C119 C 0.29191 0.98734 0.18198 0.0
C120 C 0.28217 0.00111 0.19534 0.0
C121 C 0.27096 0.9942 0.2123 0.0
C122 C 0.27806 0.97142 0.26068 0.0
C123 C 0.27146 0.97011 0.28121 0.0
C124 C 0.2841 0.97716 0.29706 0.0
C125 C 0.30374 0.98526 0.29266 0.0
C126 C 0.31076 0.98576 0.27217 0.0
C127 C 0.29796 0.97892 0.25625 0.0
P128 P 0.96089 0.76534 0.75577 0.0
H129 H 0.95133 0.76766 0.7996 0.0
H130 H 0.96435 0.7483 0.82892 0.0
H131 H 0.01334 0.72351 0.79077 0.0
H132 H 0.0004 0.74318 0.76153 0.0
H133 H 0.93704 0.7966 0.73552 0.0
H134 H 0.94706 0.82557 0.71511 0.0
H135 H 0.01146 0.81583 0.73199 0.0
H136 H 0.00114 0.78652 0.7527 0.0
H137 H 0.93772 0.7292 0.74483 0.0
H138 H -0.00808 0.7607 0.72275 0.0
O139 O 0.93557 0.76643 0.76163 0.0
H140 H 0.94237 0.70392 0.71771 0.0
H141 H -0.00354 0.73573 0.69562 0.0
C142 C 0.9746 0.75651 0.77827 0.0
C143 C 0.9652 0.75849 0.79765 0.0
C144 C 0.97257 0.7473 0.81437 0.0
C145 C -0.01045 0.734 0.81201 0.0
C146 C 0.00018 0.73356 0.79306 0.0
C147 C -0.00725 0.74478 0.7763 0.0
C148 C 0.96829 0.78958 0.7459 0.0
C149 C 0.95324 0.80104 0.73548 0.0
C150 C 0.95901 0.81765 0.72373 0.0
C151 C 0.98007 0.82301 0.72189 0.0
C152 C -0.00488 0.81199 0.73304 0.0
C153 C 0.98924 0.7954 0.74505 0.0
C154 C 0.96414 0.74711 0.73551 0.0
C155 C 0.95045 0.73082 0.73403 0.0
C156 C 0.9531 0.71642 0.71854 0.0
C157 C 0.96968 0.71796 0.7045 0.0
C158 C 0.98359 0.73412 0.70628 0.0
C159 C 0.98086 0.74854 0.72169 0.0
P160 P 0.25832 0.96657 0.76418 0.0
H161 H 0.26822 0.94647 0.80298 0.0
H162 H 0.29293 0.95528 0.83017 0.0
H163 H 0.29998 0.01444 0.80375 0.0
H164 H 0.27607 0.0054 0.77606 0.0
H165 H 0.21973 0.94939 0.749 0.0
H166 H 0.19118 0.96508 0.73011 0.0
H167 H 0.21406 0.02386 0.74678 0.0
H168 H 0.24241 0.00814 0.76599 0.0
H169 H 0.3033 0.96381 0.76141 0.0
H170 H 0.25278 0.98384 0.72228 0.0
O171 O 0.25645 0.94151 0.76476 0.0
H172 H 0.32838 0.97717 0.73679 0.0
H173 H 0.27806 0.99692 0.69743 0.0
C174 C 0.27 0.97536 0.78764 0.0
C175 C 0.27449 0.96156 0.80337 0.0
C176 C 0.28866 0.96653 0.81881 0.0
C177 C 0.29823 0.98546 0.81885 0.0
C178 C 0.29252 -0.00016 0.80407 0.0
C179 C 0.27861 0.99475 0.78843 0.0
C180 C 0.2333 0.97756 0.75886 0.0
C181 C 0.21806 0.96562 0.74954 0.0
C182 C 0.2017 0.97461 0.73874 0.0
C183 C 0.20062 0.99566 0.73688 0.0
C184 C 0.21465 0.00759 0.748 0.0
C185 C 0.23086 0.99857 0.75903 0.0
C186 C 0.27618 0.97333 0.74402 0.0
C187 C 0.29758 0.97097 0.7475 0.0
C188 C 0.31188 0.97871 0.73354 0.0
C189 C 0.30499 0.98847 0.71561 0.0
C190 C 0.2836 0.9897 0.71138 0.0
C191 C 0.26922 0.98221 0.72559 0.0
P192 P 0.04324 0.27143 0.75252 0.0
H193 H 0.05755 0.26555 0.79469 0.0
H194 H 0.04883 0.28286 0.82687 0.0
H195 H -0.00088 0.31479 0.79565 0.0
H196 H 0.00747 0.29693 0.76386 0.0
H197 H 0.06506 0.23544 0.7387 0.0
H198 H 0.05286 0.20404 0.72405 0.0
H199 H 0.98927 0.22126 0.73757 0.0
H200 H 0.00179 0.25298 0.75257 0.0
H201 H 0.05162 0.31388 0.74676 0.0
H202 H 0.01912 0.26722 0.7137 0.0
O203 O 0.06921 0.27119 0.7538 0.0
H204 H 0.04142 0.33828 0.72036 0.0
H205 H 0.00856 0.29159 0.68758 0.0
C206 C 0.03354 0.28042 0.77683 0.0
C207 C 0.04449 0.27596 0.79493 0.0
C208 C 0.03957 0.28595 0.81327 0.0
C209 C 0.02359 0.30055 0.81373 0.0
C210 C 0.01151 0.30365 0.79589 0.0
C211 C 0.01639 0.29356 0.7776 0.0
C212 C 0.03433 0.24647 0.74679 0.0
C213 C 0.04855 0.23225 0.73918 0.0
C214 C 0.04152 0.21421 0.73084 0.0
C215 C 0.02009 0.21016 0.72968 0.0
C216 C 0.00587 0.22401 0.73826 0.0
C217 C 0.013 0.24203 0.74693 0.0
C218 C 0.036 0.28878 0.73238 0.0
C219 C 0.04224 0.3089 0.73387 0.0
C220 C 0.03628 0.32284 0.71886 0.0
C221 C 0.02401 0.31686 0.70201 0.0
C222 C 0.01807 0.2966 0.70035 0.0
C223 C 0.02402 0.28266 0.71542 0.0
P224 P 0.7712 0.06891 0.76917 0.0
H225 H 0.76294 0.08828 0.80865 0.0
H226 H 0.73916 0.07925 0.83658 0.0
H227 H 0.72953 0.02104 0.80878 0.0
H228 H 0.75284 0.03023 0.78048 0.0
H229 H 0.80907 0.08696 0.75368 0.0
H230 H 0.83954 0.07199 0.73765 0.0
H231 H 0.81976 0.01302 0.75768 0.0
H232 H 0.7889 0.0282 0.77341 0.0
H233 H 0.72595 0.06806 0.76441 0.0
H234 H 0.78001 0.05441 0.72716 0.0
O235 O 0.77224 0.09402 0.76972 0.0
H236 H 0.70329 0.05722 0.7362 0.0
H237 H 0.75748 0.04362 0.69917 0.0
C238 C 0.75955 0.05996 0.79249 0.0
C239 C 0.75623 0.07336 0.80883 0.0
C240 C 0.7427 0.06823 0.82475 0.0
C241 C 0.73265 0.04955 0.82458 0.0
C242 C 0.73736 0.03545 0.80919 0.0
C243 C 0.75073 0.04067 0.79313 0.0
C244 C 0.79678 0.05875 0.76488 0.0
C245 C 0.81169 0.07092 0.75541 0.0
C246 C 0.82919 0.06228 0.74623 0.0
C247 C 0.83203 0.04125 0.74628 0.0
C248 C 0.81788 0.02924 0.75722 0.0
C249 C 0.80032 0.03794 0.76641 0.0
C250 C 0.75468 0.06165 0.7481 0.0
C251 C 0.73295 0.0626 0.75028 0.0
C252 C 0.72003 0.05631 0.73424 0.0
C253 C 0.72871 0.04941 0.71566 0.0
C254 C 0.75045 0.04887 0.71338 0.0
C255 C 0.76333 0.055 0.72944 0.0
P256 P 0.24499 0.26537 0.98453 0.0
H257 H 0.24368 0.22493 0.96681 0.0
H258 H 0.26371 0.1947 0.9753 0.0
H259 H 0.28396 0.22268 0.03196 0.0
H260 H 0.26318 0.25244 0.02375 0.0
H261 H 0.2068 0.27773 0.96363 0.0
H262 H 0.17638 0.29647 0.97555 0.0
H263 H 0.19864 0.29218 0.0382 0.0
H264 H 0.22921 0.27314 0.02612 0.0
H265 H 0.29027 0.26219 0.98508 0.0
H266 H 0.24389 0.3079 -0.00204 0.0
O267 O 0.24429 0.26422 0.95885 0.0
H268 H 0.31775 0.28571 0.99454 0.0
H269 H 0.27136 0.33137 0.00753 0.0
C270 C 0.25247 0.24109 0.99438 0.0
C271 C 0.2518 0.22425 0.98142 0.0
C272 C 0.2634 0.20703 0.98623 0.0
C273 C 0.276 0.20653 0.00397 0.0
C274 C 0.27451 0.22252 0.01814 0.0
C275 C 0.26266 0.23963 0.01343 0.0
C276 C 0.22021 0.27399 0.99402 0.0
C277 C 0.20487 0.28021 0.98001 0.0
C278 C 0.18744 0.29093 0.98684 0.0
C279 C 0.18521 0.29582 0.00779 0.0
C280 C 0.20006 0.28865 0.02196 0.0
C281 C 0.2174 0.27765 0.01512 0.0
C282 C 0.26498 0.28305 0.99139 0.0
C283 C 0.28596 0.27717 0.99024 0.0
C284 C 0.30165 0.29056 0.99575 0.0
C285 C 0.29662 0.31022 0.00208 0.0
C286 C 0.27562 0.31624 0.00282 0.0
C287 C 0.25991 0.30277 -0.00256 0.0
P288 P 0.23787 0.77401 0.98192 0.0
H289 H 0.19636 0.77097 0.96402 0.0
H290 H 0.16646 0.75095 0.97455 0.0
H291 H 0.19523 0.7402 0.03367 0.0
H292 H 0.22526 0.76032 0.02306 0.0
H293 H 0.25164 0.80842 0.95798 0.0
H294 H 0.26895 0.83937 0.96752 0.0
H295 H 0.26017 0.82519 0.03195 0.0
H296 H 0.24312 0.79366 0.02212 0.0
H297 H 0.2361 0.73045 0.98658 0.0
H298 H 0.28238 0.77698 0.99281 0.0
O299 O 0.23623 0.77293 0.95627 0.0
H300 H 0.26209 0.70505 -0.00418 0.0
H301 H 0.3085 0.75148 0.0019 0.0
C302 C 0.21319 0.76676 0.99261 0.0
C303 C 0.19596 0.76496 0.97952 0.0
C304 C 0.17889 0.75349 0.98553 0.0
C305 C 0.1788 0.74375 0.00475 0.0
C306 C 0.19494 0.74758 0.01879 0.0
C307 C 0.21209 0.75908 0.01273 0.0
C308 C 0.24589 0.79884 0.98934 0.0
C309 C 0.25289 0.81215 0.97416 0.0
C310 C 0.26277 0.82997 0.97967 0.0
C311 C 0.26593 0.83483 0.00053 0.0
C312 C 0.25809 0.82182 0.01576 0.0
C313 C 0.24816 0.80391 0.01018 0.0
C314 C 0.25712 0.75568 0.98958 0.0
C315 C 0.25175 0.73526 0.9903 0.0
C316 C 0.26659 0.72075 0.99562 0.0
C317 C 0.2872 0.72637 -0.00016 0.0
C318 C 0.29266 0.7468 -0.00118 0.0
C319 C 0.27771 0.76137 0.99371 0.0
P320 P 0.78814 0.25969 0.964 0.0
H321 H 0.82996 0.25992 0.94623 0.0
H322 H 0.86092 0.27934 0.95498 0.0
H323 H 0.83067 0.30017 0.01063 0.0
H324 H 0.80006 0.28023 0.00206 0.0
H325 H 0.77918 0.22101 0.94481 0.0
H326 H 0.76296 0.19063 0.95812 0.0
H327 H 0.76542 0.21498 0.01976 0.0
H328 H 0.78219 0.24543 0.00633 0.0
H329 H 0.78643 0.30298 0.9584 0.0
H330 H 0.74608 0.257 0.98279 0.0
O331 O 0.7892 0.25808 0.93835 0.0
H332 H 0.76106 0.32875 0.96817 0.0
H333 H 0.72118 0.28271 0.9935 0.0
C334 C 0.81262 0.269 0.97329 0.0
C335 C 0.83022 0.26825 0.96057 0.0
C336 C 0.84784 0.27949 0.96552 0.0
C337 C 0.84807 0.29168 0.98324 0.0
C338 C 0.83104 0.29094 -0.00313 0.0
C339 C 0.81348 0.27957 0.99196 0.0
C340 C 0.78177 0.2355 0.97458 0.0
C341 C 0.77691 0.21961 0.96127 0.0
C342 C 0.76766 0.2022 0.9689 0.0
C343 C 0.76287 0.20054 0.98994 0.0
C344 C 0.76893 0.21596 0.00347 0.0
C345 C 0.77859 0.23326 -0.00416 0.0
C346 C 0.76846 0.27812 0.97031 0.0
C347 C 0.77219 0.29844 0.96602 0.0
C348 C 0.75776 0.31318 0.97181 0.0
C349 C 0.73925 0.30784 0.98197 0.0
C350 C 0.73528 0.28735 0.98571 0.0
C351 C 0.74968 0.2726 0.97976 0.0
P352 P 0.77448 0.77303 0.02931 0.0
H353 H 0.81627 0.7686 0.04622 0.0
H354 H 0.84553 0.7475 0.03523 0.0
H355 H 0.81466 0.73608 0.97739 0.0
H356 H 0.78518 0.7571 0.9885 0.0
H357 H 0.75989 0.80776 0.0524 0.0
H358 H 0.74138 0.83782 0.04163 0.0
H359 H 0.75449 0.82353 0.97791 0.0
H360 H 0.77282 0.79293 0.98897 0.0
H361 H 0.77214 0.72924 0.02848 0.0
H362 H 0.73136 0.77945 0.01472 0.0
O363 O 0.77643 0.77221 0.05495 0.0
H364 H 0.74432 0.70585 0.01932 0.0
H365 H 0.70379 0.7562 0.00529 0.0
C366 C 0.79845 0.76406 0.01832 0.0
C367 C 0.81606 0.76216 0.0309 0.0
C368 C 0.83278 0.75016 0.02461 0.0
C369 C 0.83213 0.74011 0.00559 0.0
C370 C 0.81551 0.74382 0.99206 0.0
C371 C 0.79868 0.75578 -0.00158 0.0
C372 C 0.76784 0.79818 0.0215 0.0
C373 C 0.75954 0.81144 0.03615 0.0
C374 C 0.74895 0.82875 0.02992 0.0
C375 C 0.74634 0.83307 0.00886 0.0
C376 C 0.75609 0.82052 0.99423 0.0
C377 C 0.76675 0.80314 0.00054 0.0
C378 C 0.754 0.75608 0.02197 0.0
C379 C 0.75733 0.73523 0.02323 0.0
C380 C 0.74149 0.72189 0.01787 0.0
C381 C 0.72197 0.72923 0.01143 0.0
C382 C 0.71868 0.75014 0.01024 0.0
C383 C 0.73453 0.76345 0.01555 0.0
P384 P 0.50133 0.76417 0.74682 0.0
H385 H 0.47939 0.7667 0.70741 0.0
H386 H 0.48737 0.78548 0.67623 0.0
H387 H 0.54976 0.79583 0.69867 0.0
H388 H 0.54157 0.77693 0.73005 0.0
H389 H 0.48165 0.72475 0.7502 0.0
H390 H 0.49107 0.69487 0.77028 0.0
H391 H 0.55092 0.7208 0.78386 0.0
H392 H 0.54169 0.75064 0.76326 0.0
H393 H 0.50829 0.80749 0.74153 0.0
H394 H 0.50897 0.76464 0.79153 0.0
O395 O 0.47533 0.76367 0.74709 0.0
H396 H 0.51654 0.83443 0.76551 0.0
H397 H 0.51667 0.79173 0.81575 0.0
C398 C 0.50976 0.77078 0.72123 0.0
C399 C 0.49502 0.7724 0.70538 0.0
C400 C 0.49963 0.78314 0.68746 0.0
C401 C 0.51906 0.79252 0.68516 0.0
C402 C 0.53452 0.78907 0.70017 0.0
C403 C 0.52994 0.77811 0.71802 0.0
C404 C 0.51084 0.74006 0.75558 0.0
C405 C 0.4971 0.72376 0.75683 0.0
C406 C 0.50249 0.70665 0.76823 0.0
C407 C 0.52166 0.70567 0.77855 0.0
C408 C 0.53609 0.72126 0.77589 0.0
C409 C 0.53082 0.73825 0.76417 0.0
C410 C 0.50882 0.78382 0.76453 0.0
C411 C 0.51065 0.80374 0.75759 0.0
C412 C 0.51515 0.81923 0.77139 0.0
C413 C 0.51739 0.81524 0.79256 0.0
C414 C 0.51552 0.79526 0.7995 0.0
C415 C 0.51107 0.77974 0.78563 0.0
P416 P 0.28854 0.50468 0.74762 0.0
H417 H 0.29014 0.48972 0.70527 0.0
H418 H 0.27106 0.50061 0.67471 0.0
H419 H 0.25276 0.55533 0.70605 0.0
H420 H 0.27192 0.54435 0.73663 0.0
H421 H 0.32574 0.48331 0.76148 0.0
H422 H 0.35611 0.49405 0.78086 0.0
H423 H 0.33514 0.5559 0.77679 0.0
H424 H 0.30445 0.54493 0.75733 0.0
H425 H 0.24365 0.50444 0.74208 0.0
H426 H 0.28676 0.51629 0.79162 0.0
O427 O 0.28953 0.47972 0.74467 0.0
H428 H 0.2145 0.51288 0.76471 0.0
H429 H 0.25752 0.5246 0.81438 0.0
C430 C 0.28209 0.51605 0.72331 0.0
C431 C 0.2827 0.5044 0.70533 0.0
C432 C 0.27181 0.51068 0.68782 0.0
C433 C 0.26011 0.52864 0.68818 0.0
C434 C 0.26143 0.54129 0.70549 0.0
C435 C 0.27251 0.53509 0.7229 0.0
C436 C 0.3129 0.51334 0.75788 0.0
C437 C 0.32788 0.49924 0.76425 0.0
C438 C 0.34532 0.50542 0.7753 0.0
C439 C 0.34802 0.52583 0.78034 0.0
C440 C 0.3334 0.54007 0.77319 0.0
C441 C 0.31597 0.53384 0.76196 0.0
C442 C 0.2674 0.51023 0.76498 0.0
C443 C 0.24687 0.50904 0.75777 0.0
C444 C 0.23023 0.51396 0.77065 0.0
C445 C 0.23382 0.51972 0.79115 0.0
C446 C 0.25438 0.52035 0.79857 0.0
C447 C 0.27108 0.51564 0.78555 0.0
P448 P 0.50944 0.26897 0.74968 0.0
H449 H 0.52427 0.26933 0.70717 0.0
H450 H 0.51428 0.2495 0.67736 0.0
H451 H 0.45913 0.22968 0.70959 0.0
H452 H 0.46973 0.2492 0.73977 0.0
H453 H 0.53364 0.30362 0.76288 0.0
H454 H 0.52448 0.33418 0.78146 0.0
H455 H 0.45932 0.31931 0.77661 0.0
H456 H 0.46857 0.28882 0.75688 0.0
H457 H 0.52964 0.23066 0.75795 0.0
H458 H 0.478 0.26455 0.78307 0.0
O459 O 0.5352 0.26931 0.74603 0.0
H460 H 0.52311 0.20373 0.78253 0.0
H461 H 0.47095 0.23743 0.80722 0.0
C462 C 0.49796 0.26048 0.72585 0.0
C463 C 0.50974 0.26115 0.70768 0.0
C464 C 0.50392 0.24977 0.69052 0.0
C465 C 0.48605 0.23758 0.6911 0.0
C466 C 0.47326 0.23846 0.70874 0.0
C467 C 0.47917 0.24982 0.72596 0.0
C468 C 0.5018 0.29373 0.75864 0.0
C469 C 0.5173 0.30711 0.76514 0.0
C470 C 0.51207 0.32468 0.7758 0.0
C471 C 0.49121 0.32906 0.78059 0.0
C472 C 0.47554 0.31622 0.77317 0.0
C473 C 0.4808 0.29884 0.76192 0.0
C474 C 0.50466 0.24989 0.76887 0.0
C475 C 0.51695 0.23239 0.76882 0.0
C476 C 0.51301 0.21685 0.78274 0.0
C477 C 0.49642 0.21834 0.79685 0.0
C478 C 0.48401 0.23588 0.79677 0.0
C479 C 0.48805 0.25147 0.78286 0.0
P480 P 0.73921 0.46904 0.74944 0.0
H481 H 0.69872 0.45005 0.7552 0.0
H482 H 0.66959 0.45896 0.77781 0.0
H483 H 0.69722 0.51686 0.7895 0.0
H484 H 0.72667 0.50782 0.76736 0.0
H485 H 0.75348 0.45133 0.71079 0.0
H486 H 0.77337 0.46588 0.68261 0.0
H487 H 0.76145 0.52544 0.70679 0.0
H488 H 0.74155 0.51081 0.73502 0.0
H489 H 0.73922 0.46897 0.79431 0.0
H490 H 0.78328 0.48145 0.74572 0.0
O491 O 0.73824 0.44402 0.74721 0.0
H492 H 0.76455 0.48012 0.81986 0.0
H493 H 0.80881 0.49229 0.77145 0.0
C494 C 0.71486 0.47827 0.75953 0.0
C495 C 0.69822 0.46493 0.76199 0.0
C496 C 0.6816 0.47 0.77489 0.0
C497 C 0.68133 0.48855 0.78521 0.0
C498 C 0.69706 0.50259 0.78139 0.0
C499 C 0.71379 0.49746 0.76861 0.0
C500 C 0.74605 0.47997 0.72507 0.0
C501 C 0.75431 0.46756 0.70958 0.0
C502 C 0.76566 0.47591 0.69339 0.0
C503 C 0.7691 0.49677 0.69268 0.0
C504 C 0.75909 0.5093 0.70709 0.0
C505 C 0.74761 0.50093 0.72319 0.0
C506 C 0.75904 0.47504 0.76805 0.0
C507 C 0.7543 0.47414 0.78911 0.0
C508 C 0.76873 0.48055 0.80369 0.0
C509 C 0.78837 0.48745 0.7975 0.0
C510 C 0.79363 0.48724 0.77651 0.0
C511 C 0.77902 0.48109 0.76184 0.0
P512 P 0.46531 0.26733 0.26464 0.0
H513 H 0.45493 0.2712 0.30824 0.0
H514 H 0.46727 0.25234 0.33818 0.0
H515 H 0.518 0.22807 0.302 0.0
H516 H 0.50567 0.24719 0.27208 0.0
H517 H 0.43879 0.29552 0.24295 0.0
H518 H 0.44591 0.32449 0.22133 0.0
H519 H 0.51105 0.32095 0.2377 0.0
H520 H 0.50363 0.29177 0.25994 0.0
H521 H 0.45108 0.22594 0.26167 0.0
H522 H 0.49046 0.26565 0.22655 0.0
O523 O 0.43992 0.26676 0.2702 0.0
H524 H 0.45819 0.19875 0.23707 0.0
H525 H 0.49735 0.23877 0.20194 0.0
C526 C 0.47913 0.26032 0.2878 0.0
C527 C 0.46911 0.26237 0.30688 0.0
C528 C 0.47608 0.25142 0.32397 0.0
C529 C 0.49329 0.23828 0.32232 0.0
C530 C 0.50465 0.23797 0.30377 0.0
C531 C 0.4976 0.24893 0.28663 0.0
C532 C 0.47061 0.29162 0.25334 0.0
C533 C 0.45454 0.30125 0.24246 0.0
C534 C 0.45868 0.31771 0.22983 0.0
C535 C 0.47909 0.32484 0.22749 0.0
C536 C 0.49513 0.31585 0.23923 0.0
C537 C 0.49091 0.29925 0.252 0.0
C538 C 0.46992 0.24792 0.24579 0.0
C539 C 0.46103 0.22888 0.24855 0.0
C540 C 0.46508 0.21339 0.23449 0.0
C541 C 0.47829 0.21666 0.21757 0.0
C542 C 0.48726 0.23575 0.21494 0.0
C543 C 0.48317 0.25122 0.22896 0.0
P544 P 0.73844 0.53548 0.26904 0.0
H545 H 0.69596 0.55089 0.26686 0.0
H546 H 0.66652 0.54053 0.24559 0.0
H547 H 0.69932 0.48591 0.22918 0.0
H548 H 0.72901 0.49645 0.25029 0.0
H549 H 0.75548 0.55686 0.30392 0.0
H550 H 0.77189 0.54547 0.33549 0.0
H551 H 0.75549 0.48404 0.32106 0.0
H552 H 0.7386 0.49573 0.2892 0.0
H553 H 0.74664 0.55076 0.22808 0.0
H554 H 0.77463 0.50749 0.26946 0.0
O555 O 0.73539 0.56047 0.26957 0.0
H556 H 0.77441 0.54442 0.20309 0.0
H557 H 0.80245 0.50129 0.2447 0.0
C558 C 0.71477 0.52461 0.25973 0.0
C559 C 0.69661 0.53639 0.25924 0.0
C560 C 0.67978 0.53046 0.24716 0.0
C561 C 0.68087 0.51256 0.2357 0.0
C562 C 0.69815 0.49971 0.23802 0.0
C563 C 0.71511 0.50576 0.24999 0.0
C564 C 0.74565 0.52717 0.29434 0.0
C565 C 0.75471 0.54102 0.30781 0.0
C566 C 0.76408 0.53447 0.32593 0.0
C567 C 0.76486 0.51386 0.33079 0.0
C568 C 0.75502 0.50001 0.31768 0.0
C569 C 0.74529 0.50668 0.29959 0.0
C570 C 0.75879 0.52999 0.25081 0.0
C571 C 0.75878 0.53995 0.23182 0.0
C572 C 0.77463 0.53631 0.21757 0.0
C573 C 0.7907 0.52251 0.22206 0.0
C574 C 0.79022 0.51194 0.24079 0.0
C575 C 0.77436 0.51564 0.25506 0.0
P576 P 0.57234 0.76928 0.26462 0.0
H577 H 0.5874 0.77105 0.30714 0.0
H578 H 0.57583 0.79118 0.33645 0.0
H579 H 0.51951 0.80692 0.30355 0.0
H580 H 0.53139 0.78695 0.2741 0.0
H581 H 0.59586 0.73701 0.24512 0.0
H582 H 0.58555 0.70696 0.22642 0.0
H583 H 0.52137 0.71787 0.24328 0.0
H584 H 0.53196 0.74805 0.26246 0.0
H585 H 0.59171 0.80778 0.25501 0.0
H586 H 0.53981 0.77303 0.23275 0.0
O587 O 0.59811 0.76886 0.26818 0.0
H588 H 0.58356 0.83426 0.22995 0.0
H589 H 0.53138 0.7994 0.20813 0.0
C590 C 0.56044 0.77778 0.28827 0.0
C591 C 0.57229 0.77835 0.30642 0.0
C592 C 0.56561 0.78988 0.32324 0.0
C593 C 0.54694 0.80105 0.3222 0.0
C594 C 0.53421 0.79888 0.30468 0.0
C595 C 0.54089 0.7873 0.28788 0.0
C596 C 0.56472 0.74474 0.25536 0.0
C597 C 0.57963 0.73267 0.24541 0.0
C598 C 0.57371 0.71541 0.23468 0.0
C599 C 0.55263 0.71001 0.2333 0.0
C600 C 0.53773 0.72169 0.24399 0.0
C601 C 0.54377 0.73885 0.25507 0.0
C602 C 0.56679 0.78812 0.24537 0.0
C603 C 0.57869 0.80575 0.24462 0.0
C604 C 0.57387 0.82097 0.23046 0.0
C605 C 0.55693 0.81885 0.21691 0.0
C606 C 0.54482 0.80131 0.21803 0.0
C607 C 0.54966 0.78614 0.23215 0.0
P608 P 0.27894 0.56712 0.26073 0.0
H609 H 0.27889 0.58044 0.30358 0.0
H610 H 0.26002 0.56802 0.33367 0.0
H611 H 0.24089 0.5158 0.29878 0.0
H612 H 0.26042 0.52791 0.26921 0.0
H613 H 0.31517 0.58959 0.24714 0.0
H614 H 0.34671 0.5788 0.22943 0.0
H615 H 0.33078 0.51661 0.24054 0.0
H616 H 0.29907 0.52758 0.25837 0.0
H617 H 0.23358 0.56675 0.25804 0.0
H618 H 0.28558 0.55261 0.21823 0.0
O619 O 0.2779 0.59209 0.26354 0.0
H620 H 0.20942 0.55636 0.23084 0.0
H621 H 0.26164 0.54199 0.1914 0.0
C622 C 0.2704 0.5554 0.28408 0.0
C623 C 0.27112 0.56604 0.30266 0.0
C624 C 0.26029 0.55895 0.3198 0.0
C625 C 0.24851 0.54119 0.31845 0.0
C626 C 0.24979 0.52951 0.30041 0.0
C627 C 0.2608 0.53653 0.28338 0.0
C628 C 0.3049 0.55939 0.25419 0.0
C629 C 0.31885 0.57367 0.24654 0.0
C630 C 0.33693 0.56746 0.23643 0.0
C631 C 0.34116 0.54685 0.23357 0.0
C632 C 0.32785 0.53258 0.24252 0.0
C633 C 0.30983 0.53883 0.25282 0.0
C634 C 0.26138 0.5602 0.24033 0.0
C635 C 0.2398 0.56133 0.24353 0.0
C636 C 0.22603 0.55525 0.22809 0.0
C637 C 0.23371 0.54825 0.20911 0.0
C638 C 0.25532 0.54739 0.20588 0.0
C639 C 0.26904 0.5534 0.22131 0.0
P640 P 0.76265 0.77111 0.46844 0.0
H641 H 0.7581 0.72972 0.45367 0.0
H642 H 0.77716 0.69888 0.46204 0.0
H643 H 0.80699 0.72959 0.5128 0.0
H644 H 0.78688 0.75984 0.50503 0.0
H645 H 0.72306 0.78122 0.44873 0.0
H646 H 0.69204 0.79864 0.46112 0.0
H647 H 0.71679 0.79778 0.52299 0.0
H648 H 0.74803 0.78002 0.5104 0.0
H649 H 0.80759 0.76982 0.46307 0.0
H650 H 0.76175 0.81325 0.48355 0.0
O651 O 0.76066 0.76898 0.44289 0.0
H652 H 0.83522 0.79413 0.46951 0.0
H653 H 0.78932 0.83743 0.49039 0.0
C654 C 0.77148 0.74719 0.47841 0.0
C655 C 0.7683 0.7296 0.46696 0.0
C656 C 0.77947 0.71203 0.47162 0.0
C657 C 0.79422 0.71181 0.48771 0.0
C658 C 0.79587 0.72904 0.50028 0.0
C659 C 0.7844 0.74648 0.49581 0.0
C660 C 0.73789 0.77932 0.47865 0.0
C661 C 0.72165 0.78422 0.46507 0.0
C662 C 0.70384 0.79418 0.47219 0.0
C663 C 0.702 0.79966 0.49303 0.0
C664 C 0.71785 0.79384 0.50683 0.0
C665 C 0.7356 0.78358 0.4997 0.0
C666 C 0.78264 0.78947 0.47331 0.0
C667 C 0.80348 0.78449 0.4692 0.0
C668 C 0.81928 0.79835 0.47301 0.0
C669 C 0.81448 0.81762 0.48069 0.0
C670 C 0.79351 0.8227 0.48446 0.0
C671 C 0.77771 0.80878 0.4807 0.0
P672 P 0.76048 0.26779 0.46383 0.0
H673 H 0.71662 0.27028 0.4524 0.0
H674 H 0.68626 0.25166 0.46436 0.0
H675 H 0.7228 0.22705 0.51444 0.0
H676 H 0.75288 0.24632 0.50275 0.0
H677 H 0.77406 0.3024 0.44008 0.0
H678 H 0.79436 0.3316 0.44971 0.0
H679 H 0.78637 0.31667 0.51404 0.0
H680 H 0.76613 0.28699 0.50412 0.0
H681 H 0.76288 0.22402 0.46232 0.0
H682 H 0.80477 0.27304 0.47538 0.0
O683 O 0.75627 0.26757 0.43845 0.0
H684 H 0.7911 0.19993 0.46862 0.0
H685 H 0.83277 0.24908 0.48206 0.0
C686 C 0.73712 0.25921 0.47634 0.0
C687 C 0.71794 0.26131 0.46628 0.0
C688 C 0.70062 0.25052 0.47306 0.0
C689 C 0.70224 0.23739 0.49002 0.0
C690 C 0.72098 0.23695 0.5013 0.0
C691 C 0.73826 0.24789 0.49456 0.0
C692 C 0.76841 0.29263 0.47139 0.0
C693 C 0.77593 0.30578 0.45629 0.0
C694 C 0.78761 0.32255 0.46185 0.0
C695 C 0.79215 0.3264 0.48266 0.0
C696 C 0.78332 0.31397 0.49787 0.0
C697 C 0.77153 0.29717 0.49225 0.0
C698 C 0.78148 0.25031 0.46881 0.0
C699 C 0.77805 0.2296 0.46676 0.0
C700 C 0.79417 0.21585 0.47045 0.0
C701 C 0.81411 0.22262 0.476 0.0
C702 C 0.81759 0.24342 0.47772 0.0
C703 C 0.80145 0.25715 0.47407 0.0
P704 P 0.25827 0.76645 0.4894 0.0
H705 H 0.29966 0.76286 0.47123 0.0
H706 H 0.33171 0.7816 0.47716 0.0
H707 H 0.30415 0.80887 0.53124 0.0
H708 H 0.27241 0.78949 0.52556 0.0
H709 H 0.24855 0.7296 0.46708 0.0
H710 H 0.23061 0.69924 0.47743 0.0
H711 H 0.23406 0.71782 0.54114 0.0
H712 H 0.25225 0.74861 0.53049 0.0
H713 H 0.25582 0.81037 0.48875 0.0
H714 H 0.21563 0.76116 0.50562 0.0
O715 O 0.25829 0.76664 0.46368 0.0
H716 H 0.22808 0.83431 0.49736 0.0
H717 H 0.1884 0.78487 0.51503 0.0
C718 C 0.28348 0.7752 0.49764 0.0
C719 C 0.30072 0.77246 0.48468 0.0
C720 C 0.31898 0.78335 0.48798 0.0
C721 C 0.32033 0.79721 0.50433 0.0
C722 C 0.30369 0.79841 0.51845 0.0
C723 C 0.28545 0.78737 0.51518 0.0
C724 C 0.25175 0.74142 0.498 0.0
C725 C 0.24615 0.72694 0.48335 0.0
C726 C 0.23583 0.70947 0.48933 0.0
C727 C 0.23073 0.70612 0.51013 0.0
C728 C 0.23759 0.72004 0.52499 0.0
C729 C 0.24821 0.7375 0.51896 0.0
C730 C 0.23817 0.78397 0.49718 0.0
C731 C 0.24125 0.80472 0.49477 0.0
C732 C 0.22539 0.8184 0.49977 0.0
C733 C 0.20606 0.81152 0.50707 0.0
C734 C 0.20305 0.79069 0.50938 0.0
C735 C 0.21884 0.77706 0.50425 0.0
P736 P 0.25962 0.26533 0.54891 0.0
H737 H 0.30217 0.26315 0.56435 0.0
H738 H 0.33223 0.24356 0.55265 0.0
H739 H 0.30003 0.22935 0.49618 0.0
H740 H 0.26972 0.24889 0.50804 0.0
H741 H 0.24556 0.3002 0.57225 0.0
H742 H 0.22626 0.33012 0.56207 0.0
H743 H 0.23532 0.31466 0.49798 0.0
H744 H 0.25456 0.28434 0.50841 0.0
H745 H 0.25917 0.22164 0.54988 0.0
H746 H 0.21575 0.26949 0.53536 0.0
O747 O 0.26261 0.26502 0.57445 0.0
H748 H 0.23229 0.19679 0.54269 0.0
H749 H 0.18901 0.24471 0.52763 0.0
C750 C 0.28361 0.25712 0.53723 0.0
C751 C 0.30175 0.25637 0.54918 0.0
C752 C 0.31892 0.24519 0.54249 0.0
C753 C 0.31825 0.23479 0.52366 0.0
C754 C 0.3009 0.23731 0.51072 0.0
C755 C 0.28361 0.24844 0.51751 0.0
C756 C 0.2516 0.29012 0.54108 0.0
C757 C 0.24407 0.30355 0.556 0.0
C758 C 0.23303 0.32074 0.55013 0.0
C759 C 0.22914 0.3247 0.52921 0.0
C760 C 0.23792 0.31189 0.51423 0.0
C761 C 0.24909 0.29468 0.52015 0.0
C762 C 0.23965 0.24739 0.54281 0.0
C763 C 0.24394 0.22679 0.54488 0.0
C764 C 0.22859 0.2126 0.54066 0.0
C765 C 0.20857 0.21878 0.53442 0.0
C766 C 0.20425 0.23948 0.5325 0.0
C767 C 0.21964 0.25368 0.53676 0.0
Zn768 Zn 0.97162 0.99664 0.46993 0.0
Zn769 Zn 0.972 0.0454 0.46968 0.0
O770 O -0.00959 0.02085 0.46784 0.0
H771 H 0.00416 0.01986 0.46192 0.0
C772 C 0.96158 0.9748 0.50909 0.0
O773 O 0.9519 0.9923 0.50851 0.0
Zn774 Zn 0.04921 0.04465 0.5399 0.0
Zn775 Zn 0.04768 0.99675 0.542 0.0
O776 O 0.02959 0.02204 0.54478 0.0
H777 H 0.01807 0.02332 0.55427 0.0
Zn778 Zn 0.98565 0.99836 0.53676 0.0
O779 O -0.00692 0.02515 0.52315 0.0
Zn780 Zn 0.98387 0.04674 0.54298 0.0
H781 H 0.00011 0.02698 0.51014 0.0
Zn782 Zn 0.03729 0.99458 0.46867 0.0
O783 O 0.03655 0.01955 0.48614 0.0
H784 H 0.03415 0.01923 0.50081 0.0
Zn785 Zn 0.04059 0.04304 0.46711 0.0
C786 C 0.06005 0.97036 0.49809 0.0
O787 O 0.06662 0.9884 0.50315 0.0
O788 O 0.94265 0.00454 0.4592 0.0
O789 O 0.94337 0.03812 0.45933 0.0
O790 O 0.07764 0.00297 0.55131 0.0
O791 O 0.07759 0.03643 0.54971 0.0
O792 O 0.96713 0.00123 0.56258 0.0
O793 O 0.96746 0.03455 0.56601 0.0
C794 C 0.0032 0.06772 0.45109 0.0
O795 O 0.05114 0.00012 0.44066 0.0
O796 O 0.05325 0.03362 0.44042 0.0
O797 O 0.03603 0.96999 0.55422 0.0
C798 C 0.93407 0.02156 0.45563 0.0
O799 O 0.98331 0.96985 0.45776 0.0
C800 C 0.02277 0.07194 0.56316 0.0
O801 O 0.97832 0.97331 0.5194 0.0
C802 C 0.08668 0.01982 0.55394 0.0
O803 O 0.04675 0.96865 0.4837 0.0
C804 C 0.96236 0.06596 0.50983 0.0
O805 O 0.98349 0.06793 0.45191 0.0
O806 O 0.01262 0.05503 0.46233 0.0
C807 C 0.96171 0.0172 0.57206 0.0
O808 O 0.04128 0.06778 0.55776 0.0
O809 O 0.00772 0.06221 0.55537 0.0
C810 C 0.06068 0.06336 0.49961 0.0
O811 O 0.96489 0.06643 0.52917 0.0
O812 O 0.97218 0.0529 0.49939 0.0
C813 C 0.0565 0.01653 0.432 0.0
O814 O 0.05948 0.06306 0.48012 0.0
O815 O 0.04923 0.05163 0.50997 0.0
C816 C 0.02014 0.97083 0.56588 0.0
O817 O 0.01105 0.98833 0.56896 0.0
C818 C -0.00269 0.97129 0.44401 0.0
O819 O 0.0041 0.98924 0.43899 0.0
Zn820 Zn 0.48629 0.05301 0.02992 0.0
Zn821 Zn 0.4833 0.05597 0.98048 0.0
O822 O 0.4914 0.03777 0.00364 0.0
H823 H 0.49426 0.0235 0.00315 0.0
C824 C 0.52573 0.07684 0.05619 0.0
O825 O 0.51358 0.07858 0.04005 0.0
Zn826 Zn 0.53895 0.98114 0.97626 0.0
Zn827 Zn 0.53607 0.98306 0.02582 0.0
O828 O 0.53076 -0.00114 -0.00023 0.0
H829 H 0.52809 0.01317 -0.00056 0.0
Zn830 Zn 0.55276 0.05685 0.02585 0.0
O831 O 0.53329 0.06053 0.00162 0.0
Zn832 Zn 0.5515 0.05541 0.97692 0.0
H833 H 0.52174 0.0699 0.00215 0.0
Zn834 Zn 0.47955 0.97919 0.02676 0.0
O835 O 0.49492 0.97568 -0.0001 0.0
H836 H 0.50602 0.96585 -0.00124 0.0
Zn837 Zn 0.47323 0.98178 0.97847 0.0
C838 C 0.50302 0.95165 0.05142 0.0
O839 O 0.50238 0.94251 0.03347 0.0
O840 O 0.46804 0.07812 0.02524 0.0
O841 O 0.46708 0.0802 0.99105 0.0
O842 O 0.55477 0.95825 0.02049 0.0
O843 O 0.55505 0.95682 0.98623 0.0
O844 O 0.58235 0.06466 0.01743 0.0
O845 O 0.58099 0.06489 0.98313 0.0
C846 C 0.46212 0.02239 0.9616 0.0
O847 O 0.44959 0.96927 0.02284 0.0
O848 O 0.44513 0.97207 0.98889 0.0
O849 O 0.5457 0.00023 0.05042 0.0
C850 C 0.46179 0.08672 0.00882 0.0
O851 O 0.47591 0.03619 0.05423 0.0
C852 C 0.56151 0.01495 0.9592 0.0
O853 O 0.54324 0.06799 0.05432 0.0
C854 C 0.56066 0.94997 0.00374 0.0
O855 O 0.49452 0.9689 0.05313 0.0
C856 C 0.51989 0.07136 0.95205 0.0
O857 O 0.46421 0.04138 0.96148 0.0
O858 O 0.47347 0.0117 0.97337 0.0
C859 C 0.59088 0.06767 -0.0 0.0
O860 O 0.55862 0.99608 0.95818 0.0
O861 O 0.5501 0.02568 0.97085 0.0
C862 C 0.50037 0.9654 0.9488 0.0
O863 O 0.53964 0.07038 0.95242 0.0
O864 O 0.51006 0.06312 0.96669 0.0
C865 C 0.43834 0.96743 0.00678 0.0
O866 O 0.48098 0.96722 0.95225 0.0
O867 O 0.51283 0.97303 0.96173 0.0
C868 C 0.55937 0.01343 0.04646 0.0
O869 O 0.5654 0.01588 0.02728 0.0
C870 C 0.46327 0.0223 0.04955 0.0
O871 O 0.45971 0.01853 0.02999 0.0
Zn872 Zn 0.97288 0.49898 0.97188 0.0
Zn873 Zn 0.97018 0.54679 0.97089 0.0
O874 O -0.00946 0.52362 0.96814 0.0
H875 H 0.00233 0.52272 0.95893 0.0
C876 C 0.97712 0.46288 0.01997 0.0
O877 O 0.98212 0.4756 0.00532 0.0
Zn878 Zn 0.04719 0.54546 0.03781 0.0
Zn879 Zn 0.04672 0.49688 0.03506 0.0
O880 O 0.02788 0.52141 0.03893 0.0
H881 H 0.01561 0.52038 0.04744 0.0
Zn882 Zn 0.9841 0.49776 0.04788 0.0
O883 O 0.97938 0.52036 0.02728 0.0
Zn884 Zn 0.97656 0.54488 0.04536 0.0
H885 H 0.97363 0.51818 0.01371 0.0
Zn886 Zn 0.052 0.50074 0.97174 0.0
O887 O 0.03687 0.52423 0.98424 0.0
H888 H 0.02637 0.52324 0.99486 0.0
Zn889 Zn 0.04074 0.54758 0.96495 0.0
C890 C 0.05405 0.46479 -0.00193 0.0
O891 O 0.0338 0.46519 0.99516 0.0
O892 O 0.94276 0.50503 0.96382 0.0
O893 O 0.94194 0.5383 0.95967 0.0
O894 O 0.07589 0.50335 0.04562 0.0
O895 O 0.07535 0.53683 0.04867 0.0
O896 O 0.97038 0.50425 0.07563 0.0
O897 O 0.96342 0.53698 0.07251 0.0
C898 C 0.0005 0.57197 0.95264 0.0
O899 O 0.06575 0.50744 0.9441 0.0
O900 O 0.05601 0.53928 0.93866 0.0
O901 O 0.03715 0.46859 0.04538 0.0
C902 C 0.93329 0.52106 0.95837 0.0
O903 O 0.98286 0.47275 0.95754 0.0
C904 C 0.01626 0.56983 0.05709 0.0
O905 O 0.9776 0.46866 0.03861 0.0
C906 C 0.08453 0.51982 0.0507 0.0
O907 O 0.06518 0.47853 0.99017 0.0
C908 C 0.95747 0.56593 0.01163 0.0
O909 O 0.98093 0.57071 0.95501 0.0
O910 O 0.01185 0.55807 0.96005 0.0
C911 C 0.96239 0.52048 0.08257 0.0
O912 O 0.03584 0.56882 0.05453 0.0
O913 O 0.0053 0.55578 0.0496 0.0
C914 C 0.05928 0.56799 -0.00138 0.0
O915 O 0.95857 0.56537 0.03116 0.0
O916 O 0.96823 0.55347 0.00116 0.0
C917 C 0.06558 0.52327 0.93298 0.0
O918 O 0.05778 0.56854 0.97914 0.0
O919 O 0.04962 0.55429 0.00833 0.0
C920 C 0.02455 0.46676 0.06035 0.0
O921 O 0.01634 0.48302 0.06862 0.0
C922 C 0.0011 0.46764 0.95193 0.0
O923 O 0.01676 0.47979 0.95545 0.0
Zn924 Zn 0.48787 0.4831 0.98713 0.0
Zn925 Zn 0.48407 0.48262 0.0367 0.0
O926 O 0.49121 0.50024 0.01249 0.0
H927 H 0.48988 0.51468 0.01131 0.0
C928 C 0.52272 0.46586 0.9454 0.0
O929 O 0.52561 0.48524 0.94276 0.0
Zn930 Zn 0.54169 0.5527 0.03874 0.0
Zn931 Zn 0.53431 0.5487 0.98979 0.0
O932 O 0.52973 0.5346 0.01715 0.0
H933 H 0.52425 0.52125 0.01906 0.0
Zn934 Zn 0.54462 0.47266 0.98569 0.0
O935 O 0.52904 0.47518 0.01266 0.0
Zn936 Zn 0.55059 0.4789 0.03501 0.0
H937 H 0.51616 0.46785 0.01397 0.0
Zn938 Zn 0.48341 0.56096 0.98832 0.0
O939 O 0.499 0.5622 0.01546 0.0
H940 H 0.51106 0.5707 0.01706 0.0
Zn941 Zn 0.47766 0.55733 0.0374 0.0
C942 C 0.50346 0.56754 0.94664 0.0
O943 O 0.50281 0.54789 0.94453 0.0
O944 O 0.47008 0.45814 0.99284 0.0
O945 O 0.468 0.45833 0.02715 0.0
O946 O 0.55299 0.57363 0.99187 0.0
O947 O 0.55803 0.57527 0.02576 0.0
O948 O 0.57485 0.46344 0.99138 0.0
O949 O 0.57784 0.46665 0.02548 0.0
C950 C 0.46532 0.51744 0.05629 0.0
O951 O 0.45309 0.56986 0.99333 0.0
O952 O 0.44983 0.56829 0.0275 0.0
O953 O 0.5408 0.53202 0.96384 0.0
C954 C 0.46366 0.45056 0.0097 0.0
O955 O 0.48175 0.49778 0.95964 0.0
C956 C 0.56311 0.5178 0.05487 0.0
O957 O 0.52905 0.45753 0.96193 0.0
C958 C 0.56112 0.58189 0.00759 0.0
O959 O 0.49686 0.57556 0.96323 0.0
C960 C 0.52184 0.46502 0.06424 0.0
O961 O 0.46644 0.49833 0.05628 0.0
O962 O 0.4761 0.52746 0.04349 0.0
C963 C 0.58531 0.46148 0.008 0.0
O964 O 0.56102 0.53674 0.0567 0.0
O965 O 0.5532 0.50859 0.04083 0.0
C966 C 0.5054 0.57386 0.06762 0.0
O967 O 0.54136 0.46515 0.06121 0.0
O968 O 0.5104 0.47336 0.0507 0.0
C969 C 0.44244 0.57249 0.00971 0.0
O970 O 0.48631 0.57256 0.06262 0.0
O971 O 0.51912 0.56556 0.05626 0.0
C972 C 0.55582 0.51949 0.96404 0.0
O973 O 0.56541 0.51574 0.98152 0.0
C974 C 0.46934 0.51277 0.95909 0.0
O975 O 0.46113 0.51942 0.97636 0.0
Zn976 Zn 0.98019 0.49558 0.47981 0.0
Zn977 Zn 0.97288 0.54391 0.48013 0.0
O978 O -0.00537 0.52226 0.48296 0.0
H979 H 0.00718 0.52373 0.49096 0.0
C980 C 0.95391 0.46866 0.51923 0.0
O981 O 0.95044 0.48676 0.51178 0.0
Zn982 Zn 0.04965 0.54749 0.5332 0.0
Zn983 Zn 0.04995 0.49899 0.53425 0.0
O984 O 0.03126 0.52336 0.53176 0.0
H985 H 0.01776 0.52298 0.52524 0.0
Zn986 Zn 0.97689 0.49255 0.54894 0.0
O987 O 0.97737 0.51753 0.53126 0.0
Zn988 Zn 0.97745 0.54137 0.55012 0.0
H989 H 0.97531 0.51734 0.51656 0.0
Zn990 Zn 0.04504 0.49439 0.46495 0.0
O991 O 0.04617 0.51947 0.48237 0.0
H992 H 0.04966 0.51964 0.49681 0.0
Zn993 Zn 0.04425 0.54271 0.46299 0.0
C994 C 0.06917 0.47036 0.49329 0.0
O995 O 0.0738 0.48855 0.49968 0.0
O996 O 0.9517 0.49919 0.46615 0.0
O997 O 0.94688 0.5325 0.46667 0.0
O998 O 0.07848 0.50632 0.54661 0.0
O999 O 0.07732 0.5399 0.54613 0.0
O1000 O 0.96329 0.49945 0.57671 0.0
O1001 O 0.96586 0.53289 0.57773 0.0
C1002 C 0.00338 0.56626 0.45831 0.0
O1003 O 0.05743 0.50036 0.43653 0.0
O1004 O 0.05505 0.53381 0.43508 0.0
O1005 O 0.03595 0.47311 0.54517 0.0
C1006 C 0.94081 0.51476 0.46201 0.0
O1007 O -0.00256 0.47171 0.4684 0.0
C1008 C 0.01639 0.5673 0.55469 0.0
O1009 O 0.96553 0.46674 0.53498 0.0
C1010 C 0.08667 0.52338 0.55042 0.0
O1011 O 0.05631 0.46837 0.47856 0.0
C1012 C 0.95568 0.56392 0.51996 0.0
O1013 O 0.98428 0.56691 0.46339 0.0
O1014 O 0.01424 0.55124 0.46392 0.0
C1015 C 0.96008 0.51626 0.58571 0.0
O1016 O 0.03537 0.56938 0.54957 0.0
O1017 O 0.00706 0.55126 0.54962 0.0
C1018 C 0.06554 0.56619 0.4926 0.0
O1019 O 0.95752 0.56256 0.53934 0.0
O1020 O 0.96746 0.55294 0.50896 0.0
C1021 C 0.06033 0.51693 0.42709 0.0
O1022 O 0.06351 0.56442 0.47323 0.0
O1023 O 0.05342 0.55602 0.50394 0.0
C1024 C 0.02175 0.47554 0.55859 0.0
O1025 O 0.01664 0.49395 0.56416 0.0
C1026 C 0.00738 0.47522 0.45189 0.0
O1027 O 0.00691 0.49355 0.44424 0.0
Zn1028 Zn 0.48284 7e-05 0.47336 0.0
Zn1029 Zn 0.47088 0.04795 0.48098 0.0
O1030 O 0.4937 0.027 0.48252 0.0
H1031 H 0.50594 0.02833 0.49096 0.0
C1032 C 0.46233 0.96387 0.51765 0.0
O1033 O 0.4645 0.97637 0.50214 0.0
Zn1034 Zn 0.54871 0.05073 0.53478 0.0
Zn1035 Zn 0.54215 0.00209 0.54177 0.0
O1036 O 0.52828 0.02791 0.53271 0.0
H1037 H 0.5163 0.02828 0.5238 0.0
Zn1038 Zn 0.48399 0.99544 0.54414 0.0
O1039 O 0.47831 0.02155 0.52856 0.0
Zn1040 Zn 0.4786 0.04413 0.54945 0.0
H1041 H 0.48092 0.00836 0.5343 0.0
Zn1042 Zn 0.54141 -0.00019 0.47073 0.0
O1043 O 0.54489 0.02581 0.48701 0.0
H1044 H 0.54348 0.01265 0.48087 0.0
Zn1045 Zn 0.5417 0.04901 0.46698 0.0
C1046 C 0.56193 0.96708 0.49708 0.0
O1047 O 0.55574 0.97735 0.51326 0.0
O1048 O 0.45349 0.00373 0.46191 0.0
O1049 O 0.44558 0.03625 0.46624 0.0
O1050 O 0.57128 0.00767 0.55266 0.0
O1051 O 0.57519 0.04085 0.54885 0.0
O1052 O 0.47997 -0.0001 0.57517 0.0
O1053 O 0.47268 0.03271 0.57743 0.0
C1054 C 0.50063 0.07356 0.46211 0.0
O1055 O 0.54423 0.00549 0.43975 0.0
O1056 O 0.54796 0.03889 0.43862 0.0
O1057 O 0.52694 0.97977 0.55847 0.0
C1058 C 0.44104 0.01861 0.45976 0.0
O1059 O 0.50128 0.97958 0.45685 0.0
C1060 C 0.51639 0.07313 0.5543 0.0
O1061 O 0.46935 0.96871 0.53527 0.0
C1062 C 0.58193 0.02363 0.55481 0.0
O1063 O 0.55771 0.97364 0.47914 0.0
C1064 C 0.45406 0.06644 0.52229 0.0
O1065 O 0.48131 0.0726 0.46612 0.0
O1066 O 0.5121 0.05877 0.46736 0.0
C1067 C 0.47447 0.0153 0.58559 0.0
O1068 O 0.53566 0.07415 0.55 0.0
O1069 O 0.50683 0.0571 0.54945 0.0
C1070 C 0.56333 0.07246 0.49479 0.0
O1071 O 0.4568 0.06442 0.54154 0.0
O1072 O 0.46485 0.05537 0.51035 0.0
C1073 C 0.54761 0.0217 0.42982 0.0
O1074 O 0.56094 0.07145 0.47542 0.0
O1075 O 0.5539 0.05962 0.50581 0.0
C1076 C 0.51871 0.96409 0.55079 0.0
O1077 O 0.51742 0.96234 0.53068 0.0
C1078 C 0.50915 0.96363 0.46456 0.0
O1079 O 0.50709 0.96031 0.48441 0.0
C1080 C 0.1971 0.18561 0.52012 0.0
C1081 C 0.19218 0.20361 0.53047 0.0
C1082 C 0.1821 0.17071 0.51758 0.0
C1083 C 0.13343 0.15206 0.54018 0.0
H1084 H 0.13043 0.12159 0.48934 0.0
C1085 C 0.0698 0.09271 0.52146 0.0
C1086 C 0.07613 0.07632 0.50933 0.0
C1087 C 0.08398 0.10796 0.52619 0.0
C1088 C 0.13127 0.12976 0.50376 0.0
H1089 H 0.16751 0.22029 0.54585 0.0
H1090 H 0.14115 0.19434 0.54104 0.0
H1091 H 0.1543 0.14974 0.49188 0.0
H1092 H 0.10207 0.06187 0.49391 0.0
H1093 H 0.12709 0.08793 0.5029 0.0
H1094 H 0.11035 0.13194 0.55203 0.0
C1095 C 0.15672 0.19169 0.53518 0.0
C1096 C 0.14489 0.14595 0.50516 0.0
C1097 C 0.17175 0.20662 0.53772 0.0
C1098 C 0.09698 0.07448 0.5033 0.0
C1099 C 0.11117 0.08949 0.50824 0.0
C1100 C 0.11977 0.13579 0.53878 0.0
C1101 C 0.16182 0.17348 0.5253 0.0
C1102 C 0.14632 0.15713 0.52346 0.0
C1103 C 0.1046 0.10684 0.51888 0.0
C1104 C 0.11878 0.1243 0.52064 0.0
H1105 H 0.21261 0.18296 0.51411 0.0
H1106 H 0.18656 0.15679 0.51002 0.0
H1107 H 0.13432 0.16031 0.55455 0.0
H1108 H 0.05363 0.09448 0.52592 0.0
H1109 H 0.07844 0.12116 0.53437 0.0
C1110 C 0.82754 0.19029 0.49088 0.0
C1111 C 0.83124 0.208 0.47967 0.0
C1112 C 0.84339 0.17609 0.49364 0.0
C1113 C 0.89188 0.15777 0.47041 0.0
H1114 H 0.89774 0.12988 0.52257 0.0
C1115 C 0.95461 0.09603 0.48835 0.0
C1116 C 0.94757 0.08001 0.5005 0.0
C1117 C 0.94134 0.11236 0.4842 0.0
C1118 C 0.89616 0.13742 0.50784 0.0
H1119 H 0.85453 0.22487 0.46282 0.0
H1120 H 0.88235 0.20004 0.46785 0.0
H1121 H 0.87345 0.15802 0.51973 0.0
H1122 H 0.92131 0.06749 0.51683 0.0
H1123 H 0.89786 0.09546 0.50894 0.0
H1124 H 0.91449 0.13687 0.45851 0.0
C1125 C 0.86712 0.19713 0.47433 0.0
C1126 C 0.8823 0.15356 0.50625 0.0
C1127 C 0.85125 0.2114 0.47163 0.0
C1128 C 0.9269 0.07974 0.50731 0.0
C1129 C 0.91364 0.09584 0.50304 0.0
C1130 C 0.90579 0.14155 0.472 0.0
C1131 C 0.86328 0.17928 0.48525 0.0
C1132 C 0.87965 0.16361 0.48741 0.0
C1133 C 0.92096 0.11269 0.4922 0.0
C1134 C 0.90764 0.1309 0.49061 0.0
H1135 H 0.81236 0.18738 0.49748 0.0
H1136 H 0.83991 0.16238 0.50197 0.0
H1137 H 0.89009 0.16522 0.45566 0.0
H1138 H 0.9707 0.0966 0.48335 0.0
H1139 H 0.94738 0.12517 0.47584 0.0
C1140 C 0.82845 0.85259 0.47724 0.0
C1141 C 0.83124 0.8326 0.48384 0.0
C1142 C 0.84465 0.86642 0.4789 0.0
C1143 C 0.89362 0.87714 0.50588 0.0
H1144 H 0.90325 0.91211 0.459 0.0
C1145 C 0.95804 0.93725 0.50705 0.0
C1146 C 0.95111 0.95658 0.50124 0.0
C1147 C 0.94594 0.92031 0.50278 0.0
C1148 C 0.90074 0.90249 0.47223 0.0
H1149 H 0.85291 0.81165 0.49813 0.0
H1150 H 0.88131 0.83589 0.50094 0.0
H1151 H 0.87646 0.88633 0.45703 0.0
H1152 H 0.92688 0.9731 0.48507 0.0
H1153 H 0.90586 0.94369 0.47763 0.0
H1154 H 0.91755 0.89367 0.52128 0.0
C1155 C 0.86659 0.84079 0.49443 0.0
C1156 C 0.88536 0.88777 0.47112 0.0
C1157 C 0.8504 0.8269 0.49267 0.0
C1158 C 0.9326 0.95845 0.48985 0.0
C1159 C 0.92059 0.94154 0.48549 0.0
C1160 C 0.90899 0.89194 0.50701 0.0
C1161 C 0.86398 0.86061 0.48724 0.0
C1162 C 0.88135 0.87521 0.48807 0.0
C1163 C 0.92678 0.92236 0.49246 0.0
C1164 C 0.91243 0.90504 0.49033 0.0
H1165 H 0.81394 0.85743 0.47026 0.0
H1166 H 0.84205 0.88169 0.47356 0.0
H1167 H 0.89081 0.86773 0.51921 0.0
H1168 H 0.9723 0.9353 0.51577 0.0
H1169 H 0.95128 0.90568 0.50805 0.0
C1170 C 0.16831 0.82118 0.5052 0.0
C1171 C 0.18874 0.82589 0.51123 0.0
C1172 C 0.15213 0.83502 0.50802 0.0
C1173 C 0.13686 0.88209 0.53493 0.0
H1174 H 0.10143 0.88937 0.48711 0.0
C1175 C 0.08869 0.95401 0.51832 0.0
C1176 C 0.07034 0.95224 0.50666 0.0
C1177 C 0.10056 0.93694 0.52314 0.0
C1178 C 0.11081 0.88729 0.50082 0.0
H1179 H 0.20803 0.84861 0.52564 0.0
H1180 H 0.17979 0.87306 0.53004 0.0
H1181 H 0.12745 0.8628 0.48713 0.0
H1182 H 0.04882 0.93108 0.49289 0.0
H1183 H 0.06929 0.90127 0.50169 0.0
H1184 H 0.12043 0.90706 0.54835 0.0
C1185 C 0.17629 0.85852 0.52338 0.0
C1186 C 0.12581 0.87204 0.5008 0.0
C1187 C 0.19251 0.84462 0.5206 0.0
C1188 C 0.06312 0.93296 0.50153 0.0
C1189 C 0.07489 0.91589 0.5065 0.0
C1190 C 0.12175 0.89739 0.53498 0.0
C1191 C 0.15598 0.85397 0.51681 0.0
C1192 C 0.13917 0.86939 0.51773 0.0
C1193 C 0.09421 0.91777 0.51652 0.0
C1194 C 0.10872 0.9003 0.51779 0.0
H1195 H 0.16487 0.807 0.49773 0.0
H1196 H 0.13661 0.83098 0.503 0.0
H1197 H 0.1468 0.88026 0.5483 0.0
H1198 H 0.09456 0.96867 0.5227 0.0
H1199 H 0.11536 0.93895 0.53086 0.0
C1200 C 0.50333 0.19698 0.19579 0.0
C1201 C 0.48287 0.20025 0.20273 0.0
C1202 C 0.50766 0.18196 0.18135 0.0
C1203 C 0.48569 0.13614 0.15664 0.0
H1204 H 0.52724 0.14798 0.11504 0.0
C1205 C 0.49929 0.09258 0.07956 0.0
C1206 C 0.52012 0.08718 0.07554 0.0
C1207 C 0.49427 0.10438 0.09672 0.0
C1208 C 0.51573 0.14444 0.12669 0.0
H1209 H 0.4509 0.19027 0.2001 0.0
H1210 H 0.45835 0.16429 0.1745 0.0
H1211 H 0.51914 0.173 0.1413 0.0
H1212 H 0.55189 0.08919 0.08668 0.0
H1213 H 0.54314 0.11033 0.11633 0.0
H1214 H 0.48185 0.10777 0.1412 0.0
C1215 C 0.47115 0.17305 0.18052 0.0
C1216 C 0.51114 0.15871 0.14181 0.0
C1217 C 0.46685 0.18798 0.19514 0.0
C1218 C 0.53572 0.09312 0.08939 0.0
C1219 C 0.53075 0.10525 0.10629 0.0
C1220 C 0.49008 0.12196 0.14125 0.0
C1221 C 0.4916 0.16997 0.1733 0.0
C1222 C 0.49619 0.15471 0.1571 0.0
C1223 C 0.51006 0.11126 0.10987 0.0
C1224 C 0.50527 0.12597 0.12628 0.0
H1225 H 0.51606 0.20597 0.20165 0.0
H1226 H 0.52367 0.17973 0.17655 0.0
H1227 H 0.47427 0.13243 0.1683 0.0
H1228 H 0.48694 0.08807 0.06918 0.0
H1229 H 0.47821 0.10888 0.09919 0.0
C1230 C 0.81689 0.50103 0.20316 0.0
C1231 C 0.80853 0.52014 0.20777 0.0
C1232 C 0.83403 0.49916 0.18995 0.0
C1233 C 0.86221 0.52715 0.14966 0.0
H1234 H 0.90933 0.49304 0.16395 0.0
C1235 C 0.93978 0.537 0.10902 0.0
C1236 C 0.94894 0.51942 0.10099 0.0
C1237 C 0.92378 0.53572 0.12347 0.0
C1238 C 0.89621 0.50251 0.15974 0.0
H1239 H 0.81188 0.55224 0.20271 0.0
H1240 H 0.84164 0.54903 0.17985 0.0
H1241 H 0.87792 0.49259 0.18541 0.0
H1242 H 0.94968 0.48674 0.10311 0.0
H1243 H 0.92161 0.48461 0.12826 0.0
H1244 H 0.88039 0.53725 0.12419 0.0
C1245 C 0.83473 0.53544 0.18597 0.0
C1246 C 0.87823 0.50219 0.17193 0.0
C1247 C 0.81767 0.53729 0.19907 0.0
C1248 C 0.94289 0.5006 0.10892 0.0
C1249 C 0.92682 0.49933 0.12335 0.0
C1250 C 0.88011 0.52753 0.13759 0.0
C1251 C 0.84305 0.51639 0.18118 0.0
C1252 C 0.86125 0.51486 0.16724 0.0
C1253 C 0.91659 0.51686 0.13014 0.0
C1254 C 0.89746 0.51558 0.14275 0.0
H1255 H 0.81006 0.48755 0.20961 0.0
H1256 H 0.84005 0.48428 0.18642 0.0
H1257 H 0.84917 0.53669 0.14535 0.0
H1258 H 0.94427 0.55173 0.10344 0.0
H1259 H 0.91648 0.5495 0.12888 0.0
C1260 C 0.54618 0.82915 0.18138 0.0
C1261 C 0.55195 0.83467 0.20146 0.0
C1262 C 0.54097 0.84378 0.16684 0.0
C1263 C 0.54672 0.89752 0.15381 0.0
H1264 H 0.50139 0.88535 0.11639 0.0
C1265 C 0.51274 0.95049 0.08898 0.0
C1266 C 0.51121 0.9409 0.06969 0.0
C1267 C 0.51845 0.93947 0.10654 0.0
C1268 C 0.51408 0.88893 0.12674 0.0
H1269 H 0.55693 0.85998 0.22197 0.0
H1270 H 0.54777 0.88568 0.19642 0.0
H1271 H 0.50905 0.86254 0.14479 0.0
H1272 H 0.51546 0.91251 0.05357 0.0
H1273 H 0.525 0.8934 0.08414 0.0
H1274 H 0.55153 0.92408 0.13548 0.0
C1275 C 0.54745 0.86996 0.19196 0.0
C1276 C 0.51854 0.87586 0.14295 0.0
C1277 C 0.5527 0.85525 0.20657 0.0
C1278 C 0.51633 0.92035 0.06818 0.0
C1279 C 0.52172 0.90936 0.08569 0.0
C1280 C 0.54209 0.91077 0.1376 0.0
C1281 C 0.54133 0.86435 0.17197 0.0
C1282 C 0.53529 0.87965 0.15632 0.0
C1283 C 0.52241 0.91869 0.10507 0.0
C1284 C 0.52609 0.90625 0.12362 0.0
H1285 H 0.54588 0.81346 0.17679 0.0
H1286 H 0.53685 0.83893 0.15144 0.0
H1287 H 0.55974 0.90085 0.16382 0.0
H1288 H 0.50905 0.96635 0.09059 0.0
H1289 H 0.51895 0.94698 0.12135 0.0
C1290 C 0.20197 0.53033 0.1961 0.0
C1291 C 0.2193 0.54266 0.19233 0.0
C1292 C 0.18836 0.52541 0.18007 0.0
C1293 C 0.16638 0.54578 0.13467 0.0
H1294 H 0.15936 0.49203 0.1124 0.0
C1295 C 0.11765 0.53527 0.06255 0.0
C1296 C 0.10403 0.51889 0.06245 0.0
C1297 C 0.13379 0.53606 0.07688 0.0
C1298 C 0.16095 0.50709 0.11858 0.0
H1299 H 0.2359 0.55961 0.16903 0.0
H1300 H 0.2119 0.55128 0.14118 0.0
H1301 H 0.18206 0.4972 0.14226 0.0
H1302 H 0.09716 0.48992 0.07625 0.0
H1303 H 0.12458 0.49174 0.1019 0.0
H1304 H 0.14486 0.55583 0.11191 0.0
C1305 C 0.20909 0.54524 0.15644 0.0
C1306 C 0.17392 0.50999 0.13562 0.0
C1307 C 0.2228 0.54992 0.17232 0.0
C1308 C 0.10757 0.50271 0.07597 0.0
C1309 C 0.12335 0.50374 0.09066 0.0
C1310 C 0.15317 0.54288 0.11797 0.0
C1311 C 0.19179 0.53304 0.16022 0.0
C1312 C 0.17688 0.5294 0.14352 0.0
C1313 C 0.13616 0.52079 0.09179 0.0
C1314 C 0.15052 0.52357 0.10947 0.0
H1315 H 0.19902 0.52446 0.2114 0.0
H1316 H 0.17495 0.51607 0.18322 0.0
H1317 H 0.16839 0.56085 0.14074 0.0
H1318 H 0.11534 0.5478 0.05208 0.0
H1319 H 0.14388 0.54907 0.07681 0.0
C1320 C 0.53323 0.83023 0.82464 0.0
C1321 C 0.51996 0.83205 0.80746 0.0
C1322 C 0.53429 0.84568 0.83932 0.0
C1323 C 0.50159 0.8859 0.86014 0.0
H1324 H 0.55207 0.90784 0.88384 0.0
C1325 C 0.49581 0.95376 0.91283 0.0
C1326 C 0.50761 0.95354 0.93099 0.0
C1327 C 0.50026 0.94029 0.89696 0.0
C1328 C 0.53785 0.90173 0.87749 0.0
H1329 H 0.49768 0.85169 0.79213 0.0
H1330 H 0.49974 0.87853 0.81746 0.0
H1331 H 0.55442 0.88104 0.85783 0.0
H1332 H 0.53403 0.93991 0.94651 0.0
H1333 H 0.54138 0.91558 0.91896 0.0
H1334 H 0.48487 0.90589 0.87985 0.0
C1335 C 0.50925 0.86516 0.81965 0.0
C1336 C 0.53921 0.88643 0.86261 0.0
C1337 C 0.50824 0.84984 0.80501 0.0
C1338 C 0.52474 0.94035 0.93258 0.0
C1339 C 0.52894 0.92647 0.91679 0.0
C1340 C 0.50022 0.90096 0.87501 0.0
C1341 C 0.52196 0.86311 0.83715 0.0
C1342 C 0.52105 0.87863 0.85358 0.0
C1343 C 0.51625 0.92584 0.8991 0.0
C1344 C 0.51829 0.90936 0.88364 0.0
H1345 H 0.5426 0.81678 0.82684 0.0
H1346 H 0.54418 0.84369 0.8527 0.0
H1347 H 0.48731 0.87983 0.85385 0.0
H1348 H 0.48271 0.964 0.91113 0.0
H1349 H 0.49064 0.94075 0.88326 0.0
C1350 C 0.19953 0.53651 0.79838 0.0
C1351 C 0.21597 0.52394 0.80491 0.0
C1352 C 0.18166 0.53875 0.8105 0.0
C1353 C 0.14913 0.51035 0.84294 0.0
H1354 H 0.13056 0.55882 0.87095 0.0
C1355 C 0.09201 0.50722 0.90998 0.0
C1356 C 0.07861 0.52354 0.91416 0.0
C1357 C 0.10641 0.50825 0.894 0.0
C1358 C 0.13521 0.54527 0.86285 0.0
H1359 H 0.22697 0.50437 0.82937 0.0
H1360 H 0.19547 0.50797 0.85035 0.0
H1361 H 0.16126 0.55993 0.84857 0.0
H1362 H 0.06905 0.55333 0.90399 0.0
H1363 H 0.09391 0.55486 0.87551 0.0
H1364 H 0.1232 0.49559 0.85669 0.0
C1365 C 0.19658 0.51618 0.83597 0.0
C1366 C 0.15286 0.54592 0.85021 0.0
C1367 C 0.21457 0.51421 0.82405 0.0
C1368 C 0.07925 0.54054 0.90126 0.0
C1369 C 0.0936 0.54148 0.88504 0.0
C1370 C 0.13133 0.50975 0.85519 0.0
C1371 C 0.17991 0.52818 0.8291 0.0
C1372 C 0.16021 0.52831 0.84069 0.0
C1373 C 0.10766 0.52549 0.8815 0.0
C1374 C 0.12452 0.52703 0.86587 0.0
H1375 H 0.20035 0.54427 0.78372 0.0
H1376 H 0.1689 0.54804 0.80498 0.0
H1377 H 0.15446 0.49667 0.83542 0.0
H1378 H 0.09204 0.49389 0.9196 0.0
H1379 H 0.11718 0.49577 0.89207 0.0
C1380 C 0.495 0.18152 0.80549 0.0
C1381 C 0.49237 0.20169 0.81164 0.0
C1382 C 0.4933 0.16591 0.81977 0.0
C1383 C 0.47416 0.15099 0.87078 0.0
H1384 H 0.52395 0.11769 0.87186 0.0
C1385 C 0.49604 0.09841 0.93921 0.0
C1386 C 0.50938 0.08208 0.93518 0.0
C1387 C 0.49004 0.11139 0.92319 0.0
C1388 C 0.50963 0.12638 0.87157 0.0
H1389 H 0.48479 0.22112 0.83753 0.0
H1390 H 0.48149 0.19368 0.86243 0.0
H1391 H 0.52015 0.14331 0.84563 0.0
H1392 H 0.52533 0.06516 0.91142 0.0
H1393 H 0.51364 0.08666 0.88331 0.0
H1394 H 0.46353 0.13387 0.89668 0.0
C1395 C 0.4849 0.19008 0.8465 0.0
C1396 C 0.50757 0.14123 0.85654 0.0
C1397 C 0.4868 0.20577 0.83222 0.0
C1398 C 0.51517 0.07783 0.91483 0.0
C1399 C 0.50868 0.09035 0.8988 0.0
C1400 C 0.47605 0.13581 0.8857 0.0
C1401 C 0.48869 0.17006 0.8405 0.0
C1402 C 0.48992 0.15376 0.85604 0.0
C1403 C 0.49696 0.10792 0.90286 0.0
C1404 C 0.4939 0.12334 0.88636 0.0
H1405 H 0.49873 0.17778 0.78967 0.0
H1406 H 0.49602 0.15057 0.81471 0.0
H1407 H 0.46037 0.16048 0.87067 0.0
H1408 H 0.49153 0.10199 0.95488 0.0
H1409 H 0.48107 0.12473 0.92702 0.0
C1410 C 0.79682 0.50917 0.82767 0.0
C1411 C 0.80321 0.49467 0.81317 0.0
C1412 C 0.8099 0.51443 0.84395 0.0
C1413 C 0.8434 0.49268 0.87932 0.0
H1414 H 0.87192 0.54326 0.88808 0.0
C1415 C 0.90838 0.50001 0.93868 0.0
C1416 C 0.91353 0.51891 0.94693 0.0
C1417 C 0.89247 0.49822 0.92429 0.0
C1418 C 0.86368 0.52921 0.8862 0.0
H1419 H 0.82838 0.47487 0.80369 0.0
H1420 H 0.85114 0.4837 0.83272 0.0
H1421 H 0.85015 0.53885 0.85753 0.0
H1422 H 0.90473 0.55046 0.94799 0.0
H1423 H 0.87593 0.54714 0.9236 0.0
H1424 H 0.85594 0.48306 0.9081 0.0
C1425 C 0.83612 0.49109 0.83121 0.0
C1426 C 0.85147 0.52666 0.86856 0.0
C1427 C 0.82319 0.4861 0.81469 0.0
C1428 C 0.90125 0.53573 0.94172 0.0
C1429 C 0.88491 0.53384 0.92756 0.0
C1430 C 0.85513 0.49535 0.89717 0.0
C1431 C 0.82936 0.50502 0.84609 0.0
C1432 C 0.84169 0.50822 0.86485 0.0
C1433 C 0.88084 0.51518 0.91808 0.0
C1434 C 0.86591 0.51346 0.90062 0.0
H1435 H 0.78151 0.51606 0.82666 0.0
H1436 H 0.80447 0.52515 0.85537 0.0
H1437 H 0.83561 0.47846 0.87681 0.0
H1438 H 0.91755 0.4867 0.94224 0.0
H1439 H 0.8902 0.48364 0.9172 0.0
C1440 C 0.68492 0.71891 0.01577 0.0
C1441 C 0.70469 0.71517 0.00726 0.0
C1442 C 0.66895 0.70501 0.01333 0.0
C1443 C 0.64752 0.66526 0.98286 0.0
H1444 H 0.62765 0.64364 0.03472 0.0
C1445 C 0.58893 0.59929 0.98772 0.0
C1446 C 0.57546 0.59881 0.00474 0.0
C1447 C 0.60428 0.61406 0.98634 0.0
C1448 C 0.63264 0.64977 0.02009 0.0
H1449 H 0.72302 0.69438 0.98878 0.0
H1450 H 0.69474 0.67 0.98436 0.0
H1451 H 0.65518 0.66856 0.03473 0.0
H1452 H 0.56631 0.61396 0.03288 0.0
H1453 H 0.59213 0.64045 0.02993 0.0
H1454 H 0.62447 0.64706 0.96817 0.0
C1455 C 0.69182 0.68372 0.99295 0.0
C1456 C 0.64856 0.66389 0.02014 0.0
C1457 C 0.70796 0.69755 0.99562 0.0
C1458 C 0.57675 0.61389 0.01976 0.0
C1459 C 0.5917 0.62893 0.01813 0.0
C1460 C 0.63122 0.65136 0.9828 0.0
C1461 C 0.67237 0.68723 0.00215 0.0
C1462 C 0.65603 0.6718 0.00158 0.0
C1463 C 0.6061 0.62885 0.00176 0.0
C1464 C 0.62347 0.64356 0.00146 0.0
H1465 H 0.682 0.73226 0.02496 0.0
H1466 H 0.654 0.70795 0.02052 0.0
H1467 H 0.65312 0.67127 0.96838 0.0
H1468 H 0.58826 0.5877 0.97599 0.0
H1469 H 0.61517 0.61337 0.97362 0.0
C1470 C 0.29908 0.69497 0.01783 0.0
C1471 C 0.30312 0.71068 0.0039 0.0
C1472 C 0.31319 0.679 0.01996 0.0
C1473 C 0.34901 0.64993 0.99002 0.0
H1474 H 0.37574 0.63357 0.04094 0.0
C1475 C 0.41836 0.59538 0.99068 0.0
C1476 C 0.42252 0.58364 0.00823 0.0
C1477 C 0.40177 0.60899 0.99051 0.0
C1478 C 0.36805 0.63759 0.02667 0.0
H1479 H 0.3252 0.72237 0.98172 0.0
H1480 H 0.34972 0.69419 0.9852 0.0
H1481 H 0.3514 0.66201 0.04099 0.0
H1482 H 0.41157 0.57583 0.03878 0.0
H1483 H 0.38181 0.5989 0.03809 0.0
H1484 H 0.36488 0.62537 0.97565 0.0
C1485 C 0.33571 0.69437 0.99452 0.0
C1486 C 0.3543 0.654 0.02672 0.0
C1487 C 0.32179 0.7105 0.99264 0.0
C1488 C 0.40884 0.58481 0.02509 0.0
C1489 C 0.39193 0.5982 0.02476 0.0
C1490 C 0.36236 0.63328 0.99002 0.0
C1491 C 0.33133 0.67837 0.00792 0.0
C1492 C 0.34505 0.6605 0.00831 0.0
C1493 C 0.38859 0.61094 0.00772 0.0
C1494 C 0.37245 0.62714 0.00825 0.0
H1495 H 0.28483 0.69487 0.02676 0.0
H1496 H 0.30956 0.66676 0.03037 0.0
H1497 H 0.34172 0.65454 0.97571 0.0
H1498 H 0.42868 0.59499 0.97747 0.0
H1499 H 0.40003 0.6187 0.97722 0.0
C1500 C 0.33059 0.31911 0.01867 0.0
C1501 C 0.31339 0.32474 0.00649 0.0
C1502 C 0.34744 0.33213 0.02094 0.0
C1503 C 0.37582 0.36802 0.99205 0.0
H1504 H 0.39683 0.39016 0.0432 0.0
C1505 C 0.43535 0.43174 0.99239 0.0
C1506 C 0.44922 0.43351 0.00896 0.0
C1507 C 0.41993 0.41709 0.99265 0.0
C1508 C 0.39149 0.38376 0.02881 0.0
H1509 H 0.29999 0.34851 0.98769 0.0
H1510 H 0.32968 0.37111 0.9914 0.0
H1511 H 0.36697 0.36752 0.04382 0.0
H1512 H 0.45872 0.42087 0.03828 0.0
H1513 H 0.43251 0.39439 0.03823 0.0
H1514 H 0.40049 0.38343 0.97692 0.0
C1515 C 0.32996 0.35671 -0.00074 0.0
C1516 C 0.37429 0.37098 0.02922 0.0
C1517 C 0.313 0.34386 -0.00275 0.0
C1518 C 0.44804 0.41985 0.02539 0.0
C1519 C 0.43291 0.40483 0.02542 0.0
C1520 C 0.39325 0.38039 0.99165 0.0
C1521 C 0.34742 0.35076 0.01078 0.0
C1522 C 0.36615 0.36338 0.01078 0.0
C1523 C 0.41837 0.40353 0.00924 0.0
C1524 C 0.40107 0.38879 0.00997 0.0
H1525 H 0.33115 0.3045 0.02608 0.0
H1526 H 0.36084 0.32733 0.02987 0.0
H1527 H 0.36989 0.362 0.97769 0.0
H1528 H 0.43577 0.44228 0.97966 0.0
H1529 H 0.40879 0.41693 0.98013 0.0
C1530 C 0.70254 0.32053 0.98583 0.0
C1531 C 0.72404 0.32362 0.98822 0.0
C1532 C 0.68836 0.33594 0.99029 0.0
C1533 C 0.68268 0.38577 0.01581 0.0
H1534 H 0.63852 0.3927 0.97564 0.0
C1535 C 0.61362 0.44167 0.02522 0.0
C1536 C 0.60528 0.45034 0.00724 0.0
C1537 C 0.62992 0.42768 0.02397 0.0
C1538 C 0.65092 0.39115 0.98686 0.0
H1539 H 0.7474 0.34494 -0.00165 0.0
H1540 H 0.72272 0.37206 0.00538 0.0
H1541 H 0.66254 0.36455 0.97231 0.0
H1542 H 0.60878 0.45268 0.97407 0.0
H1543 H 0.63756 0.42873 0.97196 0.0
H1544 H 0.67125 0.4128 0.03001 0.0
C1545 C 0.71679 0.35767 0.00025 0.0
C1546 C 0.66447 0.37477 0.98517 0.0
C1547 C 0.73097 0.34221 -0.00407 0.0
C1548 C 0.61466 0.44602 0.98818 0.0
C1549 C 0.63104 0.43218 0.98695 0.0
C1550 C 0.66912 0.40225 0.01747 0.0
C1551 C 0.69536 0.35484 -0.00291 0.0
C1552 C 0.68053 0.37188 -0.00041 0.0
C1553 C 0.63827 0.42225 0.00472 0.0
C1554 C 0.65315 0.40517 0.00293 0.0
H1555 H 0.69667 0.30643 0.97987 0.0
H1556 H 0.67191 0.33316 0.98805 0.0
H1557 H 0.69479 0.38386 0.02728 0.0
H1558 H 0.60675 0.44469 0.04016 0.0
H1559 H 0.63511 0.42028 0.03794 0.0
C1560 C 0.95549 0.69632 0.67626 0.0
C1561 C 0.97254 0.70276 0.68805 0.0
C1562 C 0.95827 0.68225 0.66049 0.0
C1563 C -0.00077 0.65983 0.62723 0.0
H1564 H 0.95774 0.61868 0.61763 0.0
C1565 C 0.01039 0.60355 0.56173 0.0
C1566 C 0.00586 0.58341 0.56621 0.0
C1567 C 0.00336 0.6189 0.57468 0.0
C1568 C 0.96953 0.63 0.62017 0.0
H1569 H 0.00576 0.69925 0.69294 0.0
H1570 H 0.0106 0.67439 0.66576 0.0
H1571 H 0.95232 0.64332 0.64493 0.0
H1572 H -0.00994 0.56334 0.58717 0.0
H1573 H 0.97829 0.59001 0.61032 0.0
H1574 H 0.01704 0.64595 0.60338 0.0
C1575 C -0.00485 0.68056 0.66827 0.0
C1576 C 0.96631 0.6443 0.63567 0.0
C1577 C -0.00761 0.69475 0.6839 0.0
C1578 C -0.00662 0.57884 0.58326 0.0
C1579 C 0.98669 0.59416 0.59651 0.0
C1580 C 0.00257 0.64543 0.61194 0.0
C1581 C 0.97814 0.67421 0.65628 0.0
C1582 C 0.98119 0.65931 0.63946 0.0
C1583 C -0.00785 0.61434 0.5927 0.0
C1584 C 0.98781 0.63028 0.60823 0.0
H1585 H 0.94005 0.70245 0.67899 0.0
H1586 H 0.94489 0.67794 0.65137 0.0
H1587 H 0.01088 0.67136 0.62948 0.0
H1588 H 0.01989 0.60739 0.54851 0.0
H1589 H 0.00732 0.63429 0.5709 0.0
C1590 C 0.3222 0.98961 0.68128 0.0
C1591 C 0.32048 0.99696 0.70146 0.0
C1592 C 0.3397 0.99425 0.66948 0.0
C1593 C 0.38266 0.02574 0.65898 0.0
H1594 H 0.41787 0.97799 0.65883 0.0
C1595 C 0.46128 0.02851 0.61906 0.0
C1596 C 0.46507 0.0121 0.60594 0.0
C1597 C 0.44636 0.02703 0.63461 0.0
C1598 C 0.40823 0.99142 0.65852 0.0
H1599 H 0.33425 0.0163 0.72458 0.0
H1600 H 0.36472 0.02481 0.70363 0.0
H1601 H 0.38338 0.97667 0.67438 0.0
H1602 H 0.45824 0.98059 0.60027 0.0
H1603 H 0.43179 0.97828 0.62642 0.0
H1604 H 0.40676 0.04032 0.64213 0.0
C1605 C 0.3527 0.01535 0.69711 0.0
C1606 C 0.38853 0.99061 0.66742 0.0
C1607 C 0.33542 0.01044 0.70903 0.0
C1608 C 0.4556 0.99355 0.61012 0.0
C1609 C 0.44035 0.99223 0.62525 0.0
C1610 C 0.4022 0.02645 0.64959 0.0
C1611 C 0.3553 0.0066 0.67766 0.0
C1612 C 0.37563 0.0077 0.66754 0.0
C1613 C 0.43472 0.00928 0.6369 0.0
C1614 C 0.41518 0.00923 0.6491 0.0
H1615 H 0.31082 0.97917 0.67524 0.0
H1616 H 0.34161 0.98737 0.65445 0.0
H1617 H 0.37287 0.0391 0.65916 0.0
H1618 H 0.46868 0.04289 0.61635 0.0
H1619 H 0.44301 0.04022 0.64388 0.0
C1620 C 0.01045 0.35096 0.69229 0.0
C1621 C 0.01757 0.33182 0.68625 0.0
C1622 C 0.00575 0.36561 0.67758 0.0
C1623 C -0.00269 0.37433 0.62139 0.0
H1624 H 0.0176 0.42754 0.63518 0.0
C1625 C 0.01855 0.43829 0.56401 0.0
C1626 C 0.01343 0.45808 0.56999 0.0
C1627 C 0.01379 0.42203 0.57684 0.0
C1628 C 0.01151 0.41286 0.63122 0.0
H1629 H 0.02467 0.31275 0.66003 0.0
H1630 H 0.01693 0.3385 0.63426 0.0
H1631 H 0.01997 0.40076 0.66046 0.0
H1632 H -0.00242 0.47614 0.59314 0.0
H1633 H -0.01041 0.4478 0.61559 0.0
H1634 H -0.01008 0.38656 0.59159 0.0
C1635 C 0.01462 0.34211 0.65037 0.0
C1636 C 0.01282 0.39747 0.64574 0.0
C1637 C 0.01915 0.32737 0.66513 0.0
C1638 C 0.00197 0.46112 0.58819 0.0
C1639 C -0.00259 0.44492 0.60107 0.0
C1640 C -0.00376 0.38976 0.6067 0.0
C1641 C 0.00829 0.36156 0.65645 0.0
C1642 C 0.00579 0.37798 0.64105 0.0
C1643 C 0.004 0.42535 0.5959 0.0
C1644 C 0.00338 0.40915 0.61153 0.0
H1645 H 0.00864 0.35467 0.70845 0.0
H1646 H 0.00041 0.38024 0.68282 0.0
H1647 H -0.00843 0.35955 0.61733 0.0
H1648 H 0.02714 0.43545 0.54993 0.0
H1649 H 0.01903 0.40708 0.5725 0.0
C1650 C 0.71903 0.05161 0.67862 0.0
C1651 C 0.71517 0.04369 0.69829 0.0
C1652 C 0.7059 0.04704 0.66225 0.0
C1653 C 0.67106 0.01172 0.64003 0.0
H1654 H 0.64286 0.0582 0.61657 0.0
C1655 C 0.60409 0.00634 0.58091 0.0
C1656 C 0.60116 0.02244 0.56711 0.0
C1657 C 0.61998 0.00693 0.59551 0.0
C1658 C 0.65094 0.04509 0.62257 0.0
H1659 H 0.69503 0.02434 0.71625 0.0
H1660 H 0.67199 0.0161 0.6872 0.0
H1661 H 0.66625 0.06261 0.64562 0.0
H1662 H 0.61379 0.05069 0.55625 0.0
H1663 H 0.64224 0.0513 0.5811 0.0
H1664 H 0.65621 0.99419 0.61663 0.0
C1665 C 0.6852 0.02588 0.68468 0.0
C1666 C 0.6641 0.04763 0.63936 0.0
C1667 C 0.69821 0.0307 0.70121 0.0
C1668 C 0.61549 0.03827 0.56696 0.0
C1669 C 0.63165 0.03867 0.58131 0.0
C1670 C 0.6581 0.00917 0.62292 0.0
C1671 C 0.68886 0.03428 0.6652 0.0
C1672 C 0.67428 0.03102 0.64813 0.0
C1673 C 0.63347 0.02348 0.59636 0.0
C1674 C 0.64797 0.02589 0.61394 0.0
H1675 H 0.7319 0.06178 0.67603 0.0
H1676 H 0.70888 0.05367 0.64729 0.0
H1677 H 0.67891 -0.00125 0.64663 0.0
H1678 H 0.59329 0.99387 0.58139 0.0
H1679 H 0.62083 0.99502 0.60687 0.0
C1680 C 0.02076 0.32711 0.34587 0.0
C1681 C 0.02424 0.33087 0.32482 0.0
C1682 C 0.02382 0.34227 0.36049 0.0
C1683 C 0.02317 0.3973 0.36406 0.0
H1684 H 0.04488 0.3885 0.41913 0.0
C1685 C 0.02621 0.46242 0.42084 0.0
C1686 C 0.01685 0.45854 0.43998 0.0
C1687 C 0.03197 0.44657 0.40789 0.0
C1688 C 0.03878 0.39114 0.4038 0.0
H1689 H 0.03491 0.35314 0.30282 0.0
H1690 H 0.04007 0.37958 0.32828 0.0
H1691 H 0.04564 0.36096 0.39398 0.0
H1692 H 0.00789 0.435 0.46135 0.0
H1693 H 0.01762 0.40729 0.43852 0.0
H1694 H 0.0158 0.42718 0.37384 0.0
C1695 C 0.03463 0.36502 0.33344 0.0
C1696 C 0.03918 0.3754 0.38944 0.0
C1697 C 0.03162 0.34988 0.31884 0.0
C1698 C 0.01486 0.43847 0.44658 0.0
C1699 C 0.02056 0.42258 0.43356 0.0
C1700 C 0.0228 0.41296 0.37834 0.0
C1701 C 0.03036 0.36152 0.35437 0.0
C1702 C 0.03124 0.37831 0.36944 0.0
C1703 C 0.0284 0.42651 0.41375 0.0
C1704 C 0.03049 0.41006 0.3984 0.0
H1705 H 0.01489 0.3127 0.351 0.0
H1706 H 0.02019 0.33915 0.37647 0.0
H1707 H 0.01647 0.39992 0.34897 0.0
H1708 H 0.0282 0.4777 0.41538 0.0
H1709 H 0.03842 0.45005 0.39289 0.0
C1710 C 0.68221 0.04764 0.30663 0.0
C1711 C 0.6985 0.03417 0.31131 0.0
C1712 C 0.6649 0.04902 0.31952 0.0
C1713 C 0.63428 0.01467 0.34616 0.0
H1714 H 0.60606 0.05904 0.37332 0.0
C1715 C 0.56877 0.00369 0.4039 0.0
C1716 C 0.55607 0.02024 0.40892 0.0
C1717 C 0.5834 0.00534 0.3882 0.0
C1718 C 0.61341 0.04658 0.3653 0.0
H1719 H 0.71066 0.01317 0.33393 0.0
H1720 H 0.68008 0.01535 0.35637 0.0
H1721 H 0.63965 0.06466 0.35678 0.0
H1722 H 0.54583 0.04997 0.39942 0.0
H1723 H 0.57046 0.05235 0.37094 0.0
H1724 H 0.60801 0.99665 0.35379 0.0
C1725 C 0.68081 0.02481 0.34278 0.0
C1726 C 0.63279 0.0498 0.35621 0.0
C1727 C 0.69826 0.02364 0.33005 0.0
C1728 C 0.55583 0.03718 0.39602 0.0
C1729 C 0.57011 0.03862 0.37994 0.0
C1730 C 0.61473 0.01154 0.35478 0.0
C1731 C 0.66368 0.03676 0.33703 0.0
C1732 C 0.64347 0.03374 0.347 0.0
C1733 C 0.58511 0.02337 0.37695 0.0
C1734 C 0.60422 0.02735 0.36484 0.0
H1735 H 0.68222 0.056 0.2923 0.0
H1736 H 0.65177 0.0583 0.3149 0.0
H1737 H 0.64218 0.00221 0.33863 0.0
H1738 H 0.56919 0.99039 0.41357 0.0
H1739 H 0.59459 0.99321 0.3864 0.0
C1740 C 0.02831 0.70867 0.34347 0.0
C1741 C 0.02786 0.70286 0.32264 0.0
C1742 C 0.02618 0.69436 0.35907 0.0
C1743 C 0.01042 0.64125 0.36846 0.0
H1744 H 0.04411 0.64738 0.4177 0.0
C1745 C 0.02283 0.57781 0.42754 0.0
C1746 C 0.01213 0.58244 0.44578 0.0
C1747 C 0.02715 0.59301 0.41333 0.0
C1748 C 0.03474 0.64555 0.40395 0.0
H1749 H 0.02379 0.67753 0.30192 0.0
H1750 H 0.0212 0.65251 0.32898 0.0
H1751 H 0.0453 0.67316 0.39082 0.0
H1752 H -0.00119 0.60633 0.4644 0.0
H1753 H 0.00726 0.63314 0.43985 0.0
H1754 H 0.00045 0.61327 0.38149 0.0
C1755 C 0.02283 0.66815 0.33337 0.0
C1756 C 0.03517 0.66035 0.38867 0.0
C1757 C 0.02467 0.68249 0.31779 0.0
C1758 C 0.00715 0.60254 0.45039 0.0
C1759 C 0.01197 0.61779 0.43645 0.0
C1760 C 0.01034 0.6263 0.38353 0.0
C1761 C 0.02381 0.67386 0.35421 0.0
C1762 C 0.02298 0.65839 0.37073 0.0
C1763 C 0.02128 0.61299 0.41753 0.0
C1764 C 0.02249 0.62837 0.40133 0.0
H1765 H 0.03086 0.72422 0.34779 0.0
H1766 H 0.02656 0.69938 0.37494 0.0
H1767 H 0.00046 0.63942 0.35513 0.0
H1768 H 0.02648 0.56233 0.42361 0.0
H1769 H 0.03428 0.58908 0.39873 0.0
C1770 C 0.30857 0.00556 0.3247 0.0
C1771 C 0.31694 0.99261 0.30965 0.0
C1772 C 0.32026 0.01068 0.34205 0.0
C1773 C 0.35541 0.98877 0.37678 0.0
H1774 H 0.37656 0.04134 0.39176 0.0
C1775 C 0.42018 0.99766 0.43574 0.0
C1776 C 0.4222 0.01557 0.44709 0.0
C1777 C 0.40449 0.99563 0.42117 0.0
C1778 C 0.37034 0.02665 0.38811 0.0
H1779 H 0.34423 0.97551 0.30037 0.0
H1780 H 0.36454 0.98411 0.33108 0.0
H1781 H 0.35542 0.0376 0.36063 0.0
H1782 H 0.40835 0.04485 0.45311 0.0
H1783 H 0.38018 0.04097 0.42807 0.0
H1784 H 0.36962 0.97767 0.40423 0.0
C1785 C 0.34902 0.99038 0.32926 0.0
C1786 C 0.35846 0.02454 0.37019 0.0
C1787 C 0.33748 0.98554 0.31175 0.0
C1788 C 0.4073 0.03094 0.44446 0.0
C1789 C 0.39128 0.02877 0.43 0.0
C1790 C 0.36683 0.99091 0.39487 0.0
C1791 C 0.34031 0.00265 0.34466 0.0
C1792 C 0.35146 0.00548 0.36419 0.0
C1793 C 0.39006 0.01129 0.41778 0.0
C1794 C 0.37503 0.00975 0.40044 0.0
H1795 H 0.29281 0.01133 0.32327 0.0
H1796 H 0.31333 0.02014 0.35384 0.0
H1797 H 0.34978 0.97399 0.37249 0.0
H1798 H 0.43139 0.98548 0.43728 0.0
H1799 H 0.4044 0.9821 0.41186 0.0
C1800 C 0.03689 0.19567 0.32273 0.0
C1801 C 0.02893 0.19101 0.30318 0.0
C1802 C 0.03855 0.18079 0.33794 0.0
C1803 C 0.01672 0.13031 0.35087 0.0
H1804 H 0.05528 0.13379 0.39671 0.0
C1805 C 0.0175 0.07125 0.41576 0.0
C1806 C 0.01393 0.07965 0.43529 0.0
C1807 C 0.02336 0.08352 0.39925 0.0
C1808 C 0.04449 0.13262 0.38394 0.0
H1809 H 0.01756 0.16705 0.28372 0.0
H1810 H 0.02163 0.14074 0.30969 0.0
H1811 H 0.05854 0.15711 0.36777 0.0
H1812 H 0.01435 0.10705 0.45328 0.0
H1813 H 0.02531 0.12854 0.42449 0.0
H1814 H 0.00294 0.10561 0.367 0.0
C1815 C 0.0258 0.156 0.31376 0.0
C1816 C 0.04621 0.14608 0.36738 0.0
C1817 C 0.02371 0.171 0.29872 0.0
C1818 C 0.01737 0.10027 0.43838 0.0
C1819 C 0.02359 0.11251 0.42193 0.0
C1820 C 0.0153 0.11665 0.36718 0.0
C1821 C 0.0326 0.16077 0.33384 0.0
C1822 C 0.03212 0.14535 0.35072 0.0
C1823 C 0.02596 0.10436 0.40205 0.0
C1824 C 0.02895 0.11782 0.38402 0.0
H1825 H 0.04071 0.21108 0.32664 0.0
H1826 H 0.04354 0.18529 0.35317 0.0
H1827 H 0.00519 0.12943 0.33874 0.0
H1828 H 0.01466 0.0554 0.41304 0.0
H1829 H 0.02517 0.07685 0.38411 0.0
C1830 C 0.82721 0.04706 0.30406 0.0
C1831 C 0.8336 0.03263 0.2894 0.0
C1832 C 0.83768 0.04876 0.32282 0.0
C1833 C 0.85961 0.01584 0.359 0.0
H1834 H 0.88745 0.06059 0.38534 0.0
C1835 C 0.91066 0.00547 0.43014 0.0
C1836 C 0.9152 0.02209 0.44271 0.0
C1837 C 0.89733 0.00761 0.41336 0.0
C1838 C 0.87923 0.04808 0.37848 0.0
H1839 H 0.85742 0.01046 0.28196 0.0
H1840 H 0.87521 0.013 0.31514 0.0
H1841 H 0.87344 0.06462 0.35059 0.0
H1842 H 0.90721 0.05319 0.44933 0.0
H1843 H 0.88282 0.05662 0.42072 0.0
H1844 H 0.8645 -0.00061 0.38679 0.0
C1845 C 0.86207 0.02286 0.312 0.0
C1846 C 0.87152 0.05038 0.35848 0.0
C1847 C 0.85186 0.02139 0.2931 0.0
C1848 C 0.90422 0.04021 0.43968 0.0
C1849 C 0.89048 0.04223 0.42311 0.0
C1850 C 0.86682 0.01367 0.37911 0.0
C1851 C 0.85449 0.03593 0.32724 0.0
C1852 C 0.86215 0.0341 0.34849 0.0
C1853 C 0.88779 0.02629 0.40908 0.0
C1854 C 0.87722 0.02958 0.38896 0.0
H1855 H 0.81311 0.05583 0.30186 0.0
H1856 H 0.83163 0.05892 0.33448 0.0
H1857 H 0.85198 0.00324 0.35161 0.0
H1858 H 0.91885 0.99127 0.43203 0.0
H1859 H 0.89588 0.99497 0.40294 0.0
C1860 C 0.00641 0.83446 0.31809 0.0
C1861 C 0.01992 0.83885 0.30167 0.0
C1862 C 0.00381 0.84813 0.3343 0.0
C1863 C 0.01135 0.90151 0.34843 0.0
H1864 H 0.01306 0.88135 0.40454 0.0
C1865 C 0.01852 0.95586 0.41588 0.0
C1866 C 0.00353 0.95365 0.43149 0.0
C1867 C 0.02186 0.94053 0.40156 0.0
C1868 C 0.01245 0.88715 0.38895 0.0
H1869 H 0.04065 0.86124 0.28891 0.0
H1870 H 0.03609 0.88514 0.3171 0.0
H1871 H 0.01458 0.85766 0.37563 0.0
H1872 H 0.9817 0.93291 0.44549 0.0
H1873 H 0.98757 0.90605 0.42032 0.0
H1874 H 0.00931 0.93094 0.36161 0.0
C1875 C 0.02746 0.87118 0.31749 0.0
C1876 C 0.01321 0.87361 0.37241 0.0
C1877 C 0.03015 0.85747 0.30138 0.0
C1878 C -0.0068 0.93514 0.43349 0.0
C1879 C -0.0034 0.91973 0.41913 0.0
C1880 C 0.01067 0.91499 0.36489 0.0
C1881 C 0.01454 0.86653 0.33431 0.0
C1882 C 0.01279 0.88068 0.35196 0.0
C1883 C 0.01035 0.92263 0.40255 0.0
C1884 C 0.01136 0.90799 0.38532 0.0
H1885 H -0.00146 0.82009 0.31884 0.0
H1886 H -0.00644 0.84422 0.34692 0.0
H1887 H 0.01061 0.90742 0.33289 0.0
H1888 H 0.02704 0.96979 0.41413 0.0
H1889 H 0.03295 0.94297 0.38924 0.0
C1890 C 0.17518 0.01487 0.28331 0.0
C1891 C 0.18223 0.99497 0.28045 0.0
C1892 C 0.16124 0.01948 0.29921 0.0
C1893 C 0.14462 6e-05 0.34943 0.0
H1894 H 0.09466 0.0323 0.34143 0.0
C1895 C 0.07697 0.99717 0.40595 0.0
C1896 C 0.06871 0.01564 0.41278 0.0
C1897 C 0.0908 0.99659 0.38945 0.0
C1898 C 0.1087 0.02349 0.3439 0.0
H1899 H 0.18008 0.96431 0.29187 0.0
H1900 H 0.15549 0.97224 0.31907 0.0
H1901 H 0.11937 0.02806 0.31296 0.0
H1902 H 0.06754 0.04785 0.40695 0.0
H1903 H 0.09164 0.04669 0.37783 0.0
H1904 H 0.13385 0.99512 0.38015 0.0
C1905 C 0.16085 0.98431 0.30922 0.0
C1906 C 0.12281 0.0211 0.32767 0.0
C1907 C 0.17466 0.97972 0.29339 0.0
C1908 C 0.07376 0.0334 0.40211 0.0
C1909 C 0.0875 0.03277 0.38544 0.0
C1910 C 0.13055 0.0024 0.36556 0.0
C1911 C 0.15432 0.00426 0.31254 0.0
C1912 C 0.14058 0.0089 0.33017 0.0
C1913 C 0.09649 0.01441 0.37932 0.0
C1914 C 0.11221 0.01368 0.36276 0.0
H1915 H 0.18077 0.02691 0.27354 0.0
H1916 H 0.1564 0.03498 0.30148 0.0
H1917 H 0.1585 0.991 0.3519 0.0
H1918 H 0.07336 0.98322 0.41379 0.0
H1919 H 0.09726 0.98219 0.38474 0.0
C1920 C 0.00267 0.83571 0.69315 0.0
C1921 C 0.9861 0.83892 0.70696 0.0
C1922 C 0.00657 0.84948 0.6773 0.0
C1923 C -0.00472 0.90182 0.66054 0.0
H1924 H 0.00784 0.88117 0.60597 0.0
C1925 C -0.00393 0.95447 0.59093 0.0
C1926 C 0.01378 0.9532 0.57825 0.0
C1927 C -0.00824 0.93929 0.60514 0.0
C1928 C 0.00446 0.88714 0.62115 0.0
H1929 H 0.96124 0.85953 0.71553 0.0
H1930 H 0.96783 0.88335 0.68784 0.0
H1931 H 0.00338 0.85773 0.63469 0.0
H1932 H 0.03997 0.93425 0.56943 0.0
H1933 H 0.03247 0.90774 0.59442 0.0
H1934 H -0.00375 0.93116 0.64708 0.0
C1935 C 0.97791 0.87029 0.68924 0.0
C1936 C 0.002 0.87374 0.63762 0.0
C1937 C 0.97403 0.85655 0.70504 0.0
C1938 C 0.02628 0.93574 0.57909 0.0
C1939 C 0.02195 0.92052 0.59336 0.0
C1940 C -0.00237 0.91515 0.6441 0.0
C1941 C -0.00598 0.86678 0.67497 0.0
C1942 C -0.00268 0.88094 0.65752 0.0
C1943 C 0.00505 0.92249 0.60702 0.0
C1944 C 0.00217 0.90799 0.62421 0.0
H1945 H 0.01213 0.82217 0.69408 0.0
H1946 H 0.01929 0.84647 0.66676 0.0
H1947 H -0.00794 0.90792 0.67569 0.0
H1948 H 0.98591 0.96756 0.59044 0.0
H1949 H 0.97832 0.94099 0.6151 0.0
C1950 C 0.19833 0.01576 0.7048 0.0
C1951 C 0.18817 0.00452 0.72007 0.0
C1952 C 0.1883 0.02026 0.68633 0.0
C1953 C 0.14625 -5e-05 0.65407 0.0
H1954 H 0.15824 0.04647 0.62007 0.0
C1955 C 0.11601 0.0024 0.57199 0.0
C1956 C 0.10571 0.02037 0.56667 0.0
C1957 C 0.12944 0.00187 0.58888 0.0
C1958 C 0.15467 0.03342 0.62939 0.0
H1959 H 0.1592 0.99042 0.72881 0.0
H1960 H 0.14113 -0.00084 0.69686 0.0
H1961 H 0.17168 0.0449 0.65512 0.0
H1962 H 0.10331 0.05238 0.57335 0.0
H1963 H 0.12613 0.05131 0.60299 0.0
H1964 H 0.12842 0.98889 0.62885 0.0
C1965 C 0.15711 0.0039 0.69883 0.0
C1966 C 0.1625 0.03245 0.64946 0.0
C1967 C 0.16731 -0.0009 0.71721 0.0
C1968 C 0.1109 0.03823 0.57709 0.0
C1969 C 0.12406 0.03763 0.59417 0.0
C1970 C 0.13823 0.00104 0.63417 0.0
C1971 C 0.16779 0.0138 0.68284 0.0
C1972 C 0.15841 0.01566 0.66202 0.0
C1973 C 0.13258 0.01923 0.60089 0.0
C1974 C 0.14241 0.01772 0.62153 0.0
H1975 H 0.21458 0.01979 0.7065 0.0
H1976 H 0.19712 0.02766 0.67433 0.0
H1977 H 0.14311 0.98659 0.66308 0.0
H1978 H 0.11257 0.98845 0.56405 0.0
H1979 H 0.13637 0.98758 0.59325 0.0
C1980 C -0.00196 0.19579 0.70153 0.0
C1981 C 0.01298 0.19286 0.71712 0.0
C1982 C -0.00469 0.18124 0.68618 0.0
C1983 C 0.0281 0.14681 0.6587 0.0
H1984 H 0.97821 0.1241 0.63465 0.0
C1985 C 0.03453 0.08712 0.59594 0.0
C1986 C 0.01945 0.08612 0.58035 0.0
C1987 C 0.03178 0.09984 0.61276 0.0
C1988 C -0.00774 0.13057 0.64096 0.0
H1989 H 0.03501 0.17158 0.73024 0.0
H1990 H 0.03038 0.14628 0.70333 0.0
H1991 H 0.97545 0.1458 0.66511 0.0
H1992 H -0.01036 0.09766 0.56997 0.0
H1993 H 0.98526 0.12103 0.59899 0.0
H1994 H 0.04499 0.13274 0.63439 0.0
C1995 C 0.02101 0.15991 0.70284 0.0
C1996 C -0.00935 0.14282 0.6585 0.0
C1997 C 0.02365 0.17435 0.71821 0.0
C1998 C 0.00149 0.0982 0.58184 0.0
C1999 C -0.00105 0.11144 0.59853 0.0
C2000 C 0.02969 0.135 0.64105 0.0
C2001 C 0.00754 0.16364 0.68621 0.0
C2002 C 0.00863 0.1507 0.6677 0.0
C2003 C 0.01412 0.11242 0.61422 0.0
C2004 C 0.01187 0.12633 0.63214 0.0
H2005 H -0.0103 0.20997 0.70022 0.0
H2006 H 0.98486 0.18445 0.67348 0.0
H2007 H 0.04216 0.15318 0.66518 0.0
H2008 H 0.04834 0.07766 0.59541 0.0
H2009 H 0.04348 0.09956 0.62476 0.0
C2010 C 0.86704 0.04143 0.72935 0.0
C2011 C 0.84772 0.03206 0.73235 0.0
C2012 C 0.87957 0.03603 0.7127 0.0
C2013 C 0.89255 2e-05 0.67306 0.0
H2014 H 0.89815 0.04722 0.63831 0.0
C2015 C 0.93558 -0.00089 0.59398 0.0
C2016 C 0.94821 0.01597 0.59033 0.0
C2017 C 0.92202 -0.00114 0.61087 0.0
C2018 C 0.89692 0.03392 0.6479 0.0
H2019 H 0.82729 0.00842 0.7213 0.0
H2020 H 0.84967 0.99864 0.6925 0.0
H2021 H 0.87887 0.04969 0.67044 0.0
H2022 H 0.95712 0.04539 0.60176 0.0
H2023 H 0.93427 0.04469 0.63132 0.0
H2024 H 0.91139 0.98444 0.65083 0.0
C2025 C 0.85488 0.01025 0.703 0.0
C2026 C 0.88586 0.03536 0.66624 0.0
C2027 C 0.84217 0.01582 0.71955 0.0
C2028 C 0.94741 0.03228 0.60402 0.0
C2029 C 0.93414 0.03194 0.6209 0.0
C2030 C 0.90401 0.99864 0.65476 0.0
C2031 C 0.87316 0.02096 0.69898 0.0
C2032 C 0.884 0.01858 0.67916 0.0
C2033 C 0.92107 0.01541 0.62439 0.0
C2034 C 0.90677 0.01576 0.6423 0.0
H2035 H 0.87191 0.05374 0.73916 0.0
H2036 H 0.89379 0.04432 0.7099 0.0
H2037 H 0.89101 0.98686 0.68279 0.0
H2038 H 0.93583 0.98636 0.58355 0.0
H2039 H 0.91205 0.98595 0.61313 0.0
C2040 C 0.30866 0.98533 0.14729 0.0
C2041 C 0.30754 0.99417 0.1669 0.0
C2042 C 0.32596 0.98859 0.13477 0.0
C2043 C 0.373 0.01989 0.12819 0.0
H2044 H 0.3949 0.97148 0.10229 0.0
C2045 C 0.45121 0.02023 0.08607 0.0
C2046 C 0.44946 0.0139 0.06548 0.0
C2047 C 0.43551 0.01584 0.1002 0.0
C2048 C 0.38895 0.98508 0.10948 0.0
H2049 H 0.32294 0.01419 0.18838 0.0
H2050 H 0.35315 0.01983 0.16658 0.0
H2051 H 0.36265 0.96986 0.12208 0.0
H2052 H 0.43066 0.99682 0.04397 0.0
H2053 H 0.40367 0.98869 0.06872 0.0
H2054 H 0.39937 0.03506 0.11556 0.0
C2055 C 0.34065 0.01055 0.16075 0.0
C2056 C 0.37041 0.98423 0.12061 0.0
C2057 C 0.3233 0.00738 0.17322 0.0
C2058 C 0.43263 0.00171 0.05973 0.0
C2059 C 0.4171 0.99711 0.07391 0.0
C2060 C 0.39161 0.02069 0.11716 0.0
C2061 C 0.34247 0.00062 0.14172 0.0
C2062 C 0.36211 0.00168 0.12986 0.0
C2063 C 0.41799 0.00484 0.09401 0.0
C2064 C 0.39962 0.00334 0.10755 0.0
H2065 H 0.29657 0.97525 0.14202 0.0
H2066 H 0.32672 0.98116 0.11992 0.0
H2067 H 0.36692 0.0336 0.13502 0.0
H2068 H 0.46408 0.02955 0.091 0.0
H2069 H 0.43664 0.02172 0.11573 0.0
C2070 C -0.0012 0.32383 0.17636 0.0
C2071 C 0.01703 0.31316 0.18166 0.0
C2072 C -0.00072 0.33906 0.16154 0.0
C2073 C 0.02707 0.35875 0.11693 0.0
H2074 H 0.00378 0.41017 0.13383 0.0
C2075 C 0.03663 0.43168 0.06847 0.0
C2076 C 0.02147 0.44694 0.07029 0.0
C2077 C 0.03534 0.41416 0.0804 0.0
C2078 C 0.00995 0.39586 0.12857 0.0
H2079 H 0.04999 0.30985 0.17516 0.0
H2080 H 0.05072 0.33641 0.14878 0.0
H2081 H 0.00332 0.3819 0.15755 0.0
H2082 H -0.00782 0.45512 0.08468 0.0
H2083 H 0.98926 0.42422 0.10462 0.0
H2084 H 0.03323 0.37248 0.08772 0.0
C2085 C 0.0361 0.3329 0.15626 0.0
C2086 C 0.00984 0.37968 0.14231 0.0
C2087 C 0.0357 0.3178 0.1714 0.0
C2088 C 0.00428 0.44375 0.08322 0.0
C2089 C 0.00275 0.42608 0.09482 0.0
C2090 C 0.02687 0.37489 0.10298 0.0
C2091 C 0.01793 0.34389 0.15145 0.0
C2092 C 0.0184 0.36097 0.13667 0.0
C2093 C 0.01863 0.41132 0.09417 0.0
C2094 C 0.01831 0.39373 0.10861 0.0
H2095 H 0.98423 0.32086 0.18417 0.0
H2096 H 0.98503 0.34721 0.15806 0.0
H2097 H 0.03364 0.34443 0.11215 0.0
H2098 H 0.0501 0.43371 0.05863 0.0
H2099 H 0.04797 0.40332 0.07946 0.0
C2100 C 0.70198 0.04333 0.15941 0.0
C2101 C 0.70078 0.0333 0.17832 0.0
C2102 C 0.68407 0.04579 0.14734 0.0
C2103 C 0.63337 0.0216 0.13926 0.0
H2104 H 0.62252 0.06749 0.10379 0.0
C2105 C 0.56478 0.02017 0.08397 0.0
C2106 C 0.5708 0.02326 0.06341 0.0
C2107 C 0.57777 0.02616 0.10006 0.0
C2108 C 0.62534 0.05465 0.11372 0.0
H2109 H 0.68037 0.01873 0.20017 0.0
H2110 H 0.649 0.02331 0.1794 0.0
H2111 H 0.65142 0.06864 0.12842 0.0
H2112 H 0.59429 0.03649 0.04364 0.0
H2113 H 0.61683 0.04702 0.0717 0.0
H2114 H 0.60774 0.00739 0.12436 0.0
C2115 C 0.66365 0.02896 0.17356 0.0
C2116 C 0.64191 0.05524 0.12771 0.0
C2117 C 0.68151 0.02642 0.18548 0.0
C2118 C 0.58916 0.03395 0.05931 0.0
C2119 C 0.60209 0.04003 0.07541 0.0
C2120 C 0.6168 0.02106 0.12544 0.0
C2121 C 0.66479 0.03825 0.15412 0.0
C2122 C 0.64628 0.03858 0.14042 0.0
C2123 C 0.59695 0.03539 0.09588 0.0
C2124 C 0.61279 0.03743 0.11231 0.0
H2125 H 0.71681 0.0487 0.15373 0.0
H2126 H 0.68551 0.05284 0.13237 0.0
H2127 H 0.63654 0.00832 0.14846 0.0
H2128 H 0.55058 0.0122 0.08763 0.0
H2129 H 0.57329 0.02268 0.11576 0.0
C2130 C 0.01234 0.72143 0.16152 0.0
C2131 C 0.0086 0.71751 0.18249 0.0
C2132 C 0.00895 0.70657 0.14663 0.0
C2133 C 0.98374 0.65723 0.13669 0.0
H2134 H 0.02945 0.65028 0.0983 0.0
C2135 C -0.00264 0.58486 0.08722 0.0
C2136 C 0.00733 0.58726 0.06815 0.0
C2137 C -0.00621 0.60163 0.09998 0.0
C2138 C 0.0163 0.65216 0.10858 0.0
H2139 H -0.0024 0.69494 0.20404 0.0
H2140 H -0.00854 0.66918 0.17805 0.0
H2141 H 0.02998 0.67807 0.12251 0.0
H2142 H 0.01971 0.60896 0.04662 0.0
H2143 H 0.01282 0.63814 0.06827 0.0
H2144 H 0.97022 0.63104 0.12279 0.0
C2145 C -0.00309 0.68381 0.17312 0.0
C2146 C 0.01664 0.66816 0.12254 0.0
C2147 C 0.00039 0.69865 0.18803 0.0
C2148 C 0.01221 0.60671 0.06136 0.0
C2149 C 0.00841 0.62341 0.07389 0.0
C2150 C 0.98334 0.6412 0.12259 0.0
C2151 C 0.00164 0.68742 0.1523 0.0
C2152 C 0.00043 0.67088 0.13683 0.0
C2153 C 4e-05 0.62104 0.09376 0.0
C2154 C -0.00034 0.63844 0.10836 0.0
H2155 H 0.0183 0.73588 0.15662 0.0
H2156 H 0.01239 0.70997 0.13067 0.0
H2157 H 0.97095 0.65898 0.14744 0.0
H2158 H -0.00633 0.56994 0.09285 0.0
H2159 H 0.98733 0.5992 0.11519 0.0
C2160 C 0.31508 0.0046 0.84737 0.0
C2161 C 0.31592 0.98921 0.83264 0.0
C2162 C 0.33183 0.00749 0.86077 0.0
C2163 C 0.37803 0.98062 0.88175 0.0
H2164 H 0.39205 0.03384 0.90175 0.0
C2165 C 0.4501 0.00094 0.93249 0.0
C2166 C 0.44552 0.01367 0.94913 0.0
C2167 C 0.43454 0.99612 0.91825 0.0
C2168 C 0.3882 0.01888 0.89633 0.0
H2169 H 0.33494 0.96557 0.81926 0.0
H2170 H 0.36455 0.97104 0.84209 0.0
H2171 H 0.36507 0.03024 0.87566 0.0
H2172 H 0.42144 0.03089 0.9646 0.0
H2173 H 0.39422 0.02247 0.93982 0.0
H2174 H 0.40161 0.96945 0.90228 0.0
C2175 C 0.35077 0.98036 0.844 0.0
C2176 C 0.37271 0.0168 0.88146 0.0
C2177 C 0.33391 0.97726 0.83088 0.0
C2178 C 0.42516 0.0209 0.9519 0.0
C2179 C 0.4097 0.01621 0.9377 0.0
C2180 C 0.39374 0.98276 0.89645 0.0
C2181 C 0.3498 0.99526 0.85935 0.0
C2182 C 0.36719 0.99762 0.87422 0.0
C2183 C 0.41441 0.00431 0.92044 0.0
C2184 C 0.39866 0.00187 0.9041 0.0
H2185 H 0.30131 0.01401 0.84881 0.0
H2186 H 0.33043 0.01897 0.87255 0.0
H2187 H 0.37401 0.96559 0.87673 0.0
H2188 H 0.46592 0.99589 0.92972 0.0
H2189 H 0.43852 0.98703 0.90494 0.0
C2190 C 0.03868 0.32203 0.84167 0.0
C2191 C 0.02103 0.31407 0.83182 0.0
C2192 C 0.03658 0.33691 0.85675 0.0
C2193 C 0.00015 0.37704 0.87228 0.0
H2194 H 0.03598 0.38149 0.92018 0.0
C2195 C 0.98669 0.43755 0.93392 0.0
C2196 C 0.00412 0.44864 0.94033 0.0
C2197 C 0.98914 0.42026 0.92195 0.0
C2198 C 0.026 0.38049 0.90677 0.0
H2199 H 0.98727 0.31461 0.83106 0.0
H2200 H 0.98357 0.34054 0.85749 0.0
H2201 H 0.03888 0.35196 0.89774 0.0
H2202 H 0.03788 0.4498 0.93981 0.0
H2203 H 0.04216 0.41932 0.91888 0.0
H2204 H 0.98727 0.4055 0.88124 0.0
C2205 C -0.00092 0.33555 0.85322 0.0
C2206 C 0.02762 0.3636 0.89394 0.0
C2207 C 0.00118 0.32066 0.83811 0.0
C2208 C 0.02414 0.44166 0.93501 0.0
C2209 C 0.0266 0.42417 0.92313 0.0
C2210 C -0.00153 0.39382 0.88512 0.0
C2211 C 0.01678 0.34421 0.86234 0.0
C2212 C 0.01468 0.36168 0.87655 0.0
C2213 C 0.00908 0.4135 0.91621 0.0
C2214 C 0.01132 0.39572 0.90252 0.0
H2215 H 0.05423 0.31754 0.837 0.0
H2216 H 0.05055 0.34338 0.86329 0.0
H2217 H -0.00969 0.37632 0.85874 0.0
H2218 H 0.97104 0.4424 0.93782 0.0
H2219 H 0.97537 0.41219 0.91711 0.0
C2220 C 0.71591 0.03153 0.85391 0.0
C2221 C 0.715 0.0462 0.83845 0.0
C2222 C 0.69904 0.02904 0.86725 0.0
C2223 C 0.65225 0.05597 0.88649 0.0
H2224 H 0.63655 0.00283 0.90538 0.0
C2225 C 0.57693 0.03762 0.9327 0.0
C2226 C 0.57942 0.02331 0.94839 0.0
C2227 C 0.59375 0.04224 0.91986 0.0
C2228 C 0.6409 0.01779 0.90037 0.0
H2229 H 0.69593 0.06907 0.82384 0.0
H2230 H 0.66616 0.06435 0.84665 0.0
H2231 H 0.66511 0.00627 0.88102 0.0
H2232 H 0.60116 0.00355 0.96407 0.0
H2233 H 0.63061 0.01192 0.94206 0.0
H2234 H 0.62772 0.06738 0.90573 0.0
C2235 C 0.68001 0.05526 0.84909 0.0
C2236 C 0.65727 0.01976 0.88645 0.0
C2237 C 0.69694 0.05791 0.836 0.0
C2238 C 0.59901 0.0146 0.95195 0.0
C2239 C 0.61575 0.01926 0.93929 0.0
C2240 C 0.63575 0.05398 0.90034 0.0
C2241 C 0.68096 0.04101 0.86505 0.0
C2242 C 0.66325 0.03887 0.87948 0.0
C2243 C 0.6131 0.03253 0.92267 0.0
C2244 C 0.63011 0.03489 0.90757 0.0
H2245 H 0.72977 0.02234 0.8559 0.0
H2246 H 0.70032 0.01805 0.87952 0.0
H2247 H 0.65664 0.07095 0.88159 0.0
H2248 H 0.56177 0.04418 0.92955 0.0
H2249 H 0.59132 0.05248 0.90708 0.0
C2250 C 0.01518 0.71444 0.83388 0.0
C2251 C -0.00549 0.71909 0.82841 0.0
C2252 C 0.01944 0.6997 0.8488 0.0
C2253 C -0.00613 0.67131 0.89117 0.0
H2254 H 0.03965 0.63357 0.88406 0.0
C2255 C 0.00526 0.60872 0.94994 0.0
C2256 C 0.00905 0.58948 0.94189 0.0
C2257 C 0.00819 0.62577 0.93775 0.0
C2258 C 0.02677 0.64396 0.88626 0.0
H2259 H 0.96217 0.71137 0.83374 0.0
H2260 H 0.96951 0.68569 0.85932 0.0
H2261 H 0.03456 0.66074 0.85913 0.0
H2262 H 0.01977 0.57269 0.91536 0.0
H2263 H 0.02424 0.60244 0.89359 0.0
H2264 H 0.9852 0.65408 0.91743 0.0
C2265 C 0.98249 0.6938 0.85271 0.0
C2266 C 0.02399 0.65969 0.87208 0.0
C2267 C 0.97825 0.70857 0.838 0.0
C2268 C 0.01705 0.58749 0.9219 0.0
C2269 C 0.01958 0.60457 0.90948 0.0
C2270 C -0.00349 0.65556 0.90516 0.0
C2271 C 0.00311 0.68921 0.85842 0.0
C2272 C 0.00728 0.67338 0.87421 0.0
C2273 C 0.01433 0.62387 0.917 0.0
C2274 C 0.01288 0.64154 0.90285 0.0
H2275 H 0.02803 0.7223 0.82674 0.0
H2276 H 0.03551 0.69667 0.85293 0.0
H2277 H 0.98105 0.68173 0.89355 0.0
H2278 H -0.00096 0.61052 0.96536 0.0
H2279 H 0.00462 0.64038 0.94431 0.0
C2280 C 0.14823 0.30796 0.00697 0.0
C2281 C 0.16869 0.31016 0.01419 0.0
C2282 C 0.13344 0.32313 0.01026 0.0
C2283 C 0.12367 0.37185 0.03802 0.0
H2284 H 0.08859 0.38225 0.99051 0.0
C2285 C 0.08497 0.44799 0.0143 0.0
C2286 C 0.06416 0.44706 0.00763 0.0
C2287 C 0.09561 0.43044 0.0201 0.0
C2288 C 0.09805 0.37934 0.00402 0.0
H2289 H 0.18958 0.32959 0.03112 0.0
H2290 H 0.16402 0.35634 0.0364 0.0
H2291 H 0.11128 0.35288 0.9907 0.0
H2292 H 0.03769 0.42735 0.00329 0.0
H2293 H 0.05653 0.39664 0.01285 0.0
H2294 H 0.11114 0.39935 0.05056 0.0
C2295 C 0.15912 0.34274 0.02863 0.0
C2296 C 0.11102 0.36243 0.00422 0.0
C2297 C 0.17383 0.32741 0.0256 0.0
C2298 C 0.05376 0.42852 0.00823 0.0
C2299 C 0.06451 0.41095 0.01367 0.0
C2300 C 0.11091 0.38904 0.03762 0.0
C2301 C 0.13887 0.34104 0.02051 0.0
C2302 C 0.12409 0.35844 0.02117 0.0
C2303 C 0.08568 0.4117 0.01901 0.0
C2304 C 0.09804 0.3929 0.02058 0.0
H2305 H 0.14383 0.29471 -0.00172 0.0
H2306 H 0.11786 0.32101 0.00426 0.0
H2307 H 0.13332 0.36918 0.05143 0.0
H2308 H 0.09328 0.46214 0.01422 0.0
H2309 H 0.11196 0.43137 0.02413 0.0
C2310 C 0.15243 0.7253 0.02645 0.0
C2311 C 0.16425 0.72692 0.00831 0.0
C2312 C 0.13928 0.70873 0.02941 0.0
C2313 C 0.11344 0.66829 -0.00042 0.0
H2314 H 0.11155 0.63884 0.05119 0.0
C2315 C 0.09243 0.58636 0.00157 0.0
C2316 C 0.07218 0.58317 0.0089 0.0
C2317 C 0.103 0.60398 0.00653 0.0
C2318 C 0.11181 0.64713 0.03681 0.0
H2319 H 0.1726 0.71214 0.97968 0.0
H2320 H 0.15024 0.68333 0.98493 0.0
H2321 H 0.13072 0.67081 0.04922 0.0
H2322 H 0.04729 0.5954 0.02751 0.0
H2323 H 0.066 0.6264 0.03661 0.0
H2324 H 0.0955 0.64424 0.98692 0.0
C2325 C 0.15029 0.69507 -0.00347 0.0
C2326 C 0.12266 0.66539 0.03567 0.0
C2327 C 0.16314 0.71158 0.99351 0.0
C2328 C 0.06317 0.59724 0.02241 0.0
C2329 C 0.07378 0.61499 0.02742 0.0
C2330 C 0.10288 0.65009 0.00068 0.0
C2331 C 0.13797 0.69351 0.01435 0.0
C2332 C 0.1241 0.67583 0.01683 0.0
C2333 C 0.09344 0.61876 0.01881 0.0
C2334 C 0.10241 0.63914 0.01912 0.0
H2335 H 0.15324 0.73689 0.03816 0.0
H2336 H 0.12998 0.70794 0.04331 0.0
H2337 H 0.11377 0.67618 0.98498 0.0
H2338 H 0.09954 0.57582 0.99088 0.0
H2339 H 0.1181 0.6067 -0.00037 0.0
C2340 C 0.29946 0.18393 0.02511 0.0
C2341 C 0.29313 0.19146 0.00582 0.0
C2342 C 0.31778 0.17249 0.02691 0.0
C2343 C 0.36794 0.16609 0.00053 0.0
H2344 H 0.37403 0.11754 0.0332 0.0
C2345 C 0.4378 0.11199 0.99255 0.0
C2346 C 0.44555 0.10257 0.01038 0.0
C2347 C 0.42007 0.12424 0.99354 0.0
C2348 C 0.37264 0.13127 0.02427 0.0
H2349 H 0.30082 0.19224 0.97322 0.0
H2350 H 0.33219 0.17199 0.97633 0.0
H2351 H 0.34031 0.13489 0.03192 0.0
H2352 H 0.44133 0.09952 0.04346 0.0
H2353 H 0.41049 0.12103 0.04512 0.0
H2354 H 0.40011 0.16247 0.99271 0.0
C2355 C 0.3232 0.17513 0.9901 0.0
C2356 C 0.35333 0.14114 0.02351 0.0
C2357 C 0.30497 0.18648 0.98829 0.0
C2358 C 0.43579 0.10652 0.0294 0.0
C2359 C 0.41799 0.11869 0.03035 0.0
C2360 C 0.38718 0.15627 0.00131 0.0
C2361 C 0.33013 0.16852 0.00947 0.0
C2362 C 0.35072 0.15846 0.01134 0.0
C2363 C 0.40968 0.1273 0.01237 0.0
C2364 C 0.38969 0.13861 0.01294 0.0
H2365 H 0.29061 0.18739 0.03888 0.0
H2366 H 0.32274 0.16753 0.04204 0.0
H2367 H 0.36651 0.17969 0.9914 0.0
H2368 H 0.44491 0.10926 0.97766 0.0
H2369 H 0.41397 0.13058 0.97938 0.0
C2370 C 0.87259 0.31102 0.00606 0.0
C2371 C 0.86483 0.30673 0.9863 0.0
C2372 C 0.88694 0.32655 0.00893 0.0
C2373 C 0.90423 0.37373 0.98488 0.0
H2374 H 0.95095 0.36893 0.02247 0.0
C2375 C 0.96312 0.43795 0.99455 0.0
C2376 C 0.96837 0.44292 0.01493 0.0
C2377 C 0.9526 0.42011 0.99017 0.0
C2378 C 0.9379 0.37053 0.01201 0.0
H2379 H 0.86615 0.31536 0.95406 0.0
H2380 H 0.89145 0.34201 0.95902 0.0
H2381 H 0.92829 0.34004 0.01677 0.0
H2382 H 0.96751 0.43255 0.04664 0.0
H2383 H 0.94891 0.40161 0.03906 0.0
H2384 H 0.91354 0.40427 0.98036 0.0
C2385 C 0.88634 0.33351 0.97232 0.0
C2386 C 0.92492 0.354 0.00877 0.0
C2387 C 0.87206 0.31802 0.96945 0.0
C2388 C 0.96363 0.42923 0.03075 0.0
C2389 C 0.95308 0.41141 0.0264 0.0
C2390 C 0.91717 0.39025 0.98814 0.0
C2391 C 0.89374 0.33813 0.99211 0.0
C2392 C 0.9079 0.35545 0.99523 0.0
C2393 C 0.94707 0.40683 0.00611 0.0
C2394 C 0.93409 0.38888 0.00182 0.0
H2395 H 0.86739 0.30255 0.01934 0.0
H2396 H 0.89223 0.32986 0.0244 0.0
H2397 H 0.89103 0.37545 0.97462 0.0
H2398 H 0.96646 0.44813 0.98204 0.0
H2399 H 0.94848 0.41687 0.97433 0.0
C2400 C 0.7283 0.86627 0.01421 0.0
C2401 C 0.73081 0.84855 0.00256 0.0
C2402 C 0.71039 0.87808 0.01204 0.0
C2403 C 0.66474 0.89022 0.98104 0.0
H2404 H 0.63562 0.89152 0.03341 0.0
C2405 C 0.58146 0.92247 0.98702 0.0
C2406 C 0.57714 0.93439 0.00441 0.0
C2407 C 0.5995 0.91058 0.98627 0.0
C2408 C 0.64359 0.89161 0.01871 0.0
H2409 H 0.71741 0.83051 0.97804 0.0
H2410 H 0.68648 0.85163 0.97382 0.0
H2411 H 0.67026 0.87664 0.0314 0.0
H2412 H 0.58788 0.94263 0.03494 0.0
H2413 H 0.61948 0.92265 0.0334 0.0
H2414 H 0.63848 0.90582 0.9684 0.0
C2415 C 0.6983 0.85612 0.9848 0.0
C2416 C 0.66343 0.88305 0.01759 0.0
C2417 C 0.71609 0.84412 0.98716 0.0
C2418 C 0.59063 0.93344 0.0214 0.0
C2419 C 0.60882 0.92189 0.0205 0.0
C2420 C 0.64501 0.89919 0.98222 0.0
C2421 C 0.69488 0.8726 -0.00208 0.0
C2422 C 0.6742 0.88237 -0.0012 0.0
C2423 C 0.61376 0.91066 0.00275 0.0
C2424 C 0.6342 0.90007 0.00112 0.0
H2425 H 0.73958 0.87032 0.02589 0.0
H2426 H 0.70816 0.89094 0.0221 0.0
H2427 H 0.67278 0.88973 0.96637 0.0
H2428 H 0.57126 0.92283 0.97373 0.0
H2429 H 0.60248 0.90172 0.97257 0.0
C2430 C 0.84597 0.70694 0.01614 0.0
C2431 C 0.84625 0.72288 0.00202 0.0
C2432 C 0.85875 0.69021 0.0133 0.0
C2433 C 0.89006 0.66187 0.97539 0.0
H2434 H 0.91322 0.639 0.02547 0.0
C2435 C 0.95126 0.59529 0.98833 0.0
C2436 C 0.9435 0.5808 0.00203 0.0
C2437 C 0.93936 0.61244 0.98358 0.0
C2438 C 0.90687 0.64526 0.01136 0.0
H2439 H 0.85947 0.7338 0.9735 0.0
H2440 H 0.88275 0.70449 0.96877 0.0
H2441 H 0.89395 0.67055 0.02711 0.0
H2442 H 0.91706 0.57205 0.0206 0.0
H2443 H 0.89633 0.60196 0.01238 0.0
H2444 H 0.90353 0.63626 0.95978 0.0
C2445 C 0.8724 0.70492 0.98194 0.0
C2446 C 0.89576 0.66326 0.01228 0.0
C2447 C 0.85926 0.72169 0.98467 0.0
C2448 C 0.92325 0.58296 0.00984 0.0
C2449 C 0.91143 0.60002 0.00516 0.0
C2450 C 0.90154 0.64382 0.97444 0.0
C2451 C 0.87242 0.68911 -0.00359 0.0
C2452 C 0.8866 0.67145 0.99446 0.0
C2453 C 0.91973 0.61525 0.9927 0.0
C2454 C 0.90946 0.63517 0.99257 0.0
H2455 H 0.83561 0.70732 0.02933 0.0
H2456 H 0.85782 0.67804 0.02437 0.0
H2457 H 0.88322 0.66783 0.9614 0.0
H2458 H 0.96713 0.5943 0.98284 0.0
H2459 H 0.94614 0.6242 0.9742 0.0
C2460 C 0.29456 0.85057 0.02128 0.0
C2461 C 0.27912 0.85234 0.00597 0.0
C2462 C 0.3094 0.8657 0.02385 0.0
C2463 C 0.33671 0.90195 0.99273 0.0
H2464 H 0.35613 0.92474 0.04419 0.0
C2465 C 0.40289 0.95955 0.99297 0.0
C2466 C 0.41768 0.95797 0.00881 0.0
C2467 C 0.38421 0.94892 0.99412 0.0
C2468 C 0.35105 0.91836 0.0297 0.0
H2469 H 0.26611 0.87214 0.98263 0.0
H2470 H 0.2923 0.89828 0.98684 0.0
H2471 H 0.32652 0.90175 0.04426 0.0
H2472 H 0.42431 0.94441 0.03855 0.0
H2473 H 0.39229 0.92526 0.04016 0.0
H2474 H 0.36163 0.91749 0.97815 0.0
C2475 C 0.29299 0.8851 -0.00333 0.0
C2476 C 0.33403 0.9053 0.02978 0.0
C2477 C 0.27805 0.87012 0.99424 0.0
C2478 C 0.41316 0.94604 0.02611 0.0
C2479 C 0.39469 0.93511 0.02709 0.0
C2480 C 0.35388 0.9147 0.99267 0.0
C2481 C 0.30914 0.88274 0.01105 0.0
C2482 C 0.32669 0.89706 0.01126 0.0
C2483 C 0.3801 0.93614 0.01095 0.0
C2484 C 0.36129 0.92313 0.01113 0.0
H2485 H 0.29597 0.83699 0.03043 0.0
H2486 H 0.32178 0.8635 0.03499 0.0
H2487 H 0.3316 0.89545 0.97829 0.0
H2488 H 0.40585 0.96881 0.97955 0.0
H2489 H 0.37313 0.95052 0.98165 0.0
C2490 C 0.75317 0.16414 0.99079 0.0
C2491 C 0.74919 0.18406 -0.00309 0.0
C2492 C 0.73824 0.14924 0.99387 0.0
C2493 C 0.68759 0.13828 0.0196 0.0
H2494 H 0.68022 0.10315 0.97243 0.0
C2495 C 0.62333 0.07836 0.01807 0.0
C2496 C 0.61187 0.0767 -0.00031 0.0
C2497 C 0.64172 0.08943 0.01865 0.0
C2498 C 0.68199 0.1129 0.98568 0.0
H2499 H 0.72695 0.20394 0.01181 0.0
H2500 H 0.70067 0.17811 0.01684 0.0
H2501 H 0.70918 0.1265 0.97307 0.0
H2502 H 0.61121 0.08466 0.96728 0.0
H2503 H 0.64317 0.10421 0.96834 0.0
H2504 H 0.65971 0.12538 0.03169 0.0
C2505 C 0.71545 0.17378 0.01006 0.0
C2506 C 0.69881 0.12609 0.98622 0.0
C2507 C 0.73051 0.18862 0.00719 0.0
C2508 C 0.61971 0.08558 0.98167 0.0
C2509 C 0.63807 0.09677 0.98228 0.0
C2510 C 0.67066 0.12516 0.019 0.0
C2511 C 0.71888 0.15404 0.00285 0.0
C2512 C 0.70177 0.13904 0.00312 0.0
C2513 C 0.64906 0.09916 0.00089 0.0
C2514 C 0.66759 0.11241 0.00196 0.0
H2515 H 0.76754 0.16025 0.98294 0.0
H2516 H 0.74161 0.13409 0.98862 0.0
H2517 H 0.68945 0.14792 0.03293 0.0
H2518 H 0.61783 0.07156 0.03222 0.0
H2519 H 0.65003 0.09059 0.03313 0.0
C2520 C 0.52838 0.67017 0.79032 0.0
C2521 C 0.52468 0.69054 0.79493 0.0
C2522 C 0.52869 0.65576 0.80615 0.0
C2523 C 0.50588 0.64773 0.85709 0.0
H2524 H 0.54751 0.60576 0.8646 0.0
C2525 C 0.50845 0.60161 0.93108 0.0
C2526 C 0.50977 0.58056 0.92917 0.0
C2527 C 0.5122 0.61404 0.91418 0.0
C2528 C 0.53568 0.61729 0.86253 0.0
H2529 H 0.51862 0.71203 0.81927 0.0
H2530 H 0.51888 0.68699 0.84683 0.0
H2531 H 0.5506 0.6294 0.83561 0.0
H2532 H 0.5172 0.55609 0.90818 0.0
H2533 H 0.52387 0.57799 0.87853 0.0
H2534 H 0.4909 0.63583 0.88378 0.0
C2535 C 0.5217 0.68206 0.83116 0.0
C2536 C 0.53745 0.63079 0.84598 0.0
C2537 C 0.52171 0.6964 0.81546 0.0
C2538 C 0.51594 0.57226 0.91015 0.0
C2539 C 0.51983 0.58478 0.89318 0.0
C2540 C 0.50411 0.63432 0.8735 0.0
C2541 C 0.52482 0.66154 0.82667 0.0
C2542 C 0.52272 0.64635 0.84333 0.0
C2543 C 0.51745 0.60578 0.89492 0.0
C2544 C 0.51915 0.61917 0.87665 0.0
H2545 H 0.53055 0.66538 0.77451 0.0
H2546 H 0.53108 0.64005 0.80226 0.0
H2547 H 0.49401 0.65925 0.85516 0.0
H2548 H 0.50394 0.60856 0.94553 0.0
H2549 H 0.51065 0.63019 0.91612 0.0
C2550 C 0.36043 0.5439 0.81188 0.0
C2551 C 0.36488 0.53164 0.79475 0.0
C2552 C 0.37513 0.54626 0.82758 0.0
C2553 C 0.4184 0.51766 0.85015 0.0
H2554 H 0.4254 0.56484 0.88464 0.0
C2555 C 0.47116 0.51371 0.92063 0.0
C2556 C 0.46215 0.52075 0.93901 0.0
C2557 C 0.46244 0.51881 0.90162 0.0
C2558 C 0.42358 0.55156 0.87513 0.0
H2559 H 0.38879 0.51376 0.77972 0.0
H2560 H 0.41456 0.51809 0.80694 0.0
H2561 H 0.40436 0.56718 0.85322 0.0
H2562 H 0.43795 0.53999 0.95183 0.0
H2563 H 0.42245 0.54854 0.91862 0.0
H2564 H 0.43697 0.50183 0.87215 0.0
C2565 C 0.39953 0.52545 0.80853 0.0
C2566 C 0.41154 0.55289 0.85717 0.0
C2567 C 0.38482 0.52302 0.79291 0.0
C2568 C 0.44513 0.53416 0.93793 0.0
C2569 C 0.43632 0.53917 0.91888 0.0
C2570 C 0.43039 0.51634 0.86799 0.0
C2571 C 0.39458 0.53646 0.82641 0.0
C2572 C 0.4087 0.53588 0.84456 0.0
C2573 C 0.44444 0.53095 0.90057 0.0
C2574 C 0.43301 0.5332 0.8808 0.0
H2575 H 0.34512 0.5506 0.81381 0.0
H2576 H 0.37075 0.55474 0.84118 0.0
H2577 H 0.41611 0.50412 0.84114 0.0
H2578 H 0.48452 0.50366 0.92091 0.0
H2579 H 0.46936 0.51263 0.88776 0.0
C2580 C 0.49519 0.36476 0.79269 0.0
C2581 C 0.48648 0.34555 0.79535 0.0
C2582 C 0.49408 0.3791 0.80848 0.0
C2583 C 0.49489 0.38076 0.86391 0.0
H2584 H 0.48124 0.43748 0.8586 0.0
C2585 C 0.50606 0.4341 0.93279 0.0
C2586 C 0.51357 0.45351 0.92869 0.0
C2587 C 0.49892 0.42183 0.91679 0.0
C2588 C 0.48537 0.42173 0.86033 0.0
H2589 H 0.46913 0.32656 0.81626 0.0
H2590 H 0.46754 0.35152 0.84403 0.0
H2591 H 0.4755 0.41475 0.82951 0.0
H2592 H 0.51882 0.47555 0.90464 0.0
H2593 H 0.50731 0.45394 0.87664 0.0
H2594 H 0.50596 0.38757 0.89406 0.0
C2595 C 0.47502 0.35552 0.82964 0.0
C2596 C 0.4819 0.40872 0.84368 0.0
C2597 C 0.47578 0.34132 0.81371 0.0
C2598 C 0.51314 0.46064 0.90831 0.0
C2599 C 0.50636 0.44823 0.89223 0.0
C2600 C 0.49873 0.39377 0.88038 0.0
C2601 C 0.48461 0.37436 0.82737 0.0
C2602 C 0.48672 0.38811 0.8453 0.0
C2603 C 0.4995 0.42848 0.89617 0.0
C2604 C 0.49415 0.41451 0.87886 0.0
H2605 H 0.50357 0.36837 0.7787 0.0
H2606 H 0.50171 0.39347 0.80636 0.0
H2607 H 0.4991 0.365 0.86547 0.0
H2608 H 0.50587 0.42829 0.94839 0.0
H2609 H 0.49318 0.40701 0.92063 0.0
C2610 C 0.67015 0.48087 0.82076 0.0
C2611 C 0.66685 0.49163 0.80248 0.0
C2612 C 0.65652 0.48314 0.83731 0.0
C2613 C 0.61574 0.51664 0.85877 0.0
H2614 H 0.60301 0.46938 0.89152 0.0
C2615 C 0.55715 0.51998 0.92556 0.0
C2616 C 0.56473 0.51232 0.94435 0.0
C2617 C 0.56755 0.51582 0.90715 0.0
C2618 C 0.60646 0.48269 0.88253 0.0
H2619 H 0.64726 0.51342 0.78692 0.0
H2620 H 0.62278 0.51707 0.81579 0.0
H2621 H 0.62538 0.4661 0.86133 0.0
H2622 H 0.58823 0.49311 0.95837 0.0
H2623 H 0.60636 0.48579 0.92614 0.0
H2624 H 0.59674 0.53319 0.88003 0.0
C2625 C 0.63607 0.50709 0.81749 0.0
C2626 C 0.61935 0.48087 0.86529 0.0
C2627 C 0.64993 0.50496 0.80096 0.0
C2628 C 0.5821 0.49935 0.94417 0.0
C2629 C 0.59244 0.49509 0.92571 0.0
C2630 C 0.6027 0.51842 0.87591 0.0
C2631 C 0.63914 0.49605 0.83581 0.0
C2632 C 0.6244 0.49787 0.85338 0.0
C2633 C 0.58562 0.5038 0.90713 0.0
C2634 C 0.59814 0.50151 0.8881 0.0
H2635 H 0.68337 0.47073 0.82224 0.0
H2636 H 0.65972 0.47484 0.85133 0.0
H2637 H 0.61951 0.53009 0.85013 0.0
H2638 H 0.54367 0.52987 0.92513 0.0
H2639 H 0.56175 0.52243 0.89299 0.0
C2640 C 0.47402 0.33942 0.19223 0.0
C2641 C 0.48346 0.34061 0.21175 0.0
C2642 C 0.47715 0.35441 0.17748 0.0
C2643 C 0.51277 0.39497 0.16219 0.0
H2644 H 0.46585 0.4129 0.12911 0.0
C2645 C 0.52388 0.45669 0.10151 0.0
C2646 C 0.51344 0.45475 0.08263 0.0
C2647 C 0.51842 0.44486 0.11841 0.0
C2648 C 0.47919 0.40795 0.13802 0.0
H2649 H 0.50403 0.35836 0.23088 0.0
H2650 H 0.50958 0.3847 0.20498 0.0
H2651 H 0.46057 0.38811 0.15629 0.0
H2652 H 0.48869 0.43924 0.06668 0.0
H2653 H 0.47968 0.41766 0.09593 0.0
H2654 H 0.53158 0.41417 0.14366 0.0
C2655 C 0.49973 0.37205 0.20114 0.0
C2656 C 0.47615 0.39375 0.15368 0.0
C2657 C 0.49659 0.35698 0.21598 0.0
C2658 C 0.49684 0.44118 0.08116 0.0
C2659 C 0.4917 0.42885 0.09798 0.0
C2660 C 0.51587 0.40901 0.14644 0.0
C2661 C 0.48986 0.37103 0.18177 0.0
C2662 C 0.49293 0.38696 0.16587 0.0
C2663 C 0.50281 0.43018 0.11672 0.0
C2664 C 0.49915 0.41569 0.13402 0.0
H2665 H 0.46424 0.32676 0.18826 0.0
H2666 H 0.46976 0.35283 0.16257 0.0
H2667 H 0.5261 0.38989 0.17107 0.0
H2668 H 0.53668 0.46706 0.10314 0.0
H2669 H 0.52689 0.44693 0.13267 0.0
C2670 C 0.65457 0.49199 0.21636 0.0
C2671 C 0.66638 0.50958 0.2184 0.0
C2672 C 0.6418 0.48932 0.19907 0.0
C2673 C 0.61802 0.51832 0.15595 0.0
H2674 H 0.61542 0.46662 0.12817 0.0
C2675 C 0.59683 0.5101 0.07151 0.0
C2676 C 0.57527 0.50707 0.07046 0.0
C2677 C 0.60771 0.50527 0.08948 0.0
C2678 C 0.61603 0.48105 0.13593 0.0
H2679 H 0.67496 0.53773 0.20397 0.0
H2680 H 0.65347 0.53289 0.17369 0.0
H2681 H 0.63414 0.46947 0.16109 0.0
H2682 H 0.5481 0.49679 0.08685 0.0
H2683 H 0.56728 0.48774 0.1183 0.0
H2684 H 0.60067 0.53001 0.13042 0.0
C2685 C 0.65315 0.5215 0.18562 0.0
C2686 C 0.62654 0.4827 0.15477 0.0
C2687 C 0.66553 0.52427 0.20293 0.0
C2688 C 0.5649 0.49817 0.08708 0.0
C2689 C 0.57578 0.49322 0.10503 0.0
C2690 C 0.60778 0.5167 0.13715 0.0
C2691 C 0.641 0.50407 0.18349 0.0
C2692 C 0.62801 0.50149 0.16476 0.0
C2693 C 0.59709 0.49743 0.10655 0.0
C2694 C 0.60701 0.49817 0.1269 0.0
H2695 H 0.65519 0.48043 0.22812 0.0
H2696 H 0.63254 0.47579 0.19793 0.0
H2697 H 0.61836 0.5329 0.16343 0.0
H2698 H 0.60493 0.51755 0.05903 0.0
H2699 H 0.62407 0.50905 0.09061 0.0
C2700 C 0.52998 0.69669 0.20499 0.0
C2701 C 0.54632 0.69357 0.21905 0.0
C2702 C 0.52596 0.68258 0.1895 0.0
C2703 C 0.53584 0.62994 0.17265 0.0
H2704 H 0.52481 0.65234 0.11852 0.0
C2705 C 0.52942 0.58233 0.09694 0.0
C2706 C 0.51143 0.58654 0.08533 0.0
C2707 C 0.53475 0.59455 0.11376 0.0
C2708 C 0.5278 0.64586 0.13356 0.0
H2709 H 0.57051 0.67263 0.22858 0.0
H2710 H 0.56351 0.64797 0.20151 0.0
H2711 H 0.53123 0.67484 0.14746 0.0
H2712 H 0.48516 0.60694 0.08189 0.0
H2713 H 0.49475 0.6285 0.11071 0.0
H2714 H 0.53247 0.60088 0.15847 0.0
C2715 C 0.55382 0.66136 0.20243 0.0
C2716 C 0.53136 0.65874 0.15018 0.0
C2717 C 0.55791 0.67554 0.21787 0.0
C2718 C 0.49903 0.60325 0.09065 0.0
C2719 C 0.50459 0.61567 0.10706 0.0
C2720 C 0.53238 0.61701 0.15592 0.0
C2721 C 0.53815 0.66496 0.18772 0.0
C2722 C 0.53507 0.65098 0.17002 0.0
C2723 C 0.52245 0.61146 0.11884 0.0
C2724 C 0.52799 0.62488 0.13628 0.0
H2725 H 0.52087 0.71047 0.20534 0.0
H2726 H 0.51352 0.68567 0.17866 0.0
H2727 H 0.53859 0.62346 0.18773 0.0
H2728 H 0.53919 0.56948 0.09318 0.0
H2729 H 0.54862 0.591 0.12257 0.0
C2730 C 0.35211 0.52725 0.20266 0.0
C2731 C 0.35729 0.54067 0.21856 0.0
C2732 C 0.36537 0.52468 0.18585 0.0
C2733 C 0.40539 0.55281 0.15758 0.0
H2734 H 0.41027 0.50309 0.12661 0.0
C2735 C 0.46002 0.53864 0.08734 0.0
C2736 C 0.45158 0.52707 0.07136 0.0
C2737 C 0.44826 0.54257 0.10504 0.0
C2738 C 0.40884 0.51713 0.13502 0.0
H2739 H 0.3811 0.56061 0.23025 0.0
H2740 H 0.40463 0.55575 0.20105 0.0
H2741 H 0.39244 0.50306 0.15973 0.0
H2742 H 0.42423 0.5114 0.06053 0.0
H2743 H 0.40356 0.51843 0.09132 0.0
H2744 H 0.42212 0.56673 0.13282 0.0
C2745 C 0.39003 0.54767 0.20129 0.0
C2746 C 0.3987 0.5171 0.15401 0.0
C2747 C 0.37667 0.55034 0.21806 0.0
C2748 C 0.43088 0.52059 0.07263 0.0
C2749 C 0.41918 0.52443 0.09028 0.0
C2750 C 0.41574 0.55278 0.13864 0.0
C2751 C 0.38416 0.53539 0.18465 0.0
C2752 C 0.39662 0.53499 0.1654 0.0
C2753 C 0.42809 0.53467 0.107 0.0
C2754 C 0.41727 0.535 0.12708 0.0
H2755 H 0.33713 0.51981 0.20247 0.0
H2756 H 0.36026 0.51525 0.17324 0.0
H2757 H 0.40375 0.56693 0.16579 0.0
H2758 H 0.47622 0.54302 0.087 0.0
H2759 H 0.45551 0.55037 0.1178 0.0
C2760 C 0.78877 0.4986 0.65931 0.0
C2761 C 0.78628 0.50464 0.67989 0.0
C2762 C 0.80722 0.50286 0.64876 0.0
C2763 C 0.85742 0.53115 0.65311 0.0
H2764 H 0.8781 0.48713 0.6195 0.0
C2765 C 0.93438 0.53495 0.60735 0.0
C2766 C 0.94492 0.51685 0.60283 0.0
C2767 C 0.91569 0.53473 0.6183 0.0
C2768 C 0.87274 0.49943 0.62915 0.0
H2769 H 0.80075 0.52034 0.70539 0.0
H2770 H 0.83291 0.52724 0.6874 0.0
H2771 H 0.84318 0.48557 0.63351 0.0
H2772 H 0.94552 0.48465 0.60851 0.0
H2773 H 0.91349 0.4844 0.62856 0.0
H2774 H 0.88744 0.54444 0.64971 0.0
C2775 C 0.82058 0.5198 0.67901 0.0
C2776 C 0.85245 0.49876 0.63679 0.0
C2777 C 0.80207 0.51584 0.68939 0.0
C2778 C 0.93764 0.49883 0.61151 0.0
C2779 C 0.91908 0.49865 0.62273 0.0
C2780 C 0.87785 0.53165 0.64576 0.0
C2781 C 0.82366 0.51288 0.65876 0.0
C2782 C 0.84455 0.51455 0.64901 0.0
C2783 C 0.90734 0.51644 0.62532 0.0
C2784 C 0.88583 0.51573 0.63379 0.0
H2785 H 0.77676 0.48999 0.65166 0.0
H2786 H 0.80884 0.49771 0.63301 0.0
H2787 H 0.8518 0.54375 0.66218 0.0
H2788 H 0.93955 0.54913 0.60093 0.0
H2789 H 0.90715 0.54874 0.61996 0.0
C2790 C 0.53027 0.82692 0.67427 0.0
C2791 C 0.5219 0.80811 0.66896 0.0
C2792 C 0.53009 0.84282 0.66019 0.0
C2793 C 0.5023 0.86071 0.61355 0.0
H2794 H 0.54596 0.90078 0.61352 0.0
C2795 C 0.50788 0.9281 0.55589 0.0
C2796 C 0.51438 0.94658 0.56427 0.0
C2797 C 0.50736 0.91073 0.56813 0.0
C2798 C 0.53355 0.8898 0.61348 0.0
H2799 H 0.50768 0.79099 0.64432 0.0
H2800 H 0.50781 0.81868 0.61947 0.0
H2801 H 0.54982 0.87071 0.63462 0.0
H2802 H 0.52377 0.96158 0.59248 0.0
H2803 H 0.52283 0.93138 0.61369 0.0
H2804 H 0.48622 0.8799 0.59209 0.0
C2805 C 0.51406 0.82127 0.63474 0.0
C2806 C 0.53575 0.87254 0.62559 0.0
C2807 C 0.51411 0.80535 0.64891 0.0
C2808 C 0.51896 0.94757 0.58543 0.0
C2809 C 0.51856 0.93023 0.59758 0.0
C2810 C 0.50019 0.87795 0.60125 0.0
C2811 C 0.52166 0.84034 0.64034 0.0
C2812 C 0.52003 0.85789 0.62606 0.0
C2813 C 0.51341 0.91151 0.58894 0.0
C2814 C 0.51566 0.89283 0.60136 0.0
H2815 H 0.53598 0.82972 0.6897 0.0
H2816 H 0.53576 0.85733 0.66525 0.0
H2817 H 0.48974 0.8499 0.6137 0.0
H2818 H 0.50408 0.92686 0.53968 0.0
H2819 H 0.50322 0.89652 0.56107 0.0
C2820 C 0.22346 0.53652 0.67826 0.0
C2821 C 0.24405 0.53228 0.67222 0.0
C2822 C 0.20741 0.53665 0.66379 0.0
C2823 C 0.19515 0.54043 0.60881 0.0
H2824 H 0.14693 0.50856 0.62358 0.0
C2825 C 0.11703 0.54249 0.56446 0.0
C2826 C 0.10684 0.52405 0.56139 0.0
C2827 C 0.13502 0.54339 0.57649 0.0
C2828 C 0.16036 0.51738 0.61918 0.0
H2829 H 0.26417 0.52582 0.64621 0.0
H2830 H 0.236 0.52633 0.62072 0.0
H2831 H 0.17587 0.51148 0.64774 0.0
H2832 H 0.10801 0.49196 0.5679 0.0
H2833 H 0.1394 0.49363 0.58895 0.0
H2834 H 0.17953 0.54637 0.58024 0.0
C2835 C 0.23235 0.52947 0.6367 0.0
C2836 C 0.1768 0.51924 0.63308 0.0
C2837 C 0.24842 0.52912 0.65125 0.0
C2838 C 0.11543 0.50643 0.57001 0.0
C2839 C 0.13333 0.50738 0.58217 0.0
C2840 C 0.17859 0.53873 0.59495 0.0
C2841 C 0.21164 0.5327 0.64296 0.0
C2842 C 0.19431 0.53084 0.62807 0.0
C2843 C 0.14311 0.52591 0.58577 0.0
C2844 C 0.16104 0.5272 0.60003 0.0
H2845 H 0.21956 0.53871 0.69435 0.0
H2846 H 0.1916 0.53939 0.66897 0.0
H2847 H 0.20847 0.54949 0.60461 0.0
H2848 H 0.11086 0.55632 0.55796 0.0
H2849 H 0.14218 0.5579 0.57913 0.0
C2850 C 0.48741 0.22679 0.65377 0.0
C2851 C 0.48223 0.22252 0.67439 0.0
C2852 C 0.48689 0.21167 0.63874 0.0
C2853 C 0.46791 0.16027 0.62662 0.0
H2854 H 0.51901 0.15645 0.59507 0.0
C2855 C 0.49277 0.08816 0.58123 0.0
C2856 C 0.50606 0.09055 0.56425 0.0
C2857 C 0.48652 0.105 0.59288 0.0
C2858 C 0.50437 0.15741 0.60331 0.0
H2859 H 0.47151 0.19895 0.69496 0.0
H2860 H 0.47022 0.17282 0.66867 0.0
H2861 H 0.51363 0.18471 0.6181 0.0
H2862 H 0.52174 0.1123 0.54498 0.0
H2863 H 0.50991 0.14158 0.56427 0.0
H2864 H 0.45866 0.13289 0.61176 0.0
C2865 C 0.47465 0.18791 0.66416 0.0
C2866 C 0.50134 0.17368 0.61664 0.0
C2867 C 0.47533 0.20298 0.67925 0.0
C2868 C 0.5117 0.11005 0.55819 0.0
C2869 C 0.50509 0.12682 0.56944 0.0
C2870 C 0.47082 0.14403 0.61303 0.0
C2871 C 0.48099 0.19193 0.64386 0.0
C2872 C 0.48318 0.17526 0.6286 0.0
C2873 C 0.49316 0.12455 0.58749 0.0
C2874 C 0.4892 0.14228 0.60126 0.0
H2875 H 0.49238 0.24172 0.64931 0.0
H2876 H 0.49154 0.21534 0.62315 0.0
H2877 H 0.45369 0.16112 0.63557 0.0
H2878 H 0.48832 0.07324 0.58627 0.0
H2879 H 0.47741 0.10253 0.60667 0.0
C2880 C 0.77799 0.518 0.36667 0.0
C2881 C 0.77817 0.50716 0.34809 0.0
C2882 C 0.79411 0.5156 0.38082 0.0
C2883 C 0.83846 0.48577 0.3981 0.0
H2884 H 0.86469 0.53777 0.40555 0.0
C2885 C 0.91816 0.49476 0.43853 0.0
C2886 C 0.92125 0.51216 0.45046 0.0
C2887 C 0.90022 0.49268 0.4266 0.0
C2888 C 0.8574 0.52318 0.40401 0.0
H2889 H 0.79422 0.48392 0.33062 0.0
H2890 H 0.82233 0.47944 0.35576 0.0
H2891 H 0.83311 0.5353 0.38512 0.0
H2892 H 0.90777 0.54073 0.45982 0.0
H2893 H 0.87602 0.53677 0.43976 0.0
H2894 H 0.86249 0.47367 0.4174 0.0
C2895 C 0.80974 0.48987 0.35919 0.0
C2896 C 0.83937 0.52178 0.39222 0.0
C2897 C 0.79363 0.49237 0.34489 0.0
C2898 C 0.90586 0.52724 0.45063 0.0
C2899 C 0.88775 0.525 0.43899 0.0
C2900 C 0.8564 0.48721 0.41025 0.0
C2901 C 0.81057 0.50218 0.37674 0.0
C2902 C 0.82966 0.50313 0.38932 0.0
C2903 C 0.88483 0.50783 0.42661 0.0
C2904 C 0.86598 0.50599 0.41347 0.0
H2905 H 0.76609 0.52928 0.36962 0.0
H2906 H 0.79433 0.52503 0.39445 0.0
H2907 H 0.83124 0.47122 0.39592 0.0
H2908 H 0.92987 0.48295 0.43795 0.0
H2909 H 0.89869 0.47942 0.41702 0.0
C2910 C 0.54587 0.81303 0.35916 0.0
C2911 C 0.54207 0.81657 0.33812 0.0
C2912 C 0.54292 0.8284 0.37372 0.0
C2913 C 0.51717 0.8784 0.38058 0.0
H2914 H 0.55705 0.8851 0.42492 0.0
C2915 C 0.51724 0.95026 0.42933 0.0
C2916 C 0.51758 0.94766 0.45082 0.0
C2917 C 0.52199 0.9342 0.41618 0.0
C2918 C 0.54572 0.88334 0.41269 0.0
H2919 H 0.53244 0.83922 0.31593 0.0
H2920 H 0.52739 0.86584 0.34108 0.0
H2921 H 0.5607 0.85666 0.40116 0.0
H2922 H 0.52485 0.92653 0.47534 0.0
H2923 H 0.53317 0.89846 0.4523 0.0
H2924 H 0.50233 0.90511 0.39189 0.0
C2925 C 0.53218 0.8511 0.34652 0.0
C2926 C 0.54774 0.86699 0.39912 0.0
C2927 C 0.53503 0.83577 0.33204 0.0
C2928 C 0.52421 0.92899 0.45885 0.0
C2929 C 0.52905 0.91291 0.44565 0.0
C2930 C 0.51525 0.89474 0.39401 0.0
C2931 C 0.53618 0.8477 0.36755 0.0
C2932 C 0.53358 0.86442 0.38276 0.0
C2933 C 0.5273 0.91516 0.42417 0.0
C2934 C 0.52959 0.89755 0.41011 0.0
H2935 H 0.5512 0.79838 0.36438 0.0
H2936 H 0.54588 0.82513 0.38981 0.0
H2937 H 0.50567 0.87669 0.36851 0.0
H2938 H 0.51252 0.9645 0.42259 0.0
H2939 H 0.52101 0.93657 0.3997 0.0
C2940 C 0.21958 0.55265 0.34126 0.0
C2941 C 0.23218 0.53681 0.33393 0.0
C2942 C 0.20153 0.54865 0.35235 0.0
C2943 C 0.16201 0.50961 0.35716 0.0
H2944 H 0.14079 0.54519 0.39975 0.0
C2945 C 0.0853 0.49922 0.40366 0.0
C2946 C 0.07461 0.517 0.40922 0.0
C2947 C 0.10375 0.5002 0.39231 0.0
C2948 C 0.14643 0.53528 0.38768 0.0
H2949 H 0.23653 0.50439 0.33384 0.0
H2950 H 0.20482 0.49737 0.35343 0.0
H2951 H 0.17656 0.54874 0.38798 0.0
H2952 H 0.07312 0.54936 0.40452 0.0
H2953 H 0.10511 0.55096 0.38448 0.0
H2954 H 0.13174 0.49609 0.35708 0.0
C2955 C 0.20883 0.51287 0.3502 0.0
C2956 C 0.16695 0.53723 0.38105 0.0
C2957 C 0.22699 0.51689 0.33908 0.0
C2958 C 0.08118 0.53542 0.40086 0.0
C2959 C 0.0996 0.53638 0.38953 0.0
C2960 C 0.14146 0.50756 0.36394 0.0
C2961 C 0.19561 0.52871 0.35639 0.0
C2962 C 0.17484 0.52471 0.36541 0.0
C2963 C 0.11165 0.51894 0.38625 0.0
C2964 C 0.13338 0.52068 0.37894 0.0
H2965 H 0.22282 0.56815 0.33725 0.0
H2966 H 0.19157 0.56119 0.35663 0.0
H2967 H 0.16757 0.49988 0.34492 0.0
H2968 H 0.08053 0.48472 0.40963 0.0
H2969 H 0.11266 0.48651 0.3898 0.0
C2970 C 0.518 0.21863 0.34528 0.0
C2971 C 0.49759 0.22323 0.33884 0.0
C2972 C 0.52164 0.20368 0.3602 0.0
C2973 C 0.49394 0.17395 0.40056 0.0
H2974 H 0.54108 0.13745 0.39593 0.0
C2975 C 0.50305 0.11063 0.45922 0.0
C2976 C 0.50865 0.0916 0.4516 0.0
C2977 C 0.50596 0.12789 0.4473 0.0
C2978 C 0.52777 0.14744 0.39742 0.0
H2979 H 0.46512 0.21518 0.34248 0.0
H2980 H 0.47137 0.18914 0.36793 0.0
H2981 H 0.53703 0.16498 0.37125 0.0
H2982 H 0.52256 0.07559 0.42601 0.0
H2983 H 0.52694 0.10567 0.40462 0.0
H2984 H 0.48387 0.15599 0.42579 0.0
C2985 C 0.48461 0.19745 0.36216 0.0
C2986 C 0.52558 0.16343 0.38339 0.0
C2987 C 0.48099 0.21244 0.34749 0.0
C2988 C 0.51836 0.09018 0.43229 0.0
C2989 C 0.52083 0.10747 0.42006 0.0
C2990 C 0.49598 0.15794 0.41438 0.0
C2991 C 0.50495 0.19287 0.36885 0.0
C2992 C 0.50843 0.17673 0.38459 0.0
C2993 C 0.51388 0.12648 0.42711 0.0
C2994 C 0.51283 0.14432 0.41299 0.0
H2995 H 0.53113 0.22667 0.33888 0.0
H2996 H 0.5375 0.20073 0.36507 0.0
H2997 H 0.48073 0.18404 0.40232 0.0
H2998 H 0.49557 0.11207 0.47413 0.0
H2999 H 0.50111 0.14225 0.45365 0.0
C3000 C 0.68887 0.83075 0.51085 0.0
C3001 C 0.68467 0.81317 0.49959 0.0
C3002 C 0.67331 0.84531 0.51397 0.0
C3003 C 0.62419 0.86264 0.48967 0.0
H3004 H 0.62347 0.90021 0.53539 0.0
C3005 C 0.58419 0.93963 0.48235 0.0
C3006 C 0.57416 0.94821 0.49949 0.0
C3007 C 0.59598 0.92201 0.48436 0.0
C3008 C 0.62322 0.88971 0.52262 0.0
H3009 H 0.66048 0.7963 0.48417 0.0
H3010 H 0.63313 0.82129 0.49016 0.0
H3011 H 0.64615 0.87061 0.53676 0.0
H3012 H 0.56844 0.94481 0.53224 0.0
H3013 H 0.58867 0.91362 0.53567 0.0
H3014 H 0.60104 0.88137 0.47569 0.0
C3015 C 0.64861 0.82426 0.496 0.0
C3016 C 0.63645 0.87283 0.52329 0.0
C3017 C 0.66424 0.80984 0.49267 0.0
C3018 C 0.57609 0.93863 0.51874 0.0
C3019 C 0.58777 0.9208 0.52072 0.0
C3020 C 0.61087 0.87933 0.4891 0.0
C3021 C 0.6531 0.84253 0.50606 0.0
C3022 C 0.63743 0.85928 0.50662 0.0
C3023 C 0.59786 0.91224 0.50351 0.0
C3024 C 0.61056 0.8934 0.5053 0.0
H3025 H 0.70452 0.83385 0.51619 0.0
H3026 H 0.67751 0.8592 0.5216 0.0
H3027 H 0.62459 0.85278 0.47639 0.0
H3028 H 0.58319 0.94668 0.46733 0.0
H3029 H 0.60391 0.91623 0.47085 0.0
C3030 C 0.68034 0.21662 0.51438 0.0
C3031 C 0.68559 0.22238 0.49417 0.0
C3032 C 0.66638 0.2008 0.51786 0.0
C3033 C 0.64774 0.15494 0.49239 0.0
H3034 H 0.60304 0.15562 0.53257 0.0
C3035 C 0.59834 0.0847 0.5046 0.0
C3036 C 0.5768 0.08807 0.50354 0.0
C3037 C 0.61191 0.1008 0.50774 0.0
C3038 C 0.61551 0.15521 0.52134 0.0
H3039 H 0.67991 0.21613 0.46182 0.0
H3040 H 0.65551 0.18901 0.46789 0.0
H3041 H 0.62547 0.18519 0.52877 0.0
H3042 H 0.55229 0.11045 0.50572 0.0
H3043 H 0.57597 0.13873 0.51134 0.0
H3044 H 0.6377 0.12533 0.48452 0.0
C3045 C 0.66226 0.19658 0.48106 0.0
C3046 C 0.6284 0.17208 0.51925 0.0
C3047 C 0.67606 0.21237 0.47759 0.0
C3048 C 0.56888 0.10754 0.50684 0.0
C3049 C 0.58245 0.12368 0.51003 0.0
C3050 C 0.63503 0.13811 0.49457 0.0
C3051 C 0.6576 0.1903 0.50119 0.0
C3052 C 0.64445 0.17222 0.50449 0.0
C3053 C 0.60417 0.12061 0.5097 0.0
C3054 C 0.61862 0.13807 0.50892 0.0
H3055 H 0.68728 0.22411 0.52749 0.0
H3056 H 0.66308 0.1963 0.53356 0.0
H3057 H 0.66015 0.15444 0.48108 0.0
H3058 H 0.60473 0.0698 0.50181 0.0
H3059 H 0.62853 0.09788 0.50769 0.0
C3060 C 0.81674 0.68423 0.47273 0.0
C3061 C 0.80909 0.69454 0.49015 0.0
C3062 C 0.83192 0.66916 0.47468 0.0
C3063 C 0.8579 0.63581 0.51334 0.0
H3064 H 0.89967 0.63047 0.47048 0.0
C3065 C 0.91816 0.57199 0.51721 0.0
C3066 C 0.93867 0.57622 0.51134 0.0
C3067 C 0.90201 0.5854 0.51257 0.0
C3068 C 0.88827 0.63183 0.4827 0.0
H3069 H 0.81127 0.69643 0.52347 0.0
H3070 H 0.83836 0.67095 0.52678 0.0
H3071 H 0.87263 0.65613 0.46741 0.0
H3072 H 0.95858 0.59741 0.49566 0.0
H3073 H 0.93045 0.62144 0.48806 0.0
H3074 H 0.87411 0.61236 0.5292 0.0
C3075 C 0.83231 0.67419 0.51157 0.0
C3076 C 0.8725 0.6464 0.48079 0.0
C3077 C 0.8169 0.68908 0.50964 0.0
C3078 C 0.94276 0.59376 0.50006 0.0
C3079 C 0.92661 0.60748 0.49575 0.0
C3080 C 0.87379 0.62147 0.51537 0.0
C3081 C 0.84018 0.66411 0.49409 0.0
C3082 C 0.85703 0.64856 0.49606 0.0
C3083 C 0.90607 0.60372 0.50245 0.0
C3084 C 0.88915 0.61913 0.50003 0.0
H3085 H 0.81147 0.68815 0.45739 0.0
H3086 H 0.83723 0.66154 0.46088 0.0
H3087 H 0.84621 0.63676 0.52533 0.0
H3088 H 0.91471 0.55852 0.52596 0.0
H3089 H 0.88639 0.58159 0.51742 0.0
C3090 C 0.34527 0.82085 0.48715 0.0
C3091 C 0.33787 0.81181 0.50533 0.0
C3092 C 0.36035 0.83591 0.48792 0.0
C3093 C 0.40084 0.85875 0.52089 0.0
H3094 H 0.39086 0.90597 0.48703 0.0
C3095 C 0.44593 0.93294 0.5325 0.0
C3096 C 0.45046 0.94491 0.51521 0.0
C3097 C 0.43358 0.91578 0.53062 0.0
C3098 C 0.39414 0.89279 0.49633 0.0
H3099 H 0.34115 0.81119 0.53857 0.0
H3100 H 0.36742 0.83769 0.53993 0.0
H3101 H 0.36702 0.87768 0.48522 0.0
H3102 H 0.44616 0.94773 0.48219 0.0
H3103 H 0.42498 0.91749 0.4788 0.0
H3104 H 0.42798 0.87385 0.532 0.0
C3105 C 0.36156 0.83298 0.52505 0.0
C3106 C 0.3804 0.87655 0.49533 0.0
C3107 C 0.34638 0.81791 0.52429 0.0
C3108 C 0.44283 0.93895 0.49586 0.0
C3109 C 0.43056 0.92167 0.49395 0.0
C3110 C 0.41467 0.87496 0.52181 0.0
C3111 C 0.36848 0.84238 0.50688 0.0
C3112 C 0.3835 0.85938 0.50767 0.0
C3113 C 0.42554 0.90999 0.51136 0.0
C3114 C 0.41143 0.89227 0.50965 0.0
H3115 H 0.3389 0.81679 0.47228 0.0
H3116 H 0.36551 0.84265 0.47362 0.0
H3117 H 0.40383 0.84565 0.5304 0.0
H3118 H 0.45153 0.93707 0.54766 0.0
H3119 H 0.42985 0.90739 0.54442 0.0
C3120 C 0.19801 0.33617 0.50914 0.0
C3121 C 0.21377 0.34049 0.52348 0.0
C3122 C 0.18146 0.34959 0.50617 0.0
C3123 C 0.15287 0.38977 0.53327 0.0
H3124 H 0.12964 0.40099 0.47931 0.0
C3125 C 0.09653 0.45552 0.51611 0.0
C3126 C 0.08137 0.45291 0.50074 0.0
C3127 C 0.11064 0.44007 0.52063 0.0
C3128 C 0.1357 0.39772 0.49453 0.0
H3129 H 0.22523 0.36281 0.545 0.0
H3130 H 0.19637 0.38637 0.53968 0.0
H3131 H 0.15968 0.37861 0.48238 0.0
H3132 H 0.06786 0.43148 0.47938 0.0
H3133 H 0.09244 0.40444 0.48744 0.0
H3134 H 0.12902 0.40912 0.54537 0.0
C3135 C 0.1966 0.37238 0.53108 0.0
C3136 C 0.15298 0.38498 0.49627 0.0
C3137 C 0.21316 0.35896 0.53404 0.0
C3138 C 0.07955 0.43404 0.49112 0.0
C3139 C 0.09369 0.41859 0.49563 0.0
C3140 C 0.13558 0.40253 0.53153 0.0
C3141 C 0.18032 0.36761 0.51748 0.0
C3142 C 0.16187 0.38102 0.51563 0.0
C3143 C 0.10984 0.42172 0.50989 0.0
C3144 C 0.12692 0.40677 0.51212 0.0
H3145 H 0.19783 0.32192 0.50101 0.0
H3146 H 0.16909 0.34542 0.49568 0.0
H3147 H 0.15912 0.38666 0.54845 0.0
H3148 H 0.09819 0.46982 0.52396 0.0
H3149 H 0.12292 0.44297 0.53167 0.0
C3150 C 0.34519 0.21778 0.50119 0.0
C3151 C 0.33369 0.21868 0.51959 0.0
C3152 C 0.35964 0.20211 0.49797 0.0
C3153 C 0.38935 0.16367 0.52757 0.0
H3154 H 0.39389 0.13477 0.47578 0.0
C3155 C 0.42055 0.0845 0.52617 0.0
C3156 C 0.43893 0.08154 0.51487 0.0
C3157 C 0.40811 0.10141 0.52272 0.0
C3158 C 0.39288 0.1429 0.49022 0.0
H3159 H 0.3272 0.20354 0.5484 0.0
H3160 H 0.35167 0.17617 0.54267 0.0
H3161 H 0.37182 0.16516 0.47797 0.0
H3162 H 0.45829 0.09338 0.49046 0.0
H3163 H 0.43621 0.1232 0.48423 0.0
H3164 H 0.40952 0.14108 0.54008 0.0
C3165 C 0.35042 0.18783 0.53106 0.0
C3166 C 0.38036 0.16028 0.49149 0.0
C3167 C 0.33633 0.20348 0.53435 0.0
C3168 C 0.44395 0.0951 0.49902 0.0
C3169 C 0.43143 0.11219 0.49557 0.0
C3170 C 0.40154 0.14632 0.52636 0.0
C3171 C 0.36253 0.18707 0.51303 0.0
C3172 C 0.37796 0.17046 0.5104 0.0
C3173 C 0.41387 0.1158 0.508 0.0
C3174 C 0.40295 0.13546 0.50788 0.0
H3175 H 0.34323 0.2293 0.48953 0.0
H3176 H 0.36872 0.20194 0.48392 0.0
H3177 H 0.3884 0.17147 0.5422 0.0
H3178 H 0.41634 0.07423 0.53843 0.0
H3179 H 0.39452 0.10379 0.53234 0.0
C3180 C 0.80916 0.35999 0.47719 0.0
C3181 C 0.8081 0.34167 0.48801 0.0
C3182 C 0.82602 0.37291 0.47999 0.0
C3183 C 0.86944 0.38478 0.51516 0.0
H3184 H 0.89413 0.40838 0.4663 0.0
C3185 C 0.94301 0.43259 0.52145 0.0
C3186 C 0.9417 0.45139 0.51159 0.0
C3187 C 0.92882 0.4174 0.51672 0.0
C3188 C 0.88737 0.40195 0.48008 0.0
H3189 H 0.82369 0.32288 0.51069 0.0
H3190 H 0.85289 0.34555 0.51578 0.0
H3191 H 0.86391 0.38645 0.46293 0.0
H3192 H 0.92574 0.46838 0.48769 0.0
H3193 H 0.90091 0.44201 0.47962 0.0
H3194 H 0.89263 0.40045 0.53236 0.0
C3195 C 0.84064 0.34996 0.50519 0.0
C3196 C 0.87001 0.38948 0.47817 0.0
C3197 C 0.82382 0.33702 0.50236 0.0
C3198 C 0.92701 0.45414 0.49575 0.0
C3199 C 0.91283 0.43896 0.49103 0.0
C3200 C 0.88676 0.39724 0.51707 0.0
C3201 C 0.84216 0.36785 0.49372 0.0
C3202 C 0.86074 0.3809 0.49572 0.0
C3203 C 0.91308 0.42071 0.50202 0.0
C3204 C 0.89583 0.4061 0.49958 0.0
H3205 H 0.79717 0.36413 0.46621 0.0
H3206 H 0.82652 0.3868 0.47126 0.0
H3207 H 0.86254 0.37858 0.52899 0.0
H3208 H 0.95435 0.42989 0.53352 0.0
H3209 H 0.92973 0.40331 0.52509 0.0
C3210 C 0.21858 0.67054 0.50564 0.0
C3211 C 0.21654 0.68926 0.51557 0.0
C3212 C 0.203 0.65606 0.50736 0.0
C3213 C 0.15618 0.63923 0.53521 0.0
H3214 H 0.13924 0.62166 0.48081 0.0
C3215 C 0.08153 0.59105 0.51732 0.0
C3216 C 0.08345 0.57751 0.50077 0.0
C3217 C 0.0981 0.60398 0.52228 0.0
C3218 C 0.14391 0.62609 0.49619 0.0
H3219 H 0.19714 0.70682 0.53635 0.0
H3220 H 0.16996 0.68126 0.53954 0.0
H3221 H 0.16801 0.64482 0.48433 0.0
H3222 H 0.10455 0.56542 0.47781 0.0
H3223 H 0.13345 0.58699 0.48695 0.0
H3224 H 0.13197 0.62014 0.54699 0.0
C3225 C 0.18366 0.6779 0.53039 0.0
C3226 C 0.16042 0.63945 0.49818 0.0
C3227 C 0.19927 0.6925 0.5286 0.0
C3228 C 0.10253 0.57602 0.49037 0.0
C3229 C 0.11905 0.58851 0.49553 0.0
C3230 C 0.13964 0.62557 0.53323 0.0
C3231 C 0.18501 0.65986 0.51913 0.0
C3232 C 0.16699 0.64596 0.51767 0.0
C3233 C 0.11682 0.60329 0.51091 0.0
C3234 C 0.13356 0.61856 0.51365 0.0
H3235 H 0.23184 0.66739 0.49582 0.0
H3236 H 0.20464 0.64212 0.49881 0.0
H3237 H 0.16084 0.64415 0.55043 0.0
H3238 H 0.06693 0.59243 0.52557 0.0
H3239 H 0.09587 0.61512 0.53428 0.0
loop_
_geom_bond_atom_site_label_1
_geom_bond_atom_site_label_2
_geom_bond_distance
_geom_bond_site_symmetry_2
_ccdc_geom_bond_type
P0 O11 1.490 1_455 S
P0 C14 1.812 . S
P0 C20 1.803 . S
P0 C26 1.819 . S
H1 C15 0.941 1_655 S
H2 C16 0.939 . S
H3 C18 0.940 . S
H4 C19 0.940 . S
H5 C21 0.939 1_655 S
H6 C22 0.942 . S
H7 C24 0.940 . S
H8 C25 0.939 . S
H9 C27 0.953 . S
H10 C31 0.939 . S
O11 P0 1.490 1_655 S
H12 C28 0.939 . S
H13 C30 0.940 . S
C14 P0 1.812 . S
C14 C15 1.389 . S
C14 C19 1.391 . S
C15 H1 0.941 1_455 S
C15 C14 1.389 . S
C15 C16 1.397 . S
C16 H2 0.939 . S
C16 C15 1.397 . S
C16 C17 1.378 . S
C17 C16 1.378 . S
C17 C18 1.378 . S
C18 H3 0.940 . S
C18 C17 1.378 . S
C18 C19 1.396 . S
C19 H4 0.940 . S
C19 C14 1.391 . S
C19 C18 1.396 . S
C20 P0 1.803 . S
C20 C21 1.378 . S
C20 C25 1.400 . S
C21 H5 0.939 1_455 S
C21 C20 1.378 . S
C21 C22 1.361 . S
C22 H6 0.942 . S
C22 C21 1.361 . S
C22 C23 1.369 . S
C23 C22 1.369 . S
C23 C24 1.404 . S
C24 H7 0.940 . S
C24 C23 1.404 . S
C24 C25 1.389 . S
C25 H8 0.939 . S
C25 C20 1.400 . S
C25 C24 1.389 . S
C26 P0 1.819 . S
C26 C27 1.391 . S
C26 C31 1.391 . S
C27 H9 0.953 . S
C27 C26 1.391 . S
C27 C28 1.396 . S
C28 H12 0.939 . S
C28 C27 1.396 . S
C28 C29 1.397 . S
C29 C28 1.397 . S
C29 C30 1.385 . S
C30 H13 0.940 . S
C30 C29 1.385 . S
C30 C31 1.388 . S
C31 H10 0.939 . S
C31 C26 1.391 . S
C31 C30 1.388 . S
P32 O43 1.490 1_545 S
P32 C46 1.812 . S
P32 C52 1.803 . S
P32 C58 1.819 . S
H33 C47 0.941 1_565 S
H34 C48 0.939 . S
H35 C50 0.940 . S
H36 C51 0.940 . S
H37 C53 0.939 1_565 S
H38 C54 0.942 . S
H39 C56 0.940 . S
H40 C57 0.939 . S
H41 C59 0.943 1_565 S
H42 C63 0.939 . S
O43 P32 1.490 1_565 S
H44 C60 0.939 . S
H45 C62 0.940 . S
C46 P32 1.812 . S
C46 C47 1.389 . S
C46 C51 1.391 . S
C47 H33 0.941 1_545 S
C47 C46 1.389 . S
C47 C48 1.397 . S
C48 H34 0.939 . S
C48 C47 1.397 . S
C48 C49 1.378 . S
C49 C48 1.378 . S
C49 C50 1.378 . S
C50 H35 0.940 . S
C50 C49 1.378 . S
C50 C51 1.396 . S
C51 H36 0.940 . S
C51 C46 1.391 . S
C51 C50 1.396 . S
C52 P32 1.803 . S
C52 C53 1.378 . S
C52 C57 1.400 . S
C53 H37 0.939 1_545 S
C53 C52 1.378 . S
C53 C54 1.361 . S
C54 H38 0.942 . S
C54 C53 1.361 . S
C54 C55 1.369 . S
C55 C54 1.369 . S
C55 C56 1.404 . S
C56 H39 0.940 . S
C56 C55 1.404 . S
C56 C57 1.389 . S
C57 H40 0.939 . S
C57 C52 1.400 . S
C57 C56 1.389 . S
C58 P32 1.819 . S
C58 C59 1.391 . S
C58 C63 1.391 . S
C59 H41 0.943 1_545 S
C59 C58 1.391 . S
C59 C60 1.396 . S
C60 H44 0.939 . S
C60 C59 1.396 . S
C60 C61 1.397 . S
C61 C60 1.397 . S
C61 C62 1.385 . S
C62 H45 0.940 . S
C62 C61 1.385 . S
C62 C63 1.388 . S
C63 H42 0.939 . S
C63 C58 1.391 . S
C63 C62 1.388 . S
P64 O75 1.490 . S
P64 C78 1.812 . S
P64 C84 1.803 . S
P64 C90 1.819 . S
H65 C79 0.941 . S
H66 C80 0.939 . S
H67 C82 0.940 . S
H68 C83 0.940 . S
H69 C85 0.939 . S
H70 C86 0.942 . S
H71 C88 0.940 . S
H72 C89 0.939 . S
H73 C91 0.941 . S
H74 C95 0.939 . S
O75 P64 1.490 . S
H76 C92 0.939 . S
H77 C94 0.940 . S
C78 P64 1.812 . S
C78 C79 1.389 . S
C78 C83 1.391 . S
C79 H65 0.941 . S
C79 C78 1.389 . S
C79 C80 1.397 . S
C80 H66 0.939 . S
C80 C79 1.397 . S
C80 C81 1.378 . S
C81 C80 1.378 . S
C81 C82 1.378 . S
C82 H67 0.940 . S
C82 C81 1.378 . S
C82 C83 1.396 . S
C83 H68 0.940 . S
C83 C78 1.391 . S
C83 C82 1.396 . S
C84 P64 1.803 . S
C84 C85 1.378 . S
C84 C89 1.400 . S
C85 H69 0.939 . S
C85 C84 1.378 . S
C85 C86 1.361 . S
C86 H70 0.942 . S
C86 C85 1.361 . S
C86 C87 1.369 . S
C87 C86 1.369 . S
C87 C88 1.404 . S
C88 H71 0.940 . S
C88 C87 1.404 . S
C88 C89 1.389 . S
C89 H72 0.939 . S
C89 C84 1.400 . S
C89 C88 1.389 . S
C90 P64 1.819 . S
C90 C91 1.391 . S
C90 C95 1.391 . S
C91 H73 0.941 . S
C91 C90 1.391 . S
C91 C92 1.396 . S
C92 H76 0.939 . S
C92 C91 1.396 . S
C92 C93 1.397 . S
C93 C92 1.397 . S
C93 C94 1.385 . S
C94 H77 0.940 . S
C94 C93 1.385 . S
C94 C95 1.388 . S
C95 H74 0.939 . S
C95 C90 1.391 . S
C95 C94 1.388 . S
P96 O107 1.490 . S
P96 C110 1.812 . S
P96 C116 1.803 . S
P96 C122 1.819 . S
H97 C111 0.941 . S
H98 C112 0.939 . S
H99 C114 0.940 . S
H100 C115 0.940 . S
H101 C117 0.939 . S
H102 C118 0.942 . S
H103 C120 0.940 . S
H104 C121 0.939 . S
H105 C123 0.941 . S
H106 C127 0.939 1_545 S
O107 P96 1.490 . S
H108 C124 0.939 . S
H109 C126 0.940 . S
C110 P96 1.812 . S
C110 C111 1.389 . S
C110 C115 1.391 1_565 S
C111 H97 0.941 . S
C111 C110 1.389 . S
C111 C112 1.397 . S
C112 H98 0.939 . S
C112 C111 1.397 . S
C112 C113 1.378 . S
C113 C112 1.378 . S
C113 C114 1.378 1_565 S
C114 H99 0.940 . S
C114 C113 1.378 1_545 S
C114 C115 1.396 . S
C115 H100 0.940 . S
C115 C110 1.391 1_545 S
C115 C114 1.396 . S
C116 P96 1.803 . S
C116 C117 1.378 . S
C116 C121 1.400 1_565 S
C117 H101 0.939 . S
C117 C116 1.378 . S
C117 C118 1.361 . S
C118 H102 0.942 . S
C118 C117 1.361 . S
C118 C119 1.369 . S
C119 C118 1.369 . S
C119 C120 1.404 1_565 S
C120 H103 0.940 . S
C120 C119 1.404 1_545 S
C120 C121 1.389 . S
C121 H104 0.939 . S
C121 C116 1.400 1_545 S
C121 C120 1.389 . S
C122 P96 1.819 . S
C122 C123 1.391 . S
C122 C127 1.391 . S
C123 H105 0.941 . S
C123 C122 1.391 . S
C123 C124 1.396 . S
C124 H108 0.939 . S
C124 C123 1.396 . S
C124 C125 1.397 . S
C125 C124 1.397 . S
C125 C126 1.385 1_565 S
C126 H109 0.940 . S
C126 C125 1.385 1_545 S
C126 C127 1.388 1_545 S
C127 H106 0.939 1_565 S
C127 C122 1.391 . S
C127 C126 1.388 1_565 S
P128 O139 1.490 . S
P128 C142 1.812 . S
P128 C148 1.803 . S
P128 C154 1.819 . S
H129 C143 0.941 . S
H130 C144 0.939 . S
H131 C146 0.940 . S
H132 C147 0.949 . S
H133 C149 0.939 . S
H134 C150 0.942 . S
H135 C152 0.940 . S
H136 C153 0.962 . S
H137 C155 0.941 . S
H138 C159 0.927 1_455 S
O139 P128 1.490 . S
H140 C156 0.939 . S
H141 C158 0.940 . S
C142 P128 1.812 . S
C142 C143 1.389 . S
C142 C147 1.377 1_655 S
C143 H129 0.941 . S
C143 C142 1.389 . S
C143 C144 1.397 . S
C144 H130 0.939 . S
C144 C143 1.397 . S
C144 C145 1.378 . S
C145 C144 1.378 . S
C145 C146 1.378 1_655 S
C146 H131 0.940 . S
C146 C145 1.378 1_455 S
C146 C147 1.402 . S
C147 H132 0.949 . S
C147 C142 1.377 1_455 S
C147 C146 1.402 . S
C148 P128 1.803 . S
C148 C149 1.378 . S
C148 C153 1.364 1_655 S
C149 H133 0.939 . S
C149 C148 1.378 . S
C149 C150 1.361 . S
C150 H134 0.942 . S
C150 C149 1.361 . S
C150 C151 1.369 . S
C151 C150 1.369 . S
C151 C152 1.404 1_655 S
C152 H135 0.940 . S
C152 C151 1.404 1_455 S
C152 C153 1.404 . S
C153 H136 0.962 . S
C153 C148 1.364 1_455 S
C153 C152 1.404 . S
C154 P128 1.819 . S
C154 C155 1.391 . S
C154 C159 1.391 . S
C155 H137 0.941 . S
C155 C154 1.391 . S
C155 C156 1.396 . S
C156 H140 0.939 . S
C156 C155 1.396 . S
C156 C157 1.397 . S
C157 C156 1.397 . S
C157 C158 1.385 1_655 S
C158 H141 0.940 . S
C158 C157 1.385 1_455 S
C158 C159 1.388 1_455 S
C159 H138 0.927 1_655 S
C159 C154 1.391 . S
C159 C158 1.388 1_655 S
P160 O171 1.490 . S
P160 C174 1.812 . S
P160 C180 1.803 . S
P160 C186 1.819 . S
H161 C175 0.941 . S
H162 C176 0.939 . S
H163 C178 0.940 . S
H164 C179 0.940 . S
H165 C181 0.939 . S
H166 C182 0.942 . S
H167 C184 0.940 . S
H168 C185 0.939 . S
H169 C187 0.941 . S
H170 C191 0.939 . S
O171 P160 1.490 . S
H172 C188 0.939 . S
H173 C190 0.940 . S
C174 P160 1.812 . S
C174 C175 1.389 . S
C174 C179 1.391 1_565 S
C175 H161 0.941 . S
C175 C174 1.389 . S
C175 C176 1.397 . S
C176 H162 0.939 . S
C176 C175 1.397 . S
C176 C177 1.378 1_565 S
C177 C176 1.378 1_545 S
C177 C178 1.378 . S
C178 H163 0.940 . S
C178 C177 1.378 . S
C178 C179 1.396 . S
C179 H164 0.940 . S
C179 C174 1.391 1_545 S
C179 C178 1.396 . S
C180 P160 1.803 . S
C180 C181 1.378 . S
C180 C185 1.400 1_565 S
C181 H165 0.939 . S
C181 C180 1.378 . S
C181 C182 1.361 . S
C182 H166 0.942 . S
C182 C181 1.361 . S
C182 C183 1.369 1_565 S
C183 C182 1.369 1_545 S
C183 C184 1.404 . S
C184 H167 0.940 . S
C184 C183 1.404 . S
C184 C185 1.389 . S
C185 H168 0.939 . S
C185 C180 1.400 1_545 S
C185 C184 1.389 . S
C186 P160 1.819 . S
C186 C187 1.391 . S
C186 C191 1.391 1_565 S
C187 H169 0.941 . S
C187 C186 1.391 . S
C187 C188 1.396 . S
C188 H172 0.939 . S
C188 C187 1.396 . S
C188 C189 1.397 1_565 S
C189 C188 1.397 1_545 S
C189 C190 1.385 . S
C190 H173 0.940 . S
C190 C189 1.385 . S
C190 C191 1.388 . S
C191 H170 0.939 . S
C191 C186 1.391 1_545 S
C191 C190 1.388 . S
P192 O203 1.490 . S
P192 C206 1.812 . S
P192 C212 1.803 . S
P192 C218 1.819 . S
H193 C207 0.941 . S
H194 C208 0.939 . S
H195 C210 0.940 . S
H196 C211 0.940 . S
H197 C213 0.939 . S
H198 C214 0.942 . S
H199 C216 0.940 . S
H200 C217 0.939 . S
H201 C219 0.941 . S
H202 C223 0.939 . S
O203 P192 1.490 . S
H204 C220 0.939 . S
H205 C222 0.940 . S
C206 P192 1.812 . S
C206 C207 1.389 . S
C206 C211 1.391 . S
C207 H193 0.941 . S
C207 C206 1.389 . S
C207 C208 1.397 . S
C208 H194 0.939 . S
C208 C207 1.397 . S
C208 C209 1.378 . S
C209 C208 1.378 . S
C209 C210 1.378 . S
C210 H195 0.940 . S
C210 C209 1.378 . S
C210 C211 1.396 . S
C211 H196 0.940 . S
C211 C206 1.391 . S
C211 C210 1.396 . S
C212 P192 1.803 . S
C212 C213 1.378 . S
C212 C217 1.400 . S
C213 H197 0.939 . S
C213 C212 1.378 . S
C213 C214 1.361 . S
C214 H198 0.942 . S
C214 C213 1.361 . S
C214 C215 1.369 . S
C215 C214 1.369 . S
C215 C216 1.404 . S
C216 H199 0.940 . S
C216 C215 1.404 . S
C216 C217 1.389 . S
C217 H200 0.939 . S
C217 C212 1.400 . S
C217 C216 1.389 . S
C218 P192 1.819 . S
C218 C219 1.391 . S
C218 C223 1.391 . S
C219 H201 0.941 . S
C219 C218 1.391 . S
C219 C220 1.396 . S
C220 H204 0.939 . S
C220 C219 1.396 . S
C220 C221 1.397 . S
C221 C220 1.397 . S
C221 C222 1.385 . S
C222 H205 0.940 . S
C222 C221 1.385 . S
C222 C223 1.388 . S
C223 H202 0.939 . S
C223 C218 1.391 . S
C223 C222 1.388 . S
P224 O235 1.490 . S
P224 C238 1.812 . S
P224 C244 1.803 . S
P224 C250 1.819 . S
H225 C239 0.941 . S
H226 C240 0.939 . S
H227 C242 0.940 . S
H228 C243 0.940 . S
H229 C245 0.939 . S
H230 C246 0.942 . S
H231 C248 0.940 . S
H232 C249 0.939 . S
H233 C251 0.941 . S
H234 C255 0.939 . S
O235 P224 1.490 . S
H236 C252 0.939 . S
H237 C254 0.940 . S
C238 P224 1.812 . S
C238 C239 1.389 . S
C238 C243 1.391 . S
C239 H225 0.941 . S
C239 C238 1.389 . S
C239 C240 1.397 . S
C240 H226 0.939 . S
C240 C239 1.397 . S
C240 C241 1.378 . S
C241 C240 1.378 . S
C241 C242 1.378 . S
C242 H227 0.940 . S
C242 C241 1.378 . S
C242 C243 1.396 . S
C243 H228 0.940 . S
C243 C238 1.391 . S
C243 C242 1.396 . S
C244 P224 1.803 . S
C244 C245 1.378 . S
C244 C249 1.400 . S
C245 H229 0.939 . S
C245 C244 1.378 . S
C245 C246 1.361 . S
C246 H230 0.942 . S
C246 C245 1.361 . S
C246 C247 1.369 . S
C247 C246 1.369 . S
C247 C248 1.404 . S
C248 H231 0.940 . S
C248 C247 1.404 . S
C248 C249 1.389 . S
C249 H232 0.939 . S
C249 C244 1.400 . S
C249 C248 1.389 . S
C250 P224 1.819 . S
C250 C251 1.391 . S
C250 C255 1.391 . S
C251 H233 0.941 . S
C251 C250 1.391 . S
C251 C252 1.396 . S
C252 H236 0.939 . S
C252 C251 1.396 . S
C252 C253 1.397 . S
C253 C252 1.397 . S
C253 C254 1.385 . S
C254 H237 0.940 . S
C254 C253 1.385 . S
C254 C255 1.388 . S
C255 H234 0.939 . S
C255 C250 1.391 . S
C255 C254 1.388 . S
P256 O267 1.490 . S
P256 C270 1.820 . S
P256 C276 1.820 . S
P256 C282 1.839 . S
H257 C271 0.941 . S
H258 C272 0.939 . S
H259 C274 0.940 . S
H260 C275 0.940 . S
H261 C277 0.939 . S
H262 C278 0.942 . S
H263 C280 0.940 . S
H264 C281 0.939 . S
H265 C283 0.941 . S
H266 C287 0.939 . S
O267 P256 1.490 . S
H268 C284 0.939 . S
H269 C286 0.940 . S
C270 P256 1.820 . S
C270 C271 1.401 . S
C270 C275 1.372 1_556 S
C271 H257 0.941 . S
C271 C270 1.401 . S
C271 C272 1.397 . S
C272 H258 0.939 . S
C272 C271 1.397 . S
C272 C273 1.378 1_556 S
C273 C272 1.378 1_554 S
C273 C274 1.378 . S
C274 H259 0.940 . S
C274 C273 1.378 . S
C274 C275 1.396 . S
C275 H260 0.940 . S
C275 C270 1.372 1_554 S
C275 C274 1.396 . S
C276 P256 1.820 . S
C276 C277 1.401 . S
C276 C281 1.361 1_556 S
C277 H261 0.939 . S
C277 C276 1.401 . S
C277 C278 1.361 . S
C278 H262 0.942 . S
C278 C277 1.361 . S
C278 C279 1.369 1_556 S
C279 C278 1.369 1_554 S
C279 C280 1.404 . S
C280 H263 0.940 . S
C280 C279 1.404 . S
C280 C281 1.389 . S
C281 H264 0.939 . S
C281 C276 1.361 1_554 S
C281 C280 1.389 . S
C282 P256 1.839 . S
C282 C283 1.411 . S
C282 C287 1.355 1_556 S
C283 H265 0.941 . S
C283 C282 1.411 . S
C283 C284 1.396 . S
C284 H268 0.939 . S
C284 C283 1.396 . S
C284 C285 1.397 1_556 S
C285 C284 1.397 1_554 S
C285 C286 1.385 . S
C286 H269 0.940 . S
C286 C285 1.385 . S
C286 C287 1.388 . S
C287 H266 0.939 . S
C287 C282 1.355 1_554 S
C287 C286 1.388 . S
P288 O299 1.490 . S
P288 C302 1.812 . S
P288 C308 1.803 . S
P288 C314 1.819 . S
H289 C303 0.941 . S
H290 C304 0.939 . S
H291 C306 0.940 . S
H292 C307 0.940 . S
H293 C309 0.939 . S
H294 C310 0.942 . S
H295 C312 0.940 . S
H296 C313 0.939 . S
H297 C315 0.941 . S
H298 C319 0.939 . S
O299 P288 1.490 . S
H300 C316 0.939 . S
H301 C318 0.940 . S
C302 P288 1.812 . S
C302 C303 1.389 . S
C302 C307 1.391 1_556 S
C303 H289 0.941 . S
C303 C302 1.389 . S
C303 C304 1.397 . S
C304 H290 0.939 . S
C304 C303 1.397 . S
C304 C305 1.378 1_556 S
C305 C304 1.378 1_554 S
C305 C306 1.378 . S
C306 H291 0.940 . S
C306 C305 1.378 . S
C306 C307 1.396 . S
C307 H292 0.940 . S
C307 C302 1.391 1_554 S
C307 C306 1.396 . S
C308 P288 1.803 . S
C308 C309 1.378 . S
C308 C313 1.400 1_556 S
C309 H293 0.939 . S
C309 C308 1.378 . S
C309 C310 1.361 . S
C310 H294 0.942 . S
C310 C309 1.361 . S
C310 C311 1.369 1_556 S
C311 C310 1.369 1_554 S
C311 C312 1.404 . S
C312 H295 0.940 . S
C312 C311 1.404 . S
C312 C313 1.389 . S
C313 H296 0.939 . S
C313 C308 1.400 1_554 S
C313 C312 1.389 . S
C314 P288 1.819 . S
C314 C315 1.391 . S
C314 C319 1.391 1_556 S
C315 H297 0.941 . S
C315 C314 1.391 . S
C315 C316 1.396 . S
C316 H300 0.939 . S
C316 C315 1.396 . S
C316 C317 1.397 1_556 S
C317 C316 1.397 1_554 S
C317 C318 1.385 . S
C318 H301 0.940 . S
C318 C317 1.385 . S
C318 C319 1.388 . S
C319 H298 0.939 . S
C319 C314 1.391 1_554 S
C319 C318 1.388 . S
P320 O331 1.490 . S
P320 C334 1.812 . S
P320 C340 1.803 . S
P320 C346 1.819 . S
H321 C335 0.941 . S
H322 C336 0.939 . S
H323 C338 0.940 . S
H324 C339 0.940 . S
H325 C341 0.939 . S
H326 C342 0.942 . S
H327 C344 0.940 . S
H328 C345 0.939 . S
H329 C347 0.941 . S
H330 C351 0.939 1_554 S
O331 P320 1.490 . S
H332 C348 0.939 . S
H333 C350 0.940 . S
C334 P320 1.812 . S
C334 C335 1.389 . S
C334 C339 1.391 1_556 S
C335 H321 0.941 . S
C335 C334 1.389 . S
C335 C336 1.397 . S
C336 H322 0.939 . S
C336 C335 1.397 . S
C336 C337 1.378 . S
C337 C336 1.378 . S
C337 C338 1.378 1_556 S
C338 H323 0.940 . S
C338 C337 1.378 1_554 S
C338 C339 1.396 . S
C339 H324 0.940 . S
C339 C334 1.391 1_554 S
C339 C338 1.396 . S
C340 P320 1.803 . S
C340 C341 1.378 . S
C340 C345 1.400 1_556 S
C341 H325 0.939 . S
C341 C340 1.378 . S
C341 C342 1.361 . S
C342 H326 0.942 . S
C342 C341 1.361 . S
C342 C343 1.369 . S
C343 C342 1.369 . S
C343 C344 1.404 1_556 S
C344 H327 0.940 . S
C344 C343 1.404 1_554 S
C344 C345 1.389 . S
C345 H328 0.939 . S
C345 C340 1.400 1_554 S
C345 C344 1.389 . S
C346 P320 1.819 . S
C346 C347 1.391 . S
C346 C351 1.391 . S
C347 H329 0.941 . S
C347 C346 1.391 . S
C347 C348 1.396 . S
C348 H332 0.939 . S
C348 C347 1.396 . S
C348 C349 1.397 . S
C349 C348 1.397 . S
C349 C350 1.385 1_556 S
C350 H333 0.940 . S
C350 C349 1.385 1_554 S
C350 C351 1.388 1_554 S
C351 H330 0.939 1_556 S
C351 C346 1.391 . S
C351 C350 1.388 1_556 S
P352 O363 1.490 . S
P352 C366 1.812 . S
P352 C372 1.803 . S
P352 C378 1.819 . S
H353 C367 0.941 . S
H354 C368 0.939 . S
H355 C370 0.940 . S
H356 C371 0.940 1_556 S
H357 C373 0.939 . S
H358 C374 0.942 . S
H359 C376 0.940 . S
H360 C377 0.939 1_556 S
H361 C379 0.941 . S
H362 C383 0.939 . S
O363 P352 1.490 . S
H364 C380 0.939 . S
H365 C382 0.940 1_556 S
C366 P352 1.812 . S
C366 C367 1.389 . S
C366 C371 1.391 . S
C367 H353 0.941 . S
C367 C366 1.389 . S
C367 C368 1.397 . S
C368 H354 0.939 . S
C368 C367 1.397 . S
C368 C369 1.378 . S
C369 C368 1.378 . S
C369 C370 1.378 1_554 S
C370 H355 0.940 . S
C370 C369 1.378 1_556 S
C370 C371 1.396 1_556 S
C371 H356 0.940 1_554 S
C371 C366 1.391 . S
C371 C370 1.396 1_554 S
C372 P352 1.803 . S
C372 C373 1.378 . S
C372 C377 1.400 . S
C373 H357 0.939 . S
C373 C372 1.378 . S
C373 C374 1.361 . S
C374 H358 0.942 . S
C374 C373 1.361 . S
C374 C375 1.369 . S
C375 C374 1.369 . S
C375 C376 1.404 1_554 S
C376 H359 0.940 . S
C376 C375 1.404 1_556 S
C376 C377 1.389 1_556 S
C377 H360 0.939 1_554 S
C377 C372 1.400 . S
C377 C376 1.389 1_554 S
C378 P352 1.819 . S
C378 C379 1.391 . S
C378 C383 1.391 . S
C379 H361 0.941 . S
C379 C378 1.391 . S
C379 C380 1.396 . S
C380 H364 0.939 . S
C380 C379 1.396 . S
C380 C381 1.397 . S
C381 C380 1.397 . S
C381 C382 1.385 . S
C382 H365 0.940 1_554 S
C382 C381 1.385 . S
C382 C383 1.388 . S
C383 H362 0.939 . S
C383 C378 1.391 . S
C383 C382 1.388 . S
P384 O395 1.490 . S
P384 C398 1.812 . S
P384 C404 1.803 . S
P384 C410 1.819 . S
H385 C399 0.941 . S
H386 C400 0.939 . S
H387 C402 0.940 . S
H388 C403 0.940 . S
H389 C405 0.939 . S
H390 C406 0.942 . S
H391 C408 0.940 . S
H392 C409 0.939 . S
H393 C411 0.941 . S
H394 C415 0.939 . S
O395 P384 1.490 . S
H396 C412 0.939 . S
H397 C414 0.940 . S
C398 P384 1.812 . S
C398 C399 1.389 . S
C398 C403 1.391 . S
C399 H385 0.941 . S
C399 C398 1.389 . S
C399 C400 1.397 . S
C400 H386 0.939 . S
C400 C399 1.397 . S
C400 C401 1.378 . S
C401 C400 1.378 . S
C401 C402 1.378 . S
C402 H387 0.940 . S
C402 C401 1.378 . S
C402 C403 1.396 . S
C403 H388 0.940 . S
C403 C398 1.391 . S
C403 C402 1.396 . S
C404 P384 1.803 . S
C404 C405 1.378 . S
C404 C409 1.400 . S
C405 H389 0.939 . S
C405 C404 1.378 . S
C405 C406 1.361 . S
C406 H390 0.942 . S
C406 C405 1.361 . S
C406 C407 1.369 . S
C407 C406 1.369 . S
C407 C408 1.404 . S
C408 H391 0.940 . S
C408 C407 1.404 . S
C408 C409 1.389 . S
C409 H392 0.939 . S
C409 C404 1.400 . S
C409 C408 1.389 . S
C410 P384 1.819 . S
C410 C411 1.391 . S
C410 C415 1.391 . S
C411 H393 0.941 . S
C411 C410 1.391 . S
C411 C412 1.396 . S
C412 H396 0.939 . S
C412 C411 1.396 . S
C412 C413 1.397 . S
C413 C412 1.397 . S
C413 C414 1.385 . S
C414 H397 0.940 . S
C414 C413 1.385 . S
C414 C415 1.388 . S
C415 H394 0.939 . S
C415 C410 1.391 . S
C415 C414 1.388 . S
P416 O427 1.490 . S
P416 C430 1.812 . S
P416 C436 1.803 . S
P416 C442 1.819 . S
H417 C431 0.941 . S
H418 C432 0.939 . S
H419 C434 0.940 . S
H420 C435 0.940 . S
H421 C437 0.939 . S
H422 C438 0.942 . S
H423 C440 0.940 . S
H424 C441 0.939 . S
H425 C443 0.941 . S
H426 C447 0.939 . S
O427 P416 1.490 . S
H428 C444 0.939 . S
H429 C446 0.940 . S
C430 P416 1.812 . S
C430 C431 1.389 . S
C430 C435 1.391 . S
C431 H417 0.941 . S
C431 C430 1.389 . S
C431 C432 1.397 . S
C432 H418 0.939 . S
C432 C431 1.397 . S
C432 C433 1.378 . S
C433 C432 1.378 . S
C433 C434 1.378 . S
C434 H419 0.940 . S
C434 C433 1.378 . S
C434 C435 1.396 . S
C435 H420 0.940 . S
C435 C430 1.391 . S
C435 C434 1.396 . S
C436 P416 1.803 . S
C436 C437 1.378 . S
C436 C441 1.400 . S
C437 H421 0.939 . S
C437 C436 1.378 . S
C437 C438 1.361 . S
C438 H422 0.942 . S
C438 C437 1.361 . S
C438 C439 1.369 . S
C439 C438 1.369 . S
C439 C440 1.404 . S
C440 H423 0.940 . S
C440 C439 1.404 . S
C440 C441 1.389 . S
C441 H424 0.939 . S
C441 C436 1.400 . S
C441 C440 1.389 . S
C442 P416 1.819 . S
C442 C443 1.391 . S
C442 C447 1.391 . S
C443 H425 0.941 . S
C443 C442 1.391 . S
C443 C444 1.396 . S
C444 H428 0.939 . S
C444 C443 1.396 . S
C444 C445 1.397 . S
C445 C444 1.397 . S
C445 C446 1.385 . S
C446 H429 0.940 . S
C446 C445 1.385 . S
C446 C447 1.388 . S
C447 H426 0.939 . S
C447 C442 1.391 . S
C447 C446 1.388 . S
P448 O459 1.490 . S
P448 C462 1.812 . S
P448 C468 1.803 . S
P448 C474 1.819 . S
H449 C463 0.941 . S
H450 C464 0.939 . S
H451 C466 0.940 . S
H452 C467 0.940 . S
H453 C469 0.939 . S
H454 C470 0.942 . S
H455 C472 0.940 . S
H456 C473 0.939 . S
H457 C475 0.941 . S
H458 C479 0.939 . S
O459 P448 1.490 . S
H460 C476 0.939 . S
H461 C478 0.940 . S
C462 P448 1.812 . S
C462 C463 1.389 . S
C462 C467 1.391 . S
C463 H449 0.941 . S
C463 C462 1.389 . S
C463 C464 1.397 . S
C464 H450 0.939 . S
C464 C463 1.397 . S
C464 C465 1.378 . S
C465 C464 1.378 . S
C465 C466 1.378 . S
C466 H451 0.940 . S
C466 C465 1.378 . S
C466 C467 1.396 . S
C467 H452 0.940 . S
C467 C462 1.391 . S
C467 C466 1.396 . S
C468 P448 1.803 . S
C468 C469 1.378 . S
C468 C473 1.400 . S
C469 H453 0.939 . S
C469 C468 1.378 . S
C469 C470 1.361 . S
C470 H454 0.942 . S
C470 C469 1.361 . S
C470 C471 1.369 . S
C471 C470 1.369 . S
C471 C472 1.404 . S
C472 H455 0.940 . S
C472 C471 1.404 . S
C472 C473 1.389 . S
C473 H456 0.939 . S
C473 C468 1.400 . S
C473 C472 1.389 . S
C474 P448 1.819 . S
C474 C475 1.391 . S
C474 C479 1.391 . S
C475 H457 0.941 . S
C475 C474 1.391 . S
C475 C476 1.396 . S
C476 H460 0.939 . S
C476 C475 1.396 . S
C476 C477 1.397 . S
C477 C476 1.397 . S
C477 C478 1.385 . S
C478 H461 0.940 . S
C478 C477 1.385 . S
C478 C479 1.388 . S
C479 H458 0.939 . S
C479 C474 1.391 . S
C479 C478 1.388 . S
P480 O491 1.490 . S
P480 C494 1.812 . S
P480 C500 1.803 . S
P480 C506 1.819 . S
H481 C495 0.941 . S
H482 C496 0.939 . S
H483 C498 0.940 . S
H484 C499 0.940 . S
H485 C501 0.939 . S
H486 C502 0.942 . S
H487 C504 0.940 . S
H488 C505 0.939 . S
H489 C507 0.941 . S
H490 C511 0.939 . S
O491 P480 1.490 . S
H492 C508 0.939 . S
H493 C510 0.940 . S
C494 P480 1.812 . S
C494 C495 1.389 . S
C494 C499 1.391 . S
C495 H481 0.941 . S
C495 C494 1.389 . S
C495 C496 1.397 . S
C496 H482 0.939 . S
C496 C495 1.397 . S
C496 C497 1.378 . S
C497 C496 1.378 . S
C497 C498 1.378 . S
C498 H483 0.940 . S
C498 C497 1.378 . S
C498 C499 1.396 . S
C499 H484 0.940 . S
C499 C494 1.391 . S
C499 C498 1.396 . S
C500 P480 1.803 . S
C500 C501 1.378 . S
C500 C505 1.400 . S
C501 H485 0.939 . S
C501 C500 1.378 . S
C501 C502 1.361 . S
C502 H486 0.942 . S
C502 C501 1.361 . S
C502 C503 1.369 . S
C503 C502 1.369 . S
C503 C504 1.404 . S
C504 H487 0.940 . S
C504 C503 1.404 . S
C504 C505 1.389 . S
C505 H488 0.939 . S
C505 C500 1.400 . S
C505 C504 1.389 . S
C506 P480 1.819 . S
C506 C507 1.391 . S
C506 C511 1.391 . S
C507 H489 0.941 . S
C507 C506 1.391 . S
C507 C508 1.396 . S
C508 H492 0.939 . S
C508 C507 1.396 . S
C508 C509 1.397 . S
C509 C508 1.397 . S
C509 C510 1.385 . S
C510 H493 0.940 . S
C510 C509 1.385 . S
C510 C511 1.388 . S
C511 H490 0.939 . S
C511 C506 1.391 . S
C511 C510 1.388 . S
P512 O523 1.490 . S
P512 C526 1.812 . S
P512 C532 1.803 . S
P512 C538 1.819 . S
H513 C527 0.941 . S
H514 C528 0.939 . S
H515 C530 0.940 . S
H516 C531 0.940 . S
H517 C533 0.939 . S
H518 C534 0.942 . S
H519 C536 0.940 . S
H520 C537 0.939 . S
H521 C539 0.941 . S
H522 C543 0.939 . S
O523 P512 1.490 . S
H524 C540 0.939 . S
H525 C542 0.940 . S
C526 P512 1.812 . S
C526 C527 1.389 . S
C526 C531 1.391 . S
C527 H513 0.941 . S
C527 C526 1.389 . S
C527 C528 1.397 . S
C528 H514 0.939 . S
C528 C527 1.397 . S
C528 C529 1.378 . S
C529 C528 1.378 . S
C529 C530 1.378 . S
C530 H515 0.940 . S
C530 C529 1.378 . S
C530 C531 1.396 . S
C531 H516 0.940 . S
C531 C526 1.391 . S
C531 C530 1.396 . S
C532 P512 1.803 . S
C532 C533 1.378 . S
C532 C537 1.400 . S
C533 H517 0.939 . S
C533 C532 1.378 . S
C533 C534 1.361 . S
C534 H518 0.942 . S
C534 C533 1.361 . S
C534 C535 1.369 . S
C535 C534 1.369 . S
C535 C536 1.404 . S
C536 H519 0.940 . S
C536 C535 1.404 . S
C536 C537 1.389 . S
C537 H520 0.939 . S
C537 C532 1.400 . S
C537 C536 1.389 . S
C538 P512 1.819 . S
C538 C539 1.391 . S
C538 C543 1.391 . S
C539 H521 0.941 . S
C539 C538 1.391 . S
C539 C540 1.396 . S
C540 H524 0.939 . S
C540 C539 1.396 . S
C540 C541 1.397 . S
C541 C540 1.397 . S
C541 C542 1.385 . S
C542 H525 0.940 . S
C542 C541 1.385 . S
C542 C543 1.388 . S
C543 H522 0.939 . S
C543 C538 1.391 . S
C543 C542 1.388 . S
P544 O555 1.490 . S
P544 C558 1.812 . S
P544 C564 1.803 . S
P544 C570 1.819 . S
H545 C559 0.941 . S
H546 C560 0.939 . S
H547 C562 0.940 . S
H548 C563 0.940 . S
H549 C565 0.939 . S
H550 C566 0.942 . S
H551 C568 0.940 . S
H552 C569 0.939 . S
H553 C571 0.941 . S
H554 C575 0.939 . S
O555 P544 1.490 . S
H556 C572 0.939 . S
H557 C574 0.940 . S
C558 P544 1.812 . S
C558 C559 1.389 . S
C558 C563 1.391 . S
C559 H545 0.941 . S
C559 C558 1.389 . S
C559 C560 1.397 . S
C560 H546 0.939 . S
C560 C559 1.397 . S
C560 C561 1.378 . S
C561 C560 1.378 . S
C561 C562 1.378 . S
C562 H547 0.940 . S
C562 C561 1.378 . S
C562 C563 1.396 . S
C563 H548 0.940 . S
C563 C558 1.391 . S
C563 C562 1.396 . S
C564 P544 1.803 . S
C564 C565 1.378 . S
C564 C569 1.400 . S
C565 H549 0.939 . S
C565 C564 1.378 . S
C565 C566 1.361 . S
C566 H550 0.942 . S
C566 C565 1.361 . S
C566 C567 1.369 . S
C567 C566 1.369 . S
C567 C568 1.404 . S
C568 H551 0.940 . S
C568 C567 1.404 . S
C568 C569 1.389 . S
C569 H552 0.939 . S
C569 C564 1.400 . S
C569 C568 1.389 . S
C570 P544 1.819 . S
C570 C571 1.391 . S
C570 C575 1.391 . S
C571 H553 0.941 . S
C571 C570 1.391 . S
C571 C572 1.396 . S
C572 H556 0.939 . S
C572 C571 1.396 . S
C572 C573 1.397 . S
C573 C572 1.397 . S
C573 C574 1.385 . S
C574 H557 0.940 . S
C574 C573 1.385 . S
C574 C575 1.388 . S
C575 H554 0.939 . S
C575 C570 1.391 . S
C575 C574 1.388 . S
P576 O587 1.490 . S
P576 C590 1.812 . S
P576 C596 1.803 . S
P576 C602 1.819 . S
H577 C591 0.941 . S
H578 C592 0.939 . S
H579 C594 0.940 . S
H580 C595 0.940 . S
H581 C597 0.939 . S
H582 C598 0.942 . S
H583 C600 0.940 . S
H584 C601 0.939 . S
H585 C603 0.941 . S
H586 C607 0.939 . S
O587 P576 1.490 . S
H588 C604 0.939 . S
H589 C606 0.940 . S
C590 P576 1.812 . S
C590 C591 1.389 . S
C590 C595 1.391 . S
C591 H577 0.941 . S
C591 C590 1.389 . S
C591 C592 1.397 . S
C592 H578 0.939 . S
C592 C591 1.397 . S
C592 C593 1.378 . S
C593 C592 1.378 . S
C593 C594 1.378 . S
C594 H579 0.940 . S
C594 C593 1.378 . S
C594 C595 1.396 . S
C595 H580 0.940 . S
C595 C590 1.391 . S
C595 C594 1.396 . S
C596 P576 1.803 . S
C596 C597 1.378 . S
C596 C601 1.400 . S
C597 H581 0.939 . S
C597 C596 1.378 . S
C597 C598 1.361 . S
C598 H582 0.942 . S
C598 C597 1.361 . S
C598 C599 1.369 . S
C599 C598 1.369 . S
C599 C600 1.404 . S
C600 H583 0.940 . S
C600 C599 1.404 . S
C600 C601 1.389 . S
C601 H584 0.939 . S
C601 C596 1.400 . S
C601 C600 1.389 . S
C602 P576 1.819 . S
C602 C603 1.391 . S
C602 C607 1.391 . S
C603 H585 0.941 . S
C603 C602 1.391 . S
C603 C604 1.396 . S
C604 H588 0.939 . S
C604 C603 1.396 . S
C604 C605 1.397 . S
C605 C604 1.397 . S
C605 C606 1.385 . S
C606 H589 0.940 . S
C606 C605 1.385 . S
C606 C607 1.388 . S
C607 H586 0.939 . S
C607 C602 1.391 . S
C607 C606 1.388 . S
P608 O619 1.490 . S
P608 C622 1.812 . S
P608 C628 1.803 . S
P608 C634 1.819 . S
H609 C623 0.941 . S
H610 C624 0.939 . S
H611 C626 0.940 . S
H612 C627 0.940 . S
H613 C629 0.939 . S
H614 C630 0.942 . S
H615 C632 0.940 . S
H616 C633 0.939 . S
H617 C635 0.941 . S
H618 C639 0.939 . S
O619 P608 1.490 . S
H620 C636 0.939 . S
H621 C638 0.940 . S
C622 P608 1.812 . S
C622 C623 1.389 . S
C622 C627 1.391 . S
C623 H609 0.941 . S
C623 C622 1.389 . S
C623 C624 1.397 . S
C624 H610 0.939 . S
C624 C623 1.397 . S
C624 C625 1.378 . S
C625 C624 1.378 . S
C625 C626 1.378 . S
C626 H611 0.940 . S
C626 C625 1.378 . S
C626 C627 1.396 . S
C627 H612 0.940 . S
C627 C622 1.391 . S
C627 C626 1.396 . S
C628 P608 1.803 . S
C628 C629 1.378 . S
C628 C633 1.400 . S
C629 H613 0.939 . S
C629 C628 1.378 . S
C629 C630 1.361 . S
C630 H614 0.942 . S
C630 C629 1.361 . S
C630 C631 1.369 . S
C631 C630 1.369 . S
C631 C632 1.404 . S
C632 H615 0.940 . S
C632 C631 1.404 . S
C632 C633 1.389 . S
C633 H616 0.939 . S
C633 C628 1.400 . S
C633 C632 1.389 . S
C634 P608 1.819 . S
C634 C635 1.391 . S
C634 C639 1.391 . S
C635 H617 0.941 . S
C635 C634 1.391 . S
C635 C636 1.396 . S
C636 H620 0.939 . S
C636 C635 1.396 . S
C636 C637 1.397 . S
C637 C636 1.397 . S
C637 C638 1.385 . S
C638 H621 0.940 . S
C638 C637 1.385 . S
C638 C639 1.388 . S
C639 H618 0.939 . S
C639 C634 1.391 . S
C639 C638 1.388 . S
P640 O651 1.490 . S
P640 C654 1.812 . S
P640 C660 1.803 . S
P640 C666 1.819 . S
H641 C655 0.941 . S
H642 C656 0.939 . S
H643 C658 0.940 . S
H644 C659 0.940 . S
H645 C661 0.939 . S
H646 C662 0.942 . S
H647 C664 0.940 . S
H648 C665 0.939 . S
H649 C667 0.941 . S
H650 C671 0.939 . S
O651 P640 1.490 . S
H652 C668 0.939 . S
H653 C670 0.940 . S
C654 P640 1.812 . S
C654 C655 1.389 . S
C654 C659 1.391 . S
C655 H641 0.941 . S
C655 C654 1.389 . S
C655 C656 1.397 . S
C656 H642 0.939 . S
C656 C655 1.397 . S
C656 C657 1.378 . S
C657 C656 1.378 . S
C657 C658 1.378 . S
C658 H643 0.940 . S
C658 C657 1.378 . S
C658 C659 1.396 . S
C659 H644 0.940 . S
C659 C654 1.391 . S
C659 C658 1.396 . S
C660 P640 1.803 . S
C660 C661 1.378 . S
C660 C665 1.400 . S
C661 H645 0.939 . S
C661 C660 1.378 . S
C661 C662 1.361 . S
C662 H646 0.942 . S
C662 C661 1.361 . S
C662 C663 1.369 . S
C663 C662 1.369 . S
C663 C664 1.404 . S
C664 H647 0.940 . S
C664 C663 1.404 . S
C664 C665 1.389 . S
C665 H648 0.939 . S
C665 C660 1.400 . S
C665 C664 1.389 . S
C666 P640 1.819 . S
C666 C667 1.391 . S
C666 C671 1.391 . S
C667 H649 0.941 . S
C667 C666 1.391 . S
C667 C668 1.396 . S
C668 H652 0.939 . S
C668 C667 1.396 . S
C668 C669 1.397 . S
C669 C668 1.397 . S
C669 C670 1.385 . S
C670 H653 0.940 . S
C670 C669 1.385 . S
C670 C671 1.388 . S
C671 H650 0.939 . S
C671 C666 1.391 . S
C671 C670 1.388 . S
P672 O683 1.490 . S
P672 C686 1.812 . S
P672 C692 1.803 . S
P672 C698 1.819 . S
H673 C687 0.941 . S
H674 C688 0.939 . S
H675 C690 0.940 . S
H676 C691 0.940 . S
H677 C693 0.939 . S
H678 C694 0.942 . S
H679 C696 0.940 . S
H680 C697 0.939 . S
H681 C699 0.941 . S
H682 C703 0.939 . S
O683 P672 1.490 . S
H684 C700 0.939 . S
H685 C702 0.940 . S
C686 P672 1.812 . S
C686 C687 1.389 . S
C686 C691 1.391 . S
C687 H673 0.941 . S
C687 C686 1.389 . S
C687 C688 1.397 . S
C688 H674 0.939 . S
C688 C687 1.397 . S
C688 C689 1.378 . S
C689 C688 1.378 . S
C689 C690 1.378 . S
C690 H675 0.940 . S
C690 C689 1.378 . S
C690 C691 1.396 . S
C691 H676 0.940 . S
C691 C686 1.391 . S
C691 C690 1.396 . S
C692 P672 1.803 . S
C692 C693 1.378 . S
C692 C697 1.400 . S
C693 H677 0.939 . S
C693 C692 1.378 . S
C693 C694 1.361 . S
C694 H678 0.942 . S
C694 C693 1.361 . S
C694 C695 1.369 . S
C695 C694 1.369 . S
C695 C696 1.404 . S
C696 H679 0.940 . S
C696 C695 1.404 . S
C696 C697 1.389 . S
C697 H680 0.939 . S
C697 C692 1.400 . S
C697 C696 1.389 . S
C698 P672 1.819 . S
C698 C699 1.391 . S
C698 C703 1.391 . S
C699 H681 0.941 . S
C699 C698 1.391 . S
C699 C700 1.396 . S
C700 H684 0.939 . S
C700 C699 1.396 . S
C700 C701 1.397 . S
C701 C700 1.397 . S
C701 C702 1.385 . S
C702 H685 0.940 . S
C702 C701 1.385 . S
C702 C703 1.388 . S
C703 H682 0.939 . S
C703 C698 1.391 . S
C703 C702 1.388 . S
P704 O715 1.490 . S
P704 C718 1.812 . S
P704 C724 1.803 . S
P704 C730 1.819 . S
H705 C719 0.941 . S
H706 C720 0.939 . S
H707 C722 0.940 . S
H708 C723 0.940 . S
H709 C725 0.939 . S
H710 C726 0.942 . S
H711 C728 0.940 . S
H712 C729 0.939 . S
H713 C731 0.941 . S
H714 C735 0.939 . S
O715 P704 1.490 . S
H716 C732 0.939 . S
H717 C734 0.940 . S
C718 P704 1.812 . S
C718 C719 1.389 . S
C718 C723 1.391 . S
C719 H705 0.941 . S
C719 C718 1.389 . S
C719 C720 1.397 . S
C720 H706 0.939 . S
C720 C719 1.397 . S
C720 C721 1.378 . S
C721 C720 1.378 . S
C721 C722 1.378 . S
C722 H707 0.940 . S
C722 C721 1.378 . S
C722 C723 1.396 . S
C723 H708 0.940 . S
C723 C718 1.391 . S
C723 C722 1.396 . S
C724 P704 1.803 . S
C724 C725 1.378 . S
C724 C729 1.400 . S
C725 H709 0.939 . S
C725 C724 1.378 . S
C725 C726 1.361 . S
C726 H710 0.942 . S
C726 C725 1.361 . S
C726 C727 1.369 . S
C727 C726 1.369 . S
C727 C728 1.404 . S
C728 H711 0.940 . S
C728 C727 1.404 . S
C728 C729 1.389 . S
C729 H712 0.939 . S
C729 C724 1.400 . S
C729 C728 1.389 . S
C730 P704 1.819 . S
C730 C731 1.391 . S
C730 C735 1.391 . S
C731 H713 0.941 . S
C731 C730 1.391 . S
C731 C732 1.396 . S
C732 H716 0.939 . S
C732 C731 1.396 . S
C732 C733 1.397 . S
C733 C732 1.397 . S
C733 C734 1.385 . S
C734 H717 0.940 . S
C734 C733 1.385 . S
C734 C735 1.388 . S
C735 H714 0.939 . S
C735 C730 1.391 . S
C735 C734 1.388 . S
P736 O747 1.490 . S
P736 C750 1.812 . S
P736 C756 1.803 . S
P736 C762 1.819 . S
H737 C751 0.941 . S
H738 C752 0.939 . S
H739 C754 0.940 . S
H740 C755 0.940 . S
H741 C757 0.939 . S
H742 C758 0.942 . S
H743 C760 0.940 . S
H744 C761 0.939 . S
H745 C763 0.941 . S
H746 C767 0.939 . S
O747 P736 1.490 . S
H748 C764 0.939 . S
H749 C766 0.940 . S
C750 P736 1.812 . S
C750 C751 1.389 . S
C750 C755 1.391 . S
C751 H737 0.941 . S
C751 C750 1.389 . S
C751 C752 1.397 . S
C752 H738 0.939 . S
C752 C751 1.397 . S
C752 C753 1.378 . S
C753 C752 1.378 . S
C753 C754 1.378 . S
C754 H739 0.940 . S
C754 C753 1.378 . S
C754 C755 1.396 . S
C755 H740 0.940 . S
C755 C750 1.391 . S
C755 C754 1.396 . S
C756 P736 1.803 . S
C756 C757 1.378 . S
C756 C761 1.400 . S
C757 H741 0.939 . S
C757 C756 1.378 . S
C757 C758 1.361 . S
C758 H742 0.942 . S
C758 C757 1.361 . S
C758 C759 1.369 . S
C759 C758 1.369 . S
C759 C760 1.404 . S
C760 H743 0.940 . S
C760 C759 1.404 . S
C760 C761 1.389 . S
C761 H744 0.939 . S
C761 C756 1.400 . S
C761 C760 1.389 . S
C762 P736 1.819 . S
C762 C763 1.391 . S
C762 C767 1.391 . S
C763 H745 0.941 . S
C763 C762 1.391 . S
C763 C764 1.396 . S
C764 H748 0.939 . S
C764 C763 1.396 . S
C764 C765 1.397 . S
C765 C764 1.397 . S
C765 C766 1.385 . S
C766 H749 0.940 . S
C766 C765 1.385 . S
C766 C767 1.388 . S
C767 H746 0.939 . S
C767 C762 1.391 . S
C767 C766 1.388 . S
Zn768 O770 1.933 1_665 S
Zn768 O788 1.985 1_565 S
Zn768 O799 1.955 1_655 S
Zn769 O770 1.911 1_655 S
Zn769 O789 1.970 . S
Zn769 O805 1.945 1_655 S
Zn769 O812 1.981 . S
O770 Zn768 1.933 1_445 S
O770 Zn769 1.911 1_455 S
O770 H771 0.841 . S
H771 O770 0.841 . S
C772 O773 1.246 . S
C772 O801 1.276 . S
O773 C772 1.246 . S
Zn774 O776 1.911 . S
Zn774 O791 1.970 . S
Zn774 O808 1.945 . S
Zn774 O815 1.981 . S
Zn775 O776 1.933 1_565 S
Zn775 O790 1.981 1_565 S
Zn775 O797 1.955 . S
O776 Zn774 1.911 . S
O776 Zn775 1.933 1_545 S
O776 H777 0.841 . S
H777 O776 0.841 . S
Zn778 O779 1.933 1_565 S
Zn778 O792 1.985 1_565 S
Zn778 O801 1.955 . S
O779 Zn778 1.933 1_545 S
O779 Zn780 1.911 . S
O779 H781 0.841 . S
Zn780 O779 1.911 . S
Zn780 O793 1.970 . S
Zn780 O809 1.981 1_655 S
Zn780 O811 1.945 . S
H781 O779 0.841 . S
Zn782 O783 1.933 1_565 S
Zn782 O795 1.982 1_565 S
Zn782 O803 1.955 . S
O783 Zn782 1.933 1_545 S
O783 H784 0.841 . S
O783 Zn785 1.911 . S
H784 O783 0.841 . S
Zn785 O783 1.911 . S
Zn785 O796 1.970 . S
Zn785 O806 1.981 . S
Zn785 O814 1.945 . S
C786 O787 1.246 . S
C786 O803 1.276 . S
O787 C786 1.246 . S
O788 Zn768 1.985 1_545 S
O788 C798 1.245 . S
O789 Zn769 1.970 . S
O789 C798 1.263 . S
O790 Zn775 1.981 1_545 S
O790 C802 1.266 . S
O791 Zn774 1.970 . S
O791 C802 1.263 . S
O792 Zn778 1.985 1_545 S
O792 C807 1.245 . S
O793 Zn780 1.970 . S
O793 C807 1.263 . S
C794 O805 1.262 . S
C794 O806 1.245 . S
O795 Zn782 1.982 1_545 S
O795 C813 1.258 . S
O796 Zn785 1.970 . S
O796 C813 1.263 . S
O797 Zn775 1.955 . S
O797 C816 1.276 . S
C798 O788 1.245 . S
C798 O789 1.263 . S
O799 Zn768 1.955 1_455 S
O799 C818 1.276 . S
C800 O808 1.262 . S
C800 O809 1.245 . S
O801 C772 1.276 . S
O801 Zn778 1.955 . S
C802 O790 1.266 . S
C802 O791 1.263 . S
O803 Zn782 1.955 . S
O803 C786 1.276 . S
C804 O811 1.262 . S
C804 O812 1.245 . S
O805 Zn769 1.945 1_455 S
O805 C794 1.262 . S
O806 Zn785 1.981 . S
O806 C794 1.245 . S
C807 O792 1.245 . S
C807 O793 1.263 . S
O808 Zn774 1.945 . S
O808 C800 1.262 . S
O809 Zn780 1.981 1_455 S
O809 C800 1.245 . S
C810 O814 1.262 . S
C810 O815 1.245 . S
O811 Zn780 1.945 . S
O811 C804 1.262 . S
O812 Zn769 1.981 . S
O812 C804 1.245 . S
C813 O795 1.258 . S
C813 O796 1.263 . S
O814 Zn785 1.945 . S
O814 C810 1.262 . S
O815 Zn774 1.981 . S
O815 C810 1.245 . S
C816 O797 1.276 . S
C816 O817 1.246 . S
O817 C816 1.246 . S
C818 O799 1.276 . S
C818 O819 1.246 . S
O819 C818 1.246 . S
Zn820 O822 1.933 . S
Zn820 O840 1.985 . S
Zn820 O851 1.955 . S
Zn821 O822 1.911 1_556 S
Zn821 O841 1.970 . S
Zn821 O857 1.945 . S
Zn821 O864 1.981 . S
O822 Zn820 1.933 . S
O822 Zn821 1.911 1_554 S
O822 H823 0.841 . S
H823 O822 0.841 . S
C824 O825 1.246 . S
C824 O853 1.276 . S
O825 C824 1.246 . S
Zn826 O828 1.911 1_566 S
Zn826 O843 1.970 . S
Zn826 O860 1.945 1_565 S
Zn826 O867 1.981 . S
Zn827 O828 1.933 1_565 S
Zn827 O842 1.985 . S
Zn827 O849 1.955 1_565 S
O828 Zn826 1.911 1_544 S
O828 Zn827 1.933 1_545 S
O828 H829 0.841 . S
H829 O828 0.841 . S
Zn830 O831 1.933 . S
Zn830 O844 1.985 . S
Zn830 O853 1.955 . S
O831 Zn830 1.933 . S
O831 Zn832 1.911 1_554 S
O831 H833 0.841 . S
Zn832 O831 1.911 1_556 S
Zn832 O845 1.970 . S
Zn832 O861 1.981 . S
Zn832 O863 1.945 . S
H833 O831 0.841 . S
Zn834 O835 1.933 . S
Zn834 O847 1.985 . S
Zn834 O855 1.955 . S
O835 Zn834 1.933 . S
O835 H836 0.841 . S
O835 Zn837 1.911 1_554 S
H836 O835 0.841 . S
Zn837 O835 1.911 1_556 S
Zn837 O848 1.970 . S
Zn837 O858 1.981 1_565 S
Zn837 O866 1.945 . S
C838 O839 1.246 . S
C838 O855 1.276 . S
O839 C838 1.246 . S
O840 Zn820 1.985 . S
O840 C850 1.245 . S
O841 Zn821 1.970 . S
O841 C850 1.263 1_556 S
O842 Zn827 1.985 . S
O842 C854 1.245 . S
O843 Zn826 1.970 . S
O843 C854 1.263 1_556 S
O844 Zn830 1.985 . S
O844 C859 1.245 . S
O845 Zn832 1.970 . S
O845 C859 1.263 1_556 S
C846 O857 1.262 . S
C846 O858 1.245 . S
O847 Zn834 1.985 . S
O847 C865 1.245 . S
O848 Zn837 1.970 . S
O848 C865 1.263 1_556 S
O849 Zn827 1.955 1_545 S
O849 C868 1.276 . S
C850 O840 1.245 . S
C850 O841 1.263 1_554 S
O851 Zn820 1.955 . S
O851 C870 1.276 . S
C852 O860 1.262 . S
C852 O861 1.245 . S
O853 C824 1.276 . S
O853 Zn830 1.955 . S
C854 O842 1.245 . S
C854 O843 1.263 1_554 S
O855 Zn834 1.955 . S
O855 C838 1.276 . S
C856 O863 1.262 . S
C856 O864 1.245 . S
O857 Zn821 1.945 . S
O857 C846 1.262 . S
O858 Zn837 1.981 1_545 S
O858 C846 1.245 . S
C859 O844 1.245 . S
C859 O845 1.263 1_554 S
O860 Zn826 1.945 1_545 S
O860 C852 1.262 . S
O861 Zn832 1.981 . S
O861 C852 1.245 . S
C862 O866 1.262 . S
C862 O867 1.245 . S
O863 Zn832 1.945 . S
O863 C856 1.262 . S
O864 Zn821 1.981 . S
O864 C856 1.245 . S
C865 O847 1.245 . S
C865 O848 1.263 1_554 S
O866 Zn837 1.945 . S
O866 C862 1.262 . S
O867 Zn826 1.981 . S
O867 C862 1.245 . S
C868 O849 1.276 . S
C868 O869 1.246 . S
O869 C868 1.246 . S
C870 O851 1.276 . S
C870 O871 1.246 . S
O871 C870 1.246 . S
Zn872 O874 1.933 1_655 S
Zn872 O892 1.985 . S
Zn872 O903 1.955 1_655 S
Zn873 O874 1.911 1_655 S
Zn873 O893 1.970 . S
Zn873 O909 1.945 . S
Zn873 O916 2.010 . S
O874 Zn872 1.933 1_455 S
O874 Zn873 1.911 1_455 S
O874 H875 0.841 . S
H875 O874 0.841 . S
C876 O877 1.246 1_554 S
C876 O905 1.276 . S
O877 C876 1.246 1_556 S
Zn878 O880 1.911 . S
Zn878 O895 1.970 . S
Zn878 O912 1.945 . S
Zn878 O919 1.981 . S
Zn879 O880 1.933 . S
Zn879 O894 1.985 . S
Zn879 O901 1.955 . S
O880 Zn878 1.911 . S
O880 Zn879 1.933 . S
O880 H881 0.841 . S
H881 O880 0.841 . S
Zn882 O883 1.933 . S
Zn882 O896 1.985 . S
Zn882 O905 1.955 . S
O883 Zn882 1.933 . S
O883 Zn884 1.911 . S
O883 H885 0.841 . S
Zn884 O883 1.911 . S
Zn884 O897 1.970 . S
Zn884 O913 1.981 1_655 S
Zn884 O915 1.945 . S
H885 O883 0.841 . S
Zn886 O887 1.933 . S
Zn886 O899 1.985 . S
Zn886 O907 1.955 . S
O887 Zn886 1.933 . S
O887 H888 0.841 1_556 S
O887 Zn889 1.911 . S
H888 O887 0.841 1_554 S
Zn889 O887 1.911 . S
Zn889 O900 1.970 . S
Zn889 O910 1.981 . S
Zn889 O918 1.945 . S
C890 O891 1.246 . S
C890 O907 1.276 1_554 S
O891 C890 1.246 . S
O892 Zn872 1.985 . S
O892 C902 1.245 . S
O893 Zn873 1.970 . S
O893 C902 1.263 . S
O894 Zn879 1.985 . S
O894 C906 1.245 . S
O895 Zn878 1.970 . S
O895 C906 1.263 . S
O896 Zn882 1.985 . S
O896 C911 1.245 . S
O897 Zn884 1.970 . S
O897 C911 1.263 . S
C898 O909 1.262 1_455 S
C898 O910 1.245 . S
O899 Zn886 1.985 . S
O899 C917 1.245 . S
O900 Zn889 1.970 . S
O900 C917 1.263 . S
O901 Zn879 1.955 . S
O901 C920 1.276 . S
C902 O892 1.245 . S
C902 O893 1.263 . S
O903 Zn872 1.955 1_455 S
O903 C922 1.276 . S
C904 O912 1.262 . S
C904 O913 1.245 . S
O905 C876 1.276 . S
O905 Zn882 1.955 . S
C906 O894 1.245 . S
C906 O895 1.263 . S
O907 Zn886 1.955 . S
O907 C890 1.276 1_556 S
C908 O915 1.262 . S
C908 O916 1.226 1_554 S
O909 Zn873 1.945 . S
O909 C898 1.262 1_655 S
O910 Zn889 1.981 . S
O910 C898 1.245 . S
C911 O896 1.245 . S
C911 O897 1.263 . S
O912 Zn878 1.945 . S
O912 C904 1.262 . S
O913 Zn884 1.981 1_455 S
O913 C904 1.245 . S
C914 O918 1.262 1_554 S
C914 O919 1.245 . S
O915 Zn884 1.945 . S
O915 C908 1.262 . S
O916 Zn873 2.010 . S
O916 C908 1.226 1_556 S
C917 O899 1.245 . S
C917 O900 1.263 . S
O918 Zn889 1.945 . S
O918 C914 1.262 1_556 S
O919 Zn878 1.981 . S
O919 C914 1.245 . S
C920 O901 1.276 . S
C920 O921 1.246 . S
O921 C920 1.246 . S
C922 O903 1.276 . S
C922 O923 1.246 . S
O923 C922 1.246 . S
Zn924 O926 1.933 1_556 S
Zn924 O944 1.985 . S
Zn924 O955 1.955 . S
Zn925 O926 1.911 . S
Zn925 O945 1.970 . S
Zn925 O961 1.945 . S
Zn925 O968 1.981 . S
O926 Zn924 1.933 1_554 S
O926 Zn925 1.911 . S
O926 H927 0.841 . S
H927 O926 0.841 . S
C928 O929 1.246 . S
C928 O957 1.276 . S
O929 C928 1.246 . S
Zn930 O932 1.911 . S
Zn930 O947 1.970 . S
Zn930 O964 1.945 . S
Zn930 O971 1.981 . S
Zn931 O932 1.933 1_556 S
Zn931 O946 1.985 . S
Zn931 O953 1.955 . S
O932 Zn930 1.911 . S
O932 Zn931 1.933 1_554 S
O932 H933 0.841 . S
H933 O932 0.841 . S
Zn934 O935 1.933 1_556 S
Zn934 O948 1.985 . S
Zn934 O957 1.955 . S
O935 Zn934 1.933 1_554 S
O935 Zn936 1.911 . S
O935 H937 0.841 . S
Zn936 O935 1.911 . S
Zn936 O949 1.970 . S
Zn936 O965 1.981 . S
Zn936 O967 1.945 . S
H937 O935 0.841 . S
Zn938 O939 1.933 1_556 S
Zn938 O951 1.985 . S
Zn938 O959 1.955 . S
O939 Zn938 1.933 1_554 S
O939 H940 0.841 . S
O939 Zn941 1.911 . S
H940 O939 0.841 . S
Zn941 O939 1.911 . S
Zn941 O952 1.970 . S
Zn941 O962 1.981 . S
Zn941 O970 1.945 . S
C942 O943 1.246 . S
C942 O959 1.276 . S
O943 C942 1.246 . S
O944 Zn924 1.985 . S
O944 C954 1.245 1_556 S
O945 Zn925 1.970 . S
O945 C954 1.263 . S
O946 Zn931 1.985 . S
O946 C958 1.245 1_556 S
O947 Zn930 1.970 . S
O947 C958 1.263 . S
O948 Zn934 1.985 . S
O948 C963 1.245 1_556 S
O949 Zn936 1.970 . S
O949 C963 1.263 . S
C950 O961 1.262 . S
C950 O962 1.245 . S
O951 Zn938 1.985 . S
O951 C969 1.245 1_556 S
O952 Zn941 1.970 . S
O952 C969 1.263 . S
O953 Zn931 1.955 . S
O953 C972 1.276 . S
C954 O944 1.245 1_554 S
C954 O945 1.263 . S
O955 Zn924 1.955 . S
O955 C974 1.276 . S
C956 O964 1.262 . S
C956 O965 1.245 . S
O957 C928 1.276 . S
O957 Zn934 1.955 . S
C958 O946 1.245 1_554 S
C958 O947 1.263 . S
O959 Zn938 1.955 . S
O959 C942 1.276 . S
C960 O967 1.262 . S
C960 O968 1.245 . S
O961 Zn925 1.945 . S
O961 C950 1.262 . S
O962 Zn941 1.981 . S
O962 C950 1.245 . S
C963 O948 1.245 1_554 S
C963 O949 1.263 . S
O964 Zn930 1.945 . S
O964 C956 1.262 . S
O965 Zn936 1.981 . S
O965 C956 1.245 . S
C966 O970 1.262 . S
C966 O971 1.245 . S
O967 Zn936 1.945 . S
O967 C960 1.262 . S
O968 Zn925 1.981 . S
O968 C960 1.245 . S
C969 O951 1.245 1_554 S
C969 O952 1.263 . S
O970 Zn941 1.945 . S
O970 C966 1.262 . S
O971 Zn930 1.981 . S
O971 C966 1.245 . S
C972 O953 1.276 . S
C972 O973 1.246 . S
O973 C972 1.246 . S
C974 O955 1.276 . S
C974 O975 1.246 . S
O975 C974 1.246 . S
Zn976 O978 1.933 1_655 S
Zn976 O996 1.985 . S
Zn976 O1007 1.955 1_655 S
Zn977 O978 1.911 1_655 S
Zn977 O997 1.970 . S
Zn977 O1013 1.945 1_655 S
Zn977 O1020 1.981 . S
O978 Zn976 1.933 1_455 S
O978 Zn977 1.911 1_455 S
O978 H979 0.841 . S
H979 O978 0.841 . S
C980 O981 1.246 . S
C980 O1009 1.276 . S
O981 C980 1.246 . S
Zn982 O984 1.911 . S
Zn982 O999 1.970 . S
Zn982 O1016 1.945 . S
Zn982 O1023 1.981 . S
Zn983 O984 1.933 . S
Zn983 O998 1.985 . S
Zn983 O1005 1.955 . S
O984 Zn982 1.911 . S
O984 Zn983 1.933 . S
O984 H985 0.841 . S
H985 O984 0.841 . S
Zn986 O987 1.933 . S
Zn986 O1000 1.985 . S
Zn986 O1009 1.955 . S
O987 Zn986 1.933 . S
O987 Zn988 1.911 . S
O987 H989 0.841 . S
Zn988 O987 1.911 . S
Zn988 O1001 1.970 . S
Zn988 O1017 1.981 1_655 S
Zn988 O1019 1.945 . S
H989 O987 0.841 . S
Zn990 O991 1.933 . S
Zn990 O1003 1.985 . S
Zn990 O1011 1.955 . S
O991 Zn990 1.933 . S
O991 H992 0.841 . S
O991 Zn993 1.911 . S
H992 O991 0.841 . S
Zn993 O991 1.911 . S
Zn993 O1004 1.970 . S
Zn993 O1014 1.981 . S
Zn993 O1022 1.945 . S
C994 O995 1.246 . S
C994 O1011 1.276 . S
O995 C994 1.246 . S
O996 Zn976 1.985 . S
O996 C1006 1.245 . S
O997 Zn977 1.970 . S
O997 C1006 1.263 . S
O998 Zn983 1.985 . S
O998 C1010 1.245 . S
O999 Zn982 1.970 . S
O999 C1010 1.263 . S
O1000 Zn986 1.985 . S
O1000 C1015 1.245 . S
O1001 Zn988 1.970 . S
O1001 C1015 1.263 . S
C1002 O1013 1.262 . S
C1002 O1014 1.245 . S
O1003 Zn990 1.985 . S
O1003 C1021 1.245 . S
O1004 Zn993 1.970 . S
O1004 C1021 1.263 . S
O1005 Zn983 1.955 . S
O1005 C1024 1.276 . S
C1006 O996 1.245 . S
C1006 O997 1.263 . S
O1007 Zn976 1.955 1_455 S
O1007 C1026 1.276 . S
C1008 O1016 1.262 . S
C1008 O1017 1.245 . S
O1009 C980 1.276 . S
O1009 Zn986 1.955 . S
C1010 O998 1.245 . S
C1010 O999 1.263 . S
O1011 Zn990 1.955 . S
O1011 C994 1.276 . S
C1012 O1019 1.262 . S
C1012 O1020 1.245 . S
O1013 Zn977 1.945 1_455 S
O1013 C1002 1.262 . S
O1014 Zn993 1.981 . S
O1014 C1002 1.245 . S
C1015 O1000 1.245 . S
C1015 O1001 1.263 . S
O1016 Zn982 1.945 . S
O1016 C1008 1.262 . S
O1017 Zn988 1.981 1_455 S
O1017 C1008 1.245 . S
C1018 O1022 1.262 . S
C1018 O1023 1.245 . S
O1019 Zn988 1.945 . S
O1019 C1012 1.262 . S
O1020 Zn977 1.981 . S
O1020 C1012 1.245 . S
C1021 O1003 1.245 . S
C1021 O1004 1.263 . S
O1022 Zn993 1.945 . S
O1022 C1018 1.262 . S
O1023 Zn982 1.981 . S
O1023 C1018 1.245 . S
C1024 O1005 1.276 . S
C1024 O1025 1.246 . S
O1025 C1024 1.246 . S
C1026 O1007 1.276 . S
C1026 O1027 1.246 . S
O1027 C1026 1.246 . S
Zn1028 O1030 1.933 1_565 S
Zn1028 O1048 1.985 1_565 S
Zn1028 O1059 1.955 . S
Zn1029 O1030 1.911 . S
Zn1029 O1049 1.970 . S
Zn1029 O1065 1.945 . S
Zn1029 O1072 1.981 . S
O1030 Zn1028 1.933 1_545 S
O1030 Zn1029 1.911 . S
O1030 H1031 0.841 . S
H1031 O1030 0.841 . S
C1032 O1033 1.246 . S
C1032 O1061 1.276 . S
O1033 C1032 1.246 . S
Zn1034 O1036 1.911 . S
Zn1034 O1051 1.970 . S
Zn1034 O1068 1.945 . S
Zn1034 O1075 1.981 . S
Zn1035 O1036 1.933 1_565 S
Zn1035 O1050 1.985 1_565 S
Zn1035 O1057 1.955 . S
O1036 Zn1034 1.911 . S
O1036 Zn1035 1.933 1_545 S
O1036 H1037 0.841 . S
H1037 O1036 0.841 . S
Zn1038 O1039 1.933 1_565 S
Zn1038 O1052 1.985 1_565 S
Zn1038 O1061 1.955 . S
O1039 Zn1038 1.933 1_545 S
O1039 Zn1040 1.911 . S
O1039 H1041 0.841 . S
Zn1040 O1039 1.911 . S
Zn1040 O1053 1.970 . S
Zn1040 O1069 1.981 . S
Zn1040 O1071 1.945 . S
H1041 O1039 0.841 . S
Zn1042 O1043 1.933 1_565 S
Zn1042 O1055 1.985 1_565 S
Zn1042 O1063 1.955 . S
O1043 Zn1042 1.933 1_545 S
O1043 H1044 0.841 . S
O1043 Zn1045 1.911 . S
H1044 O1043 0.841 . S
Zn1045 O1043 1.911 . S
Zn1045 O1056 1.970 . S
Zn1045 O1066 1.981 . S
Zn1045 O1074 1.945 . S
C1046 O1047 1.246 . S
C1046 O1063 1.276 . S
O1047 C1046 1.246 . S
O1048 Zn1028 1.985 1_545 S
O1048 C1058 1.245 . S
O1049 Zn1029 1.970 . S
O1049 C1058 1.263 . S
O1050 Zn1035 1.985 1_545 S
O1050 C1062 1.245 . S
O1051 Zn1034 1.970 . S
O1051 C1062 1.263 . S
O1052 Zn1038 1.985 1_545 S
O1052 C1067 1.245 . S
O1053 Zn1040 1.970 . S
O1053 C1067 1.263 . S
C1054 O1065 1.262 . S
C1054 O1066 1.245 . S
O1055 Zn1042 1.985 1_545 S
O1055 C1073 1.245 . S
O1056 Zn1045 1.970 . S
O1056 C1073 1.263 . S
O1057 Zn1035 1.955 . S
O1057 C1076 1.276 . S
C1058 O1048 1.245 . S
C1058 O1049 1.263 . S
O1059 Zn1028 1.955 . S
O1059 C1078 1.276 . S
C1060 O1068 1.262 . S
C1060 O1069 1.245 . S
O1061 C1032 1.276 . S
O1061 Zn1038 1.955 . S
C1062 O1050 1.245 . S
C1062 O1051 1.263 . S
O1063 Zn1042 1.955 . S
O1063 C1046 1.276 . S
C1064 O1071 1.262 . S
C1064 O1072 1.245 . S
O1065 Zn1029 1.945 . S
O1065 C1054 1.262 . S
O1066 Zn1045 1.981 . S
O1066 C1054 1.245 . S
C1067 O1052 1.245 . S
C1067 O1053 1.263 . S
O1068 Zn1034 1.945 . S
O1068 C1060 1.262 . S
O1069 Zn1040 1.981 . S
O1069 C1060 1.245 . S
C1070 O1074 1.262 . S
C1070 O1075 1.245 . S
O1071 Zn1040 1.945 . S
O1071 C1064 1.262 . S
O1072 Zn1029 1.981 . S
O1072 C1064 1.245 . S
C1073 O1055 1.245 . S
C1073 O1056 1.263 . S
O1074 Zn1045 1.945 . S
O1074 C1070 1.262 . S
O1075 Zn1034 1.981 . S
O1075 C1070 1.245 . S
C1076 O1057 1.276 . S
C1076 O1077 1.246 . S
O1077 C1076 1.246 . S
C1078 O1059 1.276 . S
C1078 O1079 1.246 . S
O1079 C1078 1.246 . S
C1080 C1081 1.349 . S
C1080 C1082 1.327 . S
C1080 H1105 0.950 . S
C1081 C1080 1.349 . S
C1081 C1097 1.349 . S
C1082 C1080 1.327 . S
C1082 C1101 1.429 . S
C1082 H1106 0.950 . S
C1083 C1100 1.574 . S
C1083 C1102 1.368 . S
C1083 H1107 0.949 . S
H1084 C1088 0.949 . S
C1085 C1086 1.349 . S
C1085 C1087 1.327 . S
C1085 H1108 0.950 . S
C1086 C1085 1.349 . S
C1086 C1098 1.349 . S
C1087 C1085 1.327 . S
C1087 C1103 1.429 . S
C1087 H1109 0.950 . S
C1088 H1084 0.949 . S
C1088 C1096 1.574 . S
C1088 C1104 1.368 . S
H1089 C1097 0.950 . S
H1090 C1095 0.950 . S
H1091 C1096 0.949 . S
H1092 C1098 0.950 . S
H1093 C1099 0.950 . S
H1094 C1100 0.949 . S
C1095 H1090 0.950 . S
C1095 C1097 1.327 . S
C1095 C1101 1.429 . S
C1096 C1088 1.574 . S
C1096 H1091 0.949 . S
C1096 C1102 1.368 . S
C1097 C1081 1.349 . S
C1097 H1089 0.950 . S
C1097 C1095 1.327 . S
C1098 C1086 1.349 . S
C1098 H1092 0.950 . S
C1098 C1099 1.327 . S
C1099 H1093 0.950 . S
C1099 C1098 1.327 . S
C1099 C1103 1.429 . S
C1100 C1083 1.574 . S
C1100 H1094 0.949 . S
C1100 C1104 1.368 . S
C1101 C1082 1.429 . S
C1101 C1095 1.429 . S
C1101 C1102 1.523 . S
C1102 C1083 1.368 . S
C1102 C1096 1.368 . S
C1102 C1101 1.523 . S
C1103 C1087 1.429 . S
C1103 C1099 1.429 . S
C1103 C1104 1.523 . S
C1104 C1088 1.368 . S
C1104 C1100 1.368 . S
C1104 C1103 1.523 . S
H1105 C1080 0.950 . S
H1106 C1082 0.950 . S
H1107 C1083 0.949 . S
H1108 C1085 0.950 . S
H1109 C1087 0.950 . S
C1110 C1111 1.349 . S
C1110 C1112 1.327 . S
C1110 H1135 0.950 . S
C1111 C1110 1.349 . S
C1111 C1127 1.349 . S
C1112 C1110 1.327 . S
C1112 C1131 1.429 . S
C1112 H1136 0.950 . S
C1113 C1130 1.574 . S
C1113 C1132 1.368 . S
C1113 H1137 0.949 . S
H1114 C1118 0.949 . S
C1115 C1116 1.349 . S
C1115 C1117 1.327 . S
C1115 H1138 0.950 . S
C1116 C1115 1.349 . S
C1116 C1128 1.349 . S
C1117 C1115 1.327 . S
C1117 C1133 1.429 . S
C1117 H1139 0.950 . S
C1118 H1114 0.949 . S
C1118 C1126 1.574 . S
C1118 C1134 1.368 . S
H1119 C1127 0.950 . S
H1120 C1125 0.950 . S
H1121 C1126 0.949 . S
H1122 C1128 0.950 . S
H1123 C1129 0.950 . S
H1124 C1130 0.949 . S
C1125 H1120 0.950 . S
C1125 C1127 1.327 . S
C1125 C1131 1.429 . S
C1126 C1118 1.574 . S
C1126 H1121 0.949 . S
C1126 C1132 1.368 . S
C1127 C1111 1.349 . S
C1127 H1119 0.950 . S
C1127 C1125 1.327 . S
C1128 C1116 1.349 . S
C1128 H1122 0.950 . S
C1128 C1129 1.327 . S
C1129 H1123 0.950 . S
C1129 C1128 1.327 . S
C1129 C1133 1.429 . S
C1130 C1113 1.574 . S
C1130 H1124 0.949 . S
C1130 C1134 1.368 . S
C1131 C1112 1.429 . S
C1131 C1125 1.429 . S
C1131 C1132 1.523 . S
C1132 C1113 1.368 . S
C1132 C1126 1.368 . S
C1132 C1131 1.523 . S
C1133 C1117 1.429 . S
C1133 C1129 1.429 . S
C1133 C1134 1.523 . S
C1134 C1118 1.368 . S
C1134 C1130 1.368 . S
C1134 C1133 1.523 . S
H1135 C1110 0.950 . S
H1136 C1112 0.950 . S
H1137 C1113 0.949 . S
H1138 C1115 0.950 . S
H1139 C1117 0.950 . S
C1140 C1141 1.349 . S
C1140 C1142 1.327 . S
C1140 H1165 0.950 . S
C1141 C1140 1.349 . S
C1141 C1157 1.349 . S
C1142 C1140 1.327 . S
C1142 C1161 1.429 . S
C1142 H1166 0.950 . S
C1143 C1160 1.574 . S
C1143 C1162 1.368 . S
C1143 H1167 0.949 . S
H1144 C1148 0.949 . S
C1145 C1146 1.349 . S
C1145 C1147 1.327 . S
C1145 H1168 0.950 . S
C1146 C1145 1.349 . S
C1146 C1158 1.349 . S
C1147 C1145 1.327 . S
C1147 C1163 1.429 . S
C1147 H1169 0.950 . S
C1148 H1144 0.949 . S
C1148 C1156 1.574 . S
C1148 C1164 1.368 . S
H1149 C1157 0.950 . S
H1150 C1155 0.950 . S
H1151 C1156 0.949 . S
H1152 C1158 0.950 . S
H1153 C1159 0.950 . S
H1154 C1160 0.949 . S
C1155 H1150 0.950 . S
C1155 C1157 1.327 . S
C1155 C1161 1.429 . S
C1156 C1148 1.574 . S
C1156 H1151 0.949 . S
C1156 C1162 1.368 . S
C1157 C1141 1.349 . S
C1157 H1149 0.950 . S
C1157 C1155 1.327 . S
C1158 C1146 1.349 . S
C1158 H1152 0.950 . S
C1158 C1159 1.327 . S
C1159 H1153 0.950 . S
C1159 C1158 1.327 . S
C1159 C1163 1.429 . S
C1160 C1143 1.574 . S
C1160 H1154 0.949 . S
C1160 C1164 1.368 . S
C1161 C1142 1.429 . S
C1161 C1155 1.429 . S
C1161 C1162 1.523 . S
C1162 C1143 1.368 . S
C1162 C1156 1.368 . S
C1162 C1161 1.523 . S
C1163 C1147 1.429 . S
C1163 C1159 1.429 . S
C1163 C1164 1.523 . S
C1164 C1148 1.368 . S
C1164 C1160 1.368 . S
C1164 C1163 1.523 . S
H1165 C1140 0.950 . S
H1166 C1142 0.950 . S
H1167 C1143 0.949 . S
H1168 C1145 0.950 . S
H1169 C1147 0.950 . S
C1170 C1171 1.349 . S
C1170 C1172 1.327 . S
C1170 H1195 0.950 . S
C1171 C1170 1.349 . S
C1171 C1187 1.349 . S
C1172 C1170 1.327 . S
C1172 C1191 1.429 . S
C1172 H1196 0.950 . S
C1173 C1190 1.574 . S
C1173 C1192 1.368 . S
C1173 H1197 0.949 . S
H1174 C1178 0.949 . S
C1175 C1176 1.349 . S
C1175 C1177 1.327 . S
C1175 H1198 0.950 . S
C1176 C1175 1.349 . S
C1176 C1188 1.349 . S
C1177 C1175 1.327 . S
C1177 C1193 1.429 . S
C1177 H1199 0.950 . S
C1178 H1174 0.949 . S
C1178 C1186 1.574 . S
C1178 C1194 1.368 . S
H1179 C1187 0.950 . S
H1180 C1185 0.950 . S
H1181 C1186 0.949 . S
H1182 C1188 0.950 . S
H1183 C1189 0.950 . S
H1184 C1190 0.949 . S
C1185 H1180 0.950 . S
C1185 C1187 1.327 . S
C1185 C1191 1.429 . S
C1186 C1178 1.574 . S
C1186 H1181 0.949 . S
C1186 C1192 1.368 . S
C1187 C1171 1.349 . S
C1187 H1179 0.950 . S
C1187 C1185 1.327 . S
C1188 C1176 1.349 . S
C1188 H1182 0.950 . S
C1188 C1189 1.327 . S
C1189 H1183 0.950 . S
C1189 C1188 1.327 . S
C1189 C1193 1.429 . S
C1190 C1173 1.574 . S
C1190 H1184 0.949 . S
C1190 C1194 1.368 . S
C1191 C1172 1.429 . S
C1191 C1185 1.429 . S
C1191 C1192 1.523 . S
C1192 C1173 1.368 . S
C1192 C1186 1.368 . S
C1192 C1191 1.523 . S
C1193 C1177 1.429 . S
C1193 C1189 1.429 . S
C1193 C1194 1.523 . S
C1194 C1178 1.368 . S
C1194 C1190 1.368 . S
C1194 C1193 1.523 . S
H1195 C1170 0.950 . S
H1196 C1172 0.950 . S
H1197 C1173 0.949 . S
H1198 C1175 0.950 . S
H1199 C1177 0.950 . S
C1200 C1201 1.349 . S
C1200 C1202 1.327 . S
C1200 H1225 0.950 . S
C1201 C1200 1.349 . S
C1201 C1217 1.349 . S
C1202 C1200 1.327 . S
C1202 C1221 1.429 . S
C1202 H1226 0.950 . S
C1203 C1220 1.574 . S
C1203 C1222 1.368 . S
C1203 H1227 0.949 . S
H1204 C1208 0.949 . S
C1205 C1206 1.349 . S
C1205 C1207 1.327 . S
C1205 H1228 0.950 . S
C1206 C1205 1.349 . S
C1206 C1218 1.349 . S
C1207 C1205 1.327 . S
C1207 C1223 1.429 . S
C1207 H1229 0.950 . S
C1208 H1204 0.949 . S
C1208 C1216 1.574 . S
C1208 C1224 1.368 . S
H1209 C1217 0.950 . S
H1210 C1215 0.950 . S
H1211 C1216 0.949 . S
H1212 C1218 0.950 . S
H1213 C1219 0.950 . S
H1214 C1220 0.949 . S
C1215 H1210 0.950 . S
C1215 C1217 1.327 . S
C1215 C1221 1.429 . S
C1216 C1208 1.574 . S
C1216 H1211 0.949 . S
C1216 C1222 1.368 . S
C1217 C1201 1.349 . S
C1217 H1209 0.950 . S
C1217 C1215 1.327 . S
C1218 C1206 1.349 . S
C1218 H1212 0.950 . S
C1218 C1219 1.327 . S
C1219 H1213 0.950 . S
C1219 C1218 1.327 . S
C1219 C1223 1.429 . S
C1220 C1203 1.574 . S
C1220 H1214 0.949 . S
C1220 C1224 1.368 . S
C1221 C1202 1.429 . S
C1221 C1215 1.429 . S
C1221 C1222 1.523 . S
C1222 C1203 1.368 . S
C1222 C1216 1.368 . S
C1222 C1221 1.523 . S
C1223 C1207 1.429 . S
C1223 C1219 1.429 . S
C1223 C1224 1.523 . S
C1224 C1208 1.368 . S
C1224 C1220 1.368 . S
C1224 C1223 1.523 . S
H1225 C1200 0.950 . S
H1226 C1202 0.950 . S
H1227 C1203 0.949 . S
H1228 C1205 0.950 . S
H1229 C1207 0.950 . S
C1230 C1231 1.349 . S
C1230 C1232 1.327 . S
C1230 H1255 0.950 . S
C1231 C1230 1.349 . S
C1231 C1247 1.349 . S
C1232 C1230 1.327 . S
C1232 C1251 1.429 . S
C1232 H1256 0.950 . S
C1233 C1250 1.574 . S
C1233 C1252 1.368 . S
C1233 H1257 0.949 . S
H1234 C1238 0.949 . S
C1235 C1236 1.349 . S
C1235 C1237 1.327 . S
C1235 H1258 0.950 . S
C1236 C1235 1.349 . S
C1236 C1248 1.349 . S
C1237 C1235 1.327 . S
C1237 C1253 1.429 . S
C1237 H1259 0.950 . S
C1238 H1234 0.949 . S
C1238 C1246 1.574 . S
C1238 C1254 1.368 . S
H1239 C1247 0.950 . S
H1240 C1245 0.950 . S
H1241 C1246 0.949 . S
H1242 C1248 0.950 . S
H1243 C1249 0.950 . S
H1244 C1250 0.949 . S
C1245 H1240 0.950 . S
C1245 C1247 1.327 . S
C1245 C1251 1.429 . S
C1246 C1238 1.574 . S
C1246 H1241 0.949 . S
C1246 C1252 1.368 . S
C1247 C1231 1.349 . S
C1247 H1239 0.950 . S
C1247 C1245 1.327 . S
C1248 C1236 1.349 . S
C1248 H1242 0.950 . S
C1248 C1249 1.327 . S
C1249 H1243 0.950 . S
C1249 C1248 1.327 . S
C1249 C1253 1.429 . S
C1250 C1233 1.574 . S
C1250 H1244 0.949 . S
C1250 C1254 1.368 . S
C1251 C1232 1.429 . S
C1251 C1245 1.429 . S
C1251 C1252 1.523 . S
C1252 C1233 1.368 . S
C1252 C1246 1.368 . S
C1252 C1251 1.523 . S
C1253 C1237 1.429 . S
C1253 C1249 1.429 . S
C1253 C1254 1.523 . S
C1254 C1238 1.368 . S
C1254 C1250 1.368 . S
C1254 C1253 1.523 . S
H1255 C1230 0.950 . S
H1256 C1232 0.950 . S
H1257 C1233 0.949 . S
H1258 C1235 0.950 . S
H1259 C1237 0.950 . S
C1260 C1261 1.349 . S
C1260 C1262 1.327 . S
C1260 H1285 0.950 . S
C1261 C1260 1.349 . S
C1261 C1277 1.349 . S
C1262 C1260 1.327 . S
C1262 C1281 1.429 . S
C1262 H1286 0.950 . S
C1263 C1280 1.574 . S
C1263 C1282 1.368 . S
C1263 H1287 0.949 . S
H1264 C1268 0.949 . S
C1265 C1266 1.349 . S
C1265 C1267 1.327 . S
C1265 H1288 0.950 . S
C1266 C1265 1.349 . S
C1266 C1278 1.349 . S
C1267 C1265 1.327 . S
C1267 C1283 1.429 . S
C1267 H1289 0.950 . S
C1268 H1264 0.949 . S
C1268 C1276 1.574 . S
C1268 C1284 1.368 . S
H1269 C1277 0.950 . S
H1270 C1275 0.950 . S
H1271 C1276 0.949 . S
H1272 C1278 0.950 . S
H1273 C1279 0.950 . S
H1274 C1280 0.949 . S
C1275 H1270 0.950 . S
C1275 C1277 1.327 . S
C1275 C1281 1.429 . S
C1276 C1268 1.574 . S
C1276 H1271 0.949 . S
C1276 C1282 1.368 . S
C1277 C1261 1.349 . S
C1277 H1269 0.950 . S
C1277 C1275 1.327 . S
C1278 C1266 1.349 . S
C1278 H1272 0.950 . S
C1278 C1279 1.327 . S
C1279 H1273 0.950 . S
C1279 C1278 1.327 . S
C1279 C1283 1.429 . S
C1280 C1263 1.574 . S
C1280 H1274 0.949 . S
C1280 C1284 1.368 . S
C1281 C1262 1.429 . S
C1281 C1275 1.429 . S
C1281 C1282 1.523 . S
C1282 C1263 1.368 . S
C1282 C1276 1.368 . S
C1282 C1281 1.523 . S
C1283 C1267 1.429 . S
C1283 C1279 1.429 . S
C1283 C1284 1.523 . S
C1284 C1268 1.368 . S
C1284 C1280 1.368 . S
C1284 C1283 1.523 . S
H1285 C1260 0.950 . S
H1286 C1262 0.950 . S
H1287 C1263 0.949 . S
H1288 C1265 0.950 . S
H1289 C1267 0.950 . S
C1290 C1291 1.349 . S
C1290 C1292 1.327 . S
C1290 H1315 0.950 . S
C1291 C1290 1.349 . S
C1291 C1307 1.349 . S
C1292 C1290 1.327 . S
C1292 C1311 1.429 . S
C1292 H1316 0.950 . S
C1293 C1310 1.574 . S
C1293 C1312 1.368 . S
C1293 H1317 0.949 . S
H1294 C1298 0.949 . S
C1295 C1296 1.349 . S
C1295 C1297 1.327 . S
C1295 H1318 0.950 . S
C1296 C1295 1.349 . S
C1296 C1308 1.349 . S
C1297 C1295 1.327 . S
C1297 C1313 1.429 . S
C1297 H1319 0.950 . S
C1298 H1294 0.949 . S
C1298 C1306 1.574 . S
C1298 C1314 1.368 . S
H1299 C1307 0.950 . S
H1300 C1305 0.950 . S
H1301 C1306 0.949 . S
H1302 C1308 0.950 . S
H1303 C1309 0.950 . S
H1304 C1310 0.949 . S
C1305 H1300 0.950 . S
C1305 C1307 1.327 . S
C1305 C1311 1.429 . S
C1306 C1298 1.574 . S
C1306 H1301 0.949 . S
C1306 C1312 1.368 . S
C1307 C1291 1.349 . S
C1307 H1299 0.950 . S
C1307 C1305 1.327 . S
C1308 C1296 1.349 . S
C1308 H1302 0.950 . S
C1308 C1309 1.327 . S
C1309 H1303 0.950 . S
C1309 C1308 1.327 . S
C1309 C1313 1.429 . S
C1310 C1293 1.574 . S
C1310 H1304 0.949 . S
C1310 C1314 1.368 . S
C1311 C1292 1.429 . S
C1311 C1305 1.429 . S
C1311 C1312 1.523 . S
C1312 C1293 1.368 . S
C1312 C1306 1.368 . S
C1312 C1311 1.523 . S
C1313 C1297 1.429 . S
C1313 C1309 1.429 . S
C1313 C1314 1.523 . S
C1314 C1298 1.368 . S
C1314 C1310 1.368 . S
C1314 C1313 1.523 . S
H1315 C1290 0.950 . S
H1316 C1292 0.950 . S
H1317 C1293 0.949 . S
H1318 C1295 0.950 . S
H1319 C1297 0.950 . S
C1320 C1321 1.349 . S
C1320 C1322 1.327 . S
C1320 H1345 0.950 . S
C1321 C1320 1.349 . S
C1321 C1337 1.349 . S
C1322 C1320 1.327 . S
C1322 C1341 1.429 . S
C1322 H1346 0.950 . S
C1323 C1340 1.574 . S
C1323 C1342 1.368 . S
C1323 H1347 0.949 . S
H1324 C1328 0.949 . S
C1325 C1326 1.349 . S
C1325 C1327 1.327 . S
C1325 H1348 0.950 . S
C1326 C1325 1.349 . S
C1326 C1338 1.349 . S
C1327 C1325 1.327 . S
C1327 C1343 1.429 . S
C1327 H1349 0.950 . S
C1328 H1324 0.949 . S
C1328 C1336 1.574 . S
C1328 C1344 1.368 . S
H1329 C1337 0.950 . S
H1330 C1335 0.950 . S
H1331 C1336 0.949 . S
H1332 C1338 0.950 . S
H1333 C1339 0.950 . S
H1334 C1340 0.949 . S
C1335 H1330 0.950 . S
C1335 C1337 1.327 . S
C1335 C1341 1.429 . S
C1336 C1328 1.574 . S
C1336 H1331 0.949 . S
C1336 C1342 1.368 . S
C1337 C1321 1.349 . S
C1337 H1329 0.950 . S
C1337 C1335 1.327 . S
C1338 C1326 1.349 . S
C1338 H1332 0.950 . S
C1338 C1339 1.327 . S
C1339 H1333 0.950 . S
C1339 C1338 1.327 . S
C1339 C1343 1.429 . S
C1340 C1323 1.574 . S
C1340 H1334 0.949 . S
C1340 C1344 1.368 . S
C1341 C1322 1.429 . S
C1341 C1335 1.429 . S
C1341 C1342 1.523 . S
C1342 C1323 1.368 . S
C1342 C1336 1.368 . S
C1342 C1341 1.523 . S
C1343 C1327 1.429 . S
C1343 C1339 1.429 . S
C1343 C1344 1.523 . S
C1344 C1328 1.368 . S
C1344 C1340 1.368 . S
C1344 C1343 1.523 . S
H1345 C1320 0.950 . S
H1346 C1322 0.950 . S
H1347 C1323 0.949 . S
H1348 C1325 0.950 . S
H1349 C1327 0.950 . S
C1350 C1351 1.349 . S
C1350 C1352 1.327 . S
C1350 H1375 0.950 . S
C1351 C1350 1.349 . S
C1351 C1367 1.349 . S
C1352 C1350 1.327 . S
C1352 C1371 1.429 . S
C1352 H1376 0.950 . S
C1353 C1370 1.574 . S
C1353 C1372 1.368 . S
C1353 H1377 0.949 . S
H1354 C1358 0.949 . S
C1355 C1356 1.349 . S
C1355 C1357 1.327 . S
C1355 H1378 0.950 . S
C1356 C1355 1.349 . S
C1356 C1368 1.349 . S
C1357 C1355 1.327 . S
C1357 C1373 1.429 . S
C1357 H1379 0.950 . S
C1358 H1354 0.949 . S
C1358 C1366 1.574 . S
C1358 C1374 1.368 . S
H1359 C1367 0.950 . S
H1360 C1365 0.950 . S
H1361 C1366 0.949 . S
H1362 C1368 0.950 . S
H1363 C1369 0.950 . S
H1364 C1370 0.949 . S
C1365 H1360 0.950 . S
C1365 C1367 1.327 . S
C1365 C1371 1.429 . S
C1366 C1358 1.574 . S
C1366 H1361 0.949 . S
C1366 C1372 1.368 . S
C1367 C1351 1.349 . S
C1367 H1359 0.950 . S
C1367 C1365 1.327 . S
C1368 C1356 1.349 . S
C1368 H1362 0.950 . S
C1368 C1369 1.327 . S
C1369 H1363 0.950 . S
C1369 C1368 1.327 . S
C1369 C1373 1.429 . S
C1370 C1353 1.574 . S
C1370 H1364 0.949 . S
C1370 C1374 1.368 . S
C1371 C1352 1.429 . S
C1371 C1365 1.429 . S
C1371 C1372 1.523 . S
C1372 C1353 1.368 . S
C1372 C1366 1.368 . S
C1372 C1371 1.523 . S
C1373 C1357 1.429 . S
C1373 C1369 1.429 . S
C1373 C1374 1.523 . S
C1374 C1358 1.368 . S
C1374 C1370 1.368 . S
C1374 C1373 1.523 . S
H1375 C1350 0.950 . S
H1376 C1352 0.950 . S
H1377 C1353 0.949 . S
H1378 C1355 0.950 . S
H1379 C1357 0.950 . S
C1380 C1381 1.349 . S
C1380 C1382 1.327 . S
C1380 H1405 0.950 . S
C1381 C1380 1.349 . S
C1381 C1397 1.349 . S
C1382 C1380 1.327 . S
C1382 C1401 1.429 . S
C1382 H1406 0.950 . S
C1383 C1400 1.574 . S
C1383 C1402 1.368 . S
C1383 H1407 0.949 . S
H1384 C1388 0.949 . S
C1385 C1386 1.349 . S
C1385 C1387 1.327 . S
C1385 H1408 0.950 . S
C1386 C1385 1.349 . S
C1386 C1398 1.349 . S
C1387 C1385 1.327 . S
C1387 C1403 1.429 . S
C1387 H1409 0.950 . S
C1388 H1384 0.949 . S
C1388 C1396 1.574 . S
C1388 C1404 1.368 . S
H1389 C1397 0.950 . S
H1390 C1395 0.950 . S
H1391 C1396 0.949 . S
H1392 C1398 0.950 . S
H1393 C1399 0.950 . S
H1394 C1400 0.949 . S
C1395 H1390 0.950 . S
C1395 C1397 1.327 . S
C1395 C1401 1.429 . S
C1396 C1388 1.574 . S
C1396 H1391 0.949 . S
C1396 C1402 1.368 . S
C1397 C1381 1.349 . S
C1397 H1389 0.950 . S
C1397 C1395 1.327 . S
C1398 C1386 1.349 . S
C1398 H1392 0.950 . S
C1398 C1399 1.327 . S
C1399 H1393 0.950 . S
C1399 C1398 1.327 . S
C1399 C1403 1.429 . S
C1400 C1383 1.574 . S
C1400 H1394 0.949 . S
C1400 C1404 1.368 . S
C1401 C1382 1.429 . S
C1401 C1395 1.429 . S
C1401 C1402 1.523 . S
C1402 C1383 1.368 . S
C1402 C1396 1.368 . S
C1402 C1401 1.523 . S
C1403 C1387 1.429 . S
C1403 C1399 1.429 . S
C1403 C1404 1.523 . S
C1404 C1388 1.368 . S
C1404 C1400 1.368 . S
C1404 C1403 1.523 . S
H1405 C1380 0.950 . S
H1406 C1382 0.950 . S
H1407 C1383 0.949 . S
H1408 C1385 0.950 . S
H1409 C1387 0.950 . S
C1410 C1411 1.349 . S
C1410 C1412 1.327 . S
C1410 H1435 0.950 . S
C1411 C1410 1.349 . S
C1411 C1427 1.349 . S
C1412 C1410 1.327 . S
C1412 C1431 1.429 . S
C1412 H1436 0.950 . S
C1413 C1430 1.574 . S
C1413 C1432 1.368 . S
C1413 H1437 0.949 . S
H1414 C1418 0.949 . S
C1415 C1416 1.349 . S
C1415 C1417 1.327 . S
C1415 H1438 0.950 . S
C1416 C1415 1.349 . S
C1416 C1428 1.349 . S
C1417 C1415 1.327 . S
C1417 C1433 1.429 . S
C1417 H1439 0.950 . S
C1418 H1414 0.949 . S
C1418 C1426 1.574 . S
C1418 C1434 1.368 . S
H1419 C1427 0.950 . S
H1420 C1425 0.950 . S
H1421 C1426 0.949 . S
H1422 C1428 0.950 . S
H1423 C1429 0.950 . S
H1424 C1430 0.949 . S
C1425 H1420 0.950 . S
C1425 C1427 1.327 . S
C1425 C1431 1.429 . S
C1426 C1418 1.574 . S
C1426 H1421 0.949 . S
C1426 C1432 1.368 . S
C1427 C1411 1.349 . S
C1427 H1419 0.950 . S
C1427 C1425 1.327 . S
C1428 C1416 1.349 . S
C1428 H1422 0.950 . S
C1428 C1429 1.327 . S
C1429 H1423 0.950 . S
C1429 C1428 1.327 . S
C1429 C1433 1.429 . S
C1430 C1413 1.574 . S
C1430 H1424 0.949 . S
C1430 C1434 1.368 . S
C1431 C1412 1.429 . S
C1431 C1425 1.429 . S
C1431 C1432 1.523 . S
C1432 C1413 1.368 . S
C1432 C1426 1.368 . S
C1432 C1431 1.523 . S
C1433 C1417 1.429 . S
C1433 C1429 1.429 . S
C1433 C1434 1.523 . S
C1434 C1418 1.368 . S
C1434 C1430 1.368 . S
C1434 C1433 1.523 . S
H1435 C1410 0.950 . S
H1436 C1412 0.950 . S
H1437 C1413 0.949 . S
H1438 C1415 0.950 . S
H1439 C1417 0.950 . S
C1440 C1441 1.349 . S
C1440 C1442 1.327 . S
C1440 H1465 0.950 . S
C1441 C1440 1.349 . S
C1441 C1457 1.349 1_554 S
C1442 C1440 1.327 . S
C1442 C1461 1.429 . S
C1442 H1466 0.950 . S
C1443 C1460 1.574 . S
C1443 C1462 1.368 1_556 S
C1443 H1467 0.949 . S
H1444 C1448 0.949 . S
C1445 C1446 1.349 1_556 S
C1445 C1447 1.327 . S
C1445 H1468 0.950 . S
C1446 C1445 1.349 1_554 S
C1446 C1458 1.349 . S
C1447 C1445 1.327 . S
C1447 C1463 1.429 1_556 S
C1447 H1469 0.950 . S
C1448 H1444 0.949 . S
C1448 C1456 1.574 . S
C1448 C1464 1.368 . S
H1449 C1457 0.950 . S
H1450 C1455 0.950 . S
H1451 C1456 0.949 . S
H1452 C1458 0.950 . S
H1453 C1459 0.950 . S
H1454 C1460 0.949 . S
C1455 H1450 0.950 . S
C1455 C1457 1.327 . S
C1455 C1461 1.429 1_556 S
C1456 C1448 1.574 . S
C1456 H1451 0.949 . S
C1456 C1462 1.368 . S
C1457 C1441 1.349 1_556 S
C1457 H1449 0.950 . S
C1457 C1455 1.327 . S
C1458 C1446 1.349 . S
C1458 H1452 0.950 . S
C1458 C1459 1.327 . S
C1459 H1453 0.950 . S
C1459 C1458 1.327 . S
C1459 C1463 1.429 . S
C1460 C1443 1.574 . S
C1460 H1454 0.949 . S
C1460 C1464 1.368 1_556 S
C1461 C1442 1.429 . S
C1461 C1455 1.429 1_554 S
C1461 C1462 1.523 . S
C1462 C1443 1.368 1_554 S
C1462 C1456 1.368 . S
C1462 C1461 1.523 . S
C1463 C1447 1.429 1_554 S
C1463 C1459 1.429 . S
C1463 C1464 1.523 . S
C1464 C1448 1.368 . S
C1464 C1460 1.368 1_554 S
C1464 C1463 1.523 . S
H1465 C1440 0.950 . S
H1466 C1442 0.950 . S
H1467 C1443 0.949 . S
H1468 C1445 0.950 . S
H1469 C1447 0.950 . S
C1470 C1471 1.349 . S
C1470 C1472 1.327 . S
C1470 H1495 0.950 . S
C1471 C1470 1.349 . S
C1471 C1487 1.306 1_554 S
C1472 C1470 1.327 . S
C1472 C1491 1.429 . S
C1472 H1496 0.950 . S
C1473 C1490 1.574 . S
C1473 C1492 1.368 1_556 S
C1473 H1497 0.949 . S
H1474 C1478 0.949 . S
C1475 C1476 1.349 1_556 S
C1475 C1477 1.327 . S
C1475 H1498 0.950 . S
C1476 C1475 1.349 1_554 S
C1476 C1488 1.349 . S
C1477 C1475 1.327 . S
C1477 C1493 1.429 1_556 S
C1477 H1499 0.950 . S
C1478 H1474 0.949 . S
C1478 C1486 1.574 . S
C1478 C1494 1.368 . S
H1479 C1487 0.993 . S
H1480 C1485 0.950 . S
H1481 C1486 0.949 . S
H1482 C1488 0.950 . S
H1483 C1489 0.950 . S
H1484 C1490 0.949 . S
C1485 H1480 0.950 . S
C1485 C1487 1.330 . S
C1485 C1491 1.429 1_556 S
C1486 C1478 1.574 . S
C1486 H1481 0.949 . S
C1486 C1492 1.368 . S
C1487 C1471 1.306 1_556 S
C1487 H1479 0.993 . S
C1487 C1485 1.330 . S
C1488 C1476 1.349 . S
C1488 H1482 0.950 . S
C1488 C1489 1.327 . S
C1489 H1483 0.950 . S
C1489 C1488 1.327 . S
C1489 C1493 1.429 . S
C1490 C1473 1.574 . S
C1490 H1484 0.949 . S
C1490 C1494 1.368 1_556 S
C1491 C1472 1.429 . S
C1491 C1485 1.429 1_554 S
C1491 C1492 1.523 . S
C1492 C1473 1.368 1_554 S
C1492 C1486 1.368 . S
C1492 C1491 1.523 . S
C1493 C1477 1.429 1_554 S
C1493 C1489 1.429 . S
C1493 C1494 1.523 . S
C1494 C1478 1.368 . S
C1494 C1490 1.368 1_554 S
C1494 C1493 1.523 . S
H1495 C1470 0.950 . S
H1496 C1472 0.950 . S
H1497 C1473 0.949 . S
H1498 C1475 0.950 . S
H1499 C1477 0.950 . S
C1500 C1501 1.349 . S
C1500 C1502 1.327 . S
C1500 H1525 0.950 . S
C1501 C1500 1.349 . S
C1501 C1517 1.349 . S
C1502 C1500 1.327 . S
C1502 C1521 1.429 . S
C1502 H1526 0.950 . S
C1503 C1520 1.574 . S
C1503 C1522 1.368 1_556 S
C1503 H1527 0.949 . S
H1504 C1508 0.949 . S
C1505 C1506 1.349 1_556 S
C1505 C1507 1.327 . S
C1505 H1528 0.950 . S
C1506 C1505 1.349 1_554 S
C1506 C1518 1.349 . S
C1507 C1505 1.327 . S
C1507 C1523 1.429 1_556 S
C1507 H1529 0.950 . S
C1508 H1504 0.949 . S
C1508 C1516 1.574 . S
C1508 C1524 1.368 . S
H1509 C1517 0.950 1_556 S
H1510 C1515 0.950 1_556 S
H1511 C1516 0.949 . S
H1512 C1518 0.950 . S
H1513 C1519 0.950 . S
H1514 C1520 0.949 . S
C1515 H1510 0.950 1_554 S
C1515 C1517 1.327 . S
C1515 C1521 1.429 . S
C1516 C1508 1.574 . S
C1516 H1511 0.949 . S
C1516 C1522 1.368 . S
C1517 C1501 1.349 . S
C1517 H1509 0.950 1_554 S
C1517 C1515 1.327 . S
C1518 C1506 1.349 . S
C1518 H1512 0.950 . S
C1518 C1519 1.327 . S
C1519 H1513 0.950 . S
C1519 C1518 1.327 . S
C1519 C1523 1.429 . S
C1520 C1503 1.574 . S
C1520 H1514 0.949 . S
C1520 C1524 1.368 1_556 S
C1521 C1502 1.429 . S
C1521 C1515 1.429 . S
C1521 C1522 1.523 . S
C1522 C1503 1.368 1_554 S
C1522 C1516 1.368 . S
C1522 C1521 1.523 . S
C1523 C1507 1.429 1_554 S
C1523 C1519 1.429 . S
C1523 C1524 1.523 . S
C1524 C1508 1.368 . S
C1524 C1520 1.368 1_554 S
C1524 C1523 1.523 . S
H1525 C1500 0.950 . S
H1526 C1502 0.950 . S
H1527 C1503 0.949 . S
H1528 C1505 0.950 . S
H1529 C1507 0.950 . S
C1530 C1531 1.349 1_556 S
C1530 C1532 1.327 . S
C1530 H1555 0.950 . S
C1531 C1530 1.349 1_554 S
C1531 C1547 1.349 . S
C1532 C1530 1.327 . S
C1532 C1551 1.429 1_556 S
C1532 H1556 0.950 . S
C1533 C1550 1.574 . S
C1533 C1552 1.368 . S
C1533 H1557 0.949 . S
H1534 C1538 0.949 . S
C1535 C1536 1.349 . S
C1535 C1537 1.327 . S
C1535 H1558 0.950 . S
C1536 C1535 1.349 . S
C1536 C1548 1.349 1_554 S
C1537 C1535 1.327 . S
C1537 C1553 1.429 . S
C1537 H1559 0.950 . S
C1538 H1534 0.949 . S
C1538 C1546 1.574 . S
C1538 C1554 1.368 1_556 S
H1539 C1547 0.950 . S
H1540 C1545 0.950 . S
H1541 C1546 0.949 . S
H1542 C1548 0.950 . S
H1543 C1549 0.950 . S
H1544 C1550 0.949 . S
C1545 H1540 0.950 . S
C1545 C1547 1.327 . S
C1545 C1551 1.429 . S
C1546 C1538 1.574 . S
C1546 H1541 0.949 . S
C1546 C1552 1.368 1_556 S
C1547 C1531 1.349 . S
C1547 H1539 0.950 . S
C1547 C1545 1.327 . S
C1548 C1536 1.349 1_556 S
C1548 H1542 0.950 . S
C1548 C1549 1.327 . S
C1549 H1543 0.950 . S
C1549 C1548 1.327 . S
C1549 C1553 1.429 1_556 S
C1550 C1533 1.574 . S
C1550 H1544 0.949 . S
C1550 C1554 1.368 . S
C1551 C1532 1.429 1_554 S
C1551 C1545 1.429 . S
C1551 C1552 1.523 . S
C1552 C1533 1.368 . S
C1552 C1546 1.368 1_554 S
C1552 C1551 1.523 . S
C1553 C1537 1.429 . S
C1553 C1549 1.429 1_554 S
C1553 C1554 1.523 . S
C1554 C1538 1.368 1_554 S
C1554 C1550 1.368 . S
C1554 C1553 1.523 . S
H1555 C1530 0.950 . S
H1556 C1532 0.950 . S
H1557 C1533 0.949 . S
H1558 C1535 0.950 . S
H1559 C1537 0.950 . S
C1560 C1561 1.323 1_655 S
C1560 C1562 1.327 . S
C1560 H1585 0.950 . S
C1561 C1560 1.323 1_455 S
C1561 C1577 1.378 . S
C1562 C1560 1.327 . S
C1562 C1581 1.429 1_655 S
C1562 H1586 0.950 . S
C1563 C1580 1.574 . S
C1563 C1582 1.368 . S
C1563 H1587 0.949 . S
H1564 C1568 0.949 . S
C1565 C1566 1.349 . S
C1565 C1567 1.327 . S
C1565 H1588 0.950 . S
C1566 C1565 1.349 . S
C1566 C1578 1.349 1_455 S
C1567 C1565 1.327 . S
C1567 C1583 1.429 . S
C1567 H1589 0.950 . S
C1568 H1564 0.949 . S
C1568 C1576 1.574 . S
C1568 C1584 1.368 1_655 S
H1569 C1577 0.950 . S
H1570 C1575 0.950 . S
H1571 C1576 0.949 . S
H1572 C1578 0.950 . S
H1573 C1579 0.950 . S
H1574 C1580 0.949 . S
C1575 H1570 0.950 . S
C1575 C1577 1.327 . S
C1575 C1581 1.429 . S
C1576 C1568 1.574 . S
C1576 H1571 0.949 . S
C1576 C1582 1.368 1_655 S
C1577 C1561 1.378 . S
C1577 H1569 0.950 . S
C1577 C1575 1.327 . S
C1578 C1566 1.349 1_655 S
C1578 H1572 0.950 . S
C1578 C1579 1.327 . S
C1579 H1573 0.950 . S
C1579 C1578 1.327 . S
C1579 C1583 1.429 1_655 S
C1580 C1563 1.574 . S
C1580 H1574 0.949 . S
C1580 C1584 1.368 . S
C1581 C1562 1.429 1_455 S
C1581 C1575 1.429 . S
C1581 C1582 1.523 . S
C1582 C1563 1.368 . S
C1582 C1576 1.368 1_455 S
C1582 C1581 1.523 . S
C1583 C1567 1.429 . S
C1583 C1579 1.429 1_455 S
C1583 C1584 1.523 . S
C1584 C1568 1.368 1_455 S
C1584 C1580 1.368 . S
C1584 C1583 1.523 . S
H1585 C1560 0.950 . S
H1586 C1562 0.950 . S
H1587 C1563 0.949 . S
H1588 C1565 0.950 . S
H1589 C1567 0.950 . S
C1590 C1591 1.349 1_565 S
C1590 C1592 1.327 . S
C1590 H1615 0.950 . S
C1591 C1590 1.349 1_545 S
C1591 C1607 1.349 . S
C1592 C1590 1.327 . S
C1592 C1611 1.429 1_565 S
C1592 H1616 0.950 . S
C1593 C1610 1.574 . S
C1593 C1612 1.368 . S
C1593 H1617 0.949 . S
H1594 C1598 0.949 . S
C1595 C1596 1.349 . S
C1595 C1597 1.327 . S
C1595 H1618 0.950 . S
C1596 C1595 1.349 . S
C1596 C1608 1.349 . S
C1597 C1595 1.327 . S
C1597 C1613 1.429 . S
C1597 H1619 0.950 . S
C1598 H1594 0.949 . S
C1598 C1606 1.574 . S
C1598 C1614 1.368 1_565 S
H1599 C1607 0.950 . S
H1600 C1605 0.950 . S
H1601 C1606 0.949 . S
H1602 C1608 0.950 1_565 S
H1603 C1609 0.950 1_565 S
H1604 C1610 0.949 . S
C1605 H1600 0.950 . S
C1605 C1607 1.327 . S
C1605 C1611 1.429 . S
C1606 C1598 1.574 . S
C1606 H1601 0.949 . S
C1606 C1612 1.368 1_565 S
C1607 C1591 1.349 . S
C1607 H1599 0.950 . S
C1607 C1605 1.327 . S
C1608 C1596 1.349 . S
C1608 H1602 0.950 1_545 S
C1608 C1609 1.327 . S
C1609 H1603 0.950 1_545 S
C1609 C1608 1.327 . S
C1609 C1613 1.429 . S
C1610 C1593 1.574 . S
C1610 H1604 0.949 . S
C1610 C1614 1.368 . S
C1611 C1592 1.429 1_545 S
C1611 C1605 1.429 . S
C1611 C1612 1.523 . S
C1612 C1593 1.368 . S
C1612 C1606 1.368 1_545 S
C1612 C1611 1.523 . S
C1613 C1597 1.429 . S
C1613 C1609 1.429 . S
C1613 C1614 1.523 . S
C1614 C1598 1.368 1_545 S
C1614 C1610 1.368 . S
C1614 C1613 1.523 . S
H1615 C1590 0.950 . S
H1616 C1592 0.950 . S
H1617 C1593 0.949 . S
H1618 C1595 0.950 . S
H1619 C1597 0.950 . S
C1620 C1621 1.349 . S
C1620 C1622 1.327 . S
C1620 H1645 0.950 . S
C1621 C1620 1.349 . S
C1621 C1637 1.349 . S
C1622 C1620 1.327 . S
C1622 C1641 1.429 . S
C1622 H1646 0.950 . S
C1623 C1640 1.574 . S
C1623 C1642 1.368 . S
C1623 H1647 0.949 . S
H1624 C1628 0.949 . S
C1625 C1626 1.349 . S
C1625 C1627 1.327 . S
C1625 H1648 0.950 . S
C1626 C1625 1.349 . S
C1626 C1638 1.349 . S
C1627 C1625 1.327 . S
C1627 C1643 1.429 . S
C1627 H1649 0.950 . S
C1628 H1624 0.949 . S
C1628 C1636 1.574 . S
C1628 C1644 1.368 . S
H1629 C1637 0.950 . S
H1630 C1635 0.950 . S
H1631 C1636 0.949 . S
H1632 C1638 0.950 . S
H1633 C1639 0.950 . S
H1634 C1640 0.949 . S
C1635 H1630 0.950 . S
C1635 C1637 1.327 . S
C1635 C1641 1.429 . S
C1636 C1628 1.574 . S
C1636 H1631 0.949 . S
C1636 C1642 1.368 . S
C1637 C1621 1.349 . S
C1637 H1629 0.950 . S
C1637 C1635 1.327 . S
C1638 C1626 1.349 . S
C1638 H1632 0.950 . S
C1638 C1639 1.327 . S
C1639 H1633 0.950 . S
C1639 C1638 1.327 . S
C1639 C1643 1.429 . S
C1640 C1623 1.574 . S
C1640 H1634 0.949 . S
C1640 C1644 1.368 . S
C1641 C1622 1.429 . S
C1641 C1635 1.429 . S
C1641 C1642 1.523 . S
C1642 C1623 1.368 . S
C1642 C1636 1.368 . S
C1642 C1641 1.523 . S
C1643 C1627 1.429 . S
C1643 C1639 1.429 . S
C1643 C1644 1.523 . S
C1644 C1628 1.368 . S
C1644 C1640 1.368 . S
C1644 C1643 1.523 . S
H1645 C1620 0.950 . S
H1646 C1622 0.950 . S
H1647 C1623 0.949 . S
H1648 C1625 0.950 . S
H1649 C1627 0.950 . S
C1650 C1651 1.349 . S
C1650 C1652 1.327 . S
C1650 H1675 0.950 . S
C1651 C1650 1.349 . S
C1651 C1667 1.349 . S
C1652 C1650 1.327 . S
C1652 C1671 1.429 . S
C1652 H1676 0.950 . S
C1653 C1670 1.574 . S
C1653 C1672 1.368 . S
C1653 H1677 0.949 . S
H1654 C1658 0.949 . S
C1655 C1656 1.349 . S
C1655 C1657 1.327 . S
C1655 H1678 0.950 1_545 S
C1656 C1655 1.349 . S
C1656 C1668 1.349 . S
C1657 C1655 1.327 . S
C1657 C1673 1.429 . S
C1657 H1679 0.950 1_545 S
C1658 H1654 0.949 . S
C1658 C1666 1.574 . S
C1658 C1674 1.368 . S
H1659 C1667 0.950 . S
H1660 C1665 0.950 . S
H1661 C1666 0.949 . S
H1662 C1668 0.950 . S
H1663 C1669 0.950 . S
H1664 C1670 0.952 1_565 S
C1665 H1660 0.950 . S
C1665 C1667 1.327 . S
C1665 C1671 1.429 . S
C1666 C1658 1.574 . S
C1666 H1661 0.949 . S
C1666 C1672 1.368 . S
C1667 C1651 1.349 . S
C1667 H1659 0.950 . S
C1667 C1665 1.327 . S
C1668 C1656 1.349 . S
C1668 H1662 0.950 . S
C1668 C1669 1.327 . S
C1669 H1663 0.950 . S
C1669 C1668 1.327 . S
C1669 C1673 1.429 . S
C1670 C1653 1.574 . S
C1670 H1664 0.952 1_545 S
C1670 C1674 1.368 . S
C1671 C1652 1.429 . S
C1671 C1665 1.429 . S
C1671 C1672 1.523 . S
C1672 C1653 1.368 . S
C1672 C1666 1.368 . S
C1672 C1671 1.523 . S
C1673 C1657 1.429 . S
C1673 C1669 1.429 . S
C1673 C1674 1.523 . S
C1674 C1658 1.368 . S
C1674 C1670 1.368 . S
C1674 C1673 1.523 . S
H1675 C1650 0.950 . S
H1676 C1652 0.950 . S
H1677 C1653 0.949 . S
H1678 C1655 0.950 1_565 S
H1679 C1657 0.950 1_565 S
C1680 C1681 1.349 . S
C1680 C1682 1.327 . S
C1680 H1705 0.950 . S
C1681 C1680 1.349 . S
C1681 C1697 1.349 . S
C1682 C1680 1.327 . S
C1682 C1701 1.429 . S
C1682 H1706 0.950 . S
C1683 C1700 1.574 . S
C1683 C1702 1.368 . S
C1683 H1707 0.949 . S
H1684 C1688 0.949 . S
C1685 C1686 1.349 . S
C1685 C1687 1.327 . S
C1685 H1708 0.950 . S
C1686 C1685 1.349 . S
C1686 C1698 1.349 . S
C1687 C1685 1.327 . S
C1687 C1703 1.429 . S
C1687 H1709 0.950 . S
C1688 H1684 0.949 . S
C1688 C1696 1.574 . S
C1688 C1704 1.368 . S
H1689 C1697 0.950 . S
H1690 C1695 0.950 . S
H1691 C1696 0.949 . S
H1692 C1698 0.950 . S
H1693 C1699 0.950 . S
H1694 C1700 0.949 . S
C1695 H1690 0.950 . S
C1695 C1697 1.327 . S
C1695 C1701 1.429 . S
C1696 C1688 1.574 . S
C1696 H1691 0.949 . S
C1696 C1702 1.368 . S
C1697 C1681 1.349 . S
C1697 H1689 0.950 . S
C1697 C1695 1.327 . S
C1698 C1686 1.349 . S
C1698 H1692 0.950 . S
C1698 C1699 1.327 . S
C1699 H1693 0.950 . S
C1699 C1698 1.327 . S
C1699 C1703 1.429 . S
C1700 C1683 1.574 . S
C1700 H1694 0.949 . S
C1700 C1704 1.368 . S
C1701 C1682 1.429 . S
C1701 C1695 1.429 . S
C1701 C1702 1.523 . S
C1702 C1683 1.368 . S
C1702 C1696 1.368 . S
C1702 C1701 1.523 . S
C1703 C1687 1.429 . S
C1703 C1699 1.429 . S
C1703 C1704 1.523 . S
C1704 C1688 1.368 . S
C1704 C1700 1.368 . S
C1704 C1703 1.523 . S
H1705 C1680 0.950 . S
H1706 C1682 0.950 . S
H1707 C1683 0.949 . S
H1708 C1685 0.950 . S
H1709 C1687 0.950 . S
C1710 C1711 1.349 . S
C1710 C1712 1.327 . S
C1710 H1735 0.950 . S
C1711 C1710 1.349 . S
C1711 C1727 1.349 . S
C1712 C1710 1.327 . S
C1712 C1731 1.429 . S
C1712 H1736 0.950 . S
C1713 C1730 1.574 . S
C1713 C1732 1.368 . S
C1713 H1737 0.949 . S
H1714 C1718 0.949 . S
C1715 C1716 1.349 . S
C1715 C1717 1.327 . S
C1715 H1738 0.950 1_545 S
C1716 C1715 1.349 . S
C1716 C1728 1.349 . S
C1717 C1715 1.327 . S
C1717 C1733 1.429 . S
C1717 H1739 0.950 1_545 S
C1718 H1714 0.949 . S
C1718 C1726 1.574 . S
C1718 C1734 1.368 . S
H1719 C1727 0.950 . S
H1720 C1725 0.950 . S
H1721 C1726 0.949 . S
H1722 C1728 0.950 . S
H1723 C1729 0.950 . S
H1724 C1730 0.974 . S
C1725 H1720 0.950 . S
C1725 C1727 1.327 . S
C1725 C1731 1.429 . S
C1726 C1718 1.574 . S
C1726 H1721 0.949 . S
C1726 C1732 1.368 . S
C1727 C1711 1.349 . S
C1727 H1719 0.950 . S
C1727 C1725 1.327 . S
C1728 C1716 1.349 . S
C1728 H1722 0.950 . S
C1728 C1729 1.327 . S
C1729 H1723 0.950 . S
C1729 C1728 1.327 . S
C1729 C1733 1.429 . S
C1730 C1713 1.574 . S
C1730 H1724 0.974 . S
C1730 C1734 1.368 . S
C1731 C1712 1.429 . S
C1731 C1725 1.429 . S
C1731 C1732 1.523 . S
C1732 C1713 1.368 . S
C1732 C1726 1.368 . S
C1732 C1731 1.523 . S
C1733 C1717 1.429 . S
C1733 C1729 1.429 . S
C1733 C1734 1.523 . S
C1734 C1718 1.368 . S
C1734 C1730 1.368 . S
C1734 C1733 1.523 . S
H1735 C1710 0.950 . S
H1736 C1712 0.950 . S
H1737 C1713 0.949 . S
H1738 C1715 0.950 1_565 S
H1739 C1717 0.950 1_565 S
C1740 C1741 1.349 . S
C1740 C1742 1.327 . S
C1740 H1765 0.950 . S
C1741 C1740 1.349 . S
C1741 C1757 1.349 . S
C1742 C1740 1.327 . S
C1742 C1761 1.429 . S
C1742 H1766 0.950 . S
C1743 C1760 1.574 . S
C1743 C1762 1.368 . S
C1743 H1767 0.949 . S
H1744 C1748 0.949 . S
C1745 C1746 1.349 . S
C1745 C1747 1.327 . S
C1745 H1768 0.950 . S
C1746 C1745 1.349 . S
C1746 C1758 1.349 . S
C1747 C1745 1.327 . S
C1747 C1763 1.429 . S
C1747 H1769 0.950 . S
C1748 H1744 0.949 . S
C1748 C1756 1.574 . S
C1748 C1764 1.368 . S
H1749 C1757 0.950 . S
H1750 C1755 0.950 . S
H1751 C1756 0.949 . S
H1752 C1758 0.950 . S
H1753 C1759 0.950 . S
H1754 C1760 0.949 . S
C1755 H1750 0.950 . S
C1755 C1757 1.327 . S
C1755 C1761 1.429 . S
C1756 C1748 1.574 . S
C1756 H1751 0.949 . S
C1756 C1762 1.368 . S
C1757 C1741 1.349 . S
C1757 H1749 0.950 . S
C1757 C1755 1.327 . S
C1758 C1746 1.349 . S
C1758 H1752 0.950 . S
C1758 C1759 1.327 . S
C1759 H1753 0.950 . S
C1759 C1758 1.327 . S
C1759 C1763 1.429 . S
C1760 C1743 1.574 . S
C1760 H1754 0.949 . S
C1760 C1764 1.368 . S
C1761 C1742 1.429 . S
C1761 C1755 1.429 . S
C1761 C1762 1.523 . S
C1762 C1743 1.368 . S
C1762 C1756 1.368 . S
C1762 C1761 1.523 . S
C1763 C1747 1.429 . S
C1763 C1759 1.429 . S
C1763 C1764 1.523 . S
C1764 C1748 1.368 . S
C1764 C1760 1.368 . S
C1764 C1763 1.523 . S
H1765 C1740 0.950 . S
H1766 C1742 0.950 . S
H1767 C1743 0.949 . S
H1768 C1745 0.950 . S
H1769 C1747 0.950 . S
C1770 C1771 1.349 . S
C1770 C1772 1.327 . S
C1770 H1795 0.950 . S
C1771 C1770 1.349 . S
C1771 C1787 1.349 1_545 S
C1772 C1770 1.327 . S
C1772 C1791 1.429 . S
C1772 H1796 0.950 . S
C1773 C1790 1.574 . S
C1773 C1792 1.368 1_565 S
C1773 H1797 0.949 . S
H1774 C1778 0.949 . S
C1775 C1776 1.349 . S
C1775 C1777 1.326 1_545 S
C1775 H1798 0.950 1_545 S
C1776 C1775 1.349 . S
C1776 C1788 1.349 . S
C1777 C1775 1.326 1_565 S
C1777 C1793 1.421 1_565 S
C1777 H1799 0.958 . S
C1778 H1774 0.949 . S
C1778 C1786 1.574 . S
C1778 C1794 1.368 . S
H1779 C1787 0.950 . S
H1780 C1785 0.950 . S
H1781 C1786 0.949 . S
H1782 C1788 0.950 . S
H1783 C1789 0.950 . S
H1784 C1790 0.949 . S
C1785 H1780 0.950 . S
C1785 C1787 1.327 . S
C1785 C1791 1.429 1_565 S
C1786 C1778 1.574 . S
C1786 H1781 0.949 . S
C1786 C1792 1.368 . S
C1787 C1771 1.349 1_565 S
C1787 H1779 0.950 . S
C1787 C1785 1.327 . S
C1788 C1776 1.349 . S
C1788 H1782 0.950 . S
C1788 C1789 1.327 . S
C1789 H1783 0.950 . S
C1789 C1788 1.327 . S
C1789 C1793 1.429 . S
C1790 C1773 1.574 . S
C1790 H1784 0.949 . S
C1790 C1794 1.368 1_565 S
C1791 C1772 1.429 . S
C1791 C1785 1.429 1_545 S
C1791 C1792 1.523 . S
C1792 C1773 1.368 1_545 S
C1792 C1786 1.368 . S
C1792 C1791 1.523 . S
C1793 C1777 1.421 1_545 S
C1793 C1789 1.429 . S
C1793 C1794 1.523 . S
C1794 C1778 1.368 . S
C1794 C1790 1.368 1_545 S
C1794 C1793 1.523 . S
H1795 C1770 0.950 . S
H1796 C1772 0.950 . S
H1797 C1773 0.949 . S
H1798 C1775 0.950 1_565 S
H1799 C1777 0.958 . S
C1800 C1801 1.349 . S
C1800 C1802 1.327 . S
C1800 H1825 0.950 . S
C1801 C1800 1.349 . S
C1801 C1817 1.349 . S
C1802 C1800 1.327 . S
C1802 C1821 1.429 . S
C1802 H1826 0.950 . S
C1803 C1820 1.574 . S
C1803 C1822 1.368 . S
C1803 H1827 0.949 . S
H1804 C1808 0.949 . S
C1805 C1806 1.349 . S
C1805 C1807 1.327 . S
C1805 H1828 0.950 . S
C1806 C1805 1.349 . S
C1806 C1818 1.349 . S
C1807 C1805 1.327 . S
C1807 C1823 1.429 . S
C1807 H1829 0.950 . S
C1808 H1804 0.949 . S
C1808 C1816 1.574 . S
C1808 C1824 1.368 . S
H1809 C1817 0.950 . S
H1810 C1815 0.950 . S
H1811 C1816 0.949 . S
H1812 C1818 0.950 . S
H1813 C1819 0.950 . S
H1814 C1820 0.949 . S
C1815 H1810 0.950 . S
C1815 C1817 1.327 . S
C1815 C1821 1.429 . S
C1816 C1808 1.574 . S
C1816 H1811 0.949 . S
C1816 C1822 1.368 . S
C1817 C1801 1.349 . S
C1817 H1809 0.950 . S
C1817 C1815 1.327 . S
C1818 C1806 1.349 . S
C1818 H1812 0.950 . S
C1818 C1819 1.327 . S
C1819 H1813 0.950 . S
C1819 C1818 1.327 . S
C1819 C1823 1.429 . S
C1820 C1803 1.574 . S
C1820 H1814 0.949 . S
C1820 C1824 1.368 . S
C1821 C1802 1.429 . S
C1821 C1815 1.429 . S
C1821 C1822 1.523 . S
C1822 C1803 1.368 . S
C1822 C1816 1.368 . S
C1822 C1821 1.523 . S
C1823 C1807 1.429 . S
C1823 C1819 1.429 . S
C1823 C1824 1.523 . S
C1824 C1808 1.368 . S
C1824 C1820 1.368 . S
C1824 C1823 1.523 . S
H1825 C1800 0.950 . S
H1826 C1802 0.950 . S
H1827 C1803 0.949 . S
H1828 C1805 0.950 . S
H1829 C1807 0.950 . S
C1830 C1831 1.349 . S
C1830 C1832 1.327 . S
C1830 H1855 0.950 . S
C1831 C1830 1.349 . S
C1831 C1847 1.349 . S
C1832 C1830 1.327 . S
C1832 C1851 1.429 . S
C1832 H1856 0.950 . S
C1833 C1850 1.574 . S
C1833 C1852 1.368 . S
C1833 H1857 0.949 . S
H1834 C1838 0.949 . S
C1835 C1836 1.349 . S
C1835 C1837 1.327 . S
C1835 H1858 0.950 1_545 S
C1836 C1835 1.349 . S
C1836 C1848 1.349 . S
C1837 C1835 1.327 . S
C1837 C1853 1.429 . S
C1837 H1859 0.973 . S
C1838 H1834 0.949 . S
C1838 C1846 1.574 . S
C1838 C1854 1.368 . S
H1839 C1847 0.950 . S
H1840 C1845 0.950 . S
H1841 C1846 0.949 . S
H1842 C1848 0.950 . S
H1843 C1849 0.950 . S
H1844 C1850 0.949 . S
C1845 H1840 0.950 . S
C1845 C1847 1.327 . S
C1845 C1851 1.429 . S
C1846 C1838 1.574 . S
C1846 H1841 0.949 . S
C1846 C1852 1.368 . S
C1847 C1831 1.349 . S
C1847 H1839 0.950 . S
C1847 C1845 1.327 . S
C1848 C1836 1.349 . S
C1848 H1842 0.950 . S
C1848 C1849 1.327 . S
C1849 H1843 0.950 . S
C1849 C1848 1.327 . S
C1849 C1853 1.429 . S
C1850 C1833 1.574 . S
C1850 H1844 0.949 . S
C1850 C1854 1.368 . S
C1851 C1832 1.429 . S
C1851 C1845 1.429 . S
C1851 C1852 1.523 . S
C1852 C1833 1.368 . S
C1852 C1846 1.368 . S
C1852 C1851 1.523 . S
C1853 C1837 1.429 . S
C1853 C1849 1.429 . S
C1853 C1854 1.523 . S
C1854 C1838 1.368 . S
C1854 C1850 1.368 . S
C1854 C1853 1.523 . S
H1855 C1830 0.950 . S
H1856 C1832 0.950 . S
H1857 C1833 0.949 . S
H1858 C1835 0.950 1_565 S
H1859 C1837 0.973 . S
C1860 C1861 1.349 . S
C1860 C1862 1.327 . S
C1860 H1885 0.950 . S
C1861 C1860 1.349 . S
C1861 C1877 1.349 . S
C1862 C1860 1.327 . S
C1862 C1881 1.429 . S
C1862 H1886 0.950 . S
C1863 C1880 1.574 . S
C1863 C1882 1.368 . S
C1863 H1887 0.949 . S
H1864 C1868 0.949 . S
C1865 C1866 1.349 . S
C1865 C1867 1.327 . S
C1865 H1888 0.950 . S
C1866 C1865 1.349 . S
C1866 C1878 1.349 . S
C1867 C1865 1.327 . S
C1867 C1883 1.429 . S
C1867 H1889 0.950 . S
C1868 H1864 0.949 . S
C1868 C1876 1.574 . S
C1868 C1884 1.368 . S
H1869 C1877 0.950 . S
H1870 C1875 0.950 . S
H1871 C1876 0.949 . S
H1872 C1878 0.950 . S
H1873 C1879 0.950 . S
H1874 C1880 0.949 . S
C1875 H1870 0.950 . S
C1875 C1877 1.327 . S
C1875 C1881 1.429 . S
C1876 C1868 1.574 . S
C1876 H1871 0.949 . S
C1876 C1882 1.368 . S
C1877 C1861 1.349 . S
C1877 H1869 0.950 . S
C1877 C1875 1.327 . S
C1878 C1866 1.349 . S
C1878 H1872 0.950 . S
C1878 C1879 1.327 . S
C1879 H1873 0.950 . S
C1879 C1878 1.327 . S
C1879 C1883 1.429 . S
C1880 C1863 1.574 . S
C1880 H1874 0.949 . S
C1880 C1884 1.368 . S
C1881 C1862 1.429 . S
C1881 C1875 1.429 . S
C1881 C1882 1.523 . S
C1882 C1863 1.368 . S
C1882 C1876 1.368 . S
C1882 C1881 1.523 . S
C1883 C1867 1.429 . S
C1883 C1879 1.429 . S
C1883 C1884 1.523 . S
C1884 C1868 1.368 . S
C1884 C1880 1.368 . S
C1884 C1883 1.523 . S
H1885 C1860 0.950 . S
H1886 C1862 0.950 . S
H1887 C1863 0.949 . S
H1888 C1865 0.950 . S
H1889 C1867 0.950 . S
C1890 C1891 1.349 . S
C1890 C1892 1.327 . S
C1890 H1915 0.950 . S
C1891 C1890 1.349 . S
C1891 C1907 1.349 1_545 S
C1892 C1890 1.327 . S
C1892 C1911 1.429 . S
C1892 H1916 0.950 . S
C1893 C1910 1.574 . S
C1893 C1912 1.368 1_565 S
C1893 H1917 0.949 . S
H1894 C1898 0.949 . S
C1895 C1896 1.381 . S
C1895 C1897 1.324 1_545 S
C1895 H1918 0.922 1_545 S
C1896 C1895 1.381 . S
C1896 C1908 1.349 . S
C1897 C1895 1.324 1_565 S
C1897 C1913 1.429 1_565 S
C1897 H1919 0.950 . S
C1898 H1894 0.949 . S
C1898 C1906 1.574 . S
C1898 C1914 1.368 . S
H1899 C1907 0.950 . S
H1900 C1905 0.950 . S
H1901 C1906 0.949 . S
H1902 C1908 0.950 . S
H1903 C1909 0.950 . S
H1904 C1910 0.949 . S
C1905 H1900 0.950 . S
C1905 C1907 1.327 . S
C1905 C1911 1.429 1_565 S
C1906 C1898 1.574 . S
C1906 H1901 0.949 . S
C1906 C1912 1.368 . S
C1907 C1891 1.349 1_565 S
C1907 H1899 0.950 . S
C1907 C1905 1.327 . S
C1908 C1896 1.349 . S
C1908 H1902 0.950 . S
C1908 C1909 1.327 . S
C1909 H1903 0.950 . S
C1909 C1908 1.327 . S
C1909 C1913 1.429 . S
C1910 C1893 1.574 . S
C1910 H1904 0.949 . S
C1910 C1914 1.368 1_565 S
C1911 C1892 1.429 . S
C1911 C1905 1.429 1_545 S
C1911 C1912 1.523 . S
C1912 C1893 1.368 1_545 S
C1912 C1906 1.368 . S
C1912 C1911 1.523 . S
C1913 C1897 1.429 1_545 S
C1913 C1909 1.429 . S
C1913 C1914 1.523 . S
C1914 C1898 1.368 . S
C1914 C1910 1.368 1_545 S
C1914 C1913 1.523 . S
H1915 C1890 0.950 . S
H1916 C1892 0.950 . S
H1917 C1893 0.949 . S
H1918 C1895 0.922 1_565 S
H1919 C1897 0.950 . S
C1920 C1921 1.349 . S
C1920 C1922 1.327 . S
C1920 H1945 0.950 . S
C1921 C1920 1.349 . S
C1921 C1937 1.349 1_455 S
C1922 C1920 1.327 . S
C1922 C1941 1.429 . S
C1922 H1946 0.950 . S
C1923 C1940 1.574 . S
C1923 C1942 1.368 1_655 S
C1923 H1947 0.949 . S
H1924 C1928 0.949 . S
C1925 C1926 1.349 . S
C1925 C1927 1.332 . S
C1925 H1948 0.950 1_455 S
C1926 C1925 1.349 . S
C1926 C1938 1.349 . S
C1927 C1925 1.332 . S
C1927 C1943 1.449 . S
C1927 H1949 0.926 1_455 S
C1928 H1924 0.949 . S
C1928 C1936 1.574 . S
C1928 C1944 1.368 . S
H1929 C1937 0.950 . S
H1930 C1935 0.950 . S
H1931 C1936 0.949 . S
H1932 C1938 0.950 . S
H1933 C1939 0.950 . S
H1934 C1940 0.949 . S
C1935 H1930 0.950 . S
C1935 C1937 1.327 . S
C1935 C1941 1.429 1_655 S
C1936 C1928 1.574 . S
C1936 H1931 0.949 . S
C1936 C1942 1.368 . S
C1937 C1921 1.349 1_655 S
C1937 H1929 0.950 . S
C1937 C1935 1.327 . S
C1938 C1926 1.349 . S
C1938 H1932 0.950 . S
C1938 C1939 1.327 . S
C1939 H1933 0.950 . S
C1939 C1938 1.327 . S
C1939 C1943 1.429 . S
C1940 C1923 1.574 . S
C1940 H1934 0.949 . S
C1940 C1944 1.368 1_655 S
C1941 C1922 1.429 . S
C1941 C1935 1.429 1_455 S
C1941 C1942 1.523 . S
C1942 C1923 1.368 1_455 S
C1942 C1936 1.368 . S
C1942 C1941 1.523 . S
C1943 C1927 1.449 . S
C1943 C1939 1.429 . S
C1943 C1944 1.523 . S
C1944 C1928 1.368 . S
C1944 C1940 1.368 1_455 S
C1944 C1943 1.523 . S
H1945 C1920 0.950 . S
H1946 C1922 0.950 . S
H1947 C1923 0.949 . S
H1948 C1925 0.950 1_655 S
H1949 C1927 0.926 1_655 S
C1950 C1951 1.349 . S
C1950 C1952 1.327 . S
C1950 H1975 0.950 . S
C1951 C1950 1.349 . S
C1951 C1967 1.349 1_545 S
C1952 C1950 1.327 . S
C1952 C1971 1.429 . S
C1952 H1976 0.950 . S
C1953 C1970 1.574 . S
C1953 C1972 1.368 1_565 S
C1953 H1977 0.949 . S
H1954 C1958 0.949 . S
C1955 C1956 1.349 . S
C1955 C1957 1.331 . S
C1955 H1978 0.950 1_545 S
C1956 C1955 1.349 . S
C1956 C1968 1.349 . S
C1957 C1955 1.331 . S
C1957 C1973 1.456 . S
C1957 H1979 0.919 1_545 S
C1958 H1954 0.949 . S
C1958 C1966 1.574 . S
C1958 C1974 1.368 . S
H1959 C1967 0.950 . S
H1960 C1965 0.950 . S
H1961 C1966 0.949 . S
H1962 C1968 0.950 . S
H1963 C1969 0.950 . S
H1964 C1970 0.949 . S
C1965 H1960 0.950 . S
C1965 C1967 1.327 . S
C1965 C1971 1.429 1_565 S
C1966 C1958 1.574 . S
C1966 H1961 0.949 . S
C1966 C1972 1.368 . S
C1967 C1951 1.349 1_565 S
C1967 H1959 0.950 . S
C1967 C1965 1.327 . S
C1968 C1956 1.349 . S
C1968 H1962 0.950 . S
C1968 C1969 1.327 . S
C1969 H1963 0.950 . S
C1969 C1968 1.327 . S
C1969 C1973 1.429 . S
C1970 C1953 1.574 . S
C1970 H1964 0.949 . S
C1970 C1974 1.368 1_565 S
C1971 C1952 1.429 . S
C1971 C1965 1.429 1_545 S
C1971 C1972 1.523 . S
C1972 C1953 1.368 1_545 S
C1972 C1966 1.368 . S
C1972 C1971 1.523 . S
C1973 C1957 1.456 . S
C1973 C1969 1.429 . S
C1973 C1974 1.523 . S
C1974 C1958 1.368 . S
C1974 C1970 1.368 1_545 S
C1974 C1973 1.523 . S
H1975 C1950 0.950 . S
H1976 C1952 0.950 . S
H1977 C1953 0.949 . S
H1978 C1955 0.950 1_565 S
H1979 C1957 0.919 1_565 S
C1980 C1981 1.349 . S
C1980 C1982 1.327 . S
C1980 H2005 0.950 1_455 S
C1981 C1980 1.349 . S
C1981 C1997 1.349 . S
C1982 C1980 1.327 . S
C1982 C2001 1.429 . S
C1982 H2006 0.950 1_455 S
C1983 C2000 1.574 . S
C1983 C2002 1.368 . S
C1983 H2007 0.949 . S
H1984 C1988 0.949 1_655 S
C1985 C1986 1.349 . S
C1985 C1987 1.327 . S
C1985 H2008 0.950 . S
C1986 C1985 1.349 . S
C1986 C1998 1.349 . S
C1987 C1985 1.327 . S
C1987 C2003 1.429 . S
C1987 H2009 0.950 . S
C1988 H1984 0.949 1_455 S
C1988 C1996 1.574 . S
C1988 C2004 1.368 . S
H1989 C1997 0.950 . S
H1990 C1995 0.950 . S
H1991 C1996 0.949 1_655 S
H1992 C1998 0.950 1_655 S
H1993 C1999 0.950 1_655 S
H1994 C2000 0.949 . S
C1995 H1990 0.950 . S
C1995 C1997 1.327 . S
C1995 C2001 1.429 . S
C1996 C1988 1.574 . S
C1996 H1991 0.949 1_455 S
C1996 C2002 1.368 . S
C1997 C1981 1.349 . S
C1997 H1989 0.950 . S
C1997 C1995 1.327 . S
C1998 C1986 1.349 . S
C1998 H1992 0.950 1_455 S
C1998 C1999 1.327 . S
C1999 H1993 0.950 1_455 S
C1999 C1998 1.327 . S
C1999 C2003 1.429 . S
C2000 C1983 1.574 . S
C2000 H1994 0.949 . S
C2000 C2004 1.368 . S
C2001 C1982 1.429 . S
C2001 C1995 1.429 . S
C2001 C2002 1.523 . S
C2002 C1983 1.368 . S
C2002 C1996 1.368 . S
C2002 C2001 1.523 . S
C2003 C1987 1.429 . S
C2003 C1999 1.429 . S
C2003 C2004 1.523 . S
C2004 C1988 1.368 . S
C2004 C2000 1.368 . S
C2004 C2003 1.523 . S
H2005 C1980 0.950 1_655 S
H2006 C1982 0.950 1_655 S
H2007 C1983 0.949 . S
H2008 C1985 0.950 . S
H2009 C1987 0.950 . S
C2010 C2011 1.349 . S
C2010 C2012 1.327 . S
C2010 H2035 0.950 . S
C2011 C2010 1.349 . S
C2011 C2027 1.349 . S
C2012 C2010 1.327 . S
C2012 C2031 1.429 . S
C2012 H2036 0.950 . S
C2013 C2030 1.574 . S
C2013 C2032 1.368 . S
C2013 H2037 0.949 . S
H2014 C2018 0.949 . S
C2015 C2016 1.349 . S
C2015 C2017 1.327 . S
C2015 H2038 0.950 1_545 S
C2016 C2015 1.349 . S
C2016 C2028 1.349 . S
C2017 C2015 1.327 . S
C2017 C2033 1.429 . S
C2017 H2039 0.950 1_545 S
C2018 H2014 0.949 . S
C2018 C2026 1.574 . S
C2018 C2034 1.368 . S
H2019 C2027 0.950 . S
H2020 C2025 0.950 . S
H2021 C2026 0.949 . S
H2022 C2028 0.950 . S
H2023 C2029 0.950 . S
H2024 C2030 0.985 . S
C2025 H2020 0.950 . S
C2025 C2027 1.327 . S
C2025 C2031 1.429 . S
C2026 C2018 1.574 . S
C2026 H2021 0.949 . S
C2026 C2032 1.368 . S
C2027 C2011 1.349 . S
C2027 H2019 0.950 . S
C2027 C2025 1.327 . S
C2028 C2016 1.349 . S
C2028 H2022 0.950 . S
C2028 C2029 1.327 . S
C2029 H2023 0.950 . S
C2029 C2028 1.327 . S
C2029 C2033 1.429 . S
C2030 C2013 1.574 . S
C2030 H2024 0.985 . S
C2030 C2034 1.368 . S
C2031 C2012 1.429 . S
C2031 C2025 1.429 . S
C2031 C2032 1.523 . S
C2032 C2013 1.368 . S
C2032 C2026 1.368 . S
C2032 C2031 1.523 . S
C2033 C2017 1.429 . S
C2033 C2029 1.429 . S
C2033 C2034 1.523 . S
C2034 C2018 1.368 . S
C2034 C2030 1.368 . S
C2034 C2033 1.523 . S
H2035 C2010 0.950 . S
H2036 C2012 0.950 . S
H2037 C2013 0.949 . S
H2038 C2015 0.950 1_565 S
H2039 C2017 0.950 1_565 S
C2040 C2041 1.349 1_565 S
C2040 C2042 1.327 . S
C2040 H2065 0.950 . S
C2041 C2040 1.349 1_545 S
C2041 C2057 1.349 . S
C2042 C2040 1.327 . S
C2042 C2061 1.429 1_565 S
C2042 H2066 0.950 . S
C2043 C2060 1.574 . S
C2043 C2062 1.368 . S
C2043 H2067 0.949 . S
H2044 C2048 0.949 . S
C2045 C2046 1.349 . S
C2045 C2047 1.327 . S
C2045 H2068 0.950 . S
C2046 C2045 1.349 . S
C2046 C2058 1.349 1_545 S
C2047 C2045 1.327 . S
C2047 C2063 1.429 . S
C2047 H2069 0.950 . S
C2048 H2044 0.949 . S
C2048 C2056 1.574 . S
C2048 C2064 1.368 1_565 S
H2049 C2057 0.950 . S
H2050 C2055 0.950 . S
H2051 C2056 0.949 . S
H2052 C2058 0.950 . S
H2053 C2059 0.950 . S
H2054 C2060 0.949 . S
C2055 H2050 0.950 . S
C2055 C2057 1.327 . S
C2055 C2061 1.429 . S
C2056 C2048 1.574 . S
C2056 H2051 0.949 . S
C2056 C2062 1.368 1_565 S
C2057 C2041 1.349 . S
C2057 H2049 0.950 . S
C2057 C2055 1.327 . S
C2058 C2046 1.349 1_565 S
C2058 H2052 0.950 . S
C2058 C2059 1.327 . S
C2059 H2053 0.950 . S
C2059 C2058 1.327 . S
C2059 C2063 1.429 1_565 S
C2060 C2043 1.574 . S
C2060 H2054 0.949 . S
C2060 C2064 1.368 . S
C2061 C2042 1.429 1_545 S
C2061 C2055 1.429 . S
C2061 C2062 1.523 . S
C2062 C2043 1.368 . S
C2062 C2056 1.368 1_545 S
C2062 C2061 1.523 . S
C2063 C2047 1.429 . S
C2063 C2059 1.429 1_545 S
C2063 C2064 1.523 . S
C2064 C2048 1.368 1_545 S
C2064 C2060 1.368 . S
C2064 C2063 1.523 . S
H2065 C2040 0.950 . S
H2066 C2042 0.950 . S
H2067 C2043 0.949 . S
H2068 C2045 0.950 . S
H2069 C2047 0.950 . S
C2070 C2071 1.349 . S
C2070 C2072 1.327 . S
C2070 H2095 0.950 . S
C2071 C2070 1.349 . S
C2071 C2087 1.349 . S
C2072 C2070 1.327 . S
C2072 C2091 1.429 . S
C2072 H2096 0.950 . S
C2073 C2090 1.574 . S
C2073 C2092 1.368 . S
C2073 H2097 0.949 . S
H2074 C2078 0.949 . S
C2075 C2076 1.349 . S
C2075 C2077 1.327 . S
C2075 H2098 0.950 . S
C2076 C2075 1.349 . S
C2076 C2088 1.349 . S
C2077 C2075 1.327 . S
C2077 C2093 1.429 . S
C2077 H2099 0.950 . S
C2078 H2074 0.949 . S
C2078 C2086 1.574 . S
C2078 C2094 1.368 . S
H2079 C2087 0.950 . S
H2080 C2085 0.950 . S
H2081 C2086 0.949 . S
H2082 C2088 0.950 1_655 S
H2083 C2089 0.956 . S
H2084 C2090 0.949 . S
C2085 H2080 0.950 . S
C2085 C2087 1.327 . S
C2085 C2091 1.429 . S
C2086 C2078 1.574 . S
C2086 H2081 0.949 . S
C2086 C2092 1.368 . S
C2087 C2071 1.349 . S
C2087 H2079 0.950 . S
C2087 C2085 1.327 . S
C2088 C2076 1.349 . S
C2088 H2082 0.950 1_455 S
C2088 C2089 1.327 . S
C2089 H2083 0.956 . S
C2089 C2088 1.327 . S
C2089 C2093 1.429 . S
C2090 C2073 1.574 . S
C2090 H2084 0.949 . S
C2090 C2094 1.368 . S
C2091 C2072 1.429 . S
C2091 C2085 1.429 . S
C2091 C2092 1.523 . S
C2092 C2073 1.368 . S
C2092 C2086 1.368 . S
C2092 C2091 1.523 . S
C2093 C2077 1.429 . S
C2093 C2089 1.429 . S
C2093 C2094 1.523 . S
C2094 C2078 1.368 . S
C2094 C2090 1.368 . S
C2094 C2093 1.523 . S
H2095 C2070 0.950 . S
H2096 C2072 0.950 . S
H2097 C2073 0.949 . S
H2098 C2075 0.950 . S
H2099 C2077 0.950 . S
C2100 C2101 1.349 . S
C2100 C2102 1.327 . S
C2100 H2125 0.950 . S
C2101 C2100 1.349 . S
C2101 C2117 1.349 . S
C2102 C2100 1.327 . S
C2102 C2121 1.429 . S
C2102 H2126 0.950 . S
C2103 C2120 1.574 . S
C2103 C2122 1.368 . S
C2103 H2127 0.949 . S
H2104 C2108 0.949 . S
C2105 C2106 1.349 . S
C2105 C2107 1.327 . S
C2105 H2128 0.950 . S
C2106 C2105 1.349 . S
C2106 C2118 1.349 . S
C2107 C2105 1.327 . S
C2107 C2123 1.429 . S
C2107 H2129 0.950 . S
C2108 H2104 0.949 . S
C2108 C2116 1.574 . S
C2108 C2124 1.368 . S
H2109 C2117 0.950 . S
H2110 C2115 0.950 . S
H2111 C2116 0.949 . S
H2112 C2118 0.950 . S
H2113 C2119 0.950 . S
H2114 C2120 0.949 . S
C2115 H2110 0.950 . S
C2115 C2117 1.327 . S
C2115 C2121 1.429 . S
C2116 C2108 1.574 . S
C2116 H2111 0.949 . S
C2116 C2122 1.368 . S
C2117 C2101 1.349 . S
C2117 H2109 0.950 . S
C2117 C2115 1.327 . S
C2118 C2106 1.349 . S
C2118 H2112 0.950 . S
C2118 C2119 1.327 . S
C2119 H2113 0.950 . S
C2119 C2118 1.327 . S
C2119 C2123 1.429 . S
C2120 C2103 1.574 . S
C2120 H2114 0.949 . S
C2120 C2124 1.368 . S
C2121 C2102 1.429 . S
C2121 C2115 1.429 . S
C2121 C2122 1.523 . S
C2122 C2103 1.368 . S
C2122 C2116 1.368 . S
C2122 C2121 1.523 . S
C2123 C2107 1.429 . S
C2123 C2119 1.429 . S
C2123 C2124 1.523 . S
C2124 C2108 1.368 . S
C2124 C2120 1.368 . S
C2124 C2123 1.523 . S
H2125 C2100 0.950 . S
H2126 C2102 0.950 . S
H2127 C2103 0.949 . S
H2128 C2105 0.950 . S
H2129 C2107 0.950 . S
C2130 C2131 1.349 . S
C2130 C2132 1.327 . S
C2130 H2155 0.950 . S
C2131 C2130 1.349 . S
C2131 C2147 1.349 . S
C2132 C2130 1.327 . S
C2132 C2151 1.429 . S
C2132 H2156 0.950 . S
C2133 C2150 1.574 . S
C2133 C2152 1.368 . S
C2133 H2157 0.949 1_455 S
H2134 C2138 0.949 . S
C2135 C2136 1.349 . S
C2135 C2137 1.327 . S
C2135 H2158 0.950 1_455 S
C2136 C2135 1.349 . S
C2136 C2148 1.349 . S
C2137 C2135 1.327 . S
C2137 C2153 1.429 . S
C2137 H2159 0.950 1_455 S
C2138 H2134 0.949 . S
C2138 C2146 1.574 . S
C2138 C2154 1.368 . S
H2139 C2147 0.956 . S
H2140 C2145 0.950 1_655 S
H2141 C2146 0.949 . S
H2142 C2148 0.950 . S
H2143 C2149 0.950 . S
H2144 C2150 0.949 1_655 S
C2145 H2140 0.950 1_455 S
C2145 C2147 1.327 . S
C2145 C2151 1.429 . S
C2146 C2138 1.574 . S
C2146 H2141 0.949 . S
C2146 C2152 1.368 . S
C2147 C2131 1.349 . S
C2147 H2139 0.956 . S
C2147 C2145 1.327 . S
C2148 C2136 1.349 . S
C2148 H2142 0.950 . S
C2148 C2149 1.327 . S
C2149 H2143 0.950 . S
C2149 C2148 1.327 . S
C2149 C2153 1.429 . S
C2150 C2133 1.574 . S
C2150 H2144 0.949 1_455 S
C2150 C2154 1.368 . S
C2151 C2132 1.429 . S
C2151 C2145 1.429 . S
C2151 C2152 1.523 . S
C2152 C2133 1.368 . S
C2152 C2146 1.368 . S
C2152 C2151 1.523 . S
C2153 C2137 1.429 . S
C2153 C2149 1.429 . S
C2153 C2154 1.523 . S
C2154 C2138 1.368 . S
C2154 C2150 1.368 . S
C2154 C2153 1.523 . S
H2155 C2130 0.950 . S
H2156 C2132 0.950 . S
H2157 C2133 0.949 1_655 S
H2158 C2135 0.950 1_655 S
H2159 C2137 0.950 1_655 S
C2160 C2161 1.349 . S
C2160 C2162 1.327 . S
C2160 H2185 0.950 . S
C2161 C2160 1.349 . S
C2161 C2177 1.349 1_545 S
C2162 C2160 1.327 . S
C2162 C2181 1.429 . S
C2162 H2186 0.950 . S
C2163 C2180 1.574 . S
C2163 C2182 1.368 1_565 S
C2163 H2187 0.949 . S
H2164 C2168 0.949 . S
C2165 C2166 1.349 1_565 S
C2165 C2167 1.327 . S
C2165 H2188 0.950 . S
C2166 C2165 1.349 1_545 S
C2166 C2178 1.349 . S
C2167 C2165 1.327 . S
C2167 C2183 1.429 1_565 S
C2167 H2189 0.950 . S
C2168 H2164 0.949 . S
C2168 C2176 1.574 . S
C2168 C2184 1.368 . S
H2169 C2177 0.950 . S
H2170 C2175 0.950 . S
H2171 C2176 0.949 . S
H2172 C2178 0.950 . S
H2173 C2179 0.950 . S
H2174 C2180 0.949 . S
C2175 H2170 0.950 . S
C2175 C2177 1.327 . S
C2175 C2181 1.429 1_565 S
C2176 C2168 1.574 . S
C2176 H2171 0.949 . S
C2176 C2182 1.368 . S
C2177 C2161 1.349 1_565 S
C2177 H2169 0.950 . S
C2177 C2175 1.327 . S
C2178 C2166 1.349 . S
C2178 H2172 0.950 . S
C2178 C2179 1.327 . S
C2179 H2173 0.950 . S
C2179 C2178 1.327 . S
C2179 C2183 1.429 . S
C2180 C2163 1.574 . S
C2180 H2174 0.949 . S
C2180 C2184 1.368 1_565 S
C2181 C2162 1.429 . S
C2181 C2175 1.429 1_545 S
C2181 C2182 1.523 . S
C2182 C2163 1.368 1_545 S
C2182 C2176 1.368 . S
C2182 C2181 1.523 . S
C2183 C2167 1.429 1_545 S
C2183 C2179 1.429 . S
C2183 C2184 1.523 . S
C2184 C2168 1.368 . S
C2184 C2180 1.368 1_545 S
C2184 C2183 1.523 . S
H2185 C2160 0.950 . S
H2186 C2162 0.950 . S
H2187 C2163 0.949 . S
H2188 C2165 0.950 . S
H2189 C2167 0.950 . S
C2190 C2191 1.349 . S
C2190 C2192 1.327 . S
C2190 H2215 0.950 . S
C2191 C2190 1.349 . S
C2191 C2207 1.349 . S
C2192 C2190 1.327 . S
C2192 C2211 1.429 . S
C2192 H2216 0.950 . S
C2193 C2210 1.574 . S
C2193 C2212 1.368 . S
C2193 H2217 0.949 1_455 S
H2194 C2198 0.949 . S
C2195 C2196 1.349 . S
C2195 C2197 1.327 . S
C2195 H2218 0.966 . S
C2196 C2195 1.349 . S
C2196 C2208 1.349 . S
C2197 C2195 1.327 . S
C2197 C2213 1.429 . S
C2197 H2219 0.950 1_455 S
C2198 H2194 0.949 . S
C2198 C2206 1.574 . S
C2198 C2214 1.368 . S
H2199 C2207 0.950 1_655 S
H2200 C2205 0.950 1_655 S
H2201 C2206 0.949 . S
H2202 C2208 0.950 . S
H2203 C2209 0.950 . S
H2204 C2210 0.949 1_655 S
C2205 H2200 0.950 1_455 S
C2205 C2207 1.327 . S
C2205 C2211 1.429 . S
C2206 C2198 1.574 . S
C2206 H2201 0.949 . S
C2206 C2212 1.368 . S
C2207 C2191 1.349 . S
C2207 H2199 0.950 1_455 S
C2207 C2205 1.327 . S
C2208 C2196 1.349 . S
C2208 H2202 0.950 . S
C2208 C2209 1.327 . S
C2209 H2203 0.950 . S
C2209 C2208 1.327 . S
C2209 C2213 1.429 . S
C2210 C2193 1.574 . S
C2210 H2204 0.949 1_455 S
C2210 C2214 1.368 . S
C2211 C2192 1.429 . S
C2211 C2205 1.429 . S
C2211 C2212 1.523 . S
C2212 C2193 1.368 . S
C2212 C2206 1.368 . S
C2212 C2211 1.523 . S
C2213 C2197 1.429 . S
C2213 C2209 1.429 . S
C2213 C2214 1.523 . S
C2214 C2198 1.368 . S
C2214 C2210 1.368 . S
C2214 C2213 1.523 . S
H2215 C2190 0.950 . S
H2216 C2192 0.950 . S
H2217 C2193 0.949 1_655 S
H2218 C2195 0.966 . S
H2219 C2197 0.950 1_655 S
C2220 C2221 1.349 . S
C2220 C2222 1.327 . S
C2220 H2245 0.950 . S
C2221 C2220 1.349 . S
C2221 C2237 1.349 . S
C2222 C2220 1.327 . S
C2222 C2241 1.429 . S
C2222 H2246 0.950 . S
C2223 C2240 1.574 . S
C2223 C2242 1.368 . S
C2223 H2247 0.949 . S
H2224 C2228 0.949 . S
C2225 C2226 1.349 . S
C2225 C2227 1.327 . S
C2225 H2248 0.950 . S
C2226 C2225 1.349 . S
C2226 C2238 1.349 . S
C2227 C2225 1.327 . S
C2227 C2243 1.429 . S
C2227 H2249 0.950 . S
C2228 H2224 0.949 . S
C2228 C2236 1.574 . S
C2228 C2244 1.368 . S
H2229 C2237 0.950 . S
H2230 C2235 0.950 . S
H2231 C2236 0.949 . S
H2232 C2238 0.950 . S
H2233 C2239 0.950 . S
H2234 C2240 0.949 . S
C2235 H2230 0.950 . S
C2235 C2237 1.327 . S
C2235 C2241 1.429 . S
C2236 C2228 1.574 . S
C2236 H2231 0.949 . S
C2236 C2242 1.368 . S
C2237 C2221 1.349 . S
C2237 H2229 0.950 . S
C2237 C2235 1.327 . S
C2238 C2226 1.349 . S
C2238 H2232 0.950 . S
C2238 C2239 1.327 . S
C2239 H2233 0.950 . S
C2239 C2238 1.327 . S
C2239 C2243 1.429 . S
C2240 C2223 1.574 . S
C2240 H2234 0.949 . S
C2240 C2244 1.368 . S
C2241 C2222 1.429 . S
C2241 C2235 1.429 . S
C2241 C2242 1.523 . S
C2242 C2223 1.368 . S
C2242 C2236 1.368 . S
C2242 C2241 1.523 . S
C2243 C2227 1.429 . S
C2243 C2239 1.429 . S
C2243 C2244 1.523 . S
C2244 C2228 1.368 . S
C2244 C2240 1.368 . S
C2244 C2243 1.523 . S
H2245 C2220 0.950 . S
H2246 C2222 0.950 . S
H2247 C2223 0.949 . S
H2248 C2225 0.950 . S
H2249 C2227 0.950 . S
C2250 C2251 1.349 . S
C2250 C2252 1.327 . S
C2250 H2275 0.950 . S
C2251 C2250 1.349 . S
C2251 C2267 1.349 1_455 S
C2252 C2250 1.327 . S
C2252 C2271 1.429 . S
C2252 H2276 0.950 . S
C2253 C2270 1.574 . S
C2253 C2272 1.368 1_655 S
C2253 H2277 0.949 . S
H2254 C2258 0.949 . S
C2255 C2256 1.349 . S
C2255 C2257 1.332 . S
C2255 H2278 0.950 1_455 S
C2256 C2255 1.349 . S
C2256 C2268 1.349 . S
C2257 C2255 1.332 . S
C2257 C2273 1.453 . S
C2257 H2279 0.921 1_455 S
C2258 H2254 0.949 . S
C2258 C2266 1.574 . S
C2258 C2274 1.368 . S
H2259 C2267 0.950 . S
H2260 C2265 0.950 . S
H2261 C2266 0.949 . S
H2262 C2268 0.950 . S
H2263 C2269 0.950 . S
H2264 C2270 0.949 . S
C2265 H2260 0.950 . S
C2265 C2267 1.327 . S
C2265 C2271 1.429 1_655 S
C2266 C2258 1.574 . S
C2266 H2261 0.949 . S
C2266 C2272 1.368 . S
C2267 C2251 1.349 1_655 S
C2267 H2259 0.950 . S
C2267 C2265 1.327 . S
C2268 C2256 1.349 . S
C2268 H2262 0.950 . S
C2268 C2269 1.327 . S
C2269 H2263 0.950 . S
C2269 C2268 1.327 . S
C2269 C2273 1.429 . S
C2270 C2253 1.574 . S
C2270 H2264 0.949 . S
C2270 C2274 1.368 1_655 S
C2271 C2252 1.429 . S
C2271 C2265 1.429 1_455 S
C2271 C2272 1.523 . S
C2272 C2253 1.368 1_455 S
C2272 C2266 1.368 . S
C2272 C2271 1.523 . S
C2273 C2257 1.453 . S
C2273 C2269 1.429 . S
C2273 C2274 1.523 . S
C2274 C2258 1.368 . S
C2274 C2270 1.368 1_455 S
C2274 C2273 1.523 . S
H2275 C2250 0.950 . S
H2276 C2252 0.950 . S
H2277 C2253 0.949 . S
H2278 C2255 0.950 1_655 S
H2279 C2257 0.921 1_655 S
C2280 C2281 1.349 . S
C2280 C2282 1.327 . S
C2280 H2305 0.950 1_554 S
C2281 C2280 1.349 . S
C2281 C2297 1.349 . S
C2282 C2280 1.327 . S
C2282 C2301 1.429 . S
C2282 H2306 0.950 1_554 S
C2283 C2300 1.574 . S
C2283 C2302 1.368 . S
C2283 H2307 0.949 . S
H2284 C2288 0.916 1_556 S
C2285 C2286 1.349 . S
C2285 C2287 1.327 . S
C2285 H2308 0.950 . S
C2286 C2285 1.349 . S
C2286 C2298 1.349 . S
C2287 C2285 1.327 . S
C2287 C2303 1.429 . S
C2287 H2309 0.950 . S
C2288 H2284 0.916 1_554 S
C2288 C2296 1.575 . S
C2288 C2304 1.406 . S
H2289 C2297 0.950 . S
H2290 C2295 0.950 . S
H2291 C2296 0.949 1_556 S
H2292 C2298 0.950 1_556 S
H2293 C2299 0.950 1_556 S
H2294 C2300 0.949 . S
C2295 H2290 0.950 . S
C2295 C2297 1.327 . S
C2295 C2301 1.429 . S
C2296 C2288 1.575 . S
C2296 H2291 0.949 1_554 S
C2296 C2302 1.368 . S
C2297 C2281 1.349 . S
C2297 H2289 0.950 . S
C2297 C2295 1.327 . S
C2298 C2286 1.349 . S
C2298 H2292 0.950 1_554 S
C2298 C2299 1.327 . S
C2299 H2293 0.950 1_554 S
C2299 C2298 1.327 . S
C2299 C2303 1.429 . S
C2300 C2283 1.574 . S
C2300 H2294 0.949 . S
C2300 C2304 1.368 . S
C2301 C2282 1.429 . S
C2301 C2295 1.429 . S
C2301 C2302 1.523 . S
C2302 C2283 1.368 . S
C2302 C2296 1.368 . S
C2302 C2301 1.523 . S
C2303 C2287 1.429 . S
C2303 C2299 1.429 . S
C2303 C2304 1.523 . S
C2304 C2288 1.406 . S
C2304 C2300 1.368 . S
C2304 C2303 1.523 . S
H2305 C2280 0.950 1_556 S
H2306 C2282 0.950 1_556 S
H2307 C2283 0.949 . S
H2308 C2285 0.950 . S
H2309 C2287 0.950 . S
C2310 C2311 1.349 . S
C2310 C2312 1.327 . S
C2310 H2335 0.950 . S
C2311 C2310 1.349 . S
C2311 C2327 1.342 1_554 S
C2312 C2310 1.327 . S
C2312 C2331 1.429 . S
C2312 H2336 0.950 . S
C2313 C2330 1.574 . S
C2313 C2332 1.368 1_556 S
C2313 H2337 0.949 . S
H2314 C2318 0.949 . S
C2315 C2316 1.349 1_556 S
C2315 C2317 1.327 . S
C2315 H2338 0.950 . S
C2316 C2315 1.349 1_554 S
C2316 C2328 1.349 . S
C2317 C2315 1.327 . S
C2317 C2333 1.429 1_556 S
C2317 H2339 0.950 . S
C2318 H2314 0.949 . S
C2318 C2326 1.574 . S
C2318 C2334 1.368 . S
H2319 C2327 0.957 . S
H2320 C2325 0.980 . S
H2321 C2326 0.949 . S
H2322 C2328 0.950 . S
H2323 C2329 0.950 . S
H2324 C2330 0.949 . S
C2325 H2320 0.980 . S
C2325 C2327 1.327 . S
C2325 C2331 1.400 1_556 S
C2326 C2318 1.574 . S
C2326 H2321 0.949 . S
C2326 C2332 1.368 . S
C2327 C2311 1.342 1_556 S
C2327 H2319 0.957 . S
C2327 C2325 1.327 . S
C2328 C2316 1.349 . S
C2328 H2322 0.950 . S
C2328 C2329 1.327 . S
C2329 H2323 0.950 . S
C2329 C2328 1.327 . S
C2329 C2333 1.429 . S
C2330 C2313 1.574 . S
C2330 H2324 0.949 . S
C2330 C2334 1.368 1_556 S
C2331 C2312 1.429 . S
C2331 C2325 1.400 1_554 S
C2331 C2332 1.523 . S
C2332 C2313 1.368 1_554 S
C2332 C2326 1.368 . S
C2332 C2331 1.523 . S
C2333 C2317 1.429 1_554 S
C2333 C2329 1.429 . S
C2333 C2334 1.523 . S
C2334 C2318 1.368 . S
C2334 C2330 1.368 1_554 S
C2334 C2333 1.523 . S
H2335 C2310 0.950 . S
H2336 C2312 0.950 . S
H2337 C2313 0.949 . S
H2338 C2315 0.950 . S
H2339 C2317 0.950 . S
C2340 C2341 1.349 . S
C2340 C2342 1.327 . S
C2340 H2365 0.950 . S
C2341 C2340 1.349 . S
C2341 C2357 1.349 . S
C2342 C2340 1.327 . S
C2342 C2361 1.429 . S
C2342 H2366 0.950 . S
C2343 C2360 1.574 . S
C2343 C2362 1.368 1_556 S
C2343 H2367 0.949 . S
H2344 C2348 0.949 . S
C2345 C2346 1.349 1_556 S
C2345 C2347 1.327 . S
C2345 H2368 0.950 . S
C2346 C2345 1.349 1_554 S
C2346 C2358 1.349 . S
C2347 C2345 1.327 . S
C2347 C2363 1.429 1_556 S
C2347 H2369 0.950 . S
C2348 H2344 0.949 . S
C2348 C2356 1.574 . S
C2348 C2364 1.368 . S
H2349 C2357 0.950 1_556 S
H2350 C2355 0.950 1_556 S
H2351 C2356 0.949 . S
H2352 C2358 0.950 . S
H2353 C2359 0.950 . S
H2354 C2360 0.949 . S
C2355 H2350 0.950 1_554 S
C2355 C2357 1.327 . S
C2355 C2361 1.429 . S
C2356 C2348 1.574 . S
C2356 H2351 0.949 . S
C2356 C2362 1.368 . S
C2357 C2341 1.349 . S
C2357 H2349 0.950 1_554 S
C2357 C2355 1.327 . S
C2358 C2346 1.349 . S
C2358 H2352 0.950 . S
C2358 C2359 1.327 . S
C2359 H2353 0.950 . S
C2359 C2358 1.327 . S
C2359 C2363 1.429 . S
C2360 C2343 1.574 . S
C2360 H2354 0.949 . S
C2360 C2364 1.368 1_556 S
C2361 C2342 1.429 . S
C2361 C2355 1.429 . S
C2361 C2362 1.523 . S
C2362 C2343 1.368 1_554 S
C2362 C2356 1.368 . S
C2362 C2361 1.523 . S
C2363 C2347 1.429 1_554 S
C2363 C2359 1.429 . S
C2363 C2364 1.523 . S
C2364 C2348 1.368 . S
C2364 C2360 1.368 1_554 S
C2364 C2363 1.523 . S
H2365 C2340 0.950 . S
H2366 C2342 0.950 . S
H2367 C2343 0.949 . S
H2368 C2345 0.950 . S
H2369 C2347 0.950 . S
C2370 C2371 1.349 . S
C2370 C2372 1.327 . S
C2370 H2395 0.950 . S
C2371 C2370 1.349 . S
C2371 C2387 1.349 1_554 S
C2372 C2370 1.327 . S
C2372 C2391 1.429 . S
C2372 H2396 0.950 . S
C2373 C2390 1.574 . S
C2373 C2392 1.368 1_556 S
C2373 H2397 0.949 . S
H2374 C2378 0.949 . S
C2375 C2376 1.349 1_556 S
C2375 C2377 1.327 . S
C2375 H2398 0.950 . S
C2376 C2375 1.349 1_554 S
C2376 C2388 1.349 . S
C2377 C2375 1.327 . S
C2377 C2393 1.429 1_556 S
C2377 H2399 0.950 . S
C2378 H2374 0.949 . S
C2378 C2386 1.574 . S
C2378 C2394 1.368 . S
H2379 C2387 0.950 . S
H2380 C2385 0.950 . S
H2381 C2386 0.949 . S
H2382 C2388 0.950 . S
H2383 C2389 0.950 . S
H2384 C2390 0.949 . S
C2385 H2380 0.950 . S
C2385 C2387 1.327 . S
C2385 C2391 1.429 1_556 S
C2386 C2378 1.574 . S
C2386 H2381 0.949 . S
C2386 C2392 1.368 . S
C2387 C2371 1.349 1_556 S
C2387 H2379 0.950 . S
C2387 C2385 1.327 . S
C2388 C2376 1.349 . S
C2388 H2382 0.950 . S
C2388 C2389 1.327 . S
C2389 H2383 0.950 . S
C2389 C2388 1.327 . S
C2389 C2393 1.429 . S
C2390 C2373 1.574 . S
C2390 H2384 0.949 . S
C2390 C2394 1.368 1_556 S
C2391 C2372 1.429 . S
C2391 C2385 1.429 1_554 S
C2391 C2392 1.523 . S
C2392 C2373 1.368 1_554 S
C2392 C2386 1.368 . S
C2392 C2391 1.523 . S
C2393 C2377 1.429 1_554 S
C2393 C2389 1.429 . S
C2393 C2394 1.523 . S
C2394 C2378 1.368 . S
C2394 C2390 1.368 1_554 S
C2394 C2393 1.523 . S
H2395 C2370 0.950 . S
H2396 C2372 0.950 . S
H2397 C2373 0.949 . S
H2398 C2375 0.950 . S
H2399 C2377 0.950 . S
C2400 C2401 1.349 . S
C2400 C2402 1.327 . S
C2400 H2425 0.950 . S
C2401 C2400 1.349 . S
C2401 C2417 1.349 1_554 S
C2402 C2400 1.327 . S
C2402 C2421 1.429 . S
C2402 H2426 0.950 . S
C2403 C2420 1.574 . S
C2403 C2422 1.368 1_556 S
C2403 H2427 0.949 . S
H2404 C2408 0.949 . S
C2405 C2406 1.349 1_556 S
C2405 C2407 1.327 . S
C2405 H2428 0.950 . S
C2406 C2405 1.349 1_554 S
C2406 C2418 1.349 . S
C2407 C2405 1.327 . S
C2407 C2423 1.429 1_556 S
C2407 H2429 0.950 . S
C2408 H2404 0.949 . S
C2408 C2416 1.574 . S
C2408 C2424 1.368 . S
H2409 C2417 0.950 . S
H2410 C2415 0.950 . S
H2411 C2416 0.949 . S
H2412 C2418 0.950 . S
H2413 C2419 0.950 . S
H2414 C2420 0.949 . S
C2415 H2410 0.950 . S
C2415 C2417 1.327 . S
C2415 C2421 1.429 1_556 S
C2416 C2408 1.574 . S
C2416 H2411 0.949 . S
C2416 C2422 1.368 . S
C2417 C2401 1.349 1_556 S
C2417 H2409 0.950 . S
C2417 C2415 1.327 . S
C2418 C2406 1.349 . S
C2418 H2412 0.950 . S
C2418 C2419 1.327 . S
C2419 H2413 0.950 . S
C2419 C2418 1.327 . S
C2419 C2423 1.429 . S
C2420 C2403 1.574 . S
C2420 H2414 0.949 . S
C2420 C2424 1.368 1_556 S
C2421 C2402 1.429 . S
C2421 C2415 1.429 1_554 S
C2421 C2422 1.523 . S
C2422 C2403 1.368 1_554 S
C2422 C2416 1.368 . S
C2422 C2421 1.523 . S
C2423 C2407 1.429 1_554 S
C2423 C2419 1.429 . S
C2423 C2424 1.523 . S
C2424 C2408 1.368 . S
C2424 C2420 1.368 1_554 S
C2424 C2423 1.523 . S
H2425 C2400 0.950 . S
H2426 C2402 0.950 . S
H2427 C2403 0.949 . S
H2428 C2405 0.950 . S
H2429 C2407 0.950 . S
C2430 C2431 1.349 . S
C2430 C2432 1.327 . S
C2430 H2455 0.950 . S
C2431 C2430 1.349 . S
C2431 C2447 1.349 1_554 S
C2432 C2430 1.327 . S
C2432 C2451 1.429 . S
C2432 H2456 0.950 . S
C2433 C2450 1.574 . S
C2433 C2452 1.368 1_556 S
C2433 H2457 0.949 . S
H2434 C2438 0.949 . S
C2435 C2436 1.349 1_556 S
C2435 C2437 1.327 . S
C2435 H2458 0.950 . S
C2436 C2435 1.349 1_554 S
C2436 C2448 1.349 . S
C2437 C2435 1.327 . S
C2437 C2453 1.429 1_556 S
C2437 H2459 0.950 . S
C2438 H2434 0.949 . S
C2438 C2446 1.574 . S
C2438 C2454 1.368 . S
H2439 C2447 0.950 . S
H2440 C2445 0.950 . S
H2441 C2446 0.949 . S
H2442 C2448 0.950 . S
H2443 C2449 0.950 . S
H2444 C2450 0.949 . S
C2445 H2440 0.950 . S
C2445 C2447 1.327 . S
C2445 C2451 1.429 1_556 S
C2446 C2438 1.574 . S
C2446 H2441 0.949 . S
C2446 C2452 1.368 . S
C2447 C2431 1.349 1_556 S
C2447 H2439 0.950 . S
C2447 C2445 1.327 . S
C2448 C2436 1.349 . S
C2448 H2442 0.950 . S
C2448 C2449 1.327 . S
C2449 H2443 0.950 . S
C2449 C2448 1.327 . S
C2449 C2453 1.429 . S
C2450 C2433 1.574 . S
C2450 H2444 0.949 . S
C2450 C2454 1.368 1_556 S
C2451 C2432 1.429 . S
C2451 C2445 1.429 1_554 S
C2451 C2452 1.523 . S
C2452 C2433 1.368 1_554 S
C2452 C2446 1.368 . S
C2452 C2451 1.523 . S
C2453 C2437 1.429 1_554 S
C2453 C2449 1.429 . S
C2453 C2454 1.523 . S
C2454 C2438 1.368 . S
C2454 C2450 1.368 1_554 S
C2454 C2453 1.523 . S
H2455 C2430 0.950 . S
H2456 C2432 0.950 . S
H2457 C2433 0.949 . S
H2458 C2435 0.950 . S
H2459 C2437 0.950 . S
C2460 C2461 1.349 . S
C2460 C2462 1.327 . S
C2460 H2485 0.950 . S
C2461 C2460 1.349 . S
C2461 C2477 1.349 1_554 S
C2462 C2460 1.327 . S
C2462 C2481 1.429 . S
C2462 H2486 0.950 . S
C2463 C2480 1.574 . S
C2463 C2482 1.368 1_556 S
C2463 H2487 0.949 . S
H2464 C2468 0.949 . S
C2465 C2466 1.349 1_556 S
C2465 C2467 1.327 . S
C2465 H2488 0.950 . S
C2466 C2465 1.349 1_554 S
C2466 C2478 1.349 . S
C2467 C2465 1.327 . S
C2467 C2483 1.429 1_556 S
C2467 H2489 0.950 . S
C2468 H2464 0.949 . S
C2468 C2476 1.574 . S
C2468 C2484 1.368 . S
H2469 C2477 0.950 . S
H2470 C2475 0.950 . S
H2471 C2476 0.949 . S
H2472 C2478 0.950 . S
H2473 C2479 0.950 . S
H2474 C2480 0.949 . S
C2475 H2470 0.950 . S
C2475 C2477 1.327 . S
C2475 C2481 1.429 1_556 S
C2476 C2468 1.574 . S
C2476 H2471 0.949 . S
C2476 C2482 1.368 . S
C2477 C2461 1.349 1_556 S
C2477 H2469 0.950 . S
C2477 C2475 1.327 . S
C2478 C2466 1.349 . S
C2478 H2472 0.950 . S
C2478 C2479 1.327 . S
C2479 H2473 0.950 . S
C2479 C2478 1.327 . S
C2479 C2483 1.429 . S
C2480 C2463 1.574 . S
C2480 H2474 0.949 . S
C2480 C2484 1.368 1_556 S
C2481 C2462 1.429 . S
C2481 C2475 1.429 1_554 S
C2481 C2482 1.523 . S
C2482 C2463 1.368 1_554 S
C2482 C2476 1.368 . S
C2482 C2481 1.523 . S
C2483 C2467 1.429 1_554 S
C2483 C2479 1.429 . S
C2483 C2484 1.523 . S
C2484 C2468 1.368 . S
C2484 C2480 1.368 1_554 S
C2484 C2483 1.523 . S
H2485 C2460 0.950 . S
H2486 C2462 0.950 . S
H2487 C2463 0.949 . S
H2488 C2465 0.950 . S
H2489 C2467 0.950 . S
C2490 C2491 1.349 1_556 S
C2490 C2492 1.327 . S
C2490 H2515 0.950 . S
C2491 C2490 1.349 1_554 S
C2491 C2507 1.349 . S
C2492 C2490 1.327 . S
C2492 C2511 1.429 1_556 S
C2492 H2516 0.950 . S
C2493 C2510 1.574 . S
C2493 C2512 1.368 . S
C2493 H2517 0.949 . S
H2494 C2498 0.949 . S
C2495 C2496 1.349 . S
C2495 C2497 1.327 . S
C2495 H2518 0.950 . S
C2496 C2495 1.349 . S
C2496 C2508 1.349 1_554 S
C2497 C2495 1.327 . S
C2497 C2513 1.429 . S
C2497 H2519 0.950 . S
C2498 H2494 0.949 . S
C2498 C2506 1.574 . S
C2498 C2514 1.368 1_556 S
H2499 C2507 0.950 . S
H2500 C2505 0.950 . S
H2501 C2506 0.949 . S
H2502 C2508 0.950 . S
H2503 C2509 0.950 . S
H2504 C2510 0.949 . S
C2505 H2500 0.950 . S
C2505 C2507 1.327 . S
C2505 C2511 1.429 . S
C2506 C2498 1.574 . S
C2506 H2501 0.949 . S
C2506 C2512 1.368 1_556 S
C2507 C2491 1.349 . S
C2507 H2499 0.950 . S
C2507 C2505 1.327 . S
C2508 C2496 1.349 1_556 S
C2508 H2502 0.950 . S
C2508 C2509 1.327 . S
C2509 H2503 0.950 . S
C2509 C2508 1.327 . S
C2509 C2513 1.429 1_556 S
C2510 C2493 1.574 . S
C2510 H2504 0.949 . S
C2510 C2514 1.368 . S
C2511 C2492 1.429 1_554 S
C2511 C2505 1.429 . S
C2511 C2512 1.523 . S
C2512 C2493 1.368 . S
C2512 C2506 1.368 1_554 S
C2512 C2511 1.523 . S
C2513 C2497 1.429 . S
C2513 C2509 1.429 1_554 S
C2513 C2514 1.523 . S
C2514 C2498 1.368 1_554 S
C2514 C2510 1.368 . S
C2514 C2513 1.523 . S
H2515 C2490 0.950 . S
H2516 C2492 0.950 . S
H2517 C2493 0.949 . S
H2518 C2495 0.950 . S
H2519 C2497 0.950 . S
C2520 C2521 1.349 . S
C2520 C2522 1.327 . S
C2520 H2545 0.950 . S
C2521 C2520 1.349 . S
C2521 C2537 1.349 . S
C2522 C2520 1.327 . S
C2522 C2541 1.429 . S
C2522 H2546 0.950 . S
C2523 C2540 1.574 . S
C2523 C2542 1.368 . S
C2523 H2547 0.949 . S
H2524 C2528 0.949 . S
C2525 C2526 1.349 . S
C2525 C2527 1.327 . S
C2525 H2548 0.950 . S
C2526 C2525 1.349 . S
C2526 C2538 1.349 . S
C2527 C2525 1.327 . S
C2527 C2543 1.429 . S
C2527 H2549 0.950 . S
C2528 H2524 0.949 . S
C2528 C2536 1.574 . S
C2528 C2544 1.368 . S
H2529 C2537 0.950 . S
H2530 C2535 0.950 . S
H2531 C2536 0.949 . S
H2532 C2538 0.950 . S
H2533 C2539 0.950 . S
H2534 C2540 0.949 . S
C2535 H2530 0.950 . S
C2535 C2537 1.327 . S
C2535 C2541 1.429 . S
C2536 C2528 1.574 . S
C2536 H2531 0.949 . S
C2536 C2542 1.368 . S
C2537 C2521 1.349 . S
C2537 H2529 0.950 . S
C2537 C2535 1.327 . S
C2538 C2526 1.349 . S
C2538 H2532 0.950 . S
C2538 C2539 1.327 . S
C2539 H2533 0.950 . S
C2539 C2538 1.327 . S
C2539 C2543 1.429 . S
C2540 C2523 1.574 . S
C2540 H2534 0.949 . S
C2540 C2544 1.368 . S
C2541 C2522 1.429 . S
C2541 C2535 1.429 . S
C2541 C2542 1.523 . S
C2542 C2523 1.368 . S
C2542 C2536 1.368 . S
C2542 C2541 1.523 . S
C2543 C2527 1.429 . S
C2543 C2539 1.429 . S
C2543 C2544 1.523 . S
C2544 C2528 1.368 . S
C2544 C2540 1.368 . S
C2544 C2543 1.523 . S
H2545 C2520 0.950 . S
H2546 C2522 0.950 . S
H2547 C2523 0.949 . S
H2548 C2525 0.950 . S
H2549 C2527 0.950 . S
C2550 C2551 1.349 . S
C2550 C2552 1.327 . S
C2550 H2575 0.950 . S
C2551 C2550 1.349 . S
C2551 C2567 1.349 . S
C2552 C2550 1.327 . S
C2552 C2571 1.429 . S
C2552 H2576 0.950 . S
C2553 C2570 1.574 . S
C2553 C2572 1.368 . S
C2553 H2577 0.949 . S
H2554 C2558 0.949 . S
C2555 C2556 1.349 . S
C2555 C2557 1.327 . S
C2555 H2578 0.950 . S
C2556 C2555 1.349 . S
C2556 C2568 1.349 . S
C2557 C2555 1.327 . S
C2557 C2573 1.429 . S
C2557 H2579 0.950 . S
C2558 H2554 0.949 . S
C2558 C2566 1.574 . S
C2558 C2574 1.368 . S
H2559 C2567 0.950 . S
H2560 C2565 0.950 . S
H2561 C2566 0.949 . S
H2562 C2568 0.950 . S
H2563 C2569 0.950 . S
H2564 C2570 0.949 . S
C2565 H2560 0.950 . S
C2565 C2567 1.327 . S
C2565 C2571 1.429 . S
C2566 C2558 1.574 . S
C2566 H2561 0.949 . S
C2566 C2572 1.368 . S
C2567 C2551 1.349 . S
C2567 H2559 0.950 . S
C2567 C2565 1.327 . S
C2568 C2556 1.349 . S
C2568 H2562 0.950 . S
C2568 C2569 1.327 . S
C2569 H2563 0.950 . S
C2569 C2568 1.327 . S
C2569 C2573 1.429 . S
C2570 C2553 1.574 . S
C2570 H2564 0.949 . S
C2570 C2574 1.368 . S
C2571 C2552 1.429 . S
C2571 C2565 1.429 . S
C2571 C2572 1.523 . S
C2572 C2553 1.368 . S
C2572 C2566 1.368 . S
C2572 C2571 1.523 . S
C2573 C2557 1.429 . S
C2573 C2569 1.429 . S
C2573 C2574 1.523 . S
C2574 C2558 1.368 . S
C2574 C2570 1.368 . S
C2574 C2573 1.523 . S
H2575 C2550 0.950 . S
H2576 C2552 0.950 . S
H2577 C2553 0.949 . S
H2578 C2555 0.950 . S
H2579 C2557 0.950 . S
C2580 C2581 1.349 . S
C2580 C2582 1.327 . S
C2580 H2605 0.950 . S
C2581 C2580 1.349 . S
C2581 C2597 1.349 . S
C2582 C2580 1.327 . S
C2582 C2601 1.429 . S
C2582 H2606 0.950 . S
C2583 C2600 1.574 . S
C2583 C2602 1.368 . S
C2583 H2607 0.949 . S
H2584 C2588 0.949 . S
C2585 C2586 1.349 . S
C2585 C2587 1.327 . S
C2585 H2608 0.950 . S
C2586 C2585 1.349 . S
C2586 C2598 1.349 . S
C2587 C2585 1.327 . S
C2587 C2603 1.429 . S
C2587 H2609 0.950 . S
C2588 H2584 0.949 . S
C2588 C2596 1.574 . S
C2588 C2604 1.368 . S
H2589 C2597 0.950 . S
H2590 C2595 0.950 . S
H2591 C2596 0.949 . S
H2592 C2598 0.950 . S
H2593 C2599 0.950 . S
H2594 C2600 0.949 . S
C2595 H2590 0.950 . S
C2595 C2597 1.327 . S
C2595 C2601 1.429 . S
C2596 C2588 1.574 . S
C2596 H2591 0.949 . S
C2596 C2602 1.368 . S
C2597 C2581 1.349 . S
C2597 H2589 0.950 . S
C2597 C2595 1.327 . S
C2598 C2586 1.349 . S
C2598 H2592 0.950 . S
C2598 C2599 1.327 . S
C2599 H2593 0.950 . S
C2599 C2598 1.327 . S
C2599 C2603 1.429 . S
C2600 C2583 1.574 . S
C2600 H2594 0.949 . S
C2600 C2604 1.368 . S
C2601 C2582 1.429 . S
C2601 C2595 1.429 . S
C2601 C2602 1.523 . S
C2602 C2583 1.368 . S
C2602 C2596 1.368 . S
C2602 C2601 1.523 . S
C2603 C2587 1.429 . S
C2603 C2599 1.429 . S
C2603 C2604 1.523 . S
C2604 C2588 1.368 . S
C2604 C2600 1.368 . S
C2604 C2603 1.523 . S
H2605 C2580 0.950 . S
H2606 C2582 0.950 . S
H2607 C2583 0.949 . S
H2608 C2585 0.950 . S
H2609 C2587 0.950 . S
C2610 C2611 1.349 . S
C2610 C2612 1.327 . S
C2610 H2635 0.950 . S
C2611 C2610 1.349 . S
C2611 C2627 1.349 . S
C2612 C2610 1.327 . S
C2612 C2631 1.429 . S
C2612 H2636 0.950 . S
C2613 C2630 1.574 . S
C2613 C2632 1.368 . S
C2613 H2637 0.949 . S
H2614 C2618 0.949 . S
C2615 C2616 1.349 . S
C2615 C2617 1.327 . S
C2615 H2638 0.950 . S
C2616 C2615 1.349 . S
C2616 C2628 1.349 . S
C2617 C2615 1.327 . S
C2617 C2633 1.429 . S
C2617 H2639 0.950 . S
C2618 H2614 0.949 . S
C2618 C2626 1.574 . S
C2618 C2634 1.368 . S
H2619 C2627 0.950 . S
H2620 C2625 0.950 . S
H2621 C2626 0.949 . S
H2622 C2628 0.950 . S
H2623 C2629 0.950 . S
H2624 C2630 0.949 . S
C2625 H2620 0.950 . S
C2625 C2627 1.327 . S
C2625 C2631 1.429 . S
C2626 C2618 1.574 . S
C2626 H2621 0.949 . S
C2626 C2632 1.368 . S
C2627 C2611 1.349 . S
C2627 H2619 0.950 . S
C2627 C2625 1.327 . S
C2628 C2616 1.349 . S
C2628 H2622 0.950 . S
C2628 C2629 1.327 . S
C2629 H2623 0.950 . S
C2629 C2628 1.327 . S
C2629 C2633 1.429 . S
C2630 C2613 1.574 . S
C2630 H2624 0.949 . S
C2630 C2634 1.368 . S
C2631 C2612 1.429 . S
C2631 C2625 1.429 . S
C2631 C2632 1.523 . S
C2632 C2613 1.368 . S
C2632 C2626 1.368 . S
C2632 C2631 1.523 . S
C2633 C2617 1.429 . S
C2633 C2629 1.429 . S
C2633 C2634 1.523 . S
C2634 C2618 1.368 . S
C2634 C2630 1.368 . S
C2634 C2633 1.523 . S
H2635 C2610 0.950 . S
H2636 C2612 0.950 . S
H2637 C2613 0.949 . S
H2638 C2615 0.950 . S
H2639 C2617 0.950 . S
C2640 C2641 1.349 . S
C2640 C2642 1.327 . S
C2640 H2665 0.950 . S
C2641 C2640 1.349 . S
C2641 C2657 1.349 . S
C2642 C2640 1.327 . S
C2642 C2661 1.429 . S
C2642 H2666 0.950 . S
C2643 C2660 1.574 . S
C2643 C2662 1.368 . S
C2643 H2667 0.949 . S
H2644 C2648 0.949 . S
C2645 C2646 1.349 . S
C2645 C2647 1.327 . S
C2645 H2668 0.950 . S
C2646 C2645 1.349 . S
C2646 C2658 1.349 . S
C2647 C2645 1.327 . S
C2647 C2663 1.429 . S
C2647 H2669 0.950 . S
C2648 H2644 0.949 . S
C2648 C2656 1.574 . S
C2648 C2664 1.368 . S
H2649 C2657 0.950 . S
H2650 C2655 0.950 . S
H2651 C2656 0.949 . S
H2652 C2658 0.950 . S
H2653 C2659 0.950 . S
H2654 C2660 0.949 . S
C2655 H2650 0.950 . S
C2655 C2657 1.327 . S
C2655 C2661 1.429 . S
C2656 C2648 1.574 . S
C2656 H2651 0.949 . S
C2656 C2662 1.368 . S
C2657 C2641 1.349 . S
C2657 H2649 0.950 . S
C2657 C2655 1.327 . S
C2658 C2646 1.349 . S
C2658 H2652 0.950 . S
C2658 C2659 1.327 . S
C2659 H2653 0.950 . S
C2659 C2658 1.327 . S
C2659 C2663 1.429 . S
C2660 C2643 1.574 . S
C2660 H2654 0.949 . S
C2660 C2664 1.368 . S
C2661 C2642 1.429 . S
C2661 C2655 1.429 . S
C2661 C2662 1.523 . S
C2662 C2643 1.368 . S
C2662 C2656 1.368 . S
C2662 C2661 1.523 . S
C2663 C2647 1.429 . S
C2663 C2659 1.429 . S
C2663 C2664 1.523 . S
C2664 C2648 1.368 . S
C2664 C2660 1.368 . S
C2664 C2663 1.523 . S
H2665 C2640 0.950 . S
H2666 C2642 0.950 . S
H2667 C2643 0.949 . S
H2668 C2645 0.950 . S
H2669 C2647 0.950 . S
C2670 C2671 1.349 . S
C2670 C2672 1.327 . S
C2670 H2695 0.950 . S
C2671 C2670 1.349 . S
C2671 C2687 1.349 . S
C2672 C2670 1.327 . S
C2672 C2691 1.429 . S
C2672 H2696 0.950 . S
C2673 C2690 1.574 . S
C2673 C2692 1.368 . S
C2673 H2697 0.949 . S
H2674 C2678 0.949 . S
C2675 C2676 1.349 . S
C2675 C2677 1.327 . S
C2675 H2698 0.950 . S
C2676 C2675 1.349 . S
C2676 C2688 1.349 . S
C2677 C2675 1.327 . S
C2677 C2693 1.429 . S
C2677 H2699 0.950 . S
C2678 H2674 0.949 . S
C2678 C2686 1.574 . S
C2678 C2694 1.368 . S
H2679 C2687 0.950 . S
H2680 C2685 0.950 . S
H2681 C2686 0.949 . S
H2682 C2688 0.950 . S
H2683 C2689 0.950 . S
H2684 C2690 0.949 . S
C2685 H2680 0.950 . S
C2685 C2687 1.327 . S
C2685 C2691 1.429 . S
C2686 C2678 1.574 . S
C2686 H2681 0.949 . S
C2686 C2692 1.368 . S
C2687 C2671 1.349 . S
C2687 H2679 0.950 . S
C2687 C2685 1.327 . S
C2688 C2676 1.349 . S
C2688 H2682 0.950 . S
C2688 C2689 1.327 . S
C2689 H2683 0.950 . S
C2689 C2688 1.327 . S
C2689 C2693 1.429 . S
C2690 C2673 1.574 . S
C2690 H2684 0.949 . S
C2690 C2694 1.368 . S
C2691 C2672 1.429 . S
C2691 C2685 1.429 . S
C2691 C2692 1.523 . S
C2692 C2673 1.368 . S
C2692 C2686 1.368 . S
C2692 C2691 1.523 . S
C2693 C2677 1.429 . S
C2693 C2689 1.429 . S
C2693 C2694 1.523 . S
C2694 C2678 1.368 . S
C2694 C2690 1.368 . S
C2694 C2693 1.523 . S
H2695 C2670 0.950 . S
H2696 C2672 0.950 . S
H2697 C2673 0.949 . S
H2698 C2675 0.950 . S
H2699 C2677 0.950 . S
C2700 C2701 1.349 . S
C2700 C2702 1.327 . S
C2700 H2725 0.950 . S
C2701 C2700 1.349 . S
C2701 C2717 1.349 . S
C2702 C2700 1.327 . S
C2702 C2721 1.429 . S
C2702 H2726 0.950 . S
C2703 C2720 1.574 . S
C2703 C2722 1.368 . S
C2703 H2727 0.949 . S
H2704 C2708 0.949 . S
C2705 C2706 1.349 . S
C2705 C2707 1.327 . S
C2705 H2728 0.950 . S
C2706 C2705 1.349 . S
C2706 C2718 1.349 . S
C2707 C2705 1.327 . S
C2707 C2723 1.429 . S
C2707 H2729 0.950 . S
C2708 H2704 0.949 . S
C2708 C2716 1.574 . S
C2708 C2724 1.368 . S
H2709 C2717 0.950 . S
H2710 C2715 0.950 . S
H2711 C2716 0.949 . S
H2712 C2718 0.950 . S
H2713 C2719 0.950 . S
H2714 C2720 0.949 . S
C2715 H2710 0.950 . S
C2715 C2717 1.327 . S
C2715 C2721 1.429 . S
C2716 C2708 1.574 . S
C2716 H2711 0.949 . S
C2716 C2722 1.368 . S
C2717 C2701 1.349 . S
C2717 H2709 0.950 . S
C2717 C2715 1.327 . S
C2718 C2706 1.349 . S
C2718 H2712 0.950 . S
C2718 C2719 1.327 . S
C2719 H2713 0.950 . S
C2719 C2718 1.327 . S
C2719 C2723 1.429 . S
C2720 C2703 1.574 . S
C2720 H2714 0.949 . S
C2720 C2724 1.368 . S
C2721 C2702 1.429 . S
C2721 C2715 1.429 . S
C2721 C2722 1.523 . S
C2722 C2703 1.368 . S
C2722 C2716 1.368 . S
C2722 C2721 1.523 . S
C2723 C2707 1.429 . S
C2723 C2719 1.429 . S
C2723 C2724 1.523 . S
C2724 C2708 1.368 . S
C2724 C2720 1.368 . S
C2724 C2723 1.523 . S
H2725 C2700 0.950 . S
H2726 C2702 0.950 . S
H2727 C2703 0.949 . S
H2728 C2705 0.950 . S
H2729 C2707 0.950 . S
C2730 C2731 1.349 . S
C2730 C2732 1.327 . S
C2730 H2755 0.950 . S
C2731 C2730 1.349 . S
C2731 C2747 1.349 . S
C2732 C2730 1.327 . S
C2732 C2751 1.429 . S
C2732 H2756 0.950 . S
C2733 C2750 1.574 . S
C2733 C2752 1.368 . S
C2733 H2757 0.949 . S
H2734 C2738 0.949 . S
C2735 C2736 1.349 . S
C2735 C2737 1.327 . S
C2735 H2758 0.950 . S
C2736 C2735 1.349 . S
C2736 C2748 1.349 . S
C2737 C2735 1.327 . S
C2737 C2753 1.429 . S
C2737 H2759 0.950 . S
C2738 H2734 0.949 . S
C2738 C2746 1.574 . S
C2738 C2754 1.368 . S
H2739 C2747 0.950 . S
H2740 C2745 0.950 . S
H2741 C2746 0.949 . S
H2742 C2748 0.950 . S
H2743 C2749 0.950 . S
H2744 C2750 0.949 . S
C2745 H2740 0.950 . S
C2745 C2747 1.327 . S
C2745 C2751 1.429 . S
C2746 C2738 1.574 . S
C2746 H2741 0.949 . S
C2746 C2752 1.368 . S
C2747 C2731 1.349 . S
C2747 H2739 0.950 . S
C2747 C2745 1.327 . S
C2748 C2736 1.349 . S
C2748 H2742 0.950 . S
C2748 C2749 1.327 . S
C2749 H2743 0.950 . S
C2749 C2748 1.327 . S
C2749 C2753 1.429 . S
C2750 C2733 1.574 . S
C2750 H2744 0.949 . S
C2750 C2754 1.368 . S
C2751 C2732 1.429 . S
C2751 C2745 1.429 . S
C2751 C2752 1.523 . S
C2752 C2733 1.368 . S
C2752 C2746 1.368 . S
C2752 C2751 1.523 . S
C2753 C2737 1.429 . S
C2753 C2749 1.429 . S
C2753 C2754 1.523 . S
C2754 C2738 1.368 . S
C2754 C2750 1.368 . S
C2754 C2753 1.523 . S
H2755 C2730 0.950 . S
H2756 C2732 0.950 . S
H2757 C2733 0.949 . S
H2758 C2735 0.950 . S
H2759 C2737 0.950 . S
C2760 C2761 1.349 . S
C2760 C2762 1.327 . S
C2760 H2785 0.950 . S
C2761 C2760 1.349 . S
C2761 C2777 1.349 . S
C2762 C2760 1.327 . S
C2762 C2781 1.429 . S
C2762 H2786 0.950 . S
C2763 C2780 1.574 . S
C2763 C2782 1.368 . S
C2763 H2787 0.949 . S
H2764 C2768 0.949 . S
C2765 C2766 1.349 . S
C2765 C2767 1.327 . S
C2765 H2788 0.950 . S
C2766 C2765 1.349 . S
C2766 C2778 1.349 . S
C2767 C2765 1.327 . S
C2767 C2783 1.429 . S
C2767 H2789 0.950 . S
C2768 H2764 0.949 . S
C2768 C2776 1.574 . S
C2768 C2784 1.368 . S
H2769 C2777 0.950 . S
H2770 C2775 0.950 . S
H2771 C2776 0.949 . S
H2772 C2778 0.950 . S
H2773 C2779 0.950 . S
H2774 C2780 0.949 . S
C2775 H2770 0.950 . S
C2775 C2777 1.327 . S
C2775 C2781 1.429 . S
C2776 C2768 1.574 . S
C2776 H2771 0.949 . S
C2776 C2782 1.368 . S
C2777 C2761 1.349 . S
C2777 H2769 0.950 . S
C2777 C2775 1.327 . S
C2778 C2766 1.349 . S
C2778 H2772 0.950 . S
C2778 C2779 1.327 . S
C2779 H2773 0.950 . S
C2779 C2778 1.327 . S
C2779 C2783 1.429 . S
C2780 C2763 1.574 . S
C2780 H2774 0.949 . S
C2780 C2784 1.368 . S
C2781 C2762 1.429 . S
C2781 C2775 1.429 . S
C2781 C2782 1.523 . S
C2782 C2763 1.368 . S
C2782 C2776 1.368 . S
C2782 C2781 1.523 . S
C2783 C2767 1.429 . S
C2783 C2779 1.429 . S
C2783 C2784 1.523 . S
C2784 C2768 1.368 . S
C2784 C2780 1.368 . S
C2784 C2783 1.523 . S
H2785 C2760 0.950 . S
H2786 C2762 0.950 . S
H2787 C2763 0.949 . S
H2788 C2765 0.950 . S
H2789 C2767 0.950 . S
C2790 C2791 1.349 . S
C2790 C2792 1.327 . S
C2790 H2815 0.950 . S
C2791 C2790 1.349 . S
C2791 C2807 1.349 . S
C2792 C2790 1.327 . S
C2792 C2811 1.429 . S
C2792 H2816 0.950 . S
C2793 C2810 1.574 . S
C2793 C2812 1.368 . S
C2793 H2817 0.949 . S
H2794 C2798 0.949 . S
C2795 C2796 1.349 . S
C2795 C2797 1.327 . S
C2795 H2818 0.950 . S
C2796 C2795 1.349 . S
C2796 C2808 1.349 . S
C2797 C2795 1.327 . S
C2797 C2813 1.429 . S
C2797 H2819 0.950 . S
C2798 H2794 0.949 . S
C2798 C2806 1.574 . S
C2798 C2814 1.368 . S
H2799 C2807 0.950 . S
H2800 C2805 0.950 . S
H2801 C2806 0.949 . S
H2802 C2808 0.950 . S
H2803 C2809 0.950 . S
H2804 C2810 0.949 . S
C2805 H2800 0.950 . S
C2805 C2807 1.327 . S
C2805 C2811 1.429 . S
C2806 C2798 1.574 . S
C2806 H2801 0.949 . S
C2806 C2812 1.368 . S
C2807 C2791 1.349 . S
C2807 H2799 0.950 . S
C2807 C2805 1.327 . S
C2808 C2796 1.349 . S
C2808 H2802 0.950 . S
C2808 C2809 1.327 . S
C2809 H2803 0.950 . S
C2809 C2808 1.327 . S
C2809 C2813 1.429 . S
C2810 C2793 1.574 . S
C2810 H2804 0.949 . S
C2810 C2814 1.368 . S
C2811 C2792 1.429 . S
C2811 C2805 1.429 . S
C2811 C2812 1.523 . S
C2812 C2793 1.368 . S
C2812 C2806 1.368 . S
C2812 C2811 1.523 . S
C2813 C2797 1.429 . S
C2813 C2809 1.429 . S
C2813 C2814 1.523 . S
C2814 C2798 1.368 . S
C2814 C2810 1.368 . S
C2814 C2813 1.523 . S
H2815 C2790 0.950 . S
H2816 C2792 0.950 . S
H2817 C2793 0.949 . S
H2818 C2795 0.950 . S
H2819 C2797 0.950 . S
C2820 C2821 1.349 . S
C2820 C2822 1.327 . S
C2820 H2845 0.950 . S
C2821 C2820 1.349 . S
C2821 C2837 1.349 . S
C2822 C2820 1.327 . S
C2822 C2841 1.429 . S
C2822 H2846 0.950 . S
C2823 C2840 1.574 . S
C2823 C2842 1.368 . S
C2823 H2847 0.949 . S
H2824 C2828 0.949 . S
C2825 C2826 1.349 . S
C2825 C2827 1.327 . S
C2825 H2848 0.950 . S
C2826 C2825 1.349 . S
C2826 C2838 1.349 . S
C2827 C2825 1.327 . S
C2827 C2843 1.429 . S
C2827 H2849 0.950 . S
C2828 H2824 0.949 . S
C2828 C2836 1.574 . S
C2828 C2844 1.368 . S
H2829 C2837 0.950 . S
H2830 C2835 0.950 . S
H2831 C2836 0.949 . S
H2832 C2838 0.950 . S
H2833 C2839 0.950 . S
H2834 C2840 0.949 . S
C2835 H2830 0.950 . S
C2835 C2837 1.327 . S
C2835 C2841 1.429 . S
C2836 C2828 1.574 . S
C2836 H2831 0.949 . S
C2836 C2842 1.368 . S
C2837 C2821 1.349 . S
C2837 H2829 0.950 . S
C2837 C2835 1.327 . S
C2838 C2826 1.349 . S
C2838 H2832 0.950 . S
C2838 C2839 1.327 . S
C2839 H2833 0.950 . S
C2839 C2838 1.327 . S
C2839 C2843 1.429 . S
C2840 C2823 1.574 . S
C2840 H2834 0.949 . S
C2840 C2844 1.368 . S
C2841 C2822 1.429 . S
C2841 C2835 1.429 . S
C2841 C2842 1.523 . S
C2842 C2823 1.368 . S
C2842 C2836 1.368 . S
C2842 C2841 1.523 . S
C2843 C2827 1.429 . S
C2843 C2839 1.429 . S
C2843 C2844 1.523 . S
C2844 C2828 1.368 . S
C2844 C2840 1.368 . S
C2844 C2843 1.523 . S
H2845 C2820 0.950 . S
H2846 C2822 0.950 . S
H2847 C2823 0.949 . S
H2848 C2825 0.950 . S
H2849 C2827 0.950 . S
C2850 C2851 1.349 . S
C2850 C2852 1.327 . S
C2850 H2875 0.950 . S
C2851 C2850 1.349 . S
C2851 C2867 1.349 . S
C2852 C2850 1.327 . S
C2852 C2871 1.429 . S
C2852 H2876 0.950 . S
C2853 C2870 1.574 . S
C2853 C2872 1.368 . S
C2853 H2877 0.949 . S
H2854 C2858 0.949 . S
C2855 C2856 1.349 . S
C2855 C2857 1.327 . S
C2855 H2878 0.950 . S
C2856 C2855 1.349 . S
C2856 C2868 1.349 . S
C2857 C2855 1.327 . S
C2857 C2873 1.429 . S
C2857 H2879 0.950 . S
C2858 H2854 0.949 . S
C2858 C2866 1.574 . S
C2858 C2874 1.368 . S
H2859 C2867 0.950 . S
H2860 C2865 0.950 . S
H2861 C2866 0.949 . S
H2862 C2868 0.950 . S
H2863 C2869 0.950 . S
H2864 C2870 0.949 . S
C2865 H2860 0.950 . S
C2865 C2867 1.327 . S
C2865 C2871 1.429 . S
C2866 C2858 1.574 . S
C2866 H2861 0.949 . S
C2866 C2872 1.368 . S
C2867 C2851 1.349 . S
C2867 H2859 0.950 . S
C2867 C2865 1.327 . S
C2868 C2856 1.349 . S
C2868 H2862 0.950 . S
C2868 C2869 1.327 . S
C2869 H2863 0.950 . S
C2869 C2868 1.327 . S
C2869 C2873 1.429 . S
C2870 C2853 1.574 . S
C2870 H2864 0.949 . S
C2870 C2874 1.368 . S
C2871 C2852 1.429 . S
C2871 C2865 1.429 . S
C2871 C2872 1.523 . S
C2872 C2853 1.368 . S
C2872 C2866 1.368 . S
C2872 C2871 1.523 . S
C2873 C2857 1.429 . S
C2873 C2869 1.429 . S
C2873 C2874 1.523 . S
C2874 C2858 1.368 . S
C2874 C2870 1.368 . S
C2874 C2873 1.523 . S
H2875 C2850 0.950 . S
H2876 C2852 0.950 . S
H2877 C2853 0.949 . S
H2878 C2855 0.950 . S
H2879 C2857 0.950 . S
C2880 C2881 1.349 . S
C2880 C2882 1.327 . S
C2880 H2905 0.950 . S
C2881 C2880 1.349 . S
C2881 C2897 1.349 . S
C2882 C2880 1.327 . S
C2882 C2901 1.429 . S
C2882 H2906 0.950 . S
C2883 C2900 1.574 . S
C2883 C2902 1.368 . S
C2883 H2907 0.949 . S
H2884 C2888 0.949 . S
C2885 C2886 1.349 . S
C2885 C2887 1.327 . S
C2885 H2908 0.950 . S
C2886 C2885 1.349 . S
C2886 C2898 1.349 . S
C2887 C2885 1.327 . S
C2887 C2903 1.429 . S
C2887 H2909 0.950 . S
C2888 H2884 0.949 . S
C2888 C2896 1.574 . S
C2888 C2904 1.368 . S
H2889 C2897 0.950 . S
H2890 C2895 0.950 . S
H2891 C2896 0.949 . S
H2892 C2898 0.950 . S
H2893 C2899 0.950 . S
H2894 C2900 0.949 . S
C2895 H2890 0.950 . S
C2895 C2897 1.327 . S
C2895 C2901 1.429 . S
C2896 C2888 1.574 . S
C2896 H2891 0.949 . S
C2896 C2902 1.368 . S
C2897 C2881 1.349 . S
C2897 H2889 0.950 . S
C2897 C2895 1.327 . S
C2898 C2886 1.349 . S
C2898 H2892 0.950 . S
C2898 C2899 1.327 . S
C2899 H2893 0.950 . S
C2899 C2898 1.327 . S
C2899 C2903 1.429 . S
C2900 C2883 1.574 . S
C2900 H2894 0.949 . S
C2900 C2904 1.368 . S
C2901 C2882 1.429 . S
C2901 C2895 1.429 . S
C2901 C2902 1.523 . S
C2902 C2883 1.368 . S
C2902 C2896 1.368 . S
C2902 C2901 1.523 . S
C2903 C2887 1.429 . S
C2903 C2899 1.429 . S
C2903 C2904 1.523 . S
C2904 C2888 1.368 . S
C2904 C2900 1.368 . S
C2904 C2903 1.523 . S
H2905 C2880 0.950 . S
H2906 C2882 0.950 . S
H2907 C2883 0.949 . S
H2908 C2885 0.950 . S
H2909 C2887 0.950 . S
C2910 C2911 1.349 . S
C2910 C2912 1.327 . S
C2910 H2935 0.950 . S
C2911 C2910 1.349 . S
C2911 C2927 1.349 . S
C2912 C2910 1.327 . S
C2912 C2931 1.429 . S
C2912 H2936 0.950 . S
C2913 C2930 1.574 . S
C2913 C2932 1.368 . S
C2913 H2937 0.949 . S
H2914 C2918 0.949 . S
C2915 C2916 1.349 . S
C2915 C2917 1.327 . S
C2915 H2938 0.950 . S
C2916 C2915 1.349 . S
C2916 C2928 1.349 . S
C2917 C2915 1.327 . S
C2917 C2933 1.429 . S
C2917 H2939 0.950 . S
C2918 H2914 0.949 . S
C2918 C2926 1.574 . S
C2918 C2934 1.368 . S
H2919 C2927 0.950 . S
H2920 C2925 0.950 . S
H2921 C2926 0.949 . S
H2922 C2928 0.950 . S
H2923 C2929 0.950 . S
H2924 C2930 0.949 . S
C2925 H2920 0.950 . S
C2925 C2927 1.327 . S
C2925 C2931 1.429 . S
C2926 C2918 1.574 . S
C2926 H2921 0.949 . S
C2926 C2932 1.368 . S
C2927 C2911 1.349 . S
C2927 H2919 0.950 . S
C2927 C2925 1.327 . S
C2928 C2916 1.349 . S
C2928 H2922 0.950 . S
C2928 C2929 1.327 . S
C2929 H2923 0.950 . S
C2929 C2928 1.327 . S
C2929 C2933 1.429 . S
C2930 C2913 1.574 . S
C2930 H2924 0.949 . S
C2930 C2934 1.368 . S
C2931 C2912 1.429 . S
C2931 C2925 1.429 . S
C2931 C2932 1.523 . S
C2932 C2913 1.368 . S
C2932 C2926 1.368 . S
C2932 C2931 1.523 . S
C2933 C2917 1.429 . S
C2933 C2929 1.429 . S
C2933 C2934 1.523 . S
C2934 C2918 1.368 . S
C2934 C2930 1.368 . S
C2934 C2933 1.523 . S
H2935 C2910 0.950 . S
H2936 C2912 0.950 . S
H2937 C2913 0.949 . S
H2938 C2915 0.950 . S
H2939 C2917 0.950 . S
C2940 C2941 1.349 . S
C2940 C2942 1.327 . S
C2940 H2965 0.950 . S
C2941 C2940 1.349 . S
C2941 C2957 1.349 . S
C2942 C2940 1.327 . S
C2942 C2961 1.429 . S
C2942 H2966 0.950 . S
C2943 C2960 1.574 . S
C2943 C2962 1.368 . S
C2943 H2967 0.949 . S
H2944 C2948 0.949 . S
C2945 C2946 1.349 . S
C2945 C2947 1.327 . S
C2945 H2968 0.950 . S
C2946 C2945 1.349 . S
C2946 C2958 1.349 . S
C2947 C2945 1.327 . S
C2947 C2963 1.429 . S
C2947 H2969 0.950 . S
C2948 H2944 0.949 . S
C2948 C2956 1.574 . S
C2948 C2964 1.368 . S
H2949 C2957 0.950 . S
H2950 C2955 0.950 . S
H2951 C2956 0.949 . S
H2952 C2958 0.950 . S
H2953 C2959 0.950 . S
H2954 C2960 0.949 . S
C2955 H2950 0.950 . S
C2955 C2957 1.327 . S
C2955 C2961 1.429 . S
C2956 C2948 1.574 . S
C2956 H2951 0.949 . S
C2956 C2962 1.368 . S
C2957 C2941 1.349 . S
C2957 H2949 0.950 . S
C2957 C2955 1.327 . S
C2958 C2946 1.349 . S
C2958 H2952 0.950 . S
C2958 C2959 1.327 . S
C2959 H2953 0.950 . S
C2959 C2958 1.327 . S
C2959 C2963 1.429 . S
C2960 C2943 1.574 . S
C2960 H2954 0.949 . S
C2960 C2964 1.368 . S
C2961 C2942 1.429 . S
C2961 C2955 1.429 . S
C2961 C2962 1.523 . S
C2962 C2943 1.368 . S
C2962 C2956 1.368 . S
C2962 C2961 1.523 . S
C2963 C2947 1.429 . S
C2963 C2959 1.429 . S
C2963 C2964 1.523 . S
C2964 C2948 1.368 . S
C2964 C2960 1.368 . S
C2964 C2963 1.523 . S
H2965 C2940 0.950 . S
H2966 C2942 0.950 . S
H2967 C2943 0.949 . S
H2968 C2945 0.950 . S
H2969 C2947 0.950 . S
C2970 C2971 1.349 . S
C2970 C2972 1.327 . S
C2970 H2995 0.950 . S
C2971 C2970 1.349 . S
C2971 C2987 1.349 . S
C2972 C2970 1.327 . S
C2972 C2991 1.429 . S
C2972 H2996 0.950 . S
C2973 C2990 1.574 . S
C2973 C2992 1.368 . S
C2973 H2997 0.949 . S
H2974 C2978 0.949 . S
C2975 C2976 1.349 . S
C2975 C2977 1.327 . S
C2975 H2998 0.950 . S
C2976 C2975 1.349 . S
C2976 C2988 1.349 . S
C2977 C2975 1.327 . S
C2977 C2993 1.429 . S
C2977 H2999 0.950 . S
C2978 H2974 0.949 . S
C2978 C2986 1.574 . S
C2978 C2994 1.368 . S
H2979 C2987 0.950 . S
H2980 C2985 0.950 . S
H2981 C2986 0.949 . S
H2982 C2988 0.950 . S
H2983 C2989 0.950 . S
H2984 C2990 0.949 . S
C2985 H2980 0.950 . S
C2985 C2987 1.327 . S
C2985 C2991 1.429 . S
C2986 C2978 1.574 . S
C2986 H2981 0.949 . S
C2986 C2992 1.368 . S
C2987 C2971 1.349 . S
C2987 H2979 0.950 . S
C2987 C2985 1.327 . S
C2988 C2976 1.349 . S
C2988 H2982 0.950 . S
C2988 C2989 1.327 . S
C2989 H2983 0.950 . S
C2989 C2988 1.327 . S
C2989 C2993 1.429 . S
C2990 C2973 1.574 . S
C2990 H2984 0.949 . S
C2990 C2994 1.368 . S
C2991 C2972 1.429 . S
C2991 C2985 1.429 . S
C2991 C2992 1.523 . S
C2992 C2973 1.368 . S
C2992 C2986 1.368 . S
C2992 C2991 1.523 . S
C2993 C2977 1.429 . S
C2993 C2989 1.429 . S
C2993 C2994 1.523 . S
C2994 C2978 1.368 . S
C2994 C2990 1.368 . S
C2994 C2993 1.523 . S
H2995 C2970 0.950 . S
H2996 C2972 0.950 . S
H2997 C2973 0.949 . S
H2998 C2975 0.950 . S
H2999 C2977 0.950 . S
C3000 C3001 1.349 . S
C3000 C3002 1.327 . S
C3000 H3025 0.950 . S
C3001 C3000 1.349 . S
C3001 C3017 1.349 . S
C3002 C3000 1.327 . S
C3002 C3021 1.429 . S
C3002 H3026 0.950 . S
C3003 C3020 1.574 . S
C3003 C3022 1.368 . S
C3003 H3027 0.949 . S
H3004 C3008 0.949 . S
C3005 C3006 1.349 . S
C3005 C3007 1.327 . S
C3005 H3028 0.950 . S
C3006 C3005 1.349 . S
C3006 C3018 1.349 . S
C3007 C3005 1.327 . S
C3007 C3023 1.429 . S
C3007 H3029 0.950 . S
C3008 H3004 0.949 . S
C3008 C3016 1.574 . S
C3008 C3024 1.368 . S
H3009 C3017 0.950 . S
H3010 C3015 0.950 . S
H3011 C3016 0.949 . S
H3012 C3018 0.950 . S
H3013 C3019 0.950 . S
H3014 C3020 0.949 . S
C3015 H3010 0.950 . S
C3015 C3017 1.327 . S
C3015 C3021 1.429 . S
C3016 C3008 1.574 . S
C3016 H3011 0.949 . S
C3016 C3022 1.368 . S
C3017 C3001 1.349 . S
C3017 H3009 0.950 . S
C3017 C3015 1.327 . S
C3018 C3006 1.349 . S
C3018 H3012 0.950 . S
C3018 C3019 1.327 . S
C3019 H3013 0.950 . S
C3019 C3018 1.327 . S
C3019 C3023 1.429 . S
C3020 C3003 1.574 . S
C3020 H3014 0.949 . S
C3020 C3024 1.368 . S
C3021 C3002 1.429 . S
C3021 C3015 1.429 . S
C3021 C3022 1.523 . S
C3022 C3003 1.368 . S
C3022 C3016 1.368 . S
C3022 C3021 1.523 . S
C3023 C3007 1.429 . S
C3023 C3019 1.429 . S
C3023 C3024 1.523 . S
C3024 C3008 1.368 . S
C3024 C3020 1.368 . S
C3024 C3023 1.523 . S
H3025 C3000 0.950 . S
H3026 C3002 0.950 . S
H3027 C3003 0.949 . S
H3028 C3005 0.950 . S
H3029 C3007 0.950 . S
C3030 C3031 1.349 . S
C3030 C3032 1.327 . S
C3030 H3055 0.950 . S
C3031 C3030 1.349 . S
C3031 C3047 1.349 . S
C3032 C3030 1.327 . S
C3032 C3051 1.429 . S
C3032 H3056 0.950 . S
C3033 C3050 1.574 . S
C3033 C3052 1.368 . S
C3033 H3057 0.949 . S
H3034 C3038 0.949 . S
C3035 C3036 1.349 . S
C3035 C3037 1.327 . S
C3035 H3058 0.950 . S
C3036 C3035 1.349 . S
C3036 C3048 1.349 . S
C3037 C3035 1.327 . S
C3037 C3053 1.429 . S
C3037 H3059 0.950 . S
C3038 H3034 0.949 . S
C3038 C3046 1.574 . S
C3038 C3054 1.368 . S
H3039 C3047 0.950 . S
H3040 C3045 0.950 . S
H3041 C3046 0.949 . S
H3042 C3048 0.950 . S
H3043 C3049 0.950 . S
H3044 C3050 0.949 . S
C3045 H3040 0.950 . S
C3045 C3047 1.327 . S
C3045 C3051 1.429 . S
C3046 C3038 1.574 . S
C3046 H3041 0.949 . S
C3046 C3052 1.368 . S
C3047 C3031 1.349 . S
C3047 H3039 0.950 . S
C3047 C3045 1.327 . S
C3048 C3036 1.349 . S
C3048 H3042 0.950 . S
C3048 C3049 1.327 . S
C3049 H3043 0.950 . S
C3049 C3048 1.327 . S
C3049 C3053 1.429 . S
C3050 C3033 1.574 . S
C3050 H3044 0.949 . S
C3050 C3054 1.368 . S
C3051 C3032 1.429 . S
C3051 C3045 1.429 . S
C3051 C3052 1.523 . S
C3052 C3033 1.368 . S
C3052 C3046 1.368 . S
C3052 C3051 1.523 . S
C3053 C3037 1.429 . S
C3053 C3049 1.429 . S
C3053 C3054 1.523 . S
C3054 C3038 1.368 . S
C3054 C3050 1.368 . S
C3054 C3053 1.523 . S
H3055 C3030 0.950 . S
H3056 C3032 0.950 . S
H3057 C3033 0.949 . S
H3058 C3035 0.950 . S
H3059 C3037 0.950 . S
C3060 C3061 1.349 . S
C3060 C3062 1.327 . S
C3060 H3085 0.950 . S
C3061 C3060 1.349 . S
C3061 C3077 1.349 . S
C3062 C3060 1.327 . S
C3062 C3081 1.429 . S
C3062 H3086 0.950 . S
C3063 C3080 1.574 . S
C3063 C3082 1.368 . S
C3063 H3087 0.949 . S
H3064 C3068 0.949 . S
C3065 C3066 1.349 . S
C3065 C3067 1.327 . S
C3065 H3088 0.950 . S
C3066 C3065 1.349 . S
C3066 C3078 1.349 . S
C3067 C3065 1.327 . S
C3067 C3083 1.429 . S
C3067 H3089 0.950 . S
C3068 H3064 0.949 . S
C3068 C3076 1.574 . S
C3068 C3084 1.368 . S
H3069 C3077 0.950 . S
H3070 C3075 0.950 . S
H3071 C3076 0.949 . S
H3072 C3078 0.950 . S
H3073 C3079 0.950 . S
H3074 C3080 0.949 . S
C3075 H3070 0.950 . S
C3075 C3077 1.327 . S
C3075 C3081 1.429 . S
C3076 C3068 1.574 . S
C3076 H3071 0.949 . S
C3076 C3082 1.368 . S
C3077 C3061 1.349 . S
C3077 H3069 0.950 . S
C3077 C3075 1.327 . S
C3078 C3066 1.349 . S
C3078 H3072 0.950 . S
C3078 C3079 1.327 . S
C3079 H3073 0.950 . S
C3079 C3078 1.327 . S
C3079 C3083 1.429 . S
C3080 C3063 1.574 . S
C3080 H3074 0.949 . S
C3080 C3084 1.368 . S
C3081 C3062 1.429 . S
C3081 C3075 1.429 . S
C3081 C3082 1.523 . S
C3082 C3063 1.368 . S
C3082 C3076 1.368 . S
C3082 C3081 1.523 . S
C3083 C3067 1.429 . S
C3083 C3079 1.429 . S
C3083 C3084 1.523 . S
C3084 C3068 1.368 . S
C3084 C3080 1.368 . S
C3084 C3083 1.523 . S
H3085 C3060 0.950 . S
H3086 C3062 0.950 . S
H3087 C3063 0.949 . S
H3088 C3065 0.950 . S
H3089 C3067 0.950 . S
C3090 C3091 1.349 . S
C3090 C3092 1.327 . S
C3090 H3115 0.950 . S
C3091 C3090 1.349 . S
C3091 C3107 1.349 . S
C3092 C3090 1.327 . S
C3092 C3111 1.429 . S
C3092 H3116 0.950 . S
C3093 C3110 1.574 . S
C3093 C3112 1.368 . S
C3093 H3117 0.949 . S
H3094 C3098 0.949 . S
C3095 C3096 1.349 . S
C3095 C3097 1.327 . S
C3095 H3118 0.950 . S
C3096 C3095 1.349 . S
C3096 C3108 1.349 . S
C3097 C3095 1.327 . S
C3097 C3113 1.429 . S
C3097 H3119 0.950 . S
C3098 H3094 0.949 . S
C3098 C3106 1.574 . S
C3098 C3114 1.368 . S
H3099 C3107 0.950 . S
H3100 C3105 0.950 . S
H3101 C3106 0.949 . S
H3102 C3108 0.950 . S
H3103 C3109 0.950 . S
H3104 C3110 0.949 . S
C3105 H3100 0.950 . S
C3105 C3107 1.327 . S
C3105 C3111 1.429 . S
C3106 C3098 1.574 . S
C3106 H3101 0.949 . S
C3106 C3112 1.368 . S
C3107 C3091 1.349 . S
C3107 H3099 0.950 . S
C3107 C3105 1.327 . S
C3108 C3096 1.349 . S
C3108 H3102 0.950 . S
C3108 C3109 1.327 . S
C3109 H3103 0.950 . S
C3109 C3108 1.327 . S
C3109 C3113 1.429 . S
C3110 C3093 1.574 . S
C3110 H3104 0.949 . S
C3110 C3114 1.368 . S
C3111 C3092 1.429 . S
C3111 C3105 1.429 . S
C3111 C3112 1.523 . S
C3112 C3093 1.368 . S
C3112 C3106 1.368 . S
C3112 C3111 1.523 . S
C3113 C3097 1.429 . S
C3113 C3109 1.429 . S
C3113 C3114 1.523 . S
C3114 C3098 1.368 . S
C3114 C3110 1.368 . S
C3114 C3113 1.523 . S
H3115 C3090 0.950 . S
H3116 C3092 0.950 . S
H3117 C3093 0.949 . S
H3118 C3095 0.950 . S
H3119 C3097 0.950 . S
C3120 C3121 1.349 . S
C3120 C3122 1.327 . S
C3120 H3145 0.950 . S
C3121 C3120 1.349 . S
C3121 C3137 1.349 . S
C3122 C3120 1.327 . S
C3122 C3141 1.429 . S
C3122 H3146 0.950 . S
C3123 C3140 1.574 . S
C3123 C3142 1.368 . S
C3123 H3147 0.949 . S
H3124 C3128 0.949 . S
C3125 C3126 1.349 . S
C3125 C3127 1.327 . S
C3125 H3148 0.950 . S
C3126 C3125 1.349 . S
C3126 C3138 1.349 . S
C3127 C3125 1.327 . S
C3127 C3143 1.429 . S
C3127 H3149 0.950 . S
C3128 H3124 0.949 . S
C3128 C3136 1.574 . S
C3128 C3144 1.368 . S
H3129 C3137 0.950 . S
H3130 C3135 0.950 . S
H3131 C3136 0.949 . S
H3132 C3138 0.950 . S
H3133 C3139 0.950 . S
H3134 C3140 0.949 . S
C3135 H3130 0.950 . S
C3135 C3137 1.327 . S
C3135 C3141 1.429 . S
C3136 C3128 1.574 . S
C3136 H3131 0.949 . S
C3136 C3142 1.368 . S
C3137 C3121 1.349 . S
C3137 H3129 0.950 . S
C3137 C3135 1.327 . S
C3138 C3126 1.349 . S
C3138 H3132 0.950 . S
C3138 C3139 1.327 . S
C3139 H3133 0.950 . S
C3139 C3138 1.327 . S
C3139 C3143 1.429 . S
C3140 C3123 1.574 . S
C3140 H3134 0.949 . S
C3140 C3144 1.368 . S
C3141 C3122 1.429 . S
C3141 C3135 1.429 . S
C3141 C3142 1.523 . S
C3142 C3123 1.368 . S
C3142 C3136 1.368 . S
C3142 C3141 1.523 . S
C3143 C3127 1.429 . S
C3143 C3139 1.429 . S
C3143 C3144 1.523 . S
C3144 C3128 1.368 . S
C3144 C3140 1.368 . S
C3144 C3143 1.523 . S
H3145 C3120 0.950 . S
H3146 C3122 0.950 . S
H3147 C3123 0.949 . S
H3148 C3125 0.950 . S
H3149 C3127 0.950 . S
C3150 C3151 1.349 . S
C3150 C3152 1.327 . S
C3150 H3175 0.950 . S
C3151 C3150 1.349 . S
C3151 C3167 1.349 . S
C3152 C3150 1.327 . S
C3152 C3171 1.429 . S
C3152 H3176 0.950 . S
C3153 C3170 1.574 . S
C3153 C3172 1.368 . S
C3153 H3177 0.949 . S
H3154 C3158 0.949 . S
C3155 C3156 1.349 . S
C3155 C3157 1.327 . S
C3155 H3178 0.950 . S
C3156 C3155 1.349 . S
C3156 C3168 1.349 . S
C3157 C3155 1.327 . S
C3157 C3173 1.429 . S
C3157 H3179 0.950 . S
C3158 H3154 0.949 . S
C3158 C3166 1.574 . S
C3158 C3174 1.368 . S
H3159 C3167 0.950 . S
H3160 C3165 0.950 . S
H3161 C3166 0.949 . S
H3162 C3168 0.950 . S
H3163 C3169 0.950 . S
H3164 C3170 0.949 . S
C3165 H3160 0.950 . S
C3165 C3167 1.327 . S
C3165 C3171 1.429 . S
C3166 C3158 1.574 . S
C3166 H3161 0.949 . S
C3166 C3172 1.368 . S
C3167 C3151 1.349 . S
C3167 H3159 0.950 . S
C3167 C3165 1.327 . S
C3168 C3156 1.349 . S
C3168 H3162 0.950 . S
C3168 C3169 1.327 . S
C3169 H3163 0.950 . S
C3169 C3168 1.327 . S
C3169 C3173 1.429 . S
C3170 C3153 1.574 . S
C3170 H3164 0.949 . S
C3170 C3174 1.368 . S
C3171 C3152 1.429 . S
C3171 C3165 1.429 . S
C3171 C3172 1.523 . S
C3172 C3153 1.368 . S
C3172 C3166 1.368 . S
C3172 C3171 1.523 . S
C3173 C3157 1.429 . S
C3173 C3169 1.429 . S
C3173 C3174 1.523 . S
C3174 C3158 1.368 . S
C3174 C3170 1.368 . S
C3174 C3173 1.523 . S
H3175 C3150 0.950 . S
H3176 C3152 0.950 . S
H3177 C3153 0.949 . S
H3178 C3155 0.950 . S
H3179 C3157 0.950 . S
C3180 C3181 1.349 . S
C3180 C3182 1.327 . S
C3180 H3205 0.950 . S
C3181 C3180 1.349 . S
C3181 C3197 1.349 . S
C3182 C3180 1.327 . S
C3182 C3201 1.429 . S
C3182 H3206 0.950 . S
C3183 C3200 1.574 . S
C3183 C3202 1.368 . S
C3183 H3207 0.949 . S
H3184 C3188 0.949 . S
C3185 C3186 1.349 . S
C3185 C3187 1.327 . S
C3185 H3208 0.950 . S
C3186 C3185 1.349 . S
C3186 C3198 1.349 . S
C3187 C3185 1.327 . S
C3187 C3203 1.429 . S
C3187 H3209 0.950 . S
C3188 H3184 0.949 . S
C3188 C3196 1.574 . S
C3188 C3204 1.368 . S
H3189 C3197 0.950 . S
H3190 C3195 0.950 . S
H3191 C3196 0.949 . S
H3192 C3198 0.950 . S
H3193 C3199 0.950 . S
H3194 C3200 0.949 . S
C3195 H3190 0.950 . S
C3195 C3197 1.327 . S
C3195 C3201 1.429 . S
C3196 C3188 1.574 . S
C3196 H3191 0.949 . S
C3196 C3202 1.368 . S
C3197 C3181 1.349 . S
C3197 H3189 0.950 . S
C3197 C3195 1.327 . S
C3198 C3186 1.349 . S
C3198 H3192 0.950 . S
C3198 C3199 1.327 . S
C3199 H3193 0.950 . S
C3199 C3198 1.327 . S
C3199 C3203 1.429 . S
C3200 C3183 1.574 . S
C3200 H3194 0.949 . S
C3200 C3204 1.368 . S
C3201 C3182 1.429 . S
C3201 C3195 1.429 . S
C3201 C3202 1.523 . S
C3202 C3183 1.368 . S
C3202 C3196 1.368 . S
C3202 C3201 1.523 . S
C3203 C3187 1.429 . S
C3203 C3199 1.429 . S
C3203 C3204 1.523 . S
C3204 C3188 1.368 . S
C3204 C3200 1.368 . S
C3204 C3203 1.523 . S
H3205 C3180 0.950 . S
H3206 C3182 0.950 . S
H3207 C3183 0.949 . S
H3208 C3185 0.950 . S
H3209 C3187 0.950 . S
C3210 C3211 1.349 . S
C3210 C3212 1.327 . S
C3210 H3235 0.950 . S
C3211 C3210 1.349 . S
C3211 C3227 1.349 . S
C3212 C3210 1.327 . S
C3212 C3231 1.429 . S
C3212 H3236 0.950 . S
C3213 C3230 1.574 . S
C3213 C3232 1.368 . S
C3213 H3237 0.949 . S
H3214 C3218 0.949 . S
C3215 C3216 1.349 . S
C3215 C3217 1.327 . S
C3215 H3238 0.950 . S
C3216 C3215 1.349 . S
C3216 C3228 1.349 . S
C3217 C3215 1.327 . S
C3217 C3233 1.429 . S
C3217 H3239 0.950 . S
C3218 H3214 0.949 . S
C3218 C3226 1.574 . S
C3218 C3234 1.368 . S
H3219 C3227 0.950 . S
H3220 C3225 0.950 . S
H3221 C3226 0.949 . S
H3222 C3228 0.950 . S
H3223 C3229 0.950 . S
H3224 C3230 0.949 . S
C3225 H3220 0.950 . S
C3225 C3227 1.327 . S
C3225 C3231 1.429 . S
C3226 C3218 1.574 . S
C3226 H3221 0.949 . S
C3226 C3232 1.368 . S
C3227 C3211 1.349 . S
C3227 H3219 0.950 . S
C3227 C3225 1.327 . S
C3228 C3216 1.349 . S
C3228 H3222 0.950 . S
C3228 C3229 1.327 . S
C3229 H3223 0.950 . S
C3229 C3228 1.327 . S
C3229 C3233 1.429 . S
C3230 C3213 1.574 . S
C3230 H3224 0.949 . S
C3230 C3234 1.368 . S
C3231 C3212 1.429 . S
C3231 C3225 1.429 . S
C3231 C3232 1.523 . S
C3232 C3213 1.368 . S
C3232 C3226 1.368 . S
C3232 C3231 1.523 . S
C3233 C3217 1.429 . S
C3233 C3229 1.429 . S
C3233 C3234 1.523 . S
C3234 C3218 1.368 . S
C3234 C3230 1.368 . S
C3234 C3233 1.523 . S
H3235 C3210 0.950 . S
H3236 C3212 0.950 . S
H3237 C3213 0.949 . S
H3238 C3215 0.950 . S
H3239 C3217 0.950 . S
C1086 C810 0.960 . S
C1081 C765 0.975 . S
C1111 C701 1.025 . S
C1116 C804 1.001 . S
C1146 C772 1.146 . S
C1141 C669 1.179 . S
C1171 C733 1.182 . S
C1176 C786 1.140 . S
C1206 C824 1.643 . S
C1201 C541 1.710 . S
C1236 C911 1.079 . S
C1231 C573 1.074 . S
C1261 C605 1.792 . S
C1266 C838 1.728 . S
C1296 C906 0.706 . S
C1291 C637 0.704 . S
C1321 C413 1.766 . S
C1326 C862 1.724 . S
C1356 C917 1.176 . S
C1351 C445 1.170 . S
C1381 C477 1.667 . S
C1386 C856 1.649 . S
C1411 C509 0.730 . S
C1416 C902 0.730 . S
C1446 C958 0.751 . S
C1441 C381 0.751 . S
C1471 C317 1.249 . S
C1476 C969 1.256 . S
C1501 C285 0.849 . S
C1506 C954 0.853 . S
C1536 C963 1.289 . S
C1531 C349 1.291 1_554 S
C1561 C157 1.124 1_455 S
C1566 C1008 1.104 . S
C1591 C189 0.270 . S
C1596 C1067 0.291 . S
C1621 C221 1.307 . S
C1626 C1024 1.251 . S
C1651 C253 0.664 . S
C1656 C1062 0.668 . S
C1686 C1026 1.289 . S
C1681 C29 1.328 . S
C1716 C1073 0.281 . S
C1711 C61 0.377 . S
C1741 C93 1.105 . S
C1746 C1002 1.078 . S
C1776 C1058 0.616 . S
C1771 C125 0.605 1_545 S
C1806 C794 1.691 . S
C1801 C23 1.693 . S
C1831 C55 1.375 . S
C1836 C798 1.423 . S
C1861 C87 1.727 . S
C1866 C818 1.695 . S
C1891 C113 1.058 1_545 S
C1896 C813 1.087 . S
C1921 C151 1.761 1_455 S
C1926 C816 1.729 . S
C1956 C802 1.372 . S
C1951 C183 1.345 . S
C1981 C215 1.689 . S
C1986 C800 1.665 . S
C2016 C807 1.064 . S
C2011 C247 1.026 . S
C2046 C870 1.680 . S
C2041 C119 1.714 1_545 S
C2071 C17 2.057 . S
C2076 C920 2.055 . S
C2106 C868 1.318 . S
C2101 C49 1.338 . S
C2136 C904 1.928 . S
C2131 C81 1.946 . S
C2161 C177 1.261 . S
C2166 C846 1.239 . S
C2196 C922 2.017 . S
C2191 C209 2.029 . S
C2226 C852 1.640 . S
C2221 C241 1.673 . S
C2256 C898 1.954 . S
C2251 C145 1.979 1_455 S
C2286 C890 1.710 . S
C2281 C279 1.667 . S
C2311 C305 1.496 . S
C2316 C914 1.537 . S
C2346 C850 1.367 . S
C2341 C273 1.333 . S
C2376 C876 1.564 . S
C2371 C337 1.529 1_554 S
C2401 C375 1.256 . S
C2406 C854 1.294 . S
C2431 C369 1.606 . S
C2436 C908 1.641 . S
C2466 C865 1.697 . S
C2461 C311 1.604 . S
C2496 C859 1.744 . S
C2491 C343 1.655 1_554 S
C2526 C942 2.173 . S
C2521 C407 2.136 . S
C2556 C974 1.715 . S
C2551 C439 1.655 . S
C2581 C471 2.086 . S
C2586 C928 2.145 . S
C2616 C972 1.291 . S
C2611 C497 1.284 . S
C2646 C960 2.115 . S
C2641 C535 2.083 . S
C2671 C561 1.573 . S
C2676 C956 1.620 . S
C2701 C599 2.174 . S
C2706 C966 2.208 . S
C2736 C950 1.232 . S
C2731 C631 1.210 . S
C2766 C1015 1.555 . S
C2761 C503 1.525 . S
C2791 C401 1.744 . S
C2796 C1076 1.780 . S
C2826 C1010 1.257 . S
C2821 C433 1.189 . S
C2856 C1060 1.747 . S
C2851 C465 1.676 . S
C2886 C1006 1.166 . S
C2881 C567 1.100 . S
C2911 C593 1.690 . S
C2916 C1078 1.709 . S
C2946 C1021 1.512 . S
C2941 C625 1.495 . S
C2976 C1054 1.622 . S
C2971 C529 1.615 . S
C3006 C1046 1.836 . S
C3001 C663 1.831 . S
C3031 C689 1.956 . S
C3036 C1070 1.926 . S
C3066 C1012 1.558 . S
C3061 C657 1.582 . S
C3091 C721 2.004 . S
C3096 C1032 1.993 . S
C3126 C994 1.592 . S
C3121 C759 1.616 . S
C3156 C1064 1.738 . S
C3151 C753 1.740 . S
C3186 C980 1.563 . S
C3181 C695 1.599 . S
C3211 C727 1.526 . S
C3216 C1018 1.508 . S
