# Generated by pormake.
# Topology pto, (3,4)-cn, num edge types: 1
# Building blocks:
#     Node 0, Type 0, BuildingBlock: WUSLED_clean_sbu_0, # of connection points: 3
#     Node 1, Type 0, BuildingBlock: WUSLED_clean_sbu_0, # of connection points: 3
#     Node 2, Type 0, BuildingBlock: WUSLED_clean_sbu_0, # of connection points: 3
#     Node 3, Type 0, BuildingBlock: WUSLED_clean_sbu_0, # of connection points: 3
#     Node 4, Type 0, BuildingBlock: WUSLED_clean_sbu_0, # of connection points: 3
#     Node 5, Type 0, BuildingBlock: WUSLED_clean_sbu_0, # of connection points: 3
#     Node 6, Type 0, BuildingBlock: WUSLED_clean_sbu_0, # of connection points: 3
#     Node 7, Type 0, BuildingBlock: WUSLED_clean_sbu_0, # of connection points: 3
#     Node 8, Type 1, BuildingBlock: AZAVOO_clean_linker_0, # of connection points: 4
#     Node 9, Type 1, BuildingBlock: AZAVOO_clean_linker_0, # of connection points: 4
#     Node 10, Type 1, BuildingBlock: AZAVOO_clean_linker_0, # of connection points: 4
#     Node 11, Type 1, BuildingBlock: AZAVOO_clean_linker_0, # of connection points: 4
#     Node 12, Type 1, BuildingBlock: AZAVOO_clean_linker_0, # of connection points: 4
#     Node 13, Type 1, BuildingBlock: AZAVOO_clean_linker_0, # of connection points: 4
#     Edge 14, Type (0, 1), BuildingBlock: OJICUG_clean_linker_0, # of connection points: 2
#     Edge 15, Type (0, 1), BuildingBlock: OJICUG_clean_linker_0, # of connection points: 2
#     Edge 16, Type (0, 1), BuildingBlock: OJICUG_clean_linker_0, # of connection points: 2
#     Edge 17, Type (0, 1), BuildingBlock: OJICUG_clean_linker_0, # of connection points: 2
#     Edge 18, Type (0, 1), BuildingBlock: OJICUG_clean_linker_0, # of connection points: 2
#     Edge 19, Type (0, 1), BuildingBlock: OJICUG_clean_linker_0, # of connection points: 2
#     Edge 20, Type (0, 1), BuildingBlock: OJICUG_clean_linker_0, # of connection points: 2
#     Edge 21, Type (0, 1), BuildingBlock: OJICUG_clean_linker_0, # of connection points: 2
#     Edge 22, Type (0, 1), BuildingBlock: OJICUG_clean_linker_0, # of connection points: 2
#     Edge 23, Type (0, 1), BuildingBlock: OJICUG_clean_linker_0, # of connection points: 2
#     Edge 24, Type (0, 1), BuildingBlock: OJICUG_clean_linker_0, # of connection points: 2
#     Edge 25, Type (0, 1), BuildingBlock: OJICUG_clean_linker_0, # of connection points: 2
#     Edge 26, Type (0, 1), BuildingBlock: OJICUG_clean_linker_0, # of connection points: 2
#     Edge 27, Type (0, 1), BuildingBlock: OJICUG_clean_linker_0, # of connection points: 2
#     Edge 28, Type (0, 1), BuildingBlock: OJICUG_clean_linker_0, # of connection points: 2
#     Edge 29, Type (0, 1), BuildingBlock: OJICUG_clean_linker_0, # of connection points: 2
#     Edge 30, Type (0, 1), BuildingBlock: OJICUG_clean_linker_0, # of connection points: 2
#     Edge 31, Type (0, 1), BuildingBlock: OJICUG_clean_linker_0, # of connection points: 2
#     Edge 32, Type (0, 1), BuildingBlock: OJICUG_clean_linker_0, # of connection points: 2
#     Edge 33, Type (0, 1), BuildingBlock: OJICUG_clean_linker_0, # of connection points: 2
#     Edge 34, Type (0, 1), BuildingBlock: OJICUG_clean_linker_0, # of connection points: 2
#     Edge 35, Type (0, 1), BuildingBlock: OJICUG_clean_linker_0, # of connection points: 2
#     Edge 36, Type (0, 1), BuildingBlock: OJICUG_clean_linker_0, # of connection points: 2
#     Edge 37, Type (0, 1), BuildingBlock: OJICUG_clean_linker_0, # of connection points: 2
# Relax obj value: 0.059
# Max RMSD: 0.245
# Mean RMSD: 0.095
data_MOF--net-pto--node1-WUSLED_clean_sbu_0--node2-AZAVOO_clean_linker_0--edge1-OJICUG_clean_linker_0
_symmetry_space_group_name_H-M    P1
_symmetry_Int_Tables_number       1
_symmetry_cell_setting            triclinic
loop_
_symmetry_equiv_pos_as_xyz
'x, y, z'
_cell_length_a     49.966401
_cell_length_b     49.851163
_cell_length_c     49.661596
_cell_angle_alpha  90.020256
_cell_angle_beta   91.122653
_cell_angle_gamma 90.451227
loop_
_atom_site_label
_atom_site_type_symbol
_atom_site_fract_x
_atom_site_fract_y
_atom_site_fract_z
_atom_type_partial_charge
C0 C 0.24455 0.24921 0.30768 0.0
C1 C 0.26734 0.23294 0.30734 0.0
C2 C 0.24935 0.20527 0.34336 0.0
C3 C 0.26975 0.2112 0.32505 0.0
C4 C 0.22643 0.22154 0.34331 0.0
C5 C 0.22409 0.24329 0.32566 0.0
U6 U 0.26633 0.28845 0.24595 0.0
O7 O 0.2424 0.30925 0.21479 0.0
O8 O 0.27142 0.33186 0.23978 0.0
C9 C 0.25214 0.33297 0.22141 0.0
C10 C 0.24185 0.27233 0.28943 0.0
C11 C 0.23226 0.35423 0.22499 0.0
C12 C 0.19992 0.3777 0.25217 0.0
C13 C 0.21879 0.35729 0.24933 0.0
C14 C 0.20773 0.39203 0.20636 0.0
C15 C 0.19411 0.39527 0.23067 0.0
C16 C 0.22662 0.37172 0.20359 0.0
C17 C 0.32351 0.26043 0.20405 0.0
C18 C 0.34696 0.28518 0.1694 0.0
C19 C 0.35387 0.23738 0.17446 0.0
C20 C 0.33598 0.23686 0.19573 0.0
C21 C 0.35968 0.26155 0.1611 0.0
C22 C 0.32893 0.28461 0.19065 0.0
C23 C 0.30518 0.25929 0.22684 0.0
O24 O 0.26202 0.28943 0.28991 0.0
O25 O 0.23313 0.26668 0.26492 0.0
O26 O 0.3089 0.2777 0.24554 0.0
O27 O 0.27982 0.25519 0.22051 0.0
H28 H 0.28333 0.23717 0.2935 0.0
H29 H 0.28779 0.19932 0.32469 0.0
H30 H 0.21011 0.21733 0.35675 0.0
H31 H 0.20627 0.25553 0.32606 0.0
H32 H 0.18956 0.37943 0.27104 0.0
H33 H 0.2228 0.34385 0.26604 0.0
H34 H 0.20398 0.40537 0.18952 0.0
H35 H 0.23686 0.36968 0.18467 0.0
H36 H 0.35081 0.30406 0.15935 0.0
H37 H 0.36357 0.21891 0.16883 0.0
H38 H 0.33205 0.21803 0.20587 0.0
H39 H 0.31933 0.303 0.1967 0.0
C40 C 0.24507 0.82594 0.69848 0.0
C41 C 0.26866 0.84145 0.69836 0.0
C42 C 0.25126 0.86764 0.66037 0.0
C43 C 0.27175 0.86208 0.67942 0.0
C44 C 0.22767 0.85203 0.66077 0.0
C45 C 0.22465 0.83144 0.67961 0.0
U46 U 0.26268 0.78646 0.76325 0.0
O47 O 0.23562 0.76741 0.79218 0.0
O48 O 0.2637 0.7428 0.76963 0.0
C49 C 0.244 0.74312 0.78678 0.0
C50 C 0.24132 0.80374 0.71771 0.0
C51 C 0.22311 0.72238 0.78307 0.0
C52 C 0.18937 0.69884 0.75588 0.0
C53 C 0.20863 0.71935 0.75874 0.0
C54 C 0.19878 0.68457 0.8017 0.0
C55 C 0.18438 0.68104 0.7773 0.0
C56 C 0.21792 0.70499 0.8045 0.0
C57 C 0.31919 0.80785 0.81146 0.0
C58 C 0.33652 0.77882 0.84702 0.0
C59 C 0.34921 0.8258 0.84625 0.0
C60 C 0.33345 0.82945 0.82294 0.0
C61 C 0.35108 0.8004 0.8585 0.0
C62 C 0.32063 0.78254 0.82379 0.0
C63 C 0.30298 0.81201 0.78669 0.0
O64 O 0.26049 0.78585 0.71897 0.0
O65 O 0.23237 0.81044 0.74148 0.0
O66 O 0.27785 0.81838 0.79036 0.0
O67 O 0.30596 0.79404 0.76761 0.0
H68 H 0.28465 0.83757 0.71285 0.0
H69 H 0.29006 0.87386 0.67988 0.0
H70 H 0.21164 0.8554 0.6462 0.0
H71 H 0.20634 0.81963 0.67931 0.0
H72 H 0.17877 0.6966 0.73678 0.0
H73 H 0.21238 0.73265 0.74196 0.0
H74 H 0.19513 0.67164 0.81877 0.0
H75 H 0.22881 0.70713 0.82348 0.0
H76 H 0.33728 0.75908 0.8561 0.0
H77 H 0.3604 0.84277 0.85433 0.0
H78 H 0.33256 0.84914 0.81374 0.0
H79 H 0.30957 0.76563 0.81537 0.0
C80 C 0.70338 0.788 0.22236 0.0
C81 C 0.69867 0.76372 0.20865 0.0
C82 C 0.66199 0.78404 0.18286 0.0
C83 C 0.67809 0.76174 0.18912 0.0
C84 C 0.66709 0.80837 0.19647 0.0
C85 C 0.68753 0.81028 0.21601 0.0
U86 U 0.77099 0.771 0.25749 0.0
O87 O 0.79957 0.79783 0.27843 0.0
O88 O 0.77953 0.76581 0.30091 0.0
C89 C 0.79501 0.78723 0.30216 0.0
C90 C 0.72387 0.79052 0.24403 0.0
C91 C 0.79 0.80613 0.32444 0.0
C92 C 0.78266 0.8513 0.34123 0.0
C93 C 0.78539 0.83352 0.31969 0.0
C94 C 0.78833 0.81458 0.37265 0.0
C95 C 0.78432 0.84212 0.36802 0.0
C96 C 0.79124 0.79684 0.3511 0.0
C97 C 0.82076 0.72179 0.22935 0.0
C98 C 0.85923 0.70696 0.256 0.0
C99 C 0.85616 0.69652 0.20839 0.0
C100 C 0.83166 0.70988 0.20652 0.0
C101 C 0.87018 0.69477 0.23319 0.0
C102 C 0.8348 0.72044 0.25407 0.0
C103 C 0.79496 0.73579 0.22715 0.0
O104 O 0.72712 0.76953 0.25976 0.0
O105 O 0.74656 0.80209 0.23747 0.0
O106 O 0.7967 0.76181 0.22323 0.0
O107 O 0.77721 0.72915 0.24524 0.0
H108 H 0.71074 0.74627 0.21316 0.0
H109 H 0.67494 0.74282 0.17877 0.0
H110 H 0.65492 0.82584 0.19239 0.0
H111 H 0.69077 0.82916 0.22645 0.0
H112 H 0.77999 0.87239 0.33682 0.0
H113 H 0.78437 0.84136 0.29936 0.0
H114 H 0.7893 0.8067 0.39296 0.0
H115 H 0.79481 0.77582 0.35529 0.0
H116 H 0.86964 0.70624 0.27532 0.0
H117 H 0.86387 0.68709 0.19052 0.0
H118 H 0.82114 0.71079 0.18726 0.0
H119 H 0.82683 0.72977 0.27189 0.0
C120 C 0.78876 0.16268 0.75001 0.0
C121 C 0.81277 0.16314 0.73585 0.0
C122 C 0.79735 0.12514 0.7086 0.0
C123 C 0.81706 0.14448 0.71536 0.0
C124 C 0.77345 0.12467 0.72315 0.0
C125 C 0.76923 0.14327 0.74367 0.0
U126 U 0.80473 0.22883 0.7858 0.0
O127 O 0.77783 0.26044 0.7994 0.0
O128 O 0.80291 0.23896 0.82895 0.0
C129 C 0.78319 0.2559 0.82501 0.0
C130 C 0.78342 0.18276 0.77083 0.0
C131 C 0.75974 0.25194 0.84206 0.0
C132 C 0.71433 0.23559 0.84831 0.0
C133 C 0.73696 0.23804 0.83237 0.0
C134 C 0.73732 0.25996 0.88423 0.0
C135 C 0.71419 0.24671 0.87433 0.0
C136 C 0.75986 0.26262 0.86817 0.0
C137 C 0.86257 0.273 0.7629 0.0
C138 C 0.87658 0.31334 0.787 0.0
C139 C 0.89323 0.30457 0.74236 0.0
C140 C 0.87844 0.28067 0.74126 0.0
C141 C 0.89243 0.32122 0.76521 0.0
C142 C 0.86166 0.28947 0.7858 0.0
C143 C 0.84645 0.24826 0.76089 0.0
O144 O 0.80167 0.18502 0.79015 0.0
O145 O 0.77494 0.20601 0.76176 0.0
O146 O 0.82171 0.25156 0.75216 0.0
O147 O 0.84839 0.23176 0.78149 0.0
H148 H 0.82806 0.17807 0.74048 0.0
H149 H 0.83581 0.14524 0.70479 0.0
H150 H 0.75766 0.1104 0.71822 0.0
H151 H 0.75052 0.14276 0.75432 0.0
H152 H 0.69692 0.22498 0.8403 0.0
H153 H 0.73655 0.22936 0.81236 0.0
H154 H 0.73772 0.2689 0.90412 0.0
H155 H 0.77729 0.27335 0.876 0.0
H156 H 0.87534 0.32585 0.80475 0.0
H157 H 0.9055 0.3099 0.7254 0.0
H158 H 0.87931 0.26822 0.72341 0.0
H159 H 0.84928 0.28395 0.80262 0.0
C160 C 0.84047 0.71212 0.78662 0.0
C161 C 0.85023 0.70653 0.76089 0.0
C162 C 0.88634 0.68011 0.7807 0.0
C163 C 0.87283 0.69054 0.75796 0.0
C164 C 0.87689 0.68626 0.80646 0.0
C165 C 0.85407 0.70206 0.80937 0.0
U166 U 0.79586 0.76857 0.76238 0.0
O167 O 0.752 0.77135 0.75837 0.0
O168 O 0.77431 0.79978 0.78426 0.0
C169 C 0.75069 0.79105 0.77587 0.0
C170 C 0.81635 0.72855 0.78987 0.0
C171 C 0.73031 0.78803 0.79663 0.0
C172 C 0.71592 0.77215 0.84034 0.0
C173 C 0.73551 0.77394 0.8206 0.0
C174 C 0.6857 0.79808 0.81207 0.0
C175 C 0.69084 0.78441 0.83639 0.0
C176 C 0.70526 0.79987 0.79243 0.0
C177 C 0.81737 0.80778 0.70008 0.0
C178 C 0.78849 0.83511 0.67145 0.0
C179 C 0.83659 0.84144 0.67073 0.0
C180 C 0.83974 0.82121 0.68996 0.0
C181 C 0.81094 0.84857 0.66109 0.0
C182 C 0.79167 0.81497 0.69085 0.0
C183 C 0.82137 0.78653 0.72029 0.0
O184 O 0.82079 0.7538 0.79629 0.0
O185 O 0.79761 0.72543 0.77113 0.0
O186 O 0.80437 0.76626 0.7192 0.0
O187 O 0.82655 0.79491 0.74495 0.0
H188 H 0.84029 0.71441 0.74303 0.0
H189 H 0.87984 0.68641 0.73789 0.0
H190 H 0.88677 0.67835 0.82433 0.0
H191 H 0.84694 0.70628 0.82938 0.0
H192 H 0.72062 0.76166 0.85891 0.0
H193 H 0.75476 0.7646 0.82414 0.0
H194 H 0.66648 0.80732 0.80812 0.0
H195 H 0.70086 0.81068 0.77396 0.0
H196 H 0.76847 0.83986 0.66432 0.0
H197 H 0.85429 0.8517 0.66364 0.0
H198 H 0.85972 0.81609 0.69701 0.0
H199 H 0.77408 0.80495 0.69853 0.0
C200 C 0.68292 0.26294 0.24171 0.0
C201 C 0.67987 0.28664 0.22681 0.0
C202 C 0.64177 0.26701 0.2023 0.0
C203 C 0.65941 0.2887 0.20732 0.0
C204 C 0.6448 0.24343 0.21759 0.0
C205 C 0.66521 0.24144 0.23713 0.0
U206 U 0.74968 0.28623 0.27221 0.0
O207 O 0.78481 0.26292 0.28494 0.0
O208 O 0.76355 0.28704 0.31458 0.0
C209 C 0.78193 0.26885 0.31052 0.0
C210 C 0.705 0.26003 0.26139 0.0
C211 C 0.78146 0.24582 0.32897 0.0
C212 C 0.76772 0.20022 0.33943 0.0
C213 C 0.76765 0.22214 0.3219 0.0
C214 C 0.79473 0.22569 0.37162 0.0
C215 C 0.78132 0.20175 0.36443 0.0
C216 C 0.79485 0.24752 0.35396 0.0
C217 C 0.78603 0.34724 0.24522 0.0
C218 C 0.83312 0.35576 0.25527 0.0
C219 C 0.80557 0.39095 0.23601 0.0
C220 C 0.78345 0.37358 0.23574 0.0
C221 C 0.83068 0.38216 0.24563 0.0
C222 C 0.81096 0.33849 0.2552 0.0
C223 C 0.76269 0.3291 0.24471 0.0
O224 O 0.72811 0.25359 0.25109 0.0
O225 O 0.70703 0.27895 0.27979 0.0
O226 O 0.74768 0.32995 0.26613 0.0
O227 O 0.76737 0.30455 0.23645 0.0
H228 H 0.69346 0.30343 0.23007 0.0
H229 H 0.65746 0.30725 0.19615 0.0
H230 H 0.63188 0.22621 0.21398 0.0
H231 H 0.66743 0.22294 0.24837 0.0
H232 H 0.75694 0.18215 0.33352 0.0
H233 H 0.75691 0.22055 0.30279 0.0
H234 H 0.80553 0.22735 0.39068 0.0
H235 H 0.80552 0.2657 0.35976 0.0
H236 H 0.85212 0.34855 0.26314 0.0
H237 H 0.80314 0.41111 0.22828 0.0
H238 H 0.76434 0.38067 0.22804 0.0
H239 H 0.81328 0.31828 0.26289 0.0
C240 C 0.25004 0.21839 0.70031 0.0
C241 C 0.25662 0.19354 0.71194 0.0
C242 C 0.25637 0.17255 0.66762 0.0
C243 C 0.25959 0.1708 0.69576 0.0
C244 C 0.24993 0.19752 0.65607 0.0
C245 C 0.24673 0.22018 0.67228 0.0
U246 U 0.27042 0.26017 0.76145 0.0
O247 O 0.27593 0.3037 0.76659 0.0
O248 O 0.24646 0.28207 0.79087 0.0
C249 C 0.25687 0.30543 0.78439 0.0
C250 C 0.24703 0.24262 0.71703 0.0
C251 C 0.2379 0.32774 0.78123 0.0
C252 C 0.21334 0.36025 0.75403 0.0
C253 C 0.23063 0.33827 0.7559 0.0
C254 C 0.21025 0.36109 0.80264 0.0
C255 C 0.20294 0.37188 0.77742 0.0
C256 C 0.22754 0.3393 0.80449 0.0
C257 C 0.32549 0.2343 0.80876 0.0
C258 C 0.33157 0.24455 0.85641 0.0
C259 C 0.36931 0.23014 0.83032 0.0
C260 C 0.35274 0.22815 0.8074 0.0
C261 C 0.3589 0.2381 0.85521 0.0
C262 C 0.31506 0.24279 0.83339 0.0
C263 C 0.3084 0.23166 0.78434 0.0
O264 O 0.23718 0.23872 0.7411 0.0
O265 O 0.26746 0.25941 0.7171 0.0
O266 O 0.31298 0.24921 0.76521 0.0
O267 O 0.28278 0.22731 0.78825 0.0
H268 H 0.25959 0.19171 0.73353 0.0
H269 H 0.26486 0.15194 0.70522 0.0
H270 H 0.24709 0.19947 0.63448 0.0
H271 H 0.24172 0.23917 0.66291 0.0
H272 H 0.20787 0.36794 0.7343 0.0
H273 H 0.23837 0.32961 0.73765 0.0
H274 H 0.20294 0.36978 0.82106 0.0
H275 H 0.23306 0.33158 0.82421 0.0
H276 H 0.32279 0.25051 0.87523 0.0
H277 H 0.39034 0.22559 0.82844 0.0
H278 H 0.36123 0.2218 0.78855 0.0
H279 H 0.2941 0.24786 0.83494 0.0
C280 C 0.2168 0.72784 0.27063 0.0
C281 C 0.20545 0.72419 0.24474 0.0
C282 C 0.17952 0.68586 0.26057 0.0
C283 C 0.18691 0.70346 0.2398 0.0
C284 C 0.1913 0.68932 0.2863 0.0
C285 C 0.20966 0.71013 0.29127 0.0
U286 U 0.27833 0.77268 0.25707 0.0
O287 O 0.28308 0.81642 0.262 0.0
O288 O 0.30825 0.789 0.2858 0.0
C289 C 0.30074 0.81393 0.28179 0.0
C290 C 0.23524 0.75039 0.27702 0.0
C291 C 0.29564 0.82985 0.30618 0.0
C292 C 0.27914 0.83397 0.3518 0.0
C293 C 0.28303 0.81858 0.32859 0.0
C294 C 0.29984 0.87218 0.3302 0.0
C295 C 0.28769 0.86095 0.35298 0.0
C296 C 0.30382 0.85677 0.30712 0.0
C297 C 0.32192 0.75802 0.19511 0.0
C298 C 0.34743 0.78626 0.16466 0.0
C299 C 0.3593 0.73963 0.17062 0.0
C300 C 0.33858 0.73646 0.18888 0.0
C301 C 0.36379 0.76446 0.15794 0.0
C302 C 0.3267 0.78308 0.18305 0.0
C303 C 0.29896 0.75322 0.21294 0.0
O304 O 0.25963 0.74381 0.28471 0.0
O305 O 0.23456 0.77109 0.2606 0.0
O306 O 0.27992 0.7713 0.21285 0.0
O307 O 0.30477 0.74396 0.23712 0.0
H308 H 0.21069 0.73747 0.22838 0.0
H309 H 0.1784 0.70115 0.21969 0.0
H310 H 0.18582 0.67635 0.30283 0.0
H311 H 0.21805 0.71263 0.31141 0.0
H312 H 0.26988 0.82457 0.36896 0.0
H313 H 0.27641 0.79783 0.32824 0.0
H314 H 0.30615 0.89302 0.33009 0.0
H315 H 0.31339 0.8659 0.28996 0.0
H316 H 0.35015 0.80561 0.15515 0.0
H317 H 0.37177 0.72253 0.16638 0.0
H318 H 0.33531 0.71694 0.19789 0.0
H319 H 0.31418 0.80011 0.18742 0.0
H320 H 0.03743 0.35219 0.26945 0.0
H321 H 0.84728 0.5909 0.21143 0.0
H322 H 0.06384 0.49334 0.28574 0.0
H323 H 0.10412 0.46613 0.28293 0.0
H324 H 0.11412 0.49204 0.20065 0.0
H325 H 0.07322 0.51856 0.20347 0.0
H326 H 0.00824 0.4644 0.28544 0.0
H327 H 0.01774 0.41631 0.28638 0.0
H328 H 0.0459 0.42109 0.2047 0.0
H329 H 0.03596 0.46907 0.20392 0.0
H330 H 0.95478 0.50016 0.28459 0.0
H331 H 0.91638 0.46933 0.28523 0.0
H332 H 0.93507 0.44247 0.20507 0.0
H333 H 0.97328 0.47361 0.2045 0.0
H334 H 0.95613 0.55773 0.28355 0.0
H335 H 0.91165 0.57787 0.28111 0.0
H336 H 0.90522 0.55665 0.19676 0.0
H337 H 0.94986 0.53676 0.19949 0.0
H338 H 1.00264 0.59173 0.28207 0.0
H339 H 0.97423 0.63153 0.28082 0.0
H340 H 0.96248 0.6211 0.19499 0.0
H341 H 0.99128 0.5819 0.19645 0.0
H342 H 0.06598 0.55634 0.28544 0.0
H343 H 0.10219 0.5895 0.28842 0.0
H344 H 0.08568 0.61293 0.20596 0.0
H345 H 0.04911 0.57992 0.20343 0.0
O346 O 0.03367 0.37118 0.26859 0.0
O347 O 0.04809 0.37476 0.22665 0.0
O348 O 0.86894 0.59291 0.25653 0.0
O349 O 0.86455 0.58238 0.21314 0.0
C350 C 0.03766 0.51814 0.24428 0.0
C351 C 0.01609 0.49946 0.24429 0.0
C352 C 0.98943 0.50857 0.24387 0.0
C353 C 0.98426 0.53627 0.24259 0.0
C354 C 1.00568 0.555 0.24169 0.0
C355 C 0.03246 0.54603 0.24303 0.0
C356 C 0.06552 0.50783 0.24478 0.0
C357 C 0.07516 0.49371 0.26736 0.0
C358 C 0.09822 0.47815 0.26569 0.0
C359 C 0.11217 0.47653 0.24141 0.0
C360 C 0.10355 0.49239 0.21947 0.0
C361 C 0.08041 0.50789 0.22115 0.0
C362 C 0.02146 0.47018 0.24465 0.0
C363 C 0.01632 0.45497 0.26774 0.0
C364 C 0.02184 0.42754 0.26823 0.0
C365 C 0.03263 0.41486 0.24563 0.0
C366 C 0.03763 0.43022 0.22247 0.0
C367 C 0.03202 0.45762 0.22198 0.0
C368 C 0.96675 0.48915 0.24448 0.0
C369 C 0.95051 0.48766 0.26716 0.0
C370 C 0.92859 0.47011 0.26746 0.0
C371 C 0.9227 0.45355 0.24517 0.0
C372 C 0.93927 0.45482 0.22263 0.0
C373 C 0.96104 0.47258 0.22224 0.0
C374 C 0.95619 0.54592 0.24167 0.0
C375 C 0.94496 0.55727 0.26464 0.0
C376 C 0.91959 0.56881 0.26316 0.0
C377 C 0.90494 0.56904 0.23868 0.0
C378 C 0.916 0.55691 0.21589 0.0
C379 C 0.94141 0.54542 0.2174 0.0
C380 C 0.99896 0.58389 0.23937 0.0
C381 C 0.9951 0.59893 0.26282 0.0
C382 C 0.97843 0.62138 0.26211 0.0
C383 C 0.9655 0.62911 0.23791 0.0
C384 C 0.97209 0.61582 0.21396 0.0
C385 C 0.98875 0.59345 0.2147 0.0
C386 C 0.05488 0.56575 0.24425 0.0
C387 C 0.07029 0.56856 0.268 0.0
C388 C 0.09108 0.58745 0.26959 0.0
C389 C 0.09695 0.60391 0.2474 0.0
C390 C 0.08152 0.60086 0.22354 0.0
C391 C 0.06068 0.58196 0.222 0.0
C392 C 0.03862 0.38575 0.24627 0.0
C393 C 0.8784 0.58214 0.23678 0.0
H394 H 0.09546 0.34682 0.80587 0.0
H395 H 0.85645 0.53999 0.73592 0.0
H396 H 0.08683 0.49322 0.815 0.0
H397 H 0.12651 0.46499 0.81714 0.0
H398 H 0.13017 0.46631 0.73029 0.0
H399 H 0.09086 0.49523 0.72847 0.0
H400 H 0.04269 0.45071 0.8144 0.0
H401 H 0.06255 0.40613 0.81876 0.0
H402 H 0.07625 0.40508 0.73305 0.0
H403 H 0.05624 0.44962 0.72901 0.0
H404 H 0.97834 0.46961 0.80821 0.0
H405 H 0.94791 0.4308 0.80789 0.0
H406 H 0.97072 0.41276 0.72635 0.0
H407 H 1.00028 0.45207 0.72664 0.0
H408 H 0.96993 0.52924 0.80813 0.0
H409 H 0.92233 0.54037 0.80556 0.0
H410 H 0.92053 0.51967 0.72095 0.0
H411 H 0.96824 0.50889 0.72378 0.0
H412 H 0.01363 0.56715 0.81119 0.0
H413 H 0.98383 0.60569 0.81333 0.0
H414 H 0.97248 0.60245 0.72683 0.0
H415 H 1.00151 0.56327 0.72518 0.0
H416 H 0.08013 0.54559 0.81122 0.0
H417 H 0.11292 0.58228 0.81234 0.0
H418 H 0.09241 0.60151 0.72966 0.0
H419 H 0.05952 0.56473 0.72883 0.0
O420 O 0.08687 0.36401 0.80357 0.0
O421 O 0.09275 0.3641 0.75929 0.0
O422 O 0.87728 0.54614 0.78105 0.0
O423 O 0.8752 0.53551 0.73756 0.0
C424 C 0.0571 0.5029 0.76997 0.0
C425 C 0.03844 0.48135 0.76941 0.0
C426 C 0.01078 0.48641 0.76801 0.0
C427 C 1.00165 0.51306 0.76742 0.0
C428 C 0.02021 0.53473 0.76798 0.0
C429 C 0.04805 0.52971 0.76921 0.0
C430 C 0.08598 0.49629 0.77159 0.0
C431 C 0.09707 0.48865 0.79654 0.0
C432 C 0.11944 0.47206 0.79767 0.0
C433 C 0.13101 0.46276 0.77384 0.0
C434 C 0.12174 0.47307 0.74901 0.0
C435 C 0.09939 0.48981 0.74793 0.0
C436 C 0.0481 0.45331 0.77142 0.0
C437 C 0.0497 0.44063 0.79657 0.0
C438 C 0.06116 0.41525 0.799 0.0
C439 C 0.07112 0.4021 0.77627 0.0
C440 C 0.06883 0.41466 0.75096 0.0
C441 C 0.05736 0.44004 0.74858 0.0
C442 C 0.99145 0.46363 0.76744 0.0
C443 C 0.97648 0.4574 0.79022 0.0
C444 C 0.95931 0.43509 0.79006 0.0
C445 C 0.95689 0.41859 0.76711 0.0
C446 C 0.97177 0.4252 0.74423 0.0
C447 C 0.98882 0.44753 0.74439 0.0
C448 C 0.97247 0.5184 0.76612 0.0
C449 C 0.95918 0.52711 0.78908 0.0
C450 C 0.93201 0.53344 0.78755 0.0
C451 C 0.91763 0.53099 0.76301 0.0
C452 C 0.931 0.52183 0.74014 0.0
C453 C 0.95821 0.51558 0.7417 0.0
C454 C 0.00969 0.56246 0.76805 0.0
C455 C 1.00546 0.57542 0.79263 0.0
C456 C 0.98831 0.59741 0.79379 0.0
C457 C 0.97528 0.60689 0.77029 0.0
C458 C 0.98162 0.59527 0.74539 0.0
C459 C 0.99856 0.57316 0.74431 0.0
C460 C 0.06758 0.55234 0.76989 0.0
C461 C 0.08282 0.55764 0.79332 0.0
C462 C 0.10159 0.57859 0.79388 0.0
C463 C 0.10546 0.59476 0.77102 0.0
C464 C 0.08981 0.58961 0.74768 0.0
C465 C 0.07108 0.56856 0.74712 0.0
C466 C 0.08418 0.37558 0.77907 0.0
C467 C 0.88884 0.53801 0.7612 0.0
H468 H 0.23762 0.98957 0.3227 0.0
H469 H 0.2951 0.20003 0.54771 0.0
H470 H 0.22413 0.97516 0.46388 0.0
H471 H 0.22963 0.93625 0.43477 0.0
H472 H 0.31228 0.93037 0.46139 0.0
H473 H 0.30672 0.97004 0.48971 0.0
H474 H 0.22226 0.02861 0.4324 0.0
H475 H 0.22105 0.01491 0.38504 0.0
H476 H 0.30381 0.99063 0.39206 0.0
H477 H 0.30485 1.00484 0.43923 0.0
H478 H 0.22131 0.08451 0.46631 0.0
H479 H 0.21808 0.12132 0.43387 0.0
H480 H 0.29817 0.10451 0.4076 0.0
H481 H 0.3012 0.06766 0.44022 0.0
H482 H 0.22475 0.08758 0.52535 0.0
H483 H 0.22713 0.13363 0.54239 0.0
H484 H 0.30947 0.13936 0.51759 0.0
H485 H 0.30688 0.09315 0.50096 0.0
H486 H 0.2257 0.04042 0.55958 0.0
H487 H 0.22522 0.06994 0.59901 0.0
H488 H 0.30975 0.08548 0.59025 0.0
H489 H 0.31 0.05605 0.55088 0.0
H490 H 0.22449 0.97564 0.52512 0.0
H491 H 0.22185 0.9412 0.56002 0.0
H492 H 0.30111 0.96345 0.5889 0.0
H493 H 0.30385 0.99737 0.55331 0.0
O494 O 0.23867 0.99529 0.34132 0.0
O495 O 0.28113 0.98279 0.34612 0.0
O496 O 0.25111 0.17795 0.55316 0.0
O497 O 0.29343 0.182 0.54063 0.0
C498 C 0.26437 1.00395 0.48803 0.0
C499 C 0.26386 0.0246 0.46832 0.0
C500 C 0.26354 0.05176 0.47621 0.0
C501 C 0.26488 0.05838 0.50378 0.0
C502 C 0.26605 0.03792 0.52358 0.0
C503 C 0.26527 0.01057 0.51582 0.0
C504 C 0.26508 0.9756 0.47873 0.0
C505 C 0.24313 0.96484 0.46419 0.0
C506 C 0.24637 0.94257 0.44748 0.0
C507 C 0.27159 0.93048 0.44523 0.0
C508 C 0.29276 0.9396 0.46211 0.0
C509 C 0.28953 0.962 0.47871 0.0
C510 C 0.26361 0.01765 0.43921 0.0
C511 C 0.24016 0.02058 0.42356 0.0
C512 C 0.23951 0.01263 0.39657 0.0
C513 C 0.2623 1.00158 0.38478 0.0
C514 C 0.28588 0.99902 0.4005 0.0
C515 C 0.28654 0.00711 0.42744 0.0
C516 C 0.2615 0.07344 0.45567 0.0
C517 C 0.23815 0.08879 0.45355 0.0
C518 C 0.23639 0.10987 0.43508 0.0
C519 C 0.25792 0.11594 0.41823 0.0
C520 C 0.28115 0.10021 0.42011 0.0
C521 C 0.28295 0.0792 0.43875 0.0
C522 C 0.26568 0.08704 0.51208 0.0
C523 C 0.24323 0.09887 0.52354 0.0
C524 C 0.24466 0.12516 0.53325 0.0
C525 C 0.26854 0.14014 0.53145 0.0
C526 C 0.2908 0.12837 0.51935 0.0
C527 C 0.28936 0.10204 0.50973 0.0
C528 C 0.26786 0.04618 0.55231 0.0
C529 C 0.24436 0.04912 0.567 0.0
C530 C 0.2441 0.06618 0.58941 0.0
C531 C 0.26733 0.08051 0.59731 0.0
C532 C 0.29144 0.07511 0.58431 0.0
C533 C 0.29171 0.05798 0.56206 0.0
C534 C 0.26433 0.9891 0.53663 0.0
C535 C 0.24137 0.97293 0.53885 0.0
C536 C 0.23981 0.95342 0.559 0.0
C537 C 0.26119 0.94963 0.57748 0.0
C538 C 0.28436 0.96564 0.57494 0.0
C539 C 0.28589 0.98518 0.55473 0.0
C540 C 0.26138 0.99265 0.35626 0.0
C541 C 0.27038 0.16783 0.54238 0.0
H542 H 0.48282 0.81701 0.82795 0.0
H543 H 0.69903 0.74673 0.04225 0.0
H544 H 0.47667 0.82726 0.97551 0.0
H545 H 0.43656 0.83118 0.94706 0.0
H546 H 0.42229 0.74593 0.95486 0.0
H547 H 0.46295 0.74223 0.98305 0.0
H548 H 0.52569 0.82463 0.9382 0.0
H549 H 0.51066 0.82911 0.8912 0.0
H550 H 0.4834 0.74655 0.89164 0.0
H551 H 0.49885 0.74228 0.9385 0.0
H552 H 0.58344 0.81957 0.96793 0.0
H553 H 0.61856 0.82051 0.93429 0.0
H554 H 0.5946 0.74113 0.90774 0.0
H555 H 0.56001 0.74013 0.94205 0.0
H556 H 0.58604 0.8165 0.0295 0.0
H557 H 0.63282 0.81386 0.04471 0.0
H558 H 0.63642 0.73259 0.01454 0.0
H559 H 0.58947 0.73538 0.99982 0.0
H560 H 0.53668 0.81672 0.06282 0.0
H561 H 0.56407 0.81805 0.10424 0.0
H562 H 0.58415 0.73468 0.09294 0.0
H563 H 0.55621 0.73345 0.05205 0.0
H564 H 0.47438 0.81825 0.03371 0.0
H565 H 0.43927 0.81541 0.06745 0.0
H566 H 0.46073 0.73302 0.08335 0.0
H567 H 0.49526 0.7359 0.04921 0.0
O568 O 0.48904 0.81468 0.84637 0.0
O569 O 0.47519 0.7722 0.84774 0.0
O570 O 0.67758 0.79013 0.05166 0.0
O571 O 0.68058 0.74838 0.03628 0.0
C572 C 0.50101 0.78119 0.99049 0.0
C573 C 0.52101 0.78098 0.97064 0.0
C574 C 0.54825 0.77918 0.97824 0.0
C575 C 0.5556 0.77733 1.00571 0.0
C576 C 0.53568 0.77666 0.02566 0.0
C577 C 0.50826 0.77864 0.0181 0.0
C578 C 0.47269 0.78449 0.98143 0.0
C579 C 0.46428 0.80962 0.97199 0.0
C580 C 0.44135 0.81178 0.95559 0.0
C581 C 0.42636 0.7888 0.9483 0.0
C582 C 0.43363 0.76395 0.9597 0.0
C583 C 0.4566 0.76184 0.97619 0.0
C584 C 0.51329 0.78317 0.94169 0.0
C585 C 0.51669 0.80749 0.928 0.0
C586 C 0.50799 0.81001 0.90121 0.0
C587 C 0.49573 0.78821 0.88769 0.0
C588 C 0.49271 0.76374 0.90145 0.0
C589 C 0.50151 0.76123 0.9282 0.0
C590 C 0.56921 0.77979 0.95741 0.0
C591 C 0.58586 0.80237 0.95488 0.0
C592 C 0.60579 0.80292 0.93553 0.0
C593 C 0.60939 0.7809 0.91826 0.0
C594 C 0.5926 0.75828 0.92091 0.0
C595 C 0.57269 0.75775 0.94031 0.0
C596 C 0.58439 0.77609 0.01369 0.0
C597 C 0.59698 0.79815 0.02622 0.0
C598 C 0.6237 0.79659 0.03485 0.0
C599 C 0.63835 0.77297 0.03088 0.0
C600 C 0.62572 0.75105 0.01794 0.0
C601 C 0.59895 0.7526 0.00943 0.0
C602 C 0.54447 0.77502 0.0544 0.0
C603 C 0.54606 0.79847 0.06995 0.0
C604 C 0.56212 0.79929 0.09335 0.0
C605 C 0.57681 0.77662 0.1016 0.0
C606 C 0.57311 0.75248 0.08728 0.0
C607 C 0.55703 0.75168 0.06393 0.0
C608 C 0.4873 0.77724 0.03889 0.0
C609 C 0.4714 0.79958 0.04444 0.0
C610 C 0.4515 0.79798 0.06387 0.0
C611 C 0.4471 0.77395 0.07807 0.0
C612 C 0.46329 0.75171 0.07254 0.0
C613 C 0.48317 0.75336 0.05318 0.0
C614 C 0.48603 0.7911 0.85941 0.0
C615 C 0.66667 0.77112 0.04026 0.0
H616 H 0.73656 0.99808 0.33752 0.0
H617 H 0.83333 0.1861 0.56517 0.0
H618 H 0.74318 0.96878 0.48139 0.0
H619 H 0.7402 0.9285 0.45332 0.0
H620 H 0.82611 0.91972 0.46014 0.0
H621 H 0.82864 0.95952 0.48886 0.0
H622 H 0.74057 0.02603 0.45197 0.0
H623 H 0.73127 0.01727 0.40417 0.0
H624 H 0.81178 0.9876 0.3957 0.0
H625 H 0.82089 0.9968 0.44342 0.0
H626 H 0.75077 0.08128 0.48744 0.0
H627 H 0.74834 0.1199 0.45695 0.0
H628 H 0.82169 0.09492 0.42008 0.0
H629 H 0.82418 0.05662 0.45088 0.0
H630 H 0.75926 0.07507 0.54878 0.0
H631 H 0.76523 0.11986 0.56827 0.0
H632 H 0.84173 0.12718 0.52956 0.0
H633 H 0.83568 0.08217 0.51055 0.0
H634 H 0.76055 0.02017 0.57599 0.0
H635 H 0.76391 0.04063 0.62076 0.0
H636 H 0.84538 0.06478 0.60516 0.0
H637 H 0.84182 0.04422 0.56044 0.0
H638 H 0.75373 0.96586 0.54275 0.0
H639 H 0.7574 0.92864 0.57489 0.0
H640 H 0.84237 0.94402 0.58358 0.0
H641 H 0.83851 0.98103 0.55131 0.0
O642 O 0.74072 1.00159 0.35631 0.0
O643 O 0.78224 0.98631 0.3531 0.0
O644 O 0.79103 0.16354 0.57723 0.0
O645 O 0.83033 0.16846 0.55749 0.0
C646 C 0.78859 0.9946 0.49818 0.0
C647 C 0.78663 0.01663 0.4803 0.0
C648 C 0.78941 0.04308 0.49015 0.0
C649 C 0.79412 0.04754 0.51789 0.0
C650 C 0.79632 0.02553 0.53579 0.0
C651 C 0.79351 0.99903 0.52595 0.0
C652 C 0.78611 0.96701 0.48713 0.0
C653 C 0.7612 0.95759 0.47751 0.0
C654 C 0.75962 0.9348 0.46117 0.0
C655 C 0.78297 0.9211 0.45402 0.0
C656 C 0.80769 0.92959 0.46534 0.0
C657 C 0.80921 0.95232 0.48183 0.0
C658 C 0.78134 0.01194 0.45112 0.0
C659 C 0.75619 0.01777 0.43969 0.0
C660 C 0.75093 0.01268 0.41242 0.0
C661 C 0.77076 1.00165 0.39612 0.0
C662 C 0.79604 0.99604 0.40768 0.0
C663 C 0.80129 1.00122 0.43492 0.0
C664 C 0.78764 0.06617 0.47133 0.0
C665 C 0.76634 0.08424 0.47283 0.0
C666 C 0.76501 0.10626 0.45548 0.0
C667 C 0.78482 0.11037 0.43615 0.0
C668 C 0.806 0.09208 0.43458 0.0
C669 C 0.80747 0.07025 0.45213 0.0
C670 C 0.79707 0.07539 0.52833 0.0
C671 C 0.77727 0.08641 0.54452 0.0
C672 C 0.78073 0.11199 0.55561 0.0
C673 C 0.804 0.12708 0.55052 0.0
C674 C 0.8236 0.11609 0.53391 0.0
C675 C 0.82016 0.09045 0.52293 0.0
C676 C 0.80087 0.03088 0.56495 0.0
C677 C 0.77943 0.02898 0.58266 0.0
C678 C 0.78138 0.04077 0.60818 0.0
C679 C 0.80478 0.0547 0.61627 0.0
C680 C 0.82696 0.05457 0.59929 0.0
C681 C 0.82506 0.04263 0.57388 0.0
C682 C 0.79587 0.97604 0.54472 0.0
C683 C 0.77313 0.96104 0.55152 0.0
C684 C 0.77524 0.93996 0.56997 0.0
C685 C 0.80017 0.93343 0.58175 0.0
C686 C 0.82295 0.94839 0.57462 0.0
C687 C 0.82078 0.96957 0.55633 0.0
C688 C 0.76503 0.99603 0.36722 0.0
C689 C 0.80795 0.1541 0.56258 0.0
H690 H 0.49035 0.24626 0.83098 0.0
H691 H 0.68598 0.24398 0.0938 0.0
H692 H 0.47136 0.29239 0.97814 0.0
H693 H 0.43331 0.28874 0.94669 0.0
H694 H 0.43398 0.20246 0.95584 0.0
H695 H 0.4728 0.20642 0.98637 0.0
H696 H 0.51084 0.28549 0.94052 0.0
H697 H 0.501 0.27695 0.8928 0.0
H698 H 0.51791 0.19282 0.90499 0.0
H699 H 0.52748 0.20166 0.95275 0.0
H700 H 0.5664 0.28635 0.95222 0.0
H701 H 0.60554 0.284 0.92346 0.0
H702 H 0.62665 0.20788 0.95923 0.0
H703 H 0.58713 0.21018 0.98767 0.0
H704 H 0.59015 0.29558 0.01432 0.0
H705 H 0.63446 0.29958 0.03602 0.0
H706 H 0.62494 0.22012 0.06962 0.0
H707 H 0.58089 0.21629 0.04753 0.0
H708 H 0.54707 0.30368 0.05848 0.0
H709 H 0.56959 0.309 0.10236 0.0
H710 H 0.55409 0.22549 0.11987 0.0
H711 H 0.53153 0.22041 0.07594 0.0
H712 H 0.47899 0.29959 0.03905 0.0
H713 H 0.4418 0.30223 0.07046 0.0
H714 H 0.44561 0.21637 0.08222 0.0
H715 H 0.48216 0.214 0.05028 0.0
O716 O 0.49462 0.24924 0.84984 0.0
O717 O 0.50382 0.20623 0.85709 0.0
O718 O 0.67321 0.28308 0.06596 0.0
O719 O 0.66884 0.24269 0.08445 0.0
C720 C 0.50213 0.25144 0.99637 0.0
C721 C 0.52429 0.24911 0.97922 0.0
C722 C 0.5506 0.25042 0.98997 0.0
C723 C 0.55472 0.25409 0.0179 0.0
C724 C 0.53257 0.25665 0.03503 0.0
C725 C 0.50624 0.25506 0.02432 0.0
C726 C 0.47478 0.24968 0.98444 0.0
C727 C 0.46267 0.2728 0.97401 0.0
C728 C 0.44093 0.27063 0.95598 0.0
C729 C 0.43084 0.24525 0.9483 0.0
C730 C 0.44165 0.22227 0.96077 0.0
C731 C 0.46355 0.22448 0.97856 0.0
C732 C 0.51978 0.24417 0.95001 0.0
C733 C 0.51244 0.26525 0.93279 0.0
C734 C 0.50684 0.26031 0.90557 0.0
C735 C 0.50859 0.23418 0.89508 0.0
C736 C 0.51633 0.21316 0.91241 0.0
C737 C 0.52189 0.21815 0.93965 0.0
C738 C 0.57388 0.2484 0.97195 0.0
C739 C 0.57928 0.26901 0.95359 0.0
C740 C 0.60162 0.26763 0.9372 0.0
C741 C 0.61913 0.24575 0.93912 0.0
C742 C 0.61362 0.22508 0.9575 0.0
C743 C 0.59108 0.22633 0.97367 0.0
C744 C 0.58235 0.25569 0.02943 0.0
C745 C 0.59784 0.27897 0.02614 0.0
C746 C 0.62306 0.28124 0.03865 0.0
C747 C 0.63318 0.26021 0.05468 0.0
C748 C 0.61773 0.23672 0.05751 0.0
C749 C 0.59258 0.23446 0.0449 0.0
C750 C 0.5377 0.26167 0.06408 0.0
C751 C 0.54756 0.28685 0.07227 0.0
C752 C 0.5607 0.28975 0.09716 0.0
C753 C 0.56401 0.26754 0.1143 0.0
C754 C 0.55176 0.24298 0.10714 0.0
C755 C 0.53872 0.24006 0.08213 0.0
C756 C 0.48315 0.25662 0.04246 0.0
C757 C 0.47157 0.28139 0.04831 0.0
C758 C 0.45048 0.28285 0.06638 0.0
C759 C 0.44069 0.25951 0.07892 0.0
C760 C 0.45231 0.23469 0.07266 0.0
C761 C 0.4733 0.23327 0.05456 0.0
C762 C 0.50225 0.22894 0.86623 0.0
C763 C 0.65963 0.26277 0.06862 0.0
C764 C 0.15536 0.42178 0.2121 0.0
C765 C 0.17364 0.41664 0.23333 0.0
H766 H 0.12163 0.44431 0.19812 0.0
C767 C 0.17206 0.43193 0.25704 0.0
H768 H 0.15571 0.41009 0.19373 0.0
C769 C 0.15257 0.45178 0.25951 0.0
C770 C 0.13413 0.45675 0.23834 0.0
H771 H 0.18605 0.42873 0.27363 0.0
H772 H 0.15198 0.46327 0.27799 0.0
C773 C 0.13586 0.44153 0.21459 0.0
C774 C 0.13966 0.66258 0.76119 0.0
C775 C 0.16447 0.65872 0.77445 0.0
H776 H 0.10145 0.64563 0.75 0.0
C777 C 0.16995 0.63341 0.78571 0.0
H778 H 0.13467 0.68187 0.75252 0.0
C779 C 0.15095 0.61271 0.78432 0.0
C780 C 0.12592 0.6167 0.77159 0.0
H781 H 0.18906 0.6295 0.79555 0.0
H782 H 0.15596 0.59347 0.79311 0.0
C783 C 0.1206 0.6418 0.75977 0.0
C784 C 0.9004 0.66212 0.25713 0.0
C785 C 0.89569 0.6796 0.23538 0.0
H786 H 0.92587 0.63246 0.27485 0.0
C787 C 0.9151 0.68173 0.21534 0.0
H788 H 0.88569 0.65968 0.27269 0.0
C789 C 0.93834 0.66624 0.21668 0.0
C790 C 0.9427 0.6482 0.23806 0.0
H791 H 0.91225 0.69529 0.19851 0.0
H792 H 0.95274 0.66814 0.20076 0.0
C793 C 0.92356 0.64659 0.25843 0.0
C794 C 0.92268 0.35416 0.78951 0.0
C795 C 0.90808 0.34671 0.76617 0.0
H796 H 0.94985 0.38236 0.80799 0.0
C797 C 0.90891 0.36355 0.7435 0.0
H798 H 0.92267 0.34147 0.80721 0.0
C799 C 0.92434 0.38705 0.74398 0.0
C800 C 0.93941 0.39426 0.76711 0.0
H801 H 0.8975 0.35862 0.72537 0.0
H802 H 0.92436 0.39963 0.72621 0.0
C803 C 0.93822 0.37763 0.78996 0.0
C804 C 0.24296 0.1848 0.38913 0.0
C805 C 0.25197 0.1824 0.36258 0.0
H806 H 0.23807 0.16597 0.42746 0.0
C807 C 0.26336 0.15799 0.3546 0.0
H808 H 0.2346 0.20344 0.39619 0.0
C809 C 0.26548 0.13649 0.37265 0.0
C810 C 0.25617 0.13886 0.39907 0.0
H811 H 0.2702 0.15527 0.33423 0.0
H812 H 0.27394 0.11783 0.36574 0.0
C813 C 0.24499 0.16331 0.40711 0.0
C814 C 0.38534 0.77376 0.88471 0.0
C815 C 0.36878 0.79638 0.88268 0.0
H816 H 0.41657 0.75379 0.90672 0.0
C817 C 0.37005 0.81561 0.90341 0.0
H818 H 0.38515 0.75874 0.86895 0.0
C819 C 0.38795 0.81268 0.92523 0.0
C820 C 0.40511 0.79047 0.92685 0.0
H821 H 0.35728 0.83306 0.90269 0.0
H822 H 0.38857 0.828 0.9407 0.0
C823 C 0.40331 0.77087 0.90647 0.0
C824 C 0.79919 0.85837 0.41404 0.0
C825 C 0.7827 0.86135 0.39093 0.0
H826 H 0.81183 0.87442 0.45226 0.0
C827 C 0.76535 0.8834 0.38951 0.0
H828 H 0.81303 0.84184 0.41575 0.0
C829 C 0.76503 0.90235 0.41024 0.0
C830 C 0.78189 0.89967 0.4331 0.0
H831 H 0.7521 0.88619 0.37224 0.0
H832 H 0.75209 0.91956 0.40791 0.0
C833 C 0.79874 0.87726 0.43487 0.0
C834 C 0.66461 0.25133 0.87914 0.0
C835 C 0.68972 0.2453 0.89075 0.0
H836 H 0.62261 0.25615 0.88534 0.0
C837 C 0.69134 0.23866 0.91823 0.0
H838 H 0.66277 0.25674 0.85806 0.0
C839 C 0.66834 0.23828 0.93383 0.0
C840 C 0.64332 0.24483 0.92231 0.0
H841 H 0.71041 0.23374 0.92766 0.0
H842 H 0.67023 0.23346 0.95504 0.0
C843 C 0.64167 0.25122 0.89478 0.0
C844 C 0.27873 0.89348 0.62681 0.0
C845 C 0.25433 0.88941 0.63996 0.0
H846 H 0.29996 0.91525 0.59661 0.0
C847 C 0.23254 0.90586 0.63291 0.0
H848 H 0.29584 0.881 0.63149 0.0
C849 C 0.2349 0.92547 0.61293 0.0
C850 C 0.25911 0.92922 0.59938 0.0
H851 H 0.2136 0.90369 0.64296 0.0
H852 H 0.21772 0.93785 0.60823 0.0
C853 C 0.28108 0.91313 0.60677 0.0
C854 C 0.62299 0.75942 0.16099 0.0
C855 C 0.63992 0.78209 0.16229 0.0
H856 H 0.58942 0.74013 0.14136 0.0
C857 C 0.63548 0.80309 0.14388 0.0
H858 H 0.62563 0.74303 0.17508 0.0
C859 C 0.61474 0.80146 0.12463 0.0
C860 C 0.59779 0.7788 0.12328 0.0
H861 H 0.64839 0.82065 0.14399 0.0
H862 H 0.61245 0.8177 0.11031 0.0
C863 C 0.60217 0.7578 0.14173 0.0
C864 C 0.81288 0.11527 0.66184 0.0
C865 C 0.8011 0.10629 0.68573 0.0
H866 H 0.82308 0.10608 0.62127 0.0
C867 C 0.79189 0.07957 0.68709 0.0
H868 H 0.81974 0.13582 0.65987 0.0
C869 C 0.79372 0.06251 0.66483 0.0
C870 C 0.80498 0.07172 0.64081 0.0
H871 H 0.78309 0.07187 0.7053 0.0
H872 H 0.78614 0.04216 0.66634 0.0
C873 C 0.81481 0.09819 0.63968 0.0
C874 C 0.39881 0.28251 0.13765 0.0
C875 C 0.37938 0.26203 0.13902 0.0
H876 H 0.43358 0.29759 0.118 0.0
C877 C 0.37955 0.2414 0.11971 0.0
H878 H 0.39942 0.29853 0.15241 0.0
C879 C 0.39904 0.24091 0.09991 0.0
C880 C 0.41893 0.26099 0.09896 0.0
H881 H 0.36458 0.22557 0.11992 0.0
H882 H 0.39851 0.22475 0.08533 0.0
C883 C 0.41838 0.28198 0.11789 0.0
C884 C 0.90852 0.64127 0.75852 0.0
C885 C 0.90967 0.66219 0.77746 0.0
H886 H 0.92788 0.60724 0.74184 0.0
C887 C 0.93296 0.66544 0.79351 0.0
H888 H 0.89068 0.63798 0.74617 0.0
C889 C 0.95458 0.64802 0.79076 0.0
C890 C 0.9533 0.62682 0.77204 0.0
H891 H 0.93449 0.68156 0.80811 0.0
H892 H 0.97229 0.65115 0.80333 0.0
C893 C 0.92997 0.62374 0.75594 0.0
C894 C 0.8521 0.42709 0.25443 0.0
C895 C 0.85427 0.40044 0.24556 0.0
H896 H 0.87204 0.46475 0.26126 0.0
C897 C 0.87913 0.39136 0.23659 0.0
H898 H 0.83326 0.43459 0.26165 0.0
C899 C 0.90132 0.40861 0.23637 0.0
C900 C 0.89917 0.43522 0.24535 0.0
H901 H 0.88135 0.37098 0.22944 0.0
H902 H 0.92024 0.40103 0.22943 0.0
C903 C 0.87435 0.44427 0.25444 0.0
C904 C 0.18923 0.41671 0.75832 0.0
C905 C 0.18443 0.39509 0.77584 0.0
H906 H 0.17646 0.45537 0.74427 0.0
C907 C 0.16204 0.39601 0.79248 0.0
H908 H 0.20643 0.4167 0.74539 0.0
C909 C 0.14508 0.4181 0.79196 0.0
C910 C 0.15001 0.43994 0.77477 0.0
H911 H 0.15742 0.37946 0.80577 0.0
H912 H 0.12774 0.4178 0.80471 0.0
C913 C 0.17216 0.43891 0.75777 0.0
C914 C 0.13544 0.66974 0.24097 0.0
C915 C 0.15907 0.6644 0.25578 0.0
H916 H 0.09719 0.65513 0.2271 0.0
C917 C 0.16257 0.63869 0.26686 0.0
H918 H 0.13198 0.68944 0.23245 0.0
C919 C 0.1427 0.61897 0.26368 0.0
C920 C 0.11875 0.62447 0.24945 0.0
H921 H 0.18073 0.63379 0.27801 0.0
H922 H 0.14615 0.59936 0.2724 0.0
C923 C 0.1155 0.65004 0.23788 0.0
C924 C 0.78649 0.88828 0.64154 0.0
C925 C 0.80772 0.86996 0.64037 0.0
H926 H 0.76757 0.92274 0.62408 0.0
C927 C 0.82608 0.87243 0.61937 0.0
H928 H 0.7722 0.88726 0.65763 0.0
C929 C 0.82354 0.8929 0.60031 0.0
C930 C 0.80246 0.9113 0.60164 0.0
H931 H 0.84236 0.85838 0.61749 0.0
H932 H 0.83796 0.89419 0.58435 0.0
C933 C 0.78385 0.90866 0.62235 0.0
C934 C 0.5955 0.25701 0.18364 0.0
C935 C 0.62105 0.26853 0.18044 0.0
H936 H 0.55722 0.24795 0.16535 0.0
C937 C 0.62709 0.28068 0.15573 0.0
H938 H 0.59008 0.24778 0.20253 0.0
C939 C 0.60823 0.28097 0.13463 0.0
C940 C 0.58287 0.26908 0.13769 0.0
H941 H 0.64673 0.28923 0.15233 0.0
H942 H 0.61388 0.28969 0.11557 0.0
C943 C 0.57663 0.2572 0.16244 0.0
C944 C 0.27455 0.15051 0.62648 0.0
C945 C 0.25995 0.14854 0.6503 0.0
H946 H 0.28842 0.13058 0.59133 0.0
C947 C 0.24854 0.12362 0.65718 0.0
H948 H 0.28376 0.16933 0.62071 0.0
C949 C 0.25123 0.10132 0.64029 0.0
C950 C 0.26573 0.10338 0.61641 0.0
H951 H 0.23701 0.12154 0.67531 0.0
H952 H 0.24191 0.08248 0.64586 0.0
C953 C 0.27749 0.12819 0.60981 0.0
C954 C 0.38948 0.7464 0.11889 0.0
C955 C 0.385 0.76725 0.13732 0.0
H956 H 0.41214 0.73229 0.0857 0.0
C957 C 0.4009 0.79062 0.13581 0.0
H958 H 0.37728 0.72835 0.119 0.0
C959 C 0.42091 0.79291 0.11654 0.0
C960 C 0.42556 0.77188 0.09835 0.0
H961 H 0.39822 0.80697 0.14984 0.0
H962 H 0.4331 0.81097 0.11623 0.0
C963 C 0.40949 0.74866 0.09972 0.0
C964 C 0.78704 0.15255 0.37279 0.0
C965 C 0.78182 0.17832 0.3828 0.0
H966 H 0.79207 0.11087 0.38185 0.0
C967 C 0.77731 0.18155 0.41045 0.0
H968 H 0.7908 0.14951 0.3516 0.0
C969 C 0.77801 0.15944 0.42774 0.0
C970 C 0.7835 0.13373 0.41776 0.0
H971 H 0.77305 0.20115 0.41867 0.0
H972 H 0.77466 0.16252 0.449 0.0
C973 C 0.788 0.1305 0.39011 0.0
C974 C 0.39668 0.22033 0.88401 0.0
C975 C 0.3765 0.23945 0.87976 0.0
H976 H 0.42972 0.2074 0.90845 0.0
C977 C 0.37355 0.25992 0.89898 0.0
H978 H 0.39932 0.20402 0.86993 0.0
C979 C 0.39063 0.26145 0.92162 0.0
C980 C 0.41115 0.24261 0.92553 0.0
H981 H 0.35841 0.27515 0.89628 0.0
H982 H 0.38785 0.27751 0.93595 0.0
C983 C 0.41385 0.22198 0.90647 0.0
C984 C 0.30392 0.896 0.38605 0.0
C985 C 0.28411 0.87741 0.37777 0.0
H986 H 0.31546 0.92728 0.4134 0.0
C987 C 0.26071 0.87522 0.39298 0.0
H988 H 0.32239 0.89799 0.37516 0.0
C989 C 0.25696 0.89172 0.41543 0.0
C990 C 0.2765 0.91082 0.42323 0.0
H991 H 0.24492 0.86127 0.38713 0.0
H992 H 0.23857 0.88974 0.42647 0.0
C993 C 0.30014 0.91253 0.40837 0.0
C994 C 0.65468 0.80613 0.86305 0.0
C995 C 0.67018 0.78341 0.8576 0.0
H996 H 0.62325 0.82306 0.88605 0.0
C997 C 0.66564 0.75982 0.87242 0.0
H998 H 0.65785 0.82474 0.85228 0.0
C999 C 0.64595 0.75896 0.89207 0.0
C1000 C 0.63039 0.78169 0.89742 0.0
H1001 H 0.67706 0.74189 0.86859 0.0
H1002 H 0.64309 0.74056 0.90326 0.0
C1003 C 0.63504 0.80527 0.88267 0.0
loop_
_geom_bond_atom_site_label_1
_geom_bond_atom_site_label_2
_geom_bond_distance
_geom_bond_site_symmetry_2
_ccdc_geom_bond_type
C0 C1 1.264 . S
C0 C5 1.479 . S
C0 C10 1.465 . S
C1 C0 1.264 . S
C1 C3 1.339 . S
C1 H28 0.931 . S
C2 C3 1.395 . S
C2 C4 1.320 . S
C3 C1 1.339 . S
C3 C2 1.395 . S
C3 H29 0.929 . S
C4 C2 1.320 . S
C4 C5 1.405 . S
C4 H30 0.930 . S
C5 C0 1.479 . S
C5 C4 1.405 . S
C5 H31 0.931 . S
U6 O7 2.454 . S
U6 O8 2.458 . S
U6 C9 2.984 . S
U6 C10 2.847 . S
U6 C23 2.882 . S
U6 O24 2.441 . S
U6 O25 2.420 . S
U6 O26 2.455 . S
U6 O27 2.449 . S
O7 U6 2.454 . S
O7 C9 1.353 . S
O8 U6 2.458 . S
O8 C9 1.286 . S
C9 U6 2.984 . S
C9 O7 1.353 . S
C9 O8 1.286 . S
C9 C11 1.363 . S
C10 C0 1.465 . S
C10 U6 2.847 . S
C10 O24 1.249 . S
C10 O25 1.202 . S
C11 C9 1.363 . S
C11 C13 1.408 . S
C11 C16 1.342 . S
C12 C13 1.310 . S
C12 C15 1.461 . S
C12 H32 0.932 . S
C13 C11 1.408 . S
C13 C12 1.310 . S
C13 H33 0.930 . S
C14 C15 1.474 . S
C14 C16 1.285 . S
C14 H34 0.929 . S
C15 C12 1.461 . S
C15 C14 1.474 . S
C16 C11 1.342 . S
C16 C14 1.285 . S
C16 H35 0.930 . S
C17 C20 1.424 . S
C17 C22 1.245 . S
C17 C23 1.428 . S
C18 C21 1.260 . S
C18 C22 1.477 . S
C18 H36 0.932 . S
C19 C20 1.384 . S
C19 C21 1.479 . S
C19 H37 0.929 . S
C20 C17 1.424 . S
C20 C19 1.384 . S
C20 H38 0.928 . S
C21 C18 1.260 . S
C21 C19 1.479 . S
C22 C17 1.245 . S
C22 C18 1.477 . S
C22 H39 0.932 . S
C23 U6 2.882 . S
C23 C17 1.428 . S
C23 O26 1.301 . S
C23 O27 1.282 . S
O24 U6 2.441 . S
O24 C10 1.249 . S
O25 U6 2.420 . S
O25 C10 1.202 . S
O26 U6 2.455 . S
O26 C23 1.301 . S
O27 U6 2.449 . S
O27 C23 1.282 . S
H28 C1 0.931 . S
H29 C3 0.929 . S
H30 C4 0.930 . S
H31 C5 0.931 . S
H32 C12 0.932 . S
H33 C13 0.930 . S
H34 C14 0.929 . S
H35 C16 0.930 . S
H36 C18 0.932 . S
H37 C19 0.929 . S
H38 C20 0.928 . S
H39 C22 0.932 . S
C40 C41 1.264 . S
C40 C45 1.479 . S
C40 C50 1.465 . S
C41 C40 1.264 . S
C41 C43 1.339 . S
C41 H68 0.931 . S
C42 C43 1.395 . S
C42 C44 1.320 . S
C43 C41 1.339 . S
C43 C42 1.395 . S
C43 H69 0.929 . S
C44 C42 1.320 . S
C44 C45 1.405 . S
C44 H70 0.930 . S
C45 C40 1.479 . S
C45 C44 1.405 . S
C45 H71 0.931 . S
U46 O47 2.454 . S
U46 O48 2.458 . S
U46 C49 2.984 . S
U46 C50 2.847 . S
U46 C63 2.882 . S
U46 O64 2.441 . S
U46 O65 2.420 . S
U46 O66 2.455 . S
U46 O67 2.449 . S
O47 U46 2.454 . S
O47 C49 1.353 . S
O48 U46 2.458 . S
O48 C49 1.286 . S
C49 U46 2.984 . S
C49 O47 1.353 . S
C49 O48 1.286 . S
C49 C51 1.363 . S
C50 C40 1.465 . S
C50 U46 2.847 . S
C50 O64 1.249 . S
C50 O65 1.202 . S
C51 C49 1.363 . S
C51 C53 1.408 . S
C51 C56 1.342 . S
C52 C53 1.310 . S
C52 C55 1.461 . S
C52 H72 0.932 . S
C53 C51 1.408 . S
C53 C52 1.310 . S
C53 H73 0.930 . S
C54 C55 1.474 . S
C54 C56 1.285 . S
C54 H74 0.929 . S
C55 C52 1.461 . S
C55 C54 1.474 . S
C56 C51 1.342 . S
C56 C54 1.285 . S
C56 H75 0.930 . S
C57 C60 1.424 . S
C57 C62 1.245 . S
C57 C63 1.428 . S
C58 C61 1.260 . S
C58 C62 1.477 . S
C58 H76 0.932 . S
C59 C60 1.384 . S
C59 C61 1.479 . S
C59 H77 0.929 . S
C60 C57 1.424 . S
C60 C59 1.384 . S
C60 H78 0.928 . S
C61 C58 1.260 . S
C61 C59 1.479 . S
C62 C57 1.245 . S
C62 C58 1.477 . S
C62 H79 0.932 . S
C63 U46 2.882 . S
C63 C57 1.428 . S
C63 O66 1.301 . S
C63 O67 1.282 . S
O64 U46 2.441 . S
O64 C50 1.249 . S
O65 U46 2.420 . S
O65 C50 1.202 . S
O66 U46 2.455 . S
O66 C63 1.301 . S
O67 U46 2.449 . S
O67 C63 1.282 . S
H68 C41 0.931 . S
H69 C43 0.929 . S
H70 C44 0.930 . S
H71 C45 0.931 . S
H72 C52 0.932 . S
H73 C53 0.930 . S
H74 C54 0.929 . S
H75 C56 0.930 . S
H76 C58 0.932 . S
H77 C59 0.929 . S
H78 C60 0.928 . S
H79 C62 0.932 . S
C80 C81 1.264 . S
C80 C85 1.479 . S
C80 C90 1.465 . S
C81 C80 1.264 . S
C81 C83 1.339 . S
C81 H108 0.931 . S
C82 C83 1.395 . S
C82 C84 1.320 . S
C83 C81 1.339 . S
C83 C82 1.395 . S
C83 H109 0.929 . S
C84 C82 1.320 . S
C84 C85 1.405 . S
C84 H110 0.930 . S
C85 C80 1.479 . S
C85 C84 1.405 . S
C85 H111 0.931 . S
U86 O87 2.454 . S
U86 O88 2.458 . S
U86 C89 2.984 . S
U86 C90 2.847 . S
U86 C103 2.882 . S
U86 O104 2.441 . S
U86 O105 2.420 . S
U86 O106 2.455 . S
U86 O107 2.449 . S
O87 U86 2.454 . S
O87 C89 1.353 . S
O88 U86 2.458 . S
O88 C89 1.286 . S
C89 U86 2.984 . S
C89 O87 1.353 . S
C89 O88 1.286 . S
C89 C91 1.363 . S
C90 C80 1.465 . S
C90 U86 2.847 . S
C90 O104 1.249 . S
C90 O105 1.202 . S
C91 C89 1.363 . S
C91 C93 1.408 . S
C91 C96 1.342 . S
C92 C93 1.310 . S
C92 C95 1.461 . S
C92 H112 0.932 . S
C93 C91 1.408 . S
C93 C92 1.310 . S
C93 H113 0.930 . S
C94 C95 1.474 . S
C94 C96 1.285 . S
C94 H114 0.929 . S
C95 C92 1.461 . S
C95 C94 1.474 . S
C96 C91 1.342 . S
C96 C94 1.285 . S
C96 H115 0.930 . S
C97 C100 1.424 . S
C97 C102 1.245 . S
C97 C103 1.428 . S
C98 C101 1.260 . S
C98 C102 1.477 . S
C98 H116 0.932 . S
C99 C100 1.384 . S
C99 C101 1.479 . S
C99 H117 0.929 . S
C100 C97 1.424 . S
C100 C99 1.384 . S
C100 H118 0.928 . S
C101 C98 1.260 . S
C101 C99 1.479 . S
C102 C97 1.245 . S
C102 C98 1.477 . S
C102 H119 0.932 . S
C103 U86 2.882 . S
C103 C97 1.428 . S
C103 O106 1.301 . S
C103 O107 1.282 . S
O104 U86 2.441 . S
O104 C90 1.249 . S
O105 U86 2.420 . S
O105 C90 1.202 . S
O106 U86 2.455 . S
O106 C103 1.301 . S
O107 U86 2.449 . S
O107 C103 1.282 . S
H108 C81 0.931 . S
H109 C83 0.929 . S
H110 C84 0.930 . S
H111 C85 0.931 . S
H112 C92 0.932 . S
H113 C93 0.930 . S
H114 C94 0.929 . S
H115 C96 0.930 . S
H116 C98 0.932 . S
H117 C99 0.929 . S
H118 C100 0.928 . S
H119 C102 0.932 . S
C120 C121 1.264 . S
C120 C125 1.479 . S
C120 C130 1.465 . S
C121 C120 1.264 . S
C121 C123 1.339 . S
C121 H148 0.931 . S
C122 C123 1.395 . S
C122 C124 1.320 . S
C123 C121 1.339 . S
C123 C122 1.395 . S
C123 H149 0.929 . S
C124 C122 1.320 . S
C124 C125 1.405 . S
C124 H150 0.930 . S
C125 C120 1.479 . S
C125 C124 1.405 . S
C125 H151 0.931 . S
U126 O127 2.454 . S
U126 O128 2.458 . S
U126 C129 2.984 . S
U126 C130 2.847 . S
U126 C143 2.882 . S
U126 O144 2.441 . S
U126 O145 2.420 . S
U126 O146 2.455 . S
U126 O147 2.449 . S
O127 U126 2.454 . S
O127 C129 1.353 . S
O128 U126 2.458 . S
O128 C129 1.286 . S
C129 U126 2.984 . S
C129 O127 1.353 . S
C129 O128 1.286 . S
C129 C131 1.363 . S
C130 C120 1.465 . S
C130 U126 2.847 . S
C130 O144 1.249 . S
C130 O145 1.202 . S
C131 C129 1.363 . S
C131 C133 1.408 . S
C131 C136 1.342 . S
C132 C133 1.310 . S
C132 C135 1.461 . S
C132 H152 0.932 . S
C133 C131 1.408 . S
C133 C132 1.310 . S
C133 H153 0.930 . S
C134 C135 1.474 . S
C134 C136 1.285 . S
C134 H154 0.929 . S
C135 C132 1.461 . S
C135 C134 1.474 . S
C136 C131 1.342 . S
C136 C134 1.285 . S
C136 H155 0.930 . S
C137 C140 1.424 . S
C137 C142 1.245 . S
C137 C143 1.428 . S
C138 C141 1.260 . S
C138 C142 1.477 . S
C138 H156 0.932 . S
C139 C140 1.384 . S
C139 C141 1.479 . S
C139 H157 0.929 . S
C140 C137 1.424 . S
C140 C139 1.384 . S
C140 H158 0.928 . S
C141 C138 1.260 . S
C141 C139 1.479 . S
C142 C137 1.245 . S
C142 C138 1.477 . S
C142 H159 0.932 . S
C143 U126 2.882 . S
C143 C137 1.428 . S
C143 O146 1.301 . S
C143 O147 1.282 . S
O144 U126 2.441 . S
O144 C130 1.249 . S
O145 U126 2.420 . S
O145 C130 1.202 . S
O146 U126 2.455 . S
O146 C143 1.301 . S
O147 U126 2.449 . S
O147 C143 1.282 . S
H148 C121 0.931 . S
H149 C123 0.929 . S
H150 C124 0.930 . S
H151 C125 0.931 . S
H152 C132 0.932 . S
H153 C133 0.930 . S
H154 C134 0.929 . S
H155 C136 0.930 . S
H156 C138 0.932 . S
H157 C139 0.929 . S
H158 C140 0.928 . S
H159 C142 0.932 . S
C160 C161 1.264 . S
C160 C165 1.479 . S
C160 C170 1.465 . S
C161 C160 1.264 . S
C161 C163 1.339 . S
C161 H188 0.931 . S
C162 C163 1.395 . S
C162 C164 1.320 . S
C163 C161 1.339 . S
C163 C162 1.395 . S
C163 H189 0.929 . S
C164 C162 1.320 . S
C164 C165 1.405 . S
C164 H190 0.930 . S
C165 C160 1.479 . S
C165 C164 1.405 . S
C165 H191 0.931 . S
U166 O167 2.454 . S
U166 O168 2.458 . S
U166 C169 2.984 . S
U166 C170 2.847 . S
U166 C183 2.882 . S
U166 O184 2.441 . S
U166 O185 2.420 . S
U166 O186 2.455 . S
U166 O187 2.449 . S
O167 U166 2.454 . S
O167 C169 1.353 . S
O168 U166 2.458 . S
O168 C169 1.286 . S
C169 U166 2.984 . S
C169 O167 1.353 . S
C169 O168 1.286 . S
C169 C171 1.363 . S
C170 C160 1.465 . S
C170 U166 2.847 . S
C170 O184 1.249 . S
C170 O185 1.202 . S
C171 C169 1.363 . S
C171 C173 1.408 . S
C171 C176 1.342 . S
C172 C173 1.310 . S
C172 C175 1.461 . S
C172 H192 0.932 . S
C173 C171 1.408 . S
C173 C172 1.310 . S
C173 H193 0.930 . S
C174 C175 1.474 . S
C174 C176 1.285 . S
C174 H194 0.929 . S
C175 C172 1.461 . S
C175 C174 1.474 . S
C176 C171 1.342 . S
C176 C174 1.285 . S
C176 H195 0.930 . S
C177 C180 1.424 . S
C177 C182 1.245 . S
C177 C183 1.428 . S
C178 C181 1.260 . S
C178 C182 1.477 . S
C178 H196 0.932 . S
C179 C180 1.384 . S
C179 C181 1.479 . S
C179 H197 0.929 . S
C180 C177 1.424 . S
C180 C179 1.384 . S
C180 H198 0.928 . S
C181 C178 1.260 . S
C181 C179 1.479 . S
C182 C177 1.245 . S
C182 C178 1.477 . S
C182 H199 0.932 . S
C183 U166 2.882 . S
C183 C177 1.428 . S
C183 O186 1.301 . S
C183 O187 1.282 . S
O184 U166 2.441 . S
O184 C170 1.249 . S
O185 U166 2.420 . S
O185 C170 1.202 . S
O186 U166 2.455 . S
O186 C183 1.301 . S
O187 U166 2.449 . S
O187 C183 1.282 . S
H188 C161 0.931 . S
H189 C163 0.929 . S
H190 C164 0.930 . S
H191 C165 0.931 . S
H192 C172 0.932 . S
H193 C173 0.930 . S
H194 C174 0.929 . S
H195 C176 0.930 . S
H196 C178 0.932 . S
H197 C179 0.929 . S
H198 C180 0.928 . S
H199 C182 0.932 . S
C200 C201 1.264 . S
C200 C205 1.479 . S
C200 C210 1.465 . S
C201 C200 1.264 . S
C201 C203 1.339 . S
C201 H228 0.931 . S
C202 C203 1.395 . S
C202 C204 1.320 . S
C203 C201 1.339 . S
C203 C202 1.395 . S
C203 H229 0.929 . S
C204 C202 1.320 . S
C204 C205 1.405 . S
C204 H230 0.930 . S
C205 C200 1.479 . S
C205 C204 1.405 . S
C205 H231 0.931 . S
U206 O207 2.454 . S
U206 O208 2.458 . S
U206 C209 2.984 . S
U206 C210 2.847 . S
U206 C223 2.882 . S
U206 O224 2.441 . S
U206 O225 2.420 . S
U206 O226 2.455 . S
U206 O227 2.449 . S
O207 U206 2.454 . S
O207 C209 1.353 . S
O208 U206 2.458 . S
O208 C209 1.286 . S
C209 U206 2.984 . S
C209 O207 1.353 . S
C209 O208 1.286 . S
C209 C211 1.363 . S
C210 C200 1.465 . S
C210 U206 2.847 . S
C210 O224 1.249 . S
C210 O225 1.202 . S
C211 C209 1.363 . S
C211 C213 1.408 . S
C211 C216 1.342 . S
C212 C213 1.310 . S
C212 C215 1.461 . S
C212 H232 0.932 . S
C213 C211 1.408 . S
C213 C212 1.310 . S
C213 H233 0.930 . S
C214 C215 1.474 . S
C214 C216 1.285 . S
C214 H234 0.929 . S
C215 C212 1.461 . S
C215 C214 1.474 . S
C216 C211 1.342 . S
C216 C214 1.285 . S
C216 H235 0.930 . S
C217 C220 1.424 . S
C217 C222 1.245 . S
C217 C223 1.428 . S
C218 C221 1.260 . S
C218 C222 1.477 . S
C218 H236 0.932 . S
C219 C220 1.384 . S
C219 C221 1.479 . S
C219 H237 0.929 . S
C220 C217 1.424 . S
C220 C219 1.384 . S
C220 H238 0.928 . S
C221 C218 1.260 . S
C221 C219 1.479 . S
C222 C217 1.245 . S
C222 C218 1.477 . S
C222 H239 0.932 . S
C223 U206 2.882 . S
C223 C217 1.428 . S
C223 O226 1.301 . S
C223 O227 1.282 . S
O224 U206 2.441 . S
O224 C210 1.249 . S
O225 U206 2.420 . S
O225 C210 1.202 . S
O226 U206 2.455 . S
O226 C223 1.301 . S
O227 U206 2.449 . S
O227 C223 1.282 . S
H228 C201 0.931 . S
H229 C203 0.929 . S
H230 C204 0.930 . S
H231 C205 0.931 . S
H232 C212 0.932 . S
H233 C213 0.930 . S
H234 C214 0.929 . S
H235 C216 0.930 . S
H236 C218 0.932 . S
H237 C219 0.929 . S
H238 C220 0.928 . S
H239 C222 0.932 . S
C240 C241 1.264 . S
C240 C245 1.479 . S
C240 C250 1.465 . S
C241 C240 1.264 . S
C241 C243 1.339 . S
C241 H268 0.931 . S
C242 C243 1.395 . S
C242 C244 1.320 . S
C243 C241 1.339 . S
C243 C242 1.395 . S
C243 H269 0.929 . S
C244 C242 1.320 . S
C244 C245 1.405 . S
C244 H270 0.930 . S
C245 C240 1.479 . S
C245 C244 1.405 . S
C245 H271 0.931 . S
U246 O247 2.454 . S
U246 O248 2.458 . S
U246 C249 2.984 . S
U246 C250 2.847 . S
U246 C263 2.882 . S
U246 O264 2.441 . S
U246 O265 2.420 . S
U246 O266 2.455 . S
U246 O267 2.449 . S
O247 U246 2.454 . S
O247 C249 1.353 . S
O248 U246 2.458 . S
O248 C249 1.286 . S
C249 U246 2.984 . S
C249 O247 1.353 . S
C249 O248 1.286 . S
C249 C251 1.363 . S
C250 C240 1.465 . S
C250 U246 2.847 . S
C250 O264 1.249 . S
C250 O265 1.202 . S
C251 C249 1.363 . S
C251 C253 1.408 . S
C251 C256 1.342 . S
C252 C253 1.310 . S
C252 C255 1.461 . S
C252 H272 0.932 . S
C253 C251 1.408 . S
C253 C252 1.310 . S
C253 H273 0.930 . S
C254 C255 1.474 . S
C254 C256 1.285 . S
C254 H274 0.929 . S
C255 C252 1.461 . S
C255 C254 1.474 . S
C256 C251 1.342 . S
C256 C254 1.285 . S
C256 H275 0.930 . S
C257 C260 1.424 . S
C257 C262 1.245 . S
C257 C263 1.428 . S
C258 C261 1.260 . S
C258 C262 1.477 . S
C258 H276 0.932 . S
C259 C260 1.384 . S
C259 C261 1.479 . S
C259 H277 0.929 . S
C260 C257 1.424 . S
C260 C259 1.384 . S
C260 H278 0.928 . S
C261 C258 1.260 . S
C261 C259 1.479 . S
C262 C257 1.245 . S
C262 C258 1.477 . S
C262 H279 0.932 . S
C263 U246 2.882 . S
C263 C257 1.428 . S
C263 O266 1.301 . S
C263 O267 1.282 . S
O264 U246 2.441 . S
O264 C250 1.249 . S
O265 U246 2.420 . S
O265 C250 1.202 . S
O266 U246 2.455 . S
O266 C263 1.301 . S
O267 U246 2.449 . S
O267 C263 1.282 . S
H268 C241 0.931 . S
H269 C243 0.929 . S
H270 C244 0.930 . S
H271 C245 0.931 . S
H272 C252 0.932 . S
H273 C253 0.930 . S
H274 C254 0.929 . S
H275 C256 0.930 . S
H276 C258 0.932 . S
H277 C259 0.929 . S
H278 C260 0.928 . S
H279 C262 0.932 . S
C280 C281 1.264 . S
C280 C285 1.479 . S
C280 C290 1.465 . S
C281 C280 1.264 . S
C281 C283 1.339 . S
C281 H308 0.931 . S
C282 C283 1.395 . S
C282 C284 1.320 . S
C283 C281 1.339 . S
C283 C282 1.395 . S
C283 H309 0.929 . S
C284 C282 1.320 . S
C284 C285 1.405 . S
C284 H310 0.930 . S
C285 C280 1.479 . S
C285 C284 1.405 . S
C285 H311 0.931 . S
U286 O287 2.454 . S
U286 O288 2.458 . S
U286 C289 2.984 . S
U286 C290 2.847 . S
U286 C303 2.882 . S
U286 O304 2.441 . S
U286 O305 2.420 . S
U286 O306 2.455 . S
U286 O307 2.449 . S
O287 U286 2.454 . S
O287 C289 1.353 . S
O288 U286 2.458 . S
O288 C289 1.286 . S
C289 U286 2.984 . S
C289 O287 1.353 . S
C289 O288 1.286 . S
C289 C291 1.363 . S
C290 C280 1.465 . S
C290 U286 2.847 . S
C290 O304 1.249 . S
C290 O305 1.202 . S
C291 C289 1.363 . S
C291 C293 1.408 . S
C291 C296 1.342 . S
C292 C293 1.310 . S
C292 C295 1.461 . S
C292 H312 0.932 . S
C293 C291 1.408 . S
C293 C292 1.310 . S
C293 H313 0.930 . S
C294 C295 1.474 . S
C294 C296 1.285 . S
C294 H314 0.929 . S
C295 C292 1.461 . S
C295 C294 1.474 . S
C296 C291 1.342 . S
C296 C294 1.285 . S
C296 H315 0.930 . S
C297 C300 1.424 . S
C297 C302 1.245 . S
C297 C303 1.428 . S
C298 C301 1.260 . S
C298 C302 1.477 . S
C298 H316 0.932 . S
C299 C300 1.384 . S
C299 C301 1.479 . S
C299 H317 0.929 . S
C300 C297 1.424 . S
C300 C299 1.384 . S
C300 H318 0.928 . S
C301 C298 1.260 . S
C301 C299 1.479 . S
C302 C297 1.245 . S
C302 C298 1.477 . S
C302 H319 0.932 . S
C303 U286 2.882 . S
C303 C297 1.428 . S
C303 O306 1.301 . S
C303 O307 1.282 . S
O304 U286 2.441 . S
O304 C290 1.249 . S
O305 U286 2.420 . S
O305 C290 1.202 . S
O306 U286 2.455 . S
O306 C303 1.301 . S
O307 U286 2.449 . S
O307 C303 1.282 . S
H308 C281 0.931 . S
H309 C283 0.929 . S
H310 C284 0.930 . S
H311 C285 0.931 . S
H312 C292 0.932 . S
H313 C293 0.930 . S
H314 C294 0.929 . S
H315 C296 0.930 . S
H316 C298 0.932 . S
H317 C299 0.929 . S
H318 C300 0.928 . S
H319 C302 0.932 . S
H320 O346 0.850 1_455 S
H321 O349 0.854 . S
H322 C357 0.930 . S
H323 C358 0.930 . S
H324 C360 0.930 . S
H325 C361 0.930 . S
H326 C363 0.931 . S
H327 C364 0.930 . S
H328 C366 0.930 . S
H329 C367 0.926 1_455 S
H330 C369 0.930 . S
H331 C370 0.931 . S
H332 C372 0.930 . S
H333 C373 0.929 . S
H334 C375 0.931 . S
H335 C376 0.930 . S
H336 C378 0.930 . S
H337 C379 0.932 . S
H338 C381 0.930 . S
H339 C382 0.929 . S
H340 C384 0.931 . S
H341 C385 0.930 . S
H342 C387 0.929 . S
H343 C388 0.931 . S
H344 C390 0.930 . S
H345 C391 0.929 . S
O346 H320 0.850 1_655 S
O346 C392 1.300 1_655 S
O347 C392 1.209 . S
O348 C393 1.199 . S
O349 H321 0.854 . S
O349 C393 1.297 . S
C350 C351 1.404 1_455 S
C350 C355 1.397 1_455 S
C350 C356 1.492 . S
C351 C350 1.404 1_655 S
C351 C352 1.396 . S
C351 C362 1.492 . S
C352 C351 1.396 . S
C352 C353 1.397 . S
C352 C368 1.509 . S
C353 C352 1.397 . S
C353 C354 1.412 . S
C353 C374 1.485 . S
C354 C353 1.412 . S
C354 C355 1.388 . S
C354 C380 1.490 . S
C355 C350 1.397 1_655 S
C355 C354 1.388 . S
C355 C386 1.519 1_655 S
C356 C350 1.492 . S
C356 C357 1.363 . S
C356 C361 1.390 . S
C357 H322 0.930 . S
C357 C356 1.363 . S
C357 C358 1.372 . S
C358 H323 0.930 . S
C358 C357 1.372 . S
C358 C359 1.383 . S
C359 C358 1.383 . S
C359 C360 1.395 . S
C360 H324 0.930 . S
C360 C359 1.395 . S
C360 C361 1.362 . S
C361 H325 0.930 . S
C361 C356 1.390 . S
C361 C360 1.362 . S
C362 C351 1.492 . S
C362 C363 1.377 . S
C362 C367 1.404 . S
C363 H326 0.931 . S
C363 C362 1.377 . S
C363 C364 1.376 . S
C364 H327 0.930 . S
C364 C363 1.376 . S
C364 C365 1.382 . S
C365 C364 1.382 . S
C365 C366 1.375 1_655 S
C365 C392 1.483 1_655 S
C366 H328 0.930 . S
C366 C365 1.375 1_455 S
C366 C367 1.373 1_455 S
C367 H329 0.926 1_655 S
C367 C362 1.404 . S
C367 C366 1.373 1_655 S
C368 C352 1.509 . S
C368 C369 1.391 . S
C368 C373 1.386 . S
C369 H330 0.930 . S
C369 C368 1.391 . S
C369 C370 1.375 . S
C370 H331 0.931 . S
C370 C369 1.375 . S
C370 C371 1.375 . S
C371 C370 1.375 . S
C371 C372 1.361 . S
C372 H332 0.930 . S
C372 C371 1.361 . S
C372 C373 1.399 . S
C373 H333 0.929 . S
C373 C368 1.386 . S
C373 C372 1.399 . S
C374 C353 1.485 . S
C374 C375 1.394 . S
C374 C379 1.360 . S
C375 H334 0.931 . S
C375 C374 1.394 . S
C375 C376 1.372 . S
C376 H335 0.930 . S
C376 C375 1.372 . S
C376 C377 1.397 . S
C377 C376 1.397 . S
C377 C378 1.390 . S
C377 C393 1.476 . S
C378 H336 0.930 . S
C378 C377 1.390 . S
C378 C379 1.366 . S
C379 H337 0.932 . S
C379 C374 1.360 . S
C379 C378 1.366 . S
C380 C354 1.490 . S
C380 C381 1.380 . S
C380 C385 1.386 . S
C381 H338 0.930 . S
C381 C380 1.380 . S
C381 C382 1.381 . S
C382 H339 0.929 . S
C382 C381 1.381 . S
C382 C383 1.371 . S
C383 C382 1.371 . S
C383 C384 1.380 . S
C384 H340 0.931 . S
C384 C383 1.380 . S
C384 C385 1.387 . S
C385 H341 0.930 . S
C385 C380 1.386 . S
C385 C384 1.387 . S
C386 C355 1.519 1_455 S
C386 C387 1.377 . S
C386 C391 1.361 . S
C387 H342 0.929 . S
C387 C386 1.377 . S
C387 C388 1.386 . S
C388 H343 0.931 . S
C388 C387 1.386 . S
C388 C389 1.363 . S
C389 C388 1.363 . S
C389 C390 1.385 . S
C390 H344 0.930 . S
C390 C389 1.385 . S
C390 C391 1.396 . S
C391 H345 0.929 . S
C391 C386 1.361 . S
C391 C390 1.396 . S
C392 O346 1.300 1_455 S
C392 O347 1.209 . S
C392 C365 1.483 1_455 S
C393 O348 1.199 . S
C393 O349 1.297 . S
C393 C377 1.476 . S
H394 O420 0.856 . S
H395 O423 0.854 . S
H396 C431 0.930 . S
H397 C432 0.930 . S
H398 C434 0.930 . S
H399 C435 0.930 . S
H400 C437 0.931 . S
H401 C438 0.930 . S
H402 C440 0.930 . S
H403 C441 0.929 . S
H404 C443 0.930 . S
H405 C444 0.931 . S
H406 C446 0.930 . S
H407 C447 0.929 . S
H408 C449 0.931 . S
H409 C450 0.930 . S
H410 C452 0.930 . S
H411 C453 0.932 . S
H412 C455 0.930 1_455 S
H413 C456 0.929 . S
H414 C458 0.931 . S
H415 C459 0.930 . S
H416 C461 0.929 . S
H417 C462 0.931 . S
H418 C464 0.930 . S
H419 C465 0.929 . S
O420 H394 0.856 . S
O420 C466 1.300 . S
O421 C466 1.209 . S
O422 C467 1.199 . S
O423 H395 0.854 . S
O423 C467 1.297 . S
C424 C425 1.404 . S
C424 C429 1.397 . S
C424 C430 1.492 . S
C425 C424 1.404 . S
C425 C426 1.396 1_455 S
C425 C436 1.492 . S
C426 C425 1.396 1_655 S
C426 C427 1.397 . S
C426 C442 1.509 . S
C427 C426 1.397 . S
C427 C428 1.434 . S
C427 C448 1.485 . S
C428 C427 1.434 . S
C428 C429 1.355 1_655 S
C428 C454 1.503 . S
C429 C424 1.397 . S
C429 C428 1.355 1_455 S
C429 C460 1.519 . S
C430 C424 1.492 . S
C430 C431 1.363 . S
C430 C435 1.390 . S
C431 H396 0.930 . S
C431 C430 1.363 . S
C431 C432 1.372 . S
C432 H397 0.930 . S
C432 C431 1.372 . S
C432 C433 1.383 . S
C433 C432 1.383 . S
C433 C434 1.395 . S
C434 H398 0.930 . S
C434 C433 1.395 . S
C434 C435 1.362 . S
C435 H399 0.930 . S
C435 C430 1.390 . S
C435 C434 1.362 . S
C436 C425 1.492 . S
C436 C437 1.377 . S
C436 C441 1.397 . S
C437 H400 0.931 . S
C437 C436 1.377 . S
C437 C438 1.376 . S
C438 H401 0.930 . S
C438 C437 1.376 . S
C438 C439 1.376 . S
C439 C438 1.376 . S
C439 C440 1.378 . S
C439 C466 1.486 . S
C440 H402 0.930 . S
C440 C439 1.378 . S
C440 C441 1.376 . S
C441 H403 0.929 . S
C441 C436 1.397 . S
C441 C440 1.376 . S
C442 C426 1.509 . S
C442 C443 1.391 . S
C442 C447 1.386 . S
C443 H404 0.930 . S
C443 C442 1.391 . S
C443 C444 1.375 . S
C444 H405 0.931 . S
C444 C443 1.375 . S
C444 C445 1.375 . S
C445 C444 1.375 . S
C445 C446 1.361 . S
C446 H406 0.930 . S
C446 C445 1.361 . S
C446 C447 1.399 . S
C447 H407 0.929 . S
C447 C442 1.386 . S
C447 C446 1.399 . S
C448 C427 1.485 . S
C448 C449 1.394 . S
C448 C453 1.360 . S
C449 H408 0.931 . S
C449 C448 1.394 . S
C449 C450 1.372 . S
C450 H409 0.930 . S
C450 C449 1.372 . S
C450 C451 1.397 . S
C451 C450 1.397 . S
C451 C452 1.390 . S
C451 C467 1.476 . S
C452 H410 0.930 . S
C452 C451 1.390 . S
C452 C453 1.366 . S
C453 H411 0.932 . S
C453 C448 1.360 . S
C453 C452 1.366 . S
C454 C428 1.503 . S
C454 C455 1.380 . S
C454 C459 1.386 . S
C455 H412 0.930 1_655 S
C455 C454 1.380 . S
C455 C456 1.381 . S
C456 H413 0.929 . S
C456 C455 1.381 . S
C456 C457 1.371 . S
C457 C456 1.371 . S
C457 C458 1.380 . S
C458 H414 0.931 . S
C458 C457 1.380 . S
C458 C459 1.387 . S
C459 H415 0.930 . S
C459 C454 1.386 . S
C459 C458 1.387 . S
C460 C429 1.519 . S
C460 C461 1.377 . S
C460 C465 1.361 . S
C461 H416 0.929 . S
C461 C460 1.377 . S
C461 C462 1.386 . S
C462 H417 0.931 . S
C462 C461 1.386 . S
C462 C463 1.363 . S
C463 C462 1.363 . S
C463 C464 1.385 . S
C464 H418 0.930 . S
C464 C463 1.385 . S
C464 C465 1.396 . S
C465 H419 0.929 . S
C465 C460 1.361 . S
C465 C464 1.396 . S
C466 O420 1.300 . S
C466 O421 1.209 . S
C466 C439 1.486 . S
C467 O422 1.199 . S
C467 O423 1.297 . S
C467 C451 1.476 . S
H468 O494 0.856 . S
H469 O497 0.854 . S
H470 C505 0.930 . S
H471 C506 0.930 . S
H472 C508 0.930 . S
H473 C509 0.930 . S
H474 C511 0.931 . S
H475 C512 0.930 . S
H476 C514 0.930 1_565 S
H477 C515 0.929 . S
H478 C517 0.930 . S
H479 C518 0.931 . S
H480 C520 0.930 . S
H481 C521 0.929 . S
H482 C523 0.931 . S
H483 C524 0.930 . S
H484 C526 0.930 . S
H485 C527 0.932 . S
H486 C529 0.930 . S
H487 C530 0.929 . S
H488 C532 0.931 . S
H489 C533 0.930 . S
H490 C535 0.929 . S
H491 C536 0.931 . S
H492 C538 0.930 . S
H493 C539 0.929 . S
O494 H468 0.856 . S
O494 C540 1.297 1_545 S
O495 C540 1.213 . S
O496 C541 1.199 . S
O497 H469 0.854 . S
O497 C541 1.297 . S
C498 C499 1.404 . S
C498 C503 1.397 . S
C498 C504 1.492 1_545 S
C499 C498 1.404 . S
C499 C500 1.396 . S
C499 C510 1.492 . S
C500 C499 1.396 . S
C500 C501 1.397 . S
C500 C516 1.509 . S
C501 C500 1.397 . S
C501 C502 1.412 . S
C501 C522 1.485 . S
C502 C501 1.412 . S
C502 C503 1.388 . S
C502 C528 1.490 . S
C503 C498 1.397 . S
C503 C502 1.388 . S
C503 C534 1.519 . S
C504 C498 1.492 1_565 S
C504 C505 1.363 . S
C504 C509 1.390 . S
C505 H470 0.930 . S
C505 C504 1.363 . S
C505 C506 1.372 . S
C506 H471 0.930 . S
C506 C505 1.372 . S
C506 C507 1.383 . S
C507 C506 1.383 . S
C507 C508 1.395 . S
C508 H472 0.930 . S
C508 C507 1.395 . S
C508 C509 1.362 . S
C509 H473 0.930 . S
C509 C504 1.390 . S
C509 C508 1.362 . S
C510 C499 1.492 . S
C510 C511 1.377 . S
C510 C515 1.397 . S
C511 H474 0.931 . S
C511 C510 1.377 . S
C511 C512 1.376 . S
C512 H475 0.930 . S
C512 C511 1.376 . S
C512 C513 1.376 . S
C513 C512 1.376 . S
C513 C514 1.378 . S
C513 C540 1.483 1_545 S
C514 H476 0.930 1_545 S
C514 C513 1.378 . S
C514 C515 1.376 . S
C515 H477 0.929 . S
C515 C510 1.397 . S
C515 C514 1.376 . S
C516 C500 1.509 . S
C516 C517 1.391 . S
C516 C521 1.386 . S
C517 H478 0.930 . S
C517 C516 1.391 . S
C517 C518 1.375 . S
C518 H479 0.931 . S
C518 C517 1.375 . S
C518 C519 1.375 . S
C519 C518 1.375 . S
C519 C520 1.361 . S
C520 H480 0.930 . S
C520 C519 1.361 . S
C520 C521 1.399 . S
C521 H481 0.929 . S
C521 C516 1.386 . S
C521 C520 1.399 . S
C522 C501 1.485 . S
C522 C523 1.394 . S
C522 C527 1.360 . S
C523 H482 0.931 . S
C523 C522 1.394 . S
C523 C524 1.372 . S
C524 H483 0.930 . S
C524 C523 1.372 . S
C524 C525 1.397 . S
C525 C524 1.397 . S
C525 C526 1.390 . S
C525 C541 1.476 . S
C526 H484 0.930 . S
C526 C525 1.390 . S
C526 C527 1.366 . S
C527 H485 0.932 . S
C527 C522 1.360 . S
C527 C526 1.366 . S
C528 C502 1.490 . S
C528 C529 1.380 . S
C528 C533 1.386 . S
C529 H486 0.930 . S
C529 C528 1.380 . S
C529 C530 1.381 . S
C530 H487 0.929 . S
C530 C529 1.381 . S
C530 C531 1.371 . S
C531 C530 1.371 . S
C531 C532 1.380 . S
C532 H488 0.931 . S
C532 C531 1.380 . S
C532 C533 1.387 . S
C533 H489 0.930 . S
C533 C528 1.386 . S
C533 C532 1.387 . S
C534 C503 1.519 . S
C534 C535 1.377 1_545 S
C534 C539 1.361 . S
C535 H490 0.929 . S
C535 C534 1.377 1_565 S
C535 C536 1.386 . S
C536 H491 0.931 . S
C536 C535 1.386 . S
C536 C537 1.363 . S
C537 C536 1.363 . S
C537 C538 1.385 . S
C538 H492 0.930 . S
C538 C537 1.385 . S
C538 C539 1.396 1_565 S
C539 H493 0.929 . S
C539 C534 1.361 . S
C539 C538 1.396 1_545 S
C540 O494 1.297 1_565 S
C540 O495 1.213 . S
C540 C513 1.483 1_565 S
C541 O496 1.199 . S
C541 O497 1.297 . S
C541 C525 1.476 . S
H542 O568 0.856 . S
H543 O571 0.854 . S
H544 C579 0.930 . S
H545 C580 0.930 . S
H546 C582 0.930 . S
H547 C583 0.930 . S
H548 C585 0.931 . S
H549 C586 0.930 . S
H550 C588 0.930 . S
H551 C589 0.929 . S
H552 C591 0.930 . S
H553 C592 0.931 . S
H554 C594 0.930 . S
H555 C595 0.929 . S
H556 C597 0.931 . S
H557 C598 0.930 . S
H558 C600 0.930 1_556 S
H559 C601 0.932 . S
H560 C603 0.930 . S
H561 C604 0.929 . S
H562 C606 0.931 . S
H563 C607 0.930 . S
H564 C609 0.929 . S
H565 C610 0.931 . S
H566 C612 0.930 . S
H567 C613 0.929 . S
O568 H542 0.856 . S
O568 C614 1.300 . S
O569 C614 1.209 . S
O570 C615 1.199 . S
O571 H543 0.854 . S
O571 C615 1.297 . S
C572 C573 1.404 . S
C572 C577 1.397 1_556 S
C572 C578 1.492 . S
C573 C572 1.404 . S
C573 C574 1.396 . S
C573 C584 1.492 . S
C574 C573 1.396 . S
C574 C575 1.397 . S
C574 C590 1.509 . S
C575 C574 1.397 . S
C575 C576 1.412 1_556 S
C575 C596 1.485 1_556 S
C576 C575 1.412 1_554 S
C576 C577 1.388 . S
C576 C602 1.490 . S
C577 C572 1.397 1_554 S
C577 C576 1.388 . S
C577 C608 1.519 . S
C578 C572 1.492 . S
C578 C579 1.363 . S
C578 C583 1.390 . S
C579 H544 0.930 . S
C579 C578 1.363 . S
C579 C580 1.372 . S
C580 H545 0.930 . S
C580 C579 1.372 . S
C580 C581 1.383 . S
C581 C580 1.383 . S
C581 C582 1.395 . S
C582 H546 0.930 . S
C582 C581 1.395 . S
C582 C583 1.362 . S
C583 H547 0.930 . S
C583 C578 1.390 . S
C583 C582 1.362 . S
C584 C573 1.492 . S
C584 C585 1.377 . S
C584 C589 1.397 . S
C585 H548 0.931 . S
C585 C584 1.377 . S
C585 C586 1.376 . S
C586 H549 0.930 . S
C586 C585 1.376 . S
C586 C587 1.376 . S
C587 C586 1.376 . S
C587 C588 1.378 . S
C587 C614 1.486 . S
C588 H550 0.930 . S
C588 C587 1.378 . S
C588 C589 1.376 . S
C589 H551 0.929 . S
C589 C584 1.397 . S
C589 C588 1.376 . S
C590 C574 1.509 . S
C590 C591 1.391 . S
C590 C595 1.386 . S
C591 H552 0.930 . S
C591 C590 1.391 . S
C591 C592 1.375 . S
C592 H553 0.931 . S
C592 C591 1.375 . S
C592 C593 1.375 . S
C593 C592 1.375 . S
C593 C594 1.361 . S
C594 H554 0.930 . S
C594 C593 1.361 . S
C594 C595 1.399 . S
C595 H555 0.929 . S
C595 C590 1.386 . S
C595 C594 1.399 . S
C596 C575 1.485 1_554 S
C596 C597 1.394 . S
C596 C601 1.360 1_554 S
C597 H556 0.931 . S
C597 C596 1.394 . S
C597 C598 1.372 . S
C598 H557 0.930 . S
C598 C597 1.372 . S
C598 C599 1.397 . S
C599 C598 1.397 . S
C599 C600 1.390 . S
C599 C615 1.476 . S
C600 H558 0.930 1_554 S
C600 C599 1.390 . S
C600 C601 1.366 1_554 S
C601 H559 0.932 . S
C601 C596 1.360 1_556 S
C601 C600 1.366 1_556 S
C602 C576 1.490 . S
C602 C603 1.380 . S
C602 C607 1.386 . S
C603 H560 0.930 . S
C603 C602 1.380 . S
C603 C604 1.381 . S
C604 H561 0.929 . S
C604 C603 1.381 . S
C604 C605 1.371 . S
C605 C604 1.371 . S
C605 C606 1.380 . S
C606 H562 0.931 . S
C606 C605 1.380 . S
C606 C607 1.387 . S
C607 H563 0.930 . S
C607 C602 1.386 . S
C607 C606 1.387 . S
C608 C577 1.519 . S
C608 C609 1.377 . S
C608 C613 1.361 . S
C609 H564 0.929 . S
C609 C608 1.377 . S
C609 C610 1.386 . S
C610 H565 0.931 . S
C610 C609 1.386 . S
C610 C611 1.363 . S
C611 C610 1.363 . S
C611 C612 1.385 . S
C612 H566 0.930 . S
C612 C611 1.385 . S
C612 C613 1.396 . S
C613 H567 0.929 . S
C613 C608 1.361 . S
C613 C612 1.396 . S
C614 O568 1.300 . S
C614 O569 1.209 . S
C614 C587 1.486 . S
C615 O570 1.199 . S
C615 O571 1.297 . S
C615 C599 1.476 . S
H616 O642 0.856 . S
H617 O645 0.854 . S
H618 C653 0.930 . S
H619 C654 0.930 . S
H620 C656 0.930 . S
H621 C657 0.930 . S
H622 C659 0.931 . S
H623 C660 0.930 . S
H624 C662 0.930 1_565 S
H625 C663 0.929 . S
H626 C665 0.930 . S
H627 C666 0.931 . S
H628 C668 0.930 . S
H629 C669 0.929 . S
H630 C671 0.931 . S
H631 C672 0.930 . S
H632 C674 0.930 . S
H633 C675 0.932 . S
H634 C677 0.930 . S
H635 C678 0.929 . S
H636 C680 0.931 . S
H637 C681 0.930 . S
H638 C683 0.929 . S
H639 C684 0.931 . S
H640 C686 0.930 . S
H641 C687 0.929 . S
O642 H616 0.856 . S
O642 C688 1.300 . S
O643 C688 1.209 1_565 S
O644 C689 1.199 . S
O645 H617 0.854 . S
O645 C689 1.297 . S
C646 C647 1.404 . S
C646 C651 1.397 . S
C646 C652 1.492 1_545 S
C647 C646 1.404 . S
C647 C648 1.396 . S
C647 C658 1.492 . S
C648 C647 1.396 . S
C648 C649 1.397 . S
C648 C664 1.509 . S
C649 C648 1.397 . S
C649 C650 1.412 . S
C649 C670 1.485 . S
C650 C649 1.412 . S
C650 C651 1.388 . S
C650 C676 1.490 . S
C651 C646 1.397 . S
C651 C650 1.388 . S
C651 C682 1.519 1_545 S
C652 C646 1.492 1_565 S
C652 C653 1.363 . S
C652 C657 1.390 . S
C653 H618 0.930 . S
C653 C652 1.363 . S
C653 C654 1.372 . S
C654 H619 0.930 . S
C654 C653 1.372 . S
C654 C655 1.383 . S
C655 C654 1.383 . S
C655 C656 1.395 . S
C656 H620 0.930 . S
C656 C655 1.395 . S
C656 C657 1.362 . S
C657 H621 0.930 . S
C657 C652 1.390 . S
C657 C656 1.362 . S
C658 C647 1.492 . S
C658 C659 1.377 . S
C658 C663 1.397 . S
C659 H622 0.931 . S
C659 C658 1.377 . S
C659 C660 1.376 . S
C660 H623 0.930 . S
C660 C659 1.376 . S
C660 C661 1.376 . S
C661 C660 1.376 . S
C661 C662 1.378 . S
C661 C688 1.486 . S
C662 H624 0.930 1_545 S
C662 C661 1.378 . S
C662 C663 1.376 . S
C663 H625 0.929 . S
C663 C658 1.397 . S
C663 C662 1.376 . S
C664 C648 1.509 . S
C664 C665 1.391 . S
C664 C669 1.386 . S
C665 H626 0.930 . S
C665 C664 1.391 . S
C665 C666 1.375 . S
C666 H627 0.931 . S
C666 C665 1.375 . S
C666 C667 1.375 . S
C667 C666 1.375 . S
C667 C668 1.361 . S
C668 H628 0.930 . S
C668 C667 1.361 . S
C668 C669 1.399 . S
C669 H629 0.929 . S
C669 C664 1.386 . S
C669 C668 1.399 . S
C670 C649 1.485 . S
C670 C671 1.394 . S
C670 C675 1.360 . S
C671 H630 0.931 . S
C671 C670 1.394 . S
C671 C672 1.372 . S
C672 H631 0.930 . S
C672 C671 1.372 . S
C672 C673 1.397 . S
C673 C672 1.397 . S
C673 C674 1.390 . S
C673 C689 1.476 . S
C674 H632 0.930 . S
C674 C673 1.390 . S
C674 C675 1.366 . S
C675 H633 0.932 . S
C675 C670 1.360 . S
C675 C674 1.366 . S
C676 C650 1.490 . S
C676 C677 1.380 . S
C676 C681 1.386 . S
C677 H634 0.930 . S
C677 C676 1.380 . S
C677 C678 1.381 . S
C678 H635 0.929 . S
C678 C677 1.381 . S
C678 C679 1.371 . S
C679 C678 1.371 . S
C679 C680 1.380 . S
C680 H636 0.931 . S
C680 C679 1.380 . S
C680 C681 1.387 . S
C681 H637 0.930 . S
C681 C676 1.386 . S
C681 C680 1.387 . S
C682 C651 1.519 1_565 S
C682 C683 1.377 . S
C682 C687 1.361 . S
C683 H638 0.929 . S
C683 C682 1.377 . S
C683 C684 1.386 . S
C684 H639 0.931 . S
C684 C683 1.386 . S
C684 C685 1.363 . S
C685 C684 1.363 . S
C685 C686 1.385 . S
C686 H640 0.930 . S
C686 C685 1.385 . S
C686 C687 1.396 . S
C687 H641 0.929 . S
C687 C682 1.361 . S
C687 C686 1.396 . S
C688 O642 1.300 . S
C688 O643 1.209 1_545 S
C688 C661 1.486 . S
C689 O644 1.199 . S
C689 O645 1.297 . S
C689 C673 1.476 . S
H690 O716 0.856 . S
H691 O719 0.854 . S
H692 C727 0.930 . S
H693 C728 0.930 . S
H694 C730 0.930 . S
H695 C731 0.930 . S
H696 C733 0.931 . S
H697 C734 0.930 . S
H698 C736 0.930 . S
H699 C737 0.929 . S
H700 C739 0.930 . S
H701 C740 0.931 . S
H702 C742 0.930 . S
H703 C743 0.929 . S
H704 C745 0.931 . S
H705 C746 0.930 . S
H706 C748 0.930 . S
H707 C749 0.932 . S
H708 C751 0.930 . S
H709 C752 0.929 . S
H710 C754 0.931 . S
H711 C755 0.930 . S
H712 C757 0.929 . S
H713 C758 0.931 . S
H714 C760 0.930 . S
H715 C761 0.929 . S
O716 H690 0.856 . S
O716 C762 1.300 . S
O717 C762 1.209 . S
O718 C763 1.199 . S
O719 H691 0.854 . S
O719 C763 1.297 . S
C720 C721 1.404 . S
C720 C725 1.397 1_556 S
C720 C726 1.492 . S
C721 C720 1.404 . S
C721 C722 1.396 . S
C721 C732 1.492 . S
C722 C721 1.396 . S
C722 C723 1.397 1_556 S
C722 C738 1.509 . S
C723 C722 1.397 1_554 S
C723 C724 1.412 . S
C723 C744 1.485 . S
C724 C723 1.412 . S
C724 C725 1.388 . S
C724 C750 1.490 . S
C725 C720 1.397 1_554 S
C725 C724 1.388 . S
C725 C756 1.519 . S
C726 C720 1.492 . S
C726 C727 1.363 . S
C726 C731 1.390 . S
C727 H692 0.930 . S
C727 C726 1.363 . S
C727 C728 1.372 . S
C728 H693 0.930 . S
C728 C727 1.372 . S
C728 C729 1.383 . S
C729 C728 1.383 . S
C729 C730 1.395 . S
C730 H694 0.930 . S
C730 C729 1.395 . S
C730 C731 1.362 . S
C731 H695 0.930 . S
C731 C726 1.390 . S
C731 C730 1.362 . S
C732 C721 1.492 . S
C732 C733 1.377 . S
C732 C737 1.397 . S
C733 H696 0.931 . S
C733 C732 1.377 . S
C733 C734 1.376 . S
C734 H697 0.930 . S
C734 C733 1.376 . S
C734 C735 1.376 . S
C735 C734 1.376 . S
C735 C736 1.378 . S
C735 C762 1.486 . S
C736 H698 0.930 . S
C736 C735 1.378 . S
C736 C737 1.376 . S
C737 H699 0.929 . S
C737 C732 1.397 . S
C737 C736 1.376 . S
C738 C722 1.509 . S
C738 C739 1.391 . S
C738 C743 1.386 . S
C739 H700 0.930 . S
C739 C738 1.391 . S
C739 C740 1.375 . S
C740 H701 0.931 . S
C740 C739 1.375 . S
C740 C741 1.375 . S
C741 C740 1.375 . S
C741 C742 1.361 . S
C742 H702 0.930 . S
C742 C741 1.361 . S
C742 C743 1.399 . S
C743 H703 0.929 . S
C743 C738 1.386 . S
C743 C742 1.399 . S
C744 C723 1.485 . S
C744 C745 1.394 . S
C744 C749 1.360 . S
C745 H704 0.931 . S
C745 C744 1.394 . S
C745 C746 1.372 . S
C746 H705 0.930 . S
C746 C745 1.372 . S
C746 C747 1.397 . S
C747 C746 1.397 . S
C747 C748 1.390 . S
C747 C763 1.476 . S
C748 H706 0.930 . S
C748 C747 1.390 . S
C748 C749 1.366 . S
C749 H707 0.932 . S
C749 C744 1.360 . S
C749 C748 1.366 . S
C750 C724 1.490 . S
C750 C751 1.380 . S
C750 C755 1.386 . S
C751 H708 0.930 . S
C751 C750 1.380 . S
C751 C752 1.381 . S
C752 H709 0.929 . S
C752 C751 1.381 . S
C752 C753 1.371 . S
C753 C752 1.371 . S
C753 C754 1.380 . S
C754 H710 0.931 . S
C754 C753 1.380 . S
C754 C755 1.387 . S
C755 H711 0.930 . S
C755 C750 1.386 . S
C755 C754 1.387 . S
C756 C725 1.519 . S
C756 C757 1.377 . S
C756 C761 1.361 . S
C757 H712 0.929 . S
C757 C756 1.377 . S
C757 C758 1.386 . S
C758 H713 0.931 . S
C758 C757 1.386 . S
C758 C759 1.363 . S
C759 C758 1.363 . S
C759 C760 1.385 . S
C760 H714 0.930 . S
C760 C759 1.385 . S
C760 C761 1.396 . S
C761 H715 0.929 . S
C761 C756 1.361 . S
C761 C760 1.396 . S
C762 O716 1.300 . S
C762 O717 1.209 . S
C762 C735 1.486 . S
C763 O718 1.199 . S
C763 O719 1.297 . S
C763 C747 1.476 . S
C764 C765 1.387 . S
C764 H768 0.950 . S
C764 C773 1.390 . S
C765 C764 1.387 . S
C765 C767 1.387 . S
H766 C773 0.950 . S
C767 C765 1.387 . S
C767 C769 1.390 . S
C767 H771 0.950 . S
H768 C764 0.950 . S
C769 C767 1.390 . S
C769 C770 1.387 . S
C769 H772 0.950 . S
C770 C769 1.387 . S
C770 C773 1.387 . S
H771 C767 0.950 . S
H772 C769 0.950 . S
C773 C764 1.390 . S
C773 H766 0.950 . S
C773 C770 1.387 . S
C774 C775 1.387 . S
C774 H778 0.950 . S
C774 C783 1.390 . S
C775 C774 1.387 . S
C775 C777 1.387 . S
H776 C783 0.950 . S
C777 C775 1.387 . S
C777 C779 1.390 . S
C777 H781 0.950 . S
H778 C774 0.950 . S
C779 C777 1.390 . S
C779 C780 1.387 . S
C779 H782 0.950 . S
C780 C779 1.387 . S
C780 C783 1.387 . S
H781 C777 0.950 . S
H782 C779 0.950 . S
C783 C774 1.390 . S
C783 H776 0.950 . S
C783 C780 1.387 . S
C784 C785 1.387 . S
C784 H788 0.950 . S
C784 C793 1.390 . S
C785 C784 1.387 . S
C785 C787 1.387 . S
H786 C793 0.950 . S
C787 C785 1.387 . S
C787 C789 1.390 . S
C787 H791 0.950 . S
H788 C784 0.950 . S
C789 C787 1.390 . S
C789 C790 1.387 . S
C789 H792 0.950 . S
C790 C789 1.387 . S
C790 C793 1.387 . S
H791 C787 0.950 . S
H792 C789 0.950 . S
C793 C784 1.390 . S
C793 H786 0.950 . S
C793 C790 1.387 . S
C794 C795 1.387 . S
C794 H798 0.950 . S
C794 C803 1.390 . S
C795 C794 1.387 . S
C795 C797 1.387 . S
H796 C803 0.950 . S
C797 C795 1.387 . S
C797 C799 1.390 . S
C797 H801 0.950 . S
H798 C794 0.950 . S
C799 C797 1.390 . S
C799 C800 1.387 . S
C799 H802 0.950 . S
C800 C799 1.387 . S
C800 C803 1.387 . S
H801 C797 0.950 . S
H802 C799 0.950 . S
C803 C794 1.390 . S
C803 H796 0.950 . S
C803 C800 1.387 . S
C804 C805 1.387 . S
C804 H808 0.950 . S
C804 C813 1.390 . S
C805 C804 1.387 . S
C805 C807 1.387 . S
H806 C813 0.950 . S
C807 C805 1.387 . S
C807 C809 1.390 . S
C807 H811 0.950 . S
H808 C804 0.950 . S
C809 C807 1.390 . S
C809 C810 1.387 . S
C809 H812 0.950 . S
C810 C809 1.387 . S
C810 C813 1.387 . S
H811 C807 0.950 . S
H812 C809 0.950 . S
C813 C804 1.390 . S
C813 H806 0.950 . S
C813 C810 1.387 . S
C814 C815 1.387 . S
C814 H818 0.950 . S
C814 C823 1.390 . S
C815 C814 1.387 . S
C815 C817 1.387 . S
H816 C823 0.950 . S
C817 C815 1.387 . S
C817 C819 1.390 . S
C817 H821 0.950 . S
H818 C814 0.950 . S
C819 C817 1.390 . S
C819 C820 1.387 . S
C819 H822 0.950 . S
C820 C819 1.387 . S
C820 C823 1.387 . S
H821 C817 0.950 . S
H822 C819 0.950 . S
C823 C814 1.390 . S
C823 H816 0.950 . S
C823 C820 1.387 . S
C824 C825 1.387 . S
C824 H828 0.950 . S
C824 C833 1.390 . S
C825 C824 1.387 . S
C825 C827 1.387 . S
H826 C833 0.950 . S
C827 C825 1.387 . S
C827 C829 1.390 . S
C827 H831 0.950 . S
H828 C824 0.950 . S
C829 C827 1.390 . S
C829 C830 1.387 . S
C829 H832 0.950 . S
C830 C829 1.387 . S
C830 C833 1.387 . S
H831 C827 0.950 . S
H832 C829 0.950 . S
C833 C824 1.390 . S
C833 H826 0.950 . S
C833 C830 1.387 . S
C834 C835 1.387 . S
C834 H838 0.950 . S
C834 C843 1.390 . S
C835 C834 1.387 . S
C835 C837 1.387 . S
H836 C843 0.950 . S
C837 C835 1.387 . S
C837 C839 1.390 . S
C837 H841 0.950 . S
H838 C834 0.950 . S
C839 C837 1.390 . S
C839 C840 1.387 . S
C839 H842 0.950 . S
C840 C839 1.387 . S
C840 C843 1.387 . S
H841 C837 0.950 . S
H842 C839 0.950 . S
C843 C834 1.390 . S
C843 H836 0.950 . S
C843 C840 1.387 . S
C844 C845 1.387 . S
C844 H848 0.950 . S
C844 C853 1.390 . S
C845 C844 1.387 . S
C845 C847 1.387 . S
H846 C853 0.950 . S
C847 C845 1.387 . S
C847 C849 1.390 . S
C847 H851 0.950 . S
H848 C844 0.950 . S
C849 C847 1.390 . S
C849 C850 1.387 . S
C849 H852 0.950 . S
C850 C849 1.387 . S
C850 C853 1.387 . S
H851 C847 0.950 . S
H852 C849 0.950 . S
C853 C844 1.390 . S
C853 H846 0.950 . S
C853 C850 1.387 . S
C854 C855 1.387 . S
C854 H858 0.950 . S
C854 C863 1.390 . S
C855 C854 1.387 . S
C855 C857 1.387 . S
H856 C863 0.950 . S
C857 C855 1.387 . S
C857 C859 1.390 . S
C857 H861 0.950 . S
H858 C854 0.950 . S
C859 C857 1.390 . S
C859 C860 1.387 . S
C859 H862 0.950 . S
C860 C859 1.387 . S
C860 C863 1.387 . S
H861 C857 0.950 . S
H862 C859 0.950 . S
C863 C854 1.390 . S
C863 H856 0.950 . S
C863 C860 1.387 . S
C864 C865 1.387 . S
C864 H868 0.950 . S
C864 C873 1.390 . S
C865 C864 1.387 . S
C865 C867 1.387 . S
H866 C873 0.950 . S
C867 C865 1.387 . S
C867 C869 1.390 . S
C867 H871 0.950 . S
H868 C864 0.950 . S
C869 C867 1.390 . S
C869 C870 1.387 . S
C869 H872 0.950 . S
C870 C869 1.387 . S
C870 C873 1.387 . S
H871 C867 0.950 . S
H872 C869 0.950 . S
C873 C864 1.390 . S
C873 H866 0.950 . S
C873 C870 1.387 . S
C874 C875 1.387 . S
C874 H878 0.950 . S
C874 C883 1.390 . S
C875 C874 1.387 . S
C875 C877 1.387 . S
H876 C883 0.950 . S
C877 C875 1.387 . S
C877 C879 1.390 . S
C877 H881 0.950 . S
H878 C874 0.950 . S
C879 C877 1.390 . S
C879 C880 1.387 . S
C879 H882 0.950 . S
C880 C879 1.387 . S
C880 C883 1.387 . S
H881 C877 0.950 . S
H882 C879 0.950 . S
C883 C874 1.390 . S
C883 H876 0.950 . S
C883 C880 1.387 . S
C884 C885 1.387 . S
C884 H888 0.950 . S
C884 C893 1.390 . S
C885 C884 1.387 . S
C885 C887 1.387 . S
H886 C893 0.950 . S
C887 C885 1.387 . S
C887 C889 1.390 . S
C887 H891 0.950 . S
H888 C884 0.950 . S
C889 C887 1.390 . S
C889 C890 1.387 . S
C889 H892 0.950 . S
C890 C889 1.387 . S
C890 C893 1.387 . S
H891 C887 0.950 . S
H892 C889 0.950 . S
C893 C884 1.390 . S
C893 H886 0.950 . S
C893 C890 1.387 . S
C894 C895 1.387 . S
C894 H898 0.950 . S
C894 C903 1.390 . S
C895 C894 1.387 . S
C895 C897 1.387 . S
H896 C903 0.950 . S
C897 C895 1.387 . S
C897 C899 1.390 . S
C897 H901 0.950 . S
H898 C894 0.950 . S
C899 C897 1.390 . S
C899 C900 1.387 . S
C899 H902 0.950 . S
C900 C899 1.387 . S
C900 C903 1.387 . S
H901 C897 0.950 . S
H902 C899 0.950 . S
C903 C894 1.390 . S
C903 H896 0.950 . S
C903 C900 1.387 . S
C904 C905 1.387 . S
C904 H908 0.950 . S
C904 C913 1.390 . S
C905 C904 1.387 . S
C905 C907 1.387 . S
H906 C913 0.950 . S
C907 C905 1.387 . S
C907 C909 1.390 . S
C907 H911 0.950 . S
H908 C904 0.950 . S
C909 C907 1.390 . S
C909 C910 1.387 . S
C909 H912 0.950 . S
C910 C909 1.387 . S
C910 C913 1.387 . S
H911 C907 0.950 . S
H912 C909 0.950 . S
C913 C904 1.390 . S
C913 H906 0.950 . S
C913 C910 1.387 . S
C914 C915 1.387 . S
C914 H918 0.950 . S
C914 C923 1.390 . S
C915 C914 1.387 . S
C915 C917 1.387 . S
H916 C923 0.950 . S
C917 C915 1.387 . S
C917 C919 1.390 . S
C917 H921 0.950 . S
H918 C914 0.950 . S
C919 C917 1.390 . S
C919 C920 1.387 . S
C919 H922 0.950 . S
C920 C919 1.387 . S
C920 C923 1.387 . S
H921 C917 0.950 . S
H922 C919 0.950 . S
C923 C914 1.390 . S
C923 H916 0.950 . S
C923 C920 1.387 . S
C924 C925 1.387 . S
C924 H928 0.950 . S
C924 C933 1.390 . S
C925 C924 1.387 . S
C925 C927 1.387 . S
H926 C933 0.950 . S
C927 C925 1.387 . S
C927 C929 1.390 . S
C927 H931 0.950 . S
H928 C924 0.950 . S
C929 C927 1.390 . S
C929 C930 1.387 . S
C929 H932 0.950 . S
C930 C929 1.387 . S
C930 C933 1.387 . S
H931 C927 0.950 . S
H932 C929 0.950 . S
C933 C924 1.390 . S
C933 H926 0.950 . S
C933 C930 1.387 . S
C934 C935 1.387 . S
C934 H938 0.950 . S
C934 C943 1.390 . S
C935 C934 1.387 . S
C935 C937 1.387 . S
H936 C943 0.950 . S
C937 C935 1.387 . S
C937 C939 1.390 . S
C937 H941 0.950 . S
H938 C934 0.950 . S
C939 C937 1.390 . S
C939 C940 1.387 . S
C939 H942 0.950 . S
C940 C939 1.387 . S
C940 C943 1.387 . S
H941 C937 0.950 . S
H942 C939 0.950 . S
C943 C934 1.390 . S
C943 H936 0.950 . S
C943 C940 1.387 . S
C944 C945 1.387 . S
C944 H948 0.950 . S
C944 C953 1.390 . S
C945 C944 1.387 . S
C945 C947 1.387 . S
H946 C953 0.950 . S
C947 C945 1.387 . S
C947 C949 1.390 . S
C947 H951 0.950 . S
H948 C944 0.950 . S
C949 C947 1.390 . S
C949 C950 1.387 . S
C949 H952 0.950 . S
C950 C949 1.387 . S
C950 C953 1.387 . S
H951 C947 0.950 . S
H952 C949 0.950 . S
C953 C944 1.390 . S
C953 H946 0.950 . S
C953 C950 1.387 . S
C954 C955 1.387 . S
C954 H958 0.950 . S
C954 C963 1.390 . S
C955 C954 1.387 . S
C955 C957 1.387 . S
H956 C963 0.950 . S
C957 C955 1.387 . S
C957 C959 1.390 . S
C957 H961 0.950 . S
H958 C954 0.950 . S
C959 C957 1.390 . S
C959 C960 1.387 . S
C959 H962 0.950 . S
C960 C959 1.387 . S
C960 C963 1.387 . S
H961 C957 0.950 . S
H962 C959 0.950 . S
C963 C954 1.390 . S
C963 H956 0.950 . S
C963 C960 1.387 . S
C964 C965 1.387 . S
C964 H968 0.950 . S
C964 C973 1.390 . S
C965 C964 1.387 . S
C965 C967 1.387 . S
H966 C973 0.950 . S
C967 C965 1.387 . S
C967 C969 1.390 . S
C967 H971 0.950 . S
H968 C964 0.950 . S
C969 C967 1.390 . S
C969 C970 1.387 . S
C969 H972 0.950 . S
C970 C969 1.387 . S
C970 C973 1.387 . S
H971 C967 0.950 . S
H972 C969 0.950 . S
C973 C964 1.390 . S
C973 H966 0.950 . S
C973 C970 1.387 . S
C974 C975 1.387 . S
C974 H978 0.950 . S
C974 C983 1.390 . S
C975 C974 1.387 . S
C975 C977 1.387 . S
H976 C983 0.950 . S
C977 C975 1.387 . S
C977 C979 1.390 . S
C977 H981 0.950 . S
H978 C974 0.950 . S
C979 C977 1.390 . S
C979 C980 1.387 . S
C979 H982 0.950 . S
C980 C979 1.387 . S
C980 C983 1.387 . S
H981 C977 0.950 . S
H982 C979 0.950 . S
C983 C974 1.390 . S
C983 H976 0.950 . S
C983 C980 1.387 . S
C984 C985 1.387 . S
C984 H988 0.950 . S
C984 C993 1.390 . S
C985 C984 1.387 . S
C985 C987 1.387 . S
H986 C993 0.950 . S
C987 C985 1.387 . S
C987 C989 1.390 . S
C987 H991 0.950 . S
H988 C984 0.950 . S
C989 C987 1.390 . S
C989 C990 1.387 . S
C989 H992 0.950 . S
C990 C989 1.387 . S
C990 C993 1.387 . S
H991 C987 0.950 . S
H992 C989 0.950 . S
C993 C984 1.390 . S
C993 H986 0.950 . S
C993 C990 1.387 . S
C994 C995 1.387 . S
C994 H998 0.950 . S
C994 C1003 1.390 . S
C995 C994 1.387 . S
C995 C997 1.387 . S
H996 C1003 0.950 . S
C997 C995 1.387 . S
C997 C999 1.390 . S
C997 H1001 0.950 . S
H998 C994 0.950 . S
C999 C997 1.390 . S
C999 C1000 1.387 . S
C999 H1002 0.950 . S
C1000 C999 1.387 . S
C1000 C1003 1.387 . S
H1001 C997 0.950 . S
H1002 C999 0.950 . S
C1003 C994 1.390 . S
C1003 H996 0.950 . S
C1003 C1000 1.387 . S
C770 C359 1.509 . S
C765 C15 1.553 . S
C780 C463 2.020 . S
C775 C55 2.050 . S
C790 C383 1.488 . S
C785 C101 1.554 . S
C800 C445 1.735 . S
C795 C141 1.606 . S
C810 C519 1.410 . S
C805 C2 1.410 . S
C820 C581 1.724 . S
C815 C61 1.794 . S
C825 C95 1.109 . S
C830 C655 1.074 . S
C840 C741 1.328 . S
C835 C135 1.301 . S
C850 C537 2.339 . S
C845 C42 2.373 . S
C855 C82 1.772 . S
C860 C605 1.718 . S
C870 C679 1.351 . S
C865 C122 1.257 . S
C880 C759 1.697 . S
C875 C21 1.661 . S
C885 C162 1.717 . S
C890 C457 1.606 . S
C900 C371 2.090 . S
C895 C221 2.219 . S
C905 C255 1.446 . S
C910 C433 1.325 . S
C915 C282 2.369 . S
C920 C389 2.375 . S
C930 C685 1.764 . S
C925 C181 1.842 . S
C940 C753 1.520 . S
C935 C202 1.491 . S
C950 C531 1.926 . S
C945 C242 2.117 . S
C955 C301 2.339 . S
C960 C611 2.423 . S
C970 C667 1.859 . S
C965 C215 1.868 . S
C980 C729 1.313 . S
C975 C261 1.416 . S
C990 C507 1.926 . S
C985 C295 2.018 . S
C995 C175 1.430 . S
C1000 C593 1.433 . S
