# Generated by pormake.
# Topology anh, (6,3)-cn, num edge types: 1
# Building blocks:
#     Node 0, Type 0, BuildingBlock: CUWYAW_clean_sbu_0, # of connection points: 6
#     Node 1, Type 0, BuildingBlock: CUWYAW_clean_sbu_0, # of connection points: 6
#     Node 2, Type 0, BuildingBlock: CUWYAW_clean_sbu_0, # of connection points: 6
#     Node 3, Type 1, BuildingBlock: ESEHIV_clean_linker_0, # of connection points: 3
#     Node 4, Type 1, BuildingBlock: ESEHIV_clean_linker_0, # of connection points: 3
#     Node 5, Type 1, BuildingBlock: ESEHIV_clean_linker_0, # of connection points: 3
#     Node 6, Type 1, BuildingBlock: ESEHIV_clean_linker_0, # of connection points: 3
#     Node 7, Type 1, BuildingBlock: ESEHIV_clean_linker_0, # of connection points: 3
#     Node 8, Type 1, BuildingBlock: ESEHIV_clean_linker_0, # of connection points: 3
#     Edge 9, Type (0, 1), BuildingBlock: XUDNAN_clean_linker_2, # of connection points: 2
#     Edge 10, Type (0, 1), BuildingBlock: XUDNAN_clean_linker_2, # of connection points: 2
#     Edge 11, Type (0, 1), BuildingBlock: XUDNAN_clean_linker_2, # of connection points: 2
#     Edge 12, Type (0, 1), BuildingBlock: XUDNAN_clean_linker_2, # of connection points: 2
#     Edge 13, Type (0, 1), BuildingBlock: XUDNAN_clean_linker_2, # of connection points: 2
#     Edge 14, Type (0, 1), BuildingBlock: XUDNAN_clean_linker_2, # of connection points: 2
#     Edge 15, Type (0, 1), BuildingBlock: XUDNAN_clean_linker_2, # of connection points: 2
#     Edge 16, Type (0, 1), BuildingBlock: XUDNAN_clean_linker_2, # of connection points: 2
#     Edge 17, Type (0, 1), BuildingBlock: XUDNAN_clean_linker_2, # of connection points: 2
#     Edge 18, Type (0, 1), BuildingBlock: XUDNAN_clean_linker_2, # of connection points: 2
#     Edge 19, Type (0, 1), BuildingBlock: XUDNAN_clean_linker_2, # of connection points: 2
#     Edge 20, Type (0, 1), BuildingBlock: XUDNAN_clean_linker_2, # of connection points: 2
#     Edge 21, Type (0, 1), BuildingBlock: XUDNAN_clean_linker_2, # of connection points: 2
#     Edge 22, Type (0, 1), BuildingBlock: XUDNAN_clean_linker_2, # of connection points: 2
#     Edge 23, Type (0, 1), BuildingBlock: XUDNAN_clean_linker_2, # of connection points: 2
#     Edge 24, Type (0, 1), BuildingBlock: XUDNAN_clean_linker_2, # of connection points: 2
#     Edge 25, Type (0, 1), BuildingBlock: XUDNAN_clean_linker_2, # of connection points: 2
#     Edge 26, Type (0, 1), BuildingBlock: XUDNAN_clean_linker_2, # of connection points: 2
# Relax obj value: 0.311
# Max RMSD: 0.194
# Mean RMSD: 0.164
data_MOF--net-anh--node1-CUWYAW_clean_sbu_0--node2-ESEHIV_clean_linker_0--edge1-XUDNAN_clean_linker_2
_symmetry_space_group_name_H-M    P1
_symmetry_Int_Tables_number       1
_symmetry_cell_setting            triclinic
loop_
_symmetry_equiv_pos_as_xyz
'x, y, z'
_cell_length_a     28.699539
_cell_length_b     28.763796
_cell_length_c     51.492827
_cell_angle_alpha  89.211004
_cell_angle_beta   90.02846
_cell_angle_gamma 119.96159
loop_
_atom_site_label
_atom_site_type_symbol
_atom_site_fract_x
_atom_site_fract_y
_atom_site_fract_z
_atom_type_partial_charge
C0 C 1.05378 0.39633 0.15122 0.0
Eu1 Eu 0.12059 0.49771 0.15954 0.0
C2 C 0.99533 0.36754 0.1468 0.0
C3 C 0.9628 0.31732 0.15876 0.0
C4 C 0.90689 0.29499 0.15951 0.0
C5 C 0.88309 0.32312 0.14866 0.0
C6 C 0.91534 0.37173 0.13536 0.0
C7 C 0.97094 0.39344 0.13416 0.0
C8 C 0.14804 0.53149 0.20956 0.0
C9 C 1.0462 0.55914 0.1558 0.0
C10 C 0.23518 0.71048 0.17744 0.0
Eu11 Eu 0.17522 0.61154 0.16291 0.0
C12 C 0.23067 0.75458 0.18887 0.0
C13 C 0.19027 0.76601 0.18143 0.0
C14 C 0.19052 0.81157 0.19087 0.0
C15 C 0.23091 0.846 0.208 0.0
C16 C 0.26991 0.83294 0.21609 0.0
C17 C 0.26971 0.78771 0.20662 0.0
C18 C 0.15396 0.57662 0.11361 0.0
C19 C 0.25171 0.5529 0.15513 0.0
O20 O 1.08398 0.4302 0.13311 0.0
O21 O 1.06813 0.41626 0.17435 0.0
O22 O 0.15613 0.49625 0.19816 0.0
O23 O 0.1273 0.55002 0.19354 0.0
O24 O 1.05042 0.51629 0.14983 0.0
O25 O 1.08981 0.60122 0.16526 0.0
O26 O 0.22344 0.66914 0.19256 0.0
O27 O 0.21764 0.69697 0.15378 0.0
O28 O 0.15028 0.61732 0.1214 0.0
O29 O 0.17124 0.55902 0.13125 0.0
O30 O 0.24883 0.59599 0.16242 0.0
O31 O 0.20538 0.50809 0.15044 0.0
H32 H 0.9808 0.29683 0.16875 0.0
H33 H 0.88264 0.25751 0.17001 0.0
H34 H 0.89774 0.3939 0.1268 0.0
H35 H 0.99482 0.43179 0.12449 0.0
H36 H 0.15942 0.74058 0.16786 0.0
H37 H 0.15986 0.82046 0.18439 0.0
H38 H 0.30232 0.85907 0.2288 0.0
H39 H 0.30122 0.77956 0.21253 0.0
C40 C 0.55204 0.19153 0.48771 0.0
Eu41 Eu 0.58496 0.12268 0.49285 0.0
C42 C 0.58105 0.2498 0.49239 0.0
C43 C 0.60026 0.26959 0.51726 0.0
C44 C 0.63576 0.3241 0.52073 0.0
C45 C 0.65315 0.36002 0.49942 0.0
C46 C 0.63192 0.3407 0.47475 0.0
C47 C 0.5961 0.28603 0.47128 0.0
C48 C 0.60962 0.09623 0.54017 0.0
C49 C 0.72054 0.19961 0.48534 0.0
C50 C 0.68663 1.0079 0.49522 0.0
Eu51 Eu 0.64538 1.06906 0.48665 0.0
C52 C 0.73586 1.01146 0.50579 0.0
C53 C 0.7875 1.05209 0.49803 0.0
C54 C 0.83326 1.05277 0.50802 0.0
C55 C 0.82785 1.0133 0.5261 0.0
C56 C 0.77601 0.97335 0.534 0.0
C57 C 0.7306 0.97249 0.52394 0.0
C58 C 0.62682 0.10411 0.4415 0.0
C59 C 0.50901 0.99305 0.48311 0.0
O60 O 0.57064 0.17655 0.46834 0.0
O61 O 0.54062 0.15983 0.50805 0.0
O62 O 0.56345 0.09121 0.53418 0.0
O63 O 0.64125 0.11481 0.52064 0.0
O64 O 0.67245 0.19636 0.48687 0.0
O65 O 0.72196 0.15405 0.48688 0.0
O66 O 0.65552 1.01355 0.51193 0.0
O67 O 0.69032 1.03166 0.47285 0.0
O68 O 0.67219 0.10657 0.44683 0.0
O69 O 0.59282 0.08078 0.45952 0.0
O70 O 0.55648 0.9945 0.48328 0.0
O71 O 0.50961 1.03935 0.48583 0.0
H72 H 0.58955 0.24283 0.53398 0.0
H73 H 0.65034 0.33799 0.5401 0.0
H74 H 0.64462 0.3674 0.45796 0.0
H75 H 0.58206 0.27171 0.45189 0.0
H76 H 0.79249 0.08287 0.48412 0.0
H77 H 0.87271 0.08388 0.50158 0.0
H78 H 0.77039 0.94158 0.54742 0.0
H79 H 0.69115 0.94077 0.53009 0.0
C80 C 0.821 0.67714 0.83705 0.0
Eu81 Eu 0.72014 0.64348 0.82984 0.0
C82 C 0.83993 0.65262 0.85653 0.0
C83 C 0.8174 0.64183 0.88169 0.0
C84 C 0.8178 0.60211 0.89723 0.0
C85 C 0.84126 0.5728 0.88805 0.0
C86 C 0.86863 0.5874 0.86401 0.0
C87 C 0.86783 0.62697 0.84833 0.0
C88 C 0.66093 0.61061 0.87507 0.0
C89 C 0.66448 0.51098 0.81862 0.0
C90 C 0.50667 0.53959 0.81636 0.0
Eu91 Eu 0.611 0.58713 0.8175 0.0
C92 C 0.45579 0.53726 0.80947 0.0
C93 C 0.41922 0.49448 0.79421 0.0
C94 C 0.36558 0.48157 0.79291 0.0
C95 C 0.34772 0.51139 0.80679 0.0
C96 C 0.38533 0.55741 0.81998 0.0
C97 C 0.43911 0.57015 0.82145 0.0
C98 C 0.67708 0.61982 0.77517 0.0
C99 C 0.66847 0.72179 0.81788 0.0
O100 O 0.79408 0.64529 0.81808 0.0
O101 O 0.79729 0.70224 0.84615 0.0
O102 O 0.7015 0.65755 0.87043 0.0
O103 O 0.65081 0.5824 0.85475 0.0
O104 O 0.70965 0.55878 0.81821 0.0
O105 O 0.61894 0.51128 0.82235 0.0
O106 O 0.53529 0.56977 0.83558 0.0
O107 O 0.53556 0.53578 0.79781 0.0
O108 O 0.63462 0.57274 0.77715 0.0
O109 O 0.68098 0.64694 0.79463 0.0
O110 O 0.62222 0.67479 0.81802 0.0
O111 O 0.71383 0.71981 0.82006 0.0
H112 H 0.79536 0.66071 0.88864 0.0
H113 H 0.79653 0.592 0.91566 0.0
H114 H 0.8886 0.5666 0.8568 0.0
H115 H 0.88518 0.63436 0.82898 0.0
H116 H 0.43111 0.4684 0.78491 0.0
H117 H 0.33723 0.44593 0.78263 0.0
H118 H 0.37231 0.58071 0.83104 0.0
H119 H 0.46652 0.60333 0.83339 0.0
H120 H 0.45011 0.19484 0.29528 0.0
H121 H 0.61342 0.26424 0.26789 0.0
H122 H 0.48415 0.20059 0.21362 0.0
C123 C 0.47898 0.20764 0.27946 0.0
C124 C 0.46022 0.19482 0.25387 0.0
C125 C 0.53417 0.23173 0.28494 0.0
C126 C 0.57101 0.24822 0.26411 0.0
C127 C 0.55318 0.23819 0.23833 0.0
C128 C 0.49781 0.21172 0.23337 0.0
H129 H 0.94917 0.8062 0.6305 0.0
H130 H 0.87178 0.64104 0.60817 0.0
H131 H 0.93502 0.76562 0.54979 0.0
C132 C 0.93823 0.77634 0.61562 0.0
C133 C 0.9472 0.79294 0.58938 0.0
C134 C 0.91004 0.72156 0.62259 0.0
C135 C 0.89448 0.6833 0.60299 0.0
C136 C 0.90321 0.69891 0.57668 0.0
C137 C 0.93057 0.75376 0.57009 0.0
H138 H 0.96463 0.33706 0.9788 0.0
H139 H 1.1037 0.37435 0.93285 0.0
H140 H 0.96128 0.35116 0.89559 0.0
C141 C 0.98355 0.34306 0.96006 0.0
C142 C 0.95499 0.34246 0.93771 0.0
C143 C 1.03882 0.36041 0.95872 0.0
C144 C 1.06156 0.36265 0.9343 0.0
C145 C 1.03281 0.35791 0.91153 0.0
C146 C 0.98016 0.3488 0.91333 0.0
H147 H 1.05953 0.50216 0.40502 0.0
H148 H 0.20638 0.65329 0.40233 0.0
H149 H 0.11361 0.59907 0.47402 0.0
C150 C 1.08851 0.53771 0.41517 0.0
C151 C 1.07914 0.54342 0.44155 0.0
C152 C 0.13319 0.57731 0.40101 0.0
C153 C 0.17216 0.62398 0.41362 0.0
C154 C 0.16788 0.63358 0.44024 0.0
C155 C 0.11936 0.59292 0.45386 0.0
H156 H 0.6623 0.18994 0.73455 0.0
H157 H 0.6617 1.04054 0.73575 0.0
H158 H 0.66526 0.11659 0.80832 0.0
C159 C 0.66265 0.15812 0.74589 0.0
C160 C 0.66415 0.16104 0.77342 0.0
C161 C 0.66152 0.11495 0.73244 0.0
C162 C 0.66136 0.07242 0.74658 0.0
C163 C 0.66243 1.07064 0.77402 0.0
C164 C 0.66402 0.11612 0.78732 0.0
H165 H 0.56659 0.54472 0.07093 0.0
H166 H 0.71837 0.54976 0.06854 0.0
H167 H 0.65032 0.55698 0.14266 0.0
C168 C 0.59987 0.54599 0.08149 0.0
C169 C 0.60073 0.54992 0.10883 0.0
C170 C 0.64193 0.54657 0.06695 0.0
C171 C 0.68665 0.54929 0.08012 0.0
C172 C 0.69146 0.55195 0.10764 0.0
C173 C 0.64799 0.55376 0.12173 0.0
H174 H 0.28773 0.49443 0.12318 0.0
H175 H 0.34708 0.62089 0.17987 0.0
H176 H 0.43748 0.63059 0.17651 0.0
H177 H 0.37107 0.43547 0.14229 0.0
H178 H 0.38389 0.42335 0.10952 0.0
H179 H 0.32297 0.42412 0.11713 0.0
H180 H 0.34589 0.49697 0.08175 0.0
H181 H 0.40676 0.49625 0.074 0.0
H182 H 0.40986 0.55828 0.08254 0.0
H183 H 0.52684 0.6255 0.16727 0.0
H184 H 0.60061 0.61274 0.15028 0.0
H185 H 0.48812 0.49404 0.09726 0.0
C186 C 0.31946 0.52398 0.13512 0.0
C187 C 0.30795 0.55642 0.15225 0.0
C188 C 0.3527 0.59499 0.16673 0.0
C189 C 0.40507 0.60081 0.16495 0.0
C190 C 0.41491 0.56859 0.14808 0.0
C191 C 0.37315 0.53128 0.13311 0.0
C192 C 0.39531 0.50359 0.11547 0.0
C193 C 0.36658 0.44302 0.12145 0.0
C194 C 0.38907 0.5144 0.08673 0.0
C195 C 0.45543 0.53054 0.12287 0.0
C196 C 0.46585 0.56758 0.14201 0.0
C197 C 0.51831 0.59658 0.15217 0.0
C198 C 0.56065 0.58869 0.14244 0.0
C199 C 0.55245 0.55236 0.12209 0.0
C200 C 0.49779 0.52271 0.11261 0.0
H201 H 0.82508 0.23147 0.46313 0.0
H202 H 0.73665 0.29916 0.49943 0.0
H203 H 0.8163 0.38982 0.49487 0.0
H204 H 0.95856 0.32461 0.48942 0.0
H205 H 0.99456 0.33 0.45983 0.0
H206 H 0.93167 0.26983 0.46696 0.0
H207 H 0.8935 0.27989 0.42318 0.0
H208 H 0.95635 0.33994 0.41588 0.0
H209 H 0.89445 0.34169 0.4155 0.0
H210 H 0.91155 0.47838 0.48669 0.0
H211 H 1.00237 0.5501 0.47261 0.0
H212 H 1.02988 0.4293 0.43816 0.0
C213 C 0.82236 0.26515 0.47041 0.0
C214 C 0.77278 0.25595 0.48223 0.0
C215 C 0.77268 0.30299 0.49061 0.0
C216 C 0.81855 0.35554 0.48809 0.0
C217 C 0.86628 0.36305 0.47654 0.0
C218 C 0.8681 0.31887 0.46746 0.0
C219 C 0.9235 0.3385 0.45445 0.0
C220 C 0.95387 0.31427 0.4685 0.0
C221 C 0.91654 0.32413 0.42554 0.0
C222 C 0.95269 0.40005 0.45781 0.0
C223 C 0.91912 0.41336 0.47092 0.0
C224 C 0.93764 0.46764 0.47655 0.0
C225 C 0.99025 0.50878 0.46851 0.0
C226 C 1.02566 0.4974 0.45416 0.0
C227 C 1.00535 0.44112 0.44906 0.0
H228 H 0.60688 0.75756 0.78716 0.0
H229 H 0.73771 0.81644 0.84211 0.0
H230 H 0.74668 0.90649 0.83941 0.0
H231 H 0.66877 0.88027 0.74645 0.0
H232 H 0.60617 0.87734 0.73856 0.0
H233 H 0.60726 0.81646 0.74598 0.0
H234 H 0.53607 0.793 0.78199 0.0
H235 H 0.53496 0.85394 0.77472 0.0
H236 H 0.54876 0.84056 0.80727 0.0
H237 H 0.74003 0.99521 0.83133 0.0
H238 H 0.72635 1.06916 0.81504 0.0
H239 H 0.60588 0.95869 0.76203 0.0
C240 C 0.63717 0.78911 0.79889 0.0
C241 C 0.67103 0.77758 0.81539 0.0
C242 C 0.71067 0.82212 0.82952 0.0
C243 C 0.71608 0.87426 0.8281 0.0
C244 C 0.6825 0.88417 0.81185 0.0
C245 C 0.64428 0.84271 0.79709 0.0
C246 C 0.61565 0.8652 0.77987 0.0
C247 C 0.625 0.85946 0.751 0.0
C248 C 0.55526 0.83644 0.78634 0.0
C249 C 0.64307 0.9251 0.7873 0.0
C250 C 0.68105 0.93505 0.80614 0.0
C251 C 0.71043 0.98708 0.81643 0.0
C252 C 0.702 1.02951 0.80712 0.0
C253 C 0.66486 1.02191 0.78701 0.0
C254 C 0.63492 0.96771 0.77732 0.0
H255 H 0.95694 0.50631 0.11978 0.0
H256 H 1.01085 0.61706 0.18378 0.0
H257 H 0.92857 0.62382 0.18024 0.0
H258 H 0.90084 0.57763 0.08262 0.0
H259 H 0.84511 0.51763 0.06975 0.0
H260 H 0.90668 0.51872 0.07805 0.0
H261 H 0.85267 0.43599 0.10702 0.0
H262 H 0.7906 0.43513 0.10062 0.0
H263 H 0.81298 0.43813 0.13357 0.0
H264 H 0.83436 0.61766 0.17004 0.0
H265 H 0.74924 0.60635 0.15207 0.0
H266 H 0.75538 0.50491 0.09227 0.0
C267 C 0.95149 0.53173 0.13329 0.0
C268 C 0.99235 0.56066 0.15254 0.0
C269 C 0.98191 0.59397 0.169 0.0
C270 C 0.93438 0.59806 0.16712 0.0
C271 C 0.89553 0.56951 0.14816 0.0
C272 C 0.90404 0.53744 0.13121 0.0
C273 C 0.85719 0.51366 0.11154 0.0
C274 C 0.87873 0.53305 0.08384 0.0
C275 C 0.82654 0.45207 0.11331 0.0
C276 C 0.82088 0.53642 0.12021 0.0
C277 C 0.8436 0.56824 0.14159 0.0
C278 C 0.81705 0.59288 0.15319 0.0
C279 C 0.76761 0.58587 0.14279 0.0
C280 C 0.74316 0.55485 0.1203 0.0
C281 C 0.77144 0.52965 0.10921 0.0
H282 H 0.47856 0.89393 0.45584 0.0
H283 H 0.41004 0.96866 0.503 0.0
H284 H 0.32046 0.88763 0.49941 0.0
H285 H 0.36323 0.82961 0.41165 0.0
H286 H 0.36734 0.76961 0.4076 0.0
H287 H 0.42699 0.83212 0.41493 0.0
H288 H 0.44377 0.78757 0.45494 0.0
H289 H 0.38408 0.72498 0.44774 0.0
H290 H 0.39161 0.7546 0.47919 0.0
H291 H 0.23306 0.79237 0.4913 0.0
H292 H 0.16198 0.70341 0.47612 0.0
H293 H 0.28195 0.68942 0.43124 0.0
C294 C 0.44495 0.89336 0.46566 0.0
C295 C 0.45364 0.93964 0.48019 0.0
C296 C 0.4066 0.93539 0.49191 0.0
C297 C 0.35466 0.88867 0.48998 0.0
C298 C 0.34756 0.84438 0.47567 0.0
C299 C 0.39162 0.84671 0.46335 0.0
C300 C 0.37212 0.79441 0.44799 0.0
C301 C 0.38309 0.8072 0.41881 0.0
C302 C 0.39955 0.76357 0.45806 0.0
C303 C 0.31089 0.76239 0.45364 0.0
C304 C 0.29764 0.79173 0.46999 0.0
C305 C 0.24378 0.76984 0.47834 0.0
C306 C 0.20297 0.71824 0.46967 0.0
C307 C 0.21411 0.68712 0.45212 0.0
C308 C 0.27006 0.71075 0.44436 0.0
H309 H 0.71978 0.4746 0.78408 0.0
H310 H 0.60422 0.41825 0.84736 0.0
H311 H 0.59569 0.32853 0.84484 0.0
H312 H 0.65028 0.35054 0.74716 0.0
H313 H 0.71063 0.35313 0.73532 0.0
H314 H 0.71124 0.41429 0.7432 0.0
H315 H 0.79016 0.43927 0.77458 0.0
H316 H 0.78971 0.37809 0.76683 0.0
H317 H 0.78341 0.3928 0.80014 0.0
H318 H 0.60034 0.23965 0.83561 0.0
H319 H 0.61 0.16498 0.81806 0.0
H320 H 0.71622 0.27254 0.75795 0.0
C321 C 0.69313 0.44374 0.79771 0.0
C322 C 0.66339 0.45591 0.81646 0.0
C323 C 0.62815 0.41214 0.83302 0.0
C324 C 0.62299 0.36017 0.8317 0.0
C325 C 0.6523 0.34955 0.81317 0.0
C326 C 0.68628 0.39024 0.79617 0.0
C327 C 0.7107 0.36697 0.77703 0.0
C328 C 0.69478 0.37152 0.74901 0.0
C329 C 0.77216 0.39603 0.7798 0.0
C330 C 0.6853 0.30736 0.78573 0.0
C331 C 0.65242 0.29843 0.80699 0.0
C332 C 0.6259 0.24697 0.81882 0.0
C333 C 0.63198 0.20408 0.80871 0.0
C334 C 0.66375 0.21048 0.78624 0.0
C335 C 0.69097 0.2642 0.77495 0.0
H336 H 0.84709 0.99377 0.57552 0.0
H337 H 0.91241 1.02217 0.49745 0.0
H338 H 0.97458 0.99065 0.51091 0.0
H339 H 0.97456 1.01228 0.61186 0.0
H340 H 0.93196 0.9575 0.63351 0.0
H341 H 0.90941 1.00185 0.62112 0.0
H342 H 0.82316 0.91996 0.6036 0.0
H343 H 0.84532 0.87587 0.61582 0.0
H344 H 0.82951 0.87477 0.58185 0.0
H345 H 1.00898 0.933 0.52859 0.0
H346 H 1.00914 0.85396 0.54764 0.0
H347 H 0.91577 0.8571 0.61309 0.0
C348 C 0.87625 0.99552 0.56162 0.0
C349 C 0.87504 1.01024 0.53552 0.0
C350 C 0.91325 1.01178 0.51768 0.0
C351 C 0.94875 0.9939 0.5252 0.0
C352 C 0.94587 0.97526 0.55067 0.0
C353 C 0.91098 0.9768 0.56876 0.0
C354 C 0.90665 0.94434 0.59292 0.0
C355 C 0.93219 0.98121 0.61623 0.0
C356 C 0.84773 0.9012 0.59883 0.0
C357 C 0.94004 0.91981 0.58457 0.0
C358 C 0.96447 0.93999 0.56071 0.0
C359 C 0.99118 0.91792 0.54756 0.0
C360 C 0.99064 0.87264 0.55843 0.0
C361 C 0.96231 0.84899 0.58188 0.0
C362 C 0.93921 0.87481 0.59559 0.0
H363 H 0.82145 0.47659 0.86881 0.0
H364 H 0.84744 0.56281 0.94071 0.0
H365 H 0.8459 0.48778 0.96477 0.0
H366 H 0.74351 0.33246 0.89968 0.0
H367 H 0.77676 0.31021 0.87756 0.0
H368 H 0.75987 0.36009 0.86714 0.0
H369 H 0.85921 0.42438 0.8541 0.0
H370 H 0.87621 0.37498 0.86423 0.0
H371 H 0.9112 0.44113 0.8779 0.0
H372 H 0.86957 0.42261 0.97838 0.0
H373 H 0.92372 0.38076 0.97999 0.0
H374 H 0.87663 0.32453 0.90094 0.0
C375 C 0.82559 0.47898 0.88972 0.0
C376 C 0.83491 0.52557 0.90289 0.0
C377 C 0.83973 0.5273 0.93023 0.0
C378 C 0.83842 0.48455 0.94409 0.0
C379 C 0.83164 0.44009 0.93041 0.0
C380 C 0.82475 0.43669 0.90379 0.0
C381 C 0.82909 0.39017 0.89309 0.0
C382 C 0.77402 0.34558 0.88383 0.0
C383 C 0.87147 0.40884 0.87108 0.0
C384 C 0.84665 0.3726 0.91729 0.0
C385 C 0.84509 0.40016 0.93879 0.0
C386 C 0.86938 0.3994 0.96197 0.0
C387 C 0.90046 0.37457 0.96261 0.0
C388 C 0.90683 0.34981 0.94016 0.0
C389 C 0.87485 0.34453 0.9182 0.0
H390 H 0.25824 0.8933 0.25539 0.0
H391 H 0.22011 0.91796 0.17683 0.0
H392 H 0.25394 1.01332 0.1859 0.0
H393 H 0.2438 1.00713 0.28761 0.0
H394 H 0.30113 1.0229 0.30771 0.0
H395 H 0.25583 0.95436 0.29873 0.0
H396 H 0.33615 0.9479 0.27988 0.0
H397 H 0.38116 1.01579 0.2888 0.0
H398 H 0.37871 0.99612 0.2555 0.0
H399 H 0.31419 0.10749 0.19857 0.0
H400 H 0.39531 0.1893 0.21303 0.0
H401 H 0.39856 0.10437 0.28259 0.0
C402 C 0.25505 0.91844 0.24047 0.0
C403 C 0.23662 0.89827 0.21545 0.0
C404 C 0.23322 0.93223 0.1963 0.0
C405 C 0.25245 0.98663 0.20131 0.0
C406 C 0.27434 1.00631 0.22563 0.0
C407 C 0.27492 0.97289 0.24509 0.0
C408 C 0.30994 1.00475 0.2675 0.0
C409 C 0.2756 0.99681 0.29183 0.0
C410 C 0.35408 0.99032 0.2732 0.0
C411 C 0.33315 1.06113 0.25654 0.0
C412 C 0.3105 1.06151 0.23288 0.0
C413 C 0.33113 0.10791 0.2174 0.0
C414 C 0.37749 0.15418 0.22569 0.0
C415 C 0.40332 0.1534 0.249 0.0
C416 C 0.37899 0.107 0.26511 0.0
H417 H 0.74325 0.39962 0.5294 0.0
H418 H 0.65554 0.44916 0.47804 0.0
H419 H 0.72057 0.54412 0.48714 0.0
H420 H 0.76398 0.48952 0.57752 0.0
H421 H 0.83013 0.50246 0.58638 0.0
H422 H 0.78309 0.43941 0.57225 0.0
H423 H 0.8516 0.45487 0.53505 0.0
H424 H 0.8988 0.51682 0.55029 0.0
H425 H 0.88114 0.51729 0.51679 0.0
H426 H 0.78703 0.63191 0.5063 0.0
H427 H 0.8473 0.70522 0.53493 0.0
H428 H 0.89221 0.59866 0.57386 0.0
C429 C 0.73802 0.43046 0.51984 0.0
C430 C 0.6943 0.41708 0.50305 0.0
C431 C 0.68911 0.45855 0.49073 0.0
C432 C 0.72585 0.51256 0.49578 0.0
C433 C 0.76772 0.52427 0.51297 0.0
C434 C 0.7741 0.48435 0.52473 0.0
C435 C 0.81888 0.50705 0.54446 0.0
C436 C 0.79773 0.4832 0.57176 0.0
C437 C 0.86534 0.4984 0.53615 0.0
C438 C 0.83527 0.56575 0.54277 0.0
C439 C 0.80604 0.57505 0.52414 0.0
C440 C 0.81109 0.62541 0.5205 0.0
C441 C 0.84587 0.66699 0.53676 0.0
C442 C 0.87509 0.65793 0.55649 0.0
C443 C 0.87069 0.60693 0.5589 0.0
H444 H 0.28036 0.41279 0.82634 0.0
H445 H 0.28669 0.56024 0.80147 0.0
H446 H 0.19385 0.52542 0.81809 0.0
H447 H 0.13043 0.31823 0.8181 0.0
H448 H 0.12795 0.28226 0.8475 0.0
H449 H 0.1877 0.31207 0.82742 0.0
H450 H 0.2446 0.36428 0.86707 0.0
H451 H 0.18533 0.335 0.88713 0.0
H452 H 0.22665 0.40697 0.88461 0.0
H453 H 0.1081 0.48147 0.8436 0.0
H454 H 1.04175 0.43743 0.87902 0.0
H455 H 1.09424 0.321 0.88945 0.0
C456 C 0.26111 0.43659 0.82328 0.0
C457 C 0.28971 0.48846 0.81204 0.0
C458 C 0.26471 0.51994 0.80959 0.0
C459 C 0.21204 0.50032 0.81885 0.0
C460 C 0.18539 0.44943 0.83061 0.0
C461 C 0.20927 0.41806 0.83288 0.0
C462 C 0.17689 0.36956 0.85034 0.0
C463 C 0.1544 0.31744 0.83491 0.0
C464 C 0.21036 0.369 0.87365 0.0
C465 C 0.13248 0.3799 0.85872 0.0
C466 C 0.13697 0.42509 0.84644 0.0
C467 C 1.10344 0.44537 0.85286 0.0
C468 C 1.06572 0.41997 0.87293 0.0
C469 C 1.06262 0.37545 0.88661 0.0
C470 C 1.0953 0.35434 0.87887 0.0
H471 H 0.8439 0.37809 0.17427 0.0
H472 H 0.79516 0.22703 0.13659 0.0
H473 H 0.70074 0.1941 0.15013 0.0
H474 H 0.76673 0.32103 0.22925 0.0
H475 H 0.75039 0.37305 0.23467 0.0
H476 H 0.81131 0.38857 0.21771 0.0
H477 H 0.78266 0.42667 0.1793 0.0
H478 H 0.72041 0.41005 0.19537 0.0
H479 H 0.71946 0.38498 0.16336 0.0
H480 H 0.61468 0.17441 0.17158 0.0
H481 H 0.54469 0.16592 0.20219 0.0
H482 H 0.65049 0.32826 0.2281 0.0
C483 C 0.81288 0.33875 0.16819 0.0
C484 C 0.82607 0.30525 0.15399 0.0
C485 C 0.78527 0.25327 0.14718 0.0
C486 C 0.73171 0.23449 0.15468 0.0
C487 C 0.72003 0.26813 0.16916 0.0
C488 C 0.75955 0.31911 0.17598 0.0
C489 C 0.73805 0.34432 0.19464 0.0
C490 C 0.76842 0.35747 0.22059 0.0
C491 C 0.74026 0.39445 0.18241 0.0
C492 C 0.68063 0.29899 0.19783 0.0
C493 C 0.67073 0.25594 0.18249 0.0
C494 C 0.62164 0.20817 0.18334 0.0
C495 C 0.58203 0.20381 0.2007 0.0
C496 C 0.59201 0.24671 0.21726 0.0
C497 C 0.64166 0.29514 0.21543 0.0
H498 H 1.07082 0.4829 0.09802 0.0
H499 H 0.21715 0.62198 0.07073 0.0
H500 H 0.20953 0.57676 0.02887 0.0
H501 H 1.09812 0.38509 0.07201 0.0
H502 H 1.03029 0.33834 0.06229 0.0
H503 H 1.04171 0.38077 0.08961 0.0
H504 H 0.98747 0.42129 0.07003 0.0
H505 H 0.9708 0.37611 0.04331 0.0
H506 H 1.00109 0.44723 0.03715 0.0
H507 H 0.18444 0.51605 0.99032 0.0
H508 H 0.13989 0.45036 0.95624 0.0
H509 H 1.0167 0.3444 0.01171 0.0
C510 C 1.10116 0.50349 0.08321 0.0
C511 C 0.14443 0.55549 0.0873 0.0
C512 C 0.18319 0.58231 0.06752 0.0
C513 C 0.17954 0.55665 0.04396 0.0
C514 C 0.13735 0.50414 0.04094 0.0
C515 C 1.09858 0.47804 0.05997 0.0
C516 C 1.05699 0.42203 0.0519 0.0
C517 C 1.05689 0.37909 0.07004 0.0
C518 C 1.00078 0.41636 0.0505 0.0
C519 C 1.07819 0.42068 0.02522 0.0
C520 C 0.12446 0.46836 0.01926 0.0
C521 C 0.14865 0.47822 0.9949 0.0
C522 C 0.12315 0.43974 0.97566 0.0
C523 C 1.07396 0.39139 0.98088 0.0
C524 C 1.05345 0.38087 0.0066 0.0
H525 H 0.53611 0.07823 0.41394 0.0
H526 H 0.70363 0.20025 0.42183 0.0
H527 H 0.69376 0.25372 0.38646 0.0
H528 H 0.53771 0.08146 0.34579 0.0
H529 H 0.46993 1.06909 0.34248 0.0
H530 H 0.48839 1.04507 0.37086 0.0
H531 H 0.4555 0.09597 0.39999 0.0
H532 H 0.43769 0.12083 0.37157 0.0
H533 H 0.48295 0.16715 0.39514 0.0
H534 H 0.66674 0.29159 0.34891 0.0
H535 H 0.62907 0.30499 0.30827 0.0
H536 H 0.48214 0.15329 0.32244 0.0
C537 C 0.57034 0.1166 0.40838 0.0
C538 C 0.62047 0.13552 0.42051 0.0
C539 C 0.66491 0.18522 0.41257 0.0
C540 C 0.65953 0.21605 0.39274 0.0
C541 C 0.60961 0.19615 0.38089 0.0
C542 C 0.566 0.14717 0.38815 0.0
C543 C 0.51882 0.13185 0.37027 0.0
C544 C 0.50281 0.07876 0.35653 0.0
C545 C 0.47091 0.12879 0.38513 0.0
C546 C 0.54315 0.17915 0.35145 0.0
C547 C 0.59497 0.21652 0.35833 0.0
C548 C 0.62615 0.26259 0.34332 0.0
C549 C 0.60448 0.26969 0.32017 0.0
C550 C 0.5526 0.23022 0.31188 0.0
C551 C 0.5213 0.18513 0.32826 0.0
H552 H 0.67312 0.57844 0.72675 0.0
H553 H 0.77937 0.70131 0.78005 0.0
H554 H 0.85442 0.73098 0.74905 0.0
H555 H 0.77333 0.54983 0.6971 0.0
H556 H 0.7467 0.54446 0.66488 0.0
H557 H 0.70277 0.52661 0.69277 0.0
H558 H 0.67259 0.59389 0.67774 0.0
H559 H 0.71578 0.61124 0.6497 0.0
H560 H 0.72275 0.66296 0.67141 0.0
H561 H 0.91713 0.75035 0.71196 0.0
H562 H 0.95971 0.76726 0.66865 0.0
H563 H 0.81038 0.63914 0.63755 0.0
C564 C 0.71246 0.61092 0.73196 0.0
C565 C 0.72087 0.63673 0.75599 0.0
C566 C 0.77235 0.68027 0.76192 0.0
C567 C 0.81536 0.69731 0.74449 0.0
C568 C 0.80603 0.67112 0.72096 0.0
C569 C 0.75568 0.62954 0.7144 0.0
C570 C 0.75506 0.61312 0.68653 0.0
C571 C 0.7438 0.55505 0.68526 0.0
C572 C 0.71415 0.6208 0.6704 0.0
C573 C 0.81244 0.65278 0.6784 0.0
C574 C 0.84153 0.68479 0.69877 0.0
C575 C 0.89483 0.72554 0.6958 0.0
C576 C 0.91857 0.73505 0.67108 0.0
C577 C 0.88862 0.70479 0.64952 0.0
C578 C 0.83518 0.66231 0.65355 0.0
H579 H 0.55254 0.08734 0.5851 0.0
H580 H 0.70678 0.11217 0.55857 0.0
H581 H 0.73658 0.11976 0.60434 0.0
H582 H 0.60317 0.18139 0.63734 0.0
H583 H 0.5476 0.14115 0.659 0.0
H584 H 0.53782 0.1357 0.62438 0.0
H585 H 0.50132 1.03339 0.62778 0.0
H586 H 0.51078 1.03848 0.66244 0.0
H587 H 0.54152 1.00898 0.64323 0.0
H588 H 0.74907 0.12352 0.65395 0.0
H589 H 0.74414 0.12572 0.70194 0.0
H590 H 0.58356 0.10308 0.69658 0.0
C591 C 0.59256 0.09409 0.58887 0.0
C592 C 0.62724 0.09893 0.56796 0.0
C593 C 0.67935 0.10816 0.57402 0.0
C594 C 0.69661 0.11255 0.60006 0.0
C595 C 0.66158 0.108 0.62013 0.0
C596 C 0.61061 0.09909 0.61479 0.0
C597 C 0.58103 0.09666 0.63985 0.0
C598 C 0.56656 0.1414 0.64015 0.0
C599 C 0.53068 1.04108 0.64354 0.0
C600 C 0.62331 0.10598 0.6602 0.0
C601 C 0.66933 0.11188 0.64841 0.0
C602 C 0.71328 0.11927 0.66321 0.0
C603 C 0.71019 0.12052 0.69054 0.0
C604 C 0.66383 0.11521 0.70315 0.0
C605 C 0.61989 0.10804 0.68759 0.0
H606 H 0.72112 0.65535 0.91892 0.0
H607 H 0.57305 0.51696 0.89404 0.0
H608 H 0.5532 0.48409 0.93988 0.0
H609 H 0.75433 0.58318 0.96745 0.0
H610 H 0.7834 0.63874 0.98945 0.0
H611 H 0.78518 0.65103 0.95494 0.0
H612 H 0.73802 0.7066 0.9619 0.0
H613 H 0.73614 0.6947 0.9964 0.0
H614 H 0.67482 0.67686 0.97925 0.0
H615 H 0.54774 0.46969 0.98994 0.0
H616 H 0.55916 0.47191 0.03766 0.0
H617 H 0.71431 0.61655 0.02954 0.0
C618 C 0.6844 0.61801 0.92298 0.0
C619 C 0.64832 0.589 0.9026 0.0
C620 C 0.60123 0.54008 0.90908 0.0
C621 C 0.58971 0.52116 0.93517 0.0
C622 C 0.62613 0.55095 0.95473 0.0
C623 C 0.67293 0.59806 0.94878 0.0
C624 C 0.70622 0.62225 0.97312 0.0
C625 C 0.7605 0.62389 0.97112 0.0
C626 C 0.71426 0.67843 0.97795 0.0
C627 C 0.67043 0.58223 0.99399 0.0
C628 C 0.62428 0.54143 0.98298 0.0
C629 C 0.58408 0.5012 0.99853 0.0
C630 C 0.59091 0.5028 0.02574 0.0
C631 C 0.63788 0.54395 0.0376 0.0
C632 C 0.67836 0.5839 0.02123 0.0
H633 H 0.13326 0.6014 0.24284 0.0
H634 H 0.16558 0.46906 0.24311 0.0
H635 H 0.16655 0.4685 0.29061 0.0
H636 H 0.2199 0.66933 0.29875 0.0
H637 H 0.17585 0.6908 0.31218 0.0
H638 H 0.17704 0.68178 0.27765 0.0
H639 H 1.07441 0.61604 0.27848 0.0
H640 H 1.07293 0.62486 0.31299 0.0
H641 H 1.04694 0.55851 0.30014 0.0
H642 H 0.16059 0.47768 0.33808 0.0
H643 H 0.15229 0.50014 0.38334 0.0
H644 H 0.12883 0.62988 0.35554 0.0
C645 C 0.14055 0.57241 0.25295 0.0
C646 C 0.149 0.53497 0.23879 0.0
C647 C 0.15881 0.49813 0.25305 0.0
C648 C 0.15946 0.49736 0.28026 0.0
C649 C 0.1509 0.53418 0.2936 0.0
C650 C 0.14208 0.57147 0.2806 0.0
C651 C 0.13491 0.60684 0.30031 0.0
C652 C 0.17958 0.66569 0.29702 0.0
C653 C 1.07896 0.60122 0.29782 0.0
C654 C 0.14041 0.58295 0.32614 0.0
C655 C 0.14941 0.54088 0.32156 0.0
C656 C 0.15408 0.51091 0.34191 0.0
C657 C 0.14933 0.52394 0.36761 0.0
C658 C 0.14058 0.56703 0.37314 0.0
C659 C 0.13635 0.59719 0.35199 0.0
loop_
_geom_bond_atom_site_label_1
_geom_bond_atom_site_label_2
_geom_bond_distance
_geom_bond_site_symmetry_2
_ccdc_geom_bond_type
C0 Eu1 2.835 . S
C0 C2 1.500 . S
C0 O20 1.257 . S
C0 O21 1.260 . S
Eu1 C0 2.835 . S
Eu1 O20 2.473 . S
Eu1 O21 2.480 . S
Eu1 O22 2.430 1_655 S
Eu1 O23 2.670 1_655 S
Eu1 O24 2.394 . S
Eu1 O29 2.355 1_655 S
Eu1 O31 2.374 1_655 S
C2 C0 1.500 . S
C2 C3 1.377 . S
C2 C7 1.377 . S
C3 C2 1.377 . S
C3 C4 1.395 . S
C3 H32 0.931 . S
C4 C3 1.395 . S
C4 C5 1.383 . S
C4 H33 0.931 . S
C5 C4 1.383 . S
C5 C6 1.394 . S
C6 C5 1.394 . S
C6 C7 1.378 . S
C6 H34 0.931 . S
C7 C2 1.377 . S
C7 C6 1.378 . S
C7 H35 0.931 . S
C8 O22 1.259 . S
C8 O23 1.270 . S
C9 O24 1.251 . S
C9 O25 1.251 . S
C10 Eu11 2.835 . S
C10 C12 1.500 . S
C10 O26 1.257 . S
C10 O27 1.260 . S
Eu11 C10 2.835 . S
Eu11 O23 2.355 . S
Eu11 O25 2.374 1_455 S
Eu11 O26 2.473 . S
Eu11 O27 2.480 . S
Eu11 O28 2.430 . S
Eu11 O29 2.670 . S
Eu11 O30 2.394 . S
C12 C10 1.500 . S
C12 C13 1.377 . S
C12 C17 1.377 . S
C13 C12 1.377 . S
C13 C14 1.395 . S
C13 H36 0.931 . S
C14 C13 1.395 . S
C14 C15 1.383 . S
C14 H37 0.931 . S
C15 C14 1.383 . S
C15 C16 1.394 . S
C16 C15 1.394 . S
C16 C17 1.378 . S
C16 H38 0.931 . S
C17 C12 1.377 . S
C17 C16 1.378 . S
C17 H39 0.931 . S
C18 O28 1.259 . S
C18 O29 1.270 . S
C19 O30 1.251 . S
C19 O31 1.251 . S
O20 C0 1.257 . S
O20 Eu1 2.473 . S
O21 C0 1.260 . S
O21 Eu1 2.480 . S
O22 Eu1 2.430 1_455 S
O22 C8 1.259 . S
O23 Eu1 2.670 1_455 S
O23 C8 1.270 . S
O23 Eu11 2.355 . S
O24 Eu1 2.394 . S
O24 C9 1.251 . S
O25 C9 1.251 . S
O25 Eu11 2.374 1_655 S
O26 C10 1.257 . S
O26 Eu11 2.473 . S
O27 C10 1.260 . S
O27 Eu11 2.480 . S
O28 Eu11 2.430 . S
O28 C18 1.259 . S
O29 Eu1 2.355 1_455 S
O29 Eu11 2.670 . S
O29 C18 1.270 . S
O30 Eu11 2.394 . S
O30 C19 1.251 . S
O31 Eu1 2.374 1_455 S
O31 C19 1.251 . S
H32 C3 0.931 . S
H33 C4 0.931 . S
H34 C6 0.931 . S
H35 C7 0.931 . S
H36 C13 0.931 . S
H37 C14 0.931 . S
H38 C16 0.931 . S
H39 C17 0.931 . S
C40 Eu41 2.835 . S
C40 C42 1.500 . S
C40 O60 1.257 . S
C40 O61 1.260 . S
Eu41 C40 2.835 . S
Eu41 O60 2.473 . S
Eu41 O61 2.480 . S
Eu41 O62 2.430 . S
Eu41 O63 2.670 . S
Eu41 O64 2.394 . S
Eu41 O69 2.355 . S
Eu41 O71 2.374 1_545 S
C42 C40 1.500 . S
C42 C43 1.377 . S
C42 C47 1.377 . S
C43 C42 1.377 . S
C43 C44 1.395 . S
C43 H72 0.931 . S
C44 C43 1.395 . S
C44 C45 1.383 . S
C44 H73 0.931 . S
C45 C44 1.383 . S
C45 C46 1.394 . S
C46 C45 1.394 . S
C46 C47 1.378 . S
C46 H74 0.931 . S
C47 C42 1.377 . S
C47 C46 1.378 . S
C47 H75 0.931 . S
C48 O62 1.259 . S
C48 O63 1.270 . S
C49 O64 1.251 . S
C49 O65 1.251 . S
C50 Eu51 2.835 . S
C50 C52 1.500 . S
C50 O66 1.257 . S
C50 O67 1.260 . S
Eu51 C50 2.835 . S
Eu51 O63 2.355 1_565 S
Eu51 O65 2.374 1_565 S
Eu51 O66 2.473 . S
Eu51 O67 2.480 . S
Eu51 O68 2.430 1_565 S
Eu51 O69 2.670 1_565 S
Eu51 O70 2.394 . S
C52 C50 1.500 . S
C52 C53 1.377 . S
C52 C57 1.377 . S
C53 C52 1.377 . S
C53 C54 1.395 . S
C53 H76 0.931 . S
C54 C53 1.395 . S
C54 C55 1.383 . S
C54 H77 0.931 . S
C55 C54 1.383 . S
C55 C56 1.394 . S
C56 C55 1.394 . S
C56 C57 1.378 . S
C56 H78 0.931 . S
C57 C52 1.377 . S
C57 C56 1.378 . S
C57 H79 0.931 . S
C58 O68 1.259 . S
C58 O69 1.270 . S
C59 O70 1.251 . S
C59 O71 1.251 . S
O60 C40 1.257 . S
O60 Eu41 2.473 . S
O61 C40 1.260 . S
O61 Eu41 2.480 . S
O62 Eu41 2.430 . S
O62 C48 1.259 . S
O63 Eu41 2.670 . S
O63 C48 1.270 . S
O63 Eu51 2.355 1_545 S
O64 Eu41 2.394 . S
O64 C49 1.251 . S
O65 C49 1.251 . S
O65 Eu51 2.374 1_545 S
O66 C50 1.257 . S
O66 Eu51 2.473 . S
O67 C50 1.260 . S
O67 Eu51 2.480 . S
O68 Eu51 2.430 1_545 S
O68 C58 1.259 . S
O69 Eu41 2.355 . S
O69 Eu51 2.670 1_545 S
O69 C58 1.270 . S
O70 Eu51 2.394 . S
O70 C59 1.251 . S
O71 Eu41 2.374 1_565 S
O71 C59 1.251 . S
H72 C43 0.931 . S
H73 C44 0.931 . S
H74 C46 0.931 . S
H75 C47 0.931 . S
H76 C53 0.931 . S
H77 C54 0.931 . S
H78 C56 0.931 . S
H79 C57 0.931 . S
C80 Eu81 2.835 . S
C80 C82 1.500 . S
C80 O100 1.257 . S
C80 O101 1.260 . S
Eu81 C80 2.835 . S
Eu81 O100 2.473 . S
Eu81 O101 2.480 . S
Eu81 O102 2.430 . S
Eu81 O103 2.670 . S
Eu81 O104 2.394 . S
Eu81 O109 2.355 . S
Eu81 O111 2.374 . S
C82 C80 1.500 . S
C82 C83 1.377 . S
C82 C87 1.377 . S
C83 C82 1.377 . S
C83 C84 1.395 . S
C83 H112 0.931 . S
C84 C83 1.395 . S
C84 C85 1.383 . S
C84 H113 0.931 . S
C85 C84 1.383 . S
C85 C86 1.394 . S
C86 C85 1.394 . S
C86 C87 1.378 . S
C86 H114 0.931 . S
C87 C82 1.377 . S
C87 C86 1.378 . S
C87 H115 0.931 . S
C88 O102 1.259 . S
C88 O103 1.270 . S
C89 O104 1.251 . S
C89 O105 1.251 . S
C90 Eu91 2.835 . S
C90 C92 1.500 . S
C90 O106 1.257 . S
C90 O107 1.260 . S
Eu91 C90 2.835 . S
Eu91 O103 2.355 . S
Eu91 O105 2.374 . S
Eu91 O106 2.473 . S
Eu91 O107 2.480 . S
Eu91 O108 2.430 . S
Eu91 O109 2.670 . S
Eu91 O110 2.394 . S
C92 C90 1.500 . S
C92 C93 1.377 . S
C92 C97 1.377 . S
C93 C92 1.377 . S
C93 C94 1.395 . S
C93 H116 0.931 . S
C94 C93 1.395 . S
C94 C95 1.383 . S
C94 H117 0.931 . S
C95 C94 1.383 . S
C95 C96 1.394 . S
C96 C95 1.394 . S
C96 C97 1.378 . S
C96 H118 0.931 . S
C97 C92 1.377 . S
C97 C96 1.378 . S
C97 H119 0.931 . S
C98 O108 1.259 . S
C98 O109 1.270 . S
C99 O110 1.251 . S
C99 O111 1.251 . S
O100 C80 1.257 . S
O100 Eu81 2.473 . S
O101 C80 1.260 . S
O101 Eu81 2.480 . S
O102 Eu81 2.430 . S
O102 C88 1.259 . S
O103 Eu81 2.670 . S
O103 C88 1.270 . S
O103 Eu91 2.355 . S
O104 Eu81 2.394 . S
O104 C89 1.251 . S
O105 C89 1.251 . S
O105 Eu91 2.374 . S
O106 C90 1.257 . S
O106 Eu91 2.473 . S
O107 C90 1.260 . S
O107 Eu91 2.480 . S
O108 Eu91 2.430 . S
O108 C98 1.259 . S
O109 Eu81 2.355 . S
O109 Eu91 2.670 . S
O109 C98 1.270 . S
O110 Eu91 2.394 . S
O110 C99 1.251 . S
O111 Eu81 2.374 . S
O111 C99 1.251 . S
H112 C83 0.931 . S
H113 C84 0.931 . S
H114 C86 0.931 . S
H115 C87 0.931 . S
H116 C93 0.931 . S
H117 C94 0.931 . S
H118 C96 0.931 . S
H119 C97 0.931 . S
H120 C123 0.931 1_565 S
H121 C126 0.928 . S
H122 C128 0.930 . S
C123 H120 0.931 1_545 S
C123 C124 1.413 . S
C123 C125 1.360 . S
C124 C123 1.413 . S
C124 C128 1.429 . S
C125 C123 1.360 . S
C125 C126 1.372 . S
C126 H121 0.928 . S
C126 C125 1.372 . S
C126 C127 1.404 . S
C127 C126 1.404 . S
C127 C128 1.391 . S
C128 H122 0.930 . S
C128 C124 1.429 . S
C128 C127 1.391 . S
H129 C132 0.931 . S
H130 C135 0.928 . S
H131 C137 0.930 . S
C132 H129 0.931 . S
C132 C133 1.413 . S
C132 C134 1.360 . S
C133 C132 1.413 . S
C133 C137 1.429 . S
C134 C132 1.360 . S
C134 C135 1.372 . S
C135 H130 0.928 . S
C135 C134 1.372 . S
C135 C136 1.404 . S
C136 C135 1.404 . S
C136 C137 1.391 . S
C137 H131 0.930 . S
C137 C133 1.429 . S
C137 C136 1.391 . S
H138 C141 0.931 . S
H139 C144 0.928 . S
H140 C146 0.930 . S
C141 H138 0.931 . S
C141 C142 1.413 . S
C141 C143 1.360 1_655 S
C142 C141 1.413 . S
C142 C146 1.429 1_655 S
C143 C141 1.360 1_455 S
C143 C144 1.372 . S
C144 H139 0.928 . S
C144 C143 1.372 . S
C144 C145 1.404 . S
C145 C144 1.404 . S
C145 C146 1.391 . S
C146 H140 0.930 . S
C146 C142 1.429 1_455 S
C146 C145 1.391 . S
H147 C150 0.931 1_655 S
H148 C153 0.928 . S
H149 C155 0.930 . S
C150 H147 0.931 1_455 S
C150 C151 1.413 . S
C150 C152 1.360 . S
C151 C150 1.413 . S
C151 C155 1.429 . S
C152 C150 1.360 . S
C152 C153 1.372 . S
C153 H148 0.928 . S
C153 C152 1.372 . S
C153 C154 1.404 . S
C154 C153 1.404 . S
C154 C155 1.391 . S
C155 H149 0.930 . S
C155 C151 1.429 . S
C155 C154 1.391 . S
H156 C159 0.931 . S
H157 C162 0.928 . S
H158 C164 0.930 . S
C159 H156 0.931 . S
C159 C160 1.413 . S
C159 C161 1.360 . S
C160 C159 1.413 . S
C160 C164 1.429 . S
C161 C159 1.360 . S
C161 C162 1.372 1_545 S
C162 H157 0.928 . S
C162 C161 1.372 1_565 S
C162 C163 1.404 . S
C163 C162 1.404 . S
C163 C164 1.391 1_565 S
C164 H158 0.930 . S
C164 C160 1.429 . S
C164 C163 1.391 1_545 S
H165 C168 0.931 . S
H166 C171 0.928 . S
H167 C173 0.930 . S
C168 H165 0.931 . S
C168 C169 1.413 . S
C168 C170 1.360 . S
C169 C168 1.413 . S
C169 C173 1.429 . S
C170 C168 1.360 . S
C170 C171 1.372 . S
C171 H166 0.928 . S
C171 C170 1.372 . S
C171 C172 1.404 . S
C172 C171 1.404 . S
C172 C173 1.391 . S
C173 H167 0.930 . S
C173 C169 1.429 . S
C173 C172 1.391 . S
H174 C186 0.930 . S
H175 C188 0.930 . S
H176 C189 0.930 . S
H177 C193 0.959 . S
H178 C193 0.959 . S
H179 C193 0.961 . S
H180 C194 0.960 . S
H181 C194 0.961 . S
H182 C194 0.959 . S
H183 C197 0.929 . S
H184 C198 0.931 . S
H185 C200 0.930 . S
C186 H174 0.930 . S
C186 C187 1.399 . S
C186 C191 1.399 . S
C187 C186 1.399 . S
C187 C188 1.376 . S
C188 H175 0.930 . S
C188 C187 1.376 . S
C188 C189 1.388 . S
C189 H176 0.930 . S
C189 C188 1.388 . S
C189 C190 1.390 . S
C190 C189 1.390 . S
C190 C191 1.394 . S
C190 C196 1.465 . S
C191 C186 1.399 . S
C191 C190 1.394 . S
C191 C192 1.516 . S
C192 C191 1.516 . S
C192 C193 1.502 . S
C192 C194 1.561 . S
C192 C195 1.526 . S
C193 H177 0.959 . S
C193 H178 0.959 . S
C193 H179 0.961 . S
C193 C192 1.502 . S
C194 H180 0.960 . S
C194 H181 0.961 . S
C194 H182 0.959 . S
C194 C192 1.561 . S
C195 C192 1.526 . S
C195 C196 1.396 . S
C195 C200 1.390 . S
C196 C190 1.465 . S
C196 C195 1.396 . S
C196 C197 1.399 . S
C197 H183 0.929 . S
C197 C196 1.399 . S
C197 C198 1.385 . S
C198 H184 0.931 . S
C198 C197 1.385 . S
C198 C199 1.389 . S
C199 C198 1.389 . S
C199 C200 1.387 . S
C200 H185 0.930 . S
C200 C195 1.390 . S
C200 C199 1.387 . S
H201 C213 0.930 . S
H202 C215 0.930 . S
H203 C216 0.930 . S
H204 C220 0.959 . S
H205 C220 0.959 . S
H206 C220 0.961 . S
H207 C221 0.960 . S
H208 C221 0.961 . S
H209 C221 0.959 . S
H210 C224 0.929 . S
H211 C225 0.931 . S
H212 C227 0.930 . S
C213 H201 0.930 . S
C213 C214 1.399 . S
C213 C218 1.399 . S
C214 C213 1.399 . S
C214 C215 1.376 . S
C215 H202 0.930 . S
C215 C214 1.376 . S
C215 C216 1.388 . S
C216 H203 0.930 . S
C216 C215 1.388 . S
C216 C217 1.390 . S
C217 C216 1.390 . S
C217 C218 1.394 . S
C217 C223 1.465 . S
C218 C213 1.399 . S
C218 C217 1.394 . S
C218 C219 1.516 . S
C219 C218 1.516 . S
C219 C220 1.502 . S
C219 C221 1.561 . S
C219 C222 1.526 . S
C220 H204 0.959 . S
C220 H205 0.959 . S
C220 H206 0.961 . S
C220 C219 1.502 . S
C221 H207 0.960 . S
C221 H208 0.961 . S
C221 H209 0.959 . S
C221 C219 1.561 . S
C222 C219 1.526 . S
C222 C223 1.396 . S
C222 C227 1.390 . S
C223 C217 1.465 . S
C223 C222 1.396 . S
C223 C224 1.399 . S
C224 H210 0.929 . S
C224 C223 1.399 . S
C224 C225 1.385 . S
C225 H211 0.931 . S
C225 C224 1.385 . S
C225 C226 1.389 . S
C226 C225 1.389 . S
C226 C227 1.387 . S
C227 H212 0.930 . S
C227 C222 1.390 . S
C227 C226 1.387 . S
H228 C240 0.930 . S
H229 C242 0.930 . S
H230 C243 0.930 . S
H231 C247 0.959 . S
H232 C247 0.959 . S
H233 C247 0.961 . S
H234 C248 0.960 . S
H235 C248 0.961 . S
H236 C248 0.959 . S
H237 C251 0.929 . S
H238 C252 0.931 . S
H239 C254 0.930 . S
C240 H228 0.930 . S
C240 C241 1.399 . S
C240 C245 1.399 . S
C241 C240 1.399 . S
C241 C242 1.376 . S
C242 H229 0.930 . S
C242 C241 1.376 . S
C242 C243 1.388 . S
C243 H230 0.930 . S
C243 C242 1.388 . S
C243 C244 1.390 . S
C244 C243 1.390 . S
C244 C245 1.394 . S
C244 C250 1.465 . S
C245 C240 1.399 . S
C245 C244 1.394 . S
C245 C246 1.516 . S
C246 C245 1.516 . S
C246 C247 1.502 . S
C246 C248 1.561 . S
C246 C249 1.526 . S
C247 H231 0.959 . S
C247 H232 0.959 . S
C247 H233 0.961 . S
C247 C246 1.502 . S
C248 H234 0.960 . S
C248 H235 0.961 . S
C248 H236 0.959 . S
C248 C246 1.561 . S
C249 C246 1.526 . S
C249 C250 1.396 . S
C249 C254 1.390 . S
C250 C244 1.465 . S
C250 C249 1.396 . S
C250 C251 1.399 . S
C251 H237 0.929 . S
C251 C250 1.399 . S
C251 C252 1.385 . S
C252 H238 0.931 . S
C252 C251 1.385 . S
C252 C253 1.389 . S
C253 C252 1.389 . S
C253 C254 1.387 . S
C254 H239 0.930 . S
C254 C249 1.390 . S
C254 C253 1.387 . S
H255 C267 0.930 . S
H256 C269 0.930 . S
H257 C270 0.930 . S
H258 C274 0.959 . S
H259 C274 0.959 . S
H260 C274 0.961 . S
H261 C275 0.960 . S
H262 C275 0.961 . S
H263 C275 0.959 . S
H264 C278 0.929 . S
H265 C279 0.931 . S
H266 C281 0.930 . S
C267 H255 0.930 . S
C267 C268 1.399 . S
C267 C272 1.399 . S
C268 C267 1.399 . S
C268 C269 1.376 . S
C269 H256 0.930 . S
C269 C268 1.376 . S
C269 C270 1.388 . S
C270 H257 0.930 . S
C270 C269 1.388 . S
C270 C271 1.390 . S
C271 C270 1.390 . S
C271 C272 1.394 . S
C271 C277 1.465 . S
C272 C267 1.399 . S
C272 C271 1.394 . S
C272 C273 1.516 . S
C273 C272 1.516 . S
C273 C274 1.502 . S
C273 C275 1.561 . S
C273 C276 1.526 . S
C274 H258 0.959 . S
C274 H259 0.959 . S
C274 H260 0.961 . S
C274 C273 1.502 . S
C275 H261 0.960 . S
C275 H262 0.961 . S
C275 H263 0.959 . S
C275 C273 1.561 . S
C276 C273 1.526 . S
C276 C277 1.396 . S
C276 C281 1.390 . S
C277 C271 1.465 . S
C277 C276 1.396 . S
C277 C278 1.399 . S
C278 H264 0.929 . S
C278 C277 1.399 . S
C278 C279 1.385 . S
C279 H265 0.931 . S
C279 C278 1.385 . S
C279 C280 1.389 . S
C280 C279 1.389 . S
C280 C281 1.387 . S
C281 H266 0.930 . S
C281 C276 1.390 . S
C281 C280 1.387 . S
H282 C294 0.930 . S
H283 C296 0.930 . S
H284 C297 0.930 . S
H285 C301 0.959 . S
H286 C301 0.959 . S
H287 C301 0.961 . S
H288 C302 0.960 . S
H289 C302 0.961 . S
H290 C302 0.959 . S
H291 C305 0.929 . S
H292 C306 0.931 . S
H293 C308 0.930 . S
C294 H282 0.930 . S
C294 C295 1.399 . S
C294 C299 1.399 . S
C295 C294 1.399 . S
C295 C296 1.376 . S
C296 H283 0.930 . S
C296 C295 1.376 . S
C296 C297 1.388 . S
C297 H284 0.930 . S
C297 C296 1.388 . S
C297 C298 1.390 . S
C298 C297 1.390 . S
C298 C299 1.394 . S
C298 C304 1.465 . S
C299 C294 1.399 . S
C299 C298 1.394 . S
C299 C300 1.516 . S
C300 C299 1.516 . S
C300 C301 1.502 . S
C300 C302 1.561 . S
C300 C303 1.526 . S
C301 H285 0.959 . S
C301 H286 0.959 . S
C301 H287 0.961 . S
C301 C300 1.502 . S
C302 H288 0.960 . S
C302 H289 0.961 . S
C302 H290 0.959 . S
C302 C300 1.561 . S
C303 C300 1.526 . S
C303 C304 1.396 . S
C303 C308 1.390 . S
C304 C298 1.465 . S
C304 C303 1.396 . S
C304 C305 1.399 . S
C305 H291 0.929 . S
C305 C304 1.399 . S
C305 C306 1.385 . S
C306 H292 0.931 . S
C306 C305 1.385 . S
C306 C307 1.389 . S
C307 C306 1.389 . S
C307 C308 1.387 . S
C308 H293 0.930 . S
C308 C303 1.390 . S
C308 C307 1.387 . S
H309 C321 0.930 . S
H310 C323 0.930 . S
H311 C324 0.930 . S
H312 C328 0.959 . S
H313 C328 0.959 . S
H314 C328 0.961 . S
H315 C329 0.960 . S
H316 C329 0.961 . S
H317 C329 0.959 . S
H318 C332 0.929 . S
H319 C333 0.931 . S
H320 C335 0.930 . S
C321 H309 0.930 . S
C321 C322 1.399 . S
C321 C326 1.399 . S
C322 C321 1.399 . S
C322 C323 1.376 . S
C323 H310 0.930 . S
C323 C322 1.376 . S
C323 C324 1.388 . S
C324 H311 0.930 . S
C324 C323 1.388 . S
C324 C325 1.390 . S
C325 C324 1.390 . S
C325 C326 1.394 . S
C325 C331 1.465 . S
C326 C321 1.399 . S
C326 C325 1.394 . S
C326 C327 1.516 . S
C327 C326 1.516 . S
C327 C328 1.502 . S
C327 C329 1.561 . S
C327 C330 1.526 . S
C328 H312 0.959 . S
C328 H313 0.959 . S
C328 H314 0.961 . S
C328 C327 1.502 . S
C329 H315 0.960 . S
C329 H316 0.961 . S
C329 H317 0.959 . S
C329 C327 1.561 . S
C330 C327 1.526 . S
C330 C331 1.396 . S
C330 C335 1.390 . S
C331 C325 1.465 . S
C331 C330 1.396 . S
C331 C332 1.399 . S
C332 H318 0.929 . S
C332 C331 1.399 . S
C332 C333 1.385 . S
C333 H319 0.931 . S
C333 C332 1.385 . S
C333 C334 1.389 . S
C334 C333 1.389 . S
C334 C335 1.387 . S
C335 H320 0.930 . S
C335 C330 1.390 . S
C335 C334 1.387 . S
H336 C348 0.930 . S
H337 C350 0.930 . S
H338 C351 0.930 . S
H339 C355 0.959 . S
H340 C355 0.959 . S
H341 C355 0.961 . S
H342 C356 0.960 . S
H343 C356 0.961 . S
H344 C356 0.959 . S
H345 C359 0.929 . S
H346 C360 0.931 . S
H347 C362 0.930 . S
C348 H336 0.930 . S
C348 C349 1.399 . S
C348 C353 1.399 . S
C349 C348 1.399 . S
C349 C350 1.376 . S
C350 H337 0.930 . S
C350 C349 1.376 . S
C350 C351 1.388 . S
C351 H338 0.930 . S
C351 C350 1.388 . S
C351 C352 1.390 . S
C352 C351 1.390 . S
C352 C353 1.394 . S
C352 C358 1.465 . S
C353 C348 1.399 . S
C353 C352 1.394 . S
C353 C354 1.516 . S
C354 C353 1.516 . S
C354 C355 1.502 . S
C354 C356 1.561 . S
C354 C357 1.526 . S
C355 H339 0.959 . S
C355 H340 0.959 . S
C355 H341 0.961 . S
C355 C354 1.502 . S
C356 H342 0.960 . S
C356 H343 0.961 . S
C356 H344 0.959 . S
C356 C354 1.561 . S
C357 C354 1.526 . S
C357 C358 1.396 . S
C357 C362 1.390 . S
C358 C352 1.465 . S
C358 C357 1.396 . S
C358 C359 1.399 . S
C359 H345 0.929 . S
C359 C358 1.399 . S
C359 C360 1.385 . S
C360 H346 0.931 . S
C360 C359 1.385 . S
C360 C361 1.389 . S
C361 C360 1.389 . S
C361 C362 1.387 . S
C362 H347 0.930 . S
C362 C357 1.390 . S
C362 C361 1.387 . S
H363 C375 0.930 . S
H364 C377 0.930 . S
H365 C378 0.930 . S
H366 C382 0.959 . S
H367 C382 0.959 . S
H368 C382 0.961 . S
H369 C383 0.960 . S
H370 C383 0.961 . S
H371 C383 0.959 . S
H372 C386 0.929 . S
H373 C387 0.931 . S
H374 C389 0.930 . S
C375 H363 0.930 . S
C375 C376 1.399 . S
C375 C380 1.399 . S
C376 C375 1.399 . S
C376 C377 1.376 . S
C377 H364 0.930 . S
C377 C376 1.376 . S
C377 C378 1.388 . S
C378 H365 0.930 . S
C378 C377 1.388 . S
C378 C379 1.390 . S
C379 C378 1.390 . S
C379 C380 1.394 . S
C379 C385 1.465 . S
C380 C375 1.399 . S
C380 C379 1.394 . S
C380 C381 1.516 . S
C381 C380 1.516 . S
C381 C382 1.502 . S
C381 C383 1.561 . S
C381 C384 1.526 . S
C382 H366 0.959 . S
C382 H367 0.959 . S
C382 H368 0.961 . S
C382 C381 1.502 . S
C383 H369 0.960 . S
C383 H370 0.961 . S
C383 H371 0.959 . S
C383 C381 1.561 . S
C384 C381 1.526 . S
C384 C385 1.396 . S
C384 C389 1.390 . S
C385 C379 1.465 . S
C385 C384 1.396 . S
C385 C386 1.399 . S
C386 H372 0.929 . S
C386 C385 1.399 . S
C386 C387 1.385 . S
C387 H373 0.931 . S
C387 C386 1.385 . S
C387 C388 1.389 . S
C388 C387 1.389 . S
C388 C389 1.387 . S
C389 H374 0.930 . S
C389 C384 1.390 . S
C389 C388 1.387 . S
H390 C402 0.930 . S
H391 C404 0.930 . S
H392 C405 0.930 . S
H393 C409 0.959 . S
H394 C409 0.959 . S
H395 C409 0.961 . S
H396 C410 0.960 . S
H397 C410 0.961 . S
H398 C410 0.959 . S
H399 C413 0.929 . S
H400 C414 0.931 . S
H401 C416 0.930 . S
C402 H390 0.930 . S
C402 C403 1.399 . S
C402 C407 1.399 . S
C403 C402 1.399 . S
C403 C404 1.376 . S
C404 H391 0.930 . S
C404 C403 1.376 . S
C404 C405 1.388 . S
C405 H392 0.930 . S
C405 C404 1.388 . S
C405 C406 1.390 . S
C406 C405 1.390 . S
C406 C407 1.394 . S
C406 C412 1.465 . S
C407 C402 1.399 . S
C407 C406 1.394 . S
C407 C408 1.516 . S
C408 C407 1.516 . S
C408 C409 1.502 . S
C408 C410 1.561 . S
C408 C411 1.526 . S
C409 H393 0.959 . S
C409 H394 0.959 . S
C409 H395 0.961 . S
C409 C408 1.502 . S
C410 H396 0.960 . S
C410 H397 0.961 . S
C410 H398 0.959 . S
C410 C408 1.561 . S
C411 C408 1.526 . S
C411 C412 1.396 . S
C411 C416 1.390 . S
C412 C406 1.465 . S
C412 C411 1.396 . S
C412 C413 1.399 . S
C413 H399 0.929 . S
C413 C412 1.399 . S
C413 C414 1.385 1_565 S
C414 H400 0.931 . S
C414 C413 1.385 1_545 S
C414 C415 1.389 . S
C415 C414 1.389 . S
C415 C416 1.387 1_545 S
C416 H401 0.930 . S
C416 C411 1.390 . S
C416 C415 1.387 1_565 S
H417 C429 0.930 . S
H418 C431 0.930 . S
H419 C432 0.930 . S
H420 C436 0.959 . S
H421 C436 0.959 . S
H422 C436 0.961 . S
H423 C437 0.960 . S
H424 C437 0.961 . S
H425 C437 0.959 . S
H426 C440 0.929 . S
H427 C441 0.931 . S
H428 C443 0.930 . S
C429 H417 0.930 . S
C429 C430 1.399 . S
C429 C434 1.399 . S
C430 C429 1.399 . S
C430 C431 1.376 . S
C431 H418 0.930 . S
C431 C430 1.376 . S
C431 C432 1.388 . S
C432 H419 0.930 . S
C432 C431 1.388 . S
C432 C433 1.390 . S
C433 C432 1.390 . S
C433 C434 1.394 . S
C433 C439 1.465 . S
C434 C429 1.399 . S
C434 C433 1.394 . S
C434 C435 1.516 . S
C435 C434 1.516 . S
C435 C436 1.502 . S
C435 C437 1.561 . S
C435 C438 1.526 . S
C436 H420 0.959 . S
C436 H421 0.959 . S
C436 H422 0.961 . S
C436 C435 1.502 . S
C437 H423 0.960 . S
C437 H424 0.961 . S
C437 H425 0.959 . S
C437 C435 1.561 . S
C438 C435 1.526 . S
C438 C439 1.396 . S
C438 C443 1.390 . S
C439 C433 1.465 . S
C439 C438 1.396 . S
C439 C440 1.399 . S
C440 H426 0.929 . S
C440 C439 1.399 . S
C440 C441 1.385 . S
C441 H427 0.931 . S
C441 C440 1.385 . S
C441 C442 1.389 . S
C442 C441 1.389 . S
C442 C443 1.387 . S
C443 H428 0.930 . S
C443 C438 1.390 . S
C443 C442 1.387 . S
H444 C456 0.930 . S
H445 C458 0.930 . S
H446 C459 0.930 . S
H447 C463 0.959 . S
H448 C463 0.959 . S
H449 C463 0.961 . S
H450 C464 0.960 . S
H451 C464 0.961 . S
H452 C464 0.959 . S
H453 C467 0.929 . S
H454 C468 0.931 . S
H455 C470 0.930 . S
C456 H444 0.930 . S
C456 C457 1.399 . S
C456 C461 1.399 . S
C457 C456 1.399 . S
C457 C458 1.376 . S
C458 H445 0.930 . S
C458 C457 1.376 . S
C458 C459 1.388 . S
C459 H446 0.930 . S
C459 C458 1.388 . S
C459 C460 1.390 . S
C460 C459 1.390 . S
C460 C461 1.394 . S
C460 C466 1.465 . S
C461 C456 1.399 . S
C461 C460 1.394 . S
C461 C462 1.516 . S
C462 C461 1.516 . S
C462 C463 1.502 . S
C462 C464 1.561 . S
C462 C465 1.526 . S
C463 H447 0.959 . S
C463 H448 0.959 . S
C463 H449 0.961 . S
C463 C462 1.502 . S
C464 H450 0.960 . S
C464 H451 0.961 . S
C464 H452 0.959 . S
C464 C462 1.561 . S
C465 C462 1.526 . S
C465 C466 1.396 . S
C465 C470 1.390 . S
C466 C460 1.465 . S
C466 C465 1.396 . S
C466 C467 1.399 . S
C467 H453 0.929 . S
C467 C466 1.399 . S
C467 C468 1.385 . S
C468 H454 0.931 . S
C468 C467 1.385 . S
C468 C469 1.389 . S
C469 C468 1.389 . S
C469 C470 1.387 . S
C470 H455 0.930 . S
C470 C465 1.390 . S
C470 C469 1.387 . S
H471 C483 0.930 . S
H472 C485 0.930 . S
H473 C486 0.930 . S
H474 C490 0.959 . S
H475 C490 0.959 . S
H476 C490 0.961 . S
H477 C491 0.960 . S
H478 C491 0.961 . S
H479 C491 0.959 . S
H480 C494 0.929 . S
H481 C495 0.931 . S
H482 C497 0.930 . S
C483 H471 0.930 . S
C483 C484 1.399 . S
C483 C488 1.399 . S
C484 C483 1.399 . S
C484 C485 1.376 . S
C485 H472 0.930 . S
C485 C484 1.376 . S
C485 C486 1.388 . S
C486 H473 0.930 . S
C486 C485 1.388 . S
C486 C487 1.390 . S
C487 C486 1.390 . S
C487 C488 1.394 . S
C487 C493 1.465 . S
C488 C483 1.399 . S
C488 C487 1.394 . S
C488 C489 1.516 . S
C489 C488 1.516 . S
C489 C490 1.502 . S
C489 C491 1.561 . S
C489 C492 1.526 . S
C490 H474 0.959 . S
C490 H475 0.959 . S
C490 H476 0.961 . S
C490 C489 1.502 . S
C491 H477 0.960 . S
C491 H478 0.961 . S
C491 H479 0.959 . S
C491 C489 1.561 . S
C492 C489 1.526 . S
C492 C493 1.396 . S
C492 C497 1.390 . S
C493 C487 1.465 . S
C493 C492 1.396 . S
C493 C494 1.399 . S
C494 H480 0.929 . S
C494 C493 1.399 . S
C494 C495 1.385 . S
C495 H481 0.931 . S
C495 C494 1.385 . S
C495 C496 1.389 . S
C496 C495 1.389 . S
C496 C497 1.387 . S
C497 H482 0.930 . S
C497 C492 1.390 . S
C497 C496 1.387 . S
H498 C510 0.930 . S
H499 C512 0.930 . S
H500 C513 0.930 . S
H501 C517 0.959 . S
H502 C517 0.959 . S
H503 C517 0.961 . S
H504 C518 0.960 . S
H505 C518 0.961 . S
H506 C518 0.959 . S
H507 C521 0.929 1_554 S
H508 C522 0.931 . S
H509 C524 0.930 . S
C510 H498 0.930 . S
C510 C511 1.399 1_655 S
C510 C515 1.399 . S
C511 C510 1.399 1_455 S
C511 C512 1.376 . S
C512 H499 0.930 . S
C512 C511 1.376 . S
C512 C513 1.388 . S
C513 H500 0.930 . S
C513 C512 1.388 . S
C513 C514 1.390 . S
C514 C513 1.390 . S
C514 C515 1.394 1_455 S
C514 C520 1.465 . S
C515 C510 1.399 . S
C515 C514 1.394 1_655 S
C515 C516 1.516 . S
C516 C515 1.516 . S
C516 C517 1.502 . S
C516 C518 1.561 . S
C516 C519 1.526 . S
C517 H501 0.959 . S
C517 H502 0.959 . S
C517 H503 0.961 . S
C517 C516 1.502 . S
C518 H504 0.960 . S
C518 H505 0.961 . S
C518 H506 0.959 . S
C518 C516 1.561 . S
C519 C516 1.526 . S
C519 C520 1.396 1_655 S
C519 C524 1.390 1_554 S
C520 C514 1.465 . S
C520 C519 1.396 1_455 S
C520 C521 1.399 1_554 S
C521 H507 0.929 1_556 S
C521 C520 1.399 1_556 S
C521 C522 1.385 . S
C522 H508 0.931 . S
C522 C521 1.385 . S
C522 C523 1.389 . S
C523 C522 1.389 . S
C523 C524 1.387 1_455 S
C524 H509 0.930 . S
C524 C519 1.390 1_556 S
C524 C523 1.387 1_655 S
H525 C537 0.930 1_565 S
H526 C539 0.930 . S
H527 C540 0.930 . S
H528 C544 0.959 . S
H529 C544 0.959 . S
H530 C544 0.961 . S
H531 C545 0.960 . S
H532 C545 0.961 . S
H533 C545 0.959 . S
H534 C548 0.929 . S
H535 C549 0.931 . S
H536 C551 0.930 1_565 S
C537 H525 0.930 1_545 S
C537 C538 1.399 . S
C537 C542 1.399 . S
C538 C537 1.399 . S
C538 C539 1.376 . S
C539 H526 0.930 . S
C539 C538 1.376 . S
C539 C540 1.388 . S
C540 H527 0.930 . S
C540 C539 1.388 . S
C540 C541 1.390 . S
C541 C540 1.390 . S
C541 C542 1.394 . S
C541 C547 1.465 . S
C542 C537 1.399 . S
C542 C541 1.394 . S
C542 C543 1.516 1_545 S
C543 C542 1.516 1_565 S
C543 C544 1.502 . S
C543 C545 1.561 . S
C543 C546 1.526 1_565 S
C544 H528 0.959 . S
C544 H529 0.959 . S
C544 H530 0.961 . S
C544 C543 1.502 . S
C545 H531 0.960 . S
C545 H532 0.961 . S
C545 H533 0.959 . S
C545 C543 1.561 . S
C546 C543 1.526 1_545 S
C546 C547 1.396 . S
C546 C551 1.390 . S
C547 C541 1.465 . S
C547 C546 1.396 . S
C547 C548 1.399 . S
C548 H534 0.929 . S
C548 C547 1.399 . S
C548 C549 1.385 . S
C549 H535 0.931 . S
C549 C548 1.385 . S
C549 C550 1.389 . S
C550 C549 1.389 . S
C550 C551 1.387 . S
C551 H536 0.930 1_545 S
C551 C546 1.390 . S
C551 C550 1.387 . S
H552 C564 0.930 . S
H553 C566 0.930 . S
H554 C567 0.930 . S
H555 C571 0.959 . S
H556 C571 0.959 . S
H557 C571 0.961 . S
H558 C572 0.960 . S
H559 C572 0.961 . S
H560 C572 0.959 . S
H561 C575 0.929 . S
H562 C576 0.931 . S
H563 C578 0.930 . S
C564 H552 0.930 . S
C564 C565 1.399 . S
C564 C569 1.399 . S
C565 C564 1.399 . S
C565 C566 1.376 . S
C566 H553 0.930 . S
C566 C565 1.376 . S
C566 C567 1.388 . S
C567 H554 0.930 . S
C567 C566 1.388 . S
C567 C568 1.390 . S
C568 C567 1.390 . S
C568 C569 1.394 . S
C568 C574 1.465 . S
C569 C564 1.399 . S
C569 C568 1.394 . S
C569 C570 1.516 . S
C570 C569 1.516 . S
C570 C571 1.502 . S
C570 C572 1.561 . S
C570 C573 1.526 . S
C571 H555 0.959 . S
C571 H556 0.959 . S
C571 H557 0.961 . S
C571 C570 1.502 . S
C572 H558 0.960 . S
C572 H559 0.961 . S
C572 H560 0.959 . S
C572 C570 1.561 . S
C573 C570 1.526 . S
C573 C574 1.396 . S
C573 C578 1.390 . S
C574 C568 1.465 . S
C574 C573 1.396 . S
C574 C575 1.399 . S
C575 H561 0.929 . S
C575 C574 1.399 . S
C575 C576 1.385 . S
C576 H562 0.931 . S
C576 C575 1.385 . S
C576 C577 1.389 . S
C577 C576 1.389 . S
C577 C578 1.387 . S
C578 H563 0.930 . S
C578 C573 1.390 . S
C578 C577 1.387 . S
H579 C591 0.930 . S
H580 C593 0.930 . S
H581 C594 0.930 . S
H582 C598 0.959 . S
H583 C598 0.959 . S
H584 C598 0.961 . S
H585 C599 0.960 . S
H586 C599 0.961 . S
H587 C599 0.959 . S
H588 C602 0.929 . S
H589 C603 0.931 . S
H590 C605 0.930 . S
C591 H579 0.930 . S
C591 C592 1.399 1_565 S
C591 C596 1.399 . S
C592 C591 1.399 1_545 S
C592 C593 1.376 . S
C593 H580 0.930 . S
C593 C592 1.376 . S
C593 C594 1.388 . S
C594 H581 0.930 . S
C594 C593 1.388 . S
C594 C595 1.390 . S
C595 C594 1.390 . S
C595 C596 1.394 1_545 S
C595 C601 1.465 . S
C596 C591 1.399 . S
C596 C595 1.394 1_565 S
C596 C597 1.516 . S
C597 C596 1.516 . S
C597 C598 1.502 . S
C597 C599 1.561 . S
C597 C600 1.526 . S
C598 H582 0.959 . S
C598 H583 0.959 . S
C598 H584 0.961 . S
C598 C597 1.502 . S
C599 H585 0.960 . S
C599 H586 0.961 . S
C599 H587 0.959 . S
C599 C597 1.561 . S
C600 C597 1.526 . S
C600 C601 1.396 1_565 S
C600 C605 1.390 . S
C601 C595 1.465 . S
C601 C600 1.396 1_545 S
C601 C602 1.399 . S
C602 H588 0.929 . S
C602 C601 1.399 . S
C602 C603 1.385 . S
C603 H589 0.931 . S
C603 C602 1.385 . S
C603 C604 1.389 . S
C604 C603 1.389 . S
C604 C605 1.387 1_545 S
C605 H590 0.930 . S
C605 C600 1.390 . S
C605 C604 1.387 1_565 S
H606 C618 0.930 . S
H607 C620 0.930 . S
H608 C621 0.930 . S
H609 C625 0.959 . S
H610 C625 0.959 . S
H611 C625 0.961 . S
H612 C626 0.960 . S
H613 C626 0.961 . S
H614 C626 0.959 . S
H615 C629 0.929 . S
H616 C630 0.931 . S
H617 C632 0.930 . S
C618 H606 0.930 . S
C618 C619 1.399 . S
C618 C623 1.399 . S
C619 C618 1.399 . S
C619 C620 1.376 . S
C620 H607 0.930 . S
C620 C619 1.376 . S
C620 C621 1.388 . S
C621 H608 0.930 . S
C621 C620 1.388 . S
C621 C622 1.390 . S
C622 C621 1.390 . S
C622 C623 1.394 . S
C622 C628 1.465 . S
C623 C618 1.399 . S
C623 C622 1.394 . S
C623 C624 1.516 . S
C624 C623 1.516 . S
C624 C625 1.502 . S
C624 C626 1.561 . S
C624 C627 1.514 1_556 S
C625 H609 0.959 . S
C625 H610 0.959 . S
C625 H611 0.961 . S
C625 C624 1.502 . S
C626 H612 0.960 . S
C626 H613 0.961 . S
C626 H614 0.959 . S
C626 C624 1.561 . S
C627 C624 1.514 1_554 S
C627 C628 1.392 1_554 S
C627 C632 1.403 . S
C628 C622 1.465 . S
C628 C627 1.392 1_556 S
C628 C629 1.399 1_556 S
C629 H615 0.929 . S
C629 C628 1.399 1_554 S
C629 C630 1.385 . S
C630 H616 0.931 . S
C630 C629 1.385 . S
C630 C631 1.389 . S
C631 C630 1.389 . S
C631 C632 1.387 . S
C632 H617 0.930 . S
C632 C627 1.403 . S
C632 C631 1.387 . S
H633 C645 0.930 . S
H634 C647 0.930 1_655 S
H635 C648 0.930 1_655 S
H636 C652 0.959 . S
H637 C652 0.959 . S
H638 C652 0.961 . S
H639 C653 0.960 . S
H640 C653 0.961 . S
H641 C653 0.959 1_655 S
H642 C656 0.929 1_655 S
H643 C657 0.931 . S
H644 C659 0.930 . S
C645 H633 0.930 . S
C645 C646 1.399 . S
C645 C650 1.399 . S
C646 C645 1.399 . S
C646 C647 1.376 . S
C647 H634 0.930 1_455 S
C647 C646 1.376 . S
C647 C648 1.388 . S
C648 H635 0.930 1_455 S
C648 C647 1.388 . S
C648 C649 1.390 . S
C649 C648 1.390 . S
C649 C650 1.394 . S
C649 C655 1.465 . S
C650 C645 1.399 . S
C650 C649 1.394 . S
C650 C651 1.516 . S
C651 C650 1.516 . S
C651 C652 1.502 . S
C651 C653 1.561 . S
C651 C654 1.526 . S
C652 H636 0.959 . S
C652 H637 0.959 . S
C652 H638 0.961 . S
C652 C651 1.502 . S
C653 H639 0.960 . S
C653 H640 0.961 . S
C653 H641 0.959 1_455 S
C653 C651 1.561 . S
C654 C651 1.526 . S
C654 C655 1.396 . S
C654 C659 1.390 . S
C655 C649 1.465 . S
C655 C654 1.396 . S
C655 C656 1.399 . S
C656 H642 0.929 1_455 S
C656 C655 1.399 . S
C656 C657 1.385 . S
C657 H643 0.931 . S
C657 C656 1.385 . S
C657 C658 1.389 . S
C658 C657 1.389 . S
C658 C659 1.387 . S
C659 H644 0.930 . S
C659 C654 1.390 . S
C659 C658 1.387 . S
C187 C19 2.878 . S
C199 C169 2.886 . S
C214 C49 2.974 . S
C226 C151 2.955 1_655 S
C241 C99 2.840 . S
C253 C163 2.842 . S
C268 C9 2.953 . S
C280 C172 2.929 . S
C307 C154 2.843 . S
C295 C59 2.840 . S
C334 C160 2.936 . S
C322 C89 2.967 . S
C349 C55 0.622 . S
C361 C133 0.477 . S
C376 C85 0.539 . S
C388 C142 0.543 . S
C403 C15 0.621 . S
C415 C124 0.470 . S
C442 C136 0.514 . S
C430 C45 0.574 . S
C469 C145 0.422 . S
C457 C95 0.515 . S
C484 C5 0.717 . S
C496 C127 0.493 . S
C523 C143 1.000 . S
C511 C18 0.967 . S
C538 C58 1.030 . S
C550 C125 1.011 . S
C565 C98 0.993 . S
C577 C134 1.013 . S
C604 C161 1.812 . S
C592 C48 1.733 . S
C631 C170 1.809 . S
C619 C88 1.759 . S
C646 C8 1.689 . S
C658 C152 1.812 . S
